drugbank_target|P63092 Guanine nucleotide-binding protein G(s) subunit alpha isoforms short (DB02587; DB06843)
 OpenBabel12092120373D

  0  0  0     0  0            999 V3000
M  V30 BEGIN CTAB
M  V30 COUNTS 6361 6423 0 0 0
M  V30 BEGIN ATOM
M  V30 1 H -0.908 1.98254 -0.117106 0
M  V30 2 N 0 1.576 0 0
M  V30 3 C 0.933 2.03868 1.02534 0
M  V30 4 C 1.911 0.928543 1.3348 0
M  V30 5 O 3.095 1.19667 1.45644 0
M  V30 6 C 0.222 2.43627 2.35294 0
M  V30 7 C -0.732 3.65373 2.2001 0
M  V30 8 S 0.101 5.13292 1.52614 0
M  V30 9 C 1.257 5.56322 2.86805 0
M  V30 10 H 1.49 2.90518 0.631377 0
M  V30 11 H -0.977 1.52953 0.210867 0
M  V30 12 H 0.981 2.67203 3.11629 0
M  V30 13 H -0.358 1.57376 2.7183 0
M  V30 14 H -1.165 3.90944 3.18086 0
M  V30 15 H -1.563 3.418 1.51819 0
M  V30 16 H 0.729 5.58782 3.83104 0
M  V30 17 H 1.672 6.56266 2.65933 0
M  V30 18 H 2.08 4.83886 2.90714 0
M  V30 19 N 1.4781 -0.272755 1.55222 0
M  V30 20 C 2.7261 -1.00234 1.75492 0
M  V30 21 C 3.0471 -1.8681 0.5592 0
M  V30 22 O 2.3171 -1.91215 -0.425882 0
M  V30 23 H 0.8971 -0.373076 0.647166 0
M  V30 24 H 3.5591 -0.296926 1.92625 0
M  V30 25 H 2.6551 -1.63913 2.65592 0
M  V30 26 N 2.9562 -1.48159 -0.537278 0
M  V30 27 C 4.1962 -1.57397 -1.30405 0
M  V30 28 C 4.5602 -0.239202 -1.90504 0
M  V30 29 O 5.7612 -0.206528 -2.68005 0
M  V30 30 C 4.0322 -2.6754 -2.36974 0
M  V30 31 S 5.5912 -2.96496 -3.23475 0
M  V30 32 H 2.4092 -0.555577 -0.443684 0
M  V30 33 H 5.0112 -1.85644 -0.612912 0
M  V30 34 H 3.7152 -3.63092 -1.91291 0
M  V30 35 H 3.2462 -2.41172 -3.10805 0
M  V30 36 H 5.2612 -2.35234 -4.36897 0
M  V30 37 N 4.4343 0.785586 -1.36625 0
M  V30 38 C 5.3643 1.91259 -1.33949 0
M  V30 39 C 6.3453 1.68795 -0.210325 0
M  V30 40 O 7.5303 1.89854 -0.408561 0
M  V30 41 C 4.6603 3.28339 -1.13186 0
M  V30 42 C 3.6143 3.65335 -2.22967 0
M  V30 43 C 2.9403 5.00806 -1.87342 0
M  V30 44 C 4.2403 3.7352 -3.65075 0
M  V30 45 H 5.9343 1.93755 -2.28253 0
M  V30 46 H 3.4803 0.930788 -1.09874 0
M  V30 47 H 5.4333 4.06804 -1.09948 0
M  V30 48 H 4.1573 3.2624 -0.153332 0
M  V30 49 H 2.8163 2.89169 -2.25337 0
M  V30 50 H 2.4643 4.95233 -0.880545 0
M  V30 51 H 2.1643 5.26529 -2.60846 0
M  V30 52 H 3.6883 5.81687 -1.85667 0
M  V30 53 H 5.1023 4.42168 -3.64911 0
M  V30 54 H 3.4993 4.10731 -4.37516 0
M  V30 55 H 4.5693 2.74527 -3.99703 0
M  V30 56 N 5.9124 1.20967 1.01018 0
M  V30 57 C 7.1604 1.02172 1.74371 0
M  V30 58 C 7.4814 -0.446414 1.89821 0
M  V30 59 O 6.7514 -1.32234 1.44537 0
M  V30 60 H 5.3314 0.375066 0.646014 0
M  V30 61 H 7.9934 1.52187 1.21758 0
M  V30 62 H 7.0894 1.48538 2.74487 0
M  V30 63 N 7.3905 -1.2043 1.01659 0
M  V30 64 C 8.3385 -2.25249 0.580143 0
M  V30 65 C 9.3325 -1.65057 -0.381115 0
M  V30 66 O 10.5385 -1.78241 -0.251039 0
M  V30 67 H 6.9135 -0.732695 0.169299 0
M  V30 68 H 8.8845 -2.59389 1.47512 0
M  V30 69 C 7.6335 -3.47638 -0.065788 0
M  V30 70 H 6.9565 -3.94233 0.664874 0
M  V30 71 H 8.3965 -4.2268 -0.334282 0
M  V30 72 C 6.8555 -3.10447 -1.3086 0
M  V30 73 O 7.3855 -3.21981 -2.4019 0
M  V30 74 N 5.5915 -2.64996 -1.1927 0
M  V30 75 H 5.1385 -2.55811 -0.303064 0
M  V30 76 H 5.0965 -2.40482 -2.02523 0
M  V30 77 N 8.8686 -0.792821 -1.36206 0
M  V30 78 C 10.0936 -0.377701 -2.03932 0
M  V30 79 C 10.5186 0.998947 -1.59382 0
M  V30 80 O 9.8766 1.64421 -0.763903 0
M  V30 81 C 9.9246 -0.453635 -3.57735 0
M  V30 82 O 9.0286 0.538151 -4.08874 0
M  V30 83 H 8.3696 -0.159855 -0.644471 0
M  V30 84 H 10.8996 -1.07488 -1.7409 0
M  V30 85 H 10.9096 -0.318464 -4.06755 0
M  V30 86 H 9.5846 -1.45784 -3.89512 0
M  V30 87 H 8.1616 0.364359 -3.71116 0
M  V30 88 N 10.3467 1.47872 -0.545128 0
M  V30 89 C 11.2937 2.29849 0.2093 0
M  V30 90 C 12.2637 1.38313 0.919707 0
M  V30 91 O 13.4487 1.67277 0.917772 0
M  V30 92 C 10.5887 3.22019 1.24088 0
M  V30 93 C 9.7017 4.2864 0.537778 0
M  V30 94 C 8.8367 5.07973 1.5536 0
M  V30 95 C 7.8757 6.06381 0.8348 0
M  V30 96 N 7.0127 6.78717 1.79688 0
M  V30 97 H 11.8527 2.93845 -0.49591 0
M  V30 98 H 9.3897 1.44848 -0.256389 0
M  V30 99 H 11.3477 3.73868 1.85144 0
M  V30 100 H 9.9777 2.59914 1.91428 0
M  V30 101 H 9.0297 3.7994 -0.187046 0
M  V30 102 H 10.3417 4.98793 -0.0258907 0
M  V30 103 H 9.4957 5.63912 2.23803 0
M  V30 104 H 8.2347 4.37693 2.15118 0
M  V30 105 H 7.2397 5.49631 0.136388 0
M  V30 106 H 8.4647 6.78665 0.24313 0
M  V30 107 H 6.4107 6.11177 2.38326 0
M  V30 108 H 6.3277 7.44998 1.28505 0
M  V30 109 H 7.5957 7.39237 2.47282 0
M  V30 110 N 11.8248 0.280983 1.55075 0
M  V30 111 C 13.0528 -0.337293 2.04132 0
M  V30 112 C 13.4678 -1.4903 1.15912 0
M  V30 113 O 12.8248 -1.81606 0.180459 0
M  V30 114 C 12.8758 -0.812706 3.52246 0
M  V30 115 O 12.5968 0.294387 4.3711 0
M  V30 116 C 14.0978 -1.4982 4.17216 0
M  V30 117 H 11.3178 -0.0761638 0.666663 0
M  V30 118 H 13.8618 0.414787 2.00249 0
M  V30 119 H 12.0168 -1.51486 3.56554 0
M  V30 120 H 12.4308 -0.0721325 5.2445 0
M  V30 121 H 13.9048 -1.7822 5.22438 0
M  V30 122 H 14.3818 -2.43168 3.65741 0
M  V30 123 H 14.9878 -0.839742 4.16927 0
M  V30 124 N 13.3029 -1.57598 0.00835791 0
M  V30 125 C 14.2129 -2.12385 -0.996487 0
M  V30 126 C 15.2289 -1.07108 -1.37127 0
M  V30 127 O 16.4049 -1.39055 -1.4569 0
M  V30 128 C 13.4699 -2.62314 -2.26699 0
M  V30 129 C 12.5309 -3.82225 -1.95456 0
M  V30 130 C 11.7639 -4.29763 -3.16449 0
M  V30 131 O 11.9869 -3.76584 -4.28416 0
M  V30 132 O 10.9209 -5.21832 -2.99958 0
M  V30 133 H 14.7469 -2.98479 -0.560725 0
M  V30 134 H 12.3319 -1.47903 -0.210987 0
M  V30 135 H 14.2139 -2.94589 -3.01322 0
M  V30 136 H 12.8889 -1.79313 -2.69497 0
M  V30 137 H 11.7959 -3.54909 -1.18282 0
M  V30 138 H 13.1289 -4.66324 -1.57489 0
M  V30 139 N 14.781 0.264519 -1.55364 0
M  V30 140 C 16.058 1.01677 -1.67096 0
M  V30 141 C 16.438 2.03996 -0.543015 0
M  V30 142 O 15.786 2.23907 0.45585 0
M  V30 143 C 15.996 1.66596 -3.0667 0
M  V30 144 C 17.344 2.17442 -3.64697 0
M  V30 145 O 18.368 1.76568 -3.09358 0
M  V30 146 O 17.227 2.92439 -4.61673 0
M  V30 147 H 14.321 0.472161 -0.678965 0
M  V30 148 H 16.867 0.259703 -1.67701 0
M  V30 149 H 15.639 0.924962 -3.80211 0
M  V30 150 H 15.262 2.48968 -3.10001 0
M  V30 151 N 16.2591 1.48442 0.529413 0
M  V30 152 C 17.1911 1.59095 1.64989 0
M  V30 153 C 18.2041 0.475212 1.5571 0
M  V30 154 O 19.3931 0.746081 1.6216 0
M  V30 155 C 16.4931 1.50518 3.0364 0
M  V30 156 C 15.6661 2.77142 3.38395 0
M  V30 157 C 14.7251 2.62012 4.56329 0
M  V30 158 O 13.7511 3.35898 4.59522 0
M  V30 159 N 14.9531 1.71667 5.54536 0
M  V30 160 H 17.7181 2.55723 1.56287 0
M  V30 161 H 15.2791 1.45173 0.716697 0
M  V30 162 H 17.2711 1.38091 3.80412 0
M  V30 163 H 15.8411 0.618627 3.06418 0
M  V30 164 H 15.0611 3.0413 2.50796 0
M  V30 165 H 16.3491 3.61146 3.58401 0
M  V30 166 H 15.7471 1.10841 5.54735 0
M  V30 167 H 14.3041 1.65178 6.30523 0
M  V30 168 N 17.7372 -0.778329 1.37039 0
M  V30 169 C 19.1532 -1.07796 1.17695 0
M  V30 170 C 19.3532 -2.01498 0.00860115 0
M  V30 171 O 18.4092 -2.43901 -0.653352 0
M  V30 172 C 19.7222 -1.68178 2.49272 0
M  V30 173 C 21.2702 -1.80467 2.55735 0
M  V30 174 C 21.7452 -2.44263 3.87427 0
M  V30 175 N 23.2362 -2.51721 3.88833 0
M  V30 176 C 23.9712 -3.01919 4.87476 0
M  V30 177 N 23.4672 -3.5234 5.96513 0
M  V30 178 N 25.2602 -3.00733 4.74885 0
M  V30 179 H 17.4112 -0.156032 2.11826 0
M  V30 180 H 19.6742 -0.131844 0.938787 0
M  V30 181 H 19.3802 -1.06796 3.35093 0
M  V30 182 H 19.2542 -2.67554 2.65885 0
M  V30 183 H 21.6412 -2.40984 1.70325 0
M  V30 184 H 21.7222 -0.798656 2.43013 0
M  V30 185 H 21.3662 -1.84388 4.73248 0
M  V30 186 H 21.2962 -3.45458 3.9745 0
M  V30 187 H 23.7872 -2.1603 3.10063 0
M  V30 188 H 24.1002 -3.89027 6.67741 0
M  V30 189 H 22.4452 -3.50462 6.00168 0
M  V30 190 H 25.6362 -2.60638 3.88826 0
M  V30 191 H 25.8092 -3.39545 5.51918 0
M  V30 192 N 19.2153 -1.21501 -1.00376 0
M  V30 193 C 20.1633 -0.972442 -2.11297 0
M  V30 194 C 21.1573 0.080731 -1.69208 0
M  V30 195 O 22.3633 -0.0707666 -1.79861 0
M  V30 196 H 18.7383 -0.297218 -0.690772 0
M  V30 197 H 20.7093 -1.91394 -2.28934 0
M  V30 198 C 19.4583 -0.555065 -3.43241 0
M  V30 199 H 18.7813 -1.35709 -3.76062 0
M  V30 200 H 20.2213 -0.424664 -4.21868 0
M  V30 201 C 18.6803 0.734147 -3.28804 0
M  V30 202 O 19.2103 1.78937 -3.59645 0
M  V30 203 N 17.4163 0.701133 -2.82015 0
M  V30 204 H 16.9633 -0.157874 -2.57116 0
M  V30 205 H 16.9213 1.56403 -2.72737 0
M  V30 206 N 20.6934 1.19889 -1.02296 0
M  V30 207 C 21.6034 2.26571 -0.608508 0
M  V30 208 C 22.6194 1.70299 0.356964 0
M  V30 209 O 23.7954 2.00235 0.216326 0
M  V30 210 C 20.8604 3.46677 0.0402814 0
M  V30 211 C 19.9214 4.18153 -0.97194 0
M  V30 212 C 19.1544 5.32525 -0.354016 0
M  V30 213 O 19.3774 5.64112 0.844604 0
M  V30 214 O 18.3114 5.92242 -1.07391 0
M  V30 215 H 22.1374 2.64251 -1.49684 0
M  V30 216 H 19.7224 1.26629 -0.792809 0
M  V30 217 H 21.6044 4.19475 0.402324 0
M  V30 218 H 20.2794 3.10858 0.902707 0
M  V30 219 H 19.1864 3.47499 -1.38546 0
M  V30 220 H 20.5194 4.57927 -1.80454 0
M  V30 221 N 22.1715 0.800033 1.35784 0
M  V30 222 C 23.0815 0.207204 2.33683 0
M  V30 223 C 24.0975 -0.64631 1.61551 0
M  V30 224 O 25.2735 -0.559604 1.93469 0
M  V30 225 C 22.3385 -0.639659 3.40748 0
M  V30 226 C 21.3995 0.233585 4.28664 0
M  V30 227 C 20.6325 -0.572954 5.30616 0
M  V30 228 O 20.8555 -1.80816 5.40982 0
M  V30 229 O 19.7895 0.0327285 6.01891 0
M  V30 230 H 23.6155 1.01692 2.86169 0
M  V30 231 H 21.2005 0.561691 1.38439 0
M  V30 232 H 23.0825 -1.12223 4.06182 0
M  V30 233 H 21.7575 -1.42708 2.90544 0
M  V30 234 H 20.6645 0.763147 3.66233 0
M  V30 235 H 21.9975 0.984784 4.82248 0
M  V30 236 N 23.6496 -1.47581 0.552962 0
M  V30 237 C 24.5966 -2.29957 -0.197108 0
M  V30 238 C 25.5666 -1.38799 -0.912359 0
M  V30 239 O 26.7516 -1.67761 -0.908888 0
M  V30 240 C 23.8916 -3.22672 -1.22379 0
M  V30 241 C 23.0046 -4.28919 -0.515038 0
M  V30 242 C 22.1396 -5.0879 -1.52664 0
M  V30 243 C 21.1786 -6.06815 -0.802631 0
M  V30 244 N 20.3156 -6.7966 -1.76086 0
M  V30 245 H 25.1556 -2.93578 0.511486 0
M  V30 246 H 22.6926 -1.4471 0.264067 0
M  V30 247 H 24.6506 -3.74845 -1.83159 0
M  V30 248 H 23.2806 -2.60925 -1.90047 0
M  V30 249 H 22.3326 -3.79835 0.207192 0
M  V30 250 H 23.6446 -4.98773 0.0523425 0
M  V30 251 H 22.7986 -5.65091 -2.20809 0
M  V30 252 H 21.5376 -4.38828 -2.12794 0
M  V30 253 H 20.5426 -5.49695 -0.107238 0
M  V30 254 H 21.7676 -6.78784 -0.207135 0
M  V30 255 H 19.7136 -6.12432 -2.35081 0
M  V30 256 H 19.6306 -7.45669 -1.24552 0
M  V30 257 H 20.8986 -7.40538 -2.43359 0
M  V30 258 N 25.1277 -0.289203 -1.54924 0
M  V30 259 C 26.0907 0.579144 -2.21762 0
M  V30 260 C 27.0907 1.07047 -1.1999 0
M  V30 261 O 28.2807 0.968384 -1.44803 0
M  V30 262 C 25.4127 1.80055 -2.8947 0
M  V30 263 H 26.6057 -0.00464908 -2.999 0
M  V30 264 H 24.1587 -0.0399306 -1.56249 0
M  V30 265 H 24.8937 2.42449 -2.15381 0
M  V30 266 H 24.6787 1.45602 -3.64064 0
M  V30 267 H 26.1687 2.41773 -3.40493 0
M  V30 268 N 26.6058 1.57591 -0.0167156 0
M  V30 269 C 27.5378 2.06343 0.997753 0
M  V30 270 C 28.5508 0.984469 1.29661 0
M  V30 271 O 29.7398 1.26093 1.26344 0
M  V30 272 C 26.8398 2.46255 2.32834 0
M  V30 273 C 26.0128 3.77083 2.21646 0
M  V30 274 C 25.0718 4.0368 3.37534 0
M  V30 275 O 24.0978 4.7411 3.14973 0
M  V30 276 N 25.2998 3.52881 4.60929 0
M  V30 277 H 28.0648 2.93997 0.581875 0
M  V30 278 H 25.6258 1.61002 0.170316 0
M  V30 279 H 27.6178 2.61149 3.09166 0
M  V30 280 H 26.1878 1.64032 2.66106 0
M  V30 281 H 25.4078 3.72106 1.30119 0
M  V30 282 H 26.6958 4.62822 2.11361 0
M  V30 283 H 26.0938 2.95878 4.82154 0
M  V30 284 H 24.6508 3.73076 5.34469 0
M  V30 285 N 28.0839 -0.256276 1.55502 0
M  V30 286 C 29.4999 -0.604325 1.47716 0
M  V30 287 C 29.6999 -1.88763 0.705039 0
M  V30 288 O 28.7559 -2.51445 0.230613 0
M  V30 289 C 30.0689 -0.715756 2.92057 0
M  V30 290 C 31.6169 -0.808706 3.02372 0
M  V30 291 C 32.0919 -0.951777 4.48001 0
M  V30 292 N 33.5829 -1.01688 4.519 0
M  V30 293 C 34.3179 -1.14668 5.61817 0
M  V30 294 N 33.8139 -1.24261 6.81565 0
M  V30 295 N 35.6069 -1.1791 5.49594 0
M  V30 296 H 27.7579 0.586291 2.04148 0
M  V30 297 H 30.0209 0.201015 0.926443 0
M  V30 298 H 29.7269 0.157027 3.51349 0
M  V30 299 H 29.6009 -1.59071 3.42018 0
M  V30 300 H 31.9879 -1.67195 2.43166 0
M  V30 301 H 32.0689 0.0912063 2.55637 0
M  V30 302 H 31.7129 -0.0931291 5.07815 0
M  V30 303 H 31.6429 -1.86659 4.92408 0
M  V30 304 H 34.1339 -0.954468 3.65648 0
M  V30 305 H 34.4469 -1.34046 7.61086 0
M  V30 306 H 32.7919 -1.21236 6.84344 0
M  V30 307 H 35.9829 -1.10057 4.54978 0
M  V30 308 H 36.1559 -1.27681 6.35296 0
M  V30 309 N 29.562 -1.4872 -0.521534 0
M  V30 310 C 30.472 -1.66569 -1.65203 0
M  V30 311 C 31.488 -0.548197 -1.65139 0
M  V30 312 O 32.664 -0.820339 -1.83936 0
M  V30 313 C 29.729 -1.70917 -3.01642 0
M  V30 314 C 28.79 -2.94356 -3.12495 0
M  V30 315 C 28.023 -2.98487 -4.42426 0
M  V30 316 O 28.246 -2.10786 -5.30024 0
M  V30 317 O 27.18 -3.90746 -4.57822 0
M  V30 318 H 31.006 -2.62298 -1.5308 0
M  V30 319 H 28.591 -1.3222 -0.695565 0
M  V30 320 H 30.473 -1.7625 -3.82771 0
M  V30 321 H 29.148 -0.783633 -3.14071 0
M  V30 322 H 28.055 -2.94552 -2.3063 0
M  V30 323 H 29.388 -3.86322 -3.04986 0
M  V30 324 N 31.0401 0.771051 -1.3745 0
M  V30 325 C 32.0031 1.86598 -1.33093 0
M  V30 326 C 33.0031 1.59076 -0.234845 0
M  V30 327 O 34.1931 1.67145 -0.490732 0
M  V30 328 C 31.3251 3.23747 -1.06773 0
M  V30 329 H 32.5181 1.91873 -2.30488 0
M  V30 330 H 30.0711 0.970876 -1.2249 0
M  V30 331 H 30.8061 3.24148 -0.099129 0
M  V30 332 H 30.5911 3.45115 -1.86112 0
M  V30 333 H 32.0811 4.03824 -1.06377 0
M  V30 334 N 32.5182 1.22032 0.997298 0
M  V30 335 C 33.4662 0.983634 2.10778 0
M  V30 336 C 34.4602 -0.0717564 1.69248 0
M  V30 337 O 35.6662 0.080304 1.79821 0
M  V30 338 H 32.0412 0.300877 0.689186 0
M  V30 339 H 34.0122 1.92606 2.27916 0
M  V30 340 C 32.7612 0.57326 3.42942 0
M  V30 341 H 32.0842 1.37702 3.75338 0
M  V30 342 H 33.5242 0.447031 4.21637 0
M  V30 343 C 31.9832 -0.7167 3.29188 0
M  V30 344 O 32.5132 -1.77027 3.60589 0
M  V30 345 N 30.7192 -0.686167 2.82383 0
M  V30 346 H 30.2662 0.171507 2.57028 0
M  V30 347 H 30.2242 -1.54955 2.73562 0
M  V30 348 N 33.9963 -1.19345 1.0293 0
M  V30 349 C 34.9433 -2.2258 0.610464 0
M  V30 350 C 35.9133 -1.6179 -0.375946 0
M  V30 351 O 37.0983 -1.88844 -0.272511 0
M  V30 352 C 34.2383 -3.45085 -0.0321473 0
M  V30 353 C 33.3513 -4.20258 1.00035 0
M  V30 354 C 32.4863 -5.3019 0.32746 0
M  V30 355 C 31.5253 -5.97121 1.34584 0
M  V30 356 N 30.6623 -6.98615 0.698726 0
M  V30 357 H 35.5023 -2.57764 1.49538 0
M  V30 358 H 33.0393 -1.26644 0.748311 0
M  V30 359 H 34.9973 -4.15061 -0.421966 0
M  V30 360 H 33.6273 -3.10555 -0.88064 0
M  V30 361 H 32.6793 -3.49223 1.50823 0
M  V30 362 H 33.9913 -4.66175 1.77433 0
M  V30 363 H 33.1453 -6.06587 -0.11718 0
M  V30 364 H 31.8843 -4.85345 -0.478713 0
M  V30 365 H 30.8893 -5.19474 1.80074 0
M  V30 366 H 32.1143 -6.4405 2.15352 0
M  V30 367 H 30.0603 -6.55942 -0.0873471 0
M  V30 368 H 29.9773 -7.42724 1.41058 0
M  V30 369 H 31.2453 -7.79004 0.278102 0
M  V30 370 N 35.4744 -0.807222 -1.35358 0
M  V30 371 C 36.4214 -0.216037 -2.29787 0
M  V30 372 C 37.3914 0.650278 -1.52842 0
M  V30 373 O 38.5764 0.595227 -1.81278 0
M  V30 374 C 35.7164 0.628893 -3.39321 0
M  V30 375 C 34.8294 -0.257927 -4.31229 0
M  V30 376 C 33.9644 0.595069 -5.27856 0
M  V30 377 C 33.0034 -0.292111 -6.11403 0
M  V30 378 N 32.1404 0.520895 -7.00165 0
M  V30 379 H 36.9804 -1.02671 -2.79755 0
M  V30 380 H 34.5174 -0.517839 -1.37684 0
M  V30 381 H 36.4754 1.13393 -4.01494 0
M  V30 382 H 35.1054 1.40482 -2.90628 0
M  V30 383 H 34.1574 -0.881076 -3.70056 0
M  V30 384 H 35.4694 -0.940759 -4.89848 0
M  V30 385 H 34.6234 1.16522 -5.95405 0
M  V30 386 H 33.3624 1.31146 -4.69736 0
M  V30 387 H 32.3674 -0.874525 -5.428 0
M  V30 388 H 33.5924 -1.00638 -6.71602 0
M  V30 389 H 31.5384 1.22125 -6.44532 0
M  V30 390 H 31.4554 -0.103877 -7.55929 0
M  V30 391 H 32.7234 1.0743 -7.72062 0
M  V30 392 N 36.9525 1.47285 -0.560781 0
M  V30 393 C 38.2015 2.01668 -0.035895 0
M  V30 394 C 38.5145 1.44021 1.32353 0
M  V30 395 O 39.7205 1.90088 1.93853 0
M  V30 396 C 38.1765 3.59897 -0.0136659 0
M  V30 397 C 37.7845 4.26536 -1.37006 0
M  V30 398 C 39.5285 4.22017 0.458425 0
M  V30 399 C 37.4355 5.76782 -1.30675 0
M  V30 400 H 36.3655 0.753938 -0.00964879 0
M  V30 401 H 39.0165 1.69243 -0.709166 0
M  V30 402 H 37.3985 3.89301 0.725325 0
M  V30 403 H 38.5725 4.0877 -2.12705 0
M  V30 404 H 36.8875 3.76419 -1.78038 0
M  V30 405 H 39.4845 5.32124 0.524247 0
M  V30 406 H 39.8275 3.89437 1.4712 0
M  V30 407 H 40.3605 3.97159 -0.225818 0
M  V30 408 H 37.0995 6.13988 -2.29564 0
M  V30 409 H 36.6195 5.96875 -0.591622 0
M  V30 410 H 38.2985 6.39063 -1.01033 0
M  V30 411 N 38.4306 0.297415 1.54768 0
M  V30 412 C 39.3406 -0.58983 2.27064 0
M  V30 413 C 40.3566 -1.15144 1.30453 0
M  V30 414 O 41.5326 -1.17699 1.63428 0
M  V30 415 C 38.5976 -1.74714 2.9946 0
M  V30 416 C 37.6586 -1.21997 4.11601 0
M  V30 417 C 36.8916 -2.32212 4.80535 0
M  V30 418 O 37.1146 -3.52036 4.48806 0
M  V30 419 O 36.0486 -1.99106 5.68014 0
M  V30 420 H 39.8746 -0.00348199 3.037 0
M  V30 421 H 37.4596 0.0640035 1.49263 0
M  V30 422 H 39.3416 -2.42147 3.44881 0
M  V30 423 H 38.0166 -2.32016 2.25722 0
M  V30 424 H 36.9236 -0.511458 3.70587 0
M  V30 425 H 38.2566 -0.692419 4.87305 0
M  V30 426 N 39.9087 -1.5758 0.0250728 0
M  V30 427 C 40.8557 -2.09973 -0.958129 0
M  V30 428 C 41.8257 -1.00085 -1.3256 0
M  V30 429 O 43.0107 -1.27481 -1.41962 0
M  V30 430 C 40.1507 -2.62812 -2.2366 0
M  V30 431 C 39.2637 -3.86693 -1.92594 0
M  V30 432 C 38.3987 -4.27941 -3.14707 0
M  V30 433 C 37.4377 -5.44591 -2.79442 0
M  V30 434 N 36.5747 -5.81014 -3.94167 0
M  V30 435 H 41.4147 -2.937 -0.504428 0
M  V30 436 H 38.9517 -1.45172 -0.237392 0
M  V30 437 H 40.9097 -2.91536 -2.98434 0
M  V30 438 H 39.5397 -1.81922 -2.66654 0
M  V30 439 H 38.5917 -3.64723 -1.0808 0
M  V30 440 H 39.9037 -4.71547 -1.62619 0
M  V30 441 H 39.0577 -4.58079 -3.97804 0
M  V30 442 H 37.7967 -3.41845 -3.4784 0
M  V30 443 H 36.8017 -5.1415 -1.94755 0
M  V30 444 H 38.0267 -6.32382 -2.47528 0
M  V30 445 H 35.9727 -4.97874 -4.2715 0
M  V30 446 H 35.8897 -6.60498 -3.67801 0
M  V30 447 H 37.1577 -6.15756 -4.7798 0
M  V30 448 N 41.3868 0.248026 -1.55636 0
M  V30 449 C 42.3188 1.32993 -1.8667 0
M  V30 450 C 43.3318 1.44345 -0.752877 0
M  V30 451 O 44.5208 1.45715 -1.03098 0
M  V30 452 C 41.6208 2.70863 -2.03682 0
M  V30 453 C 40.7938 2.81792 -3.34532 0
M  V30 454 C 39.8528 4.005 -3.41301 0
M  V30 455 O 38.8788 3.9008 -4.14519 0
M  V30 456 N 40.0808 5.13618 -2.70512 0
M  V30 457 H 42.8458 1.06707 -2.8006 0
M  V30 458 H 40.4068 0.438129 -1.55859 0
M  V30 459 H 42.3988 3.48612 -2.05553 0
M  V30 460 H 40.9688 2.89862 -1.17041 0
M  V30 461 H 40.1888 1.90729 -3.44987 0
M  V30 462 H 41.4768 2.86043 -4.20781 0
M  V30 463 H 40.8748 5.24975 -2.10755 0
M  V30 464 H 39.4318 5.89505 -2.78077 0
M  V30 465 N 42.8649 1.48995 0.513639 0
M  V30 466 C 43.7949 1.67636 1.62544 0
M  V30 467 C 44.7759 0.525087 1.61793 0
M  V30 468 O 45.9609 0.759502 1.78732 0
M  V30 469 C 43.0909 1.73114 3.01079 0
M  V30 470 C 42.0449 2.87905 3.16693 0
M  V30 471 C 41.3709 2.78486 4.56453 0
M  V30 472 C 42.6709 4.29005 2.97913 0
M  V30 473 H 44.3649 2.60716 1.47198 0
M  V30 474 H 41.9109 1.25465 0.706714 0
M  V30 475 H 43.8639 1.84742 3.78746 0
M  V30 476 H 42.5879 0.766241 3.17484 0
M  V30 477 H 41.2469 2.75859 2.41448 0
M  V30 478 H 40.8949 1.7993 4.69717 0
M  V30 479 H 40.5949 3.55523 4.67843 0
M  V30 480 H 42.1189 2.92104 5.36197 0
M  V30 481 H 43.5329 4.41798 3.65359 0
M  V30 482 H 41.9299 5.07166 3.20785 0
M  V30 483 H 42.9999 4.44329 1.94165 0
M  V30 484 N 44.343 -0.763751 1.37857 0
M  V30 485 C 45.275 -1.88664 1.30148 0
M  V30 486 C 46.288 -1.61365 0.215685 0
M  V30 487 O 47.477 -1.72134 0.472459 0
M  V30 488 C 44.577 -3.24075 0.991396 0
M  V30 489 C 43.75 -3.78958 2.18426 0
M  V30 490 C 42.809 -4.92862 1.8432 0
M  V30 491 O 41.835 -5.08027 2.56704 0
M  V30 492 N 43.037 -5.75071 0.792081 0
M  V30 493 H 45.802 -1.95791 2.26905 0
M  V30 494 H 43.363 -0.943226 1.31586 0
M  V30 495 H 45.355 -3.97804 0.743935 0
M  V30 496 H 43.925 -3.12399 0.112122 0
M  V30 497 H 43.145 -2.96913 2.59299 0
M  V30 498 H 44.433 -4.12357 2.98058 0
M  V30 499 H 43.831 -5.65375 0.191595 0
M  V30 500 H 42.388 -6.48991 0.60449 0
M  V30 501 N 45.8211 -1.22559 -0.990812 0
M  V30 502 C 46.7681 -0.997519 -2.0813 0
M  V30 503 C 47.7381 0.0814702 -1.659 0
M  V30 504 O 48.9231 -0.0685424 -1.90677 0
M  V30 505 C 46.0631 -0.583615 -3.40129 0
M  V30 506 C 45.1761 -1.7336 -3.9569 0
M  V30 507 C 44.3111 -1.26748 -5.15857 0
M  V30 508 C 43.3501 -2.38888 -5.63559 0
M  V30 509 N 42.4871 -1.93308 -6.74964 0
M  V30 510 H 47.3271 -1.93099 -2.26973 0
M  V30 511 H 44.8641 -0.962114 -1.11273 0
M  V30 512 H 46.8221 -0.324801 -4.15934 0
M  V30 513 H 45.4521 0.312845 -3.2128 0
M  V30 514 H 44.5041 -2.10669 -3.16738 0
M  V30 515 H 45.8161 -2.57704 -4.27071 0
M  V30 516 H 44.9701 -0.966173 -5.98957 0
M  V30 517 H 43.7091 -0.394272 -4.86104 0
M  V30 518 H 42.7141 -2.69805 -4.79046 0
M  V30 519 H 43.9391 -3.26728 -5.95336 0
M  V30 520 H 41.8851 -1.08352 -6.4699 0
M  V30 521 H 41.8021 -2.71217 -7.05675 0
M  V30 522 H 43.0701 -1.66252 -7.61564 0
M  V30 523 N 47.2992 1.18797 -1.03562 0
M  V30 524 C 48.5762 1.84469 -0.650434 0
M  V30 525 C 48.9562 1.92319 0.870433 0
M  V30 526 O 48.3042 1.44528 1.76986 0
M  V30 527 C 48.5142 3.2306 -1.32036 0
M  V30 528 C 49.8622 3.9915 -1.44792 0
M  V30 529 O 50.8862 3.32481 -1.27806 0
M  V30 530 O 49.7452 5.18587 -1.72423 0
M  V30 531 H 46.8392 0.795251 -0.226946 0
M  V30 532 H 49.3852 1.26231 -1.13419 0
M  V30 533 H 48.1572 3.1222 -2.3587 0
M  V30 534 H 47.7802 3.88949 -0.8249 0
M  V30 535 N 48.7773 0.814389 1.34928 0
M  V30 536 C 49.7243 0.22822 2.29669 0
M  V30 537 C 50.6943 -0.642164 1.53184 0
M  V30 538 O 51.8793 -0.585605 1.81591 0
M  V30 539 C 49.0193 -0.61089 3.3965 0
M  V30 540 C 48.1323 0.280792 4.31086 0
M  V30 541 C 47.2673 -0.567067 5.28165 0
M  V30 542 C 46.3063 0.324531 6.11239 0
M  V30 543 N 45.4433 -0.483756 7.00431 0
M  V30 544 H 50.2833 1.04153 2.79206 0
M  V30 545 H 47.8203 0.525133 1.37407 0
M  V30 546 H 49.7783 -1.11263 4.0209 0
M  V30 547 H 48.4083 -1.38939 2.91369 0
M  V30 548 H 47.4603 0.900688 3.69583 0
M  V30 549 H 48.7723 0.966723 4.89342 0
M  V30 550 H 47.9263 -1.13363 5.96015 0
M  V30 551 H 46.6653 -1.28654 4.70425 0
M  V30 552 H 45.6703 0.903298 5.42329 0
M  V30 553 H 46.8953 1.04198 6.71059 0
M  V30 554 H 44.8413 -1.18706 6.45171 0
M  V30 555 H 44.7583 0.143965 7.55863 0
M  V30 556 H 46.0263 -1.03334 7.7262 0
M  V30 557 N 50.2554 -1.46986 0.568584 0
M  V30 558 C 51.1874 -2.28233 -0.210337 0
M  V30 559 C 52.2004 -1.37682 -0.868767 0
M  V30 560 O 53.3894 -1.62406 -0.740705 0
M  V30 561 C 50.4894 -3.12293 -1.3163 0
M  V30 562 C 49.6624 -4.30878 -0.7525 0
M  V30 563 C 48.7214 -4.96445 -1.74439 0
M  V30 564 O 47.7474 -5.54482 -1.286 0
M  V30 565 N 48.9494 -4.92171 -3.07812 0
M  V30 566 H 51.7144 -2.95723 0.486648 0
M  V30 567 H 49.2754 -1.56742 0.405409 0
M  V30 568 H 51.2674 -3.53022 -1.97883 0
M  V30 569 H 49.8374 -2.46971 -1.91636 0
M  V30 570 H 49.0574 -3.94104 0.0871128 0
M  V30 571 H 50.3454 -5.07558 -0.35536 0
M  V30 572 H 49.7434 -4.46239 -3.47688 0
M  V30 573 H 48.3004 -5.36884 -3.69592 0
M  V30 574 N 51.7335 -0.305618 -1.54608 0
M  V30 575 C 52.9795 0.302746 -2.00528 0
M  V30 576 C 53.3125 1.53184 -1.19367 0
M  V30 577 O 52.5875 1.92598 -0.271321 0
M  V30 578 C 52.8705 0.654756 -3.54097 0
M  V30 579 C 52.7235 -0.583793 -4.45995 0
M  V30 580 C 54.0425 1.47947 -4.14487 0
M  V30 581 H 51.1615 0.108564 -0.72896 0
M  V30 582 H 53.8035 -0.418634 -1.85331 0
M  V30 583 H 51.9535 1.26935 -3.67178 0
M  V30 584 H 53.6255 -1.22224 -4.44814 0
M  V30 585 H 51.8685 -1.21615 -4.16404 0
M  V30 586 H 52.5395 -0.293287 -5.5122 0
M  V30 587 H 55.0155 0.96013 -4.04871 0
M  V30 588 H 53.8915 1.69454 -5.22088 0
M  V30 589 H 54.1525 2.47011 -3.66658 0
M  V30 590 N 53.2116 1.57565 -0.0334293 0
M  V30 591 C 54.4416 1.95996 0.653398 0
M  V30 592 C 54.8496 0.908749 1.65947 0
M  V30 593 O 54.1926 -0.117471 1.83324 0
M  V30 594 C 54.2546 3.30589 1.41249 0
M  V30 595 C 53.9186 4.53503 0.564263 0
M  V30 596 C 54.9156 5.19647 -0.16225 0
M  V30 597 C 52.6006 4.99801 0.500398 0
M  V30 598 C 54.5946 6.30412 -0.941255 0
M  V30 599 C 52.2816 6.10448 -0.282308 0
M  V30 600 C 53.2796 6.75612 -1.00184 0
M  V30 601 O 52.9676 7.84134 -1.77171 0
M  V30 602 H 52.6996 0.65027 0.184728 0
M  V30 603 H 55.2536 2.05199 -0.0907841 0
M  V30 604 H 53.4836 3.17888 2.20191 0
M  V30 605 H 55.1726 3.53892 1.98784 0
M  V30 606 H 55.9386 4.84846 -0.12227 0
M  V30 607 H 51.8176 4.48883 1.05002 0
M  V30 608 H 55.3616 6.81208 -1.50339 0
M  V30 609 H 51.2586 6.44686 -0.323989 0
M  V30 610 H 52.0266 8.00822 -1.69194 0
M  V30 611 N 54.6897 -0.239769 1.55765 0
M  V30 612 C 56.1057 -0.588624 1.48349 0
M  V30 613 C 56.3057 -1.88005 0.72502 0
M  V30 614 O 55.3617 -2.51186 0.257269 0
M  V30 615 C 56.6747 -0.68474 2.928 0
M  V30 616 C 58.2227 -0.77659 3.03213 0
M  V30 617 C 58.6977 -0.904207 4.48986 0
M  V30 618 N 60.1887 -0.968896 4.52953 0
M  V30 619 C 60.9237 -1.08703 5.63002 0
M  V30 620 N 60.4197 -1.17026 6.82845 0
M  V30 621 N 62.2127 -1.12074 5.50814 0
M  V30 622 H 54.3637 0.607911 2.03515 0
M  V30 623 H 56.6267 0.21083 0.924259 0
M  V30 624 H 56.3327 0.194284 3.51163 0
M  V30 625 H 56.2067 -1.55435 3.43686 0
M  V30 626 H 58.5937 -1.64606 2.44926 0
M  V30 627 H 58.6747 0.118315 2.55526 0
M  V30 628 H 58.3187 -0.0392633 5.07885 0
M  V30 629 H 58.2487 -1.81426 4.9436 0
M  V30 630 H 60.7397 -0.915633 3.6664 0
M  V30 631 H 61.0527 -1.25966 7.62465 0
M  V30 632 H 59.3977 -1.13971 6.85591 0
M  V30 633 H 62.5887 -1.05226 4.5612 0
M  V30 634 H 62.7617 -1.20936 6.36615 0
M  V30 635 N 56.1678 -1.49265 -0.50573 0
M  V30 636 C 57.1308 -1.65075 -1.59006 0
M  V30 637 C 58.1308 -0.522768 -1.52065 0
M  V30 638 O 59.3208 -0.789117 -1.55302 0
M  V30 639 C 56.4528 -1.64369 -2.98656 0
M  V30 640 H 57.6458 -2.61784 -1.46319 0
M  V30 641 H 55.1988 -1.38226 -0.729616 0
M  V30 642 H 55.9338 -0.692272 -3.16825 0
M  V30 643 H 55.7188 -2.46282 -3.05103 0
M  V30 644 H 57.2088 -1.78674 -3.77446 0
M  V30 645 N 57.6459 0.756429 -1.3826 0
M  V30 646 C 58.8739 1.54565 -1.3754 0
M  V30 647 C 59.2889 1.88767 0.0355331 0
M  V30 648 O 58.6459 1.52572 1.0014 0
M  V30 649 C 58.6969 2.84654 -2.22833 0
M  V30 650 O 58.4179 2.51912 -3.5843 0
M  V30 651 C 59.9189 3.78807 -2.30261 0
M  V30 652 H 57.1389 0.478353 -0.470553 0
M  V30 653 H 59.6829 0.936381 -1.81803 0
M  V30 654 H 57.8379 3.41965 -1.8204 0
M  V30 655 H 58.2519 3.35325 -4.03308 0
M  V30 656 H 59.7259 4.67045 -2.94233 0
M  V30 657 H 60.2029 4.19038 -1.31545 0
M  V30 658 H 60.8089 3.2742 -2.71433 0
M  V30 659 N 59.124 1.23083 0.984299 0
M  V30 660 C 60.074 0.975749 2.06066 0
M  V30 661 C 61.058 -0.0768251 1.60716 0
M  V30 662 O 62.25 0.134805 1.76486 0
M  V30 663 C 59.379 0.564673 3.38624 0
M  V30 664 C 58.465 1.65244 3.90583 0
M  V30 665 N 58.856 2.88193 4.15666 0
M  V30 666 C 57.154 1.52612 4.19077 0
M  V30 667 C 57.855 3.58593 4.58024 0
M  V30 668 N 56.831 2.86093 4.62225 0
M  V30 669 H 60.633 1.90957 2.23411 0
M  V30 670 H 58.147 1.12963 1.16675 0
M  V30 671 H 60.144 0.36322 4.15315 0
M  V30 672 H 58.804 -0.362147 3.22674 0
M  V30 673 H 59.815 3.24537 4.03604 0
M  V30 674 H 56.492 0.666121 4.12152 0
M  V30 675 H 57.882 4.63974 4.85982 0
M  V30 676 N 60.6021 -1.18246 1.0419 0
M  V30 677 C 62.0181 -1.40269 0.761366 0
M  V30 678 C 62.2181 -1.90777 -0.648578 0
M  V30 679 O 61.2741 -2.0929 -1.41258 0
M  V30 680 C 62.5871 -2.40237 1.8085 0
M  V30 681 C 64.1351 -2.53961 1.82955 0
M  V30 682 C 64.6101 -3.57194 2.86664 0
M  V30 683 N 66.1011 -3.64702 2.85563 0
M  V30 684 C 66.8361 -4.44309 3.6246 0
M  V30 685 N 66.3321 -5.27514 4.49111 0
M  V30 686 N 68.1251 -4.39084 3.50944 0
M  V30 687 H 60.2761 -0.837882 1.95175 0
M  V30 688 H 62.5391 -0.430608 0.84456 0
M  V30 689 H 62.2451 -2.10176 2.81991 0
M  V30 690 H 62.1191 -3.39601 1.64168 0
M  V30 691 H 64.5061 -2.83338 0.824855 0
M  V30 692 H 64.5871 -1.54706 2.03715 0
M  V30 693 H 64.2311 -3.28558 3.87314 0
M  V30 694 H 64.1611 -4.5613 2.6316 0
M  V30 695 H 66.6521 -3.05289 2.22727 0
M  V30 696 H 66.9651 -5.85411 5.04493 0
M  V30 697 H 65.3101 -5.2693 4.53178 0
M  V30 698 H 68.5011 -3.7313 2.82651 0
M  V30 699 H 68.6741 -5.00883 4.11121 0
M  V30 700 N 62.0802 -0.821533 -1.34494 0
M  V30 701 C 63.0102 -0.257138 -2.3208 0
M  V30 702 C 63.9912 0.625645 -1.58176 0
M  V30 703 O 65.1762 0.552811 -1.86166 0
M  V30 704 C 62.3062 0.582958 -3.42372 0
M  V30 705 C 61.2602 -0.202571 -4.2752 0
M  V30 706 C 60.5862 0.760179 -5.29269 0
M  V30 707 C 61.8862 -1.40998 -5.02908 0
M  V30 708 H 63.5802 -1.07247 -2.79532 0
M  V30 709 H 61.1262 -0.517163 -1.34393 0
M  V30 710 H 63.0792 0.987972 -4.09655 0
M  V30 711 H 61.8032 1.43133 -2.93565 0
M  V30 712 H 60.4622 -0.588936 -3.61838 0
M  V30 713 H 60.1102 1.60447 -4.76724 0
M  V30 714 H 59.8102 0.238809 -5.87115 0
M  V30 715 H 61.3342 1.16308 -5.9942 0
M  V30 716 H 62.7482 -1.07905 -5.63054 0
M  V30 717 H 61.1452 -1.86689 -5.70322 0
M  V30 718 H 62.2152 -2.1889 -4.32684 0
M  V30 719 N 63.5583 1.46682 -0.576371 0
M  V30 720 C 64.4883 2.33028 0.148397 0
M  V30 721 C 65.4693 1.44961 0.889956 0
M  V30 722 O 66.6543 1.73789 0.866662 0
M  V30 723 C 63.7843 3.27117 1.1667 0
M  V30 724 C 62.7383 4.24575 0.540386 0
M  V30 725 C 62.0643 5.08126 1.6647 0
M  V30 726 C 63.3643 5.19722 -0.518331 0
M  V30 727 H 65.0583 2.93875 -0.572509 0
M  V30 728 H 62.6043 1.41315 -0.276768 0
M  V30 729 H 64.5573 3.86374 1.68204 0
M  V30 730 H 63.2813 2.64364 1.9178 0
M  V30 731 H 61.9403 3.66571 0.0461769 0
M  V30 732 H 61.5883 4.41762 2.40531 0
M  V30 733 H 61.2883 5.74122 1.25131 0
M  V30 734 H 62.8123 5.70246 2.18293 0
M  V30 735 H 64.2263 5.73232 -0.0883058 0
M  V30 736 H 62.6233 5.94026 -0.851679 0
M  V30 737 H 63.6933 4.64037 -1.40703 0
M  V30 738 N 65.0364 0.313813 1.54444 0
M  V30 739 C 65.9664 -0.549454 2.26943 0
M  V30 740 C 66.9474 -1.12741 1.27372 0
M  V30 741 O 68.1324 -1.15436 1.56167 0
M  V30 742 C 65.2624 -1.71523 3.01989 0
M  V30 743 C 64.2164 -1.26703 4.08816 0
M  V30 744 C 63.5424 -2.51898 4.71647 0
M  V30 745 C 64.8424 -0.388962 5.2085 0
M  V30 746 H 66.5364 0.0552661 2.99349 0
M  V30 747 H 64.0824 0.0280207 1.43973 0
M  V30 748 H 66.0354 -2.32535 3.51433 0
M  V30 749 H 64.7594 -2.34639 2.27183 0
M  V30 750 H 63.4184 -0.679896 3.6024 0
M  V30 751 H 63.0664 -3.13356 3.93468 0
M  V30 752 H 62.7664 -2.22605 5.43802 0
M  V30 753 H 64.2904 -3.1369 5.23861 0
M  V30 754 H 65.7044 -0.905107 5.6611 0
M  V30 755 H 64.1014 -0.18924 5.99802 0
M  V30 756 H 65.1714 0.582699 4.81386 0
M  V30 757 N 66.5145 -1.57545 0.0417849 0
M  V30 758 C 67.4445 -2.14009 -0.933929 0
M  V30 759 C 68.4255 -1.05938 -1.33083 0
M  V30 760 O 69.6105 -1.33833 -1.40721 0
M  V30 761 C 66.7405 -2.67747 -2.21199 0
M  V30 762 C 65.6945 -3.80718 -1.95544 0
M  V30 763 C 65.0205 -4.20935 -3.29724 0
M  V30 764 C 66.3205 -5.06258 -1.28452 0
M  V30 765 H 68.0145 -2.95788 -0.463645 0
M  V30 766 H 65.5605 -1.42285 -0.221573 0
M  V30 767 H 67.5135 -3.05886 -2.89848 0
M  V30 768 H 66.2375 -1.83147 -2.70416 0
M  V30 769 H 64.8965 -3.43037 -1.2931 0
M  V30 770 H 64.5445 -3.33298 -3.76724 0
M  V30 771 H 64.2445 -4.9707 -3.13361 0
M  V30 772 H 65.7685 -4.61666 -3.9962 0
M  V30 773 H 67.1825 -5.41903 -1.8712 0
M  V30 774 H 65.5795 -5.87475 -1.22445 0
M  V30 775 H 66.6495 -4.84207 -0.259219 0
M  V30 776 N 67.9926 0.231505 -1.5589 0
M  V30 777 C 69.2406 0.955461 -1.78088 0
M  V30 778 C 69.5616 1.85262 -0.608533 0
M  V30 779 O 68.8316 1.92277 0.375035 0
M  V30 780 H 67.4116 0.355787 -0.656829 0
M  V30 781 H 70.0736 0.245751 -1.93344 0
M  V30 782 H 69.1696 1.56814 -2.69844 0
M  V30 783 N 69.4707 1.49531 0.497807 0
M  V30 784 C 70.4337 1.65916 1.58128 0
M  V30 785 C 71.4337 0.530825 1.51786 0
M  V30 786 O 72.6237 0.797342 1.54881 0
M  V30 787 C 69.7557 1.65951 2.9778 0
M  V30 788 H 70.9487 2.62556 1.44929 0
M  V30 789 H 68.5017 1.38611 0.722275 0
M  V30 790 H 69.2367 0.709065 3.16453 0
M  V30 791 H 69.0217 2.47897 3.03792 0
M  V30 792 H 70.5117 1.80673 3.76493 0
M  V30 793 N 70.9488 -0.749086 1.3866 0
M  V30 794 C 72.1968 -1.50535 1.34847 0
M  V30 795 C 72.5178 -1.94909 -0.0595016 0
M  V30 796 O 71.7878 -1.67973 -1.00806 0
M  V30 797 H 70.3678 -0.558395 0.49619 0
M  V30 798 H 73.0298 -0.890165 1.73384 0
M  V30 799 H 72.1258 -2.39413 2.00219 0
M  V30 800 N 72.4269 -1.23603 -0.977757 0
M  V30 801 C 73.3369 -1.03632 -2.1047 0
M  V30 802 C 74.3529 0.0199435 -1.73989 0
M  V30 803 O 75.5289 -0.176076 -2.00629 0
M  V30 804 C 72.5939 -0.63276 -3.40877 0
M  V30 805 C 71.6549 -1.76437 -3.91367 0
M  V30 806 C 70.8879 -1.37997 -5.15551 0
M  V30 807 O 71.1109 -0.265357 -5.69782 0
M  V30 808 O 70.0449 -2.20201 -5.60174 0
M  V30 809 H 73.8709 -1.98086 -2.30208 0
M  V30 810 H 71.4559 -1.02332 -1.08851 0
M  V30 811 H 73.3379 -0.418761 -4.19314 0
M  V30 812 H 72.0129 0.282754 -3.22463 0
M  V30 813 H 70.9199 -2.03304 -3.14036 0
M  V30 814 H 72.2529 -2.6583 -4.14241 0
M  V30 815 N 73.905 1.17692 -1.04816 0
M  V30 816 C 75.13 1.92327 -0.776207 0
M  V30 817 C 75.555 1.76082 0.661581 0
M  V30 818 O 74.913 1.076 1.45917 0
M  V30 819 C 74.961 3.41539 -1.15687 0
M  V30 820 O 74.065 4.11402 -0.286775 0
M  V30 821 H 73.406 0.599735 -0.284981 0
M  V30 822 H 75.936 1.49201 -1.4 0
M  V30 823 H 75.946 3.92269 -1.12202 0
M  V30 824 H 74.621 3.52684 -2.20425 0
M  V30 825 H 73.198 3.70939 -0.381903 0
M  V30 826 N 75.3831 0.828654 1.34056 0
M  V30 827 C 76.6311 0.41863 1.97717 0
M  V30 828 C 76.9521 -1.02314 1.66002 0
M  V30 829 O 76.2221 -1.71119 0.953683 0
M  V30 830 H 74.8021 0.151809 0.731412 0
M  V30 831 H 77.4641 1.05936 1.63596 0
M  V30 832 H 76.5601 0.542318 3.07352 0
M  V30 833 N 76.8612 -1.46375 0.584142 0
M  V30 834 C 77.8082 -2.30323 -0.148286 0
M  V30 835 C 78.7782 -1.40703 -0.882713 0
M  V30 836 O 79.9632 -1.69651 -0.873099 0
M  V30 837 C 77.1032 -3.25196 -1.15507 0
M  V30 838 C 76.2162 -4.29915 -0.423943 0
M  V30 839 C 75.3512 -5.11914 -1.41838 0
M  V30 840 C 74.3902 -6.08381 -0.673736 0
M  V30 841 N 73.5272 -6.83242 -1.6163 0
M  V30 842 H 78.3672 -2.92427 0.573644 0
M  V30 843 H 75.9042 -1.44118 0.294703 0
M  V30 844 H 77.8622 -3.78646 -1.75166 0
M  V30 845 H 76.4922 -2.64898 -1.8447 0
M  V30 846 H 75.5442 -3.7931 0.287714 0
M  V30 847 H 76.8562 -4.98549 0.158128 0
M  V30 848 H 76.0102 -5.69648 -2.08773 0
M  V30 849 H 74.7492 -4.43243 -2.03438 0
M  V30 850 H 73.7542 -5.49799 0.00938483 0
M  V30 851 H 74.9792 -6.79071 -0.0631082 0
M  V30 852 H 72.9252 -6.1728 -2.22038 0
M  V30 853 H 72.8422 -7.48144 -1.08707 0
M  V30 854 H 74.1102 -7.45534 -2.27596 0
M  V30 855 N 78.3393 -0.321999 -1.54275 0
M  V30 856 C 79.5643 0.285791 -2.05422 0
M  V30 857 C 79.9893 1.45124 -1.19669 0
M  V30 858 O 79.3473 1.80132 -0.205441 0
M  V30 859 C 79.3953 0.69956 -3.53749 0
M  V30 860 O 78.4993 1.8021 -3.70942 0
M  V30 861 H 77.8403 0.0518962 -0.661969 0
M  V30 862 H 80.3703 -0.469954 -1.9913 0
M  V30 863 H 80.3803 0.982649 -3.9599 0
M  V30 864 H 79.0553 -0.152864 -4.15619 0
M  V30 865 H 77.6323 1.51794 -3.40607 0
M  V30 866 N 79.8174 1.5752 -0.0501392 0
M  V30 867 C 81.0454 1.96963 0.633492 0
M  V30 868 C 81.4604 0.927631 1.6444 0
M  V30 869 O 80.8174 -0.0882665 1.82286 0
M  V30 870 C 80.8684 3.36487 1.32132 0
M  V30 871 O 80.5894 4.36693 0.350894 0
M  V30 872 C 82.0904 3.90682 2.09481 0
M  V30 873 H 79.3104 0.648244 0.173266 0
M  V30 874 H 81.8544 2.0417 -0.116134 0
M  V30 875 H 80.0094 3.30434 2.02218 0
M  V30 876 H 80.4234 5.17702 0.841735 0
M  V30 877 H 81.8974 4.90591 2.5303 0
M  V30 878 H 82.3744 3.26053 2.94255 0
M  V30 879 H 82.9804 4.00069 1.44307 0
M  V30 880 N 81.2955 -0.223234 1.56011 0
M  V30 881 C 82.5445 -0.945912 1.78144 0
M  V30 882 C 82.8575 -1.85567 0.618396 0
M  V30 883 O 84.0635 -2.61688 0.723318 0
M  V30 884 C 82.5195 -1.73216 3.15475 0
M  V30 885 C 82.1275 -0.868619 4.39499 0
M  V30 886 C 83.8715 -2.44615 3.46935 0
M  V30 887 C 81.7785 -1.65212 5.67855 0
M  V30 888 H 80.7085 -0.356929 0.664167 0
M  V30 889 H 83.3595 -0.199845 1.82409 0
M  V30 890 H 81.7415 -2.52107 3.05382 0
M  V30 891 H 82.9155 -0.120366 4.60643 0
M  V30 892 H 81.2305 -0.26683 4.15544 0
M  V30 893 H 83.8275 -3.03732 4.40058 0
M  V30 894 H 84.1705 -3.17417 2.69355 0
M  V30 895 H 84.7035 -1.72715 3.58349 0
M  V30 896 H 81.4425 -0.967407 6.48322 0
M  V30 897 H 80.9625 -2.37503 5.50774 0
M  V30 898 H 82.6415 -2.21322 6.07968 0
M  V30 899 N 82.7736 -1.49793 -0.48987 0
M  V30 900 C 84.0196 -1.60078 -1.24511 0
M  V30 901 C 84.3526 -0.291608 -1.91998 0
M  V30 902 O 83.6276 0.705647 -1.81248 0
M  V30 903 C 83.9106 -2.76791 -2.30345 0
M  V30 904 C 83.7636 -4.17535 -1.67286 0
M  V30 905 C 85.0826 -2.89111 -3.31817 0
M  V30 906 H 82.2016 -0.582645 -0.451324 0
M  V30 907 H 84.8436 -1.82117 -0.541612 0
M  V30 908 H 82.9936 -2.5813 -2.90346 0
M  V30 909 H 84.6656 -4.4774 -1.11026 0
M  V30 910 H 82.9086 -4.22665 -0.976577 0
M  V30 911 H 83.5796 -4.95094 -2.44103 0
M  V30 912 H 86.0556 -3.06133 -2.81819 0
M  V30 913 H 84.9316 -3.72433 -4.03219 0
M  V30 914 H 85.1926 -1.9893 -3.94815 0
M  V30 915 N 84.2517 0.741722 -1.39055 0
M  V30 916 C 85.1987 1.85566 -1.37237 0
M  V30 917 C 86.1687 1.64457 -0.233072 0
M  V30 918 O 87.3537 1.85957 -0.427147 0
M  V30 919 C 84.4937 3.23004 -1.215 0
M  V30 920 C 83.6067 3.55864 -2.44918 0
M  V30 921 C 82.7417 4.82669 -2.21821 0
M  V30 922 C 81.7807 5.08351 -3.40948 0
M  V30 923 N 80.9177 6.26356 -3.17211 0
M  V30 924 H 85.7577 1.86455 -2.32462 0
M  V30 925 H 83.2947 0.911176 -1.15482 0
M  V30 926 H 85.2527 4.02331 -1.10389 0
M  V30 927 H 83.8827 3.21411 -0.29908 0
M  V30 928 H 82.9347 2.7129 -2.66657 0
M  V30 929 H 84.2467 3.70765 -3.33668 0
M  V30 930 H 83.4007 5.69962 -2.07914 0
M  V30 931 H 82.1397 4.69929 -1.30454 0
M  V30 932 H 81.1447 4.19522 -3.55361 0
M  V30 933 H 82.3697 5.22981 -4.33207 0
M  V30 934 H 80.3157 6.14917 -2.28502 0
M  V30 935 H 80.2327 6.41813 -3.99515 0
M  V30 936 H 81.5007 7.16506 -3.06984 0
M  V30 937 N 85.7298 1.2412 0.971189 0
M  V30 938 C 86.6618 0.988349 2.06795 0
M  V30 939 C 87.6748 -0.0409541 1.62748 0
M  V30 940 O 88.8638 0.195673 1.77424 0
M  V30 941 C 85.9638 0.469023 3.35639 0
M  V30 942 C 85.1368 1.56065 4.08611 0
M  V30 943 C 84.1958 1.04458 5.15728 0
M  V30 944 O 83.2218 1.73553 5.42096 0
M  V30 945 N 84.4238 -0.122817 5.8037 0
M  V30 946 H 87.1888 1.93265 2.29061 0
M  V30 947 H 84.7498 1.15102 1.13856 0
M  V30 948 H 86.7418 0.108613 4.04554 0
M  V30 949 H 85.3118 -0.380919 3.1027 0
M  V30 950 H 84.5318 2.09341 3.34021 0
M  V30 951 H 85.8198 2.29449 4.54126 0
M  V30 952 H 85.2178 -0.700563 5.61345 0
M  V30 953 H 83.7748 -0.424404 6.50417 0
M  V30 954 N 87.2079 -1.17134 1.05439 0
M  V30 955 C 88.1409 -2.2012 0.601855 0
M  V30 956 C 89.1189 -1.58314 -0.370854 0
M  V30 957 O 90.3029 -1.8638 -0.281882 0
M  V30 958 C 87.4299 -3.38491 -0.118868 0
M  V30 959 C 86.4759 -4.18752 0.809242 0
M  V30 960 S 87.3089 -4.83602 2.29977 0
M  V30 961 C 88.4649 -6.0536 1.59029 0
M  V30 962 H 88.6979 -2.58165 1.47438 0
M  V30 963 H 86.2309 -1.27788 0.866573 0
M  V30 964 H 88.1889 -4.07084 -0.528495 0
M  V30 965 H 86.8499 -2.98829 -0.967465 0
M  V30 966 H 86.0429 -5.03373 0.251379 0
M  V30 967 H 85.6449 -3.5561 1.15835 0
M  V30 968 H 87.9369 -6.71615 0.891017 0
M  V30 969 H 88.8799 -6.65679 2.41407 0
M  V30 970 H 89.2879 -5.54138 1.07663 0
M  V30 971 N 88.686 -0.835752 -1.33615 0
M  V30 972 C 90.102 -0.523139 -1.50783 0
M  V30 973 C 90.302 0.950171 -1.77691 0
M  V30 974 O 89.358 1.73411 -1.83534 0
M  V30 975 C 90.671 -1.39378 -2.66448 0
M  V30 976 C 92.219 -1.39223 -2.80332 0
M  V30 977 C 92.694 -2.24765 -3.99055 0
M  V30 978 N 94.185 -2.22458 -4.06284 0
M  V30 979 C 94.92 -2.85386 -4.97336 0
M  V30 980 N 94.416 -3.57354 -5.93523 0
M  V30 981 N 96.209 -2.74872 -4.90308 0
M  V30 982 H 88.36 -1.78952 -1.14411 0
M  V30 983 H 90.623 -0.763297 -0.562212 0
M  V30 984 H 90.329 -2.44061 -2.53234 0
M  V30 985 H 90.203 -1.0676 -3.61776 0
M  V30 986 H 92.59 -0.353136 -2.92979 0
M  V30 987 H 92.671 -1.75846 -1.85773 0
M  V30 988 H 92.315 -3.28732 -3.87167 0
M  V30 989 H 92.245 -1.85485 -4.92852 0
M  V30 990 H 94.736 -1.70119 -3.37443 0
M  V30 991 H 95.049 -4.02584 -6.59656 0
M  V30 992 H 93.394 -3.61461 -5.93608 0
M  V30 993 H 96.585 -2.18213 -4.14126 0
M  V30 994 H 96.758 -3.24199 -5.61069 0
M  V30 995 N 90.1641 1.46063 -0.591896 0
M  V30 996 C 91.4131 2.01547 -0.0786637 0
M  V30 997 C 91.7261 1.46796 1.29268 0
M  V30 998 O 92.9321 1.94157 1.89777 0
M  V30 999 C 91.3881 3.59787 -0.0900024 0
M  V30 1000 C 90.9961 4.23534 -1.46023 0
M  V30 1001 C 92.7401 4.22895 0.368806 0
M  V30 1002 C 90.6471 5.73881 -1.4288 0
M  V30 1003 H 89.5771 0.753564 -0.0256388 0
M  V30 1004 H 92.2281 1.677 -0.744905 0
M  V30 1005 H 90.6101 3.90752 0.642586 0
M  V30 1006 H 91.7841 4.04167 -2.21328 0
M  V30 1007 H 90.0991 3.72558 -1.85982 0
M  V30 1008 H 92.6961 5.33116 0.411258 0
M  V30 1009 H 93.0391 3.9247 1.38827 0
M  V30 1010 H 93.5721 3.9659 -0.31001 0
M  V30 1011 H 90.3111 6.0898 -2.42536 0
M  V30 1012 H 89.8311 5.95486 -0.718095 0
M  V30 1013 H 91.5101 6.36776 -1.14565 0
M  V30 1014 N 91.6422 0.330177 1.54103 0
M  V30 1015 C 92.5722 -0.525353 2.27513 0
M  V30 1016 C 93.5532 -1.11383 1.2856 0
M  V30 1017 O 94.7382 -1.13773 1.57383 0
M  V30 1018 C 91.8682 -1.6831 3.03791 0
M  V30 1019 C 90.8222 -1.2236 4.10137 0
M  V30 1020 C 90.1482 -2.46882 4.74293 0
M  V30 1021 C 91.4482 -0.333697 5.21233 0
M  V30 1022 H 93.1422 0.087013 2.99274 0
M  V30 1023 H 90.6882 0.0432893 1.43935 0
M  V30 1024 H 92.6412 -2.28795 3.5388 0
M  V30 1025 H 91.3652 -2.32216 2.29659 0
M  V30 1026 H 90.0242 -0.64165 3.60941 0
M  V30 1027 H 89.6722 -3.09165 3.96769 0
M  V30 1028 H 89.3722 -2.16825 5.46133 0
M  V30 1029 H 90.8962 -3.08117 5.27159 0
M  V30 1030 H 92.3102 -0.845013 5.67038 0
M  V30 1031 H 90.7072 -0.125612 5.99969 0
M  V30 1032 H 91.7772 0.633724 4.80741 0
M  V30 1033 N 93.1203 -1.57491 0.0584922 0
M  V30 1034 C 94.0703 -2.08474 -0.923188 0
M  V30 1035 C 95.0543 -0.991479 -1.26722 0
M  V30 1036 O 96.2463 -1.25473 -1.24842 0
M  V30 1037 C 93.3753 -2.6392 -2.19548 0
M  V30 1038 C 92.4613 -3.80227 -1.87852 0
M  V30 1039 N 92.8523 -4.89714 -1.26546 0
M  V30 1040 C 91.1503 -3.89271 -2.17679 0
M  V30 1041 C 91.8513 -5.70689 -1.12644 0
M  V30 1042 N 90.8273 -5.18531 -1.63176 0
M  V30 1043 H 94.6293 -2.90517 -0.444653 0
M  V30 1044 H 92.1433 -1.61745 -0.145764 0
M  V30 1045 H 94.1403 -2.98752 -2.9078 0
M  V30 1046 H 92.8003 -1.83318 -2.68001 0
M  V30 1047 H 93.8113 -5.09358 -0.936757 0
M  V30 1048 H 90.4883 -3.19623 -2.68602 0
M  V30 1049 H 91.8783 -6.6875 -0.6499 0
M  V30 1050 N 94.5984 0.214957 -1.56127 0
M  V30 1051 C 95.8444 0.939762 -1.79712 0
M  V30 1052 C 96.1774 1.83723 -0.629247 0
M  V30 1053 O 95.4524 1.90925 0.371197 0
M  V30 1054 C 95.7354 1.77306 -3.13424 0
M  V30 1055 C 95.5884 0.90164 -4.40671 0
M  V30 1056 C 96.9074 2.74956 -3.43638 0
M  V30 1057 H 94.0264 0.340214 -0.653776 0
M  V30 1058 H 96.6684 0.20824 -1.88855 0
M  V30 1059 H 94.8184 2.39673 -3.0576 0
M  V30 1060 H 96.4904 0.294206 -4.60361 0
M  V30 1061 H 94.7334 0.207368 -4.33304 0
M  V30 1062 H 95.4044 1.51923 -5.30682 0
M  V30 1063 H 97.8804 2.22724 -3.51473 0
M  V30 1064 H 96.7564 3.30358 -4.38355 0
M  V30 1065 H 97.0174 3.53023 -2.66134 0
M  V30 1066 N 96.0765 1.50051 0.48192 0
M  V30 1067 C 97.0245 1.68635 1.60203 0
M  V30 1068 C 98.0185 0.552184 1.60148 0
M  V30 1069 O 99.2245 0.732377 1.64427 0
M  V30 1070 H 95.5995 0.532081 0.531407 0
M  V30 1071 H 97.5705 2.62616 1.41688 0
M  V30 1072 C 96.3195 1.78775 2.9822 0
M  V30 1073 H 95.6425 2.6543 2.98976 0
M  V30 1074 H 97.0825 1.95806 3.7608 0
M  V30 1075 C 95.5415 0.536849 3.32595 0
M  V30 1076 O 96.0715 -0.328897 4.00351 0
M  V30 1077 N 94.2775 0.394091 2.87915 0
M  V30 1078 H 93.8245 1.09962 2.32951 0
M  V30 1079 H 93.7825 -0.441737 3.11281 0
M  V30 1080 N 97.5546 -0.734337 1.39446 0
M  V30 1081 C 98.8026 -1.49096 1.36436 0
M  V30 1082 C 99.1236 -1.94961 -0.0388255 0
M  V30 1083 O 98.3936 -1.69033 -0.990191 0
M  V30 1084 H 96.9736 -0.5531 0.502085 0
M  V30 1085 H 99.6356 -0.871725 1.74319 0
M  V30 1086 H 98.7316 -2.37276 2.02747 0
M  V30 1087 N 99.0327 -1.24633 -0.964593 0
M  V30 1088 C 100.28 -1.08788 -1.70796 0
M  V30 1089 C 100.608 0.372783 -1.90894 0
M  V30 1090 O 99.8627 1.29167 -1.47018 0
M  V30 1091 C 100.162 -1.7763 -3.10133 0
M  V30 1092 C 99.8277 -3.27557 -3.09866 0
M  V30 1093 C 98.4897 -3.6846 -3.09501 0
M  V30 1094 C 100.842 -4.23389 -3.03959 0
M  V30 1095 C 98.1697 -5.03624 -3.00965 0
M  V30 1096 C 100.522 -5.58565 -2.96965 0
M  V30 1097 C 99.1857 -5.98809 -2.9493 0
M  V30 1098 H 98.4557 -0.398084 -0.624988 0
M  V30 1099 H 101.103 -1.54777 -1.12767 0
M  V30 1100 H 99.4077 -1.24044 -3.71645 0
M  V30 1101 H 101.105 -1.62832 -3.66451 0
M  V30 1102 H 97.6947 -2.95006 -3.10917 0
M  V30 1103 H 101.879 -3.92787 -3.03368 0
M  V30 1104 H 97.1347 -5.33998 -2.97752 0
M  V30 1105 H 101.309 -6.32523 -2.91354 0
M  V30 1106 H 98.9357 -7.03505 -2.88071 0
M  V30 1107 N 100.511 1.16574 -1.06058 0
M  V30 1108 C 101.459 2.22941 -0.663343 0
M  V30 1109 C 102.453 1.66358 0.319593 0
M  V30 1110 O 103.659 1.7905 0.184713 0
M  V30 1111 H 100.034 0.725907 -0.196376 0
M  V30 1112 H 102.005 2.53736 -1.57037 0
M  V30 1113 C 100.754 3.47642 -0.0632808 0
M  V30 1114 H 100.077 3.91493 -0.810733 0
M  V30 1115 H 101.517 4.2363 0.177177 0
M  V30 1116 C 99.9758 3.1509 1.19248 0
M  V30 1117 O 100.506 3.30673 2.28075 0
M  V30 1118 N 98.7118 2.6924 1.09353 0
M  V30 1119 H 98.2588 2.5676 0.207912 0
M  V30 1120 H 98.2168 2.47833 1.93458 0
M  V30 1121 N 101.989 0.842826 1.3317 0
M  V30 1122 C 103.237 0.439577 1.97262 0
M  V30 1123 C 103.558 -1.00548 1.67078 0
M  V30 1124 O 102.828 -1.70098 0.971779 0
M  V30 1125 H 101.408 0.159558 0.72976 0
M  V30 1126 H 104.07 1.07665 1.62463 0
M  V30 1127 H 103.166 0.574886 3.0676 0
M  V30 1128 N 103.467 -1.45747 0.599634 0
M  V30 1129 C 104.377 -2.34262 -0.125888 0
M  V30 1130 C 105.393 -1.50768 -0.868625 0
M  V30 1131 O 106.569 -1.83592 -0.828003 0
M  V30 1132 C 103.634 -3.28252 -1.11587 0
M  V30 1133 C 102.695 -4.27651 -0.375956 0
M  V30 1134 C 101.928 -5.1715 -1.31877 0
M  V30 1135 O 102.151 -5.09916 -2.55621 0
M  V30 1136 O 101.085 -5.96286 -0.820157 0
M  V30 1137 H 104.911 -2.97688 0.601315 0
M  V30 1138 H 102.496 -1.44999 0.359934 0
M  V30 1139 H 104.378 -3.86191 -1.68626 0
M  V30 1140 H 103.053 -2.67401 -1.82424 0
M  V30 1141 H 101.96 -3.7335 0.236698 0
M  V30 1142 H 103.293 -4.91334 0.29177 0
M  V30 1143 N 104.945 -0.338344 -1.53925 0
M  V30 1144 C 106.193 0.259245 -2.0043 0
M  V30 1145 C 106.514 1.51484 -1.22791 0
M  V30 1146 O 105.784 1.93037 -0.33368 0
M  V30 1147 H 104.364 0.0987845 -0.740439 0
M  V30 1148 H 107.026 -0.458302 -1.89435 0
M  V30 1149 H 106.122 0.505334 -3.07982 0
M  V30 1150 N 106.423 1.57458 -0.0668435 0
M  V30 1151 C 107.671 1.92919 0.602214 0
M  V30 1152 C 107.992 0.947215 1.70449 0
M  V30 1153 O 107.262 -0.00544117 1.95899 0
M  V30 1154 H 105.842 0.71217 0.22544 0
M  V30 1155 H 108.504 1.94508 -0.123535 0
M  V30 1156 H 107.6 2.94589 1.03073 0
M  V30 1157 N 107.901 -0.206675 1.56239 0
M  V30 1158 C 108.811 -1.27686 1.96808 0
M  V30 1159 C 109.827 -1.50455 0.874035 0
M  V30 1160 O 111.003 -1.63295 1.17884 0
M  V30 1161 C 108.068 -2.60358 2.28942 0
M  V30 1162 C 107.129 -2.45762 3.51994 0
M  V30 1163 C 106.362 -3.72108 3.82585 0
M  V30 1164 O 106.585 -4.75776 3.14631 0
M  V30 1165 O 105.519 -3.6833 4.76043 0
M  V30 1166 H 109.345 -0.962593 2.88041 0
M  V30 1167 H 106.93 -0.410746 1.43643 0
M  V30 1168 H 108.812 -3.38687 2.50737 0
M  V30 1169 H 107.487 -2.91435 1.4088 0
M  V30 1170 H 106.394 -1.65584 3.35459 0
M  V30 1171 H 107.727 -2.19621 4.40486 0
M  V30 1172 N 109.379 -1.50304 -0.473955 0
M  V30 1173 C 110.289 -1.7174 -1.5982 0
M  V30 1174 C 111.305 -0.600457 -1.63311 0
M  V30 1175 O 112.481 -0.878441 -1.81233 0
M  V30 1176 C 109.546 -1.80427 -2.96052 0
M  V30 1177 C 108.607 -3.04148 -3.02972 0
M  V30 1178 C 107.84 -3.12411 -4.32706 0
M  V30 1179 O 108.063 -2.27542 -5.23049 0
M  V30 1180 O 106.997 -4.05113 -4.45159 0
M  V30 1181 H 110.823 -2.67035 -1.44657 0
M  V30 1182 H 108.408 -1.34366 -0.653148 0
M  V30 1183 H 110.29 -1.88338 -3.7697 0
M  V30 1184 H 108.965 -0.883156 -3.11419 0
M  V30 1185 H 107.872 -3.0174 -2.21142 0
M  V30 1186 H 109.205 -3.95829 -2.92541 0
M  V30 1187 N 110.857 0.726932 -1.39834 0
M  V30 1188 C 112.134 1.47902 -1.28001 0
M  V30 1189 C 112.514 2.1083 0.106789 0
M  V30 1190 O 111.862 1.99242 1.11869 0
M  V30 1191 C 112.072 2.52392 -2.41038 0
M  V30 1192 C 113.42 3.18546 -2.80737 0
M  V30 1193 O 114.444 2.62708 -2.40547 0
M  V30 1194 O 113.303 4.19604 -3.50135 0
M  V30 1195 H 110.397 0.657163 -0.502062 0
M  V30 1196 H 112.943 0.760071 -1.51727 0
M  V30 1197 H 111.715 2.04329 -3.33715 0
M  V30 1198 H 111.338 3.31837 -2.19021 0
M  V30 1199 N 112.336 1.25143 0.95797 0
M  V30 1200 C 113.747 1.08851 1.51685 0
M  V30 1201 C 114.098 -0.33687 1.93286 0
M  V30 1202 O 113.223 -1.22644 1.7829 0
M  V30 1203 C 113.818 1.96978 2.75654 0
M  V30 1204 C 112.377 1.84881 3.27866 0
M  V30 1205 C 111.524 1.91329 2.0072 0
M  V30 1206 H 114.475 1.38478 0.77522 0
M  V30 1207 H 114.496 1.5078 3.4935 0
M  V30 1208 H 114.008 3.00712 2.45345 0
M  V30 1209 H 112.109 0.840182 3.63004 0
M  V30 1210 H 112.222 2.6951 3.96107 0
M  V30 1211 H 110.586 1.35174 2.15871 0
M  V30 1212 H 111.369 2.96661 1.72764 0
M  V30 1213 N 113.814 -1.1601 1.06675 0
M  V30 1214 C 114.746 -2.20115 0.638921 0
M  V30 1215 C 115.759 -1.59916 -0.305057 0
M  V30 1216 O 116.948 -1.78245 -0.0954446 0
M  V30 1217 C 114.048 -3.38798 -0.0830083 0
M  V30 1218 C 113.221 -4.2855 0.875426 0
M  V30 1219 C 112.28 -5.25849 0.192042 0
M  V30 1220 O 111.306 -5.63102 0.830921 0
M  V30 1221 N 112.508 -5.70648 -1.06493 0
M  V30 1222 H 115.273 -2.57439 1.53444 0
M  V30 1223 H 112.834 -1.31057 0.950557 0
M  V30 1224 H 114.826 -4.00936 -0.550685 0
M  V30 1225 H 113.396 -2.99947 -0.880386 0
M  V30 1226 H 112.616 -3.63617 1.52238 0
M  V30 1227 H 113.904 -4.85393 1.52548 0
M  V30 1228 H 113.302 -5.42482 -1.60405 0
M  V30 1229 H 111.859 -6.34859 -1.47641 0
M  V30 1230 N 115.292 -0.849877 -1.32721 0
M  V30 1231 C 116.255 -0.296122 -2.27279 0
M  V30 1232 C 117.255 0.541458 -1.5141 0
M  V30 1233 O 118.445 0.353658 -1.70572 0
M  V30 1234 C 115.577 0.581579 -3.35902 0
M  V30 1235 H 116.77 -1.13064 -2.77771 0
M  V30 1236 H 114.323 -0.62383 -1.43311 0
M  V30 1237 H 115.058 1.43809 -2.9067 0
M  V30 1238 H 114.843 -0.0178814 -3.92096 0
M  V30 1239 H 116.333 0.961951 -4.0637 0
M  V30 1240 N 116.77 1.45427 -0.607355 0
M  V30 1241 C 117.733 2.28974 0.101693 0
M  V30 1242 C 118.733 1.39754 0.795329 0
M  V30 1243 O 119.923 1.61878 0.643527 0
M  V30 1244 C 117.055 3.20768 1.15414 0
M  V30 1245 H 118.248 2.93147 -0.632844 0
M  V30 1246 H 115.801 1.51945 -0.366391 0
M  V30 1247 H 116.536 2.61395 1.91945 0
M  V30 1248 H 116.321 3.86489 0.66098 0
M  V30 1249 H 117.811 3.83589 1.65073 0
M  V30 1250 N 118.248 0.346503 1.53744 0
M  V30 1251 C 119.664 -0.00530975 1.59599 0
M  V30 1252 C 119.864 -1.48465 1.36236 0
M  V30 1253 O 118.92 -2.24376 1.15808 0
M  V30 1254 C 120.233 0.433516 2.97559 0
M  V30 1255 C 121.781 0.386111 3.10609 0
M  V30 1256 C 122.256 0.800451 4.50951 0
M  V30 1257 N 123.747 0.754753 4.5701 0
M  V30 1258 C 124.482 1.04727 5.63755 0
M  V30 1259 N 123.978 1.4081 6.7834 0
M  V30 1260 N 125.771 0.971316 5.53644 0
M  V30 1261 H 117.922 1.31009 1.67184 0
M  V30 1262 H 120.185 0.534242 0.783128 0
M  V30 1263 H 119.891 1.46509 3.19731 0
M  V30 1264 H 119.765 -0.189753 3.76722 0
M  V30 1265 H 122.152 -0.636295 2.88158 0
M  V30 1266 H 122.233 1.04462 2.33498 0
M  V30 1267 H 121.877 1.82088 4.74137 0
M  V30 1268 H 121.807 0.119386 5.26465 0
M  V30 1269 H 124.298 0.488662 3.74727 0
M  V30 1270 H 124.611 1.61607 7.55714 0
M  V30 1271 H 122.956 1.44657 6.79779 0
M  V30 1272 H 126.147 0.688748 4.63005 0
M  V30 1273 H 126.32 1.20263 6.36742 0
M  V30 1274 N 119.726 -1.57421 0.075193 0
M  V30 1275 C 120.951 -1.98364 -0.605515 0
M  V30 1276 C 121.376 -0.953383 -1.62149 0
M  V30 1277 O 120.734 0.0806053 -1.81121 0
M  V30 1278 C 120.782 -3.38332 -1.24756 0
M  V30 1279 O 119.886 -3.37959 -2.36342 0
M  V30 1280 H 119.227 -0.645553 -0.155428 0
M  V30 1281 H 121.757 -2.04044 0.150714 0
M  V30 1282 H 121.767 -3.75591 -1.5936 0
M  V30 1283 H 120.442 -4.12846 -0.503129 0
M  V30 1284 H 119.019 -3.12474 -2.03506 0
M  V30 1285 N 121.204 0.198386 -1.56346 0
M  V30 1286 C 122.152 1.26538 -1.95169 0
M  V30 1287 C 123.146 1.47295 -0.836685 0
M  V30 1288 O 124.352 1.48195 -1.02167 0
M  V30 1289 H 120.727 0.424744 -0.620561 0
M  V30 1290 H 122.698 0.910904 -2.84157 0
M  V30 1291 C 121.447 2.6035 -2.30463 0
M  V30 1292 H 120.77 2.45192 -3.15786 0
M  V30 1293 H 122.21 3.33762 -2.61494 0
M  V30 1294 C 120.669 3.17096 -1.13806 0
M  V30 1295 O 121.199 3.99588 -0.41135 0
M  V30 1296 N 119.405 2.75795 -0.915736 0
M  V30 1297 H 118.952 2.08816 -1.50843 0
M  V30 1298 H 118.91 3.14101 -0.136979 0
M  V30 1299 N 122.682 1.50554 0.465978 0
M  V30 1300 C 123.907 1.65838 1.24549 0
M  V30 1301 C 124.332 0.343486 1.84937 0
M  V30 1302 O 123.69 -0.69324 1.67523 0
M  V30 1303 C 123.738 2.75533 2.32624 0
M  V30 1304 O 122.842 2.37142 3.37398 0
M  V30 1305 H 122.183 0.553893 0.366194 0
M  V30 1306 H 124.713 1.96959 0.553927 0
M  V30 1307 H 124.723 2.98763 2.77857 0
M  V30 1308 H 123.398 3.70962 1.88043 0
M  V30 1309 H 121.975 2.24377 2.97841 0
M  V30 1310 N 124.16 -0.719506 1.40217 0
M  V30 1311 C 125.437 -1.47221 1.28784 0
M  V30 1312 C 125.817 -2.10883 -0.0956067 0
M  V30 1313 O 125.165 -1.99833 -1.10811 0
M  V30 1314 C 125.375 -2.5111 2.42373 0
M  V30 1315 C 126.723 -3.17053 2.82423 0
M  V30 1316 O 127.747 -2.61429 2.41937 0
M  V30 1317 O 126.606 -4.17742 3.52355 0
M  V30 1318 H 123.7 -0.654491 0.50554 0
M  V30 1319 H 126.246 -0.752014 1.52128 0
M  V30 1320 H 125.018 -2.02556 3.34793 0
M  V30 1321 H 124.641 -3.3067 2.20778 0
M  V30 1322 N 125.638 -1.25649 -0.95132 0
M  V30 1323 C 126.886 -1.10375 -1.69298 0
M  V30 1324 C 127.207 0.355339 -1.91735 0
M  V30 1325 O 126.477 1.25188 -1.50681 0
M  V30 1326 H 125.057 -0.405461 -0.627384 0
M  V30 1327 H 127.719 -1.57823 -1.14358 0
M  V30 1328 H 126.815 -1.61465 -2.67087 0
M  V30 1329 N 127.117 1.15442 -1.07289 0
M  V30 1330 C 128.027 2.23786 -0.704057 0
M  V30 1331 C 129.043 1.7166 0.284413 0
M  V30 1332 O 130.219 2.00972 0.131205 0
M  V30 1333 C 127.284 3.46535 -0.106792 0
M  V30 1334 C 126.345 4.13654 -1.14842 0
M  V30 1335 C 125.578 5.30544 -0.57956 0
M  V30 1336 O 125.801 5.67187 0.604585 0
M  V30 1337 O 124.735 5.87154 -1.32414 0
M  V30 1338 H 128.561 2.57664 -1.60757 0
M  V30 1339 H 126.146 1.23152 -0.845803 0
M  V30 1340 H 128.028 4.20804 0.224048 0
M  V30 1341 H 126.703 3.14407 0.770049 0
M  V30 1342 H 125.61 3.4131 -1.5316 0
M  V30 1343 H 126.943 4.49861 -1.99714 0
M  V30 1344 N 128.595 0.856903 1.32268 0
M  V30 1345 C 129.542 0.301172 2.28827 0
M  V30 1346 C 130.512 -0.593104 1.5515 0
M  V30 1347 O 131.697 -0.527537 1.83362 0
M  V30 1348 C 128.837 -0.502523 3.41422 0
M  V30 1349 C 127.95 0.417797 4.29975 0
M  V30 1350 C 127.085 -0.398749 5.29701 0
M  V30 1351 C 126.124 0.518827 6.09897 0
M  V30 1352 N 125.261 -0.260674 7.01616 0
M  V30 1353 H 130.101 1.12983 2.75751 0
M  V30 1354 H 127.638 0.568582 1.35667 0
M  V30 1355 H 129.596 -0.984141 4.05426 0
M  V30 1356 H 128.226 -1.29599 2.95642 0
M  V30 1357 H 127.278 1.01781 3.66531 0
M  V30 1358 H 128.59 1.12191 4.86019 0
M  V30 1359 H 127.744 -0.943435 5.9932 0
M  V30 1360 H 126.483 -1.13622 4.7428 0
M  V30 1361 H 125.488 1.07538 5.39181 0
M  V30 1362 H 126.713 1.25495 6.67404 0
M  V30 1363 H 124.659 -0.981198 6.4862 0
M  V30 1364 H 124.576 0.384364 7.55022 0
M  V30 1365 H 125.844 -0.787014 7.75517 0
M  V30 1366 N 130.073 -1.45103 0.615059 0
M  V30 1367 C 131.036 -2.29025 -0.0895485 0
M  V30 1368 C 132.036 -1.40174 -0.787906 0
M  V30 1369 O 133.226 -1.62217 -0.634933 0
M  V30 1370 C 130.358 -3.21376 -1.13711 0
M  V30 1371 H 131.551 -2.92807 0.648382 0
M  V30 1372 H 129.104 -1.51749 0.374444 0
M  V30 1373 H 129.839 -2.6241 -1.90556 0
M  V30 1374 H 129.624 -3.86834 -0.640475 0
M  V30 1375 H 131.114 -3.84459 -1.63036 0
M  V30 1376 N 131.551 -0.354651 -1.53558 0
M  V30 1377 C 132.779 0.239515 -2.05509 0
M  V30 1378 C 133.194 1.4333 -1.2289 0
M  V30 1379 O 132.551 1.80538 -0.266899 0
M  V30 1380 C 132.602 0.643719 -3.55723 0
M  V30 1381 O 132.323 -0.502602 -4.35207 0
M  V30 1382 C 133.824 1.29743 -4.23889 0
M  V30 1383 H 131.044 0.0442697 -0.669538 0
M  V30 1384 H 133.588 -0.509856 -1.98042 0
M  V30 1385 H 131.743 1.34302 -3.63376 0
M  V30 1386 H 132.157 -0.178172 -5.24197 0
M  V30 1387 H 133.631 1.53091 -5.30346 0
M  V30 1388 H 134.108 2.25441 -3.76926 0
M  V30 1389 H 134.714 0.639865 -4.20459 0
M  V30 1390 N 133.029 1.57378 -0.0835403 0
M  V30 1391 C 133.976 2.13384 0.879539 0
M  V30 1392 C 134.946 1.04936 1.28754 0
M  V30 1393 O 136.131 1.32662 1.37133 0
M  V30 1394 C 133.271 2.70932 2.13752 0
M  V30 1395 C 132.384 3.93575 1.7811 0
M  V30 1396 C 131.519 4.39326 2.98607 0
M  V30 1397 C 130.558 5.54587 2.59037 0
M  V30 1398 N 129.695 5.95243 3.72331 0
M  V30 1399 H 134.535 2.9537 0.395076 0
M  V30 1400 H 132.072 1.45953 0.183349 0
M  V30 1401 H 134.03 3.02411 2.87408 0
M  V30 1402 H 132.66 1.91693 2.59718 0
M  V30 1403 H 131.712 3.68483 0.94469 0
M  V30 1404 H 133.024 4.77258 1.45005 0
M  V30 1405 H 132.178 4.72528 3.80529 0
M  V30 1406 H 130.917 3.5452 3.34913 0
M  V30 1407 H 129.922 5.21024 1.75539 0
M  V30 1408 H 131.147 6.41133 2.23887 0
M  V30 1409 H 129.093 5.13385 4.08378 0
M  V30 1410 H 129.01 6.73694 3.43034 0
M  V30 1411 H 130.278 6.33072 4.54797 0
M  V30 1412 N 134.507 -0.190092 1.56449 0
M  V30 1413 C 135.753 -0.911052 1.81184 0
M  V30 1414 C 136.086 -1.82699 0.658396 0
M  V30 1415 O 135.361 -1.91491 -0.340775 0
M  V30 1416 C 135.644 -1.72297 3.16205 0
M  V30 1417 C 135.497 -0.831419 4.42049 0
M  V30 1418 C 136.816 -2.69454 3.47969 0
M  V30 1419 H 133.935 -0.32977 0.659106 0
M  V30 1420 H 136.577 -0.178169 1.89163 0
M  V30 1421 H 134.727 -2.34778 3.09534 0
M  V30 1422 H 136.399 -0.220929 4.60771 0
M  V30 1423 H 134.642 -0.138406 4.33579 0
M  V30 1424 H 135.313 -1.43461 5.33032 0
M  V30 1425 H 137.789 -2.17104 3.54972 0
M  V30 1426 H 136.665 -3.23342 4.43555 0
M  V30 1427 H 136.926 -3.48744 2.71717 0
M  V30 1428 N 135.985 -1.50799 -0.457987 0
M  V30 1429 C 136.917 -1.66786 -1.57211 0
M  V30 1430 C 137.93 -0.548962 -1.53265 0
M  V30 1431 O 139.119 -0.8226 -1.58416 0
M  V30 1432 C 136.219 -1.64834 -2.96113 0
M  V30 1433 C 135.392 -2.92971 -3.24787 0
M  V30 1434 C 134.451 -2.83485 -4.43309 0
M  V30 1435 O 133.477 -3.5744 -4.42973 0
M  V30 1436 N 134.679 -1.97929 -5.45714 0
M  V30 1437 H 137.444 -2.62889 -1.43909 0
M  V30 1438 H 135.005 -1.48427 -0.646617 0
M  V30 1439 H 136.997 -1.56084 -3.7339 0
M  V30 1440 H 135.567 -0.764118 -3.03117 0
M  V30 1441 H 134.787 -3.15749 -2.36 0
M  V30 1442 H 136.075 -3.77834 -3.40762 0
M  V30 1443 H 135.473 -1.37182 -5.48815 0
M  V30 1444 H 134.03 -1.95073 -6.21924 0
M  V30 1445 N 137.463 0.71206 -1.40597 0
M  V30 1446 C 138.74 1.46536 -1.29563 0
M  V30 1447 C 139.12 2.10931 0.0844217 0
M  V30 1448 O 138.468 2.00418 1.0975 0
M  V30 1449 C 138.678 2.49821 -2.43701 0
M  V30 1450 C 140.026 3.15551 -2.841 0
M  V30 1451 O 141.05 2.60142 -2.4332 0
M  V30 1452 O 139.909 4.15867 -3.54566 0
M  V30 1453 H 137.003 0.651801 -0.509004 0
M  V30 1454 H 139.549 0.743935 -1.52524 0
M  V30 1455 H 138.321 2.00778 -3.35863 0
M  V30 1456 H 137.944 3.29495 -2.22528 0
M  V30 1457 N 138.941 1.26152 0.944643 0
M  V30 1458 C 140.19 1.10883 1.68487 0
M  V30 1459 C 140.503 -0.348153 1.92477 0
M  V30 1460 O 141.709 -0.621459 2.64292 0
M  V30 1461 C 140.165 1.93624 3.03377 0
M  V30 1462 C 139.773 3.43875 2.87148 0
M  V30 1463 C 141.517 1.86954 3.81115 0
M  V30 1464 C 139.424 4.18875 4.1749 0
M  V30 1465 H 138.354 0.41135 0.631907 0
M  V30 1466 H 141.005 1.50433 1.05082 0
M  V30 1467 H 139.387 1.46904 3.67743 0
M  V30 1468 H 140.561 3.98338 2.31653 0
M  V30 1469 H 138.876 3.51744 2.22856 0
M  V30 1470 H 141.473 2.40275 4.77673 0
M  V30 1471 H 141.816 0.839518 4.07747 0
M  V30 1472 H 142.349 2.31477 3.23517 0
M  V30 1473 H 139.088 5.22332 3.96043 0
M  V30 1474 H 138.608 3.69193 4.72712 0
M  V30 1475 H 140.287 4.27134 4.85968 0
M  V30 1476 N 140.419 -1.14872 1.07899 0
M  V30 1477 C 141.366 -2.19791 0.704319 0
M  V30 1478 C 142.336 -1.63238 -0.306987 0
M  V30 1479 O 143.521 -1.8983 -0.192171 0
M  V30 1480 C 140.661 -3.44911 0.114244 0
M  V30 1481 C 139.774 -4.15637 1.1777 0
M  V30 1482 C 138.909 -5.28324 0.552037 0
M  V30 1483 C 137.948 -5.90875 1.59789 0
M  V30 1484 N 137.085 -6.95022 0.994404 0
M  V30 1485 H 141.925 -2.5119 1.60336 0
M  V30 1486 H 139.462 -1.23356 0.801352 0
M  V30 1487 H 141.42 -4.16477 -0.245544 0
M  V30 1488 H 140.05 -3.14011 -0.74813 0
M  V30 1489 H 139.102 -3.42512 1.65499 0
M  V30 1490 H 140.414 -4.5823 1.97046 0
M  V30 1491 H 139.568 -6.06538 0.1402 0
M  V30 1492 H 138.307 -4.86939 -0.272431 0
M  V30 1493 H 137.312 -5.11369 2.01945 0
M  V30 1494 H 138.537 -6.34337 2.42474 0
M  V30 1495 H 136.483 -6.55722 0.190939 0
M  V30 1496 H 136.4 -7.36073 1.72432 0
M  V30 1497 H 137.668 -7.77123 0.608253 0
M  V30 1498 N 141.898 -0.863906 -1.31812 0
M  V30 1499 C 142.846 -0.30422 -2.30602 0
M  V30 1500 C 143.84 0.577419 -1.59255 0
M  V30 1501 O 145.046 0.464194 -1.73912 0
M  V30 1502 H 141.421 -0.0796877 -0.747766 0
M  V30 1503 H 143.392 -1.15148 -2.75288 0
M  V30 1504 C 142.141 0.484617 -3.44306 0
M  V30 1505 H 141.464 -0.18451 -3.99374 0
M  V30 1506 H 142.904 0.841664 -4.15562 0
M  V30 1507 C 141.363 1.6735 -2.92396 0
M  V30 1508 O 141.893 2.77273 -2.90659 0
M  V30 1509 N 140.099 1.50362 -2.48676 0
M  V30 1510 H 139.646 0.609402 -2.50288 0
M  V30 1511 H 139.604 2.30051 -2.14299 0
M  V30 1512 N 143.376 1.44774 -0.622745 0
M  V30 1513 C 144.324 2.32387 0.0994683 0
M  V30 1514 C 145.318 1.46859 0.844326 0
M  V30 1515 O 146.524 1.63254 0.758174 0
M  V30 1516 H 142.899 0.750273 0.0509291 0
M  V30 1517 H 144.87 2.91062 -0.65767 0
M  V30 1518 C 143.619 3.30723 1.07319 0
M  V30 1519 H 142.942 3.96541 0.509462 0
M  V30 1520 H 144.382 3.94725 1.54817 0
M  V30 1521 C 142.841 2.59021 2.15429 0
M  V30 1522 O 143.371 2.38286 3.23393 0
M  V30 1523 N 141.577 2.189 1.91131 0
M  V30 1524 H 141.124 2.35964 1.03337 0
M  V30 1525 H 141.082 1.71251 2.63668 0
M  V30 1526 N 144.854 0.36279 1.53368 0
M  V30 1527 C 145.784 -0.476976 2.28576 0
M  V30 1528 C 146.765 -1.08631 1.30894 0
M  V30 1529 O 147.95 -1.10409 1.59761 0
M  V30 1530 C 145.08 -1.61828 3.07293 0
M  V30 1531 C 144.034 -1.13633 4.1264 0
M  V30 1532 C 143.36 -2.36766 4.79423 0
M  V30 1533 C 144.66 -0.223061 5.21823 0
M  V30 1534 H 146.354 0.150474 2.99022 0
M  V30 1535 H 143.9 0.0738103 1.43811 0
M  V30 1536 H 145.853 -2.21237 3.58653 0
M  V30 1537 H 144.577 -2.27292 2.34533 0
M  V30 1538 H 143.236 -0.564945 3.62221 0
M  V30 1539 H 142.884 -3.0068 4.03238 0
M  V30 1540 H 142.584 -2.05192 5.50609 0
M  V30 1541 H 144.108 -2.96865 5.33576 0
M  V30 1542 H 145.522 -0.724545 5.68703 0
M  V30 1543 H 143.919 0.001678 6.001 0
M  V30 1544 H 144.989 0.735553 4.79289 0
M  V30 1545 N 146.332 -1.57332 0.0918853 0
M  V30 1546 C 147.279 -2.13847 -0.868211 0
M  V30 1547 C 148.249 -1.05618 -1.28196 0
M  V30 1548 O 149.434 -1.33387 -1.36427 0
M  V30 1549 C 146.574 -2.72062 -2.12312 0
M  V30 1550 C 145.687 -3.94514 -1.7602 0
M  V30 1551 C 144.822 -4.40903 -2.96273 0
M  V30 1552 C 143.861 -5.55953 -2.56092 0
M  V30 1553 N 142.998 -5.97209 -3.69169 0
M  V30 1554 H 147.838 -2.95575 -0.379406 0
M  V30 1555 H 145.375 -1.46048 -0.175606 0
M  V30 1556 H 147.333 -3.03931 -2.858 0
M  V30 1557 H 145.963 -1.93068 -2.58698 0
M  V30 1558 H 145.015 -3.68979 -0.925135 0
M  V30 1559 H 146.327 -4.7802 -1.42472 0
M  V30 1560 H 145.481 -4.74539 -3.78018 0
M  V30 1561 H 144.22 -3.56291 -3.33029 0
M  V30 1562 H 143.225 -5.21948 -1.72773 0
M  V30 1563 H 144.45 -6.42311 -2.20484 0
M  V30 1564 H 142.396 -5.15543 -4.05649 0
M  V30 1565 H 142.313 -6.75504 -3.39456 0
M  V30 1566 H 143.581 -6.35475 -4.51434 0
M  V30 1567 N 147.81 0.181792 -1.56548 0
M  V30 1568 C 148.72 1.24538 -1.98815 0
M  V30 1569 C 149.736 1.49045 -0.897861 0
M  V30 1570 O 150.912 1.61399 -1.20467 0
M  V30 1571 C 147.977 2.56683 -2.33055 0
M  V30 1572 C 147.038 2.40131 -3.55859 0
M  V30 1573 C 146.271 3.65975 -3.88456 0
M  V30 1574 O 146.494 4.70711 -3.22161 0
M  V30 1575 O 145.428 3.6071 -4.81842 0
M  V30 1576 H 149.254 0.916647 -2.89536 0
M  V30 1577 H 146.839 0.387842 -1.44278 0
M  V30 1578 H 148.721 3.34655 -2.56094 0
M  V30 1579 H 147.396 2.89157 -1.45498 0
M  V30 1580 H 146.303 1.60226 -3.38051 0
M  V30 1581 H 147.636 2.12585 -4.43924 0
M  V30 1582 N 149.288 1.51039 0.449983 0
M  V30 1583 C 150.251 1.70863 1.5277 0
M  V30 1584 C 151.251 0.578846 1.5002 0
M  V30 1585 O 152.441 0.846213 1.52266 0
M  V30 1586 C 149.573 1.75341 2.9235 0
M  V30 1587 H 150.766 2.67034 1.36502 0
M  V30 1588 H 148.319 1.40838 0.677812 0
M  V30 1589 H 149.054 0.809383 3.14037 0
M  V30 1590 H 148.839 2.57436 2.95752 0
M  V30 1591 H 150.329 1.92559 3.70555 0
M  V30 1592 N 150.766 -0.704594 1.40972 0
M  V30 1593 C 152.015 -1.46018 1.39146 0
M  V30 1594 C 152.328 -1.956 0.000589254 0
M  V30 1595 O 153.534 -2.71137 -0.1403 0
M  V30 1596 C 151.99 -2.63996 2.4461 0
M  V30 1597 C 151.598 -2.21238 3.89561 0
M  V30 1598 C 153.342 -3.41677 2.51907 0
M  V30 1599 C 151.249 -3.3612 4.86598 0
M  V30 1600 H 150.179 -0.548444 0.517422 0
M  V30 1601 H 152.83 -0.765784 1.66757 0
M  V30 1602 H 151.212 -3.3566 2.10115 0
M  V30 1603 H 152.386 -1.56923 4.33257 0
M  V30 1604 H 150.701 -1.56574 3.85841 0
M  V30 1605 H 153.298 -4.27182 3.2159 0
M  V30 1606 H 153.641 -3.86247 1.55303 0
M  V30 1607 H 154.174 -2.77064 2.85448 0
M  V30 1608 H 150.913 -2.96572 5.84573 0
M  V30 1609 H 150.433 -3.99315 4.47557 0
M  V30 1610 H 152.112 -4.02029 5.06934 0
M  V30 1611 N 152.244 -1.26651 -0.937939 0
M  V30 1612 C 153.154 -1.10276 -2.07066 0
M  V30 1613 C 154.17 -0.0354197 -1.73964 0
M  V30 1614 O 155.346 -0.239816 -1.99967 0
M  V30 1615 C 152.411 -0.740887 -3.38691 0
M  V30 1616 C 151.472 -1.88799 -3.85556 0
M  V30 1617 C 150.705 -1.54329 -5.10899 0
M  V30 1618 O 150.928 -0.446494 -5.6865 0
M  V30 1619 O 149.862 -2.37911 -5.52885 0
M  V30 1620 H 153.688 -2.05309 -2.23789 0
M  V30 1621 H 151.273 -1.05743 -1.0554 0
M  V30 1622 H 153.155 -0.55195 -4.1777 0
M  V30 1623 H 151.83 0.180022 -3.23199 0
M  V30 1624 H 150.737 -2.13191 -3.07409 0
M  V30 1625 H 152.07 -2.78874 -4.05574 0
M  V30 1626 N 153.722 1.14298 -1.08507 0
M  V30 1627 C 154.95 1.89219 -0.836876 0
M  V30 1628 C 155.365 1.78638 0.611054 0
M  V30 1629 O 154.722 1.14643 1.41998 0
M  V30 1630 C 154.773 3.39158 -1.25116 0
M  V30 1631 O 154.494 3.49449 -2.64229 0
M  V30 1632 C 155.995 4.31073 -1.03398 0
M  V30 1633 H 153.215 0.599328 -0.301739 0
M  V30 1634 H 155.759 1.44746 -1.44461 0
M  V30 1635 H 153.914 3.81251 -0.687514 0
M  V30 1636 H 154.328 4.42589 -2.81452 0
M  V30 1637 H 155.802 5.34646 -1.37323 0
M  V30 1638 H 156.279 4.3919 0.0289259 0
M  V30 1639 H 156.885 3.94738 -1.58311 0
M  V30 1640 N 155.201 0.870884 1.31352 0
M  V30 1641 C 156.45 0.478408 1.95944 0
M  V30 1642 C 156.763 -0.974493 1.69597 0
M  V30 1643 O 157.969 -1.47316 2.28058 0
M  V30 1644 C 156.425 0.804609 3.50791 0
M  V30 1645 C 156.033 2.27433 3.85977 0
M  V30 1646 C 157.777 0.480648 4.2177 0
M  V30 1647 C 155.684 2.5429 5.33939 0
M  V30 1648 H 154.614 0.175175 0.733369 0
M  V30 1649 H 157.265 1.06391 1.4951 0
M  V30 1650 H 155.647 0.148347 3.95722 0
M  V30 1651 H 156.821 2.97373 3.52002 0
M  V30 1652 H 155.136 2.56442 3.28065 0
M  V30 1653 H 157.733 0.658519 5.30629 0
M  V30 1654 H 158.076 -0.578979 4.12254 0
M  V30 1655 H 158.609 1.09349 3.82476 0
M  V30 1656 H 155.348 3.58939 5.48491 0
M  V30 1657 H 154.868 1.88945 5.69263 0
M  V30 1658 H 156.547 2.39066 6.01212 0
M  V30 1659 N 156.679 -1.44442 0.630414 0
M  V30 1660 C 157.925 -2.02351 0.134816 0
M  V30 1661 C 158.258 -1.4947 -1.23986 0
M  V30 1662 O 157.533 -0.678475 -1.82283 0
M  V30 1663 C 157.816 -3.59898 0.120707 0
M  V30 1664 C 157.669 -4.23063 1.52767 0
M  V30 1665 C 158.988 -4.36585 -0.555127 0
M  V30 1666 H 156.107 -0.73527 0.0504646 0
M  V30 1667 H 158.749 -1.72022 0.806751 0
M  V30 1668 H 156.899 -3.85868 -0.451477 0
M  V30 1669 H 158.571 -4.08202 2.14869 0
M  V30 1670 H 156.814 -3.80586 2.08175 0
M  V30 1671 H 157.485 -5.32071 1.46984 0
M  V30 1672 H 159.961 -4.16044 -0.0685429 0
M  V30 1673 H 158.837 -5.46294 -0.534185 0
M  V30 1674 H 159.098 -4.11138 -1.62535 0
M  V30 1675 N 158.157 -0.370918 -1.53173 0
M  V30 1676 C 159.12 0.460778 -2.24521 0
M  V30 1677 C 160.12 1.00536 -1.25496 0
M  V30 1678 O 161.31 0.890266 -1.49733 0
M  V30 1679 C 158.442 1.64457 -2.98608 0
M  V30 1680 H 159.635 -0.163613 -2.99453 0
M  V30 1681 H 157.188 -0.122699 -1.55818 0
M  V30 1682 H 157.923 2.30691 -2.2793 0
M  V30 1683 H 157.708 1.26099 -3.7127 0
M  V30 1684 H 159.198 2.23384 -3.5283 0
M  V30 1685 N 159.635 1.57281 -0.100228 0
M  V30 1686 C 160.598 2.13158 0.842398 0
M  V30 1687 C 161.598 1.06202 1.20738 0
M  V30 1688 O 162.788 1.32066 1.13597 0
M  V30 1689 C 159.92 2.65639 2.13655 0
M  V30 1690 H 161.113 2.97766 0.357114 0
M  V30 1691 H 158.666 1.5559 0.148823 0
M  V30 1692 H 159.401 1.84566 2.66657 0
M  V30 1693 H 159.186 3.43844 1.88451 0
M  V30 1694 H 160.676 3.08846 2.81077 0
M  V30 1695 N 161.113 -0.173488 1.56642 0
M  V30 1696 C 162.046 -1.24353 1.91342 0
M  V30 1697 C 163.024 -1.4289 0.775965 0
M  V30 1698 O 164.208 -1.57932 1.02907 0
M  V30 1699 C 161.335 -2.60683 2.16245 0
M  V30 1700 C 160.381 -2.58894 3.38934 0
M  V30 1701 S 161.214 -2.0819 4.93373 0
M  V30 1702 C 162.37 -3.46302 5.21369 0
M  V30 1703 H 162.603 -0.947345 2.81803 0
M  V30 1704 H 160.136 -0.377958 1.49703 0
M  V30 1705 H 162.094 -3.39149 2.31275 0
M  V30 1706 H 160.755 -2.87502 1.26496 0
M  V30 1707 H 159.948 -3.59188 3.53553 0
M  V30 1708 H 159.55 -1.88522 3.2301 0
M  V30 1709 H 161.842 -4.42287 5.13214 0
M  V30 1710 H 162.785 -3.3656 6.23003 0
M  V30 1711 H 163.193 -3.42214 4.48943 0
M  V30 1712 N 162.591 -1.51276 -0.441967 0
M  V30 1713 C 163.816 -1.67799 -1.21895 0
M  V30 1714 C 164.241 -0.372864 -1.84367 0
M  V30 1715 O 163.599 0.666501 -1.68604 0
M  V30 1716 C 163.647 -2.79199 -2.28211 0
M  V30 1717 O 162.751 -2.42479 -3.33583 0
M  V30 1718 H 162.092 -0.559649 -0.357336 0
M  V30 1719 H 164.622 -1.97815 -0.522522 0
M  V30 1720 H 164.632 -3.03146 -2.73069 0
M  V30 1721 H 163.307 -3.73906 -1.82118 0
M  V30 1722 H 161.884 -2.29087 -2.94234 0
M  V30 1723 N 164.069 0.697108 -1.41344 0
M  V30 1724 C 165.017 1.83237 -1.43272 0
M  V30 1725 C 166.011 1.66522 -0.310947 0
M  V30 1726 O 167.217 1.73402 -0.482899 0
M  V30 1727 H 163.592 0.603802 -0.448249 0
M  V30 1728 H 165.563 1.78727 -2.38954 0
M  V30 1729 C 164.312 3.21245 -1.33029 0
M  V30 1730 H 163.635 3.34723 -2.18633 0
M  V30 1731 H 165.075 4.00763 -1.38439 0
M  V30 1732 C 163.534 3.36873 -0.0424635 0
M  V30 1733 O 164.064 3.91177 0.913421 0
M  V30 1734 N 162.27 2.90581 0.0331145 0
M  V30 1735 H 161.817 2.46577 -0.745506 0
M  V30 1736 H 161.775 3.01416 0.894199 0
M  V30 1737 N 165.547 1.27147 0.931209 0
M  V30 1738 C 166.477 1.12081 2.04842 0
M  V30 1739 C 167.458 0.0232364 1.70084 0
M  V30 1740 O 168.643 0.197085 1.93197 0
M  V30 1741 C 165.773 0.76354 3.38803 0
M  V30 1742 C 164.727 1.81396 3.87659 0
M  V30 1743 C 164.053 1.31075 5.18385 0
M  V30 1744 C 165.353 3.21739 4.11438 0
M  V30 1745 H 167.047 2.05537 2.17703 0
M  V30 1746 H 164.593 0.989603 1.04608 0
M  V30 1747 H 166.546 0.644982 4.16435 0
M  V30 1748 H 165.27 -0.206727 3.25945 0
M  V30 1749 H 163.929 1.92136 3.12217 0
M  V30 1750 H 163.577 0.330037 5.01916 0
M  V30 1751 H 163.277 2.013 5.52044 0
M  V30 1752 H 164.801 1.20506 5.98591 0
M  V30 1753 H 166.215 3.14019 4.79651 0
M  V30 1754 H 164.612 3.89644 4.56397 0
M  V30 1755 H 165.682 3.67054 3.16859 0
M  V30 1756 N 167.025 -1.13721 1.09112 0
M  V30 1757 C 168.271 -1.85198 0.826414 0
M  V30 1758 C 168.604 -1.83129 -0.646319 0
M  V30 1759 O 167.879 -1.2671 -1.47563 0
M  V30 1760 C 168.162 -3.33507 1.35812 0
M  V30 1761 C 168.015 -3.44108 2.89672 0
M  V30 1762 C 169.334 -4.28838 0.989256 0
M  V30 1763 H 166.453 -0.67243 0.301675 0
M  V30 1764 H 169.095 -1.33499 1.35197 0
M  V30 1765 H 167.245 -3.77666 0.911082 0
M  V30 1766 H 168.917 -3.08684 3.428 0
M  V30 1767 H 167.16 -2.85087 3.26967 0
M  V30 1768 H 167.831 -4.48388 3.21951 0
M  V30 1769 H 170.307 -3.92734 1.37475 0
M  V30 1770 H 169.183 -5.31051 1.38838 0
M  V30 1771 H 169.444 -4.4198 -0.102924 0
M  V30 1772 N 168.503 -0.877838 -1.30888 0
M  V30 1773 C 169.914 -0.544193 -1.78593 0
M  V30 1774 C 170.265 0.939301 -1.72254 0
M  V30 1775 O 169.39 1.7337 -1.29505 0
M  V30 1776 C 169.985 -0.98105 -3.24285 0
M  V30 1777 C 168.544 -0.698935 -3.69854 0
M  V30 1778 C 167.691 -1.168 -2.51502 0
M  V30 1779 H 170.642 -1.06278 -1.17859 0
M  V30 1780 H 170.663 -0.307009 -3.79259 0
M  V30 1781 H 170.175 -2.06079 -3.28866 0
M  V30 1782 H 168.276 0.369112 -3.70767 0
M  V30 1783 H 168.389 -1.28148 -4.61644 0
M  V30 1784 H 166.753 -0.587535 -2.47831 0
M  V30 1785 H 167.536 -2.25533 -2.58824 0
M  V30 1786 N 169.982 1.44106 -0.638065 0
M  V30 1787 C 171.393 1.85316 -0.226894 0
M  V30 1788 C 171.744 1.53399 1.22324 0
M  V30 1789 O 170.869 0.975463 1.93167 0
M  V30 1790 C 171.464 3.3637 -0.405013 0
M  V30 1791 C 170.023 3.76369 -0.0482902 0
M  V30 1792 C 169.17 2.67921 -0.715108 0
M  V30 1793 H 172.121 1.34474 -0.842764 0
M  V30 1794 H 172.142 3.7885 0.354 0
M  V30 1795 H 171.654 3.59569 -1.46053 0
M  V30 1796 H 169.755 3.58784 1.00522 0
M  V30 1797 H 169.868 4.76856 -0.463187 0
M  V30 1798 H 168.232 2.54259 -0.149753 0
M  V30 1799 H 169.015 2.93951 -1.77335 0
M  V30 1800 N 171.46 0.379036 1.52974 0
M  V30 1801 C 172.706 -0.206727 2.01744 0
M  V30 1802 C 173.039 -1.47314 1.26539 0
M  V30 1803 O 172.314 -1.91084 0.362903 0
M  V30 1804 C 172.597 -0.485066 3.56818 0
M  V30 1805 C 172.45 0.795919 4.42702 0
M  V30 1806 C 173.769 -1.28003 4.21074 0
M  V30 1807 H 170.888 -0.0736607 0.73331 0
M  V30 1808 H 173.53 0.506581 1.83122 0
M  V30 1809 H 171.68 -1.09272 3.72816 0
M  V30 1810 H 173.352 1.43307 4.38476 0
M  V30 1811 H 171.595 1.41344 4.10127 0
M  V30 1812 H 172.266 0.555947 5.49193 0
M  V30 1813 H 174.742 -0.765867 4.08991 0
M  V30 1814 H 173.618 -1.44352 5.29579 0
M  V30 1815 H 173.879 -2.29236 3.78026 0
M  V30 1816 N 172.938 -1.57226 0.108567 0
M  V30 1817 C 173.848 -2.18292 -0.859401 0
M  V30 1818 C 174.864 -1.15612 -1.30038 0
M  V30 1819 O 176.04 -1.48039 -1.36552 0
M  V30 1820 C 173.105 -2.762 -2.09558 0
M  V30 1821 C 172.166 -3.93881 -1.70752 0
M  V30 1822 C 171.399 -4.49018 -2.88477 0
M  V30 1823 O 171.622 -4.03068 -4.036 0
M  V30 1824 O 170.556 -5.39852 -2.66164 0
M  V30 1825 H 174.382 -3.01441 -0.369769 0
M  V30 1826 H 171.967 -1.48945 -0.1165 0
M  V30 1827 H 173.849 -3.13156 -2.81978 0
M  V30 1828 H 172.524 -1.96089 -2.57548 0
M  V30 1829 H 171.431 -3.61713 -0.954714 0
M  V30 1830 H 172.764 -4.75396 -1.27513 0
M  V30 1831 N 174.416 0.165178 -1.56732 0
M  V30 1832 C 175.346 1.20651 -1.99914 0
M  V30 1833 C 176.327 1.45827 -0.875705 0
M  V30 1834 O 177.512 1.57057 -1.14223 0
M  V30 1835 C 174.642 2.54401 -2.36427 0
M  V30 1836 C 173.596 2.43782 -3.51787 0
M  V30 1837 C 172.922 3.82078 -3.7406 0
M  V30 1838 C 174.222 1.93732 -4.85041 0
M  V30 1839 H 175.916 0.847534 -2.87154 0
M  V30 1840 H 173.462 0.40625 -1.38151 0
M  V30 1841 H 175.415 3.27458 -2.65234 0
M  V30 1842 H 174.139 2.92098 -1.46103 0
M  V30 1843 H 172.798 1.73178 -3.23117 0
M  V30 1844 H 172.446 4.17179 -2.81017 0
M  V30 1845 H 172.146 3.7584 -4.51684 0
M  V30 1846 H 173.67 4.56712 -4.05274 0
M  V30 1847 H 175.084 2.56569 -5.12684 0
M  V30 1848 H 173.481 1.98428 -5.66345 0
M  V30 1849 H 174.551 0.891962 -4.76626 0
M  V30 1850 N 175.894 1.51508 0.433938 0
M  V30 1851 C 176.857 1.72473 1.50949 0
M  V30 1852 C 177.857 0.594725 1.49398 0
M  V30 1853 O 179.047 0.862315 1.5136 0
M  V30 1854 C 176.179 1.78431 2.90474 0
M  V30 1855 H 177.372 2.68467 1.33662 0
M  V30 1856 H 174.925 1.41549 0.662836 0
M  V30 1857 H 175.66 0.842645 3.13161 0
M  V30 1858 H 175.445 2.60558 2.93005 0
M  V30 1859 H 176.935 1.96479 3.68491 0
M  V30 1860 N 177.372 -0.689602 1.41712 0
M  V30 1861 C 178.32 -1.82475 1.44242 0
M  V30 1862 C 179.314 -1.66354 0.319774 0
M  V30 1863 O 180.52 -1.73143 0.492089 0
M  V30 1864 H 176.895 -0.601416 0.451445 0
M  V30 1865 H 178.866 -1.77458 2.39899 0
M  V30 1866 C 177.615 -3.20535 1.3473 0
M  V30 1867 H 176.938 -3.33559 2.20405 0
M  V30 1868 H 178.378 -4.00023 1.40562 0
M  V30 1869 C 176.837 -3.36846 0.0603281 0
M  V30 1870 O 177.367 -3.91656 -0.892663 0
M  V30 1871 N 175.573 -2.90595 -0.0177039 0
M  V30 1872 H 175.12 -2.46178 0.758572 0
M  V30 1873 H 175.078 -3.01886 -0.878201 0
M  V30 1874 N 178.85 -1.27639 -0.924453 0
M  V30 1875 C 180.261 -1.12834 -1.48746 0
M  V30 1876 C 180.612 0.285505 -1.94112 0
M  V30 1877 O 179.737 1.17874 -1.81479 0
M  V30 1878 C 180.332 -2.04217 -2.70334 0
M  V30 1879 C 178.891 -1.93509 -3.22848 0
M  V30 1880 C 178.038 -1.96583 -1.95577 0
M  V30 1881 H 180.989 -1.40484 -0.738233 0
M  V30 1882 H 181.01 -1.59989 -3.4523 0
M  V30 1883 H 180.522 -3.07111 -2.37285 0
M  V30 1884 H 178.623 -0.936131 -3.60649 0
M  V30 1885 H 178.736 -2.79917 -3.88823 0
M  V30 1886 H 177.1 -1.4085 -2.12211 0
M  V30 1887 H 177.883 -3.01137 -1.64837 0
M  V30 1888 N 180.328 1.1314 -1.09713 0
M  V30 1889 C 181.238 2.22242 -0.751367 0
M  V30 1890 C 182.254 1.72224 0.247938 0
M  V30 1891 O 183.43 2.01205 0.0885463 0
M  V30 1892 C 180.495 3.46231 -0.180274 0
M  V30 1893 C 179.556 4.11125 -1.2359 0
M  V30 1894 C 178.789 5.29195 -0.691966 0
M  V30 1895 O 179.012 5.68342 0.48414 0
M  V30 1896 O 177.946 5.84214 -1.44838 0
M  V30 1897 H 181.772 2.54197 -1.66186 0
M  V30 1898 H 179.357 1.21331 -0.871735 0
M  V30 1899 H 181.239 4.21185 0.134739 0
M  V30 1900 H 179.914 3.1597 0.703185 0
M  V30 1901 H 178.821 3.37985 -1.60366 0
M  V30 1902 H 180.154 4.45524 -2.09211 0
M  V30 1903 N 181.806 0.884767 1.30421 0
M  V30 1904 C 182.754 0.340869 2.30089 0
M  V30 1905 C 183.748 -0.55201 1.60154 0
M  V30 1906 O 184.954 -0.436467 1.74628 0
M  V30 1907 H 181.329 0.0915739 0.746404 0
M  V30 1908 H 183.3 1.19513 2.73421 0
M  V30 1909 C 182.049 -0.429779 3.45034 0
M  V30 1910 H 181.372 0.248024 3.9903 0
M  V30 1911 H 182.812 -0.775445 4.16849 0
M  V30 1912 C 181.271 -1.62677 2.95022 0
M  V30 1913 O 181.801 -2.72614 2.95033 0
M  V30 1914 N 180.007 -1.46387 2.51036 0
M  V30 1915 H 179.554 -0.569506 2.51226 0
M  V30 1916 H 179.512 -2.26612 2.17932 0
M  V30 1917 N 183.284 -1.43765 0.645699 0
M  V30 1918 C 184.216 -2.29027 -0.0890605 0
M  V30 1919 C 185.229 -1.42093 -0.794563 0
M  V30 1920 O 186.418 -1.66104 -0.653575 0
M  V30 1921 C 183.518 -3.18831 -1.14891 0
M  V30 1922 C 182.691 -4.34261 -0.523043 0
M  V30 1923 C 181.75 -5.04994 -1.47878 0
M  V30 1924 O 180.776 -5.6052 -0.990277 0
M  V30 1925 N 181.978 -5.07795 -2.81291 0
M  V30 1926 H 184.743 -2.92727 0.64272 0
M  V30 1927 H 182.304 -1.54373 0.487924 0
M  V30 1928 H 184.296 -3.63015 -1.78892 0
M  V30 1929 H 182.866 -2.56782 -1.78275 0
M  V30 1930 H 182.086 -3.93088 0.295896 0
M  V30 1931 H 183.374 -5.08728 -0.0858147 0
M  V30 1932 H 182.772 -4.64042 -3.23546 0
M  V30 1933 H 181.329 -5.55721 -3.40614 0
M  V30 1934 N 184.763 -0.387143 -1.52771 0
M  V30 1935 C 186.01 0.195735 -2.01552 0
M  V30 1936 C 186.338 1.46995 -1.27369 0
M  V30 1937 O 185.593 1.92325 -0.361879 0
M  V30 1938 C 185.892 0.512209 -3.53711 0
M  V30 1939 C 185.558 -0.670202 -4.45891 0
M  V30 1940 C 184.22 -0.994586 -4.70809 0
M  V30 1941 C 186.572 -1.46134 -5.00294 0
M  V30 1942 C 183.9 -2.11169 -5.4738 0
M  V30 1943 C 186.252 -2.56903 -5.78086 0
M  V30 1944 C 184.916 -2.89852 -6.01284 0
M  V30 1945 H 184.186 0.0716246 -0.73753 0
M  V30 1946 H 186.833 -0.524046 -1.8419 0
M  V30 1947 H 185.138 1.31329 -3.69134 0
M  V30 1948 H 186.835 0.975804 -3.88946 0
M  V30 1949 H 183.425 -0.407366 -4.2666 0
M  V30 1950 H 187.609 -1.22397 -4.80971 0
M  V30 1951 H 182.865 -2.3707 -5.63567 0
M  V30 1952 H 187.039 -3.18608 -6.19243 0
M  V30 1953 H 184.666 -3.76533 -6.60399 0
M  V30 1954 N 186.241 1.57166 -0.116904 0
M  V30 1955 C 187.657 1.5779 0.239693 0
M  V30 1956 C 187.857 1.1295 1.66867 0
M  V30 1957 O 186.913 0.81592 2.38954 0
M  V30 1958 C 188.226 3.00699 0.00828202 0
M  V30 1959 C 189.774 3.12912 0.0743438 0
M  V30 1960 C 190.249 4.57817 -0.129348 0
M  V30 1961 N 191.74 4.63139 -0.075247 0
M  V30 1962 C 192.475 5.73023 -0.207788 0
M  V30 1963 N 191.971 6.91665 -0.396382 0
M  V30 1964 N 193.764 5.61906 -0.14751 0
M  V30 1965 H 185.915 1.84615 -1.05029 0
M  V30 1966 H 188.178 0.85311 -0.41341 0
M  V30 1967 H 187.884 3.37784 -0.979531 0
M  V30 1968 H 187.758 3.69848 0.741077 0
M  V30 1969 H 190.145 2.75686 1.05268 0
M  V30 1970 H 190.226 2.4631 -0.690297 0
M  V30 1971 H 189.87 4.95742 -1.10465 0
M  V30 1972 H 189.8 5.22507 0.655253 0
M  V30 1973 H 192.291 3.7784 0.0670898 0
M  V30 1974 H 192.604 7.71255 -0.488437 0
M  V30 1975 H 190.949 6.93654 -0.432329 0
M  V30 1976 H 194.14 4.681 -0.00115036 0
M  V30 1977 H 194.313 6.47501 -0.254247 0
M  V30 1978 N 187.719 -0.156864 1.56817 0
M  V30 1979 C 188.965 -0.872416 1.83076 0
M  V30 1980 C 189.298 -1.81261 0.697001 0
M  V30 1981 O 188.573 -1.92171 -0.30008 0
M  V30 1982 C 188.856 -1.65551 3.19789 0
M  V30 1983 C 188.709 -0.737467 4.43713 0
M  V30 1984 C 190.028 -2.62012 3.53606 0
M  V30 1985 H 187.147 -0.315715 0.665953 0
M  V30 1986 H 189.789 -0.138004 1.89498 0
M  V30 1987 H 187.939 -2.28159 3.14445 0
M  V30 1988 H 189.611 -0.123143 4.61136 0
M  V30 1989 H 187.854 -0.0464067 4.33775 0
M  V30 1990 H 188.525 -1.32122 5.35955 0
M  V30 1991 H 191.001 -2.09525 3.59497 0
M  V30 1992 H 189.877 -3.13861 4.50314 0
M  V30 1993 H 190.138 -3.42902 2.79053 0
M  V30 1994 N 189.197 -1.51736 -0.425897 0
M  V30 1995 C 190.474 -1.55519 -1.1863 0
M  V30 1996 C 190.854 -0.326219 -2.08564 0
M  V30 1997 O 190.202 0.688012 -2.17896 0
M  V30 1998 C 190.412 -2.87521 -1.9782 0
M  V30 1999 C 191.76 -3.39899 -2.54468 0
M  V30 2000 O 192.784 -2.89148 -2.08019 0
M  V30 2001 O 191.643 -4.2848 -3.39215 0
M  V30 2002 H 188.737 -0.625739 -0.540721 0
M  V30 2003 H 191.283 -1.64055 -0.434038 0
M  V30 2004 H 190.055 -3.68422 -1.31836 0
M  V30 2005 H 189.678 -2.822 -2.80088 0
M  V30 2006 N 190.675 0.682077 -1.42076 0
M  V30 2007 C 191.905 1.46844 -1.45329 0
M  V30 2008 C 192.313 1.89102 -0.0609328 0
M  V30 2009 O 191.656 1.58238 0.933082 0
M  V30 2010 C 191.718 2.75375 -2.31104 0
M  V30 2011 C 191.382 2.55238 -3.79081 0
M  V30 2012 C 192.379 2.20309 -4.70914 0
M  V30 2013 C 190.064 2.70459 -4.2327 0
M  V30 2014 C 192.058 2.00859 -6.04925 0
M  V30 2015 C 189.745 2.50624 -5.57343 0
M  V30 2016 C 190.743 2.15876 -6.47986 0
M  V30 2017 O 190.431 1.96227 -7.79583 0
M  V30 2018 H 190.163 0.4586 -0.496651 0
M  V30 2019 H 192.717 0.846131 -1.87162 0
M  V30 2020 H 190.947 3.40061 -1.84107 0
M  V30 2021 H 192.636 3.37231 -2.25898 0
M  V30 2022 H 193.402 2.08153 -4.38061 0
M  V30 2023 H 189.281 2.96485 -3.53012 0
M  V30 2024 H 192.825 1.7366 -6.75639 0
M  V30 2025 H 188.722 2.62375 -5.89771 0
M  V30 2026 H 189.49 2.10883 -7.90867 0
M  V30 2027 N 192.153 1.28127 0.917671 0
M  V30 2028 C 193.402 1.14432 1.66097 0
M  V30 2029 C 193.715 -0.307247 1.93172 0
M  V30 2030 O 194.921 -0.565259 2.65551 0
M  V30 2031 C 193.377 2.00015 2.99202 0
M  V30 2032 C 192.985 3.49889 2.79789 0
M  V30 2033 C 194.729 1.94996 3.77064 0
M  V30 2034 C 192.636 4.27636 4.08511 0
M  V30 2035 H 191.566 0.424662 0.62304 0
M  V30 2036 H 194.217 1.52628 1.01868 0
M  V30 2037 H 192.599 1.54672 3.64544 0
M  V30 2038 H 193.773 4.03162 2.23152 0
M  V30 2039 H 192.088 3.56392 2.15345 0
M  V30 2040 H 194.685 2.50354 4.72469 0
M  V30 2041 H 195.028 0.925819 4.05875 0
M  V30 2042 H 195.561 2.38287 3.18534 0
M  V30 2043 H 192.3 5.30615 3.84874 0
M  V30 2044 H 191.82 3.79137 4.64774 0
M  V30 2045 H 193.499 4.37346 4.76799 0
M  V30 2046 N 193.631 -1.12557 1.10312 0
M  V30 2047 C 194.561 -2.20341 0.772798 0
M  V30 2048 C 195.542 -1.68198 -0.25365 0
M  V30 2049 O 196.727 -1.93831 -0.119699 0
M  V30 2050 C 193.857 -3.46709 0.202443 0
M  V30 2051 C 192.811 -4.11996 1.15943 0
M  V30 2052 C 192.137 -5.328 0.450345 0
M  V30 2053 C 193.437 -4.5828 2.50552 0
M  V30 2054 H 195.131 -2.48229 1.674 0
M  V30 2055 H 192.677 -1.19308 0.806326 0
M  V30 2056 H 194.63 -4.2138 -0.0407752 0
M  V30 2057 H 193.354 -3.18245 -0.734001 0
M  V30 2058 H 192.013 -3.39305 1.38808 0
M  V30 2059 H 191.661 -5.00602 -0.490531 0
M  V30 2060 H 191.361 -5.7743 1.08851 0
M  V30 2061 H 192.885 -6.10219 0.215642 0
M  V30 2062 H 194.299 -5.2433 2.31843 0
M  V30 2063 H 192.696 -5.13683 3.10242 0
M  V30 2064 H 193.766 -3.72329 3.10643 0
M  V30 2065 N 195.109 -0.891671 -1.2995 0
M  V30 2066 C 196.334 -0.527932 -2.00568 0
M  V30 2067 C 196.759 0.877969 -1.66353 0
M  V30 2068 O 196.117 1.58301 -0.883762 0
M  V30 2069 C 196.165 -0.717745 -3.53385 0
M  V30 2070 O 195.269 0.233376 -4.11739 0
M  V30 2071 H 194.61 -0.20722 -0.630837 0
M  V30 2072 H 197.14 -1.20105 -1.65638 0
M  V30 2073 H 197.15 -0.619307 -4.03272 0
M  V30 2074 H 195.825 -1.74276 -3.77625 0
M  V30 2075 H 194.402 0.0880706 -3.72796 0
M  V30 2076 N 196.587 1.43421 -0.653314 0
M  V30 2077 C 197.833 2.02111 -0.166992 0
M  V30 2078 C 198.166 1.51423 1.21592 0
M  V30 2079 O 197.441 0.707389 1.8118 0
M  V30 2080 C 197.724 3.5966 -0.177948 0
M  V30 2081 C 197.577 4.20579 -1.59478 0
M  V30 2082 C 198.896 4.37413 0.4856 0
M  V30 2083 H 196.015 0.734374 -0.0621557 0
M  V30 2084 H 198.657 1.70717 -0.834016 0
M  V30 2085 H 196.807 3.86537 0.390032 0
M  V30 2086 H 198.479 4.04732 -2.21336 0
M  V30 2087 H 196.722 3.77226 -2.14204 0
M  V30 2088 H 197.393 5.29665 -1.5543 0
M  V30 2089 H 199.869 4.161 0.00234528 0
M  V30 2090 H 198.745 5.47075 0.447207 0
M  V30 2091 H 199.006 4.13672 1.55974 0
M  V30 2092 N 198.065 0.39524 1.52563 0
M  V30 2093 C 198.998 -0.4813 2.23067 0
M  V30 2094 C 199.976 -1.05927 1.23362 0
M  V30 2095 O 201.16 -1.10979 1.52368 0
M  V30 2096 C 198.287 -1.66676 2.9485 0
M  V30 2097 C 197.333 -1.21348 4.08873 0
M  V30 2098 S 198.166 -0.190102 5.35162 0
M  V30 2099 C 199.322 -1.38121 6.1047 0
M  V30 2100 H 199.555 0.117381 2.97068 0
M  V30 2101 H 197.088 0.179458 1.53354 0
M  V30 2102 H 199.046 -2.3466 3.36816 0
M  V30 2103 H 197.707 -2.23676 2.20518 0
M  V30 2104 H 196.9 -2.09877 4.58222 0
M  V30 2105 H 196.502 -0.612486 3.68951 0
M  V30 2106 H 198.794 -2.30726 6.37002 0
M  V30 2107 H 199.737 -0.928521 7.01986 0
M  V30 2108 H 200.145 -1.60071 5.41329 0
M  V30 2109 N 199.544 -1.57102 0.125237 0
M  V30 2110 C 200.492 -2.16905 -0.839927 0
M  V30 2111 C 201.486 -1.11998 -1.27094 0
M  V30 2112 O 202.692 -1.3029 -1.24195 0
M  V30 2113 H 199.067 -0.694252 -0.288995 0
M  V30 2114 H 201.038 -2.96774 -0.311115 0
M  V30 2115 C 199.787 -2.78795 -2.07771 0
M  V30 2116 H 199.11 -3.59221 -1.755 0
M  V30 2117 H 200.55 -3.2417 -2.73295 0
M  V30 2118 C 199.009 -1.76193 -2.87155 0
M  V30 2119 O 199.539 -1.21909 -3.82755 0
M  V30 2120 N 197.745 -1.45991 -2.51267 0
M  V30 2121 H 197.292 -1.90325 -1.73592 0
M  V30 2122 H 197.25 -0.775844 -3.04677 0
M  V30 2123 N 201.022 0.148545 -1.56898 0
M  V30 2124 C 202.268 0.862694 -1.83536 0
M  V30 2125 C 202.601 1.80889 -0.706604 0
M  V30 2126 O 201.876 1.92328 0.289885 0
M  V30 2127 C 202.159 1.63853 -3.20662 0
M  V30 2128 C 202.012 0.713925 -4.44098 0
M  V30 2129 C 203.331 2.60133 -3.54991 0
M  V30 2130 H 200.45 0.312179 -0.667618 0
M  V30 2131 H 203.092 0.127953 -1.89569 0
M  V30 2132 H 201.242 2.26489 -3.1565 0
M  V30 2133 H 202.914 0.098686 -4.61194 0
M  V30 2134 H 201.157 0.0234019 -4.33794 0
M  V30 2135 H 201.828 1.29278 -5.36648 0
M  V30 2136 H 204.304 2.07616 -3.60603 0
M  V30 2137 H 203.18 3.11468 -4.51972 0
M  V30 2138 H 203.441 3.41417 -2.80868 0
M  V30 2139 N 202.5 1.5196 0.417844 0
M  V30 2140 C 203.911 1.57851 0.997 0
M  V30 2141 C 204.262 0.413714 1.91789 0
M  V30 2142 O 203.387 -0.467057 2.113 0
M  V30 2143 C 203.982 2.86085 1.81496 0
M  V30 2144 C 202.541 2.94483 2.34428 0
M  V30 2145 C 201.688 2.52707 1.14169 0
M  V30 2146 H 204.639 1.57455 0.198392 0
M  V30 2147 H 204.66 2.70947 2.67148 0
M  V30 2148 H 204.172 3.70842 1.14446 0
M  V30 2149 H 202.273 2.142 3.04875 0
M  V30 2150 H 202.386 3.98546 2.65891 0
M  V30 2151 H 200.75 2.06353 1.49301 0
M  V30 2152 H 201.533 3.39828 0.486999 0
M  V30 2153 N 203.978 -0.674533 1.42435 0
M  V30 2154 C 205.255 -1.4305 1.33402 0
M  V30 2155 C 205.635 -2.11081 -0.0284674 0
M  V30 2156 O 204.983 -2.03257 -1.04397 0
M  V30 2157 C 205.193 -2.43272 2.50239 0
M  V30 2158 C 206.541 -3.07907 2.92367 0
M  V30 2159 O 207.565 -2.53599 2.50132 0
M  V30 2160 O 206.424 -4.0632 3.65467 0
M  V30 2161 H 203.518 -0.638076 0.526106 0
M  V30 2162 H 206.064 -0.703235 1.54443 0
M  V30 2163 H 204.836 -1.91803 3.41068 0
M  V30 2164 H 204.459 -3.23479 2.31186 0
M  V30 2165 N 205.456 -1.28612 -0.910864 0
M  V30 2166 C 206.703 -1.15934 -1.66029 0
M  V30 2167 C 207.031 0.291483 -1.92303 0
M  V30 2168 O 206.286 1.22816 -1.52364 0
M  V30 2169 C 206.585 -1.90624 -3.0232 0
M  V30 2170 C 206.251 -3.40405 -2.95695 0
M  V30 2171 C 204.913 -3.81255 -2.93595 0
M  V30 2172 C 207.265 -4.359 -2.85728 0
M  V30 2173 C 204.593 -5.15936 -2.79334 0
M  V30 2174 C 206.945 -5.70657 -2.73007 0
M  V30 2175 C 205.609 -6.10779 -2.69267 0
M  V30 2176 H 204.879 -0.424234 -0.607541 0
M  V30 2177 H 207.526 -1.5942 -1.06101 0
M  V30 2178 H 205.831 -1.39696 -3.6605 0
M  V30 2179 H 207.528 -1.78228 -3.59215 0
M  V30 2180 H 204.118 -3.07927 -2.98125 0
M  V30 2181 H 208.302 -4.053 -2.86436 0
M  V30 2182 H 203.558 -5.46146 -2.74835 0
M  V30 2183 H 207.732 -6.44311 -2.64264 0
M  V30 2184 H 205.359 -7.1509 -2.57974 0
M  V30 2185 N 206.934 1.1197 -1.10907 0
M  V30 2186 C 208.211 1.79959 -0.766432 0
M  V30 2187 C 208.591 1.97466 0.746363 0
M  V30 2188 O 207.939 1.55491 1.67436 0
M  V30 2189 C 208.149 3.14009 -1.52314 0
M  V30 2190 C 209.497 3.89134 -1.69883 0
M  V30 2191 O 210.521 3.2368 -1.48692 0
M  V30 2192 O 209.38 5.06572 -2.05054 0
M  V30 2193 H 206.474 0.779208 -0.277062 0
M  V30 2194 H 209.02 1.18762 -1.21217 0
M  V30 2195 H 207.792 2.96587 -2.55249 0
M  V30 2196 H 207.415 3.82915 -1.07059 0
M  V30 2197 N 208.412 0.89855 1.29475 0
M  V30 2198 C 209.659 0.523882 1.95606 0
M  V30 2199 C 209.987 -0.929608 1.70847 0
M  V30 2200 O 209.242 -1.67401 1.01367 0
M  V30 2201 C 209.541 0.761398 3.49195 0
M  V30 2202 C 209.207 2.19207 3.94029 0
M  V30 2203 C 207.869 2.58326 4.05982 0
M  V30 2204 C 210.221 3.12379 4.17216 0
M  V30 2205 C 207.549 3.898 4.38489 0
M  V30 2206 C 209.901 4.43401 4.51197 0
M  V30 2207 C 208.565 4.82394 4.61359 0
M  V30 2208 H 207.835 0.191702 0.715773 0
M  V30 2209 H 210.482 1.13699 1.54094 0
M  V30 2210 H 208.787 0.0653622 3.91745 0
M  V30 2211 H 210.484 0.450904 3.98457 0
M  V30 2212 H 207.074 1.87846 3.85242 0
M  V30 2213 H 211.258 2.83371 4.07449 0
M  V30 2214 H 206.514 4.19734 4.44559 0
M  V30 2215 H 210.688 5.15623 4.68087 0
M  V30 2216 H 208.315 5.84306 4.86303 0
M  V30 2217 N 209.89 -1.43072 0.660911 0
M  V30 2218 C 211.301 -1.84932 0.256348 0
M  V30 2219 C 211.652 -1.55325 -1.19868 0
M  V30 2220 O 210.777 -1.00607 -1.91591 0
M  V30 2221 C 211.372 -3.35684 0.458475 0
M  V30 2222 C 209.931 -3.76245 0.108161 0
M  V30 2223 C 209.078 -2.66749 0.757641 0
M  V30 2224 H 212.029 -1.33116 0.864051 0
M  V30 2225 H 212.05 -3.79365 -0.293683 0
M  V30 2226 H 211.562 -3.572 1.51755 0
M  V30 2227 H 209.663 -3.60338 -0.948014 0
M  V30 2228 H 209.776 -4.76058 0.538992 0
M  V30 2229 H 208.14 -2.53989 0.190185 0
M  V30 2230 H 208.923 -2.91092 1.81989 0
M  V30 2231 N 211.368 -0.403325 -1.52352 0
M  V30 2232 C 212.779 0.0675782 -1.86578 0
M  V30 2233 C 213.13 1.44941 -1.32236 0
M  V30 2234 O 212.255 2.06112 -0.659307 0
M  V30 2235 C 212.85 0.129404 -3.38553 0
M  V30 2236 C 211.409 0.544629 -3.72439 0
M  V30 2237 C 210.556 -0.284551 -2.75836 0
M  V30 2238 H 213.507 -0.620631 -1.46061 0
M  V30 2239 H 213.528 0.94581 -3.68558 0
M  V30 2240 H 213.04 -0.87645 -3.78074 0
M  V30 2241 H 211.141 1.55734 -3.38493 0
M  V30 2242 H 211.254 0.293046 -4.78203 0
M  V30 2243 H 209.618 0.252258 -2.53448 0
M  V30 2244 H 210.401 -1.28865 -3.18196 0
M  V30 2245 N 212.846 1.57033 -0.133567 0
M  V30 2246 C 213.756 2.19632 0.824564 0
M  V30 2247 C 214.772 1.17666 1.28182 0
M  V30 2248 O 215.948 1.50193 1.3418 0
M  V30 2249 C 213.013 2.79499 2.05137 0
M  V30 2250 C 212.074 3.96548 1.64464 0
M  V30 2251 C 211.307 4.5355 2.81297 0
M  V30 2252 O 211.53 4.09438 3.97136 0
M  V30 2253 O 210.464 5.44018 2.57542 0
M  V30 2254 H 214.29 3.01991 0.321766 0
M  V30 2255 H 211.875 1.49112 0.0927889 0
M  V30 2256 H 213.757 3.17602 2.7696 0
M  V30 2257 H 212.432 2.00162 2.54395 0
M  V30 2258 H 211.339 3.63186 0.897048 0
M  V30 2259 H 212.672 4.77364 1.19934 0
M  V30 2260 N 214.325 -0.140222 1.56975 0
M  V30 2261 C 215.572 -0.851687 1.83719 0
M  V30 2262 C 215.9 -1.80862 0.715485 0
M  V30 2263 O 215.155 -1.93464 -0.294956 0
M  V30 2264 C 215.454 -1.65386 3.16832 0
M  V30 2265 C 215.12 -0.843112 4.42947 0
M  V30 2266 C 213.782 -0.619464 4.77196 0
M  V30 2267 C 216.134 -0.276582 5.20466 0
M  V30 2268 C 213.462 0.181312 5.8642 0
M  V30 2269 C 215.814 0.51127 6.30531 0
M  V30 2270 C 214.478 0.745432 6.63325 0
M  V30 2271 H 213.748 -0.311654 0.672274 0
M  V30 2272 H 216.395 -0.115006 1.91154 0
M  V30 2273 H 214.7 -2.46084 3.04877 0
M  V30 2274 H 216.397 -2.20793 3.34741 0
M  V30 2275 H 212.987 -1.0275 4.16101 0
M  V30 2276 H 217.171 -0.436632 4.94376 0
M  V30 2277 H 212.427 0.372165 6.10266 0
M  V30 2278 H 216.601 0.957354 6.89788 0
M  V30 2279 H 214.228 1.36778 7.47794 0
M  V30 2280 N 215.803 -1.52179 -0.40978 0
M  V30 2281 C 217.033 -1.69807 -1.17682 0
M  V30 2282 C 217.441 -0.406908 -1.84773 0
M  V30 2283 O 216.784 0.626863 -1.72673 0
M  V30 2284 C 216.846 -2.77712 -2.2829 0
M  V30 2285 C 216.51 -4.19481 -1.81341 0
M  V30 2286 C 217.507 -5.03345 -1.30154 0
M  V30 2287 C 215.192 -4.65713 -1.88194 0
M  V30 2288 C 217.186 -6.31511 -0.864416 0
M  V30 2289 C 214.873 -5.93869 -1.44093 0
M  V30 2290 C 215.871 -6.76597 -0.933023 0
M  V30 2291 O 215.559 -8.02354 -0.49838 0
M  V30 2292 H 215.291 -0.572372 -0.359675 0
M  V30 2293 H 217.845 -1.99511 -0.488311 0
M  V30 2294 H 216.075 -2.43383 -3.00502 0
M  V30 2295 H 217.764 -2.83946 -2.90051 0
M  V30 2296 H 218.53 -4.68819 -1.24232 0
M  V30 2297 H 214.409 -4.01424 -2.26671 0
M  V30 2298 H 217.953 -6.96033 -0.467286 0
M  V30 2299 H 213.85 -6.27903 -1.49694 0
M  V30 2300 H 214.618 -8.16135 -0.621747 0
M  V30 2301 N 217.281 0.66697 -1.42791 0
M  V30 2302 C 218.191 1.80962 -1.49299 0
M  V30 2303 C 219.207 1.69775 -0.381108 0
M  V30 2304 O 220.383 1.91188 -0.633188 0
M  V30 2305 C 217.448 3.17156 -1.40045 0
M  V30 2306 C 216.509 3.40242 -2.6179 0
M  V30 2307 C 215.742 4.69939 -2.52969 0
M  V30 2308 O 215.965 5.48372 -1.56985 0
M  V30 2309 O 214.899 4.94441 -3.43237 0
M  V30 2310 H 218.725 1.78427 -2.45759 0
M  V30 2311 H 216.31 0.823713 -1.24641 0
M  V30 2312 H 218.192 3.98413 -1.37276 0
M  V30 2313 H 216.867 3.20312 -0.467138 0
M  V30 2314 H 215.774 2.58802 -2.70134 0
M  V30 2315 H 217.107 3.41923 -3.54047 0
M  V30 2316 N 218.759 1.29093 0.90403 0
M  V30 2317 C 219.709 1.10482 1.99443 0
M  V30 2318 C 220.693 0.0255401 1.6088 0
M  V30 2319 O 221.885 0.24677 1.75271 0
M  V30 2320 C 219.014 0.778882 3.34348 0
M  V30 2321 C 218.1 1.89749 3.79284 0
M  V30 2322 N 218.491 3.14045 3.96497 0
M  V30 2323 C 216.789 1.78955 4.08523 0
M  V30 2324 C 217.49 3.86996 4.34292 0
M  V30 2325 N 216.466 3.14909 4.43095 0
M  V30 2326 H 220.268 2.04778 2.10815 0
M  V30 2327 H 217.782 1.20155 1.09255 0
M  V30 2328 H 219.779 0.62661 4.12164 0
M  V30 2329 H 218.439 -0.156205 3.24324 0
M  V30 2330 H 219.45 3.49548 3.82148 0
M  V30 2331 H 216.127 0.926886 4.07081 0
M  V30 2332 H 217.517 4.93941 4.55491 0
M  V30 2333 N 220.237 -1.11381 1.11499 0
M  V30 2334 C 221.2 -2.15622 0.777153 0
M  V30 2335 C 222.2 -1.59504 -0.203779 0
M  V30 2336 O 223.39 -1.74188 0.020782 0
M  V30 2337 C 220.522 -3.40556 0.153116 0
M  V30 2338 H 221.715 -2.47021 1.70061 0
M  V30 2339 H 219.268 -1.26577 0.916952 0
M  V30 2340 H 220.003 -3.14767 -0.780536 0
M  V30 2341 H 219.788 -3.8257 0.859238 0
M  V30 2342 H 221.278 -4.17546 -0.0671044 0
M  V30 2343 N 221.715 -0.905404 -1.28997 0
M  V30 2344 C 222.662 -0.385892 -2.27551 0
M  V30 2345 C 223.632 0.535113 -1.57244 0
M  V30 2346 O 224.817 0.459119 -1.85194 0
M  V30 2347 C 221.957 0.375461 -3.43051 0
M  V30 2348 C 221.07 -0.577092 -4.28128 0
M  V30 2349 C 220.205 0.201879 -5.30816 0
M  V30 2350 C 219.244 -0.744829 -6.07551 0
M  V30 2351 N 218.381 9.42587e-05 -7.021 0
M  V30 2352 H 223.221 -1.23139 -2.71368 0
M  V30 2353 H 220.758 -0.618542 -1.33463 0
M  V30 2354 H 222.716 0.832992 -4.088 0
M  V30 2355 H 221.346 1.18537 -3.00248 0
M  V30 2356 H 220.398 -1.15315 -3.62501 0
M  V30 2357 H 221.71 -1.30152 -4.8152 0
M  V30 2358 H 220.864 0.720351 -6.02408 0
M  V30 2359 H 219.603 0.959413 -4.7817 0
M  V30 2360 H 218.608 -1.27475 -5.34818 0
M  V30 2361 H 219.833 -1.50178 -6.62286 0
M  V30 2362 H 217.779 0.739791 -6.51815 0
M  V30 2363 H 217.696 -0.664321 -7.53076 0
M  V30 2364 H 218.964 0.498644 -7.77903 0
M  V30 2365 N 223.193 1.4272 -0.668489 0
M  V30 2366 C 224.156 2.292 0.00448567 0
M  V30 2367 C 225.156 1.43001 0.735339 0
M  V30 2368 O 226.346 1.64461 0.57429 0
M  V30 2369 C 223.478 3.25375 1.01705 0
M  V30 2370 H 224.671 2.90199 -0.756608 0
M  V30 2371 H 222.224 1.50254 -0.430506 0
M  V30 2372 H 222.959 2.69301 1.80686 0
M  V30 2373 H 222.744 3.88944 0.496463 0
M  V30 2374 H 224.234 3.90245 1.48655 0
M  V30 2375 N 224.671 0.411399 1.52136 0
M  V30 2376 C 225.601 -0.404015 2.29978 0
M  V30 2377 C 226.582 -1.04412 1.34284 0
M  V30 2378 O 227.767 -1.0527 1.63192 0
M  V30 2379 C 224.897 -1.5197 3.12286 0
M  V30 2380 C 223.851 -1.00448 4.16046 0
M  V30 2381 C 223.177 -2.21393 4.86712 0
M  V30 2382 C 224.477 -0.0569336 5.22269 0
M  V30 2383 H 226.171 0.245529 2.98392 0
M  V30 2384 H 223.717 0.119525 1.43503 0
M  V30 2385 H 225.67 -2.09715 3.6551 0
M  V30 2386 H 224.394 -2.19716 2.41646 0
M  V30 2387 H 223.053 -0.449421 3.63835 0
M  V30 2388 H 222.701 -2.87699 4.12599 0
M  V30 2389 H 222.401 -1.87571 5.56858 0
M  V30 2390 H 223.925 -2.7974 5.4275 0
M  V30 2391 H 225.339 -0.54325 5.7072 0
M  V30 2392 H 223.736 0.192594 5.99791 0
M  V30 2393 H 224.806 0.887663 4.76706 0
M  V30 2394 N 226.149 -1.5696 0.141893 0
M  V30 2395 C 227.395 -1.97034 -0.504884 0
M  V30 2396 C 227.75 -1.02518 -1.62812 0
M  V30 2397 O 227.043 -0.0592943 -1.91508 0
M  V30 2398 C 227.237 -3.41242 -1.06249 0
M  V30 2399 C 227.066 -4.497 0.00519653 0
M  V30 2400 C 225.836 -5.03338 0.444873 0
M  V30 2401 C 228.034 -5.08122 0.794767 0
M  V30 2402 N 226.016 -5.95395 1.49593 0
M  V30 2403 C 227.387 -5.96339 1.69645 0
M  V30 2404 C 229.442 -4.9071 0.843122 0
M  V30 2405 C 228.145 -6.69009 2.64233 0
M  V30 2406 C 230.171 -5.64077 1.77681 0
M  V30 2407 C 229.533 -6.51999 2.66603 0
M  V30 2408 H 225.632 -0.766745 -0.153707 0
M  V30 2409 H 228.216 -1.93273 0.235313 0
M  V30 2410 H 226.387 -3.45606 -1.77231 0
M  V30 2411 H 228.119 -3.68389 -1.67546 0
M  V30 2412 H 224.874 -4.73576 0.0480959 0
M  V30 2413 H 225.298 -6.46128 2.02107 0
M  V30 2414 H 229.94 -4.22459 0.169732 0
M  V30 2415 H 227.658 -7.36492 3.32575 0
M  V30 2416 H 231.244 -5.52602 1.81996 0
M  V30 2417 H 230.124 -7.07775 3.37675 0
M  V30 2418 N 227.627 0.131896 -1.57047 0
M  V30 2419 C 228.537 1.1815 -2.02676 0
M  V30 2420 C 229.553 1.46113 -0.944824 0
M  V30 2421 O 230.729 1.57485 -1.25541 0
M  V30 2422 C 227.794 2.49139 -2.41103 0
M  V30 2423 C 226.855 2.28688 -3.63318 0
M  V30 2424 C 226.088 3.53431 -3.99903 0
M  V30 2425 O 226.311 4.60223 -3.36973 0
M  V30 2426 O 225.245 3.45198 -4.93074 0
M  V30 2427 H 229.071 0.824069 -2.92306 0
M  V30 2428 H 226.656 0.341745 -1.45439 0
M  V30 2429 H 228.538 3.26338 -2.66611 0
M  V30 2430 H 227.213 2.84382 -1.54624 0
M  V30 2431 H 226.12 1.4939 -3.42977 0
M  V30 2432 H 227.453 1.98355 -4.50462 0
M  V30 2433 N 229.106 1.52395 0.401703 0
M  V30 2434 C 230.383 1.57387 1.16141 0
M  V30 2435 C 230.763 0.359359 2.08019 0
M  V30 2436 O 230.111 -0.65326 2.18963 0
M  V30 2437 C 230.321 2.90631 1.93221 0
M  V30 2438 C 231.669 3.43904 2.49028 0
M  V30 2439 O 232.693 2.92421 2.03393 0
M  V30 2440 O 231.552 4.33823 3.32356 0
M  V30 2441 H 228.646 0.634262 0.530698 0
M  V30 2442 H 231.192 1.64725 0.407883 0
M  V30 2443 H 229.964 3.70473 1.25958 0
M  V30 2444 H 229.587 2.8662 2.75563 0
M  V30 2445 N 230.584 -0.659388 1.43143 0
M  V30 2446 C 231.494 -1.80167 1.50256 0
M  V30 2447 C 232.51 -1.69571 0.390106 0
M  V30 2448 O 233.686 -1.90849 0.643319 0
M  V30 2449 C 230.751 -3.16409 1.41725 0
M  V30 2450 C 229.812 -3.38848 2.63591 0
M  V30 2451 C 229.045 -4.68591 2.55458 0
M  V30 2452 O 229.268 -5.47532 1.59891 0
M  V30 2453 O 228.202 -4.92614 3.45854 0
M  V30 2454 H 232.028 -1.77121 2.46702 0
M  V30 2455 H 229.613 -0.817092 1.25076 0
M  V30 2456 H 231.495 -3.9768 1.39387 0
M  V30 2457 H 230.17 -3.20059 0.484118 0
M  V30 2458 H 229.077 -2.57366 2.71502 0
M  V30 2459 H 230.41 -3.4004 3.55856 0
M  V30 2460 N 232.062 -1.29571 -0.897171 0
M  V30 2461 C 233.31 -1.17456 -1.64464 0
M  V30 2462 C 233.631 0.273698 -1.9307 0
M  V30 2463 O 232.901 1.18684 -1.55855 0
M  V30 2464 H 231.481 -0.431706 -0.609622 0
M  V30 2465 H 234.143 -1.62531 -1.07562 0
M  V30 2466 H 233.239 -1.72648 -2.59998 0
M  V30 2467 N 233.54 1.10788 -1.12088 0
M  V30 2468 C 234.786 1.82942 -0.875226 0
M  V30 2469 C 235.119 1.84779 0.597538 0
M  V30 2470 O 234.394 1.30578 1.44152 0
M  V30 2471 C 234.677 3.29789 -1.44606 0
M  V30 2472 C 234.53 3.36307 -2.98693 0
M  V30 2473 C 235.849 4.26064 -1.10261 0
M  V30 2474 H 232.968 0.664195 -0.319397 0
M  V30 2475 H 235.61 1.29867 -1.38689 0
M  V30 2476 H 233.76 3.75118 -1.01089 0
M  V30 2477 H 235.432 2.99487 -3.50864 0
M  V30 2478 H 233.675 2.76318 -3.34411 0
M  V30 2479 H 234.346 4.39694 -3.33726 0
M  V30 2480 H 236.822 3.88951 -1.4784 0
M  V30 2481 H 235.698 5.27183 -1.52869 0
M  V30 2482 H 235.959 4.42098 -0.0142953 0
M  V30 2483 N 235.018 0.912232 1.28515 0
M  V30 2484 C 236.434 0.610159 1.47476 0
M  V30 2485 C 236.634 -0.844955 1.82928 0
M  V30 2486 O 235.69 -1.62416 1.93332 0
M  V30 2487 C 237.003 1.54675 2.57868 0
M  V30 2488 C 238.551 1.55331 2.71738 0
M  V30 2489 C 239.026 2.47649 3.85272 0
M  V30 2490 N 240.517 2.45767 3.92623 0
M  V30 2491 C 241.252 3.13896 4.79851 0
M  V30 2492 N 240.748 3.9135 5.71679 0
M  V30 2493 N 242.541 3.02991 4.73448 0
M  V30 2494 H 234.692 1.85318 1.03783 0
M  V30 2495 H 236.955 0.794777 0.516753 0
M  V30 2496 H 236.661 2.5841 2.38574 0
M  V30 2497 H 236.535 1.27671 3.54937 0
M  V30 2498 H 238.922 0.52335 2.90422 0
M  V30 2499 H 239.003 1.86378 1.75205 0
M  V30 2500 H 238.647 3.50745 3.67342 0
M  V30 2501 H 238.577 2.13904 4.81199 0
M  V30 2502 H 241.068 1.89503 3.26951 0
M  V30 2503 H 241.381 4.40359 6.35062 0
M  V30 2504 H 239.726 3.95455 5.71524 0
M  V30 2505 H 242.917 2.41987 4.007 0
M  V30 2506 H 243.09 3.5636 5.41213 0
M  V30 2507 N 236.496 -1.42363 0.676048 0
M  V30 2508 C 237.459 -2.29199 0.00766941 0
M  V30 2509 C 238.459 -1.43389 -0.727745 0
M  V30 2510 O 239.649 -1.64764 -0.56556 0
M  V30 2511 C 236.781 -3.2591 -0.999785 0
M  V30 2512 H 237.974 -2.89794 0.771988 0
M  V30 2513 H 235.527 -1.50024 0.438468 0
M  V30 2514 H 236.262 -2.70256 -1.79255 0
M  V30 2515 H 236.047 -3.89202 -0.475829 0
M  V30 2516 H 237.537 -3.91028 -1.46583 0
M  V30 2517 N 237.974 -0.419461 -1.51915 0
M  V30 2518 C 239.214 0.152336 -2.03832 0
M  V30 2519 C 239.578 1.41501 -1.29775 0
M  V30 2520 O 240.779 2.06591 -1.7197 0
M  V30 2521 C 239.05 0.383812 -3.55333 0
M  V30 2522 S 240.609 0.921577 -4.29013 0
M  V30 2523 H 237.427 0.0402193 -0.709862 0
M  V30 2524 H 240.029 -0.574758 -1.8686 0
M  V30 2525 H 238.733 -0.541794 -4.06808 0
M  V30 2526 H 238.264 1.13849 -3.76566 0
M  V30 2527 H 240.279 2.20108 -4.4471 0
M  V30 2528 N 239.452 1.56882 -0.150215 0
M  V30 2529 C 240.682 2.00302 0.506213 0
M  V30 2530 C 241.09 1.02934 1.58749 0
M  V30 2531 O 240.433 0.0188384 1.8369 0
M  V30 2532 C 240.495 3.40156 1.16337 0
M  V30 2533 C 240.159 4.56439 0.226311 0
M  V30 2534 C 241.156 5.17012 -0.547265 0
M  V30 2535 C 238.841 5.02136 0.128279 0
M  V30 2536 C 240.835 6.21693 -1.40629 0
M  V30 2537 C 238.522 6.06672 -0.734345 0
M  V30 2538 C 239.52 6.6632 -1.50023 0
M  V30 2539 O 239.208 7.68831 -2.34848 0
M  V30 2540 H 238.94 0.662182 0.135984 0
M  V30 2541 H 241.494 2.03961 -0.242746 0
M  V30 2542 H 239.724 3.33346 1.96004 0
M  V30 2543 H 241.413 3.67663 1.71985 0
M  V30 2544 H 242.179 4.82603 -0.48158 0
M  V30 2545 H 238.058 4.55435 0.714157 0
M  V30 2546 H 241.602 6.68179 -2.00455 0
M  V30 2547 H 237.499 6.40507 -0.801309 0
M  V30 2548 H 238.267 7.86065 -2.28131 0
M  V30 2549 N 240.93 -0.123565 1.57115 0
M  V30 2550 C 241.84 -1.17074 2.033 0
M  V30 2551 C 242.856 -1.4561 0.952559 0
M  V30 2552 O 244.032 -1.56817 1.26374 0
M  V30 2553 C 241.097 -2.47857 2.42421 0
M  V30 2554 C 240.158 -2.26758 3.64526 0
M  V30 2555 C 239.391 -3.51305 4.01771 0
M  V30 2556 O 239.614 -4.5843 3.39409 0
M  V30 2557 O 238.548 -3.42578 4.94898 0
M  V30 2558 H 242.374 -0.808555 2.92739 0
M  V30 2559 H 239.959 -0.334027 1.45618 0
M  V30 2560 H 241.841 -3.2492 2.68338 0
M  V30 2561 H 240.516 -2.83558 1.5613 0
M  V30 2562 H 239.423 -1.47569 3.43765 0
M  V30 2563 H 240.756 -1.95963 4.51508 0
M  V30 2564 N 242.408 -1.52605 -0.393616 0
M  V30 2565 C 243.824 -1.41753 -0.733357 0
M  V30 2566 C 244.024 -0.534293 -1.94287 0
M  V30 2567 O 243.08 -0.0059787 -2.52499 0
M  V30 2568 C 244.393 -2.84531 -0.972772 0
M  V30 2569 C 245.941 -2.93978 -1.07453 0
M  V30 2570 C 246.416 -4.37756 -1.3466 0
M  V30 2571 N 247.907 -4.4106 -1.41492 0
M  V30 2572 C 248.642 -5.49387 -1.642 0
M  V30 2573 N 248.138 -6.67806 -1.8441 0
M  V30 2574 N 249.931 -5.36923 -1.66342 0
M  V30 2575 H 242.082 -2.08555 0.402328 0
M  V30 2576 H 244.345 -0.940654 0.117789 0
M  V30 2577 H 244.051 -3.51353 -0.156204 0
M  V30 2578 H 243.925 -3.26508 -1.88871 0
M  V30 2579 H 246.312 -2.27326 -1.88167 0
M  V30 2580 H 246.393 -2.55435 -0.136605 0
M  V30 2581 H 246.037 -5.04972 -0.544581 0
M  V30 2582 H 245.967 -4.73848 -2.2973 0
M  V30 2583 H 248.458 -3.55705 -1.27601 0
M  V30 2584 H 248.771 -7.46141 -2.01231 0
M  V30 2585 H 247.116 -6.70843 -1.81644 0
M  V30 2586 H 250.307 -4.43381 -1.50102 0
M  V30 2587 H 250.48 -6.21416 -1.837 0
M  V30 2588 N 243.887 0.651787 -1.4349 0
M  V30 2589 C 245.112 1.44434 -1.48841 0
M  V30 2590 C 245.537 1.8779 -0.107955 0
M  V30 2591 O 244.895 1.57464 0.898602 0
M  V30 2592 C 244.943 2.65458 -2.44059 0
M  V30 2593 O 244.047 3.64566 -1.92784 0
M  V30 2594 H 243.388 0.433005 -0.503391 0
M  V30 2595 H 245.918 0.797451 -1.88419 0
M  V30 2596 H 245.928 3.13255 -2.6141 0
M  V30 2597 H 244.603 2.33244 -3.4434 0
M  V30 2598 H 243.18 3.23716 -1.851 0
M  V30 2599 N 245.365 1.30045 0.890287 0
M  V30 2600 C 246.313 1.15873 2.01683 0
M  V30 2601 C 247.307 0.0719403 1.69247 0
M  V30 2602 O 248.513 0.232414 1.78493 0
M  V30 2603 H 244.888 0.358203 0.661207 0
M  V30 2604 H 246.859 2.11229 2.10772 0
M  V30 2605 C 245.608 0.861842 3.36849 0
M  V30 2606 H 244.931 1.69016 3.62317 0
M  V30 2607 H 246.371 0.802762 4.16331 0
M  V30 2608 C 244.83 -0.435132 3.34078 0
M  V30 2609 O 245.36 -1.4583 3.74295 0
M  V30 2610 N 243.566 -0.444377 2.87182 0
M  V30 2611 H 243.113 0.388723 2.5465 0
M  V30 2612 H 243.071 -1.31213 2.85711 0
M  V30 2613 N 246.843 -1.10192 1.12674 0
M  V30 2614 C 247.753 -2.20172 0.810026 0
M  V30 2615 C 248.769 -1.72821 -0.202188 0
M  V30 2616 O 249.945 -2.01369 -0.0351691 0
M  V30 2617 C 247.01 -3.45631 0.272007 0
M  V30 2618 C 246.071 -4.07704 1.34447 0
M  V30 2619 C 245.304 -5.27175 0.832029 0
M  V30 2620 O 245.527 -5.69425 -0.333284 0
M  V30 2621 O 244.461 -5.80168 1.60277 0
M  V30 2622 H 248.287 -2.49701 1.72867 0
M  V30 2623 H 245.872 -1.18977 0.903597 0
M  V30 2624 H 247.754 -4.21394 -0.0230219 0
M  V30 2625 H 246.429 -3.17723 -0.619164 0
M  V30 2626 H 245.336 -3.33614 1.6927 0
M  V30 2627 H 246.669 -4.3982 2.2095 0
M  V30 2628 N 248.321 -0.919034 -1.28029 0
M  V30 2629 C 249.551 -0.570143 -1.98577 0
M  V30 2630 C 249.959 0.854172 -1.68821 0
M  V30 2631 O 249.302 1.57807 -0.940351 0
M  V30 2632 C 249.364 -0.705734 -3.52505 0
M  V30 2633 C 249.028 -2.10057 -4.05863 0
M  V30 2634 C 250.025 -3.07385 -4.19298 0
M  V30 2635 C 247.71 -2.41517 -4.40426 0
M  V30 2636 C 249.704 -4.34287 -4.66555 0
M  V30 2637 C 247.391 -3.68657 -4.87376 0
M  V30 2638 C 248.389 -4.64856 -5.00398 0
M  V30 2639 O 248.077 -5.89735 -5.46322 0
M  V30 2640 H 247.809 -0.215592 -0.6407 0
M  V30 2641 H 250.363 -1.23583 -1.64062 0
M  V30 2642 H 248.593 0.0170414 -3.86696 0
M  V30 2643 H 250.282 -0.363172 -4.04272 0
M  V30 2644 H 251.048 -2.84398 -3.92865 0
M  V30 2645 H 246.927 -1.67389 -4.29537 0
M  V30 2646 H 250.471 -5.09377 -4.76635 0
M  V30 2647 H 246.368 -3.91466 -5.13249 0
M  V30 2648 H 247.136 -5.92599 -5.64596 0
M  V30 2649 N 249.799 1.42003 -0.683588 0
M  V30 2650 C 250.731 2.29183 0.0283068 0
M  V30 2651 C 251.744 1.4415 0.756611 0
M  V30 2652 O 252.933 1.67779 0.609306 0
M  V30 2653 C 250.033 3.21765 1.06398 0
M  V30 2654 C 249.206 4.35496 0.407723 0
M  V30 2655 C 248.265 5.08737 1.34437 0
M  V30 2656 O 247.291 5.62948 0.841318 0
M  V30 2657 N 248.493 5.15075 2.67728 0
M  V30 2658 H 251.258 2.9092 -0.720105 0
M  V30 2659 H 248.819 1.53025 -0.528682 0
M  V30 2660 H 250.811 3.6763 1.69204 0
M  V30 2661 H 249.381 2.61418 1.71404 0
M  V30 2662 H 248.601 3.92165 -0.400012 0
M  V30 2663 H 249.889 5.08776 -0.0490956 0
M  V30 2664 H 249.287 4.72457 3.11129 0
M  V30 2665 H 247.844 5.64556 3.2576 0
M  V30 2666 N 251.277 0.427512 1.51691 0
M  V30 2667 C 252.207 -0.3796 2.30394 0
M  V30 2668 C 253.188 -1.02982 1.35384 0
M  V30 2669 O 254.373 -1.03534 1.643 0
M  V30 2670 C 251.503 -1.48649 3.1388 0
M  V30 2671 C 250.457 -0.960294 4.17088 0
M  V30 2672 C 249.783 -2.16219 4.89033 0
M  V30 2673 C 251.083 -0.00153679 5.223 0
M  V30 2674 H 252.777 0.277164 2.98114 0
M  V30 2675 H 250.323 0.134739 1.43368 0
M  V30 2676 H 252.276 -2.05826 3.67714 0
M  V30 2677 H 251 -2.1714 2.43962 0
M  V30 2678 H 249.659 -0.410806 3.64291 0
M  V30 2679 H 249.307 -2.83307 4.15628 0
M  V30 2680 H 249.007 -1.81654 5.58816 0
M  V30 2681 H 250.531 -2.73968 5.45687 0
M  V30 2682 H 251.945 -0.482687 5.71264 0
M  V30 2683 H 250.342 0.256199 5.99553 0
M  V30 2684 H 251.412 0.938174 4.75738 0
M  V30 2685 N 252.755 -1.56801 0.158532 0
M  V30 2686 C 254.004 -1.95665 -0.489702 0
M  V30 2687 C 254.317 -1.04654 -1.65248 0
M  V30 2688 O 255.523 -1.33146 -2.3661 0
M  V30 2689 C 253.979 -3.47874 -0.922582 0
M  V30 2690 C 253.587 -4.47489 0.213893 0
M  V30 2691 C 255.331 -3.95583 -1.53996 0
M  V30 2692 C 253.238 -5.90921 -0.237903 0
M  V30 2693 H 252.168 -0.730516 -0.186716 0
M  V30 2694 H 254.819 -1.81861 0.244722 0
M  V30 2695 H 253.201 -3.57051 -1.71261 0
M  V30 2696 H 254.375 -4.50017 0.991036 0
M  V30 2697 H 252.69 -4.09764 0.740407 0
M  V30 2698 H 255.287 -5.0019 -1.8898 0
M  V30 2699 H 255.63 -3.37789 -2.43319 0
M  V30 2700 H 256.163 -3.8937 -0.814611 0
M  V30 2701 H 252.902 -6.52559 0.620236 0
M  V30 2702 H 252.422 -5.91729 -0.980676 0
M  V30 2703 H 254.101 -6.43352 -0.686067 0
M  V30 2704 N 254.233 0.115231 -1.57178 0
M  V30 2705 C 255.51 0.852873 -1.76027 0
M  V30 2706 C 255.89 1.97892 -0.73498 0
M  V30 2707 O 255.238 2.27232 0.24036 0
M  V30 2708 C 255.448 1.36608 -3.21153 0
M  V30 2709 C 256.796 1.81692 -3.83762 0
M  V30 2710 O 257.82 1.46278 -3.24779 0
M  V30 2711 O 256.679 2.47104 -4.87444 0
M  V30 2712 H 253.773 0.405296 -0.720877 0
M  V30 2713 H 256.319 0.0986785 -1.69413 0
M  V30 2714 H 255.091 0.558357 -3.87296 0
M  V30 2715 H 254.714 2.18287 -3.3232 0
M  V30 2716 N 255.711 1.52812 0.385517 0
M  V30 2717 C 256.951 1.69716 1.13911 0
M  V30 2718 C 257.315 0.42962 1.87132 0
M  V30 2719 O 258.516 0.475071 2.64569 0
M  V30 2720 C 256.787 2.90021 2.0886 0
M  V30 2721 S 258.346 3.27531 2.92009 0
M  V30 2722 H 255.164 0.59739 0.385547 0
M  V30 2723 H 257.766 1.90868 0.423061 0
M  V30 2724 H 256.47 3.80493 1.53797 0
M  V30 2725 H 256.001 2.71213 2.84969 0
M  V30 2726 H 258.016 2.77989 4.11019 0
M  V30 2727 N 257.189 -0.644168 1.43834 0
M  V30 2728 C 258.152 -1.73857 1.49353 0
M  V30 2729 C 259.152 -1.56315 0.377112 0
M  V30 2730 O 260.342 -1.62048 0.639226 0
M  V30 2731 C 257.474 -3.12819 1.35488 0
M  V30 2732 H 258.667 -1.70342 2.46827 0
M  V30 2733 H 256.22 -0.856652 1.30733 0
M  V30 2734 H 256.955 -3.2194 0.390569 0
M  V30 2735 H 256.74 -3.26958 2.16428 0
M  V30 2736 H 258.23 -3.92606 1.42302 0
M  V30 2737 N 258.668 -1.30515 -0.883378 0
M  V30 2738 C 259.6 -1.12846 -1.99496 0
M  V30 2739 C 260.613 -0.0712571 -1.62644 0
M  V30 2740 O 261.802 -0.317432 -1.75655 0
M  V30 2741 C 258.902 -0.699123 -3.3161 0
M  V30 2742 C 258.075 -1.83842 -3.96889 0
M  V30 2743 C 257.134 -1.39737 -5.07307 0
M  V30 2744 O 256.16 -2.10485 -5.28852 0
M  V30 2745 N 257.362 -0.277279 -5.79837 0
M  V30 2746 H 260.127 -2.08585 -2.15203 0
M  V30 2747 H 257.688 -1.22672 -1.05656 0
M  V30 2748 H 259.68 -0.387044 -4.02845 0
M  V30 2749 H 258.25 0.166276 -3.12157 0
M  V30 2750 H 257.47 -2.31853 -3.18807 0
M  V30 2751 H 258.758 -2.60187 -4.37241 0
M  V30 2752 H 258.156 0.3122 -5.64838 0
M  V30 2753 H 256.713 -0.0246623 -6.51795 0
M  V30 2754 N 260.146 1.09593 -1.13257 0
M  V30 2755 C 261.376 1.85231 -0.915049 0
M  V30 2756 C 261.784 1.81345 0.539498 0
M  V30 2757 O 261.127 1.20664 1.38513 0
M  V30 2758 C 261.189 3.34275 -1.3229 0
M  V30 2759 C 260.853 3.6191 -2.79052 0
M  V30 2760 C 261.85 3.57777 -3.77216 0
M  V30 2761 C 259.535 3.90309 -3.16171 0
M  V30 2762 C 261.529 3.81652 -5.1051 0
M  V30 2763 C 259.216 4.13839 -4.49644 0
M  V30 2764 C 260.214 4.09502 -5.46623 0
M  V30 2765 O 259.902 4.32426 -6.77689 0
M  V30 2766 H 259.634 0.591997 -0.326367 0
M  V30 2767 H 262.188 1.394 -1.50854 0
M  V30 2768 H 260.418 3.80805 -0.672667 0
M  V30 2769 H 262.107 3.9132 -1.07812 0
M  V30 2770 H 262.873 3.35865 -3.49885 0
M  V30 2771 H 258.752 3.92811 -2.41289 0
M  V30 2772 H 262.296 3.78182 -5.86195 0
M  V30 2773 H 258.193 4.35232 -4.767 0
M  V30 2774 H 258.961 4.49896 -6.83766 0
M  V30 2775 N 261.624 0.925811 1.2754 0
M  V30 2776 C 262.871 0.565255 1.94451 0
M  V30 2777 C 263.199 -0.89316 1.7278 0
M  V30 2778 O 262.454 -1.65213 1.04895 0
M  V30 2779 C 262.753 0.835296 3.47502 0
M  V30 2780 C 262.419 2.27515 3.89291 0
M  V30 2781 C 261.081 2.66879 4.00411 0
M  V30 2782 C 263.433 3.21158 4.10496 0
M  V30 2783 C 260.761 3.99014 4.30122 0
M  V30 2784 C 263.113 4.52871 4.4169 0
M  V30 2785 C 261.777 4.92072 4.51023 0
M  V30 2786 H 261.047 0.206841 0.711546 0
M  V30 2787 H 263.694 1.16942 1.51647 0
M  V30 2788 H 261.999 0.148442 3.91519 0
M  V30 2789 H 263.696 0.535322 3.97411 0
M  V30 2790 H 260.286 1.95976 3.81171 0
M  V30 2791 H 264.47 2.9195 4.01346 0
M  V30 2792 H 259.726 4.2907 4.35556 0
M  V30 2793 H 263.9 5.25436 4.57045 0
M  V30 2794 H 261.527 5.9449 4.738 0
M  V30 2795 N 263.102 -1.41638 0.69111 0
M  V30 2796 C 264.032 -2.3347 0.037248 0
M  V30 2797 C 265.013 -1.51575 -0.771947 0
M  V30 2798 O 266.198 -1.80126 -0.72582 0
M  V30 2799 C 263.328 -3.35354 -0.903064 0
M  V30 2800 C 262.282 -4.27526 -0.201288 0
M  V30 2801 C 261.608 -5.19747 -1.25565 0
M  V30 2802 C 262.908 -5.13959 0.929689 0
M  V30 2803 H 264.602 -2.88397 0.804227 0
M  V30 2804 H 262.148 -1.38669 0.388189 0
M  V30 2805 H 264.101 -3.98519 -1.36969 0
M  V30 2806 H 262.825 -2.78767 -1.70166 0
M  V30 2807 H 261.484 -3.65779 0.245265 0
M  V30 2808 H 261.132 -4.59479 -2.04666 0
M  V30 2809 H 260.832 -5.8225 -0.791128 0
M  V30 2810 H 262.356 -5.85789 -1.72288 0
M  V30 2811 H 263.77 -5.70718 0.543546 0
M  V30 2812 H 262.167 -5.85379 1.32103 0
M  V30 2813 H 263.237 -4.51389 1.77133 0
M  V30 2814 N 264.58 -0.43555 -1.51462 0
M  V30 2815 C 265.857 0.191364 -1.94662 0
M  V30 2816 C 266.237 1.60254 -1.37411 0
M  V30 2817 O 265.585 2.2152 -0.560458 0
M  V30 2818 C 265.795 0.17091 -3.48581 0
M  V30 2819 C 267.143 0.377357 -4.2292 0
M  V30 2820 O 268.167 0.249104 -3.55328 0
M  V30 2821 O 267.026 0.63247 -5.42828 0
M  V30 2822 H 264.12 0.130932 -0.816569 0
M  V30 2823 H 266.666 -0.4934 -1.62369 0
M  V30 2824 H 265.438 -0.815738 -3.82703 0
M  V30 2825 H 265.061 0.898659 -3.87311 0
M  V30 2826 N 266.058 1.56714 -0.166846 0
M  V30 2827 C 267.005 2.17746 0.765193 0
M  V30 2828 C 267.975 1.11614 1.23011 0
M  V30 2829 O 269.16 1.39745 1.29908 0
M  V30 2830 C 266.3 2.81882 1.9909 0
M  V30 2831 C 265.413 4.02462 1.56997 0
M  V30 2832 C 264.548 4.54537 2.749 0
M  V30 2833 C 263.587 5.67538 2.29275 0
M  V30 2834 N 262.724 6.14142 3.40255 0
M  V30 2835 H 267.564 2.97048 0.237952 0
M  V30 2836 H 265.101 1.4672 0.105725 0
M  V30 2837 H 267.059 3.17221 2.70974 0
M  V30 2838 H 265.689 2.05191 2.49192 0
M  V30 2839 H 264.741 3.72973 0.748037 0
M  V30 2840 H 266.053 4.84273 1.19503 0
M  V30 2841 H 265.207 4.92035 3.54946 0
M  V30 2842 H 263.946 3.71774 3.1565 0
M  V30 2843 H 262.951 5.29597 1.47674 0
M  V30 2844 H 264.176 6.52099 1.89588 0
M  V30 2845 H 262.122 5.3431 3.8059 0
M  V30 2846 H 262.039 6.9093 3.06841 0
M  V30 2847 H 263.307 6.56289 4.206 0
M  V30 2848 N 267.536 -0.106894 1.57237 0
M  V30 2849 C 268.785 -0.811163 1.8467 0
M  V30 2850 C 269.098 -1.80469 0.754342 0
M  V30 2851 O 270.304 -2.55601 0.915439 0
M  V30 2852 C 268.76 -1.49337 3.27454 0
M  V30 2853 C 268.368 -0.540217 4.44731 0
M  V30 2854 C 270.112 -2.18206 3.64124 0
M  V30 2855 C 268.019 -1.22634 5.78545 0
M  V30 2856 H 266.949 -0.306679 0.688813 0
M  V30 2857 H 269.6 -0.0639887 1.83388 0
M  V30 2858 H 267.982 -2.2876 3.23241 0
M  V30 2859 H 269.156 0.221659 4.60267 0
M  V30 2860 H 267.471 0.042146 4.16379 0
M  V30 2861 H 270.068 -2.70253 4.61376 0
M  V30 2862 H 270.411 -2.96562 2.92158 0
M  V30 2863 H 270.944 -1.45658 3.70174 0
M  V30 2864 H 267.683 -0.483832 6.53712 0
M  V30 2865 H 267.203 -1.95993 5.66874 0
M  V30 2866 H 268.882 -1.75615 6.2271 0
M  V30 2867 N 269.014 -1.53014 -0.377408 0
M  V30 2868 C 270.291 -1.59215 -1.13622 0
M  V30 2869 C 270.671 -0.392407 -2.07421 0
M  V30 2870 O 270.019 0.618342 -2.19975 0
M  V30 2871 C 270.229 -2.93669 -1.88573 0
M  V30 2872 C 271.577 -3.47822 -2.43526 0
M  V30 2873 O 272.601 -2.9562 -1.98715 0
M  V30 2874 O 271.46 -4.39055 -3.25412 0
M  V30 2875 H 268.554 -0.642625 -0.52054 0
M  V30 2876 H 271.1 -1.65353 -0.381625 0
M  V30 2877 H 269.872 -3.7243 -1.20048 0
M  V30 2878 H 269.495 -2.90968 -2.70968 0
M  V30 2879 N 270.492 0.636531 -1.44174 0
M  V30 2880 C 271.738 1.39826 -1.4689 0
M  V30 2881 C 272.071 1.93947 -0.0990585 0
M  V30 2882 O 271.346 1.73325 0.882544 0
M  V30 2883 C 271.629 2.56751 -2.5249 0
M  V30 2884 C 271.482 2.08014 -3.98811 0
M  V30 2885 C 272.801 3.58946 -2.54649 0
M  V30 2886 H 269.92 0.507075 -0.53483 0
M  V30 2887 H 272.562 0.720188 -1.75822 0
M  V30 2888 H 270.712 3.14597 -2.2795 0
M  V30 2889 H 272.384 1.5504 -4.34466 0
M  V30 2890 H 270.627 1.39242 -4.10846 0
M  V30 2891 H 271.298 2.92169 -4.68339 0
M  V30 2892 H 273.774 3.1089 -2.76563 0
M  V30 2893 H 272.65 4.38286 -3.3045 0
M  V30 2894 H 272.911 4.12655 -1.58646 0
M  V30 2895 N 271.97 1.30982 0.876444 0
M  V30 2896 C 273.219 1.19658 1.62373 0
M  V30 2897 C 273.532 -0.245636 1.94052 0
M  V30 2898 O 274.738 -0.48049 2.67214 0
M  V30 2899 C 273.194 2.09433 2.92687 0
M  V30 2900 C 272.802 3.58613 2.68516 0
M  V30 2901 C 274.546 2.06893 3.70669 0
M  V30 2902 C 272.453 4.40416 3.94699 0
M  V30 2903 H 271.383 0.444268 0.609214 0
M  V30 2904 H 274.034 1.55791 0.969605 0
M  V30 2905 H 272.416 1.66191 3.59439 0
M  V30 2906 H 273.59 4.10058 2.10212 0
M  V30 2907 H 271.905 3.63063 2.03898 0
M  V30 2908 H 274.502 2.65258 4.64265 0
M  V30 2909 H 274.845 1.05448 4.02724 0
M  V30 2910 H 275.378 2.48301 3.10792 0
M  V30 2911 H 272.117 5.42591 3.67798 0
M  V30 2912 H 271.637 3.93731 4.52477 0
M  V30 2913 H 273.316 4.52294 4.62644 0
M  V30 2914 N 273.449 -1.08991 1.13837 0
M  V30 2915 C 274.396 -2.15748 0.819835 0
M  V30 2916 C 275.366 -1.64636 -0.220026 0
M  V30 2917 O 276.551 -1.90582 -0.0912757 0
M  V30 2918 C 273.691 -3.4382 0.296913 0
M  V30 2919 C 272.804 -4.0881 1.39636 0
M  V30 2920 C 271.939 -5.24655 0.831314 0
M  V30 2921 C 270.978 -5.81575 1.90886 0
M  V30 2922 N 270.115 -6.88774 1.36142 0
M  V30 2923 H 274.955 -2.42338 1.73426 0
M  V30 2924 H 272.492 -1.18935 0.865613 0
M  V30 2925 H 274.45 -4.17193 -0.0244339 0
M  V30 2926 H 273.08 -3.17535 -0.580628 0
M  V30 2927 H 272.132 -3.33258 1.83422 0
M  V30 2928 H 273.444 -4.47141 2.21058 0
M  V30 2929 H 272.598 -6.04942 0.461515 0
M  V30 2930 H 271.337 -4.87698 -0.013932 0
M  V30 2931 H 270.342 -4.99946 2.28767 0
M  V30 2932 H 271.567 -6.20592 2.75758 0
M  V30 2933 H 269.513 -6.53788 0.538254 0
M  V30 2934 H 269.43 -7.25898 2.11208 0
M  V30 2935 H 270.698 -7.72806 1.01933 0
M  V30 2936 N 274.927 -0.932562 -1.27047 0
M  V30 2937 C 275.859 -0.392734 -2.2581 0
M  V30 2938 C 276.872 0.479241 -1.55586 0
M  V30 2939 O 278.061 0.291078 -1.76111 0
M  V30 2940 C 275.161 0.455456 -3.35826 0
M  V30 2941 C 274.334 -0.398355 -4.35582 0
M  V30 2942 C 273.393 0.387985 -5.24768 0
M  V30 2943 O 272.419 -0.206003 -5.68827 0
M  V30 2944 N 273.621 1.68664 -5.55457 0
M  V30 2945 H 276.386 -1.24173 -2.72766 0
M  V30 2946 H 273.947 -0.800511 -1.40725 0
M  V30 2947 H 275.939 0.988692 -3.92437 0
M  V30 2948 H 274.509 1.20522 -2.88432 0
M  V30 2949 H 273.729 -1.11286 -3.78165 0
M  V30 2950 H 275.017 -0.981889 -4.99236 0
M  V30 2951 H 274.415 2.19147 -5.21528 0
M  V30 2952 H 272.972 2.1663 -6.14748 0
M  V30 2953 N 276.405 1.4127 -0.698611 0
M  V30 2954 C 277.368 2.29158 -0.044132 0
M  V30 2955 C 278.368 1.44529 0.704841 0
M  V30 2956 O 279.558 1.65643 0.539276 0
M  V30 2957 C 276.69 3.27459 0.947809 0
M  V30 2958 H 277.883 2.88529 -0.817994 0
M  V30 2959 H 275.436 1.49307 -0.46228 0
M  V30 2960 H 276.171 2.73073 1.74933 0
M  V30 2961 H 275.956 3.8991 0.41385 0
M  V30 2962 H 277.446 3.93311 1.40344 0
M  V30 2963 N 277.883 0.443576 1.51229 0
M  V30 2964 C 279.16 -0.181038 1.9476 0
M  V30 2965 C 279.54 -1.59523 1.38259 0
M  V30 2966 O 278.888 -2.2122 0.572198 0
M  V30 2967 C 279.098 -0.152422 3.48667 0
M  V30 2968 C 280.446 -0.354923 4.23114 0
M  V30 2969 O 281.47 -0.230257 3.55455 0
M  V30 2970 O 280.329 -0.603674 5.43156 0
M  V30 2971 H 277.423 -0.1266 0.817252 0
M  V30 2972 H 279.969 0.502004 1.62105 0
M  V30 2973 H 278.741 0.836022 3.82265 0
M  V30 2974 H 278.364 -0.878107 3.87782 0
M  V30 2975 N 279.361 -1.56624 0.175154 0
M  V30 2976 C 280.591 -2.01082 -0.474283 0
M  V30 2977 C 280.999 -1.05447 -1.57091 0
M  V30 2978 O 280.342 -0.0480595 -1.83637 0
M  V30 2979 C 280.404 -3.41963 -1.10911 0
M  V30 2980 C 280.068 -4.56742 -0.153666 0
M  V30 2981 C 281.065 -5.16076 0.629448 0
M  V30 2982 C 278.75 -5.02277 -0.0483776 0
M  V30 2983 C 280.744 -6.19377 1.50501 0
M  V30 2984 C 278.431 -6.05427 0.830768 0
M  V30 2985 C 279.429 -6.63849 1.60605 0
M  V30 2986 O 279.117 -7.64998 2.47049 0
M  V30 2987 H 278.849 -0.664261 -0.125432 0
M  V30 2988 H 281.403 -2.03549 0.275163 0
M  V30 2989 H 279.633 -3.36422 -1.90676 0
M  V30 2990 H 281.322 -3.70352 -1.66114 0
M  V30 2991 H 282.088 -4.81776 0.558297 0
M  V30 2992 H 277.967 -4.56513 -0.641611 0
M  V30 2993 H 281.511 -6.64906 2.1106 0
M  V30 2994 H 277.408 -6.39151 0.903107 0
M  V30 2995 H 278.176 -7.82336 2.40607 0
M  V30 2996 N 280.839 0.0985539 -1.57292 0
M  V30 2997 C 282.085 0.803867 -1.86188 0
M  V30 2998 C 282.418 1.78549 -0.763794 0
M  V30 2999 O 281.693 1.93153 0.22855 0
M  V30 3000 C 281.976 1.53568 -3.25713 0
M  V30 3001 C 281.829 0.572277 -4.46145 0
M  V30 3002 C 283.148 2.48708 -3.63087 0
M  V30 3003 H 280.267 0.290781 -0.677211 0
M  V30 3004 H 282.909 0.0675783 -1.8988 0
M  V30 3005 H 281.059 2.16332 -3.22696 0
M  V30 3006 H 282.731 -0.0480894 -4.61275 0
M  V30 3007 H 280.974 -0.114618 -4.33649 0
M  V30 3008 H 281.645 1.12139 -5.40489 0
M  V30 3009 H 284.121 1.96039 -3.67026 0
M  V30 3010 H 282.997 2.96932 -4.61652 0
M  V30 3011 H 283.258 3.32309 -2.91588 0
M  V30 3012 N 282.317 1.53212 0.369288 0
M  V30 3013 C 283.728 1.60943 0.946276 0
M  V30 3014 C 284.079 0.47452 1.90375 0
M  V30 3015 O 283.204 -0.399597 2.12679 0
M  V30 3016 C 283.799 2.91715 1.72302 0
M  V30 3017 C 282.358 3.01792 2.24941 0
M  V30 3018 C 281.505 2.56211 1.06072 0
M  V30 3019 H 284.456 1.58007 0.148198 0
M  V30 3020 H 284.477 2.79309 2.58393 0
M  V30 3021 H 283.989 3.74295 1.0259 0
M  V30 3022 H 282.09 2.23791 2.97906 0
M  V30 3023 H 282.203 4.06803 2.53077 0
M  V30 3024 H 280.567 2.10998 1.4266 0
M  V30 3025 H 281.35 3.41206 0.378639 0
M  V30 3026 N 283.795 -0.628877 1.44509 0
M  V30 3027 C 285.02 -1.42048 1.5112 0
M  V30 3028 C 285.445 -1.87594 0.137818 0
M  V30 3029 O 284.803 -1.58873 -0.873437 0
M  V30 3030 C 284.851 -2.61541 2.48251 0
M  V30 3031 O 283.955 -3.61453 1.98559 0
M  V30 3032 H 283.296 -0.424942 0.510216 0
M  V30 3033 H 285.826 -0.767374 1.89664 0
M  V30 3034 H 285.836 -3.09057 2.66361 0
M  V30 3035 H 284.511 -2.27736 3.48007 0
M  V30 3036 H 283.088 -3.20731 1.90227 0
M  V30 3037 N 285.273 -1.31445 -0.869486 0
M  V30 3038 C 286.55 -1.11795 -1.60503 0
M  V30 3039 C 286.93 0.327168 -2.08549 0
M  V30 3040 O 286.278 1.32135 -1.8642 0
M  V30 3041 C 286.488 -2.13258 -2.76265 0
M  V30 3042 C 287.836 -2.45805 -3.46215 0
M  V30 3043 O 288.86 -2.11688 -2.86473 0
M  V30 3044 O 287.719 -3.04228 -4.5399 0
M  V30 3045 H 284.813 -0.430421 -0.706163 0
M  V30 3046 H 287.359 -1.42925 -0.914907 0
M  V30 3047 H 286.131 -3.10461 -2.3818 0
M  V30 3048 H 285.754 -1.83035 -3.52964 0
M  V30 3049 N 286.751 1.08385 -1.14413 0
M  V30 3050 C 287.683 2.1519 -0.789036 0
M  V30 3051 C 288.696 1.61638 0.19417 0
M  V30 3052 O 289.885 1.78479 -0.0275711 0
M  V30 3053 C 286.985 3.38565 -0.15058 0
M  V30 3054 C 286.158 4.21501 -1.16857 0
M  V30 3055 C 285.217 5.23277 -0.553832 0
M  V30 3056 O 284.243 5.56041 -1.21686 0
M  V30 3057 N 285.445 5.76629 0.669296 0
M  V30 3058 H 288.21 2.46257 -1.70814 0
M  V30 3059 H 285.771 1.24198 -1.03858 0
M  V30 3060 H 287.763 4.03777 0.273181 0
M  V30 3061 H 286.333 3.05299 0.671667 0
M  V30 3062 H 285.553 3.52265 -1.76926 0
M  V30 3063 H 286.841 4.73731 -1.85624 0
M  V30 3064 H 286.239 5.52243 1.22654 0
M  V30 3065 H 284.796 6.43521 1.03556 0
M  V30 3066 N 288.23 0.939286 1.26551 0
M  V30 3067 C 289.507 0.5038 1.89001 0
M  V30 3068 C 289.887 -1.01854 1.84903 0
M  V30 3069 O 289.235 -1.87773 1.30206 0
M  V30 3070 C 289.445 1.063 3.32417 0
M  V30 3071 C 290.793 1.13051 4.09273 0
M  V30 3072 O 291.817 1.01345 3.41479 0
M  V30 3073 O 290.676 1.31233 5.30509 0
M  V30 3074 H 287.77 0.163897 0.810597 0
M  V30 3075 H 290.316 1.03173 1.34735 0
M  V30 3076 H 289.088 2.10665 3.29752 0
M  V30 3077 H 288.711 0.517408 3.94219 0
M  V30 3078 N 289.708 -1.40897 0.706093 0
M  V30 3079 C 290.638 -2.33418 0.0620085 0
M  V30 3080 C 291.619 -1.52385 -0.755827 0
M  V30 3081 O 292.804 -1.80886 -0.706674 0
M  V30 3082 C 289.934 -3.36293 -0.867445 0
M  V30 3083 C 288.888 -4.27716 -0.155932 0
M  V30 3084 C 288.214 -5.2105 -1.20046 0
M  V30 3085 C 289.514 -5.12944 0.984149 0
M  V30 3086 H 291.208 -2.87527 0.83477 0
M  V30 3087 H 288.754 -1.38249 0.402875 0
M  V30 3088 H 290.707 -3.99949 -1.32735 0
M  V30 3089 H 289.431 -2.80556 -1.67199 0
M  V30 3090 H 288.09 -3.65498 0.284047 0
M  V30 3091 H 287.738 -4.61624 -1.99781 0
M  V30 3092 H 287.438 -5.83056 -0.729328 0
M  V30 3093 H 288.962 -5.87584 -1.66066 0
M  V30 3094 H 290.376 -5.70109 0.604048 0
M  V30 3095 H 288.773 -5.83945 1.38304 0
M  V30 3096 H 289.843 -4.49485 1.81911 0
M  V30 3097 N 291.186 -0.45159 -1.50991 0
M  V30 3098 C 292.116 0.342898 -2.30969 0
M  V30 3099 C 293.097 1.00815 -1.37005 0
M  V30 3100 O 294.282 1.00907 -1.65926 0
M  V30 3101 C 291.412 1.43637 -3.16205 0
M  V30 3102 C 290.366 0.893818 -4.18563 0
M  V30 3103 C 289.692 2.08411 -4.92411 0
M  V30 3104 C 290.992 -0.0815568 -5.22236 0
M  V30 3105 H 292.686 -0.324556 -2.97636 0
M  V30 3106 H 290.232 -0.157531 -1.43136 0
M  V30 3107 H 292.185 1.9995 -3.70942 0
M  V30 3108 H 290.909 2.13232 -2.47386 0
M  V30 3109 H 289.568 0.352798 -3.64898 0
M  V30 3110 H 289.216 2.76658 -4.20082 0
M  V30 3111 H 288.916 1.72741 -5.61636 0
M  V30 3112 H 290.44 2.65251 -5.49976 0
M  V30 3113 H 291.854 0.391742 -5.7196 0
M  V30 3114 H 290.251 -0.351551 -5.99069 0
M  V30 3115 H 291.321 -1.01374 -4.74185 0
M  V30 3116 N 292.664 1.56529 -0.183458 0
M  V30 3117 C 294.08 1.58664 0.172554 0
M  V30 3118 C 294.28 1.19925 1.61926 0
M  V30 3119 O 293.336 0.916534 2.35278 0
M  V30 3120 C 294.649 3.00463 -0.119262 0
M  V30 3121 C 296.197 3.12945 -0.0584396 0
M  V30 3122 C 296.672 4.56857 -0.323408 0
M  V30 3123 N 298.163 4.62403 -0.271612 0
M  V30 3124 C 298.898 5.71626 -0.450639 0
M  V30 3125 N 298.394 6.89362 -0.689384 0
M  V30 3126 N 300.187 5.60775 -0.385701 0
M  V30 3127 H 292.338 1.79994 -1.12765 0
M  V30 3128 H 294.601 0.834808 -0.449222 0
M  V30 3129 H 294.307 3.33326 -1.12192 0
M  V30 3130 H 294.181 3.72659 0.583544 0
M  V30 3131 H 296.568 2.79902 0.934805 0
M  V30 3132 H 296.649 2.4316 -0.794144 0
M  V30 3133 H 296.293 4.9061 -1.31392 0
M  V30 3134 H 296.223 5.24816 0.43305 0
M  V30 3135 H 298.714 3.77785 -0.0932256 0
M  V30 3136 H 299.027 7.68489 -0.815113 0
M  V30 3137 H 297.372 6.91196 -0.726142 0
M  V30 3138 H 300.563 4.67674 -0.199687 0
M  V30 3139 H 300.736 6.4584 -0.528646 0
M  V30 3140 N 294.142 -0.090211 1.57342 0
M  V30 3141 C 295.382 -0.798365 1.88163 0
M  V30 3142 C 295.746 -1.75662 0.775046 0
M  V30 3143 O 296.947 -2.50849 0.965816 0
M  V30 3144 C 295.218 -1.50376 3.24225 0
M  V30 3145 S 296.777 -2.24952 3.76752 0
M  V30 3146 H 293.595 -0.265883 0.659414 0
M  V30 3147 H 296.197 -0.055264 1.95422 0
M  V30 3148 H 294.901 -0.792286 4.0268 0
M  V30 3149 H 294.432 -2.28666 3.20118 0
M  V30 3150 H 296.447 -3.51173 3.5056 0
M  V30 3151 N 295.62 -1.53406 -0.361157 0
M  V30 3152 C 297.036 -1.43277 -0.703124 0
M  V30 3153 C 297.236 -0.575384 -1.9311 0
M  V30 3154 O 296.292 -0.0595362 -2.5243 0
M  V30 3155 C 297.605 -2.8653 -0.9122 0
M  V30 3156 C 299.153 -2.96191 -1.01193 0
M  V30 3157 C 299.628 -4.40514 -1.25345 0
M  V30 3158 N 301.119 -4.43962 -1.32105 0
M  V30 3159 C 301.854 -5.52746 -1.5251 0
M  V30 3160 N 301.35 -6.71567 -1.70203 0
M  V30 3161 N 303.143 -5.40331 -1.54916 0
M  V30 3162 H 295.294 -2.07654 0.446475 0
M  V30 3163 H 297.557 -0.937944 0.137715 0
M  V30 3164 H 297.263 -3.51605 -0.0816414 0
M  V30 3165 H 297.137 -3.30441 -1.81903 0
M  V30 3166 H 299.524 -2.31266 -1.83303 0
M  V30 3167 H 299.605 -2.55667 -0.0823929 0
M  V30 3168 H 299.249 -5.06014 -0.437346 0
M  V30 3169 H 299.179 -4.78614 -2.19627 0
M  V30 3170 H 301.67 -3.58332 -1.20028 0
M  V30 3171 H 301.983 -7.50241 -1.85359 0
M  V30 3172 H 300.328 -6.74545 -1.67373 0
M  V30 3173 H 303.519 -4.46465 -1.40663 0
M  V30 3174 H 303.692 -6.25173 -1.70477 0
M  V30 3175 N 297.098 0.621204 -1.44841 0
M  V30 3176 C 298.344 1.3826 -1.48365 0
M  V30 3177 C 298.677 1.93831 -0.119624 0
M  V30 3178 O 297.952 1.74251 0.864111 0
M  V30 3179 C 298.235 2.54058 -2.55199 0
M  V30 3180 C 298.088 2.03772 -4.00995 0
M  V30 3181 C 299.407 3.56225 -2.58442 0
M  V30 3182 H 296.526 0.501374 -0.540179 0
M  V30 3183 H 299.168 0.7015 -1.76576 0
M  V30 3184 H 297.318 3.12162 -2.31274 0
M  V30 3185 H 298.99 1.50423 -4.36086 0
M  V30 3186 H 297.233 1.34876 -4.12299 0
M  V30 3187 H 297.904 2.87185 -4.71411 0
M  V30 3188 H 300.38 3.07939 -2.79844 0
M  V30 3189 H 299.256 4.34756 -3.3508 0
M  V30 3190 H 299.517 4.10949 -1.63013 0
M  V30 3191 N 298.576 1.31904 0.862503 0
M  V30 3192 C 299.506 1.22782 1.98612 0
M  V30 3193 C 300.487 0.113362 1.69722 0
M  V30 3194 O 301.672 0.299218 1.91881 0
M  V30 3195 C 298.802 0.942058 3.34279 0
M  V30 3196 C 297.756 2.0169 3.77499 0
M  V30 3197 C 297.082 1.58369 5.10709 0
M  V30 3198 C 298.382 3.43096 3.93805 0
M  V30 3199 H 300.076 2.16788 2.06502 0
M  V30 3200 H 297.622 1.04366 0.992154 0
M  V30 3201 H 299.575 0.864818 4.1243 0
M  V30 3202 H 298.299 -0.0336603 3.26583 0
M  V30 3203 H 296.958 2.08416 3.01593 0
M  V30 3204 H 296.606 0.595628 4.99461 0
M  V30 3205 H 296.306 2.30279 5.40597 0
M  V30 3206 H 297.83 1.52067 5.91361 0
M  V30 3207 H 299.244 3.39003 4.62331 0
M  V30 3208 H 297.641 4.13288 4.35101 0
M  V30 3209 H 298.711 3.83334 2.96957 0
M  V30 3210 N 300.054 -1.07777 1.14986 0
M  V30 3211 C 301.282 -1.84018 0.945773 0
M  V30 3212 C 301.697 -1.81897 -0.505863 0
M  V30 3213 O 301.054 -1.22726 -1.35072 0
M  V30 3214 C 301.105 -3.31287 1.44677 0
M  V30 3215 O 300.826 -3.33449 2.84154 0
M  V30 3216 C 302.327 -4.24311 1.28355 0
M  V30 3217 H 299.547 -0.580716 0.336169 0
M  V30 3218 H 302.091 -1.36077 1.52654 0
M  V30 3219 H 300.246 -3.76594 0.908625 0
M  V30 3220 H 300.66 -4.25427 3.06777 0
M  V30 3221 H 302.134 -5.2573 1.68261 0
M  V30 3222 H 302.611 -4.38612 0.227184 0
M  V30 3223 H 303.217 -3.84836 1.81056 0
M  V30 3224 N 301.532 -0.945985 -1.26051 0
M  V30 3225 C 302.757 -0.612525 -1.98149 0
M  V30 3226 C 303.182 0.806623 -1.69927 0
M  V30 3227 O 302.54 1.54411 -0.950108 0
M  V30 3228 C 302.588 -0.866981 -3.50023 0
M  V30 3229 O 301.692 0.0585333 -4.12358 0
M  V30 3230 H 301.033 -0.23379 -0.621481 0
M  V30 3231 H 303.563 -1.27023 -1.60395 0
M  V30 3232 H 303.573 -0.789792 -4.00283 0
M  V30 3233 H 302.248 -1.90135 -3.69894 0
M  V30 3234 H 300.825 -0.0701241 -3.72834 0
M  V30 3235 N 303.011 1.40521 -0.713556 0
M  V30 3236 C 304.259 2.00527 -0.251692 0
M  V30 3237 C 304.58 1.56857 1.15848 0
M  V30 3238 O 303.85 0.807127 1.785 0
M  V30 3239 H 302.43 0.741551 -0.0900646 0
M  V30 3240 H 305.092 1.71887 -0.918733 0
M  V30 3241 H 304.188 3.10813 -0.283192 0
M  V30 3242 N 304.489 0.459591 1.5075 0
M  V30 3243 C 305.738 -0.100971 2.01447 0
M  V30 3244 C 306.051 -1.41816 1.34713 0
M  V30 3245 O 307.257 -2.06299 1.76502 0
M  V30 3246 C 305.713 -0.23047 3.59161 0
M  V30 3247 C 305.321 1.0776 4.34847 0
M  V30 3248 C 307.065 -0.743608 4.17936 0
M  V30 3249 C 304.972 0.91253 5.84317 0
M  V30 3250 H 303.902 -0.0415102 0.752856 0
M  V30 3251 H 306.553 0.592742 1.73663 0
M  V30 3252 H 304.935 -0.987703 3.83485 0
M  V30 3253 H 306.109 1.8449 4.22256 0
M  V30 3254 H 304.424 1.52097 3.87628 0
M  V30 3255 H 307.021 -0.883959 5.27343 0
M  V30 3256 H 307.364 -1.73196 3.78562 0
M  V30 3257 H 307.897 -0.04408 3.97776 0
M  V30 3258 H 304.636 1.87391 6.28144 0
M  V30 3259 H 304.156 0.185422 5.99513 0
M  V30 3260 H 305.835 0.574547 6.44444 0
M  V30 3261 N 305.967 -1.56429 0.191757 0
M  V30 3262 C 307.214 -1.97485 -0.447891 0
M  V30 3263 C 307.542 -1.07852 -1.61859 0
M  V30 3264 O 306.797 -0.116903 -1.95351 0
M  V30 3265 C 307.096 -3.44449 -0.953384 0
M  V30 3266 C 306.762 -4.50781 0.103586 0
M  V30 3267 C 305.424 -4.79584 0.394023 0
M  V30 3268 C 307.776 -5.1471 0.819946 0
M  V30 3269 C 305.104 -5.69607 1.40585 0
M  V30 3270 C 307.456 -6.05827 1.8209 0
M  V30 3271 C 306.12 -6.32987 2.11857 0
M  V30 3272 H 305.39 -0.722648 -0.163895 0
M  V30 3273 H 308.037 -1.89322 0.28802 0
M  V30 3274 H 306.342 -3.49666 -1.76751 0
M  V30 3275 H 308.039 -3.73569 -1.45765 0
M  V30 3276 H 304.629 -4.28394 -0.132951 0
M  V30 3277 H 308.813 -4.92552 0.608789 0
M  V30 3278 H 304.069 -5.88926 1.64243 0
M  V30 3279 H 308.243 -6.54424 2.38123 0
M  V30 3280 H 305.87 -7.02544 2.90407 0
M  V30 3281 N 307.445 0.0818655 -1.57387 0
M  V30 3282 C 308.355 1.11642 -2.06333 0
M  V30 3283 C 309.371 1.43033 -0.99083 0
M  V30 3284 O 310.547 1.53411 -1.30488 0
M  V30 3285 C 307.612 2.41342 -2.48907 0
M  V30 3286 C 306.673 2.17014 -3.7041 0
M  V30 3287 C 305.906 3.4053 -4.10944 0
M  V30 3288 O 306.129 4.4927 -3.51444 0
M  V30 3289 O 305.063 3.29336 -5.03807 0
M  V30 3290 H 308.889 0.730657 -2.9478 0
M  V30 3291 H 306.474 0.295301 -1.46452 0
M  V30 3292 H 308.356 3.17691 -2.76858 0
M  V30 3293 H 307.031 2.79319 -1.63593 0
M  V30 3294 H 305.938 1.38403 -3.47556 0
M  V30 3295 H 307.271 1.83923 -4.56545 0
M  V30 3296 N 308.923 1.53595 0.353017 0
M  V30 3297 C 310.151 1.74311 1.1146 0
M  V30 3298 C 310.566 0.477854 1.82653 0
M  V30 3299 O 309.923 -0.549977 1.74016 0
M  V30 3300 C 309.974 2.91694 2.13534 0
M  V30 3301 O 309.695 4.13325 1.45238 0
M  V30 3302 C 311.196 3.24384 3.02142 0
M  V30 3303 H 308.416 0.582669 0.332773 0
M  V30 3304 H 310.96 2.00386 0.408107 0
M  V30 3305 H 309.115 2.67977 2.79763 0
M  V30 3306 H 309.529 4.79148 2.13349 0
M  V30 3307 H 311.003 4.09893 3.69718 0
M  V30 3308 H 311.48 2.40282 3.67643 0
M  V30 3309 H 312.086 3.50073 2.41514 0
M  V30 3310 N 310.401 -0.613514 1.45168 0
M  V30 3311 C 311.348 -1.72456 1.53387 0
M  V30 3312 C 312.318 -1.6169 0.380191 0
M  V30 3313 O 313.503 -1.81356 0.592836 0
M  V30 3314 C 310.643 -3.10753 1.50088 0
M  V30 3315 C 309.756 -3.32368 2.75963 0
M  V30 3316 C 308.891 -4.60737 2.64376 0
M  V30 3317 C 307.93 -4.7559 3.85332 0
M  V30 3318 N 307.067 -5.95253 3.72315 0
M  V30 3319 H 311.907 -1.64768 2.48305 0
M  V30 3320 H 309.444 -0.803503 1.23216 0
M  V30 3321 H 311.402 -3.90758 1.46164 0
M  V30 3322 H 310.032 -3.17413 0.587243 0
M  V30 3323 H 309.084 -2.4618 2.89999 0
M  V30 3324 H 310.396 -3.39218 3.65695 0
M  V30 3325 H 309.55 -5.48928 2.58385 0
M  V30 3326 H 308.289 -4.56275 1.72233 0
M  V30 3327 H 307.294 -3.85824 3.91688 0
M  V30 3328 H 308.519 -4.81854 4.78533 0
M  V30 3329 H 306.465 -5.91847 2.82937 0
M  V30 3330 H 306.382 -6.03236 4.55677 0
M  V30 3331 H 307.65 -6.85958 3.70246 0
M  V30 3332 N 311.879 -1.3236 -0.855495 0
M  V30 3333 C 313.126 -1.22872 -1.60962 0
M  V30 3334 C 313.454 0.209658 -1.93367 0
M  V30 3335 O 312.709 1.16243 -1.57436 0
M  V30 3336 C 313.008 -2.03275 -2.93963 0
M  V30 3337 C 312.674 -3.5264 -2.80991 0
M  V30 3338 C 311.336 -3.93364 -2.7716 0
M  V30 3339 C 313.688 -4.47626 -2.66983 0
M  V30 3340 C 311.016 -5.27319 -2.572 0
M  V30 3341 C 313.368 -5.81723 -2.48558 0
M  V30 3342 C 312.032 -6.2165 -2.4312 0
M  V30 3343 H 311.302 -0.44962 -0.589001 0
M  V30 3344 H 313.949 -1.63777 -0.992442 0
M  V30 3345 H 312.254 -1.55095 -3.59795 0
M  V30 3346 H 313.951 -1.93303 -3.51333 0
M  V30 3347 H 310.541 -3.20295 -2.84797 0
M  V30 3348 H 314.725 -4.17084 -2.68988 0
M  V30 3349 H 309.981 -5.57311 -2.51424 0
M  V30 3350 H 314.155 -6.5494 -2.36699 0
M  V30 3351 H 311.782 -7.25388 -2.27412 0
M  V30 3352 N 313.357 1.07166 -1.15556 0
M  V30 3353 C 314.289 2.14341 -0.811815 0
M  V30 3354 C 315.302 1.61835 0.177015 0
M  V30 3355 O 316.491 1.78439 -0.0464996 0
M  V30 3356 C 313.591 3.38387 -0.186481 0
M  V30 3357 C 312.764 4.20238 -1.21321 0
M  V30 3358 C 311.823 5.2266 -0.609302 0
M  V30 3359 O 310.849 5.54719 -1.27576 0
M  V30 3360 N 312.051 5.77306 0.608099 0
M  V30 3361 H 314.816 2.44431 -1.73417 0
M  V30 3362 H 312.377 1.23089 -1.0517 0
M  V30 3363 H 314.369 4.04044 0.230339 0
M  V30 3364 H 312.939 3.05994 0.639249 0
M  V30 3365 H 312.159 3.50369 -1.80652 0
M  V30 3366 H 313.447 4.71736 -1.90638 0
M  V30 3367 H 312.845 5.53513 1.1679 0
M  V30 3368 H 311.402 6.44583 0.96725 0
M  V30 3369 N 314.835 0.952656 1.25548 0
M  V30 3370 C 316.081 0.607272 1.93494 0
M  V30 3371 C 316.414 -0.853245 1.74452 0
M  V30 3372 O 315.689 -1.61194 1.08843 0
M  V30 3373 C 315.972 0.96435 3.46947 0
M  V30 3374 C 315.825 2.48045 3.75225 0
M  V30 3375 C 317.144 0.487987 4.37386 0
M  V30 3376 H 314.263 0.222096 0.702739 0
M  V30 3377 H 316.905 1.18895 1.48203 0
M  V30 3378 H 315.055 0.469361 3.85654 0
M  V30 3379 H 316.727 3.04905 3.46166 0
M  V30 3380 H 314.97 2.919 3.209 0
M  V30 3381 H 315.641 2.6808 4.82532 0
M  V30 3382 H 318.117 0.912558 4.0597 0
M  V30 3383 H 316.993 0.766547 5.43521 0
M  V30 3384 H 317.254 -0.612063 4.37843 0
M  V30 3385 N 316.313 -1.40141 0.720998 0
M  V30 3386 C 317.59 -1.94677 0.189757 0
M  V30 3387 C 317.97 -1.65879 -1.30566 0
M  V30 3388 O 317.318 -0.979391 -2.06447 0
M  V30 3389 C 317.528 -3.45279 0.508304 0
M  V30 3390 C 318.876 -4.22209 0.449934 0
M  V30 3391 O 319.9 -3.53413 0.444677 0
M  V30 3392 O 318.759 -5.44788 0.432189 0
M  V30 3393 H 315.853 -0.826459 0.0299026 0
M  V30 3394 H 318.399 -1.49719 0.7989 0
M  V30 3395 H 317.171 -3.59619 1.54239 0
M  V30 3396 H 316.794 -3.97386 -0.130525 0
M  V30 3397 N 317.792 -0.46758 -1.50504 0
M  V30 3398 C 318.739 0.328413 -2.28452 0
M  V30 3399 C 319.709 0.990313 -1.33349 0
M  V30 3400 O 320.894 1.00343 -1.62284 0
M  V30 3401 C 318.034 1.40648 -3.15138 0
M  V30 3402 C 317.147 0.759709 -4.25267 0
M  V30 3403 C 316.282 1.81537 -4.99217 0
M  V30 3404 C 315.321 1.14866 -6.01226 0
M  V30 3405 N 314.458 2.14702 -6.68467 0
M  V30 3406 H 319.298 -0.342603 -2.96024 0
M  V30 3407 H 316.835 -0.180801 -1.45985 0
M  V30 3408 H 318.793 2.04315 -3.63746 0
M  V30 3409 H 317.423 2.04671 -2.49619 0
M  V30 3410 H 316.475 0.0105671 -3.80399 0
M  V30 3411 H 317.787 0.233243 -4.98254 0
M  V30 3412 H 316.941 2.52793 -5.51526 0
M  V30 3413 H 315.68 2.37564 -4.25928 0
M  V30 3414 H 314.685 0.42171 -5.4818 0
M  V30 3415 H 315.91 0.595334 -6.76485 0
M  V30 3416 H 313.856 2.69752 -5.97972 0
M  V30 3417 H 313.773 1.6703 -7.37317 0
M  V30 3418 H 315.041 2.85348 -7.25394 0
M  V30 3419 N 319.27 1.56325 -0.20005 0
M  V30 3420 C 320.516 1.98012 0.438059 0
M  V30 3421 C 320.849 1.08702 1.60927 0
M  V30 3422 O 320.124 0.140064 1.93995 0
M  V30 3423 C 320.407 3.48841 0.893419 0
M  V30 3424 C 320.26 4.48928 -0.279947 0
M  V30 3425 C 321.579 4.03498 1.75719 0
M  V30 3426 H 318.698 0.719918 0.157757 0
M  V30 3427 H 321.34 1.87743 -0.291968 0
M  V30 3428 H 319.49 3.57723 1.51547 0
M  V30 3429 H 321.162 4.52079 -0.91772 0
M  V30 3430 H 319.405 4.23694 -0.930919 0
M  V30 3431 H 320.076 5.5194 0.0812601 0
M  V30 3432 H 322.552 3.97427 1.23253 0
M  V30 3433 H 321.428 5.09393 2.04476 0
M  V30 3434 H 321.689 3.4906 2.71311 0
M  V30 3435 N 320.748 -0.0735177 1.57428 0
M  V30 3436 C 321.696 -1.10628 2.04607 0
M  V30 3437 C 322.69 -1.40181 0.951088 0
M  V30 3438 O 323.896 -1.39608 1.1362 0
M  V30 3439 H 320.271 -0.374088 0.652351 0
M  V30 3440 H 322.242 -0.682218 2.90497 0
M  V30 3441 C 320.991 -2.41212 2.50423 0
M  V30 3442 H 320.314 -2.19322 3.34272 0
M  V30 3443 H 321.754 -3.11927 2.87189 0
M  V30 3444 C 320.213 -3.0705 1.38644 0
M  V30 3445 O 320.743 -3.95056 0.727582 0
M  V30 3446 N 318.949 -2.67645 1.132 0
M  V30 3447 H 318.496 -1.96169 1.66959 0
M  V30 3448 H 318.454 -3.1202 0.386147 0
M  V30 3449 N 322.226 -1.5378 -0.344866 0
M  V30 3450 C 323.473 -1.70963 -1.08526 0
M  V30 3451 C 323.801 -0.472126 -1.88683 0
M  V30 3452 O 323.056 0.546116 -1.87926 0
M  V30 3453 C 323.355 -2.92407 -2.05506 0
M  V30 3454 C 323.021 -4.28066 -1.41671 0
M  V30 3455 C 321.683 -4.64951 -1.2399 0
M  V30 3456 C 324.035 -5.12344 -0.956726 0
M  V30 3457 C 321.363 -5.83733 -0.589277 0
M  V30 3458 C 323.715 -6.3179 -0.320015 0
M  V30 3459 C 322.379 -6.67372 -0.130881 0
M  V30 3460 H 321.649 -0.625598 -0.397124 0
M  V30 3461 H 324.296 -1.87995 -0.36469 0
M  V30 3462 H 322.601 -2.69973 -2.8394 0
M  V30 3463 H 324.298 -3.02895 -2.62784 0
M  V30 3464 H 320.888 -3.99034 -1.56429 0
M  V30 3465 H 325.072 -4.8438 -1.08118 0
M  V30 3466 H 320.328 -6.09877 -0.431344 0
M  V30 3467 H 324.502 -6.96386 0.0445072 0
M  V30 3468 H 322.129 -7.59273 0.375318 0
M  V30 3469 N 323.704 0.605807 -1.45491 0
M  V30 3470 C 324.654 1.71074 -1.50724 0
M  V30 3471 C 325.638 1.5658 -0.37033 0
M  V30 3472 O 326.83 1.65887 -0.617299 0
M  V30 3473 C 323.959 3.0983 -1.47852 0
M  V30 3474 C 323.045 3.29704 -2.66751 0
M  V30 3475 N 323.436 3.19831 -3.91844 0
M  V30 3476 C 321.734 3.60579 -2.62486 0
M  V30 3477 C 322.435 3.41083 -4.71208 0
M  V30 3478 N 321.411 3.65157 -4.02693 0
M  V30 3479 H 325.213 1.61937 -2.45263 0
M  V30 3480 H 322.727 0.80912 -1.40808 0
M  V30 3481 H 324.724 3.89101 -1.49686 0
M  V30 3482 H 323.384 3.20115 -0.543714 0
M  V30 3483 H 324.395 2.98194 -4.23439 0
M  V30 3484 H 321.072 3.7769 -1.77922 0
M  V30 3485 H 322.462 3.38828 -5.80211 0
M  V30 3486 N 325.182 1.32811 0.848464 0
M  V30 3487 C 326.115 1.16601 1.96162 0
M  V30 3488 C 327.093 0.0638855 1.62474 0
M  V30 3489 O 328.277 0.224348 1.8716 0
M  V30 3490 C 325.404 0.786333 3.29446 0
M  V30 3491 C 324.45 1.89459 3.8211 0
M  V30 3492 S 325.283 3.50395 4.04949 0
M  V30 3493 C 326.439 3.14413 5.41198 0
M  V30 3494 H 326.672 2.10832 2.09612 0
M  V30 3495 H 324.205 1.17543 1.00115 0
M  V30 3496 H 326.163 0.574044 4.06466 0
M  V30 3497 H 324.824 -0.137218 3.138 0
M  V30 3498 H 324.017 1.58207 4.78526 0
M  V30 3499 H 323.619 2.06304 3.11953 0
M  V30 3500 H 325.911 2.64642 6.23675 0
M  V30 3501 H 326.854 4.09874 5.77416 0
M  V30 3502 H 327.262 2.51266 5.05495 0
M  V30 3503 N 326.66 -1.06551 1.16123 0
M  V30 3504 C 327.907 -1.79302 0.941126 0
M  V30 3505 C 328.235 -1.87105 -0.531235 0
M  V30 3506 O 327.49 -1.35692 -1.41018 0
M  V30 3507 C 327.789 -3.23911 1.51052 0
M  V30 3508 C 327.455 -3.36193 3.00475 0
M  V30 3509 C 326.117 -3.39252 3.41265 0
M  V30 3510 C 328.469 -3.38326 3.96465 0
M  V30 3511 C 325.797 -3.42057 4.76669 0
M  V30 3512 C 328.149 -3.4267 5.31752 0
M  V30 3513 C 326.813 -3.4401 5.72026 0
M  V30 3514 H 326.083 -0.656111 0.344382 0
M  V30 3515 H 328.73 -1.25325 1.44796 0
M  V30 3516 H 327.035 -3.80723 0.925063 0
M  V30 3517 H 328.732 -3.78793 1.31593 0
M  V30 3518 H 325.322 -3.34516 2.6795 0
M  V30 3519 H 329.506 -3.35176 3.6602 0
M  V30 3520 H 324.762 -3.41398 5.07206 0
M  V30 3521 H 328.936 -3.43268 6.05921 0
M  V30 3522 H 326.563 -3.45937 6.76928 0
M  V30 3523 N 328.138 -0.959301 -1.25041 0
M  V30 3524 C 329.415 -0.533805 -1.88175 0
M  V30 3525 C 329.795 0.988994 -1.865 0
M  V30 3526 O 329.143 1.85677 -1.33177 0
M  V30 3527 C 329.353 -1.11575 -3.30684 0
M  V30 3528 C 330.701 -1.19548 -4.07423 0
M  V30 3529 O 331.725 -1.06765 -3.39823 0
M  V30 3530 O 330.584 -1.39656 -5.28354 0
M  V30 3531 H 327.678 -0.176772 -0.807887 0
M  V30 3532 H 330.224 -1.05303 -1.33076 0
M  V30 3533 H 328.996 -2.15884 -3.26358 0
M  V30 3534 H 328.619 -0.580059 -3.93346 0
M  V30 3535 N 329.616 1.39756 -0.72842 0
M  V30 3536 C 330.862 2.00942 -0.273892 0
M  V30 3537 C 331.195 1.57656 1.13394 0
M  V30 3538 O 330.47 0.802434 1.77176 0
M  V30 3539 C 330.753 3.58211 -0.368346 0
M  V30 3540 C 330.606 4.11534 -1.81548 0
M  V30 3541 C 331.925 4.39372 0.253054 0
M  V30 3542 H 329.044 0.730047 -0.100996 0
M  V30 3543 H 331.686 1.66056 -0.923337 0
M  V30 3544 H 329.836 3.88061 0.184588 0
M  V30 3545 H 331.508 3.92431 -2.42478 0
M  V30 3546 H 329.751 3.65341 -2.33898 0
M  V30 3547 H 330.422 5.20682 -1.83288 0
M  V30 3548 H 332.898 4.15527 -0.218224 0
M  V30 3549 H 331.774 5.48677 0.156585 0
M  V30 3550 H 332.035 4.21358 1.33826 0
M  V30 3551 N 331.094 0.475555 1.50254 0
M  V30 3552 C 332.342 -0.077738 2.0195 0
M  V30 3553 C 332.663 -1.39813 1.35931 0
M  V30 3554 O 331.933 -1.89249 0.506123 0
M  V30 3555 H 330.513 -0.031719 0.746326 0
M  V30 3556 H 333.175 0.626995 1.84539 0
M  V30 3557 H 332.271 -0.225995 3.11281 0
M  V30 3558 N 332.573 -1.56217 0.208337 0
M  V30 3559 C 333.821 -1.97558 -0.426076 0
M  V30 3560 C 334.142 -1.09683 -1.61229 0
M  V30 3561 O 333.412 -0.170956 -1.95153 0
M  V30 3562 H 331.992 -0.729575 -0.160405 0
M  V30 3563 H 334.654 -1.92606 0.298155 0
M  V30 3564 H 333.75 -3.02672 -0.761312 0
M  V30 3565 N 334.051 0.0651679 -1.57465 0
M  V30 3566 C 334.983 1.10359 -2.00882 0
M  V30 3567 C 335.996 1.346 -0.915788 0
M  V30 3568 O 337.185 1.32723 -1.1936 0
M  V30 3569 C 334.285 2.45312 -2.33828 0
M  V30 3570 C 333.458 2.40934 -3.65061 0
M  V30 3571 C 332.517 3.58047 -3.85602 0
M  V30 3572 O 331.543 3.39175 -4.57109 0
M  V30 3573 N 332.745 4.78637 -3.28462 0
M  V30 3574 H 335.51 0.733807 -2.90578 0
M  V30 3575 H 333.071 0.253719 -1.599 0
M  V30 3576 H 335.063 3.22314 -2.44737 0
M  V30 3577 H 333.633 2.74267 -1.49988 0
M  V30 3578 H 332.853 1.49273 -3.64844 0
M  V30 3579 H 334.141 2.35117 -4.51218 0
M  V30 3580 H 333.539 4.96872 -2.70433 0
M  V30 3581 H 332.096 5.53127 -3.44809 0
M  V30 3582 N 335.529 1.53961 0.336706 0
M  V30 3583 C 336.945 1.44378 0.680241 0
M  V30 3584 C 337.145 0.606034 1.9217 0
M  V30 3585 O 336.201 0.099688 2.52303 0
M  V30 3586 C 337.514 2.87945 0.8665 0
M  V30 3587 C 339.062 2.97763 0.964682 0
M  V30 3588 C 339.537 4.42453 1.18321 0
M  V30 3589 N 341.028 4.46008 1.25025 0
M  V30 3590 C 341.763 5.55102 1.43697 0
M  V30 3591 N 341.259 6.7419 1.59498 0
M  V30 3592 N 343.052 5.42727 1.463 0
M  V30 3593 H 335.203 2.06918 -0.479455 0
M  V30 3594 H 337.466 0.935634 -0.152619 0
M  V30 3595 H 337.172 3.51691 0.0256937 0
M  V30 3596 H 337.046 3.33293 1.76623 0
M  V30 3597 H 339.433 2.34153 1.796 0
M  V30 3598 H 339.514 2.55766 0.041708 0
M  V30 3599 H 339.158 5.06645 0.356788 0
M  V30 3600 H 339.088 4.82048 2.11985 0
M  V30 3601 H 341.579 3.60196 1.14312 0
M  V30 3602 H 341.892 7.53095 1.734 0
M  V30 3603 H 340.237 6.77123 1.56621 0
M  V30 3604 H 343.428 4.48647 1.33543 0
M  V30 3605 H 343.601 6.27806 1.6051 0
M  V30 3606 N 337.007 -0.598083 1.45811 0
M  V30 3607 C 338.284 -1.35777 1.40797 0
M  V30 3608 C 338.664 -2.10935 0.083462 0
M  V30 3609 O 338.012 -2.08505 -0.934763 0
M  V30 3610 C 338.222 -2.29666 2.62783 0
M  V30 3611 C 339.57 -2.91977 3.08277 0
M  V30 3612 O 340.594 -2.39984 2.63223 0
M  V30 3613 O 339.453 -3.86376 3.86491 0
M  V30 3614 H 336.547 -0.609291 0.55919 0
M  V30 3615 H 339.093 -0.620379 1.57954 0
M  V30 3616 H 337.865 -1.73454 3.50756 0
M  V30 3617 H 337.488 -3.1077 2.48008 0
M  V30 3618 N 338.485 -1.33259 -0.841409 0
M  V30 3619 C 339.395 -1.25332 -1.98316 0
M  V30 3620 C 340.411 -0.164364 -1.73222 0
M  V30 3621 O 341.587 -0.387486 -1.97637 0
M  V30 3622 C 338.652 -0.990078 -3.32262 0
M  V30 3623 C 337.713 -2.16879 -3.70489 0
M  V30 3624 C 336.946 -1.91801 -4.98044 0
M  V30 3625 O 337.169 -0.867075 -5.63771 0
M  V30 3626 O 336.103 -2.78267 -5.33714 0
M  V30 3627 H 339.929 -2.21344 -2.07944 0
M  V30 3628 H 337.514 -1.1328 -0.974058 0
M  V30 3629 H 339.396 -0.860321 -4.12524 0
M  V30 3630 H 338.071 -0.0602155 -3.23644 0
M  V30 3631 H 336.978 -2.35407 -2.90748 0
M  V30 3632 H 338.311 -3.0819 -3.8377 0
M  V30 3633 N 339.963 1.05934 -1.16686 0
M  V30 3634 C 341.379 1.30938 -0.912542 0
M  V30 3635 C 341.579 1.96803 0.432533 0
M  V30 3636 O 340.635 2.23693 1.17123 0
M  V30 3637 C 341.948 2.18649 -2.06429 0
M  V30 3638 C 343.496 2.32055 -2.10047 0
M  V30 3639 C 343.971 3.23122 -3.24586 0
M  V30 3640 N 345.462 3.30706 -3.24327 0
M  V30 3641 C 346.197 4.01273 -4.09594 0
M  V30 3642 N 345.693 4.74332 -5.04956 0
M  V30 3643 N 347.486 3.97361 -3.97569 0
M  V30 3644 H 339.637 0.615777 -2.03278 0
M  V30 3645 H 341.9 0.334077 -0.887185 0
M  V30 3646 H 341.606 1.77534 -3.03603 0
M  V30 3647 H 341.48 3.19252 -2.00894 0
M  V30 3648 H 343.867 2.72415 -1.13464 0
M  V30 3649 H 343.948 1.31107 -2.19647 0
M  V30 3650 H 343.592 2.83477 -4.2143 0
M  V30 3651 H 343.522 4.24057 -3.12223 0
M  V30 3652 H 346.013 2.78644 -2.55276 0
M  V30 3653 H 346.326 5.25716 -5.6643 0
M  V30 3654 H 344.671 4.733 -5.08933 0
M  V30 3655 H 347.862 3.39405 -3.22369 0
M  V30 3656 H 348.035 4.52089 -4.64241 0
M  V30 3657 N 341.441 0.965919 1.2453 0
M  V30 3658 C 342.857 0.67216 1.44756 0
M  V30 3659 C 343.057 -0.766609 1.86347 0
M  V30 3660 O 342.113 -1.5407 2.00047 0
M  V30 3661 C 343.426 1.65473 2.51076 0
M  V30 3662 C 344.974 1.66716 2.64905 0
M  V30 3663 C 345.449 2.63766 3.74421 0
M  V30 3664 N 346.94 2.62198 3.81846 0
M  V30 3665 C 347.675 3.33966 4.66106 0
M  V30 3666 N 347.171 4.15245 5.54566 0
M  V30 3667 N 348.964 3.22799 4.60171 0
M  V30 3668 H 341.115 1.89553 0.958293 0
M  V30 3669 H 343.378 0.815979 0.482579 0
M  V30 3670 H 343.084 2.68296 2.27399 0
M  V30 3671 H 342.958 1.4261 3.49202 0
M  V30 3672 H 345.345 0.646057 2.87941 0
M  V30 3673 H 345.426 1.93642 1.67142 0
M  V30 3674 H 345.07 3.6601 3.52135 0
M  V30 3675 H 345 2.34121 4.71694 0
M  V30 3676 H 347.491 2.032 3.18619 0
M  V30 3677 H 347.804 4.66898 6.15814 0
M  V30 3678 H 346.149 4.1934 5.54237 0
M  V30 3679 H 349.34 2.58764 3.90075 0
M  V30 3680 H 349.513 3.78994 5.25612 0
M  V30 3681 N 342.919 -1.39368 0.735821 0
M  V30 3682 C 343.866 -2.30599 0.0963825 0
M  V30 3683 C 344.836 -1.49257 -0.728794 0
M  V30 3684 O 346.021 -1.77941 -0.688588 0
M  V30 3685 C 343.161 -3.35596 -0.804305 0
M  V30 3686 C 342.274 -4.31987 0.0335761 0
M  V30 3687 C 341.409 -5.24053 -0.868461 0
M  V30 3688 C 340.448 -6.12095 -0.0258776 0
M  V30 3689 N 339.585 -6.96514 -0.883893 0
M  V30 3690 H 344.425 -2.8471 0.880002 0
M  V30 3691 H 341.962 -1.40188 0.445619 0
M  V30 3692 H 343.92 -3.95062 -1.34096 0
M  V30 3693 H 342.55 -2.82938 -1.55389 0
M  V30 3694 H 341.602 -3.74133 0.68766 0
M  V30 3695 H 342.914 -4.94074 0.685036 0
M  V30 3696 H 342.068 -5.88549 -1.47293 0
M  V30 3697 H 340.807 -4.62289 -1.5537 0
M  V30 3698 H 339.812 -5.4661 0.591386 0
M  V30 3699 H 341.037 -6.75923 0.656156 0
M  V30 3700 H 338.983 -6.37318 -1.55441 0
M  V30 3701 H 338.9 -7.55448 -0.288931 0
M  V30 3702 H 340.168 -7.65439 -1.4739 0
M  V30 3703 N 344.397 -0.483516 -1.5 0
M  V30 3704 C 345.643 0.0593261 -2.03313 0
M  V30 3705 C 345.998 1.36288 -1.35806 0
M  V30 3706 O 345.291 1.85519 -0.478897 0
M  V30 3707 C 345.485 0.286226 -3.56252 0
M  V30 3708 C 345.314 -0.993788 -4.38582 0
M  V30 3709 C 344.084 -1.54064 -4.81241 0
M  V30 3710 C 346.282 -1.89249 -4.78215 0
M  V30 3711 N 344.264 -2.76838 -5.47936 0
M  V30 3712 C 345.635 -2.96606 -5.44449 0
M  V30 3713 C 347.69 -1.90138 -4.60165 0
M  V30 3714 C 346.393 -4.04857 -5.94544 0
M  V30 3715 C 348.419 -2.97353 -5.1121 0
M  V30 3716 C 347.781 -4.03429 -5.77429 0
M  V30 3717 H 343.88 -0.0186322 -0.781778 0
M  V30 3718 H 346.464 -0.654489 -1.8337 0
M  V30 3719 H 344.635 0.969086 -3.76116 0
M  V30 3720 H 346.367 0.824515 -3.96212 0
M  V30 3721 H 343.122 -1.08813 -4.6093 0
M  V30 3722 H 343.546 -3.39221 -5.85882 0
M  V30 3723 H 348.188 -1.09441 -4.0839 0
M  V30 3724 H 345.906 -4.86363 -6.4535 0
M  V30 3725 H 349.492 -2.99039 -4.99066 0
M  V30 3726 H 348.372 -4.85025 -6.16214 0
M  V30 3727 N 345.875 1.56104 -0.216619 0
M  V30 3728 C 347.124 1.97348 0.416744 0
M  V30 3729 C 347.437 1.10715 1.6125 0
M  V30 3730 O 348.643 1.41836 2.31506 0
M  V30 3731 C 347.099 3.51059 0.792835 0
M  V30 3732 C 346.707 4.46387 -0.379828 0
M  V30 3733 C 348.451 4.01026 1.39208 0
M  V30 3734 C 346.358 5.91397 0.0184223 0
M  V30 3735 H 345.288 0.736942 0.159475 0
M  V30 3736 H 347.939 1.80827 -0.31205 0
M  V30 3737 H 346.321 3.63162 1.57891 0
M  V30 3738 H 347.495 4.46029 -1.15737 0
M  V30 3739 H 345.81 4.06734 -0.891979 0
M  V30 3740 H 348.407 5.0686 1.70286 0
M  V30 3741 H 348.75 3.46587 2.30614 0
M  V30 3742 H 349.283 3.92125 0.669537 0
M  V30 3743 H 346.022 6.49807 -0.862002 0
M  V30 3744 H 345.542 5.94961 0.760384 0
M  V30 3745 H 347.221 6.45455 0.446818 0
M  V30 3746 N 347.353 -0.0568162 1.57498 0
M  V30 3747 C 348.285 -1.09292 2.01464 0
M  V30 3748 C 349.298 -1.34112 0.922913 0
M  V30 3749 O 350.487 -1.32089 1.20062 0
M  V30 3750 C 347.587 -2.44068 2.35125 0
M  V30 3751 C 346.76 -2.38995 3.66333 0
M  V30 3752 C 345.819 -3.55997 3.87495 0
M  V30 3753 O 344.845 -3.36746 4.58901 0
M  V30 3754 N 346.047 -4.76888 3.30996 0
M  V30 3755 H 348.812 -0.718386 2.90963 0
M  V30 3756 H 346.373 -0.245235 1.60032 0
M  V30 3757 H 348.365 -3.21011 2.46443 0
M  V30 3758 H 346.935 -2.73468 1.5144 0
M  V30 3759 H 346.155 -1.47336 3.65631 0
M  V30 3760 H 347.443 -2.3272 4.52458 0
M  V30 3761 H 346.841 -4.95431 2.73065 0
M  V30 3762 H 345.398 -5.51291 3.47738 0
M  V30 3763 N 348.832 -1.54138 -0.328536 0
M  V30 3764 C 350.072 -1.73827 -1.07534 0
M  V30 3765 C 350.436 -0.498777 -1.85408 0
M  V30 3766 O 351.637 -0.572937 -2.62623 0
M  V30 3767 C 349.908 -2.97573 -1.97952 0
M  V30 3768 S 351.467 -3.38143 -2.79652 0
M  V30 3769 H 348.285 -0.611287 -0.36311 0
M  V30 3770 H 350.887 -1.92306 -0.351931 0
M  V30 3771 H 349.591 -3.85939 -1.39569 0
M  V30 3772 H 349.122 -2.81603 -2.74706 0
M  V30 3773 H 351.137 -2.93052 -4.00418 0
M  V30 3774 N 350.31 0.590341 -1.46126 0
M  V30 3775 C 351.557 1.34882 -1.5104 0
M  V30 3776 C 351.885 1.93849 -0.159021 0
M  V30 3777 O 351.14 1.76544 0.844436 0
M  V30 3778 C 351.439 2.5032 -2.55097 0
M  V30 3779 C 351.105 2.09394 -3.99331 0
M  V30 3780 C 349.767 1.97947 -4.38601 0
M  V30 3781 C 352.119 1.77712 -4.89967 0
M  V30 3782 C 349.447 1.53065 -5.66381 0
M  V30 3783 C 351.799 1.34312 -6.18177 0
M  V30 3784 C 350.463 1.21436 -6.56361 0
M  V30 3785 H 349.733 0.493568 -0.552695 0
M  V30 3786 H 352.38 0.665539 -1.79563 0
M  V30 3787 H 350.685 3.24062 -2.20207 0
M  V30 3788 H 352.382 3.08541 -2.56132 0
M  V30 3789 H 348.972 2.19235 -3.68285 0
M  V30 3790 H 353.156 1.85445 -4.60352 0
M  V30 3791 H 348.412 1.41733 -5.94745 0
M  V30 3792 H 352.586 1.08849 -6.87841 0
M  V30 3793 H 350.213 0.864345 -7.5527 0
M  V30 3794 N 351.788 1.33704 0.83433 0
M  V30 3795 C 352.736 1.24323 1.96587 0
M  V30 3796 C 353.73 0.143659 1.6879 0
M  V30 3797 O 354.936 0.30791 1.77347 0
M  V30 3798 H 351.311 0.385925 0.645419 0
M  V30 3799 H 353.282 2.19978 2.01624 0
M  V30 3800 C 352.031 1.00394 3.32891 0
M  V30 3801 H 351.354 1.84231 3.54822 0
M  V30 3802 H 352.794 0.97862 4.12552 0
M  V30 3803 C 351.253 -0.293047 3.35623 0
M  V30 3804 O 351.783 -1.29823 3.80143 0
M  V30 3805 N 349.989 -0.322174 2.88809 0
M  V30 3806 H 349.536 0.496379 2.52772 0
M  V30 3807 H 349.494 -1.18977 2.91019 0
M  V30 3808 N 353.266 -1.05314 1.17247 0
M  V30 3809 C 354.543 -1.75184 0.87005 0
M  V30 3810 C 354.923 -2.01481 -0.629965 0
M  V30 3811 O 354.271 -1.64988 -1.58086 0
M  V30 3812 C 354.481 -3.04594 1.70363 0
M  V30 3813 C 355.829 -3.78567 1.92281 0
M  V30 3814 O 356.853 -3.14461 1.67311 0
M  V30 3815 O 355.712 -4.93755 2.3424 0
M  V30 3816 H 352.806 -0.761729 0.322021 0
M  V30 3817 H 355.352 -1.11493 1.27935 0
M  V30 3818 H 354.124 -2.81201 2.72106 0
M  V30 3819 H 353.747 -3.76022 1.29202 0
M  V30 3820 N 354.744 -0.972509 -1.24016 0
M  V30 3821 C 355.99 -0.637978 -1.92504 0
M  V30 3822 C 356.323 0.825383 -1.75787 0
M  V30 3823 O 355.598 1.59442 -1.11393 0
M  V30 3824 C 355.881 -1.01942 -3.45369 0
M  V30 3825 C 355.734 -2.53983 -3.71231 0
M  V30 3826 C 357.053 -0.55751 -4.36555 0
M  V30 3827 H 354.172 -0.233248 -0.699117 0
M  V30 3828 H 356.814 -1.21238 -1.46292 0
M  V30 3829 H 354.964 -0.530656 -3.84859 0
M  V30 3830 H 356.636 -3.10374 -3.41271 0
M  V30 3831 H 354.879 -2.96968 -3.16216 0
M  V30 3832 H 355.55 -2.75723 -4.78206 0
M  V30 3833 H 358.026 -0.977029 -4.04467 0
M  V30 3834 H 356.902 -0.85292 -5.42233 0
M  V30 3835 H 357.163 0.542328 -4.38761 0
M  V30 3836 N 356.222 1.38976 -0.743202 0
M  V30 3837 C 357.45 2.04636 -0.30525 0
M  V30 3838 C 357.865 1.56044 1.06281 0
M  V30 3839 O 357.222 0.728921 1.67311 0
M  V30 3840 C 357.273 3.60193 -0.307177 0
M  V30 3841 O 356.994 4.06998 -1.62124 0
M  V30 3842 C 358.495 4.4306 0.145928 0
M  V30 3843 H 355.715 0.65788 -0.132041 0
M  V30 3844 H 358.259 1.77866 -1.00915 0
M  V30 3845 H 356.414 3.85835 0.347898 0
M  V30 3846 H 356.828 5.01371 -1.54036 0
M  V30 3847 H 358.302 5.51921 0.0934183 0
M  V30 3848 H 358.779 4.22706 1.19231 0
M  V30 3849 H 359.385 4.22584 -0.479886 0
M  V30 3850 N 357.7 0.491464 1.49741 0
M  V30 3851 C 358.663 -0.280906 2.27472 0
M  V30 3852 C 359.663 -0.902454 1.33088 0
M  V30 3853 O 360.853 -0.768465 1.56334 0
M  V30 3854 C 357.985 -1.40209 3.10732 0
M  V30 3855 H 359.178 0.401056 2.97206 0
M  V30 3856 H 356.731 0.246131 1.5435 0
M  V30 3857 H 357.466 -2.11849 2.45541 0
M  V30 3858 H 357.251 -0.961969 3.80117 0
M  V30 3859 H 358.741 -1.9464 3.69466 0
M  V30 3860 N 359.178 -1.55987 0.224894 0
M  V30 3861 C 360.427 -1.97566 -0.406273 0
M  V30 3862 C 360.74 -1.11569 -1.6066 0
M  V30 3863 O 361.946 -1.43062 -2.3075 0
M  V30 3864 C 360.402 -3.51474 -0.774207 0
M  V30 3865 C 360.01 -4.46179 0.403496 0
M  V30 3866 C 361.754 -4.01758 -1.37079 0
M  V30 3867 C 359.661 -5.91399 0.0129412 0
M  V30 3868 H 358.591 -0.737777 -0.155565 0
M  V30 3869 H 361.242 -1.80659 0.321635 0
M  V30 3870 H 359.624 -3.63994 -1.55963 0
M  V30 3871 H 360.798 -4.45409 1.18101 0
M  V30 3872 H 359.113 -4.06255 0.913536 0
M  V30 3873 H 361.71 -5.07756 -1.67596 0
M  V30 3874 H 362.053 -3.47805 -2.28773 0
M  V30 3875 H 362.586 -3.92475 -0.648733 0
M  V30 3876 H 359.325 -6.49341 0.896451 0
M  V30 3877 H 358.845 -5.95356 -0.728821 0
M  V30 3878 H 360.524 -6.45683 -0.412582 0
M  V30 3879 N 360.656 0.0484629 -1.57525 0
M  V30 3880 C 361.905 0.742065 -1.87553 0
M  V30 3881 C 362.218 1.77545 -0.820802 0
M  V30 3882 O 363.424 2.52027 -1.00967 0
M  V30 3883 C 361.88 1.37081 -3.32771 0
M  V30 3884 C 361.488 0.374786 -4.4643 0
M  V30 3885 C 363.232 2.04542 -3.71972 0
M  V30 3886 C 361.139 1.01077 -5.82698 0
M  V30 3887 H 360.069 0.280903 -0.699721 0
M  V30 3888 H 362.72 -0.00411877 -1.835 0
M  V30 3889 H 361.102 2.16605 -3.31509 0
M  V30 3890 H 362.276 -0.392331 -4.59127 0
M  V30 3891 H 360.591 -0.196653 -4.15935 0
M  V30 3892 H 363.188 2.52943 -4.71088 0
M  V30 3893 H 363.531 2.85515 -3.02964 0
M  V30 3894 H 364.064 1.31819 -3.75325 0
M  V30 3895 H 360.803 0.240878 -6.55057 0
M  V30 3896 H 360.323 1.74819 -5.73758 0
M  V30 3897 H 362.002 1.52383 -6.28799 0
M  V30 3898 N 362.134 1.5431 0.320358 0
M  V30 3899 C 363.381 1.72668 1.05792 0
M  V30 3900 C 363.709 0.502084 1.87908 0
M  V30 3901 O 362.964 -0.516149 1.88771 0
M  V30 3902 C 363.263 2.95639 2.00828 0
M  V30 3903 C 362.929 4.30265 1.34843 0
M  V30 3904 C 361.591 4.66865 1.16578 0
M  V30 3905 C 363.943 5.13801 0.875095 0
M  V30 3906 C 361.271 5.84597 0.496336 0
M  V30 3907 C 363.623 6.32219 0.219463 0
M  V30 3908 C 362.287 6.67495 0.0246915 0
M  V30 3909 H 361.557 0.631837 0.387121 0
M  V30 3910 H 364.204 1.88552 0.334735 0
M  V30 3911 H 362.509 2.74456 2.79609 0
M  V30 3912 H 364.206 3.07038 2.57932 0
M  V30 3913 H 360.796 4.01472 1.50061 0
M  V30 3914 H 364.98 4.86039 1.00398 0
M  V30 3915 H 360.236 6.10486 0.334264 0
M  V30 3916 H 364.41 6.96227 -0.155291 0
M  V30 3917 H 362.037 7.5858 -0.496065 0
M  V30 3918 N 363.613 -0.582584 1.46437 0
M  V30 3919 C 364.859 -1.34278 1.51978 0
M  V30 3920 C 365.192 -1.93446 0.170973 0
M  V30 3921 O 364.467 -1.76481 -0.817608 0
M  V30 3922 C 364.75 -2.47203 2.61845 0
M  V30 3923 C 364.603 -1.93069 4.06257 0
M  V30 3924 C 365.922 -3.49247 2.67795 0
M  V30 3925 H 363.041 -0.486876 0.553282 0
M  V30 3926 H 365.683 -0.654437 1.78374 0
M  V30 3927 H 363.833 -3.0592 2.39469 0
M  V30 3928 H 365.505 -1.38808 4.3992 0
M  V30 3929 H 363.748 -1.23898 4.1573 0
M  V30 3930 H 364.419 -2.74586 4.7886 0
M  V30 3931 H 366.895 -3.00411 2.8791 0
M  V30 3932 H 365.771 -4.25719 3.46489 0
M  V30 3933 H 366.032 -4.06482 1.73852 0
M  V30 3934 N 365.091 -1.34144 -0.827227 0
M  V30 3935 C 366.337 -1.26446 -1.58554 0
M  V30 3936 C 366.67 0.1664 -1.93486 0
M  V30 3937 O 365.945 1.1107 -1.59667 0
M  V30 3938 C 366.228 -2.15111 -2.8879 0
M  V30 3939 C 366.081 -3.66712 -2.60465 0
M  V30 3940 C 367.4 -2.03311 -3.90324 0
M  V30 3941 H 364.519 -0.46067 -0.575284 0
M  V30 3942 H 367.161 -1.64356 -0.953269 0
M  V30 3943 H 365.311 -1.8291 -3.42748 0
M  V30 3944 H 366.983 -4.09259 -2.1285 0
M  V30 3945 H 365.226 -3.88014 -1.93978 0
M  V30 3946 H 365.897 -4.24112 -3.53317 0
M  V30 3947 H 368.373 -2.31574 -3.45706 0
M  V30 3948 H 367.249 -2.67582 -4.79261 0
M  V30 3949 H 367.51 -1.00879 -4.30437 0
M  V30 3950 N 366.569 1.04691 -1.17803 0
M  V30 3951 C 367.532 2.10724 -0.901545 0
M  V30 3952 C 368.532 1.6042 0.110437 0
M  V30 3953 O 369.722 1.7377 -0.122303 0
M  V30 3954 C 366.854 3.39084 -0.351409 0
M  V30 3955 H 368.047 2.36686 -1.84174 0
M  V30 3956 H 365.6 1.21015 -0.98919 0
M  V30 3957 H 366.335 3.18782 0.59569 0
M  V30 3958 H 366.12 3.76909 -1.08083 0
M  V30 3959 H 367.61 4.17227 -0.176451 0
M  V30 3960 N 368.047 0.979072 1.23499 0
M  V30 3961 C 369.272 0.664845 1.96455 0
M  V30 3962 C 369.697 -0.761287 1.72006 0
M  V30 3963 O 369.055 -1.51837 0.990713 0
M  V30 3964 C 369.103 0.959479 3.47601 0
M  V30 3965 O 368.207 0.0508168 4.12369 0
M  V30 3966 H 367.548 0.250185 0.615064 0
M  V30 3967 H 370.078 1.31231 1.5697 0
M  V30 3968 H 370.088 0.895642 3.98048 0
M  V30 3969 H 368.763 1.99876 3.64723 0
M  V30 3970 H 367.34 0.16895 3.72517 0
M  V30 3971 N 369.525 -1.3858 0.750561 0
M  V30 3972 C 370.75 -2.04997 0.314812 0
M  V30 3973 C 371.175 -1.56235 -1.04749 0
M  V30 3974 O 370.533 -0.712981 -1.66692 0
M  V30 3975 C 370.581 -3.58961 0.343415 0
M  V30 3976 O 369.685 -4.07025 -0.663628 0
M  V30 3977 H 369.026 -0.649081 0.139962 0
M  V30 3978 H 371.556 -1.77313 1.02084 0
M  V30 3979 H 371.566 -4.07542 0.193233 0
M  V30 3980 H 370.241 -3.93811 1.33738 0
M  V30 3981 H 368.818 -3.6982 -0.478307 0
M  V30 3982 N 371.003 -0.499398 -1.49478 0
M  V30 3983 C 372.228 0.044722 -2.07352 0
M  V30 3984 C 372.653 1.30207 -1.35749 0
M  V30 3985 O 372.011 1.76516 -0.413732 0
M  V30 3986 C 372.059 0.283013 -3.59488 0
M  V30 3987 O 371.163 1.35804 -3.89398 0
M  V30 3988 H 370.504 -0.0255147 -0.66351 0
M  V30 3989 H 373.034 -0.698561 -1.92305 0
M  V30 3990 H 373.044 0.515007 -4.04737 0
M  V30 3991 H 371.719 -0.635636 -4.11014 0
M  V30 3992 H 370.296 1.11113 -3.55961 0
M  V30 3993 N 372.481 1.55866 -0.233164 0
M  V30 3994 C 373.711 2.02704 0.399325 0
M  V30 3995 C 374.119 1.11204 1.53069 0
M  V30 3996 O 373.462 0.116182 1.83332 0
M  V30 3997 C 373.524 3.45844 0.981429 0
M  V30 3998 C 373.188 4.56997 -0.0159561 0
M  V30 3999 C 374.185 5.13384 -0.820552 0
M  V30 4000 C 371.87 5.0211 -0.138072 0
M  V30 4001 C 373.864 6.13365 -1.73386 0
M  V30 4002 C 371.551 6.01926 -1.0549 0
M  V30 4003 C 372.549 6.57431 -1.85132 0
M  V30 4004 O 372.237 7.55302 -2.75272 0
M  V30 4005 H 371.969 0.668459 0.100692 0
M  V30 4006 H 374.523 2.02387 -0.35052 0
M  V30 4007 H 372.753 3.43267 1.78058 0
M  V30 4008 H 374.442 3.76262 1.52255 0
M  V30 4009 H 375.208 4.79372 -0.736721 0
M  V30 4010 H 371.087 4.5858 0.471737 0
M  V30 4011 H 374.631 6.56614 -2.35592 0
M  V30 4012 H 370.528 6.35359 -1.1397 0
M  V30 4013 H 371.296 7.72867 -2.69477 0
M  V30 4014 N 373.959 -0.0401083 1.57549 0
M  V30 4015 C 374.907 -1.06264 2.06908 0
M  V30 4016 C 375.901 -1.38132 0.980608 0
M  V30 4017 O 377.107 -1.37167 1.16556 0
M  V30 4018 H 373.482 -0.360166 0.660139 0
M  V30 4019 H 375.453 -0.620445 2.91878 0
M  V30 4020 C 374.202 -2.35846 2.55483 0
M  V30 4021 H 373.525 -2.12183 3.38849 0
M  V30 4022 H 374.965 -3.05765 2.93741 0
M  V30 4023 C 373.424 -3.0404 1.45126 0
M  V30 4024 O 373.954 -3.93424 0.811216 0
M  V30 4025 N 372.16 -2.65184 1.18852 0
M  V30 4026 H 371.707 -1.92584 1.71083 0
M  V30 4027 H 371.665 -3.1113 0.452244 0
M  V30 4028 N 375.437 -1.54477 -0.31217 0
M  V30 4029 C 376.37 -1.79519 -1.40884 0
M  V30 4030 C 377.348 -0.645753 -1.49227 0
M  V30 4031 O 378.532 -0.884468 -1.66461 0
M  V30 4032 C 375.659 -1.92194 -2.78889 0
M  V30 4033 C 374.705 -3.14555 -2.88023 0
M  V30 4034 S 375.538 -4.72893 -2.51262 0
M  V30 4035 C 376.694 -4.8849 -3.91317 0
M  V30 4036 H 376.927 -2.72256 -1.19432 0
M  V30 4037 H 374.46 -1.45746 -0.509654 0
M  V30 4038 H 376.418 -2.00182 -3.58382 0
M  V30 4039 H 375.079 -1.00414 -2.97617 0
M  V30 4040 H 374.272 -3.20193 -3.89221 0
M  V30 4041 H 373.874 -3.04955 -2.16514 0
M  V30 4042 H 376.166 -4.71826 -4.86196 0
M  V30 4043 H 377.109 -5.90588 -3.90656 0
M  V30 4044 H 377.517 -4.16715 -3.80801 0
M  V30 4045 N 376.915 0.57481 -1.46744 0
M  V30 4046 C 378.161 1.3347 -1.52688 0
M  V30 4047 C 378.494 1.93353 -0.181229 0
M  V30 4048 O 377.769 1.76912 0.808237 0
M  V30 4049 C 378.052 2.45811 -2.63152 0
M  V30 4050 C 377.905 1.90912 -4.07275 0
M  V30 4051 C 379.224 3.47822 -2.69644 0
M  V30 4052 H 376.343 0.483935 -0.555856 0
M  V30 4053 H 378.985 0.644968 -1.78718 0
M  V30 4054 H 377.135 3.04646 -2.41088 0
M  V30 4055 H 378.807 1.36473 -4.4065 0
M  V30 4056 H 377.05 1.21691 -4.16382 0
M  V30 4057 H 377.721 2.72042 -4.80309 0
M  V30 4058 H 380.197 2.9888 -2.895 0
M  V30 4059 H 379.073 4.23876 -3.48742 0
M  V30 4060 H 379.334 4.05555 -1.76005 0
M  V30 4061 N 378.394 1.34581 0.820102 0
M  V30 4062 C 379.643 1.26437 1.57151 0
M  V30 4063 C 379.956 -0.163111 1.94919 0
M  V30 4064 O 381.162 -0.366722 2.69012 0
M  V30 4065 C 379.618 2.21658 2.83541 0
M  V30 4066 C 379.226 3.69679 2.53065 0
M  V30 4067 C 380.97 2.22428 3.61561 0
M  V30 4068 C 378.877 4.56761 3.75664 0
M  V30 4069 H 377.807 0.469707 0.589823 0
M  V30 4070 H 380.458 1.59763 0.902656 0
M  V30 4071 H 378.84 1.81287 3.52067 0
M  V30 4072 H 380.014 4.18605 1.92631 0
M  V30 4073 H 378.329 3.71384 1.88316 0
M  V30 4074 H 380.926 2.8471 4.52597 0
M  V30 4075 H 381.269 1.22434 3.97889 0
M  V30 4076 H 381.802 2.61259 2.99981 0
M  V30 4077 H 378.541 5.57702 3.44454 0
M  V30 4078 H 378.061 4.12568 4.35371 0
M  V30 4079 H 379.74 4.71509 4.43044 0
M  V30 4080 N 379.872 -1.04064 1.18357 0
M  V30 4081 C 381.288 -1.2947 0.933258 0
M  V30 4082 C 381.488 -1.97466 -0.401169 0
M  V30 4083 O 380.544 -2.25528 -1.13549 0
M  V30 4084 C 381.857 -2.15337 2.09882 0
M  V30 4085 C 383.405 -2.28683 2.13712 0
M  V30 4086 C 383.88 -3.17917 3.29686 0
M  V30 4087 N 385.371 -3.25504 3.29547 0
M  V30 4088 C 386.106 -3.94706 4.15926 0
M  V30 4089 N 385.602 -4.66239 5.12439 0
M  V30 4090 N 387.395 -3.90986 4.0384 0
M  V30 4091 H 379.546 -0.583359 2.04232 0
M  V30 4092 H 381.809 -0.319921 0.892387 0
M  V30 4093 H 381.515 -1.72682 3.06389 0
M  V30 4094 H 381.389 -3.16015 2.05947 0
M  V30 4095 H 383.776 -2.70575 1.17784 0
M  V30 4096 H 383.857 -1.27596 2.21705 0
M  V30 4097 H 383.501 -2.76736 4.25887 0
M  V30 4098 H 383.431 -4.19036 3.1893 0
M  V30 4099 H 385.922 -2.74547 2.59677 0
M  V30 4100 H 386.235 -5.16638 5.74722 0
M  V30 4101 H 384.58 -4.65143 5.16398 0
M  V30 4102 H 387.771 -3.34234 3.27727 0
M  V30 4103 H 387.944 -4.44646 4.71375 0
M  V30 4104 N 381.35 -0.985608 -1.22978 0
M  V30 4105 C 382.26 -0.538548 -2.28335 0
M  V30 4106 C 383.276 0.409163 -1.69121 0
M  V30 4107 O 384.452 0.277797 -1.99475 0
M  V30 4108 C 381.517 0.146867 -3.46389 0
M  V30 4109 C 380.578 -0.842896 -4.20944 0
M  V30 4110 C 379.811 -0.190095 -5.33361 0
M  V30 4111 O 380.034 1.01767 -5.61248 0
M  V30 4112 O 378.968 -0.891289 -5.95264 0
M  V30 4113 H 382.794 -1.41487 -2.68729 0
M  V30 4114 H 380.379 -0.753495 -1.29007 0
M  V30 4115 H 382.261 0.531125 -4.1804 0
M  V30 4116 H 380.936 0.997871 -3.07935 0
M  V30 4117 H 379.843 -1.27795 -3.51595 0
M  V30 4118 H 381.176 -1.66287 -4.6326 0
M  V30 4119 N 382.828 1.3818 -0.7579 0
M  V30 4120 C 384.105 1.94106 -0.241306 0
M  V30 4121 C 384.485 1.69282 1.26122 0
M  V30 4122 O 383.833 1.03378 2.03777 0
M  V30 4123 C 384.043 3.43809 -0.59967 0
M  V30 4124 C 385.391 4.20868 -0.561717 0
M  V30 4125 O 386.415 3.5211 -0.538222 0
M  V30 4126 O 385.274 5.43451 -0.576478 0
M  V30 4127 H 382.368 0.825376 -0.0518042 0
M  V30 4128 H 384.914 1.47548 -0.838315 0
M  V30 4129 H 383.686 3.55403 -1.6372 0
M  V30 4130 H 383.309 3.97592 0.0251197 0
M  V30 4131 N 384.306 0.507319 1.49211 0
M  V30 4132 C 385.254 -0.281364 2.30892 0
M  V30 4133 C 386.248 -0.95687 1.39787 0
M  V30 4134 O 387.454 -0.883838 1.56807 0
M  V30 4135 H 383.829 -0.109597 0.743971 0
M  V30 4136 H 385.8 0.42744 2.95323 0
M  V30 4137 C 384.549 -1.32918 3.21291 0
M  V30 4138 H 383.872 -0.818799 3.91326 0
M  V30 4139 H 385.312 -1.85288 3.81372 0
M  V30 4140 C 383.771 -2.35074 2.41333 0
M  V30 4141 O 384.301 -3.4108 2.12197 0
M  V30 4142 N 382.507 -2.07705 2.03241 0
M  V30 4143 H 382.054 -1.2152 2.27136 0
M  V30 4144 H 382.012 -2.76283 1.50051 0
M  V30 4145 N 385.784 -1.5574 0.241426 0
M  V30 4146 C 386.716 -2.18469 -0.693091 0
M  V30 4147 C 387.729 -1.15942 -1.14286 0
M  V30 4148 O 388.918 -1.42832 -1.07058 0
M  V30 4149 C 386.018 -2.7696 -1.95311 0
M  V30 4150 C 385.191 -4.04853 -1.65568 0
M  V30 4151 C 384.25 -4.47715 -2.76474 0
M  V30 4152 O 383.276 -5.14205 -2.44094 0
M  V30 4153 N 384.478 -4.15044 -4.05855 0
M  V30 4154 H 387.243 -2.99292 -0.156388 0
M  V30 4155 H 384.804 -1.61784 0.0611752 0
M  V30 4156 H 386.796 -3.02594 -2.68736 0
M  V30 4157 H 385.366 -2.00326 -2.39975 0
M  V30 4158 H 384.586 -3.86865 -0.756886 0
M  V30 4159 H 385.874 -4.88246 -1.43153 0
M  V30 4160 H 385.272 -3.61654 -4.34998 0
M  V30 4161 H 383.829 -4.45526 -4.75762 0
M  V30 4162 N 387.262 0.0317525 -1.57568 0
M  V30 4163 C 388.49 0.734949 -1.93407 0
M  V30 4164 C 388.905 1.69036 -0.84096 0
M  V30 4165 O 388.262 1.81582 0.182836 0
M  V30 4166 C 388.313 1.49432 -3.29169 0
M  V30 4167 O 388.034 0.577261 -4.3428 0
M  V30 4168 C 389.535 2.29492 -3.79273 0
M  V30 4169 H 386.755 0.206706 -0.638368 0
M  V30 4170 H 389.299 -0.00992046 -2.04498 0
M  V30 4171 H 387.454 2.1911 -3.19483 0
M  V30 4172 H 387.868 1.10952 -5.1263 0
M  V30 4173 H 389.342 2.78172 -4.76785 0
M  V30 4174 H 389.819 3.10794 -3.10328 0
M  V30 4175 H 390.425 1.64894 -3.92033 0
M  V30 4176 N 388.74 1.54641 0.303973 0
M  V30 4177 C 389.688 1.86137 1.39484 0
M  V30 4178 C 390.682 0.734854 1.52631 0
M  V30 4179 O 391.888 0.918803 1.54784 0
M  V30 4180 H 388.263 0.590324 0.465856 0
M  V30 4181 H 390.234 2.77324 1.10154 0
M  V30 4182 C 388.983 2.12274 2.75382 0
M  V30 4183 H 388.306 2.98429 2.66046 0
M  V30 4184 H 389.746 2.38254 3.5073 0
M  V30 4185 C 388.205 0.920365 3.24085 0
M  V30 4186 O 388.735 0.139377 4.01458 0
M  V30 4187 N 386.941 0.726566 2.81371 0
M  V30 4188 H 386.488 1.36332 2.18567 0
M  V30 4189 H 386.446 -0.0763799 3.14307 0
M  V30 4190 N 390.218 -0.567019 1.47046 0
M  V30 4191 C 391.634 -0.891975 1.32348 0
M  V30 4192 C 391.834 -1.99154 0.306616 0
M  V30 4193 O 390.89 -2.50883 -0.28532 0
M  V30 4194 C 392.203 -1.29449 2.7141 0
M  V30 4195 C 393.751 -1.40646 2.79621 0
M  V30 4196 C 394.226 -1.84257 4.19301 0
M  V30 4197 N 395.717 -1.91424 4.21795 0
M  V30 4198 C 396.452 -2.26476 5.26779 0
M  V30 4199 N 395.948 -2.60211 6.42077 0
M  V30 4200 N 397.741 -2.27166 5.14152 0
M  V30 4201 H 389.892 0.159074 2.11803 0
M  V30 4202 H 392.155 0.00849752 0.947962 0
M  V30 4203 H 391.861 -0.560448 3.47206 0
M  V30 4204 H 391.735 -2.25273 3.02542 0
M  V30 4205 H 394.122 -2.13133 2.04104 0
M  V30 4206 H 394.203 -0.430339 2.52154 0
M  V30 4207 H 393.847 -1.12343 4.95319 0
M  V30 4208 H 393.777 -2.82855 4.44185 0
M  V30 4209 H 396.268 -1.6778 3.38612 0
M  V30 4210 H 396.581 -2.85956 7.17948 0
M  V30 4211 H 394.926 -2.57813 6.45413 0
M  V30 4212 H 398.117 -2.00244 4.23107 0
M  V30 4213 H 398.29 -2.54154 5.96079 0
M  V30 4214 N 391.696 -1.35014 -0.812953 0
M  V30 4215 C 392.626 -1.30069 -1.93919 0
M  V30 4216 C 393.607 -0.176275 -1.69184 0
M  V30 4217 O 394.792 -0.370227 -1.90638 0
M  V30 4218 C 391.922 -1.06547 -3.30552 0
M  V30 4219 C 390.876 -2.15561 -3.69753 0
M  V30 4220 C 390.202 -1.77214 -5.04479 0
M  V30 4221 C 391.502 -3.57476 -3.808 0
M  V30 4222 H 393.196 -2.24303 -1.98314 0
M  V30 4223 H 390.742 -1.07977 -0.952736 0
M  V30 4224 H 392.695 -1.01729 -4.08937 0
M  V30 4225 H 391.419 -0.0875719 -3.26483 0
M  V30 4226 H 390.078 -2.19466 -2.9365 0
M  V30 4227 H 389.726 -0.780589 -4.96906 0
M  V30 4228 H 389.426 -2.50184 -5.31678 0
M  V30 4229 H 390.95 -1.7391 -5.8531 0
M  V30 4230 H 392.364 -3.55929 -4.4943 0
M  V30 4231 H 390.761 -4.29152 -4.19462 0
M  V30 4232 H 391.831 -3.94091 -2.82525 0
M  V30 4233 N 393.175 1.03435 -1.18907 0
M  V30 4234 C 394.107 2.1165 -0.879595 0
M  V30 4235 C 395.12 1.62316 0.125439 0
M  V30 4236 O 396.309 1.78201 -0.103245 0
M  V30 4237 C 393.409 3.37622 -0.294042 0
M  V30 4238 C 392.582 4.16166 -1.34629 0
M  V30 4239 C 391.641 5.20457 -0.775274 0
M  V30 4240 O 390.667 5.50379 -1.4516 0
M  V30 4241 N 391.869 5.78949 0.424126 0
M  V30 4242 H 394.634 2.38791 -1.81105 0
M  V30 4243 H 392.195 1.19681 -1.09032 0
M  V30 4244 H 394.187 4.04572 0.101679 0
M  V30 4245 H 392.757 3.07873 0.541575 0
M  V30 4246 H 391.977 3.44444 -1.91707 0
M  V30 4247 H 393.265 4.65432 -2.05549 0
M  V30 4248 H 392.663 5.56948 0.991209 0
M  V30 4249 H 391.22 6.47334 0.761691 0
M  V30 4250 N 394.653 0.992116 1.22453 0
M  V30 4251 C 395.563 0.55065 2.28046 0
M  V30 4252 C 396.579 -0.400189 1.69335 0
M  V30 4253 O 397.755 -0.267215 1.99619 0
M  V30 4254 C 394.82 -0.128496 3.46462 0
M  V30 4255 C 393.881 0.865208 4.20491 0
M  V30 4256 C 393.114 0.218377 5.33253 0
M  V30 4257 O 393.337 -0.987894 5.6178 0
M  V30 4258 O 392.271 0.922845 5.94783 0
M  V30 4259 H 396.097 1.4291 2.67975 0
M  V30 4260 H 393.682 0.760326 1.28606 0
M  V30 4261 H 395.564 -0.508947 4.18315 0
M  V30 4262 H 394.239 -0.981526 3.0846 0
M  V30 4263 H 393.146 1.29658 3.50913 0
M  V30 4264 H 394.479 1.68741 4.62371 0
M  V30 4265 N 396.131 -1.37776 0.765217 0
M  V30 4266 C 397.094 -2.28686 0.153416 0
M  V30 4267 C 398.094 -1.47727 -0.635081 0
M  V30 4268 O 399.284 -1.68027 -0.459632 0
M  V30 4269 C 396.416 -3.31608 -0.790495 0
M  V30 4270 H 397.609 -2.84297 0.954723 0
M  V30 4271 H 395.162 -1.46932 0.53299 0
M  V30 4272 H 395.897 -2.81109 -1.61705 0
M  V30 4273 H 395.682 -3.9144 -0.227348 0
M  V30 4274 H 397.172 -3.99559 -1.21419 0
M  V30 4275 N 397.609 -0.515225 -1.4894 0
M  V30 4276 C 398.539 0.244628 -2.32215 0
M  V30 4277 C 399.52 0.949136 -1.41157 0
M  V30 4278 O 400.705 0.937783 -1.70057 0
M  V30 4279 C 397.835 1.30096 -3.22013 0
M  V30 4280 C 396.789 0.715486 -4.21977 0
M  V30 4281 C 396.115 1.87339 -5.00808 0
M  V30 4282 C 397.415 -0.302982 -5.2142 0
M  V30 4283 H 399.109 -0.450501 -2.95991 0
M  V30 4284 H 396.655 -0.218098 -1.42339 0
M  V30 4285 H 398.608 1.84037 -3.79089 0
M  V30 4286 H 397.332 2.02547 -2.56207 0
M  V30 4287 H 395.991 0.197715 -3.66066 0
M  V30 4288 H 395.639 2.58592 -4.31438 0
M  V30 4289 H 395.339 1.48764 -5.68457 0
M  V30 4290 H 396.863 2.41686 -5.60732 0
M  V30 4291 H 398.277 0.148802 -5.73107 0
M  V30 4292 H 396.674 -0.60532 -5.97039 0
M  V30 4293 H 397.744 -1.21395 -4.69459 0
M  V30 4294 N 399.087 1.5561 -0.249682 0
M  V30 4295 C 400.035 2.22894 0.664906 0
M  V30 4296 C 401.029 1.21743 1.17792 0
M  V30 4297 O 402.235 1.39748 1.13449 0
M  V30 4298 H 398.61 0.715022 0.232912 0
M  V30 4299 H 400.581 2.98307 0.0742998 0
M  V30 4300 C 399.33 2.94424 1.84959 0
M  V30 4301 H 398.653 3.72031 1.46399 0
M  V30 4302 H 400.093 3.44862 2.4667 0
M  V30 4303 C 398.552 1.98454 2.72245 0
M  V30 4304 O 399.082 1.51939 3.71857 0
M  V30 4305 N 397.288 1.65496 2.38871 0
M  V30 4306 H 396.835 2.03517 1.57919 0
M  V30 4307 H 396.793 1.0155 2.97548 0
M  V30 4308 N 400.565 -0.0233959 1.57583 0
M  V30 4309 C 401.495 -1.02162 2.09965 0
M  V30 4310 C 402.476 -1.3735 1.00344 0
M  V30 4311 O 403.661 -1.46135 1.27899 0
M  V30 4312 C 400.791 -2.32081 2.58371 0
M  V30 4313 C 399.745 -2.1112 3.72307 0
M  V30 4314 C 399.071 -3.46848 4.06941 0
M  V30 4315 C 400.371 -1.49276 5.00514 0
M  V30 4316 H 402.065 -0.585557 2.93618 0
M  V30 4317 H 399.611 -0.280218 1.41247 0
M  V30 4318 H 401.564 -3.02249 2.93639 0
M  V30 4319 H 400.288 -2.77758 1.71808 0
M  V30 4320 H 398.947 -1.43384 3.37397 0
M  V30 4321 H 398.595 -3.90184 3.17436 0
M  V30 4322 H 398.295 -3.33646 4.83688 0
M  V30 4323 H 399.819 -4.18369 4.44747 0
M  V30 4324 H 401.233 -2.09368 5.33702 0
M  V30 4325 H 399.63 -1.46632 5.8191 0
M  V30 4326 H 400.7 -0.459217 4.82721 0
M  V30 4327 N 402.043 -1.548 -0.295768 0
M  V30 4328 C 403.29 -1.74329 -1.03032 0
M  V30 4329 C 403.618 -0.531915 -1.87085 0
M  V30 4330 O 402.873 0.486052 -1.89568 0
M  V30 4331 C 403.172 -2.98797 -1.961 0
M  V30 4332 C 402.838 -4.32356 -1.2798 0
M  V30 4333 C 401.5 -4.68661 -1.09135 0
M  V30 4334 C 403.852 -5.15128 -0.793243 0
M  V30 4335 C 401.18 -5.85312 -0.403269 0
M  V30 4336 C 403.532 -6.32488 -0.118854 0
M  V30 4337 C 402.196 -6.6745 0.0815043 0
M  V30 4338 H 401.466 -0.637916 -0.37702 0
M  V30 4339 H 404.113 -1.8906 -0.304696 0
M  V30 4340 H 402.418 -2.78869 -2.75207 0
M  V30 4341 H 404.115 -3.11102 -2.53015 0
M  V30 4342 H 400.705 -4.03808 -1.43655 0
M  V30 4343 H 404.889 -4.87575 -0.92653 0
M  V30 4344 H 400.145 -6.1094 -0.237098 0
M  V30 4345 H 404.319 -6.95892 0.266035 0
M  V30 4346 H 401.946 -7.57695 0.616685 0
M  V30 4347 N 403.521 0.559213 -1.47345 0
M  V30 4348 C 404.468 1.66645 -1.59682 0
M  V30 4349 C 405.438 1.60168 -0.43994 0
M  V30 4350 O 406.623 1.79031 -0.659736 0
M  V30 4351 C 403.763 3.04969 -1.61518 0
M  V30 4352 C 402.876 3.21897 -2.88108 0
M  V30 4353 C 402.011 4.50608 -2.81294 0
M  V30 4354 C 401.05 4.60961 -4.02717 0
M  V30 4355 N 400.187 5.81024 -3.94151 0
M  V30 4356 H 405.027 1.55439 -2.54249 0
M  V30 4357 H 402.564 0.757219 -1.26113 0
M  V30 4358 H 404.522 3.85064 -1.60566 0
M  V30 4359 H 403.152 3.15015 -0.704645 0
M  V30 4360 H 402.204 2.35248 -2.98936 0
M  V30 4361 H 403.516 3.25412 -3.78032 0
M  V30 4362 H 402.67 5.3896 -2.7858 0
M  V30 4363 H 401.409 4.49568 -1.89049 0
M  V30 4364 H 400.414 3.71021 -4.05738 0
M  V30 4365 H 401.639 4.63761 -4.96087 0
M  V30 4366 H 399.585 5.80938 -3.04708 0
M  V30 4367 H 399.502 5.85909 -4.77752 0
M  V30 4368 H 400.77 6.71744 -3.9545 0
M  V30 4369 N 404.999 1.35443 0.805782 0
M  V30 4370 C 406.224 1.32037 1.59941 0
M  V30 4371 C 406.649 -0.0994215 1.87837 0
M  V30 4372 O 406.007 -1.06648 1.46615 0
M  V30 4373 C 406.055 2.13354 2.90711 0
M  V30 4374 O 405.159 1.5148 3.83572 0
M  V30 4375 H 404.5 0.452666 0.485787 0
M  V30 4376 H 407.03 1.78496 1.00002 0
M  V30 4377 H 407.04 2.25338 3.40128 0
M  V30 4378 H 405.715 3.16572 2.69732 0
M  V30 4379 H 404.292 1.4834 3.42125 0
M  V30 4380 N 406.477 -1.02803 1.19454 0
M  V30 4381 C 407.726 -1.7562 0.991996 0
M  V30 4382 C 408.039 -1.89672 -0.477901 0
M  V30 4383 O 409.245 -2.59468 -0.799287 0
M  V30 4384 C 407.701 -3.15812 1.72601 0
M  V30 4385 C 407.309 -3.0981 3.23607 0
M  V30 4386 C 409.053 -3.92918 1.60674 0
M  V30 4387 C 406.96 -4.44939 3.89594 0
M  V30 4388 H 405.89 -0.658352 0.367543 0
M  V30 4389 H 408.541 -1.15044 1.42959 0
M  V30 4390 H 406.923 -3.7686 1.21624 0
M  V30 4391 H 408.097 -2.58138 3.81709 0
M  V30 4392 H 406.412 -2.46201 3.35819 0
M  V30 4393 H 409.009 -4.9287 2.07323 0
M  V30 4394 H 409.352 -4.12502 0.561025 0
M  V30 4395 H 409.885 -3.38472 2.09001 0
M  V30 4396 H 406.624 -4.30559 4.94267 0
M  V30 4397 H 406.144 -4.96664 3.36281 0
M  V30 4398 H 407.823 -5.1382 3.93189 0
M  V30 4399 N 407.956 -0.998596 -1.21925 0
M  V30 4400 C 409.202 -0.688337 -1.91399 0
M  V30 4401 C 409.557 0.771805 -1.76241 0
M  V30 4402 O 408.85 1.55153 -1.1242 0
M  V30 4403 C 409.044 -1.03648 -3.42041 0
M  V30 4404 C 408.873 -2.52892 -3.71855 0
M  V30 4405 C 407.643 -3.19389 -3.91559 0
M  V30 4406 C 409.841 -3.5103 -3.75875 0
M  V30 4407 N 407.823 -4.5805 -4.08734 0
M  V30 4408 C 409.194 -4.75174 -3.98259 0
M  V30 4409 C 411.249 -3.45257 -3.58751 0
M  V30 4410 C 409.952 -5.94247 -4.05294 0
M  V30 4411 C 411.978 -4.63712 -3.67049 0
M  V30 4412 C 411.34 -5.86658 -3.89887 0
M  V30 4413 H 407.439 -0.303251 -0.720807 0
M  V30 4414 H 410.023 -1.27977 -1.46731 0
M  V30 4415 H 408.194 -0.473569 -3.85502 0
M  V30 4416 H 409.926 -0.681619 -3.98919 0
M  V30 4417 H 406.681 -2.69846 -3.89205 0
M  V30 4418 H 407.105 -5.29989 -4.21237 0
M  V30 4419 H 411.747 -2.51215 -3.40075 0
M  V30 4420 H 409.465 -6.88687 -4.22772 0
M  V30 4421 H 413.051 -4.6084 -3.5513 0
M  V30 4422 H 411.931 -6.76786 -3.96144 0
M  V30 4423 N 409.434 1.37368 -0.772513 0
M  V30 4424 C 410.382 2.32134 -0.147111 0
M  V30 4425 C 411.376 1.54972 0.684106 0
M  V30 4426 O 412.582 1.70363 0.581083 0
M  V30 4427 H 408.957 0.751449 -0.028786 0
M  V30 4428 H 410.928 2.82464 -0.962112 0
M  V30 4429 C 409.677 3.40226 0.71703 0
M  V30 4430 H 409 3.99706 0.0867951 0
M  V30 4431 H 410.44 4.08897 1.12159 0
M  V30 4432 C 408.899 2.80372 1.86797 0
M  V30 4433 O 409.429 2.71183 2.96349 0
M  V30 4434 N 407.635 2.37904 1.66883 0
M  V30 4435 H 407.182 2.45578 0.777759 0
M  V30 4436 H 407.14 1.98202 2.44056 0
M  V30 4437 N 410.912 0.523116 1.48665 0
M  V30 4438 C 411.86 -0.256859 2.31177 0
M  V30 4439 C 412.854 -0.94199 1.40794 0
M  V30 4440 O 414.06 -0.867157 1.57735 0
M  V30 4441 H 410.435 -0.1017 0.745091 0
M  V30 4442 H 412.406 0.458739 2.94853 0
M  V30 4443 C 411.155 -1.29503 3.22683 0
M  V30 4444 H 410.478 -0.777248 3.92172 0
M  V30 4445 H 411.918 -1.81233 3.83315 0
M  V30 4446 C 410.377 -2.32501 2.43813 0
M  V30 4447 O 410.907 -3.3881 2.15803 0
M  V30 4448 N 409.113 -2.05538 2.05432 0
M  V30 4449 H 408.66 -1.19104 2.28412 0
M  V30 4450 H 408.618 -2.74676 1.52973 0
M  V30 4451 N 412.39 -1.55475 0.257931 0
M  V30 4452 C 413.806 -1.59307 -0.0966563 0
M  V30 4453 C 414.006 -1.27514 -1.5602 0
M  V30 4454 O 413.062 -1.02774 -2.30637 0
M  V30 4455 C 414.375 -2.99552 0.262481 0
M  V30 4456 C 415.923 -3.1231 0.207683 0
M  V30 4457 C 416.398 -4.54793 0.541012 0
M  V30 4458 N 417.889 -4.6058 0.491921 0
M  V30 4459 C 418.624 -5.68825 0.722857 0
M  V30 4460 N 418.12 -6.85287 1.0175 0
M  V30 4461 N 419.913 -5.58296 0.652815 0
M  V30 4462 H 412.064 -1.74409 1.21224 0
M  V30 4463 H 414.327 -0.812424 0.48854 0
M  V30 4464 H 414.033 -3.27593 1.27967 0
M  V30 4465 H 413.907 -3.75019 -0.40508 0
M  V30 4466 H 416.294 -2.84044 -0.800195 0
M  V30 4467 H 416.375 -2.39095 0.909255 0
M  V30 4468 H 416.019 -4.83783 1.5465 0
M  V30 4469 H 415.949 -5.26285 -0.18216 0
M  V30 4470 H 418.44 -3.7691 0.273366 0
M  V30 4471 H 418.753 -7.63725 1.18084 0
M  V30 4472 H 417.098 -6.86945 1.05509 0
M  V30 4473 H 420.289 -4.66189 0.422592 0
M  V30 4474 H 420.462 -6.42582 0.836182 0
M  V30 4475 N 413.868 0.0150385 -1.57593 0
M  V30 4476 C 415.114 0.69849 -1.91031 0
M  V30 4477 C 415.469 1.72208 -0.85804 0
M  V30 4478 O 414.762 1.91147 0.131614 0
M  V30 4479 C 414.956 1.39686 -3.28972 0
M  V30 4480 C 414.785 0.442428 -4.47518 0
M  V30 4481 C 413.555 0.0583223 -5.05266 0
M  V30 4482 C 415.753 -0.285072 -5.13509 0
M  V30 4483 N 413.735 -0.895893 -6.07328 0
M  V30 4484 C 415.106 -1.09447 -6.10263 0
M  V30 4485 C 417.161 -0.350518 -4.96665 0
M  V30 4486 C 415.864 -1.96333 -6.91987 0
M  V30 4487 C 417.89 -1.20655 -5.78962 0
M  V30 4488 C 417.252 -2.00383 -6.75297 0
M  V30 4489 H 413.351 0.22926 -0.747639 0
M  V30 4490 H 415.935 -0.0417748 -1.94655 0
M  V30 4491 H 414.106 2.1075 -3.2625 0
M  V30 4492 H 415.838 2.03381 -3.49883 0
M  V30 4493 H 412.593 0.423506 -4.71703 0
M  V30 4494 H 413.017 -1.36792 -6.63036 0
M  V30 4495 H 417.659 0.251596 -4.22051 0
M  V30 4496 H 415.377 -2.57618 -7.65936 0
M  V30 4497 H 418.963 -1.2609 -5.67972 0
M  V30 4498 H 417.843 -2.65552 -7.3787 0
M  V30 4499 N 415.346 1.54954 0.287554 0
M  V30 4500 C 416.276 1.89839 1.35954 0
M  V30 4501 C 417.257 0.758675 1.52244 0
M  V30 4502 O 418.442 1.01557 1.65529 0
M  V30 4503 C 415.572 2.15753 2.72154 0
M  V30 4504 C 414.526 3.3159 2.70614 0
M  V30 4505 C 413.852 3.42952 4.10229 0
M  V30 4506 C 415.152 4.68359 2.31165 0
M  V30 4507 H 416.846 2.79625 1.07007 0
M  V30 4508 H 414.392 1.3454 0.513316 0
M  V30 4509 H 416.345 2.38743 3.47246 0
M  V30 4510 H 415.069 1.22752 3.02654 0
M  V30 4511 H 413.728 3.08545 1.97979 0
M  V30 4512 H 413.376 2.47443 4.37928 0
M  V30 4513 H 413.076 4.20826 4.10097 0
M  V30 4514 H 414.6 3.68218 4.87081 0
M  V30 4515 H 416.014 4.9099 2.95976 0
M  V30 4516 H 414.411 5.49044 2.42221 0
M  V30 4517 H 415.481 4.68165 1.26291 0
M  V30 4518 N 416.824 -0.551391 1.4764 0
M  V30 4519 C 418.24 -0.877887 1.33287 0
M  V30 4520 C 418.44 -1.98817 0.327721 0
M  V30 4521 O 417.496 -2.51171 -0.258695 0
M  V30 4522 C 418.809 -1.26563 2.72768 0
M  V30 4523 C 420.357 -1.37673 2.81097 0
M  V30 4524 C 420.832 -1.79799 4.21232 0
M  V30 4525 N 422.323 -1.8694 4.23802 0
M  V30 4526 C 423.058 -2.20876 5.29151 0
M  V30 4527 N 422.554 -2.53386 6.448 0
M  V30 4528 N 424.347 -2.217 5.16532 0
M  V30 4529 H 416.498 0.18153 2.11623 0
M  V30 4530 H 418.761 0.0185514 0.947818 0
M  V30 4531 H 418.467 -0.523591 3.47781 0
M  V30 4532 H 418.341 -2.22052 3.04915 0
M  V30 4533 H 420.728 -2.10956 2.06353 0
M  V30 4534 H 420.809 -0.40357 2.52596 0
M  V30 4535 H 420.453 -1.07083 4.96483 0
M  V30 4536 H 420.383 -2.78128 4.4716 0
M  V30 4537 H 422.874 -1.64179 3.40373 0
M  V30 4538 H 423.187 -2.78325 7.20941 0
M  V30 4539 H 421.532 -2.50953 6.48111 0
M  V30 4540 H 424.723 -1.95745 4.25207 0
M  V30 4541 H 424.896 -2.47818 5.98741 0
M  V30 4542 N 418.302 -1.35869 -0.798587 0
M  V30 4543 C 419.53 -1.32722 -1.58722 0
M  V30 4544 C 419.945 0.0935631 -1.88568 0
M  V30 4545 O 419.302 1.04784 -1.49421 0
M  V30 4546 C 419.353 -2.13974 -2.91371 0
M  V30 4547 O 419.074 -3.50514 -2.62815 0
M  V30 4548 C 420.575 -2.18504 -3.85708 0
M  V30 4549 H 417.795 -0.45562 -0.492596 0
M  V30 4550 H 420.339 -1.78837 -0.991843 0
M  V30 4551 H 418.494 -1.71438 -3.47402 0
M  V30 4552 H 418.908 -3.92806 -3.47568 0
M  V30 4553 H 420.382 -2.79732 -4.75872 0
M  V30 4554 H 420.859 -1.18597 -4.22885 0
M  V30 4555 H 421.465 -2.61236 -3.35612 0
M  V30 4556 N 419.78 1.02168 -1.19998 0
M  V30 4557 C 421.029 1.75091 -1.0013 0
M  V30 4558 C 421.342 1.89923 0.467835 0
M  V30 4559 O 422.548 2.59888 0.785515 0
M  V30 4560 C 421.004 3.14892 -1.74273 0
M  V30 4561 C 420.612 3.0809 -3.25245 0
M  V30 4562 C 422.356 3.9206 -1.62755 0
M  V30 4563 C 420.263 4.42867 -3.91948 0
M  V30 4564 H 419.193 0.656394 -0.37103 0
M  V30 4565 H 421.844 1.14284 -1.43567 0
M  V30 4566 H 420.226 3.7621 -1.2362 0
M  V30 4567 H 421.4 2.5611 -3.83072 0
M  V30 4568 H 419.715 2.44416 -3.3712 0
M  V30 4569 H 422.312 4.91764 -2.09934 0
M  V30 4570 H 422.655 4.12199 -0.582894 0
M  V30 4571 H 423.188 3.37359 -2.10793 0
M  V30 4572 H 419.927 4.27931 -4.96543 0
M  V30 4573 H 419.447 4.94874 -3.3891 0
M  V30 4574 H 421.126 5.11728 -3.95909 0
M  V30 4575 N 421.258 1.00505 1.21394 0
M  V30 4576 C 422.483 0.706367 1.95001 0
M  V30 4577 C 422.908 -0.72463 1.73582 0
M  V30 4578 O 422.266 -1.49702 1.0227 0
M  V30 4579 C 422.314 1.03299 3.45487 0
M  V30 4580 O 421.418 0.138275 4.12168 0
M  V30 4581 H 420.759 0.263175 0.609619 0
M  V30 4582 H 423.289 1.34531 1.54151 0
M  V30 4583 H 423.299 0.979872 3.96059 0
M  V30 4584 H 421.974 2.07567 3.60401 0
M  V30 4585 H 420.551 0.247928 3.72075 0
M  V30 4586 N 422.737 -1.36956 0.779787 0
M  V30 4587 C 423.983 -1.99787 0.348281 0
M  V30 4588 C 424.316 -1.61756 -1.07465 0
M  V30 4589 O 423.591 -0.867639 -1.74075 0
M  V30 4590 C 423.874 -3.56597 0.50104 0
M  V30 4591 C 423.727 -4.04513 1.96697 0
M  V30 4592 C 425.046 -4.40008 -0.0898097 0
M  V30 4593 H 422.165 -0.725796 0.128022 0
M  V30 4594 H 424.807 -1.62514 0.984331 0
M  V30 4595 H 422.957 -3.88479 -0.0404347 0
M  V30 4596 H 424.629 -3.83161 2.56876 0
M  V30 4597 H 422.872 -3.56408 2.47297 0
M  V30 4598 H 423.543 -5.1352 2.02486 0
M  V30 4599 H 426.019 -4.14431 0.372293 0
M  V30 4600 H 424.895 -5.4888 0.0471605 0
M  V30 4601 H 425.156 -4.26035 -1.18096 0
M  V30 4602 N 424.215 -0.530993 -1.48385 0
M  V30 4603 C 425.464 0.00474348 -2.01699 0
M  V30 4604 C 425.777 1.35227 -1.41325 0
M  V30 4605 O 426.983 1.97643 -1.86144 0
M  V30 4606 C 425.439 0.0588473 -3.59852 0
M  V30 4607 C 425.047 -1.28385 -4.2921 0
M  V30 4608 C 426.791 0.543358 -4.21008 0
M  V30 4609 C 424.698 -1.19028 -5.79298 0
M  V30 4610 H 423.628 0.00554317 -0.75398 0
M  V30 4611 H 426.279 -0.674924 -1.70637 0
M  V30 4612 H 424.661 0.803612 -3.8776 0
M  V30 4613 H 425.835 -2.04426 -4.12973 0
M  V30 4614 H 424.15 -1.70418 -3.7993 0
M  V30 4615 H 426.747 0.631351 -5.3096 0
M  V30 4616 H 427.09 1.54937 -3.86394 0
M  V30 4617 H 427.623 -0.145754 -3.97533 0
M  V30 4618 H 424.362 -2.17147 -6.18488 0
M  V30 4619 H 423.882 -0.471246 -5.97946 0
M  V30 4620 H 425.561 -0.881365 -6.40969 0
M  V30 4621 N 425.693 1.55336 -0.266172 0
M  V30 4622 C 426.623 2.25146 0.618981 0
M  V30 4623 C 427.604 1.23845 1.16604 0
M  V30 4624 O 428.789 1.52544 1.20183 0
M  V30 4625 C 425.919 2.96572 1.80728 0
M  V30 4626 C 424.873 4.04726 1.39215 0
M  V30 4627 C 424.199 4.63678 2.66283 0
M  V30 4628 C 425.499 5.19407 0.548942 0
M  V30 4629 H 427.193 2.99377 0.0368116 0
M  V30 4630 H 424.739 1.43991 0.0162651 0
M  V30 4631 H 426.692 3.44116 2.43232 0
M  V30 4632 H 425.416 2.19861 2.41514 0
M  V30 4633 H 424.075 3.57979 0.790351 0
M  V30 4634 H 423.723 3.83646 3.25308 0
M  V30 4635 H 423.423 5.367 2.39222 0
M  V30 4636 H 424.947 5.13967 3.29651 0
M  V30 4637 H 426.361 5.63059 1.07876 0
M  V30 4638 H 424.758 5.98936 0.373593 0
M  V30 4639 H 425.828 4.8295 -0.434394 0
M  V30 4640 N 427.171 -0.0066808 1.57599 0
M  V30 4641 C 428.418 -0.69292 1.90276 0
M  V30 4642 C 428.746 -1.74148 0.866192 0
M  V30 4643 O 428.001 -1.95268 -0.129933 0
M  V30 4644 C 428.3 -1.37939 3.29708 0
M  V30 4645 C 427.966 -0.464679 4.48499 0
M  V30 4646 C 426.628 -0.212809 4.80729 0
M  V30 4647 C 428.98 0.16551 5.20937 0
M  V30 4648 C 426.308 0.677653 5.82773 0
M  V30 4649 C 428.66 1.04381 6.23929 0
M  V30 4650 C 427.324 1.30492 6.54621 0
M  V30 4651 H 426.594 -0.253558 0.696268 0
M  V30 4652 H 429.241 0.0474123 1.91441 0
M  V30 4653 H 427.546 -2.1936 3.24636 0
M  V30 4654 H 429.243 -1.9163 3.52249 0
M  V30 4655 H 425.833 -0.671153 4.23313 0
M  V30 4656 H 430.017 -0.0160756 4.96297 0
M  V30 4657 H 425.273 0.88803 6.04917 0
M  V30 4658 H 429.447 1.53851 6.79193 0
M  V30 4659 H 427.074 1.99662 7.33512 0
M  V30 4660 N 428.649 -1.55105 -0.279332 0
M  V30 4661 C 429.579 -1.90557 -1.34945 0
M  V30 4662 C 430.56 -0.766738 -1.51839 0
M  V30 4663 O 431.745 -1.02434 -1.64988 0
M  V30 4664 C 428.875 -2.17193 -2.71006 0
M  V30 4665 C 427.829 -3.33021 -2.68851 0
M  V30 4666 C 427.155 -3.45123 -4.08405 0
M  V30 4667 C 428.455 -4.69578 -2.28678 0
M  V30 4668 H 430.149 -2.80188 -1.05522 0
M  V30 4669 H 427.695 -1.34811 -0.506173 0
M  V30 4670 H 429.648 -2.40581 -3.45975 0
M  V30 4671 H 428.372 -1.24355 -3.01999 0
M  V30 4672 H 427.031 -3.0959 -1.9634 0
M  V30 4673 H 426.679 -2.49762 -4.3661 0
M  V30 4674 H 426.379 -4.22995 -4.07859 0
M  V30 4675 H 427.903 -3.70796 -4.85121 0
M  V30 4676 H 429.317 -4.92553 -2.93368 0
M  V30 4677 H 427.714 -5.5032 -2.39306 0
M  V30 4678 H 428.784 -4.68828 -1.23807 0
M  V30 4679 N 430.127 0.543554 -1.4793 0
M  V30 4680 C 431.075 1.67039 -1.61866 0
M  V30 4681 C 432.069 1.62294 -0.48549 0
M  V30 4682 O 433.275 1.67315 -0.66376 0
M  V30 4683 H 429.65 0.552954 -0.509652 0
M  V30 4684 H 431.621 1.52426 -2.56533 0
M  V30 4685 C 430.37 3.05357 -1.6629 0
M  V30 4686 H 429.693 3.09696 -2.5284 0
M  V30 4687 H 431.133 3.83855 -1.80088 0
M  V30 4688 C 429.592 3.34531 -0.398861 0
M  V30 4689 O 430.122 3.98649 0.494162 0
M  V30 4690 N 428.328 2.89299 -0.2747 0
M  V30 4691 H 427.875 2.37298 -1.00236 0
M  V30 4692 H 427.833 3.09188 0.570075 0
M  V30 4693 N 431.605 1.3629 0.791371 0
M  V30 4694 C 432.552 1.30458 1.90393 0
M  V30 4695 C 433.522 0.173632 1.6519 0
M  V30 4696 O 434.707 0.35983 1.87376 0
M  V30 4697 C 431.847 1.09777 3.27174 0
M  V30 4698 C 430.96 2.31929 3.64462 0
M  V30 4699 C 430.095 2.04276 4.90352 0
M  V30 4700 C 429.134 3.224 5.20312 0
M  V30 4701 N 428.271 2.94424 6.37385 0
M  V30 4702 H 433.111 2.25589 1.94714 0
M  V30 4703 H 430.648 1.12122 0.952216 0
M  V30 4704 H 432.606 0.958133 4.06049 0
M  V30 4705 H 431.236 0.183014 3.22281 0
M  V30 4706 H 430.288 2.56703 2.80727 0
M  V30 4707 H 431.6 3.20085 3.82553 0
M  V30 4708 H 430.754 1.87231 5.77087 0
M  V30 4709 H 429.493 1.13428 4.74326 0
M  V30 4710 H 428.498 3.40005 4.32061 0
M  V30 4711 H 429.723 4.14071 5.38258 0
M  V30 4712 H 427.669 2.06185 6.22755 0
M  V30 4713 H 427.586 3.76118 6.55798 0
M  V30 4714 H 428.854 2.80953 7.27108 0
M  V30 4715 N 433.083 -1.0153 1.20538 0
M  V30 4716 C 434.015 -2.10224 0.913155 0
M  V30 4717 C 435.028 -1.62495 -0.0995998 0
M  V30 4718 O 436.217 -1.78014 0.131582 0
M  V30 4719 C 433.317 -3.37111 0.347717 0
M  V30 4720 C 432.49 -4.13971 1.41233 0
M  V30 4721 C 431.549 -5.19158 0.857976 0
M  V30 4722 O 430.575 -5.48 1.53897 0
M  V30 4723 N 431.777 -5.7955 -0.331966 0
M  V30 4724 H 434.542 -2.35879 1.84881 0
M  V30 4725 H 432.103 -1.17931 1.10923 0
M  V30 4726 H 434.095 -4.04683 -0.0373026 0
M  V30 4727 H 432.665 -3.08696 -0.492527 0
M  V30 4728 H 431.885 -3.41351 1.97163 0
M  V30 4729 H 433.173 -4.62103 2.12928 0
M  V30 4730 H 432.571 -5.58455 -0.902478 0
M  V30 4731 H 431.128 -6.48464 -0.65861 0
M  V30 4732 N 434.561 -1.01147 -1.20859 0
M  V30 4733 C 435.838 -0.613136 -1.85742 0
M  V30 4734 C 436.218 0.909004 -1.90526 0
M  V30 4735 O 435.566 1.79862 -1.40932 0
M  V30 4736 C 435.776 -1.255 -3.25654 0
M  V30 4737 C 437.124 -1.3672 -4.01986 0
M  V30 4738 O 438.148 -1.21082 -3.34989 0
M  V30 4739 O 437.007 -1.6194 -5.21956 0
M  V30 4740 H 434.101 -0.210878 -0.799662 0
M  V30 4741 H 436.647 -1.10853 -1.2849 0
M  V30 4742 H 435.419 -2.29532 -3.16908 0
M  V30 4743 H 435.042 -0.746369 -3.90532 0
M  V30 4744 N 436.039 1.36541 -0.78704 0
M  V30 4745 C 436.969 2.32659 -0.197992 0
M  V30 4746 C 437.95 1.56533 0.665697 0
M  V30 4747 O 439.135 1.84698 0.60001 0
M  V30 4748 C 436.265 3.40778 0.669901 0
M  V30 4749 C 435.219 4.27897 -0.0937039 0
M  V30 4750 C 434.545 5.27163 0.894629 0
M  V30 4751 C 435.845 5.06334 -1.28154 0
M  V30 4752 H 437.539 2.82171 -1.00099 0
M  V30 4753 H 435.085 1.35665 -0.482793 0
M  V30 4754 H 437.038 4.07008 1.09191 0
M  V30 4755 H 435.762 2.89827 1.50558 0
M  V30 4756 H 434.421 3.6322 -0.49666 0
M  V30 4757 H 434.069 4.72486 1.72527 0
M  V30 4758 H 433.769 5.86317 0.388149 0
M  V30 4759 H 435.293 5.96266 1.31525 0
M  V30 4760 H 436.707 5.65617 -0.93541 0
M  V30 4761 H 435.104 5.74888 -1.72115 0
M  V30 4762 H 436.174 4.38114 -2.07807 0
M  V30 4763 N 437.518 0.538854 1.48102 0
M  V30 4764 C 438.448 -0.207654 2.32575 0
M  V30 4765 C 439.429 -0.926559 1.4265 0
M  V30 4766 O 440.614 -0.91061 1.71527 0
M  V30 4767 C 437.744 -1.24957 3.24042 0
M  V30 4768 C 436.698 -0.648263 4.23062 0
M  V30 4769 C 436.024 -1.79348 5.03725 0
M  V30 4770 C 437.324 0.385897 5.20872 0
M  V30 4771 H 439.018 0.497534 2.95237 0
M  V30 4772 H 436.564 0.240715 1.41974 0
M  V30 4773 H 438.517 -1.77983 3.81969 0
M  V30 4774 H 437.241 -1.98446 2.59397 0
M  V30 4775 H 435.9 -0.139452 3.66335 0
M  V30 4776 H 435.548 -2.51696 4.35498 0
M  V30 4777 H 435.248 -1.39702 5.70751 0
M  V30 4778 H 436.772 -2.32735 5.64506 0
M  V30 4779 H 438.186 -0.057607 5.73271 0
M  V30 4780 H 436.583 0.700227 5.96001 0
M  V30 4781 H 437.653 1.28848 4.67468 0
M  V30 4782 N 438.996 -1.55193 0.274407 0
M  V30 4783 C 439.959 -2.212 -0.600279 0
M  V30 4784 C 440.959 -1.18963 -1.08187 0
M  V30 4785 O 442.149 -1.43873 -0.982158 0
M  V30 4786 C 439.281 -2.87739 -1.82809 0
M  V30 4787 H 440.474 -2.9989 -0.0239682 0
M  V30 4788 H 438.027 -1.5628 0.0250192 0
M  V30 4789 H 438.762 -2.13058 -2.44493 0
M  V30 4790 H 438.547 -3.62658 -1.49069 0
M  V30 4791 H 440.037 -3.38171 -2.45011 0
M  V30 4792 N 440.474 -0.00167713 -1.576 0
M  V30 4793 C 441.384 1.00548 -2.1196 0
M  V30 4794 C 442.4 1.3758 -1.06526 0
M  V30 4795 O 443.576 1.46278 -1.38436 0
M  V30 4796 C 440.641 2.27809 -2.6135 0
M  V30 4797 C 439.702 1.97074 -3.81393 0
M  V30 4798 C 438.935 3.18267 -4.28417 0
M  V30 4799 O 439.158 4.30009 -3.74765 0
M  V30 4800 O 438.092 3.02167 -5.20556 0
M  V30 4801 H 441.918 0.573373 -2.98238 0
M  V30 4802 H 439.503 0.217255 -1.47812 0
M  V30 4803 H 441.385 3.02568 -2.93309 0
M  V30 4804 H 440.06 2.70254 -1.78169 0
M  V30 4805 H 438.967 1.19785 -3.54404 0
M  V30 4806 H 440.3 1.59464 -4.65652 0
M  V30 4807 N 441.952 1.55251 0.271103 0
M  V30 4808 C 442.899 1.88261 1.33516 0
M  V30 4809 C 443.869 0.734296 1.48988 0
M  V30 4810 O 445.054 0.985741 1.63364 0
M  V30 4811 C 442.194 2.16168 2.69008 0
M  V30 4812 C 441.307 3.43678 2.61743 0
M  V30 4813 C 440.442 3.61276 3.89427 0
M  V30 4814 C 439.481 4.82472 3.7668 0
M  V30 4815 N 438.618 4.96717 4.96202 0
M  V30 4816 H 443.458 2.79015 1.04665 0
M  V30 4817 H 440.995 1.38137 0.505618 0
M  V30 4818 H 442.953 2.30349 3.47844 0
M  V30 4819 H 441.583 1.28646 2.96057 0
M  V30 4820 H 440.635 3.37959 1.74607 0
M  V30 4821 H 441.947 4.3265 2.48224 0
M  V30 4822 H 441.101 3.75284 4.76704 0
M  V30 4823 H 439.84 2.70492 4.05814 0
M  V30 4824 H 438.845 4.68465 2.87786 0
M  V30 4825 H 440.07 5.74692 3.61809 0
M  V30 4826 H 438.016 4.08865 5.12997 0
M  V30 4827 H 437.933 5.79738 4.85222 0
M  V30 4828 H 439.201 5.15113 5.85046 0
M  V30 4829 N 443.43 -0.535701 1.48216 0
M  V30 4830 C 444.676 -1.29375 1.56173 0
M  V30 4831 C 445.009 -1.92804 0.232429 0
M  V30 4832 O 444.284 -1.78992 -0.761048 0
M  V30 4833 C 444.567 -2.38747 2.69577 0
M  V30 4834 C 444.42 -1.80046 4.12193 0
M  V30 4835 C 445.739 -3.40551 2.78771 0
M  V30 4836 H 442.858 -0.469027 0.568491 0
M  V30 4837 H 445.5 -0.597358 1.80365 0
M  V30 4838 H 443.65 -2.98147 2.4908 0
M  V30 4839 H 445.322 -1.24742 4.44114 0
M  V30 4840 H 443.565 -1.10609 4.19462 0
M  V30 4841 H 444.236 -2.59212 4.87353 0
M  V30 4842 H 446.712 -2.91099 2.97322 0
M  V30 4843 H 445.588 -4.1448 3.59857 0
M  V30 4844 H 445.849 -4.00746 1.86696 0
M  V30 4845 N 444.908 -1.36708 -0.784132 0
M  V30 4846 C 445.838 -1.34153 -1.91116 0
M  V30 4847 C 446.819 -0.212121 -1.68772 0
M  V30 4848 O 448.004 -0.410581 -1.8981 0
M  V30 4849 C 445.134 -1.13535 -3.28218 0
M  V30 4850 C 444.088 -2.23356 -3.65097 0
M  V30 4851 C 443.414 -1.87875 -5.00607 0
M  V30 4852 C 444.714 -3.65473 -3.73131 0
M  V30 4853 H 446.408 -2.28459 -1.93512 0
M  V30 4854 H 443.954 -1.09973 -0.929618 0
M  V30 4855 H 445.907 -1.10381 -4.06687 0
M  V30 4856 H 444.631 -0.156804 -3.26223 0
M  V30 4857 H 443.29 -2.25645 -2.88929 0
M  V30 4858 H 442.938 -0.885814 -4.95139 0
M  V30 4859 H 442.638 -2.61406 -5.26252 0
M  V30 4860 H 444.162 -1.86286 -5.81489 0
M  V30 4861 H 445.576 -3.65382 -4.41779 0
M  V30 4862 H 443.973 -4.37953 -4.10265 0
M  V30 4863 H 445.043 -3.99995 -2.74102 0
M  V30 4864 N 446.386 1.0089 -1.21074 0
M  V30 4865 C 447.349 2.0775 -0.968129 0
M  V30 4866 C 448.349 1.6069 0.0593445 0
M  V30 4867 O 449.539 1.73293 -0.177525 0
M  V30 4868 C 446.671 3.37794 -0.459108 0
M  V30 4869 H 447.864 2.30707 -1.9161 0
M  V30 4870 H 445.417 1.17807 -1.02719 0
M  V30 4871 H 446.152 3.20516 0.49397 0
M  V30 4872 H 445.937 3.7328 -1.20019 0
M  V30 4873 H 447.427 4.16454 -0.309099 0
M  V30 4874 N 447.864 1.01787 1.20321 0
M  V30 4875 C 449.112 0.706538 1.89347 0
M  V30 4876 C 449.433 -0.766289 1.79313 0
M  V30 4877 O 448.703 -1.55126 1.19635 0
M  V30 4878 H 447.283 0.258348 0.700903 0
M  V30 4879 H 449.945 1.28974 1.46122 0
M  V30 4880 H 449.041 0.991066 2.95946 0
M  V30 4881 N 449.342 -1.36122 0.79427 0
M  V30 4882 C 450.289 -2.29982 0.194101 0
M  V30 4883 C 451.259 -1.52214 -0.664833 0
M  V30 4884 O 452.444 -1.80702 -0.612498 0
M  V30 4885 C 449.584 -3.38706 -0.661244 0
M  V30 4886 C 448.697 -4.31456 0.216766 0
M  V30 4887 C 447.832 -5.27265 -0.645411 0
M  V30 4888 C 446.871 -6.11653 0.233756 0
M  V30 4889 N 446.008 -6.99636 -0.587682 0
M  V30 4890 H 450.848 -2.80722 0.999965 0
M  V30 4891 H 448.385 -1.38172 0.504677 0
M  V30 4892 H 450.343 -4.00394 -1.17219 0
M  V30 4893 H 448.973 -2.89274 -1.43249 0
M  V30 4894 H 448.025 -3.7088 0.845724 0
M  V30 4895 H 449.337 -4.90724 0.893973 0
M  V30 4896 H 448.491 -5.94266 -1.22198 0
M  V30 4897 H 447.23 -4.68463 -1.35623 0
M  V30 4898 H 446.235 -5.4361 0.82269 0
M  V30 4899 H 447.46 -6.72531 0.942247 0
M  V30 4900 H 445.406 -6.43337 -1.2827 0
M  V30 4901 H 445.323 -7.55993 0.0317402 0
M  V30 4902 H 446.591 -7.71001 -1.14792 0
M  V30 4903 N 450.82 -0.546701 -1.47814 0
M  V30 4904 C 452.045 -0.021268 -2.07389 0
M  V30 4905 C 452.47 1.25822 -1.39822 0
M  V30 4906 O 451.828 1.75111 -0.46968 0
M  V30 4907 C 451.876 0.168502 -3.60206 0
M  V30 4908 O 450.98 1.23347 -3.93522 0
M  V30 4909 H 450.321 -0.0466108 -0.662362 0
M  V30 4910 H 452.851 -0.759387 -1.89985 0
M  V30 4911 H 452.861 0.385982 -4.0617 0
M  V30 4912 H 451.536 -0.766075 -4.08784 0
M  V30 4913 H 450.113 0.997319 -3.59316 0
M  V30 4914 N 452.299 1.55045 -0.282633 0
M  V30 4915 C 453.246 2.22822 0.601566 0
M  V30 4916 C 454.216 1.20431 1.14392 0
M  V30 4917 O 455.401 1.48996 1.19184 0
M  V30 4918 C 452.541 2.95873 1.77632 0
M  V30 4919 C 451.654 4.12999 1.26711 0
M  V30 4920 C 450.789 4.73676 2.40426 0
M  V30 4921 C 449.828 5.82981 1.86545 0
M  V30 4922 N 448.965 6.3769 2.93762 0
M  V30 4923 H 453.805 2.97995 0.0169528 0
M  V30 4924 H 451.342 1.471 -0.00339964 0
M  V30 4925 H 453.3 3.36447 2.46697 0
M  V30 4926 H 451.93 2.2311 2.33285 0
M  V30 4927 H 450.982 3.77494 0.469314 0
M  V30 4928 H 452.294 4.91803 0.832518 0
M  V30 4929 H 451.448 5.17008 3.17471 0
M  V30 4930 H 450.187 3.94164 2.87203 0
M  V30 4931 H 449.192 5.39092 1.07983 0
M  V30 4932 H 450.417 6.64366 1.40694 0
M  V30 4933 H 448.363 5.61069 3.39908 0
M  V30 4934 H 448.28 7.11788 2.54744 0
M  V30 4935 H 449.548 6.8568 3.7076 0
M  V30 4936 N 453.777 0.010035 1.57597 0
M  V30 4937 C 455.026 -0.671945 1.90178 0
M  V30 4938 C 455.339 -1.74376 0.886131 0
M  V30 4939 O 456.545 -2.48107 1.10252 0
M  V30 4940 C 455.001 -1.24636 3.3763 0
M  V30 4941 C 454.609 -0.208838 4.47513 0
M  V30 4942 C 456.353 -1.90595 3.79307 0
M  V30 4943 C 454.26 -0.793814 5.86048 0
M  V30 4944 H 453.19 -0.25474 0.709665 0
M  V30 4945 H 455.841 0.0722206 1.83358 0
M  V30 4946 H 454.223 -2.04152 3.3932 0
M  V30 4947 H 455.397 0.562463 4.57354 0
M  V30 4948 H 453.712 0.350889 4.14919 0
M  V30 4949 H 456.309 -2.35284 4.80151 0
M  V30 4950 H 456.652 -2.74074 3.13352 0
M  V30 4951 H 457.185 -1.17798 3.79958 0
M  V30 4952 H 453.924 0.00240855 6.555 0
M  V30 4953 H 453.444 -1.53404 5.79851 0
M  V30 4954 H 455.123 -1.2894 6.34022 0
M  V30 4955 N 455.255 -1.55392 -0.262866 0
M  V30 4956 C 456.165 -1.92077 -1.34698 0
M  V30 4957 C 457.181 -0.819227 -1.53508 0
M  V30 4958 O 458.357 -1.11921 -1.67439 0
M  V30 4959 C 455.422 -2.19407 -2.68443 0
M  V30 4960 C 454.483 -3.42905 -2.58292 0
M  V30 4961 C 453.716 -3.68921 -3.85659 0
M  V30 4962 O 453.939 -2.97275 -4.8681 0
M  V30 4963 O 452.873 -4.62455 -3.85252 0
M  V30 4964 H 456.699 -2.84384 -1.06581 0
M  V30 4965 H 454.284 -1.42069 -0.462264 0
M  V30 4966 H 456.166 -2.38365 -3.47506 0
M  V30 4967 H 454.841 -1.30282 -2.96325 0
M  V30 4968 H 453.748 -3.29272 -1.7757 0
M  V30 4969 H 455.081 -4.32282 -2.35358 0
M  V30 4970 N 456.733 0.527833 -1.48498 0
M  V30 4971 C 458.01 1.28905 -1.47115 0
M  V30 4972 C 458.39 2.10297 -0.184007 0
M  V30 4973 O 457.738 2.12728 0.834218 0
M  V30 4974 C 457.948 2.16866 -2.73441 0
M  V30 4975 C 459.296 2.76936 -3.21857 0
M  V30 4976 O 460.32 2.27152 -2.74373 0
M  V30 4977 O 459.179 3.67496 -4.04486 0
M  V30 4978 H 456.273 0.581918 -0.587623 0
M  V30 4979 H 458.819 0.544311 -1.60734 0
M  V30 4980 H 457.591 1.56521 -3.58632 0
M  V30 4981 H 457.214 2.98583 -2.62553 0
M  V30 4982 N 458.211 1.37122 0.776871 0
M  V30 4983 C 459.441 1.35034 1.56363 0
M  V30 4984 C 459.849 -0.0674681 1.8908 0
M  V30 4985 O 459.192 -1.03826 1.51545 0
M  V30 4986 C 459.254 2.11894 2.90415 0
M  V30 4987 C 458.918 3.60897 2.80362 0
M  V30 4988 C 459.915 4.54887 2.51742 0
M  V30 4989 C 457.6 4.03951 2.98545 0
M  V30 4990 C 459.594 5.89909 2.41426 0
M  V30 4991 C 457.281 5.3906 2.87849 0
M  V30 4992 C 458.279 6.31852 2.5933 0
M  V30 4993 O 457.967 7.64479 2.48651 0
M  V30 4994 H 457.699 0.464402 0.49123 0
M  V30 4995 H 460.253 1.80992 0.971127 0
M  V30 4996 H 458.483 1.60618 3.51765 0
M  V30 4997 H 460.172 2.02505 3.51776 0
M  V30 4998 H 460.938 4.22934 2.37385 0
M  V30 4999 H 456.817 3.3209 3.19746 0
M  V30 5000 H 460.361 6.62304 2.19086 0
M  V30 5001 H 456.258 5.70617 3.01773 0
M  V30 5002 H 457.026 7.74742 2.64039 0
M  V30 5003 N 459.689 -1.00246 1.21608 0
M  V30 5004 C 460.936 -1.74061 1.03485 0
M  V30 5005 C 461.264 -1.89658 -0.431308 0
M  V30 5006 O 460.519 -1.42976 -1.33627 0
M  V30 5007 C 460.818 -3.15448 1.68009 0
M  V30 5008 C 460.484 -3.19792 3.17874 0
M  V30 5009 C 459.146 -3.20685 3.58768 0
M  V30 5010 C 461.498 -3.16835 4.13842 0
M  V30 5011 C 458.826 -3.16309 4.94131 0
M  V30 5012 C 461.178 -3.14001 5.49169 0
M  V30 5013 C 459.842 -3.13204 5.89457 0
M  V30 5014 H 459.112 -0.636934 0.378677 0
M  V30 5015 H 461.759 -1.17473 1.51236 0
M  V30 5016 H 460.064 -3.75284 1.12557 0
M  V30 5017 H 461.761 -3.71285 1.51487 0
M  V30 5018 H 458.351 -3.19842 2.85305 0
M  V30 5019 H 462.535 -3.15303 3.83272 0
M  V30 5020 H 457.791 -3.14032 5.24589 0
M  V30 5021 H 461.965 -3.10667 6.23265 0
M  V30 5022 H 459.592 -3.09568 6.94314 0
M  V30 5023 N 461.167 -1.02423 -1.1978 0
M  V30 5024 C 462.578 -0.748389 -1.71044 0
M  V30 5025 C 462.929 0.732398 -1.82017 0
M  V30 5026 O 462.054 1.57116 -1.48807 0
M  V30 5027 C 462.649 -1.35187 -3.1066 0
M  V30 5028 C 461.208 -1.12472 -3.59203 0
M  V30 5029 C 460.355 -1.45283 -2.36195 0
M  V30 5030 H 463.306 -1.19275 -1.04686 0
M  V30 5031 H 463.327 -0.746408 -3.73107 0
M  V30 5032 H 462.839 -2.4296 -3.02642 0
M  V30 5033 H 460.94 -0.0649983 -3.72543 0
M  V30 5034 H 461.053 -1.81016 -4.43588 0
M  V30 5035 H 459.417 -0.872034 -2.39307 0
M  V30 5036 H 460.2 -2.54129 -2.30811 0
M  V30 5037 N 462.645 1.35699 -0.801477 0
M  V30 5038 C 463.555 2.33661 -0.209691 0
M  V30 5039 C 464.571 1.6162 0.644591 0
M  V30 5040 O 465.747 1.93529 0.557545 0
M  V30 5041 C 462.812 3.40816 0.636033 0
M  V30 5042 C 461.873 4.28639 -0.238147 0
M  V30 5043 C 461.106 5.30676 0.567307 0
M  V30 5044 O 461.329 5.41174 1.8024 0
M  V30 5045 O 460.263 6.01887 -0.0391336 0
M  V30 5046 H 464.089 2.8606 -1.01996 0
M  V30 5047 H 461.674 1.38379 -0.563164 0
M  V30 5048 H 463.556 4.06301 1.11791 0
M  V30 5049 H 462.231 2.90696 1.42399 0
M  V30 5050 H 461.138 3.66152 -0.767044 0
M  V30 5051 H 462.471 4.82143 -0.989915 0
M  V30 5052 N 464.123 0.554532 1.47522 0
M  V30 5053 C 465.37 0.029479 2.02479 0
M  V30 5054 C 465.698 -1.31929 1.42916 0
M  V30 5055 O 464.953 -1.87112 0.573385 0
M  V30 5056 C 465.252 -0.115927 3.57212 0
M  V30 5057 C 464.918 1.16161 4.3568 0
M  V30 5058 C 463.58 1.51168 4.56839 0
M  V30 5059 C 465.932 2.0083 4.80954 0
M  V30 5060 C 463.26 2.70696 5.2052 0
M  V30 5061 C 465.612 3.19559 5.45953 0
M  V30 5062 C 464.276 3.54882 5.65345 0
M  V30 5063 H 463.546 0.0107871 0.740921 0
M  V30 5064 H 466.193 0.725506 1.77225 0
M  V30 5065 H 464.498 -0.894902 3.81443 0
M  V30 5066 H 466.195 -0.53749 3.97381 0
M  V30 5067 H 462.785 0.879026 4.19489 0
M  V30 5068 H 466.969 1.75093 4.64388 0
M  V30 5069 H 462.225 2.98236 5.33728 0
M  V30 5070 H 466.399 3.85456 5.79997 0
M  V30 5071 H 464.026 4.47596 6.1446 0
M  V30 5072 N 465.601 -1.54893 0.290851 0
M  V30 5073 C 466.564 -2.21824 -0.576784 0
M  V30 5074 C 467.564 -1.20104 -1.06919 0
M  V30 5075 O 468.754 -1.44906 -0.966843 0
M  V30 5076 C 465.886 -2.89662 -1.79747 0
M  V30 5077 H 467.079 -2.99899 0.00784051 0
M  V30 5078 H 464.632 -1.56245 0.0415934 0
M  V30 5079 H 465.367 -2.15639 -2.42219 0
M  V30 5080 H 465.152 -3.64219 -1.45214 0
M  V30 5081 H 466.642 -3.4075 -2.4141 0
M  V30 5082 N 467.08 -0.0183926 -1.57589 0
M  V30 5083 C 468.496 0.337897 -1.55982 0
M  V30 5084 C 468.696 1.73604 -1.02294 0
M  V30 5085 O 467.752 2.43589 -0.664895 0
M  V30 5086 C 469.065 0.196305 -3.00059 0
M  V30 5087 C 470.613 0.269875 -3.11834 0
M  V30 5088 C 471.088 0.157197 -4.5773 0
M  V30 5089 N 472.579 0.214521 -4.62703 0
M  V30 5090 C 473.314 0.150955 -5.73201 0
M  V30 5091 N 472.81 0.0369212 -6.9279 0
M  V30 5092 N 474.603 0.204162 -5.61729 0
M  V30 5093 H 466.754 -0.93279 -1.90821 0
M  V30 5094 H 469.017 -0.359253 -0.877292 0
M  V30 5095 H 468.723 -0.766383 -3.43248 0
M  V30 5096 H 468.597 0.970908 -3.6449 0
M  V30 5097 H 470.984 1.22302 -2.68563 0
M  V30 5098 H 471.065 -0.534918 -2.50144 0
M  V30 5099 H 470.709 -0.792479 -5.01679 0
M  V30 5100 H 470.639 0.980717 -5.17387 0
M  V30 5101 H 473.13 0.303238 -3.76681 0
M  V30 5102 H 473.443 -0.00518321 -7.728 0
M  V30 5103 H 471.788 0.0022886 -6.95 0
M  V30 5104 H 474.979 0.291575 -4.67191 0
M  V30 5105 H 475.152 0.15116 -6.47824 0
M  V30 5106 N 468.558 1.5553 0.254621 0
M  V30 5107 C 469.788 1.80784 1.00004 0
M  V30 5108 C 470.196 0.59071 1.79742 0
M  V30 5109 O 469.539 -0.449988 1.78103 0
M  V30 5110 C 469.601 2.99268 1.99196 0
M  V30 5111 C 469.265 4.35595 1.38224 0
M  V30 5112 C 470.262 5.13884 0.788611 0
M  V30 5113 C 467.947 4.82281 1.40393 0
M  V30 5114 C 469.941 6.37004 0.224783 0
M  V30 5115 C 467.628 6.05351 0.836243 0
M  V30 5116 C 468.626 6.82551 0.24769 0
M  V30 5117 O 468.314 8.03297 -0.311249 0
M  V30 5118 H 468.046 0.60565 0.300274 0
M  V30 5119 H 470.6 2.03411 0.285143 0
M  V30 5120 H 468.83 2.72377 2.74496 0
M  V30 5121 H 470.519 3.11682 2.60018 0
M  V30 5122 H 471.285 4.78938 0.764423 0
M  V30 5123 H 467.164 4.22189 1.85142 0
M  V30 5124 H 470.708 6.97203 -0.235235 0
M  V30 5125 H 466.605 6.39776 0.857733 0
M  V30 5126 H 467.373 8.1825 -0.20237 0
M  V30 5127 N 470.036 -0.519951 1.48776 0
M  V30 5128 C 471.264 -1.29971 1.60982 0
M  V30 5129 C 471.679 -1.86803 0.273885 0
M  V30 5130 O 471.036 -1.66904 -0.738193 0
M  V30 5131 C 471.087 -2.44346 2.66415 0
M  V30 5132 O 470.808 -1.89855 3.94825 0
M  V30 5133 C 472.309 -3.36014 2.89153 0
M  V30 5134 H 469.529 -0.394891 0.542496 0
M  V30 5135 H 472.073 -0.626214 1.94676 0
M  V30 5136 H 470.228 -3.07562 2.35552 0
M  V30 5137 H 470.642 -2.64798 4.5275 0
M  V30 5138 H 472.116 -4.12593 3.66703 0
M  V30 5139 H 472.593 -3.91859 1.98351 0
M  V30 5140 H 473.199 -2.78582 3.21359 0
M  V30 5141 N 471.514 -1.37532 -0.769588 0
M  V30 5142 C 472.742 -1.36059 -1.55871 0
M  V30 5143 C 473.157 0.053544 -1.88724 0
M  V30 5144 O 472.514 1.01591 -1.5161 0
M  V30 5145 C 472.565 -2.20107 -2.86767 0
M  V30 5146 O 472.286 -3.56009 -2.55321 0
M  V30 5147 C 473.787 -2.26636 -3.80987 0
M  V30 5148 H 471.007 -0.465967 -0.482821 0
M  V30 5149 H 473.551 -1.80901 -0.953686 0
M  V30 5150 H 471.706 -1.78768 -3.43687 0
M  V30 5151 H 472.12 -4.0009 -3.39158 0
M  V30 5152 H 473.594 -2.89763 -4.69831 0
M  V30 5153 H 474.071 -1.2754 -4.20274 0
M  V30 5154 H 474.677 -2.68296 -3.29996 0
M  V30 5155 N 472.992 0.995999 -1.22138 0
M  V30 5156 C 474.403 1.54961 -1.04135 0
M  V30 5157 C 474.754 1.92159 0.396147 0
M  V30 5158 O 473.879 1.74435 1.28069 0
M  V30 5159 C 474.474 2.81581 -1.88408 0
M  V30 5160 C 473.033 3.33396 -1.74712 0
M  V30 5161 C 472.18 2.06509 -1.85066 0
M  V30 5162 H 475.131 0.817436 -1.36028 0
M  V30 5163 H 475.152 3.53822 -1.39966 0
M  V30 5164 H 474.664 2.54476 -2.93025 0
M  V30 5165 H 472.765 3.65416 -0.728159 0
M  V30 5166 H 472.878 4.04208 -2.57202 0
M  V30 5167 H 471.242 2.19925 -1.28472 0
M  V30 5168 H 472.025 1.81804 -2.91208 0
M  V30 5169 N 474.47 1.03057 1.19235 0
M  V30 5170 C 475.38 0.622922 2.26179 0
M  V30 5171 C 476.396 -0.346113 1.70523 0
M  V30 5172 O 477.572 -0.203572 2.00369 0
M  V30 5173 C 474.637 -0.0182063 3.46695 0
M  V30 5174 C 473.698 0.998546 4.17526 0
M  V30 5175 C 472.931 0.387917 5.32288 0
M  V30 5176 O 473.154 -0.808668 5.64639 0
M  V30 5177 O 472.088 1.1116 5.91546 0
M  V30 5178 H 475.914 1.51363 2.63292 0
M  V30 5179 H 473.499 0.800856 1.26122 0
M  V30 5180 H 475.381 -0.375606 4.19723 0
M  V30 5181 H 474.056 -0.882895 3.11427 0
M  V30 5182 H 472.963 1.40756 3.4661 0
M  V30 5183 H 474.296 1.83366 4.56769 0
M  V30 5184 N 475.948 -1.35272 0.808662 0
M  V30 5185 C 477.225 -1.93077 0.313181 0
M  V30 5186 C 477.605 -1.73847 -1.19752 0
M  V30 5187 O 476.953 -1.1087 -1.998 0
M  V30 5188 C 477.163 -3.41347 0.726859 0
M  V30 5189 C 478.511 -4.18493 0.717532 0
M  V30 5190 O 479.535 -3.4987 0.668535 0
M  V30 5191 O 478.394 -5.40937 0.777779 0
M  V30 5192 H 475.488 -0.822885 0.0824018 0
M  V30 5193 H 478.034 -1.44335 0.892499 0
M  V30 5194 H 476.806 -3.49082 1.76797 0
M  V30 5195 H 476.429 -3.97411 0.122461 0
M  V30 5196 N 477.426 -0.562348 -1.47226 0
M  V30 5197 C 478.389 0.172056 -2.28553 0
M  V30 5198 C 479.389 0.837928 -1.37242 0
M  V30 5199 O 480.579 0.693001 -1.59822 0
M  V30 5200 C 477.711 1.25223 -3.17068 0
M  V30 5201 H 478.904 -0.542401 -2.94954 0
M  V30 5202 H 476.457 -0.319493 -1.53 0
M  V30 5203 H 477.192 1.99892 -2.55369 0
M  V30 5204 H 476.977 0.779515 -3.84273 0
M  V30 5205 H 478.467 1.76791 -3.78332 0
M  V30 5206 N 478.904 1.54736 -0.299062 0
M  V30 5207 C 480.132 2.04512 0.313447 0
M  V30 5208 C 480.547 1.17643 1.47667 0
M  V30 5209 O 479.904 0.20164 1.81383 0
M  V30 5210 C 479.955 3.53171 0.771542 0
M  V30 5211 O 479.676 4.36736 -0.345379 0
M  V30 5212 C 481.177 4.18936 1.4494 0
M  V30 5213 H 478.397 0.667507 0.0683784 0
M  V30 5214 H 480.941 1.99752 -0.438129 0
M  V30 5215 H 479.096 3.58298 1.47314 0
M  V30 5216 H 479.51 5.24499 0.0109219 0
M  V30 5217 H 480.984 5.24482 1.72111 0
M  V30 5218 H 481.461 3.68554 2.38883 0
M  V30 5219 H 482.067 4.17879 0.791028 0
M  V30 5220 N 480.382 0.0267497 1.57577 0
M  V30 5221 C 481.793 -0.512413 1.79531 0
M  V30 5222 C 482.144 -1.72391 0.936791 0
M  V30 5223 O 481.269 -2.15903 0.146543 0
M  V30 5224 C 481.864 -0.936378 3.25603 0
M  V30 5225 C 480.423 -1.42067 3.4856 0
M  V30 5226 C 479.57 -0.384278 2.74624 0
M  V30 5227 H 482.521 0.252797 1.56674 0
M  V30 5228 H 482.542 -1.80088 3.35184 0
M  V30 5229 H 482.054 -0.0544332 3.88062 0
M  V30 5230 H 480.155 -2.32262 2.9135 0
M  V30 5231 H 480.268 -1.42968 4.57271 0
M  V30 5232 H 478.632 -0.851855 2.40032 0
M  V30 5233 H 479.415 0.489159 3.39797 0
M  V30 5234 N 481.861 -1.55662 -0.24637 0
M  V30 5235 C 482.771 -1.93495 -1.32653 0
M  V30 5236 C 483.787 -0.835462 -1.5263 0
M  V30 5237 O 484.963 -1.1369 -1.66242 0
M  V30 5238 C 482.028 -2.22242 -2.66101 0
M  V30 5239 C 481.089 -3.45625 -2.54641 0
M  V30 5240 C 480.322 -3.72991 -3.81724 0
M  V30 5241 O 480.545 -3.02421 -4.8363 0
M  V30 5242 O 479.479 -4.66515 -3.80325 0
M  V30 5243 H 483.305 -2.85498 -1.03559 0
M  V30 5244 H 480.89 -1.42551 -0.44717 0
M  V30 5245 H 482.772 -2.42037 -3.44958 0
M  V30 5246 H 481.447 -1.33417 -2.94926 0
M  V30 5247 H 480.354 -3.31136 -1.74067 0
M  V30 5248 H 481.687 -4.34754 -2.3076 0
M  V30 5249 N 483.339 0.512053 -1.4905 0
M  V30 5250 C 484.75 1.09376 -1.51307 0
M  V30 5251 C 485.101 1.94 -0.292971 0
M  V30 5252 O 484.226 2.07965 0.598277 0
M  V30 5253 C 484.821 1.99031 -2.74176 0
M  V30 5254 C 483.38 2.52385 -2.79247 0
M  V30 5255 C 482.527 1.29749 -2.45073 0
M  V30 5256 H 485.478 0.296467 -1.55906 0
M  V30 5257 H 485.499 2.83569 -2.53711 0
M  V30 5258 H 485.011 1.37412 -3.62959 0
M  V30 5259 H 483.112 3.17673 -1.94716 0
M  V30 5260 H 483.225 2.90293 -3.81139 0
M  V30 5261 H 481.589 1.61912 -1.96612 0
M  V30 5262 H 482.372 0.698555 -3.36118 0
M  V30 5263 N 484.817 1.37938 0.762283 0
M  V30 5264 C 486.065 1.33404 1.51815 0
M  V30 5265 C 486.386 -0.0780975 1.94844 0
M  V30 5266 O 485.656 -1.02405 1.67003 0
M  V30 5267 H 484.236 0.490839 0.563104 0
M  V30 5268 H 486.898 1.72527 0.906669 0
M  V30 5269 H 485.994 1.97926 2.41313 0
M  V30 5270 N 486.295 -0.989507 1.22664 0
M  V30 5271 C 487.205 -2.11449 1.01619 0
M  V30 5272 C 488.221 -1.73962 -0.036545 0
M  V30 5273 O 489.397 -2.00788 0.156924 0
M  V30 5274 C 486.462 -3.41465 0.600204 0
M  V30 5275 C 485.523 -3.93033 1.72695 0
M  V30 5276 C 484.756 -5.16844 1.33071 0
M  V30 5277 O 484.979 -5.7001 0.210975 0
M  V30 5278 O 483.913 -5.6225 2.14845 0
M  V30 5279 H 487.739 -2.32088 1.9588 0
M  V30 5280 H 485.324 -1.09823 1.01289 0
M  V30 5281 H 487.206 -4.19695 0.37873 0
M  V30 5282 H 485.881 -3.22178 -0.313511 0
M  V30 5283 H 484.788 -3.15961 2.00298 0
M  V30 5284 H 486.121 -4.16758 2.61865 0
M  V30 5285 N 487.773 -1.03688 -1.18687 0
M  V30 5286 C 489.05 -0.652397 -1.84399 0
M  V30 5287 C 489.43 0.868386 -1.92412 0
M  V30 5288 O 488.778 1.76832 -1.44716 0
M  V30 5289 C 488.988 -1.3238 -3.22919 0
M  V30 5290 C 490.336 -1.45216 -3.98996 0
M  V30 5291 O 491.36 -1.2816 -3.32345 0
M  V30 5292 O 490.219 -1.72975 -5.18403 0
M  V30 5293 H 487.313 -0.227793 -0.795009 0
M  V30 5294 H 489.859 -1.13553 -1.2611 0
M  V30 5295 H 488.631 -2.36202 -3.11968 0
M  V30 5296 H 488.254 -0.829039 -3.88861 0
M  V30 5297 N 489.251 1.34841 -0.815825 0
M  V30 5298 C 490.662 1.80937 -0.46029 0
M  V30 5299 C 491.013 1.67685 1.01863 0
M  V30 5300 O 490.138 1.21277 1.79223 0
M  V30 5301 C 490.733 3.28509 -0.828708 0
M  V30 5302 C 489.292 3.72712 -0.525644 0
M  V30 5303 C 488.439 2.56676 -1.04941 0
M  V30 5304 H 491.39 1.22688 -1.00664 0
M  V30 5305 H 491.411 3.80279 -0.129757 0
M  V30 5306 H 490.923 3.38122 -1.90513 0
M  V30 5307 H 489.024 3.68642 0.541666 0
M  V30 5308 H 489.137 4.67119 -1.06474 0
M  V30 5309 H 487.501 2.50302 -0.471286 0
M  V30 5310 H 488.284 2.69063 -2.13214 0
M  V30 5311 N 490.729 0.570148 1.46925 0
M  V30 5312 C 492.145 0.23087 1.57921 0
M  V30 5313 C 492.345 -1.26676 1.56702 0
M  V30 5314 O 491.401 -2.04774 1.47729 0
M  V30 5315 C 492.714 0.868973 2.8787 0
M  V30 5316 C 494.262 0.841397 3.01479 0
M  V30 5317 C 494.737 1.45881 4.34146 0
M  V30 5318 N 496.228 1.42258 4.40814 0
M  V30 5319 C 496.963 1.8698 5.42057 0
M  V30 5320 N 496.459 2.39618 6.50042 0
M  V30 5321 N 498.252 1.77972 5.33181 0
M  V30 5322 H 490.403 1.54301 1.45962 0
M  V30 5323 H 492.666 0.644224 0.69547 0
M  V30 5324 H 492.372 1.922 2.94537 0
M  V30 5325 H 492.246 0.369682 3.75384 0
M  V30 5326 H 494.633 -0.202973 2.94401 0
M  V30 5327 H 494.714 1.37858 2.15474 0
M  V30 5328 H 494.358 2.50231 4.4198 0
M  V30 5329 H 494.288 0.896958 5.18905 0
M  V30 5330 H 496.779 1.03768 3.63374 0
M  V30 5331 H 497.092 2.71633 7.23488 0
M  V30 5332 H 495.437 2.43636 6.50897 0
M  V30 5333 H 498.628 1.36617 4.4772 0
M  V30 5334 H 498.801 2.13143 6.11943 0
M  V30 5335 N 492.207 -1.54576 0.307264 0
M  V30 5336 C 493.453 -2.0056 -0.300612 0
M  V30 5337 C 493.786 -1.1953 -1.53057 0
M  V30 5338 O 493.061 -0.27337 -1.92569 0
M  V30 5339 C 493.344 -3.54167 -0.650987 0
M  V30 5340 C 493.197 -4.45933 0.588539 0
M  V30 5341 C 494.516 -4.14645 -1.47506 0
M  V30 5342 H 491.635 -0.729075 -0.107788 0
M  V30 5343 H 494.277 -1.85286 0.420606 0
M  V30 5344 H 492.427 -3.67313 -1.26544 0
M  V30 5345 H 494.099 -4.44683 1.22697 0
M  V30 5346 H 492.342 -4.16274 1.22058 0
M  V30 5347 H 493.013 -5.51189 0.299153 0
M  V30 5348 H 495.489 -4.04973 -0.955821 0
M  V30 5349 H 494.365 -5.22269 -1.68899 0
M  V30 5350 H 494.626 -3.66921 -2.4662 0
M  V30 5351 N 493.685 -0.035106 -1.57561 0
M  V30 5352 C 494.913 0.652258 -1.9635 0
M  V30 5353 C 495.328 1.65317 -0.911897 0
M  V30 5354 O 494.685 1.82194 0.105657 0
M  V30 5355 C 494.736 1.35337 -3.35211 0
M  V30 5356 O 494.457 0.392548 -4.36338 0
M  V30 5357 C 495.958 2.13199 -3.88666 0
M  V30 5358 H 493.178 0.179444 -0.646561 0
M  V30 5359 H 495.722 -0.0966459 -2.04271 0
M  V30 5360 H 493.877 2.05362 -3.28489 0
M  V30 5361 H 494.291 0.891097 -5.16875 0
M  V30 5362 H 495.765 2.577 -4.88154 0
M  V30 5363 H 496.242 2.97353 -3.23231 0
M  V30 5364 H 496.848 1.48118 -3.98674 0
M  V30 5365 N 495.163 1.55791 0.238111 0
M  V30 5366 C 496.579 1.48411 0.587045 0
M  V30 5367 C 496.779 0.72702 1.87927 0
M  V30 5368 O 495.835 0.259942 2.51158 0
M  V30 5369 C 497.148 2.92873 0.681623 0
M  V30 5370 C 498.696 3.03295 0.773363 0
M  V30 5371 C 499.171 4.49082 0.899428 0
M  V30 5372 N 500.662 4.53056 0.964075 0
M  V30 5373 C 501.397 5.63117 1.08104 0
M  V30 5374 N 500.893 6.82969 1.16299 0
M  V30 5375 N 502.686 5.50933 1.11488 0
M  V30 5376 H 494.837 2.0345 -0.610076 0
M  V30 5377 H 497.1 0.924034 -0.211813 0
M  V30 5378 H 496.806 3.51142 -0.19802 0
M  V30 5379 H 496.68 3.43851 1.55069 0
M  V30 5380 H 499.067 2.45101 1.64346 0
M  V30 5381 H 499.148 2.55513 -0.121034 0
M  V30 5382 H 498.792 5.07889 0.0338586 0
M  V30 5383 H 498.722 4.94553 1.809 0
M  V30 5384 H 501.213 3.66737 0.91173 0
M  V30 5385 H 501.526 7.62598 1.25155 0
M  V30 5386 H 499.871 6.85712 1.13241 0
M  V30 5387 H 503.062 4.56231 1.0474 0
M  V30 5388 H 503.235 6.36743 1.20259 0
M  V30 5389 N 496.642 -0.504142 1.49319 0
M  V30 5390 C 497.605 -1.5883 1.65244 0
M  V30 5391 C 498.605 -1.52009 0.524386 0
M  V30 5392 O 499.795 -1.55218 0.79077 0
M  V30 5393 C 496.927 -2.98481 1.64687 0
M  V30 5394 H 498.12 -1.4604 2.61939 0
M  V30 5395 H 495.673 -0.728144 1.38303 0
M  V30 5396 H 496.408 -3.16751 0.695644 0
M  V30 5397 H 496.193 -3.0484 2.46607 0
M  V30 5398 H 497.683 -3.77256 1.79075 0
M  V30 5399 N 498.12 -1.38341 -0.754957 0
M  V30 5400 C 499.067 -1.3546 -1.86867 0
M  V30 5401 C 500.037 -0.217369 -1.64672 0
M  V30 5402 O 501.222 -0.409383 -1.86356 0
M  V30 5403 C 498.362 -1.18413 -3.24149 0
M  V30 5404 C 497.475 -2.41511 -3.58185 0
M  V30 5405 C 496.61 -2.17205 -4.84763 0
M  V30 5406 C 495.649 -3.36081 -5.11582 0
M  V30 5407 N 494.786 -3.11219 -6.29354 0
M  V30 5408 H 499.626 -2.30672 -1.88664 0
M  V30 5409 H 497.163 -1.14607 -0.922154 0
M  V30 5410 H 499.121 -1.06545 -4.03366 0
M  V30 5411 H 497.751 -0.268397 -3.21682 0
M  V30 5412 H 496.803 -2.64056 -2.73822 0
M  V30 5413 H 498.115 -3.30115 -3.73932 0
M  V30 5414 H 497.269 -2.02465 -5.7192 0
M  V30 5415 H 496.008 -1.25964 -4.71152 0
M  V30 5416 H 495.013 -3.51341 -4.22894 0
M  V30 5417 H 496.238 -4.28196 -5.27091 0
M  V30 5418 H 494.184 -2.22624 -6.17069 0
M  V30 5419 H 494.101 -3.93373 -6.45596 0
M  V30 5420 H 495.369 -3.00132 -7.19403 0
M  V30 5421 N 499.598 0.982988 -1.23187 0
M  V30 5422 C 500.828 1.75666 -1.08743 0
M  V30 5423 C 501.236 1.85662 0.364195 0
M  V30 5424 O 500.579 1.33317 1.26382 0
M  V30 5425 C 500.641 3.20144 -1.63549 0
M  V30 5426 C 500.305 3.33665 -3.12277 0
M  V30 5427 C 501.302 3.20194 -4.096 0
M  V30 5428 C 498.987 3.58397 -3.51933 0
M  V30 5429 C 500.981 3.31256 -5.44563 0
M  V30 5430 C 498.668 3.69098 -4.87042 0
M  V30 5431 C 499.666 3.55537 -5.83166 0
M  V30 5432 O 499.354 3.65864 -7.1582 0
M  V30 5433 H 499.086 0.558194 -0.381307 0
M  V30 5434 H 501.64 1.24387 -1.63454 0
M  V30 5435 H 499.87 3.72659 -1.03256 0
M  V30 5436 H 501.559 3.79262 -1.4462 0
M  V30 5437 H 502.325 3.00987 -3.80305 0
M  V30 5438 H 498.204 3.68025 -2.77631 0
M  V30 5439 H 501.748 3.20588 -6.19572 0
M  V30 5440 H 497.645 3.87814 -5.16014 0
M  V30 5441 H 498.413 3.82675 -7.23534 0
M  V30 5442 N 501.076 1.04316 1.18135 0
M  V30 5443 C 502.323 0.74802 1.88178 0
M  V30 5444 C 502.651 -0.72441 1.80506 0
M  V30 5445 O 501.906 -1.54463 1.20165 0
M  V30 5446 C 502.205 1.16271 3.37958 0
M  V30 5447 C 501.871 2.63585 3.65833 0
M  V30 5448 C 500.533 3.03829 3.73151 0
M  V30 5449 C 502.885 3.58822 3.78016 0
M  V30 5450 C 500.213 4.38194 3.90132 0
M  V30 5451 C 502.565 4.92909 3.96514 0
M  V30 5452 C 501.229 5.3282 4.02068 0
M  V30 5453 H 500.499 0.27372 0.688592 0
M  V30 5454 H 503.146 1.30863 1.39811 0
M  V30 5455 H 501.451 0.520938 3.88321 0
M  V30 5456 H 503.148 0.911672 3.90499 0
M  V30 5457 H 499.738 2.31414 3.60757 0
M  V30 5458 H 503.922 3.28875 3.71692 0
M  V30 5459 H 499.178 4.68631 3.92677 0
M  V30 5460 H 503.352 5.66606 4.04883 0
M  V30 5461 H 500.979 6.36943 4.14979 0
M  V30 5462 N 502.554 -1.34406 0.822964 0
M  V30 5463 C 503.803 -1.97542 0.407458 0
M  V30 5464 C 504.116 -1.65973 -1.035 0
M  V30 5465 O 505.322 -2.22598 -1.55442 0
M  V30 5466 C 503.778 -3.53463 0.677623 0
M  V30 5467 C 503.386 -3.93925 2.1337 0
M  V30 5468 C 505.13 -4.23229 0.328284 0
M  V30 5469 C 503.037 -5.42759 2.34876 0
M  V30 5470 H 501.967 -0.739207 0.148623 0
M  V30 5471 H 504.618 -1.53248 1.00932 0
M  V30 5472 H 503 -3.96 0.00558965 0
M  V30 5473 H 504.174 -3.62494 2.8449 0
M  V30 5474 H 502.489 -3.37097 2.44448 0
M  V30 5475 H 505.086 -5.32659 0.466794 0
M  V30 5476 H 505.429 -4.09899 -0.727224 0
M  V30 5477 H 505.962 -3.86169 0.954896 0
M  V30 5478 H 502.701 -5.61075 3.38932 0
M  V30 5479 H 502.221 -5.75704 1.68299 0
M  V30 5480 H 503.9 -6.0944 2.17236 0
M  V30 5481 N 504.032 -0.577932 -1.46621 0
M  V30 5482 C 505.448 -0.239242 -1.57797 0
M  V30 5483 C 505.648 1.25843 -1.57371 0
M  V30 5484 O 504.704 2.03988 -1.48813 0
M  V30 5485 C 506.017 -0.884227 -2.87405 0
M  V30 5486 C 507.565 -0.857373 -3.01028 0
M  V30 5487 C 508.04 -1.48181 -4.33366 0
M  V30 5488 N 509.531 -1.44593 -4.40053 0
M  V30 5489 C 510.266 -1.89852 -5.41058 0
M  V30 5490 N 509.762 -2.43062 -6.48762 0
M  V30 5491 N 511.555 -1.80797 -5.3223 0
M  V30 5492 H 503.706 -1.55073 -1.45142 0
M  V30 5493 H 505.969 -0.647903 -0.692044 0
M  V30 5494 H 505.675 -1.93759 -2.93514 0
M  V30 5495 H 505.549 -0.389585 -3.75183 0
M  V30 5496 H 507.936 0.187357 -2.94505 0
M  V30 5497 H 508.017 -1.38999 -2.14739 0
M  V30 5498 H 507.661 -2.52572 -4.40647 0
M  V30 5499 H 507.591 -0.924464 -5.18422 0
M  V30 5500 H 510.082 -1.05694 -3.62819 0
M  V30 5501 H 510.395 -2.75466 -7.22038 0
M  V30 5502 H 508.74 -2.47085 -6.49595 0
M  V30 5503 H 511.931 -1.38989 -4.46989 0
M  V30 5504 H 512.104 -2.16385 -6.10804 0
M  V30 5505 N 505.51 1.54411 -0.315457 0
M  V30 5506 C 506.787 1.92562 0.343398 0
M  V30 5507 C 507.167 1.24423 1.70535 0
M  V30 5508 O 506.515 0.385051 2.25232 0
M  V30 5509 C 506.725 3.46168 0.443687 0
M  V30 5510 C 508.073 4.18659 0.707783 0
M  V30 5511 O 509.097 3.52281 0.52693 0
M  V30 5512 O 507.956 5.36198 1.05612 0
M  V30 5513 H 505.05 0.80379 0.194552 0
M  V30 5514 H 507.596 1.65738 -0.364577 0
M  V30 5515 H 506.368 3.8792 -0.513172 0
M  V30 5516 H 505.991 3.79073 1.19956 0
M  V30 5517 N 506.988 0.0434614 1.5754 0
M  V30 5518 C 507.898 -0.94893 2.14552 0
M  V30 5519 C 508.914 -1.34707 1.10136 0
M  V30 5520 O 510.09 -1.42557 1.42266 0
M  V30 5521 C 507.155 -2.208 2.67298 0
M  V30 5522 C 506.216 -1.86893 3.86484 0
M  V30 5523 C 505.449 -3.06797 4.36705 0
M  V30 5524 O 505.672 -4.19921 3.86034 0
M  V30 5525 O 504.606 -2.8826 5.28384 0
M  V30 5526 H 508.432 -0.494099 2.99654 0
M  V30 5527 H 506.017 -0.177989 1.48336 0
M  V30 5528 H 507.899 -2.94686 3.01228 0
M  V30 5529 H 506.574 -2.65436 1.85272 0
M  V30 5530 H 505.481 -1.10347 3.57455 0
M  V30 5531 H 506.814 -1.47062 4.69716 0
M  V30 5532 N 508.466 -1.55915 -0.229846 0
M  V30 5533 C 509.713 -1.78542 -0.955452 0
M  V30 5534 C 510.041 -0.610785 -1.84661 0
M  V30 5535 O 509.296 0.405213 -1.91459 0
M  V30 5536 C 509.595 -3.06845 -1.8325 0
M  V30 5537 C 509.261 -4.37395 -1.09528 0
M  V30 5538 C 507.923 -4.72868 -0.891598 0
M  V30 5539 C 510.275 -5.18029 -0.574046 0
M  V30 5540 C 507.603 -5.86496 -0.154655 0
M  V30 5541 C 509.955 -6.32423 0.149513 0
M  V30 5542 C 508.619 -6.66504 0.364519 0
M  V30 5543 H 507.889 -0.653333 -0.349625 0
M  V30 5544 H 510.536 -1.90183 -0.224235 0
M  V30 5545 H 508.841 -2.90291 -2.63132 0
M  V30 5546 H 510.538 -3.21553 -2.39592 0
M  V30 5547 H 507.128 -4.09538 -1.26399 0
M  V30 5548 H 511.312 -4.91066 -0.718899 0
M  V30 5549 H 506.568 -6.11396 0.0222356 0
M  V30 5550 H 510.742 -6.94137 0.560947 0
M  V30 5551 H 508.369 -7.54397 0.937495 0
M  V30 5552 N 509.944 0.496216 -1.49584 0
M  V30 5553 C 510.874 1.60576 -1.69521 0
M  V30 5554 C 511.855 1.61169 -0.543933 0
M  V30 5555 O 513.04 1.77834 -0.78031 0
M  V30 5556 C 510.17 2.99038 -1.76616 0
M  V30 5557 C 509.124 3.13312 -2.91581 0
M  V30 5558 C 508.45 4.53172 -2.83794 0
M  V30 5559 C 509.75 2.92886 -4.32452 0
M  V30 5560 H 511.444 1.44146 -2.62416 0
M  V30 5561 H 508.99 0.692024 -1.26282 0
M  V30 5562 H 510.943 3.76564 -1.8915 0
M  V30 5563 H 509.667 3.16568 -0.80324 0
M  V30 5564 H 508.326 2.38213 -2.78658 0
M  V30 5565 H 507.974 4.67585 -1.854 0
M  V30 5566 H 507.674 4.63662 -3.60958 0
M  V30 5567 H 509.198 5.32752 -2.98342 0
M  V30 5568 H 510.612 3.60178 -4.46032 0
M  V30 5569 H 509.009 3.14844 -5.10875 0
M  V30 5570 H 510.079 1.88966 -4.46565 0
M  V30 5571 N 511.423 1.38739 0.74761 0
M  V30 5572 C 512.839 1.20067 1.05148 0
M  V30 5573 C 513.039 0.0534835 2.01429 0
M  V30 5574 O 512.095 -0.59886 2.45296 0
M  V30 5575 C 513.408 2.52957 1.62584 0
M  V30 5576 C 514.956 2.59692 1.74726 0
M  V30 5577 C 515.431 3.92772 2.35573 0
M  V30 5578 N 516.922 3.94343 2.42997 0
M  V30 5579 C 517.657 4.9408 2.90985 0
M  V30 5580 N 517.153 6.04214 3.38965 0
M  V30 5581 N 518.946 4.81466 2.9008 0
M  V30 5582 H 511.097 2.12121 0.108808 0
M  V30 5583 H 513.36 0.941491 0.110899 0
M  V30 5584 H 513.066 3.37389 0.993051 0
M  V30 5585 H 512.94 2.71779 2.61565 0
M  V30 5586 H 515.327 1.75651 2.3713 0
M  V30 5587 H 515.408 2.44731 0.744326 0
M  V30 5588 H 515.052 4.77238 1.738 0
M  V30 5589 H 514.982 4.05046 3.36519 0
M  V30 5590 H 517.473 3.14799 2.0907 0
M  V30 5591 H 517.786 6.76241 3.74056 0
M  V30 5592 H 516.131 6.07825 3.37007 0
M  V30 5593 H 519.322 3.94535 2.51912 0
M  V30 5594 H 519.495 5.59344 3.27166 0
M  V30 5595 N 512.901 -0.976442 1.23707 0
M  V30 5596 C 514.15 -1.71254 1.06559 0
M  V30 5597 C 514.463 -1.91528 -0.397024 0
M  V30 5598 O 515.669 -2.62625 -0.688518 0
M  V30 5599 C 514.125 -3.08207 1.8584 0
M  V30 5600 C 513.733 -2.95806 3.36456 0
M  V30 5601 C 515.477 -3.85749 1.77194 0
M  V30 5602 C 513.384 -4.28015 4.08114 0
M  V30 5603 H 512.314 -0.642171 0.395136 0
M  V30 5604 H 514.965 -1.08877 1.4771 0
M  V30 5605 H 513.347 -3.71363 1.37498 0
M  V30 5606 H 514.521 -2.41716 3.92314 0
M  V30 5607 H 512.836 -2.31736 3.45959 0
M  V30 5608 H 515.433 -4.83633 2.28041 0
M  V30 5609 H 515.776 -4.09752 0.735477 0
M  V30 5610 H 516.309 -3.29303 2.23169 0
M  V30 5611 H 513.048 -4.09208 5.12083 0
M  V30 5612 H 512.568 -4.81955 3.57043 0
M  V30 5613 H 514.247 -4.96681 4.14629 0
M  V30 5614 N 514.379 -1.04941 -1.1758 0
M  V30 5615 C 515.604 -0.778253 -1.92245 0
M  V30 5616 C 516.029 0.659707 -1.76152 0
M  V30 5617 O 515.387 1.45803 -1.07755 0
M  V30 5618 C 515.435 -1.16051 -3.41416 0
M  V30 5619 O 514.539 -0.291153 -4.11371 0
M  V30 5620 H 513.88 -0.285619 -0.599431 0
M  V30 5621 H 516.41 -1.40159 -1.49052 0
M  V30 5622 H 516.42 -1.12619 -3.92149 0
M  V30 5623 H 515.095 -2.208 -3.52449 0
M  V30 5624 H 513.672 -0.385851 -3.70898 0
M  V30 5625 N 515.857 1.33968 -0.830081 0
M  V30 5626 C 517.085 2.0228 -0.434773 0
M  V30 5627 C 517.5 1.62487 0.961419 0
M  V30 5628 O 516.857 0.833849 1.62337 0
M  V30 5629 C 516.908 3.5751 -0.535625 0
M  V30 5630 O 516.629 3.95864 -1.87679 0
M  V30 5631 C 518.13 4.43091 -0.136137 0
M  V30 5632 H 515.35 0.648151 -0.173613 0
M  V30 5633 H 517.894 1.71089 -1.12022 0
M  V30 5634 H 516.049 3.87266 0.101817 0
M  V30 5635 H 516.463 4.9056 -1.85609 0
M  V30 5636 H 517.937 5.51398 -0.257772 0
M  V30 5637 H 518.414 4.29433 0.921076 0
M  V30 5638 H 519.02 4.18677 -0.747662 0
M  V30 5639 N 517.335 0.585699 1.46312 0
M  V30 5640 C 518.298 -0.135673 2.28798 0
M  V30 5641 C 519.298 -0.815988 1.38558 0
M  V30 5642 O 520.488 -0.667487 1.60904 0
M  V30 5643 C 517.62 -1.20163 3.1902 0
M  V30 5644 H 518.813 0.589257 2.94054 0
M  V30 5645 H 516.366 0.343794 1.52472 0
M  V30 5646 H 517.101 -1.95804 2.58517 0
M  V30 5647 H 516.886 -0.718282 3.85465 0
M  V30 5648 H 518.376 -1.70749 3.81096 0
M  V30 5649 N 518.813 -1.54241 0.323641 0
M  V30 5650 C 520.038 -2.05452 -0.283605 0
M  V30 5651 C 520.463 -1.19823 -1.44997 0
M  V30 5652 O 519.821 -0.207358 -1.8011 0
M  V30 5653 C 519.869 -3.53823 -0.695795 0
M  V30 5654 O 518.973 -3.71134 -1.79815 0
M  V30 5655 H 518.314 -0.662024 -0.0511917 0
M  V30 5656 H 520.844 -1.99079 0.472073 0
M  V30 5657 H 520.854 -3.96094 -0.978434 0
M  V30 5658 H 519.529 -4.15602 0.157287 0
M  V30 5659 H 518.106 -3.40768 -1.51431 0
M  V30 5660 N 520.291 -0.0518155 -1.57515 0
M  V30 5661 C 521.539 0.620595 -1.92336 0
M  V30 5662 C 521.86 1.71345 -0.930907 0
M  V30 5663 O 521.13 1.95885 0.0241341 0
M  V30 5664 H 519.71 0.232226 -0.709986 0
M  V30 5665 H 522.372 -0.104969 -1.94617 0
M  V30 5666 H 521.468 1.05879 -2.93592 0
M  V30 5667 N 521.769 1.56035 0.221574 0
M  V30 5668 C 523.046 1.69837 0.970301 0
M  V30 5669 C 523.426 0.599065 2.02421 0
M  V30 5670 O 522.774 -0.393929 2.25079 0
M  V30 5671 C 522.984 3.11148 1.58076 0
M  V30 5672 C 524.332 3.70555 2.07302 0
M  V30 5673 O 525.356 3.14109 1.6797 0
M  V30 5674 O 524.215 4.69562 2.79596 0
M  V30 5675 H 521.309 0.691727 0.453257 0
M  V30 5676 H 523.855 1.68353 0.213358 0
M  V30 5677 H 522.627 3.82617 0.819759 0
M  V30 5678 H 522.25 3.16749 2.40324 0
M  V30 5679 N 523.247 -0.488276 1.49845 0
M  V30 5680 C 524.495 -1.23911 1.59657 0
M  V30 5681 C 524.816 -1.92816 0.291005 0
M  V30 5682 O 524.086 -1.83328 -0.690485 0
M  V30 5683 H 522.666 -0.460357 0.588286 0
M  V30 5684 H 525.328 -0.564794 1.86537 0
M  V30 5685 H 524.424 -1.99625 2.39909 0
M  V30 5686 N 524.725 -1.39134 -0.740242 0
M  V30 5687 C 526.141 -1.20623 -1.0451 0
M  V30 5688 C 526.341 -0.0641651 -2.01398 0
M  V30 5689 O 525.397 0.585843 -2.4561 0
M  V30 5690 C 526.71 -2.53815 -1.6124 0
M  V30 5691 C 528.258 -2.60615 -1.73346 0
M  V30 5692 C 528.733 -3.94015 -2.33486 0
M  V30 5693 N 530.224 -3.95627 -2.40902 0
M  V30 5694 C 530.959 -4.95616 -2.88361 0
M  V30 5695 N 530.455 -6.06003 -3.35756 0
M  V30 5696 N 532.248 -4.82998 -2.87523 0
M  V30 5697 H 524.399 -2.12176 -0.0975576 0
M  V30 5698 H 526.662 -0.942066 -0.105904 0
M  V30 5699 H 526.368 -3.37911 -0.975144 0
M  V30 5700 H 526.242 -2.73162 -2.6012 0
M  V30 5701 H 528.629 -1.76906 -2.36195 0
M  V30 5702 H 528.71 -2.45123 -0.731336 0
M  V30 5703 H 528.354 -4.78153 -1.71267 0
M  V30 5704 H 528.284 -4.06825 -3.34366 0
M  V30 5705 H 530.775 -3.15903 -2.07398 0
M  V30 5706 H 531.088 -6.78215 -3.70464 0
M  V30 5707 H 529.433 -6.09604 -3.33778 0
M  V30 5708 H 532.624 -3.95866 -2.49816 0
M  V30 5709 H 532.797 -5.61072 -3.24196 0
M  V30 5710 N 526.204 0.969867 -1.24223 0
M  V30 5711 C 527.154 2.04913 -0.999732 0
M  V30 5712 C 528.138 1.60795 0.0580636 0
M  V30 5713 O 529.33 1.76317 -0.155392 0
M  V30 5714 C 526.459 3.37942 -0.604154 0
M  V30 5715 C 525.545 3.88628 -1.69791 0
M  V30 5716 N 525.936 4.12274 -2.93025 0
M  V30 5717 C 524.234 4.17268 -1.57492 0
M  V30 5718 C 524.935 4.53808 -3.63914 0
M  V30 5719 N 523.911 4.58855 -2.91468 0
M  V30 5720 H 527.713 2.21168 -1.93551 0
M  V30 5721 H 525.227 1.15349 -1.14317 0
M  V30 5722 H 527.224 4.14863 -0.411665 0
M  V30 5723 H 525.884 3.23075 0.324465 0
M  V30 5724 H 526.895 3.99789 -3.29225 0
M  V30 5725 H 523.572 4.11346 -0.714175 0
M  V30 5726 H 524.962 4.80534 -4.69614 0
M  V30 5727 N 527.682 1.05563 1.17022 0
M  V30 5728 C 528.912 0.787307 1.91011 0
M  V30 5729 C 529.32 -0.661256 1.77268 0
M  V30 5730 O 528.663 -1.46379 1.10991 0
M  V30 5731 C 528.725 1.09313 3.42478 0
M  V30 5732 C 528.389 2.53863 3.80004 0
M  V30 5733 C 529.386 3.52081 3.82538 0
M  V30 5734 C 527.071 2.88969 4.10855 0
M  V30 5735 C 529.065 4.83449 4.15399 0
M  V30 5736 C 526.752 4.2054 4.43384 0
M  V30 5737 C 527.75 5.17589 4.45635 0
M  V30 5738 O 527.438 6.46799 4.77395 0
M  V30 5739 H 527.17 0.285463 0.61277 0
M  V30 5740 H 529.724 1.41051 1.49311 0
M  V30 5741 H 527.954 0.412833 3.8449 0
M  V30 5742 H 529.643 0.810224 3.97731 0
M  V30 5743 H 530.409 3.26299 3.58823 0
M  V30 5744 H 526.288 2.1409 4.08272 0
M  V30 5745 H 529.832 5.59194 4.1707 0
M  V30 5746 H 525.729 4.46083 4.66563 0
M  V30 5747 H 526.497 6.51677 4.95237 0
M  V30 5748 N 529.16 -1.33526 0.837174 0
M  V30 5749 C 530.4 -1.99649 0.438115 0
M  V30 5750 C 530.764 -1.64879 -0.983816 0
M  V30 5751 O 531.965 -2.23956 -1.48651 0
M  V30 5752 C 530.236 -3.51431 0.650461 0
M  V30 5753 S 531.795 -4.37431 0.346371 0
M  V30 5754 H 528.613 -0.69162 0.164872 0
M  V30 5755 H 531.215 -1.62556 1.08609 0
M  V30 5756 H 529.919 -3.74225 1.68475 0
M  V30 5757 H 529.45 -3.93398 -0.0117309 0
M  V30 5758 H 531.465 -4.89132 -0.834504 0
M  V30 5759 N 530.638 -0.59345 -1.46 0
M  V30 5760 C 531.868 -0.0889642 -2.06408 0
M  V30 5761 C 532.276 1.22597 -1.44106 0
M  V30 5762 O 531.619 1.75448 -0.544398 0
M  V30 5763 C 531.681 0.139902 -3.59228 0
M  V30 5764 C 531.345 -1.09107 -4.43784 0
M  V30 5765 C 532.342 -2.00577 -4.79651 0
M  V30 5766 C 530.027 -1.31593 -4.84756 0
M  V30 5767 C 532.021 -3.12873 -5.55328 0
M  V30 5768 C 529.708 -2.44192 -5.60191 0
M  V30 5769 C 530.706 -3.34661 -5.95392 0
M  V30 5770 O 530.394 -4.45302 -6.69299 0
M  V30 5771 H 530.126 -0.0594613 -0.67338 0
M  V30 5772 H 532.68 -0.817 -1.88452 0
M  V30 5773 H 530.91 0.922672 -3.75531 0
M  V30 5774 H 532.599 0.594228 -4.01527 0
M  V30 5775 H 533.365 -1.84425 -4.48567 0
M  V30 5776 H 529.244 -0.620801 -4.56801 0
M  V30 5777 H 532.788 -3.83511 -5.82722 0
M  V30 5778 H 528.685 -2.60303 -5.90688 0
M  V30 5779 H 529.453 -4.43805 -6.87735 0
M  V30 5780 N 532.116 1.54067 -0.331816 0
M  V30 5781 C 533.527 1.86059 0.15454 0
M  V30 5782 C 533.878 1.25331 1.50952 0
M  V30 5783 O 533.003 0.562441 2.08963 0
M  V30 5784 C 533.598 3.37581 0.287192 0
M  V30 5785 C 532.157 3.69493 0.717773 0
M  V30 5786 C 531.304 2.76863 -0.155569 0
M  V30 5787 H 534.255 1.48797 -0.55182 0
M  V30 5788 H 534.276 3.63744 1.11671 0
M  V30 5789 H 533.788 3.81751 -0.699131 0
M  V30 5790 H 531.889 3.3086 1.71354 0
M  V30 5791 H 532.002 4.76315 0.5158 0
M  V30 5792 H 530.366 2.51995 0.370213 0
M  V30 5793 H 531.149 3.23861 -1.13881 0
M  V30 5794 N 533.594 0.0601682 1.57485 0
M  V30 5795 C 534.544 -0.920969 2.08572 0
M  V30 5796 C 535.528 -1.26617 0.992827 0
M  V30 5797 O 536.72 -1.24708 1.25606 0
M  V30 5798 C 533.849 -2.19267 2.64153 0
M  V30 5799 C 532.935 -1.87447 3.80427 0
M  V30 5800 N 533.326 -1.26025 4.89848 0
M  V30 5801 C 531.624 -2.17265 3.89502 0
M  V30 5802 C 532.325 -1.12036 5.70809 0
M  V30 5803 N 531.301 -1.62624 5.18705 0
M  V30 5804 H 535.103 -0.441561 2.90564 0
M  V30 5805 H 532.617 -0.144043 1.6176 0
M  V30 5806 H 534.614 -2.90462 2.99061 0
M  V30 5807 H 533.274 -2.67806 1.83603 0
M  V30 5808 H 534.285 -0.931336 5.09457 0
M  V30 5809 H 530.962 -2.68262 3.19909 0
M  V30 5810 H 532.352 -0.642783 6.68818 0
M  V30 5811 N 535.072 -1.5615 -0.213296 0
M  V30 5812 C 536.319 -1.79546 -0.936462 0
M  V30 5813 C 536.647 -0.630337 -1.84003 0
M  V30 5814 O 535.902 0.384883 -1.91878 0
M  V30 5815 C 536.201 -3.08772 -1.79985 0
M  V30 5816 C 535.867 -4.38532 -1.04882 0
M  V30 5817 C 534.529 -4.73787 -0.841393 0
M  V30 5818 C 536.881 -5.18609 -0.51907 0
M  V30 5819 C 534.209 -5.86627 -0.0924403 0
M  V30 5820 C 536.561 -6.32229 0.216581 0
M  V30 5821 C 535.225 -6.6608 0.435191 0
M  V30 5822 H 534.495 -0.657004 -0.342676 0
M  V30 5823 H 537.142 -1.9041 -0.204051 0
M  V30 5824 H 535.447 -2.93065 -2.60038 0
M  V30 5825 H 537.144 -3.24077 -2.36168 0
M  V30 5826 H 533.734 -4.10855 -1.22048 0
M  V30 5827 H 537.918 -4.91801 -0.666775 0
M  V30 5828 H 533.174 -6.11338 0.087081 0
M  V30 5829 H 537.348 -6.93503 0.634538 0
M  V30 5830 H 534.975 -7.5336 1.01746 0
M  V30 5831 N 536.55 0.480323 -1.50102 0
M  V30 5832 C 537.778 1.25657 -1.64371 0
M  V30 5833 C 538.193 1.86011 -0.323316 0
M  V30 5834 O 537.55 1.68803 0.693682 0
M  V30 5835 C 537.601 2.37197 -2.728 0
M  V30 5836 O 537.322 1.7932 -3.9972 0
M  V30 5837 C 538.823 3.2823 -2.9796 0
M  V30 5838 H 536.043 0.380369 -0.552775 0
M  V30 5839 H 538.587 0.574379 -1.96268 0
M  V30 5840 H 536.742 3.01208 -2.43623 0
M  V30 5841 H 537.156 2.52701 -4.59611 0
M  V30 5842 H 538.63 4.02725 -3.77513 0
M  V30 5843 H 539.107 3.86462 -2.08671 0
M  V30 5844 H 539.713 2.69964 -3.28633 0
M  V30 5845 N 538.028 1.39524 0.732853 0
M  V30 5846 C 539.268 1.383 1.50508 0
M  V30 5847 C 539.632 -0.0208271 1.91989 0
M  V30 5848 O 540.833 -0.158091 2.68335 0
M  V30 5849 C 539.104 2.33007 2.71003 0
M  V30 5850 S 540.663 2.49989 3.60626 0
M  V30 5851 H 537.481 0.490417 0.514794 0
M  V30 5852 H 540.083 1.75641 0.858524 0
M  V30 5853 H 538.787 3.33862 2.38672 0
M  V30 5854 H 538.318 1.96889 3.40585 0
M  V30 5855 H 540.333 1.7394 4.64714 0
M  V30 5856 N 539.506 -0.963266 1.24736 0
M  V30 5857 C 540.469 -2.04013 1.04457 0
M  V30 5858 C 541.469 -1.608 0.000335555 0
M  V30 5859 O 542.659 -1.72515 0.241719 0
M  V30 5860 C 539.791 -3.35858 0.584162 0
M  V30 5861 H 540.984 -2.23436 2.00041 0
M  V30 5862 H 538.537 -1.13914 1.07021 0
M  V30 5863 H 539.272 -3.22128 -0.374673 0
M  V30 5864 H 539.057 -3.68568 1.3379 0
M  V30 5865 H 540.547 -4.1502 0.463451 0
M  V30 5866 N 540.985 -1.06182 -1.16461 0
M  V30 5867 C 542.231 -0.779015 -1.87241 0
M  V30 5868 C 542.564 0.692715 -1.81425 0
M  V30 5869 O 541.839 1.5074 -1.22913 0
M  V30 5870 C 542.122 -1.2728 -3.36856 0
M  V30 5871 C 541.975 -2.80821 -3.51368 0
M  V30 5872 C 543.294 -0.879799 -4.31216 0
M  V30 5873 H 540.413 -0.284464 -0.679889 0
M  V30 5874 H 543.055 -1.31755 -1.36896 0
M  V30 5875 H 541.205 -0.814673 -3.79862 0
M  V30 5876 H 542.877 -3.34833 -3.17308 0
M  V30 5877 H 541.12 -3.19606 -2.93316 0
M  V30 5878 H 541.791 -3.10435 -4.56436 0
M  V30 5879 H 544.267 -1.27436 -3.96105 0
M  V30 5880 H 543.143 -1.25278 -5.34412 0
M  V30 5881 H 543.404 0.215372 -4.41575 0
M  V30 5882 N 542.463 1.3308 -0.844243 0
M  V30 5883 C 543.74 1.92178 -0.364261 0
M  V30 5884 C 544.12 1.76961 1.15101 0
M  V30 5885 O 543.468 1.16128 1.9679 0
M  V30 5886 C 543.678 3.393 -0.817106 0
M  V30 5887 C 545.026 4.16444 -0.828236 0
M  V30 5888 O 546.05 3.47975 -0.761062 0
M  V30 5889 O 544.909 5.38685 -0.920926 0
M  V30 5890 H 542.003 0.820411 -0.10419 0
M  V30 5891 H 544.549 1.41918 -0.930453 0
M  V30 5892 H 543.321 3.44272 -1.85991 0
M  V30 5893 H 542.944 3.96947 -0.227785 0
M  V30 5894 N 543.941 0.601185 1.45683 0
M  V30 5895 C 545.169 0.100054 2.06658 0
M  V30 5896 C 545.584 -1.21285 1.44691 0
M  V30 5897 O 544.941 -1.73735 0.558772 0
M  V30 5898 C 544.992 -0.0528579 3.61461 0
M  V30 5899 O 544.713 1.20809 4.21114 0
M  V30 5900 C 546.214 -0.586193 4.39407 0
M  V30 5901 H 543.434 0.065905 0.667756 0
M  V30 5902 H 545.978 0.827101 1.87028 0
M  V30 5903 H 544.133 -0.730203 3.80456 0
M  V30 5904 H 544.547 1.03368 5.14213 0
M  V30 5905 H 546.021 -0.642297 5.4825 0
M  V30 5906 H 546.498 -1.60713 4.0874 0
M  V30 5907 H 547.104 0.0568935 4.25262 0
M  V30 5908 N 545.419 -1.53889 0.339982 0
M  V30 5909 C 546.329 -2.28604 -0.526988 0
M  V30 5910 C 547.345 -1.33578 -1.11503 0
M  V30 5911 O 548.521 -1.66612 -1.13148 0
M  V30 5912 C 545.586 -3.04164 -1.66389 0
M  V30 5913 C 544.647 -4.14809 -1.10599 0
M  V30 5914 C 543.88 -4.86756 -2.18871 0
M  V30 5915 O 544.103 -4.58343 -3.39526 0
M  V30 5916 O 543.037 -5.73289 -1.83366 0
M  V30 5917 H 546.863 -3.03594 0.0802707 0
M  V30 5918 H 544.448 -1.4903 0.105141 0
M  V30 5919 H 546.33 -3.51427 -2.32544 0
M  V30 5920 H 545.005 -2.32035 -2.25703 0
M  V30 5921 H 543.912 -3.71857 -0.409067 0
M  V30 5922 H 545.245 -4.89029 -0.557771 0
M  V30 5923 N 546.897 -0.0685191 -1.57451 0
M  V30 5924 C 547.845 0.917577 -2.13736 0
M  V30 5925 C 548.839 1.31049 -1.07344 0
M  V30 5926 O 550.045 1.28811 -1.25728 0
M  V30 5927 H 546.42 0.313835 -0.683382 0
M  V30 5928 H 548.391 0.417903 -2.95459 0
M  V30 5929 C 547.14 2.17686 -2.71123 0
M  V30 5930 H 546.463 1.88336 -3.52661 0
M  V30 5931 H 547.903 2.84803 -3.14107 0
M  V30 5932 C 546.362 2.9332 -1.65726 0
M  V30 5933 O 546.892 3.86901 -1.08031 0
M  V30 5934 N 545.098 2.56367 -1.36837 0
M  V30 5935 H 544.645 1.80341 -1.83943 0
M  V30 5936 H 544.603 3.07276 -0.665501 0
M  V30 5937 N 548.375 1.56261 0.205012 0
M  V30 5938 C 549.624 1.79236 0.925058 0
M  V30 5939 C 549.937 0.640011 1.84833 0
M  V30 5940 O 551.143 0.753809 2.60826 0
M  V30 5941 C 549.599 3.17475 1.69522 0
M  V30 5942 C 549.207 4.40482 0.817269 0
M  V30 5943 C 550.951 3.49766 2.4055 0
M  V30 5944 C 548.858 5.69744 1.58573 0
M  V30 5945 H 547.788 0.668287 0.349153 0
M  V30 5946 H 550.439 1.82629 0.178544 0
M  V30 5947 H 548.821 3.08304 2.48526 0
M  V30 5948 H 549.995 4.60752 0.0665988 0
M  V30 5949 H 548.31 4.15827 0.218316 0
M  V30 5950 H 550.907 4.43573 2.98575 0
M  V30 5951 H 551.25 2.73041 3.14252 0
M  V30 5952 H 551.783 3.60341 1.68522 0
M  V30 5953 H 548.522 6.49407 0.891679 0
M  V30 5954 H 548.042 5.53509 2.31059 0
M  V30 5955 H 549.721 6.1051 2.14212 0
M  V30 5956 N 549.853 -0.472356 1.50355 0
M  V30 5957 C 551.269 -0.806001 1.37753 0
M  V30 5958 C 551.469 -1.968 0.432649 0
M  V30 5959 O 550.525 -2.52189 -0.12519 0
M  V30 5960 C 551.838 -1.11926 2.79093 0
M  V30 5961 C 553.386 -1.22579 2.87999 0
M  V30 5962 C 553.861 -1.57218 4.3017 0
M  V30 5963 N 555.352 -1.64212 4.33115 0
M  V30 5964 C 556.087 -1.92517 5.40116 0
M  V30 5965 N 555.583 -2.1885 6.57325 0
M  V30 5966 N 557.376 -1.94008 5.27558 0
M  V30 5967 H 549.527 0.293451 2.10363 0
M  V30 5968 H 551.79 0.0687672 0.945503 0
M  V30 5969 H 551.496 -0.338504 3.50067 0
M  V30 5970 H 551.37 -2.05577 3.16256 0
M  V30 5971 H 553.757 -1.99722 2.17245 0
M  V30 5972 H 553.838 -0.269107 2.54381 0
M  V30 5973 H 553.482 -0.806154 5.01461 0
M  V30 5974 H 553.412 -2.54034 4.61275 0
M  V30 5975 H 555.903 -1.45906 3.48597 0
M  V30 5976 H 556.216 -2.39718 7.3468 0
M  V30 5977 H 554.561 -2.16245 6.60502 0
M  V30 5978 H 557.752 -1.72931 4.34986 0
M  V30 5979 H 557.925 -2.15731 6.11035 0
M  V30 5980 N 551.331 -1.39911 -0.725443 0
M  V30 5981 C 552.747 -1.21725 -1.03224 0
M  V30 5982 C 552.947 -0.0855224 -2.01318 0
M  V30 5983 O 552.003 0.55976 -2.46217 0
M  V30 5984 C 553.316 -2.55511 -1.58539 0
M  V30 5985 C 554.864 -2.62439 -1.70572 0
M  V30 5986 C 555.339 -3.9647 -2.29294 0
M  V30 5987 N 556.83 -3.98159 -2.36692 0
M  V30 5988 C 557.565 -4.98647 -2.83088 0
M  V30 5989 N 557.061 -6.0953 -3.2931 0
M  V30 5990 N 558.854 -4.8602 -2.82384 0
M  V30 5991 H 551.005 -2.12267 -0.075048 0
M  V30 5992 H 553.268 -0.943136 -0.0959066 0
M  V30 5993 H 552.974 -3.38926 -0.939249 0
M  V30 5994 H 552.848 -2.75905 -2.57208 0
M  V30 5995 H 555.235 -1.79401 -2.34306 0
M  V30 5996 H 555.316 -2.45885 -0.705297 0
M  V30 5997 H 554.96 -4.79942 -1.66186 0
M  V30 5998 H 554.89 -4.10349 -3.30032 0
M  V30 5999 H 557.381 -3.18085 -2.04035 0
M  V30 6000 H 557.694 -6.82106 -3.6325 0
M  V30 6001 H 556.039 -6.1311 -3.27294 0
M  V30 6002 H 559.23 -3.98493 -2.45603 0
M  V30 6003 H 559.403 -5.64478 -3.18226 0
M  V30 6004 N 552.809 0.956637 -1.25245 0
M  V30 6005 C 554.055 1.70352 -1.10036 0
M  V30 6006 C 554.388 1.90869 0.358156 0
M  V30 6007 O 553.663 1.47819 1.26411 0
M  V30 6008 C 553.946 3.08766 -1.85298 0
M  V30 6009 C 553.799 2.95672 -3.38966 0
M  V30 6010 C 555.118 4.08622 -1.63451 0
M  V30 6011 H 552.237 0.618279 -0.401123 0
M  V30 6012 H 554.879 1.11212 -1.54051 0
M  V30 6013 H 553.029 3.59252 -1.47887 0
M  V30 6014 H 554.701 2.52527 -3.86041 0
M  V30 6015 H 552.944 2.31634 -3.6678 0
M  V30 6016 H 553.615 3.93776 -3.86839 0
M  V30 6017 H 556.091 3.67038 -1.96015 0
M  V30 6018 H 554.967 5.03514 -2.18551 0
M  V30 6019 H 555.228 4.3834 -0.575357 0
M  V30 6020 N 554.287 1.06798 1.15896 0
M  V30 6021 C 555.534 0.787767 1.86549 0
M  V30 6022 C 555.862 -0.685959 1.82002 0
M  V30 6023 O 555.117 -1.5188 1.23414 0
M  V30 6024 C 555.416 1.23414 3.35416 0
M  V30 6025 C 555.082 2.71285 3.6016 0
M  V30 6026 C 553.744 3.11676 3.66622 0
M  V30 6027 C 556.096 3.6676 3.7032 0
M  V30 6028 C 553.424 4.4637 3.8075 0
M  V30 6029 C 555.776 5.01209 3.8597 0
M  V30 6030 C 554.44 5.41229 3.90676 0
M  V30 6031 H 553.71 0.288264 0.682631 0
M  V30 6032 H 556.357 1.338 1.37003 0
M  V30 6033 H 554.662 0.60319 3.87129 0
M  V30 6034 H 556.359 0.994298 3.88477 0
M  V30 6035 H 552.949 2.39015 3.55767 0
M  V30 6036 H 557.133 3.36685 3.64633 0
M  V30 6037 H 552.389 4.76855 3.82648 0
M  V30 6038 H 556.563 5.75067 3.92773 0
M  V30 6039 H 554.19 6.45602 4.01375 0
M  V30 6040 N 555.766 -1.3263 0.851289 0
M  V30 6041 C 556.714 -2.30882 0.282202 0
M  V30 6042 C 557.708 -1.58697 -0.592589 0
M  V30 6043 O 558.914 -1.73461 -0.480768 0
M  V30 6044 H 555.289 -0.748492 0.0725487 0
M  V30 6045 H 557.26 -2.76374 1.12516 0
M  V30 6046 C 556.009 -3.43828 -0.517449 0
M  V30 6047 H 555.332 -3.99532 0.146392 0
M  V30 6048 H 556.772 -4.1474 -0.88128 0
M  V30 6049 C 555.231 -2.90786 -1.70133 0
M  V30 6050 O 555.761 -2.88 -2.80034 0
M  V30 6051 N 553.967 -2.4723 -1.52728 0
M  V30 6052 H 553.514 -2.49695 -0.633257 0
M  V30 6053 H 553.472 -2.12094 -2.32085 0
M  V30 6054 N 557.244 -0.608902 -1.45362 0
M  V30 6055 C 558.521 -0.0365378 -1.95566 0
M  V30 6056 C 558.901 1.43169 -1.55131 0
M  V30 6057 O 558.249 2.1349 -0.814513 0
M  V30 6058 C 558.459 -0.236026 -3.48201 0
M  V30 6059 C 559.807 -0.117518 -4.24437 0
M  V30 6060 O 560.831 -0.166217 -3.55812 0
M  V30 6061 O 559.69 -0.00372127 -5.465 0
M  V30 6062 H 556.784 0.0349874 -0.82626 0
M  V30 6063 H 559.33 -0.679055 -1.55521 0
M  V30 6064 H 558.102 -1.25569 -3.70605 0
M  V30 6065 H 557.725 0.441691 -3.95139 0
M  V30 6066 N 558.722 1.53707 -0.348139 0
M  V30 6067 C 559.962 2.02899 0.247254 0
M  V30 6068 C 560.326 1.23033 1.47401 0
M  V30 6069 O 561.527 1.62146 2.14388 0
M  V30 6070 C 559.798 3.53156 0.549151 0
M  V30 6071 S 561.357 4.24247 1.1207 0
M  V30 6072 H 558.175 0.707213 0.0732894 0
M  V30 6073 H 560.777 1.89338 -0.486965 0
M  V30 6074 H 559.481 4.08893 -0.351435 0
M  V30 6075 H 559.012 3.70845 1.31291 0
M  V30 6076 H 561.027 4.33958 2.40613 0
M  V30 6077 N 560.2 0.0768682 1.57412 0
M  V30 6078 C 561.616 -0.279772 1.57129 0
M  V30 6079 C 561.816 -1.69688 1.08666 0
M  V30 6080 O 560.872 -2.40953 0.754843 0
M  V30 6081 C 562.185 -0.0848055 3.0058 0
M  V30 6082 C 563.733 -0.153954 3.12621 0
M  V30 6083 C 564.208 0.0127946 4.57998 0
M  V30 6084 N 565.699 -0.0426435 4.6318 0
M  V30 6085 C 566.434 0.0618892 5.73367 0
M  V30 6086 N 565.93 0.220229 6.9245 0
M  V30 6087 N 567.723 0.00446072 5.621 0
M  V30 6088 H 559.874 1.00297 1.87228 0
M  V30 6089 H 562.137 0.391565 0.863354 0
M  V30 6090 H 561.843 0.89325 3.40168 0
M  V30 6091 H 561.717 -0.834961 3.67843 0
M  V30 6092 H 564.104 -1.1225 2.72917 0
M  V30 6093 H 564.185 0.627389 2.47987 0
M  V30 6094 H 563.829 0.978128 4.98392 0
M  V30 6095 H 563.759 -0.788016 5.20671 0
M  V30 6096 H 566.25 -0.163226 3.77547 0
M  V30 6097 H 566.563 0.291999 7.72248 0
M  V30 6098 H 564.908 0.255658 6.9453 0
M  V30 6099 H 568.099 -0.117979 4.67951 0
M  V30 6100 H 568.272 0.0893796 6.47938 0
M  V30 6101 N 561.678 -1.56367 -0.196722 0
M  V30 6102 C 562.955 -1.71359 -0.943159 0
M  V30 6103 C 563.335 -0.631192 -2.01443 0
M  V30 6104 O 562.683 0.358071 -2.25677 0
M  V30 6105 C 562.893 -3.13623 -1.53106 0
M  V30 6106 C 564.241 -3.73806 -2.01381 0
M  V30 6107 O 565.265 -3.16742 -1.62951 0
M  V30 6108 O 564.124 -4.73951 -2.7209 0
M  V30 6109 H 561.218 -0.698851 -0.442195 0
M  V30 6110 H 563.764 -1.68672 -0.186547 0
M  V30 6111 H 562.536 -3.83873 -0.758785 0
M  V30 6112 H 562.159 -3.20532 -2.35255 0
M  V30 6113 N 563.156 0.464375 -1.50603 0
M  V30 6114 C 564.405 1.21277 -1.61167 0
M  V30 6115 C 564.718 1.92953 -0.320704 0
M  V30 6116 O 565.924 2.69778 -0.30534 0
M  V30 6117 C 564.38 2.20403 -2.84518 0
M  V30 6118 C 563.988 1.54499 -4.20516 0
M  V30 6119 C 565.732 2.95843 -3.0443 0
M  V30 6120 C 563.639 2.51951 -5.35047 0
M  V30 6121 H 562.569 0.456367 -0.600204 0
M  V30 6122 H 565.22 0.48254 -1.77042 0
M  V30 6123 H 563.602 2.96746 -2.62217 0
M  V30 6124 H 564.776 0.83899 -4.53098 0
M  V30 6125 H 563.091 0.913152 -4.06264 0
M  V30 6126 H 565.688 3.6879 -3.87167 0
M  V30 6127 H 566.031 3.55622 -2.16423 0
M  V30 6128 H 566.564 2.26611 -3.26944 0
M  V30 6129 H 563.303 1.96901 -6.25228 0
M  V30 6130 H 562.823 3.20683 -5.06875 0
M  V30 6131 H 564.502 3.13643 -5.65895 0
M  V30 6132 N 564.634 1.40294 0.718013 0
M  V30 6133 C 565.883 1.37746 1.4734 0
M  V30 6134 C 566.196 -0.0180754 1.95592 0
M  V30 6135 O 567.402 -0.166166 2.70991 0
M  V30 6136 C 565.858 2.4208 2.66318 0
M  V30 6137 C 565.466 3.87432 2.24945 0
M  V30 6138 C 567.21 2.48635 3.44065 0
M  V30 6139 C 565.117 4.83368 3.40748 0
M  V30 6140 H 564.047 0.512165 0.553356 0
M  V30 6141 H 566.698 1.66019 0.781661 0
M  V30 6142 H 565.08 2.06903 3.3765 0
M  V30 6143 H 566.254 4.3174 1.6105 0
M  V30 6144 H 564.569 3.8433 1.60249 0
M  V30 6145 H 567.166 3.17499 4.30231 0
M  V30 6146 H 567.509 1.51611 3.87711 0
M  V30 6147 H 568.042 2.82791 2.79775 0
M  V30 6148 H 564.781 5.81716 3.02136 0
M  V30 6149 H 564.301 4.43726 4.03568 0
M  V30 6150 H 565.98 5.03074 4.06848 0
M  V30 6151 N 566.112 -0.949982 1.2575 0
M  V30 6152 C 567.044 -2.05088 1.02331 0
M  V30 6153 C 568.057 -1.62795 -0.0133247 0
M  V30 6154 O 569.246 -1.77067 0.225759 0
M  V30 6155 C 566.346 -3.34794 0.525924 0
M  V30 6156 C 565.519 -4.05903 1.62978 0
M  V30 6157 C 564.578 -5.1388 1.13196 0
M  V30 6158 O 563.604 -5.39072 1.82729 0
M  V30 6159 N 564.806 -5.80495 -0.0242926 0
M  V30 6160 H 567.571 -2.25747 1.97125 0
M  V30 6161 H 565.132 -1.11886 1.17018 0
M  V30 6162 H 567.124 -4.04312 0.177263 0
M  V30 6163 H 565.694 -3.10872 -0.328202 0
M  V30 6164 H 564.914 -3.3042 2.1498 0
M  V30 6165 H 566.202 -4.50166 2.37124 0
M  V30 6166 H 565.6 -5.62454 -0.605184 0
M  V30 6167 H 564.157 -6.51043 -0.313947 0
M  V30 6168 N 567.59 -1.07411 -1.15328 0
M  V30 6169 C 569.006 -0.799759 -1.38116 0
M  V30 6170 C 569.206 0.59572 -1.92493 0
M  V30 6171 O 568.262 1.35433 -2.13106 0
M  V30 6172 C 569.575 -1.87407 -2.35158 0
M  V30 6173 C 571.123 -1.89889 -2.48819 0
M  V30 6174 C 571.598 -2.96406 -3.49153 0
M  V30 6175 N 573.089 -2.95512 -3.56689 0
M  V30 6176 C 573.824 -3.74575 -4.34144 0
M  V30 6177 N 573.32 -4.63488 -5.14928 0
M  V30 6178 N 575.113 -3.62919 -4.29239 0
M  V30 6179 H 567.264 -1.97411 -0.78374 0
M  V30 6180 H 569.527 -0.856113 -0.407154 0
M  V30 6181 H 569.233 -2.8768 -2.0232 0
M  V30 6182 H 569.107 -1.73471 -3.34944 0
M  V30 6183 H 571.494 -0.902677 -2.80955 0
M  V30 6184 H 571.575 -2.07904 -1.49029 0
M  V30 6185 H 571.219 -3.96227 -3.17752 0
M  V30 6186 H 571.149 -2.75638 -4.48699 0
M  V30 6187 H 573.64 -2.31061 -2.99031 0
M  V30 6188 H 573.953 -5.20445 -5.71276 0
M  V30 6189 H 572.298 -4.67537 -5.14232 0
M  V30 6190 H 575.489 -2.92833 -3.65194 0
M  V30 6191 H 575.662 -4.24777 -4.89355 0
M  V30 6192 N 569.068 1.32177 -0.85831 0
M  V30 6193 C 570.001 2.26823 -0.25035 0
M  V30 6194 C 570.979 1.50571 0.61378 0
M  V30 6195 O 572.163 1.79682 0.569777 0
M  V30 6196 C 569.29 3.32472 0.646556 0
M  V30 6197 C 568.336 4.26255 -0.144675 0
M  V30 6198 S 569.169 5.13608 -1.5155 0
M  V30 6199 C 570.325 6.22778 -0.624408 0
M  V30 6200 H 570.558 2.7804 -1.05267 0
M  V30 6201 H 568.091 1.39764 -0.656152 0
M  V30 6202 H 570.049 3.93817 1.15837 0
M  V30 6203 H 568.71 2.80031 1.42272 0
M  V30 6204 H 567.903 5.01114 0.538613 0
M  V30 6205 H 567.505 3.69346 -0.588198 0
M  V30 6206 H 569.797 6.77287 0.169846 0
M  V30 6207 H 570.74 6.95233 -1.34376 0
M  V30 6208 H 571.148 5.64156 -0.197128 0
M  V30 6209 N 570.547 0.616602 1.45037 0
M  V30 6210 C 571.497 -0.118543 2.27692 0
M  V30 6211 C 572.481 -0.830025 1.37838 0
M  V30 6212 O 573.673 -0.718528 1.6176 0
M  V30 6213 C 570.802 -1.10924 3.24886 0
M  V30 6214 C 569.888 -0.398134 4.22227 0
M  V30 6215 N 570.279 0.565233 5.02632 0
M  V30 6216 C 568.577 -0.644506 4.41319 0
M  V30 6217 C 569.278 0.984043 5.73316 0
M  V30 6218 N 568.254 0.325879 5.42622 0
M  V30 6219 H 572.056 0.621239 2.87259 0
M  V30 6220 H 569.57 0.440968 1.56299 0
M  V30 6221 H 571.567 -1.65038 3.82842 0
M  V30 6222 H 570.227 -1.84948 2.66879 0
M  V30 6223 H 571.238 0.942395 5.09254 0
M  V30 6224 H 567.915 -1.36873 3.94426 0
M  V30 6225 H 569.305 1.77911 6.47918 0
M  V30 6226 N 572.025 -1.5352 0.356285 0
M  V30 6227 C 572.955 -2.28372 -0.486661 0
M  V30 6228 C 573.936 -1.30432 -1.09185 0
M  V30 6229 O 575.121 -1.59291 -1.11085 0
M  V30 6230 C 572.251 -3.06604 -1.63129 0
M  V30 6231 C 571.205 -4.12154 -1.15381 0
M  V30 6232 C 570.531 -4.78415 -2.38796 0
M  V30 6233 C 571.831 -5.21724 -0.245179 0
M  V30 6234 H 573.525 -2.99083 0.137797 0
M  V30 6235 H 571.071 -1.43841 0.0677134 0
M  V30 6236 H 573.024 -3.57712 -2.22755 0
M  V30 6237 H 571.748 -2.33568 -2.28284 0
M  V30 6238 H 570.407 -3.61978 -0.580294 0
M  V30 6239 H 570.055 -4.01959 -3.02387 0
M  V30 6240 H 569.755 -5.49734 -2.07524 0
M  V30 6241 H 571.279 -5.32313 -2.99125 0
M  V30 6242 H 572.693 -5.68391 -0.748646 0
M  V30 6243 H 571.09 -6.00095 -0.0237608 0
M  V30 6244 H 572.16 -4.79596 0.715229 0
M  V30 6245 N 573.503 -0.0852151 -1.57369 0
M  V30 6246 C 574.919 0.271436 -1.57275 0
M  V30 6247 C 575.119 1.69109 -1.09565 0
M  V30 6248 O 574.175 2.40549 -0.767611 0
M  V30 6249 C 575.488 0.0688638 -3.00621 0
M  V30 6250 C 577.036 0.137373 -3.12698 0
M  V30 6251 C 577.511 -0.0370832 -4.57985 0
M  V30 6252 N 579.002 0.0180794 -4.63196 0
M  V30 6253 C 579.737 -0.0922953 -5.73326 0
M  V30 6254 N 579.233 -0.256948 -6.92323 0
M  V30 6255 N 581.026 -0.0342702 -5.6209 0
M  V30 6256 H 573.177 -1.01288 -1.86693 0
M  V30 6257 H 575.44 -0.396138 -0.861266 0
M  V30 6258 H 575.146 -0.911277 -3.39689 0
M  V30 6259 H 575.02 0.815442 -3.6828 0
M  V30 6260 H 577.407 1.10801 -2.73509 0
M  V30 6261 H 577.488 -0.640532 -2.47651 0
M  V30 6262 H 577.132 -1.00455 -4.97867 0
M  V30 6263 H 577.062 0.760392 -5.21081 0
M  V30 6264 H 579.553 0.143202 -3.77629 0
M  V30 6265 H 579.866 -0.332949 -7.72082 0
M  V30 6266 H 578.211 -0.292487 -6.94384 0
M  V30 6267 H 581.402 0.0931605 -4.68007 0
M  V30 6268 H 581.575 -0.12374 -6.47882 0
M  V30 6269 N 574.981 1.5647 0.188427 0
M  V30 6270 C 575.913 1.91611 1.25769 0
M  V30 6271 C 576.926 0.807436 1.41366 0
M  V30 6272 O 578.115 1.08586 1.41673 0
M  V30 6273 C 575.215 2.13874 2.6289 0
M  V30 6274 C 574.388 3.45047 2.68815 0
M  V30 6275 C 573.447 3.56342 3.87178 0
M  V30 6276 O 572.473 4.29109 3.73971 0
M  V30 6277 N 573.675 2.89924 5.02916 0
M  V30 6278 H 576.44 2.8393 0.959373 0
M  V30 6279 H 574.001 1.57418 0.378306 0
M  V30 6280 H 575.993 2.18713 3.4051 0
M  V30 6281 H 574.563 1.28022 2.85183 0
M  V30 6282 H 573.783 3.52017 1.77419 0
M  V30 6283 H 575.071 4.31395 2.6977 0
M  V30 6284 H 574.469 2.30644 5.16546 0
M  V30 6285 H 573.026 3.0038 5.78459 0
M  V30 6286 N 576.459 -0.456382 1.50847 0
M  V30 6287 C 577.689 -1.22848 1.66108 0
M  V30 6288 C 578.097 -1.85936 0.349897 0
M  V30 6289 O 577.44 -1.70664 -0.679665 0
M  V30 6290 C 577.502 -2.36722 2.70561 0
M  V30 6291 C 577.166 -1.94154 4.13707 0
M  V30 6292 C 578.163 -1.4557 4.99105 0
M  V30 6293 C 575.848 -2.02426 4.59705 0
M  V30 6294 C 577.842 -1.0582 6.28555 0
M  V30 6295 C 575.529 -1.62287 5.89157 0
M  V30 6296 C 576.527 -1.14064 6.73408 0
M  V30 6297 O 576.215 -0.744873 8.00442 0
M  V30 6298 H 575.947 -0.377105 0.561042 0
M  V30 6299 H 578.501 -0.549431 1.97915 0
M  V30 6300 H 576.731 -3.07844 2.34027 0
M  V30 6301 H 578.42 -2.98646 2.74892 0
M  V30 6302 H 579.186 -1.38589 4.64777 0
M  V30 6303 H 575.065 -2.38908 3.94264 0
M  V30 6304 H 578.609 -0.6811 6.94267 0
M  V30 6305 H 574.506 -1.68932 6.23003 0
M  V30 6306 H 575.274 -0.87242 8.13837 0
M  V30 6307 N 577.937 -1.40673 -0.710563 0
M  V30 6308 C 578.847 -1.43663 -1.85467 0
M  V30 6309 C 579.863 -0.328721 -1.70867 0
M  V30 6310 O 581.039 -0.574098 -1.93044 0
M  V30 6311 C 578.104 -1.30226 -3.21313 0
M  V30 6312 C 577.165 -2.51204 -3.48131 0
M  V30 6313 C 576.398 -2.38398 -4.77495 0
M  V30 6314 O 576.621 -1.40048 -5.5294 0
M  V30 6315 O 575.555 -3.2787 -5.04762 0
M  V30 6316 H 579.381 -2.40156 -1.859 0
M  V30 6317 H 576.966 -1.22049 -0.861652 0
M  V30 6318 H 578.848 -1.2496 -4.02446 0
M  V30 6319 H 577.523 -0.368419 -3.21597 0
M  V30 6320 H 576.43 -2.62048 -2.66987 0
M  V30 6321 H 577.763 -3.43366 -3.52648 0
M  V30 6322 N 579.415 0.9433 -1.26252 0
M  V30 6323 C 580.345 2.05902 -1.10122 0
M  V30 6324 C 581.326 1.70099 -0.00700552 0
M  V30 6325 O 582.511 1.93377 -0.178641 0
M  V30 6326 C 579.641 3.39516 -0.731175 0
M  V30 6327 C 578.595 3.89372 -1.77688 0
M  V30 6328 C 577.921 5.19613 -1.26122 0
M  V30 6329 C 579.221 4.14489 -3.17799 0
M  V30 6330 H 580.915 2.19655 -2.03451 0
M  V30 6331 H 578.461 1.05548 -0.979576 0
M  V30 6332 H 580.414 4.17031 -0.605215 0
M  V30 6333 H 579.138 3.25733 0.23782 0
M  V30 6334 H 577.797 3.14036 -1.89148 0
M  V30 6335 H 577.445 5.02208 -0.282128 0
M  V30 6336 H 577.145 5.53939 -1.96023 0
M  V30 6337 H 578.669 5.99713 -1.14789 0
M  V30 6338 H 580.083 4.82625 -3.09428 0
M  V30 6339 H 578.48 4.60094 -3.85271 0
M  V30 6340 H 579.55 3.20347 -3.64014 0
M  V30 6341 N 580.893 1.08022 1.14757 0
M  V30 6342 C 581.823 0.728248 2.21853 0
M  V30 6343 C 582.804 -0.287486 1.67653 0
M  V30 6344 O 583.989 -0.158727 1.9355 0
M  V30 6345 C 581.119 0.132549 3.47047 0
M  V30 6346 C 580.073 1.07619 4.14249 0
M  V30 6347 C 579.399 0.342907 5.33599 0
M  V30 6348 C 580.699 2.41268 4.63235 0
M  V30 6349 H 582.393 1.62365 2.51551 0
M  V30 6350 H 579.939 0.782125 1.20908 0
M  V30 6351 H 581.892 -0.125665 4.21213 0
M  V30 6352 H 580.616 -0.797971 3.16702 0
M  V30 6353 H 579.275 1.31944 3.42033 0
M  V30 6354 H 578.923 -0.59129 4.99513 0
M  V30 6355 H 578.623 0.971955 5.79506 0
M  V30 6356 H 580.147 0.0926538 6.1053 0
M  V30 6357 H 581.561 2.21232 5.28894 0
M  V30 6358 H 579.958 2.9983 5.19829 0
M  V30 6359 H 581.028 3.03079 3.78512 0
M  V30 6360 O 582.41 -1.2689 0.999054 0
M  V30 6361 H 583.101 -1.82419 0.651387 0
M  V30 END ATOM
M  V30 BEGIN BOND
M  V30 END BOND
M  V30 END CTAB
M  END
$$$$
