drugbank_target|O60427 Fatty acid desaturase 1 (DB00132; DB00159)
 OpenBabel12092119423D

  0  0  0     0  0            999 V3000
M  V30 BEGIN CTAB
M  V30 COUNTS 7297 7435 0 0 0
M  V30 BEGIN ATOM
M  V30 1 H -0.908 1.98254 -0.117106 0
M  V30 2 N 0 1.576 0 0
M  V30 3 C 0.933 2.03868 1.02534 0
M  V30 4 C 1.911 0.928543 1.3348 0
M  V30 5 O 3.095 1.19667 1.45644 0
M  V30 6 C 0.222 2.43627 2.35294 0
M  V30 7 C -0.732 3.65373 2.2001 0
M  V30 8 S 0.101 5.13292 1.52614 0
M  V30 9 C 1.257 5.56322 2.86805 0
M  V30 10 H 1.49 2.90518 0.631377 0
M  V30 11 H -0.977 1.52953 0.210867 0
M  V30 12 H 0.981 2.67203 3.11629 0
M  V30 13 H -0.358 1.57376 2.7183 0
M  V30 14 H -1.165 3.90944 3.18086 0
M  V30 15 H -1.563 3.418 1.51819 0
M  V30 16 H 0.729 5.58782 3.83104 0
M  V30 17 H 1.672 6.56266 2.65933 0
M  V30 18 H 2.08 4.83886 2.90714 0
M  V30 19 N 1.4781 -0.272755 1.55222 0
M  V30 20 C 2.4411 -1.32041 1.87344 0
M  V30 21 C 3.4411 -1.42342 0.74803 0
M  V30 22 O 4.6311 -1.41488 1.0162 0
M  V30 23 C 1.7631 -2.70173 2.07893 0
M  V30 24 H 2.9561 -1.04789 2.80997 0
M  V30 25 H 0.5091 -0.51083 1.47717 0
M  V30 26 H 1.2441 -3.02605 1.16622 0
M  V30 27 H 1.0291 -2.64082 2.89833 0
M  V30 28 H 2.5191 -3.45869 2.34017 0
M  V30 29 N 2.9562 -1.48159 -0.537278 0
M  V30 30 C 4.3672 -1.49429 -1.11928 0
M  V30 31 C 4.7182 -0.26 -1.9447 0
M  V30 32 O 3.8432 0.633489 -2.0692 0
M  V30 33 C 4.4382 -2.70758 -2.03656 0
M  V30 34 C 2.9972 -2.74923 -2.57088 0
M  V30 35 C 2.1442 -2.42835 -1.3389 0
M  V30 36 H 5.0952 -1.55381 -0.322886 0
M  V30 37 H 5.1162 -2.48861 -2.87834 0
M  V30 38 H 4.6282 -3.60575 -1.43553 0
M  V30 39 H 2.7292 -1.89296 -3.20933 0
M  V30 40 H 2.8422 -3.76157 -2.9672 0
M  V30 41 H 1.2062 -1.93836 -1.65226 0
M  V30 42 H 1.9892 -3.34884 -0.755504 0
M  V30 43 N 4.4343 0.785586 -1.36625 0
M  V30 44 C 5.7113 1.53198 -1.21613 0
M  V30 45 C 6.0913 2.10187 0.196113 0
M  V30 46 O 5.4393 1.94318 1.20219 0
M  V30 47 C 5.6493 2.62388 -2.30116 0
M  V30 48 C 6.9973 3.30167 -2.66974 0
M  V30 49 O 8.0213 2.72674 -2.29188 0
M  V30 50 O 6.8803 4.34077 -3.32023 0
M  V30 51 H 3.9743 0.677865 -0.473738 0
M  V30 52 H 6.5203 0.823739 -1.48367 0
M  V30 53 H 5.2923 2.18299 -3.24748 0
M  V30 54 H 4.9153 3.40827 -2.0475 0
M  V30 55 N 5.9124 1.20967 1.01018 0
M  V30 56 C 7.3234 1.02319 1.56165 0
M  V30 57 C 7.6744 -0.418546 1.91684 0
M  V30 58 O 6.7994 -1.30096 1.72928 0
M  V30 59 C 7.3944 1.85109 2.8376 0
M  V30 60 C 5.9534 1.70809 3.35412 0
M  V30 61 C 5.1004 1.82643 2.08655 0
M  V30 62 H 8.0514 1.35065 0.833255 0
M  V30 63 H 8.0724 1.35827 3.55431 0
M  V30 64 H 7.5844 2.90035 2.57878 0
M  V30 65 H 5.6854 0.685464 3.66241 0
M  V30 66 H 5.7984 2.52467 4.07182 0
M  V30 67 H 4.1624 1.25896 2.21409 0
M  V30 68 H 4.9454 2.89066 1.85191 0
M  V30 69 N 7.3905 -1.2043 1.01659 0
M  V30 70 C 8.6365 -1.90079 0.706963 0
M  V30 71 C 8.9695 -1.78648 -0.761474 0
M  V30 72 O 8.2445 -1.17069 -1.55323 0
M  V30 73 C 8.5275 -3.41469 1.14327 0
M  V30 74 C 8.3805 -3.61833 2.67201 0
M  V30 75 C 9.6995 -4.34261 0.714529 0
M  V30 76 H 6.8185 -0.690254 0.2583 0
M  V30 77 H 9.4605 -1.41826 1.26433 0
M  V30 78 H 7.6105 -3.82696 0.669056 0
M  V30 79 H 9.2825 -3.2986 3.22475 0
M  V30 80 H 7.5255 -3.05304 3.08175 0
M  V30 81 H 8.1965 -4.67955 2.92783 0
M  V30 82 H 10.6725 -4.00682 1.12221 0
M  V30 83 H 9.5485 -5.38806 1.04784 0
M  V30 84 H 9.8095 -4.40431 -0.383799 0
M  V30 85 N 8.8686 -0.792821 -1.36206 0
M  V30 86 C 9.8316 -0.199459 -2.2833 0
M  V30 87 C 10.8316 0.605189 -1.48977 0
M  V30 88 O 12.0216 0.425685 -1.68919 0
M  V30 89 C 9.1536 0.723523 -3.33134 0
M  V30 90 H 10.3466 -1.01181 -2.82316 0
M  V30 91 H 7.8996 -0.562485 -1.45828 0
M  V30 92 H 8.6346 1.56008 -2.84309 0
M  V30 93 H 8.4196 0.148436 -3.91819 0
M  V30 94 H 9.9096 1.13344 -4.01924 0
M  V30 95 N 10.3467 1.47872 -0.545128 0
M  V30 96 C 11.3097 2.28337 0.198717 0
M  V30 97 C 12.3097 1.36255 0.853888 0
M  V30 98 O 13.4997 1.59003 0.711606 0
M  V30 99 C 10.6317 3.15585 1.28915 0
M  V30 100 H 11.8247 2.95567 -0.507941 0
M  V30 101 H 9.3777 1.53362 -0.301616 0
M  V30 102 H 10.1127 2.53019 2.02859 0
M  V30 103 H 9.8977 3.83337 0.824309 0
M  V30 104 H 11.3877 3.76243 1.81194 0
M  V30 105 N 11.8248 0.280983 1.55075 0
M  V30 106 C 12.7348 -0.61388 2.26426 0
M  V30 107 C 13.7508 -1.16521 1.29224 0
M  V30 108 O 14.9268 -1.19426 1.62171 0
M  V30 109 C 11.9918 -1.7788 2.9759 0
M  V30 110 C 11.0528 -1.26355 4.10284 0
M  V30 111 C 10.2858 -2.37295 4.78045 0
M  V30 112 O 10.5088 -3.56777 4.45047 0
M  V30 113 O 9.4428 -2.05119 5.65871 0
M  V30 114 H 13.2688 -0.0356932 3.03679 0
M  V30 115 H 10.8538 0.0481686 1.49322 0
M  V30 116 H 12.7358 -2.45791 3.42293 0
M  V30 117 H 11.4108 -2.34397 2.23249 0
M  V30 118 H 10.3178 -0.550735 3.70024 0
M  V30 119 H 11.6508 -0.744065 4.86543 0
M  V30 120 N 13.3029 -1.57598 0.00835791 0
M  V30 121 C 14.5309 -1.95214 -0.68549 0
M  V30 122 C 14.9459 -0.883706 -1.66841 0
M  V30 123 O 14.3029 0.136565 -1.81988 0
M  V30 124 C 14.3539 -3.32865 -1.41007 0
M  V30 125 O 14.0749 -4.35609 -0.466552 0
M  V30 126 C 15.5759 -3.84991 -2.19765 0
M  V30 127 H 12.7959 -0.643422 -0.190392 0
M  V30 128 H 15.3399 -2.04406 0.0619607 0
M  V30 129 H 13.4949 -3.24956 -2.10908 0
M  V30 130 H 13.9089 -5.15288 -0.978699 0
M  V30 131 H 15.3829 -4.8371 -2.65948 0
M  V30 132 H 15.8599 -3.18137 -3.02796 0
M  V30 133 H 16.4659 -3.96103 -1.54864 0
M  V30 134 N 14.781 0.264519 -1.55364 0
M  V30 135 C 15.744 1.31046 -1.88042 0
M  V30 136 C 16.744 1.41943 -0.755569 0
M  V30 137 O 17.934 1.40947 -1.02369 0
M  V30 138 C 15.066 2.69067 -2.09323 0
M  V30 139 H 16.259 1.03297 -2.81549 0
M  V30 140 H 13.812 0.502989 -1.47986 0
M  V30 141 H 14.547 3.01982 -1.18226 0
M  V30 142 H 14.332 2.62542 -2.91229 0
M  V30 143 H 15.822 3.44623 -2.35848 0
M  V30 144 N 16.2591 1.48442 0.529413 0
M  V30 145 C 17.2221 1.62524 1.61612 0
M  V30 146 C 18.2221 0.498509 1.52877 0
M  V30 147 O 19.4121 0.76431 1.56537 0
M  V30 148 C 16.5441 1.59597 3.01233 0
M  V30 149 H 17.7371 2.59423 1.50465 0
M  V30 150 H 15.2901 1.37047 0.751514 0
M  V30 151 H 16.0251 0.641781 3.17886 0
M  V30 152 H 15.8101 2.41397 3.08982 0
M  V30 153 H 17.3001 1.72646 3.80241 0
M  V30 154 N 17.7372 -0.778329 1.37039 0
M  V30 155 C 18.6692 -1.90034 1.2814 0
M  V30 156 C 19.6822 -1.61585 0.198558 0
M  V30 157 O 20.8712 -1.72625 0.454175 0
M  V30 158 C 17.9712 -3.25108 0.956968 0
M  V30 159 C 17.1442 -3.81253 2.14394 0
M  V30 160 C 16.2032 -4.94789 1.79082 0
M  V30 161 O 15.2292 -5.10721 2.51301 0
M  V30 162 N 16.4312 -5.75878 0.731043 0
M  V30 163 H 19.1962 -1.98186 2.24816 0
M  V30 164 H 16.7572 -0.957129 1.30578 0
M  V30 165 H 18.7492 -3.9857 0.701701 0
M  V30 166 H 17.3192 -3.125 0.0789812 0
M  V30 167 H 16.5392 -2.99647 2.56135 0
M  V30 168 H 17.8272 -4.15495 2.93668 0
M  V30 169 H 17.2252 -5.65547 0.131618 0
M  V30 170 H 15.7822 -6.49596 0.535622 0
M  V30 171 N 19.2153 -1.21501 -1.00376 0
M  V30 172 C 20.4633 -1.03095 -1.73827 0
M  V30 173 C 20.7843 0.436341 -1.90055 0
M  V30 174 O 20.0543 1.31466 -1.45236 0
M  V30 175 H 18.6343 -0.378487 -0.644016 0
M  V30 176 H 21.2963 -1.52831 -1.20949 0
M  V30 177 H 20.3923 -1.49991 -2.73695 0
M  V30 178 N 20.6934 1.19889 -1.02296 0
M  V30 179 C 22.1044 1.71124 -0.746568 0
M  V30 180 C 22.4554 1.81939 0.734335 0
M  V30 181 O 21.5804 1.48639 1.57275 0
M  V30 182 C 22.1754 3.10804 -1.34857 0
M  V30 183 C 20.7344 3.59323 -1.1209 0
M  V30 184 C 19.8814 2.3635 -1.45031 0
M  V30 185 H 22.8324 1.04813 -1.19163 0
M  V30 186 H 22.8534 3.73186 -0.742437 0
M  V30 187 H 22.3654 3.029 -2.42638 0
M  V30 188 H 20.4664 3.7255 -0.0610337 0
M  V30 189 H 20.5794 4.4378 -1.80544 0
M  V30 190 H 18.9434 2.39399 -0.869487 0
M  V30 191 H 19.7264 2.31081 -2.53883 0
M  V30 192 N 22.1715 0.800033 1.35784 0
M  V30 193 C 23.3995 0.389606 2.03199 0
M  V30 194 C 23.8145 -0.997375 1.60306 0
M  V30 195 O 23.1715 -1.64154 0.797481 0
M  V30 196 C 23.2225 0.455855 3.58614 0
M  V30 197 O 22.9435 1.78815 3.99946 0
M  V30 198 C 24.4445 0.0374032 4.43284 0
M  V30 199 H 21.6645 0.159132 0.651857 0
M  V30 200 H 24.2085 1.08183 1.73541 0
M  V30 201 H 22.3635 -0.188057 3.86943 0
M  V30 202 H 22.7775 1.74636 4.94573 0
M  V30 203 H 24.2515 0.134882 5.51835 0
M  V30 204 H 24.7285 -1.01651 4.27275 0
M  V30 205 H 25.3345 0.654215 4.20238 0
M  V30 206 N 23.6496 -1.47581 0.552962 0
M  V30 207 C 25.0606 -1.86324 0.118463 0
M  V30 208 C 25.4116 -1.46006 -1.3106 0
M  V30 209 O 24.5366 -0.861182 -1.98526 0
M  V30 210 C 25.1316 -3.3816 0.20821 0
M  V30 211 C 23.6906 -3.7601 -0.171226 0
M  V30 212 C 22.8376 -2.71634 0.557686 0
M  V30 213 H 25.7886 -1.39159 0.762928 0
M  V30 214 H 25.8096 -3.76141 -0.574278 0
M  V30 215 H 25.3216 -3.67473 1.24841 0
M  V30 216 H 23.4226 -3.52313 -1.21269 0
M  V30 217 H 23.5356 -4.78745 0.184379 0
M  V30 218 H 21.8996 -2.547 0.00125792 0
M  V30 219 H 22.6826 -3.0379 1.59896 0
M  V30 220 N 25.1277 -0.289203 -1.54924 0
M  V30 221 C 26.5437 0.0645403 -1.59469 0
M  V30 222 C 26.7437 1.53419 -1.30632 0
M  V30 223 O 25.7997 2.2852 -1.074 0
M  V30 224 C 27.1127 -0.32278 -2.98963 0
M  V30 225 C 28.6607 -0.270564 -3.11828 0
M  V30 226 C 29.1357 -0.632532 -4.53611 0
M  V30 227 N 30.6267 -0.584617 -4.59496 0
M  V30 228 C 31.3617 -0.837314 -5.67254 0
M  V30 229 N 30.8577 -1.15536 -6.83098 0
M  V30 230 N 32.6507 -0.765166 -5.56868 0
M  V30 231 H 24.8017 -1.24714 -1.71931 0
M  V30 232 H 27.0647 -0.504809 -0.802416 0
M  V30 233 H 26.7707 -1.34541 -3.24948 0
M  V30 234 H 26.6447 0.32944 -3.75759 0
M  V30 235 H 29.0317 0.742805 -2.85598 0
M  V30 236 H 29.1127 -0.957242 -2.37214 0
M  V30 237 H 28.7567 -1.64365 -4.80569 0
M  V30 238 H 28.6867 0.07609 -5.26545 0
M  V30 239 H 31.1777 -0.349248 -3.76283 0
M  V30 240 H 31.4907 -1.33447 -7.61191 0
M  V30 241 H 29.8357 -1.19328 -6.84679 0
M  V30 242 H 33.0267 -0.516432 -4.65243 0
M  V30 243 H 33.1997 -0.965477 -6.40767 0
M  V30 244 N 26.6058 1.57591 -0.0167156 0
M  V30 245 C 27.8358 1.95292 0.674149 0
M  V30 246 C 28.2438 0.891097 1.66901 0
M  V30 247 O 27.5868 -0.136908 1.83189 0
M  V30 248 C 27.6488 3.29072 1.44747 0
M  V30 249 C 27.3128 4.52879 0.612331 0
M  V30 250 C 28.3098 5.1979 -0.107126 0
M  V30 251 C 25.9948 4.99242 0.553381 0
M  V30 252 C 27.9888 6.31375 -0.874339 0
M  V30 253 C 25.6758 6.10713 -0.217546 0
M  V30 254 C 26.6738 6.76637 -0.930123 0
M  V30 255 O 26.3618 7.85969 -1.68844 0
M  V30 256 H 26.0938 0.648275 0.191615 0
M  V30 257 H 28.6478 2.05284 -0.0690148 0
M  V30 258 H 26.8778 3.15535 2.2355 0
M  V30 259 H 28.5668 3.51764 2.02526 0
M  V30 260 H 29.3328 4.84948 -0.0708392 0
M  V30 261 H 25.2118 4.47744 1.09757 0
M  V30 262 H 28.7558 6.82764 -1.43106 0
M  V30 263 H 24.6528 6.44994 -0.255593 0
M  V30 264 H 25.4208 8.02571 -1.6069 0
M  V30 265 N 28.0839 -0.256276 1.55502 0
M  V30 266 C 29.3309 -0.985619 1.76895 0
M  V30 267 C 29.6589 -1.85671 0.579355 0
M  V30 268 O 28.9139 -1.90744 -0.437651 0
M  V30 269 C 29.2129 -1.88432 3.03691 0
M  V30 270 C 28.8789 -1.16936 4.35473 0
M  V30 271 C 27.5409 -0.97173 4.71286 0
M  V30 272 C 29.8929 -0.661889 5.1698 0
M  V30 273 C 27.2209 -0.254179 5.86149 0
M  V30 274 C 29.5729 0.042149 6.32586 0
M  V30 275 C 28.2369 0.25134 6.67027 0
M  V30 276 H 27.5069 -0.360663 0.647304 0
M  V30 277 H 30.1539 -0.256483 1.89775 0
M  V30 278 H 28.4589 -2.68021 2.85783 0
M  V30 279 H 30.1559 -2.45015 3.1744 0
M  V30 280 H 26.7459 -1.33332 4.07333 0
M  V30 281 H 30.9299 -0.802145 4.89775 0
M  V30 282 H 26.1859 -0.0815408 6.11346 0
M  V30 283 H 30.3599 0.443049 6.94989 0
M  V30 284 H 27.9869 0.809314 7.5588 0
M  V30 285 N 29.562 -1.4872 -0.521534 0
M  V30 286 C 30.79 -1.60843 -1.30142 0
M  V30 287 C 31.205 -0.271897 -1.86832 0
M  V30 288 O 30.562 0.739969 -1.66825 0
M  V30 289 C 30.613 -2.66155 -2.4463 0
M  V30 290 O 30.334 -3.94623 -1.90275 0
M  V30 291 C 31.835 -2.88795 -3.36322 0
M  V30 292 H 29.055 -0.542075 -0.395468 0
M  V30 293 H 31.599 -1.94609 -0.628285 0
M  V30 294 H 29.754 -2.35224 -3.07812 0
M  V30 295 H 30.168 -4.52468 -2.65279 0
M  V30 296 H 31.642 -3.66264 -4.12983 0
M  V30 297 H 32.119 -1.97934 -3.9207 0
M  V30 298 H 32.725 -3.21063 -2.78924 0
M  V30 299 N 31.0401 0.771051 -1.3745 0
M  V30 300 C 32.2861 1.53109 -1.339 0
M  V30 301 C 32.6411 1.9225 0.0758401 0
M  V30 302 O 31.9341 1.61264 1.03463 0
M  V30 303 C 32.1281 2.80676 -2.2126 0
M  V30 304 C 31.9571 2.54003 -3.71096 0
M  V30 305 C 30.7271 2.48097 -4.402 0
M  V30 306 C 32.9251 2.21953 -4.63941 0
M  V30 307 N 30.9071 2.13515 -5.75573 0
M  V30 308 C 32.2781 1.97516 -5.87697 0
M  V30 309 C 34.3331 2.08114 -4.5232 0
M  V30 310 C 33.0361 1.60638 -7.01133 0
M  V30 311 C 35.0621 1.72636 -5.65642 0
M  V30 312 C 34.4241 1.4906 -6.88448 0
M  V30 313 H 30.5231 0.56055 -0.54526 0
M  V30 314 H 33.1071 0.899472 -1.72678 0
M  V30 315 H 31.2781 3.41674 -1.84698 0
M  V30 316 H 33.0101 3.46578 -2.08963 0
M  V30 317 H 29.7651 2.63974 -3.93211 0
M  V30 318 H 30.1891 1.98919 -6.47117 0
M  V30 319 H 34.8311 2.25024 -3.57944 0
M  V30 320 H 32.5491 1.42467 -7.95443 0
M  V30 321 H 36.1351 1.62586 -5.58621 0
M  V30 322 H 35.0151 1.22014 -7.7465 0
M  V30 323 N 32.5182 1.22032 0.997298 0
M  V30 324 C 33.7952 0.950823 1.70935 0
M  V30 325 C 34.1752 -0.535292 2.042 0
M  V30 326 O 33.5232 -1.50217 1.72183 0
M  V30 327 C 33.7332 1.84386 2.96315 0
M  V30 328 C 35.0812 2.09732 3.69185 0
M  V30 329 O 36.1052 1.81798 3.06314 0
M  V30 330 O 34.9642 2.57018 4.82291 0
M  V30 331 H 32.0582 0.357204 0.745878 0
M  V30 332 H 34.6042 1.32997 1.05404 0
M  V30 333 H 33.3762 2.84928 2.68201 0
M  V30 334 H 32.9992 1.46602 3.69586 0
M  V30 335 N 33.9963 -1.19345 1.0293 0
M  V30 336 C 34.9063 -2.26245 0.620515 0
M  V30 337 C 35.9223 -1.70486 -0.347928 0
M  V30 338 O 37.0983 -2.00347 -0.205704 0
M  V30 339 C 34.1633 -3.46693 -0.0218957 0
M  V30 340 C 33.2243 -4.17632 0.994102 0
M  V30 341 C 32.4573 -5.32329 0.382253 0
M  V30 342 O 32.6803 -5.64552 -0.814676 0
M  V30 343 O 31.6143 -5.91664 1.10531 0
M  V30 344 H 35.4403 -2.63453 1.51083 0
M  V30 345 H 33.0253 -1.26207 0.799513 0
M  V30 346 H 34.9073 -4.19683 -0.380072 0
M  V30 347 H 33.5823 -3.11333 -0.886209 0
M  V30 348 H 32.4893 -3.4676 1.40387 0
M  V30 349 H 33.8223 -4.56964 1.8288 0
M  V30 350 N 35.4744 -0.807222 -1.35358 0
M  V30 351 C 36.7204 -0.388463 -1.99045 0
M  V30 352 C 37.0534 1.04184 -1.63888 0
M  V30 353 O 36.3284 1.72292 -0.902535 0
M  V30 354 C 36.6114 -0.572783 -3.55515 0
M  V30 355 C 36.4644 -2.04807 -4.00468 0
M  V30 356 C 37.7834 0.00114064 -4.401 0
M  V30 357 H 34.9024 -0.142619 -0.723069 0
M  V30 358 H 37.5444 -1.01687 -1.60498 0
M  V30 359 H 35.6944 -0.0378425 -3.88482 0
M  V30 360 H 37.3664 -2.64544 -3.77908 0
M  V30 361 H 35.6094 -2.54427 -3.51353 0
M  V30 362 H 36.2804 -2.12792 -5.09337 0
M  V30 363 H 38.7564 -0.455716 -4.13597 0
M  V30 364 H 37.6324 -0.157737 -5.48673 0
M  V30 365 H 37.8934 1.09488 -4.28328 0
M  V30 366 N 36.9525 1.47285 -0.560781 0
M  V30 367 C 37.9155 2.28535 0.174488 0
M  V30 368 C 38.9155 1.37153 0.839388 0
M  V30 369 O 40.1055 1.59748 0.694702 0
M  V30 370 C 37.2375 3.16934 1.25561 0
M  V30 371 H 38.4305 2.95012 -0.539262 0
M  V30 372 H 35.9835 1.53034 -0.317865 0
M  V30 373 H 36.7185 2.55157 2.00164 0
M  V30 374 H 36.5035 3.8419 0.783604 0
M  V30 375 H 37.9935 3.78143 1.77193 0
M  V30 376 N 38.4306 0.297415 1.54768 0
M  V30 377 C 39.3626 -0.613881 2.20826 0
M  V30 378 C 40.3756 -1.10032 1.19987 0
M  V30 379 O 41.5646 -1.01839 1.46598 0
M  V30 380 C 38.6646 -1.852 2.83821 0
M  V30 381 C 37.8376 -1.50865 4.10559 0
M  V30 382 C 36.8966 -2.60154 4.57391 0
M  V30 383 O 35.9226 -2.25398 5.2267 0
M  V30 384 N 37.1246 -3.90629 4.29406 0
M  V30 385 H 39.8896 -0.048389 2.99661 0
M  V30 386 H 37.4506 0.11946 1.61459 0
M  V30 387 H 39.4426 -2.57652 3.12086 0
M  V30 388 H 38.0126 -2.32597 2.08847 0
M  V30 389 H 37.2326 -0.616925 3.89343 0
M  V30 390 H 38.5206 -1.25458 4.9309 0
M  V30 391 H 37.9186 -4.21677 3.77101 0
M  V30 392 H 36.4756 -4.59391 4.62388 0
M  V30 393 N 39.9087 -1.5758 0.0250728 0
M  V30 394 C 41.3247 -1.56124 -0.331282 0
M  V30 395 C 41.5247 -1.03029 -1.73169 0
M  V30 396 O 40.5807 -0.675215 -2.43305 0
M  V30 397 C 41.8937 -3.00139 -0.183584 0
M  V30 398 C 43.4417 -3.11946 -0.256654 0
M  V30 399 C 43.9167 -4.57793 -0.137792 0
M  V30 400 N 45.4077 -4.6279 -0.194904 0
M  V30 401 C 46.1427 -5.7326 -0.126655 0
M  V30 402 N 45.6387 -6.928 -0.00755288 0
M  V30 403 N 47.4317 -5.61811 -0.180348 0
M  V30 404 H 39.5827 -1.90424 0.94087 0
M  V30 405 H 41.8457 -0.875761 0.362968 0
M  V30 406 H 41.5517 -3.4292 0.780927 0
M  V30 407 H 41.4257 -3.64899 -0.955448 0
M  V30 408 H 43.8127 -2.69079 -1.21162 0
M  V30 409 H 43.8937 -2.49915 0.545517 0
M  V30 410 H 43.5377 -5.01339 0.813739 0
M  V30 411 H 43.4677 -5.17798 -0.958775 0
M  V30 412 H 45.9587 -3.76807 -0.287267 0
M  V30 413 H 46.2717 -7.72791 0.0379428 0
M  V30 414 H 44.6167 -6.94995 0.0271731 0
M  V30 415 H 47.8077 -4.6731 -0.271767 0
M  V30 416 H 47.9807 -6.47882 -0.123697 0
M  V30 417 N 41.3868 0.248026 -1.55636 0
M  V30 418 C 42.6118 0.998028 -1.81808 0
M  V30 419 C 43.0368 1.78207 -0.601979 0
M  V30 420 O 42.3948 1.75653 0.448961 0
M  V30 421 C 42.4428 1.9125 -3.05705 0
M  V30 422 O 41.5468 3.00406 -2.82542 0
M  V30 423 H 40.8878 0.284045 -0.600179 0
M  V30 424 H 43.4178 0.269357 -2.02819 0
M  V30 425 H 43.4278 2.32737 -3.35108 0
M  V30 426 H 42.1028 1.33602 -3.93857 0
M  V30 427 H 40.6798 2.63056 -2.64303 0
M  V30 428 N 42.8649 1.48995 0.513639 0
M  V30 429 C 44.1129 1.57531 1.26604 0
M  V30 430 C 44.4339 0.258236 1.93283 0
M  V30 431 O 43.7039 -0.721502 1.8213 0
M  V30 432 H 42.2839 0.580387 0.470276 0
M  V30 433 H 44.9459 1.85552 0.596373 0
M  V30 434 H 44.0419 2.36486 2.03669 0
M  V30 435 N 44.343 -0.763751 1.37857 0
M  V30 436 C 45.583 -1.53551 1.34913 0
M  V30 437 C 45.947 -1.91895 -0.0635882 0
M  V30 438 O 47.148 -2.67916 -0.217825 0
M  V30 439 C 45.419 -2.76126 2.26912 0
M  V30 440 S 46.978 -3.66105 2.41893 0
M  V30 441 H 43.796 -0.52559 0.478828 0
M  V30 442 H 46.398 -0.897435 1.73685 0
M  V30 443 H 45.102 -2.4605 3.28463 0
M  V30 444 H 44.633 -3.44887 1.89253 0
M  V30 445 H 46.648 -4.68473 1.63545 0
M  V30 446 N 45.8211 -1.22559 -0.990812 0
M  V30 447 C 46.7311 -1.01394 -2.11557 0
M  V30 448 C 47.7471 0.0383962 -1.73958 0
M  V30 449 O 48.9231 -0.154787 -2.00804 0
M  V30 450 C 45.9881 -0.596569 -3.41529 0
M  V30 451 C 45.0491 -1.72276 -3.93217 0
M  V30 452 C 44.2821 -1.32521 -5.16985 0
M  V30 453 O 44.5051 -0.204909 -5.70032 0
M  V30 454 O 43.4391 -2.14247 -5.62478 0
M  V30 455 H 47.2651 -1.95633 -2.32296 0
M  V30 456 H 44.8501 -1.01172 -1.0993 0
M  V30 457 H 46.7321 -0.374263 -4.19735 0
M  V30 458 H 45.4071 0.316939 -3.22145 0
M  V30 459 H 44.3141 -1.99961 -3.16174 0
M  V30 460 H 45.6471 -2.61421 -4.17037 0
M  V30 461 N 47.2992 1.18797 -1.03562 0
M  V30 462 C 48.2092 2.25913 -0.632505 0
M  V30 463 C 49.2252 1.70668 0.338882 0
M  V30 464 O 50.4012 2.00453 0.195076 0
M  V30 465 C 47.4662 3.467 0.00350942 0
M  V30 466 C 46.5272 4.17098 -1.01624 0
M  V30 467 C 45.7602 5.32119 -0.410478 0
M  V30 468 O 45.9832 5.64976 0.784725 0
M  V30 469 O 44.9172 5.9107 -1.13667 0
M  V30 470 H 48.7432 2.62648 -1.52478 0
M  V30 471 H 46.3282 1.25781 -0.806195 0
M  V30 472 H 48.2102 4.19878 0.35781 0
M  V30 473 H 46.8852 3.11798 0.869686 0
M  V30 474 H 45.7922 3.4601 -1.42224 0
M  V30 475 H 47.1252 4.55987 -1.85301 0
M  V30 476 N 48.7773 0.814389 1.34928 0
M  V30 477 C 50.1933 0.499084 1.51596 0
M  V30 478 C 50.3933 -0.978319 1.76157 0
M  V30 479 O 49.4493 -1.76309 1.80752 0
M  V30 480 C 50.7623 1.35121 2.68631 0
M  V30 481 C 52.3103 1.34746 2.82511 0
M  V30 482 C 52.7853 2.18388 4.0258 0
M  V30 483 N 54.2763 2.15966 4.09772 0
M  V30 484 C 55.0113 2.77437 5.01813 0
M  V30 485 N 54.5073 3.47866 5.99134 0
M  V30 486 N 56.3003 2.67037 4.94619 0
M  V30 487 H 48.4513 1.7711 1.17243 0
M  V30 488 H 50.7143 0.754256 0.574284 0
M  V30 489 H 50.4203 2.40001 2.57085 0
M  V30 490 H 50.2943 1.00991 3.63429 0
M  V30 491 H 52.6813 0.30648 2.93504 0
M  V30 492 H 52.7623 1.72869 1.88547 0
M  V30 493 H 52.4063 3.2253 3.92347 0
M  V30 494 H 52.3363 1.77621 4.9574 0
M  V30 495 H 54.8273 1.64729 3.40107 0
M  V30 496 H 55.1403 3.92038 6.65977 0
M  V30 497 H 53.4853 3.51972 5.99284 0
M  V30 498 H 56.6763 2.11597 4.17546 0
M  V30 499 H 56.8493 3.15232 5.66156 0
M  V30 500 N 50.2554 -1.46986 0.568584 0
M  V30 501 C 51.5014 -2.0332 0.0571487 0
M  V30 502 C 51.8564 -1.43384 -1.28291 0
M  V30 503 O 51.1494 -0.584304 -1.82473 0
M  V30 504 C 51.3434 -3.57306 -0.081836 0
M  V30 505 C 51.1724 -4.32174 1.24321 0
M  V30 506 C 49.9424 -4.71633 1.81358 0
M  V30 507 C 52.1404 -4.66598 2.16312 0
M  V30 508 N 50.1224 -5.31191 3.07748 0
M  V30 509 C 51.4934 -5.26578 3.27285 0
M  V30 510 C 53.5484 -4.48527 2.16166 0
M  V30 511 C 52.2514 -5.70395 4.38226 0
M  V30 512 C 54.2774 -4.93351 3.26127 0
M  V30 513 C 53.6394 -5.5339 4.3582 0
M  V30 514 H 49.7384 -0.77943 0.063351 0
M  V30 515 H 52.3224 -1.79323 0.758378 0
M  V30 516 H 50.4934 -3.81046 -0.752207 0
M  V30 517 H 52.2254 -4.00282 -0.59637 0
M  V30 518 H 48.9804 -4.53946 1.35019 0
M  V30 519 H 49.4044 -5.65505 3.72201 0
M  V30 520 H 54.0464 -4.01456 1.32638 0
M  V30 521 H 51.7644 -6.16452 5.22506 0
M  V30 522 H 55.3504 -4.81131 3.27115 0
M  V30 523 H 54.2304 -5.87441 5.19503 0
M  V30 524 N 51.7335 -0.305618 -1.54608 0
M  V30 525 C 52.6635 0.561482 -2.26649 0
M  V30 526 C 53.6445 1.13415 -1.26772 0
M  V30 527 O 54.8295 1.16262 -1.55553 0
M  V30 528 C 51.9595 1.73122 -3.01075 0
M  V30 529 C 50.9135 1.2887 -4.08138 0
M  V30 530 C 50.2395 2.54396 -4.70305 0
M  V30 531 C 51.5395 0.416578 -5.20636 0
M  V30 532 H 53.2335 -0.0393902 -2.99374 0
M  V30 533 H 50.7795 -0.020385 -1.43986 0
M  V30 534 H 52.7325 2.34396 -3.50195 0
M  V30 535 H 51.4565 2.3584 -2.25936 0
M  V30 536 H 50.1155 0.698991 -3.59875 0
M  V30 537 H 49.7635 3.15439 -3.918 0
M  V30 538 H 49.4635 2.25486 -5.42614 0
M  V30 539 H 50.9875 3.16464 -5.2219 0
M  V30 540 H 52.4015 0.935116 -5.65622 0
M  V30 541 H 50.7985 0.221046 -5.99693 0
M  V30 542 H 51.8685 -0.557162 -4.81688 0
M  V30 543 N 53.2116 1.57565 -0.0334293 0
M  V30 544 C 54.4576 1.92262 0.645226 0
M  V30 545 C 54.7906 0.910543 1.71531 0
M  V30 546 O 54.0656 -0.066099 1.94388 0
M  V30 547 C 54.3486 3.37422 1.2577 0
M  V30 548 C 54.2016 4.49369 0.196891 0
M  V30 549 C 55.5206 3.82628 2.17449 0
M  V30 550 H 52.6396 0.699171 0.233085 0
M  V30 551 H 55.2816 1.89779 -0.0915694 0
M  V30 552 H 53.4316 3.39669 1.88566 0
M  V30 553 H 55.1036 4.59254 -0.433962 0
M  V30 554 H 53.3466 4.31168 -0.477137 0
M  V30 555 H 54.0176 5.47978 0.665124 0
M  V30 556 H 56.4936 3.82145 1.64634 0
M  V30 557 H 55.3696 4.84883 2.57254 0
M  V30 558 H 55.6306 3.18376 3.0674 0
M  V30 559 N 54.6897 -0.239769 1.55765 0
M  V30 560 C 55.9387 -0.964754 1.77131 0
M  V30 561 C 56.2517 -1.86213 0.59868 0
M  V30 562 O 57.4577 -2.6244 0.695522 0
M  V30 563 C 55.9137 -1.76552 3.1362 0
M  V30 564 C 55.5217 -0.915185 4.38553 0
M  V30 565 C 57.2657 -2.48281 3.44321 0
M  V30 566 C 55.1727 -1.71225 5.66071 0
M  V30 567 H 54.1027 -0.363953 0.660344 0
M  V30 568 H 56.7537 -0.219181 1.82186 0
M  V30 569 H 55.1357 -2.55331 3.02691 0
M  V30 570 H 56.3097 -0.169217 4.60489 0
M  V30 571 H 54.6247 -0.310889 4.15238 0
M  V30 572 H 57.2217 -3.08382 4.36812 0
M  V30 573 H 57.5647 -3.20256 2.65973 0
M  V30 574 H 58.0977 -1.76507 3.56497 0
M  V30 575 H 54.8367 -1.03612 6.4726 0
M  V30 576 H 54.3567 -2.43331 5.48224 0
M  V30 577 H 56.0357 -2.27758 6.05587 0
M  V30 578 N 56.1678 -1.49265 -0.50573 0
M  V30 579 C 57.4448 -1.49012 -1.26707 0
M  V30 580 C 57.8248 -0.215205 -2.1 0
M  V30 581 O 57.1728 0.802547 -2.13943 0
M  V30 582 C 57.3828 -2.7663 -2.12783 0
M  V30 583 C 58.7308 -3.25932 -2.72127 0
M  V30 584 O 59.7548 -2.77715 -2.23054 0
M  V30 585 O 58.6138 -4.09897 -3.61451 0
M  V30 586 H 55.7078 -0.596197 -0.57313 0
M  V30 587 H 58.2538 -1.61524 -0.52039 0
M  V30 588 H 57.0258 -3.60916 -1.5118 0
M  V30 589 H 56.6488 -2.66956 -2.94653 0
M  V30 590 N 57.6459 0.756429 -1.3826 0
M  V30 591 C 59.0619 1.0591 -1.19395 0
M  V30 592 C 59.2619 2.01459 -0.0406567 0
M  V30 593 O 58.3179 2.44909 0.614467 0
M  V30 594 C 59.6309 1.64191 -2.51916 0
M  V30 595 C 61.1789 1.76376 -2.58574 0
M  V30 596 C 61.6539 2.38069 -3.91264 0
M  V30 597 N 63.1449 2.45503 -3.92788 0
M  V30 598 C 63.8799 2.94126 -4.92217 0
M  V30 599 N 63.3759 3.42805 -6.02043 0
M  V30 600 N 65.1689 2.9314 -4.7961 0
M  V30 601 H 57.3199 0.122313 -2.12048 0
M  V30 602 H 59.5829 0.116892 -0.940766 0
M  V30 603 H 59.2889 1.01451 -3.3675 0
M  V30 604 H 59.1629 2.6329 -2.70108 0
M  V30 605 H 61.5499 2.38244 -1.74137 0
M  V30 606 H 61.6309 0.759894 -2.44252 0
M  V30 607 H 61.2749 1.76835 -4.76121 0
M  V30 608 H 61.2049 3.39091 -4.02895 0
M  V30 609 H 63.6959 2.1107 -3.13461 0
M  V30 610 H 64.0089 3.78354 -6.73846 0
M  V30 611 H 62.3539 3.4087 -6.05667 0
M  V30 612 H 65.5449 2.54419 -3.92923 0
M  V30 613 H 65.7179 3.30721 -5.5725 0
M  V30 614 N 59.124 1.23083 0.984299 0
M  V30 615 C 60.071 1.00854 2.07598 0
M  V30 616 C 61.041 -0.0726709 1.65941 0
M  V30 617 O 62.226 0.0786535 1.90638 0
M  V30 618 C 59.366 0.601645 3.39815 0
M  V30 619 C 58.479 1.75456 3.94765 0
M  V30 620 C 57.614 1.29482 5.15177 0
M  V30 621 C 56.653 2.41873 5.62284 0
M  V30 622 N 55.79 1.96885 6.73929 0
M  V30 623 H 60.63 1.943 2.25946 0
M  V30 624 H 58.167 0.968001 1.10762 0
M  V30 625 H 60.125 0.346854 4.15756 0
M  V30 626 H 58.755 -0.295803 3.21442 0
M  V30 627 H 57.807 2.12346 3.15616 0
M  V30 628 H 59.119 2.59965 4.25699 0
M  V30 629 H 58.273 0.997923 5.98437 0
M  V30 630 H 57.012 0.420046 4.85888 0
M  V30 631 H 56.017 2.72342 4.77608 0
M  V30 632 H 57.242 3.29881 5.93595 0
M  V30 633 H 55.188 1.11782 6.46406 0
M  V30 634 H 55.105 2.74956 7.04227 0
M  V30 635 H 56.373 1.70289 7.60672 0
M  V30 636 N 60.6021 -1.18246 1.0419 0
M  V30 637 C 61.8481 -1.88536 0.747122 0
M  V30 638 C 62.1811 -1.80223 -0.723409 0
M  V30 639 O 61.4561 -1.20337 -1.52804 0
M  V30 640 C 61.7391 -3.38968 1.21544 0
M  V30 641 C 61.5921 -3.56084 2.74816 0
M  V30 642 C 62.9111 -4.32648 0.806482 0
M  V30 643 H 60.0301 -0.684619 0.272883 0
M  V30 644 H 62.6721 -1.39113 1.29413 0
M  V30 645 H 60.8221 -3.8119 0.750081 0
M  V30 646 H 62.4941 -3.22946 3.29399 0
M  V30 647 H 60.7371 -2.98699 3.14582 0
M  V30 648 H 61.4081 -4.61639 3.02644 0
M  V30 649 H 63.8841 -3.98211 1.20695 0
M  V30 650 H 62.7601 -5.36462 1.1619 0
M  V30 651 H 63.0211 -4.41146 -0.29029 0
M  V30 652 N 62.0802 -0.821533 -1.34494 0
M  V30 653 C 63.3102 -0.421272 -2.02259 0
M  V30 654 C 63.7182 0.977047 -1.6202 0
M  V30 655 O 63.0612 1.64348 -0.820703 0
M  V30 656 C 63.1232 -0.44231 -3.56769 0
M  V30 657 C 62.7872 -1.79372 -4.20327 0
M  V30 658 C 63.7842 -2.75435 -4.40944 0
M  V30 659 C 61.4692 -2.08182 -4.57127 0
M  V30 660 C 63.4632 -3.98482 -4.97484 0
M  V30 661 C 61.1502 -3.31489 -5.13379 0
M  V30 662 C 62.1482 -4.26457 -5.33501 0
M  V30 663 O 61.8362 -5.47585 -5.88562 0
M  V30 664 H 61.5682 -0.167473 -0.654927 0
M  V30 665 H 64.1222 -1.11073 -1.72777 0
M  V30 666 H 62.3522 0.303836 -3.85505 0
M  V30 667 H 64.0412 -0.0622925 -4.05852 0
M  V30 668 H 64.8072 -2.54473 -4.12878 0
M  V30 669 H 60.6862 -1.35066 -4.4077 0
M  V30 670 H 64.2302 -4.72618 -5.13106 0
M  V30 671 H 60.1272 -3.52316 -5.40873 0
M  V30 672 H 60.8952 -5.49086 -6.06998 0
M  V30 673 N 63.5583 1.46682 -0.576371 0
M  V30 674 C 64.5063 2.31953 0.17335 0
M  V30 675 C 65.5003 1.44098 0.89062 0
M  V30 676 O 66.7063 1.60759 0.809728 0
M  V30 677 H 63.0813 0.748273 0.0747727 0
M  V30 678 H 65.0523 2.93007 -0.564738 0
M  V30 679 C 63.8013 3.27142 1.17786 0
M  V30 680 H 63.1243 3.94719 0.635361 0
M  V30 681 H 64.5643 3.896 1.67296 0
M  V30 682 C 63.0233 2.52036 2.23561 0
M  V30 683 O 63.5533 2.27877 3.3081 0
M  V30 684 N 61.7593 2.12709 1.97998 0
M  V30 685 H 61.3063 2.32557 1.10792 0
M  V30 686 H 61.2643 1.62776 2.68982 0
M  V30 687 N 65.0364 0.313813 1.54444 0
M  V30 688 C 66.2854 -0.292519 1.99568 0
M  V30 689 C 66.5984 -1.54011 1.20582 0
M  V30 690 O 67.8044 -2.22183 1.56035 0
M  V30 691 C 66.2604 -0.571752 3.55329 0
M  V30 692 C 65.8684 0.658229 4.43138 0
M  V30 693 C 67.6124 -1.13857 4.08946 0
M  V30 694 C 65.5194 0.351439 5.90355 0
M  V30 695 H 64.4494 -0.113079 0.745472 0
M  V30 696 H 67.1004 0.424518 1.78522 0
M  V30 697 H 65.4824 -1.34872 3.72325 0
M  V30 698 H 66.6564 1.43403 4.37918 0
M  V30 699 H 64.9714 1.14458 4.0036 0
M  V30 700 H 67.5684 -1.38257 5.16516 0
M  V30 701 H 67.9114 -2.08489 3.6033 0
M  V30 702 H 68.4444 -0.423015 3.95544 0
M  V30 703 H 65.1834 1.26667 6.43145 0
M  V30 704 H 64.7034 -0.386842 5.98551 0
M  V30 705 H 66.3824 -0.0423134 6.46986 0
M  V30 706 N 66.5145 -1.57545 0.0417849 0
M  V30 707 C 67.7395 -1.97035 -0.647455 0
M  V30 708 C 68.1645 -0.918775 -1.64135 0
M  V30 709 O 67.5225 0.119006 -1.80909 0
M  V30 710 C 67.5705 -3.35609 -1.31905 0
M  V30 711 O 66.6745 -3.3287 -2.43457 0
M  V30 712 H 66.0155 -0.64211 -0.169086 0
M  V30 713 H 68.5455 -2.04318 0.107399 0
M  V30 714 H 68.5555 -3.72126 -1.67291 0
M  V30 715 H 67.2305 -4.11685 -0.590586 0
M  V30 716 H 65.8075 -3.08087 -2.10088 0
M  V30 717 N 67.9926 0.231505 -1.5589 0
M  V30 718 C 68.9026 1.308 -1.94752 0
M  V30 719 C 69.9186 1.51826 -0.849989 0
M  V30 720 O 71.0946 1.6515 -1.15271 0
M  V30 721 C 68.1596 2.63968 -2.24771 0
M  V30 722 C 67.2206 2.51331 -3.48039 0
M  V30 723 C 66.4536 3.78148 -3.76616 0
M  V30 724 O 66.6766 4.80722 -3.07022 0
M  V30 725 O 65.6106 3.75857 -4.70123 0
M  V30 726 H 69.4366 1.0083 -2.86474 0
M  V30 727 H 67.0216 0.433547 -1.42971 0
M  V30 728 H 68.9036 3.42633 -2.45318 0
M  V30 729 H 67.5786 2.9364 -1.36225 0
M  V30 730 H 66.4856 1.709 -3.32782 0
M  V30 731 H 67.8186 2.26601 -4.36936 0
M  V30 732 N 69.4707 1.49531 0.497807 0
M  V30 733 C 70.7177 1.59179 1.25173 0
M  V30 734 C 71.0457 0.279932 1.92475 0
M  V30 735 O 70.3007 -0.732383 1.81479 0
M  V30 736 C 70.5997 2.70252 2.33878 0
M  V30 737 C 70.2657 4.11644 1.84012 0
M  V30 738 C 68.9277 4.50121 1.70132 0
M  V30 739 C 71.2797 5.00121 1.46725 0
M  V30 740 C 68.6077 5.74845 1.17348 0
M  V30 741 C 70.9597 6.25366 0.95392 0
M  V30 742 C 69.6237 6.6267 0.801538 0
M  V30 743 H 68.8937 0.582478 0.45804 0
M  V30 744 H 71.5407 1.83373 0.551948 0
M  V30 745 H 69.8457 2.40041 3.09657 0
M  V30 746 H 71.5427 2.74925 2.9192 0
M  V30 747 H 68.1327 3.81274 1.95775 0
M  V30 748 H 72.3167 4.71048 1.56294 0
M  V30 749 H 67.5727 6.02444 1.04264 0
M  V30 750 H 71.7467 6.93301 0.656225 0
M  V30 751 H 69.3737 7.59197 0.390351 0
M  V30 752 N 70.9488 -0.749086 1.3866 0
M  V30 753 C 72.1768 -1.53834 1.38358 0
M  V30 754 C 72.5918 -1.88783 -0.0255219 0
M  V30 755 O 71.9488 -1.53101 -0.993292 0
M  V30 756 C 71.9998 -2.83468 2.2434 0
M  V30 757 O 71.7208 -2.50008 3.5976 0
M  V30 758 C 73.2218 -3.7758 2.32267 0
M  V30 759 H 70.4418 -0.47585 0.473083 0
M  V30 760 H 72.9858 -0.926726 1.82297 0
M  V30 761 H 71.1408 -3.40995 1.83851 0
M  V30 762 H 71.5548 -3.33182 4.05081 0
M  V30 763 H 73.0288 -4.65478 2.96706 0
M  V30 764 H 73.5058 -4.18334 1.33765 0
M  V30 765 H 74.1118 -3.25976 2.73166 0
M  V30 766 N 72.4269 -1.23603 -0.977757 0
M  V30 767 C 73.8429 -0.999251 -1.24447 0
M  V30 768 C 74.0429 0.298053 -1.99283 0
M  V30 769 O 73.0989 1.01681 -2.31122 0
M  V30 770 C 74.4119 -2.20784 -2.04144 0
M  V30 771 C 75.9599 -2.25303 -2.17273 0
M  V30 772 C 76.4349 -3.45755 -3.00362 0
M  V30 773 N 77.9259 -3.4601 -3.07947 0
M  V30 774 C 78.6609 -4.35868 -3.72568 0
M  V30 775 N 78.1569 -5.35966 -4.38991 0
M  V30 776 N 79.9499 -4.23605 -3.6948 0
M  V30 777 H 72.1009 -2.06986 -0.476483 0
M  V30 778 H 74.3639 -0.907801 -0.273134 0
M  V30 779 H 74.0699 -3.14945 -1.56533 0
M  V30 780 H 73.9439 -2.22085 -3.04891 0
M  V30 781 H 76.3309 -1.3168 -2.64092 0
M  V30 782 H 76.4119 -2.28033 -1.15907 0
M  V30 783 H 76.0559 -4.39687 -2.5424 0
M  V30 784 H 75.9859 -3.40266 -4.01904 0
M  V30 785 H 78.4769 -2.73588 -2.60688 0
M  V30 786 H 78.7899 -6.00783 -4.86086 0
M  V30 787 H 77.1349 -5.39863 -4.37691 0
M  V30 788 H 80.3259 -3.44647 -3.16759 0
M  V30 789 H 80.4989 -4.93836 -4.1956 0
M  V30 790 N 73.905 1.17692 -1.04816 0
M  V30 791 C 75.321 1.39863 -0.768794 0
M  V30 792 C 75.521 1.91118 0.638451 0
M  V30 793 O 74.577 2.10036 1.40146 0
M  V30 794 C 75.89 2.39274 -1.82122 0
M  V30 795 C 77.438 2.52987 -1.843 0
M  V30 796 C 77.913 3.55669 -2.88555 0
M  V30 797 N 79.404 3.63183 -2.87493 0
M  V30 798 C 80.139 4.42381 -3.64811 0
M  V30 799 N 79.635 5.25125 -4.51903 0
M  V30 800 N 81.428 4.37217 -3.53267 0
M  V30 801 H 73.579 0.82752 -1.95617 0
M  V30 802 H 75.842 0.426123 -0.846831 0
M  V30 803 H 75.548 2.08678 -2.83102 0
M  V30 804 H 75.422 3.38725 -1.65967 0
M  V30 805 H 77.809 2.82896 -0.839869 0
M  V30 806 H 77.89 1.53623 -2.04532 0
M  V30 807 H 77.534 3.26499 -3.89051 0
M  V30 808 H 77.464 4.54728 -2.65575 0
M  V30 809 H 79.955 3.04103 -2.24343 0
M  V30 810 H 80.268 5.82728 -5.07591 0
M  V30 811 H 78.613 5.24519 -4.55966 0
M  V30 812 H 81.804 3.71626 -2.84625 0
M  V30 813 H 81.977 4.98696 -4.13771 0
M  V30 814 N 75.3831 0.828654 1.34056 0
M  V30 815 C 76.3331 0.226828 2.26869 0
M  V30 816 C 77.3171 -0.612243 1.48796 0
M  V30 817 O 78.5091 -0.465884 1.70759 0
M  V30 818 C 75.6381 -0.605654 3.37915 0
M  V30 819 C 74.7241 0.244361 4.23395 0
M  V30 820 N 75.1151 1.31815 4.88322 0
M  V30 821 C 73.4131 0.0296616 4.4599 0
M  V30 822 C 74.1141 1.83895 5.51867 0
M  V30 823 N 73.0901 1.14196 5.3147 0
M  V30 824 H 76.8921 1.04811 2.74576 0
M  V30 825 H 74.4061 0.67205 1.47842 0
M  V30 826 H 76.4031 -1.05302 4.03382 0
M  V30 827 H 75.0631 -1.42504 2.91758 0
M  V30 828 H 76.0741 1.70099 4.8917 0
M  V30 829 H 72.7511 -0.757097 4.10578 0
M  V30 830 H 74.1411 2.7376 6.136 0
M  V30 831 N 76.8612 -1.46375 0.584142 0
M  V30 832 C 78.2722 -1.86031 0.157959 0
M  V30 833 C 78.6232 -1.48753 -1.27933 0
M  V30 834 O 77.7482 -0.903098 -1.96655 0
M  V30 835 C 78.3432 -3.37642 0.279892 0
M  V30 836 C 76.9022 -3.76289 -0.09143 0
M  V30 837 C 76.0492 -2.7039 0.615178 0
M  V30 838 H 79.0002 -1.37509 0.792274 0
M  V30 839 H 79.0212 -3.77275 -0.494364 0
M  V30 840 H 78.5332 -3.64742 1.32607 0
M  V30 841 H 76.6342 -3.54806 -1.13769 0
M  V30 842 H 76.7472 -4.78246 0.285886 0
M  V30 843 H 75.1112 -2.5464 0.0552833 0
M  V30 844 H 75.8942 -3.0033 1.66303 0
M  V30 845 N 78.3393 -0.321999 -1.54275 0
M  V30 846 C 79.5873 0.280489 -2.00144 0
M  V30 847 C 79.9083 1.52777 -1.21178 0
M  V30 848 O 79.1783 1.9338 -0.313187 0
M  V30 849 H 77.7583 0.106632 -0.73935 0
M  V30 850 H 80.4203 -0.438184 -1.8991 0
M  V30 851 H 79.5163 0.537972 -3.07428 0
M  V30 852 N 79.8174 1.5752 -0.0501392 0
M  V30 853 C 81.0654 1.9227 0.622642 0
M  V30 854 C 81.3864 0.929083 1.71444 0
M  V30 855 O 80.6564 -0.0262186 1.95882 0
M  V30 856 H 79.2364 0.709739 0.232981 0
M  V30 857 H 81.8984 1.94628 -0.102898 0
M  V30 858 H 80.9944 2.93479 1.06191 0
M  V30 859 N 81.2955 -0.223234 1.56011 0
M  V30 860 C 82.5205 -0.968978 1.83373 0
M  V30 861 C 82.9455 -1.77227 0.630254 0
M  V30 862 O 82.3035 -1.76345 -0.420959 0
M  V30 863 C 82.3515 -1.86363 3.08709 0
M  V30 864 O 81.4555 -2.95873 2.87285 0
M  V30 865 H 80.7965 -0.274461 0.604622 0
M  V30 866 H 83.3265 -0.237056 2.03222 0
M  V30 867 H 83.3365 -2.27376 3.38768 0
M  V30 868 H 82.0115 -1.27319 3.95933 0
M  V30 869 H 80.5885 -2.58818 2.68454 0
M  V30 870 N 82.7736 -1.49793 -0.48987 0
M  V30 871 C 84.1896 -1.36803 -0.822022 0
M  V30 872 C 84.3896 -0.409652 -1.97292 0
M  V30 873 O 83.4456 0.154614 -2.52026 0
M  V30 874 C 84.7586 -2.77768 -1.15175 0
M  V30 875 C 86.3066 -2.86549 -1.25931 0
M  V30 876 C 86.7816 -4.28306 -1.62228 0
M  V30 877 N 88.2726 -4.31169 -1.69256 0
M  V30 878 C 89.0076 -5.37832 -1.98807 0
M  V30 879 N 88.5036 -6.54726 -2.26507 0
M  V30 880 N 90.2966 -5.25258 -2.00152 0
M  V30 881 H 82.4476 -2.10691 0.268881 0
M  V30 882 H 84.7106 -0.946241 0.057728 0
M  V30 883 H 84.4166 -3.49648 -0.379335 0
M  V30 884 H 84.2906 -3.13836 -2.09253 0
M  V30 885 H 86.6776 -2.14899 -2.02243 0
M  V30 886 H 86.7586 -2.54049 -0.298776 0
M  V30 887 H 86.4026 -5.00486 -0.864622 0
M  V30 888 H 86.3326 -4.58279 -2.594 0
M  V30 889 H 88.8236 -3.4687 -1.49965 0
M  V30 890 H 89.1366 -7.31833 -2.48276 0
M  V30 891 H 87.4816 -6.57933 -2.23939 0
M  V30 892 H 90.6726 -4.32938 -1.77996 0
M  V30 893 H 90.8456 -6.08476 -2.22848 0
M  V30 894 N 84.2517 0.741722 -1.39055 0
M  V30 895 C 85.4977 1.50336 -1.36113 0
M  V30 896 C 85.8307 1.94148 0.0450796 0
M  V30 897 O 85.1057 1.66301 1.00868 0
M  V30 898 C 85.3887 2.74773 -2.32749 0
M  V30 899 C 85.2417 2.37023 -3.82283 0
M  V30 900 C 86.5607 3.76846 -2.27322 0
M  V30 901 H 83.6797 0.545351 -0.495743 0
M  V30 902 H 86.3217 0.848624 -1.69995 0
M  V30 903 H 84.4717 3.30639 -2.03986 0
M  V30 904 H 86.1437 1.8684 -4.21768 0
M  V30 905 H 84.3867 1.69334 -3.99385 0
M  V30 906 H 85.0577 3.26104 -4.45376 0
M  V30 907 H 87.5337 3.30548 -2.5274 0
M  V30 908 H 86.4097 4.6159 -2.97028 0
M  V30 909 H 86.6707 4.23286 -1.27599 0
M  V30 910 N 85.7298 1.2412 0.971189 0
M  V30 911 C 86.9788 1.07284 1.70801 0
M  V30 912 C 87.2918 -0.388902 1.91695 0
M  V30 913 O 88.4978 -0.677379 2.62914 0
M  V30 914 C 86.9538 1.87145 3.07416 0
M  V30 915 C 86.5618 3.37707 2.94377 0
M  V30 916 C 88.3058 1.78828 3.84995 0
M  V30 917 C 86.2128 4.09925 4.26281 0
M  V30 918 H 85.1428 0.397854 0.64049 0
M  V30 919 H 87.7938 1.4817 1.0825 0
M  V30 920 H 86.1758 1.39071 3.70777 0
M  V30 921 H 87.3498 3.93335 2.4005 0
M  V30 922 H 85.6648 3.46938 2.30267 0
M  V30 923 H 88.2618 2.30089 4.82662 0
M  V30 924 H 88.6048 0.75284 4.09436 0
M  V30 925 H 89.1378 2.24563 3.28354 0
M  V30 926 H 85.8768 5.13813 4.07033 0
M  V30 927 H 85.3968 3.59083 4.80437 0
M  V30 928 H 87.0758 4.1673 4.94919 0
M  V30 929 N 87.2079 -1.17134 1.05439 0
M  V30 930 C 88.4329 -1.91913 0.786396 0
M  V30 931 C 88.8579 -1.7643 -0.652234 0
M  V30 932 O 88.2159 -1.08372 -1.45345 0
M  V30 933 C 88.2639 -3.40921 1.17497 0
M  V30 934 O 87.3679 -4.11244 0.308589 0
M  V30 935 H 86.7089 -0.598215 0.288158 0
M  V30 936 H 89.2389 -1.48457 1.4079 0
M  V30 937 H 89.2489 -3.91668 1.14281 0
M  V30 938 H 87.9239 -3.5151 2.22292 0
M  V30 939 H 86.5009 -3.70731 0.40157 0
M  V30 940 N 88.686 -0.835752 -1.33615 0
M  V30 941 C 89.636 -0.238856 -2.26745 0
M  V30 942 C 90.62 0.604343 -1.49119 0
M  V30 943 O 91.812 0.456822 -1.71003 0
M  V30 944 C 88.941 0.587725 -3.38232 0
M  V30 945 C 88.027 -0.266811 -4.2326 0
M  V30 946 N 88.418 -1.34403 -4.87616 0
M  V30 947 C 86.716 -0.0533131 -4.45968 0
M  V30 948 C 87.417 -1.86819 -5.50884 0
M  V30 949 N 86.393 -1.17013 -5.30857 0
M  V30 950 H 90.195 -1.06266 -2.74016 0
M  V30 951 H 87.709 -0.679881 -1.47483 0
M  V30 952 H 89.706 1.03161 -4.03935 0
M  V30 953 H 88.366 1.40954 -2.9251 0
M  V30 954 H 89.377 -1.7269 -4.88261 0
M  V30 955 H 86.054 0.735312 -4.10974 0
M  V30 956 H 87.444 -2.7701 -6.1214 0
M  V30 957 N 90.1641 1.46063 -0.591896 0
M  V30 958 C 91.3941 2.06418 -0.0867676 0
M  V30 959 C 91.8021 1.43975 1.22751 0
M  V30 960 O 91.1451 0.542531 1.75506 0
M  V30 961 C 91.2071 3.59213 0.143725 0
M  V30 962 C 90.8711 4.439 -1.08635 0
M  V30 963 C 91.8681 4.79864 -2.00067 0
M  V30 964 C 89.5531 4.84896 -1.31077 0
M  V30 965 C 91.5471 5.55661 -3.12282 0
M  V30 966 C 89.2341 5.6045 -2.43596 0
M  V30 967 C 90.2321 5.95747 -3.34027 0
M  V30 968 O 89.9201 6.69772 -4.4459 0
M  V30 969 H 89.6521 0.673443 -0.0587447 0
M  V30 970 H 92.2061 1.88539 -0.814994 0
M  V30 971 H 90.4361 3.75433 0.926668 0
M  V30 972 H 92.1251 4.01463 0.5985 0
M  V30 973 H 92.8911 4.48763 -1.83947 0
M  V30 974 H 88.7701 4.56867 -0.61594 0
M  V30 975 H 92.3141 5.8313 -3.82891 0
M  V30 976 H 88.2111 5.90965 -2.59674 0
M  V30 977 H 88.9791 6.88207 -4.43073 0
M  V30 978 N 91.6422 0.330177 1.54103 0
M  V30 979 C 92.6052 -0.520144 2.2322 0
M  V30 980 C 93.6052 -1.03828 1.22786 0
M  V30 981 O 94.7952 -0.929652 1.4732 0
M  V30 982 C 91.9272 -1.72317 2.94142 0
M  V30 983 H 93.1202 0.0841605 2.99782 0
M  V30 984 H 90.6732 0.0813433 1.56088 0
M  V30 985 H 91.4082 -2.36653 2.21734 0
M  V30 986 H 91.1932 -1.35898 3.67796 0
M  V30 987 H 92.6832 -2.3266 3.46784 0
M  V30 988 N 93.1203 -1.57491 0.0584922 0
M  V30 989 C 94.3683 -1.92597 -0.612436 0
M  V30 990 C 94.6893 -0.938162 -1.70949 0
M  V30 991 O 93.9593 0.0158301 -1.95894 0
M  V30 992 H 92.5393 -0.710964 -0.229214 0
M  V30 993 H 95.2013 -1.94571 0.113218 0
M  V30 994 H 94.2973 -2.94038 -1.04633 0
M  V30 995 N 94.5984 0.214957 -1.56127 0
M  V30 996 C 95.5304 1.29004 -1.89448 0
M  V30 997 C 96.5434 1.42716 -0.783326 0
M  V30 998 O 97.7324 1.43496 -1.06166 0
M  V30 999 C 94.8324 2.66482 -2.09381 0
M  V30 1000 C 94.0054 2.74633 -3.40434 0
M  V30 1001 C 93.0644 3.9317 -3.49719 0
M  V30 1002 O 92.0904 3.812 -4.227 0
M  V30 1003 N 93.2924 5.07765 -2.81346 0
M  V30 1004 H 96.0574 1.00743 -2.82261 0
M  V30 1005 H 93.6184 0.40497 -1.56753 0
M  V30 1006 H 95.6104 3.44173 -2.12901 0
M  V30 1007 H 94.1804 2.87314 -1.23163 0
M  V30 1008 H 93.4004 1.83368 -3.48955 0
M  V30 1009 H 94.6884 2.77054 -4.26754 0
M  V30 1010 H 94.0864 5.20386 -2.21843 0
M  V30 1011 H 92.6434 5.83474 -2.90519 0
M  V30 1012 N 96.0765 1.50051 0.48192 0
M  V30 1013 C 97.3535 1.51009 1.2432 0
M  V30 1014 C 97.7335 0.248587 2.09631 0
M  V30 1015 O 97.0815 -0.768409 2.15192 0
M  V30 1016 C 97.2915 2.79981 2.08355 0
M  V30 1017 C 98.6395 3.3022 2.66908 0
M  V30 1018 O 99.6635 2.81228 2.18607 0
M  V30 1019 O 98.5225 4.15595 3.54884 0
M  V30 1020 H 95.6165 0.605239 0.563573 0
M  V30 1021 H 98.1625 1.62332 0.494627 0
M  V30 1022 H 96.9345 3.63275 1.45419 0
M  V30 1023 H 96.5575 2.7161 2.90368 0
M  V30 1024 N 97.5546 -0.734337 1.39446 0
M  V30 1025 C 98.5176 -1.83004 1.37994 0
M  V30 1026 C 99.5176 -1.58397 0.276938 0
M  V30 1027 O 100.708 -1.65785 0.534875 0
M  V30 1028 C 97.8396 -3.20802 1.1532 0
M  V30 1029 H 99.0326 -1.85694 2.35494 0
M  V30 1030 H 96.5856 -0.938059 1.25021 0
M  V30 1031 H 97.3206 -3.23772 0.185036 0
M  V30 1032 H 97.1056 -3.4006 1.95197 0
M  V30 1033 H 98.5956 -4.00862 1.17046 0
M  V30 1034 N 99.0327 -1.24633 -0.964593 0
M  V30 1035 C 100.261 -1.11501 -1.74285 0
M  V30 1036 C 100.676 0.332165 -1.85855 0
M  V30 1037 O 100.033 1.22903 -1.34911 0
M  V30 1038 C 100.084 -1.75258 -3.16175 0
M  V30 1039 O 99.8047 -3.14318 -3.05182 0
M  V30 1040 C 101.306 -1.67776 -4.10324 0
M  V30 1041 H 98.5257 -0.389407 -0.546446 0
M  V30 1042 H 101.07 -1.64801 -1.21083 0
M  V30 1043 H 99.2247 -1.25954 -3.66353 0
M  V30 1044 H 99.6387 -3.4551 -3.94618 0
M  V30 1045 H 101.113 -2.17064 -5.0753 0
M  V30 1046 H 101.59 -0.639584 -4.34518 0
M  V30 1047 H 102.196 -2.16522 -3.66058 0
M  V30 1048 N 100.511 1.16574 -1.06058 0
M  V30 1049 C 101.788 1.83048 -0.689416 0
M  V30 1050 C 102.168 1.94122 0.829443 0
M  V30 1051 O 101.516 1.48249 1.7388 0
M  V30 1052 C 101.726 3.20186 -1.38859 0
M  V30 1053 C 103.074 3.95989 -1.53226 0
M  V30 1054 O 104.098 3.29696 -1.3483 0
M  V30 1055 O 102.957 5.14813 -1.83384 0
M  V30 1056 H 100.051 0.790258 -0.243764 0
M  V30 1057 H 102.597 1.23797 -1.16071 0
M  V30 1058 H 101.369 3.07146 -2.4244 0
M  V30 1059 H 100.992 3.87112 -0.907216 0
M  V30 1060 N 101.989 0.842826 1.3317 0
M  V30 1061 C 103.4 0.496651 1.79973 0
M  V30 1062 C 103.751 -0.984641 1.69703 0
M  V30 1063 O 102.876 -1.76743 1.24863 0
M  V30 1064 C 103.471 0.894727 3.26772 0
M  V30 1065 C 102.03 0.600629 3.71577 0
M  V30 1066 C 101.177 1.10091 2.5451 0
M  V30 1067 H 104.128 1.03116 1.20635 0
M  V30 1068 H 104.149 0.206347 3.7994 0
M  V30 1069 H 103.661 1.97287 3.34215 0
M  V30 1070 H 101.762 -0.467284 3.69658 0
M  V30 1071 H 101.875 1.15863 4.64879 0
M  V30 1072 H 100.239 0.52162 2.49301 0
M  V30 1073 H 101.022 2.18591 2.64713 0
M  V30 1074 N 103.467 -1.45747 0.599634 0
M  V30 1075 C 104.714 -2.02292 0.0917284 0
M  V30 1076 C 105.042 -1.46906 -1.27472 0
M  V30 1077 O 104.297 -0.630652 -1.8526 0
M  V30 1078 C 104.596 -3.57399 -0.00602758 0
M  V30 1079 C 104.262 -4.31902 1.29503 0
M  V30 1080 C 102.924 -4.51974 1.65144 0
M  V30 1081 C 105.276 -4.74551 2.15525 0
M  V30 1082 C 102.604 -5.11949 2.86574 0
M  V30 1083 C 104.956 -5.35868 3.36196 0
M  V30 1084 C 103.62 -5.54165 3.72099 0
M  V30 1085 H 102.89 -0.740239 0.0335658 0
M  V30 1086 H 105.537 -1.7491 0.779661 0
M  V30 1087 H 103.842 -3.84014 -0.777183 0
M  V30 1088 H 105.539 -3.98846 -0.415038 0
M  V30 1089 H 102.129 -4.16588 1.00761 0
M  V30 1090 H 106.313 -4.58784 1.8929 0
M  V30 1091 H 101.569 -5.24305 3.14507 0
M  V30 1092 H 105.743 -5.6787 4.03109 0
M  V30 1093 H 103.37 -6.00406 4.6628 0
M  V30 1094 N 104.945 -0.338344 -1.53925 0
M  V30 1095 C 106.191 0.260143 -2.01125 0
M  V30 1096 C 106.524 1.50617 -1.22589 0
M  V30 1097 O 105.799 1.91979 -0.312113 0
M  V30 1098 C 106.082 0.579499 -3.55407 0
M  V30 1099 C 105.935 -0.678264 -4.44657 0
M  V30 1100 C 107.254 1.39122 -4.17532 0
M  V30 1101 H 104.373 0.0930772 -0.731099 0
M  V30 1102 H 107.015 -0.457852 -1.84401 0
M  V30 1103 H 105.165 1.19118 -3.69788 0
M  V30 1104 H 106.837 -1.31631 -4.42121 0
M  V30 1105 H 105.08 -1.3042 -4.13731 0
M  V30 1106 H 105.751 -0.410143 -5.50474 0
M  V30 1107 H 108.227 0.874035 -4.06817 0
M  V30 1108 H 107.103 1.58342 -5.25565 0
M  V30 1109 H 107.364 2.39178 -3.71815 0
M  V30 1110 N 106.423 1.57458 -0.0668435 0
M  V30 1111 C 107.386 2.11323 0.887422 0
M  V30 1112 C 108.386 1.03618 1.22964 0
M  V30 1113 O 109.576 1.29626 1.16373 0
M  V30 1114 C 106.708 2.61048 2.19242 0
M  V30 1115 H 107.901 2.96942 0.420194 0
M  V30 1116 H 105.454 1.55239 0.181793 0
M  V30 1117 H 106.189 1.78868 2.70512 0
M  V30 1118 H 105.974 3.39769 1.95702 0
M  V30 1119 H 107.464 3.02814 2.87565 0
M  V30 1120 N 107.901 -0.206675 1.56239 0
M  V30 1121 C 109.148 -0.928842 1.79941 0
M  V30 1122 C 109.476 -1.83734 0.638131 0
M  V30 1123 O 108.731 -1.92039 -0.376746 0
M  V30 1124 C 109.03 -1.78675 3.09532 0
M  V30 1125 C 108.696 -1.03022 4.38973 0
M  V30 1126 C 107.358 -0.821302 4.74139 0
M  V30 1127 C 109.71 -0.497081 5.18824 0
M  V30 1128 C 107.038 -0.0675719 5.86661 0
M  V30 1129 C 109.39 0.24338 6.32132 0
M  V30 1130 C 108.054 0.463422 6.65889 0
M  V30 1131 H 107.324 -0.339887 0.658451 0
M  V30 1132 H 109.971 -0.195977 1.90495 0
M  V30 1133 H 108.276 -2.58794 2.94165 0
M  V30 1134 H 109.973 -2.34792 3.25075 0
M  V30 1135 H 106.563 -1.20306 4.11369 0
M  V30 1136 H 110.747 -0.645921 4.92079 0
M  V30 1137 H 106.003 0.112995 6.11296 0
M  V30 1138 H 110.177 0.66393 6.93228 0
M  V30 1139 H 107.804 1.04938 7.52922 0
M  V30 1140 N 109.379 -1.50304 -0.473955 0
M  V30 1141 C 110.329 -1.65347 -1.56985 0
M  V30 1142 C 111.313 -0.508176 -1.52664 0
M  V30 1143 O 112.505 -0.762446 -1.59737 0
M  V30 1144 C 109.634 -1.74832 -2.95447 0
M  V30 1145 C 108.72 -2.95028 -3.04662 0
M  V30 1146 N 109.111 -4.18747 -2.83698 0
M  V30 1147 C 107.409 -2.93527 -3.35795 0
M  V30 1148 C 108.11 -4.99687 -2.97805 0
M  V30 1149 N 107.086 -4.33585 -3.2788 0
M  V30 1150 H 110.888 -2.58698 -1.39472 0
M  V30 1151 H 108.402 -1.47449 -0.680629 0
M  V30 1152 H 110.399 -1.83712 -3.7424 0
M  V30 1153 H 109.059 -0.826376 -3.14008 0
M  V30 1154 H 110.07 -4.48291 -2.59337 0
M  V30 1155 H 106.747 -2.10821 -3.60362 0
M  V30 1156 H 108.137 -6.08057 -2.85861 0
M  V30 1157 N 110.857 0.726932 -1.39834 0
M  V30 1158 C 112.106 1.48214 -1.36805 0
M  V30 1159 C 112.419 1.95576 0.0305291 0
M  V30 1160 O 113.625 2.7088 0.183417 0
M  V30 1161 C 112.081 2.67854 -2.40379 0
M  V30 1162 C 111.689 2.27408 -3.85992 0
M  V30 1163 C 113.433 3.45641 -2.46439 0
M  V30 1164 C 111.34 3.43819 -4.81189 0
M  V30 1165 H 110.27 0.556606 -0.508631 0
M  V30 1166 H 112.921 0.792216 -1.65518 0
M  V30 1167 H 111.303 3.3896 -2.04749 0
M  V30 1168 H 112.477 1.63795 -4.30706 0
M  V30 1169 H 110.792 1.62692 -3.83302 0
M  V30 1170 H 113.389 4.32244 -3.14753 0
M  V30 1171 H 113.732 3.88669 -1.49139 0
M  V30 1172 H 114.265 2.8157 -2.81004 0
M  V30 1173 H 111.004 3.05834 -5.79781 0
M  V30 1174 H 110.524 4.06385 -4.41148 0
M  V30 1175 H 112.203 4.10043 -5.00474 0
M  V30 1176 N 112.336 1.25143 0.95797 0
M  V30 1177 C 113.284 1.05019 2.07542 0
M  V30 1178 C 114.278 -0.0178751 1.69391 0
M  V30 1179 O 115.484 0.137472 1.79474 0
M  V30 1180 H 111.859 0.32265 0.679265 0
M  V30 1181 H 113.83 1.99759 2.21673 0
M  V30 1182 C 112.579 0.682074 3.40944 0
M  V30 1183 H 111.902 1.49573 3.70767 0
M  V30 1184 H 113.342 0.580945 4.20001 0
M  V30 1185 C 111.801 -0.611608 3.31302 0
M  V30 1186 O 112.331 -1.65465 3.66038 0
M  V30 1187 N 110.537 -0.595982 2.84423 0
M  V30 1188 H 110.084 0.253192 2.56353 0
M  V30 1189 H 110.042 -1.46173 2.78354 0
M  V30 1190 N 113.814 -1.1601 1.06675 0
M  V30 1191 C 114.761 -2.20525 0.680967 0
M  V30 1192 C 115.731 -1.62904 -0.324283 0
M  V30 1193 O 116.916 -1.89615 -0.212294 0
M  V30 1194 C 114.056 -3.45013 0.0776551 0
M  V30 1195 C 113.169 -4.16863 1.13355 0
M  V30 1196 C 112.304 -5.2888 0.49597 0
M  V30 1197 C 111.343 -5.92537 1.53513 0
M  V30 1198 N 110.48 -6.96038 0.920631 0
M  V30 1199 H 115.32 -2.52876 1.57663 0
M  V30 1200 H 112.857 -1.24199 0.788223 0
M  V30 1201 H 114.815 -4.16193 -0.289704 0
M  V30 1202 H 113.445 -3.132 -0.781393 0
M  V30 1203 H 112.497 -3.44248 1.61857 0
M  V30 1204 H 113.809 -4.60294 1.92174 0
M  V30 1205 H 112.963 -6.06653 0.0758604 0
M  V30 1206 H 111.702 -4.86622 -0.324062 0
M  V30 1207 H 110.707 -5.13482 1.9651 0
M  V30 1208 H 111.932 -6.36873 2.35733 0
M  V30 1209 H 109.878 -6.55888 0.12138 0
M  V30 1210 H 109.795 -7.3786 1.64616 0
M  V30 1211 H 111.063 -7.77725 0.525795 0
M  V30 1212 N 115.292 -0.849877 -1.32721 0
M  V30 1213 C 116.54 -0.450032 -1.97026 0
M  V30 1214 C 116.861 0.996604 -1.67609 0
M  V30 1215 O 116.131 1.6958 -0.980786 0
M  V30 1216 H 114.711 -0.163426 -0.728904 0
M  V30 1217 H 117.373 -1.08526 -1.6189 0
M  V30 1218 H 116.469 -0.591146 -3.0645 0
M  V30 1219 N 116.77 1.45427 -0.607355 0
M  V30 1220 C 117.7 2.3329 0.0989352 0
M  V30 1221 C 118.681 1.46816 0.859007 0
M  V30 1222 O 119.866 1.75588 0.829604 0
M  V30 1223 C 116.996 3.29518 1.09705 0
M  V30 1224 C 115.95 4.25626 0.450206 0
M  V30 1225 C 115.276 5.11542 1.55655 0
M  V30 1226 C 116.576 5.18505 -0.628455 0
M  V30 1227 H 118.27 2.92595 -0.634716 0
M  V30 1228 H 115.816 1.40696 -0.306681 0
M  V30 1229 H 117.769 3.89855 1.59971 0
M  V30 1230 H 116.493 2.68372 1.86129 0
M  V30 1231 H 115.152 3.66586 -0.0315886 0
M  V30 1232 H 114.8 4.46765 2.31107 0
M  V30 1233 H 114.5 5.76647 1.12925 0
M  V30 1234 H 116.024 5.74748 2.06148 0
M  V30 1235 H 117.438 5.72916 -0.209877 0
M  V30 1236 H 115.835 5.92085 -0.977489 0
M  V30 1237 H 116.905 4.60948 -1.50514 0
M  V30 1238 N 118.248 0.346503 1.53744 0
M  V30 1239 C 119.494 -0.249473 2.0126 0
M  V30 1240 C 119.827 -1.49965 1.23386 0
M  V30 1241 O 119.102 -1.91811 0.32229 0
M  V30 1242 C 119.385 -0.560643 3.55709 0
M  V30 1243 C 119.238 0.701836 4.44291 0
M  V30 1244 C 120.557 -1.36905 4.18264 0
M  V30 1245 H 117.676 -0.0891987 0.731582 0
M  V30 1246 H 120.318 0.467624 1.84156 0
M  V30 1247 H 118.468 -1.17156 3.70414 0
M  V30 1248 H 120.14 1.33974 4.41417 0
M  V30 1249 H 118.383 1.32612 4.13033 0
M  V30 1250 H 119.054 0.43933 5.50249 0
M  V30 1251 H 121.53 -0.852448 4.07275 0
M  V30 1252 H 120.406 -1.55553 5.26398 0
M  V30 1253 H 120.667 -2.37203 3.73078 0
M  V30 1254 N 119.726 -1.57421 0.075193 0
M  V30 1255 C 120.673 -2.12915 -0.890843 0
M  V30 1256 C 121.643 -1.04252 -1.29309 0
M  V30 1257 O 122.828 -1.31933 -1.37834 0
M  V30 1258 C 119.968 -2.69795 -2.15186 0
M  V30 1259 C 119.081 -3.92624 -1.80194 0
M  V30 1260 C 118.216 -4.37736 -3.00933 0
M  V30 1261 C 117.255 -5.53205 -2.61974 0
M  V30 1262 N 116.392 -5.9326 -3.75483 0
M  V30 1263 H 121.232 -2.95156 -0.410735 0
M  V30 1264 H 118.769 -1.45854 -0.191086 0
M  V30 1265 H 120.727 -3.00883 -2.89008 0
M  V30 1266 H 119.357 -1.90313 -2.60731 0
M  V30 1267 H 118.409 -3.67977 -0.964218 0
M  V30 1268 H 119.721 -4.76482 -1.47534 0
M  V30 1269 H 118.875 -4.70503 -3.8303 0
M  V30 1270 H 117.614 -3.52739 -3.36789 0
M  V30 1271 H 116.619 -5.20086 -1.783 0
M  V30 1272 H 117.844 -6.39936 -2.27284 0
M  V30 1273 H 115.79 -5.11212 -4.11094 0
M  V30 1274 H 115.707 -6.71865 -3.46602 0
M  V30 1275 H 116.975 -6.30651 -4.58148 0
M  V30 1276 N 121.204 0.198386 -1.56346 0
M  V30 1277 C 122.151 1.24589 -1.94284 0
M  V30 1278 C 123.121 1.454 -0.802997 0
M  V30 1279 O 124.306 1.58588 -1.06087 0
M  V30 1280 C 121.446 2.58631 -2.28482 0
M  V30 1281 C 120.559 2.45426 -3.55514 0
M  V30 1282 C 119.694 3.7215 -3.79049 0
M  V30 1283 C 118.733 3.53763 -4.99518 0
M  V30 1284 N 117.87 4.72491 -5.19323 0
M  V30 1285 H 122.71 0.915356 -2.83593 0
M  V30 1286 H 120.247 0.440629 -1.40346 0
M  V30 1287 H 122.205 3.3672 -2.46324 0
M  V30 1288 H 120.835 2.89734 -1.42317 0
M  V30 1289 H 119.887 1.58652 -3.45737 0
M  V30 1290 H 121.199 2.27772 -4.43758 0
M  V30 1291 H 120.353 4.58679 -3.97113 0
M  V30 1292 H 119.092 3.92754 -2.89129 0
M  V30 1293 H 118.097 2.65619 -4.8138 0
M  V30 1294 H 119.322 3.34607 -5.90944 0
M  V30 1295 H 117.268 4.93365 -4.3235 0
M  V30 1296 H 117.185 4.5765 -6.01741 0
M  V30 1297 H 118.453 5.6038 -5.41843 0
M  V30 1298 N 122.682 1.50554 0.465978 0
M  V30 1299 C 123.912 1.65323 1.23903 0
M  V30 1300 C 124.32 0.338051 1.86155 0
M  V30 1301 O 123.663 -0.690518 1.70228 0
M  V30 1302 C 123.725 2.69048 2.3844 0
M  V30 1303 C 123.389 4.12462 1.96784 0
M  V30 1304 C 124.386 4.98168 1.48745 0
M  V30 1305 C 122.071 4.58407 2.05349 0
M  V30 1306 C 124.065 6.27868 1.0982 0
M  V30 1307 C 121.752 5.88112 1.66035 0
M  V30 1308 C 122.75 6.72668 1.18349 0
M  V30 1309 O 122.438 7.99951 0.795825 0
M  V30 1310 H 122.17 0.558629 0.38067 0
M  V30 1311 H 124.724 1.97561 0.562022 0
M  V30 1312 H 122.954 2.32062 3.09328 0
M  V30 1313 H 124.643 2.72985 3.0039 0
M  V30 1314 H 125.409 4.63885 1.41546 0
M  V30 1315 H 121.288 3.92735 2.41414 0
M  V30 1316 H 124.832 6.93819 0.725293 0
M  V30 1317 H 120.729 6.21914 1.72895 0
M  V30 1318 H 121.497 8.13265 0.924222 0
M  V30 1319 N 124.16 -0.719506 1.40217 0
M  V30 1320 C 125.093 -1.84298 1.34571 0
M  V30 1321 C 126.071 -1.61149 0.216741 0
M  V30 1322 O 127.255 -1.84212 0.399756 0
M  V30 1323 C 124.382 -3.20568 1.09335 0
M  V30 1324 C 123.428 -3.62551 2.24631 0
M  V30 1325 S 124.261 -3.7012 3.87004 0
M  V30 1326 C 125.417 -5.09154 3.64024 0
M  V30 1327 H 125.65 -1.88807 2.2965 0
M  V30 1328 H 123.183 -0.885901 1.26456 0
M  V30 1329 H 125.141 -3.99246 0.954602 0
M  V30 1330 H 123.802 -3.13696 0.159164 0
M  V30 1331 H 122.995 -4.61483 2.02606 0
M  V30 1332 H 122.597 -2.91119 2.34789 0
M  V30 1333 H 124.889 -5.95955 3.22248 0
M  V30 1334 H 125.832 -5.36213 4.62473 0
M  V30 1335 H 126.24 -4.79562 2.97793 0
M  V30 1336 N 125.638 -1.25649 -0.95132 0
M  V30 1337 C 126.586 -1.06118 -2.06982 0
M  V30 1338 C 127.58 0.00889169 -1.69398 0
M  V30 1339 O 128.786 -0.146988 -1.79399 0
M  V30 1340 H 125.161 -0.326248 -0.677544 0
M  V30 1341 H 127.132 -2.00932 -2.2061 0
M  V30 1342 C 125.881 -0.700145 -3.40578 0
M  V30 1343 H 125.204 -1.51537 -3.69968 0
M  V30 1344 H 126.644 -0.603211 -4.19687 0
M  V30 1345 C 125.103 0.59403 -3.31622 0
M  V30 1346 O 125.633 1.63522 -3.66911 0
M  V30 1347 N 123.839 0.58089 -2.84735 0
M  V30 1348 H 123.386 -0.266783 -2.56215 0
M  V30 1349 H 123.344 1.44695 -2.79125 0
M  V30 1350 N 127.117 1.15442 -1.07289 0
M  V30 1351 C 128.342 1.90638 -0.816828 0
M  V30 1352 C 128.767 1.77445 0.624083 0
M  V30 1353 O 128.125 1.10671 1.43602 0
M  V30 1354 C 128.173 3.39008 -1.22906 0
M  V30 1355 O 127.277 4.10701 -0.373975 0
M  V30 1356 H 126.618 0.593555 -0.297638 0
M  V30 1357 H 129.148 1.46198 -1.43134 0
M  V30 1358 H 129.158 3.89801 -1.20497 0
M  V30 1359 H 127.833 3.47929 -2.27856 0
M  V30 1360 H 126.41 3.70046 -0.460499 0
M  V30 1361 N 128.595 0.856903 1.32268 0
M  V30 1362 C 129.525 0.31858 2.31316 0
M  V30 1363 C 130.506 -0.583487 1.59779 0
M  V30 1364 O 131.691 -0.503259 1.87566 0
M  V30 1365 C 128.821 -0.491979 3.43798 0
M  V30 1366 C 127.775 0.315849 4.26833 0
M  V30 1367 C 127.101 -0.619586 5.31098 0
M  V30 1368 C 128.401 1.54282 4.98993 0
M  V30 1369 H 130.095 1.14621 2.76591 0
M  V30 1370 H 127.641 0.552613 1.32974 0
M  V30 1371 H 129.594 -0.879012 4.1213 0
M  V30 1372 H 128.318 -1.35299 2.97257 0
M  V30 1373 H 126.977 0.684664 3.6015 0
M  V30 1374 H 126.625 -1.47751 4.8081 0
M  V30 1375 H 126.325 -0.0830621 5.87541 0
M  V30 1376 H 127.849 -1.00375 6.02293 0
M  V30 1377 H 129.263 1.22796 5.59995 0
M  V30 1378 H 127.66 2.01745 5.65172 0
M  V30 1379 H 128.73 2.30285 4.26728 0
M  V30 1380 N 130.073 -1.45103 0.615059 0
M  V30 1381 C 131.003 -2.33339 -0.0865619 0
M  V30 1382 C 131.984 -1.4727 -0.851209 0
M  V30 1383 O 133.169 -1.76026 -0.820281 0
M  V30 1384 C 130.299 -3.30095 -1.07956 0
M  V30 1385 C 129.253 -4.25858 -0.427628 0
M  V30 1386 C 128.579 -5.12361 -1.5294 0
M  V30 1387 C 129.879 -5.18165 0.655944 0
M  V30 1388 H 131.573 -2.92254 0.650224 0
M  V30 1389 H 129.119 -1.40532 0.314138 0
M  V30 1390 H 131.072 -3.90698 -1.57901 0
M  V30 1391 H 129.796 -2.69355 -1.84703 0
M  V30 1392 H 128.455 -3.66564 0.0510292 0
M  V30 1393 H 128.103 -4.47984 -2.28734 0
M  V30 1394 H 127.803 -5.77238 -1.09865 0
M  V30 1395 H 129.327 -5.75833 -2.03098 0
M  V30 1396 H 130.741 -5.72796 0.240257 0
M  V30 1397 H 129.138 -5.91559 1.00888 0
M  V30 1398 H 130.208 -4.60144 1.52957 0
M  V30 1399 N 131.551 -0.354651 -1.53558 0
M  V30 1400 C 132.8 0.239504 -2.00273 0
M  V30 1401 C 133.113 1.50759 -1.24623 0
M  V30 1402 O 134.319 2.17968 -1.61871 0
M  V30 1403 C 132.775 0.477341 -3.5672 0
M  V30 1404 C 132.383 -0.775488 -4.41237 0
M  V30 1405 C 134.127 1.02975 -4.11821 0
M  V30 1406 C 132.034 -0.507838 -5.89216 0
M  V30 1407 H 130.964 0.0932743 -0.748208 0
M  V30 1408 H 133.615 -0.471701 -1.77334 0
M  V30 1409 H 131.997 1.24953 -3.7577 0
M  V30 1410 H 133.171 -1.54963 -4.33962 0
M  V30 1411 H 131.486 -1.25033 -3.97185 0
M  V30 1412 H 134.083 1.24513 -5.2 0
M  V30 1413 H 134.426 1.98862 -3.65731 0
M  V30 1414 H 134.959 0.317994 -3.96527 0
M  V30 1415 H 131.698 -1.43674 -6.39561 0
M  V30 1416 H 131.218 0.228011 -5.99366 0
M  V30 1417 H 132.897 -0.129238 -6.46871 0
M  V30 1418 N 133.029 1.57378 -0.0835403 0
M  V30 1419 C 134.277 1.93547 0.581718 0
M  V30 1420 C 134.598 0.96524 1.69435 0
M  V30 1421 O 133.868 0.0153369 1.95894 0
M  V30 1422 H 132.448 0.714521 0.217874 0
M  V30 1423 H 135.11 1.94366 -0.144158 0
M  V30 1424 H 134.206 2.95665 0.999423 0
M  V30 1425 N 134.507 -0.190092 1.56449 0
M  V30 1426 C 135.417 -1.25591 1.98152 0
M  V30 1427 C 136.433 -1.49519 0.889944 0
M  V30 1428 O 137.609 -1.62036 1.19609 0
M  V30 1429 C 134.674 -2.57916 2.3169 0
M  V30 1430 C 133.735 -2.42015 3.5458 0
M  V30 1431 C 132.968 -3.6803 3.8651 0
M  V30 1432 O 133.191 -4.72413 3.1966 0
M  V30 1433 O 132.125 -3.6326 4.79923 0
M  V30 1434 H 135.951 -0.931988 2.89046 0
M  V30 1435 H 133.536 -0.395488 1.4407 0
M  V30 1436 H 135.418 -3.36008 2.54316 0
M  V30 1437 H 134.093 -2.89925 1.43963 0
M  V30 1438 H 133 -1.62017 3.37196 0
M  V30 1439 H 134.333 -2.14937 4.4279 0
M  V30 1440 N 135.985 -1.50799 -0.457987 0
M  V30 1441 C 136.915 -1.73553 -1.5621 0
M  V30 1442 C 137.896 -0.584774 -1.59732 0
M  V30 1443 O 139.081 -0.825314 -1.7579 0
M  V30 1444 C 136.211 -1.84169 -2.94447 0
M  V30 1445 C 135.165 -2.99461 -3.0579 0
M  V30 1446 C 134.491 -2.95235 -4.45803 0
M  V30 1447 C 135.791 -4.39766 -2.81786 0
M  V30 1448 H 137.485 -2.66 -1.37421 0
M  V30 1449 H 135.031 -1.28002 -0.659662 0
M  V30 1450 H 136.984 -1.98672 -3.71628 0
M  V30 1451 H 135.708 -0.883545 -3.14422 0
M  V30 1452 H 134.367 -2.8463 -2.31044 0
M  V30 1453 H 134.015 -1.97239 -4.62715 0
M  V30 1454 H 133.715 -3.72642 -4.54326 0
M  V30 1455 H 135.239 -3.11803 -5.24987 0
M  V30 1456 H 136.653 -4.55054 -3.4871 0
M  V30 1457 H 135.05 -5.18722 -3.0174 0
M  V30 1458 H 136.12 -4.51229 -1.7754 0
M  V30 1459 N 137.463 0.71206 -1.40597 0
M  V30 1460 C 138.688 1.50617 -1.42581 0
M  V30 1461 C 139.113 1.88079 -0.0282102 0
M  V30 1462 O 138.471 1.53511 0.964579 0
M  V30 1463 C 138.519 2.7557 -2.3258 0
M  V30 1464 O 137.623 3.72414 -1.77148 0
M  V30 1465 H 136.964 0.453966 -0.484573 0
M  V30 1466 H 139.494 0.876649 -1.84868 0
M  V30 1467 H 139.504 3.2406 -2.47889 0
M  V30 1468 H 138.179 2.47639 -3.34138 0
M  V30 1469 H 136.756 3.31276 -1.71204 0
M  V30 1470 N 138.941 1.26152 0.944643 0
M  V30 1471 C 140.352 1.10454 1.50522 0
M  V30 1472 C 140.703 -0.31635 1.93633 0
M  V30 1473 O 139.828 -1.20746 1.79581 0
M  V30 1474 C 140.423 1.99891 2.73549 0
M  V30 1475 C 138.982 1.88348 3.25886 0
M  V30 1476 C 138.129 1.93447 1.9868 0
M  V30 1477 H 141.08 1.39292 0.760489 0
M  V30 1478 H 141.101 1.54477 3.47732 0
M  V30 1479 H 140.613 3.03297 2.42141 0
M  V30 1480 H 138.714 0.878636 3.62092 0
M  V30 1481 H 138.827 2.73696 3.93227 0
M  V30 1482 H 137.191 1.37456 2.14425 0
M  V30 1483 H 137.974 2.98476 1.69607 0
M  V30 1484 N 140.419 -1.14872 1.07899 0
M  V30 1485 C 141.329 -2.2341 0.715915 0
M  V30 1486 C 142.345 -1.71808 -0.275306 0
M  V30 1487 O 143.521 -2.01039 -0.120545 0
M  V30 1488 C 140.586 -3.46474 0.125168 0
M  V30 1489 C 139.647 -4.13039 1.17034 0
M  V30 1490 C 138.88 -5.30229 0.607688 0
M  V30 1491 O 139.103 -5.675 -0.574497 0
M  V30 1492 O 138.037 -5.86444 1.35526 0
M  V30 1493 H 141.863 -2.56808 1.62121 0
M  V30 1494 H 139.448 -1.22702 0.852322 0
M  V30 1495 H 141.33 -4.20917 -0.201729 0
M  V30 1496 H 140.005 -3.14811 -0.753364 0
M  V30 1497 H 138.912 -3.40493 1.54968 0
M  V30 1498 H 140.245 -4.48796 2.02097 0
M  V30 1499 N 141.898 -0.863906 -1.31812 0
M  V30 1500 C 142.83 -0.272485 -2.27575 0
M  V30 1501 C 143.843 0.56104 -1.52827 0
M  V30 1502 O 145.032 0.384021 -1.7432 0
M  V30 1503 C 142.132 0.63283 -3.32939 0
M  V30 1504 C 141.305 -0.166902 -4.37081 0
M  V30 1505 C 140.364 0.665608 -5.21973 0
M  V30 1506 O 139.39 0.0958091 -5.69119 0
M  V30 1507 N 140.592 1.9787 -5.45736 0
M  V30 1508 H 143.357 -1.0954 -2.78964 0
M  V30 1509 H 140.918 -0.724791 -1.4477 0
M  V30 1510 H 142.91 1.19532 -3.86645 0
M  V30 1511 H 141.48 1.35642 -2.81638 0
M  V30 1512 H 140.7 -0.910838 -3.83533 0
M  V30 1513 H 141.988 -0.715874 -5.03739 0
M  V30 1514 H 141.386 2.46484 -5.09178 0
M  V30 1515 H 139.943 2.48911 -6.024 0
M  V30 1516 N 143.376 1.44774 -0.622745 0
M  V30 1517 C 144.787 1.85546 -0.207226 0
M  V30 1518 C 145.138 1.52093 1.23944 0
M  V30 1519 O 144.263 0.95492 1.94191 0
M  V30 1520 C 144.858 3.36781 -0.369313 0
M  V30 1521 C 143.417 3.76399 -0.00836847 0
M  V30 1522 C 142.564 2.68664 -0.686651 0
M  V30 1523 H 145.515 1.3536 -0.828454 0
M  V30 1524 H 145.536 3.78453 0.394162 0
M  V30 1525 H 145.048 3.61098 -1.42231 0
M  V30 1526 H 143.149 3.57698 1.04322 0
M  V30 1527 H 143.262 4.7732 -0.412584 0
M  V30 1528 H 141.626 2.54404 -0.122777 0
M  V30 1529 H 142.409 2.95815 -1.74208 0
M  V30 1530 N 144.854 0.36279 1.53368 0
M  V30 1531 C 146.079 -0.231226 2.06107 0
M  V30 1532 C 146.504 -1.419 1.23474 0
M  V30 1533 O 145.862 -1.79524 0.253128 0
M  V30 1534 C 145.91 -0.605523 3.5548 0
M  V30 1535 O 145.014 -1.70312 3.7559 0
M  V30 1536 H 144.355 -0.034327 0.663112 0
M  V30 1537 H 146.885 0.522584 1.97814 0
M  V30 1538 H 146.895 -0.877314 3.98456 0
M  V30 1539 H 145.57 0.263004 4.15068 0
M  V30 1540 H 144.147 -1.4271 3.44512 0
M  V30 1541 N 146.332 -1.57332 0.0918853 0
M  V30 1542 C 147.579 -1.94236 -0.572577 0
M  V30 1543 C 147.907 -0.973398 -1.6839 0
M  V30 1544 O 147.162 0.00756912 -1.95699 0
M  V30 1545 C 147.461 -3.37689 -1.17051 0
M  V30 1546 C 147.127 -4.50527 -0.183304 0
M  V30 1547 C 145.789 -4.81119 0.0882276 0
M  V30 1548 C 148.141 -5.18883 0.49095 0
M  V30 1549 C 145.469 -5.77395 1.04076 0
M  V30 1550 C 147.821 -6.1618 1.43193 0
M  V30 1551 C 146.485 -6.45179 1.71173 0
M  V30 1552 H 145.755 -0.710762 -0.209521 0
M  V30 1553 H 148.402 -1.9077 0.167036 0
M  V30 1554 H 146.707 -3.37718 -1.9863 0
M  V30 1555 H 148.404 -3.63543 -1.69227 0
M  V30 1556 H 144.994 -4.26681 -0.405124 0
M  V30 1557 H 149.178 -4.95427 0.294312 0
M  V30 1558 H 144.434 -5.98179 1.26457 0
M  V30 1559 H 148.608 -6.68243 1.96023 0
M  V30 1560 H 146.235 -7.1959 2.4514 0
M  V30 1561 N 147.81 0.181792 -1.56548 0
M  V30 1562 C 148.72 1.24538 -1.98815 0
M  V30 1563 C 149.736 1.49045 -0.897861 0
M  V30 1564 O 150.912 1.61399 -1.20467 0
M  V30 1565 C 147.977 2.56683 -2.33055 0
M  V30 1566 C 147.038 2.40131 -3.55859 0
M  V30 1567 C 146.271 3.65975 -3.88456 0
M  V30 1568 O 146.494 4.70711 -3.22161 0
M  V30 1569 O 145.428 3.6071 -4.81842 0
M  V30 1570 H 149.254 0.916647 -2.89536 0
M  V30 1571 H 146.839 0.387842 -1.44278 0
M  V30 1572 H 148.721 3.34655 -2.56094 0
M  V30 1573 H 147.396 2.89157 -1.45498 0
M  V30 1574 H 146.303 1.60226 -3.38051 0
M  V30 1575 H 147.636 2.12585 -4.43924 0
M  V30 1576 N 149.288 1.51039 0.449983 0
M  V30 1577 C 150.699 1.557 1.03026 0
M  V30 1578 C 151.05 0.372939 1.92623 0
M  V30 1579 O 150.175 -0.511771 2.10261 0
M  V30 1580 C 150.77 2.82171 1.87523 0
M  V30 1581 C 149.329 2.89444 2.40622 0
M  V30 1582 C 148.476 2.50228 1.19504 0
M  V30 1583 H 151.427 1.56999 0.231745 0
M  V30 1584 H 151.448 2.65219 2.72835 0
M  V30 1585 H 150.96 3.68331 1.22286 0
M  V30 1586 H 149.061 2.07685 3.0935 0
M  V30 1587 H 149.174 3.92816 2.74285 0
M  V30 1588 H 147.538 2.03139 1.53644 0
M  V30 1589 H 148.321 3.38719 0.558972 0
M  V30 1590 N 150.766 -0.704594 1.40972 0
M  V30 1591 C 151.994 -1.49354 1.43182 0
M  V30 1592 C 152.409 -1.88768 0.0345508 0
M  V30 1593 O 151.766 -1.56184 -0.944081 0
M  V30 1594 C 151.817 -2.76187 2.33244 0
M  V30 1595 O 151.538 -2.38436 3.67532 0
M  V30 1596 C 153.039 -3.7 2.44162 0
M  V30 1597 H 150.259 -0.460559 0.487982 0
M  V30 1598 H 152.803 -0.868261 1.85153 0
M  V30 1599 H 150.958 -3.34974 1.94606 0
M  V30 1600 H 151.372 -3.20126 4.15475 0
M  V30 1601 H 152.846 -4.55803 3.11364 0
M  V30 1602 H 153.323 -4.13867 1.47006 0
M  V30 1603 H 153.929 -3.17121 2.83398 0
M  V30 1604 N 152.244 -1.26651 -0.937939 0
M  V30 1605 C 153.191 -1.0849 -2.03712 0
M  V30 1606 C 154.161 0.011033 -1.66096 0
M  V30 1607 O 155.346 -0.149353 -1.90215 0
M  V30 1608 C 152.486 -0.72735 -3.37348 0
M  V30 1609 C 151.599 -1.89986 -3.87981 0
M  V30 1610 C 150.734 -1.48513 -5.10017 0
M  V30 1611 C 149.773 -2.62575 -5.5292 0
M  V30 1612 N 148.91 -2.21762 -6.66158 0
M  V30 1613 H 153.75 -2.02551 -2.18579 0
M  V30 1614 H 151.287 -1.00844 -1.07093 0
M  V30 1615 H 153.245 -0.50092 -4.14182 0
M  V30 1616 H 151.875 0.176298 -3.22318 0
M  V30 1617 H 150.927 -2.23913 -3.07518 0
M  V30 1618 H 152.239 -2.75586 -4.15757 0
M  V30 1619 H 151.393 -1.21934 -5.94321 0
M  V30 1620 H 150.132 -0.60009 -4.83994 0
M  V30 1621 H 149.137 -2.8988 -4.67172 0
M  V30 1622 H 150.362 -3.51685 -5.80943 0
M  V30 1623 H 148.308 -1.35696 -6.41812 0
M  V30 1624 H 148.225 -3.00903 -6.93537 0
M  V30 1625 H 149.493 -1.98403 -7.53828 0
M  V30 1626 N 153.722 1.14298 -1.08507 0
M  V30 1627 C 154.67 2.21483 -0.710483 0
M  V30 1628 C 155.664 1.66998 0.284234 0
M  V30 1629 O 156.87 1.79401 0.146692 0
M  V30 1630 H 153.245 0.721578 -0.211729 0
M  V30 1631 H 155.216 2.50348 -1.62384 0
M  V30 1632 C 153.965 3.4743 -0.137007 0
M  V30 1633 H 153.288 3.89686 -0.893592 0
M  V30 1634 H 154.728 4.2391 0.0872789 0
M  V30 1635 C 153.187 3.17548 1.12538 0
M  V30 1636 O 153.717 3.35437 2.21009 0
M  V30 1637 N 151.923 2.71499 1.03617 0
M  V30 1638 H 151.47 2.57143 0.153403 0
M  V30 1639 H 151.428 2.51881 1.88158 0
M  V30 1640 N 155.201 0.870884 1.31352 0
M  V30 1641 C 156.148 0.325425 2.28494 0
M  V30 1642 C 157.118 -0.576615 1.5577 0
M  V30 1643 O 158.303 -0.508059 1.83911 0
M  V30 1644 C 155.443 -0.466283 3.41935 0
M  V30 1645 C 154.556 0.463378 4.29508 0
M  V30 1646 C 153.691 -0.342544 5.30094 0
M  V30 1647 C 152.73 0.583486 6.09313 0
M  V30 1648 N 151.867 -0.186244 7.01853 0
M  V30 1649 H 156.707 1.15901 2.74538 0
M  V30 1650 H 154.244 0.58294 1.35056 0
M  V30 1651 H 156.202 -0.941085 4.06447 0
M  V30 1652 H 154.832 -1.26456 2.97 0
M  V30 1653 H 153.884 1.05663 3.65431 0
M  V30 1654 H 155.196 1.1734 4.84802 0
M  V30 1655 H 154.35 -0.879816 6.00287 0
M  V30 1656 H 153.089 -1.08585 4.75458 0
M  V30 1657 H 152.094 1.13251 5.3801 0
M  V30 1658 H 153.319 1.32566 6.66035 0
M  V30 1659 H 151.265 -0.912348 6.49625 0
M  V30 1660 H 151.182 0.464422 7.54572 0
M  V30 1661 H 152.45 -0.704716 7.76308 0
M  V30 1662 N 156.679 -1.44442 0.630414 0
M  V30 1663 C 157.589 -2.34476 -0.0761693 0
M  V30 1664 C 158.605 -1.52576 -0.836449 0
M  V30 1665 O 159.781 -1.85307 -0.788874 0
M  V30 1666 C 156.846 -3.30545 -1.04599 0
M  V30 1667 C 155.907 -4.28352 -0.28516 0
M  V30 1668 C 155.14 -5.19831 -1.20878 0
M  V30 1669 O 155.363 -5.15223 -2.44747 0
M  V30 1670 O 154.297 -5.97892 -0.693491 0
M  V30 1671 H 158.123 -2.96345 0.664324 0
M  V30 1672 H 155.708 -1.44203 0.39061 0
M  V30 1673 H 157.59 -3.89681 -1.60396 0
M  V30 1674 H 156.265 -2.7121 -1.76711 0
M  V30 1675 H 155.172 -3.72764 0.315837 0
M  V30 1676 H 156.505 -4.90605 0.395924 0
M  V30 1677 N 158.157 -0.370918 -1.53173 0
M  V30 1678 C 159.087 0.464847 -2.28826 0
M  V30 1679 C 160.068 1.07936 -1.31468 0
M  V30 1680 O 161.253 1.0956 -1.60344 0
M  V30 1681 C 158.383 1.60196 -3.08147 0
M  V30 1682 C 157.337 1.11443 -4.13237 0
M  V30 1683 C 156.663 2.3422 -4.80672 0
M  V30 1684 C 157.963 0.195384 -5.21934 0
M  V30 1685 H 159.657 -0.166329 -2.98938 0
M  V30 1686 H 157.203 -0.0814359 -1.4377 0
M  V30 1687 H 159.156 2.19332 -3.59822 0
M  V30 1688 H 157.88 2.26045 -2.35735 0
M  V30 1689 H 156.539 0.545727 -3.62515 0
M  V30 1690 H 156.187 2.98537 -4.04827 0
M  V30 1691 H 155.887 2.02269 -5.51689 0
M  V30 1692 H 157.411 2.94032 -5.35143 0
M  V30 1693 H 158.825 0.694375 -5.69079 0
M  V30 1694 H 157.222 -0.0335027 -6.00091 0
M  V30 1695 H 158.292 -0.760961 -4.78892 0
M  V30 1696 N 159.635 1.57281 -0.100228 0
M  V30 1697 C 160.863 1.98879 0.570509 0
M  V30 1698 C 161.278 0.979476 1.61405 0
M  V30 1699 O 160.635 -0.0302288 1.82475 0
M  V30 1700 C 160.686 3.4052 1.2136 0
M  V30 1701 O 160.407 4.37588 0.211786 0
M  V30 1702 C 161.908 3.97149 1.96945 0
M  V30 1703 H 159.128 0.653428 0.152555 0
M  V30 1704 H 161.672 2.03697 -0.18103 0
M  V30 1705 H 159.827 3.367 1.91603 0
M  V30 1706 H 160.241 5.20118 0.676607 0
M  V30 1707 H 161.715 4.98393 2.37294 0
M  V30 1708 H 162.192 3.3525 2.83733 0
M  V30 1709 H 162.798 4.04458 1.31506 0
M  V30 1710 N 161.113 -0.173488 1.56642 0
M  V30 1711 C 162.39 -0.917617 1.7274 0
M  V30 1712 C 162.77 -2.00484 0.661027 0
M  V30 1713 O 162.118 -2.26184 -0.32453 0
M  V30 1714 C 162.328 -1.48433 3.15862 0
M  V30 1715 C 163.676 -1.95809 3.76754 0
M  V30 1716 O 164.7 -1.58231 3.19126 0
M  V30 1717 O 163.559 -2.65024 4.77938 0
M  V30 1718 H 160.653 -0.431772 0.705338 0
M  V30 1719 H 163.199 -0.161487 1.6893 0
M  V30 1720 H 161.971 -0.701715 3.84957 0
M  V30 1721 H 161.594 -2.30471 3.23989 0
M  V30 1722 N 162.591 -1.51276 -0.441967 0
M  V30 1723 C 163.501 -1.75092 -1.56141 0
M  V30 1724 C 164.517 -0.634963 -1.62001 0
M  V30 1725 O 165.693 -0.916686 -1.79329 0
M  V30 1726 C 162.758 -1.86666 -2.92158 0
M  V30 1727 C 161.819 -3.10506 -2.96453 0
M  V30 1728 C 161.052 -3.21519 -4.25982 0
M  V30 1729 O 161.275 -2.38586 -5.18105 0
M  V30 1730 O 160.209 -4.14465 -4.36466 0
M  V30 1731 H 164.035 -2.70044 -1.38961 0
M  V30 1732 H 161.62 -1.35722 -0.624499 0
M  V30 1733 H 163.502 -1.96292 -3.72891 0
M  V30 1734 H 162.177 -0.949014 -3.09476 0
M  V30 1735 H 161.084 -3.06363 -2.14692 0
M  V30 1736 H 162.417 -4.01945 -2.84079 0
M  V30 1737 N 164.069 0.697108 -1.41344 0
M  V30 1738 C 165.316 1.45714 -1.40619 0
M  V30 1739 C 165.644 1.94494 -0.0147907 0
M  V30 1740 O 164.899 1.69794 0.973066 0
M  V30 1741 C 165.198 2.68553 -2.35826 0
M  V30 1742 C 164.864 2.38438 -3.82698 0
M  V30 1743 C 163.526 2.29936 -4.22709 0
M  V30 1744 C 165.878 2.13567 -4.75435 0
M  V30 1745 C 163.206 1.94656 -5.53467 0
M  V30 1746 C 165.558 1.79797 -6.06511 0
M  V30 1747 C 164.222 1.69789 -6.45545 0
M  V30 1748 H 163.492 0.533206 -0.51456 0
M  V30 1749 H 166.139 0.796901 -1.74131 0
M  V30 1750 H 164.444 3.39503 -1.95563 0
M  V30 1751 H 166.141 3.2669 -2.32539 0
M  V30 1752 H 162.731 2.4595 -3.51008 0
M  V30 1753 H 166.915 2.19082 -4.45328 0
M  V30 1754 H 162.171 1.8546 -5.82593 0
M  V30 1755 H 166.345 1.59572 -6.77872 0
M  V30 1756 H 163.972 1.4222 -7.46778 0
M  V30 1757 N 165.547 1.27147 0.931209 0
M  V30 1758 C 166.963 1.04475 1.20653 0
M  V30 1759 C 167.163 -0.223885 2.00252 0
M  V30 1760 O 166.219 -0.930332 2.34736 0
M  V30 1761 C 167.532 2.28209 1.95809 0
M  V30 1762 C 169.08 2.33211 2.08762 0
M  V30 1763 C 169.555 3.56665 2.87323 0
M  V30 1764 N 171.046 3.57201 2.94892 0
M  V30 1765 C 171.781 4.49395 3.56134 0
M  V30 1766 N 171.277 5.51889 4.18796 0
M  V30 1767 N 173.07 4.37026 3.53504 0
M  V30 1768 H 165.221 2.08612 0.399333 0
M  V30 1769 H 167.484 0.917312 0.239253 0
M  V30 1770 H 167.19 3.20538 1.44736 0
M  V30 1771 H 167.064 2.33247 2.96438 0
M  V30 1772 H 169.451 1.41391 2.59023 0
M  V30 1773 H 169.532 2.32178 1.07364 0
M  V30 1774 H 169.176 4.4882 2.37746 0
M  V30 1775 H 169.106 3.54948 3.88998 0
M  V30 1776 H 171.597 2.83074 2.50354 0
M  V30 1777 H 171.91 6.18409 4.63454 0
M  V30 1778 H 170.255 5.55735 4.17353 0
M  V30 1779 H 173.446 3.56166 3.03749 0
M  V30 1780 H 173.619 5.09067 4.00942 0
M  V30 1781 N 167.025 -1.13721 1.09112 0
M  V30 1782 C 167.935 -2.22638 0.73957 0
M  V30 1783 C 168.951 -1.72091 -0.257068 0
M  V30 1784 O 170.127 -2.01155 -0.0992154 0
M  V30 1785 C 167.192 -3.46322 0.16191 0
M  V30 1786 C 166.253 -4.11775 1.21408 0
M  V30 1787 C 165.486 -5.29555 0.663891 0
M  V30 1788 O 165.709 -5.68077 -0.514274 0
M  V30 1789 O 164.643 -5.84973 1.41738 0
M  V30 1790 H 168.469 -2.55074 1.64836 0
M  V30 1791 H 166.054 -1.21791 0.865289 0
M  V30 1792 H 167.936 -4.21107 -0.157073 0
M  V30 1793 H 166.611 -3.15593 -0.719932 0
M  V30 1794 H 165.518 -3.3883 1.58571 0
M  V30 1795 H 166.851 -4.46627 2.06845 0
M  V30 1796 N 168.503 -0.877838 -1.30888 0
M  V30 1797 C 169.433 -0.35534 -2.3078 0
M  V30 1798 C 170.414 0.557994 -1.60687 0
M  V30 1799 O 171.599 0.473355 -1.88343 0
M  V30 1800 C 168.729 0.437221 -3.44537 0
M  V30 1801 C 167.683 -0.383715 -4.26276 0
M  V30 1802 C 167.009 0.535014 -5.32017 0
M  V30 1803 C 168.309 -1.62201 -4.96476 0
M  V30 1804 H 170.003 -1.19007 -2.74732 0
M  V30 1805 H 167.549 -0.573698 -1.32078 0
M  V30 1806 H 169.502 0.813334 -4.13477 0
M  V30 1807 H 168.226 1.30553 -2.99372 0
M  V30 1808 H 166.885 -0.741874 -3.59015 0
M  V30 1809 H 166.533 1.40083 -4.831 0
M  V30 1810 H 166.233 -0.0104211 -5.87599 0
M  V30 1811 H 167.757 0.907799 -6.03814 0
M  V30 1812 H 169.171 -1.31689 -5.5797 0
M  V30 1813 H 167.568 -2.10711 -5.61891 0
M  V30 1814 H 168.638 -2.37044 -4.23011 0
M  V30 1815 N 169.982 1.44106 -0.638065 0
M  V30 1816 C 171.398 1.56672 -0.304286 0
M  V30 1817 C 171.598 1.6244 1.19228 0
M  V30 1818 O 170.654 1.57121 1.9766 0
M  V30 1819 C 171.967 2.83503 -1.00231 0
M  V30 1820 C 173.515 2.97226 -0.981116 0
M  V30 1821 C 173.99 4.26868 -1.65974 0
M  V30 1822 N 175.481 4.33698 -1.62666 0
M  V30 1823 C 176.216 5.32745 -2.12063 0
M  V30 1824 N 175.712 6.38157 -2.6968 0
M  V30 1825 N 177.505 5.24299 -2.02651 0
M  V30 1826 H 169.656 1.38605 -1.60942 0
M  V30 1827 H 171.919 0.664661 -0.675965 0
M  V30 1828 H 171.625 2.85251 -2.0573 0
M  V30 1829 H 171.499 3.73251 -0.54439 0
M  V30 1830 H 173.886 2.95027 0.0654188 0
M  V30 1831 H 173.967 2.08808 -1.47759 0
M  V30 1832 H 173.611 4.29826 -2.70576 0
M  V30 1833 H 173.541 5.14156 -1.13804 0
M  V30 1834 H 176.032 3.58138 -1.20606 0
M  V30 1835 H 176.345 7.10029 -3.05087 0
M  V30 1836 H 174.69 6.38823 -2.73734 0
M  V30 1837 H 177.881 4.4086 -1.57353 0
M  V30 1838 H 178.054 6.01334 -2.41457 0
M  V30 1839 N 171.46 0.379036 1.52974 0
M  V30 1840 C 172.423 -0.448865 2.24762 0
M  V30 1841 C 173.423 -0.998689 1.26027 0
M  V30 1842 O 174.613 -0.882313 1.50203 0
M  V30 1843 C 171.745 -1.62872 2.99476 0
M  V30 1844 H 172.938 0.179491 2.99362 0
M  V30 1845 H 170.491 0.13096 1.5575 0
M  V30 1846 H 171.226 -2.29479 2.29151 0
M  V30 1847 H 171.011 -1.24128 3.71934 0
M  V30 1848 H 172.501 -2.2151 3.5401 0
M  V30 1849 N 172.938 -1.57226 0.108567 0
M  V30 1850 C 174.166 -1.99179 -0.559954 0
M  V30 1851 C 174.581 -0.988022 -1.60884 0
M  V30 1852 O 173.938 0.0205512 -1.82488 0
M  V30 1853 C 173.989 -3.41159 -1.19552 0
M  V30 1854 O 173.71 -4.37694 -0.188577 0
M  V30 1855 C 175.211 -3.98188 -1.94837 0
M  V30 1856 H 172.431 -0.654228 -0.149088 0
M  V30 1857 H 174.975 -2.03598 0.19183 0
M  V30 1858 H 173.13 -3.37711 -1.89815 0
M  V30 1859 H 173.544 -5.20469 -0.649014 0
M  V30 1860 H 175.018 -4.99644 -2.34648 0
M  V30 1861 H 175.495 -3.3675 -2.81951 0
M  V30 1862 H 176.101 -4.0515 -1.2936 0
M  V30 1863 N 174.416 0.165178 -1.56732 0
M  V30 1864 C 175.662 0.882112 -1.82611 0
M  V30 1865 C 175.995 1.81628 -0.687378 0
M  V30 1866 O 175.27 1.92009 0.310267 0
M  V30 1867 C 175.553 1.67245 -3.18906 0
M  V30 1868 C 175.406 0.760987 -4.43316 0
M  V30 1869 C 176.725 2.63884 -3.52212 0
M  V30 1870 H 173.844 0.319242 -0.664269 0
M  V30 1871 H 176.486 0.148052 -1.89422 0
M  V30 1872 H 174.636 2.29824 -3.1323 0
M  V30 1873 H 176.308 0.147596 -4.61064 0
M  V30 1874 H 174.551 0.0694102 -4.33744 0
M  V30 1875 H 175.222 1.34962 -5.35247 0
M  V30 1876 H 177.698 2.11429 -3.58381 0
M  V30 1877 H 176.574 3.16245 -4.48643 0
M  V30 1878 H 176.835 3.44377 -2.77231 0
M  V30 1879 N 175.894 1.51508 0.433938 0
M  V30 1880 C 176.804 1.75917 1.5521 0
M  V30 1881 C 177.82 0.643545 1.61662 0
M  V30 1882 O 178.996 0.926183 1.7884 0
M  V30 1883 C 176.061 1.88213 2.91164 0
M  V30 1884 C 175.122 3.12074 2.94802 0
M  V30 1885 C 174.355 3.23774 4.24271 0
M  V30 1886 O 174.578 2.4133 5.16833 0
M  V30 1887 O 173.512 4.16774 4.34262 0
M  V30 1888 H 177.338 2.70777 1.37527 0
M  V30 1889 H 174.923 1.36051 0.617293 0
M  V30 1890 H 176.805 1.98267 3.71845 0
M  V30 1891 H 175.48 0.965413 3.08968 0
M  V30 1892 H 174.387 3.07497 2.13065 0
M  V30 1893 H 175.72 4.03446 2.81943 0
M  V30 1894 N 177.372 -0.689602 1.41712 0
M  V30 1895 C 178.788 -1.00093 1.24312 0
M  V30 1896 C 178.988 -2.01036 0.136729 0
M  V30 1897 O 178.044 -2.47562 -0.496918 0
M  V30 1898 C 179.357 -1.51985 2.59463 0
M  V30 1899 C 180.905 -1.63838 2.66695 0
M  V30 1900 C 181.38 -2.1913 4.02177 0
M  V30 1901 N 182.871 -2.26483 4.04054 0
M  V30 1902 C 183.606 -2.70306 5.0569 0
M  V30 1903 N 183.102 -3.13691 6.17713 0
M  V30 1904 N 184.895 -2.69923 4.9305 0
M  V30 1905 H 177.046 -0.0210029 2.1239 0
M  V30 1906 H 179.309 -0.0718733 0.945272 0
M  V30 1907 H 179.015 -0.85269 3.41207 0
M  V30 1908 H 178.889 -2.50103 2.82362 0
M  V30 1909 H 181.276 -2.29664 1.85306 0
M  V30 1910 H 181.357 -0.642492 2.476 0
M  V30 1911 H 181.001 -1.53918 4.84016 0
M  V30 1912 H 180.931 -3.19482 4.18615 0
M  V30 1913 H 183.422 -1.95874 3.23174 0
M  V30 1914 H 183.735 -3.45773 6.9113 0
M  V30 1915 H 182.08 -3.11585 6.21241 0
M  V30 1916 H 185.271 -2.35382 4.04614 0
M  V30 1917 H 185.444 -3.03758 5.72394 0
M  V30 1918 N 178.85 -1.27639 -0.924453 0
M  V30 1919 C 179.783 -1.04966 -2.02626 0
M  V30 1920 C 180.761 0.0309505 -1.62571 0
M  V30 1921 O 181.945 -0.114846 -1.8815 0
M  V30 1922 C 179.072 -0.59292 -3.3347 0
M  V30 1923 C 178.118 -1.66858 -3.92506 0
M  V30 1924 S 178.951 -3.2619 -4.24689 0
M  V30 1925 C 180.107 -2.82325 -5.58609 0
M  V30 1926 H 180.34 -1.98252 -2.21547 0
M  V30 1927 H 177.873 -1.11506 -1.06798 0
M  V30 1928 H 179.831 -0.336086 -4.09122 0
M  V30 1929 H 178.492 0.319939 -3.12466 0
M  V30 1930 H 177.685 -1.30038 -4.86935 0
M  V30 1931 H 177.287 -1.87766 -3.2345 0
M  V30 1932 H 179.579 -2.2783 -6.38044 0
M  V30 1933 H 180.522 -3.75511 -6.00331 0
M  V30 1934 H 180.93 -2.21367 -5.19285 0
M  V30 1935 N 180.328 1.1314 -1.09713 0
M  V30 1936 C 181.576 1.84119 -0.833338 0
M  V30 1937 C 181.897 1.84097 0.642904 0
M  V30 1938 O 181.167 1.29881 1.46655 0
M  V30 1939 H 179.747 0.681766 -0.305293 0
M  V30 1940 H 182.409 1.37038 -1.38588 0
M  V30 1941 H 181.505 2.88543 -1.18951 0
M  V30 1942 N 181.806 0.884767 1.30421 0
M  V30 1943 C 182.736 0.367574 2.30589 0
M  V30 1944 C 183.717 -0.549464 1.60981 0
M  V30 1945 O 184.902 -0.46336 1.88591 0
M  V30 1946 C 182.032 -0.418944 3.44764 0
M  V30 1947 C 180.986 0.406316 4.26067 0
M  V30 1948 C 180.312 -0.506793 5.32293 0
M  V30 1949 C 181.612 1.64832 4.95608 0
M  V30 1950 H 183.306 1.20462 2.74097 0
M  V30 1951 H 180.852 0.580695 1.31772 0
M  V30 1952 H 182.805 -0.791395 4.13902 0
M  V30 1953 H 181.529 -1.28964 3.0006 0
M  V30 1954 H 180.188 0.760903 3.58617 0
M  V30 1955 H 179.836 -1.37519 4.83836 0
M  V30 1956 H 179.536 0.0415828 5.87585 0
M  V30 1957 H 181.06 -0.875764 6.04287 0
M  V30 1958 H 182.474 1.34646 5.57264 0
M  V30 1959 H 180.871 2.13688 5.60765 0
M  V30 1960 H 181.941 2.39284 4.21748 0
M  V30 1961 N 183.284 -1.43765 0.645699 0
M  V30 1962 C 184.217 -2.2798 -0.100072 0
M  V30 1963 C 185.195 -1.39391 -0.837194 0
M  V30 1964 O 186.379 -1.68833 -0.838306 0
M  V30 1965 C 183.506 -3.18643 -1.14823 0
M  V30 1966 C 182.552 -4.2344 -0.510009 0
M  V30 1967 S 183.385 -5.30761 0.710824 0
M  V30 1968 C 184.541 -6.24992 -0.33699 0
M  V30 1969 H 184.774 -2.90884 0.614322 0
M  V30 1970 H 182.307 -1.48166 0.434304 0
M  V30 1971 H 184.265 -3.71424 -1.74799 0
M  V30 1972 H 182.926 -2.54932 -1.8349 0
M  V30 1973 H 182.119 -4.86948 -1.29991 0
M  V30 1974 H 181.721 -3.73997 0.0154577 0
M  V30 1975 H 184.013 -6.66691 -1.20537 0
M  V30 1976 H 184.956 -7.07612 0.262879 0
M  V30 1977 H 185.364 -5.60517 -0.669425 0
M  V30 1978 N 184.763 -0.387143 -1.52771 0
M  V30 1979 C 185.71 0.449048 -2.26389 0
M  V30 1980 C 186.68 1.05961 -1.27912 0
M  V30 1981 O 187.865 1.08804 -1.56737 0
M  V30 1982 C 185.005 1.57155 -3.0724 0
M  V30 1983 C 184.118 0.984066 -4.20643 0
M  V30 1984 C 183.253 2.07745 -4.88892 0
M  V30 1985 C 182.292 1.46574 -5.94292 0
M  V30 1986 N 181.429 2.49834 -6.56146 0
M  V30 1987 H 186.269 -0.185205 -2.97424 0
M  V30 1988 H 183.806 -0.103164 -1.46738 0
M  V30 1989 H 185.764 2.23309 -3.52405 0
M  V30 1990 H 184.394 2.17615 -2.38419 0
M  V30 1991 H 183.446 0.212193 -3.79808 0
M  V30 1992 H 184.758 0.497029 -4.96318 0
M  V30 1993 H 183.912 2.81673 -5.3735 0
M  V30 1994 H 182.651 2.59807 -4.12737 0
M  V30 1995 H 181.656 0.711696 -5.45174 0
M  V30 1996 H 182.881 0.953088 -6.72379 0
M  V30 1997 H 180.827 3.0107 -5.82832 0
M  V30 1998 H 180.744 2.05879 -7.27427 0
M  V30 1999 H 182.012 3.23399 -7.09249 0
M  V30 2000 N 186.241 1.57166 -0.116904 0
M  V30 2001 C 187.204 2.14039 0.819742 0
M  V30 2002 C 188.204 1.07477 1.19605 0
M  V30 2003 O 189.394 1.33263 1.1219 0
M  V30 2004 C 186.526 2.67891 2.10826 0
M  V30 2005 H 187.719 2.98128 0.325511 0
M  V30 2006 H 185.272 1.55739 0.132312 0
M  V30 2007 H 186.007 1.87384 2.64685 0
M  V30 2008 H 185.792 3.45823 1.84793 0
M  V30 2009 H 187.282 3.11809 2.77785 0
M  V30 2010 N 187.719 -0.156864 1.56817 0
M  V30 2011 C 188.667 -1.21319 1.98455 0
M  V30 2012 C 189.661 -1.45025 0.875444 0
M  V30 2013 O 190.867 -1.45435 1.0606 0
M  V30 2014 H 187.242 -0.408142 0.631605 0
M  V30 2015 H 189.213 -0.835244 2.86472 0
M  V30 2016 C 187.962 -2.54148 2.37285 0
M  V30 2017 H 187.285 -2.36733 3.22176 0
M  V30 2018 H 188.725 -3.26712 2.70251 0
M  V30 2019 C 187.184 -3.13967 1.22173 0
M  V30 2020 O 187.714 -3.98357 0.517149 0
M  V30 2021 N 185.92 -2.7327 0.988536 0
M  V30 2022 H 185.467 -2.04744 1.56326 0
M  V30 2023 H 185.425 -3.13628 0.220209 0
M  V30 2024 N 189.197 -1.51736 -0.425897 0
M  V30 2025 C 190.147 -1.70258 -1.51645 0
M  V30 2026 C 191.131 -0.556488 -1.5097 0
M  V30 2027 O 192.323 -0.812879 -1.5723 0
M  V30 2028 C 189.452 -1.84143 -2.89735 0
M  V30 2029 C 188.538 -3.04572 -2.95122 0
M  V30 2030 N 188.929 -4.2756 -2.70233 0
M  V30 2031 C 187.227 -3.04061 -3.26286 0
M  V30 2032 C 187.928 -5.08908 -2.81757 0
M  V30 2033 N 186.904 -4.43797 -3.13919 0
M  V30 2034 H 190.706 -2.63004 -1.31172 0
M  V30 2035 H 188.22 -1.4954 -0.633375 0
M  V30 2036 H 190.217 -1.95525 -3.68206 0
M  V30 2037 H 188.877 -0.925857 -3.1122 0
M  V30 2038 H 189.888 -4.56315 -2.44943 0
M  V30 2039 H 186.565 -2.22179 -3.53473 0
M  V30 2040 H 187.955 -6.16843 -2.66372 0
M  V30 2041 N 190.675 0.682077 -1.42076 0
M  V30 2042 C 191.921 1.44428 -1.42367 0
M  V30 2043 C 192.254 1.94164 -0.0373056 0
M  V30 2044 O 191.529 1.70429 0.937239 0
M  V30 2045 C 191.812 2.64654 -2.44194 0
M  V30 2046 C 191.665 2.20596 -3.91991 0
M  V30 2047 C 192.984 3.66865 -2.431 0
M  V30 2048 H 190.103 0.523834 -0.518428 0
M  V30 2049 H 192.745 0.77576 -1.73442 0
M  V30 2050 H 190.895 3.2169 -2.17826 0
M  V30 2051 H 192.567 1.68783 -4.29313 0
M  V30 2052 H 190.81 1.52242 -4.06208 0
M  V30 2053 H 191.481 3.06921 -4.58807 0
M  V30 2054 H 193.957 3.19531 -2.66532 0
M  V30 2055 H 192.833 4.48577 -3.16339 0
M  V30 2056 H 193.094 4.17493 -1.45437 0
M  V30 2057 N 192.153 1.28127 0.917671 0
M  V30 2058 C 193.4 1.15052 1.66641 0
M  V30 2059 C 193.728 -0.301677 1.92146 0
M  V30 2060 O 192.983 -1.23622 1.51711 0
M  V30 2061 C 193.282 1.89018 3.03327 0
M  V30 2062 C 192.948 3.38832 2.97496 0
M  V30 2063 C 191.61 3.79693 2.95613 0
M  V30 2064 C 193.962 4.34378 2.88036 0
M  V30 2065 C 191.29 5.14447 2.82066 0
M  V30 2066 C 193.642 5.69201 2.7603 0
M  V30 2067 C 192.306 6.09343 2.72502 0
M  V30 2068 H 191.576 0.421006 0.609783 0
M  V30 2069 H 194.223 1.58855 1.06945 0
M  V30 2070 H 192.528 1.37752 3.66785 0
M  V30 2071 H 194.225 1.76321 3.60156 0
M  V30 2072 H 190.815 3.06342 2.99754 0
M  V30 2073 H 194.999 4.03775 2.88581 0
M  V30 2074 H 190.255 5.44681 2.77728 0
M  V30 2075 H 194.429 6.42901 2.67678 0
M  V30 2076 H 192.056 7.13712 2.61762 0
M  V30 2077 N 193.631 -1.12557 1.10312 0
M  V30 2078 C 194.878 -1.84038 0.844759 0
M  V30 2079 C 195.206 -1.84026 -0.629668 0
M  V30 2080 O 194.461 -1.28026 -1.48013 0
M  V30 2081 C 194.76 -3.31462 1.33669 0
M  V30 2082 C 194.426 -3.51647 2.82232 0
M  V30 2083 C 193.088 -3.56864 3.22802 0
M  V30 2084 C 195.44 -3.58867 3.77974 0
M  V30 2085 C 192.768 -3.66844 4.57867 0
M  V30 2086 C 195.12 -3.70375 5.1284 0
M  V30 2087 C 193.784 -3.73848 5.52986 0
M  V30 2088 H 193.054 -0.673444 0.309119 0
M  V30 2089 H 195.701 -1.32824 1.37949 0
M  V30 2090 H 194.006 -3.85091 0.721949 0
M  V30 2091 H 195.703 -3.85236 1.11329 0
M  V30 2092 H 192.293 -3.48249 2.49842 0
M  V30 2093 H 196.477 -3.54107 3.47738 0
M  V30 2094 H 191.733 -3.67804 4.88396 0
M  V30 2095 H 195.907 -3.74904 5.86873 0
M  V30 2096 H 193.534 -3.81333 6.57639 0
M  V30 2097 N 195.109 -0.891671 -1.2995 0
M  V30 2098 C 196.039 -0.379797 -2.30391 0
M  V30 2099 C 197.02 0.540919 -1.6127 0
M  V30 2100 O 198.205 0.453352 -1.88834 0
M  V30 2101 C 195.335 0.400654 -3.44981 0
M  V30 2102 C 194.289 -0.428905 -4.25846 0
M  V30 2103 C 193.615 0.478557 -5.32554 0
M  V30 2104 C 194.915 -1.67458 -4.94727 0
M  V30 2105 H 196.609 -1.21914 -2.73454 0
M  V30 2106 H 194.155 -0.587675 -1.31462 0
M  V30 2107 H 196.108 0.769434 -4.14316 0
M  V30 2108 H 194.832 1.27371 -3.0074 0
M  V30 2109 H 193.491 -0.779911 -3.58208 0
M  V30 2110 H 193.139 1.34951 -4.84559 0
M  V30 2111 H 192.839 -0.0727433 -5.87555 0
M  V30 2112 H 194.363 0.843705 -6.04743 0
M  V30 2113 H 195.777 -1.376 -5.56542 0
M  V30 2114 H 194.174 -2.16659 -5.59624 0
M  V30 2115 H 195.244 -2.41518 -4.20473 0
M  V30 2116 N 196.587 1.43421 -0.653314 0
M  V30 2117 C 197.517 2.33487 0.0246656 0
M  V30 2118 C 198.498 1.49475 0.811863 0
M  V30 2119 O 199.683 1.78139 0.773322 0
M  V30 2120 C 196.813 3.32841 0.99166 0
M  V30 2121 C 195.767 4.26842 0.314568 0
M  V30 2122 C 195.093 5.16236 1.39302 0
M  V30 2123 C 196.393 5.16243 -0.793095 0
M  V30 2124 H 198.087 2.90427 -0.727481 0
M  V30 2125 H 195.633 1.39649 -0.351287 0
M  V30 2126 H 197.586 3.94747 1.47487 0
M  V30 2127 H 196.31 2.74158 1.77497 0
M  V30 2128 H 194.969 3.663 -0.148199 0
M  V30 2129 H 194.617 4.53891 2.16776 0
M  V30 2130 H 194.317 5.79948 0.945223 0
M  V30 2131 H 195.841 5.81015 1.87759 0
M  V30 2132 H 197.255 5.71958 -0.392039 0
M  V30 2133 H 195.652 5.88676 -1.16536 0
M  V30 2134 H 196.722 4.55927 -1.65103 0
M  V30 2135 N 198.065 0.39524 1.52563 0
M  V30 2136 C 199.295 -0.184675 2.05773 0
M  V30 2137 C 199.703 -1.40571 1.26635 0
M  V30 2138 O 199.046 -1.81105 0.30769 0
M  V30 2139 C 199.108 -0.613551 3.54226 0
M  V30 2140 C 198.772 0.49484 4.54313 0
M  V30 2141 C 199.769 1.3541 5.01956 0
M  V30 2142 C 197.454 0.663565 4.97898 0
M  V30 2143 C 199.448 2.36716 5.91814 0
M  V30 2144 C 197.135 1.67996 5.87555 0
M  V30 2145 C 198.133 2.53017 6.34406 0
M  V30 2146 O 197.821 3.52917 7.22291 0
M  V30 2147 H 197.553 -0.030077 0.675331 0
M  V30 2148 H 200.107 0.560708 1.97599 0
M  V30 2149 H 198.337 -1.411 3.60038 0
M  V30 2150 H 200.026 -1.11981 3.90148 0
M  V30 2151 H 200.792 1.23509 4.6901 0
M  V30 2152 H 196.671 0.0114913 4.60999 0
M  V30 2153 H 200.215 3.03113 6.28306 0
M  V30 2154 H 196.112 1.79933 6.19915 0
M  V30 2155 H 196.88 3.48996 7.40367 0
M  V30 2156 N 199.544 -1.57102 0.125237 0
M  V30 2157 C 200.474 -2.18659 -0.819174 0
M  V30 2158 C 201.455 -1.12843 -1.27281 0
M  V30 2159 O 202.64 -1.41104 -1.33429 0
M  V30 2160 C 199.77 -2.79096 -2.06695 0
M  V30 2161 C 198.724 -3.90548 -1.75088 0
M  V30 2162 C 198.05 -4.37821 -3.06948 0
M  V30 2163 C 199.35 -5.12356 -1.01435 0
M  V30 2164 H 201.044 -2.9783 -0.306202 0
M  V30 2165 H 198.59 -1.4326 -0.145839 0
M  V30 2166 H 200.543 -3.2082 -2.73226 0
M  V30 2167 H 199.267 -1.97223 -2.60328 0
M  V30 2168 H 197.926 -3.49409 -1.10944 0
M  V30 2169 H 197.574 -3.52799 -3.58527 0
M  V30 2170 H 197.274 -5.12982 -2.86571 0
M  V30 2171 H 198.798 -4.822 -3.74587 0
M  V30 2172 H 200.212 -5.5106 -1.58132 0
M  V30 2173 H 198.609 -5.9314 -0.911319 0
M  V30 2174 H 199.679 -4.849 -0.00218681 0
M  V30 2175 N 201.022 0.148545 -1.56898 0
M  V30 2176 C 201.952 1.18524 -2.01182 0
M  V30 2177 C 202.933 1.4489 -0.891123 0
M  V30 2178 O 204.118 1.55836 -1.15882 0
M  V30 2179 C 201.248 2.51879 -2.39112 0
M  V30 2180 C 200.202 2.40038 -3.54353 0
M  V30 2181 C 199.528 3.78089 -3.78091 0
M  V30 2182 C 200.828 1.88577 -4.87069 0
M  V30 2183 H 202.522 0.817029 -2.88036 0
M  V30 2184 H 200.068 0.391575 -1.38574 0
M  V30 2185 H 202.021 3.24627 -2.68692 0
M  V30 2186 H 200.745 2.90532 -1.49193 0
M  V30 2187 H 199.404 1.69742 -3.24936 0
M  V30 2188 H 199.052 4.14175 -2.85426 0
M  V30 2189 H 198.752 3.71028 -4.55645 0
M  V30 2190 H 200.276 4.52387 -4.10095 0
M  V30 2191 H 201.69 2.51117 -5.15377 0
M  V30 2192 H 200.087 1.9241 -5.68417 0
M  V30 2193 H 201.157 0.84136 -4.77545 0
M  V30 2194 N 202.5 1.5196 0.417844 0
M  V30 2195 C 203.45 1.7106 1.5074 0
M  V30 2196 C 204.434 0.564487 1.50673 0
M  V30 2197 O 205.626 0.821206 1.56797 0
M  V30 2198 C 202.755 1.85677 2.88754 0
M  V30 2199 C 201.841 3.06133 2.93502 0
M  V30 2200 N 202.232 4.28987 2.67962 0
M  V30 2201 C 200.53 3.05787 3.24669 0
M  V30 2202 C 201.231 5.10395 2.79055 0
M  V30 2203 N 200.207 4.45455 3.11561 0
M  V30 2204 H 204.009 2.63696 1.29775 0
M  V30 2205 H 201.523 1.49873 0.625436 0
M  V30 2206 H 203.52 1.97475 3.67164 0
M  V30 2207 H 202.18 0.942348 3.10725 0
M  V30 2208 H 203.191 4.57607 2.4252 0
M  V30 2209 H 199.868 2.2405 3.52289 0
M  V30 2210 H 201.258 6.18247 2.63097 0
M  V30 2211 N 203.978 -0.674533 1.42435 0
M  V30 2212 C 205.227 -1.43034 1.42212 0
M  V30 2213 C 205.54 -1.95555 0.0420788 0
M  V30 2214 O 206.746 -2.71374 -0.0827558 0
M  V30 2215 C 205.202 -2.58748 2.50155 0
M  V30 2216 C 204.81 -2.12925 3.94166 0
M  V30 2217 C 206.554 -3.36257 2.59098 0
M  V30 2218 C 204.461 -3.25723 4.93618 0
M  V30 2219 H 203.391 -0.537345 0.528939 0
M  V30 2220 H 206.042 -0.73024 1.68344 0
M  V30 2221 H 204.424 -3.31128 2.17188 0
M  V30 2222 H 205.598 -1.47697 4.36488 0
M  V30 2223 H 203.913 -1.48354 3.89076 0
M  V30 2224 H 206.51 -4.20264 3.30578 0
M  V30 2225 H 206.853 -3.82866 1.63461 0
M  V30 2226 H 207.386 -2.70947 2.9126 0
M  V30 2227 H 204.125 -2.84105 5.90732 0
M  V30 2228 H 203.645 -3.89732 4.55926 0
M  V30 2229 H 205.324 -3.91186 5.15347 0
M  V30 2230 N 205.456 -1.28612 -0.910864 0
M  V30 2231 C 206.386 -1.15326 -2.03032 0
M  V30 2232 C 207.367 -0.0502924 -1.70026 0
M  V30 2233 O 208.552 -0.227797 -1.92859 0
M  V30 2234 C 205.682 -0.817343 -3.37545 0
M  V30 2235 C 204.636 -1.8754 -3.84724 0
M  V30 2236 C 203.962 -1.39305 -5.16235 0
M  V30 2237 C 205.262 -3.28244 -4.06267 0
M  V30 2238 H 206.956 -2.08975 -2.14406 0
M  V30 2239 H 204.502 -1.00612 -1.03021 0
M  V30 2240 H 206.455 -0.711151 -4.15356 0
M  V30 2241 H 205.179 0.154846 -3.26233 0
M  V30 2242 H 203.838 -1.97079 -3.09121 0
M  V30 2243 H 203.486 -0.409846 -5.01328 0
M  V30 2244 H 203.186 -2.10057 -5.48771 0
M  V30 2245 H 204.71 -1.30014 -5.96598 0
M  V30 2246 H 206.124 -3.21611 -4.74594 0
M  V30 2247 H 204.521 -3.96855 -4.5014 0
M  V30 2248 H 205.591 -3.72048 -3.10979 0
M  V30 2249 N 206.934 1.1197 -1.10907 0
M  V30 2250 C 207.864 2.19928 -0.784473 0
M  V30 2251 C 208.845 1.6833 0.244726 0
M  V30 2252 O 210.03 1.93892 0.109418 0
M  V30 2253 C 207.16 3.46597 -0.220827 0
M  V30 2254 C 206.114 4.11376 -1.18127 0
M  V30 2255 C 205.44 5.32554 -0.478594 0
M  V30 2256 C 206.74 4.56945 -2.52979 0
M  V30 2257 H 208.434 2.47337 -1.68715 0
M  V30 2258 H 205.98 1.18879 -0.812642 0
M  V30 2259 H 207.933 4.21396 0.0184278 0
M  V30 2260 H 206.657 3.1863 0.717113 0
M  V30 2261 H 205.316 3.38564 -1.40606 0
M  V30 2262 H 204.964 5.00856 0.463976 0
M  V30 2263 H 204.664 5.76844 -1.11912 0
M  V30 2264 H 206.188 6.10096 -0.248 0
M  V30 2265 H 207.602 5.23093 -2.3462 0
M  V30 2266 H 205.999 5.1203 -3.12962 0
M  V30 2267 H 207.069 3.70676 -3.12614 0
M  V30 2268 N 208.412 0.89855 1.29475 0
M  V30 2269 C 209.342 0.39201 2.30186 0
M  V30 2270 C 210.323 -0.532359 1.61555 0
M  V30 2271 O 211.508 -0.443331 1.89072 0
M  V30 2272 C 208.638 -0.382353 3.45189 0
M  V30 2273 C 207.592 0.451483 4.25612 0
M  V30 2274 C 206.918 -0.450307 5.328 0
M  V30 2275 C 208.218 1.70079 4.93832 0
M  V30 2276 H 209.912 1.23362 2.72804 0
M  V30 2277 H 207.458 0.594638 1.31149 0
M  V30 2278 H 209.411 -0.747451 4.14718 0
M  V30 2279 H 208.135 -1.25774 3.01411 0
M  V30 2280 H 206.794 0.798897 3.57789 0
M  V30 2281 H 206.442 -1.32379 4.85268 0
M  V30 2282 H 206.142 0.103902 5.87508 0
M  V30 2283 H 207.666 -0.811623 6.05182 0
M  V30 2284 H 209.08 1.40549 5.55805 0
M  V30 2285 H 207.477 2.19623 5.58467 0
M  V30 2286 H 208.547 2.43744 4.19186 0
M  V30 2287 N 209.89 -1.43072 0.660911 0
M  V30 2288 C 211.167 -1.95307 0.107017 0
M  V30 2289 C 211.547 -1.60192 -1.37484 0
M  V30 2290 O 210.895 -0.890949 -2.10415 0
M  V30 2291 C 211.105 -3.47124 0.361402 0
M  V30 2292 C 212.453 -4.23738 0.270455 0
M  V30 2293 O 213.477 -3.54981 0.294382 0
M  V30 2294 O 212.336 -5.46131 0.200737 0
M  V30 2295 H 209.43 -0.826984 -0.00517729 0
M  V30 2296 H 211.976 -1.52972 0.734681 0
M  V30 2297 H 210.748 -3.65837 1.38848 0
M  V30 2298 H 210.371 -3.96475 -0.298953 0
M  V30 2299 N 211.368 -0.403325 -1.52352 0
M  V30 2300 C 212.616 0.174003 -2.0135 0
M  V30 2301 C 212.937 1.46139 -1.29106 0
M  V30 2302 O 212.207 1.91448 -0.415253 0
M  V30 2303 H 210.787 0.0672911 -0.743963 0
M  V30 2304 H 213.449 -0.538235 -1.87321 0
M  V30 2305 H 212.545 0.374254 -3.09848 0
M  V30 2306 N 212.846 1.57033 -0.133567 0
M  V30 2307 C 213.809 2.14897 0.796995 0
M  V30 2308 C 214.809 1.0874 1.18458 0
M  V30 2309 O 215.999 1.34446 1.1077 0
M  V30 2310 C 213.131 2.70112 2.07973 0
M  V30 2311 H 214.324 2.98457 0.293873 0
M  V30 2312 H 211.877 1.55871 0.115787 0
M  V30 2313 H 212.612 1.9018 2.62682 0
M  V30 2314 H 212.397 3.47764 1.81115 0
M  V30 2315 H 213.887 3.14738 2.74462 0
M  V30 2316 N 214.325 -0.140222 1.56975 0
M  V30 2317 C 215.288 -1.15689 1.97861 0
M  V30 2318 C 216.288 -1.3549 0.865974 0
M  V30 2319 O 217.478 -1.32367 1.13246 0
M  V30 2320 C 214.61 -2.51582 2.30042 0
M  V30 2321 H 215.803 -0.805971 2.88867 0
M  V30 2322 H 213.356 -0.383801 1.51515 0
M  V30 2323 H 214.091 -2.91632 1.41849 0
M  V30 2324 H 213.876 -2.38569 3.11171 0
M  V30 2325 H 215.366 -3.24792 2.62488 0
M  V30 2326 N 215.803 -1.52179 -0.40978 0
M  V30 2327 C 217.049 -1.67408 -1.15525 0
M  V30 2328 C 217.404 -0.398746 -1.88223 0
M  V30 2329 O 216.697 0.60678 -1.81738 0
M  V30 2330 C 216.891 -2.83428 -2.17723 0
M  V30 2331 C 216.72 -4.22121 -1.55061 0
M  V30 2332 C 215.49 -4.87657 -1.3236 0
M  V30 2333 C 217.688 -5.04248 -1.01185 0
M  V30 2334 N 215.67 -6.10387 -0.655834 0
M  V30 2335 C 217.041 -6.18209 -0.470963 0
M  V30 2336 C 219.096 -4.89583 -0.906252 0
M  V30 2337 C 217.799 -7.1911 0.165172 0
M  V30 2338 C 219.825 -5.90718 -0.28397 0
M  V30 2339 C 219.187 -7.03969 0.246243 0
M  V30 2340 H 215.286 -0.666251 -0.409431 0
M  V30 2341 H 217.87 -1.89482 -0.447729 0
M  V30 2342 H 216.041 -2.6297 -2.85834 0
M  V30 2343 H 217.773 -2.87697 -2.84627 0
M  V30 2344 H 214.528 -4.46007 -1.59294 0
M  V30 2345 H 214.952 -6.76153 -0.338596 0
M  V30 2346 H 219.594 -4.02253 -1.302 0
M  V30 2347 H 217.312 -8.06066 0.572986 0
M  V30 2348 H 220.898 -5.81443 -0.203792 0
M  V30 2349 H 219.778 -7.80886 0.720173 0
M  V30 2350 N 217.281 0.66697 -1.42791 0
M  V30 2351 C 218.211 1.79218 -1.49677 0
M  V30 2352 C 219.192 1.66405 -0.352623 0
M  V30 2353 O 220.377 1.85708 -0.567993 0
M  V30 2354 C 217.507 3.17565 -1.40605 0
M  V30 2355 C 216.461 3.45124 -2.53127 0
M  V30 2356 C 215.787 4.83127 -2.29112 0
M  V30 2357 C 217.087 3.41236 -3.95418 0
M  V30 2358 H 218.781 1.73713 -2.43853 0
M  V30 2359 H 216.327 0.83432 -1.17367 0
M  V30 2360 H 218.28 3.96022 -1.44029 0
M  V30 2361 H 217.004 3.23767 -0.429271 0
M  V30 2362 H 215.663 2.69031 -2.49034 0
M  V30 2363 H 215.311 4.85988 -1.29709 0
M  V30 2364 H 215.011 5.02528 -3.04531 0
M  V30 2365 H 216.535 5.63859 -2.34297 0
M  V30 2366 H 217.949 4.09651 -4.01073 0
M  V30 2367 H 216.346 3.72173 -4.70752 0
M  V30 2368 H 217.416 2.39665 -4.21532 0
M  V30 2369 N 218.759 1.29093 0.90403 0
M  V30 2370 C 219.987 1.19689 1.68766 0
M  V30 2371 C 220.402 -0.243113 1.87228 0
M  V30 2372 O 219.759 -1.16326 1.40621 0
M  V30 2373 C 219.81 1.90144 3.07453 0
M  V30 2374 O 219.531 3.2852 2.89838 0
M  V30 2375 C 221.032 1.87162 4.01852 0
M  V30 2376 H 218.252 0.415035 0.527244 0
M  V30 2377 H 220.796 1.7039 1.13082 0
M  V30 2378 H 218.951 1.43289 3.59926 0
M  V30 2379 H 219.365 3.63944 3.77684 0
M  V30 2380 H 220.839 2.41032 4.96596 0
M  V30 2381 H 221.316 0.84617 4.30972 0
M  V30 2382 H 221.922 2.33741 3.5531 0
M  V30 2383 N 220.237 -1.11381 1.11499 0
M  V30 2384 C 221.167 -2.19509 0.796125 0
M  V30 2385 C 222.148 -1.68458 -0.235796 0
M  V30 2386 O 223.333 -1.93947 -0.0991344 0
M  V30 2387 C 220.463 -3.46475 0.239205 0
M  V30 2388 C 219.417 -4.10744 1.20307 0
M  V30 2389 C 218.743 -5.32293 0.50683 0
M  V30 2390 C 220.043 -4.55597 2.55399 0
M  V30 2391 H 221.737 -2.46439 1.70024 0
M  V30 2392 H 219.283 -1.18446 0.818935 0
M  V30 2393 H 221.236 -4.214 0.00392006 0
M  V30 2394 H 219.96 -3.19006 -0.700206 0
M  V30 2395 H 218.619 -3.37813 1.42399 0
M  V30 2396 H 218.267 -5.01095 -0.437408 0
M  V30 2397 H 217.967 -5.76243 1.1497 0
M  V30 2398 H 219.491 -6.09956 0.280351 0
M  V30 2399 H 220.905 -5.21841 2.37391 0
M  V30 2400 H 219.302 -5.10363 3.15673 0
M  V30 2401 H 220.372 -3.69013 3.14575 0
M  V30 2402 N 221.715 -0.905404 -1.28997 0
M  V30 2403 C 222.961 -0.544465 -1.95977 0
M  V30 2404 C 223.316 0.90041 -1.70031 0
M  V30 2405 O 222.609 1.63064 -1.00601 0
M  V30 2406 C 222.803 -0.779906 -3.48787 0
M  V30 2407 C 222.632 -2.24612 -3.89589 0
M  V30 2408 C 221.402 -2.89464 -4.14172 0
M  V30 2409 C 223.6 -3.22182 -4.00878 0
M  V30 2410 N 221.582 -4.26469 -4.41585 0
M  V30 2411 C 222.953 -4.44323 -4.32409 0
M  V30 2412 C 225.008 -3.17694 -3.83373 0
M  V30 2413 C 223.711 -5.62546 -4.48258 0
M  V30 2414 C 225.737 -4.35208 -4.00435 0
M  V30 2415 C 225.099 -5.56121 -4.3233 0
M  V30 2416 H 221.198 -0.248948 -0.741316 0
M  V30 2417 H 223.782 -1.1674 -1.5582 0
M  V30 2418 H 221.953 -0.186308 -3.87953 0
M  V30 2419 H 223.685 -0.383833 -4.02876 0
M  V30 2420 H 220.44 -2.40232 -4.08149 0
M  V30 2421 H 220.864 -4.97283 -4.5939 0
M  V30 2422 H 225.506 -2.25297 -3.57773 0
M  V30 2423 H 223.224 -6.55429 -4.72692 0
M  V30 2424 H 226.81 -4.33228 -3.88336 0
M  V30 2425 H 225.69 -6.45537 -4.45255 0
M  V30 2426 N 223.193 1.4272 -0.668489 0
M  V30 2427 C 224.439 2.01923 -0.188419 0
M  V30 2428 C 224.772 1.52704 1.19979 0
M  V30 2429 O 224.047 0.726566 1.8042 0
M  V30 2430 C 224.33 3.59451 -0.216085 0
M  V30 2431 C 224.183 4.18864 -1.6393 0
M  V30 2432 C 225.502 4.37903 0.439179 0
M  V30 2433 H 222.621 0.733674 -0.0699412 0
M  V30 2434 H 225.263 1.69822 -0.852076 0
M  V30 2435 H 223.413 3.86929 0.349012 0
M  V30 2436 H 225.085 4.02362 -2.25616 0
M  V30 2437 H 223.328 3.74933 -2.18193 0
M  V30 2438 H 223.999 5.27987 -1.61039 0
M  V30 2439 H 226.475 4.16079 -0.0417878 0
M  V30 2440 H 225.351 5.47519 0.389157 0
M  V30 2441 H 225.612 4.15303 1.51577 0
M  V30 2442 N 224.671 0.411399 1.52136 0
M  V30 2443 C 225.918 -0.163645 2.01838 0
M  V30 2444 C 226.246 -1.4495 1.29691 0
M  V30 2445 O 225.501 -1.91725 0.392431 0
M  V30 2446 C 225.8 -0.455872 3.54481 0
M  V30 2447 C 225.466 0.741055 4.44769 0
M  V30 2448 C 224.128 1.06936 4.69167 0
M  V30 2449 C 226.48 1.54075 4.97906 0
M  V30 2450 C 223.808 2.19851 5.43951 0
M  V30 2451 C 226.16 2.66067 5.73926 0
M  V30 2452 C 224.824 2.99381 5.96596 0
M  V30 2453 H 224.094 -0.0598821 0.738576 0
M  V30 2454 H 226.741 0.553283 1.83333 0
M  V30 2455 H 225.046 -1.2544 3.71177 0
M  V30 2456 H 226.743 -0.913802 3.90449 0
M  V30 2457 H 223.333 0.475192 4.25958 0
M  V30 2458 H 227.517 1.30033 4.78963 0
M  V30 2459 H 222.773 2.46006 5.59724 0
M  V30 2460 H 226.947 3.28419 6.14096 0
M  V30 2461 H 224.574 3.86992 6.54325 0
M  V30 2462 N 226.149 -1.5696 0.141893 0
M  V30 2463 C 227.397 -1.95573 -0.509484 0
M  V30 2464 C 227.718 -1.02746 -1.65736 0
M  V30 2465 O 226.988 -0.0880311 -1.95702 0
M  V30 2466 H 225.568 -0.722115 -0.191205 0
M  V30 2467 H 228.23 -1.93697 0.216196 0
M  V30 2468 H 227.326 -2.99171 -0.889 0
M  V30 2469 N 227.627 0.131896 -1.57047 0
M  V30 2470 C 228.855 0.856461 -1.88341 0
M  V30 2471 C 229.27 1.74042 -0.731757 0
M  V30 2472 O 228.627 1.80051 0.297945 0
M  V30 2473 C 228.678 1.70064 -3.18999 0
M  V30 2474 O 228.399 0.852278 -4.2973 0
M  V30 2475 C 229.9 2.53148 -3.63911 0
M  V30 2476 H 227.12 0.246885 -0.62393 0
M  V30 2477 H 229.664 0.120152 -2.04147 0
M  V30 2478 H 227.819 2.38984 -3.04902 0
M  V30 2479 H 228.233 1.43329 -5.04537 0
M  V30 2480 H 229.707 3.07931 -4.58129 0
M  V30 2481 H 230.184 3.29901 -2.89935 0
M  V30 2482 H 230.79 1.89492 -3.80753 0
M  V30 2483 N 229.106 1.52395 0.401703 0
M  V30 2484 C 230.331 1.70972 1.17403 0
M  V30 2485 C 230.756 0.421615 1.83314 0
M  V30 2486 O 230.114 -0.621564 1.70312 0
M  V30 2487 C 230.162 2.85151 2.20728 0
M  V30 2488 O 229.266 2.51238 3.27037 0
M  V30 2489 H 228.607 0.568927 0.342372 0
M  V30 2490 H 231.137 1.99131 0.469891 0
M  V30 2491 H 231.147 3.10279 2.64936 0
M  V30 2492 H 229.822 3.78603 1.7214 0
M  V30 2493 H 228.399 2.36808 2.88057 0
M  V30 2494 N 230.584 -0.659388 1.43143 0
M  V30 2495 C 231.831 -1.41935 1.44433 0
M  V30 2496 C 232.159 -1.94387 0.0663522 0
M  V30 2497 O 231.414 -1.72314 -0.927706 0
M  V30 2498 C 231.713 -2.62206 2.42864 0
M  V30 2499 C 231.379 -2.28208 3.88886 0
M  V30 2500 C 230.041 -2.18647 4.28657 0
M  V30 2501 C 232.393 -2.00887 4.8093 0
M  V30 2502 C 229.721 -1.79914 5.58433 0
M  V30 2503 C 232.073 -1.63653 6.11065 0
M  V30 2504 C 230.737 -1.52614 6.49819 0
M  V30 2505 H 230.007 -0.519376 0.528517 0
M  V30 2506 H 232.654 -0.750453 1.76183 0
M  V30 2507 H 230.959 -3.34199 2.04495 0
M  V30 2508 H 232.656 -3.2041 2.41119 0
M  V30 2509 H 229.246 -2.36557 3.57406 0
M  V30 2510 H 233.43 -2.07198 4.5098 0
M  V30 2511 H 228.686 -1.69948 5.87305 0
M  V30 2512 H 232.86 -1.41543 6.81864 0
M  V30 2513 H 230.487 -1.22371 7.50286 0
M  V30 2514 N 232.062 -1.29571 -0.897171 0
M  V30 2515 C 232.992 -1.17473 -2.01798 0
M  V30 2516 C 233.973 -0.068323 -1.69963 0
M  V30 2517 O 235.158 -0.248239 -1.92607 0
M  V30 2518 C 232.288 -0.853099 -3.36659 0
M  V30 2519 C 231.242 -1.9161 -3.82713 0
M  V30 2520 C 230.568 -1.44773 -5.14728 0
M  V30 2521 C 231.868 -3.32535 -4.02763 0
M  V30 2522 H 233.562 -2.11237 -2.12177 0
M  V30 2523 H 231.108 -1.01699 -1.01948 0
M  V30 2524 H 233.061 -0.755165 -4.14578 0
M  V30 2525 H 231.785 0.120236 -3.26379 0
M  V30 2526 H 230.444 -2.00346 -3.07013 0
M  V30 2527 H 230.092 -0.462995 -5.00865 0
M  V30 2528 H 229.792 -2.15865 -5.46513 0
M  V30 2529 H 231.316 -1.36334 -5.95185 0
M  V30 2530 H 232.73 -3.26626 -4.71156 0
M  V30 2531 H 231.127 -4.01607 -4.45905 0
M  V30 2532 H 232.197 -3.75326 -3.07016 0
M  V30 2533 N 233.54 1.10788 -1.12088 0
M  V30 2534 C 234.951 1.64181 -0.88891 0
M  V30 2535 C 235.302 1.87508 0.577498 0
M  V30 2536 O 234.427 1.61434 1.44112 0
M  V30 2537 C 235.022 2.98257 -1.60712 0
M  V30 2538 C 233.581 3.4853 -1.42139 0
M  V30 2539 C 232.728 2.23208 -1.6454 0
M  V30 2540 H 235.679 0.943368 -1.27618 0
M  V30 2541 H 235.7 3.65552 -1.05604 0
M  V30 2542 H 235.212 2.81246 -2.67436 0
M  V30 2543 H 233.313 3.70692 -0.376552 0
M  V30 2544 H 233.426 4.26882 -2.17505 0
M  V30 2545 H 231.79 2.31169 -1.06925 0
M  V30 2546 H 232.573 2.08733 -2.72554 0
M  V30 2547 N 235.018 0.912232 1.28515 0
M  V30 2548 C 236.265 0.544599 1.95039 0
M  V30 2549 C 236.593 -0.911435 1.71823 0
M  V30 2550 O 235.848 -1.66317 1.03137 0
M  V30 2551 C 236.147 0.798392 3.48368 0
M  V30 2552 C 235.813 2.23374 3.91682 0
M  V30 2553 C 234.475 2.62617 4.03219 0
M  V30 2554 C 236.827 3.16786 4.13879 0
M  V30 2555 C 234.155 3.94429 4.3433 0
M  V30 2556 C 236.507 4.48161 4.46469 0
M  V30 2557 C 235.171 4.8726 4.56217 0
M  V30 2558 H 234.441 0.199283 0.7137 0
M  V30 2559 H 237.088 1.15327 1.52879 0
M  V30 2560 H 235.393 0.106908 3.91654 0
M  V30 2561 H 237.09 0.493141 3.97956 0
M  V30 2562 H 233.68 1.91922 3.83228 0
M  V30 2563 H 237.864 2.87677 4.0442 0
M  V30 2564 H 233.12 4.24426 4.40082 0
M  V30 2565 H 237.294 5.20559 4.62592 0
M  V30 2566 H 234.921 5.89431 4.80078 0
M  V30 2567 N 236.496 -1.42363 0.676048 0
M  V30 2568 C 237.426 -2.33497 0.0124832 0
M  V30 2569 C 238.407 -1.50748 -0.787981 0
M  V30 2570 O 239.592 -1.79346 -0.744884 0
M  V30 2571 C 236.722 -3.34377 -0.938582 0
M  V30 2572 C 235.676 -4.27289 -0.246622 0
M  V30 2573 C 235.002 -5.18386 -1.31071 0
M  V30 2574 C 236.302 -5.14916 0.875125 0
M  V30 2575 H 237.996 -2.89233 0.773593 0
M  V30 2576 H 235.542 -1.39073 0.37346 0
M  V30 2577 H 237.495 -3.97044 -1.41188 0
M  V30 2578 H 236.219 -2.76947 -1.73113 0
M  V30 2579 H 234.878 -3.66018 0.206456 0
M  V30 2580 H 234.526 -4.57282 -2.09528 0
M  V30 2581 H 234.226 -5.81378 -0.852839 0
M  V30 2582 H 235.75 -5.83929 -1.78492 0
M  V30 2583 H 237.164 -5.71262 0.482983 0
M  V30 2584 H 235.561 -5.86747 1.25887 0
M  V30 2585 H 236.631 -4.53242 1.72335 0
M  V30 2586 N 237.974 -0.419461 -1.51915 0
M  V30 2587 C 238.904 0.391813 -2.30189 0
M  V30 2588 C 239.885 1.03699 -1.34836 0
M  V30 2589 O 241.07 1.04403 -1.63748 0
M  V30 2590 C 238.2 1.50312 -3.13087 0
M  V30 2591 C 237.154 0.9824 -4.16573 0
M  V30 2592 C 236.48 2.18809 -4.8788 0
M  V30 2593 C 237.78 0.0292356 -5.22292 0
M  V30 2594 H 239.474 -0.26135 -2.98257 0
M  V30 2595 H 237.02 -0.127134 -1.43438 0
M  V30 2596 H 238.973 2.07773 -3.66617 0
M  V30 2597 H 237.697 2.18431 -2.42807 0
M  V30 2598 H 236.356 0.430119 -3.64068 0
M  V30 2599 H 236.004 2.85507 -4.14119 0
M  V30 2600 H 235.704 1.84615 -5.57845 0
M  V30 2601 H 237.228 2.76858 -5.44226 0
M  V30 2602 H 238.642 0.512976 -5.71 0
M  V30 2603 H 237.039 -0.2244 -5.9968 0
M  V30 2604 H 238.109 -0.912931 -4.76228 0
M  V30 2605 N 239.452 1.56882 -0.150215 0
M  V30 2606 C 240.692 1.98119 0.502804 0
M  V30 2607 C 241.056 1.03327 1.61826 0
M  V30 2608 O 242.257 1.33621 2.33236 0
M  V30 2609 C 240.528 3.43329 0.992988 0
M  V30 2610 S 242.087 4.0659 1.65015 0
M  V30 2611 H 238.905 0.692189 0.162467 0
M  V30 2612 H 241.507 1.93988 -0.242689 0
M  V30 2613 H 240.211 4.10046 0.170436 0
M  V30 2614 H 239.742 3.5118 1.77303 0
M  V30 2615 H 241.757 3.99906 2.93752 0
M  V30 2616 N 240.93 -0.123565 1.57115 0
M  V30 2617 C 241.893 -1.13583 1.99076 0
M  V30 2618 C 242.893 -1.34564 0.880296 0
M  V30 2619 O 244.083 -1.31158 1.14644 0
M  V30 2620 C 241.215 -2.49128 2.32698 0
M  V30 2621 H 242.408 -0.775287 2.89706 0
M  V30 2622 H 239.961 -0.36771 1.51913 0
M  V30 2623 H 240.696 -2.90111 1.44934 0
M  V30 2624 H 240.481 -2.35255 3.13684 0
M  V30 2625 H 241.971 -3.2199 2.65918 0
M  V30 2626 N 242.408 -1.52605 -0.393616 0
M  V30 2627 C 243.654 -1.67672 -1.14079 0
M  V30 2628 C 243.987 -0.413121 -1.89755 0
M  V30 2629 O 243.262 0.588952 -1.85369 0
M  V30 2630 C 243.545 -2.9088 -2.12276 0
M  V30 2631 C 243.398 -4.27329 -1.40394 0
M  V30 2632 C 244.717 -3.09628 -3.12759 0
M  V30 2633 H 241.836 -0.610168 -0.413356 0
M  V30 2634 H 244.478 -1.85193 -0.424696 0
M  V30 2635 H 242.628 -2.76073 -2.73342 0
M  V30 2636 H 244.3 -4.53894 -0.82327 0
M  V30 2637 H 242.543 -4.2802 -0.705801 0
M  V30 2638 H 243.214 -5.09615 -2.12123 0
M  V30 2639 H 245.69 -3.23436 -2.61779 0
M  V30 2640 H 244.566 -3.97322 -3.78717 0
M  V30 2641 H 244.827 -2.23637 -3.81365 0
M  V30 2642 N 243.887 0.651787 -1.4349 0
M  V30 2643 C 244.817 1.77621 -1.51569 0
M  V30 2644 C 245.798 1.66022 -0.370253 0
M  V30 2645 O 246.983 1.85095 -0.587658 0
M  V30 2646 C 244.113 3.16056 -1.43966 0
M  V30 2647 C 243.067 3.4242 -2.56774 0
M  V30 2648 C 242.393 4.8067 -2.34223 0
M  V30 2649 C 243.693 3.37023 -3.99015 0
M  V30 2650 H 245.387 1.71117 -2.45681 0
M  V30 2651 H 242.933 0.821825 -1.18246 0
M  V30 2652 H 244.886 3.94472 -1.48221 0
M  V30 2653 H 243.61 3.23293 -0.463586 0
M  V30 2654 H 242.269 2.66375 -2.51873 0
M  V30 2655 H 241.917 4.84585 -1.34856 0
M  V30 2656 H 241.617 4.9927 -3.09844 0
M  V30 2657 H 243.141 5.61342 -2.40265 0
M  V30 2658 H 244.555 4.05374 -4.05395 0
M  V30 2659 H 242.952 3.67159 -4.74673 0
M  V30 2660 H 244.022 2.3518 -4.2405 0
M  V30 2661 N 245.365 1.30045 0.890287 0
M  V30 2662 C 246.295 1.18541 2.01172 0
M  V30 2663 C 247.276 0.0773356 1.69924 0
M  V30 2664 O 248.461 0.25845 1.92473 0
M  V30 2665 C 245.591 0.870941 3.36202 0
M  V30 2666 C 244.545 1.93637 3.81692 0
M  V30 2667 C 243.871 1.475 5.13953 0
M  V30 2668 C 245.171 3.34666 4.00994 0
M  V30 2669 H 246.865 2.12359 2.11054 0
M  V30 2670 H 244.411 1.02238 1.01407 0
M  V30 2671 H 246.364 0.777141 4.14172 0
M  V30 2672 H 245.088 -0.102926 3.26438 0
M  V30 2673 H 243.747 2.01972 3.05946 0
M  V30 2674 H 243.395 0.489551 5.00612 0
M  V30 2675 H 243.095 2.1876 5.4536 0
M  V30 2676 H 244.619 1.39489 5.94454 0
M  V30 2677 H 246.033 3.2912 4.69417 0
M  V30 2678 H 244.43 4.03966 4.43769 0
M  V30 2679 H 245.5 3.76949 3.05021 0
M  V30 2680 N 246.843 -1.10192 1.12674 0
M  V30 2681 C 248.068 -1.86523 0.906853 0
M  V30 2682 C 248.493 -1.80221 -0.538711 0
M  V30 2683 O 247.851 -1.17396 -1.38158 0
M  V30 2684 C 247.899 -3.32758 1.3894 0
M  V30 2685 O 247.003 -4.08449 0.5695 0
M  V30 2686 H 246.344 -0.578678 0.325619 0
M  V30 2687 H 248.874 -1.39203 1.49946 0
M  V30 2688 H 248.884 -3.83608 1.38958 0
M  V30 2689 H 247.559 -3.36661 2.44197 0
M  V30 2690 H 246.136 -3.67427 0.636528 0
M  V30 2691 N 248.321 -0.919034 -1.28029 0
M  V30 2692 C 249.284 -0.416182 -2.2539 0
M  V30 2693 C 250.284 0.460438 -1.54067 0
M  V30 2694 O 251.474 0.262744 -1.72207 0
M  V30 2695 C 248.606 0.402707 -3.38513 0
M  V30 2696 H 249.799 -1.27629 -2.71387 0
M  V30 2697 H 247.352 -0.698919 -1.39803 0
M  V30 2698 H 248.087 1.282 -2.97885 0
M  V30 2699 H 247.872 -0.225698 -3.9145 0
M  V30 2700 H 249.362 0.745191 -4.10897 0
M  V30 2701 N 249.799 1.42003 -0.683588 0
M  V30 2702 C 251.045 2.01712 -0.209825 0
M  V30 2703 C 251.378 1.53968 1.18353 0
M  V30 2704 O 250.653 0.745661 1.79639 0
M  V30 2705 C 250.936 3.59202 -0.254197 0
M  V30 2706 C 250.789 4.17102 -1.68363 0
M  V30 2707 C 252.108 4.38344 0.392709 0
M  V30 2708 H 249.227 0.732891 -0.0777189 0
M  V30 2709 H 251.869 1.68909 -0.87004 0
M  V30 2710 H 250.019 3.87278 0.307954 0
M  V30 2711 H 251.691 3.99946 -2.29871 0
M  V30 2712 H 249.934 3.72597 -2.22157 0
M  V30 2713 H 250.605 5.26249 -1.6663 0
M  V30 2714 H 253.081 4.16011 -0.0859162 0
M  V30 2715 H 251.957 5.47901 0.331063 0
M  V30 2716 H 252.218 4.16887 1.47164 0
M  V30 2717 N 251.277 0.427512 1.51691 0
M  V30 2718 C 252.209 -0.424521 2.25234 0
M  V30 2719 C 253.222 -0.994671 1.2888 0
M  V30 2720 O 254.411 -0.890483 1.54702 0
M  V30 2721 C 251.511 -1.60479 2.98496 0
M  V30 2722 C 250.684 -1.15527 4.21868 0
M  V30 2723 C 249.743 -2.20454 4.77793 0
M  V30 2724 O 248.769 -1.8029 5.39893 0
M  V30 2725 N 249.971 -3.52831 4.60967 0
M  V30 2726 H 252.736 0.205749 2.98993 0
M  V30 2727 H 250.297 0.255867 1.59865 0
M  V30 2728 H 252.289 -2.30276 3.32799 0
M  V30 2729 H 250.859 -2.14061 2.27809 0
M  V30 2730 H 250.079 -0.284736 3.9317 0
M  V30 2731 H 251.367 -0.832173 5.01949 0
M  V30 2732 H 250.765 -3.88201 4.11481 0
M  V30 2733 H 249.322 -4.18551 4.99658 0
M  V30 2734 N 252.755 -1.56801 0.158532 0
M  V30 2735 C 253.718 -2.16138 -0.762705 0
M  V30 2736 C 254.718 -1.1061 -1.16713 0
M  V30 2737 O 255.908 -1.36191 -1.08617 0
M  V30 2738 C 253.04 -2.73386 -2.03649 0
M  V30 2739 H 254.233 -2.98886 -0.246354 0
M  V30 2740 H 251.786 -1.56035 -0.0909744 0
M  V30 2741 H 252.521 -1.94335 -2.59623 0
M  V30 2742 H 252.306 -3.50601 -1.75559 0
M  V30 2743 H 253.796 -3.19065 -2.6942 0
M  V30 2744 N 254.233 0.115231 -1.57178 0
M  V30 2745 C 255.165 1.16694 -1.97269 0
M  V30 2746 C 256.178 1.37445 -0.872502 0
M  V30 2747 O 257.367 1.36454 -1.15077 0
M  V30 2748 C 254.467 2.52627 -2.25905 0
M  V30 2749 C 253.64 2.52427 -3.57211 0
M  V30 2750 C 252.699 3.70134 -3.74016 0
M  V30 2751 O 251.725 3.53546 -4.46087 0
M  V30 2752 N 252.927 4.88844 -3.13068 0
M  V30 2753 H 255.692 0.82588 -2.88096 0
M  V30 2754 H 253.253 0.304461 -1.59011 0
M  V30 2755 H 255.245 3.29937 -2.34359 0
M  V30 2756 H 253.815 2.789 -1.41186 0
M  V30 2757 H 253.035 1.60805 -3.5991 0
M  V30 2758 H 254.323 2.49353 -4.43509 0
M  V30 2759 H 253.721 5.05225 -2.54489 0
M  V30 2760 H 252.278 5.63817 -3.27037 0
M  V30 2761 N 255.711 1.52812 0.385517 0
M  V30 2762 C 256.674 1.77188 1.45386 0
M  V30 2763 C 257.674 0.641953 1.4743 0
M  V30 2764 O 258.864 0.910033 1.4854 0
M  V30 2765 C 255.996 1.87582 2.8465 0
M  V30 2766 H 257.189 2.72583 1.25054 0
M  V30 2767 H 254.742 1.43586 0.617467 0
M  V30 2768 H 255.477 0.941849 3.10322 0
M  V30 2769 H 255.262 2.69748 2.84567 0
M  V30 2770 H 256.752 2.08102 3.62054 0
M  V30 2771 N 257.189 -0.644168 1.43834 0
M  V30 2772 C 258.437 -1.40117 1.45642 0
M  V30 2773 C 258.758 -1.94814 0.0852413 0
M  V30 2774 O 258.028 -1.74988 -0.880688 0
M  V30 2775 H 256.608 -0.52005 0.536243 0
M  V30 2776 H 259.27 -0.7591 1.7951 0
M  V30 2777 H 258.366 -2.23902 2.17427 0
M  V30 2778 N 258.668 -1.30515 -0.883378 0
M  V30 2779 C 259.914 -1.20617 -1.63778 0
M  V30 2780 C 260.269 0.236469 -1.90941 0
M  V30 2781 O 259.562 1.16596 -1.52039 0
M  V30 2782 C 259.756 -1.96994 -2.98209 0
M  V30 2783 C 259.585 -3.48537 -2.84169 0
M  V30 2784 C 258.355 -4.17893 -2.84067 0
M  V30 2785 C 260.553 -4.43738 -2.60001 0
M  V30 2786 N 258.535 -5.55685 -2.60936 0
M  V30 2787 C 259.906 -5.69105 -2.46007 0
M  V30 2788 C 261.961 -4.33316 -2.45239 0
M  V30 2789 C 260.664 -6.8523 -2.18752 0
M  V30 2790 C 262.69 -5.4921 -2.19369 0
M  V30 2791 C 262.052 -6.73558 -2.06153 0
M  V30 2792 H 258.151 -0.496434 -0.604216 0
M  V30 2793 H 260.735 -1.64544 -1.04083 0
M  V30 2794 H 258.906 -1.55455 -3.55933 0
M  V30 2795 H 260.638 -1.79225 -3.62851 0
M  V30 2796 H 257.393 -3.69739 -2.95956 0
M  V30 2797 H 257.817 -6.28199 -2.52378 0
M  V30 2798 H 262.459 -3.37856 -2.54191 0
M  V30 2799 H 260.177 -7.80729 -2.08537 0
M  V30 2800 H 263.763 -5.43054 -2.08766 0
M  V30 2801 H 262.643 -7.61721 -1.86416 0
M  V30 2802 N 260.146 1.09593 -1.13257 0
M  V30 2803 C 261.076 2.18214 -0.830946 0
M  V30 2804 C 262.057 1.68812 0.208966 0
M  V30 2805 O 263.242 1.9408 0.0682666 0
M  V30 2806 C 260.372 3.46051 -0.294296 0
M  V30 2807 C 259.326 4.08778 -1.26826 0
M  V30 2808 C 258.652 5.31419 -0.591449 0
M  V30 2809 C 259.952 4.51476 -2.62615 0
M  V30 2810 H 261.646 2.43703 -1.73923 0
M  V30 2811 H 259.192 1.17128 -0.837675 0
M  V30 2812 H 261.145 4.2134 -0.0709606 0
M  V30 2813 H 259.869 3.20079 0.649366 0
M  V30 2814 H 258.528 3.35505 -1.47756 0
M  V30 2815 H 258.176 5.01727 0.357633 0
M  V30 2816 H 257.876 5.74341 -1.24123 0
M  V30 2817 H 259.4 6.09433 -0.377355 0
M  V30 2818 H 260.814 5.17999 -2.45663 0
M  V30 2819 H 259.211 5.05277 -3.23752 0
M  V30 2820 H 260.281 3.63962 -3.20406 0
M  V30 2821 N 261.624 0.925811 1.2754 0
M  V30 2822 C 262.556 0.380753 2.26015 0
M  V30 2823 C 263.569 -0.487485 1.5533 0
M  V30 2824 O 264.758 -0.300413 1.75954 0
M  V30 2825 C 261.858 -0.473259 3.35579 0
M  V30 2826 C 261.031 0.375249 4.35787 0
M  V30 2827 C 260.09 -0.415809 5.24555 0
M  V30 2828 O 259.116 0.175834 5.68928 0
M  V30 2829 N 260.318 -1.71607 5.54555 0
M  V30 2830 H 263.083 1.22725 2.73421 0
M  V30 2831 H 260.644 0.793037 1.41147 0
M  V30 2832 H 262.636 -1.00949 3.91907 0
M  V30 2833 H 261.206 -1.2205 2.87789 0
M  V30 2834 H 260.426 1.09279 3.7875 0
M  V30 2835 H 261.714 0.955399 4.99749 0
M  V30 2836 H 261.112 -2.2191 5.20358 0
M  V30 2837 H 259.669 -2.19887 6.1359 0
M  V30 2838 N 263.102 -1.41638 0.69111 0
M  V30 2839 C 264.052 -2.28 -0.000107832 0
M  V30 2840 C 265.036 -1.41964 -0.757304 0
M  V30 2841 O 266.228 -1.65274 -0.633532 0
M  V30 2842 C 263.357 -3.30209 -0.938983 0
M  V30 2843 C 262.443 -4.23725 -0.17827 0
M  V30 2844 N 262.834 -4.99017 0.825563 0
M  V30 2845 C 261.132 -4.44071 -0.414392 0
M  V30 2846 C 261.833 -5.67431 1.28052 0
M  V30 2847 N 260.809 -5.40197 0.607304 0
M  V30 2848 H 264.611 -2.83644 0.769617 0
M  V30 2849 H 262.125 -1.53797 0.521562 0
M  V30 2850 H 264.122 -3.90898 -1.44929 0
M  V30 2851 H 262.782 -2.76126 -1.70836 0
M  V30 2852 H 263.793 -5.03671 1.20566 0
M  V30 2853 H 260.47 -4.01004 -1.162 0
M  V30 2854 H 261.86 -6.37801 2.11327 0
M  V30 2855 N 264.58 -0.43555 -1.51462 0
M  V30 2856 C 265.857 0.191364 -1.94662 0
M  V30 2857 C 266.237 1.60254 -1.37411 0
M  V30 2858 O 265.585 2.2152 -0.560458 0
M  V30 2859 C 265.795 0.17091 -3.48581 0
M  V30 2860 C 267.143 0.377357 -4.2292 0
M  V30 2861 O 268.167 0.249104 -3.55328 0
M  V30 2862 O 267.026 0.63247 -5.42828 0
M  V30 2863 H 264.12 0.130932 -0.816569 0
M  V30 2864 H 266.666 -0.4934 -1.62369 0
M  V30 2865 H 265.438 -0.815738 -3.82703 0
M  V30 2866 H 265.061 0.898659 -3.87311 0
M  V30 2867 N 266.058 1.56714 -0.166846 0
M  V30 2868 C 267.305 1.96747 0.479252 0
M  V30 2869 C 267.633 1.05263 1.63554 0
M  V30 2870 O 266.888 0.0858098 1.95512 0
M  V30 2871 C 267.187 3.42889 1.00806 0
M  V30 2872 C 266.853 4.50889 -0.0318574 0
M  V30 2873 C 265.515 4.8015 -0.317675 0
M  V30 2874 C 267.867 5.15949 -0.737956 0
M  V30 2875 C 265.195 5.71772 -1.31506 0
M  V30 2876 C 267.547 6.08647 -1.72429 0
M  V30 2877 C 266.211 6.36277 -2.0176 0
M  V30 2878 H 265.481 0.719949 0.175371 0
M  V30 2879 H 268.128 1.89756 -0.257864 0
M  V30 2880 H 266.433 3.4681 1.82291 0
M  V30 2881 H 268.13 3.71203 1.51689 0
M  V30 2882 H 264.72 4.28128 0.201088 0
M  V30 2883 H 268.904 4.93458 -0.530351 0
M  V30 2884 H 264.16 5.91465 -1.54853 0
M  V30 2885 H 268.334 6.58129 -2.27682 0
M  V30 2886 H 265.961 7.07075 -2.79194 0
M  V30 2887 N 267.536 -0.106894 1.57237 0
M  V30 2888 C 268.784 -0.810921 1.85117 0
M  V30 2889 C 269.105 -1.7984 0.753827 0
M  V30 2890 O 268.375 -1.94649 -0.221056 0
M  V30 2891 H 266.955 -0.302466 0.683025 0
M  V30 2892 H 269.617 -0.0913324 1.94686 0
M  V30 2893 H 268.713 -1.34875 2.81452 0
M  V30 2894 N 269.014 -1.53014 -0.377408 0
M  V30 2895 C 269.964 -1.74996 -1.46152 0
M  V30 2896 C 270.948 -0.604236 -1.49123 0
M  V30 2897 O 272.14 -0.862489 -1.54564 0
M  V30 2898 C 269.269 -1.93267 -2.8373 0
M  V30 2899 C 268.355 -3.13807 -2.85283 0
M  V30 2900 N 268.746 -4.35941 -2.56493 0
M  V30 2901 C 267.044 -3.14288 -3.16448 0
M  V30 2902 C 267.745 -5.17615 -2.65424 0
M  V30 2903 N 266.721 -4.53559 -2.99641 0
M  V30 2904 H 270.523 -2.67044 -1.22738 0
M  V30 2905 H 268.037 -1.51479 -0.585479 0
M  V30 2906 H 270.034 -2.0714 -3.61799 0
M  V30 2907 H 268.694 -1.0244 -3.08117 0
M  V30 2908 H 269.705 -4.63876 -2.30302 0
M  V30 2909 H 266.382 -2.33312 -3.46225 0
M  V30 2910 H 267.772 -6.25006 -2.46612 0
M  V30 2911 N 270.492 0.636531 -1.44174 0
M  V30 2912 C 271.422 1.76003 -1.53444 0
M  V30 2913 C 272.403 1.65619 -0.387841 0
M  V30 2914 O 273.588 1.84461 -0.607257 0
M  V30 2915 C 270.718 3.14511 -1.4731 0
M  V30 2916 C 269.672 3.39677 -2.60391 0
M  V30 2917 C 268.998 4.78159 -2.39308 0
M  V30 2918 C 270.298 3.32772 -4.02567 0
M  V30 2919 H 271.992 1.68501 -2.47483 0
M  V30 2920 H 269.538 0.809237 -1.19111 0
M  V30 2921 H 271.491 3.92878 -1.52397 0
M  V30 2922 H 270.215 3.22783 -0.49785 0
M  V30 2923 H 268.874 2.63688 -2.54684 0
M  V30 2924 H 268.522 4.83128 -1.39988 0
M  V30 2925 H 268.222 4.95956 -3.15122 0
M  V30 2926 H 269.746 5.58762 -2.46205 0
M  V30 2927 H 271.16 4.01051 -4.09672 0
M  V30 2928 H 269.557 3.62104 -4.7854 0
M  V30 2929 H 270.627 2.30669 -4.2652 0
M  V30 2930 N 271.97 1.30982 0.876444 0
M  V30 2931 C 273.195 1.23373 1.66715 0
M  V30 2932 C 273.62 -0.19885 1.87046 0
M  V30 2933 O 272.978 -1.1427 1.40756 0
M  V30 2934 C 273.026 1.97644 3.01611 0
M  V30 2935 O 272.13 1.30935 3.91062 0
M  V30 2936 H 271.471 0.426279 0.509099 0
M  V30 2937 H 274.001 1.72944 1.09323 0
M  V30 2938 H 274.011 2.06992 3.51594 0
M  V30 2939 H 272.686 3.01829 2.86133 0
M  V30 2940 H 271.263 1.29996 3.49507 0
M  V30 2941 N 273.449 -1.08991 1.13837 0
M  V30 2942 C 274.695 -1.81526 0.90422 0
M  V30 2943 C 275.028 -1.85706 -0.568066 0
M  V30 2944 O 274.303 -1.32855 -1.42056 0
M  V30 2945 C 274.586 -3.27447 1.49835 0
M  V30 2946 C 274.439 -3.31512 3.04006 0
M  V30 2947 C 275.758 -4.24256 1.17025 0
M  V30 2948 H 272.877 -0.659029 0.329923 0
M  V30 2949 H 275.519 -1.27644 1.40737 0
M  V30 2950 H 273.669 -3.73462 1.07044 0
M  V30 2951 H 275.341 -2.93867 3.55584 0
M  V30 2952 H 273.584 -2.70963 3.38765 0
M  V30 2953 H 274.255 -4.34329 3.40679 0
M  V30 2954 H 276.731 -3.86549 1.54009 0
M  V30 2955 H 275.607 -5.24684 1.61237 0
M  V30 2956 H 275.868 -4.42019 0.0846274 0
M  V30 2957 N 274.927 -0.932562 -1.27047 0
M  V30 2958 C 276.174 -0.575559 -1.94148 0
M  V30 2959 C 276.502 0.883984 -1.73251 0
M  V30 2960 O 275.757 1.64655 -1.0577 0
M  V30 2961 C 276.056 -0.853713 -3.47054 0
M  V30 2962 C 275.722 -2.29577 -3.88079 0
M  V30 2963 C 274.384 -2.68999 -3.9899 0
M  V30 2964 C 276.736 -3.23331 -4.08787 0
M  V30 2965 C 274.064 -4.01289 -4.28 0
M  V30 2966 C 276.416 -4.55207 -4.39282 0
M  V30 2967 C 275.08 -4.94457 -4.48407 0
M  V30 2968 H 274.35 -0.210612 -0.710439 0
M  V30 2969 H 276.997 -1.17744 -1.51025 0
M  V30 2970 H 275.302 -0.169204 -3.91434 0
M  V30 2971 H 276.999 -0.55639 -3.97121 0
M  V30 2972 H 273.589 -1.97994 -3.80127 0
M  V30 2973 H 277.773 -2.94074 -3.99793 0
M  V30 2974 H 273.029 -4.31374 -4.33275 0
M  V30 2975 H 277.203 -5.27852 -4.54252 0
M  V30 2976 H 274.83 -5.96994 -4.7064 0
M  V30 2977 N 276.405 1.4127 -0.698611 0
M  V30 2978 C 277.63 2.06024 -0.238512 0
M  V30 2979 C 278.055 1.5224 1.10475 0
M  V30 2980 O 277.413 0.650623 1.69223 0
M  V30 2981 C 277.461 3.59988 -0.209952 0
M  V30 2982 O 276.565 4.04282 0.814235 0
M  V30 2983 H 275.906 0.653829 -0.115775 0
M  V30 2984 H 278.436 1.8098 -0.954326 0
M  V30 2985 H 278.446 4.07979 -0.0418436 0
M  V30 2986 H 277.121 3.98503 -1.1903 0
M  V30 2987 H 275.698 3.6779 0.615234 0
M  V30 2988 N 277.883 0.443576 1.51229 0
M  V30 2989 C 279.111 -0.11929 2.06556 0
M  V30 2990 C 279.526 -1.35921 1.31038 0
M  V30 2991 O 278.883 -1.78675 0.371704 0
M  V30 2992 C 278.934 -0.435228 3.5887 0
M  V30 2993 O 278.655 0.755486 4.31537 0
M  V30 2994 C 280.156 -1.04808 4.30732 0
M  V30 2995 H 277.376 -0.0051584 0.67098 0
M  V30 2996 H 279.92 0.624453 1.94733 0
M  V30 2997 H 278.075 -1.12887 3.70588 0
M  V30 2998 H 278.489 0.483491 5.22267 0
M  V30 2999 H 279.963 -1.2191 5.3837 0
M  V30 3000 H 280.44 -2.03081 3.89429 0
M  V30 3001 H 281.046 -0.393637 4.23474 0
M  V30 3002 N 279.361 -1.56624 0.175154 0
M  V30 3003 C 280.586 -2.01813 -0.478137 0
M  V30 3004 C 281.011 -1.05457 -1.55757 0
M  V30 3005 O 280.369 -0.0347439 -1.81267 0
M  V30 3006 C 280.417 -3.45581 -1.02987 0
M  V30 3007 O 279.521 -3.52305 -2.14371 0
M  V30 3008 H 278.862 -0.65413 -0.114059 0
M  V30 3009 H 281.392 -2.02673 0.280173 0
M  V30 3010 H 281.402 -3.84965 -1.35151 0
M  V30 3011 H 280.077 -4.1521 -0.239556 0
M  V30 3012 H 278.654 -3.24783 -1.83222 0
M  V30 3013 N 280.839 0.0985539 -1.57292 0
M  V30 3014 C 281.786 1.11981 -2.01814 0
M  V30 3015 C 282.756 1.39999 -0.89384 0
M  V30 3016 O 283.941 1.5152 -1.15958 0
M  V30 3017 C 281.081 2.43577 -2.44467 0
M  V30 3018 C 280.194 2.2232 -3.70402 0
M  V30 3019 C 279.329 3.4729 -4.01949 0
M  V30 3020 C 278.368 3.2128 -5.21005 0
M  V30 3021 N 277.505 4.38507 -5.48321 0
M  V30 3022 H 282.345 0.733149 -2.88841 0
M  V30 3023 H 279.882 0.350482 -1.42864 0
M  V30 3024 H 281.84 3.20373 -2.6724 0
M  V30 3025 H 280.47 2.80097 -1.60455 0
M  V30 3026 H 279.522 1.36343 -3.55126 0
M  V30 3027 H 280.834 1.99089 -4.57345 0
M  V30 3028 H 279.988 4.32495 -4.25479 0
M  V30 3029 H 278.727 3.73572 -3.13521 0
M  V30 3030 H 277.732 2.34468 -4.97298 0
M  V30 3031 H 278.957 2.96348 -6.11028 0
M  V30 3032 H 276.903 4.64871 -4.62851 0
M  V30 3033 H 276.82 4.18455 -6.29628 0
M  V30 3034 H 278.088 5.24787 -5.76385 0
M  V30 3035 N 282.317 1.53212 0.369288 0
M  V30 3036 C 283.563 1.70413 1.11046 0
M  V30 3037 C 283.918 0.448509 1.87099 0
M  V30 3038 O 283.211 -0.558382 1.83283 0
M  V30 3039 C 283.405 2.89101 2.10132 0
M  V30 3040 C 283.234 4.26084 1.43814 0
M  V30 3041 C 282.004 4.90994 1.19384 0
M  V30 3042 C 284.202 5.06754 0.877802 0
M  V30 3043 N 282.184 6.11911 0.49377 0
M  V30 3044 C 283.555 6.1924 0.306891 0
M  V30 3045 C 285.61 4.91814 0.776129 0
M  V30 3046 C 284.313 7.1842 -0.355774 0
M  V30 3047 C 286.339 5.91263 0.127252 0
M  V30 3048 C 285.701 7.03069 -0.432801 0
M  V30 3049 H 281.8 0.676872 0.391623 0
M  V30 3050 H 284.384 1.90603 0.397334 0
M  V30 3051 H 282.555 2.70456 2.78761 0
M  V30 3052 H 284.287 2.95142 2.76899 0
M  V30 3053 H 281.042 4.50074 1.47413 0
M  V30 3054 H 281.466 6.76813 0.159207 0
M  V30 3055 H 286.108 4.05564 1.19489 0
M  V30 3056 H 283.826 8.04264 -0.786499 0
M  V30 3057 H 287.412 5.81779 0.0495613 0
M  V30 3058 H 286.292 7.78702 -0.926958 0
M  V30 3059 N 283.795 -0.628877 1.44509 0
M  V30 3060 C 284.743 -1.76193 1.51852 0
M  V30 3061 C 285.737 -1.64849 0.390042 0
M  V30 3062 O 286.943 -1.709 0.565082 0
M  V30 3063 H 283.318 -0.581728 0.476547 0
M  V30 3064 H 285.289 -1.67123 2.47209 0
M  V30 3065 C 284.038 -3.14533 1.48204 0
M  V30 3066 H 283.361 -3.23911 2.34354 0
M  V30 3067 H 284.801 -3.93701 1.57402 0
M  V30 3068 C 283.26 -3.36287 0.203142 0
M  V30 3069 O 283.79 -3.9509 -0.725745 0
M  V30 3070 N 281.996 -2.90408 0.105563 0
M  V30 3071 H 281.543 -2.42739 0.862301 0
M  V30 3072 H 281.501 -3.05339 -0.749371 0
M  V30 3073 N 285.273 -1.31445 -0.869486 0
M  V30 3074 C 286.223 -1.15731 -1.96444 0
M  V30 3075 C 287.207 -0.0681855 -1.60755 0
M  V30 3076 O 288.399 -0.293154 -1.74555 0
M  V30 3077 C 285.528 -0.867255 -3.32165 0
M  V30 3078 C 284.614 -1.99738 -3.74119 0
M  V30 3079 N 285.005 -3.24447 -3.88031 0
M  V30 3080 C 283.303 -1.89723 -4.03635 0
M  V30 3081 C 284.004 -3.98374 -4.23879 0
M  V30 3082 N 282.98 -3.26547 -4.3459 0
M  V30 3083 H 286.782 -2.10296 -2.05312 0
M  V30 3084 H 284.296 -1.23009 -1.06031 0
M  V30 3085 H 286.293 -0.735668 -4.10358 0
M  V30 3086 H 284.953 0.0701614 -3.24624 0
M  V30 3087 H 285.964 -3.59557 -3.72746 0
M  V30 3088 H 282.641 -1.03449 -4.04481 0
M  V30 3089 H 284.031 -5.05844 -4.42235 0
M  V30 3090 N 286.751 1.08385 -1.14413 0
M  V30 3091 C 287.681 2.17321 -0.854044 0
M  V30 3092 C 288.662 1.69024 0.191049 0
M  V30 3093 O 289.847 1.94141 0.0476779 0
M  V30 3094 C 286.977 3.45719 -0.330983 0
M  V30 3095 C 285.931 4.07409 -1.31155 0
M  V30 3096 C 285.257 5.30762 -0.64778 0
M  V30 3097 C 286.557 4.48665 -2.67388 0
M  V30 3098 H 288.251 2.41845 -1.76498 0
M  V30 3099 H 285.797 1.16233 -0.850051 0
M  V30 3100 H 287.75 4.21241 -0.115645 0
M  V30 3101 H 286.474 3.2075 0.615381 0
M  V30 3102 H 285.133 3.33919 -1.51306 0
M  V30 3103 H 284.781 5.02078 0.304398 0
M  V30 3104 H 284.481 5.72992 -1.30207 0
M  V30 3105 H 286.005 6.08998 -0.441972 0
M  V30 3106 H 287.419 5.15364 -2.51143 0
M  V30 3107 H 285.816 5.01814 -3.29093 0
M  V30 3108 H 286.886 3.60543 -3.24248 0
M  V30 3109 N 288.23 0.939286 1.26551 0
M  V30 3110 C 289.16 0.465044 2.28822 0
M  V30 3111 C 290.141 -0.480692 1.63167 0
M  V30 3112 O 291.326 -0.382955 1.90387 0
M  V30 3113 C 288.456 -0.27234 3.46231 0
M  V30 3114 C 287.41 0.58666 4.2396 0
M  V30 3115 C 286.736 -0.280573 5.33963 0
M  V30 3116 C 288.036 1.85704 4.88171 0
M  V30 3117 H 289.73 1.31979 2.68741 0
M  V30 3118 H 287.276 0.636061 1.29191 0
M  V30 3119 H 289.229 -0.615133 4.16886 0
M  V30 3120 H 287.953 -1.16121 3.0526 0
M  V30 3121 H 286.612 0.91232 3.55067 0
M  V30 3122 H 286.26 -1.16874 4.89234 0
M  V30 3123 H 285.96 0.29076 5.8688 0
M  V30 3124 H 287.484 -0.618678 6.07458 0
M  V30 3125 H 288.898 1.58161 5.51052 0
M  V30 3126 H 287.295 2.37279 5.51197 0
M  V30 3127 H 288.365 2.56957 4.11219 0
M  V30 3128 N 289.708 -1.40897 0.706093 0
M  V30 3129 C 290.658 -2.27987 0.0240746 0
M  V30 3130 C 291.642 -1.42759 -0.742204 0
M  V30 3131 O 292.834 -1.65936 -0.615966 0
M  V30 3132 C 289.963 -3.31186 -0.903907 0
M  V30 3133 C 289.049 -4.2389 -0.133318 0
M  V30 3134 N 289.44 -4.98113 0.878444 0
M  V30 3135 C 287.738 -4.44485 -0.367269 0
M  V30 3136 C 288.439 -5.6604 1.34064 0
M  V30 3137 N 287.415 -5.39522 0.664565 0
M  V30 3138 H 291.217 -2.82812 0.799658 0
M  V30 3139 H 288.731 -1.53235 0.537845 0
M  V30 3140 H 290.728 -3.92413 -1.40775 0
M  V30 3141 H 289.388 -2.77922 -1.67897 0
M  V30 3142 H 290.399 -5.02364 1.25901 0
M  V30 3143 H 287.076 -4.02213 -1.1194 0
M  V30 3144 H 288.466 -6.35524 2.1808 0
M  V30 3145 N 291.186 -0.45159 -1.50991 0
M  V30 3146 C 292.136 0.370861 -2.24964 0
M  V30 3147 C 293.12 0.978074 -1.2776 0
M  V30 3148 O 294.312 0.893854 -1.52772 0
M  V30 3149 C 291.441 1.46344 -3.10545 0
M  V30 3150 C 290.527 0.864924 -4.15187 0
M  V30 3151 N 290.918 -0.00311354 -5.058 0
M  V30 3152 C 289.216 1.13099 -4.31422 0
M  V30 3153 C 289.917 -0.340772 -5.80701 0
M  V30 3154 N 288.893 0.279203 -5.42883 0
M  V30 3155 H 292.695 -0.298134 -2.92384 0
M  V30 3156 H 290.209 -0.264528 -1.60231 0
M  V30 3157 H 292.206 2.06565 -3.62128 0
M  V30 3158 H 290.866 2.13463 -2.4467 0
M  V30 3159 H 291.877 -0.37058 -5.16572 0
M  V30 3160 H 288.554 1.79861 -3.76771 0
M  V30 3161 H 289.944 -1.048 -6.63677 0
M  V30 3162 N 292.664 1.56529 -0.183458 0
M  V30 3163 C 293.911 1.97244 0.458357 0
M  V30 3164 C 294.239 1.06992 1.62428 0
M  V30 3165 O 293.494 0.106542 1.9541 0
M  V30 3166 C 293.793 3.43939 0.971637 0
M  V30 3167 C 293.459 4.5083 -0.0796784 0
M  V30 3168 C 292.121 4.79786 -0.368584 0
M  V30 3169 C 294.473 5.15138 -0.792638 0
M  V30 3170 C 291.801 5.70345 -1.37563 0
M  V30 3171 C 294.153 6.06784 -1.78875 0
M  V30 3172 C 292.817 6.34102 -2.08497 0
M  V30 3173 H 292.087 0.721768 0.167725 0
M  V30 3174 H 294.734 1.89472 -0.277976 0
M  V30 3175 H 293.039 3.48724 1.78602 0
M  V30 3176 H 294.736 3.72791 1.47744 0
M  V30 3177 H 291.326 4.28317 0.155668 0
M  V30 3178 H 295.51 4.92868 -0.582659 0
M  V30 3179 H 290.766 5.89789 -1.61118 0
M  V30 3180 H 294.94 6.55677 -2.3465 0
M  V30 3181 H 292.567 7.04074 -2.86678 0
M  V30 3182 N 294.142 -0.090211 1.57342 0
M  V30 3183 C 295.388 -0.793982 1.86611 0
M  V30 3184 C 295.721 -1.78142 0.773252 0
M  V30 3185 O 294.996 -1.93271 -0.218304 0
M  V30 3186 C 295.279 -1.51839 3.26523 0
M  V30 3187 C 295.132 -0.548609 4.46442 0
M  V30 3188 C 296.451 -2.46779 3.64401 0
M  V30 3189 H 293.57 -0.287186 0.678744 0
M  V30 3190 H 296.212 -0.0575076 1.89913 0
M  V30 3191 H 294.362 -2.14617 3.23839 0
M  V30 3192 H 296.034 0.0725513 4.61243 0
M  V30 3193 H 294.277 0.137614 4.33582 0
M  V30 3194 H 294.948 -1.09271 5.41076 0
M  V30 3195 H 297.424 -1.94089 3.68061 0
M  V30 3196 H 296.3 -2.94479 4.63221 0
M  V30 3197 H 296.561 -3.30758 2.93346 0
M  V30 3198 N 295.62 -1.53406 -0.361157 0
M  V30 3199 C 296.869 -1.69022 -1.10066 0
M  V30 3200 C 297.182 -0.450838 -1.90333 0
M  V30 3201 O 298.388 -0.487617 -2.67085 0
M  V30 3202 C 296.844 -2.98812 -2.00598 0
M  V30 3203 C 296.452 -4.30027 -1.25621 0
M  V30 3204 C 298.196 -3.23795 -2.74513 0
M  V30 3205 C 296.103 -5.50903 -2.1508 0
M  V30 3206 H 295.033 -0.629776 -0.414606 0
M  V30 3207 H 297.684 -1.79907 -0.361348 0
M  V30 3208 H 296.066 -2.8174 -2.78278 0
M  V30 3209 H 297.24 -4.57745 -0.529739 0
M  V30 3210 H 295.555 -4.11522 -0.635496 0
M  V30 3211 H 298.152 -4.11289 -3.41681 0
M  V30 3212 H 298.495 -2.40045 -3.40123 0
M  V30 3213 H 299.028 -3.41561 -2.03914 0
M  V30 3214 H 295.767 -6.37143 -1.54041 0
M  V30 3215 H 295.287 -5.27459 -2.85565 0
M  V30 3216 H 296.966 -5.85865 -2.74538 0
M  V30 3217 N 297.098 0.621204 -1.44841 0
M  V30 3218 C 298.346 1.37783 -1.47852 0
M  V30 3219 C 298.667 1.94653 -0.116224 0
M  V30 3220 O 297.937 1.76367 0.852737 0
M  V30 3221 H 296.517 0.511453 -0.544449 0
M  V30 3222 H 299.179 0.730446 -1.80694 0
M  V30 3223 H 298.275 2.20414 -2.20961 0
M  V30 3224 N 298.576 1.31904 0.862503 0
M  V30 3225 C 299.526 1.16772 1.95827 0
M  V30 3226 C 300.51 0.0767098 1.60717 0
M  V30 3227 O 301.702 0.302407 1.74398 0
M  V30 3228 C 298.831 0.884858 3.317 0
M  V30 3229 C 297.917 2.0172 3.73055 0
M  V30 3230 N 298.308 3.265 3.86305 0
M  V30 3231 C 296.606 1.91861 4.02623 0
M  V30 3232 C 297.307 4.00616 4.2176 0
M  V30 3233 N 296.283 3.28847 4.32852 0
M  V30 3234 H 300.085 2.11382 2.04193 0
M  V30 3235 H 297.599 1.2357 1.05377 0
M  V30 3236 H 299.596 0.757419 4.09962 0
M  V30 3237 H 298.256 -0.0529448 3.24657 0
M  V30 3238 H 299.267 3.61529 3.70833 0
M  V30 3239 H 295.944 1.05593 4.03926 0
M  V30 3240 H 297.334 5.08182 4.39546 0
M  V30 3241 N 300.054 -1.07777 1.14986 0
M  V30 3242 C 300.984 -2.16865 0.865557 0
M  V30 3243 C 301.965 -1.69123 -0.182083 0
M  V30 3244 O 303.15 -1.94164 -0.0373815 0
M  V30 3245 C 300.28 -3.45539 0.349313 0
M  V30 3246 C 299.234 -4.06708 1.33313 0
M  V30 3247 C 298.56 -5.30411 0.675918 0
M  V30 3248 C 299.86 -4.47241 2.69764 0
M  V30 3249 H 301.554 -2.40905 1.77778 0
M  V30 3250 H 299.1 -1.15781 0.856203 0
M  V30 3251 H 301.053 -4.21174 0.137983 0
M  V30 3252 H 299.777 -3.21072 -0.598362 0
M  V30 3253 H 298.436 -3.33112 1.53075 0
M  V30 3254 H 298.084 -5.02232 -0.277767 0
M  V30 3255 H 297.784 -5.72293 1.33244 0
M  V30 3256 H 299.308 -6.08755 0.474262 0
M  V30 3257 H 300.722 -5.14025 2.53873 0
M  V30 3258 H 299.119 -5.00062 3.3175 0
M  V30 3259 H 300.189 -3.58818 3.26156 0
M  V30 3260 N 301.532 -0.945985 -1.26051 0
M  V30 3261 C 302.479 -0.45809 -2.26208 0
M  V30 3262 C 303.449 0.484816 -1.58867 0
M  V30 3263 O 304.634 0.399969 -1.86561 0
M  V30 3264 C 301.774 0.266131 -3.44072 0
M  V30 3265 C 300.887 -0.713005 -4.26075 0
M  V30 3266 C 300.022 0.0329013 -5.3119 0
M  V30 3267 C 299.061 -0.93774 -6.04874 0
M  V30 3268 N 298.198 -0.223274 -7.01745 0
M  V30 3269 H 303.038 -1.3171 -2.67313 0
M  V30 3270 H 300.575 -0.66069 -1.31428 0
M  V30 3271 H 302.533 0.702514 -4.11243 0
M  V30 3272 H 301.163 1.08925 -3.03867 0
M  V30 3273 H 300.215 -1.26789 -3.58648 0
M  V30 3274 H 301.527 -1.45406 -4.77136 0
M  V30 3275 H 300.681 0.528335 -6.04395 0
M  V30 3276 H 299.42 0.806801 -4.8098 0
M  V30 3277 H 298.425 -1.44425 -5.30492 0
M  V30 3278 H 299.65 -1.71172 -6.57173 0
M  V30 3279 H 297.596 0.532046 -6.53839 0
M  V30 3280 H 297.513 -0.90357 -7.50581 0
M  V30 3281 H 298.781 0.250907 -7.79096 0
M  V30 3282 N 303.011 1.40521 -0.713556 0
M  V30 3283 C 304.259 2.00527 -0.251692 0
M  V30 3284 C 304.58 1.56857 1.15848 0
M  V30 3285 O 303.85 0.807127 1.785 0
M  V30 3286 H 302.43 0.741551 -0.0900646 0
M  V30 3287 H 305.092 1.71887 -0.918733 0
M  V30 3288 H 304.188 3.10813 -0.283192 0
M  V30 3289 N 304.489 0.459591 1.5075 0
M  V30 3290 C 305.452 -0.329093 2.26825 0
M  V30 3291 C 306.452 -0.930481 1.31144 0
M  V30 3292 O 307.642 -0.801453 1.54669 0
M  V30 3293 C 304.774 -1.46768 3.07688 0
M  V30 3294 H 305.967 0.337924 2.9799 0
M  V30 3295 H 303.52 0.213336 1.54837 0
M  V30 3296 H 304.255 -2.17009 2.40993 0
M  V30 3297 H 304.04 -1.04238 3.77991 0
M  V30 3298 H 305.53 -2.02433 3.65254 0
M  V30 3299 N 305.967 -1.56429 0.191757 0
M  V30 3300 C 307.378 -1.83912 -0.321428 0
M  V30 3301 C 307.729 -1.11231 -1.61623 0
M  V30 3302 O 306.854 -0.37202 -2.13178 0
M  V30 3303 C 307.449 -3.33624 -0.589961 0
M  V30 3304 C 306.008 -3.6153 -1.04753 0
M  V30 3305 C 305.155 -2.7714 -0.0943327 0
M  V30 3306 H 308.106 -1.53161 0.415612 0
M  V30 3307 H 308.127 -3.52213 -1.43966 0
M  V30 3308 H 307.639 -3.86495 0.352588 0
M  V30 3309 H 305.74 -3.14089 -2.00447 0
M  V30 3310 H 305.853 -4.69737 -0.942549 0
M  V30 3311 H 304.217 -2.47638 -0.595589 0
M  V30 3312 H 305 -3.32799 0.842601 0
M  V30 3313 N 307.445 0.0818655 -1.57387 0
M  V30 3314 C 308.408 1.08265 -2.02018 0
M  V30 3315 C 309.408 1.32183 -0.915664 0
M  V30 3316 O 310.598 1.28073 -1.18081 0
M  V30 3317 C 307.73 2.42871 -2.39221 0
M  V30 3318 H 308.923 0.698204 -2.91659 0
M  V30 3319 H 306.476 0.327303 -1.52835 0
M  V30 3320 H 307.211 2.86167 -1.52575 0
M  V30 3321 H 306.996 2.26855 -3.19811 0
M  V30 3322 H 308.486 3.14826 -2.74362 0
M  V30 3323 N 308.923 1.53595 0.353017 0
M  V30 3324 C 310.148 1.7462 1.11904 0
M  V30 3325 C 310.573 0.479721 1.8188 0
M  V30 3326 O 309.931 -0.567066 1.72204 0
M  V30 3327 C 309.979 2.92029 2.11545 0
M  V30 3328 O 309.083 2.61516 3.18878 0
M  V30 3329 H 308.424 0.579531 0.324099 0
M  V30 3330 H 310.954 2.00525 0.406301 0
M  V30 3331 H 310.964 3.18551 2.5493 0
M  V30 3332 H 309.639 3.83888 1.60008 0
M  V30 3333 H 308.216 2.45852 2.80377 0
M  V30 3334 N 310.401 -0.613514 1.45168 0
M  V30 3335 C 311.647 -1.37279 1.50087 0
M  V30 3336 C 312.002 -1.91902 0.138294 0
M  V30 3337 O 311.295 -1.71764 -0.84899 0
M  V30 3338 C 311.489 -2.54347 2.51083 0
M  V30 3339 C 311.318 -2.11186 3.97027 0
M  V30 3340 C 310.088 -1.97636 4.65046 0
M  V30 3341 C 312.286 -1.69016 4.85735 0
M  V30 3342 N 310.268 -1.48224 5.95737 0
M  V30 3343 C 311.639 -1.30976 6.06008 0
M  V30 3344 C 313.694 -1.56555 4.72647 0
M  V30 3345 C 312.397 -0.817197 7.14643 0
M  V30 3346 C 314.423 -1.08702 5.81324 0
M  V30 3347 C 313.785 -0.716233 7.00749 0
M  V30 3348 H 309.884 -0.496478 0.60418 0
M  V30 3349 H 312.468 -0.701988 1.81605 0
M  V30 3350 H 310.639 -3.19031 2.21527 0
M  V30 3351 H 312.371 -3.21208 2.46187 0
M  V30 3352 H 309.126 -2.18638 4.20112 0
M  V30 3353 H 309.55 -1.25767 6.65216 0
M  V30 3354 H 314.192 -1.83849 3.80736 0
M  V30 3355 H 311.91 -0.531797 8.06348 0
M  V30 3356 H 315.496 -0.994943 5.7323 0
M  V30 3357 H 314.376 -0.351642 7.83411 0
M  V30 3358 N 311.879 -1.3236 -0.855495 0
M  V30 3359 C 313.125 -1.24064 -1.61182 0
M  V30 3360 C 313.48 0.195914 -1.914 0
M  V30 3361 O 312.773 1.13345 -1.54478 0
M  V30 3362 C 312.967 -2.03275 -2.93963 0
M  V30 3363 C 312.796 -3.54486 -2.76712 0
M  V30 3364 C 311.566 -4.23824 -2.75139 0
M  V30 3365 C 313.764 -4.49154 -2.50531 0
M  V30 3366 N 311.746 -5.61095 -2.4909 0
M  V30 3367 C 313.117 -5.74195 -2.3388 0
M  V30 3368 C 315.172 -4.3842 -2.35992 0
M  V30 3369 C 313.875 -6.89716 -2.04168 0
M  V30 3370 C 315.901 -5.53739 -2.0767 0
M  V30 3371 C 315.263 -6.77779 -1.9182 0
M  V30 3372 H 311.362 -0.509139 -0.59355 0
M  V30 3373 H 313.946 -1.66715 -1.00569 0
M  V30 3374 H 312.117 -1.6297 -3.52555 0
M  V30 3375 H 313.849 -1.86881 -3.58967 0
M  V30 3376 H 310.604 -3.75934 -2.88047 0
M  V30 3377 H 311.028 -6.33411 -2.38996 0
M  V30 3378 H 315.67 -3.43172 -2.46967 0
M  V30 3379 H 313.388 -7.84977 -1.9193 0
M  V30 3380 H 316.974 -5.4736 -1.97201 0
M  V30 3381 H 315.854 -7.65504 -1.70217 0
M  V30 3382 N 313.357 1.07166 -1.15556 0
M  V30 3383 C 314.305 2.16517 -0.8499 0
M  V30 3384 C 315.299 1.68468 0.177454 0
M  V30 3385 O 316.505 1.79971 0.0323026 0
M  V30 3386 H 312.88 0.706652 -0.25719 0
M  V30 3387 H 314.851 2.39514 -1.77976 0
M  V30 3388 C 313.6 3.45855 -0.357682 0
M  V30 3389 H 312.923 3.83214 -1.13961 0
M  V30 3390 H 314.363 4.23607 -0.182489 0
M  V30 3391 C 312.822 3.24062 0.921152 0
M  V30 3392 O 313.352 3.48813 1.9923 0
M  V30 3393 N 311.558 2.77539 0.86141 0
M  V30 3394 H 311.105 2.57598 -0.0104408 0
M  V30 3395 H 311.063 2.63337 1.71758 0
M  V30 3396 N 314.835 0.952656 1.25548 0
M  V30 3397 C 315.785 0.442033 2.23674 0
M  V30 3398 C 316.769 -0.467632 1.53955 0
M  V30 3399 O 317.961 -0.301006 1.74422 0
M  V30 3400 C 315.09 -0.280816 3.4215 0
M  V30 3401 C 314.176 0.646803 4.19139 0
M  V30 3402 N 314.567 1.77759 4.73535 0
M  V30 3403 C 312.865 0.454617 4.43677 0
M  V30 3404 C 313.566 2.35658 5.31827 0
M  V30 3405 N 312.542 1.64333 5.18166 0
M  V30 3406 H 316.344 1.30505 2.63336 0
M  V30 3407 H 313.858 0.809904 1.40763 0
M  V30 3408 H 315.855 -0.663747 4.11582 0
M  V30 3409 H 314.515 -1.14046 3.04012 0
M  V30 3410 H 315.526 2.15949 4.7073 0
M  V30 3411 H 312.203 -0.362312 4.15925 0
M  V30 3412 H 313.593 3.30998 5.84713 0
M  V30 3413 N 316.313 -1.40141 0.720998 0
M  V30 3414 C 317.246 -2.2819 0.020916 0
M  V30 3415 C 318.224 -1.43633 -0.762129 0
M  V30 3416 O 319.408 -1.7304 -0.747633 0
M  V30 3417 C 316.535 -3.24281 -0.977715 0
M  V30 3418 C 315.581 -4.25548 -0.284836 0
M  V30 3419 S 316.414 -5.26247 0.991169 0
M  V30 3420 C 317.57 -6.259 -0.0052214 0
M  V30 3421 H 317.803 -2.87218 0.767649 0
M  V30 3422 H 315.336 -1.45656 0.512233 0
M  V30 3423 H 317.294 -3.80167 -1.54865 0
M  V30 3424 H 315.955 -2.643 -1.69719 0
M  V30 3425 H 315.148 -4.93154 -1.03996 0
M  V30 3426 H 314.75 -3.73389 0.213684 0
M  V30 3427 H 317.042 -6.72143 -0.850279 0
M  V30 3428 H 317.985 -7.05224 0.637599 0
M  V30 3429 H 318.393 -5.63277 -0.371366 0
M  V30 3430 N 317.792 -0.46758 -1.50504 0
M  V30 3431 C 318.742 0.34698 -2.25344 0
M  V30 3432 C 319.726 0.964469 -1.2879 0
M  V30 3433 O 320.918 0.8776 -1.53711 0
M  V30 3434 C 318.047 1.43042 -3.1208 0
M  V30 3435 C 317.133 0.82084 -4.16081 0
M  V30 3436 N 317.524 -0.0567602 -5.05768 0
M  V30 3437 C 315.822 1.08517 -4.32597 0
M  V30 3438 C 316.523 -0.402343 -5.80307 0
M  V30 3439 N 315.499 0.221607 -5.43148 0
M  V30 3440 H 319.301 -0.329129 -2.92051 0
M  V30 3441 H 316.815 -0.281508 -1.59942 0
M  V30 3442 H 318.812 2.02712 -3.64299 0
M  V30 3443 H 317.472 2.10856 -2.46921 0
M  V30 3444 H 318.483 -0.425349 -5.1615 0
M  V30 3445 H 315.16 1.75855 -3.78657 0
M  V30 3446 H 316.55 -1.11834 -6.62528 0
M  V30 3447 N 319.27 1.56325 -0.20005 0
M  V30 3448 C 320.517 1.97719 0.437411 0
M  V30 3449 C 320.845 1.08709 1.61284 0
M  V30 3450 O 320.1 0.127261 1.95286 0
M  V30 3451 C 320.399 3.4495 0.935103 0
M  V30 3452 C 320.065 4.5072 -0.12749 0
M  V30 3453 C 318.727 4.79368 -0.419451 0
M  V30 3454 C 321.079 5.14268 -0.847231 0
M  V30 3455 C 318.407 5.68854 -1.43604 0
M  V30 3456 C 320.759 6.04852 -1.85301 0
M  V30 3457 C 319.423 6.31855 -2.15211 0
M  V30 3458 H 318.693 0.723507 0.16006 0
M  V30 3459 H 321.34 1.89166 -0.298056 0
M  V30 3460 H 319.645 3.50599 1.74894 0
M  V30 3461 H 321.342 3.74337 1.43781 0
M  V30 3462 H 317.932 4.28458 0.11023 0
M  V30 3463 H 322.116 4.92222 -0.634901 0
M  V30 3464 H 317.372 5.88047 -1.67364 0
M  V30 3465 H 321.546 6.53152 -2.41591 0
M  V30 3466 H 319.173 7.00994 -2.94129 0
M  V30 3467 N 320.748 -0.0735177 1.57428 0
M  V30 3468 C 321.68 -1.11423 2.00294 0
M  V30 3469 C 322.693 -1.35084 0.908637 0
M  V30 3470 O 323.882 -1.33355 1.18654 0
M  V30 3471 C 320.982 -2.46548 2.32523 0
M  V30 3472 C 320.155 -2.42867 3.63778 0
M  V30 3473 C 319.214 -3.60087 3.83697 0
M  V30 3474 O 318.24 -3.41595 4.55304 0
M  V30 3475 N 319.442 -4.80372 3.25919 0
M  V30 3476 H 322.207 -0.749206 2.90184 0
M  V30 3477 H 319.768 -0.262195 1.59763 0
M  V30 3478 H 321.76 -3.23607 2.43024 0
M  V30 3479 H 320.33 -2.75059 1.48531 0
M  V30 3480 H 319.55 -1.51206 3.64047 0
M  V30 3481 H 320.838 -2.37506 4.49965 0
M  V30 3482 H 320.236 -4.983 2.67795 0
M  V30 3483 H 318.793 -5.54948 3.41871 0
M  V30 3484 N 322.226 -1.5378 -0.344866 0
M  V30 3485 C 323.176 -1.78057 -1.42407 0
M  V30 3486 C 324.16 -0.635732 -1.47808 0
M  V30 3487 O 325.352 -0.89508 -1.527 0
M  V30 3488 C 322.481 -1.99242 -2.79566 0
M  V30 3489 C 321.567 -3.19787 -2.78562 0
M  V30 3490 N 321.958 -4.41284 -2.47189 0
M  V30 3491 C 320.256 -3.2093 -3.0971 0
M  V30 3492 C 320.957 -5.23128 -2.54385 0
M  V30 3493 N 319.933 -4.59813 -2.89953 0
M  V30 3494 H 323.735 -2.69588 -1.17046 0
M  V30 3495 H 321.249 -1.52687 -0.553217 0
M  V30 3496 H 323.246 -2.14768 -3.57324 0
M  V30 3497 H 321.906 -1.08953 -3.05875 0
M  V30 3498 H 322.917 -4.68657 -2.20411 0
M  V30 3499 H 319.594 -2.40603 -3.41199 0
M  V30 3500 H 320.984 -6.30096 -2.333 0
M  V30 3501 N 323.704 0.605807 -1.45491 0
M  V30 3502 C 324.654 1.71074 -1.50724 0
M  V30 3503 C 325.638 1.5658 -0.37033 0
M  V30 3504 O 326.83 1.65887 -0.617299 0
M  V30 3505 C 323.959 3.0983 -1.47852 0
M  V30 3506 C 323.045 3.29704 -2.66751 0
M  V30 3507 N 323.436 3.19831 -3.91844 0
M  V30 3508 C 321.734 3.60579 -2.62486 0
M  V30 3509 C 322.435 3.41083 -4.71208 0
M  V30 3510 N 321.411 3.65157 -4.02693 0
M  V30 3511 H 325.213 1.61937 -2.45263 0
M  V30 3512 H 322.727 0.80912 -1.40808 0
M  V30 3513 H 324.724 3.89101 -1.49686 0
M  V30 3514 H 323.384 3.20115 -0.543714 0
M  V30 3515 H 324.395 2.98194 -4.23439 0
M  V30 3516 H 321.072 3.7769 -1.77922 0
M  V30 3517 H 322.462 3.38828 -5.80211 0
M  V30 3518 N 325.182 1.32811 0.848464 0
M  V30 3519 C 326.145 1.22194 1.9391 0
M  V30 3520 C 327.145 0.143404 1.60159 0
M  V30 3521 O 328.335 0.394253 1.6968 0
M  V30 3522 C 325.467 0.88067 3.29328 0
M  V30 3523 H 326.66 2.19127 2.04752 0
M  V30 3524 H 324.213 1.16731 1.0394 0
M  V30 3525 H 324.948 -0.0865776 3.24184 0
M  V30 3526 H 324.733 1.66052 3.55203 0
M  V30 3527 H 326.223 0.830871 4.09251 0
M  V30 3528 N 326.66 -1.06551 1.16123 0
M  V30 3529 C 327.607 -2.13961 0.865414 0
M  V30 3530 C 328.577 -1.65066 -0.185055 0
M  V30 3531 O 329.762 -1.90732 -0.05083 0
M  V30 3532 C 326.902 -3.43113 0.369776 0
M  V30 3533 C 326.015 -4.05756 1.48276 0
M  V30 3534 C 325.15 -5.22773 0.942414 0
M  V30 3535 C 324.189 -5.77395 2.03179 0
M  V30 3536 N 323.326 -6.85731 1.50721 0
M  V30 3537 H 328.166 -2.38605 1.78527 0
M  V30 3538 H 325.703 -1.17072 0.890646 0
M  V30 3539 H 327.661 -4.17151 0.0640643 0
M  V30 3540 H 326.291 -3.18695 -0.513143 0
M  V30 3541 H 325.343 -3.29292 1.9045 0
M  V30 3542 H 326.655 -4.42351 2.30493 0
M  V30 3543 H 325.809 -6.03827 0.589729 0
M  V30 3544 H 324.548 -4.87618 0.0895191 0
M  V30 3545 H 323.553 -4.94981 2.3932 0
M  V30 3546 H 324.778 -6.14603 2.8886 0
M  V30 3547 H 322.724 -6.52499 0.676811 0
M  V30 3548 H 322.641 -7.21254 2.26557 0
M  V30 3549 H 323.909 -7.7047 1.18303 0
M  V30 3550 N 328.138 -0.959301 -1.25041 0
M  V30 3551 C 329.549 -0.65667 -1.74771 0
M  V30 3552 C 329.9 0.827852 -1.77879 0
M  V30 3553 O 329.025 1.64783 -1.40269 0
M  V30 3554 C 329.62 -1.1853 -3.1739 0
M  V30 3555 C 328.179 -0.932734 -3.6466 0
M  V30 3556 C 327.326 -1.32558 -2.43564 0
M  V30 3557 H 330.277 -1.13558 -1.10862 0
M  V30 3558 H 330.298 -0.547582 -3.76539 0
M  V30 3559 H 329.81 -2.26576 -3.15095 0
M  V30 3560 H 327.911 0.13257 -3.72364 0
M  V30 3561 H 328.024 -1.57248 -4.52559 0
M  V30 3562 H 326.388 -0.743956 -2.43593 0
M  V30 3563 H 327.171 -2.41537 -2.43957 0
M  V30 3564 N 329.616 1.39756 -0.72842 0
M  V30 3565 C 330.564 2.32485 -0.0731849 0
M  V30 3566 C 331.558 1.52717 0.733063 0
M  V30 3567 O 332.764 1.68428 0.634988 0
M  V30 3568 H 329.139 0.751984 -0.00486469 0
M  V30 3569 H 331.11 2.85382 -0.871761 0
M  V30 3570 C 329.859 3.37773 0.824908 0
M  V30 3571 H 329.182 3.99227 0.213915 0
M  V30 3572 H 330.622 4.05121 1.25111 0
M  V30 3573 C 329.081 2.74287 1.95622 0
M  V30 3574 O 329.611 2.61618 3.04826 0
M  V30 3575 N 327.817 2.32475 1.74367 0
M  V30 3576 H 327.364 2.4298 0.855494 0
M  V30 3577 H 327.322 1.90337 2.50238 0
M  V30 3578 N 331.094 0.475555 1.50254 0
M  V30 3579 C 332.334 -0.0765802 2.04256 0
M  V30 3580 C 332.698 -1.36587 1.34937 0
M  V30 3581 O 333.899 -2.00066 1.79519 0
M  V30 3582 C 332.17 -0.251668 3.56513 0
M  V30 3583 S 333.729 -0.761716 4.32138 0
M  V30 3584 H 330.547 -0.0138456 0.710865 0
M  V30 3585 H 333.149 0.643714 1.84598 0
M  V30 3586 H 331.853 0.692404 4.04517 0
M  V30 3587 H 331.384 -0.997946 3.80532 0
M  V30 3588 H 333.399 -2.03451 4.52573 0
M  V30 3589 N 332.573 -1.56217 0.208337 0
M  V30 3590 C 333.82 -1.97949 -0.42692 0
M  V30 3591 C 334.148 -1.09562 -1.60706 0
M  V30 3592 O 333.403 -0.137616 -1.95216 0
M  V30 3593 C 333.702 -3.45441 -0.916797 0
M  V30 3594 C 333.368 -4.50646 0.151391 0
M  V30 3595 C 332.03 -4.79139 0.444867 0
M  V30 3596 C 334.382 -5.13811 0.874492 0
M  V30 3597 C 331.71 -5.68084 1.46619 0
M  V30 3598 C 334.062 -6.03861 1.88506 0
M  V30 3599 C 332.726 -6.30704 2.18559 0
M  V30 3600 H 331.996 -0.724345 -0.156221 0
M  V30 3601 H 334.643 -1.89006 0.308084 0
M  V30 3602 H 332.948 -3.51521 -1.73032 0
M  V30 3603 H 334.645 -3.75094 -1.41794 0
M  V30 3604 H 331.235 -4.28511 -0.0875068 0
M  V30 3605 H 335.419 -4.91879 0.660996 0
M  V30 3606 H 330.675 -5.87151 1.7048 0
M  V30 3607 H 334.849 -6.51861 2.45051 0
M  V30 3608 H 332.476 -6.99424 2.97843 0
M  V30 3609 N 334.051 0.0651679 -1.57465 0
M  V30 3610 C 335.467 0.420105 -1.53972 0
M  V30 3611 C 335.667 1.78782 -0.929474 0
M  V30 3612 O 334.723 2.46771 -0.534839 0
M  V30 3613 C 336.036 0.355084 -2.98596 0
M  V30 3614 C 337.584 0.434792 -3.09965 0
M  V30 3615 C 338.059 0.399609 -4.56253 0
M  V30 3616 N 339.55 0.459488 -4.60915 0
M  V30 3617 C 340.285 0.454584 -5.71595 0
M  V30 3618 N 339.781 0.404102 -6.9162 0
M  V30 3619 N 341.574 0.501635 -5.59857 0
M  V30 3620 H 333.725 -0.830328 -1.95498 0
M  V30 3621 H 335.988 -0.312244 -0.895102 0
M  V30 3622 H 335.694 -0.583357 -3.46828 0
M  V30 3623 H 335.568 1.16275 -3.58831 0
M  V30 3624 H 337.955 1.36366 -2.61703 0
M  V30 3625 H 338.036 -0.40157 -2.52628 0
M  V30 3626 H 337.68 -0.525436 -5.05175 0
M  V30 3627 H 337.61 1.25359 -5.11461 0
M  V30 3628 H 340.101 0.502482 -3.74544 0
M  V30 3629 H 340.414 0.404468 -7.71741 0
M  V30 3630 H 338.759 0.37069 -6.94011 0
M  V30 3631 H 341.95 0.538812 -4.64989 0
M  V30 3632 H 342.123 0.494345 -6.46112 0
M  V30 3633 N 335.529 1.53961 0.336706 0
M  V30 3634 C 336.476 1.82428 1.41381 0
M  V30 3635 C 337.446 0.670444 1.51968 0
M  V30 3636 O 338.631 0.915565 1.67398 0
M  V30 3637 C 335.771 2.04564 2.77934 0
M  V30 3638 C 334.884 3.32267 2.76084 0
M  V30 3639 C 334.019 3.44434 4.04399 0
M  V30 3640 C 333.058 4.66061 3.96804 0
M  V30 3641 N 332.195 4.75224 5.16823 0
M  V30 3642 H 337.035 2.74324 1.16405 0
M  V30 3643 H 334.572 1.35869 0.563752 0
M  V30 3644 H 336.53 2.15388 3.57301 0
M  V30 3645 H 335.16 1.15974 3.01247 0
M  V30 3646 H 334.212 3.3025 1.88784 0
M  V30 3647 H 335.524 4.21733 2.66351 0
M  V30 3648 H 334.678 3.54728 4.92192 0
M  V30 3649 H 333.417 2.53037 4.16921 0
M  V30 3650 H 332.422 4.55838 3.07396 0
M  V30 3651 H 333.647 5.58829 3.85858 0
M  V30 3652 H 331.593 3.86739 5.29876 0
M  V30 3653 H 331.51 5.58636 5.09374 0
M  V30 3654 H 332.778 4.89835 6.06367 0
M  V30 3655 N 337.007 -0.598083 1.45811 0
M  V30 3656 C 338.284 -1.35777 1.40797 0
M  V30 3657 C 338.664 -2.10935 0.083462 0
M  V30 3658 O 338.012 -2.08505 -0.934763 0
M  V30 3659 C 338.222 -2.29666 2.62783 0
M  V30 3660 C 339.57 -2.91977 3.08277 0
M  V30 3661 O 340.594 -2.39984 2.63223 0
M  V30 3662 O 339.453 -3.86376 3.86491 0
M  V30 3663 H 336.547 -0.609291 0.55919 0
M  V30 3664 H 339.093 -0.620379 1.57954 0
M  V30 3665 H 337.865 -1.73454 3.50756 0
M  V30 3666 H 337.488 -3.1077 2.48008 0
M  V30 3667 N 338.485 -1.33259 -0.841409 0
M  V30 3668 C 339.896 -1.22066 -1.41269 0
M  V30 3669 C 340.247 0.161479 -1.95534 0
M  V30 3670 O 339.372 1.06094 -1.88608 0
M  V30 3671 C 339.967 -2.20996 -2.568 0
M  V30 3672 C 338.526 -2.13649 -3.09888 0
M  V30 3673 C 337.673 -2.08623 -1.82679 0
M  V30 3674 H 340.624 -1.44895 -0.647395 0
M  V30 3675 H 340.645 -1.81621 -3.34356 0
M  V30 3676 H 340.157 -3.2158 -2.17274 0
M  V30 3677 H 338.258 -1.16359 -3.53965 0
M  V30 3678 H 338.371 -3.04079 -3.70234 0
M  V30 3679 H 336.735 -1.54061 -2.02824 0
M  V30 3680 H 337.518 -3.1101 -1.45353 0
M  V30 3681 N 339.963 1.05934 -1.16686 0
M  V30 3682 C 341.24 1.75643 -0.860747 0
M  V30 3683 C 341.62 2.01144 0.640641 0
M  V30 3684 O 340.968 1.64147 1.58959 0
M  V30 3685 C 341.178 3.05493 -1.68745 0
M  V30 3686 C 342.526 3.79581 -1.90271 0
M  V30 3687 O 343.55 3.15344 -1.65641 0
M  V30 3688 O 342.409 4.9499 -2.31618 0
M  V30 3689 H 339.503 0.763426 -0.317977 0
M  V30 3690 H 342.049 1.1217 -1.27342 0
M  V30 3691 H 340.821 2.8264 -2.70611 0
M  V30 3692 H 340.444 3.76702 -1.27206 0
M  V30 3693 N 341.441 0.965919 1.2453 0
M  V30 3694 C 342.69 0.622437 1.91856 0
M  V30 3695 C 343.003 -0.846006 1.76358 0
M  V30 3696 O 344.209 -1.29993 2.38357 0
M  V30 3697 C 342.665 1.0626 3.43856 0
M  V30 3698 C 342.273 2.55437 3.68043 0
M  V30 3699 C 344.017 0.792183 4.17043 0
M  V30 3700 C 341.924 2.93196 5.13605 0
M  V30 3701 H 340.854 0.229092 0.718354 0
M  V30 3702 H 343.505 1.17189 1.41206 0
M  V30 3703 H 341.887 0.441476 3.93531 0
M  V30 3704 H 343.061 3.22665 3.28974 0
M  V30 3705 H 341.376 2.8007 3.08139 0
M  V30 3706 H 343.973 1.05031 5.24283 0
M  V30 3707 H 344.316 -0.271584 4.15413 0
M  V30 3708 H 344.849 1.37419 3.73311 0
M  V30 3709 H 341.588 3.98636 5.20355 0
M  V30 3710 H 341.108 2.30651 5.53679 0
M  V30 3711 H 342.787 2.83004 5.81823 0
M  V30 3712 N 342.919 -1.39368 0.735821 0
M  V30 3713 C 343.867 -2.32443 0.0855131 0
M  V30 3714 C 344.861 -1.53104 -0.724954 0
M  V30 3715 O 346.067 -1.68762 -0.626047 0
M  V30 3716 H 342.442 -0.751948 0.00885257 0
M  V30 3717 H 344.413 -2.84916 0.886883 0
M  V30 3718 C 343.162 -3.38206 -0.806983 0
M  V30 3719 H 342.485 -3.99335 -0.19274 0
M  V30 3720 H 343.925 -4.05779 -1.2296 0
M  V30 3721 C 342.384 -2.75321 -1.94165 0
M  V30 3722 O 342.914 -2.63231 -3.03435 0
M  V30 3723 N 341.12 -2.33396 -1.73132 0
M  V30 3724 H 340.667 -2.4343 -0.842596 0
M  V30 3725 H 340.625 -1.91661 -2.49225 0
M  V30 3726 N 344.397 -0.483516 -1.5 0
M  V30 3727 C 345.33 0.350427 -2.25493 0
M  V30 3728 C 346.308 0.985549 -1.29328 0
M  V30 3729 O 347.492 1.01906 -1.58579 0
M  V30 3730 C 344.619 1.49202 -3.04066 0
M  V30 3731 C 343.665 0.973036 -4.15252 0
M  V30 3732 S 344.498 -0.122237 -5.3536 0
M  V30 3733 C 345.654 1.02294 -6.17484 0
M  V30 3734 H 345.887 -0.290381 -2.95878 0
M  V30 3735 H 343.42 -0.268562 -1.52046 0
M  V30 3736 H 345.378 2.14623 -3.49925 0
M  V30 3737 H 344.039 2.10438 -2.33183 0
M  V30 3738 H 343.232 1.82804 -4.69679 0
M  V30 3739 H 342.834 0.396335 -3.71894 0
M  V30 3740 H 345.126 1.93195 -6.49371 0
M  V30 3741 H 346.069 0.517664 -7.06205 0
M  V30 3742 H 346.477 1.28238 -5.49741 0
M  V30 3743 N 345.875 1.56104 -0.216619 0
M  V30 3744 C 346.825 2.16703 0.708798 0
M  V30 3745 C 347.809 1.11392 1.16106 0
M  V30 3746 O 349.001 1.37395 1.11587 0
M  V30 3747 C 346.13 2.84666 1.91886 0
M  V30 3748 C 345.216 3.97195 1.48651 0
M  V30 3749 N 345.607 4.99959 0.766434 0
M  V30 3750 C 343.905 4.09193 1.77418 0
M  V30 3751 C 344.606 5.79126 0.546659 0
M  V30 3752 N 343.582 5.32315 1.10188 0
M  V30 3753 H 347.384 2.93516 0.150162 0
M  V30 3754 H 344.898 1.6239 -0.0176768 0
M  V30 3755 H 346.895 3.26486 2.59253 0
M  V30 3756 H 345.555 2.09347 2.48202 0
M  V30 3757 H 346.566 5.16197 0.419634 0
M  V30 3758 H 343.243 3.45021 2.35088 0
M  V30 3759 H 344.633 6.71895 -0.026103 0
M  V30 3760 N 347.353 -0.0568162 1.57498 0
M  V30 3761 C 348.764 -0.606858 1.76562 0
M  V30 3762 C 349.115 -1.77114 0.844094 0
M  V30 3763 O 348.24 -2.16376 0.0318911 0
M  V30 3764 C 348.835 -1.10766 3.20182 0
M  V30 3765 C 347.394 -1.60344 3.40539 0
M  V30 3766 C 346.541 -0.529311 2.72201 0
M  V30 3767 H 349.492 0.169393 1.57793 0
M  V30 3768 H 349.513 -1.97602 3.25167 0
M  V30 3769 H 349.025 -0.26006 3.87228 0
M  V30 3770 H 347.126 -2.47379 2.78629 0
M  V30 3771 H 347.239 -1.67006 4.4905 0
M  V30 3772 H 345.603 -0.977893 2.35179 0
M  V30 3773 H 346.386 0.308352 3.41912 0
M  V30 3774 N 348.832 -1.54138 -0.328536 0
M  V30 3775 C 350.079 -1.72105 -1.06706 0
M  V30 3776 C 350.407 -0.492111 -1.88171 0
M  V30 3777 O 349.662 0.526153 -1.88494 0
M  V30 3778 C 349.961 -2.9457 -2.02393 0
M  V30 3779 C 349.627 -4.29544 -1.37122 0
M  V30 3780 C 348.289 -4.6624 -1.19052 0
M  V30 3781 C 350.641 -5.1333 -0.902331 0
M  V30 3782 C 347.969 -5.84325 -0.527331 0
M  V30 3783 C 350.321 -6.32094 -0.252988 0
M  V30 3784 C 348.985 -6.67473 -0.0600901 0
M  V30 3785 H 348.255 -0.629775 -0.390466 0
M  V30 3786 H 350.902 -1.88372 -0.34473 0
M  V30 3787 H 349.207 -2.72969 -2.81061 0
M  V30 3788 H 350.904 -3.05665 -2.59557 0
M  V30 3789 H 347.494 -4.0067 -1.52188 0
M  V30 3790 H 351.678 -4.855 -1.02974 0
M  V30 3791 H 346.934 -6.103 -0.366634 0
M  V30 3792 H 351.108 -6.96299 0.118366 0
M  V30 3793 H 348.735 -7.58832 0.455828 0
M  V30 3794 N 350.31 0.590341 -1.46126 0
M  V30 3795 C 351.557 1.34882 -1.5104 0
M  V30 3796 C 351.885 1.93849 -0.159021 0
M  V30 3797 O 351.14 1.76544 0.844436 0
M  V30 3798 C 351.439 2.5032 -2.55097 0
M  V30 3799 C 351.105 2.09394 -3.99331 0
M  V30 3800 C 349.767 1.97947 -4.38601 0
M  V30 3801 C 352.119 1.77712 -4.89967 0
M  V30 3802 C 349.447 1.53065 -5.66381 0
M  V30 3803 C 351.799 1.34312 -6.18177 0
M  V30 3804 C 350.463 1.21436 -6.56361 0
M  V30 3805 H 349.733 0.493568 -0.552695 0
M  V30 3806 H 352.38 0.665539 -1.79563 0
M  V30 3807 H 350.685 3.24062 -2.20207 0
M  V30 3808 H 352.382 3.08541 -2.56132 0
M  V30 3809 H 348.972 2.19235 -3.68285 0
M  V30 3810 H 353.156 1.85445 -4.60352 0
M  V30 3811 H 348.412 1.41733 -5.94745 0
M  V30 3812 H 352.586 1.08849 -6.87841 0
M  V30 3813 H 350.213 0.864345 -7.5527 0
M  V30 3814 N 351.788 1.33704 0.83433 0
M  V30 3815 C 353.035 1.25417 1.58987 0
M  V30 3816 C 353.363 -0.178869 1.93676 0
M  V30 3817 O 352.618 -1.13723 1.59265 0
M  V30 3818 C 352.917 2.07926 2.90692 0
M  V30 3819 C 352.583 3.57066 2.75345 0
M  V30 3820 C 351.245 3.97724 2.70867 0
M  V30 3821 C 353.597 4.51817 2.59828 0
M  V30 3822 C 350.925 5.31344 2.48778 0
M  V30 3823 C 353.277 5.85604 2.39272 0
M  V30 3824 C 351.941 6.25439 2.33199 0
M  V30 3825 H 351.211 0.458934 0.581774 0
M  V30 3826 H 353.858 1.65335 0.966261 0
M  V30 3827 H 352.163 1.608 3.57282 0
M  V30 3828 H 353.86 1.98868 3.48213 0
M  V30 3829 H 350.45 3.24785 2.79665 0
M  V30 3830 H 354.634 4.21311 2.62319 0
M  V30 3831 H 349.89 5.61241 2.42526 0
M  V30 3832 H 354.064 6.58623 2.2625 0
M  V30 3833 H 351.691 7.28914 2.15843 0
M  V30 3834 N 353.266 -1.05314 1.17247 0
M  V30 3835 C 354.229 -2.112 0.890357 0
M  V30 3836 C 355.229 -1.60359 -0.118943 0
M  V30 3837 O 356.419 -1.73833 0.113086 0
M  V30 3838 C 353.551 -3.39266 0.333422 0
M  V30 3839 H 354.744 -2.37659 1.82916 0
M  V30 3840 H 352.297 -1.21538 0.982758 0
M  V30 3841 H 353.032 -3.18462 -0.612587 0
M  V30 3842 H 352.817 -3.77477 1.06082 0
M  V30 3843 H 354.307 -4.17315 0.154322 0
M  V30 3844 N 354.744 -0.972509 -1.24016 0
M  V30 3845 C 355.674 -0.525548 -2.27509 0
M  V30 3846 C 356.655 0.437262 -1.64384 0
M  V30 3847 O 357.84 0.332343 -1.91335 0
M  V30 3848 C 354.97 0.180448 -3.46831 0
M  V30 3849 C 353.924 -0.698859 -4.22256 0
M  V30 3850 C 353.25 0.138903 -5.3452 0
M  V30 3851 C 354.55 -1.98582 -4.83076 0
M  V30 3852 H 356.244 -1.39058 -2.65148 0
M  V30 3853 H 353.79 -0.67009 -1.27459 0
M  V30 3854 H 355.743 0.504387 -4.18371 0
M  V30 3855 H 354.467 1.07987 -3.08231 0
M  V30 3856 H 353.126 -1.00614 -3.52523 0
M  V30 3857 H 352.774 1.03862 -4.9216 0
M  V30 3858 H 352.474 -0.446259 -5.85903 0
M  V30 3859 H 353.998 0.457404 -6.08884 0
M  V30 3860 H 355.412 -1.72715 -5.46665 0
M  V30 3861 H 353.809 -2.5181 -5.44713 0
M  V30 3862 H 354.879 -2.67769 -4.04262 0
M  V30 3863 N 356.222 1.38976 -0.743202 0
M  V30 3864 C 357.47 1.99948 -0.29417 0
M  V30 3865 C 357.791 1.59279 1.12495 0
M  V30 3866 O 357.061 0.844808 1.76748 0
M  V30 3867 H 355.641 0.739473 -0.105774 0
M  V30 3868 H 358.303 1.699 -0.954986 0
M  V30 3869 H 357.399 3.10142 -0.349056 0
M  V30 3870 N 357.7 0.491464 1.49741 0
M  V30 3871 C 358.647 -0.292027 2.28945 0
M  V30 3872 C 359.617 -0.968973 1.34908 0
M  V30 3873 O 360.802 -0.97748 1.6386 0
M  V30 3874 C 357.942 -1.35617 3.17336 0
M  V30 3875 C 357.055 -0.691957 4.26422 0
M  V30 3876 C 356.19 -1.73572 5.02042 0
M  V30 3877 C 355.229 -1.05286 6.02977 0
M  V30 3878 N 354.366 -2.0404 6.71798 0
M  V30 3879 H 359.206 0.389654 2.95442 0
M  V30 3880 H 356.743 0.204003 1.45679 0
M  V30 3881 H 358.701 -1.98502 3.66951 0
M  V30 3882 H 357.331 -2.00674 2.52844 0
M  V30 3883 H 356.383 0.0499523 3.80367 0
M  V30 3884 H 357.695 -0.153946 4.98562 0
M  V30 3885 H 356.849 -2.43987 5.55478 0
M  V30 3886 H 355.588 -2.30757 4.29654 0
M  V30 3887 H 354.593 -0.334446 5.48782 0
M  V30 3888 H 355.818 -0.487636 6.77347 0
M  V30 3889 H 353.764 -2.60205 6.02187 0
M  V30 3890 H 353.681 -1.55279 7.39881 0
M  V30 3891 H 354.949 -2.73772 7.29842 0
M  V30 3892 N 359.178 -1.55987 0.224894 0
M  V30 3893 C 360.427 -1.97566 -0.406273 0
M  V30 3894 C 360.74 -1.11569 -1.6066 0
M  V30 3895 O 361.946 -1.43062 -2.3075 0
M  V30 3896 C 360.402 -3.51474 -0.774207 0
M  V30 3897 C 360.01 -4.46179 0.403496 0
M  V30 3898 C 361.754 -4.01758 -1.37079 0
M  V30 3899 C 359.661 -5.91399 0.0129412 0
M  V30 3900 H 358.591 -0.737777 -0.155565 0
M  V30 3901 H 361.242 -1.80659 0.321635 0
M  V30 3902 H 359.624 -3.63994 -1.55963 0
M  V30 3903 H 360.798 -4.45409 1.18101 0
M  V30 3904 H 359.113 -4.06255 0.913536 0
M  V30 3905 H 361.71 -5.07756 -1.67596 0
M  V30 3906 H 362.053 -3.47805 -2.28773 0
M  V30 3907 H 362.586 -3.92475 -0.648733 0
M  V30 3908 H 359.325 -6.49341 0.896451 0
M  V30 3909 H 358.845 -5.95356 -0.728821 0
M  V30 3910 H 360.524 -6.45683 -0.412582 0
M  V30 3911 N 360.656 0.0484629 -1.57525 0
M  V30 3912 C 361.586 1.0549 -2.08313 0
M  V30 3913 C 362.567 1.38929 -0.981463 0
M  V30 3914 O 363.752 1.48151 -1.25558 0
M  V30 3915 C 360.882 2.36162 -2.54646 0
M  V30 3916 C 359.836 2.17016 -3.68901 0
M  V30 3917 C 359.162 3.53278 -4.01371 0
M  V30 3918 C 360.462 1.57219 -4.98076 0
M  V30 3919 H 362.156 0.632195 -2.92649 0
M  V30 3920 H 359.702 0.302654 -1.40784 0
M  V30 3921 H 361.655 3.06882 -2.88793 0
M  V30 3922 H 360.379 2.80456 -1.67368 0
M  V30 3923 H 359.038 1.48733 -3.35073 0
M  V30 3924 H 358.686 3.95185 -3.11188 0
M  V30 3925 H 358.386 3.41299 -4.78318 0
M  V30 3926 H 359.91 4.25391 -4.38035 0
M  V30 3927 H 361.324 2.17832 -5.30304 0
M  V30 3928 H 359.721 1.55871 -5.79503 0
M  V30 3929 H 360.791 0.535956 -4.81929 0
M  V30 3930 N 362.134 1.5431 0.320358 0
M  V30 3931 C 363.359 1.76954 1.08175 0
M  V30 3932 C 363.784 0.518193 1.80821 0
M  V30 3933 O 363.142 -0.530411 1.73368 0
M  V30 3934 C 363.19 2.96451 2.05303 0
M  V30 3935 O 362.294 2.68221 3.13259 0
M  V30 3936 H 361.635 0.586275 0.311733 0
M  V30 3937 H 364.165 2.01342 0.363676 0
M  V30 3938 H 364.175 3.23887 2.48116 0
M  V30 3939 H 362.85 3.87196 1.51829 0
M  V30 3940 H 361.427 2.51744 2.75099 0
M  V30 3941 N 363.613 -0.582584 1.46437 0
M  V30 3942 C 364.859 -1.34278 1.51978 0
M  V30 3943 C 365.192 -1.93446 0.170973 0
M  V30 3944 O 364.467 -1.76481 -0.817608 0
M  V30 3945 C 364.75 -2.47203 2.61845 0
M  V30 3946 C 364.603 -1.93069 4.06257 0
M  V30 3947 C 365.922 -3.49247 2.67795 0
M  V30 3948 H 363.041 -0.486876 0.553282 0
M  V30 3949 H 365.683 -0.654437 1.78374 0
M  V30 3950 H 363.833 -3.0592 2.39469 0
M  V30 3951 H 365.505 -1.38808 4.3992 0
M  V30 3952 H 363.748 -1.23898 4.1573 0
M  V30 3953 H 364.419 -2.74586 4.7886 0
M  V30 3954 H 366.895 -3.00411 2.8791 0
M  V30 3955 H 365.771 -4.25719 3.46489 0
M  V30 3956 H 366.032 -4.06482 1.73852 0
M  V30 3957 N 365.091 -1.34144 -0.827227 0
M  V30 3958 C 366.001 -1.27428 -1.96975 0
M  V30 3959 C 367.017 -0.182728 -1.73038 0
M  V30 3960 O 368.193 -0.408426 -1.97215 0
M  V30 3961 C 365.258 -1.02526 -3.31194 0
M  V30 3962 C 364.319 -2.20796 -3.68168 0
M  V30 3963 C 363.552 -1.97073 -4.95982 0
M  V30 3964 O 363.775 -0.926822 -5.6282 0
M  V30 3965 O 362.709 -2.83912 -5.30733 0
M  V30 3966 H 366.535 -2.23537 -2.05584 0
M  V30 3967 H 364.12 -1.14307 -0.961989 0
M  V30 3968 H 366.002 -0.904026 -4.11589 0
M  V30 3969 H 364.677 -0.0945389 -3.23562 0
M  V30 3970 H 363.584 -2.38477 -2.88235 0
M  V30 3971 H 364.917 -3.12243 -3.8048 0
M  V30 3972 N 366.569 1.04691 -1.17803 0
M  V30 3973 C 367.499 2.14494 -0.92275 0
M  V30 3974 C 368.48 1.69546 0.137179 0
M  V30 3975 O 369.665 1.94195 -0.0141108 0
M  V30 3976 C 366.795 3.44491 -0.440803 0
M  V30 3977 C 365.749 4.03031 -1.4405 0
M  V30 3978 C 365.075 5.28432 -0.81631 0
M  V30 3979 C 366.375 4.39932 -2.81527 0
M  V30 3980 H 368.069 2.36107 -1.84103 0
M  V30 3981 H 365.615 1.1347 -0.886599 0
M  V30 3982 H 367.568 4.2066 -0.249602 0
M  V30 3983 H 366.292 3.22546 0.513025 0
M  V30 3984 H 364.951 3.28937 -1.61853 0
M  V30 3985 H 364.599 5.02792 0.144511 0
M  V30 3986 H 364.299 5.68559 -1.48371 0
M  V30 3987 H 365.823 6.07284 -0.635496 0
M  V30 3988 H 367.237 5.07113 -2.67412 0
M  V30 3989 H 365.634 4.9109 -3.44892 0
M  V30 3990 H 366.704 3.50045 -3.35554 0
M  V30 3991 N 368.047 0.979072 1.23499 0
M  V30 3992 C 369.295 0.645941 1.91499 0
M  V30 3993 C 369.616 -0.822948 1.76784 0
M  V30 3994 O 368.886 -1.58854 1.14639 0
M  V30 3995 H 367.466 0.235919 0.708767 0
M  V30 3996 H 370.128 1.2426 1.50152 0
M  V30 3997 H 369.224 0.896411 2.9895 0
M  V30 3998 N 369.525 -1.3858 0.750561 0
M  V30 3999 C 370.472 -2.30483 0.120835 0
M  V30 4000 C 371.442 -1.50022 -0.712923 0
M  V30 4001 O 372.627 -1.78662 -0.669676 0
M  V30 4002 C 369.767 -3.36431 -0.768666 0
M  V30 4003 C 368.88 -4.31927 0.0793922 0
M  V30 4004 C 368.015 -5.24944 -0.81283 0
M  V30 4005 C 367.054 -6.12088 0.0390447 0
M  V30 4006 N 366.191 -6.97412 -0.809969 0
M  V30 4007 H 371.031 -2.83761 0.91015 0
M  V30 4008 H 368.568 -1.39707 0.460463 0
M  V30 4009 H 370.526 -3.96462 -1.29898 0
M  V30 4010 H 369.156 -2.8457 -1.5238 0
M  V30 4011 H 368.208 -3.73382 0.727303 0
M  V30 4012 H 369.52 -4.93319 0.737401 0
M  V30 4013 H 368.674 -5.90078 -1.41042 0
M  V30 4014 H 367.413 -4.63911 -1.50458 0
M  V30 4015 H 366.418 -5.45952 0.649328 0
M  V30 4016 H 367.643 -6.75189 0.727809 0
M  V30 4017 H 365.589 -6.38931 -1.48672 0
M  V30 4018 H 365.506 -7.55712 -0.208789 0
M  V30 4019 H 366.774 -7.66959 -1.39263 0
M  V30 4020 N 371.003 -0.499398 -1.49478 0
M  V30 4021 C 371.935 0.316575 -2.27003 0
M  V30 4022 C 372.948 0.932047 -1.33479 0
M  V30 4023 O 374.137 0.815658 -1.58774 0
M  V30 4024 C 371.237 1.46055 -3.05812 0
M  V30 4025 C 370.41 0.952679 -4.26899 0
M  V30 4026 C 369.469 1.97407 -4.87767 0
M  V30 4027 O 368.495 1.54326 -5.4788 0
M  V30 4028 N 369.697 3.30436 -4.77276 0
M  V30 4029 H 372.462 -0.348168 -2.97671 0
M  V30 4030 H 370.023 -0.33185 -1.58463 0
M  V30 4031 H 372.015 2.14135 -3.43407 0
M  V30 4032 H 370.585 2.02948 -2.37762 0
M  V30 4033 H 369.805 0.0968248 -3.94081 0
M  V30 4034 H 371.093 0.59174 -5.05347 0
M  V30 4035 H 370.491 3.68126 -4.29534 0
M  V30 4036 H 369.048 3.94235 -5.19059 0
M  V30 4037 N 372.481 1.55866 -0.233164 0
M  V30 4038 C 373.428 2.20796 0.67215 0
M  V30 4039 C 374.398 1.16731 1.18166 0
M  V30 4040 O 375.583 1.45129 1.23864 0
M  V30 4041 C 372.723 2.90072 1.86955 0
M  V30 4042 C 371.836 4.08759 1.39786 0
M  V30 4043 C 370.971 4.65787 2.55374 0
M  V30 4044 C 370.01 5.76752 2.04998 0
M  V30 4045 N 369.147 6.28021 3.13901 0
M  V30 4046 H 373.987 2.9779 0.111749 0
M  V30 4047 H 371.524 1.47036 0.0434007 0
M  V30 4048 H 373.482 3.28428 2.57276 0
M  V30 4049 H 372.112 2.15575 2.40265 0
M  V30 4050 H 371.164 3.7581 0.589173 0
M  V30 4051 H 372.476 4.88906 0.98856 0
M  V30 4052 H 371.63 5.06646 3.33758 0
M  V30 4053 H 370.369 3.84828 2.99598 0
M  V30 4054 H 369.374 5.35383 1.25079 0
M  V30 4055 H 370.599 6.59553 1.61759 0
M  V30 4056 H 368.545 5.49971 3.57586 0
M  V30 4057 H 368.462 7.03323 2.7726 0
M  V30 4058 H 369.73 6.73538 3.92386 0
M  V30 4059 N 373.959 -0.0401083 1.57549 0
M  V30 4060 C 374.906 -1.04413 2.05831 0
M  V30 4061 C 375.876 -1.36585 0.945184 0
M  V30 4062 O 377.061 -1.47112 1.21502 0
M  V30 4063 C 374.201 -2.34336 2.53339 0
M  V30 4064 C 373.314 -2.08419 3.78398 0
M  V30 4065 C 372.449 -3.32133 4.14561 0
M  V30 4066 C 371.488 -3.01721 5.3257 0
M  V30 4067 N 370.625 -4.17855 5.64218 0
M  V30 4068 H 375.465 -0.625442 2.91363 0
M  V30 4069 H 373.002 -0.297218 1.44066 0
M  V30 4070 H 374.96 -3.10234 2.78946 0
M  V30 4071 H 373.59 -2.73948 1.7074 0
M  V30 4072 H 372.642 -1.23069 3.59942 0
M  V30 4073 H 373.954 -1.81978 4.64419 0
M  V30 4074 H 373.108 -4.16406 4.41238 0
M  V30 4075 H 371.847 -3.61678 3.2717 0
M  V30 4076 H 370.852 -2.15849 5.05657 0
M  V30 4077 H 372.077 -2.73466 6.21605 0
M  V30 4078 H 370.023 -4.47372 4.79786 0
M  V30 4079 H 369.94 -3.94798 6.44725 0
M  V30 4080 H 371.208 -5.03033 5.95465 0
M  V30 4081 N 375.437 -1.54477 -0.31217 0
M  V30 4082 C 376.384 -1.84655 -1.38461 0
M  V30 4083 C 377.354 -0.694536 -1.50882 0
M  V30 4084 O 378.539 -0.942081 -1.6592 0
M  V30 4085 C 375.679 -2.0896 -2.74645 0
M  V30 4086 C 374.792 -3.36618 -2.70763 0
M  V30 4087 C 373.927 -3.50824 -3.98868 0
M  V30 4088 C 372.966 -4.72315 -3.89339 0
M  V30 4089 N 372.103 -4.83387 -5.09197 0
M  V30 4090 H 376.943 -2.76142 -1.12026 0
M  V30 4091 H 374.48 -1.36748 -0.542065 0
M  V30 4092 H 376.438 -2.21045 -3.53829 0
M  V30 4093 H 375.068 -1.20752 -2.99364 0
M  V30 4094 H 374.12 -3.33211 -1.83506 0
M  V30 4095 H 375.432 -4.25917 -2.59608 0
M  V30 4096 H 374.586 -3.62513 -4.86486 0
M  V30 4097 H 373.325 -2.59638 -4.12843 0
M  V30 4098 H 372.33 -4.6067 -3.00105 0
M  V30 4099 H 373.555 -5.64897 -3.76919 0
M  V30 4100 H 371.501 -3.9512 -5.23657 0
M  V30 4101 H 371.418 -5.66669 -5.00422 0
M  V30 4102 H 372.686 -4.9942 -5.98498 0
M  V30 4103 N 376.915 0.57481 -1.46744 0
M  V30 4104 C 378.145 1.35659 -1.55821 0
M  V30 4105 C 378.553 1.88129 -0.201036 0
M  V30 4106 O 377.896 1.64723 0.813134 0
M  V30 4107 C 377.958 2.57473 -2.50894 0
M  V30 4108 C 377.622 2.26415 -3.9697 0
M  V30 4109 C 378.619 1.84771 -4.85958 0
M  V30 4110 C 376.304 2.38316 -4.42166 0
M  V30 4111 C 378.298 1.55434 -6.18158 0
M  V30 4112 C 375.985 2.08591 -5.74398 0
M  V30 4113 C 376.983 1.67216 -6.62214 0
M  V30 4114 O 376.671 1.37859 -7.91991 0
M  V30 4115 H 376.403 0.420496 -0.529301 0
M  V30 4116 H 378.957 0.704967 -1.92923 0
M  V30 4117 H 377.187 3.25468 -2.08824 0
M  V30 4118 H 378.876 3.19546 -2.50291 0
M  V30 4119 H 379.642 1.75085 -4.52295 0
M  V30 4120 H 375.521 2.69483 -3.74032 0
M  V30 4121 H 379.065 1.23065 -6.86659 0
M  V30 4122 H 374.962 2.17905 -6.07608 0
M  V30 4123 H 375.73 1.51638 -8.04331 0
M  V30 4124 N 378.394 1.34581 0.820102 0
M  V30 4125 C 379.327 1.20735 1.93644 0
M  V30 4126 C 380.305 0.0983343 1.62302 0
M  V30 4127 O 381.489 0.263997 1.86642 0
M  V30 4128 C 378.616 0.856037 3.27704 0
M  V30 4129 C 377.662 1.97521 3.78005 0
M  V30 4130 S 378.495 3.58906 3.97425 0
M  V30 4131 C 379.651 3.25822 5.34407 0
M  V30 4132 H 379.884 2.15231 2.05093 0
M  V30 4133 H 377.417 1.1964 0.97599 0
M  V30 4134 H 379.375 0.660133 4.05157 0
M  V30 4135 H 378.036 -0.0706253 3.14021 0
M  V30 4136 H 377.229 1.68321 4.75062 0
M  V30 4137 H 376.831 2.12875 3.07507 0
M  V30 4138 H 379.123 2.77812 6.17922 0
M  V30 4139 H 380.066 4.22029 5.68592 0
M  V30 4140 H 380.474 2.61932 5.00052 0
M  V30 4141 N 379.872 -1.04064 1.18357 0
M  V30 4142 C 381.283 -1.58719 0.98312 0
M  V30 4143 C 381.634 -1.90556 -0.467193 0
M  V30 4144 O 380.759 -1.69561 -1.34454 0
M  V30 4145 C 381.354 -2.88379 1.77828 0
M  V30 4146 C 379.913 -3.3965 1.62218 0
M  V30 4147 C 379.06 -2.13235 1.77274 0
M  V30 4148 H 382.011 -0.867359 1.32901 0
M  V30 4149 H 382.032 -3.58773 1.26737 0
M  V30 4150 H 381.544 -2.65176 2.83379 0
M  V30 4151 H 379.645 -3.67866 0.592036 0
M  V30 4152 H 379.758 -4.13475 2.42023 0
M  V30 4153 H 378.122 -2.24542 1.20221 0
M  V30 4154 H 378.905 -1.92487 2.8426 0
M  V30 4155 N 381.35 -0.985608 -1.22978 0
M  V30 4156 C 382.58 -0.674603 -1.95276 0
M  V30 4157 C 382.988 0.763483 -1.73111 0
M  V30 4158 O 382.331 1.52601 -1.02268 0
M  V30 4159 C 382.393 -0.891597 -3.48268 0
M  V30 4160 C 382.057 -2.31275 -3.94158 0
M  V30 4161 C 383.054 -3.29179 -4.02415 0
M  V30 4162 C 380.739 -2.64524 -4.27004 0
M  V30 4163 C 382.733 -4.58407 -4.42879 0
M  V30 4164 C 380.42 -3.93974 -4.67149 0
M  V30 4165 C 381.418 -4.90727 -4.75053 0
M  V30 4166 O 381.106 -6.17865 -5.14294 0
M  V30 4167 H 380.838 -0.249251 -0.628371 0
M  V30 4168 H 383.392 -1.32106 -1.5728 0
M  V30 4169 H 381.622 -0.187962 -3.86243 0
M  V30 4170 H 383.311 -0.576957 -4.01779 0
M  V30 4171 H 384.077 -3.04823 -3.77237 0
M  V30 4172 H 379.956 -1.89923 -4.2006 0
M  V30 4173 H 383.5 -5.33926 -4.48964 0
M  V30 4174 H 379.397 -4.18122 -4.91777 0
M  V30 4175 H 380.165 -6.21694 -5.32389 0
M  V30 4176 N 382.828 1.3818 -0.7579 0
M  V30 4177 C 383.776 2.32277 -0.122482 0
M  V30 4178 C 384.77 1.54238 0.700505 0
M  V30 4179 O 385.976 1.69737 0.599119 0
M  V30 4180 H 382.351 0.751712 -0.0208143 0
M  V30 4181 H 384.322 2.83469 -0.932099 0
M  V30 4182 C 383.071 3.39447 0.753076 0
M  V30 4183 H 382.394 3.99591 0.129184 0
M  V30 4184 H 383.834 4.07684 1.16489 0
M  V30 4185 C 382.293 2.78375 1.8976 0
M  V30 4186 O 382.823 2.68025 2.99208 0
M  V30 4187 N 381.029 2.36121 1.69397 0
M  V30 4188 H 380.576 2.4474 0.803762 0
M  V30 4189 H 380.534 1.95602 2.46145 0
M  V30 4190 N 384.306 0.507319 1.49211 0
M  V30 4191 C 385.256 -0.287112 2.26185 0
M  V30 4192 C 386.24 -0.929983 1.31302 0
M  V30 4193 O 387.432 -0.836538 1.55984 0
M  V30 4194 C 384.561 -1.34718 3.15763 0
M  V30 4195 C 383.647 -0.710235 4.18111 0
M  V30 4196 N 384.038 0.190836 5.0544 0
M  V30 4197 C 382.336 -0.97009 4.35322 0
M  V30 4198 C 383.037 0.55606 5.79036 0
M  V30 4199 N 382.013 -0.0775232 5.43545 0
M  V30 4200 H 385.815 0.406445 2.91076 0
M  V30 4201 H 383.329 0.323814 1.59139 0
M  V30 4202 H 385.326 -1.92982 3.69545 0
M  V30 4203 H 383.986 -2.04235 2.52424 0
M  V30 4204 H 384.997 0.562047 5.14841 0
M  V30 4205 H 381.674 -1.65753 3.83187 0
M  V30 4206 H 383.064 1.2936 6.5933 0
M  V30 4207 N 385.784 -1.5574 0.241426 0
M  V30 4208 C 386.716 -2.18469 -0.693091 0
M  V30 4209 C 387.729 -1.15942 -1.14286 0
M  V30 4210 O 388.918 -1.42832 -1.07058 0
M  V30 4211 C 386.018 -2.7696 -1.95311 0
M  V30 4212 C 385.191 -4.04853 -1.65568 0
M  V30 4213 C 384.25 -4.47715 -2.76474 0
M  V30 4214 O 383.276 -5.14205 -2.44094 0
M  V30 4215 N 384.478 -4.15044 -4.05855 0
M  V30 4216 H 387.243 -2.99292 -0.156388 0
M  V30 4217 H 384.804 -1.61784 0.0611752 0
M  V30 4218 H 386.796 -3.02594 -2.68736 0
M  V30 4219 H 385.366 -2.00326 -2.39975 0
M  V30 4220 H 384.586 -3.86865 -0.756886 0
M  V30 4221 H 385.874 -4.88246 -1.43153 0
M  V30 4222 H 385.272 -3.61654 -4.34998 0
M  V30 4223 H 383.829 -4.45526 -4.75762 0
M  V30 4224 N 387.262 0.0317525 -1.57568 0
M  V30 4225 C 388.212 1.04101 -2.02847 0
M  V30 4226 C 389.196 1.3219 -0.917317 0
M  V30 4227 O 390.388 1.31819 -1.18121 0
M  V30 4228 C 387.517 2.34295 -2.5092 0
M  V30 4229 C 386.603 2.09308 -3.68851 0
M  V30 4230 N 386.994 1.5437 -4.81667 0
M  V30 4231 C 385.292 2.39604 -3.76172 0
M  V30 4232 C 385.993 1.45126 -5.63306 0
M  V30 4233 N 384.969 1.92589 -5.08341 0
M  V30 4234 H 388.771 0.610217 -2.87495 0
M  V30 4235 H 386.285 0.238108 -1.60645 0
M  V30 4236 H 388.282 3.07404 -2.81617 0
M  V30 4237 H 386.942 2.78055 -1.67677 0
M  V30 4238 H 387.953 1.22678 -5.03161 0
M  V30 4239 H 384.63 2.86457 -3.03724 0
M  V30 4240 H 386.02 1.03163 -6.63933 0
M  V30 4241 N 388.74 1.54641 0.303973 0
M  V30 4242 C 389.687 1.85386 1.37479 0
M  V30 4243 C 390.657 0.702528 1.50512 0
M  V30 4244 O 391.842 0.950867 1.65418 0
M  V30 4245 C 388.982 2.10413 2.73533 0
M  V30 4246 C 388.095 3.38049 2.68974 0
M  V30 4247 C 387.23 3.52934 3.97002 0
M  V30 4248 C 386.269 4.74373 3.86829 0
M  V30 4249 N 385.406 4.8608 5.06627 0
M  V30 4250 H 390.246 2.76732 1.1056 0
M  V30 4251 H 387.783 1.37034 0.534805 0
M  V30 4252 H 389.741 2.22919 3.52652 0
M  V30 4253 H 388.371 1.22338 2.98719 0
M  V30 4254 H 387.423 3.3418 1.81736 0
M  V30 4255 H 388.735 4.27288 2.57346 0
M  V30 4256 H 387.889 3.65088 4.84557 0
M  V30 4257 H 386.628 2.61824 4.1146 0
M  V30 4258 H 385.633 4.62255 2.97658 0
M  V30 4259 H 386.858 5.66888 3.73918 0
M  V30 4260 H 384.804 3.97891 5.21554 0
M  V30 4261 H 384.721 5.69315 4.9741 0
M  V30 4262 H 385.989 5.02587 5.95841 0
M  V30 4263 N 390.218 -0.567019 1.47046 0
M  V30 4264 C 391.448 -1.34831 1.56538 0
M  V30 4265 C 391.856 -1.8802 0.21101 0
M  V30 4266 O 391.199 -1.65152 -0.804387 0
M  V30 4267 C 391.261 -2.56139 2.52256 0
M  V30 4268 C 390.925 -2.24307 3.98165 0
M  V30 4269 C 391.922 -1.82192 4.86931 0
M  V30 4270 C 389.607 -2.35968 4.43423 0
M  V30 4271 C 391.601 -1.52153 6.18973 0
M  V30 4272 C 389.288 -2.05542 5.75496 0
M  V30 4273 C 390.286 -1.63701 6.63092 0
M  V30 4274 O 389.974 -1.33657 7.92711 0
M  V30 4275 H 389.706 -0.417683 0.531523 0
M  V30 4276 H 392.26 -0.694726 1.93294 0
M  V30 4277 H 390.49 -3.24356 2.10548 0
M  V30 4278 H 392.179 -3.18214 2.51982 0
M  V30 4279 H 392.945 -1.72684 4.53217 0
M  V30 4280 H 388.824 -2.67495 3.75456 0
M  V30 4281 H 392.368 -1.19421 6.87302 0
M  V30 4282 H 388.265 -2.14679 6.08755 0
M  V30 4283 H 389.033 -1.4737 8.05124 0
M  V30 4284 N 391.696 -1.35014 -0.812953 0
M  V30 4285 C 392.943 -1.27931 -1.56971 0
M  V30 4286 C 393.271 0.148034 -1.93936 0
M  V30 4287 O 392.526 1.11175 -1.61054 0
M  V30 4288 C 392.825 -2.12524 -2.87347 0
M  V30 4289 C 392.491 -3.61401 -2.6963 0
M  V30 4290 C 391.153 -4.01983 -2.64506 0
M  V30 4291 C 393.505 -4.55894 -2.52607 0
M  V30 4292 C 390.833 -5.35235 -2.40293 0
M  V30 4293 C 393.185 -5.89336 -2.29925 0
M  V30 4294 C 391.849 -6.2907 -2.23219 0
M  V30 4295 H 391.119 -0.468131 -0.574399 0
M  V30 4296 H 393.766 -1.66851 -0.939836 0
M  V30 4297 H 392.071 -1.66463 -3.54679 0
M  V30 4298 H 393.768 -2.04383 -3.45005 0
M  V30 4299 H 390.358 -3.29193 -2.74463 0
M  V30 4300 H 394.542 -4.25431 -2.55583 0
M  V30 4301 H 389.798 -5.65028 -2.33566 0
M  V30 4302 H 393.972 -6.62139 -2.15743 0
M  V30 4303 H 391.599 -7.32256 -2.04219 0
M  V30 4304 N 393.175 1.03435 -1.18907 0
M  V30 4305 C 394.422 1.76743 -0.988334 0
M  V30 4306 C 394.75 1.88447 0.481441 0
M  V30 4307 O 394.005 1.39383 1.37371 0
M  V30 4308 C 394.304 3.19792 -1.59586 0
M  V30 4309 C 393.97 3.28108 -3.09283 0
M  V30 4310 C 392.632 3.30084 -3.5014 0
M  V30 4311 C 394.984 3.27696 -4.05296 0
M  V30 4312 C 392.312 3.29299 -4.85571 0
M  V30 4313 C 394.664 3.28451 -5.4065 0
M  V30 4314 C 393.328 3.28723 -5.80946 0
M  V30 4315 H 392.598 0.64675 -0.361657 0
M  V30 4316 H 395.245 1.21442 -1.48068 0
M  V30 4317 H 393.55 3.78136 -1.02568 0
M  V30 4318 H 395.247 3.75171 -1.41589 0
M  V30 4319 H 391.837 3.27294 -2.76725 0
M  V30 4320 H 396.021 3.25354 -3.74778 0
M  V30 4321 H 391.277 3.2783 -5.16079 0
M  V30 4322 H 395.451 3.27082 -6.14809 0
M  V30 4323 H 393.078 3.27868 -6.85862 0
M  V30 4324 N 394.653 0.992116 1.22453 0
M  V30 4325 C 395.583 0.561677 2.26644 0
M  V30 4326 C 396.564 -0.411055 1.65059 0
M  V30 4327 O 397.749 -0.301861 1.9184 0
M  V30 4328 C 394.879 -0.125247 3.47074 0
M  V30 4329 C 393.833 0.765948 4.21091 0
M  V30 4330 C 393.159 -0.0538484 5.34673 0
M  V30 4331 C 394.459 2.06242 4.79856 0
M  V30 4332 H 396.153 1.43259 2.62902 0
M  V30 4333 H 393.699 0.690283 1.26377 0
M  V30 4334 H 395.652 -0.437764 4.1912 0
M  V30 4335 H 394.376 -1.03069 3.0991 0
M  V30 4336 H 393.035 1.0621 3.50878 0
M  V30 4337 H 392.683 -0.960188 4.9375 0
M  V30 4338 H 392.383 0.539415 5.85119 0
M  V30 4339 H 393.907 -0.360477 6.09535 0
M  V30 4340 H 395.321 1.8139 5.43848 0
M  V30 4341 H 393.718 2.60444 5.40638 0
M  V30 4342 H 394.788 2.74167 3.99951 0
M  V30 4343 N 396.131 -1.37776 0.765217 0
M  V30 4344 C 397.38 -1.99092 0.323307 0
M  V30 4345 C 397.693 -1.61434 -1.10446 0
M  V30 4346 O 398.899 -2.15805 -1.64743 0
M  V30 4347 C 397.355 -3.56019 0.527098 0
M  V30 4348 C 396.963 -4.0262 1.96471 0
M  V30 4349 C 398.707 -4.2424 0.148483 0
M  V30 4350 C 396.614 -5.52233 2.11644 0
M  V30 4351 H 395.544 -0.744846 0.117137 0
M  V30 4352 H 398.195 -1.57391 0.943417 0
M  V30 4353 H 396.577 -3.95667 -0.162372 0
M  V30 4354 H 397.751 -3.74234 2.68859 0
M  V30 4355 H 396.066 -3.47161 2.29931 0
M  V30 4356 H 398.663 -5.34159 0.240456 0
M  V30 4357 H 399.006 -4.06446 -0.900422 0
M  V30 4358 H 399.539 -3.89872 0.79025 0
M  V30 4359 H 396.278 -5.74945 3.1483 0
M  V30 4360 H 395.798 -5.82324 1.4373 0
M  V30 4361 H 397.477 -6.18106 1.91193 0
M  V30 4362 N 397.609 -0.515225 -1.4894 0
M  V30 4363 C 398.857 0.0241671 -2.02086 0
M  V30 4364 C 399.178 1.3616 -1.3959 0
M  V30 4365 O 398.448 1.87841 -0.556121 0
M  V30 4366 H 397.028 0.0119203 -0.746905 0
M  V30 4367 H 399.69 -0.675702 -1.82812 0
M  V30 4368 H 398.786 0.143385 -3.1177 0
M  V30 4369 N 399.087 1.5561 -0.249682 0
M  V30 4370 C 400.498 1.84979 0.252949 0
M  V30 4371 C 400.849 1.17153 1.57384 0
M  V30 4372 O 399.974 0.450884 2.11651 0
M  V30 4373 C 400.569 3.35584 0.465732 0
M  V30 4374 C 399.128 3.65169 0.912624 0
M  V30 4375 C 398.275 2.77299 -0.00859085 0
M  V30 4376 H 401.226 1.51513 -0.47217 0
M  V30 4377 H 401.247 3.57313 1.30795 0
M  V30 4378 H 400.759 3.8492 -0.49579 0
M  V30 4379 H 398.86 3.21312 1.88652 0
M  V30 4380 H 398.973 4.72912 0.767559 0
M  V30 4381 H 397.337 2.49678 0.50327 0
M  V30 4382 H 398.12 3.29442 -0.965537 0
M  V30 4383 N 400.565 -0.0233959 1.57583 0
M  V30 4384 C 401.976 -0.56927 1.77809 0
M  V30 4385 C 402.327 -1.75284 0.881472 0
M  V30 4386 O 401.452 -2.1626 0.0777805 0
M  V30 4387 C 402.047 -1.03949 3.22459 0
M  V30 4388 C 400.606 -1.53084 3.43864 0
M  V30 4389 C 399.753 -0.471454 2.73263 0
M  V30 4390 H 402.704 0.202825 1.57399 0
M  V30 4391 H 402.725 -1.90661 3.29285 0
M  V30 4392 H 402.237 -0.177865 3.87692 0
M  V30 4393 H 400.338 -2.41414 2.83814 0
M  V30 4394 H 400.451 -1.57443 4.52491 0
M  V30 4395 H 398.815 -0.927788 2.37201 0
M  V30 4396 H 399.598 0.380808 3.41181 0
M  V30 4397 N 402.043 -1.548 -0.295768 0
M  V30 4398 C 403.006 -1.85363 -1.34808 0
M  V30 4399 C 404.006 -0.726817 -1.43436 0
M  V30 4400 O 405.196 -0.995088 -1.42981 0
M  V30 4401 C 402.328 -2.03859 -2.73229 0
M  V30 4402 H 403.521 -2.7941 -1.08949 0
M  V30 4403 H 401.074 -1.46942 -0.532702 0
M  V30 4404 H 401.809 -1.12117 -3.04303 0
M  V30 4405 H 401.594 -2.8588 -2.68356 0
M  V30 4406 H 403.084 -2.28857 -3.49305 0
M  V30 4407 N 403.521 0.559213 -1.47345 0
M  V30 4408 C 404.451 1.67622 -1.62558 0
M  V30 4409 C 405.432 1.63331 -0.475087 0
M  V30 4410 O 406.617 1.80983 -0.704182 0
M  V30 4411 C 403.747 3.0626 -1.63774 0
M  V30 4412 C 402.701 3.25397 -2.7803 0
M  V30 4413 C 402.027 4.64801 -2.64318 0
M  V30 4414 C 403.327 3.10965 -4.19641 0
M  V30 4415 H 405.021 1.55146 -2.56067 0
M  V30 4416 H 402.567 0.744961 -1.23233 0
M  V30 4417 H 404.52 3.84247 -1.73008 0
M  V30 4418 H 403.244 3.1969 -0.66825 0
M  V30 4419 H 401.903 2.49817 -2.68304 0
M  V30 4420 H 401.551 4.75028 -1.65401 0
M  V30 4421 H 401.251 4.78555 -3.40968 0
M  V30 4422 H 402.775 5.44926 -2.75478 0
M  V30 4423 H 404.189 3.78772 -4.30354 0
M  V30 4424 H 402.586 3.36229 -4.97062 0
M  V30 4425 H 403.656 2.07736 -4.38148 0
M  V30 4426 N 404.999 1.35443 0.805782 0
M  V30 4427 C 405.929 1.31095 1.93226 0
M  V30 4428 C 406.91 0.185244 1.69088 0
M  V30 4429 O 408.095 0.380332 1.90439 0
M  V30 4430 C 405.225 1.08299 3.29983 0
M  V30 4431 C 404.179 2.17519 3.68605 0
M  V30 4432 C 403.505 1.79887 5.03532 0
M  V30 4433 C 404.805 3.5949 3.78898 0
M  V30 4434 H 406.499 2.25352 1.97122 0
M  V30 4435 H 404.045 1.0848 0.946996 0
M  V30 4436 H 405.998 1.03897 4.08391 0
M  V30 4437 H 404.722 0.104885 3.26432 0
M  V30 4438 H 403.381 2.2102 2.92482 0
M  V30 4439 H 403.029 0.80693 4.96485 0
M  V30 4440 H 402.729 2.53001 5.30344 0
M  V30 4441 H 404.253 1.77011 5.84379 0
M  V30 4442 H 405.667 3.58307 4.47536 0
M  V30 4443 H 404.064 4.31371 4.1718 0
M  V30 4444 H 405.134 3.95584 2.80431 0
M  V30 4445 N 406.477 -1.02803 1.19454 0
M  V30 4446 C 407.888 -1.57667 0.999899 0
M  V30 4447 C 408.239 -1.91041 -0.446956 0
M  V30 4448 O 407.364 -1.70978 -1.32648 0
M  V30 4449 C 407.959 -2.86477 1.80877 0
M  V30 4450 C 406.518 -3.37911 1.65811 0
M  V30 4451 C 405.665 -2.11343 1.79526 0
M  V30 4452 H 408.616 -0.853214 1.33813 0
M  V30 4453 H 408.637 -3.57408 1.30536 0
M  V30 4454 H 408.149 -2.62155 2.86175 0
M  V30 4455 H 406.25 -3.67218 0.63102 0
M  V30 4456 H 406.363 -4.10885 2.46395 0
M  V30 4457 H 404.727 -2.23254 1.22596 0
M  V30 4458 H 405.51 -1.89461 2.86285 0
M  V30 4459 N 407.956 -0.998596 -1.21925 0
M  V30 4460 C 408.886 -0.573688 -2.26343 0
M  V30 4461 C 409.867 0.402296 -1.65274 0
M  V30 4462 O 411.052 0.291683 -1.91997 0
M  V30 4463 C 408.182 0.106839 -3.47136 0
M  V30 4464 C 407.136 -0.788269 -4.20678 0
M  V30 4465 C 406.462 0.0254927 -5.34694 0
M  V30 4466 C 407.762 -2.08784 -4.78755 0
M  V30 4467 H 409.456 -1.44651 -2.62138 0
M  V30 4468 H 407.002 -0.696975 -1.26009 0
M  V30 4469 H 408.955 0.415531 -4.19346 0
M  V30 4470 H 407.679 1.01424 -3.10452 0
M  V30 4471 H 406.338 -1.08069 -3.50309 0
M  V30 4472 H 405.986 0.933989 -4.94253 0
M  V30 4473 H 405.686 -0.570437 -5.84825 0
M  V30 4474 H 407.21 0.328147 -6.09718 0
M  V30 4475 H 408.624 -1.84272 -5.42878 0
M  V30 4476 H 407.021 -2.63307 -5.39249 0
M  V30 4477 H 408.091 -2.76284 -3.98491 0
M  V30 4478 N 409.434 1.37368 -0.772513 0
M  V30 4479 C 410.664 2.03647 -0.348082 0
M  V30 4480 C 411.072 1.58392 1.03482 0
M  V30 4481 O 410.415 0.760921 1.672 0
M  V30 4482 C 410.477 3.58131 -0.313404 0
M  V30 4483 C 410.141 4.2652 -1.64102 0
M  V30 4484 C 411.138 4.50587 -2.5936 0
M  V30 4485 C 408.823 4.64335 -1.91567 0
M  V30 4486 C 410.817 5.11526 -3.80289 0
M  V30 4487 C 408.504 5.24996 -3.12766 0
M  V30 4488 C 409.502 5.48529 -4.06946 0
M  V30 4489 O 409.19 6.07921 -5.26011 0
M  V30 4490 H 408.922 0.660538 -0.143753 0
M  V30 4491 H 411.476 1.76669 -1.04772 0
M  V30 4492 H 409.706 3.84159 0.442617 0
M  V30 4493 H 411.395 4.05813 0.0840613 0
M  V30 4494 H 412.161 4.21784 -2.39423 0
M  V30 4495 H 408.04 4.45353 -1.19088 0
M  V30 4496 H 411.584 5.29811 -4.53813 0
M  V30 4497 H 407.481 5.53223 -3.32588 0
M  V30 4498 H 408.249 6.26398 -5.26847 0
M  V30 4499 N 410.912 0.523116 1.48665 0
M  V30 4500 C 412.159 -0.0134763 2.02496 0
M  V30 4501 C 412.487 -1.3493 1.40086 0
M  V30 4502 O 411.742 -1.88286 0.533567 0
M  V30 4503 C 412.041 -0.191671 3.56886 0
M  V30 4504 C 411.707 1.06893 4.38046 0
M  V30 4505 C 410.369 1.41443 4.59943 0
M  V30 4506 C 412.721 1.90584 4.85106 0
M  V30 4507 C 410.049 2.59594 5.26144 0
M  V30 4508 C 412.401 3.07907 5.52609 0
M  V30 4509 C 411.065 3.42811 5.72745 0
M  V30 4510 H 410.335 -0.00493133 0.740984 0
M  V30 4511 H 412.982 0.687751 1.78724 0
M  V30 4512 H 411.287 -0.97561 3.79459 0
M  V30 4513 H 412.984 -0.621659 3.96152 0
M  V30 4514 H 409.574 0.789848 4.21259 0
M  V30 4515 H 413.758 1.65203 4.67997 0
M  V30 4516 H 409.014 2.86847 5.39934 0
M  V30 4517 H 413.188 3.73066 5.88043 0
M  V30 4518 H 410.815 4.34462 6.23816 0
M  V30 4519 N 412.39 -1.55475 0.257931 0
M  V30 4520 C 413.322 -2.19192 -0.669881 0
M  V30 4521 C 414.335 -1.17148 -1.1305 0
M  V30 4522 O 415.524 -1.43959 -1.05537 0
M  V30 4523 C 412.624 -2.79016 -1.92363 0
M  V30 4524 C 411.797 -4.06586 -1.61265 0
M  V30 4525 C 410.856 -4.50622 -2.7171 0
M  V30 4526 O 409.882 -5.16765 -2.38627 0
M  V30 4527 N 411.084 -4.19325 -4.01431 0
M  V30 4528 H 413.849 -2.99441 -0.124635 0
M  V30 4529 H 411.41 -1.6171 0.0783311 0
M  V30 4530 H 413.402 -3.05427 -2.65511 0
M  V30 4531 H 411.972 -2.0286 -2.37837 0
M  V30 4532 H 411.192 -3.87646 -0.715811 0
M  V30 4533 H 412.48 -4.89737 -1.37967 0
M  V30 4534 H 411.878 -3.66247 -4.31138 0
M  V30 4535 H 410.435 -4.50547 -4.7101 0
M  V30 4536 N 413.868 0.0150385 -1.57593 0
M  V30 4537 C 415.114 0.69849 -1.91031 0
M  V30 4538 C 415.469 1.72208 -0.85804 0
M  V30 4539 O 414.762 1.91147 0.131614 0
M  V30 4540 C 414.956 1.39686 -3.28972 0
M  V30 4541 C 414.785 0.442428 -4.47518 0
M  V30 4542 C 413.555 0.0583223 -5.05266 0
M  V30 4543 C 415.753 -0.285072 -5.13509 0
M  V30 4544 N 413.735 -0.895893 -6.07328 0
M  V30 4545 C 415.106 -1.09447 -6.10263 0
M  V30 4546 C 417.161 -0.350518 -4.96665 0
M  V30 4547 C 415.864 -1.96333 -6.91987 0
M  V30 4548 C 417.89 -1.20655 -5.78962 0
M  V30 4549 C 417.252 -2.00383 -6.75297 0
M  V30 4550 H 413.351 0.22926 -0.747639 0
M  V30 4551 H 415.935 -0.0417748 -1.94655 0
M  V30 4552 H 414.106 2.1075 -3.2625 0
M  V30 4553 H 415.838 2.03381 -3.49883 0
M  V30 4554 H 412.593 0.423506 -4.71703 0
M  V30 4555 H 413.017 -1.36792 -6.63036 0
M  V30 4556 H 417.659 0.251596 -4.22051 0
M  V30 4557 H 415.377 -2.57618 -7.65936 0
M  V30 4558 H 418.963 -1.2609 -5.67972 0
M  V30 4559 H 417.843 -2.65552 -7.3787 0
M  V30 4560 N 415.346 1.54954 0.287554 0
M  V30 4561 C 416.576 1.78622 1.03816 0
M  V30 4562 C 416.984 0.552451 1.80955 0
M  V30 4563 O 416.327 -0.487665 1.77109 0
M  V30 4564 C 416.389 2.94975 2.055 0
M  V30 4565 C 416.053 4.32565 1.47433 0
M  V30 4566 C 417.05 5.12096 0.897436 0
M  V30 4567 C 414.735 4.79195 1.50591 0
M  V30 4568 C 416.729 6.36383 0.359851 0
M  V30 4569 C 414.416 6.03441 0.964459 0
M  V30 4570 C 415.414 6.81872 0.392413 0
M  V30 4571 O 415.102 8.03777 -0.140788 0
M  V30 4572 H 414.834 0.599144 0.313053 0
M  V30 4573 H 417.388 2.02761 0.328225 0
M  V30 4574 H 415.618 2.66493 2.80211 0
M  V30 4575 H 417.307 3.06097 2.6657 0
M  V30 4576 H 418.073 4.77209 0.865841 0
M  V30 4577 H 413.952 4.18167 1.94055 0
M  V30 4578 H 417.496 6.97545 -0.0872951 0
M  V30 4579 H 413.393 6.37813 0.993246 0
M  V30 4580 H 414.161 8.18495 -0.0287617 0
M  V30 4581 N 416.824 -0.551391 1.4764 0
M  V30 4582 C 418.073 -1.30467 1.53822 0
M  V30 4583 C 418.386 -1.94495 0.207661 0
M  V30 4584 O 419.592 -2.71099 0.147533 0
M  V30 4585 C 418.048 -2.36616 2.71184 0
M  V30 4586 C 417.656 -1.78754 4.10793 0
M  V30 4587 C 419.4 -3.13088 2.86663 0
M  V30 4588 C 417.307 -2.82717 5.19447 0
M  V30 4589 H 416.237 -0.490584 0.572576 0
M  V30 4590 H 418.888 -0.58494 1.73927 0
M  V30 4591 H 417.27 -3.11529 2.4447 0
M  V30 4592 H 418.444 -1.10173 4.47435 0
M  V30 4593 H 416.759 -1.14846 4.00249 0
M  V30 4594 H 419.356 -3.90736 3.65007 0
M  V30 4595 H 419.699 -3.67635 1.95321 0
M  V30 4596 H 420.232 -2.45288 3.13175 0
M  V30 4597 H 416.971 -2.33018 6.12685 0
M  V30 4598 H 416.491 -3.4969 4.87316 0
M  V30 4599 H 418.17 -3.46102 5.46646 0
M  V30 4600 N 418.302 -1.35869 -0.798587 0
M  V30 4601 C 419.549 -1.29588 -1.55606 0
M  V30 4602 C 419.877 0.127456 -1.94082 0
M  V30 4603 O 419.132 1.09461 -1.62225 0
M  V30 4604 C 419.431 -2.1556 -2.85077 0
M  V30 4605 C 419.097 -3.6424 -2.65781 0
M  V30 4606 C 417.759 -4.04766 -2.60227 0
M  V30 4607 C 420.111 -4.58547 -2.47758 0
M  V30 4608 C 417.439 -5.37753 -2.34603 0
M  V30 4609 C 419.791 -5.91742 -2.23662 0
M  V30 4610 C 418.455 -6.31402 -2.16534 0
M  V30 4611 H 417.725 -0.474197 -0.569402 0
M  V30 4612 H 420.372 -1.67839 -0.922086 0
M  V30 4613 H 418.677 -1.70216 -3.52893 0
M  V30 4614 H 420.374 -2.08031 -3.42818 0
M  V30 4615 H 416.964 -3.32086 -2.70956 0
M  V30 4616 H 421.148 -4.28117 -2.51056 0
M  V30 4617 H 416.404 -5.67474 -2.2756 0
M  V30 4618 H 420.578 -6.6439 -2.08708 0
M  V30 4619 H 418.205 -7.34381 -1.96441 0
M  V30 4620 N 419.78 1.02168 -1.19998 0
M  V30 4621 C 421.01 1.79036 -1.031 0
M  V30 4622 C 421.418 1.84409 0.423078 0
M  V30 4623 O 420.761 1.29228 1.30559 0
M  V30 4624 C 420.823 3.25185 -1.53281 0
M  V30 4625 C 420.487 3.43431 -3.01503 0
M  V30 4626 C 421.484 3.33063 -3.99206 0
M  V30 4627 C 419.169 3.69412 -3.40353 0
M  V30 4628 C 421.163 3.48413 -5.33748 0
M  V30 4629 C 418.85 3.84406 -4.75053 0
M  V30 4630 C 419.848 3.7391 -5.71559 0
M  V30 4631 O 419.536 3.88452 -7.03818 0
M  V30 4632 H 419.268 0.570043 -0.363355 0
M  V30 4633 H 421.822 1.29524 -1.59414 0
M  V30 4634 H 420.052 3.75756 -0.913483 0
M  V30 4635 H 421.741 3.83671 -1.32481 0
M  V30 4636 H 422.507 3.12934 -3.70537 0
M  V30 4637 H 418.386 3.76671 -2.65782 0
M  V30 4638 H 421.93 3.40137 -6.09059 0
M  V30 4639 H 417.827 4.04035 -5.03415 0
M  V30 4640 H 418.595 4.055 -7.10993 0
M  V30 4641 N 421.258 1.00505 1.21394 0
M  V30 4642 C 422.505 0.687774 1.90462 0
M  V30 4643 C 422.833 -0.78147 1.7811 0
M  V30 4644 O 422.088 -1.58208 1.1519 0
M  V30 4645 C 422.387 1.0546 3.41486 0
M  V30 4646 C 422.053 2.51812 3.74034 0
M  V30 4647 C 420.715 2.91804 3.82628 0
M  V30 4648 C 423.067 3.46614 3.8924 0
M  V30 4649 C 420.395 4.2556 4.03876 0
M  V30 4650 C 422.747 4.80044 4.11995 0
M  V30 4651 C 421.411 5.19759 4.18816 0
M  V30 4652 H 420.681 0.251674 0.696951 0
M  V30 4653 H 423.328 1.26349 1.43903 0
M  V30 4654 H 421.633 0.397133 3.89782 0
M  V30 4655 H 423.33 0.786976 3.93202 0
M  V30 4656 H 419.92 2.1982 3.67936 0
M  V30 4657 H 424.104 3.16883 3.81967 0
M  V30 4658 H 419.36 4.55901 4.07387 0
M  V30 4659 H 423.534 5.53439 4.22704 0
M  V30 4660 H 421.161 6.23418 4.35033 0
M  V30 4661 N 422.737 -1.36956 0.779787 0
M  V30 4662 C 423.983 -1.99787 0.348281 0
M  V30 4663 C 424.316 -1.61756 -1.07465 0
M  V30 4664 O 423.591 -0.867639 -1.74075 0
M  V30 4665 C 423.874 -3.56597 0.50104 0
M  V30 4666 C 423.727 -4.04513 1.96697 0
M  V30 4667 C 425.046 -4.40008 -0.0898097 0
M  V30 4668 H 422.165 -0.725796 0.128022 0
M  V30 4669 H 424.807 -1.62514 0.984331 0
M  V30 4670 H 422.957 -3.88479 -0.0404347 0
M  V30 4671 H 424.629 -3.83161 2.56876 0
M  V30 4672 H 422.872 -3.56408 2.47297 0
M  V30 4673 H 423.543 -5.1352 2.02486 0
M  V30 4674 H 426.019 -4.14431 0.372293 0
M  V30 4675 H 424.895 -5.4888 0.0471605 0
M  V30 4676 H 425.156 -4.26035 -1.18096 0
M  V30 4677 N 424.215 -0.530993 -1.48385 0
M  V30 4678 C 425.464 0.00474348 -2.01699 0
M  V30 4679 C 425.777 1.35227 -1.41325 0
M  V30 4680 O 426.983 1.97643 -1.86144 0
M  V30 4681 C 425.439 0.0588473 -3.59852 0
M  V30 4682 C 425.047 -1.28385 -4.2921 0
M  V30 4683 C 426.791 0.543358 -4.21008 0
M  V30 4684 C 424.698 -1.19028 -5.79298 0
M  V30 4685 H 423.628 0.00554317 -0.75398 0
M  V30 4686 H 426.279 -0.674924 -1.70637 0
M  V30 4687 H 424.661 0.803612 -3.8776 0
M  V30 4688 H 425.835 -2.04426 -4.12973 0
M  V30 4689 H 424.15 -1.70418 -3.7993 0
M  V30 4690 H 426.747 0.631351 -5.3096 0
M  V30 4691 H 427.09 1.54937 -3.86394 0
M  V30 4692 H 427.623 -0.145754 -3.97533 0
M  V30 4693 H 424.362 -2.17147 -6.18488 0
M  V30 4694 H 423.882 -0.471246 -5.97946 0
M  V30 4695 H 425.561 -0.881365 -6.40969 0
M  V30 4696 N 425.693 1.55336 -0.266172 0
M  V30 4697 C 426.625 2.19544 0.658247 0
M  V30 4698 C 427.638 1.17746 1.12427 0
M  V30 4699 O 428.827 1.44517 1.04772 0
M  V30 4700 C 425.927 2.80032 1.9088 0
M  V30 4701 C 425.1 4.07436 1.59106 0
M  V30 4702 C 424.159 4.52056 2.69317 0
M  V30 4703 O 423.185 5.18023 2.35883 0
M  V30 4704 N 424.387 4.21448 3.99201 0
M  V30 4705 H 427.152 2.99503 0.108754 0
M  V30 4706 H 424.713 1.61667 -0.0869059 0
M  V30 4707 H 426.705 3.06831 2.63888 0
M  V30 4708 H 425.275 2.04119 2.36758 0
M  V30 4709 H 424.495 3.88021 0.695243 0
M  V30 4710 H 425.783 4.90462 1.35367 0
M  V30 4711 H 425.181 3.68528 4.29189 0
M  V30 4712 H 423.738 4.53039 4.68614 0
M  V30 4713 N 427.171 -0.0066808 1.57599 0
M  V30 4714 C 428.587 -0.36267 1.55425 0
M  V30 4715 C 428.787 -1.75209 0.995187 0
M  V30 4716 O 427.843 -2.44616 0.626058 0
M  V30 4717 C 429.156 -0.244017 2.99708 0
M  V30 4718 C 430.704 -0.319451 3.11366 0
M  V30 4719 C 431.179 -0.229998 4.57422 0
M  V30 4720 N 432.67 -0.288105 4.62303 0
M  V30 4721 C 433.405 -0.242127 5.72889 0
M  V30 4722 N 432.901 -0.147133 6.92644 0
M  V30 4723 N 434.694 -0.293502 5.61333 0
M  V30 4724 H 426.845 0.902314 1.92281 0
M  V30 4725 H 429.108 0.34525 0.882896 0
M  V30 4726 H 428.814 0.711678 3.44424 0
M  V30 4727 H 428.688 -1.02877 3.629 0
M  V30 4728 H 431.075 -1.26559 2.66584 0
M  V30 4729 H 431.156 0.495055 2.50964 0
M  V30 4730 H 430.8 0.712566 5.02877 0
M  V30 4731 H 430.73 -1.0629 5.15761 0
M  V30 4732 H 433.221 -0.363126 3.76151 0
M  V30 4733 H 433.534 -0.117763 7.7271 0
M  V30 4734 H 431.879 -0.112857 6.94908 0
M  V30 4735 H 435.07 -0.365864 4.66668 0
M  V30 4736 H 435.243 -0.254204 6.47501 0
M  V30 4737 N 428.649 -1.55105 -0.279332 0
M  V30 4738 C 429.596 -1.8755 -1.34513 0
M  V30 4739 C 430.566 -0.726384 -1.49375 0
M  V30 4740 O 431.751 -0.977063 -1.63884 0
M  V30 4741 C 428.891 -2.14738 -2.70151 0
M  V30 4742 C 428.004 -3.42285 -2.63562 0
M  V30 4743 C 427.139 -3.59206 -3.91337 0
M  V30 4744 C 426.178 -4.80467 -3.79233 0
M  V30 4745 N 425.315 -4.94079 -4.98829 0
M  V30 4746 H 430.155 -2.78456 -1.06143 0
M  V30 4747 H 427.692 -1.37867 -0.512936 0
M  V30 4748 H 429.65 -2.28501 -3.49061 0
M  V30 4749 H 428.28 -1.27075 -2.96735 0
M  V30 4750 H 427.332 -3.37029 -1.76397 0
M  V30 4751 H 428.644 -4.31328 -2.50515 0
M  V30 4752 H 427.798 -3.72751 -4.78687 0
M  V30 4753 H 426.537 -2.68337 -4.07243 0
M  V30 4754 H 425.542 -4.66932 -2.90266 0
M  V30 4755 H 426.767 -5.72765 -3.64852 0
M  V30 4756 H 424.713 -4.06139 -5.15158 0
M  V30 4757 H 424.63 -5.77156 -4.8829 0
M  V30 4758 H 425.898 -5.12003 -5.8777 0
M  V30 4759 N 430.127 0.543554 -1.4793 0
M  V30 4760 C 431.074 1.64942 -1.6144 0
M  V30 4761 C 432.044 1.59692 -0.456903 0
M  V30 4762 O 433.229 1.78321 -0.678688 0
M  V30 4763 C 430.369 3.03238 -1.64744 0
M  V30 4764 C 429.482 3.18823 -2.91506 0
M  V30 4765 C 428.617 4.47599 -2.86057 0
M  V30 4766 C 427.656 4.56664 -4.07584 0
M  V30 4767 N 426.793 5.76811 -4.00292 0
M  V30 4768 H 431.633 1.52733 -2.55884 0
M  V30 4769 H 429.17 0.7438 -1.2691 0
M  V30 4770 H 431.128 3.83339 -1.64641 0
M  V30 4771 H 429.758 3.1425 -0.738017 0
M  V30 4772 H 428.81 2.32064 -3.01414 0
M  V30 4773 H 430.122 3.21384 -3.81463 0
M  V30 4774 H 429.276 5.35975 -2.84281 0
M  V30 4775 H 428.015 4.47538 -1.93807 0
M  V30 4776 H 427.02 3.66697 -4.09651 0
M  V30 4777 H 428.245 4.58474 -5.00978 0
M  V30 4778 H 426.191 5.77673 -3.10853 0
M  V30 4779 H 426.108 5.80808 -4.8394 0
M  V30 4780 H 427.376 6.67512 -4.02553 0
M  V30 4781 N 431.605 1.3629 0.791371 0
M  V30 4782 C 432.851 1.31613 1.5508 0
M  V30 4783 C 433.206 -0.104372 1.92117 0
M  V30 4784 O 432.499 -1.05845 1.5971 0
M  V30 4785 C 432.693 2.17068 2.8393 0
M  V30 4786 C 432.522 3.67285 2.59484 0
M  V30 4787 C 431.292 4.36469 2.54604 0
M  V30 4788 C 433.49 4.60595 2.28816 0
M  V30 4789 N 431.472 5.7234 2.22036 0
M  V30 4790 C 432.843 5.847 2.06218 0
M  V30 4791 C 434.898 4.4918 2.14806 0
M  V30 4792 C 433.601 6.98671 1.71028 0
M  V30 4793 C 435.627 5.63017 1.81014 0
M  V30 4794 C 434.989 6.86159 1.59263 0
M  V30 4795 H 431.088 0.536878 0.568582 0
M  V30 4796 H 433.672 1.71323 0.925007 0
M  V30 4797 H 431.843 1.79605 3.44378 0
M  V30 4798 H 433.575 2.03795 3.49642 0
M  V30 4799 H 430.33 3.89249 2.69782 0
M  V30 4800 H 430.754 6.44093 2.08503 0
M  V30 4801 H 435.396 3.54564 2.30313 0
M  V30 4802 H 433.114 7.9324 1.54259 0
M  V30 4803 H 436.7 5.56146 1.70861 0
M  V30 4804 H 435.58 7.72753 1.335 0
M  V30 4805 N 433.083 -1.0153 1.20538 0
M  V30 4806 C 434.329 -1.75408 1.01783 0
M  V30 4807 C 434.662 -1.88943 -0.448814 0
M  V30 4808 O 433.937 -1.4162 -1.33319 0
M  V30 4809 C 434.22 -3.17255 1.70356 0
M  V30 4810 C 434.073 -3.11508 3.24473 0
M  V30 4811 C 435.392 -4.15955 1.43769 0
M  V30 4812 H 432.511 -0.636713 0.371167 0
M  V30 4813 H 435.153 -1.18436 1.4857 0
M  V30 4814 H 433.303 -3.65898 1.30578 0
M  V30 4815 H 434.975 -2.70658 3.73553 0
M  V30 4816 H 433.218 -2.4887 3.55311 0
M  V30 4817 H 433.889 -4.11784 3.67611 0
M  V30 4818 H 436.365 -3.75973 1.7828 0
M  V30 4819 H 435.241 -5.13368 1.94279 0
M  V30 4820 H 435.502 -4.40586 0.365564 0
M  V30 4821 N 434.561 -1.01147 -1.20859 0
M  V30 4822 C 435.838 -0.613136 -1.85742 0
M  V30 4823 C 436.218 0.909004 -1.90526 0
M  V30 4824 O 435.566 1.79862 -1.40932 0
M  V30 4825 C 435.776 -1.255 -3.25654 0
M  V30 4826 C 437.124 -1.3672 -4.01986 0
M  V30 4827 O 438.148 -1.21082 -3.34989 0
M  V30 4828 O 437.007 -1.6194 -5.21956 0
M  V30 4829 H 434.101 -0.210878 -0.799662 0
M  V30 4830 H 436.647 -1.10853 -1.2849 0
M  V30 4831 H 435.419 -2.29532 -3.16908 0
M  V30 4832 H 435.042 -0.746369 -3.90532 0
M  V30 4833 N 436.039 1.36541 -0.78704 0
M  V30 4834 C 436.969 2.32659 -0.197992 0
M  V30 4835 C 437.95 1.56533 0.665697 0
M  V30 4836 O 439.135 1.84698 0.60001 0
M  V30 4837 C 436.265 3.40778 0.669901 0
M  V30 4838 C 435.219 4.27897 -0.0937039 0
M  V30 4839 C 434.545 5.27163 0.894629 0
M  V30 4840 C 435.845 5.06334 -1.28154 0
M  V30 4841 H 437.539 2.82171 -1.00099 0
M  V30 4842 H 435.085 1.35665 -0.482793 0
M  V30 4843 H 437.038 4.07008 1.09191 0
M  V30 4844 H 435.762 2.89827 1.50558 0
M  V30 4845 H 434.421 3.6322 -0.49666 0
M  V30 4846 H 434.069 4.72486 1.72527 0
M  V30 4847 H 433.769 5.86317 0.388149 0
M  V30 4848 H 435.293 5.96266 1.31525 0
M  V30 4849 H 436.707 5.65617 -0.93541 0
M  V30 4850 H 435.104 5.74888 -1.72115 0
M  V30 4851 H 436.174 4.38114 -2.07807 0
M  V30 4852 N 437.518 0.538854 1.48102 0
M  V30 4853 C 438.481 -0.208395 2.28251 0
M  V30 4854 C 439.481 -0.859656 1.35892 0
M  V30 4855 O 440.671 -0.71834 1.58699 0
M  V30 4856 C 437.803 -1.30252 3.15035 0
M  V30 4857 H 438.996 0.495407 2.9578 0
M  V30 4858 H 436.549 0.295112 1.53489 0
M  V30 4859 H 437.284 -2.0393 2.52157 0
M  V30 4860 H 437.069 -0.840551 3.82985 0
M  V30 4861 H 438.559 -1.82787 3.75471 0
M  V30 4862 N 438.996 -1.55193 0.274407 0
M  V30 4863 C 440.242 -2.00604 -0.33608 0
M  V30 4864 C 440.597 -1.15948 -1.53538 0
M  V30 4865 O 439.89 -0.221385 -1.90317 0
M  V30 4866 C 440.084 -3.49019 -0.769458 0
M  V30 4867 C 439.913 -4.48038 0.386301 0
M  V30 4868 C 438.683 -4.97757 0.869854 0
M  V30 4869 C 440.881 -4.99558 1.22254 0
M  V30 4870 N 438.863 -5.80575 1.99515 0
M  V30 4871 C 440.234 -5.79816 2.19575 0
M  V30 4872 C 442.289 -4.81799 1.25597 0
M  V30 4873 C 440.992 -6.44208 3.19981 0
M  V30 4874 C 443.018 -5.46989 2.24848 0
M  V30 4875 C 442.38 -6.27058 3.20901 0
M  V30 4876 H 438.479 -0.777013 -0.088172 0
M  V30 4877 H 441.063 -1.90583 0.398266 0
M  V30 4878 H 439.234 -3.59383 -1.47303 0
M  V30 4879 H 440.966 -3.81263 -1.35722 0
M  V30 4880 H 437.721 -4.71464 0.449281 0
M  V30 4881 H 438.145 -6.26675 2.5614 0
M  V30 4882 H 442.787 -4.19501 0.527158 0
M  V30 4883 H 440.505 -7.05656 3.93796 0
M  V30 4884 H 444.091 -5.35189 2.28174 0
M  V30 4885 H 442.971 -6.7661 3.96445 0
M  V30 4886 N 440.474 -0.00167713 -1.576 0
M  V30 4887 C 441.407 1.02317 -2.03977 0
M  V30 4888 C 442.385 1.33381 -0.929963 0
M  V30 4889 O 443.569 1.45517 -1.19822 0
M  V30 4890 C 440.696 2.35035 -2.43878 0
M  V30 4891 C 439.742 2.19621 -3.65607 0
M  V30 4892 S 440.575 1.52068 -5.13455 0
M  V30 4893 C 441.731 2.86212 -5.56627 0
M  V30 4894 H 441.964 0.628285 -2.90585 0
M  V30 4895 H 439.497 0.209239 -1.52976 0
M  V30 4896 H 441.455 3.11345 -2.67534 0
M  V30 4897 H 440.116 2.71663 -1.57665 0
M  V30 4898 H 439.309 3.1767 -3.91282 0
M  V30 4899 H 438.911 1.51455 -3.41961 0
M  V30 4900 H 441.203 3.82509 -5.59189 0
M  V30 4901 H 442.146 2.65235 -6.56549 0
M  V30 4902 H 442.554 2.90199 -4.84195 0
M  V30 4903 N 441.952 1.55251 0.271103 0
M  V30 4904 C 443.201 1.75151 1.00025 0
M  V30 4905 C 443.514 0.561041 1.87381 0
M  V30 4906 O 444.72 0.642506 2.63788 0
M  V30 4907 C 443.176 3.09999 1.82835 0
M  V30 4908 C 442.784 4.3662 1.00336 0
M  V30 4909 C 444.528 3.39249 2.55168 0
M  V30 4910 C 442.435 5.62506 1.82595 0
M  V30 4911 H 441.365 0.652877 0.377183 0
M  V30 4912 H 444.016 1.81708 0.255843 0
M  V30 4913 H 442.398 2.97485 2.61378 0
M  V30 4914 H 443.572 4.60055 0.261959 0
M  V30 4915 H 441.887 4.14527 0.394486 0
M  V30 4916 H 444.484 4.3051 3.1712 0
M  V30 4917 H 444.827 2.59467 3.2555 0
M  V30 4918 H 445.36 3.52869 1.83653 0
M  V30 4919 H 442.099 6.45041 1.16631 0
M  V30 4920 H 441.619 5.43211 2.54327 0
M  V30 4921 H 443.298 6.00875 2.39913 0
M  V30 4922 N 443.43 -0.535701 1.48216 0
M  V30 4923 C 444.658 -1.31671 1.59594 0
M  V30 4924 C 445.073 -1.87083 0.254056 0
M  V30 4925 O 444.43 -1.66112 -0.755854 0
M  V30 4926 C 444.481 -2.47158 2.63809 0
M  V30 4927 O 444.202 -1.94032 3.92789 0
M  V30 4928 C 445.703 -3.39062 2.85573 0
M  V30 4929 H 442.923 -0.400623 0.538277 0
M  V30 4930 H 445.467 -0.646827 1.94001 0
M  V30 4931 H 443.622 -3.10043 2.32276 0
M  V30 4932 H 444.036 -2.69585 4.49916 0
M  V30 4933 H 445.51 -4.16459 3.62306 0
M  V30 4934 H 445.987 -3.93941 1.94184 0
M  V30 4935 H 446.593 -2.81975 3.18387 0
M  V30 4936 N 444.908 -1.36708 -0.784132 0
M  V30 4937 C 446.155 -1.31231 -1.54222 0
M  V30 4938 C 446.483 0.106864 -1.94206 0
M  V30 4939 O 445.738 1.07734 -1.63376 0
M  V30 4940 C 446.037 -2.18571 -2.82774 0
M  V30 4941 C 445.703 -3.67039 -2.61903 0
M  V30 4942 C 444.365 -4.07503 -2.55919 0
M  V30 4943 C 446.717 -4.61149 -2.4288 0
M  V30 4944 C 444.045 -5.40211 -2.28886 0
M  V30 4945 C 446.397 -5.94081 -2.17373 0
M  V30 4946 C 445.061 -6.33664 -2.09825 0
M  V30 4947 H 444.331 -0.48021 -0.56434 0
M  V30 4948 H 446.978 -1.68807 -0.904233 0
M  V30 4949 H 445.283 -1.73949 -3.51068 0
M  V30 4950 H 446.98 -2.11655 -3.40592 0
M  V30 4951 H 443.57 -3.34941 -2.67418 0
M  V30 4952 H 447.754 -4.30756 -2.46501 0
M  V30 4953 H 443.01 -5.69855 -2.21529 0
M  V30 4954 H 447.184 -6.66566 -2.01649 0
M  V30 4955 H 444.811 -7.36423 -1.88641 0
M  V30 4956 N 446.386 1.0089 -1.21074 0
M  V30 4957 C 447.616 1.77933 -1.04993 0
M  V30 4958 C 448.024 1.84847 0.403495 0
M  V30 4959 O 447.367 1.30606 1.29181 0
M  V30 4960 C 447.429 3.23541 -1.56722 0
M  V30 4961 C 447.093 3.40214 -3.05129 0
M  V30 4962 C 448.09 3.2881 -4.02716 0
M  V30 4963 C 445.775 3.65781 -3.44252 0
M  V30 4964 C 447.769 3.42732 -5.37414 0
M  V30 4965 C 445.456 3.79346 -4.79103 0
M  V30 4966 C 446.454 3.67827 -5.75493 0
M  V30 4967 O 446.142 3.80965 -7.07899 0
M  V30 4968 H 445.874 0.566157 -0.369381 0
M  V30 4969 H 448.428 1.27826 -1.60779 0
M  V30 4970 H 446.658 3.74766 -0.953285 0
M  V30 4971 H 448.347 3.82245 -1.36543 0
M  V30 4972 H 449.113 3.08986 -3.73835 0
M  V30 4973 H 444.992 3.73831 -2.69762 0
M  V30 4974 H 448.536 3.33658 -6.12632 0
M  V30 4975 H 444.433 3.98672 -5.07672 0
M  V30 4976 H 445.201 3.97937 -7.15254 0
M  V30 4977 N 447.864 1.01787 1.20321 0
M  V30 4978 C 449.11 0.708985 1.90003 0
M  V30 4979 C 449.443 -0.759572 1.78729 0
M  V30 4980 O 448.718 -1.55198 1.17234 0
M  V30 4981 C 449.001 1.1469 3.41348 0
M  V30 4982 C 448.854 2.67586 3.61549 0
M  V30 4983 C 450.173 0.71915 4.34185 0
M  V30 4984 H 447.292 0.259034 0.689978 0
M  V30 4985 H 449.934 1.26584 1.41692 0
M  V30 4986 H 448.084 0.673128 3.82624 0
M  V30 4987 H 449.756 3.22826 3.29517 0
M  V30 4988 H 447.999 3.085 3.04976 0
M  V30 4989 H 448.67 2.93281 4.67643 0
M  V30 4990 H 451.146 1.12647 4.00562 0
M  V30 4991 H 450.022 1.05358 5.38694 0
M  V30 4992 H 450.283 -0.379111 4.40472 0
M  V30 4993 N 449.342 -1.36122 0.79427 0
M  V30 4994 C 450.758 -1.5232 0.476525 0
M  V30 4995 C 450.958 -1.74685 -1.00436 0
M  V30 4996 O 450.014 -1.78115 -1.78973 0
M  V30 4997 C 451.327 -2.70607 1.31119 0
M  V30 4998 C 452.875 -2.8448 1.30537 0
M  V30 4999 C 453.35 -4.05778 2.12387 0
M  V30 5000 N 454.841 -4.12933 2.09859 0
M  V30 5001 C 455.576 -5.05876 2.69957 0
M  V30 5002 N 455.072 -6.04232 3.38934 0
M  V30 5003 N 456.865 -4.98528 2.59665 0
M  V30 5004 H 449.016 -1.1986 1.75349 0
M  V30 5005 H 451.279 -0.585418 0.745647 0
M  V30 5006 H 450.985 -2.60619 2.36158 0
M  V30 5007 H 450.859 -3.64888 0.955843 0
M  V30 5008 H 453.246 -2.93927 0.262876 0
M  V30 5009 H 453.327 -1.91093 1.70051 0
M  V30 5010 H 452.971 -3.97092 3.1667 0
M  V30 5011 H 452.901 -4.98323 1.70242 0
M  V30 5012 H 455.392 -3.42515 1.59662 0
M  V30 5013 H 455.705 -6.71724 3.82109 0
M  V30 5014 H 454.05 -6.04443 3.43036 0
M  V30 5015 H 457.241 -4.20641 2.05375 0
M  V30 5016 H 457.414 -5.70773 3.06793 0
M  V30 5017 N 450.82 -0.546701 -1.47814 0
M  V30 5018 C 452.067 -0.0187407 -2.02491 0
M  V30 5019 C 452.395 1.32685 -1.42215 0
M  V30 5020 O 451.65 1.87413 -0.563454 0
M  V30 5021 C 451.949 0.134869 -3.57145 0
M  V30 5022 C 451.615 -1.13849 -4.3629 0
M  V30 5023 C 450.277 -1.48743 -4.57634 0
M  V30 5024 C 452.629 -1.98277 -4.82012 0
M  V30 5025 C 449.957 -2.67932 -5.21948 0
M  V30 5026 C 452.309 -3.16659 -5.4764 0
M  V30 5027 C 450.973 -3.51879 -5.67219 0
M  V30 5028 H 450.243 -0.0068577 -0.740968 0
M  V30 5029 H 452.89 -0.716097 -1.77607 0
M  V30 5030 H 451.195 0.915118 -3.80963 0
M  V30 5031 H 452.892 0.558556 -3.97091 0
M  V30 5032 H 449.482 -0.856767 -4.19949 0
M  V30 5033 H 453.666 -1.72628 -4.6531 0
M  V30 5034 H 448.922 -2.95401 -5.35302 0
M  V30 5035 H 453.096 -3.82374 -5.82033 0
M  V30 5036 H 450.723 -4.44331 -6.16825 0
M  V30 5037 N 452.299 1.55045 -0.282633 0
M  V30 5038 C 453.546 1.9976 0.33199 0
M  V30 5039 C 453.874 1.17105 1.55295 0
M  V30 5040 O 453.129 0.230599 1.94337 0
M  V30 5041 C 453.428 3.49422 0.750938 0
M  V30 5042 C 453.094 4.4941 -0.366228 0
M  V30 5043 C 451.756 4.76471 -0.672964 0
M  V30 5044 C 454.108 5.09054 -1.11864 0
M  V30 5045 C 451.436 5.60442 -1.73556 0
M  V30 5046 C 453.788 5.9418 -2.17102 0
M  V30 5047 C 452.452 6.19558 -2.48402 0
M  V30 5048 H 451.722 0.730974 0.121484 0
M  V30 5049 H 454.369 1.8732 -0.39791 0
M  V30 5050 H 452.674 3.59377 1.56063 0
M  V30 5051 H 454.371 3.81432 1.23736 0
M  V30 5052 H 450.961 4.2844 -0.117041 0
M  V30 5053 H 455.145 4.88165 -0.894925 0
M  V30 5054 H 450.401 5.78349 -1.983 0
M  V30 5055 H 454.575 6.39427 -2.75873 0
M  V30 5056 H 452.202 6.84417 -3.30874 0
M  V30 5057 N 453.777 0.010035 1.57597 0
M  V30 5058 C 454.707 -0.976857 2.12084 0
M  V30 5059 C 455.688 -1.35191 1.03235 0
M  V30 5060 O 456.873 -1.43389 1.3097 0
M  V30 5061 C 454.003 -2.26548 2.63236 0
M  V30 5062 C 452.957 -2.03175 3.76701 0
M  V30 5063 C 452.283 -3.38138 4.14206 0
M  V30 5064 C 453.583 -1.38625 5.03568 0
M  V30 5065 H 455.277 -0.523145 2.94794 0
M  V30 5066 H 452.823 -0.250195 1.4181 0
M  V30 5067 H 454.776 -2.95952 2.99984 0
M  V30 5068 H 453.5 -2.74051 1.77661 0
M  V30 5069 H 452.159 -1.36195 3.40362 0
M  V30 5070 H 451.807 -3.83363 3.25641 0
M  V30 5071 H 451.507 -3.23312 4.90656 0
M  V30 5072 H 453.031 -4.08841 4.53521 0
M  V30 5073 H 454.445 -1.98 5.38023 0
M  V30 5074 H 452.842 -1.34256 5.84889 0
M  V30 5075 H 453.912 -0.356722 4.83586 0
M  V30 5076 N 455.255 -1.55392 -0.262866 0
M  V30 5077 C 456.483 -1.80513 -1.01108 0
M  V30 5078 C 456.898 -0.583533 -1.79556 0
M  V30 5079 O 456.255 0.447585 -1.76926 0
M  V30 5080 C 456.306 -3.03648 -1.96164 0
M  V30 5081 O 456.027 -4.2109 -1.20893 0
M  V30 5082 C 457.528 -3.41448 -2.82715 0
M  V30 5083 H 454.748 -0.601079 -0.298236 0
M  V30 5084 H 457.292 -2.02425 -0.290582 0
M  V30 5085 H 455.447 -2.83832 -2.63663 0
M  V30 5086 H 455.861 -4.90771 -1.85051 0
M  V30 5087 H 457.335 -4.30751 -3.45192 0
M  V30 5088 H 457.812 -2.61308 -3.53008 0
M  V30 5089 H 458.418 -3.63559 -2.20693 0
M  V30 5090 N 456.733 0.527833 -1.48498 0
M  V30 5091 C 457.963 1.30633 -1.60058 0
M  V30 5092 C 458.371 1.87394 -0.260786 0
M  V30 5093 O 457.714 1.67227 0.760317 0
M  V30 5094 C 457.776 2.49361 -2.58958 0
M  V30 5095 C 457.44 2.13671 -4.03972 0
M  V30 5096 C 458.437 1.69217 -4.91591 0
M  V30 5097 C 456.122 2.24129 -4.49524 0
M  V30 5098 C 458.116 1.35689 -6.2279 0
M  V30 5099 C 455.803 1.90212 -5.80743 0
M  V30 5100 C 456.801 1.46063 -6.67199 0
M  V30 5101 O 456.489 1.12593 -7.95976 0
M  V30 5102 H 456.221 0.403444 -0.54241 0
M  V30 5103 H 458.775 0.643233 -1.95068 0
M  V30 5104 H 457.005 3.18659 -2.19073 0
M  V30 5105 H 458.694 3.11421 -2.6033 0
M  V30 5106 H 459.46 1.60607 -4.57636 0
M  V30 5107 H 455.339 2.57447 -3.82416 0
M  V30 5108 H 458.883 1.01157 -6.90227 0
M  V30 5109 H 454.78 1.98464 -6.14233 0
M  V30 5110 H 455.548 1.25972 -8.08748 0
M  V30 5111 N 458.211 1.37122 0.776871 0
M  V30 5112 C 459.457 1.32243 1.53752 0
M  V30 5113 C 459.79 -0.0944745 1.9397 0
M  V30 5114 O 459.065 -1.05068 1.6368 0
M  V30 5115 C 459.348 2.25681 2.80607 0
M  V30 5116 C 459.201 3.76127 2.46676 0
M  V30 5117 C 460.52 2.17657 3.82509 0
M  V30 5118 H 457.639 0.481704 0.557791 0
M  V30 5119 H 460.281 1.6778 0.891612 0
M  V30 5120 H 458.431 1.95505 3.35723 0
M  V30 5121 H 460.103 4.16877 1.97513 0
M  V30 5122 H 458.346 3.94946 1.79443 0
M  V30 5123 H 459.017 4.36933 3.37333 0
M  V30 5124 H 461.493 2.44245 3.36873 0
M  V30 5125 H 460.369 2.85185 4.69 0
M  V30 5126 H 460.63 1.16785 4.26396 0
M  V30 5127 N 459.689 -1.00246 1.21608 0
M  V30 5128 C 461.1 -1.55511 1.03312 0
M  V30 5129 C 461.451 -1.91946 -0.406332 0
M  V30 5130 O 460.576 -1.73753 -1.28992 0
M  V30 5131 C 461.171 -2.82576 1.86913 0
M  V30 5132 C 459.73 -3.34318 1.72941 0
M  V30 5133 C 458.877 -2.07487 1.83968 0
M  V30 5134 H 461.828 -0.824638 1.35593 0
M  V30 5135 H 461.849 -3.54559 1.38087 0
M  V30 5136 H 461.361 -2.56026 2.91672 0
M  V30 5137 H 459.462 -3.65797 0.70877 0
M  V30 5138 H 459.575 -4.05566 2.55055 0
M  V30 5139 H 457.939 -2.20603 1.27304 0
M  V30 5140 H 458.722 -1.83346 2.9024 0
M  V30 5141 N 461.167 -1.02423 -1.1978 0
M  V30 5142 C 462.097 -0.62157 -2.25075 0
M  V30 5143 C 463.078 0.367148 -1.6609 0
M  V30 5144 O 464.263 0.250892 -1.92573 0
M  V30 5145 C 461.393 0.0331826 -3.47284 0
M  V30 5146 C 460.347 -0.877323 -4.18912 0
M  V30 5147 C 459.673 -0.0879296 -5.34628 0
M  V30 5148 C 460.973 -2.18892 -4.74219 0
M  V30 5149 H 462.667 -1.50179 -2.59011 0
M  V30 5150 H 460.213 -0.723547 -1.24502 0
M  V30 5151 H 462.166 0.326488 -4.20133 0
M  V30 5152 H 460.89 0.948164 -3.12534 0
M  V30 5153 H 459.549 -1.15475 -3.47938 0
M  V30 5154 H 459.197 0.828941 -4.96123 0
M  V30 5155 H 458.897 -0.694359 -5.83483 0
M  V30 5156 H 460.421 0.198743 -6.10276 0
M  V30 5157 H 461.835 -1.95746 -5.38847 0
M  V30 5158 H 460.232 -2.74686 -5.33542 0
M  V30 5159 H 461.302 -2.84674 -3.92541 0
M  V30 5160 N 462.645 1.35699 -0.801477 0
M  V30 5161 C 463.575 2.32436 -0.222658 0
M  V30 5162 C 464.556 1.5723 0.649057 0
M  V30 5163 O 465.741 1.85324 0.580387 0
M  V30 5164 C 462.871 3.41469 0.633719 0
M  V30 5165 C 461.825 4.27774 -0.139083 0
M  V30 5166 C 461.151 5.28082 0.838666 0
M  V30 5167 C 462.451 5.04946 -1.33517 0
M  V30 5168 H 464.145 2.81094 -1.03086 0
M  V30 5169 H 461.691 1.35146 -0.497155 0
M  V30 5170 H 463.644 4.08143 1.04868 0
M  V30 5171 H 462.368 2.91408 1.47475 0
M  V30 5172 H 461.027 3.62673 -0.535156 0
M  V30 5173 H 460.675 4.7429 1.67506 0
M  V30 5174 H 460.375 5.86695 0.32594 0
M  V30 5175 H 461.899 5.97628 1.25194 0
M  V30 5176 H 463.313 5.64593 -0.995349 0
M  V30 5177 H 461.71 5.7303 -1.78202 0
M  V30 5178 H 462.78 4.35886 -2.12442 0
M  V30 5179 N 464.123 0.554532 1.47522 0
M  V30 5180 C 465.371 0.0294208 2.02079 0
M  V30 5181 C 465.692 -1.32411 1.43151 0
M  V30 5182 O 464.962 -1.863 0.605728 0
M  V30 5183 H 463.542 0.00788672 0.746958 0
M  V30 5184 H 466.204 0.723934 1.80956 0
M  V30 5185 H 465.3 -0.0606745 3.12041 0
M  V30 5186 N 465.601 -1.54893 0.290851 0
M  V30 5187 C 466.531 -2.26103 -0.583084 0
M  V30 5188 C 467.512 -1.25684 -1.14619 0
M  V30 5189 O 468.697 -1.54436 -1.17741 0
M  V30 5190 C 465.827 -2.99409 -1.75987 0
M  V30 5191 C 464.781 -4.0689 -1.32758 0
M  V30 5192 C 464.107 -4.67856 -2.58872 0
M  V30 5193 C 465.407 -5.20215 -0.46624 0
M  V30 5194 H 467.101 -2.99398 0.0108214 0
M  V30 5195 H 464.647 -1.43998 0.00664468 0
M  V30 5196 H 466.6 -3.47943 -2.37727 0
M  V30 5197 H 465.324 -2.23675 -2.37985 0
M  V30 5198 H 463.983 -3.59191 -0.733299 0
M  V30 5199 H 463.631 -3.88772 -3.19163 0
M  V30 5200 H 463.331 -5.40438 -2.30653 0
M  V30 5201 H 464.855 -5.19147 -3.21433 0
M  V30 5202 H 466.269 -5.64704 -0.989047 0
M  V30 5203 H 464.666 -5.99455 -0.27826 0
M  V30 5204 H 465.736 -4.82198 0.511173 0
M  V30 5205 N 467.08 -0.0183926 -1.57589 0
M  V30 5206 C 468.027 0.967022 -2.09565 0
M  V30 5207 C 468.997 1.32983 -0.995225 0
M  V30 5208 O 470.182 1.42501 -1.26878 0
M  V30 5209 C 467.322 2.24772 -2.61861 0
M  V30 5210 C 466.435 1.94232 -3.85873 0
M  V30 5211 C 465.57 3.16518 -4.26603 0
M  V30 5212 C 464.609 2.81748 -5.43401 0
M  V30 5213 N 463.746 3.96626 -5.79338 0
M  V30 5214 H 468.586 0.516874 -2.93483 0
M  V30 5215 H 466.123 0.243544 -1.4507 0
M  V30 5216 H 468.081 2.99667 -2.90268 0
M  V30 5217 H 466.711 2.67423 -1.8079 0
M  V30 5218 H 465.763 1.09625 -3.64262 0
M  V30 5219 H 467.075 1.64616 -4.70853 0
M  V30 5220 H 466.229 3.99743 -4.56389 0
M  V30 5221 H 464.968 3.49286 -3.40368 0
M  V30 5222 H 463.973 1.96933 -5.1332 0
M  V30 5223 H 465.198 2.50207 -6.31327 0
M  V30 5224 H 463.144 4.29257 -4.96059 0
M  V30 5225 H 463.061 3.70598 -6.58933 0
M  V30 5226 H 464.329 4.80586 -6.13724 0
M  V30 5227 N 468.558 1.5553 0.254621 0
M  V30 5228 C 469.521 1.88872 1.29846 0
M  V30 5229 C 470.521 0.764591 1.41459 0
M  V30 5230 O 471.711 1.03265 1.40293 0
M  V30 5231 C 468.843 2.11032 2.67728 0
M  V30 5232 H 470.036 2.82201 1.01502 0
M  V30 5233 H 467.589 1.48303 0.493556 0
M  V30 5234 H 468.324 1.20146 3.01223 0
M  V30 5235 H 468.109 2.92895 2.60682 0
M  V30 5236 H 469.599 2.38038 3.43115 0
M  V30 5237 N 470.036 -0.519951 1.48776 0
M  V30 5238 C 471.283 -1.27522 1.57303 0
M  V30 5239 C 471.611 -1.92869 0.251328 0
M  V30 5240 O 470.866 -1.80372 -0.759243 0
M  V30 5241 C 471.165 -2.37864 2.6675 0
M  V30 5242 C 470.831 -1.90103 4.08867 0
M  V30 5243 C 469.493 -1.76795 4.47546 0
M  V30 5244 C 471.845 -1.54133 4.97888 0
M  V30 5245 C 469.173 -1.25868 5.73039 0
M  V30 5246 C 471.525 -1.04665 6.23881 0
M  V30 5247 C 470.189 -0.899823 6.61407 0
M  V30 5248 H 469.459 -0.466636 0.575614 0
M  V30 5249 H 472.106 -0.579109 1.82534 0
M  V30 5250 H 470.411 -3.13186 2.35418 0
M  V30 5251 H 472.108 -2.95969 2.70561 0
M  V30 5252 H 468.698 -2.01414 3.78326 0
M  V30 5253 H 472.882 -1.6327 4.68675 0
M  V30 5254 H 468.138 -1.13196 6.0083 0
M  V30 5255 H 472.312 -0.759074 6.92251 0
M  V30 5256 H 469.939 -0.503011 7.58534 0
M  V30 5257 N 471.514 -1.37532 -0.769588 0
M  V30 5258 C 472.444 -1.36172 -1.89682 0
M  V30 5259 C 473.425 -0.23001 -1.68538 0
M  V30 5260 O 474.61 -0.43069 -1.89364 0
M  V30 5261 C 471.74 -1.1701 -3.26995 0
M  V30 5262 C 470.694 -2.27216 -3.62708 0
M  V30 5263 C 470.02 -1.93174 -4.98586 0
M  V30 5264 C 471.32 -3.6941 -3.69234 0
M  V30 5265 H 473.014 -2.30499 -1.91078 0
M  V30 5266 H 470.56 -1.10953 -0.917902 0
M  V30 5267 H 472.513 -1.14688 -4.05493 0
M  V30 5268 H 471.237 -0.191395 -3.26039 0
M  V30 5269 H 469.896 -2.28697 -2.86519 0
M  V30 5270 H 469.544 -0.938281 -4.94171 0
M  V30 5271 H 469.244 -2.66973 -5.23449 0
M  V30 5272 H 470.768 -1.92443 -5.79481 0
M  V30 5273 H 472.182 -3.70047 -4.37879 0
M  V30 5274 H 470.579 -4.4228 -4.05597 0
M  V30 5275 H 471.649 -4.0288 -2.69844 0
M  V30 5276 N 472.992 0.995999 -1.22138 0
M  V30 5277 C 474.24 1.73167 -1.042 0
M  V30 5278 C 474.561 1.90329 0.42423 0
M  V30 5279 O 473.831 1.4607 1.30539 0
M  V30 5280 H 472.411 0.641593 -0.38258 0
M  V30 5281 H 475.073 1.19974 -1.53598 0
M  V30 5282 H 474.169 2.72734 -1.51731 0
M  V30 5283 N 474.47 1.03057 1.19235 0
M  V30 5284 C 475.4 0.633497 2.24742 0
M  V30 5285 C 476.381 -0.358335 1.66283 0
M  V30 5286 O 477.566 -0.240676 1.92703 0
M  V30 5287 C 474.696 -0.0147648 3.47297 0
M  V30 5288 C 473.65 0.899527 4.18441 0
M  V30 5289 C 472.976 0.116281 5.34574 0
M  V30 5290 C 474.276 2.21404 4.73051 0
M  V30 5291 H 475.97 1.5155 2.58211 0
M  V30 5292 H 473.516 0.73014 1.24117 0
M  V30 5293 H 475.469 -0.304202 4.20301 0
M  V30 5294 H 474.193 -0.931577 3.13032 0
M  V30 5295 H 472.852 1.17319 3.47321 0
M  V30 5296 H 472.5 -0.802619 4.96555 0
M  V30 5297 H 472.2 0.725293 5.83107 0
M  V30 5298 H 473.724 -0.166376 6.10373 0
M  V30 5299 H 475.138 1.98601 5.37802 0
M  V30 5300 H 473.535 2.77512 5.32078 0
M  V30 5301 H 474.605 2.86752 3.91026 0
M  V30 5302 N 475.948 -1.35272 0.808662 0
M  V30 5303 C 477.195 -1.98709 0.390003 0
M  V30 5304 C 477.523 -1.64148 -1.04335 0
M  V30 5305 O 476.778 -0.897797 -1.73891 0
M  V30 5306 C 477.077 -3.53556 0.522798 0
M  V30 5307 C 476.743 -4.0799 1.91977 0
M  V30 5308 C 475.405 -4.22568 2.30195 0
M  V30 5309 C 477.757 -4.37442 2.83361 0
M  V30 5310 C 475.085 -4.63918 3.59162 0
M  V30 5311 C 477.437 -4.80232 4.11776 0
M  V30 5312 C 476.101 -4.93016 4.49991 0
M  V30 5313 H 475.371 -0.727127 0.142712 0
M  V30 5314 H 478.018 -1.6145 1.02985 0
M  V30 5315 H 476.323 -3.91287 -0.200494 0
M  V30 5316 H 478.02 -4.00598 0.179608 0
M  V30 5317 H 474.61 -3.97096 1.61284 0
M  V30 5318 H 478.794 -4.25731 2.55083 0
M  V30 5319 H 474.05 -4.72005 3.88615 0
M  V30 5320 H 478.224 -5.01982 4.82687 0
M  V30 5321 H 475.851 -5.24814 5.49976 0
M  V30 5322 N 477.426 -0.562348 -1.47226 0
M  V30 5323 C 478.673 -0.0402165 -2.0246 0
M  V30 5324 C 479.001 1.31169 -1.43614 0
M  V30 5325 O 478.256 1.86805 -0.5833 0
M  V30 5326 C 478.555 0.0969817 -3.57268 0
M  V30 5327 C 478.221 -1.1847 -4.35058 0
M  V30 5328 C 476.883 -1.53588 -4.56031 0
M  V30 5329 C 479.235 -2.03378 -4.79882 0
M  V30 5330 C 476.563 -2.73452 -5.19077 0
M  V30 5331 C 478.915 -3.2245 -5.44251 0
M  V30 5332 C 477.579 -3.57876 -5.63455 0
M  V30 5333 H 476.849 -0.0147163 -0.740854 0
M  V30 5334 H 479.496 -0.734895 -1.76838 0
M  V30 5335 H 477.801 0.87466 -3.81912 0
M  V30 5336 H 479.498 0.516408 -3.97661 0
M  V30 5337 H 476.088 -0.90126 -4.19017 0
M  V30 5338 H 480.272 -1.77553 -4.63453 0
M  V30 5339 H 475.528 -3.01062 -5.32139 0
M  V30 5340 H 479.702 -3.88526 -5.77945 0
M  V30 5341 H 477.329 -4.50849 -6.12078 0
M  V30 5342 N 478.904 1.54736 -0.299062 0
M  V30 5343 C 480.153 1.99279 0.311549 0
M  V30 5344 C 480.466 1.19107 1.55154 0
M  V30 5345 O 481.672 1.53908 2.23662 0
M  V30 5346 C 480.128 3.54768 0.605632 0
M  V30 5347 C 479.736 4.43746 -0.615914 0
M  V30 5348 C 481.48 4.07841 1.17754 0
M  V30 5349 C 479.387 5.90663 -0.29509 0
M  V30 5350 H 478.317 0.744359 0.120187 0
M  V30 5351 H 480.968 1.78919 -0.407464 0
M  V30 5352 H 479.35 3.71021 1.38419 0
M  V30 5353 H 480.524 4.39267 -1.39218 0
M  V30 5354 H 478.839 4.01434 -1.10633 0
M  V30 5355 H 481.436 5.15174 1.43179 0
M  V30 5356 H 481.779 3.58324 2.11918 0
M  V30 5357 H 482.312 3.95123 0.460739 0
M  V30 5358 H 479.051 6.44325 -1.20524 0
M  V30 5359 H 478.571 5.98155 0.44394 0
M  V30 5360 H 480.25 6.46916 0.104048 0
M  V30 5361 N 480.382 0.0267497 1.57577 0
M  V30 5362 C 481.628 -0.653371 1.91987 0
M  V30 5363 C 481.961 -1.71915 0.903263 0
M  V30 5364 O 481.236 -1.94358 -0.0743387 0
M  V30 5365 C 481.519 -1.272 3.36886 0
M  V30 5366 C 481.372 -0.215938 4.49281 0
M  V30 5367 C 482.691 -2.19069 3.81703 0
M  V30 5368 H 479.81 -0.236047 0.698177 0
M  V30 5369 H 482.452 0.0835236 1.89816 0
M  V30 5370 H 480.602 -1.90005 3.38866 0
M  V30 5371 H 482.274 0.41449 4.59434 0
M  V30 5372 H 480.517 0.458855 4.31366 0
M  V30 5373 H 481.188 -0.688347 5.47691 0
M  V30 5374 H 483.664 -1.66253 3.81444 0
M  V30 5375 H 482.54 -2.59307 4.83788 0
M  V30 5376 H 482.801 -3.08087 3.17072 0
M  V30 5377 N 481.861 -1.55662 -0.24637 0
M  V30 5378 C 483.277 -1.48098 -0.594907 0
M  V30 5379 C 483.477 -0.717044 -1.8831 0
M  V30 5380 O 482.533 -0.246618 -2.51293 0
M  V30 5381 C 483.846 -2.92507 -0.697146 0
M  V30 5382 C 485.394 -3.02881 -0.789436 0
M  V30 5383 C 485.869 -4.48598 -0.923232 0
M  V30 5384 N 487.36 -4.52538 -0.988088 0
M  V30 5385 C 488.095 -5.62536 -1.11089 0
M  V30 5386 N 487.591 -6.82342 -1.19919 0
M  V30 5387 N 489.384 -5.50334 -1.14408 0
M  V30 5388 H 481.535 -2.0377 0.599278 0
M  V30 5389 H 483.798 -0.925145 0.20691 0
M  V30 5390 H 483.504 -3.51242 0.179396 0
M  V30 5391 H 483.378 -3.43024 -1.5689 0
M  V30 5392 H 485.765 -2.44226 -1.65643 0
M  V30 5393 H 485.846 -2.55574 0.107482 0
M  V30 5394 H 485.49 -5.07864 -0.0607927 0
M  V30 5395 H 485.42 -4.93587 -1.8352 0
M  V30 5396 H 487.911 -3.66248 -0.931167 0
M  V30 5397 H 488.224 -7.61924 -1.29197 0
M  V30 5398 H 486.569 -6.85102 -1.16876 0
M  V30 5399 H 489.76 -4.5567 -1.07158 0
M  V30 5400 H 489.933 -6.36096 -1.23634 0
M  V30 5401 N 483.339 0.512053 -1.4905 0
M  V30 5402 C 484.586 1.26686 -1.57978 0
M  V30 5403 C 484.914 1.92733 -0.261553 0
M  V30 5404 O 484.169 1.80772 0.749667 0
M  V30 5405 C 484.468 2.36446 -2.68008 0
M  V30 5406 C 484.134 1.87932 -4.09869 0
M  V30 5407 C 482.796 1.74419 -4.48477 0
M  V30 5408 C 485.148 1.5149 -4.98698 0
M  V30 5409 C 482.476 1.22827 -5.73699 0
M  V30 5410 C 484.828 1.01355 -6.24428 0
M  V30 5411 C 483.492 0.864735 -6.61875 0
M  V30 5412 H 482.762 0.463577 -0.578081 0
M  V30 5413 H 485.409 0.569421 -1.82838 0
M  V30 5414 H 483.714 3.11933 -2.37076 0
M  V30 5415 H 485.411 2.9453 -2.72127 0
M  V30 5416 H 482.001 1.99405 -3.79389 0
M  V30 5417 H 486.185 1.60782 -4.69535 0
M  V30 5418 H 481.441 1.10008 -6.01422 0
M  V30 5419 H 485.615 0.722351 -6.92644 0
M  V30 5420 H 483.242 0.462777 -7.5879 0
M  V30 5421 N 484.817 1.37938 0.762283 0
M  V30 5422 C 485.747 1.37176 1.88958 0
M  V30 5423 C 486.728 0.238945 1.68413 0
M  V30 5424 O 487.913 0.440726 1.89133 0
M  V30 5425 C 485.043 1.18742 3.2637 0
M  V30 5426 C 483.997 2.29136 3.61498 0
M  V30 5427 C 483.323 1.95816 4.97554 0
M  V30 5428 C 484.623 3.71363 3.6727 0
M  V30 5429 H 486.317 2.31509 1.89853 0
M  V30 5430 H 483.863 1.11438 0.912005 0
M  V30 5431 H 485.816 1.16837 4.04879 0
M  V30 5432 H 484.54 0.208683 3.25933 0
M  V30 5433 H 483.199 2.30213 2.85303 0
M  V30 5434 H 482.847 0.964475 4.93667 0
M  V30 5435 H 482.547 2.69745 5.22026 0
M  V30 5436 H 484.071 1.95513 5.78452 0
M  V30 5437 H 485.485 3.72364 4.35911 0
M  V30 5438 H 483.882 4.44425 4.03245 0
M  V30 5439 H 484.952 4.04305 2.67704 0
M  V30 5440 N 486.295 -0.989507 1.22664 0
M  V30 5441 C 487.205 -2.11449 1.01619 0
M  V30 5442 C 488.221 -1.73962 -0.036545 0
M  V30 5443 O 489.397 -2.00788 0.156924 0
M  V30 5444 C 486.462 -3.41465 0.600204 0
M  V30 5445 C 485.523 -3.93033 1.72695 0
M  V30 5446 C 484.756 -5.16844 1.33071 0
M  V30 5447 O 484.979 -5.7001 0.210975 0
M  V30 5448 O 483.913 -5.6225 2.14845 0
M  V30 5449 H 487.739 -2.32088 1.9588 0
M  V30 5450 H 485.324 -1.09823 1.01289 0
M  V30 5451 H 487.206 -4.19695 0.37873 0
M  V30 5452 H 485.881 -3.22178 -0.313511 0
M  V30 5453 H 484.788 -3.15961 2.00298 0
M  V30 5454 H 486.121 -4.16758 2.61865 0
M  V30 5455 N 487.773 -1.03688 -1.18687 0
M  V30 5456 C 488.998 -0.757819 -1.93059 0
M  V30 5457 C 489.423 0.678353 -1.75442 0
M  V30 5458 O 488.781 1.46938 -1.06203 0
M  V30 5459 C 488.829 -1.12423 -3.42627 0
M  V30 5460 O 487.933 -0.247505 -4.11657 0
M  V30 5461 H 487.274 -0.279245 -0.602427 0
M  V30 5462 H 489.804 -1.3857 -1.5053 0
M  V30 5463 H 489.814 -1.08454 -3.93322 0
M  V30 5464 H 488.489 -2.17049 -3.54771 0
M  V30 5465 H 487.066 -0.34649 -3.71287 0
M  V30 5466 N 489.251 1.34841 -0.815825 0
M  V30 5467 C 490.199 2.31549 -0.220888 0
M  V30 5468 C 491.193 1.5707 0.634457 0
M  V30 5469 O 492.399 1.72125 0.526589 0
M  V30 5470 H 488.774 0.750153 -0.0526782 0
M  V30 5471 H 490.745 2.7926 -1.05149 0
M  V30 5472 C 489.494 3.42335 0.608427 0
M  V30 5473 H 488.817 3.9978 -0.0404121 0
M  V30 5474 H 490.257 4.12258 0.990931 0
M  V30 5475 C 488.716 2.86173 1.77782 0
M  V30 5476 O 489.246 2.80474 2.87571 0
M  V30 5477 N 487.452 2.43093 1.59229 0
M  V30 5478 H 486.999 2.47928 0.699237 0
M  V30 5479 H 486.957 2.05866 2.37627 0
M  V30 5480 N 490.729 0.570148 1.46925 0
M  V30 5481 C 491.975 0.0593124 2.03314 0
M  V30 5482 C 492.33 -1.28139 1.43521 0
M  V30 5483 O 491.623 -1.82411 0.586245 0
M  V30 5484 C 491.817 -0.0780336 3.57315 0
M  V30 5485 C 491.646 1.2478 4.32042 0
M  V30 5486 C 490.416 1.81859 4.7144 0
M  V30 5487 C 492.614 2.16808 4.66368 0
M  V30 5488 N 490.596 3.08313 5.30864 0
M  V30 5489 C 491.967 3.27845 5.2623 0
M  V30 5490 C 494.022 2.16643 4.48297 0
M  V30 5491 C 492.725 4.38832 5.69929 0
M  V30 5492 C 494.751 3.26652 4.93004 0
M  V30 5493 C 494.113 4.36408 5.52926 0
M  V30 5494 H 490.212 0.0641804 0.779362 0
M  V30 5495 H 492.796 0.760285 1.79242 0
M  V30 5496 H 490.967 -0.748151 3.81126 0
M  V30 5497 H 492.699 -0.59211 4.00345 0
M  V30 5498 H 489.454 1.35502 4.53802 0
M  V30 5499 H 489.878 3.72802 5.65108 0
M  V30 5500 H 494.52 1.33065 4.01315 0
M  V30 5501 H 492.238 5.23162 6.15896 0
M  V30 5502 H 495.824 3.27627 4.80782 0
M  V30 5503 H 494.704 5.20127 5.86888 0
M  V30 5504 N 492.207 -1.54576 0.307264 0
M  V30 5505 C 493.454 -2.00263 -0.300167 0
M  V30 5506 C 493.782 -1.19561 -1.53413 0
M  V30 5507 O 493.037 -0.261487 -1.93945 0
M  V30 5508 C 493.336 -3.50572 -0.695253 0
M  V30 5509 C 493.002 -4.48771 0.437679 0
M  V30 5510 C 491.664 -4.7534 0.748681 0
M  V30 5511 C 494.016 -5.0721 1.19949 0
M  V30 5512 C 491.344 -5.5761 1.8245 0
M  V30 5513 C 493.696 -5.90651 2.26527 0
M  V30 5514 C 492.36 -6.15528 2.58227 0
M  V30 5515 H 491.63 -0.732814 -0.109839 0
M  V30 5516 H 494.277 -1.86664 0.427661 0
M  V30 5517 H 492.582 -3.61814 -1.50326 0
M  V30 5518 H 494.279 -3.83352 -1.17653 0
M  V30 5519 H 490.869 -4.282 0.185187 0
M  V30 5520 H 495.053 -4.86679 0.972474 0
M  V30 5521 H 490.309 -5.75121 2.07476 0
M  V30 5522 H 494.483 -6.34957 2.86011 0
M  V30 5523 H 492.11 -6.79066 3.4172 0
M  V30 5524 N 493.685 -0.035106 -1.57561 0
M  V30 5525 C 494.931 0.64318 -1.92331 0
M  V30 5526 C 495.264 1.71434 -0.912368 0
M  V30 5527 O 494.539 1.94395 0.0640303 0
M  V30 5528 C 494.822 1.25411 -3.37556 0
M  V30 5529 C 494.675 0.192109 -4.4939 0
M  V30 5530 C 495.994 2.17041 -3.82859 0
M  V30 5531 H 493.113 0.232341 -0.699419 0
M  V30 5532 H 495.755 -0.0935889 -1.89769 0
M  V30 5533 H 493.905 1.88205 -3.39869 0
M  V30 5534 H 495.577 -0.438849 -4.59208 0
M  V30 5535 H 493.82 -0.481725 -4.31117 0
M  V30 5536 H 494.491 0.659292 -5.48049 0
M  V30 5537 H 496.967 1.64228 -3.8232 0
M  V30 5538 H 495.843 2.56738 -4.85157 0
M  V30 5539 H 496.104 3.06401 -3.18702 0
M  V30 5540 N 495.163 1.55791 0.238111 0
M  V30 5541 C 496.409 1.79211 0.962035 0
M  V30 5542 C 496.764 0.605463 1.82625 0
M  V30 5543 O 496.057 -0.40104 1.87356 0
M  V30 5544 C 496.251 3.05869 1.84875 0
M  V30 5545 C 496.08 4.36739 1.07186 0
M  V30 5546 C 494.85 4.99346 0.773424 0
M  V30 5547 C 497.048 5.1237 0.445168 0
M  V30 5548 N 495.03 6.13894 -0.0266037 0
M  V30 5549 C 496.401 6.19613 -0.219023 0
M  V30 5550 C 498.456 4.96622 0.356522 0
M  V30 5551 C 497.159 7.1282 -0.963358 0
M  V30 5552 C 499.185 5.90214 -0.374304 0
M  V30 5553 C 498.547 6.96872 -1.0271 0
M  V30 5554 H 494.646 0.707627 0.332849 0
M  V30 5555 H 497.23 1.93284 0.234368 0
M  V30 5556 H 495.401 2.93108 2.54837 0
M  V30 5557 H 497.133 3.17547 2.5089 0
M  V30 5558 H 493.888 4.60948 1.08738 0
M  V30 5559 H 494.312 6.75727 -0.414968 0
M  V30 5560 H 498.954 4.14232 0.846878 0
M  V30 5561 H 496.672 7.94704 -1.46529 0
M  V30 5562 H 500.258 5.80106 -0.443678 0
M  V30 5563 H 499.138 7.68045 -1.58358 0
M  V30 5564 N 496.642 -0.504142 1.49319 0
M  V30 5565 C 497.888 -1.26033 1.58882 0
M  V30 5566 C 498.221 -1.92268 0.273274 0
M  V30 5567 O 497.496 -1.80567 -0.72291 0
M  V30 5568 C 497.779 -2.32976 2.7458 0
M  V30 5569 C 497.632 -1.71263 4.1592 0
M  V30 5570 C 498.951 -3.34561 2.85932 0
M  V30 5571 H 496.07 -0.456863 0.578312 0
M  V30 5572 H 498.712 -0.558965 1.81592 0
M  V30 5573 H 496.862 -2.92796 2.55348 0
M  V30 5574 H 498.534 -1.15294 4.4666 0
M  V30 5575 H 496.777 -1.01686 4.21714 0
M  V30 5576 H 497.448 -2.48816 4.92742 0
M  V30 5577 H 499.924 -2.84727 3.0343 0
M  V30 5578 H 498.8 -4.06754 3.68568 0
M  V30 5579 H 499.061 -3.96695 1.95154 0
M  V30 5580 N 498.12 -1.38341 -0.754957 0
M  V30 5581 C 499.348 -1.37704 -1.54419 0
M  V30 5582 C 499.763 0.0335243 -1.8877 0
M  V30 5583 O 499.12 0.999773 -1.52679 0
M  V30 5584 C 499.171 -2.23136 -2.84416 0
M  V30 5585 O 498.892 -3.58697 -2.51531 0
M  V30 5586 C 500.393 -2.30664 -3.78562 0
M  V30 5587 H 497.613 -0.471061 -0.477852 0
M  V30 5588 H 500.157 -1.81902 -0.934446 0
M  V30 5589 H 498.312 -1.82403 -3.41772 0
M  V30 5590 H 498.726 -4.03665 -3.34896 0
M  V30 5591 H 500.2 -2.9473 -4.66732 0
M  V30 5592 H 500.677 -1.3199 -4.18898 0
M  V30 5593 H 501.283 -2.71781 -3.27131 0
M  V30 5594 N 499.598 0.982988 -1.23187 0
M  V30 5595 C 500.53 2.07729 -0.968572 0
M  V30 5596 C 501.543 1.62702 0.0564821 0
M  V30 5597 O 502.732 1.77603 -0.178733 0
M  V30 5598 C 499.832 3.36071 -0.436974 0
M  V30 5599 C 499.005 4.10081 -1.52159 0
M  V30 5600 C 498.064 5.16701 -0.99532 0
M  V30 5601 O 497.09 5.43727 -1.68373 0
M  V30 5602 N 498.292 5.80226 0.178192 0
M  V30 5603 H 501.057 2.30894 -1.9107 0
M  V30 5604 H 498.618 1.14949 -1.1401 0
M  V30 5605 H 500.61 4.04639 -0.0700051 0
M  V30 5606 H 499.18 3.09893 0.410509 0
M  V30 5607 H 498.4 3.36004 -2.06144 0
M  V30 5608 H 499.688 4.56295 -2.25105 0
M  V30 5609 H 499.086 5.60651 0.754096 0
M  V30 5610 H 497.643 6.49982 0.486449 0
M  V30 5611 N 501.076 1.04316 1.18135 0
M  V30 5612 C 502.009 0.580823 2.20685 0
M  V30 5613 C 502.987 -0.385943 1.57953 0
M  V30 5614 O 504.171 -0.299654 1.86103 0
M  V30 5615 C 501.298 -0.151162 3.38363 0
M  V30 5616 C 500.344 0.769247 4.19505 0
M  V30 5617 S 501.177 2.25352 4.85774 0
M  V30 5618 C 502.333 1.53246 6.0685 0
M  V30 5619 H 502.566 1.44968 2.5956 0
M  V30 5620 H 500.099 0.85434 1.28609 0
M  V30 5621 H 502.057 -0.567315 4.06561 0
M  V30 5622 H 500.718 -0.995936 2.97892 0
M  V30 5623 H 499.911 0.203335 5.0359 0
M  V30 5624 H 499.513 1.12436 3.56699 0
M  V30 5625 H 501.805 0.82689 6.72435 0
M  V30 5626 H 502.748 2.35044 6.67952 0
M  V30 5627 H 503.156 1.0237 5.5514 0
M  V30 5628 N 502.554 -1.34406 0.822964 0
M  V30 5629 C 503.502 -2.31428 0.233165 0
M  V30 5630 C 504.496 -1.57404 -0.626118 0
M  V30 5631 O 505.702 -1.72402 -0.517453 0
M  V30 5632 H 502.077 -0.749863 0.0566557 0
M  V30 5633 H 504.048 -2.78699 1.06628 0
M  V30 5634 C 502.797 -3.42653 -0.590264 0
M  V30 5635 H 502.12 -3.99753 0.0616129 0
M  V30 5636 H 503.56 -4.12778 -0.969054 0
M  V30 5637 C 502.019 -2.87112 -1.76262 0
M  V30 5638 O 502.549 -2.81995 -2.8608 0
M  V30 5639 N 500.755 -2.43934 -1.57938 0
M  V30 5640 H 500.302 -2.48296 -0.686078 0
M  V30 5641 H 500.26 -2.07123 -2.36532 0
M  V30 5642 N 504.032 -0.577932 -1.46621 0
M  V30 5643 C 504.982 0.178869 -2.27297 0
M  V30 5644 C 505.966 0.866279 -1.35589 0
M  V30 5645 O 507.158 0.761163 -1.59798 0
M  V30 5646 C 504.287 1.19499 -3.2183 0
M  V30 5647 C 503.373 0.50994 -4.21023 0
M  V30 5648 N 503.764 -0.43177 -5.03954 0
M  V30 5649 C 502.062 0.761287 -4.39455 0
M  V30 5650 C 502.763 -0.831693 -5.75724 0
M  V30 5651 N 501.739 -0.181897 -5.43296 0
M  V30 5652 H 505.541 -0.544859 -2.88805 0
M  V30 5653 H 503.055 -0.399373 -1.57413 0
M  V30 5654 H 505.052 1.75131 -3.78332 0
M  V30 5655 H 503.712 1.91959 -2.61881 0
M  V30 5656 H 504.723 -0.807045 -5.11573 0
M  V30 5657 H 501.4 1.47282 -3.90659 0
M  V30 5658 H 502.79 -1.6067 -6.52407 0
M  V30 5659 N 505.51 1.54411 -0.315457 0
M  V30 5660 C 506.759 1.99599 0.290395 0
M  V30 5661 C 507.072 1.20746 1.53882 0
M  V30 5662 O 508.278 1.56272 2.22017 0
M  V30 5663 C 506.734 3.5539 0.56797 0
M  V30 5664 C 506.342 4.43068 -0.662945 0
M  V30 5665 C 508.086 4.09067 1.13422 0
M  V30 5666 C 505.993 5.90317 -0.357722 0
M  V30 5667 H 504.923 0.745592 0.112286 0
M  V30 5668 H 507.574 1.78477 -0.426418 0
M  V30 5669 H 505.956 3.72468 1.34476 0
M  V30 5670 H 507.13 4.37765 -1.43869 0
M  V30 5671 H 505.445 4.00238 -1.14884 0
M  V30 5672 H 508.042 5.16663 1.37707 0
M  V30 5673 H 508.385 3.60552 2.08106 0
M  V30 5674 H 508.918 3.95589 0.418805 0
M  V30 5675 H 505.657 6.4301 -1.27351 0
M  V30 5676 H 505.177 5.98592 0.380472 0
M  V30 5677 H 506.856 6.4699 0.0354284 0
M  V30 5678 N 506.988 0.0434614 1.5754 0
M  V30 5679 C 508.399 -0.493343 1.80064 0
M  V30 5680 C 508.75 -1.71388 0.955023 0
M  V30 5681 O 507.875 -2.15736 0.169434 0
M  V30 5682 C 508.47 -0.90179 3.26578 0
M  V30 5683 C 507.029 -1.38362 3.50047 0
M  V30 5684 C 506.176 -0.355129 2.75017 0
M  V30 5685 H 509.127 0.2694 1.56397 0
M  V30 5686 H 509.148 -1.76523 3.37075 0
M  V30 5687 H 508.66 -0.013271 3.88098 0
M  V30 5688 H 506.761 -2.29159 2.93798 0
M  V30 5689 H 506.874 -1.3811 4.58762 0
M  V30 5690 H 505.238 -0.826348 2.40922 0
M  V30 5691 H 506.021 0.525172 3.39259 0
M  V30 5692 N 508.466 -1.55915 -0.229846 0
M  V30 5693 C 509.399 -1.86734 -1.3117 0
M  V30 5694 C 510.377 -0.723947 -1.45595 0
M  V30 5695 O 511.561 -0.971462 -1.61539 0
M  V30 5696 C 508.688 -2.06707 -2.68309 0
M  V30 5697 C 507.734 -3.2938 -2.70944 0
M  V30 5698 S 508.567 -4.85547 -2.25842 0
M  V30 5699 C 509.723 -5.08546 -3.64873 0
M  V30 5700 H 509.956 -2.78204 -1.04832 0
M  V30 5701 H 507.489 -1.48243 -0.431681 0
M  V30 5702 H 509.447 -2.18898 -3.47267 0
M  V30 5703 H 508.108 -1.16049 -2.91876 0
M  V30 5704 H 507.301 -3.40374 -3.71701 0
M  V30 5705 H 506.903 -3.16004 -2.00044 0
M  V30 5706 H 509.195 -4.96935 -4.60502 0
M  V30 5707 H 510.138 -6.10465 -3.58801 0
M  V30 5708 H 510.546 -4.36314 -3.58176 0
M  V30 5709 N 509.944 0.496216 -1.49584 0
M  V30 5710 C 510.894 1.59422 -1.62999 0
M  V30 5711 C 511.878 1.53402 -0.485457 0
M  V30 5712 O 513.07 1.60851 -0.738649 0
M  V30 5713 C 510.199 2.98009 -1.70427 0
M  V30 5714 C 509.285 3.09008 -2.90473 0
M  V30 5715 N 509.676 2.89884 -4.14489 0
M  V30 5716 C 507.974 3.40115 -2.8851 0
M  V30 5717 C 508.675 3.0519 -4.95211 0
M  V30 5718 N 507.651 3.3428 -4.2867 0
M  V30 5719 H 511.453 1.43297 -2.56599 0
M  V30 5720 H 508.967 0.702443 -1.46422 0
M  V30 5721 H 510.964 3.76926 -1.78136 0
M  V30 5722 H 509.624 3.152 -0.77967 0
M  V30 5723 H 510.635 2.65963 -4.44392 0
M  V30 5724 H 507.312 3.63452 -2.05448 0
M  V30 5725 H 508.702 2.94856 -6.03746 0
M  V30 5726 N 511.423 1.38739 0.74761 0
M  V30 5727 C 512.672 1.3459 1.50228 0
M  V30 5728 C 512.985 -0.0595592 1.95509 0
M  V30 5729 O 514.191 -0.22361 2.70578 0
M  V30 5730 C 512.647 2.36377 2.71393 0
M  V30 5731 C 512.255 3.82573 2.33113 0
M  V30 5732 C 513.999 2.41281 3.49262 0
M  V30 5733 C 511.906 4.76032 3.50924 0
M  V30 5734 H 510.836 0.500312 0.564096 0
M  V30 5735 H 513.487 1.64324 0.8167 0
M  V30 5736 H 511.869 1.99694 3.41962 0
M  V30 5737 H 513.043 4.28227 1.70171 0
M  V30 5738 H 511.358 3.80844 1.68365 0
M  V30 5739 H 513.955 3.08301 4.36869 0
M  V30 5740 H 514.298 1.43353 3.9084 0
M  V30 5741 H 514.831 2.76793 2.85711 0
M  V30 5742 H 511.57 5.75177 3.14408 0
M  V30 5743 H 511.09 4.35066 4.12889 0
M  V30 5744 H 512.769 4.94331 4.17427 0
M  V30 5745 N 512.901 -0.976442 1.23707 0
M  V30 5746 C 514.178 -1.69296 0.979699 0
M  V30 5747 C 514.558 -2.0508 -0.500555 0
M  V30 5748 O 513.906 -1.74708 -1.47273 0
M  V30 5749 C 514.116 -2.93143 1.89389 0
M  V30 5750 C 515.464 -3.65572 2.15968 0
M  V30 5751 O 516.488 -3.03184 1.86971 0
M  V30 5752 O 515.347 -4.77859 2.65167 0
M  V30 5753 H 512.441 -0.739708 0.369812 0
M  V30 5754 H 514.987 -1.03131 1.34767 0
M  V30 5755 H 513.759 -2.63327 2.89439 0
M  V30 5756 H 513.382 -3.67044 1.52854 0
M  V30 5757 N 514.379 -1.04941 -1.1758 0
M  V30 5758 C 515.329 -0.618378 -2.19454 0
M  V30 5759 C 516.313 0.343813 -1.57184 0
M  V30 5760 O 517.505 0.16145 -1.76262 0
M  V30 5761 C 514.634 0.00803847 -3.43299 0
M  V30 5762 C 513.72 -0.977827 -4.12673 0
M  V30 5763 N 514.111 -2.14826 -4.57912 0
M  V30 5764 C 512.409 -0.805748 -4.38661 0
M  V30 5765 C 513.11 -2.77174 -5.11419 0
M  V30 5766 N 512.086 -2.04989 -5.03468 0
M  V30 5767 H 515.888 -1.51018 -2.52132 0
M  V30 5768 H 513.402 -0.919201 -1.33882 0
M  V30 5769 H 515.399 0.334584 -4.15555 0
M  V30 5770 H 514.059 0.895272 -3.12114 0
M  V30 5771 H 515.07 -2.52673 -4.52081 0
M  V30 5772 H 511.747 0.0306506 -4.17489 0
M  V30 5773 H 513.137 -3.76416 -5.56562 0
M  V30 5774 N 515.857 1.33968 -0.830081 0
M  V30 5775 C 517.134 1.92554 -0.343858 0
M  V30 5776 C 517.514 1.7573 1.16971 0
M  V30 5777 O 516.862 1.14035 1.98011 0
M  V30 5778 C 517.072 3.40147 -0.781073 0
M  V30 5779 C 518.42 4.17299 -0.78402 0
M  V30 5780 O 519.444 3.48762 -0.724112 0
M  V30 5781 O 518.303 5.39631 -0.863739 0
M  V30 5782 H 515.397 0.821469 -0.0954827 0
M  V30 5783 H 517.943 1.42897 -0.915348 0
M  V30 5784 H 516.715 3.46225 -1.82329 0
M  V30 5785 H 516.338 3.97166 -0.18567 0
M  V30 5786 N 517.335 0.585699 1.46312 0
M  V30 5787 C 518.751 0.247607 1.57668 0
M  V30 5788 C 518.951 -1.25007 1.58037 0
M  V30 5789 O 518.007 -2.03196 1.49893 0
M  V30 5790 C 519.32 0.899456 2.86933 0
M  V30 5791 C 520.868 0.873326 3.00569 0
M  V30 5792 C 521.343 1.50477 4.32574 0
M  V30 5793 N 522.834 1.46925 4.3928 0
M  V30 5794 C 523.569 1.92719 5.40044 0
M  V30 5795 N 523.065 2.46499 6.47464 0
M  V30 5796 N 524.858 1.83617 5.31264 0
M  V30 5797 H 517.009 1.55841 1.44317 0
M  V30 5798 H 519.272 0.651564 0.688599 0
M  V30 5799 H 518.978 1.95313 2.92482 0
M  V30 5800 H 518.852 0.409476 3.74971 0
M  V30 5801 H 521.239 -0.171736 2.946 0
M  V30 5802 H 521.32 1.40136 2.13999 0
M  V30 5803 H 520.964 2.54905 4.39302 0
M  V30 5804 H 520.894 0.951944 5.17924 0
M  V30 5805 H 523.385 1.07616 3.62253 0
M  V30 5806 H 523.698 2.79291 7.20567 0
M  V30 5807 H 522.043 2.50526 6.48276 0
M  V30 5808 H 525.234 1.41358 4.46246 0
M  V30 5809 H 525.407 2.19622 6.09648 0
M  V30 5810 N 518.813 -1.54241 0.323641 0
M  V30 5811 C 519.761 -2.25813 -0.557804 0
M  V30 5812 C 520.755 -1.27225 -1.11849 0
M  V30 5813 O 521.961 -1.45001 -1.06652 0
M  V30 5814 H 518.336 -0.72532 -0.198532 0
M  V30 5815 H 520.307 -2.98322 0.0681112 0
M  V30 5816 C 519.056 -3.02913 -1.70701 0
M  V30 5817 H 518.379 -3.78593 -1.28482 0
M  V30 5818 H 519.819 -3.56238 -2.29935 0
M  V30 5819 C 518.278 -2.11217 -2.62467 0
M  V30 5820 O 518.808 -1.69508 -3.64184 0
M  V30 5821 N 517.014 -1.76704 -2.30703 0
M  V30 5822 H 516.561 -2.1082 -1.48029 0
M  V30 5823 H 516.519 -1.15631 -2.92364 0
M  V30 5824 N 520.291 -0.0518155 -1.57515 0
M  V30 5825 C 521.224 0.957758 -2.07129 0
M  V30 5826 C 522.202 1.30355 -0.971927 0
M  V30 5827 O 523.386 1.41631 -1.2439 0
M  V30 5828 C 520.513 2.27157 -2.51232 0
M  V30 5829 C 519.559 2.07879 -3.72409 0
M  V30 5830 S 520.392 1.35656 -5.18033 0
M  V30 5831 C 521.548 2.68359 -5.65451 0
M  V30 5832 H 521.781 0.53552 -2.92437 0
M  V30 5833 H 519.314 0.160465 -1.53564 0
M  V30 5834 H 521.272 3.02676 -2.77304 0
M  V30 5835 H 519.933 2.66509 -1.66228 0
M  V30 5836 H 519.126 3.05061 -4.01191 0
M  V30 5837 H 518.728 1.40499 -3.46606 0
M  V30 5838 H 521.02 3.64526 -5.71076 0
M  V30 5839 H 521.963 2.44213 -6.64654 0
M  V30 5840 H 522.371 2.74647 -4.93183 0
M  V30 5841 N 521.769 1.56035 0.221574 0
M  V30 5842 C 523.046 1.69837 0.970301 0
M  V30 5843 C 523.426 0.599065 2.02421 0
M  V30 5844 O 522.774 -0.393929 2.25079 0
M  V30 5845 C 522.984 3.11148 1.58076 0
M  V30 5846 C 524.332 3.70555 2.07302 0
M  V30 5847 O 525.356 3.14109 1.6797 0
M  V30 5848 O 524.215 4.69562 2.79596 0
M  V30 5849 H 521.309 0.691727 0.453257 0
M  V30 5850 H 523.855 1.68353 0.213358 0
M  V30 5851 H 522.627 3.82617 0.819759 0
M  V30 5852 H 522.25 3.16749 2.40324 0
M  V30 5853 N 523.247 -0.488276 1.49845 0
M  V30 5854 C 524.493 -1.24065 1.61182 0
M  V30 5855 C 524.848 -1.9004 0.300435 0
M  V30 5856 O 524.141 -1.78341 -0.700365 0
M  V30 5857 C 524.335 -2.32152 2.71735 0
M  V30 5858 C 524.164 -1.76778 4.13497 0
M  V30 5859 C 522.934 -1.57513 4.80123 0
M  V30 5860 C 525.132 -1.27242 4.98311 0
M  V30 5861 N 523.114 -0.972015 6.06156 0
M  V30 5862 C 524.485 -0.791457 6.14928 0
M  V30 5863 C 526.54 -1.15934 4.84214 0
M  V30 5864 C 525.243 -0.208593 7.18997 0
M  V30 5865 C 527.269 -0.590436 5.88445 0
M  V30 5866 C 526.631 -0.119767 7.04298 0
M  V30 5867 H 522.73 -0.443487 0.644083 0
M  V30 5868 H 525.314 -0.545551 1.86901 0
M  V30 5869 H 523.485 -2.99108 2.47768 0
M  V30 5870 H 525.217 -2.99187 2.72523 0
M  V30 5871 H 521.972 -1.82247 4.37131 0
M  V30 5872 H 522.396 -0.689367 6.73481 0
M  V30 5873 H 527.038 -1.5092 3.94947 0
M  V30 5874 H 524.756 0.153501 8.07954 0
M  V30 5875 H 528.342 -0.505548 5.79599 0
M  V30 5876 H 527.222 0.313568 7.83573 0
M  V30 5877 N 524.725 -1.39134 -0.740242 0
M  V30 5878 C 525.971 -1.36273 -1.50192 0
M  V30 5879 C 526.304 0.0430136 -1.94152 0
M  V30 5880 O 525.579 1.00691 -1.66408 0
M  V30 5881 C 525.862 -2.33041 -2.74525 0
M  V30 5882 C 525.715 -3.82535 -2.36617 0
M  V30 5883 C 527.034 -2.27723 -3.76604 0
M  V30 5884 H 524.153 -0.496323 -0.544823 0
M  V30 5885 H 526.795 -1.70085 -0.846815 0
M  V30 5886 H 524.945 -2.04337 -3.30422 0
M  V30 5887 H 526.617 -4.21967 -1.86391 0
M  V30 5888 H 524.86 -3.99565 -1.68909 0
M  V30 5889 H 525.531 -4.45723 -3.2563 0
M  V30 5890 H 528.007 -2.53091 -3.30279 0
M  V30 5891 H 526.883 -2.97519 -4.61274 0
M  V30 5892 H 527.144 -1.28049 -4.2315 0
M  V30 5893 N 526.204 0.969867 -1.24223 0
M  V30 5894 C 527.429 1.75289 -1.10853 0
M  V30 5895 C 527.854 1.85091 0.335079 0
M  V30 5896 O 527.212 1.32024 1.24255 0
M  V30 5897 C 527.26 3.15255 -1.75062 0
M  V30 5898 O 526.364 3.99589 -1.01992 0
M  V30 5899 H 525.705 0.538904 -0.387915 0
M  V30 5900 H 528.235 1.21675 -1.64488 0
M  V30 5901 H 528.245 3.65787 -1.80731 0
M  V30 5902 H 526.92 3.07436 -2.801 0
M  V30 5903 H 525.497 3.58077 -1.04094 0
M  V30 5904 N 527.682 1.05563 1.17022 0
M  V30 5905 C 528.91 0.78845 1.91288 0
M  V30 5906 C 529.325 -0.656318 1.77025 0
M  V30 5907 O 528.682 -1.44869 1.10992 0
M  V30 5908 C 528.733 1.16444 3.42232 0
M  V30 5909 O 528.454 2.5525 3.5606 0
M  V30 5910 C 529.955 0.923937 4.33565 0
M  V30 5911 H 527.175 0.286389 0.606813 0
M  V30 5912 H 529.719 1.4073 1.48375 0
M  V30 5913 H 527.874 0.590266 3.82877 0
M  V30 5914 H 528.288 2.70097 4.49609 0
M  V30 5915 H 529.762 1.23672 5.37968 0
M  V30 5916 H 530.239 -0.140688 4.38975 0
M  V30 5917 H 530.845 1.48214 3.98639 0
M  V30 5918 N 529.16 -1.33526 0.837174 0
M  V30 5919 C 530.092 -2.28077 0.226579 0
M  V30 5920 C 531.105 -1.51666 -0.591717 0
M  V30 5921 O 532.294 -1.73511 -0.419064 0
M  V30 5922 C 529.394 -3.31597 -0.69978 0
M  V30 5923 C 528.567 -4.37329 0.0788067 0
M  V30 5924 C 527.626 -5.20526 -0.770637 0
M  V30 5925 O 526.652 -5.68811 -0.210453 0
M  V30 5926 N 527.854 -5.41639 -2.08825 0
M  V30 5927 H 530.619 -2.81115 1.03897 0
M  V30 5928 H 528.18 -1.46201 0.695476 0
M  V30 5929 H 530.172 -3.84158 -1.27298 0
M  V30 5930 H 528.742 -2.78848 -1.41288 0
M  V30 5931 H 527.962 -3.8529 0.833381 0
M  V30 5932 H 529.25 -5.05079 0.614238 0
M  V30 5933 H 528.648 -5.04108 -2.56693 0
M  V30 5934 H 527.205 -5.97263 -2.60998 0
M  V30 5935 N 530.638 -0.59345 -1.46 0
M  V30 5936 C 531.568 0.121192 -2.33185 0
M  V30 5937 C 532.549 0.872977 -1.4599 0
M  V30 5938 O 533.734 0.846321 -1.74789 0
M  V30 5939 C 530.864 1.12844 -3.28456 0
M  V30 5940 C 529.818 0.4908 -4.25177 0
M  V30 5941 C 529.144 1.60529 -5.10034 0
M  V30 5942 C 530.444 -0.578949 -5.19081 0
M  V30 5943 H 532.138 -0.606767 -2.93187 0
M  V30 5944 H 529.684 -0.293242 -1.40983 0
M  V30 5945 H 531.637 1.63684 -3.88311 0
M  V30 5946 H 530.361 1.88681 -2.66584 0
M  V30 5947 H 529.02 0.00339328 -3.666 0
M  V30 5948 H 528.668 2.35359 -4.44539 0
M  V30 5949 H 528.368 1.18422 -5.75543 0
M  V30 5950 H 529.892 2.11623 -5.72755 0
M  V30 5951 H 531.306 -0.155199 -5.7309 0
M  V30 5952 H 529.703 -0.920947 -5.92991 0
M  V30 5953 H 530.773 -1.46109 -4.62364 0
M  V30 5954 N 532.116 1.54067 -0.331816 0
M  V30 5955 C 533.048 2.22139 0.564538 0
M  V30 5956 C 534.061 1.22408 1.07332 0
M  V30 5957 O 535.25 1.4883 0.985481 0
M  V30 5958 C 532.35 2.87876 1.78831 0
M  V30 5959 C 531.523 4.13817 1.41682 0
M  V30 5960 C 530.582 4.63072 2.49901 0
M  V30 5961 O 529.608 5.27562 2.13699 0
M  V30 5962 N 530.81 4.38001 3.80967 0
M  V30 5963 H 533.575 2.99694 -0.0183736 0
M  V30 5964 H 531.136 1.61153 -0.155396 0
M  V30 5965 H 533.128 3.17747 2.50637 0
M  V30 5966 H 531.698 2.13977 2.27887 0
M  V30 5967 H 530.918 3.9062 0.530044 0
M  V30 5968 H 532.206 4.95762 1.14443 0
M  V30 5969 H 531.604 3.864 4.13173 0
M  V30 5970 H 530.161 4.72507 4.48977 0
M  V30 5971 N 533.594 0.0601682 1.57485 0
M  V30 5972 C 534.557 -0.896373 2.10945 0
M  V30 5973 C 535.557 -1.23402 1.03095 0
M  V30 5974 O 536.747 -1.16921 1.29132 0
M  V30 5975 C 533.879 -2.20346 2.60116 0
M  V30 5976 H 535.072 -0.432778 2.96761 0
M  V30 5977 H 532.625 -0.188372 1.55161 0
M  V30 5978 H 533.36 -2.71268 1.7772 0
M  V30 5979 H 533.145 -1.9714 3.38937 0
M  V30 5980 H 534.635 -2.88846 3.01592 0
M  V30 5981 N 535.072 -1.5615 -0.213296 0
M  V30 5982 C 536.3 -1.83638 -0.953139 0
M  V30 5983 C 536.715 -0.640362 -1.77609 0
M  V30 5984 O 536.072 0.391071 -1.78261 0
M  V30 5985 C 536.123 -3.09735 -1.86405 0
M  V30 5986 O 535.844 -4.24723 -1.07435 0
M  V30 5987 C 537.345 -3.5027 -2.71709 0
M  V30 5988 H 534.565 -0.610263 -0.278962 0
M  V30 5989 H 537.109 -2.03247 -0.226035 0
M  V30 5990 H 535.264 -2.92077 -2.545 0
M  V30 5991 H 535.678 -4.9641 -1.69343 0
M  V30 5992 H 537.152 -4.41515 -3.31313 0
M  V30 5993 H 537.629 -2.72406 -3.44516 0
M  V30 5994 H 538.235 -3.70396 -2.09015 0
M  V30 5995 N 536.55 0.480323 -1.50102 0
M  V30 5996 C 537.79 1.24301 -1.62261 0
M  V30 5997 C 538.154 1.89452 -0.311758 0
M  V30 5998 O 539.355 2.67022 -0.308696 0
M  V30 5999 C 537.626 2.26588 -2.76392 0
M  V30 6000 S 539.185 3.11919 -3.08629 0
M  V30 6001 H 536.003 0.42215 -0.57211 0
M  V30 6002 H 538.605 0.541591 -1.87848 0
M  V30 6003 H 537.309 1.7729 -3.70131 0
M  V30 6004 H 536.84 3.01371 -2.52862 0
M  V30 6005 H 538.855 4.27598 -2.51742 0
M  V30 6006 N 538.028 1.39524 0.732853 0
M  V30 6007 C 538.976 1.38563 1.86824 0
M  V30 6008 C 539.97 0.268467 1.67259 0
M  V30 6009 O 541.176 0.438613 1.74574 0
M  V30 6010 H 537.551 0.432737 0.615014 0
M  V30 6011 H 539.522 2.34328 1.84751 0
M  V30 6012 C 538.271 1.2481 3.24527 0
M  V30 6013 H 537.594 2.10044 3.40179 0
M  V30 6014 H 539.034 1.28194 4.04156 0
M  V30 6015 C 537.493 -0.0432825 3.36872 0
M  V30 6016 O 538.023 -1.01268 3.88726 0
M  V30 6017 N 536.229 -0.107055 2.90403 0
M  V30 6018 H 535.776 0.682512 2.48394 0
M  V30 6019 H 535.734 -0.970618 2.99042 0
M  V30 6020 N 539.506 -0.963266 1.24736 0
M  V30 6021 C 540.752 -1.70933 1.09131 0
M  V30 6022 C 541.085 -1.90676 -0.368273 0
M  V30 6023 O 540.36 -1.47147 -1.27193 0
M  V30 6024 C 540.643 -3.09744 1.83658 0
M  V30 6025 C 540.496 -2.97465 3.37394 0
M  V30 6026 C 541.815 -4.09483 1.61282 0
M  V30 6027 H 538.934 -0.620398 0.397838 0
M  V30 6028 H 541.576 -1.12028 1.53459 0
M  V30 6029 H 539.726 -3.60031 1.4598 0
M  V30 6030 H 541.398 -2.54571 3.84696 0
M  V30 6031 H 539.641 -2.33576 3.65547 0
M  V30 6032 H 540.312 -3.95822 3.84745 0
M  V30 6033 H 542.788 -3.68073 1.94066 0
M  V30 6034 H 541.664 -5.04666 2.15878 0
M  V30 6035 H 541.925 -4.38639 0.552102 0
M  V30 6036 N 540.985 -1.06182 -1.16461 0
M  V30 6037 C 541.935 -0.641619 -2.18786 0
M  V30 6038 C 542.919 0.327122 -1.5754 0
M  V30 6039 O 544.111 0.142746 -1.76423 0
M  V30 6040 C 541.24 -0.0283734 -3.43288 0
M  V30 6041 C 540.326 -1.02154 -4.11613 0
M  V30 6042 N 540.717 -2.19671 -4.55608 0
M  V30 6043 C 539.015 -0.852229 -4.37782 0
M  V30 6044 C 539.716 -2.82583 -5.0845 0
M  V30 6045 N 538.692 -2.10318 -5.01266 0
M  V30 6046 H 542.494 -1.53684 -2.50516 0
M  V30 6047 H 540.008 -0.933349 -1.329 0
M  V30 6048 H 542.005 0.29049 -4.15887 0
M  V30 6049 H 540.665 0.862118 -3.13046 0
M  V30 6050 H 541.676 -2.57453 -4.49375 0
M  V30 6051 H 538.353 -0.0136314 -4.17498 0
M  V30 6052 H 539.743 -3.82298 -5.52538 0
M  V30 6053 N 542.463 1.3308 -0.844243 0
M  V30 6054 C 543.41 2.29104 -0.279323 0
M  V30 6055 C 544.38 1.54577 0.607882 0
M  V30 6056 O 545.565 1.8285 0.545009 0
M  V30 6057 C 542.705 3.40927 0.53508 0
M  V30 6058 C 541.818 4.30354 -0.376749 0
M  V30 6059 C 540.953 5.29297 0.449276 0
M  V30 6060 C 539.992 6.10365 -0.460606 0
M  V30 6061 N 539.129 7.01335 0.327612 0
M  V30 6062 H 543.969 2.76817 -1.10346 0
M  V30 6063 H 541.506 1.36203 -0.555611 0
M  V30 6064 H 543.464 4.04469 1.02278 0
M  V30 6065 H 542.094 2.94391 1.32414 0
M  V30 6066 H 541.146 3.67485 -0.982791 0
M  V30 6067 H 542.458 4.87067 -1.07549 0
M  V30 6068 H 541.612 5.98392 1.00058 0
M  V30 6069 H 540.351 4.73174 1.18143 0
M  V30 6070 H 539.356 5.40182 -1.02388 0
M  V30 6071 H 540.581 6.68571 -1.1912 0
M  V30 6072 H 538.527 6.47655 1.04305 0
M  V30 6073 H 538.444 7.55355 -0.3123 0
M  V30 6074 H 539.712 7.74731 0.86098 0
M  V30 6075 N 543.941 0.601185 1.45683 0
M  V30 6076 C 545.166 0.0982245 2.07167 0
M  V30 6077 C 545.591 -1.20546 1.44396 0
M  V30 6078 O 544.949 -1.73247 0.534347 0
M  V30 6079 C 544.997 -0.0346976 3.60583 0
M  V30 6080 O 544.101 -1.08657 3.97828 0
M  V30 6081 H 543.442 0.0711618 0.660176 0
M  V30 6082 H 545.972 0.829376 1.87036 0
M  V30 6083 H 545.982 -0.234969 4.07323 0
M  V30 6084 H 544.657 0.917265 4.05659 0
M  V30 6085 H 543.234 -0.863275 3.6277 0
M  V30 6086 N 545.419 -1.53889 0.339982 0
M  V30 6087 C 546.382 -2.23547 -0.50592 0
M  V30 6088 C 547.382 -1.23445 -1.03044 0
M  V30 6089 O 548.572 -1.47909 -0.920253 0
M  V30 6090 C 545.704 -2.95234 -1.7044 0
M  V30 6091 H 546.897 -2.99722 0.103247 0
M  V30 6092 H 544.45 -1.56033 0.0912804 0
M  V30 6093 H 545.185 -2.23236 -2.35236 0
M  V30 6094 H 544.97 -3.68654 -1.33553 0
M  V30 6095 H 546.46 -3.48258 -2.30447 0
M  V30 6096 N 546.897 -0.0685191 -1.57451 0
M  V30 6097 C 548.144 0.601348 -1.93365 0
M  V30 6098 C 548.472 1.69816 -0.948294 0
M  V30 6099 O 547.727 1.95666 0.0366199 0
M  V30 6100 C 548.026 1.22051 -3.35914 0
M  V30 6101 C 547.692 0.250165 -4.50205 0
M  V30 6102 C 546.354 -0.0167954 -4.81197 0
M  V30 6103 C 548.706 -0.413867 -5.19554 0
M  V30 6104 C 546.034 -0.95493 -5.78876 0
M  V30 6105 C 548.386 -1.3403 -6.18238 0
M  V30 6106 C 547.05 -1.61576 -6.47649 0
M  V30 6107 H 546.32 0.220049 -0.707573 0
M  V30 6108 H 548.967 -0.138697 -1.90997 0
M  V30 6109 H 547.272 2.03622 -3.34732 0
M  V30 6110 H 548.969 1.74605 -3.6099 0
M  V30 6111 H 545.559 0.468421 -4.26033 0
M  V30 6112 H 549.743 -0.220733 -4.95809 0
M  V30 6113 H 544.999 -1.17563 -5.99991 0
M  V30 6114 H 549.173 -1.86081 -6.71079 0
M  V30 6115 H 546.8 -2.34431 -7.2315 0
M  V30 6116 N 548.375 1.56261 0.205012 0
M  V30 6117 C 549.323 1.94631 1.27364 0
M  V30 6118 C 550.317 0.830434 1.47649 0
M  V30 6119 O 551.523 1.01538 1.48627 0
M  V30 6120 H 547.898 0.618755 0.427371 0
M  V30 6121 H 549.869 2.83768 0.922941 0
M  V30 6122 C 548.618 2.29358 2.61324 0
M  V30 6123 H 547.941 3.14744 2.46528 0
M  V30 6124 H 549.381 2.60076 3.34868 0
M  V30 6125 C 547.84 1.12461 3.17575 0
M  V30 6126 O 548.37 0.394407 3.99759 0
M  V30 6127 N 546.576 0.904036 2.7618 0
M  V30 6128 H 546.123 1.49956 2.09454 0
M  V30 6129 H 546.081 0.123662 3.14157 0
M  V30 6130 N 549.853 -0.472356 1.50355 0
M  V30 6131 C 551.13 -1.23356 1.51798 0
M  V30 6132 C 551.51 -2.09469 0.26193 0
M  V30 6133 O 550.858 -2.15677 -0.754691 0
M  V30 6134 C 551.068 -2.06568 2.81302 0
M  V30 6135 C 552.416 -2.648 3.31913 0
M  V30 6136 O 553.44 -2.16812 2.82614 0
M  V30 6137 O 552.299 -3.52231 4.17846 0
M  V30 6138 H 549.393 -0.559707 0.608816 0
M  V30 6139 H 551.939 -0.48428 1.62643 0
M  V30 6140 H 550.711 -1.43103 3.64194 0
M  V30 6141 H 550.334 -2.88633 2.73454 0
M  V30 6142 N 551.331 -1.39911 -0.725443 0
M  V30 6143 C 552.577 -1.38862 -1.48624 0
M  V30 6144 C 552.932 0.0125913 -1.92396 0
M  V30 6145 O 552.225 0.981046 -1.64578 0
M  V30 6146 C 552.419 -2.30368 -2.7325 0
M  V30 6147 C 552.248 -3.79247 -2.41665 0
M  V30 6148 C 551.018 -4.48119 -2.3349 0
M  V30 6149 C 553.216 -4.70988 -2.06579 0
M  V30 6150 N 551.198 -5.82282 -1.94476 0
M  V30 6151 C 552.569 -5.93873 -1.78087 0
M  V30 6152 C 554.624 -4.58917 -1.9313 0
M  V30 6153 C 553.327 -7.06036 -1.37499 0
M  V30 6154 C 555.353 -5.71012 -1.53946 0
M  V30 6155 C 554.715 -6.92976 -1.26345 0
M  V30 6156 H 550.814 -0.563394 -0.54232 0
M  V30 6157 H 553.398 -1.75542 -0.842213 0
M  V30 6158 H 551.569 -1.95831 -3.35417 0
M  V30 6159 H 553.301 -2.20245 -3.39521 0
M  V30 6160 H 550.056 -4.01677 -2.50904 0
M  V30 6161 H 550.48 -6.53307 -1.77535 0
M  V30 6162 H 555.122 -3.65149 -2.13134 0
M  V30 6163 H 552.84 -7.99697 -1.16237 0
M  V30 6164 H 556.426 -5.63664 -1.44132 0
M  V30 6165 H 555.306 -7.78243 -0.964787 0
M  V30 6166 N 552.809 0.956637 -1.25245 0
M  V30 6167 C 554.056 1.701 -1.09874 0
M  V30 6168 C 554.384 1.91128 0.36062 0
M  V30 6169 O 553.639 1.47837 1.28229 0
M  V30 6170 C 553.938 3.08996 -1.79601 0
M  V30 6171 C 553.604 3.07774 -3.29523 0
M  V30 6172 C 552.266 3.07149 -3.70423 0
M  V30 6173 C 554.618 3.01257 -4.25316 0
M  V30 6174 C 551.946 2.97752 -5.0553 0
M  V30 6175 C 554.298 2.93403 -5.60444 0
M  V30 6176 C 552.962 2.91111 -6.00675 0
M  V30 6177 H 552.232 0.62244 -0.402056 0
M  V30 6178 H 554.879 1.1178 -1.55491 0
M  V30 6179 H 553.184 3.70848 -1.26408 0
M  V30 6180 H 554.881 3.65407 -1.65162 0
M  V30 6181 H 551.471 3.09032 -2.9698 0
M  V30 6182 H 555.655 3.00861 -3.9471 0
M  V30 6183 H 550.911 2.94346 -5.35883 0
M  V30 6184 H 555.085 2.87321 -6.34366 0
M  V30 6185 H 552.712 2.83586 -7.05325 0
M  V30 6186 N 554.287 1.06798 1.15896 0
M  V30 6187 C 555.512 0.808739 1.90982 0
M  V30 6188 C 555.937 -0.6316 1.77179 0
M  V30 6189 O 555.295 -1.4407 1.10061 0
M  V30 6190 C 555.343 1.21468 3.39526 0
M  V30 6191 O 554.447 0.356562 4.10856 0
M  V30 6192 H 553.788 0.29512 0.594811 0
M  V30 6193 H 556.318 1.42513 1.46804 0
M  V30 6194 H 556.328 1.18844 3.90308 0
M  V30 6195 H 555.003 2.26379 3.48891 0
M  V30 6196 H 553.58 0.444808 3.70238 0
M  V30 6197 N 555.766 -1.3263 0.851289 0
M  V30 6198 C 557.014 -1.96978 0.452128 0
M  V30 6199 C 557.335 -1.67715 -0.99482 0
M  V30 6200 O 556.605 -0.98259 -1.69476 0
M  V30 6201 H 555.185 -0.72873 0.164202 0
M  V30 6202 H 557.847 -1.61774 1.08698 0
M  V30 6203 H 556.943 -3.06387 0.594407 0
M  V30 6204 N 557.244 -0.608902 -1.45362 0
M  V30 6205 C 558.194 0.130616 -2.27626 0
M  V30 6206 C 559.178 0.837323 -1.37396 0
M  V30 6207 O 560.37 0.727096 -1.61376 0
M  V30 6208 C 557.499 1.12646 -3.24293 0
M  V30 6209 C 556.585 0.42052 -4.2201 0
M  V30 6210 N 556.976 -0.538569 -5.02925 0
M  V30 6211 C 555.274 0.667901 -4.40971 0
M  V30 6212 C 555.975 -0.953625 -5.7383 0
M  V30 6213 N 554.951 -0.297097 -5.42788 0
M  V30 6214 H 558.753 -0.605996 -2.87585 0
M  V30 6215 H 556.267 -0.432672 -1.5653 0
M  V30 6216 H 558.264 1.67066 -3.81961 0
M  V30 6217 H 556.924 1.86361 -2.65894 0
M  V30 6218 H 557.935 -0.915375 -5.09746 0
M  V30 6219 H 554.612 1.38963 -3.93695 0
M  V30 6220 H 556.002 -1.74473 -6.48852 0
M  V30 6221 N 558.722 1.53707 -0.348139 0
M  V30 6222 C 559.652 2.28111 0.498766 0
M  V30 6223 C 560.633 1.29851 1.09876 0
M  V30 6224 O 561.818 1.587 1.11928 0
M  V30 6225 C 558.948 3.05735 1.64753 0
M  V30 6226 C 557.902 4.11537 1.17565 0
M  V30 6227 C 557.228 4.77142 2.4133 0
M  V30 6228 C 558.528 5.21587 0.272844 0
M  V30 6229 H 560.222 2.99152 -0.121934 0
M  V30 6230 H 557.768 1.43875 -0.0600842 0
M  V30 6231 H 559.721 3.56526 2.24649 0
M  V30 6232 H 558.445 2.32354 2.2952 0
M  V30 6233 H 557.104 3.61665 0.599483 0
M  V30 6234 H 556.752 4.0035 3.04514 0
M  V30 6235 H 556.452 5.48626 2.10436 0
M  V30 6236 H 557.976 5.30719 3.01943 0
M  V30 6237 H 559.39 5.67986 0.778779 0
M  V30 6238 H 557.787 6.00074 0.0555849 0
M  V30 6239 H 558.857 4.79969 -0.689785 0
M  V30 6240 N 560.2 0.0768682 1.57412 0
M  V30 6241 C 561.148 -0.906229 2.1422 0
M  V30 6242 C 562.142 -1.30477 1.08037 0
M  V30 6243 O 563.348 -1.28143 1.2641 0
M  V30 6244 H 559.723 -0.310207 0.685037 0
M  V30 6245 H 561.694 -0.402228 2.95677 0
M  V30 6246 C 560.443 -2.16245 2.72274 0
M  V30 6247 H 559.766 -1.86463 3.53655 0
M  V30 6248 H 561.206 -2.83134 3.15613 0
M  V30 6249 C 559.665 -2.92437 1.67279 0
M  V30 6250 O 560.195 -3.86322 1.10081 0
M  V30 6251 N 558.401 -2.55637 1.38195 0
M  V30 6252 H 557.948 -1.79363 1.84897 0
M  V30 6253 H 557.906 -3.06919 0.681787 0
M  V30 6254 N 561.678 -1.56367 -0.196722 0
M  V30 6255 C 562.925 -1.80529 -0.917366 0
M  V30 6256 C 563.253 -0.649817 -1.83324 0
M  V30 6257 O 562.508 0.36451 -1.92275 0
M  V30 6258 C 562.807 -3.10663 -1.767 0
M  V30 6259 C 562.473 -4.3962 -1.00225 0
M  V30 6260 C 561.135 -4.74653 -0.791095 0
M  V30 6261 C 563.487 -5.1913 -0.464035 0
M  V30 6262 C 560.815 -5.86692 -0.0302155 0
M  V30 6263 C 563.167 -6.31964 0.283625 0
M  V30 6264 C 561.831 -6.65581 0.505813 0
M  V30 6265 H 561.101 -0.660602 -0.335688 0
M  V30 6266 H 563.748 -1.90615 -0.183844 0
M  V30 6267 H 562.053 -2.95807 -2.56915 0
M  V30 6268 H 563.75 -3.26563 -2.32718 0
M  V30 6269 H 560.34 -4.12127 -1.17684 0
M  V30 6270 H 564.524 -4.9248 -0.614575 0
M  V30 6271 H 559.78 -6.11211 0.151917 0
M  V30 6272 H 563.954 -6.92791 0.708057 0
M  V30 6273 H 561.581 -7.52239 1.0973 0
M  V30 6274 N 563.156 0.464375 -1.50603 0
M  V30 6275 C 564.088 1.57916 -1.66118 0
M  V30 6276 C 565.101 1.53497 -0.54246 0
M  V30 6277 O 566.29 1.58763 -0.815877 0
M  V30 6278 C 563.39 2.96809 -1.63577 0
M  V30 6279 C 562.563 3.26026 -2.91592 0
M  V30 6280 C 561.622 4.44506 -2.81604 0
M  V30 6281 O 560.648 4.44484 -3.55559 0
M  V30 6282 N 561.85 5.46549 -1.95614 0
M  V30 6283 H 564.615 1.45022 -2.62276 0
M  V30 6284 H 562.176 0.652903 -1.48151 0
M  V30 6285 H 564.168 3.74048 -1.54499 0
M  V30 6286 H 562.738 3.03438 -0.751262 0
M  V30 6287 H 561.958 2.37337 -3.14746 0
M  V30 6288 H 563.246 3.42361 -3.76386 0
M  V30 6289 H 562.644 5.49391 -1.34854 0
M  V30 6290 H 561.201 6.22746 -1.92435 0
M  V30 6291 N 564.634 1.40294 0.718013 0
M  V30 6292 C 565.883 1.37746 1.4734 0
M  V30 6293 C 566.196 -0.0180754 1.95592 0
M  V30 6294 O 567.402 -0.166166 2.70991 0
M  V30 6295 C 565.858 2.4208 2.66318 0
M  V30 6296 C 565.466 3.87432 2.24945 0
M  V30 6297 C 567.21 2.48635 3.44065 0
M  V30 6298 C 565.117 4.83368 3.40748 0
M  V30 6299 H 564.047 0.512165 0.553356 0
M  V30 6300 H 566.698 1.66019 0.781661 0
M  V30 6301 H 565.08 2.06903 3.3765 0
M  V30 6302 H 566.254 4.3174 1.6105 0
M  V30 6303 H 564.569 3.8433 1.60249 0
M  V30 6304 H 567.166 3.17499 4.30231 0
M  V30 6305 H 567.509 1.51611 3.87711 0
M  V30 6306 H 568.042 2.82791 2.79775 0
M  V30 6307 H 564.781 5.81716 3.02136 0
M  V30 6308 H 564.301 4.43726 4.03568 0
M  V30 6309 H 565.98 5.03074 4.06848 0
M  V30 6310 N 566.112 -0.949982 1.2575 0
M  V30 6311 C 567.022 -2.08109 1.08295 0
M  V30 6312 C 568.038 -1.7399 0.0188181 0
M  V30 6313 O 569.214 -2.00187 0.220724 0
M  V30 6314 C 566.279 -3.39383 0.708534 0
M  V30 6315 C 565.34 -3.8734 1.85111 0
M  V30 6316 C 564.573 -5.12349 1.49447 0
M  V30 6317 O 564.796 -5.6905 0.392212 0
M  V30 6318 O 563.73 -5.5513 2.32624 0
M  V30 6319 H 567.556 -2.25738 2.03165 0
M  V30 6320 H 565.141 -1.06545 1.04731 0
M  V30 6321 H 567.023 -4.18277 0.512061 0
M  V30 6322 H 565.698 -3.23013 -0.210854 0
M  V30 6323 H 564.605 -3.09429 2.10248 0
M  V30 6324 H 565.938 -4.08216 2.74991 0
M  V30 6325 N 567.59 -1.07411 -1.15328 0
M  V30 6326 C 568.54 -0.664788 -2.18093 0
M  V30 6327 C 569.524 0.310395 -1.57878 0
M  V30 6328 O 570.716 0.124026 -1.76565 0
M  V30 6329 C 567.845 -0.0647822 -3.43239 0
M  V30 6330 C 566.931 -1.06514 -4.10506 0
M  V30 6331 N 567.322 -2.24491 -4.53252 0
M  V30 6332 C 565.62 -0.898613 -4.36853 0
M  V30 6333 C 566.321 -2.8796 -5.05424 0
M  V30 6334 N 565.297 -2.15622 -4.99007 0
M  V30 6335 H 569.099 -1.56333 -2.48872 0
M  V30 6336 H 566.613 -0.947393 -1.31902 0
M  V30 6337 H 568.61 0.246363 -4.16171 0
M  V30 6338 H 567.27 0.828866 -3.13943 0
M  V30 6339 H 568.281 -2.62205 -4.46619 0
M  V30 6340 H 564.958 -0.0579118 -4.1746 0
M  V30 6341 H 566.348 -3.88137 -5.48452 0
M  V30 6342 N 569.068 1.32177 -0.85831 0
M  V30 6343 C 570.018 2.26307 -0.277307 0
M  V30 6344 C 571.002 1.50123 0.578946 0
M  V30 6345 O 572.194 1.71754 0.427731 0
M  V30 6346 C 569.323 3.39181 0.530232 0
M  V30 6347 C 568.409 4.22746 -0.338613 0
M  V30 6348 N 568.8 4.85265 -1.4266 0
M  V30 6349 C 567.098 4.45813 -0.129 0
M  V30 6350 C 567.799 5.47634 -1.96142 0
M  V30 6351 N 566.775 5.28794 -1.26007 0
M  V30 6352 H 570.577 2.72173 -1.10902 0
M  V30 6353 H 568.091 1.46308 -0.704816 0
M  V30 6354 H 570.088 4.05628 0.962904 0
M  V30 6355 H 568.748 2.9486 1.35969 0
M  V30 6356 H 569.759 4.85259 -1.80953 0
M  V30 6357 H 566.436 4.12163 0.665451 0
M  V30 6358 H 567.826 6.0735 -2.8736 0
M  V30 6359 N 570.547 0.616602 1.45037 0
M  V30 6360 C 571.477 -0.0840787 2.33349 0
M  V30 6361 C 572.458 -0.849641 1.4736 0
M  V30 6362 O 573.643 -0.818407 1.76113 0
M  V30 6363 C 570.773 -1.07604 3.3021 0
M  V30 6364 C 569.727 -0.423096 4.25904 0
M  V30 6365 C 569.053 -1.52394 5.12523 0
M  V30 6366 C 570.353 0.661457 5.18095 0
M  V30 6367 H 572.047 0.653333 2.92185 0
M  V30 6368 H 569.593 0.315634 1.40498 0
M  V30 6369 H 571.546 -1.57485 3.90866 0
M  V30 6370 H 570.27 -1.84416 2.69552 0
M  V30 6371 H 568.929 0.05493 3.66559 0
M  V30 6372 H 568.577 -2.28257 4.48227 0
M  V30 6373 H 568.277 -1.09251 5.77354 0
M  V30 6374 H 569.801 -2.02485 5.76049 0
M  V30 6375 H 571.215 0.246353 5.7277 0
M  V30 6376 H 569.612 1.01517 5.91451 0
M  V30 6377 H 570.682 1.53446 4.59981 0
M  V30 6378 N 572.025 -1.5352 0.356285 0
M  V30 6379 C 573.272 -2.01117 -0.236303 0
M  V30 6380 C 573.6 -1.24381 -1.49531 0
M  V30 6381 O 572.855 -0.323057 -1.93015 0
M  V30 6382 C 573.154 -3.52607 -0.583369 0
M  V30 6383 C 572.82 -4.47151 0.58023 0
M  V30 6384 C 571.482 -4.72718 0.899528 0
M  V30 6385 C 573.834 -5.03137 1.36024 0
M  V30 6386 C 571.162 -5.51523 2.00098 0
M  V30 6387 C 573.514 -5.83145 2.45204 0
M  V30 6388 C 572.178 -6.07001 2.77679 0
M  V30 6389 H 571.448 -0.735938 -0.0864695 0
M  V30 6390 H 574.095 -1.85209 0.48683 0
M  V30 6391 H 572.4 -3.66413 -1.38739 0
M  V30 6392 H 574.097 -3.86901 -1.05397 0
M  V30 6393 H 570.687 -4.27394 0.321322 0
M  V30 6394 H 574.871 -4.83339 1.12682 0
M  V30 6395 H 570.127 -5.68229 2.25668 0
M  V30 6396 H 574.301 -6.25537 3.06067 0
M  V30 6397 H 571.928 -6.67851 3.63151 0
M  V30 6398 N 573.503 -0.0852151 -1.57369 0
M  V30 6399 C 574.914 0.445428 -1.81309 0
M  V30 6400 C 575.265 1.68795 -1.00013 0
M  V30 6401 O 574.39 2.15211 -0.226573 0
M  V30 6402 C 574.985 0.814887 -3.28854 0
M  V30 6403 C 573.544 1.29032 -3.53592 0
M  V30 6404 C 572.691 0.282089 -2.75861 0
M  V30 6405 H 575.642 -0.310771 -1.55627 0
M  V30 6406 H 575.663 1.67524 -3.41637 0
M  V30 6407 H 575.175 -0.0896309 -3.87996 0
M  V30 6408 H 573.276 2.21289 -2.9977 0
M  V30 6409 H 573.389 1.25898 -4.62262 0
M  V30 6410 H 571.753 0.762182 -2.43029 0
M  V30 6411 H 572.536 -0.614936 -3.37748 0
M  V30 6412 N 574.981 1.5647 0.188427 0
M  V30 6413 C 576.209 1.85131 0.923803 0
M  V30 6414 C 576.624 0.668537 1.76567 0
M  V30 6415 O 575.981 -0.362662 1.7886 0
M  V30 6416 C 576.032 3.12661 1.81453 0
M  V30 6417 O 575.753 4.26378 1.00665 0
M  V30 6418 C 577.254 3.54548 2.66103 0
M  V30 6419 H 574.474 0.614624 0.269218 0
M  V30 6420 H 577.018 2.03581 0.193671 0
M  V30 6421 H 575.173 2.96088 2.49821 0
M  V30 6422 H 575.587 4.99041 1.61425 0
M  V30 6423 H 577.061 4.4673 3.24247 0
M  V30 6424 H 577.538 2.77853 3.40139 0
M  V30 6425 H 578.144 3.73674 2.03096 0
M  V30 6426 N 576.459 -0.456382 1.50847 0
M  V30 6427 C 577.392 -1.57177 1.65441 0
M  V30 6428 C 578.37 -1.54649 0.502224 0
M  V30 6429 O 579.554 -1.74057 0.723633 0
M  V30 6430 C 576.681 -2.95763 1.65052 0
M  V30 6431 C 575.727 -3.16389 2.86007 0
M  V30 6432 S 576.56 -2.94716 4.47105 0
M  V30 6433 C 577.716 -4.35617 4.49432 0
M  V30 6434 H 577.949 -1.44561 2.59787 0
M  V30 6435 H 575.482 -0.644758 1.40293 0
M  V30 6436 H 577.44 -3.75654 1.65512 0
M  V30 6437 H 576.101 -3.05756 0.719153 0
M  V30 6438 H 575.294 -4.17667 2.82081 0
M  V30 6439 H 574.896 -2.44293 2.8319 0
M  V30 6440 H 577.188 -5.28503 4.239 0
M  V30 6441 H 578.131 -4.44582 5.51137 0
M  V30 6442 H 578.539 -4.18382 3.78967 0
M  V30 6443 N 577.937 -1.40673 -0.710563 0
M  V30 6444 C 579.348 -1.34975 -1.28991 0
M  V30 6445 C 579.699 -0.0256272 -1.96183 0
M  V30 6446 O 578.824 0.876339 -1.97862 0
M  V30 6447 C 579.419 -2.44467 -2.34567 0
M  V30 6448 C 577.978 -2.42213 -2.88114 0
M  V30 6449 C 577.125 -2.25085 -1.61963 0
M  V30 6450 H 580.076 -1.50406 -0.506343 0
M  V30 6451 H 580.097 -2.12663 -3.15523 0
M  V30 6452 H 579.609 -3.40825 -1.85634 0
M  V30 6453 H 577.71 -1.49568 -3.41263 0
M  V30 6454 H 577.823 -3.37983 -3.39565 0
M  V30 6455 H 576.187 -1.72691 -1.87216 0
M  V30 6456 H 576.97 -3.23449 -1.15047 0
M  V30 6457 N 579.415 0.9433 -1.26252 0
M  V30 6458 C 580.831 1.21644 -1.03319 0
M  V30 6459 C 581.031 2.0003 0.242983 0
M  V30 6460 O 580.087 2.33838 0.952688 0
M  V30 6461 C 581.4 1.97978 -2.2633 0
M  V30 6462 C 582.948 2.10978 -2.31209 0
M  V30 6463 C 583.423 2.90713 -3.53907 0
M  V30 6464 N 584.914 2.98287 -3.54371 0
M  V30 6465 C 585.649 3.60406 -4.45976 0
M  V30 6466 N 585.145 4.24043 -5.47868 0
M  V30 6467 N 586.938 3.57658 -4.33633 0
M  V30 6468 H 579.089 0.419221 -2.08222 0
M  V30 6469 H 581.352 0.247995 -0.914988 0
M  V30 6470 H 581.058 1.47788 -3.19142 0
M  V30 6471 H 580.932 2.9865 -2.30408 0
M  V30 6472 H 583.319 2.6036 -1.38913 0
M  V30 6473 H 583.4 1.09575 -2.31143 0
M  V30 6474 H 583.044 2.42018 -4.46531 0
M  V30 6475 H 582.974 3.92367 -3.5122 0
M  V30 6476 H 585.465 2.53044 -2.80673 0
M  V30 6477 H 585.778 4.69334 -6.13959 0
M  V30 6478 H 584.123 4.22637 -5.51728 0
M  V30 6479 H 587.314 3.07134 -3.53251 0
M  V30 6480 H 587.487 4.05782 -5.05218 0
M  V30 6481 N 580.893 1.08022 1.14757 0
M  V30 6482 C 581.843 0.676345 2.17737 0
M  V30 6483 C 582.827 -0.302018 1.5804 0
M  V30 6484 O 584.019 -0.11466 1.76628 0
M  V30 6485 C 581.148 0.082984 3.432 0
M  V30 6486 C 580.234 1.0869 4.09936 0
M  V30 6487 N 580.625 2.26891 4.52055 0
M  V30 6488 C 578.923 0.921768 4.36371 0
M  V30 6489 C 579.624 2.90636 5.0389 0
M  V30 6490 N 578.6 2.18266 4.97856 0
M  V30 6491 H 582.402 1.5765 2.4804 0
M  V30 6492 H 579.916 0.954374 1.31398 0
M  V30 6493 H 581.913 -0.224289 4.16296 0
M  V30 6494 H 580.573 -0.812206 3.14378 0
M  V30 6495 H 581.584 2.6457 4.45223 0
M  V30 6496 H 578.261 0.0800499 4.17423 0
M  V30 6497 H 579.651 3.9104 5.46386 0
M  V30 6498 N 582.371 -1.3172 0.865308 0
M  V30 6499 C 583.319 -2.30569 0.306674 0
M  V30 6500 C 584.313 -1.59317 -0.575724 0
M  V30 6501 O 585.519 -1.73961 -0.462343 0
M  V30 6502 H 581.894 -0.747681 0.0804834 0
M  V30 6503 H 583.865 -2.75165 1.15441 0
M  V30 6504 C 582.614 -3.44358 -0.480952 0
M  V30 6505 H 581.937 -3.99354 0.18876 0
M  V30 6506 H 583.377 -4.15652 -0.837241 0
M  V30 6507 C 581.836 -2.92574 -1.67039 0
M  V30 6508 O 582.366 -2.90954 -2.76964 0
M  V30 6509 N 580.572 -2.48835 -1.50097 0
M  V30 6510 H 580.119 -2.50353 -0.606738 0
M  V30 6511 H 580.077 -2.14543 -2.29823 0
M  V30 6512 N 583.85 -0.624285 -1.44708 0
M  V30 6513 C 585.08 -0.132726 -2.06173 0
M  V30 6514 C 585.488 1.19513 -1.46674 0
M  V30 6515 O 584.831 1.74254 -0.581491 0
M  V30 6516 C 584.893 0.0636732 -3.59444 0
M  V30 6517 C 584.557 -1.18496 -4.4137 0
M  V30 6518 C 585.553 -2.10706 -4.75288 0
M  V30 6519 C 583.239 -1.41846 -4.81856 0
M  V30 6520 C 585.233 -3.24582 -5.48567 0
M  V30 6521 C 582.92 -2.5602 -5.54885 0
M  V30 6522 C 583.918 -3.47215 -5.88159 0
M  V30 6523 O 583.606 -4.59399 -6.59703 0
M  V30 6524 H 583.338 -0.0737313 -0.671967 0
M  V30 6525 H 585.892 -0.856789 -1.86677 0
M  V30 6526 H 584.122 0.842809 -3.77404 0
M  V30 6527 H 585.811 0.508924 -4.02697 0
M  V30 6528 H 586.577 -1.93898 -4.44554 0
M  V30 6529 H 582.456 -0.717556 -4.55381 0
M  V30 6530 H 586 -3.95785 -5.74456 0
M  V30 6531 H 581.897 -2.72774 -5.85034 0
M  V30 6532 H 582.665 -4.58293 -6.78166 0
M  V30 6533 N 585.328 1.53329 -0.364422 0
M  V30 6534 C 586.278 2.22472 0.499024 0
M  V30 6535 C 587.262 1.21952 1.0496 0
M  V30 6536 O 588.454 1.47405 0.979836 0
M  V30 6537 C 585.583 3.01659 1.6388 0
M  V30 6538 C 584.669 4.09555 1.10116 0
M  V30 6539 N 585.06 5.04988 0.286414 0
M  V30 6540 C 583.358 4.2424 1.37608 0
M  V30 6541 C 584.059 5.81699 -0.00781682 0
M  V30 6542 N 583.035 5.40394 0.589494 0
M  V30 6543 H 586.837 2.93611 -0.130284 0
M  V30 6544 H 584.351 1.61483 -0.172377 0
M  V30 6545 H 586.348 3.4971 2.26954 0
M  V30 6546 H 585.008 2.32051 2.27118 0
M  V30 6547 H 586.019 5.17847 -0.0742839 0
M  V30 6548 H 582.696 3.65858 2.01133 0
M  V30 6549 H 584.086 6.68587 -0.666394 0
M  V30 6550 N 586.806 0.0935595 1.57322 0
M  V30 6551 C 587.753 -0.865935 2.1394 0
M  V30 6552 C 588.723 -1.28083 1.05754 0
M  V30 6553 O 589.908 -1.36285 1.33533 0
M  V30 6554 C 587.048 -2.12023 2.72287 0
M  V30 6555 C 586.161 -1.756 3.94701 0
M  V30 6556 C 585.296 -2.95804 4.41218 0
M  V30 6557 C 584.335 -2.555 5.56225 0
M  V30 6558 N 583.472 -3.68534 5.97601 0
M  V30 6559 H 588.312 -0.376261 2.95615 0
M  V30 6560 H 585.849 -0.174052 1.46067 0
M  V30 6561 H 587.807 -2.85477 3.04235 0
M  V30 6562 H 586.437 -2.58492 1.93343 0
M  V30 6563 H 585.489 -0.921208 3.69077 0
M  V30 6564 H 586.801 -1.41964 4.78171 0
M  V30 6565 H 585.955 -3.77513 4.74941 0
M  V30 6566 H 584.694 -3.32649 3.56645 0
M  V30 6567 H 583.699 -1.72218 5.22131 0
M  V30 6568 H 584.924 -2.19801 6.42545 0
M  V30 6569 H 582.87 -4.051 5.15974 0
M  V30 6570 H 582.787 -3.38737 6.75865 0
M  V30 6571 H 584.055 -4.50757 6.35955 0
M  V30 6572 N 588.284 -1.56567 -0.180126 0
M  V30 6573 C 589.53 -1.81761 -0.899497 0
M  V30 6574 C 589.863 -0.670015 -1.82276 0
M  V30 6575 O 589.138 0.328575 -1.91705 0
M  V30 6576 C 589.421 -3.17296 -1.7028 0
M  V30 6577 C 589.274 -4.4257 -0.803255 0
M  V30 6578 C 590.593 -3.49678 -2.67233 0
M  V30 6579 H 587.712 -0.661192 -0.325567 0
M  V30 6580 H 590.354 -1.89272 -0.16612 0
M  V30 6581 H 588.504 -3.11023 -2.32802 0
M  V30 6582 H 590.176 -4.60902 -0.191585 0
M  V30 6583 H 588.419 -4.33658 -0.110796 0
M  V30 6584 H 589.09 -5.33935 -1.40064 0
M  V30 6585 H 591.566 -3.56347 -2.14839 0
M  V30 6586 H 590.442 -4.45605 -3.20511 0
M  V30 6587 H 590.703 -2.73932 -3.47007 0
M  V30 6588 N 589.762 0.448376 -1.51087 0
M  V30 6589 C 590.725 1.52588 -1.71025 0
M  V30 6590 C 591.725 1.49958 -0.580442 0
M  V30 6591 O 592.915 1.52176 -0.847833 0
M  V30 6592 C 590.047 2.92163 -1.75652 0
M  V30 6593 H 591.24 1.36218 -2.67179 0
M  V30 6594 H 588.793 0.676313 -1.4091 0
M  V30 6595 H 589.528 3.13951 -0.812724 0
M  V30 6596 H 589.313 2.95478 -2.57751 0
M  V30 6597 H 590.803 3.70349 -1.92953 0
M  V30 6598 N 591.24 1.41047 0.703093 0
M  V30 6599 C 592.651 1.35657 1.28274 0
M  V30 6600 C 593.002 0.0360309 1.96167 0
M  V30 6601 O 592.127 -0.865833 1.98324 0
M  V30 6602 C 592.722 2.45707 2.33267 0
M  V30 6603 C 591.281 2.43738 2.86825 0
M  V30 6604 C 590.428 2.25941 1.60767 0
M  V30 6605 H 593.379 1.50672 0.49836 0
M  V30 6606 H 593.4 2.14333 3.14391 0
M  V30 6607 H 592.912 3.41805 1.83824 0
M  V30 6608 H 591.013 1.51375 3.40465 0
M  V30 6609 H 591.126 3.39779 3.37768 0
M  V30 6610 H 589.49 1.73681 1.86298 0
M  V30 6611 H 590.273 3.24054 1.1333 0
M  V30 6612 N 592.718 -0.936591 1.26751 0
M  V30 6613 C 593.648 -2.05315 1.11212 0
M  V30 6614 C 594.629 -1.70092 0.0160262 0
M  V30 6615 O 595.814 -1.93279 0.188894 0
M  V30 6616 C 592.944 -3.39123 0.749171 0
M  V30 6617 C 591.898 -3.88425 1.79751 0
M  V30 6618 C 591.224 -5.18936 1.28876 0
M  V30 6619 C 592.524 -4.12798 3.19992 0
M  V30 6620 H 594.218 -2.18573 2.04613 0
M  V30 6621 H 591.764 -1.05027 0.985159 0
M  V30 6622 H 593.717 -4.16704 0.627323 0
M  V30 6623 H 592.441 -3.25855 -0.220543 0
M  V30 6624 H 591.1 -3.13028 1.90811 0
M  V30 6625 H 590.748 -5.02051 0.308757 0
M  V30 6626 H 590.448 -5.52892 1.98958 0
M  V30 6627 H 591.972 -5.99096 1.17967 0
M  V30 6628 H 593.386 -4.80977 3.11983 0
M  V30 6629 H 591.783 -4.58044 3.87705 0
M  V30 6630 H 592.853 -3.18412 3.65707 0
M  V30 6631 N 594.196 -1.08629 -1.14182 0
M  V30 6632 C 595.442 -0.818556 -1.85546 0
M  V30 6633 C 595.775 0.654076 -1.82854 0
M  V30 6634 O 595.05 1.48099 -1.26083 0
M  V30 6635 C 595.333 -1.34397 -3.3408 0
M  V30 6636 C 595.186 -2.8821 -3.45333 0
M  V30 6637 C 596.505 -0.971069 -4.29253 0
M  V30 6638 H 593.624 -0.298821 -0.673702 0
M  V30 6639 H 596.266 -1.34629 -1.34071 0
M  V30 6640 H 594.416 -0.895064 -3.78049 0
M  V30 6641 H 596.088 -3.41488 -3.10134 0
M  V30 6642 H 594.331 -3.25756 -2.86471 0
M  V30 6643 H 595.002 -3.20047 -4.49749 0
M  V30 6644 H 597.478 -1.35809 -3.93313 0
M  V30 6645 H 596.354 -1.36586 -5.31635 0
M  V30 6646 H 596.615 0.121659 -4.41933 0
M  V30 6647 N 595.674 1.31259 -0.872281 0
M  V30 6648 C 596.606 2.27396 -0.28697 0
M  V30 6649 C 597.619 1.53181 0.551297 0
M  V30 6650 O 598.808 1.74561 0.372914 0
M  V30 6651 C 595.908 3.33335 0.611617 0
M  V30 6652 C 595.081 4.36966 -0.194729 0
M  V30 6653 C 594.14 5.22387 0.632358 0
M  V30 6654 O 593.166 5.69169 0.0595691 0
M  V30 6655 N 594.368 5.46985 1.94391 0
M  V30 6656 H 597.133 2.78261 -1.11314 0
M  V30 6657 H 594.694 1.44306 -0.733994 0
M  V30 6658 H 596.686 3.87398 1.17068 0
M  V30 6659 H 595.256 2.82496 1.33846 0
M  V30 6660 H 594.476 3.82945 -0.935241 0
M  V30 6661 H 595.764 5.03273 -0.747935 0
M  V30 6662 H 595.162 5.10737 2.43237 0
M  V30 6663 H 593.719 6.03973 2.45071 0
M  V30 6664 N 597.152 0.631951 1.44375 0
M  V30 6665 C 598.377 0.142146 2.06912 0
M  V30 6666 C 598.802 -1.17456 1.4692 0
M  V30 6667 O 598.16 -1.72074 0.570975 0
M  V30 6668 C 598.208 0.0417952 3.60576 0
M  V30 6669 O 597.312 -1.00194 4.00044 0
M  V30 6670 H 596.653 0.0851491 0.658518 0
M  V30 6671 H 599.183 0.868863 1.85235 0
M  V30 6672 H 599.193 -0.148517 4.0773 0
M  V30 6673 H 597.868 1.0031 4.03622 0
M  V30 6674 H 596.445 -0.786131 3.64519 0
M  V30 6675 N 598.631 -1.53133 0.372548 0
M  V30 6676 C 599.561 -2.28876 -0.462412 0
M  V30 6677 C 600.542 -1.31583 -1.07796 0
M  V30 6678 O 601.727 -1.60461 -1.09389 0
M  V30 6679 C 598.857 -3.08317 -1.59868 0
M  V30 6680 C 597.811 -4.13355 -1.11003 0
M  V30 6681 C 597.137 -4.8092 -2.33708 0
M  V30 6682 C 598.437 -5.21955 -0.18983 0
M  V30 6683 H 600.131 -2.9892 0.169511 0
M  V30 6684 H 597.677 -1.43761 0.0829658 0
M  V30 6685 H 599.63 -3.60055 -2.18949 0
M  V30 6686 H 598.354 -2.35976 -2.25794 0
M  V30 6687 H 597.013 -3.62573 -0.541869 0
M  V30 6688 H 596.661 -4.05144 -2.98106 0
M  V30 6689 H 596.361 -5.51904 -2.01682 0
M  V30 6690 H 597.885 -5.35455 -2.93462 0
M  V30 6691 H 599.299 -5.69153 -0.688319 0
M  V30 6692 H 597.696 -6.00087 0.0398887 0
M  V30 6693 H 598.766 -4.78811 0.766057 0
M  V30 6694 N 600.109 -0.101901 -1.5727 0
M  V30 6695 C 601.349 0.563489 -1.96479 0
M  V30 6696 C 601.713 1.64926 -0.983021 0
M  V30 6697 O 602.914 2.37234 -1.26386 0
M  V30 6698 C 601.185 1.09809 -3.40113 0
M  V30 6699 S 602.744 1.7744 -4.01323 0
M  V30 6700 H 599.562 0.183675 -0.686866 0
M  V30 6701 H 602.164 -0.182922 -1.94642 0
M  V30 6702 H 600.868 0.296447 -4.09328 0
M  V30 6703 H 600.399 1.88018 -3.45562 0
M  V30 6704 H 602.414 3.0591 -3.90683 0
M  V30 6705 N 601.587 1.56661 0.17182 0
M  V30 6706 C 602.55 1.9549 1.19651 0
M  V30 6707 C 603.55 0.838501 1.37207 0
M  V30 6708 O 604.74 1.10556 1.34622 0
M  V30 6709 C 601.872 2.24927 2.56166 0
M  V30 6710 H 603.065 2.87184 0.864007 0
M  V30 6711 H 600.618 1.50711 0.41425 0
M  V30 6712 H 601.353 1.35944 2.94431 0
M  V30 6713 H 601.138 3.06301 2.4479 0
M  V30 6714 H 602.628 2.55891 3.30014 0
M  V30 6715 N 603.065 -0.440357 1.51323 0
M  V30 6716 C 604.012 -1.53429 1.72419 0
M  V30 6717 C 604.982 -1.56165 0.565826 0
M  V30 6718 O 606.167 -1.73222 0.799917 0
M  V30 6719 C 603.307 -2.91169 1.85242 0
M  V30 6720 C 602.42 -2.97985 3.12777 0
M  V30 6721 C 601.555 -4.26829 3.16212 0
M  V30 6722 C 600.594 -4.27501 4.38074 0
M  V30 6723 N 599.731 -5.47866 4.39076 0
M  V30 6724 H 604.571 -1.34743 2.65797 0
M  V30 6725 H 602.108 -0.654608 1.31732 0
M  V30 6726 H 604.066 -3.71087 1.90658 0
M  V30 6727 H 602.696 -3.0842 0.952744 0
M  V30 6728 H 601.748 -2.10749 3.16685 0
M  V30 6729 H 603.06 -2.94342 4.02696 0
M  V30 6730 H 602.214 -5.15118 3.20527 0
M  V30 6731 H 600.953 -4.33124 2.24176 0
M  V30 6732 H 599.958 -3.37606 4.33938 0
M  V30 6733 H 601.183 -4.22873 5.31371 0
M  V30 6734 H 599.129 -5.54887 3.49909 0
M  V30 6735 H 599.046 -5.46091 5.22801 0
M  V30 6736 H 600.314 -6.38195 4.4758 0
M  V30 6737 N 604.543 -1.41418 -0.695603 0
M  V30 6738 C 605.493 -1.39731 -1.80165 0
M  V30 6739 C 606.477 -0.271689 -1.5859 0
M  V30 6740 O 607.669 -0.512354 -1.69422 0
M  V30 6741 C 604.798 -1.28187 -3.1847 0
M  V30 6742 C 603.884 -2.45612 -3.45739 0
M  V30 6743 N 604.275 -3.71077 -3.43708 0
M  V30 6744 C 602.573 -2.39424 -3.76288 0
M  V30 6745 C 603.274 -4.48957 -3.69882 0
M  V30 6746 N 602.25 -3.7907 -3.89624 0
M  V30 6747 H 606.052 -2.34656 -1.76957 0
M  V30 6748 H 603.566 -1.35473 -0.89559 0
M  V30 6749 H 605.563 -1.2506 -3.977 0
M  V30 6750 H 604.223 -0.342468 -3.22889 0
M  V30 6751 H 605.234 -4.03963 -3.2409 0
M  V30 6752 H 601.911 -1.53955 -3.88077 0
M  V30 6753 H 603.301 -5.57887 -3.74448 0
M  V30 6754 N 606.021 0.929856 -1.27246 0
M  V30 6755 C 607.269 1.674 -1.13233 0
M  V30 6756 C 607.59 1.92311 0.322744 0
M  V30 6757 O 606.86 1.52784 1.22612 0
M  V30 6758 H 605.44 0.620411 -0.416052 0
M  V30 6759 H 608.102 1.11663 -1.59741 0
M  V30 6760 H 607.198 2.64308 -1.65975 0
M  V30 6761 N 607.499 1.09233 1.13605 0
M  V30 6762 C 608.748 0.82205 1.84188 0
M  V30 6763 C 609.061 -0.654548 1.84323 0
M  V30 6764 O 610.267 -1.04029 2.50779 0
M  V30 6765 C 608.723 1.42066 3.30674 0
M  V30 6766 C 608.331 2.92965 3.38933 0
M  V30 6767 C 610.075 1.22924 4.06313 0
M  V30 6768 C 607.982 3.45922 4.79679 0
M  V30 6769 H 606.912 0.303854 0.690064 0
M  V30 6770 H 609.563 1.31479 1.28006 0
M  V30 6771 H 607.945 0.855613 3.86646 0
M  V30 6772 H 609.119 3.55679 2.92966 0
M  V30 6773 H 607.434 3.11118 2.76757 0
M  V30 6774 H 610.031 1.59945 5.10217 0
M  V30 6775 H 610.374 0.169726 4.15954 0
M  V30 6776 H 610.907 1.76168 3.56665 0
M  V30 6777 H 607.646 4.51484 4.75229 0
M  V30 6778 H 607.166 2.87971 5.26149 0
M  V30 6779 H 608.845 3.43009 5.48592 0
M  V30 6780 N 608.977 -1.30795 0.87923 0
M  V30 6781 C 609.887 -2.32041 0.345565 0
M  V30 6782 C 610.903 -1.65103 -0.549265 0
M  V30 6783 O 612.079 -1.9645 -0.443763 0
M  V30 6784 C 609.144 -3.43944 -0.436245 0
M  V30 6785 C 608.205 -4.26521 0.48765 0
M  V30 6786 C 607.438 -5.33081 -0.256943 0
M  V30 6787 O 607.661 -5.50762 -1.48381 0
M  V30 6788 O 606.595 -6.00635 0.389985 0
M  V30 6789 H 610.421 -2.79627 1.18501 0
M  V30 6790 H 608.006 -1.3486 0.642885 0
M  V30 6791 H 609.888 -4.12128 -0.879119 0
M  V30 6792 H 608.563 -2.98504 -1.25208 0
M  V30 6793 H 607.47 -3.61057 0.979216 0
M  V30 6794 H 608.803 -4.75551 1.26933 0
M  V30 6795 N 610.455 -0.639598 -1.44038 0
M  V30 6796 C 611.685 -0.154586 -2.06021 0
M  V30 6797 C 612.093 1.17951 -1.47933 0
M  V30 6798 O 611.436 1.73627 -0.59994 0
M  V30 6799 C 611.498 0.0255459 -3.59491 0
M  V30 6800 C 611.162 -1.2317 -4.40089 0
M  V30 6801 C 612.159 -2.15735 -4.73027 0
M  V30 6802 C 609.844 -1.46949 -4.80324 0
M  V30 6803 C 611.838 -3.30382 -5.45093 0
M  V30 6804 C 609.525 -2.61891 -5.52138 0
M  V30 6805 C 610.523 -3.53433 -5.84443 0
M  V30 6806 O 610.211 -4.6637 -6.54793 0
M  V30 6807 H 609.943 -0.0808543 -0.671147 0
M  V30 6808 H 612.497 -0.876541 -1.85758 0
M  V30 6809 H 610.727 0.802733 -3.78276 0
M  V30 6810 H 612.416 0.466184 -4.03214 0
M  V30 6811 H 613.182 -1.98602 -4.42473 0
M  V30 6812 H 609.061 -0.765815 -4.54595 0
M  V30 6813 H 612.605 -4.01856 -5.70226 0
M  V30 6814 H 608.502 -2.78964 -5.82108 0
M  V30 6815 H 609.27 -4.6546 -6.73267 0
M  V30 6816 N 611.933 1.52934 -0.380664 0
M  V30 6817 C 612.865 2.23822 0.493581 0
M  V30 6818 C 613.878 1.25761 1.03383 0
M  V30 6819 O 615.067 1.5189 0.937633 0
M  V30 6820 C 612.167 2.9342 1.69582 0
M  V30 6821 C 611.34 4.18115 1.28445 0
M  V30 6822 C 610.399 4.70788 2.35042 0
M  V30 6823 O 609.425 5.34093 1.96807 0
M  V30 6824 N 610.627 4.49899 3.66839 0
M  V30 6825 H 613.392 2.99484 -0.11371 0
M  V30 6826 H 610.953 1.60577 -0.206587 0
M  V30 6827 H 612.945 3.2556 2.40401 0
M  V30 6828 H 611.515 2.21119 2.20965 0
M  V30 6829 H 610.735 3.92109 0.405503 0
M  V30 6830 H 612.023 4.99152 0.986132 0
M  V30 6831 H 611.421 3.99349 4.0067 0
M  V30 6832 H 609.978 4.86551 4.33718 0
M  V30 6833 N 613.412 0.11024 1.57214 0
M  V30 6834 C 614.637 -0.561179 1.99664 0
M  V30 6835 C 615.062 -1.59985 0.989266 0
M  V30 6836 O 614.42 -1.81255 -0.0402399 0
M  V30 6837 C 614.468 -1.17189 3.41027 0
M  V30 6838 O 613.572 -2.28755 3.4314 0
M  V30 6839 H 612.913 -0.14101 0.648855 0
M  V30 6840 H 615.443 0.196128 2.03658 0
M  V30 6841 H 615.453 -1.50954 3.79047 0
M  V30 6842 H 614.128 -0.411041 4.13864 0
M  V30 6843 H 612.705 -1.96495 3.16929 0
M  V30 6844 N 614.89 -1.56749 -0.16351 0
M  V30 6845 C 615.837 -1.97011 -1.2023 0
M  V30 6846 C 616.807 -0.835186 -1.43575 0
M  V30 6847 O 617.992 -1.09594 -1.56185 0
M  V30 6848 C 615.132 -2.34186 -2.53478 0
M  V30 6849 C 614.245 -3.60893 -2.37446 0
M  V30 6850 C 613.38 -3.87245 -3.63614 0
M  V30 6851 C 612.419 -5.07274 -3.42548 0
M  V30 6852 N 611.556 -5.29719 -4.60806 0
M  V30 6853 H 616.396 -2.85562 -0.851958 0
M  V30 6854 H 613.933 -1.41292 -0.409257 0
M  V30 6855 H 615.891 -2.53764 -3.31149 0
M  V30 6856 H 614.521 -1.48736 -2.86492 0
M  V30 6857 H 613.573 -3.49185 -1.50911 0
M  V30 6858 H 614.885 -4.48722 -2.1783 0
M  V30 6859 H 614.039 -4.07232 -4.49719 0
M  V30 6860 H 612.778 -2.97806 -3.86216 0
M  V30 6861 H 611.783 -4.87177 -2.5483 0
M  V30 6862 H 613.008 -5.98251 -3.2136 0
M  V30 6863 H 610.954 -4.43233 -4.83612 0
M  V30 6864 H 610.871 -6.11786 -4.44132 0
M  V30 6865 H 612.139 -5.54192 -5.48171 0
M  V30 6866 N 616.368 0.432326 -1.51554 0
M  V30 6867 C 617.779 1.01202 -1.56892 0
M  V30 6868 C 618.13 1.92175 -0.395394 0
M  V30 6869 O 617.255 2.10844 0.487198 0
M  V30 6870 C 617.85 1.84217 -2.8434 0
M  V30 6871 C 616.409 2.37228 -2.92233 0
M  V30 6872 C 615.556 1.16576 -2.51606 0
M  V30 6873 H 618.507 0.213407 -1.57259 0
M  V30 6874 H 618.528 2.69721 -2.68385 0
M  V30 6875 H 618.04 1.17979 -3.69733 0
M  V30 6876 H 616.141 3.06905 -2.11282 0
M  V30 6877 H 616.254 2.69682 -3.95991 0
M  V30 6878 H 614.618 1.51263 -2.04919 0
M  V30 6879 H 615.401 0.519404 -3.39348 0
M  V30 6880 N 617.846 1.41785 0.688094 0
M  V30 6881 C 618.776 1.47 1.8142 0
M  V30 6882 C 619.757 0.327881 1.6691 0
M  V30 6883 O 620.942 0.540362 1.86531 0
M  V30 6884 C 618.072 1.35876 3.19617 0
M  V30 6885 C 617.026 2.47976 3.48844 0
M  V30 6886 C 616.352 2.21915 4.86475 0
M  V30 6887 C 617.652 3.90309 3.47068 0
M  V30 6888 H 619.346 2.41247 1.77314 0
M  V30 6889 H 616.892 1.16116 0.851651 0
M  V30 6890 H 618.845 1.38134 3.98117 0
M  V30 6891 H 617.569 0.38116 3.24368 0
M  V30 6892 H 616.228 2.45013 2.72698 0
M  V30 6893 H 615.876 1.2248 4.8786 0
M  V30 6894 H 615.576 2.97037 5.06994 0
M  V30 6895 H 617.1 2.25901 5.67275 0
M  V30 6896 H 618.514 3.94947 4.1556 0
M  V30 6897 H 616.911 4.65175 3.7912 0
M  V30 6898 H 617.981 4.17927 2.45896 0
M  V30 6899 N 619.324 -0.923095 1.27737 0
M  V30 6900 C 620.254 -2.04124 1.13383 0
M  V30 6901 C 621.235 -1.70066 0.0340658 0
M  V30 6902 O 622.42 -1.93068 0.209383 0
M  V30 6903 C 619.55 -3.3831 0.785097 0
M  V30 6904 C 618.504 -3.86496 1.8386 0
M  V30 6905 C 617.83 -5.1754 1.34373 0
M  V30 6906 C 619.13 -4.09381 3.24353 0
M  V30 6907 H 620.824 -2.1639 2.06919 0
M  V30 6908 H 618.37 -1.03976 0.996243 0
M  V30 6909 H 620.323 -4.16016 0.671485 0
M  V30 6910 H 619.047 -3.2607 -0.185969 0
M  V30 6911 H 617.706 -3.10987 1.9412 0
M  V30 6912 H 617.354 -5.01696 0.361989 0
M  V30 6913 H 617.054 -5.50751 2.04811 0
M  V30 6914 H 618.578 -5.97811 1.24315 0
M  V30 6915 H 619.992 -4.77641 3.17067 0
M  V30 6916 H 618.389 -4.53906 3.92542 0
M  V30 6917 H 619.459 -3.14515 3.69064 0
M  V30 6918 N 620.802 -1.09834 -1.13024 0
M  V30 6919 C 622.027 -0.85909 -1.88771 0
M  V30 6920 C 622.452 0.584402 -1.78791 0
M  V30 6921 O 621.81 1.41101 -1.13842 0
M  V30 6922 C 621.858 -1.30427 -3.36186 0
M  V30 6923 O 620.962 -0.465368 -4.09766 0
M  V30 6924 H 620.303 -0.310786 -0.586778 0
M  V30 6925 H 622.833 -1.46355 -1.42973 0
M  V30 6926 H 622.843 -1.2915 -3.8702 0
M  V30 6927 H 621.518 -2.3555 -3.42767 0
M  V30 6928 H 620.095 -0.542814 -3.68928 0
M  V30 6929 N 622.28 1.30327 -0.886154 0
M  V30 6930 C 623.243 2.26376 -0.358687 0
M  V30 6931 C 624.243 1.52845 0.499498 0
M  V30 6932 O 625.433 1.71483 0.306485 0
M  V30 6933 C 622.565 3.37379 0.488726 0
M  V30 6934 H 623.758 2.74547 -1.20681 0
M  V30 6935 H 621.311 1.41536 -0.663113 0
M  V30 6936 H 622.046 2.94526 1.35739 0
M  V30 6937 H 621.831 3.91897 -0.126003 0
M  V30 6938 H 623.321 4.08868 0.84952 0
M  V30 6939 N 623.758 0.647228 1.43697 0
M  V30 6940 C 625.005 0.158188 2.01881 0
M  V30 6941 C 625.333 -1.22573 1.51017 0
M  V30 6942 O 624.588 -1.83086 0.69122 0
M  V30 6943 C 624.887 0.111481 3.57226 0
M  V30 6944 C 624.553 1.43633 4.27411 0
M  V30 6945 C 623.215 1.79915 4.463 0
M  V30 6946 C 625.567 2.31011 4.67208 0
M  V30 6947 C 622.895 3.03251 5.02251 0
M  V30 6948 C 625.247 3.53633 5.24525 0
M  V30 6949 C 623.911 3.90118 5.41631 0
M  V30 6950 H 623.181 0.0578851 0.738736 0
M  V30 6951 H 625.828 0.836746 1.72252 0
M  V30 6952 H 624.133 -0.650507 3.86362 0
M  V30 6953 H 625.83 -0.283682 3.99995 0
M  V30 6954 H 622.42 1.14403 4.1305 0
M  V30 6955 H 626.604 2.04272 4.52313 0
M  V30 6956 H 621.86 3.31575 5.13681 0
M  V30 6957 H 626.034 4.21561 5.5431 0
M  V30 6958 H 623.661 4.85768 5.84751 0
M  V30 6959 N 625.236 -1.5273 0.388769 0
M  V30 6960 C 626.199 -2.25043 -0.434544 0
M  V30 6961 C 627.199 -1.26661 -0.990644 0
M  V30 6962 O 628.389 -1.50762 -0.872731 0
M  V30 6963 C 625.521 -3.00507 -1.60961 0
M  V30 6964 H 626.714 -2.99242 0.198549 0
M  V30 6965 H 624.267 -1.55664 0.140875 0
M  V30 6966 H 625.002 -2.30607 -2.28015 0
M  V30 6967 H 624.787 -3.72716 -1.21757 0
M  V30 6968 H 626.277 -3.55413 -2.19251 0
M  V30 6969 N 626.714 -0.118576 -1.57153 0
M  V30 6970 C 627.991 0.583062 -1.86708 0
M  V30 6971 C 628.371 1.84841 -1.01967 0
M  V30 6972 O 627.719 2.28288 -0.0984673 0
M  V30 6973 C 627.929 0.875912 -3.3783 0
M  V30 6974 C 629.277 1.22916 -4.0642 0
M  V30 6975 O 630.301 0.966188 -3.42846 0
M  V30 6976 O 629.16 1.72269 -5.18638 0
M  V30 6977 H 626.254 0.294185 -0.772906 0
M  V30 6978 H 628.8 -0.153048 -1.69008 0
M  V30 6979 H 627.572 -0.0207776 -3.91294 0
M  V30 6980 H 627.195 1.66719 -3.60958 0
M  V30 6981 N 628.193 1.56834 0.155195 0
M  V30 6982 C 629.442 1.82088 0.867567 0
M  V30 6983 C 629.755 0.69849 1.82703 0
M  V30 6984 O 630.961 0.836407 2.58295 0
M  V30 6985 C 629.417 3.22707 1.59336 0
M  V30 6986 C 629.025 4.42859 0.676719 0
M  V30 6987 C 630.769 3.57242 2.293 0
M  V30 6988 C 628.676 5.74501 1.40367 0
M  V30 6989 H 627.606 0.679057 0.327715 0
M  V30 6990 H 630.257 1.83105 0.120351 0
M  V30 6991 H 628.639 3.16054 2.38591 0
M  V30 6992 H 629.813 4.60731 -0.0800196 0
M  V30 6993 H 628.128 4.16311 0.0859129 0
M  V30 6994 H 630.725 4.52847 2.84312 0
M  V30 6995 H 631.068 2.82901 3.05406 0
M  V30 6996 H 631.601 3.6552 1.56972 0
M  V30 6997 H 628.34 6.51915 0.684623 0
M  V30 6998 H 627.86 5.60579 2.13332 0
M  V30 6999 H 629.539 6.17016 1.94681 0
M  V30 7000 N 629.671 -0.424282 1.51781 0
M  V30 7001 C 630.92 -1.16961 1.64326 0
M  V30 7002 C 631.233 -1.92035 0.371749 0
M  V30 7003 O 632.439 -2.68873 0.37676 0
M  V30 7004 C 630.895 -2.12782 2.90262 0
M  V30 7005 C 630.503 -1.43295 4.24465 0
M  V30 7006 C 632.247 -2.87667 3.12166 0
M  V30 7007 C 630.154 -2.37676 5.41538 0
M  V30 7008 H 629.084 -0.440293 0.612093 0
M  V30 7009 H 631.735 -0.435431 1.78259 0
M  V30 7010 H 630.117 -2.8969 2.69992 0
M  V30 7011 H 631.291 -0.718564 4.55163 0
M  V30 7012 H 629.606 -0.805118 4.08542 0
M  V30 7013 H 632.203 -3.58395 3.96808 0
M  V30 7014 H 632.546 -3.49758 2.25776 0
M  V30 7015 H 633.079 -2.17863 3.32837 0
M  V30 7016 H 629.818 -1.80255 6.30229 0
M  V30 7017 H 629.338 -3.07132 5.15199 0
M  V30 7018 H 631.017 -2.98529 5.74012 0
M  V30 7019 N 631.149 -1.42148 -0.680565 0
M  V30 7020 C 632.099 -1.41634 -1.78672 0
M  V30 7021 C 633.083 -0.288494 -1.58293 0
M  V30 7022 O 634.275 -0.530295 -1.68869 0
M  V30 7023 C 631.404 -1.31558 -3.17092 0
M  V30 7024 C 630.49 -2.49265 -3.43115 0
M  V30 7025 N 630.881 -3.74702 -3.39753 0
M  V30 7026 C 629.179 -2.43401 -3.73727 0
M  V30 7027 C 629.88 -4.52854 -3.651 0
M  V30 7028 N 628.856 -3.83181 -3.85582 0
M  V30 7029 H 632.658 -2.3652 -1.74458 0
M  V30 7030 H 630.172 -1.36415 -0.881171 0
M  V30 7031 H 632.169 -1.29272 -3.96351 0
M  V30 7032 H 630.829 -0.376696 -3.22508 0
M  V30 7033 H 631.84 -4.07378 -3.19787 0
M  V30 7034 H 628.517 -1.58062 -3.86423 0
M  V30 7035 H 629.907 -5.61827 -3.6851 0
M  V30 7036 N 632.627 0.916307 -1.28225 0
M  V30 7037 C 633.852 1.7043 -1.18188 0
M  V30 7038 C 634.277 1.86346 0.256274 0
M  V30 7039 O 633.635 1.37175 1.18544 0
M  V30 7040 C 633.683 3.07546 -1.88275 0
M  V30 7041 O 632.787 3.94904 -1.18848 0
M  V30 7042 H 632.128 0.521967 -0.410423 0
M  V30 7043 H 634.658 1.14589 -1.69501 0
M  V30 7044 H 634.668 3.57793 -1.96082 0
M  V30 7045 H 633.343 2.95279 -2.92887 0
M  V30 7046 H 631.92 3.53339 -1.19187 0
M  V30 7047 N 634.105 1.10431 1.1244 0
M  V30 7048 C 635.035 0.775143 2.20258 0
M  V30 7049 C 636.016 -0.25186 1.68225 0
M  V30 7050 O 637.201 -0.117637 1.93843 0
M  V30 7051 C 634.331 0.206133 3.46688 0
M  V30 7052 C 633.285 1.16382 4.11873 0
M  V30 7053 C 632.611 0.456014 5.32752 0
M  V30 7054 C 633.911 2.5104 4.58013 0
M  V30 7055 H 635.605 1.67665 2.4805 0
M  V30 7056 H 633.151 0.807595 1.19222 0
M  V30 7057 H 635.104 -0.036291 4.21384 0
M  V30 7058 H 633.828 -0.730614 3.18323 0
M  V30 7059 H 632.487 1.39169 3.39157 0
M  V30 7060 H 632.135 -0.485203 5.00654 0
M  V30 7061 H 631.835 1.09466 5.77314 0
M  V30 7062 H 633.359 0.222135 6.10196 0
M  V30 7063 H 634.773 2.32401 5.24083 0
M  V30 7064 H 633.17 3.10789 5.13352 0
M  V30 7065 H 634.24 3.11039 3.71998 0
M  V30 7066 N 635.583 -1.29855 0.893053 0
M  V30 7067 C 636.53 -2.27909 0.364161 0
M  V30 7068 C 637.5 -1.56726 -0.550093 0
M  V30 7069 O 638.685 -1.84747 -0.47677 0
M  V30 7070 C 635.825 -3.42678 -0.408178 0
M  V30 7071 C 634.938 -4.28659 0.536212 0
M  V30 7072 C 634.073 -5.30599 -0.252521 0
M  V30 7073 C 633.112 -6.08234 0.686822 0
M  V30 7074 N 632.249 -7.02068 -0.0670902 0
M  V30 7075 H 637.089 -2.72531 1.20544 0
M  V30 7076 H 634.626 -1.34047 0.605779 0
M  V30 7077 H 636.584 -4.07986 -0.871962 0
M  V30 7078 H 635.214 -2.99103 -1.21397 0
M  V30 7079 H 634.266 -3.63584 1.1185 0
M  V30 7080 H 635.578 -4.8274 1.25552 0
M  V30 7081 H 634.732 -6.01694 -0.777801 0
M  V30 7082 H 633.471 -4.77233 -1.005 0
M  V30 7083 H 632.476 -5.3601 1.22366 0
M  V30 7084 H 633.701 -6.63689 1.43852 0
M  V30 7085 H 631.647 -6.5108 -0.801955 0
M  V30 7086 H 631.564 -7.53675 0.59243 0
M  V30 7087 H 632.832 -7.77392 -0.572851 0
M  V30 7088 N 637.061 -0.65484 -1.43351 0
M  V30 7089 C 637.971 0.0363603 -2.34572 0
M  V30 7090 C 638.987 0.810432 -1.53974 0
M  V30 7091 O 640.163 0.757308 -1.86619 0
M  V30 7092 C 637.228 0.989733 -3.32273 0
M  V30 7093 C 636.289 0.212414 -4.28774 0
M  V30 7094 C 635.522 1.12038 -5.21808 0
M  V30 7095 O 635.745 2.35967 -5.19303 0
M  V30 7096 O 634.679 0.59191 -5.98982 0
M  V30 7097 H 638.505 -0.714527 -2.95175 0
M  V30 7098 H 636.09 -0.415029 -1.4352 0
M  V30 7099 H 637.972 1.53759 -3.92347 0
M  V30 7100 H 636.647 1.72082 -2.74171 0
M  V30 7101 H 635.554 -0.379062 -3.72175 0
M  V30 7102 H 636.887 -0.479138 -4.89862 0
M  V30 7103 N 638.539 1.52521 -0.396863 0
M  V30 7104 C 639.764 2.06571 0.185258 0
M  V30 7105 C 640.189 1.26605 1.39115 0
M  V30 7106 O 639.547 0.293055 1.78916 0
M  V30 7107 C 639.595 3.5674 0.526189 0
M  V30 7108 O 638.699 3.7929 1.61903 0
M  V30 7109 H 638.04 0.663712 0.0195474 0
M  V30 7110 H 640.57 1.966 -0.566519 0
M  V30 7111 H 640.58 4.00311 0.788338 0
M  V30 7112 H 639.255 4.14379 -0.355397 0
M  V30 7113 H 637.832 3.47605 1.35 0
M  V30 7114 N 640.017 0.126909 1.57088 0
M  V30 7115 C 641.265 -0.528123 1.95078 0
M  V30 7116 C 641.586 -1.66708 1.0116 0
M  V30 7117 O 640.856 -1.95777 0.0693527 0
M  V30 7118 H 639.436 -0.198087 0.720257 0
M  V30 7119 H 642.098 0.197703 1.93895 0
M  V30 7120 H 641.194 -0.917507 2.98309 0
M  V30 7121 N 641.495 -1.56914 -0.146875 0
M  V30 7122 C 642.427 -1.94878 -1.20645 0
M  V30 7123 C 643.44 -0.844633 -1.39175 0
M  V30 7124 O 644.629 -1.12304 -1.38744 0
M  V30 7125 C 641.729 -2.20769 -2.57127 0
M  V30 7126 C 640.902 -3.52053 -2.59572 0
M  V30 7127 C 639.961 -3.66482 -3.77594 0
M  V30 7128 O 638.987 -4.38873 -3.62462 0
M  V30 7129 N 640.189 -3.03156 -4.95052 0
M  V30 7130 H 642.954 -2.86374 -0.883757 0
M  V30 7131 H 640.515 -1.58366 -0.336436 0
M  V30 7132 H 642.507 -2.27664 -3.34591 0
M  V30 7133 H 641.077 -1.35538 -2.81688 0
M  V30 7134 H 640.297 -3.56598 -1.68023 0
M  V30 7135 H 641.585 -4.38396 -2.58238 0
M  V30 7136 H 640.983 -2.44258 -5.10249 0
M  V30 7137 H 639.54 -3.15611 -5.70292 0
M  V30 7138 N 642.974 0.416227 -1.52004 0
M  V30 7139 C 643.904 1.51365 -1.77795 0
M  V30 7140 C 644.885 1.58059 -0.628601 0
M  V30 7141 O 646.07 1.73447 -0.873478 0
M  V30 7142 C 643.2 2.89256 -1.92219 0
M  V30 7143 C 642.154 2.97415 -3.0778 0
M  V30 7144 C 641.48 4.37492 -3.07417 0
M  V30 7145 C 642.78 2.69551 -4.47369 0
M  V30 7146 H 644.474 1.30033 -2.69688 0
M  V30 7147 H 642.02 0.624112 -1.29772 0
M  V30 7148 H 643.973 3.66008 -2.08845 0
M  V30 7149 H 642.697 3.11866 -0.969917 0
M  V30 7150 H 641.356 2.23107 -2.90893 0
M  V30 7151 H 641.004 4.571 -2.09925 0
M  V30 7152 H 640.704 4.43877 -3.85029 0
M  V30 7153 H 642.228 5.16188 -3.26162 0
M  V30 7154 H 643.642 3.36028 -4.64497 0
M  V30 7155 H 642.039 2.87321 -5.26846 0
M  V30 7156 H 643.109 1.65029 -4.55953 0
M  V30 7157 N 644.452 1.42507 0.673017 0
M  V30 7158 C 645.698 1.44282 1.43367 0
M  V30 7159 C 646.053 0.0588239 1.9231 0
M  V30 7160 O 645.346 -0.919288 1.68106 0
M  V30 7161 C 645.54 2.40351 2.64511 0
M  V30 7162 C 645.369 3.87955 2.27423 0
M  V30 7163 C 644.139 4.56476 2.16697 0
M  V30 7164 C 646.337 4.7833 1.88957 0
M  V30 7165 N 644.319 5.89099 1.72731 0
M  V30 7166 C 645.69 6.00073 1.55923 0
M  V30 7167 C 647.745 4.65769 1.75965 0
M  V30 7168 C 646.448 7.10652 1.112 0
M  V30 7169 C 648.474 5.76332 1.32647 0
M  V30 7170 C 647.836 6.97188 1.00538 0
M  V30 7171 H 643.935 0.583134 0.521036 0
M  V30 7172 H 646.519 1.78547 0.776481 0
M  V30 7173 H 644.69 2.08145 3.27918 0
M  V30 7174 H 646.422 2.32694 3.31113 0
M  V30 7175 H 643.177 4.10712 2.35823 0
M  V30 7176 H 643.601 6.59446 1.53166 0
M  V30 7177 H 648.243 3.72808 1.99435 0
M  V30 7178 H 645.961 8.0346 0.864768 0
M  V30 7179 H 649.547 5.68625 1.23112 0
M  V30 7180 H 648.427 7.81287 0.675283 0
M  V30 7181 N 645.93 -0.909495 1.28709 0
M  V30 7182 C 646.86 -2.0291 1.15542 0
M  V30 7183 C 647.841 -1.7002 0.0521017 0
M  V30 7184 O 649.026 -1.92835 0.229849 0
M  V30 7185 C 646.156 -3.37458 0.820935 0
M  V30 7186 C 645.11 -3.84524 1.87949 0
M  V30 7187 C 644.436 -5.16086 1.39854 0
M  V30 7188 C 645.736 -4.05918 3.28676 0
M  V30 7189 H 647.43 -2.14183 2.09203 0
M  V30 7190 H 644.976 -1.02913 1.00722 0
M  V30 7191 H 646.929 -4.1528 0.715571 0
M  V30 7192 H 645.653 -3.26249 -0.151374 0
M  V30 7193 H 644.312 -3.08911 1.97408 0
M  V30 7194 H 643.96 -5.01284 0.41518 0
M  V30 7195 H 643.66 -5.48547 2.1064 0
M  V30 7196 H 645.184 -5.96459 1.30649 0
M  V30 7197 H 646.598 -4.74252 3.22115 0
M  V30 7198 H 644.995 -4.49717 3.97334 0
M  V30 7199 H 646.065 -3.10583 3.72379 0
M  V30 7200 N 647.408 -1.11026 -1.11852 0
M  V30 7201 C 648.685 -0.768347 -1.79877 0
M  V30 7202 C 649.065 0.744261 -1.97545 0
M  V30 7203 O 648.413 1.67271 -1.55669 0
M  V30 7204 C 648.623 -1.52648 -3.13846 0
M  V30 7205 C 649.971 -1.70297 -3.88953 0
M  V30 7206 O 650.995 -1.49037 -3.23522 0
M  V30 7207 O 649.854 -2.05593 -5.06353 0
M  V30 7208 H 646.948 -0.277891 -0.778913 0
M  V30 7209 H 649.494 -1.21343 -1.18633 0
M  V30 7210 H 648.266 -2.55564 -2.96315 0
M  V30 7211 H 647.889 -1.07466 -3.82801 0
M  V30 7212 N 648.886 1.2938 -0.899927 0
M  V30 7213 C 649.849 2.25983 -0.382677 0
M  V30 7214 C 650.849 1.53366 0.483259 0
M  V30 7215 O 652.039 1.71798 0.28828 0
M  V30 7216 C 649.171 3.37878 0.452915 0
M  V30 7217 H 650.364 2.73252 -1.23586 0
M  V30 7218 H 647.917 1.40825 -0.678088 0
M  V30 7219 H 648.652 2.95949 1.32608 0
M  V30 7220 H 648.437 3.91742 -0.167562 0
M  V30 7221 H 649.927 4.09746 0.806107 0
M  V30 7222 N 650.364 0.662433 1.43002 0
M  V30 7223 C 651.594 0.187343 2.05749 0
M  V30 7224 C 652.002 -1.15582 1.49791 0
M  V30 7225 O 651.345 -1.72651 0.627487 0
M  V30 7226 C 651.407 0.0316493 3.59486 0
M  V30 7227 C 651.071 1.30156 4.38073 0
M  V30 7228 C 652.068 2.23234 4.69535 0
M  V30 7229 C 649.753 1.54572 4.77926 0
M  V30 7230 C 651.747 3.39012 5.39768 0
M  V30 7231 C 649.434 2.70641 5.47902 0
M  V30 7232 C 650.432 3.62687 5.78746 0
M  V30 7233 O 650.12 4.76728 6.47291 0
M  V30 7234 H 649.852 0.0915214 0.669776 0
M  V30 7235 H 652.406 0.905982 1.8434 0
M  V30 7236 H 650.636 -0.742451 3.79506 0
M  V30 7237 H 652.325 -0.401977 4.03905 0
M  V30 7238 H 653.091 2.05616 4.39257 0
M  V30 7239 H 648.97 0.83804 4.53319 0
M  V30 7240 H 652.514 4.10877 5.63761 0
M  V30 7241 H 648.411 2.88189 5.77596 0
M  V30 7242 H 649.179 4.76113 6.65777 0
M  V30 7243 N 651.842 -1.52309 0.404946 0
M  V30 7244 C 652.772 -2.29805 -0.41376 0
M  V30 7245 C 653.753 -1.3384 -1.0498 0
M  V30 7246 O 654.938 -1.62745 -1.05961 0
M  V30 7247 C 652.068 -3.11639 -1.53292 0
M  V30 7248 C 651.022 -4.15616 -1.02211 0
M  V30 7249 C 650.348 -4.8577 -2.23455 0
M  V30 7250 C 651.648 -5.2224 -0.0790725 0
M  V30 7251 H 653.342 -2.98493 0.232878 0
M  V30 7252 H 650.888 -1.43552 0.113441 0
M  V30 7253 H 652.841 -3.64618 -2.11262 0
M  V30 7254 H 651.565 -2.40712 -2.20738 0
M  V30 7255 H 650.224 -3.63641 -0.46484 0
M  V30 7256 H 649.872 -4.11376 -2.89445 0
M  V30 7257 H 649.572 -5.56058 -1.89929 0
M  V30 7258 H 651.096 -5.4156 -2.82038 0
M  V30 7259 H 652.51 -5.70485 -0.567438 0
M  V30 7260 H 650.907 -5.99867 0.167167 0
M  V30 7261 H 651.977 -4.77078 0.867447 0
M  V30 7262 N 653.32 -0.135238 -1.57019 0
M  V30 7263 C 654.27 0.820408 -2.12728 0
M  V30 7264 C 655.254 1.21735 -1.05211 0
M  V30 7265 O 656.446 1.18574 -1.31413 0
M  V30 7266 C 653.575 2.06414 -2.74314 0
M  V30 7267 C 652.661 1.69083 -3.88937 0
M  V30 7268 N 653.052 1.0251 -4.95303 0
M  V30 7269 C 651.35 1.98434 -3.99425 0
M  V30 7270 C 652.051 0.846749 -5.75504 0
M  V30 7271 N 651.027 1.3769 -5.25873 0
M  V30 7272 H 654.829 0.302426 -2.9234 0
M  V30 7273 H 652.343 0.0667009 -1.62263 0
M  V30 7274 H 654.34 2.75863 -3.12579 0
M  V30 7275 H 653 2.58741 -1.96171 0
M  V30 7276 H 654.011 0.687207 -5.1332 0
M  V30 7277 H 650.688 2.52693 -3.32344 0
M  V30 7278 H 652.078 0.322949 -6.71123 0
M  V30 7279 N 654.798 1.5699 0.138552 0
M  V30 7280 C 655.73 1.95515 1.1961 0
M  V30 7281 C 656.743 0.852002 1.38726 0
M  V30 7282 O 657.932 1.13038 1.38147 0
M  V30 7283 C 655.032 2.2213 2.55952 0
M  V30 7284 C 654.205 3.53424 2.57702 0
M  V30 7285 C 653.264 3.6848 3.75645 0
M  V30 7286 O 652.29 4.4079 3.60129 0
M  V30 7287 N 653.492 3.05777 4.93438 0
M  V30 7288 H 656.257 2.86838 0.868557 0
M  V30 7289 H 653.818 1.58542 0.328033 0
M  V30 7290 H 655.81 2.29435 3.33379 0
M  V30 7291 H 654.38 1.3703 2.80965 0
M  V30 7292 H 653.6 3.57484 1.6613 0
M  V30 7293 H 654.888 4.39759 2.55909 0
M  V30 7294 H 654.286 2.46961 5.08947 0
M  V30 7295 H 652.843 3.18631 5.6861 0
M  V30 7296 O 656.315 -0.283142 1.58999 0
M  V30 7297 H 657.006 -0.92904 1.69966 0
M  V30 END ATOM
M  V30 BEGIN BOND
M  V30 END BOND
M  V30 END CTAB
M  END
$$$$
