drugbank_target|P08244 Orotidine 5'-phosphate decarboxylase (DB02890; DB03668)
 OpenBabel12092119583D

  0  0  0     0  0            999 V3000
M  V30 BEGIN CTAB
M  V30 COUNTS 3708 3739 0 0 0
M  V30 BEGIN ATOM
M  V30 1 H -0.908 1.98254 -0.117106 0
M  V30 2 N 0 1.576 0 0
M  V30 3 C 0.933 2.03868 1.02534 0
M  V30 4 C 1.911 0.928543 1.3348 0
M  V30 5 O 3.095 1.19667 1.45644 0
M  V30 6 C 0.222 2.43627 2.35294 0
M  V30 7 C -0.732 3.65373 2.2001 0
M  V30 8 S 0.101 5.13292 1.52614 0
M  V30 9 C 1.257 5.56322 2.86805 0
M  V30 10 H 1.49 2.90518 0.631377 0
M  V30 11 H -0.977 1.52953 0.210867 0
M  V30 12 H 0.981 2.67203 3.11629 0
M  V30 13 H -0.358 1.57376 2.7183 0
M  V30 14 H -1.165 3.90944 3.18086 0
M  V30 15 H -1.563 3.418 1.51819 0
M  V30 16 H 0.729 5.58782 3.83104 0
M  V30 17 H 1.672 6.56266 2.65933 0
M  V30 18 H 2.08 4.83886 2.90714 0
M  V30 19 N 1.4781 -0.272755 1.55222 0
M  V30 20 C 2.7061 -1.02255 1.79865 0
M  V30 21 C 3.1211 -1.79924 0.572088 0
M  V30 22 O 2.4781 -1.76638 -0.458842 0
M  V30 23 C 2.5291 -1.98094 3.02392 0
M  V30 24 O 2.2501 -1.23572 4.20311 0
M  V30 25 C 3.7511 -2.84884 3.39641 0
M  V30 26 H 0.9711 -0.302057 0.599168 0
M  V30 27 H 3.5151 -0.303465 2.02236 0
M  V30 28 H 1.6701 -2.65465 2.82147 0
M  V30 29 H 2.0841 -1.88172 4.89583 0
M  V30 30 H 3.5581 -3.47927 4.28545 0
M  V30 31 H 4.0351 -3.54665 2.59055 0
M  V30 32 H 4.6411 -2.23003 3.62146 0
M  V30 33 N 2.9562 -1.48159 -0.537278 0
M  V30 34 C 3.8862 -1.65029 -1.6519 0
M  V30 35 C 4.8672 -0.499281 -1.62607 0
M  V30 36 O 6.0522 -0.730972 -1.79918 0
M  V30 37 C 3.1822 -1.68303 -3.03795 0
M  V30 38 C 2.1362 -2.8283 -3.21234 0
M  V30 39 C 1.4622 -2.71189 -4.60826 0
M  V30 40 C 2.7622 -4.24211 -3.04701 0
M  V30 41 H 4.4562 -2.58341 -1.51328 0
M  V30 42 H 2.0022 -1.24325 -0.726585 0
M  V30 43 H 3.9552 -1.78693 -3.81637 0
M  V30 44 H 2.6792 -0.715635 -3.18663 0
M  V30 45 H 1.3382 -2.71983 -2.45807 0
M  V30 46 H 0.9862 -1.72435 -4.7252 0
M  V30 47 H 0.6862 -3.48035 -4.7344 0
M  V30 48 H 2.2102 -2.83537 -5.40777 0
M  V30 49 H 3.6242 -4.3593 -3.72341 0
M  V30 50 H 2.0212 -5.01998 -3.28813 0
M  V30 51 H 3.0912 -4.41184 -2.01209 0
M  V30 52 N 4.4343 0.785586 -1.36625 0
M  V30 53 C 5.6623 1.57448 -1.3423 0
M  V30 54 C 6.0773 1.88649 0.0755653 0
M  V30 55 O 5.4343 1.50414 1.03354 0
M  V30 56 C 5.4853 2.89316 -2.16745 0
M  V30 57 O 5.2063 2.59459 -3.53005 0
M  V30 58 C 6.7073 3.83606 -2.22174 0
M  V30 59 H 3.9273 0.488226 -0.4603 0
M  V30 60 H 6.4713 0.974733 -1.79775 0
M  V30 61 H 4.6263 3.4575 -1.74745 0
M  V30 62 H 5.0403 3.43804 -3.96105 0
M  V30 63 H 6.5143 4.73181 -2.8426 0
M  V30 64 H 6.9913 4.21734 -1.22627 0
M  V30 65 H 7.5973 3.33104 -2.64427 0
M  V30 66 N 5.9124 1.20967 1.01018 0
M  V30 67 C 6.8754 0.965918 2.07853 0
M  V30 68 C 7.8754 -0.0610545 1.60684 0
M  V30 69 O 9.0654 0.175681 1.73312 0
M  V30 70 C 6.1974 0.455513 3.37843 0
M  V30 71 H 7.3904 1.91365 2.3091 0
M  V30 72 H 4.9434 1.02594 1.17916 0
M  V30 73 H 5.6784 -0.497381 3.20463 0
M  V30 74 H 5.4634 1.19622 3.73407 0
M  V30 75 H 6.9534 0.304667 4.16487 0
M  V30 76 N 7.3905 -1.2043 1.01659 0
M  V30 77 C 8.6155 -1.94318 0.724942 0
M  V30 78 C 9.0405 -1.74266 -0.708034 0
M  V30 79 O 8.3985 -1.03694 -1.48719 0
M  V30 80 C 8.4465 -3.44486 1.06591 0
M  V30 81 O 7.5505 -4.12017 0.177599 0
M  V30 82 H 6.8915 -0.60708 0.26898 0
M  V30 83 H 9.4215 -1.52861 1.35995 0
M  V30 84 H 9.4315 -3.95106 1.01762 0
M  V30 85 H 8.1065 -3.58404 2.10997 0
M  V30 86 H 6.6835 -3.71821 0.283421 0
M  V30 87 N 8.8686 -0.792821 -1.36206 0
M  V30 88 C 10.0936 -0.377701 -2.03932 0
M  V30 89 C 10.5186 0.998947 -1.59382 0
M  V30 90 O 9.8766 1.64421 -0.763903 0
M  V30 91 C 9.9246 -0.453635 -3.57735 0
M  V30 92 O 9.0286 0.538151 -4.08874 0
M  V30 93 H 8.3696 -0.159855 -0.644471 0
M  V30 94 H 10.8996 -1.07488 -1.7409 0
M  V30 95 H 10.9096 -0.318464 -4.06755 0
M  V30 96 H 9.5846 -1.45784 -3.89512 0
M  V30 97 H 8.1616 0.364359 -3.71116 0
M  V30 98 N 10.3467 1.47872 -0.545128 0
M  V30 99 C 11.5717 2.07391 -0.0190611 0
M  V30 100 C 11.9967 1.39688 1.25971 0
M  V30 101 O 11.3547 0.467816 1.7516 0
M  V30 102 C 11.4027 3.60188 0.172335 0
M  V30 103 O 10.5067 3.9339 1.23766 0
M  V30 104 H 9.8477 0.662411 -0.0459059 0
M  V30 105 H 12.3777 1.90066 -0.757365 0
M  V30 106 H 12.3877 4.06129 0.390305 0
M  V30 107 H 11.0627 4.08865 -0.761725 0
M  V30 108 H 9.6397 3.5921 1.00114 0
M  V30 109 N 11.8248 0.280983 1.55075 0
M  V30 110 C 13.0498 -0.340154 2.04592 0
M  V30 111 C 13.4748 -1.48246 1.15779 0
M  V30 112 O 12.8328 -1.80614 0.15761 0
M  V30 113 C 12.8808 -0.793104 3.5177 0
M  V30 114 O 11.9848 -1.89981 3.66034 0
M  V30 115 H 11.3258 -0.0694289 0.66036 0
M  V30 116 H 13.8558 0.416993 2.00306 0
M  V30 117 H 13.8658 -1.08729 3.93245 0
M  V30 118 H 12.5408 0.0426163 4.15878 0
M  V30 119 H 11.1178 -1.60771 3.36463 0
M  V30 120 N 13.3029 -1.57598 0.00835791 0
M  V30 121 C 14.7189 -1.55764 -0.347822 0
M  V30 122 C 14.9189 -1.01186 -1.74252 0
M  V30 123 O 13.9749 -0.649371 -2.44007 0
M  V30 124 C 15.2879 -2.99927 -0.215407 0
M  V30 125 C 16.8359 -3.11656 -0.289725 0
M  V30 126 C 17.3109 -4.57621 -0.18634 0
M  V30 127 N 18.8019 -4.62557 -0.243978 0
M  V30 128 C 19.5369 -5.73094 -0.18745 0
M  V30 129 N 19.0329 -6.92753 -0.0810331 0
M  V30 130 N 20.8259 -5.61588 -0.239925 0
M  V30 131 H 12.9769 -1.91411 0.92062 0
M  V30 132 H 15.2399 -0.879562 0.353659 0
M  V30 133 H 14.9459 -3.43729 0.744512 0
M  V30 134 H 14.8199 -3.63865 -0.994097 0
M  V30 135 H 17.2069 -2.67779 -1.24009 0
M  V30 136 H 17.2879 -2.5048 0.51898 0
M  V30 137 H 16.9319 -5.02174 0.760519 0
M  V30 138 H 16.8619 -5.16752 -1.01364 0
M  V30 139 H 19.3529 -3.76481 -0.327217 0
M  V30 140 H 19.6659 -7.72787 -0.0440241 0
M  V30 141 H 18.0109 -6.94984 -0.0465419 0
M  V30 142 H 21.2019 -4.66996 -0.321317 0
M  V30 143 H 21.3749 -6.47714 -0.192407 0
M  V30 144 N 14.781 0.264519 -1.55364 0
M  V30 145 C 15.744 1.31046 -1.88042 0
M  V30 146 C 16.744 1.41943 -0.755569 0
M  V30 147 O 17.934 1.40947 -1.02369 0
M  V30 148 C 15.066 2.69067 -2.09323 0
M  V30 149 H 16.259 1.03297 -2.81549 0
M  V30 150 H 13.812 0.502989 -1.47986 0
M  V30 151 H 14.547 3.01982 -1.18226 0
M  V30 152 H 14.332 2.62542 -2.91229 0
M  V30 153 H 15.822 3.44623 -2.35848 0
M  V30 154 N 16.2591 1.48442 0.529413 0
M  V30 155 C 17.5051 1.5672 1.28711 0
M  V30 156 C 17.8381 0.2406 1.92704 0
M  V30 157 O 17.1131 -0.753454 1.79313 0
M  V30 158 C 17.3961 2.70587 2.37603 0
M  V30 159 C 17.2491 4.12953 1.78297 0
M  V30 160 C 18.5681 2.80212 3.39366 0
M  V30 161 H 15.6871 0.570474 0.466613 0
M  V30 162 H 18.3291 1.80617 0.589706 0
M  V30 163 H 16.4791 2.50342 2.97088 0
M  V30 164 H 18.1511 4.44639 1.22858 0
M  V30 165 H 16.3941 4.19927 1.0883 0
M  V30 166 H 17.0651 4.88448 2.57144 0
M  V30 167 H 19.5411 2.98553 2.89836 0
M  V30 168 H 18.4171 3.61611 4.12951 0
M  V30 169 H 18.6781 1.88393 3.99951 0
M  V30 170 N 17.7372 -0.778329 1.37039 0
M  V30 171 C 18.9652 -1.56734 1.35063 0
M  V30 172 C 19.3802 -1.88686 -0.0655597 0
M  V30 173 O 18.7372 -1.5096 -1.02554 0
M  V30 174 C 18.7882 -2.88163 2.18276 0
M  V30 175 O 18.5092 -2.57583 3.54376 0
M  V30 176 C 20.0102 -3.82422 2.24206 0
M  V30 177 H 17.2302 -0.485778 0.462883 0
M  V30 178 H 19.7742 -0.965185 1.8029 0
M  V30 179 H 17.9292 -3.44818 1.76576 0
M  V30 180 H 18.3432 -3.41699 3.97922 0
M  V30 181 H 19.8172 -4.71667 2.86765 0
M  V30 182 H 20.2942 -4.21078 1.24861 0
M  V30 183 H 20.9002 -3.31697 2.6619 0
M  V30 184 N 19.2153 -1.21501 -1.00376 0
M  V30 185 C 20.1633 -0.972442 -2.11297 0
M  V30 186 C 21.1573 0.080731 -1.69208 0
M  V30 187 O 22.3633 -0.0707666 -1.79861 0
M  V30 188 H 18.7383 -0.297218 -0.690772 0
M  V30 189 H 20.7093 -1.91394 -2.28934 0
M  V30 190 C 19.4583 -0.555065 -3.43241 0
M  V30 191 H 18.7813 -1.35709 -3.76062 0
M  V30 192 H 20.2213 -0.424664 -4.21868 0
M  V30 193 C 18.6803 0.734147 -3.28804 0
M  V30 194 O 19.2103 1.78937 -3.59645 0
M  V30 195 N 17.4163 0.701133 -2.82015 0
M  V30 196 H 16.9633 -0.157874 -2.57116 0
M  V30 197 H 16.9213 1.56403 -2.72737 0
M  V30 198 N 20.6934 1.19889 -1.02296 0
M  V30 199 C 21.9184 1.9393 -0.735237 0
M  V30 200 C 22.3434 1.74639 0.698782 0
M  V30 201 O 21.7014 1.04481 1.48167 0
M  V30 202 C 21.7494 3.43916 -1.08417 0
M  V30 203 O 20.8534 4.11917 -0.199446 0
M  V30 204 H 20.1944 0.605645 -0.272196 0
M  V30 205 H 22.7244 1.52137 -1.36804 0
M  V30 206 H 22.7344 3.9456 -1.03856 0
M  V30 207 H 21.4094 3.5728 -2.12894 0
M  V30 208 H 19.9864 3.71666 -0.303136 0
M  V30 209 N 22.1715 0.800033 1.35784 0
M  V30 210 C 23.5825 0.439142 1.81462 0
M  V30 211 C 23.9335 -1.03813 1.66485 0
M  V30 212 O 23.0585 -1.80626 1.19177 0
M  V30 213 C 23.6535 0.790314 3.29453 0
M  V30 214 C 22.2125 0.482111 3.733 0
M  V30 215 C 21.3595 1.01938 2.57883 0
M  V30 216 H 24.3105 0.992254 1.23855 0
M  V30 217 H 24.3315 0.0853677 3.80404 0
M  V30 218 H 23.8435 1.86554 3.40322 0
M  V30 219 H 21.9445 -0.584652 3.67984 0
M  V30 220 H 22.0575 1.01015 4.6833 0
M  V30 221 H 20.4215 0.442043 2.50835 0
M  V30 222 H 21.2045 2.10059 2.71533 0
M  V30 223 N 23.6496 -1.47581 0.552962 0
M  V30 224 C 24.8956 -2.02782 0.0273648 0
M  V30 225 C 25.2286 -1.42687 -1.31734 0
M  V30 226 O 24.5036 -0.580897 -1.85623 0
M  V30 227 C 24.7866 -3.60031 -0.0702371 0
M  V30 228 C 24.6396 -4.30566 1.30126 0
M  V30 229 C 25.9586 -4.33028 -0.785771 0
M  V30 230 H 23.0776 -0.736912 0.0114185 0
M  V30 231 H 25.7196 -1.76056 0.714432 0
M  V30 232 H 23.8696 -3.82932 -0.655382 0
M  V30 233 H 25.5416 -4.19018 1.92929 0
M  V30 234 H 23.7846 -3.91086 1.87709 0
M  V30 235 H 24.4556 -5.39114 1.18573 0
M  V30 236 H 26.9316 -4.15095 -0.288982 0
M  V30 237 H 25.8076 -5.42695 -0.823013 0
M  V30 238 H 26.0686 -4.01945 -1.841 0
M  V30 239 N 25.1277 -0.289203 -1.54924 0
M  V30 240 C 26.3737 0.323998 -2.00195 0
M  V30 241 C 26.7067 1.54441 -1.17735 0
M  V30 242 O 25.9817 1.92875 -0.250878 0
M  V30 243 C 26.2647 0.692276 -3.53383 0
M  V30 244 C 26.1177 -0.536457 -4.46589 0
M  V30 245 C 27.4367 1.52335 -4.12895 0
M  V30 246 H 24.5557 0.116289 -0.727768 0
M  V30 247 H 27.1977 -0.398954 -1.85764 0
M  V30 248 H 25.3477 1.30822 -3.65811 0
M  V30 249 H 27.0197 -1.17499 -4.46085 0
M  V30 250 H 25.2627 -1.17192 -4.1767 0
M  V30 251 H 25.9337 -0.234806 -5.515 0
M  V30 252 H 28.4097 1.00302 -4.0383 0
M  V30 253 H 27.2857 1.74982 -5.20262 0
M  V30 254 H 27.5467 2.50886 -3.64018 0
M  V30 255 N 26.6058 1.57591 -0.0167156 0
M  V30 256 C 27.8518 1.91567 0.665582 0
M  V30 257 C 28.1848 0.892298 1.72487 0
M  V30 258 O 27.4598 -0.0867127 1.94307 0
M  V30 259 C 27.7428 3.36069 1.29342 0
M  V30 260 C 27.5958 4.49135 0.244541 0
M  V30 261 C 28.9148 3.803 2.21495 0
M  V30 262 H 26.0338 0.69666 0.240488 0
M  V30 263 H 28.6758 1.89866 -0.0714356 0
M  V30 264 H 26.8258 3.3765 1.92158 0
M  V30 265 H 28.4978 4.59689 -0.385228 0
M  V30 266 H 26.7408 4.3165 -0.431379 0
M  V30 267 H 27.4118 5.47242 0.723207 0
M  V30 268 H 29.8878 3.80377 1.68678 0
M  V30 269 H 28.7638 4.82127 2.62382 0
M  V30 270 H 29.0248 3.15104 3.101 0
M  V30 271 N 28.0839 -0.256276 1.55502 0
M  V30 272 C 29.0469 -1.30047 1.88734 0
M  V30 273 C 30.0469 -1.4154 0.763086 0
M  V30 274 O 31.2369 -1.40403 1.03115 0
M  V30 275 C 28.3689 -2.67953 2.10747 0
M  V30 276 H 29.5619 -1.01802 2.82093 0
M  V30 277 H 27.1149 -0.495134 1.4825 0
M  V30 278 H 27.8499 -3.01351 1.19825 0
M  V30 279 H 27.6349 -2.60993 2.92617 0
M  V30 280 H 29.1249 -3.43368 2.37673 0
M  V30 281 N 29.562 -1.4872 -0.521534 0
M  V30 282 C 30.492 -1.66771 -1.63431 0
M  V30 283 C 31.473 -0.516499 -1.62069 0
M  V30 284 O 32.658 -0.750013 -1.79132 0
M  V30 285 C 29.788 -1.71515 -3.01993 0
M  V30 286 C 28.742 -2.86222 -3.18216 0
M  V30 287 C 28.068 -2.76061 -4.57924 0
M  V30 288 C 29.368 -4.27419 -3.00184 0
M  V30 289 H 31.062 -2.59932 -1.48579 0
M  V30 290 H 28.608 -1.25089 -0.713358 0
M  V30 291 H 30.561 -1.82731 -3.7972 0
M  V30 292 H 29.285 -0.749393 -3.17886 0
M  V30 293 H 27.944 -2.74575 -2.42908 0
M  V30 294 H 27.592 -1.77437 -4.70665 0
M  V30 295 H 27.292 -3.53037 -4.69722 0
M  V30 296 H 28.816 -2.89256 -5.37739 0
M  V30 297 H 30.23 -4.39855 -3.67697 0
M  V30 298 H 28.627 -5.05458 -3.2347 0
M  V30 299 H 29.697 -4.43293 -1.96518 0
M  V30 300 N 31.0401 0.771051 -1.3745 0
M  V30 301 C 32.3171 1.519 -1.23231 0
M  V30 302 C 32.6971 2.10383 0.173809 0
M  V30 303 O 32.0451 1.95583 1.18151 0
M  V30 304 C 32.2551 2.59933 -2.32886 0
M  V30 305 C 33.6031 3.27316 -2.70461 0
M  V30 306 O 34.6271 2.70228 -2.32068 0
M  V30 307 O 33.4861 4.30531 -3.36608 0
M  V30 308 H 30.5801 0.672803 -0.480901 0
M  V30 309 H 33.1261 0.807957 -1.49232 0
M  V30 310 H 31.8981 2.14842 -3.27045 0
M  V30 311 H 31.5211 3.38637 -2.08353 0
M  V30 312 N 32.5182 1.22032 0.997298 0
M  V30 313 C 33.7482 1.06686 1.76923 0
M  V30 314 C 34.1562 -0.385838 1.85224 0
M  V30 315 O 33.4992 -1.27929 1.31833 0
M  V30 316 C 33.5612 1.59802 3.22031 0
M  V30 317 C 33.2252 3.08362 3.37286 0
M  V30 318 C 34.2222 4.05835 3.24952 0
M  V30 319 C 31.9072 3.47727 3.6248 0
M  V30 320 C 33.9012 5.4066 3.37588 0
M  V30 321 C 31.5882 4.82701 3.74757 0
M  V30 322 C 32.5862 5.78977 3.62319 0
M  V30 323 O 32.2742 7.11502 3.74193 0
M  V30 324 H 32.0062 0.374767 0.562606 0
M  V30 325 H 34.5602 1.61991 1.26286 0
M  V30 326 H 32.7902 0.989003 3.73839 0
M  V30 327 H 34.4792 1.40184 3.80924 0
M  V30 328 H 35.2452 3.76766 3.05405 0
M  V30 329 H 31.1242 2.73317 3.7124 0
M  V30 330 H 34.6682 6.15788 3.27796 0
M  V30 331 H 30.5652 5.11453 3.9381 0
M  V30 332 H 31.3332 7.19019 3.91093 0
M  V30 333 N 33.9963 -1.19345 1.0293 0
M  V30 334 C 34.9463 -2.20472 0.58104 0
M  V30 335 C 35.9303 -1.56578 -0.370442 0
M  V30 336 O 37.1223 -1.75963 -0.191344 0
M  V30 337 C 34.2513 -3.43236 -0.066306 0
M  V30 338 C 33.3373 -4.14274 0.907642 0
M  V30 339 N 33.7283 -4.61492 2.07023 0
M  V30 340 C 32.0263 -4.39966 0.731177 0
M  V30 341 C 32.7273 -5.1605 2.68454 0
M  V30 342 N 31.7033 -5.06875 1.96414 0
M  V30 343 H 35.5053 -2.54659 1.46717 0
M  V30 344 H 33.0193 -1.35423 0.896345 0
M  V30 345 H 35.0163 -4.14927 -0.405068 0
M  V30 346 H 33.6763 -3.10549 -0.948118 0
M  V30 347 H 34.6873 -4.56304 2.44963 0
M  V30 348 H 31.3643 -4.17377 -0.101507 0
M  V30 349 H 32.7543 -5.6287 3.66915 0
M  V30 350 N 35.4744 -0.807222 -1.35358 0
M  V30 351 C 36.4224 -0.20614 -2.31685 0
M  V30 352 C 37.4164 0.644445 -1.56663 0
M  V30 353 O 38.6224 0.537538 -1.71786 0
M  V30 354 H 34.9974 -0.0479006 -0.750473 0
M  V30 355 H 36.9684 -1.03369 -2.79924 0
M  V30 356 C 35.7174 0.630212 -3.41941 0
M  V30 357 H 35.0404 -0.0149558 -3.99797 0
M  V30 358 H 36.4804 1.01716 -4.11619 0
M  V30 359 C 34.9394 1.79601 -2.85035 0
M  V30 360 O 35.4694 2.89351 -2.78637 0
M  V30 361 N 33.6754 1.60774 -2.42074 0
M  V30 362 H 33.2224 0.715009 -2.47478 0
M  V30 363 H 33.1804 2.38933 -2.04349 0
M  V30 364 N 36.9525 1.47285 -0.560781 0
M  V30 365 C 38.3685 1.58065 -0.22081 0
M  V30 366 C 38.5685 1.55892 1.27671 0
M  V30 367 O 37.6245 1.46422 2.0571 0
M  V30 368 C 38.9375 2.88418 -0.850625 0
M  V30 369 C 40.4855 3.02009 -0.822184 0
M  V30 370 C 40.9605 4.35066 -1.43113 0
M  V30 371 N 42.4515 4.41711 -1.39448 0
M  V30 372 C 43.1865 5.43237 -1.83525 0
M  V30 373 N 42.6825 6.51555 -2.35474 0
M  V30 374 N 44.4755 5.34304 -1.74574 0
M  V30 375 H 36.6265 1.46941 -1.53369 0
M  V30 376 H 38.8895 0.699558 -0.639783 0
M  V30 377 H 38.5955 2.95755 -1.9032 0
M  V30 378 H 38.4695 3.75612 -0.345773 0
M  V30 379 H 40.8565 2.94266 0.221714 0
M  V30 380 H 40.9375 2.16347 -1.36483 0
M  V30 381 H 40.5815 4.43565 -2.47412 0
M  V30 382 H 40.5115 5.19465 -0.863899 0
M  V30 383 H 43.0025 3.64027 -1.01452 0
M  V30 384 H 43.3155 7.25203 -2.67021 0
M  V30 385 H 41.6605 6.52435 -2.39487 0
M  V30 386 H 44.8515 4.48581 -1.33763 0
M  V30 387 H 45.0245 6.13288 -2.09242 0
M  V30 388 N 38.4306 0.297415 1.54768 0
M  V30 389 C 39.7076 -0.365847 1.92148 0
M  V30 390 C 40.0876 -1.71975 1.22424 0
M  V30 391 O 39.4356 -2.25666 0.358739 0
M  V30 392 C 39.6456 -0.484056 3.45627 0
M  V30 393 C 40.9936 -0.756594 4.17805 0
M  V30 394 O 42.0176 -0.568007 3.51642 0
M  V30 395 O 40.8766 -1.11863 5.34929 0
M  V30 396 H 37.9706 -0.203919 0.801465 0
M  V30 397 H 40.5166 0.34521 1.66152 0
M  V30 398 H 39.2886 0.467865 3.88493 0
M  V30 399 H 38.9116 -1.24372 3.77647 0
M  V30 400 N 39.9087 -1.5758 0.0250728 0
M  V30 401 C 41.1857 -1.82917 -0.692873 0
M  V30 402 C 41.5657 -0.908137 -1.90568 0
M  V30 403 O 40.9137 0.0372298 -2.2847 0
M  V30 404 C 41.1237 -3.32034 -1.07492 0
M  V30 405 C 42.4717 -3.98406 -1.46826 0
M  V30 406 O 43.4957 -3.36505 -1.16801 0
M  V30 407 O 42.3547 -5.07497 -2.02754 0
M  V30 408 H 39.4487 -0.754079 -0.33955 0
M  V30 409 H 41.9947 -1.69619 0.0524456 0
M  V30 410 H 40.7667 -3.90728 -0.211552 0
M  V30 411 H 40.3897 -3.50424 -1.87854 0
M  V30 412 N 41.3868 0.248026 -1.55636 0
M  V30 413 C 42.3498 1.29044 -1.89421 0
M  V30 414 C 43.3498 1.41134 -0.770581 0
M  V30 415 O 44.5398 1.39854 -1.03858 0
M  V30 416 C 41.6718 2.66831 -2.12165 0
M  V30 417 H 42.8648 1.00305 -2.82629 0
M  V30 418 H 40.4178 0.487265 -1.48511 0
M  V30 419 H 41.1528 3.00711 -1.21422 0
M  V30 420 H 40.9378 2.59438 -2.93997 0
M  V30 421 H 42.4278 3.42103 -2.3949 0
M  V30 422 N 42.8649 1.48995 0.513639 0
M  V30 423 C 43.7949 1.67636 1.62544 0
M  V30 424 C 44.7759 0.525087 1.61793 0
M  V30 425 O 45.9609 0.759502 1.78732 0
M  V30 426 C 43.0909 1.73114 3.01079 0
M  V30 427 C 42.0449 2.87905 3.16693 0
M  V30 428 C 41.3709 2.78486 4.56453 0
M  V30 429 C 42.6709 4.29005 2.97913 0
M  V30 430 H 44.3649 2.60716 1.47198 0
M  V30 431 H 41.9109 1.25465 0.706714 0
M  V30 432 H 43.8639 1.84742 3.78746 0
M  V30 433 H 42.5879 0.766241 3.17484 0
M  V30 434 H 41.2469 2.75859 2.41448 0
M  V30 435 H 40.8949 1.7993 4.69717 0
M  V30 436 H 40.5949 3.55523 4.67843 0
M  V30 437 H 42.1189 2.92104 5.36197 0
M  V30 438 H 43.5329 4.41798 3.65359 0
M  V30 439 H 41.9299 5.07166 3.20785 0
M  V30 440 H 42.9999 4.44329 1.94165 0
M  V30 441 N 44.343 -0.763751 1.37857 0
M  V30 442 C 45.306 -1.85889 1.34081 0
M  V30 443 C 46.306 -1.58949 0.243277 0
M  V30 444 O 47.496 -1.66882 0.499589 0
M  V30 445 C 44.628 -3.23176 1.08489 0
M  V30 446 H 45.821 -1.90648 2.31502 0
M  V30 447 H 43.374 -0.964367 1.23003 0
M  V30 448 H 44.109 -3.24091 0.116318 0
M  V30 449 H 43.894 -3.44124 1.8794 0
M  V30 450 H 45.384 -4.03254 1.08517 0
M  V30 451 N 45.8211 -1.22559 -0.990812 0
M  V30 452 C 47.0681 -1.05141 -1.73065 0
M  V30 453 C 47.3961 0.413191 -1.9006 0
M  V30 454 O 46.6511 1.32257 -1.44245 0
M  V30 455 C 46.9501 -1.71011 -3.13831 0
M  V30 456 C 46.6161 -3.20911 -3.16745 0
M  V30 457 C 45.2781 -3.61812 -3.17247 0
M  V30 458 C 47.6301 -4.16846 -3.12872 0
M  V30 459 C 44.9581 -4.97127 -3.1158 0
M  V30 460 C 47.3101 -5.5214 -3.08746 0
M  V30 461 C 45.9741 -5.92419 -3.07565 0
M  V30 462 H 45.2441 -0.384738 -0.633291 0
M  V30 463 H 47.8911 -1.5235 -1.16025 0
M  V30 464 H 46.1961 -1.16133 -3.74193 0
M  V30 465 H 47.8931 -1.55023 -3.69823 0
M  V30 466 H 44.4831 -2.88344 -3.17105 0
M  V30 467 H 48.6671 -3.86263 -3.11632 0
M  V30 468 H 43.9231 -5.27562 -3.09012 0
M  V30 469 H 48.0971 -6.26201 -3.04705 0
M  V30 470 H 45.7241 -6.97236 -3.02929 0
M  V30 471 N 47.2992 1.18797 -1.03562 0
M  V30 472 C 48.5452 1.8893 -0.737113 0
M  V30 473 C 48.8782 1.79837 0.732956 0
M  V30 474 O 48.1532 1.19525 1.5344 0
M  V30 475 C 48.4362 3.39607 -1.19745 0
M  V30 476 C 48.2892 3.57537 -2.72924 0
M  V30 477 C 49.6082 4.33069 -0.783526 0
M  V30 478 H 46.7272 0.686057 -0.269249 0
M  V30 479 H 49.3692 1.39797 -1.28673 0
M  V30 480 H 47.5192 3.81583 -0.729855 0
M  V30 481 H 49.1912 3.24688 -3.27682 0
M  V30 482 H 47.4342 3.00363 -3.12993 0
M  V30 483 H 48.1052 4.63238 -3.00191 0
M  V30 484 H 50.5812 3.98846 -1.18581 0
M  V30 485 H 49.4572 5.3707 -1.13343 0
M  V30 486 H 49.7182 4.40986 0.313681 0
M  V30 487 N 48.7773 0.814389 1.34928 0
M  V30 488 C 50.0543 0.321363 1.92942 0
M  V30 489 C 50.4343 -1.19014 1.74353 0
M  V30 490 O 49.7823 -1.99328 1.11716 0
M  V30 491 C 49.9923 0.741323 3.41036 0
M  V30 492 C 51.3403 0.735266 4.18185 0
M  V30 493 O 52.3643 0.68336 3.49584 0
M  V30 494 O 51.2233 0.800703 5.40602 0
M  V30 495 H 48.3173 0.0858893 0.822528 0
M  V30 496 H 50.8633 0.898609 1.43955 0
M  V30 497 H 49.6353 1.78276 3.4833 0
M  V30 498 H 49.2583 0.139307 3.97356 0
M  V30 499 N 50.2554 -1.46986 0.568584 0
M  V30 500 C 51.2024 -2.30153 -0.172707 0
M  V30 501 C 52.1724 -1.39759 -0.897586 0
M  V30 502 O 53.3574 -1.68716 -0.891044 0
M  V30 503 C 50.4974 -3.23952 -1.1895 0
M  V30 504 C 49.6104 -4.29441 -0.469517 0
M  V30 505 C 48.7454 -5.1038 -1.47259 0
M  V30 506 C 47.7844 -6.07632 -0.738225 0
M  V30 507 N 46.9214 -6.8149 -1.68868 0
M  V30 508 H 51.7614 -2.93019 0.542596 0
M  V30 509 H 49.2984 -1.44422 0.279401 0
M  V30 510 H 51.2564 -3.76767 -1.79173 0
M  V30 511 H 49.8864 -2.62926 -1.87269 0
M  V30 512 H 48.9384 -3.79594 0.247467 0
M  V30 513 H 50.2504 -4.98689 0.105241 0
M  V30 514 H 49.4044 -5.67402 -2.14803 0
M  V30 515 H 48.1434 -4.4106 -2.08128 0
M  V30 516 H 47.1484 -5.49778 -0.0489293 0
M  V30 517 H 48.3734 -6.78966 -0.135129 0
M  V30 518 H 46.3194 -6.14891 -2.28573 0
M  V30 519 H 46.2364 -7.46948 -1.16636 0
M  V30 520 H 47.5044 -7.43078 -2.3549 0
M  V30 521 N 51.7335 -0.305618 -1.54608 0
M  V30 522 C 52.9825 0.303098 -1.9941 0
M  V30 523 C 53.2955 1.54648 -1.19764 0
M  V30 524 O 54.5015 2.23007 -1.54855 0
M  V30 525 C 52.9575 0.590588 -3.55021 0
M  V30 526 C 52.5655 -0.634719 -4.43481 0
M  V30 527 C 54.3095 1.16025 -4.08336 0
M  V30 528 C 52.2165 -0.320126 -5.90533 0
M  V30 529 H 51.1465 0.117031 -0.744862 0
M  V30 530 H 53.7975 -0.415045 -1.78745 0
M  V30 531 H 52.1795 1.36845 -3.71604 0
M  V30 532 H 53.3535 -1.41079 -4.38672 0
M  V30 533 H 51.6685 -1.12333 -4.00962 0
M  V30 534 H 54.2655 1.40994 -5.15776 0
M  V30 535 H 54.6085 2.10397 -3.5922 0
M  V30 536 H 55.1415 0.443985 -3.95315 0
M  V30 537 H 51.8805 -1.23254 -6.43808 0
M  V30 538 H 51.4005 0.418579 -5.98338 0
M  V30 539 H 53.0795 0.0766241 -6.46955 0
M  V30 540 N 53.2116 1.57565 -0.0334293 0
M  V30 541 C 54.4886 1.83282 0.683163 0
M  V30 542 C 54.8686 0.91823 1.90084 0
M  V30 543 O 54.2166 -0.025113 2.28486 0
M  V30 544 C 54.4266 3.32599 1.0573 0
M  V30 545 C 55.7746 3.99179 1.44711 0
M  V30 546 O 56.7986 3.3712 1.15015 0
M  V30 547 O 55.6576 5.08565 2.0006 0
M  V30 548 H 52.7516 0.755869 0.335546 0
M  V30 549 H 55.2976 1.69589 -0.0614402 0
M  V30 550 H 54.0696 3.90834 0.190828 0
M  V30 551 H 53.6926 3.51415 1.85993 0
M  V30 552 N 54.6897 -0.239769 1.55765 0
M  V30 553 C 56.1007 -0.808263 1.68297 0
M  V30 554 C 56.4517 -1.85736 0.632181 0
M  V30 555 O 55.5767 -2.15277 -0.220204 0
M  V30 556 C 56.1717 -1.47284 3.05111 0
M  V30 557 C 54.7307 -1.98895 3.19559 0
M  V30 558 C 53.8777 -0.842575 2.64189 0
M  V30 559 H 56.8287 -0.0154422 1.58692 0
M  V30 560 H 56.8497 -2.34111 2.99954 0
M  V30 561 H 56.3617 -0.709053 3.81568 0
M  V30 562 H 54.4627 -2.78132 2.47938 0
M  V30 563 H 54.5757 -2.18143 4.26556 0
M  V30 564 H 52.9397 -1.24501 2.22197 0
M  V30 565 H 53.7227 -0.0917552 3.43177 0
M  V30 566 N 56.1678 -1.49265 -0.50573 0
M  V30 567 C 57.5838 -1.35923 -0.836486 0
M  V30 568 C 57.7838 -0.388704 -1.97715 0
M  V30 569 O 56.8398 0.181336 -2.51848 0
M  V30 570 C 58.1528 -2.76531 -1.18115 0
M  V30 571 C 59.7008 -2.85197 -1.28964 0
M  V30 572 C 60.1758 -4.26561 -1.66761 0
M  V30 573 N 61.6668 -4.2935 -1.73819 0
M  V30 574 C 62.4018 -5.35693 -2.045 0
M  V30 575 N 61.8978 -6.52287 -2.33438 0
M  V30 576 N 63.6908 -5.23105 -2.05711 0
M  V30 577 H 55.8418 -2.10965 0.246519 0
M  V30 578 H 58.1048 -0.9468 0.0476887 0
M  V30 579 H 57.8108 -3.49226 -0.416398 0
M  V30 580 H 57.6848 -3.11599 -2.1257 0
M  V30 581 H 60.0718 -2.12742 -2.04511 0
M  V30 582 H 60.1528 -2.53718 -0.325704 0
M  V30 583 H 59.7968 -4.99541 -0.917656 0
M  V30 584 H 59.7268 -4.55502 -2.64246 0
M  V30 585 H 62.2178 -3.4526 -1.53635 0
M  V30 586 H 62.5308 -7.29158 -2.56024 0
M  V30 587 H 60.8758 -6.55521 -2.30905 0
M  V30 588 H 64.0668 -4.31026 -1.82577 0
M  V30 589 H 64.2398 -6.06078 -2.29289 0
M  V30 590 N 57.6459 0.756429 -1.3826 0
M  V30 591 C 58.9229 1.50584 -1.24835 0
M  V30 592 C 59.3029 2.10556 0.151485 0
M  V30 593 O 58.6509 1.96825 1.1607 0
M  V30 594 C 58.8609 2.57448 -2.3563 0
M  V30 595 C 60.2089 3.24429 -2.73917 0
M  V30 596 O 61.2329 2.67751 -2.34921 0
M  V30 597 O 60.0919 4.26937 -3.41156 0
M  V30 598 H 57.1859 0.667664 -0.48801 0
M  V30 599 H 59.7319 0.792083 -1.5008 0
M  V30 600 H 58.5039 2.11362 -3.29305 0
M  V30 601 H 58.1269 3.36408 -2.11933 0
M  V30 602 N 59.124 1.23083 0.984299 0
M  V30 603 C 60.364 1.07226 1.74017 0
M  V30 604 C 60.728 -0.384766 1.88105 0
M  V30 605 O 61.929 -0.664411 2.60459 0
M  V30 606 C 60.2 1.77348 3.10294 0
M  V30 607 S 61.759 1.77014 4.01512 0
M  V30 608 H 58.577 0.383819 0.598502 0
M  V30 609 H 61.179 1.56158 1.17622 0
M  V30 610 H 59.883 2.82506 2.97689 0
M  V30 611 H 59.414 1.28682 3.71759 0
M  V30 612 H 61.429 0.825956 4.89277 0
M  V30 613 N 60.6021 -1.18246 1.0419 0
M  V30 614 C 62.0181 -1.40269 0.761366 0
M  V30 615 C 62.2181 -1.90777 -0.648578 0
M  V30 616 O 61.2741 -2.0929 -1.41258 0
M  V30 617 C 62.5871 -2.40237 1.8085 0
M  V30 618 C 64.1351 -2.53961 1.82955 0
M  V30 619 C 64.6101 -3.57194 2.86664 0
M  V30 620 N 66.1011 -3.64702 2.85563 0
M  V30 621 C 66.8361 -4.44309 3.6246 0
M  V30 622 N 66.3321 -5.27514 4.49111 0
M  V30 623 N 68.1251 -4.39084 3.50944 0
M  V30 624 H 60.2761 -0.837882 1.95175 0
M  V30 625 H 62.5391 -0.430608 0.84456 0
M  V30 626 H 62.2451 -2.10176 2.81991 0
M  V30 627 H 62.1191 -3.39601 1.64168 0
M  V30 628 H 64.5061 -2.83338 0.824855 0
M  V30 629 H 64.5871 -1.54706 2.03715 0
M  V30 630 H 64.2311 -3.28558 3.87314 0
M  V30 631 H 64.1611 -4.5613 2.6316 0
M  V30 632 H 66.6521 -3.05289 2.22727 0
M  V30 633 H 66.9651 -5.85411 5.04493 0
M  V30 634 H 65.3101 -5.2693 4.53178 0
M  V30 635 H 68.5011 -3.7313 2.82651 0
M  V30 636 H 68.6741 -5.00883 4.11121 0
M  V30 637 N 62.0802 -0.821533 -1.34494 0
M  V30 638 C 63.0102 -0.257138 -2.3208 0
M  V30 639 C 63.9912 0.625645 -1.58176 0
M  V30 640 O 65.1762 0.552811 -1.86166 0
M  V30 641 C 62.3062 0.582958 -3.42372 0
M  V30 642 C 61.2602 -0.202571 -4.2752 0
M  V30 643 C 60.5862 0.760179 -5.29269 0
M  V30 644 C 61.8862 -1.40998 -5.02908 0
M  V30 645 H 63.5802 -1.07247 -2.79532 0
M  V30 646 H 61.1262 -0.517163 -1.34393 0
M  V30 647 H 63.0792 0.987972 -4.09655 0
M  V30 648 H 61.8032 1.43133 -2.93565 0
M  V30 649 H 60.4622 -0.588936 -3.61838 0
M  V30 650 H 60.1102 1.60447 -4.76724 0
M  V30 651 H 59.8102 0.238809 -5.87115 0
M  V30 652 H 61.3342 1.16308 -5.9942 0
M  V30 653 H 62.7482 -1.07905 -5.63054 0
M  V30 654 H 61.1452 -1.86689 -5.70322 0
M  V30 655 H 62.2152 -2.1889 -4.32684 0
M  V30 656 N 63.5583 1.46682 -0.576371 0
M  V30 657 C 64.5053 2.30241 0.160499 0
M  V30 658 C 65.4753 1.40233 0.890162 0
M  V30 659 O 66.6603 1.69186 0.882084 0
M  V30 660 C 63.8003 3.24578 1.1723 0
M  V30 661 C 62.9133 4.29684 0.446736 0
M  V30 662 C 62.0483 5.11154 1.44551 0
M  V30 663 C 61.0873 6.08015 0.70599 0
M  V30 664 N 60.2243 6.82376 1.65251 0
M  V30 665 H 65.0643 2.92727 -0.558127 0
M  V30 666 H 62.6013 1.44272 -0.287056 0
M  V30 667 H 64.5593 3.77711 1.77172 0
M  V30 668 H 63.1893 2.63916 1.85872 0
M  V30 669 H 62.2413 3.79458 -0.267594 0
M  V30 670 H 63.5533 4.98626 -0.131686 0
M  V30 671 H 62.7073 5.68533 2.11791 0
M  V30 672 H 61.4463 4.42158 2.05786 0
M  V30 673 H 60.4513 5.49796 0.0197725 0
M  V30 674 H 61.6763 6.79028 0.09912 0
M  V30 675 H 59.6223 6.16094 2.25308 0
M  V30 676 H 59.5393 7.47556 1.12673 0
M  V30 677 H 60.8073 7.44316 2.31546 0
M  V30 678 N 65.0364 0.313813 1.54444 0
M  V30 679 C 66.2824 -0.292108 2.00685 0
M  V30 680 C 66.6154 -1.52548 1.20177 0
M  V30 681 O 65.8904 -1.92452 0.281531 0
M  V30 682 C 66.1734 -0.635968 3.5444 0
M  V30 683 C 66.0264 0.607437 4.4568 0
M  V30 684 C 67.3454 -1.45747 4.15266 0
M  V30 685 H 64.4644 -0.104697 0.729526 0
M  V30 686 H 67.1064 0.428457 1.85106 0
M  V30 687 H 65.2564 -1.24986 3.67846 0
M  V30 688 H 66.9284 1.24581 4.44159 0
M  V30 689 H 65.1714 1.23822 4.15753 0
M  V30 690 H 65.8424 0.322515 5.51057 0
M  V30 691 H 68.3184 -0.938645 4.05375 0
M  V30 692 H 67.1944 -1.66683 5.2298 0
M  V30 693 H 67.4554 -2.45063 3.67963 0
M  V30 694 N 66.5145 -1.57545 0.0417849 0
M  V30 695 C 67.7625 -1.91937 -0.632829 0
M  V30 696 C 68.0835 -0.919978 -1.71934 0
M  V30 697 O 67.3535 0.0366064 -1.95866 0
M  V30 698 H 65.9335 -0.708493 -0.236742 0
M  V30 699 H 68.5955 -1.9468 0.0925745 0
M  V30 700 H 67.6915 -2.92912 -1.07746 0
M  V30 701 N 67.9926 0.231505 -1.5589 0
M  V30 702 C 68.9396 1.28682 -1.91598 0
M  V30 703 C 69.9096 1.47071 -0.771974 0
M  V30 704 O 71.0946 1.60802 -1.027 0
M  V30 705 C 68.2346 2.6342 -2.22944 0
M  V30 706 C 67.3476 2.52912 -3.50228 0
M  V30 707 C 66.4826 3.80106 -3.7107 0
M  V30 708 C 65.5216 3.64279 -4.91902 0
M  V30 709 N 64.6586 4.834 -5.09184 0
M  V30 710 H 69.4986 0.975305 -2.81588 0
M  V30 711 H 67.0356 0.470299 -1.39379 0
M  V30 712 H 68.9936 3.41869 -2.39126 0
M  V30 713 H 67.6236 2.92687 -1.36139 0
M  V30 714 H 66.6756 1.6595 -3.42294 0
M  V30 715 H 67.9876 2.37133 -4.38827 0
M  V30 716 H 67.1416 4.66999 -3.87295 0
M  V30 717 H 65.8806 3.98799 -2.80733 0
M  V30 718 H 64.8856 2.7577 -4.75637 0
M  V30 719 H 66.1106 3.47067 -5.83714 0
M  V30 720 H 64.0566 5.02425 -4.21788 0
M  V30 721 H 63.9736 4.70311 -5.91898 0
M  V30 722 H 65.2416 5.71747 -5.29835 0
M  V30 723 N 69.4707 1.49531 0.497807 0
M  V30 724 C 70.3807 1.69176 1.62532 0
M  V30 725 C 71.3967 0.5744 1.64246 0
M  V30 726 O 72.5727 0.849497 1.82608 0
M  V30 727 C 69.6377 1.75695 2.98885 0
M  V30 728 C 68.6987 2.9929 3.07773 0
M  V30 729 C 67.9317 3.05488 4.37622 0
M  V30 730 O 68.1547 2.19192 5.26603 0
M  V30 731 O 67.0887 3.9798 4.51548 0
M  V30 732 H 70.9147 2.647 1.48887 0
M  V30 733 H 68.4997 1.3331 0.674441 0
M  V30 734 H 70.3817 1.82317 3.79919 0
M  V30 735 H 69.0567 0.8335 3.12785 0
M  V30 736 H 67.9637 2.98183 2.25915 0
M  V30 737 H 69.2967 3.91125 2.98801 0
M  V30 738 N 70.9488 -0.749086 1.3866 0
M  V30 739 C 71.8818 -1.87111 1.30631 0
M  V30 740 C 72.8598 -1.61572 0.18251 0
M  V30 741 O 74.0438 -1.85019 0.360592 0
M  V30 742 C 71.1708 -3.22815 1.02511 0
M  V30 743 C 70.2168 -3.67234 2.1689 0
M  V30 744 S 71.0498 -3.78245 3.79066 0
M  V30 745 C 72.2058 -5.16761 3.53142 0
M  V30 746 H 72.4388 -1.93636 2.25594 0
M  V30 747 H 69.9718 -0.912525 1.24549 0
M  V30 748 H 71.9298 -4.01181 0.869701 0
M  V30 749 H 70.5908 -3.13964 0.0925884 0
M  V30 750 H 69.7838 -4.65677 1.92771 0
M  V30 751 H 69.3858 -2.96034 2.28561 0
M  V30 752 H 71.6778 -6.02656 3.09534 0
M  V30 753 H 72.6208 -5.45902 4.50995 0
M  V30 754 H 73.0288 -4.85771 2.87554 0
M  V30 755 N 72.4269 -1.23603 -0.977757 0
M  V30 756 C 73.6739 -1.06971 -1.71941 0
M  V30 757 C 74.0019 0.393009 -1.90488 0
M  V30 758 O 73.2569 1.30719 -1.4564 0
M  V30 759 C 73.5559 -1.7433 -3.11999 0
M  V30 760 C 73.2219 -3.24252 -3.13323 0
M  V30 761 C 71.8839 -3.65156 -3.13392 0
M  V30 762 C 74.2359 -4.20141 -3.08433 0
M  V30 763 C 71.5639 -5.00403 -3.0629 0
M  V30 764 C 73.9159 -5.55384 -3.02873 0
M  V30 765 C 72.5799 -5.95647 -3.01265 0
M  V30 766 H 71.8499 -0.391433 -0.629175 0
M  V30 767 H 74.4969 -1.53572 -1.14403 0
M  V30 768 H 72.8019 -1.20096 -3.7294 0
M  V30 769 H 74.4989 -1.58936 -3.68158 0
M  V30 770 H 71.0889 -2.91692 -3.14029 0
M  V30 771 H 75.2729 -3.89547 -3.07517 0
M  V30 772 H 70.5289 -5.3081 -3.03399 0
M  V30 773 H 74.7029 -6.29398 -2.98046 0
M  V30 774 H 72.3299 -7.0041 -2.95516 0
M  V30 775 N 73.905 1.17692 -1.04816 0
M  V30 776 C 75.133 1.91786 -0.776254 0
M  V30 777 C 75.548 1.76604 0.667577 0
M  V30 778 O 74.905 1.10067 1.45573 0
M  V30 779 C 74.956 3.42967 -1.14263 0
M  V30 780 O 74.677 3.57678 -2.52978 0
M  V30 781 C 76.178 4.34144 -0.896311 0
M  V30 782 H 73.398 0.608624 -0.282519 0
M  V30 783 H 75.942 1.49268 -1.39783 0
M  V30 784 H 74.097 3.83245 -0.565874 0
M  V30 785 H 74.511 4.51319 -2.67229 0
M  V30 786 H 75.985 5.38744 -1.20244 0
M  V30 787 H 76.462 4.38876 0.168636 0
M  V30 788 H 77.068 3.99574 -1.45672 0
M  V30 789 N 75.3831 0.828654 1.34056 0
M  V30 790 C 76.3131 0.269443 2.3194 0
M  V30 791 C 77.2941 -0.617247 1.58506 0
M  V30 792 O 78.4791 -0.542931 1.86456 0
M  V30 793 C 75.6091 -0.564793 3.42677 0
M  V30 794 C 74.5631 0.225241 4.27407 0
M  V30 795 C 73.8891 -0.7321 5.29664 0
M  V30 796 C 75.1891 1.43663 5.02154 0
M  V30 797 H 76.8831 1.08728 2.7896 0
M  V30 798 H 74.4291 0.524283 1.34117 0
M  V30 799 H 76.3821 -0.966233 4.10173 0
M  V30 800 H 75.1061 -1.41574 2.9432 0
M  V30 801 H 73.7651 0.608117 3.61521 0
M  V30 802 H 73.4131 -1.57916 4.77568 0
M  V30 803 H 73.1131 -0.20767 5.87233 0
M  V30 804 H 74.6371 -1.13128 6.00029 0
M  V30 805 H 76.0511 1.1089 5.62473 0
M  V30 806 H 74.4481 1.89711 5.69324 0
M  V30 807 H 75.5181 2.21181 4.31517 0
M  V30 808 N 76.8612 -1.46375 0.584142 0
M  V30 809 C 78.1082 -2.02378 0.0702675 0
M  V30 810 C 78.4362 -1.45545 -1.29023 0
M  V30 811 O 77.6912 -0.610967 -1.85918 0
M  V30 812 C 77.9902 -3.57373 -0.0439342 0
M  V30 813 C 77.6562 -4.33252 1.24915 0
M  V30 814 C 76.3182 -4.53701 1.60341 0
M  V30 815 C 78.6702 -4.7681 2.1048 0
M  V30 816 C 75.9982 -5.1496 2.81128 0
M  V30 817 C 78.3502 -5.39404 3.30494 0
M  V30 818 C 77.0142 -5.5808 3.66201 0
M  V30 819 H 76.2842 -0.740554 0.0257127 0
M  V30 820 H 78.9312 -1.75727 0.761065 0
M  V30 821 H 77.2362 -3.83169 -0.817869 0
M  V30 822 H 78.9332 -3.98384 -0.457318 0
M  V30 823 H 75.5232 -4.17633 0.963364 0
M  V30 824 H 79.7072 -4.60766 1.84414 0
M  V30 825 H 74.9632 -5.27611 3.08928 0
M  V30 826 H 79.1372 -5.72114 3.97063 0
M  V30 827 H 76.7642 -6.05318 4.59885 0
M  V30 828 N 78.3393 -0.321999 -1.54275 0
M  V30 829 C 79.5873 0.280489 -2.00144 0
M  V30 830 C 79.9083 1.52777 -1.21178 0
M  V30 831 O 79.1783 1.9338 -0.313187 0
M  V30 832 H 77.7583 0.106632 -0.73935 0
M  V30 833 H 80.4203 -0.438184 -1.8991 0
M  V30 834 H 79.5163 0.537972 -3.07428 0
M  V30 835 N 79.8174 1.5752 -0.0501392 0
M  V30 836 C 81.2284 1.80271 0.485705 0
M  V30 837 C 81.5794 0.96228 1.70981 0
M  V30 838 O 80.7044 0.178578 2.15662 0
M  V30 839 C 81.2994 3.26957 0.887938 0
M  V30 840 C 79.8584 3.5063 1.36877 0
M  V30 841 C 79.0054 2.75165 0.343468 0
M  V30 842 H 81.9564 1.56281 -0.276028 0
M  V30 843 H 81.9774 3.37821 1.75093 0
M  V30 844 H 81.4894 3.881 -0.0031809 0
M  V30 845 H 79.5904 2.94766 2.27911 0
M  V30 846 H 79.7034 4.59343 1.36164 0
M  V30 847 H 78.0674 2.4127 0.816128 0
M  V30 848 H 78.8504 3.39034 -0.539548 0
M  V30 849 N 81.2955 -0.223234 1.56011 0
M  V30 850 C 82.2275 -1.30006 1.88762 0
M  V30 851 C 83.2405 -1.43129 0.775746 0
M  V30 852 O 84.4295 -1.44057 1.05403 0
M  V30 853 C 81.5295 -2.67589 2.07965 0
M  V30 854 C 80.7025 -2.76434 3.38973 0
M  V30 855 C 79.7615 -3.95019 3.47629 0
M  V30 856 O 78.7875 -3.83436 4.20672 0
M  V30 857 N 79.9895 -5.09249 2.78649 0
M  V30 858 H 82.7545 -1.02238 2.81722 0
M  V30 859 H 80.3155 -0.413278 1.56536 0
M  V30 860 H 82.3075 -3.45297 2.11073 0
M  V30 861 H 80.8775 -2.87964 1.21638 0
M  V30 862 H 80.0975 -1.85216 3.47978 0
M  V30 863 H 81.3855 -2.79313 4.25278 0
M  V30 864 H 80.7835 -5.21556 2.19081 0
M  V30 865 H 79.3405 -5.85007 2.8742 0
M  V30 866 N 82.7736 -1.49793 -0.48987 0
M  V30 867 C 84.0206 -1.59841 -1.24327 0
M  V30 868 C 84.3486 -0.290135 -1.92324 0
M  V30 869 O 83.6036 0.722749 -1.81865 0
M  V30 870 C 83.9026 -2.71488 -2.32441 0
M  V30 871 C 83.5686 -4.12614 -1.81826 0
M  V30 872 C 82.2306 -4.51017 -1.67742 0
M  V30 873 C 84.5826 -5.00892 -1.4407 0
M  V30 874 C 81.9106 -5.75459 -1.14297 0
M  V30 875 C 84.2626 -6.25863 -0.920742 0
M  V30 876 C 82.9266 -6.63086 -0.766383 0
M  V30 877 H 82.1966 -0.584899 -0.454944 0
M  V30 878 H 84.8436 -1.83663 -0.542215 0
M  V30 879 H 83.1486 -2.4168 -3.0838 0
M  V30 880 H 84.8456 -2.76469 -2.90458 0
M  V30 881 H 81.4356 -3.82307 -1.93751 0
M  V30 882 H 85.6196 -4.7187 -1.53794 0
M  V30 883 H 80.8756 -6.02989 -1.01068 0
M  V30 884 H 85.0496 -6.9364 -0.619448 0
M  V30 885 H 82.6766 -7.59393 -0.350083 0
M  V30 886 N 84.2517 0.741722 -1.39055 0
M  V30 887 C 85.4977 1.50336 -1.36113 0
M  V30 888 C 85.8307 1.94148 0.0450796 0
M  V30 889 O 85.1057 1.66301 1.00868 0
M  V30 890 C 85.3887 2.74773 -2.32749 0
M  V30 891 C 85.2417 2.37023 -3.82283 0
M  V30 892 C 86.5607 3.76846 -2.27322 0
M  V30 893 H 83.6797 0.545351 -0.495743 0
M  V30 894 H 86.3217 0.848624 -1.69995 0
M  V30 895 H 84.4717 3.30639 -2.03986 0
M  V30 896 H 86.1437 1.8684 -4.21768 0
M  V30 897 H 84.3867 1.69334 -3.99385 0
M  V30 898 H 85.0577 3.26104 -4.45376 0
M  V30 899 H 87.5337 3.30548 -2.5274 0
M  V30 900 H 86.4097 4.6159 -2.97028 0
M  V30 901 H 86.6707 4.23286 -1.27599 0
M  V30 902 N 85.7298 1.2412 0.971189 0
M  V30 903 C 87.1458 1.00584 1.23916 0
M  V30 904 C 87.3458 -0.287481 1.99439 0
M  V30 905 O 86.4018 -1.00454 2.31658 0
M  V30 906 C 87.7148 2.21864 2.0297 0
M  V30 907 C 89.2628 2.26452 2.16076 0
M  V30 908 C 89.7378 3.47343 2.98524 0
M  V30 909 N 91.2288 3.47639 3.06107 0
M  V30 910 C 91.9638 4.37837 3.70251 0
M  V30 911 N 91.4598 5.38286 4.36142 0
M  V30 912 N 93.2528 4.25558 3.67228 0
M  V30 913 H 85.4038 2.07236 0.465499 0
M  V30 914 H 87.6668 0.909236 0.268315 0
M  V30 915 H 87.3728 3.15771 1.54861 0
M  V30 916 H 87.2468 2.23698 3.03709 0
M  V30 917 H 89.6338 1.33078 2.6339 0
M  V30 918 H 89.7148 2.28645 1.14696 0
M  V30 919 H 89.3588 4.41029 2.51905 0
M  V30 920 H 89.2888 3.42393 4.00093 0
M  V30 921 H 91.7798 2.74966 2.59233 0
M  V30 922 H 92.0928 6.03352 4.82894 0
M  V30 923 H 90.4378 5.42176 4.34822 0
M  V30 924 H 93.6288 3.46322 3.14927 0
M  V30 925 H 93.8018 4.96054 4.16935 0
M  V30 926 N 87.2079 -1.17134 1.05439 0
M  V30 927 C 88.1179 -2.24878 0.668365 0
M  V30 928 C 89.1339 -1.71186 -0.311687 0
M  V30 929 O 90.3099 -2.00738 -0.163161 0
M  V30 930 C 87.3749 -3.46662 0.051648 0
M  V30 931 C 86.4359 -4.15429 1.08246 0
M  V30 932 C 85.6689 -5.31399 0.495082 0
M  V30 933 O 85.8919 -5.66153 -0.694743 0
M  V30 934 O 84.8259 -5.89187 1.23056 0
M  V30 935 H 88.6519 -2.60189 1.56637 0
M  V30 936 H 86.2369 -1.24482 0.826104 0
M  V30 937 H 88.1189 -4.20394 -0.290966 0
M  V30 938 H 86.7939 -3.13142 -0.819971 0
M  V30 939 H 85.7009 -3.43704 1.47711 0
M  V30 940 H 87.0339 -4.52982 1.92532 0
M  V30 941 N 88.686 -0.835752 -1.33615 0
M  V30 942 C 89.616 -0.281739 -2.31794 0
M  V30 943 C 90.597 0.608833 -1.58831 0
M  V30 944 O 91.782 0.533035 -1.86741 0
M  V30 945 C 88.912 0.546612 -3.42971 0
M  V30 946 C 87.866 -0.247904 -4.27281 0
M  V30 947 C 87.192 0.704001 -5.30045 0
M  V30 948 C 88.492 -1.46324 -5.01385 0
M  V30 949 H 90.186 -1.10206 -2.78379 0
M  V30 950 H 87.732 -0.531388 -1.33837 0
M  V30 951 H 89.685 0.944467 -4.1068 0
M  V30 952 H 88.409 1.40011 -2.95067 0
M  V30 953 H 87.068 -0.627281 -3.61194 0
M  V30 954 H 86.716 1.55381 -4.78399 0
M  V30 955 H 86.416 0.176524 -5.87335 0
M  V30 956 H 87.94 1.09944 -6.0062 0
M  V30 957 H 89.354 -1.13871 -5.61877 0
M  V30 958 H 87.751 -1.92728 -5.6831 0
M  V30 959 H 88.821 -2.23467 -4.30338 0
M  V30 960 N 90.1641 1.46063 -0.591896 0
M  V30 961 C 91.0961 2.28539 0.174001 0
M  V30 962 C 92.1091 1.39047 0.846753 0
M  V30 963 O 93.2981 1.63564 0.714774 0
M  V30 964 C 90.3981 3.14347 1.26645 0
M  V30 965 C 89.5711 4.32021 0.683856 0
M  V30 966 C 88.6301 4.99157 1.66518 0
M  V30 967 O 87.6561 5.56458 1.19763 0
M  V30 968 N 88.8581 4.97005 2.99943 0
M  V30 969 H 91.6231 2.94911 -0.533633 0
M  V30 970 H 89.1841 1.56077 -0.430294 0
M  V30 971 H 91.1761 3.56125 1.92242 0
M  V30 972 H 89.7461 2.49988 1.87682 0
M  V30 973 H 88.9661 3.93915 -0.1498 0
M  V30 974 H 90.2541 5.08059 0.274567 0
M  V30 975 H 89.6521 4.51714 3.40545 0
M  V30 976 H 88.2091 5.42696 3.61004 0
M  V30 977 N 91.6422 0.330177 1.54103 0
M  V30 978 C 92.5742 -0.566902 2.22079 0
M  V30 979 C 93.5872 -1.07462 1.22294 0
M  V30 980 O 94.7762 -0.987065 1.48726 0
M  V30 981 C 91.8762 -1.79138 2.87685 0
M  V30 982 C 91.0492 -1.42123 4.13666 0
M  V30 983 C 90.1082 -2.50394 4.62806 0
M  V30 984 O 89.1342 -2.14261 5.27334 0
M  V30 985 N 90.3362 -3.81433 4.37595 0
M  V30 986 H 93.1012 0.0151844 2.99696 0
M  V30 987 H 90.6622 0.153681 1.61169 0
M  V30 988 H 92.6542 -2.50975 3.1748 0
M  V30 989 H 91.2242 -2.28115 2.13734 0
M  V30 990 H 90.4442 -0.534201 3.90564 0
M  V30 991 H 91.7322 -1.14971 4.9564 0
M  V30 992 H 91.1302 -4.13584 3.8596 0
M  V30 993 H 89.6872 -4.4948 4.72029 0
M  V30 994 N 93.1203 -1.57491 0.0584922 0
M  V30 995 C 94.5363 -1.56792 -0.298091 0
M  V30 996 C 94.7363 -1.06679 -1.70944 0
M  V30 997 O 93.7923 -0.726672 -2.41818 0
M  V30 998 C 95.1053 -3.00461 -0.119879 0
M  V30 999 C 96.6533 -3.1242 -0.190428 0
M  V30 1000 C 97.1283 -4.57982 -0.0406567 0
M  V30 1001 N 98.6193 -4.63099 -0.0966958 0
M  V30 1002 C 99.3543 -5.734 -0.00502943 0
M  V30 1003 N 98.8503 -6.9266 0.139402 0
M  V30 1004 N 100.643 -5.62067 -0.0611391 0
M  V30 1005 H 92.7943 -1.88386 0.98105 0
M  V30 1006 H 95.0573 -0.867865 0.381463 0
M  V30 1007 H 94.7633 -3.41187 0.85349 0
M  V30 1008 H 94.6373 -3.66843 -0.877833 0
M  V30 1009 H 97.0243 -2.71589 -1.15427 0
M  V30 1010 H 97.1053 -2.48702 0.598405 0
M  V30 1011 H 96.7493 -4.995 0.919897 0
M  V30 1012 H 96.6793 -5.19715 -0.848727 0
M  V30 1013 H 99.1703 -3.77331 -0.207277 0
M  V30 1014 H 99.4833 -7.72536 0.201855 0
M  V30 1015 H 97.8283 -6.94781 0.174586 0
M  V30 1016 H 101.019 -4.67782 -0.172583 0
M  V30 1017 H 101.192 -6.47999 0.0137562 0
M  V30 1018 N 94.5984 0.214957 -1.56127 0
M  V30 1019 C 95.8464 0.936518 -1.79091 0
M  V30 1020 C 96.1674 1.84606 -0.628148 0
M  V30 1021 O 95.4374 1.92664 0.35462 0
M  V30 1022 H 94.0174 0.3488 -0.660566 0
M  V30 1023 H 96.6794 0.22523 -1.93594 0
M  V30 1024 H 95.7754 1.53943 -2.71492 0
M  V30 1025 N 96.0765 1.50051 0.48192 0
M  V30 1026 C 97.3235 1.60498 1.23477 0
M  V30 1027 C 97.6515 0.300331 1.92167 0
M  V30 1028 O 96.9065 -0.713094 1.82246 0
M  V30 1029 C 97.2055 2.72717 2.30998 0
M  V30 1030 C 96.8715 4.13572 1.79636 0
M  V30 1031 C 95.5335 4.519 1.65348 0
M  V30 1032 C 97.8855 5.01649 1.41412 0
M  V30 1033 C 95.2135 5.76057 1.11244 0
M  V30 1034 C 97.5655 6.26343 0.887538 0
M  V30 1035 C 96.2295 6.63483 0.731207 0
M  V30 1036 H 95.4995 0.587303 0.451836 0
M  V30 1037 H 98.1465 1.83948 0.532468 0
M  V30 1038 H 96.4515 2.43312 3.07094 0
M  V30 1039 H 98.1485 2.78006 2.88988 0
M  V30 1040 H 94.7385 3.83329 1.91721 0
M  V30 1041 H 98.9225 4.72679 1.51289 0
M  V30 1042 H 94.1785 6.03516 0.978686 0
M  V30 1043 H 98.3525 6.93958 0.582654 0
M  V30 1044 H 95.9795 7.59568 0.309806 0
M  V30 1045 N 97.5546 -0.734337 1.39446 0
M  V30 1046 C 98.8316 -1.48579 1.27215 0
M  V30 1047 C 99.2116 -2.1077 -0.117968 0
M  V30 1048 O 98.5596 -1.98646 -1.12924 0
M  V30 1049 C 98.7696 -2.53667 2.39696 0
M  V30 1050 C 100.118 -3.20031 2.79044 0
M  V30 1051 O 101.142 -2.6398 2.39151 0
M  V30 1052 O 100.001 -4.21455 3.47905 0
M  V30 1053 H 97.0946 -0.659816 0.49857 0
M  V30 1054 H 99.6406 -0.768106 1.51322 0
M  V30 1055 H 98.4126 -2.06096 3.32626 0
M  V30 1056 H 98.0356 -3.32994 2.17258 0
M  V30 1057 N 99.0327 -1.24633 -0.964593 0
M  V30 1058 C 100.282 -1.08188 -1.7023 0
M  V30 1059 C 100.595 0.37873 -1.91898 0
M  V30 1060 O 101.801 0.663427 -2.6327 0
M  V30 1061 C 100.257 -1.88773 -3.06419 0
M  V30 1062 C 99.8647 -3.39263 -2.92582 0
M  V30 1063 C 101.609 -1.80867 -3.84041 0
M  V30 1064 C 99.5157 -4.1218 -4.24101 0
M  V30 1065 H 98.4457 -0.401245 -0.638372 0
M  V30 1066 H 101.097 -1.48742 -1.07462 0
M  V30 1067 H 99.4787 -1.41035 -3.70034 0
M  V30 1068 H 100.653 -3.94603 -2.37961 0
M  V30 1069 H 98.9677 -3.48154 -2.28424 0
M  V30 1070 H 101.565 -2.32646 -4.81435 0
M  V30 1071 H 101.908 -0.774543 -4.09031 0
M  V30 1072 H 102.441 -2.26301 -3.27159 0
M  V30 1073 H 99.1797 -5.15965 -4.04303 0
M  V30 1074 H 98.6997 -3.61626 -4.78526 0
M  V30 1075 H 100.379 -4.19349 -4.92702 0
M  V30 1076 N 100.511 1.16574 -1.06058 0
M  V30 1077 C 101.758 1.87047 -0.775873 0
M  V30 1078 C 102.086 1.81562 0.697534 0
M  V30 1079 O 101.341 1.22445 1.52662 0
M  V30 1080 C 101.64 3.36195 -1.21275 0
M  V30 1081 C 101.306 3.6188 -2.68986 0
M  V30 1082 C 99.9678 3.68599 -3.09335 0
M  V30 1083 C 102.32 3.72648 -3.64394 0
M  V30 1084 C 99.6478 3.83584 -4.43937 0
M  V30 1085 C 102 3.89154 -4.98741 0
M  V30 1086 C 100.664 3.94114 -5.3873 0
M  V30 1087 H 99.9338 0.684452 -0.283912 0
M  V30 1088 H 102.581 1.37853 -1.32925 0
M  V30 1089 H 100.886 3.87505 -0.578528 0
M  V30 1090 H 102.583 3.89103 -0.969542 0
M  V30 1091 H 99.1728 3.57281 -2.36744 0
M  V30 1092 H 103.357 3.66769 -3.34356 0
M  V30 1093 H 98.6128 3.85677 -4.74409 0
M  V30 1094 H 102.787 3.96427 -5.72554 0
M  V30 1095 H 100.414 4.05478 -6.43033 0
M  V30 1096 N 101.989 0.842826 1.3317 0
M  V30 1097 C 102.919 0.294028 2.31641 0
M  V30 1098 C 103.9 -0.600401 1.59151 0
M  V30 1099 O 105.085 -0.523124 1.87022 0
M  V30 1100 C 102.215 -0.528416 3.43257 0
M  V30 1101 C 101.169 0.27056 4.27144 0
M  V30 1102 C 100.495 -0.675881 5.30411 0
M  V30 1103 C 101.795 1.48981 5.00602 0
M  V30 1104 H 103.489 1.11681 2.77791 0
M  V30 1105 H 101.035 0.538478 1.33553 0
M  V30 1106 H 102.988 -0.922674 4.11175 0
M  V30 1107 H 101.712 -1.38445 2.95805 0
M  V30 1108 H 100.371 0.646427 3.60856 0
M  V30 1109 H 100.019 -1.52842 4.79216 0
M  V30 1110 H 99.7189 -0.145374 5.8742 0
M  V30 1111 H 101.243 -1.06757 6.01195 0
M  V30 1112 H 102.657 1.16849 5.61266 0
M  V30 1113 H 101.054 1.95739 5.6728 0
M  V30 1114 H 102.124 2.25746 4.29147 0
M  V30 1115 N 103.467 -1.45747 0.599634 0
M  V30 1116 C 104.744 -1.95585 0.0240846 0
M  V30 1117 C 105.124 -1.54217 -1.44154 0
M  V30 1118 O 104.472 -0.800903 -2.14004 0
M  V30 1119 C 104.682 -3.48344 0.21385 0
M  V30 1120 C 106.03 -4.24504 0.0904902 0
M  V30 1121 O 107.054 -3.55911 0.143558 0
M  V30 1122 O 105.913 -5.46491 -0.0310766 0
M  V30 1123 H 103.007 -0.82602 -0.0402478 0
M  V30 1124 H 105.553 -1.55951 0.669139 0
M  V30 1125 H 104.325 -3.71397 1.23206 0
M  V30 1126 H 103.948 -3.9485 -0.466842 0
M  V30 1127 N 104.945 -0.338344 -1.53925 0
M  V30 1128 C 105.875 0.51328 -2.27789 0
M  V30 1129 C 106.856 1.107 -1.29149 0
M  V30 1130 O 108.041 1.12937 -1.57984 0
M  V30 1131 C 105.171 1.66697 -3.04679 0
M  V30 1132 C 104.125 1.20183 -4.1078 0
M  V30 1133 C 103.451 2.44363 -4.75595 0
M  V30 1134 C 104.751 0.30605 -5.21403 0
M  V30 1135 H 106.445 -0.102883 -2.99223 0
M  V30 1136 H 103.991 -0.0509219 -1.4391 0
M  V30 1137 H 105.944 2.26915 -3.55088 0
M  V30 1138 H 104.668 2.30995 -2.30887 0
M  V30 1139 H 103.327 0.622499 -3.61276 0
M  V30 1140 H 102.975 3.07057 -3.98403 0
M  V30 1141 H 102.675 2.13925 -5.47275 0
M  V30 1142 H 104.199 3.05317 -5.28786 0
M  V30 1143 H 105.613 0.814929 -5.67478 0
M  V30 1144 H 104.01 0.0937929 -6.00027 0
M  V30 1145 H 105.08 -0.65921 -4.80398 0
M  V30 1146 N 106.423 1.57458 -0.0668435 0
M  V30 1147 C 107.37 2.12439 0.902122 0
M  V30 1148 C 108.34 1.03565 1.2986 0
M  V30 1149 O 109.525 1.312 1.38532 0
M  V30 1150 C 106.665 2.6865 2.16614 0
M  V30 1151 C 105.778 3.91663 1.82274 0
M  V30 1152 C 104.913 4.36134 3.0325 0
M  V30 1153 C 103.952 5.51808 2.64904 0
M  V30 1154 N 103.089 5.9126 3.78624 0
M  V30 1155 H 107.929 2.94934 0.426382 0
M  V30 1156 H 105.466 1.4575 0.198819 0
M  V30 1157 H 107.424 2.99346 2.90599 0
M  V30 1158 H 106.054 1.88928 2.61737 0
M  V30 1159 H 105.106 3.6746 0.983719 0
M  V30 1160 H 106.418 4.75693 1.50059 0
M  V30 1161 H 105.572 4.68465 3.85519 0
M  V30 1162 H 104.311 3.50948 3.38655 0
M  V30 1163 H 103.316 5.19133 1.81055 0
M  V30 1164 H 104.541 6.38722 2.30675 0
M  V30 1165 H 102.487 5.09024 4.138 0
M  V30 1166 H 102.404 6.70018 3.5016 0
M  V30 1167 H 103.672 6.28212 4.61486 0
M  V30 1168 N 107.901 -0.206675 1.56239 0
M  V30 1169 C 109.148 -0.928842 1.79941 0
M  V30 1170 C 109.476 -1.83734 0.638131 0
M  V30 1171 O 108.731 -1.92039 -0.376746 0
M  V30 1172 C 109.03 -1.78675 3.09532 0
M  V30 1173 C 108.696 -1.03022 4.38973 0
M  V30 1174 C 107.358 -0.821302 4.74139 0
M  V30 1175 C 109.71 -0.497081 5.18824 0
M  V30 1176 C 107.038 -0.0675719 5.86661 0
M  V30 1177 C 109.39 0.24338 6.32132 0
M  V30 1178 C 108.054 0.463422 6.65889 0
M  V30 1179 H 107.324 -0.339887 0.658451 0
M  V30 1180 H 109.971 -0.195977 1.90495 0
M  V30 1181 H 108.276 -2.58794 2.94165 0
M  V30 1182 H 109.973 -2.34792 3.25075 0
M  V30 1183 H 106.563 -1.20306 4.11369 0
M  V30 1184 H 110.747 -0.645921 4.92079 0
M  V30 1185 H 106.003 0.112995 6.11296 0
M  V30 1186 H 110.177 0.66393 6.93228 0
M  V30 1187 H 107.804 1.04938 7.52922 0
M  V30 1188 N 109.379 -1.50304 -0.473955 0
M  V30 1189 C 110.329 -1.65347 -1.56985 0
M  V30 1190 C 111.313 -0.508176 -1.52664 0
M  V30 1191 O 112.505 -0.762446 -1.59737 0
M  V30 1192 C 109.634 -1.74832 -2.95447 0
M  V30 1193 C 108.72 -2.95028 -3.04662 0
M  V30 1194 N 109.111 -4.18747 -2.83698 0
M  V30 1195 C 107.409 -2.93527 -3.35795 0
M  V30 1196 C 108.11 -4.99687 -2.97805 0
M  V30 1197 N 107.086 -4.33585 -3.2788 0
M  V30 1198 H 110.888 -2.58698 -1.39472 0
M  V30 1199 H 108.402 -1.47449 -0.680629 0
M  V30 1200 H 110.399 -1.83712 -3.7424 0
M  V30 1201 H 109.059 -0.826376 -3.14008 0
M  V30 1202 H 110.07 -4.48291 -2.59337 0
M  V30 1203 H 106.747 -2.10821 -3.60362 0
M  V30 1204 H 108.137 -6.08057 -2.85861 0
M  V30 1205 N 110.857 0.726932 -1.39834 0
M  V30 1206 C 112.134 1.47902 -1.28001 0
M  V30 1207 C 112.514 2.1083 0.106789 0
M  V30 1208 O 111.862 1.99242 1.11869 0
M  V30 1209 C 112.072 2.52392 -2.41038 0
M  V30 1210 C 113.42 3.18546 -2.80737 0
M  V30 1211 O 114.444 2.62708 -2.40547 0
M  V30 1212 O 113.303 4.19604 -3.50135 0
M  V30 1213 H 110.397 0.657163 -0.502062 0
M  V30 1214 H 112.943 0.760071 -1.51727 0
M  V30 1215 H 111.715 2.04329 -3.33715 0
M  V30 1216 H 111.338 3.31837 -2.19021 0
M  V30 1217 N 112.336 1.25143 0.95797 0
M  V30 1218 C 113.585 1.0909 1.69654 0
M  V30 1219 C 113.898 -0.368548 1.92097 0
M  V30 1220 O 115.104 -0.649455 2.63618 0
M  V30 1221 C 113.56 1.90395 3.05414 0
M  V30 1222 C 113.168 3.4081 2.90779 0
M  V30 1223 C 114.912 1.82901 3.83076 0
M  V30 1224 C 112.819 4.14423 4.21909 0
M  V30 1225 H 111.749 0.404625 0.636235 0
M  V30 1226 H 114.4 1.4931 1.06672 0
M  V30 1227 H 112.782 1.42996 3.69281 0
M  V30 1228 H 113.956 3.95859 2.35865 0
M  V30 1229 H 112.271 3.49361 2.26575 0
M  V30 1230 H 114.868 2.35196 4.80195 0
M  V30 1231 H 115.211 0.796224 4.08615 0
M  V30 1232 H 115.744 2.28033 3.25954 0
M  V30 1233 H 112.483 5.18102 4.01561 0
M  V30 1234 H 112.003 3.64159 4.76601 0
M  V30 1235 H 113.682 4.21956 4.90471 0
M  V30 1236 N 113.814 -1.1601 1.06675 0
M  V30 1237 C 115.225 -1.68235 0.809565 0
M  V30 1238 C 115.576 -1.8454 -0.666303 0
M  V30 1239 O 114.701 -1.54374 -1.5165 0
M  V30 1240 C 115.296 -3.05585 1.46299 0
M  V30 1241 C 113.855 -3.54915 1.25349 0
M  V30 1242 C 113.002 -2.30804 1.53703 0
M  V30 1243 H 115.953 -1.00318 1.22971 0
M  V30 1244 H 115.974 -3.70174 0.880431 0
M  V30 1245 H 115.486 -2.93686 2.53713 0
M  V30 1246 H 113.587 -3.72067 0.199261 0
M  V30 1247 H 113.7 -4.36774 1.9689 0
M  V30 1248 H 112.064 -2.36007 0.957739 0
M  V30 1249 H 112.847 -2.21499 2.62284 0
M  V30 1250 N 115.292 -0.849877 -1.32721 0
M  V30 1251 C 116.24 -0.279745 -2.30912 0
M  V30 1252 C 117.234 0.594278 -1.58634 0
M  V30 1253 O 118.44 0.482613 -1.73409 0
M  V30 1254 H 114.815 -0.0717521 -0.748569 0
M  V30 1255 H 116.786 -1.12222 -2.76494 0
M  V30 1256 C 115.535 0.521108 -3.43773 0
M  V30 1257 H 114.858 -0.142141 -3.99547 0
M  V30 1258 H 116.298 0.885693 -4.14646 0
M  V30 1259 C 114.757 1.70442 -2.90605 0
M  V30 1260 O 115.287 2.8034 -2.87702 0
M  V30 1261 N 113.493 1.52991 -2.47067 0
M  V30 1262 H 113.04 0.635914 -2.49628 0
M  V30 1263 H 112.998 2.32311 -2.11847 0
M  V30 1264 N 116.77 1.45427 -0.607355 0
M  V30 1265 C 117.998 2.06614 -0.108814 0
M  V30 1266 C 118.413 1.45204 1.2067 0
M  V30 1267 O 117.77 0.566132 1.73497 0
M  V30 1268 C 117.821 3.61481 0.0375347 0
M  V30 1269 O 117.542 4.20598 -1.22593 0
M  V30 1270 C 119.043 4.39652 0.567561 0
M  V30 1271 H 116.263 0.66747 -0.0687351 0
M  V30 1272 H 118.807 1.86675 -0.835022 0
M  V30 1273 H 116.962 3.80762 0.714068 0
M  V30 1274 H 117.376 5.1377 -1.05547 0
M  V30 1275 H 118.85 5.48518 0.61905 0
M  V30 1276 H 119.327 4.09417 1.58978 0
M  V30 1277 H 119.933 4.25234 -0.0749202 0
M  V30 1278 N 118.248 0.346503 1.53744 0
M  V30 1279 C 119.211 -0.496439 2.23759 0
M  V30 1280 C 120.211 -1.0252 1.2388 0
M  V30 1281 O 121.401 -0.913974 1.48297 0
M  V30 1282 C 118.533 -1.69187 2.95954 0
M  V30 1283 H 119.726 0.115952 2.99676 0
M  V30 1284 H 117.279 0.0978939 1.55993 0
M  V30 1285 H 118.014 -2.34288 2.24231 0
M  V30 1286 H 117.799 -1.31989 3.69217 0
M  V30 1287 H 119.289 -2.28969 3.49232 0
M  V30 1288 N 119.726 -1.57421 0.075193 0
M  V30 1289 C 120.689 -2.11791 -0.876203 0
M  V30 1290 C 121.689 -1.04268 -1.22412 0
M  V30 1291 O 122.879 -1.30242 -1.15684 0
M  V30 1292 C 120.011 -2.62207 -2.17854 0
M  V30 1293 H 121.204 -2.9716 -0.40444 0
M  V30 1294 H 118.757 -1.55333 -0.173557 0
M  V30 1295 H 119.492 -1.803 -2.6956 0
M  V30 1296 H 119.277 -3.40802 -1.93897 0
M  V30 1297 H 120.767 -3.04335 -2.85955 0
M  V30 1298 N 121.204 0.198386 -1.56346 0
M  V30 1299 C 122.154 1.2499 -1.90687 0
M  V30 1300 C 123.138 1.41158 -0.772217 0
M  V30 1301 O 124.33 1.43584 -1.03502 0
M  V30 1302 C 121.459 2.59542 -2.24706 0
M  V30 1303 C 120.545 2.47181 -3.44619 0
M  V30 1304 N 120.936 2.04495 -4.62618 0
M  V30 1305 C 119.234 2.78082 -3.48692 0
M  V30 1306 C 119.935 2.03945 -5.44776 0
M  V30 1307 N 118.911 2.45323 -4.85095 0
M  V30 1308 H 122.713 0.911149 -2.7942 0
M  V30 1309 H 120.227 0.40684 -1.57221 0
M  V30 1310 H 122.224 3.3549 -2.47491 0
M  V30 1311 H 120.884 2.94244 -1.37298 0
M  V30 1312 H 121.895 1.75256 -4.87345 0
M  V30 1313 H 118.572 3.17002 -2.71691 0
M  V30 1314 H 119.962 1.72872 -6.4928 0
M  V30 1315 N 122.682 1.50554 0.465978 0
M  V30 1316 C 123.645 1.69233 1.54574 0
M  V30 1317 C 124.645 0.562901 1.50626 0
M  V30 1318 O 125.835 0.830016 1.53155 0
M  V30 1319 C 122.967 1.7223 2.94193 0
M  V30 1320 H 124.16 2.65571 1.39327 0
M  V30 1321 H 121.713 1.40111 0.692711 0
M  V30 1322 H 122.448 0.77603 3.14878 0
M  V30 1323 H 122.233 2.54285 2.98466 0
M  V30 1324 H 123.723 1.88618 3.72576 0
M  V30 1325 N 124.16 -0.719506 1.40217 0
M  V30 1326 C 125.406 -1.48152 1.38488 0
M  V30 1327 C 125.739 -1.94195 -0.0141867 0
M  V30 1328 O 125.014 -1.67884 -0.982096 0
M  V30 1329 C 125.297 -2.71035 2.37091 0
M  V30 1330 C 125.15 -2.30912 3.86005 0
M  V30 1331 C 126.469 -3.73182 2.33288 0
M  V30 1332 H 123.588 -0.537395 0.504357 0
M  V30 1333 H 126.23 -0.821472 1.71324 0
M  V30 1334 H 124.38 -3.27352 2.0922 0
M  V30 1335 H 126.052 -1.80107 4.24687 0
M  V30 1336 H 124.295 -1.62958 4.02029 0
M  V30 1337 H 124.966 -3.18978 4.50508 0
M  V30 1338 H 127.442 -3.26485 2.57966 0
M  V30 1339 H 126.318 -4.56806 3.04334 0
M  V30 1340 H 126.579 -4.21202 1.34317 0
M  V30 1341 N 125.638 -1.25649 -0.95132 0
M  V30 1342 C 126.601 -1.06399 -2.03007 0
M  V30 1343 C 127.601 -0.0156794 -1.60792 0
M  V30 1344 O 128.791 -0.25817 -1.72276 0
M  V30 1345 C 125.923 -0.616184 -3.35285 0
M  V30 1346 H 127.116 -2.02164 -2.21517 0
M  V30 1347 H 124.669 -1.08103 -1.12887 0
M  V30 1348 H 125.404 0.343917 -3.22471 0
M  V30 1349 H 125.189 -1.37301 -3.67275 0
M  V30 1350 H 126.679 -0.503032 -4.14559 0
M  V30 1351 N 127.117 1.15442 -1.07289 0
M  V30 1352 C 128.08 2.18358 -0.696591 0
M  V30 1353 C 129.08 1.58637 0.262837 0
M  V30 1354 O 130.27 1.74145 0.0438809 0
M  V30 1355 C 127.402 3.4089 -0.0266151 0
M  V30 1356 H 128.595 2.53162 -1.60776 0
M  V30 1357 H 126.148 1.29893 -0.869342 0
M  V30 1358 H 126.883 3.11653 0.896822 0
M  V30 1359 H 126.668 3.85495 -0.716657 0
M  V30 1360 H 128.158 4.17009 0.222028 0
M  V30 1361 N 128.595 0.856903 1.32268 0
M  V30 1362 C 129.558 0.308171 2.27119 0
M  V30 1363 C 130.558 -0.533421 1.51695 0
M  V30 1364 O 131.748 -0.344607 1.70757 0
M  V30 1365 C 128.88 -0.563757 3.36206 0
M  V30 1366 H 130.073 1.14535 2.77167 0
M  V30 1367 H 127.626 0.631421 1.42978 0
M  V30 1368 H 128.361 -1.42266 2.91429 0
M  V30 1369 H 128.146 0.0386749 3.92081 0
M  V30 1370 H 129.636 -0.940386 4.06874 0
M  V30 1371 N 130.073 -1.45103 0.615059 0
M  V30 1372 C 131.036 -2.29025 -0.0895485 0
M  V30 1373 C 132.036 -1.40174 -0.787906 0
M  V30 1374 O 133.226 -1.62217 -0.634933 0
M  V30 1375 C 130.358 -3.21376 -1.13711 0
M  V30 1376 H 131.551 -2.92807 0.648382 0
M  V30 1377 H 129.104 -1.51749 0.374444 0
M  V30 1378 H 129.839 -2.6241 -1.90556 0
M  V30 1379 H 129.624 -3.86834 -0.640475 0
M  V30 1380 H 131.114 -3.84459 -1.63036 0
M  V30 1381 N 131.551 -0.354651 -1.53558 0
M  V30 1382 C 132.828 0.294281 -1.93374 0
M  V30 1383 C 133.208 1.67313 -1.28723 0
M  V30 1384 O 132.556 2.24179 -0.442247 0
M  V30 1385 C 132.766 0.355445 -3.47185 0
M  V30 1386 C 134.114 0.601007 -4.20325 0
M  V30 1387 O 135.138 0.437106 -3.53508 0
M  V30 1388 O 133.997 0.919322 -5.38712 0
M  V30 1389 H 131.091 0.174033 -0.808481 0
M  V30 1390 H 133.637 -0.406638 -1.64756 0
M  V30 1391 H 132.409 -0.611729 -3.86489 0
M  V30 1392 H 132.032 1.1027 -3.82003 0
M  V30 1393 N 133.029 1.57378 -0.0835403 0
M  V30 1394 C 133.959 2.1641 0.87686 0
M  V30 1395 C 134.94 1.09429 1.30228 0
M  V30 1396 O 136.125 1.37516 1.37124 0
M  V30 1397 C 133.255 2.73517 2.14022 0
M  V30 1398 C 132.209 3.85769 1.85381 0
M  V30 1399 C 131.535 4.29529 3.18448 0
M  V30 1400 C 132.835 5.09486 1.14984 0
M  V30 1401 H 134.529 2.96914 0.385059 0
M  V30 1402 H 132.075 1.42823 0.18377 0
M  V30 1403 H 134.028 3.13463 2.81636 0
M  V30 1404 H 132.752 1.90252 2.65465 0
M  V30 1405 H 131.411 3.46345 1.20169 0
M  V30 1406 H 131.059 3.43169 3.67755 0
M  V30 1407 H 130.759 5.05204 3.00071 0
M  V30 1408 H 132.283 4.72099 3.8724 0
M  V30 1409 H 133.697 5.46674 1.72687 0
M  V30 1410 H 132.094 5.90515 1.06826 0
M  V30 1411 H 133.164 4.84724 0.130749 0
M  V30 1412 N 134.507 -0.190092 1.56449 0
M  V30 1413 C 135.755 -0.907908 1.80559 0
M  V30 1414 C 136.076 -1.83583 0.657438 0
M  V30 1415 O 135.346 -1.93203 -0.323924 0
M  V30 1416 H 133.926 -0.338247 0.666032 0
M  V30 1417 H 136.588 -0.194403 1.93928 0
M  V30 1418 H 135.684 -1.49604 2.73907 0
M  V30 1419 N 135.985 -1.50799 -0.457987 0
M  V30 1420 C 137.231 -1.62683 -1.21088 0
M  V30 1421 C 137.564 -0.332268 -1.91336 0
M  V30 1422 O 136.839 0.667043 -1.82704 0
M  V30 1423 C 137.122 -2.81615 -2.24422 0
M  V30 1424 C 136.975 -4.20989 -1.58392 0
M  V30 1425 C 138.294 -2.96085 -3.2561 0
M  V30 1426 H 135.413 -0.592087 -0.438864 0
M  V30 1427 H 138.055 -1.83225 -0.50286 0
M  V30 1428 H 136.205 -2.64231 -2.84806 0
M  V30 1429 H 137.877 -4.49994 -1.01504 0
M  V30 1430 H 136.12 -4.24641 -0.886704 0
M  V30 1431 H 136.791 -5.0016 -2.33547 0
M  V30 1432 H 139.267 -3.12042 -2.75262 0
M  V30 1433 H 138.143 -3.80902 -3.95228 0
M  V30 1434 H 138.404 -2.0726 -3.90507 0
M  V30 1435 N 137.463 0.71206 -1.40597 0
M  V30 1436 C 138.709 1.47292 -1.40274 0
M  V30 1437 C 139.064 1.92399 -0.00576812 0
M  V30 1438 O 138.357 1.65507 0.965297 0
M  V30 1439 C 138.551 2.71039 -2.32965 0
M  V30 1440 C 138.38 2.38035 -3.81536 0
M  V30 1441 C 137.15 2.29203 -4.50327 0
M  V30 1442 C 139.348 2.02076 -4.72938 0
M  V30 1443 N 137.33 1.88911 -5.84111 0
M  V30 1444 C 138.701 1.72412 -5.95545 0
M  V30 1445 C 140.756 1.88742 -4.60739 0
M  V30 1446 C 139.459 1.30756 -7.07316 0
M  V30 1447 C 141.485 1.4849 -5.72455 0
M  V30 1448 C 140.847 1.19726 -6.94151 0
M  V30 1449 H 136.946 0.536919 -0.568544 0
M  V30 1450 H 139.53 0.825424 -1.76337 0
M  V30 1451 H 137.701 3.33533 -1.99023 0
M  V30 1452 H 139.433 3.37404 -2.23474 0
M  V30 1453 H 136.188 2.47059 -4.04053 0
M  V30 1454 H 136.612 1.71293 -6.54972 0
M  V30 1455 H 141.254 2.0964 -3.67166 0
M  V30 1456 H 138.972 1.08601 -8.00769 0
M  V30 1457 H 142.558 1.38747 -5.65014 0
M  V30 1458 H 141.438 0.890482 -7.79128 0
M  V30 1459 N 138.941 1.26152 0.944643 0
M  V30 1460 C 139.874 1.01729 2.04271 0
M  V30 1461 C 140.852 -0.0568101 1.62501 0
M  V30 1462 O 142.036 0.0848987 1.88309 0
M  V30 1463 C 139.163 0.539792 3.34371 0
M  V30 1464 C 138.209 1.60593 3.9511 0
M  V30 1465 S 139.042 3.19392 4.29825 0
M  V30 1466 C 140.198 2.73402 5.63029 0
M  V30 1467 H 140.431 1.94703 2.24673 0
M  V30 1468 H 137.964 1.09793 1.08558 0
M  V30 1469 H 139.922 0.270956 4.09605 0
M  V30 1470 H 138.583 -0.369609 3.11918 0
M  V30 1471 H 137.776 1.22275 4.88943 0
M  V30 1472 H 137.378 1.82596 3.26397 0
M  V30 1473 H 139.67 2.1765 6.41588 0
M  V30 1474 H 140.613 3.65913 6.06229 0
M  V30 1475 H 141.021 2.13077 5.22741 0
M  V30 1476 N 140.419 -1.14872 1.07899 0
M  V30 1477 C 141.665 -1.86064 0.806725 0
M  V30 1478 C 141.998 -1.82434 -0.665706 0
M  V30 1479 O 141.273 -1.25138 -1.48899 0
M  V30 1480 C 141.556 -3.34929 1.32267 0
M  V30 1481 C 141.409 -3.47161 2.86006 0
M  V30 1482 C 142.728 -4.29863 0.943717 0
M  V30 1483 H 139.847 -0.675591 0.294526 0
M  V30 1484 H 142.489 -1.34925 1.33773 0
M  V30 1485 H 140.639 -3.78611 0.870974 0
M  V30 1486 H 142.311 -3.12302 3.39507 0
M  V30 1487 H 140.554 -2.88539 3.23925 0
M  V30 1488 H 141.225 -4.51777 3.17177 0
M  V30 1489 H 143.701 -3.9417 1.33302 0
M  V30 1490 H 142.577 -5.32494 1.33198 0
M  V30 1491 H 142.838 -4.41846 -0.149796 0
M  V30 1492 N 141.898 -0.863906 -1.31812 0
M  V30 1493 C 142.846 -0.30422 -2.30602 0
M  V30 1494 C 143.84 0.577419 -1.59255 0
M  V30 1495 O 145.046 0.464194 -1.73912 0
M  V30 1496 H 141.421 -0.0796877 -0.747766 0
M  V30 1497 H 143.392 -1.15148 -2.75288 0
M  V30 1498 C 142.141 0.484617 -3.44306 0
M  V30 1499 H 141.464 -0.18451 -3.99374 0
M  V30 1500 H 142.904 0.841664 -4.15562 0
M  V30 1501 C 141.363 1.6735 -2.92396 0
M  V30 1502 O 141.893 2.77273 -2.90659 0
M  V30 1503 N 140.099 1.50362 -2.48676 0
M  V30 1504 H 139.646 0.609402 -2.50288 0
M  V30 1505 H 139.604 2.30051 -2.14299 0
M  V30 1506 N 143.376 1.44774 -0.622745 0
M  V30 1507 C 144.622 2.0242 -0.124083 0
M  V30 1508 C 144.955 1.4881 1.24777 0
M  V30 1509 O 144.23 0.668799 1.8264 0
M  V30 1510 C 144.513 3.59957 -0.101619 0
M  V30 1511 C 144.366 4.23867 -1.50521 0
M  V30 1512 C 145.685 4.36284 0.578272 0
M  V30 1513 H 142.804 0.735528 -0.0465645 0
M  V30 1514 H 145.446 1.72447 -0.797617 0
M  V30 1515 H 143.596 3.85623 0.471934 0
M  V30 1516 H 145.268 4.09336 -2.12701 0
M  V30 1517 H 143.511 3.81684 -2.06154 0
M  V30 1518 H 144.182 5.32843 -1.4416 0
M  V30 1519 H 146.658 4.16001 0.0906057 0
M  V30 1520 H 145.534 5.46004 0.563149 0
M  V30 1521 H 145.795 4.10271 1.64713 0
M  V30 1522 N 144.854 0.36279 1.53368 0
M  V30 1523 C 145.804 -0.501391 2.22419 0
M  V30 1524 C 146.788 -1.0509 1.2184 0
M  V30 1525 O 147.98 -0.981404 1.47301 0
M  V30 1526 C 145.109 -1.64201 3.01484 0
M  V30 1527 C 144.195 -1.10552 4.09438 0
M  V30 1528 N 144.586 -0.291788 5.04958 0
M  V30 1529 C 142.884 -1.3806 4.24094 0
M  V30 1530 C 143.585 0.00162655 5.817 0
M  V30 1531 N 142.561 -0.595244 5.40331 0
M  V30 1532 H 146.363 0.127159 2.93625 0
M  V30 1533 H 143.877 0.170658 1.61501 0
M  V30 1534 H 145.874 -2.27326 3.49469 0
M  V30 1535 H 144.534 -2.27365 2.31809 0
M  V30 1536 H 145.545 0.0687731 5.17854 0
M  V30 1537 H 142.222 -2.01522 3.65644 0
M  V30 1538 H 143.612 0.659278 6.68658 0
M  V30 1539 N 146.332 -1.57332 0.0918853 0
M  V30 1540 C 147.295 -2.12708 -0.85369 0
M  V30 1541 C 148.295 -1.05561 -1.213 0
M  V30 1542 O 149.485 -1.31461 -1.14296 0
M  V30 1543 C 146.617 -2.64503 -2.15061 0
M  V30 1544 H 147.81 -2.97573 -0.3729 0
M  V30 1545 H 145.363 -1.55509 -0.157072 0
M  V30 1546 H 146.098 -1.83149 -2.67632 0
M  V30 1547 H 145.883 -3.4284 -1.90272 0
M  V30 1548 H 147.373 -3.07351 -2.82711 0
M  V30 1549 N 147.81 0.181792 -1.56548 0
M  V30 1550 C 149.035 0.920019 -1.85877 0
M  V30 1551 C 149.46 1.75494 -0.677021 0
M  V30 1552 O 148.818 1.77399 0.374056 0
M  V30 1553 C 148.866 1.78112 -3.13542 0
M  V30 1554 O 147.97 2.88152 -2.95029 0
M  V30 1555 H 147.311 0.258334 -0.611686 0
M  V30 1556 H 149.841 0.183092 -2.03779 0
M  V30 1557 H 149.851 2.18314 -3.44678 0
M  V30 1558 H 148.526 1.16777 -3.99169 0
M  V30 1559 H 147.103 2.51609 -2.75222 0
M  V30 1560 N 149.288 1.51039 0.449983 0
M  V30 1561 C 150.536 1.62759 1.19808 0
M  V30 1562 C 150.857 0.339981 1.92013 0
M  V30 1563 O 150.127 -0.643606 1.85026 0
M  V30 1564 H 148.707 0.599811 0.445237 0
M  V30 1565 H 151.369 1.87914 0.517138 0
M  V30 1566 H 150.465 2.44911 1.93455 0
M  V30 1567 N 150.766 -0.704594 1.40972 0
M  V30 1568 C 152.014 -1.46169 1.39568 0
M  V30 1569 C 152.335 -1.95 0.00253745 0
M  V30 1570 O 151.605 -1.71095 -0.954114 0
M  V30 1571 H 150.185 -0.542326 0.513704 0
M  V30 1572 H 152.847 -0.834553 1.76128 0
M  V30 1573 H 151.943 -2.32922 2.07735 0
M  V30 1574 N 152.244 -1.26651 -0.937939 0
M  V30 1575 C 153.207 -1.08546 -2.01867 0
M  V30 1576 C 154.207 -0.0327327 -1.60767 0
M  V30 1577 O 155.397 -0.276427 -1.71993 0
M  V30 1578 C 152.529 -0.651711 -3.34613 0
M  V30 1579 H 153.722 -2.04502 -2.1936 0
M  V30 1580 H 151.275 -1.09294 -1.11734 0
M  V30 1581 H 152.01 0.309696 -3.22818 0
M  V30 1582 H 151.795 -1.41189 -3.65798 0
M  V30 1583 H 153.285 -0.546973 -4.14002 0
M  V30 1584 N 153.722 1.14298 -1.08507 0
M  V30 1585 C 155.138 1.37347 -0.812901 0
M  V30 1586 C 155.338 1.93052 0.577325 0
M  V30 1587 O 154.394 2.14389 1.33393 0
M  V30 1588 C 155.707 2.33359 -1.89642 0
M  V30 1589 C 157.255 2.46996 -1.92255 0
M  V30 1590 C 157.73 3.46309 -2.99724 0
M  V30 1591 N 159.221 3.53853 -2.98902 0
M  V30 1592 C 159.956 4.3055 -3.787 0
M  V30 1593 N 159.452 5.10482 -4.6838 0
M  V30 1594 N 161.245 4.25757 -3.66998 0
M  V30 1595 H 153.396 0.764867 -1.9815 0
M  V30 1596 H 155.659 0.398966 -0.859959 0
M  V30 1597 H 155.365 1.99565 -2.89597 0
M  V30 1598 H 155.239 3.33274 -1.76659 0
M  V30 1599 H 157.626 2.80081 -0.929445 0
M  V30 1600 H 157.707 1.47039 -2.09316 0
M  V30 1601 H 157.351 3.13957 -3.99241 0
M  V30 1602 H 157.281 4.46049 -2.79907 0
M  V30 1603 H 159.772 2.96812 -2.33904 0
M  V30 1604 H 160.085 5.66284 -5.25873 0
M  V30 1605 H 158.43 5.09747 -4.72422 0
M  V30 1606 H 161.621 3.62383 -2.96304 0
M  V30 1607 H 161.794 4.85279 -4.29427 0
M  V30 1608 N 155.201 0.870884 1.31352 0
M  V30 1609 C 156.134 0.271983 2.26573 0
M  V30 1610 C 157.112 -0.599385 1.51149 0
M  V30 1611 O 158.296 -0.552605 1.80218 0
M  V30 1612 C 155.423 -0.614801 3.33073 0
M  V30 1613 C 154.469 0.185342 4.26097 0
M  V30 1614 S 155.302 1.56444 5.12138 0
M  V30 1615 C 156.458 0.683807 6.22153 0
M  V30 1616 H 156.691 1.07916 2.77023 0
M  V30 1617 H 154.224 0.669459 1.39132 0
M  V30 1618 H 156.182 -1.12074 3.94905 0
M  V30 1619 H 154.843 -1.39593 2.81376 0
M  V30 1620 H 154.036 -0.490771 5.01605 0
M  V30 1621 H 153.638 0.623415 3.68768 0
M  V30 1622 H 155.93 -0.10521 6.77418 0
M  V30 1623 H 156.873 1.41004 6.93919 0
M  V30 1624 H 157.281 0.250952 5.63942 0
M  V30 1625 N 156.679 -1.44442 0.630414 0
M  V30 1626 C 157.612 -2.27862 -0.124247 0
M  V30 1627 C 158.59 -1.38495 -0.851931 0
M  V30 1628 O 159.774 -1.67935 -0.856166 0
M  V30 1629 C 156.901 -3.17407 -1.18197 0
M  V30 1630 C 155.947 -4.22875 -0.554892 0
M  V30 1631 S 156.78 -5.31485 0.654489 0
M  V30 1632 C 157.936 -6.246 -0.40326 0
M  V30 1633 H 158.169 -2.91519 0.583435 0
M  V30 1634 H 155.702 -1.48618 0.418565 0
M  V30 1635 H 157.66 -3.69549 -1.78728 0
M  V30 1636 H 156.321 -2.52971 -1.86184 0
M  V30 1637 H 155.514 -4.85542 -1.35148 0
M  V30 1638 H 155.116 -3.73992 -0.0242105 0
M  V30 1639 H 157.408 -6.65375 -1.27602 0
M  V30 1640 H 158.351 -7.07851 0.187813 0
M  V30 1641 H 158.759 -5.59775 -0.728837 0
M  V30 1642 N 158.157 -0.370918 -1.53173 0
M  V30 1643 C 159.385 0.217704 -2.05751 0
M  V30 1644 C 159.8 1.42018 -1.24404 0
M  V30 1645 O 159.157 1.80245 -0.286033 0
M  V30 1646 C 159.208 0.605954 -3.56385 0
M  V30 1647 O 158.929 -0.548734 -4.3465 0
M  V30 1648 C 160.43 1.2524 -4.25241 0
M  V30 1649 H 157.65 0.0371659 -0.66997 0
M  V30 1650 H 160.194 -0.530832 -1.9749 0
M  V30 1651 H 158.349 1.3044 -3.6478 0
M  V30 1652 H 158.763 -0.23376 -5.23979 0
M  V30 1653 H 160.237 1.47458 -5.3194 0
M  V30 1654 H 160.714 2.2143 -3.79296 0
M  V30 1655 H 161.32 0.595233 -4.21114 0
M  V30 1656 N 159.635 1.57281 -0.100228 0
M  V30 1657 C 160.598 2.13158 0.842398 0
M  V30 1658 C 161.598 1.06202 1.20738 0
M  V30 1659 O 162.788 1.32066 1.13597 0
M  V30 1660 C 159.92 2.65639 2.13655 0
M  V30 1661 H 161.113 2.97766 0.357114 0
M  V30 1662 H 158.666 1.5559 0.148823 0
M  V30 1663 H 159.401 1.84566 2.66657 0
M  V30 1664 H 159.186 3.43844 1.88451 0
M  V30 1665 H 160.676 3.08846 2.81077 0
M  V30 1666 N 161.113 -0.173488 1.56642 0
M  V30 1667 C 162.076 -1.19859 1.95362 0
M  V30 1668 C 163.076 -1.37296 0.83704 0
M  V30 1669 O 164.266 -1.34739 1.10413 0
M  V30 1670 C 161.398 -2.56405 2.24654 0
M  V30 1671 H 162.591 -0.867062 2.87092 0
M  V30 1672 H 160.144 -0.415853 1.50666 0
M  V30 1673 H 160.879 -2.94576 1.35631 0
M  V30 1674 H 160.664 -2.45115 3.06041 0
M  V30 1675 H 162.154 -3.30287 2.5554 0
M  V30 1676 N 162.591 -1.51276 -0.441967 0
M  V30 1677 C 164.007 -1.39349 -0.778083 0
M  V30 1678 C 164.207 -0.472212 -1.95889 0
M  V30 1679 O 163.263 0.0743551 -2.5239 0
M  V30 1680 C 164.576 -2.81292 -1.0628 0
M  V30 1681 C 166.124 -2.9041 -1.16751 0
M  V30 1682 C 166.599 -4.33251 -1.48519 0
M  V30 1683 N 168.09 -4.36336 -1.55453 0
M  V30 1684 C 168.825 -5.43885 -1.81596 0
M  V30 1685 N 168.321 -6.61601 -2.05562 0
M  V30 1686 N 170.114 -5.3136 -1.8334 0
M  V30 1687 H 162.265 -2.09729 0.335774 0
M  V30 1688 H 164.528 -0.943925 0.0878028 0
M  V30 1689 H 164.234 -3.50678 -0.267905 0
M  V30 1690 H 164.108 -3.20334 -1.99163 0
M  V30 1691 H 166.495 -2.21225 -1.95304 0
M  V30 1692 H 166.576 -2.54871 -0.217801 0
M  V30 1693 H 166.22 -5.02984 -0.704958 0
M  V30 1694 H 166.15 -4.66299 -2.44689 0
M  V30 1695 H 168.641 -3.51466 -1.38853 0
M  V30 1696 H 168.954 -7.39361 -2.24867 0
M  V30 1697 H 167.299 -6.64725 -2.02894 0
M  V30 1698 H 170.49 -4.38382 -1.64132 0
M  V30 1699 H 170.663 -6.15258 -2.03377 0
M  V30 1700 N 164.069 0.697108 -1.41344 0
M  V30 1701 C 164.979 1.84088 -1.45427 0
M  V30 1702 C 165.995 1.70545 -0.34501 0
M  V30 1703 O 167.171 1.92488 -0.592492 0
M  V30 1704 C 164.236 3.20056 -1.33286 0
M  V30 1705 C 163.297 3.45718 -2.54514 0
M  V30 1706 C 162.53 4.75199 -2.42944 0
M  V30 1707 O 162.753 5.51579 -1.45318 0
M  V30 1708 O 161.687 5.0161 -3.32672 0
M  V30 1709 H 165.513 1.836 -2.41919 0
M  V30 1710 H 163.098 0.849966 -1.22866 0
M  V30 1711 H 164.98 4.01236 -1.28794 0
M  V30 1712 H 163.655 3.2123 -0.39909 0
M  V30 1713 H 162.562 2.64474 -2.64583 0
M  V30 1714 H 163.895 3.49356 -3.46715 0
M  V30 1715 N 165.547 1.27147 0.931209 0
M  V30 1716 C 166.51 1.09615 2.01289 0
M  V30 1717 C 167.51 0.0412581 1.60747 0
M  V30 1718 O 168.7 0.285545 1.71844 0
M  V30 1719 C 165.832 0.669447 3.34262 0
M  V30 1720 H 167.025 2.05662 2.18273 0
M  V30 1721 H 164.578 1.09885 1.11153 0
M  V30 1722 H 165.313 -0.292572 3.22978 0
M  V30 1723 H 165.098 1.43127 3.65044 0
M  V30 1724 H 166.588 0.568921 4.13706 0
M  V30 1725 N 167.025 -1.13721 1.09112 0
M  V30 1726 C 167.955 -2.21148 0.749385 0
M  V30 1727 C 168.936 -1.6792 -0.271475 0
M  V30 1728 O 170.121 -1.93693 -0.140251 0
M  V30 1729 C 167.251 -3.46905 0.165659 0
M  V30 1730 C 166.205 -4.13203 1.11567 0
M  V30 1731 C 165.531 -5.33248 0.393809 0
M  V30 1732 C 166.831 -4.60912 2.45678 0
M  V30 1733 H 168.525 -2.4999 1.64758 0
M  V30 1734 H 166.071 -1.20156 0.793626 0
M  V30 1735 H 168.024 -4.21313 -0.085466 0
M  V30 1736 H 166.748 -3.17449 -0.767714 0
M  V30 1737 H 165.407 -3.40758 1.35202 0
M  V30 1738 H 165.055 -5.00054 -0.543599 0
M  V30 1739 H 164.755 -5.78552 1.02721 0
M  V30 1740 H 166.279 -6.10413 0.150908 0
M  V30 1741 H 167.693 -5.26759 2.26269 0
M  V30 1742 H 166.09 -5.16944 3.04776 0
M  V30 1743 H 167.16 -3.75603 3.06677 0
M  V30 1744 N 168.503 -0.877838 -1.30888 0
M  V30 1745 C 169.749 -0.493426 -1.96706 0
M  V30 1746 C 170.082 0.953504 -1.6918 0
M  V30 1747 O 169.357 1.67266 -0.992594 0
M  V30 1748 C 169.64 -0.760429 -3.51979 0
M  V30 1749 C 169.493 -2.25747 -3.89048 0
M  V30 1750 C 170.812 -0.232148 -4.39487 0
M  V30 1751 H 167.931 -0.180746 -0.714493 0
M  V30 1752 H 170.573 -1.10052 -1.54882 0
M  V30 1753 H 168.723 -0.243715 -3.87735 0
M  V30 1754 H 170.395 -2.84204 -3.63354 0
M  V30 1755 H 168.638 -2.72694 -3.37373 0
M  V30 1756 H 169.309 -2.39491 -4.97341 0
M  V30 1757 H 171.785 -0.674314 -4.106 0
M  V30 1758 H 170.661 -0.448355 -5.47066 0
M  V30 1759 H 170.922 0.866297 -4.33529 0
M  V30 1760 N 169.982 1.44106 -0.638065 0
M  V30 1761 C 171.393 1.85316 -0.226894 0
M  V30 1762 C 171.744 1.53399 1.22324 0
M  V30 1763 O 170.869 0.975463 1.93167 0
M  V30 1764 C 171.464 3.3637 -0.405013 0
M  V30 1765 C 170.023 3.76369 -0.0482902 0
M  V30 1766 C 169.17 2.67921 -0.715108 0
M  V30 1767 H 172.121 1.34474 -0.842764 0
M  V30 1768 H 172.142 3.7885 0.354 0
M  V30 1769 H 171.654 3.59569 -1.46053 0
M  V30 1770 H 169.755 3.58784 1.00522 0
M  V30 1771 H 169.868 4.76856 -0.463187 0
M  V30 1772 H 168.232 2.54259 -0.149753 0
M  V30 1773 H 169.015 2.93951 -1.77335 0
M  V30 1774 N 171.46 0.379036 1.52974 0
M  V30 1775 C 172.707 -0.206421 2.01445 0
M  V30 1776 C 173.035 -1.47668 1.26587 0
M  V30 1777 O 172.29 -1.92514 0.351675 0
M  V30 1778 C 172.589 -0.53096 3.53434 0
M  V30 1779 C 172.255 0.646546 4.46241 0
M  V30 1780 C 170.917 0.969604 4.7133 0
M  V30 1781 C 173.269 1.43479 5.01062 0
M  V30 1782 C 170.597 2.08263 5.48492 0
M  V30 1783 C 172.949 2.53834 5.7944 0
M  V30 1784 C 171.613 2.86659 6.02812 0
M  V30 1785 H 170.883 -0.0755349 0.73714 0
M  V30 1786 H 173.53 0.514271 1.84465 0
M  V30 1787 H 171.835 -1.33285 3.68432 0
M  V30 1788 H 173.532 -0.996417 3.88423 0
M  V30 1789 H 170.122 0.384734 4.2687 0
M  V30 1790 H 174.306 1.19844 4.81613 0
M  V30 1791 H 169.562 2.34078 5.64816 0
M  V30 1792 H 173.736 3.15319 6.20924 0
M  V30 1793 H 171.363 3.73026 6.62387 0
M  V30 1794 N 172.938 -1.57226 0.108567 0
M  V30 1795 C 174.186 -1.94448 -0.550853 0
M  V30 1796 C 174.507 -0.992074 -1.67878 0
M  V30 1797 O 173.777 -0.0465 -1.95845 0
M  V30 1798 H 172.357 -0.717897 -0.206479 0
M  V30 1799 H 175.019 -1.94112 0.175062 0
M  V30 1800 H 174.115 -2.97218 -0.952259 0
M  V30 1801 N 174.416 0.165178 -1.56732 0
M  V30 1802 C 175.363 1.2044 -1.96883 0
M  V30 1803 C 176.333 1.43664 -0.833657 0
M  V30 1804 O 177.518 1.56302 -1.09427 0
M  V30 1805 C 174.658 2.53727 -2.33916 0
M  V30 1806 C 173.771 2.3783 -3.6064 0
M  V30 1807 C 172.906 3.64026 -3.86857 0
M  V30 1808 C 171.945 3.43088 -5.06909 0
M  V30 1809 N 171.082 4.61369 -5.29229 0
M  V30 1810 H 175.922 0.854996 -2.85471 0
M  V30 1811 H 173.459 0.41076 -1.41249 0
M  V30 1812 H 175.417 3.31419 -2.53411 0
M  V30 1813 H 174.047 2.8665 -1.48431 0
M  V30 1814 H 173.099 1.51282 -3.49024 0
M  V30 1815 H 174.411 2.18308 -4.4849 0
M  V30 1816 H 173.565 4.50152 -4.06753 0
M  V30 1817 H 172.304 3.86533 -2.97394 0
M  V30 1818 H 171.309 2.55349 -4.86906 0
M  V30 1819 H 172.534 3.21997 -5.97909 0
M  V30 1820 H 170.48 4.84084 -4.42718 0
M  V30 1821 H 170.397 4.44783 -6.11313 0
M  V30 1822 H 171.665 5.48761 -5.53608 0
M  V30 1823 N 175.894 1.51508 0.433938 0
M  V30 1824 C 177.171 1.54888 1.19453 0
M  V30 1825 C 177.551 0.315154 2.08734 0
M  V30 1826 O 176.899 -0.699558 2.17528 0
M  V30 1827 C 177.109 2.86467 1.99342 0
M  V30 1828 C 178.457 3.38545 2.56267 0
M  V30 1829 O 179.481 2.88041 2.0955 0
M  V30 1830 O 178.34 4.26675 3.41483 0
M  V30 1831 H 175.434 0.622863 0.544032 0
M  V30 1832 H 177.98 1.63823 0.442732 0
M  V30 1833 H 176.752 3.67718 1.33788 0
M  V30 1834 H 176.375 2.8071 2.8158 0
M  V30 1835 N 177.372 -0.689602 1.41712 0
M  V30 1836 C 178.335 -1.78521 1.43746 0
M  V30 1837 C 179.335 -1.57436 0.327191 0
M  V30 1838 O 180.525 -1.64 0.587348 0
M  V30 1839 C 177.657 -3.16971 1.25467 0
M  V30 1840 H 178.85 -1.78108 2.41283 0
M  V30 1841 H 176.403 -0.89781 1.27942 0
M  V30 1842 H 177.138 -3.23019 0.287948 0
M  V30 1843 H 176.923 -3.33678 2.05917 0
M  V30 1844 H 178.413 -3.96935 1.2974 0
M  V30 1845 N 178.85 -1.27639 -0.924453 0
M  V30 1846 C 180.261 -1.12834 -1.48746 0
M  V30 1847 C 180.612 0.285505 -1.94112 0
M  V30 1848 O 179.737 1.17874 -1.81479 0
M  V30 1849 C 180.332 -2.04217 -2.70334 0
M  V30 1850 C 178.891 -1.93509 -3.22848 0
M  V30 1851 C 178.038 -1.96583 -1.95577 0
M  V30 1852 H 180.989 -1.40484 -0.738233 0
M  V30 1853 H 181.01 -1.59989 -3.4523 0
M  V30 1854 H 180.522 -3.07111 -2.37285 0
M  V30 1855 H 178.623 -0.936131 -3.60649 0
M  V30 1856 H 178.736 -2.79917 -3.88823 0
M  V30 1857 H 177.1 -1.4085 -2.12211 0
M  V30 1858 H 177.883 -3.01137 -1.64837 0
M  V30 1859 N 180.328 1.1314 -1.09713 0
M  V30 1860 C 181.258 2.20748 -0.761102 0
M  V30 1861 C 182.239 1.68061 0.262566 0
M  V30 1862 O 183.424 1.93765 0.129977 0
M  V30 1863 C 180.554 3.46812 -0.184054 0
M  V30 1864 C 179.508 4.12606 -1.13757 0
M  V30 1865 C 178.834 5.33031 -0.422083 0
M  V30 1866 C 180.134 4.59603 -2.48118 0
M  V30 1867 H 181.828 2.49113 -1.66082 0
M  V30 1868 H 179.374 1.19734 -0.799987 0
M  V30 1869 H 181.327 4.21353 0.0631215 0
M  V30 1870 H 180.051 3.17851 0.750868 0
M  V30 1871 H 178.71 3.40036 -1.37007 0
M  V30 1872 H 178.358 5.00335 0.517072 0
M  V30 1873 H 178.058 5.77999 -1.05788 0
M  V30 1874 H 179.582 6.10325 -0.183277 0
M  V30 1875 H 180.996 5.25552 -2.29059 0
M  V30 1876 H 179.393 5.15321 -3.07514 0
M  V30 1877 H 180.463 3.73971 -3.08665 0
M  V30 1878 N 181.806 0.884767 1.30421 0
M  V30 1879 C 182.736 0.367574 2.30589 0
M  V30 1880 C 183.717 -0.549464 1.60981 0
M  V30 1881 O 184.902 -0.46336 1.88591 0
M  V30 1882 C 182.032 -0.418944 3.44764 0
M  V30 1883 C 180.986 0.406316 4.26067 0
M  V30 1884 C 180.312 -0.506793 5.32293 0
M  V30 1885 C 181.612 1.64832 4.95608 0
M  V30 1886 H 183.306 1.20462 2.74097 0
M  V30 1887 H 180.852 0.580695 1.31772 0
M  V30 1888 H 182.805 -0.791395 4.13902 0
M  V30 1889 H 181.529 -1.28964 3.0006 0
M  V30 1890 H 180.188 0.760903 3.58617 0
M  V30 1891 H 179.836 -1.37519 4.83836 0
M  V30 1892 H 179.536 0.0415828 5.87585 0
M  V30 1893 H 181.06 -0.875764 6.04287 0
M  V30 1894 H 182.474 1.34646 5.57264 0
M  V30 1895 H 180.871 2.13688 5.60765 0
M  V30 1896 H 181.941 2.39284 4.21748 0
M  V30 1897 N 183.284 -1.43765 0.645699 0
M  V30 1898 C 184.533 -2.01116 0.153412 0
M  V30 1899 C 184.846 -1.51493 -1.23731 0
M  V30 1900 O 186.052 -2.01067 -1.8244 0
M  V30 1901 C 184.508 -3.59206 0.223473 0
M  V30 1902 C 184.116 -4.17823 1.61642 0
M  V30 1903 C 185.86 -4.23972 -0.211597 0
M  V30 1904 C 183.767 -5.68183 1.64081 0
M  V30 1905 H 182.697 -0.752093 0.0535891 0
M  V30 1906 H 185.348 -1.6482 0.806633 0
M  V30 1907 H 183.73 -3.92867 -0.497118 0
M  V30 1908 H 184.904 -3.95674 2.36176 0
M  V30 1909 H 183.219 -3.65399 1.99681 0
M  V30 1910 H 185.816 -5.34275 -0.213112 0
M  V30 1911 H 186.159 -3.97352 -1.24165 0
M  V30 1912 H 186.692 -3.95166 0.456988 0
M  V30 1913 H 183.431 -5.99559 2.64971 0
M  V30 1914 H 182.951 -5.9241 0.938611 0
M  V30 1915 H 184.63 -6.32085 1.3812 0
M  V30 1916 N 184.763 -0.387143 -1.52771 0
M  V30 1917 C 185.726 0.436939 -2.24997 0
M  V30 1918 C 186.726 0.991991 -1.26555 0
M  V30 1919 O 187.916 0.874335 -1.50669 0
M  V30 1920 C 185.048 1.61281 -3.00335 0
M  V30 1921 H 186.241 -0.195365 -2.99263 0
M  V30 1922 H 183.794 -0.139218 -1.55679 0
M  V30 1923 H 184.529 2.2826 -2.30364 0
M  V30 1924 H 184.314 1.22154 -3.72587 0
M  V30 1925 H 185.804 2.19629 -3.5518 0
M  V30 1926 N 186.241 1.57166 -0.116904 0
M  V30 1927 C 187.487 1.95412 0.542405 0
M  V30 1928 C 187.82 1.00019 1.66463 0
M  V30 1929 O 187.095 0.0370346 1.94465 0
M  V30 1930 C 187.378 3.43615 1.07708 0
M  V30 1931 C 187.231 4.49781 -0.0415868 0
M  V30 1932 C 188.55 3.93616 1.96861 0
M  V30 1933 H 185.669 0.710543 0.195696 0
M  V30 1934 H 188.311 1.89027 -0.192038 0
M  V30 1935 H 186.461 3.49187 1.70296 0
M  V30 1936 H 188.133 4.56308 -0.676793 0
M  V30 1937 H 186.376 4.28033 -0.705019 0
M  V30 1938 H 187.047 5.50733 0.373717 0
M  V30 1939 H 189.523 3.90335 1.44146 0
M  V30 1940 H 188.399 4.97838 2.3119 0
M  V30 1941 H 188.66 3.34188 2.89432 0
M  V30 1942 N 187.719 -0.156864 1.56817 0
M  V30 1943 C 188.947 -0.886316 1.86955 0
M  V30 1944 C 189.362 -1.75185 0.703975 0
M  V30 1945 O 188.719 -1.79555 -0.326552 0
M  V30 1946 C 188.77 -1.75117 3.16253 0
M  V30 1947 O 188.491 -0.920537 4.2832 0
M  V30 1948 C 189.992 -2.58905 3.59837 0
M  V30 1949 H 187.212 -0.25678 0.619923 0
M  V30 1950 H 189.756 -0.152615 2.0393 0
M  V30 1951 H 187.911 -2.43805 3.01062 0
M  V30 1952 H 188.325 -1.51337 5.02192 0
M  V30 1953 H 189.799 -3.1518 4.53172 0
M  V30 1954 H 190.276 -3.34472 2.84649 0
M  V30 1955 H 190.882 -1.95526 3.7769 0
M  V30 1956 N 189.197 -1.51736 -0.425897 0
M  V30 1957 C 190.443 -1.65214 -1.1761 0
M  V30 1958 C 190.776 -0.372778 -1.90589 0
M  V30 1959 O 190.051 0.628139 -1.84078 0
M  V30 1960 C 190.334 -2.86312 -2.18398 0
M  V30 1961 C 190.187 -4.24254 -1.49426 0
M  V30 1962 C 191.506 -3.02925 -3.19256 0
M  V30 1963 H 188.625 -0.601263 -0.426206 0
M  V30 1964 H 191.267 -1.8425 -0.463882 0
M  V30 1965 H 189.417 -2.70213 -2.79137 0
M  V30 1966 H 191.089 -4.52046 -0.919362 0
M  V30 1967 H 189.332 -4.26426 -0.796432 0
M  V30 1968 H 190.003 -5.05001 -2.22885 0
M  V30 1969 H 192.479 -3.1781 -2.68581 0
M  V30 1970 H 191.355 -3.89199 -3.8706 0
M  V30 1971 H 191.616 -2.15497 -3.86023 0
M  V30 1972 N 190.675 0.682077 -1.42076 0
M  V30 1973 C 191.605 1.80796 -1.47767 0
M  V30 1974 C 192.586 1.6677 -0.334954 0
M  V30 1975 O 193.771 1.863 -0.548264 0
M  V30 1976 C 190.901 3.19038 -1.37229 0
M  V30 1977 C 189.855 3.47789 -2.49453 0
M  V30 1978 C 189.181 4.8553 -2.23975 0
M  V30 1979 C 190.481 3.45411 -3.91776 0
M  V30 1980 H 192.175 1.7629 -2.41997 0
M  V30 1981 H 189.721 0.846721 -1.16476 0
M  V30 1982 H 191.674 3.97528 -1.39821 0
M  V30 1983 H 190.398 3.24204 -0.394907 0
M  V30 1984 H 189.057 2.71657 -2.46166 0
M  V30 1985 H 188.705 4.87337 -1.24547 0
M  V30 1986 H 188.405 5.0573 -2.99184 0
M  V30 1987 H 189.929 5.66312 -2.28304 0
M  V30 1988 H 191.343 4.13882 -3.96705 0
M  V30 1989 H 189.74 3.77145 -4.66778 0
M  V30 1990 H 190.81 2.44122 -4.18966 0
M  V30 1991 N 192.153 1.28127 0.917671 0
M  V30 1992 C 193.381 1.17892 1.70026 0
M  V30 1993 C 193.796 -0.262958 1.8696 0
M  V30 1994 O 193.153 -1.17811 1.3938 0
M  V30 1995 C 193.204 1.86872 3.09453 0
M  V30 1996 O 192.925 3.25428 2.93306 0
M  V30 1997 C 194.426 1.8289 4.03815 0
M  V30 1998 H 191.646 0.40942 0.531617 0
M  V30 1999 H 194.19 1.69181 1.14883 0
M  V30 2000 H 192.345 1.39464 3.61426 0
M  V30 2001 H 192.759 3.59918 3.81523 0
M  V30 2002 H 194.233 2.35751 4.99125 0
M  V30 2003 H 194.71 0.800412 4.31845 0
M  V30 2004 H 195.316 2.29959 3.57769 0
M  V30 2005 N 193.631 -1.12557 1.10312 0
M  V30 2006 C 194.856 -1.88405 0.867085 0
M  V30 2007 C 195.281 -1.79038 -0.576817 0
M  V30 2008 O 194.639 -1.14439 -1.40618 0
M  V30 2009 C 194.687 -3.3563 1.31851 0
M  V30 2010 O 193.791 -4.09565 0.482734 0
M  V30 2011 H 193.132 -0.585455 0.313271 0
M  V30 2012 H 195.662 -1.42352 1.4696 0
M  V30 2013 H 195.672 -3.86469 1.3079 0
M  V30 2014 H 194.347 -3.41765 2.37001 0
M  V30 2015 H 192.924 -3.68695 0.558448 0
M  V30 2016 N 195.109 -0.891671 -1.2995 0
M  V30 2017 C 196.042 -0.307994 -2.26112 0
M  V30 2018 C 197.02 0.575262 -1.52084 0
M  V30 2019 O 198.204 0.523864 -1.81074 0
M  V30 2020 C 195.331 0.561734 -3.34009 0
M  V30 2021 C 194.377 -0.253107 -4.25748 0
M  V30 2022 S 195.21 -1.64572 -5.09584 0
M  V30 2023 C 196.366 -0.782699 -6.20987 0
M  V30 2024 H 196.599 -1.12309 -2.75271 0
M  V30 2025 H 194.132 -0.691509 -1.38049 0
M  V30 2026 H 196.09 1.05777 -3.96638 0
M  V30 2027 H 194.751 1.35099 -2.83561 0
M  V30 2028 H 193.944 0.410908 -5.02322 0
M  V30 2029 H 193.546 -0.682004 -3.67729 0
M  V30 2030 H 195.838 -0.00257476 -6.775 0
M  V30 2031 H 196.781 -1.52026 -6.91588 0
M  V30 2032 H 197.189 -0.340638 -5.63471 0
M  V30 2033 N 196.587 1.43421 -0.653314 0
M  V30 2034 C 197.497 2.34568 0.0388565 0
M  V30 2035 C 198.513 1.53888 0.81207 0
M  V30 2036 O 199.689 1.86539 0.759294 0
M  V30 2037 C 196.754 3.32167 0.993269 0
M  V30 2038 C 195.815 4.28751 0.216977 0
M  V30 2039 C 195.048 5.21688 1.12593 0
M  V30 2040 O 195.271 5.19052 2.36519 0
M  V30 2041 O 194.205 5.98919 0.598284 0
M  V30 2042 H 198.031 2.95251 -0.711386 0
M  V30 2043 H 195.616 1.43564 -0.413502 0
M  V30 2044 H 197.498 3.92183 1.54176 0
M  V30 2045 H 196.173 2.73987 1.72374 0
M  V30 2046 H 195.08 3.72215 -0.375101 0
M  V30 2047 H 196.413 4.89913 -0.473924 0
M  V30 2048 N 198.065 0.39524 1.52563 0
M  V30 2049 C 199.028 -0.425001 2.25225 0
M  V30 2050 C 200.028 -0.985266 1.27079 0
M  V30 2051 O 201.218 -0.866332 1.5113 0
M  V30 2052 C 198.35 -1.59686 3.01186 0
M  V30 2053 H 199.543 0.211233 2.99155 0
M  V30 2054 H 197.096 0.147472 1.55603 0
M  V30 2055 H 197.831 -2.27035 2.31572 0
M  V30 2056 H 197.616 -1.20176 3.73229 0
M  V30 2057 H 199.106 -2.17743 3.5634 0
M  V30 2058 N 199.544 -1.57102 0.125237 0
M  V30 2059 C 200.769 -2.0019 -0.542101 0
M  V30 2060 C 201.194 -1.00449 -1.59034 0
M  V30 2061 O 200.552 0.0229423 -1.81285 0
M  V30 2062 C 200.6 -3.42129 -1.13929 0
M  V30 2063 O 199.704 -3.45307 -2.2547 0
M  V30 2064 H 199.045 -0.650171 -0.134812 0
M  V30 2065 H 201.575 -2.03461 0.215553 0
M  V30 2066 H 201.585 -3.80471 -1.4733 0
M  V30 2067 H 200.26 -4.14237 -0.371531 0
M  V30 2068 H 198.837 -3.1879 -1.93462 0
M  V30 2069 N 201.022 0.148545 -1.56898 0
M  V30 2070 C 202.299 0.890019 -1.74178 0
M  V30 2071 C 202.679 1.99407 -0.692839 0
M  V30 2072 O 202.027 2.26671 0.288505 0
M  V30 2073 C 202.237 1.43389 -3.18183 0
M  V30 2074 C 203.585 1.89791 -3.79822 0
M  V30 2075 O 204.609 1.53134 -3.21603 0
M  V30 2076 O 203.468 2.57387 -4.82093 0
M  V30 2077 H 200.562 0.420496 -0.712118 0
M  V30 2078 H 203.108 0.134591 -1.69165 0
M  V30 2079 H 201.88 0.640383 -3.86024 0
M  V30 2080 H 201.503 2.25287 -3.27615 0
M  V30 2081 N 202.5 1.5196 0.417844 0
M  V30 2082 C 203.43 1.77634 1.51554 0
M  V30 2083 C 204.411 0.626918 1.58126 0
M  V30 2084 O 205.596 0.871632 1.7354 0
M  V30 2085 C 202.726 1.91911 2.8946 0
M  V30 2086 C 201.68 3.07463 2.97743 0
M  V30 2087 C 201.006 3.06951 4.37819 0
M  V30 2088 C 202.306 4.47082 2.70027 0
M  V30 2089 H 204 2.6955 1.3032 0
M  V30 2090 H 201.546 1.29706 0.625492 0
M  V30 2091 H 203.499 2.08455 3.6623 0
M  V30 2092 H 202.223 0.966598 3.11969 0
M  V30 2093 H 200.882 2.90656 2.23416 0
M  V30 2094 H 200.53 2.09438 4.57323 0
M  V30 2095 H 200.23 3.84556 4.44286 0
M  V30 2096 H 201.754 3.25613 5.16535 0
M  V30 2097 H 203.168 4.6414 3.36522 0
M  V30 2098 H 201.565 5.2654 2.87881 0
M  V30 2099 H 202.635 4.55777 1.65514 0
M  V30 2100 N 203.978 -0.674533 1.42435 0
M  V30 2101 C 205.224 -1.43671 1.43131 0
M  V30 2102 C 205.557 -1.94142 0.0476021 0
M  V30 2103 O 204.832 -1.70924 -0.928188 0
M  V30 2104 C 205.115 -2.63355 2.45594 0
M  V30 2105 C 204.968 -2.18514 3.93156 0
M  V30 2106 C 206.287 -3.65571 2.45043 0
M  V30 2107 H 203.406 -0.521077 0.521198 0
M  V30 2108 H 206.048 -0.766551 1.7385 0
M  V30 2109 H 204.198 -3.2053 2.19528 0
M  V30 2110 H 205.87 -1.66504 4.30202 0
M  V30 2111 H 204.113 -1.50086 4.07009 0
M  V30 2112 H 204.784 -3.04484 4.60428 0
M  V30 2113 H 207.26 -3.18113 2.68223 0
M  V30 2114 H 206.136 -4.46893 3.18713 0
M  V30 2115 H 206.397 -4.16716 1.47649 0
M  V30 2116 N 205.456 -1.28612 -0.910864 0
M  V30 2117 C 206.733 -1.06632 -1.63979 0
M  V30 2118 C 207.113 0.393351 -2.07403 0
M  V30 2119 O 206.461 1.37999 -1.82122 0
M  V30 2120 C 206.671 -2.0436 -2.8291 0
M  V30 2121 C 208.019 -2.34666 -3.5386 0
M  V30 2122 O 209.043 -2.02467 -2.93062 0
M  V30 2123 O 207.902 -2.89631 -4.63439 0
M  V30 2124 H 204.996 -0.407737 -0.7195 0
M  V30 2125 H 207.542 -1.39942 -0.959914 0
M  V30 2126 H 206.314 -3.02727 -2.47936 0
M  V30 2127 H 205.937 -1.71714 -3.58609 0
M  V30 2128 N 206.934 1.1197 -1.10907 0
M  V30 2129 C 207.864 2.19928 -0.784473 0
M  V30 2130 C 208.845 1.6833 0.244726 0
M  V30 2131 O 210.03 1.93892 0.109418 0
M  V30 2132 C 207.16 3.46597 -0.220827 0
M  V30 2133 C 206.114 4.11376 -1.18127 0
M  V30 2134 C 205.44 5.32554 -0.478594 0
M  V30 2135 C 206.74 4.56945 -2.52979 0
M  V30 2136 H 208.434 2.47337 -1.68715 0
M  V30 2137 H 205.98 1.18879 -0.812642 0
M  V30 2138 H 207.933 4.21396 0.0184278 0
M  V30 2139 H 206.657 3.1863 0.717113 0
M  V30 2140 H 205.316 3.38564 -1.40606 0
M  V30 2141 H 204.964 5.00856 0.463976 0
M  V30 2142 H 204.664 5.76844 -1.11912 0
M  V30 2143 H 206.188 6.10096 -0.248 0
M  V30 2144 H 207.602 5.23093 -2.3462 0
M  V30 2145 H 205.999 5.1203 -3.12962 0
M  V30 2146 H 207.069 3.70676 -3.12614 0
M  V30 2147 N 208.412 0.89855 1.29475 0
M  V30 2148 C 209.66 0.522847 1.9522 0
M  V30 2149 C 209.981 -0.93371 1.71192 0
M  V30 2150 O 209.251 -1.65823 1.04305 0
M  V30 2151 H 207.831 0.190366 0.722336 0
M  V30 2152 H 210.493 1.14459 1.5775 0
M  V30 2153 H 209.589 0.704476 3.04045 0
M  V30 2154 N 209.89 -1.43072 0.660911 0
M  V30 2155 C 210.823 -2.28074 -0.0758862 0
M  V30 2156 C 211.801 -1.40271 -0.822362 0
M  V30 2157 O 212.985 -1.69713 -0.820352 0
M  V30 2158 C 210.112 -3.19843 -1.11437 0
M  V30 2159 C 209.158 -4.23957 -0.465069 0
M  V30 2160 S 209.991 -5.29978 0.767078 0
M  V30 2161 C 211.147 -6.25314 -0.270682 0
M  V30 2162 H 211.38 -2.90216 0.645139 0
M  V30 2163 H 208.913 -1.47697 0.449995 0
M  V30 2164 H 210.871 -3.73257 -1.70849 0
M  V30 2165 H 209.532 -2.56863 -1.80776 0
M  V30 2166 H 208.725 -4.88299 -1.24819 0
M  V30 2167 H 208.327 -3.73959 0.0551242 0
M  V30 2168 H 210.619 -6.67932 -1.13459 0
M  V30 2169 H 211.562 -7.07293 0.337916 0
M  V30 2170 H 211.97 -5.61195 -0.609937 0
M  V30 2171 N 211.368 -0.403325 -1.52352 0
M  V30 2172 C 212.596 0.174012 -2.06167 0
M  V30 2173 C 213.011 1.39347 -1.27388 0
M  V30 2174 O 212.368 1.79597 -0.324201 0
M  V30 2175 C 212.419 0.530223 -3.5759 0
M  V30 2176 O 212.14 -0.640806 -4.33388 0
M  V30 2177 C 213.641 1.16192 -4.27802 0
M  V30 2178 H 210.861 0.0229464 -0.670608 0
M  V30 2179 H 213.405 -0.572604 -1.9632 0
M  V30 2180 H 211.56 1.22673 -3.67464 0
M  V30 2181 H 211.974 -0.344851 -5.23365 0
M  V30 2182 H 213.448 1.36141 -5.34948 0
M  V30 2183 H 213.925 2.13335 -3.83907 0
M  V30 2184 H 214.531 0.505775 -4.22282 0
M  V30 2185 N 212.846 1.57033 -0.133567 0
M  V30 2186 C 213.776 2.1909 0.807567 0
M  V30 2187 C 214.757 1.13517 1.26681 0
M  V30 2188 O 215.942 1.41809 1.32679 0
M  V30 2189 C 213.072 2.80188 2.05212 0
M  V30 2190 C 212.026 3.91471 1.73015 0
M  V30 2191 C 211.352 4.39443 3.04622 0
M  V30 2192 C 212.652 5.12886 0.987168 0
M  V30 2193 H 214.346 2.97988 0.290403 0
M  V30 2194 H 211.892 1.43335 0.138239 0
M  V30 2195 H 213.845 3.22264 2.71521 0
M  V30 2196 H 212.569 1.98601 2.59278 0
M  V30 2197 H 211.228 3.49993 1.0909 0
M  V30 2198 H 210.876 3.54695 3.56651 0
M  V30 2199 H 210.576 5.14495 2.83847 0
M  V30 2200 H 212.1 4.8418 3.72024 0
M  V30 2201 H 213.514 5.51891 1.55208 0
M  V30 2202 H 211.911 5.93615 0.87985 0
M  V30 2203 H 212.981 4.84894 -0.0235286 0
M  V30 2204 N 214.325 -0.140222 1.56975 0
M  V30 2205 C 215.55 -0.870414 1.88251 0
M  V30 2206 C 215.975 -1.73637 0.723312 0
M  V30 2207 O 215.333 -1.78329 -0.32689 0
M  V30 2208 C 215.381 -1.69737 3.18154 0
M  V30 2209 O 214.485 -2.80229 3.02565 0
M  V30 2210 H 213.826 -0.242025 0.61832 0
M  V30 2211 H 216.356 -0.128999 2.04193 0
M  V30 2212 H 216.366 -2.09099 3.50345 0
M  V30 2213 H 215.041 -1.06152 4.02125 0
M  V30 2214 H 213.618 -2.44224 2.81796 0
M  V30 2215 N 215.803 -1.52179 -0.40978 0
M  V30 2216 C 217.214 -1.58377 -0.988615 0
M  V30 2217 C 217.565 -0.423879 -1.91566 0
M  V30 2218 O 216.69 0.455844 -2.11544 0
M  V30 2219 C 217.285 -2.87044 -1.79976 0
M  V30 2220 C 215.844 -2.95722 -2.32863 0
M  V30 2221 C 214.991 -2.53309 -1.12828 0
M  V30 2222 H 217.942 -1.57558 -0.190039 0
M  V30 2223 H 217.963 -2.7236 -2.65707 0
M  V30 2224 H 217.475 -3.71444 -1.12478 0
M  V30 2225 H 215.576 -2.15814 -3.03735 0
M  V30 2226 H 215.689 -3.99951 -2.63773 0
M  V30 2227 H 214.053 -2.07142 -1.48204 0
M  V30 2228 H 214.836 -3.40082 -0.46897 0
M  V30 2229 N 217.281 0.66697 -1.42791 0
M  V30 2230 C 218.244 1.76211 -1.46568 0
M  V30 2231 C 219.244 1.56896 -0.352196 0
M  V30 2232 O 220.434 1.63044 -0.613364 0
M  V30 2233 C 217.566 3.14935 -1.30494 0
M  V30 2234 H 218.759 1.74247 -2.44086 0
M  V30 2235 H 216.312 0.877342 -1.29354 0
M  V30 2236 H 217.047 3.2252 -0.339301 0
M  V30 2237 H 216.832 3.30359 -2.11199 0
M  V30 2238 H 218.322 3.94821 -1.36038 0
M  V30 2239 N 218.759 1.29093 0.90403 0
M  V30 2240 C 220.036 1.075 1.63411 0
M  V30 2241 C 220.416 -0.382346 2.07609 0
M  V30 2242 O 219.764 -1.37031 1.82851 0
M  V30 2243 C 219.974 2.05858 2.81822 0
M  V30 2244 C 221.322 2.36539 3.52611 0
M  V30 2245 O 222.346 2.04019 2.91984 0
M  V30 2246 O 221.205 2.92085 4.61897 0
M  V30 2247 H 218.299 0.411547 0.717327 0
M  V30 2248 H 220.845 1.40449 0.952479 0
M  V30 2249 H 219.617 3.04037 2.46327 0
M  V30 2250 H 219.24 1.73613 3.57693 0
M  V30 2251 N 220.237 -1.11381 1.11499 0
M  V30 2252 C 221.467 -1.86663 0.885464 0
M  V30 2253 C 221.875 -1.80464 -0.568281 0
M  V30 2254 O 221.218 -1.18445 -1.40415 0
M  V30 2255 C 221.28 -3.36337 1.26956 0
M  V30 2256 C 220.944 -3.66304 2.73259 0
M  V30 2257 C 221.941 -3.63733 3.71476 0
M  V30 2258 C 219.626 -3.9529 3.09921 0
M  V30 2259 C 221.62 -3.89725 5.04374 0
M  V30 2260 C 219.307 -4.20941 4.43004 0
M  V30 2261 C 220.305 -4.18147 5.40039 0
M  V30 2262 O 219.993 -4.43153 6.70724 0
M  V30 2263 H 219.725 -0.597114 0.316908 0
M  V30 2264 H 222.279 -1.41782 1.48617 0
M  V30 2265 H 220.509 -3.81826 0.611999 0
M  V30 2266 H 222.198 -3.92986 1.01573 0
M  V30 2267 H 222.964 -3.41389 3.44498 0
M  V30 2268 H 218.843 -3.966 2.35009 0
M  V30 2269 H 222.387 -3.8746 5.80104 0
M  V30 2270 H 218.284 -4.42761 4.69716 0
M  V30 2271 H 219.052 -4.60717 6.76522 0
M  V30 2272 N 221.715 -0.905404 -1.28997 0
M  V30 2273 C 222.678 -0.392253 -2.25819 0
M  V30 2274 C 223.678 0.476753 -1.5357 0
M  V30 2275 O 224.868 0.280994 -1.71919 0
M  V30 2276 C 222 0.438588 -3.38067 0
M  V30 2277 H 223.193 -1.24743 -2.72725 0
M  V30 2278 H 220.746 -0.684051 -1.40536 0
M  V30 2279 H 221.481 1.31352 -2.96508 0
M  V30 2280 H 221.266 -0.184167 -3.91667 0
M  V30 2281 H 222.756 0.78873 -4.10084 0
M  V30 2282 N 223.193 1.4272 -0.668489 0
M  V30 2283 C 224.103 2.34596 0.0139753 0
M  V30 2284 C 225.119 1.5474 0.795703 0
M  V30 2285 O 226.295 1.87334 0.739466 0
M  V30 2286 C 223.36 3.33202 0.957982 0
M  V30 2287 C 222.421 4.28957 0.17149 0
M  V30 2288 C 221.654 5.22853 1.07053 0
M  V30 2289 O 221.877 5.21531 2.31001 0
M  V30 2290 O 220.811 5.9952 0.534727 0
M  V30 2291 H 224.637 2.9448 -0.742661 0
M  V30 2292 H 222.222 1.43117 -0.428705 0
M  V30 2293 H 224.104 3.93796 1.50008 0
M  V30 2294 H 222.779 2.758 1.69458 0
M  V30 2295 H 221.686 3.71796 -0.414558 0
M  V30 2296 H 223.019 4.89383 -0.52586 0
M  V30 2297 N 224.671 0.411399 1.52136 0
M  V30 2298 C 226.087 0.0623865 1.59478 0
M  V30 2299 C 226.287 -1.42554 1.4241 0
M  V30 2300 O 225.343 -2.19263 1.2522 0
M  V30 2301 C 226.656 0.559331 2.95452 0
M  V30 2302 C 228.204 0.517503 3.08692 0
M  V30 2303 C 228.679 0.990994 4.4715 0
M  V30 2304 N 230.17 0.947908 4.53397 0
M  V30 2305 C 230.905 1.28544 5.58806 0
M  V30 2306 N 230.401 1.69454 6.71757 0
M  V30 2307 N 232.194 1.20526 5.49026 0
M  V30 2308 H 224.345 1.37982 1.61477 0
M  V30 2309 H 226.608 0.566977 0.759764 0
M  V30 2310 H 226.314 1.59938 3.1323 0
M  V30 2311 H 226.188 -0.0298014 3.77188 0
M  V30 2312 H 228.575 -0.513505 2.90598 0
M  V30 2313 H 228.656 1.14272 2.28857 0
M  V30 2314 H 228.3 2.02034 4.65988 0
M  V30 2315 H 228.23 0.34257 5.25485 0
M  V30 2316 H 230.721 0.647157 3.72317 0
M  V30 2317 H 231.034 1.93513 7.48179 0
M  V30 2318 H 229.379 1.73359 6.73032 0
M  V30 2319 H 232.57 0.884505 4.59667 0
M  V30 2320 H 232.743 1.47161 6.31069 0
M  V30 2321 N 226.149 -1.5696 0.141893 0
M  V30 2322 C 227.079 -2.19516 -0.795936 0
M  V30 2323 C 228.06 -1.14187 -1.26077 0
M  V30 2324 O 229.245 -1.42511 -1.31925 0
M  V30 2325 C 226.375 -2.81272 -2.03723 0
M  V30 2326 C 225.329 -3.92384 -1.70936 0
M  V30 2327 C 224.655 -4.41052 -3.02287 0
M  V30 2328 C 225.955 -5.13403 -0.959954 0
M  V30 2329 H 227.649 -2.98138 -0.274596 0
M  V30 2330 H 225.195 -1.43406 -0.130636 0
M  V30 2331 H 227.148 -3.237 -2.69808 0
M  V30 2332 H 225.872 -1.99973 -2.58221 0
M  V30 2333 H 224.531 -3.50566 -1.07232 0
M  V30 2334 H 224.179 -3.56582 -3.54765 0
M  V30 2335 H 223.879 -5.15993 -2.81114 0
M  V30 2336 H 225.403 -4.86146 -3.69451 0
M  V30 2337 H 226.817 -5.52706 -1.52279 0
M  V30 2338 H 225.214 -5.94073 -0.848357 0
M  V30 2339 H 226.284 -4.84875 0.0492434 0
M  V30 2340 N 227.627 0.131896 -1.57047 0
M  V30 2341 C 228.59 1.14638 -1.98471 0
M  V30 2342 C 229.59 1.35029 -0.873148 0
M  V30 2343 O 230.78 1.31764 -1.13946 0
M  V30 2344 C 227.912 2.50358 -2.31373 0
M  V30 2345 H 229.105 0.79064 -2.8929 0
M  V30 2346 H 226.658 0.375761 -1.51716 0
M  V30 2347 H 227.393 2.90876 -1.43393 0
M  V30 2348 H 227.178 2.36915 -3.12432 0
M  V30 2349 H 228.668 3.23395 -2.64207 0
M  V30 2350 N 229.106 1.52395 0.401703 0
M  V30 2351 C 230.069 1.75636 1.47257 0
M  V30 2352 C 231.069 0.62628 1.48103 0
M  V30 2353 O 232.259 0.894227 1.49497 0
M  V30 2354 C 229.391 1.84553 2.86624 0
M  V30 2355 H 230.584 2.71241 1.27938 0
M  V30 2356 H 228.137 1.42923 0.632662 0
M  V30 2357 H 228.872 0.908882 3.11303 0
M  V30 2358 H 228.657 2.66715 2.87412 0
M  V30 2359 H 230.147 2.04251 3.64241 0
M  V30 2360 N 230.584 -0.659388 1.43143 0
M  V30 2361 C 231.514 -1.78422 1.50625 0
M  V30 2362 C 232.495 -1.66216 0.361443 0
M  V30 2363 O 233.68 -1.85404 0.577834 0
M  V30 2364 C 230.81 -3.16815 1.42287 0
M  V30 2365 C 229.764 -3.43777 2.54954 0
M  V30 2366 C 229.09 -4.81905 2.31671 0
M  V30 2367 C 230.39 -3.39134 3.97222 0
M  V30 2368 H 232.084 -1.72417 2.44771 0
M  V30 2369 H 229.63 -0.828084 1.17808 0
M  V30 2370 H 231.583 -3.95253 1.46127 0
M  V30 2371 H 230.307 -3.23534 0.446435 0
M  V30 2372 H 228.966 -2.67707 2.50457 0
M  V30 2373 H 228.614 -4.85294 1.32284 0
M  V30 2374 H 228.314 -5.00906 3.07192 0
M  V30 2375 H 229.838 -5.62609 2.37284 0
M  V30 2376 H 231.252 -4.07518 4.03239 0
M  V30 2377 H 229.649 -3.69671 4.72719 0
M  V30 2378 H 230.719 -2.37426 4.22797 0
M  V30 2379 N 232.062 -1.29571 -0.897171 0
M  V30 2380 C 233.29 -1.20583 -1.68129 0
M  V30 2381 C 233.705 0.233181 -1.87354 0
M  V30 2382 O 233.062 1.15579 -1.41236 0
M  V30 2383 C 233.113 -1.91772 -3.06441 0
M  V30 2384 O 232.834 -3.30053 -2.88091 0
M  V30 2385 C 234.335 -1.89291 -4.00854 0
M  V30 2386 H 231.555 -0.417826 -0.525036 0
M  V30 2387 H 234.099 -1.70987 -1.12177 0
M  V30 2388 H 232.254 -1.45196 -3.59161 0
M  V30 2389 H 232.668 -3.65942 -3.75748 0
M  V30 2390 H 234.142 -2.43662 -4.95311 0
M  V30 2391 H 234.619 -0.869014 -4.30517 0
M  V30 2392 H 235.225 -2.35622 -3.54066 0
M  V30 2393 N 233.54 1.10788 -1.12088 0
M  V30 2394 C 234.472 2.16816 -0.743213 0
M  V30 2395 C 235.485 1.6119 0.228412 0
M  V30 2396 O 236.674 1.78497 0.0102931 0
M  V30 2397 C 233.774 3.38809 -0.0787313 0
M  V30 2398 C 232.947 4.23885 -1.0789 0
M  V30 2399 C 232.006 5.24334 -0.442713 0
M  V30 2400 O 231.032 5.58497 -1.09864 0
M  V30 2401 N 232.234 5.75079 0.791457 0
M  V30 2402 H 234.999 2.49825 -1.65552 0
M  V30 2403 H 232.56 1.26373 -1.012 0
M  V30 2404 H 234.552 4.03107 0.358766 0
M  V30 2405 H 233.122 3.03805 0.736275 0
M  V30 2406 H 232.342 3.55939 -1.69414 0
M  V30 2407 H 233.63 4.77562 -1.75533 0
M  V30 2408 H 233.028 5.49517 1.3434 0
M  V30 2409 H 231.585 6.4118 1.17183 0
M  V30 2410 N 235.018 0.912232 1.28515 0
M  V30 2411 C 235.965 0.397954 2.27343 0
M  V30 2412 C 236.935 -0.526766 1.57526 0
M  V30 2413 O 238.12 -0.449292 1.85435 0
M  V30 2414 C 235.26 -0.357263 3.43246 0
M  V30 2415 C 234.373 0.599788 4.27816 0
M  V30 2416 C 233.508 -0.173725 5.30916 0
M  V30 2417 C 232.547 0.777039 6.07148 0
M  V30 2418 N 231.684 0.0371398 7.0209 0
M  V30 2419 H 236.524 1.24577 2.70711 0
M  V30 2420 H 234.061 0.625612 1.33133 0
M  V30 2421 H 236.019 -0.8113 4.09236 0
M  V30 2422 H 234.649 -1.16943 3.00872 0
M  V30 2423 H 233.701 1.17235 3.61884 0
M  V30 2424 H 235.013 1.32704 4.80823 0
M  V30 2425 H 234.167 -0.688394 6.02782 0
M  V30 2426 H 232.906 -0.934041 4.78672 0
M  V30 2427 H 231.911 1.3031 5.34134 0
M  V30 2428 H 233.136 1.53689 6.61481 0
M  V30 2429 H 231.082 -0.705213 6.52198 0
M  V30 2430 H 230.999 0.704249 7.52713 0
M  V30 2431 H 232.267 -0.457383 7.78157 0
M  V30 2432 N 236.496 -1.42363 0.676048 0
M  V30 2433 C 237.736 -2.03392 0.20273 0
M  V30 2434 C 238.1 -1.52306 -1.16906 0
M  V30 2435 O 239.301 -2.05129 -1.73711 0
M  V30 2436 C 237.572 -3.56614 0.236947 0
M  V30 2437 S 239.131 -4.38489 -0.165186 0
M  V30 2438 H 235.949 -0.70611 0.0832418 0
M  V30 2439 H 238.551 -1.74093 0.88948 0
M  V30 2440 H 237.255 -3.91293 1.23767 0
M  V30 2441 H 236.786 -3.90587 -0.469596 0
M  V30 2442 H 238.801 -4.76093 -1.39822 0
M  V30 2443 N 237.974 -0.419461 -1.51915 0
M  V30 2444 C 239.222 0.152637 -2.01523 0
M  V30 2445 C 239.543 1.44762 -1.30649 0
M  V30 2446 O 238.813 1.90997 -0.435535 0
M  V30 2447 H 237.393 0.0593966 -0.744635 0
M  V30 2448 H 240.055 -0.558073 -1.86739 0
M  V30 2449 H 239.151 0.341369 -3.10227 0
M  V30 2450 N 239.452 1.56882 -0.150215 0
M  V30 2451 C 240.382 2.19935 0.784284 0
M  V30 2452 C 241.363 1.14854 1.25469 0
M  V30 2453 O 242.548 1.43209 1.31168 0
M  V30 2454 C 239.678 2.82349 2.02229 0
M  V30 2455 C 238.632 3.93285 1.68853 0
M  V30 2456 C 237.958 4.42649 2.99944 0
M  V30 2457 C 239.258 5.13904 0.932714 0
M  V30 2458 H 240.952 2.9828 0.258781 0
M  V30 2459 H 238.498 1.43473 0.123029 0
M  V30 2460 H 240.451 3.25126 2.68088 0
M  V30 2461 H 239.175 2.0134 2.57157 0
M  V30 2462 H 237.834 3.5113 1.05371 0
M  V30 2463 H 237.482 3.58458 3.52869 0
M  V30 2464 H 237.182 5.17476 2.78374 0
M  V30 2465 H 238.706 4.88099 3.66868 0
M  V30 2466 H 240.12 5.53506 1.49345 0
M  V30 2467 H 238.517 5.94515 0.81684 0
M  V30 2468 H 239.587 4.84842 -0.0749568 0
M  V30 2469 N 240.93 -0.123565 1.57115 0
M  V30 2470 C 242.207 -0.862196 1.75572 0
M  V30 2471 C 242.587 -1.98279 0.724475 0
M  V30 2472 O 241.935 -2.27102 -0.252407 0
M  V30 2473 C 242.145 -1.38309 3.20424 0
M  V30 2474 C 243.493 -1.83724 3.82793 0
M  V30 2475 O 244.517 -1.47999 3.23998 0
M  V30 2476 O 243.376 -2.49685 4.86127 0
M  V30 2477 H 240.47 -0.409113 0.718718 0
M  V30 2478 H 243.016 -0.107661 1.69358 0
M  V30 2479 H 241.788 -0.578889 3.86994 0
M  V30 2480 H 241.411 -2.20046 3.31158 0
M  V30 2481 N 242.408 -1.52605 -0.393616 0
M  V30 2482 C 243.656 -1.67093 -1.13685 0
M  V30 2483 C 243.977 -0.411011 -1.90619 0
M  V30 2484 O 243.247 0.574491 -1.87287 0
M  V30 2485 H 241.827 -0.615923 -0.422668 0
M  V30 2486 H 244.489 -1.89704 -0.447039 0
M  V30 2487 H 243.585 -2.51922 -1.84232 0
M  V30 2488 N 243.887 0.651787 -1.4349 0
M  V30 2489 C 245.133 1.41376 -1.45398 0
M  V30 2490 C 245.466 1.94041 -0.0784823 0
M  V30 2491 O 244.741 1.72379 0.900878 0
M  V30 2492 C 245.024 2.59414 -2.49752 0
M  V30 2493 C 244.877 2.12232 -3.96582 0
M  V30 2494 C 246.196 3.61626 -2.50827 0
M  V30 2495 H 243.315 0.512719 -0.529422 0
M  V30 2496 H 245.957 0.738796 -1.75048 0
M  V30 2497 H 244.107 3.16997 -2.246 0
M  V30 2498 H 245.779 1.59639 -4.32797 0
M  V30 2499 H 244.022 1.43592 -4.09346 0
M  V30 2500 H 244.693 2.9712 -4.65214 0
M  V30 2501 H 247.169 3.13805 -2.7325 0
M  V30 2502 H 246.045 4.41766 -3.25783 0
M  V30 2503 H 246.306 4.14314 -1.5426 0
M  V30 2504 N 245.365 1.30045 0.890287 0
M  V30 2505 C 246.611 1.18737 1.64406 0
M  V30 2506 C 246.944 -0.258525 1.92472 0
M  V30 2507 O 246.219 -1.18562 1.54186 0
M  V30 2508 C 246.502 2.01087 2.98724 0
M  V30 2509 C 246.355 3.53867 2.77665 0
M  V30 2510 C 247.674 1.84457 3.9958 0
M  V30 2511 H 244.793 0.432698 0.596608 0
M  V30 2512 H 247.435 1.5962 1.0306 0
M  V30 2513 H 245.585 1.66349 3.51084 0
M  V30 2514 H 247.257 3.98637 2.32133 0
M  V30 2515 H 245.5 3.78318 2.12269 0
M  V30 2516 H 246.171 4.06772 3.7315 0
M  V30 2517 H 248.647 2.14817 3.56361 0
M  V30 2518 H 247.523 2.44411 4.91482 0
M  V30 2519 H 247.784 0.802276 4.3476 0
M  V30 2520 N 246.843 -1.10192 1.12674 0
M  V30 2521 C 248.083 -1.83825 0.893736 0
M  V30 2522 C 248.447 -1.83341 -0.570082 0
M  V30 2523 O 249.648 -2.52553 -0.920354 0
M  V30 2524 C 247.919 -3.26405 1.45582 0
M  V30 2525 S 249.478 -4.17136 1.36171 0
M  V30 2526 H 246.296 -0.633732 0.322342 0
M  V30 2527 H 248.898 -1.32581 1.43675 0
M  V30 2528 H 247.602 -3.24329 2.51473 0
M  V30 2529 H 247.133 -3.82721 0.910405 0
M  V30 2530 H 249.148 -4.95069 0.334863 0
M  V30 2531 N 248.321 -0.919034 -1.28029 0
M  V30 2532 C 249.546 -0.570357 -1.99403 0
M  V30 2533 C 249.971 0.842486 -1.68178 0
M  V30 2534 O 249.329 1.56391 -0.917141 0
M  V30 2535 C 249.377 -0.792541 -3.51783 0
M  V30 2536 O 248.481 0.145988 -4.12142 0
M  V30 2537 H 247.822 -0.220555 -0.6263 0
M  V30 2538 H 250.352 -1.23592 -1.63053 0
M  V30 2539 H 250.362 -0.704708 -4.01868 0
M  V30 2540 H 249.037 -1.82247 -3.73844 0
M  V30 2541 H 247.614 0.00897528 -3.72899 0
M  V30 2542 N 249.799 1.42003 -0.683588 0
M  V30 2543 C 250.762 2.29191 -0.0198243 0
M  V30 2544 C 251.762 1.43773 0.72013 0
M  V30 2545 O 252.952 1.65061 0.556815 0
M  V30 2546 C 250.084 3.26435 0.982487 0
M  V30 2547 H 251.277 2.8938 -0.787345 0
M  V30 2548 H 248.83 1.49789 -0.446418 0
M  V30 2549 H 249.565 2.71203 1.77819 0
M  V30 2550 H 249.35 3.89449 0.455182 0
M  V30 2551 H 250.84 3.918 1.44508 0
M  V30 2552 N 251.277 0.427512 1.51691 0
M  V30 2553 C 252.209 -0.424521 2.25234 0
M  V30 2554 C 253.222 -0.994671 1.2888 0
M  V30 2555 O 254.411 -0.890483 1.54702 0
M  V30 2556 C 251.511 -1.60479 2.98496 0
M  V30 2557 C 250.684 -1.15527 4.21868 0
M  V30 2558 C 249.743 -2.20454 4.77793 0
M  V30 2559 O 248.769 -1.8029 5.39893 0
M  V30 2560 N 249.971 -3.52831 4.60967 0
M  V30 2561 H 252.736 0.205749 2.98993 0
M  V30 2562 H 250.297 0.255867 1.59865 0
M  V30 2563 H 252.289 -2.30276 3.32799 0
M  V30 2564 H 250.859 -2.14061 2.27809 0
M  V30 2565 H 250.079 -0.284736 3.9317 0
M  V30 2566 H 251.367 -0.832173 5.01949 0
M  V30 2567 H 250.765 -3.88201 4.11481 0
M  V30 2568 H 249.322 -4.18551 4.99658 0
M  V30 2569 N 252.755 -1.56801 0.158532 0
M  V30 2570 C 253.665 -2.20916 -0.789518 0
M  V30 2571 C 254.681 -1.1969 -1.26294 0
M  V30 2572 O 255.857 -1.52308 -1.31773 0
M  V30 2573 C 252.922 -2.82727 -2.00665 0
M  V30 2574 C 251.983 -3.99114 -1.58134 0
M  V30 2575 C 251.216 -4.57968 -2.74045 0
M  V30 2576 O 251.439 -4.15704 -3.90572 0
M  V30 2577 O 250.373 -5.48047 -2.48855 0
M  V30 2578 H 254.199 -3.02464 -0.273681 0
M  V30 2579 H 251.784 -1.4924 -0.0690548 0
M  V30 2580 H 253.666 -3.21968 -2.71872 0
M  V30 2581 H 252.341 -2.04184 -2.51179 0
M  V30 2582 H 251.248 -3.64567 -0.839155 0
M  V30 2583 H 252.581 -4.79212 -1.12325 0
M  V30 2584 N 254.233 0.115231 -1.57178 0
M  V30 2585 C 255.196 1.12526 -1.99676 0
M  V30 2586 C 256.196 1.34095 -0.88742 0
M  V30 2587 O 257.386 1.30548 -1.15337 0
M  V30 2588 C 254.518 2.4789 -2.34015 0
M  V30 2589 H 255.711 0.759912 -2.90113 0
M  V30 2590 H 253.264 0.359648 -1.52106 0
M  V30 2591 H 253.999 2.89339 -1.4647 0
M  V30 2592 H 253.784 2.33588 -3.14927 0
M  V30 2593 H 255.274 3.20575 -2.67622 0
M  V30 2594 N 255.711 1.52812 0.385517 0
M  V30 2595 C 256.957 1.68275 1.13188 0
M  V30 2596 C 257.29 0.423179 1.89533 0
M  V30 2597 O 256.565 -0.579113 1.85679 0
M  V30 2598 C 256.848 2.92001 2.1073 0
M  V30 2599 C 256.701 4.28067 1.38125 0
M  V30 2600 C 258.02 3.11283 3.11113 0
M  V30 2601 H 255.139 0.612352 0.410115 0
M  V30 2602 H 257.781 1.85415 0.414869 0
M  V30 2603 H 255.931 2.77519 2.71874 0
M  V30 2604 H 257.603 4.54324 0.799187 0
M  V30 2605 H 255.846 4.28388 0.683092 0
M  V30 2606 H 256.517 5.10733 2.09417 0
M  V30 2607 H 258.993 3.2482 2.6006 0
M  V30 2608 H 257.869 3.99325 3.76605 0
M  V30 2609 H 258.13 2.25656 3.80173 0
M  V30 2610 N 257.189 -0.644168 1.43834 0
M  V30 2611 C 258.605 -0.960875 1.27434 0
M  V30 2612 C 258.805 -2.00499 0.200618 0
M  V30 2613 O 257.861 -2.49018 -0.417906 0
M  V30 2614 C 259.174 -1.43653 2.64167 0
M  V30 2615 C 260.722 -1.55271 2.71772 0
M  V30 2616 C 261.197 -2.06224 4.08944 0
M  V30 2617 N 262.688 -2.13513 4.11055 0
M  V30 2618 C 263.423 -2.54081 5.14033 0
M  V30 2619 N 262.919 -2.9388 6.27381 0
M  V30 2620 N 264.712 -2.54101 5.01387 0
M  V30 2621 H 256.863 0.0465779 2.12349 0
M  V30 2622 H 259.126 -0.0417638 0.94708 0
M  V30 2623 H 258.832 -0.743706 3.43747 0
M  V30 2624 H 258.706 -2.40993 2.90176 0
M  V30 2625 H 261.093 -2.23653 1.92519 0
M  V30 2626 H 261.174 -0.563395 2.49519 0
M  V30 2627 H 260.818 -1.38441 4.88668 0
M  V30 2628 H 260.748 -3.06003 4.28567 0
M  V30 2629 H 263.239 -1.85493 3.29242 0
M  V30 2630 H 263.552 -3.2361 7.01781 0
M  V30 2631 H 261.897 -2.91663 6.30839 0
M  V30 2632 H 265.088 -2.22391 4.11898 0
M  V30 2633 H 265.261 -2.85394 5.81768 0
M  V30 2634 N 258.668 -1.30515 -0.883378 0
M  V30 2635 C 259.915 -1.1943 -1.63532 0
M  V30 2636 C 260.243 0.250627 -1.92878 0
M  V30 2637 O 259.498 1.19556 -1.54935 0
M  V30 2638 C 259.797 -1.96994 -2.98209 0
M  V30 2639 C 259.463 -3.466 -2.88408 0
M  V30 2640 C 258.125 -3.87397 -2.85442 0
M  V30 2641 C 260.477 -4.41863 -2.76418 0
M  V30 2642 C 257.805 -5.21745 -2.68327 0
M  V30 2643 C 260.157 -5.7632 -2.60841 0
M  V30 2644 C 258.821 -6.16354 -2.56251 0
M  V30 2645 H 258.091 -0.437025 -0.598406 0
M  V30 2646 H 260.738 -1.61635 -1.02696 0
M  V30 2647 H 259.043 -1.47429 -3.63004 0
M  V30 2648 H 260.74 -1.85808 -3.55354 0
M  V30 2649 H 257.33 -3.14182 -2.91527 0
M  V30 2650 H 261.514 -4.11285 -2.77775 0
M  V30 2651 H 256.77 -5.51853 -2.63189 0
M  V30 2652 H 260.944 -6.49772 -2.50538 0
M  V30 2653 H 258.571 -7.20401 -2.42748 0
M  V30 2654 N 260.146 1.09593 -1.13257 0
M  V30 2655 C 261.093 2.1618 -0.808381 0
M  V30 2656 C 262.063 1.64517 0.228754 0
M  V30 2657 O 263.248 1.9053 0.101381 0
M  V30 2658 C 260.388 3.43973 -0.278675 0
M  V30 2659 C 259.501 4.09545 -1.37466 0
M  V30 2660 C 258.636 5.25088 -0.803479 0
M  V30 2661 C 257.675 5.82579 -1.87799 0
M  V30 2662 N 256.812 6.89486 -1.32488 0
M  V30 2663 H 261.652 2.43254 -1.72138 0
M  V30 2664 H 259.189 1.19392 -0.859294 0
M  V30 2665 H 261.147 4.17174 0.0465583 0
M  V30 2666 H 259.777 3.17223 0.597459 0
M  V30 2667 H 258.829 3.34226 -1.81652 0
M  V30 2668 H 260.141 4.48307 -2.18684 0
M  V30 2669 H 259.295 6.05178 -0.429427 0
M  V30 2670 H 258.034 4.87684 0.0397956 0
M  V30 2671 H 257.039 5.01152 -2.26113 0
M  V30 2672 H 258.264 6.22045 -2.72463 0
M  V30 2673 H 256.21 6.54064 -0.503575 0
M  V30 2674 H 256.127 7.27007 -2.07355 0
M  V30 2675 H 257.395 7.73336 -0.978336 0
M  V30 2676 N 261.624 0.925811 1.2754 0
M  V30 2677 C 262.556 0.380753 2.26015 0
M  V30 2678 C 263.569 -0.487485 1.5533 0
M  V30 2679 O 264.758 -0.300413 1.75954 0
M  V30 2680 C 261.858 -0.473259 3.35579 0
M  V30 2681 C 261.031 0.375249 4.35787 0
M  V30 2682 C 260.09 -0.415809 5.24555 0
M  V30 2683 O 259.116 0.175834 5.68928 0
M  V30 2684 N 260.318 -1.71607 5.54555 0
M  V30 2685 H 263.083 1.22725 2.73421 0
M  V30 2686 H 260.644 0.793037 1.41147 0
M  V30 2687 H 262.636 -1.00949 3.91907 0
M  V30 2688 H 261.206 -1.2205 2.87789 0
M  V30 2689 H 260.426 1.09279 3.7875 0
M  V30 2690 H 261.714 0.955399 4.99749 0
M  V30 2691 H 261.112 -2.2191 5.20358 0
M  V30 2692 H 259.669 -2.19887 6.1359 0
M  V30 2693 N 263.102 -1.41638 0.69111 0
M  V30 2694 C 264.348 -2.01598 0.220519 0
M  V30 2695 C 264.681 -1.54594 -1.17535 0
M  V30 2696 O 263.956 -0.755177 -1.79241 0
M  V30 2697 C 264.239 -3.59062 0.273243 0
M  V30 2698 C 264.092 -4.16203 1.70573 0
M  V30 2699 C 265.411 -4.38546 -0.369457 0
M  V30 2700 H 262.53 -0.732468 0.0816045 0
M  V30 2701 H 265.172 -1.68445 0.878986 0
M  V30 2702 H 263.322 -3.87435 -0.287411 0
M  V30 2703 H 264.994 -3.98722 2.31989 0
M  V30 2704 H 263.237 -3.71414 2.2413 0
M  V30 2705 H 263.908 -5.25358 1.69419 0
M  V30 2706 H 266.384 -4.1596 0.107977 0
M  V30 2707 H 265.26 -5.48069 -0.302002 0
M  V30 2708 H 265.521 -4.17662 -1.44951 0
M  V30 2709 N 264.58 -0.43555 -1.51462 0
M  V30 2710 C 265.827 0.131514 -2.02072 0
M  V30 2711 C 266.155 1.42868 -1.31981 0
M  V30 2712 O 265.41 1.91076 -0.422883 0
M  V30 2713 C 265.709 0.39942 -3.55161 0
M  V30 2714 C 265.375 -0.81172 -4.43533 0
M  V30 2715 C 264.037 -1.14387 -4.67407 0
M  V30 2716 C 266.389 -1.61976 -4.95392 0
M  V30 2717 C 263.717 -2.28477 -5.40384 0
M  V30 2718 C 266.069 -2.75164 -5.6962 0
M  V30 2719 C 264.733 -3.08835 -5.91758 0
M  V30 2720 H 264.003 0.0481244 -0.739436 0
M  V30 2721 H 266.65 -0.58238 -1.8243 0
M  V30 2722 H 264.955 1.19519 -3.73125 0
M  V30 2723 H 266.652 0.85157 -3.91854 0
M  V30 2724 H 263.242 -0.542898 -4.25148 0
M  V30 2725 H 267.426 -1.37637 -4.76833 0
M  V30 2726 H 262.682 -2.5488 -5.55739 0
M  V30 2727 H 266.856 -3.38147 -6.08793 0
M  V30 2728 H 264.483 -3.97353 -6.48086 0
M  V30 2729 N 266.058 1.56714 -0.166846 0
M  V30 2730 C 267.306 1.96358 0.478305 0
M  V30 2731 C 267.627 1.0537 1.6408 0
M  V30 2732 O 266.897 0.119154 1.95537 0
M  V30 2733 H 265.477 0.725065 0.179692 0
M  V30 2734 H 268.139 1.93329 -0.246985 0
M  V30 2735 H 267.235 3.00547 0.841292 0
M  V30 2736 N 267.536 -0.106894 1.57237 0
M  V30 2737 C 268.468 -1.15646 1.97885 0
M  V30 2738 C 269.481 -1.36981 0.879779 0
M  V30 2739 O 270.67 -1.35841 1.15799 0
M  V30 2740 C 267.77 -2.51425 2.27241 0
M  V30 2741 C 266.943 -2.50529 3.58545 0
M  V30 2742 C 266.002 -3.68145 3.75973 0
M  V30 2743 O 265.028 -3.51176 4.47956 0
M  V30 2744 N 266.23 -4.87177 3.15656 0
M  V30 2745 H 268.995 -0.81059 2.8853 0
M  V30 2746 H 266.556 -0.296024 1.59171 0
M  V30 2747 H 268.548 -3.28689 2.36105 0
M  V30 2748 H 267.118 -2.78147 1.42663 0
M  V30 2749 H 266.338 -1.58894 3.60758 0
M  V30 2750 H 267.626 -2.46997 4.44826 0
M  V30 2751 H 267.024 -5.03868 2.57165 0
M  V30 2752 H 265.581 -5.62075 3.30023 0
M  V30 2753 N 269.014 -1.53014 -0.377408 0
M  V30 2754 C 269.924 -1.81557 -1.48574 0
M  V30 2755 C 270.94 -0.703102 -1.59162 0
M  V30 2756 O 272.116 -0.99192 -1.75279 0
M  V30 2757 C 269.181 -1.9889 -2.83978 0
M  V30 2758 C 268.242 -3.22801 -2.83016 0
M  V30 2759 C 267.475 -3.39298 -4.11962 0
M  V30 2760 O 267.698 -2.60345 -5.0752 0
M  V30 2761 O 266.632 -4.32604 -4.18494 0
M  V30 2762 H 270.458 -2.75695 -1.27382 0
M  V30 2763 H 268.043 -1.38248 -0.566373 0
M  V30 2764 H 269.925 -2.11931 -3.6423 0
M  V30 2765 H 268.6 -1.07942 -3.05172 0
M  V30 2766 H 267.507 -3.15193 -2.01505 0
M  V30 2767 H 268.84 -4.13632 -2.66775 0
M  V30 2768 N 270.492 0.636531 -1.44174 0
M  V30 2769 C 271.739 1.39619 -1.46672 0
M  V30 2770 C 272.067 1.94257 -0.0972691 0
M  V30 2771 O 271.322 1.73768 0.900175 0
M  V30 2772 C 271.621 2.58309 -2.47005 0
M  V30 2773 C 271.287 2.21992 -3.92467 0
M  V30 2774 C 269.949 2.118 -4.32081 0
M  V30 2775 C 272.301 1.9321 -4.84065 0
M  V30 2776 C 269.629 1.71007 -5.61225 0
M  V30 2777 C 271.981 1.53911 -6.13591 0
M  V30 2778 C 270.645 1.42257 -6.52165 0
M  V30 2779 H 269.915 0.510902 -0.536712 0
M  V30 2780 H 272.562 0.722328 -1.77355 0
M  V30 2781 H 270.867 3.30903 -2.09786 0
M  V30 2782 H 272.564 3.16533 -2.46186 0
M  V30 2783 H 269.154 2.30841 -3.61124 0
M  V30 2784 H 273.338 1.99997 -4.54219 0
M  V30 2785 H 268.594 1.60583 -5.89935 0
M  V30 2786 H 272.768 1.30677 -6.8403 0
M  V30 2787 H 270.395 1.10419 -7.52138 0
M  V30 2788 N 271.97 1.30982 0.876444 0
M  V30 2789 C 272.917 1.18085 1.98304 0
M  V30 2790 C 273.887 0.0682263 1.6596 0
M  V30 2791 O 275.072 0.239937 1.89285 0
M  V30 2792 C 272.212 0.887475 3.33493 0
M  V30 2793 C 271.325 2.08281 3.78475 0
M  V30 2794 C 270.46 1.72678 5.0235 0
M  V30 2795 C 269.499 2.88657 5.39762 0
M  V30 2796 N 268.636 2.53292 6.54819 0
M  V30 2797 H 273.476 2.1275 2.08666 0
M  V30 2798 H 271.013 1.05839 1.02159 0
M  V30 2799 H 272.971 0.697961 4.1132 0
M  V30 2800 H 271.601 -0.022315 3.22792 0
M  V30 2801 H 270.653 2.3833 2.96484 0
M  V30 2802 H 271.965 2.95108 4.02135 0
M  V30 2803 H 271.119 1.50151 5.87826 0
M  V30 2804 H 269.858 0.830327 4.8058 0
M  V30 2805 H 268.863 3.1184 4.52809 0
M  V30 2806 H 270.088 3.79002 5.63502 0
M  V30 2807 H 268.034 1.66163 6.34607 0
M  V30 2808 H 267.951 3.3365 6.7839 0
M  V30 2809 H 269.219 2.34143 7.43503 0
M  V30 2810 N 273.449 -1.08991 1.13837 0
M  V30 2811 C 274.379 -2.17771 0.842507 0
M  V30 2812 C 275.36 -1.6892 -0.20001 0
M  V30 2813 O 276.545 -1.94113 -0.0579731 0
M  V30 2814 C 273.675 -3.4589 0.312644 0
M  V30 2815 C 272.629 -4.08099 1.28992 0
M  V30 2816 C 271.955 -5.31098 0.619623 0
M  V30 2817 C 273.255 -4.50077 2.65005 0
M  V30 2818 H 274.949 -2.42777 1.75213 0
M  V30 2819 H 272.495 -1.16682 0.843875 0
M  V30 2820 H 274.448 -4.21297 0.0933043 0
M  V30 2821 H 273.172 -3.20419 -0.632382 0
M  V30 2822 H 271.831 -3.34717 1.49533 0
M  V30 2823 H 271.479 -5.0191 -0.33102 0
M  V30 2824 H 271.179 -5.73674 1.27167 0
M  V30 2825 H 272.703 -6.09224 0.409669 0
M  V30 2826 H 274.117 -5.16688 2.48407 0
M  V30 2827 H 272.514 -5.03553 3.26427 0
M  V30 2828 H 273.584 -3.62257 3.22332 0
M  V30 2829 N 274.927 -0.932562 -1.27047 0
M  V30 2830 C 276.173 -0.576412 -1.94436 0
M  V30 2831 C 276.506 0.880891 -1.73072 0
M  V30 2832 O 275.781 1.62905 -1.06264 0
M  V30 2833 C 276.064 -0.909031 -3.48437 0
M  V30 2834 C 275.917 -2.42044 -3.79123 0
M  V30 2835 C 277.236 -0.418341 -4.38107 0
M  V30 2836 H 274.355 -0.210888 -0.706184 0
M  V30 2837 H 276.997 -1.16522 -1.50075 0
M  V30 2838 H 275.147 -0.407947 -3.86352 0
M  V30 2839 H 276.819 -2.99359 -3.50973 0
M  V30 2840 H 275.062 -2.86758 -3.25503 0
M  V30 2841 H 275.733 -2.6037 -4.86736 0
M  V30 2842 H 278.209 -0.847856 -4.0737 0
M  V30 2843 H 277.085 -0.679981 -5.44672 0
M  V30 2844 H 277.346 0.681642 -4.36814 0
M  V30 2845 N 276.405 1.4127 -0.698611 0
M  V30 2846 C 277.633 2.05503 -0.239992 0
M  V30 2847 C 278.048 1.52584 1.11191 0
M  V30 2848 O 277.405 0.675323 1.69545 0
M  V30 2849 C 277.456 3.60987 -0.192429 0
M  V30 2850 O 277.177 4.1195 -1.49094 0
M  V30 2851 C 278.678 4.42371 0.28681 0
M  V30 2852 H 275.898 0.661748 -0.111045 0
M  V30 2853 H 278.442 1.80987 -0.95205 0
M  V30 2854 H 276.597 3.84533 0.470472 0
M  V30 2855 H 277.011 5.06018 -1.38007 0
M  V30 2856 H 278.485 5.51344 0.26896 0
M  V30 2857 H 278.962 4.18699 1.32619 0
M  V30 2858 H 279.568 4.23897 -0.345201 0
M  V30 2859 N 277.883 0.443576 1.51229 0
M  V30 2860 C 279.294 -0.0180867 1.86691 0
M  V30 2861 C 279.645 -1.41384 1.36033 0
M  V30 2862 O 278.77 -2.04291 0.713722 0
M  V30 2863 C 279.365 -0.039597 3.38777 0
M  V30 2864 C 277.924 -0.445692 3.73752 0
M  V30 2865 C 277.071 0.357584 2.74985 0
M  V30 2866 H 280.022 0.659138 1.44364 0
M  V30 2867 H 280.043 -0.847761 3.70936 0
M  V30 2868 H 279.555 0.976382 3.75617 0
M  V30 2869 H 277.656 -1.46704 3.42503 0
M  V30 2870 H 277.769 -0.166155 4.78812 0
M  V30 2871 H 276.133 -0.184973 2.54027 0
M  V30 2872 H 276.916 1.37256 3.14668 0
M  V30 2873 N 279.361 -1.56624 0.175154 0
M  V30 2874 C 280.609 -1.96609 -0.467885 0
M  V30 2875 C 280.93 -1.06238 -1.63519 0
M  V30 2876 O 280.2 -0.129523 -1.95471 0
M  V30 2877 H 278.78 -0.726008 -0.175845 0
M  V30 2878 H 281.442 -1.93195 0.257234 0
M  V30 2879 H 280.538 -3.00989 -0.825342 0
M  V30 2880 N 280.839 0.0985539 -1.57292 0
M  V30 2881 C 282.088 0.801358 -1.85098 0
M  V30 2882 C 282.401 1.80066 -0.763902 0
M  V30 2883 O 283.607 2.55112 -0.928981 0
M  V30 2884 C 282.063 1.47599 -3.28242 0
M  V30 2885 C 281.671 0.516624 -4.45011 0
M  V30 2886 C 283.415 2.16272 -3.65276 0
M  V30 2887 C 281.322 1.19564 -5.79188 0
M  V30 2888 H 280.252 0.303022 -0.69043 0
M  V30 2889 H 282.903 0.0542623 -1.8342 0
M  V30 2890 H 281.285 2.27042 -3.2445 0
M  V30 2891 H 282.459 -0.246065 -4.60143 0
M  V30 2892 H 280.774 -0.064227 -4.1635 0
M  V30 2893 H 283.371 2.67802 -4.62803 0
M  V30 2894 H 283.714 2.95009 -2.93727 0
M  V30 2895 H 284.247 1.43693 -3.70941 0
M  V30 2896 H 280.986 0.449157 -6.53959 0
M  V30 2897 H 280.506 1.92984 -5.67906 0
M  V30 2898 H 282.185 1.7231 -6.23633 0
M  V30 2899 N 282.317 1.53212 0.369288 0
M  V30 2900 C 283.733 1.42902 0.710712 0
M  V30 2901 C 283.933 0.565135 1.93413 0
M  V30 2902 O 282.989 0.0461484 2.52458 0
M  V30 2903 C 284.302 2.86042 0.927382 0
M  V30 2904 C 285.85 2.9565 1.02762 0
M  V30 2905 C 286.325 4.39843 1.27679 0
M  V30 2906 N 287.816 4.43256 1.34457 0
M  V30 2907 C 288.551 5.51929 1.55439 0
M  V30 2908 N 288.047 6.70655 1.73762 0
M  V30 2909 N 289.84 5.39502 1.57779 0
M  V30 2910 H 281.991 2.07888 -0.435457 0
M  V30 2911 H 284.254 0.938661 -0.132739 0
M  V30 2912 H 283.96 3.51557 0.100287 0
M  V30 2913 H 283.834 3.29472 1.83653 0
M  V30 2914 H 286.221 2.30291 1.84527 0
M  V30 2915 H 286.302 2.5562 0.0959504 0
M  V30 2916 H 285.946 5.05774 0.464175 0
M  V30 2917 H 285.876 4.77443 2.22162 0
M  V30 2918 H 288.367 3.5769 1.21926 0
M  V30 2919 H 288.68 7.49248 1.89335 0
M  V30 2920 H 287.025 6.73648 1.70948 0
M  V30 2921 H 290.216 4.45713 1.43029 0
M  V30 2922 H 290.389 6.2426 1.7379 0
M  V30 2923 N 283.795 -0.628877 1.44509 0
M  V30 2924 C 285.206 -1.21054 1.42137 0
M  V30 2925 C 285.557 -1.95715 0.137881 0
M  V30 2926 O 284.682 -2.02554 -0.761645 0
M  V30 2927 C 285.277 -2.20189 2.57493 0
M  V30 2928 C 283.836 -2.73777 2.58308 0
M  V30 2929 C 282.983 -1.48813 2.33987 0
M  V30 2930 H 285.934 -0.41942 1.53057 0
M  V30 2931 H 285.955 -3.02833 2.30375 0
M  V30 2932 H 285.467 -1.6582 3.50892 0
M  V30 2933 H 283.568 -3.32142 1.68856 0
M  V30 2934 H 283.681 -3.19662 3.56865 0
M  V30 2935 H 282.045 -1.77024 1.83124 0
M  V30 2936 H 282.828 -0.963442 3.29504 0
M  V30 2937 N 285.273 -1.31445 -0.869486 0
M  V30 2938 C 286.205 -1.14955 -1.98287 0
M  V30 2939 C 287.218 -0.0885037 -1.62559 0
M  V30 2940 O 288.407 -0.336044 -1.75308 0
M  V30 2941 C 285.507 -0.734255 -3.3085 0
M  V30 2942 C 284.68 -1.88042 -3.94917 0
M  V30 2943 C 283.739 -1.4511 -5.05796 0
M  V30 2944 O 282.765 -2.16082 -5.2659 0
M  V30 2945 N 283.967 -0.338763 -5.79511 0
M  V30 2946 H 286.732 -2.10856 -2.12979 0
M  V30 2947 H 284.293 -1.23786 -1.04349 0
M  V30 2948 H 286.285 -0.42975 -4.02412 0
M  V30 2949 H 284.855 0.133158 -3.12316 0
M  V30 2950 H 284.075 -2.35222 -3.1633 0
M  V30 2951 H 285.363 -2.6481 -4.34457 0
M  V30 2952 H 284.761 0.252274 -5.65137 0
M  V30 2953 H 283.318 -0.0937925 -6.51733 0
M  V30 2954 N 286.751 1.08385 -1.14413 0
M  V30 2955 C 287.999 1.80419 -0.910679 0
M  V30 2956 C 288.32 1.86658 0.564243 0
M  V30 2957 O 287.59 1.35985 1.41014 0
M  V30 2958 H 286.17 0.668204 -0.333934 0
M  V30 2959 H 288.832 1.31037 -1.44275 0
M  V30 2960 H 287.928 2.83238 -1.31082 0
M  V30 2961 N 288.23 0.939286 1.26551 0
M  V30 2962 C 289.455 0.602008 1.98471 0
M  V30 2963 C 289.88 -0.815624 1.69497 0
M  V30 2964 O 289.238 -1.54912 0.941905 0
M  V30 2965 C 289.286 0.848407 3.50477 0
M  V30 2966 O 288.39 -0.0804009 4.12322 0
M  V30 2967 H 287.731 0.23049 0.622712 0
M  V30 2968 H 290.261 1.2617 1.61066 0
M  V30 2969 H 290.271 0.768553 4.00696 0
M  V30 2970 H 288.946 1.88171 3.70897 0
M  V30 2971 H 287.523 0.0503508 3.72866 0
M  V30 2972 N 289.708 -1.40897 0.706093 0
M  V30 2973 C 290.618 -2.3455 0.0482286 0
M  V30 2974 C 291.634 -1.56796 -0.754396 0
M  V30 2975 O 292.81 -1.89228 -0.689538 0
M  V30 2976 C 289.875 -3.35625 -0.869303 0
M  V30 2977 C 288.936 -4.29261 -0.0576994 0
M  V30 2978 C 288.169 -5.25508 -0.931531 0
M  V30 2979 O 288.392 -5.27472 -2.17092 0
M  V30 2980 O 287.326 -6.00727 -0.375587 0
M  V30 2981 H 291.152 -2.92407 0.820476 0
M  V30 2982 H 288.737 -1.4193 0.4665 0
M  V30 2983 H 290.619 -3.97635 -1.39514 0
M  V30 2984 H 289.294 -2.80196 -1.62086 0
M  V30 2985 H 288.201 -3.70566 0.512988 0
M  V30 2986 H 289.534 -4.87817 0.655426 0
M  V30 2987 N 291.186 -0.45159 -1.50991 0
M  V30 2988 C 292.149 0.341117 -2.26647 0
M  V30 2989 C 293.149 0.937422 -1.30649 0
M  V30 2990 O 294.339 0.809644 -1.54241 0
M  V30 2991 C 291.471 1.48398 -3.06905 0
M  V30 2992 H 292.664 -0.322117 -2.98165 0
M  V30 2993 H 290.217 -0.205122 -1.54948 0
M  V30 2994 H 290.952 2.18284 -2.39838 0
M  V30 2995 H 290.737 1.06241 -3.77432 0
M  V30 2996 H 292.227 2.04367 -3.64176 0
M  V30 2997 N 292.664 1.56529 -0.183458 0
M  V30 2998 C 293.912 1.96855 0.457452 0
M  V30 2999 C 294.233 1.07104 1.62953 0
M  V30 3000 O 293.503 0.139887 1.954 0
M  V30 3001 H 292.083 0.72693 0.171992 0
M  V30 3002 H 294.745 1.93056 -0.267476 0
M  V30 3003 H 293.841 3.01423 0.809368 0
M  V30 3004 N 294.142 -0.090211 1.57342 0
M  V30 3005 C 295.419 -0.824761 1.77361 0
M  V30 3006 C 295.799 -1.96698 0.76637 0
M  V30 3007 O 295.147 -2.27586 -0.204179 0
M  V30 3008 C 295.357 -1.31481 3.23286 0
M  V30 3009 C 296.705 -1.75563 3.86604 0
M  V30 3010 O 297.729 -1.41093 3.27065 0
M  V30 3011 O 296.588 -2.39317 4.91314 0
M  V30 3012 H 293.682 -0.393776 0.727234 0
M  V30 3013 H 296.228 -0.0717138 1.69548 0
M  V30 3014 H 295 -0.496671 3.88135 0
M  V30 3015 H 294.623 -2.12973 3.35751 0
M  V30 3016 N 295.62 -1.53406 -0.361157 0
M  V30 3017 C 296.552 -1.76446 -1.46286 0
M  V30 3018 C 297.565 -0.645322 -1.49464 0
M  V30 3019 O 298.754 -0.921681 -1.52864 0
M  V30 3020 C 295.854 -1.83332 -2.85031 0
M  V30 3021 C 295.027 -3.13033 -3.05498 0
M  V30 3022 C 294.086 -3.11104 -4.24383 0
M  V30 3023 O 293.112 -3.84888 -4.19344 0
M  V30 3024 N 294.314 -2.32234 -5.32022 0
M  V30 3025 H 297.079 -2.71508 -1.26899 0
M  V30 3026 H 294.64 -1.52238 -0.550915 0
M  V30 3027 H 296.632 -1.79514 -3.62708 0
M  V30 3028 H 295.202 -0.955342 -2.97644 0
M  V30 3029 H 294.422 -3.30119 -2.15442 0
M  V30 3030 H 295.71 -3.9874 -3.16044 0
M  V30 3031 H 295.108 -1.71807 -5.38979 0
M  V30 3032 H 293.665 -2.3423 -6.08259 0
M  V30 3033 N 297.098 0.621204 -1.44841 0
M  V30 3034 C 298.514 0.94048 -1.28946 0
M  V30 3035 C 298.714 2.00154 -0.23249 0
M  V30 3036 O 297.77 2.49651 0.378237 0
M  V30 3037 C 299.083 1.39433 -2.66419 0
M  V30 3038 C 300.631 1.50927 -2.74208 0
M  V30 3039 C 301.106 1.99692 -4.12174 0
M  V30 3040 N 302.597 2.06947 -4.144 0
M  V30 3041 C 303.332 2.45871 -5.1801 0
M  V30 3042 N 302.828 2.83862 -6.31977 0
M  V30 3043 N 304.621 2.46092 -5.05366 0
M  V30 3044 H 296.772 -0.0803548 -2.12248 0
M  V30 3045 H 299.035 0.0266913 -0.947624 0
M  V30 3046 H 298.741 0.688925 -3.44887 0
M  V30 3047 H 298.615 2.36347 -2.93973 0
M  V30 3048 H 301.002 2.20561 -1.96053 0
M  V30 3049 H 301.083 0.523627 -2.50383 0
M  V30 3050 H 300.727 1.30649 -4.90809 0
M  V30 3051 H 300.657 2.99146 -4.33381 0
M  V30 3052 H 303.148 1.80232 -3.32152 0
M  V30 3053 H 303.461 3.12405 -7.0684 0
M  V30 3054 H 301.806 2.8159 -6.35399 0
M  V30 3055 H 304.997 2.1581 -4.15384 0
M  V30 3056 H 305.17 2.76102 -5.86235 0
M  V30 3057 N 298.576 1.31904 0.862503 0
M  V30 3058 C 299.992 1.10724 1.14945 0
M  V30 3059 C 300.192 -0.117421 2.01158 0
M  V30 3060 O 299.248 -0.804595 2.39338 0
M  V30 3061 C 300.561 2.38267 1.83437 0
M  V30 3062 C 302.109 2.43949 1.96106 0
M  V30 3063 C 302.584 3.71394 2.68013 0
M  V30 3064 N 304.075 3.72331 2.75543 0
M  V30 3065 C 304.81 4.67641 3.31812 0
M  V30 3066 N 304.306 5.73313 3.88953 0
M  V30 3067 N 306.099 4.5515 3.29841 0
M  V30 3068 H 298.25 2.10436 0.288191 0
M  V30 3069 H 300.513 0.928705 0.190292 0
M  V30 3070 H 300.219 3.27759 1.27542 0
M  V30 3071 H 300.093 2.48633 2.83657 0
M  V30 3072 H 302.48 1.54922 2.51164 0
M  V30 3073 H 302.561 2.37543 0.949059 0
M  V30 3074 H 302.205 4.60791 2.13621 0
M  V30 3075 H 302.135 3.75069 3.69636 0
M  V30 3076 H 304.626 2.95947 2.34997 0
M  V30 3077 H 304.939 6.42107 4.30022 0
M  V30 3078 H 303.284 5.77077 3.87308 0
M  V30 3079 H 306.475 3.71766 2.84443 0
M  V30 3080 H 306.648 5.29604 3.73394 0
M  V30 3081 N 300.054 -1.07777 1.14986 0
M  V30 3082 C 301.303 -1.79669 0.916617 0
M  V30 3083 C 301.616 -1.87474 -0.557917 0
M  V30 3084 O 302.822 -2.55845 -0.908617 0
M  V30 3085 C 301.278 -3.22848 1.59051 0
M  V30 3086 C 300.886 -3.23257 3.10176 0
M  V30 3087 C 302.63 -3.99379 1.43864 0
M  V30 3088 C 300.537 -4.61063 3.70372 0
M  V30 3089 H 299.467 -0.673349 0.33929 0
M  V30 3090 H 302.118 -1.21003 1.37951 0
M  V30 3091 H 300.5 -3.8168 1.0553 0
M  V30 3092 H 301.674 -2.74095 3.70417 0
M  V30 3093 H 299.989 -2.60222 3.25074 0
M  V30 3094 H 302.586 -5.0122 1.86232 0
M  V30 3095 H 302.929 -4.14511 0.385564 0
M  V30 3096 H 303.462 -3.47032 1.94457 0
M  V30 3097 H 300.201 -4.51135 4.7556 0
M  V30 3098 H 299.721 -5.1048 3.14913 0
M  V30 3099 H 301.4 -5.30034 3.71043 0
M  V30 3100 N 301.532 -0.945985 -1.26051 0
M  V30 3101 C 302.465 -0.403619 -2.24602 0
M  V30 3102 C 303.443 0.510241 -1.54387 0
M  V30 3103 O 304.627 0.446593 -1.83133 0
M  V30 3104 C 301.754 0.419564 -3.36091 0
M  V30 3105 C 300.8 -0.433454 -4.24292 0
M  V30 3106 S 301.633 -1.86037 -5.02146 0
M  V30 3107 C 302.789 -1.04538 -6.17108 0
M  V30 3108 H 303.022 -1.23883 -2.7026 0
M  V30 3109 H 300.555 -0.749438 -1.34992 0
M  V30 3110 H 302.513 0.888595 -4.00767 0
M  V30 3111 H 301.174 1.22951 -2.89036 0
M  V30 3112 H 300.367 0.197486 -5.03613 0
M  V30 3113 H 299.969 -0.837357 -3.64506 0
M  V30 3114 H 302.261 -0.289923 -6.76879 0
M  V30 3115 H 303.204 -1.81222 -6.84518 0
M  V30 3116 H 303.612 -0.579319 -5.61519 0
M  V30 3117 N 303.011 1.40521 -0.713556 0
M  V30 3118 C 304.239 2.05237 -0.261775 0
M  V30 3119 C 304.654 1.53755 1.09567 0
M  V30 3120 O 304.011 0.693268 1.6882 0
M  V30 3121 C 304.062 3.60763 -0.230706 0
M  V30 3122 O 303.783 4.10345 -1.53455 0
M  V30 3123 C 305.284 4.42651 0.239874 0
M  V30 3124 H 302.504 0.660533 -0.118057 0
M  V30 3125 H 305.048 1.79967 -0.971192 0
M  V30 3126 H 303.203 3.8501 0.429661 0
M  V30 3127 H 303.617 5.04526 -1.43366 0
M  V30 3128 H 305.091 5.51599 0.210468 0
M  V30 3129 H 305.568 4.20082 1.28171 0
M  V30 3130 H 306.174 4.23507 -0.390142 0
M  V30 3131 N 304.489 0.459591 1.5075 0
M  V30 3132 C 305.9 0.00171547 1.867 0
M  V30 3133 C 306.251 -1.39934 1.37525 0
M  V30 3134 O 305.376 -2.03523 0.735349 0
M  V30 3135 C 305.971 -0.00366298 3.388 0
M  V30 3136 C 304.53 -0.406026 3.74204 0
M  V30 3137 C 303.677 0.38673 2.7459 0
M  V30 3138 H 306.628 0.674413 1.43657 0
M  V30 3139 H 306.649 -0.808371 3.71814 0
M  V30 3140 H 306.161 1.01617 3.74561 0
M  V30 3141 H 304.262 -1.43063 3.4404 0
M  V30 3142 H 304.375 -0.115362 4.78961 0
M  V30 3143 H 302.739 -0.158019 2.54209 0
M  V30 3144 H 303.522 1.40585 3.13194 0
M  V30 3145 N 305.967 -1.56429 0.191757 0
M  V30 3146 C 306.877 -2.22541 -0.742481 0
M  V30 3147 C 307.893 -1.22342 -1.23727 0
M  V30 3148 O 309.069 -1.55069 -1.28513 0
M  V30 3149 C 306.134 -2.8692 -1.94623 0
M  V30 3150 C 305.195 -4.02378 -1.49633 0
M  V30 3151 C 304.428 -4.63678 -2.6427 0
M  V30 3152 O 304.651 -4.23895 -3.81666 0
M  V30 3153 O 303.585 -5.53202 -2.37174 0
M  V30 3154 H 307.411 -3.02977 -0.209462 0
M  V30 3155 H 304.996 -1.49353 -0.0373832 0
M  V30 3156 H 306.878 -3.27663 -2.64982 0
M  V30 3157 H 305.553 -2.09466 -2.46791 0
M  V30 3158 H 304.46 -3.66265 -0.761636 0
M  V30 3159 H 305.793 -4.81487 -1.02134 0
M  V30 3160 N 307.445 0.0818655 -1.57387 0
M  V30 3161 C 308.377 1.12484 -1.997 0
M  V30 3162 C 309.39 1.35564 -0.90146 0
M  V30 3163 O 310.579 1.33982 -1.17945 0
M  V30 3164 C 307.679 2.47778 -2.31213 0
M  V30 3165 C 306.852 2.44793 -3.62485 0
M  V30 3166 C 305.911 3.62117 -3.81782 0
M  V30 3167 O 304.937 3.44005 -4.53486 0
M  V30 3168 N 306.139 4.82094 -3.23367 0
M  V30 3169 H 308.904 0.764585 -2.89783 0
M  V30 3170 H 306.465 0.270664 -1.59621 0
M  V30 3171 H 308.457 3.24891 -2.41304 0
M  V30 3172 H 307.027 2.75843 -1.4707 0
M  V30 3173 H 306.247 1.53134 -3.6324 0
M  V30 3174 H 307.535 2.39889 -4.48699 0
M  V30 3175 H 306.933 4.99713 -2.65148 0
M  V30 3176 H 305.49 5.56753 -3.38923 0
M  V30 3177 N 308.923 1.53595 0.353017 0
M  V30 3178 C 309.886 1.80232 1.41594 0
M  V30 3179 C 310.886 0.673081 1.46035 0
M  V30 3180 O 312.076 0.941335 1.46576 0
M  V30 3181 C 309.208 1.93578 2.80607 0
M  V30 3182 H 310.401 2.75174 1.19244 0
M  V30 3183 H 307.954 1.44864 0.586872 0
M  V30 3184 H 308.689 1.00746 3.08254 0
M  V30 3185 H 308.474 2.75724 2.78781 0
M  V30 3186 H 309.964 2.15735 3.57558 0
M  V30 3187 N 310.401 -0.613514 1.45168 0
M  V30 3188 C 311.331 -1.7354 1.56225 0
M  V30 3189 C 312.312 -1.64981 0.41414 0
M  V30 3190 O 313.497 -1.83472 0.636526 0
M  V30 3191 C 310.627 -3.12128 1.52295 0
M  V30 3192 C 309.581 -3.35491 2.65762 0
M  V30 3193 C 308.907 -4.74291 2.46885 0
M  V30 3194 C 310.207 -3.26325 4.0781 0
M  V30 3195 H 311.901 -1.64543 2.50132 0
M  V30 3196 H 309.447 -0.790185 1.20383 0
M  V30 3197 H 311.4 -3.90404 1.58628 0
M  V30 3198 H 310.124 -3.2195 0.549139 0
M  V30 3199 H 308.783 -2.59603 2.58847 0
M  V30 3200 H 308.431 -4.80839 1.47657 0
M  V30 3201 H 308.131 -4.9088 3.22972 0
M  V30 3202 H 309.655 -5.54775 2.55063 0
M  V30 3203 H 311.069 -3.94483 4.16 0
M  V30 3204 H 309.466 -3.54445 4.8424 0
M  V30 3205 H 310.536 -2.23855 4.30136 0
M  V30 3206 N 311.879 -1.3236 -0.855495 0
M  V30 3207 C 313.104 -1.2601 -1.64731 0
M  V30 3208 C 313.529 0.169068 -1.87339 0
M  V30 3209 O 312.887 1.12016 -1.42556 0
M  V30 3210 C 312.935 -2.02417 -2.98429 0
M  V30 3211 O 312.039 -1.3714 -3.8893 0
M  V30 3212 H 311.38 -0.434325 -0.502253 0
M  V30 3213 H 313.91 -1.74661 -1.06558 0
M  V30 3214 H 313.92 -2.12559 -3.48257 0
M  V30 3215 H 312.595 -3.06343 -2.81295 0
M  V30 3216 H 311.172 -1.3554 -3.47395 0
M  V30 3217 N 313.357 1.07166 -1.15556 0
M  V30 3218 C 314.32 2.12589 -0.856644 0
M  V30 3219 C 315.32 1.6015 0.14444 0
M  V30 3220 O 316.51 1.7399 -0.0854163 0
M  V30 3221 C 313.642 3.39753 -0.279405 0
M  V30 3222 H 314.835 2.40539 -1.79112 0
M  V30 3223 H 312.388 1.23086 -0.963298 0
M  V30 3224 H 313.123 3.17447 0.663174 0
M  V30 3225 H 312.908 3.79117 -1.00063 0
M  V30 3226 H 314.398 4.17507 -0.0879113 0
M  V30 3227 N 314.835 0.952656 1.25548 0
M  V30 3228 C 316.083 0.605176 1.92826 0
M  V30 3229 C 316.404 -0.860261 1.74999 0
M  V30 3230 O 315.674 -1.6125 1.11244 0
M  V30 3231 H 314.254 0.220832 0.713612 0
M  V30 3232 H 316.916 1.21047 1.52754 0
M  V30 3233 H 316.012 0.832798 3.00784 0
M  V30 3234 N 316.313 -1.40141 0.720998 0
M  V30 3235 C 317.559 -2.01084 0.263231 0
M  V30 3236 C 317.892 -1.57052 -1.14229 0
M  V30 3237 O 317.167 -0.793027 -1.77599 0
M  V30 3238 C 317.45 -3.58401 0.349344 0
M  V30 3239 C 317.303 -4.12491 1.79363 0
M  V30 3240 C 318.622 -4.39231 -0.276351 0
M  V30 3241 H 315.741 -0.730572 0.0971228 0
M  V30 3242 H 318.383 -1.66543 0.914518 0
M  V30 3243 H 316.533 -3.87958 -0.205165 0
M  V30 3244 H 318.205 -3.93711 2.40394 0
M  V30 3245 H 316.448 -3.66576 2.31958 0
M  V30 3246 H 317.119 -5.21646 1.80524 0
M  V30 3247 H 319.595 -4.15637 0.196184 0
M  V30 3248 H 318.471 -5.48586 -0.185681 0
M  V30 3249 H 318.732 -4.20643 -1.36059 0
M  V30 3250 N 317.792 -0.46758 -1.50504 0
M  V30 3251 C 319.069 0.15003 -1.95024 0
M  V30 3252 C 319.449 1.57304 -1.40779 0
M  V30 3253 O 318.797 2.20281 -0.607319 0
M  V30 3254 C 319.007 0.0969324 -3.48865 0
M  V30 3255 C 320.355 0.287565 -4.23625 0
M  V30 3256 O 321.379 0.173678 -3.55776 0
M  V30 3257 O 320.238 0.517186 -5.44047 0
M  V30 3258 H 317.332 0.113582 -0.819163 0
M  V30 3259 H 319.878 -0.52773 -1.61286 0
M  V30 3260 H 318.65 -0.896732 -3.80886 0
M  V30 3261 H 318.273 0.816303 -3.8913 0
M  V30 3262 N 319.27 1.56325 -0.20005 0
M  V30 3263 C 320.5 2.01811 0.442232 0
M  V30 3264 C 320.908 1.07932 1.55394 0
M  V30 3265 O 320.251 0.0772685 1.83537 0
M  V30 3266 C 320.313 3.43685 1.05457 0
M  V30 3267 C 319.977 4.56928 0.0809833 0
M  V30 3268 C 320.974 5.15009 -0.711471 0
M  V30 3269 C 318.659 5.0229 -0.0315364 0
M  V30 3270 C 320.653 6.16904 -1.60336 0
M  V30 3271 C 318.34 6.04028 -0.926981 0
M  V30 3272 C 319.338 6.6121 -1.71146 0
M  V30 3273 O 319.026 7.60971 -2.59189 0
M  V30 3274 H 318.758 0.666173 0.114848 0
M  V30 3275 H 321.312 2.03085 -0.307511 0
M  V30 3276 H 319.542 3.39413 1.85299 0
M  V30 3277 H 321.231 3.72948 1.60201 0
M  V30 3278 H 321.997 4.80827 -0.634873 0
M  V30 3279 H 317.876 4.57476 0.568902 0
M  V30 3280 H 321.42 6.61464 -2.21611 0
M  V30 3281 H 317.317 6.37634 -1.00468 0
M  V30 3282 H 318.085 7.7841 -2.53023 0
M  V30 3283 N 320.748 -0.0735177 1.57428 0
M  V30 3284 C 321.681 -1.11932 1.98863 0
M  V30 3285 C 322.659 -1.37666 0.865266 0
M  V30 3286 O 323.843 -1.51068 1.12742 0
M  V30 3287 C 320.97 -2.46403 2.32386 0
M  V30 3288 C 320.016 -2.36815 3.54713 0
M  V30 3289 S 320.849 -1.76392 5.05614 0
M  V30 3290 C 322.005 -3.12444 5.42337 0
M  V30 3291 H 322.238 -0.766212 2.87257 0
M  V30 3292 H 319.771 -0.281987 1.51803 0
M  V30 3293 H 321.729 -3.23755 2.52375 0
M  V30 3294 H 320.39 -2.78876 1.44524 0
M  V30 3295 H 319.583 -3.35977 3.7568 0
M  V30 3296 H 319.185 -1.67598 3.34345 0
M  V30 3297 H 321.477 -4.08753 5.40303 0
M  V30 3298 H 322.42 -2.96258 6.43146 0
M  V30 3299 H 322.828 -3.1297 4.69798 0
M  V30 3300 N 322.226 -1.5378 -0.344866 0
M  V30 3301 C 323.472 -1.71216 -1.08687 0
M  V30 3302 C 323.805 -0.473281 -1.88345 0
M  V30 3303 O 323.08 0.52968 -1.87149 0
M  V30 3304 C 323.363 -2.97486 -2.02914 0
M  V30 3305 C 323.216 -4.31579 -1.26727 0
M  V30 3306 C 324.535 -3.19422 -3.0275 0
M  V30 3307 H 321.654 -0.62301 -0.393735 0
M  V30 3308 H 324.296 -1.8645 -0.365563 0
M  V30 3309 H 322.446 -2.84629 -2.64421 0
M  V30 3310 H 324.118 -4.56284 -0.67845 0
M  V30 3311 H 322.361 -4.30049 -0.569273 0
M  V30 3312 H 323.032 -5.16106 -1.95803 0
M  V30 3313 H 325.508 -3.316 -2.51357 0
M  V30 3314 H 324.384 -4.09169 -3.65885 0
M  V30 3315 H 324.645 -2.35656 -3.74057 0
M  V30 3316 N 323.704 0.605807 -1.45491 0
M  V30 3317 C 324.953 1.36086 -1.48874 0
M  V30 3318 C 325.266 1.95131 -0.135333 0
M  V30 3319 O 326.472 2.7146 -0.0468144 0
M  V30 3320 C 324.928 2.46518 -2.62215 0
M  V30 3321 C 324.536 1.93877 -4.03876 0
M  V30 3322 C 326.28 3.23512 -2.74846 0
M  V30 3323 C 324.187 3.01801 -5.08596 0
M  V30 3324 H 323.117 0.511497 -0.553974 0
M  V30 3325 H 325.768 0.649089 -1.71636 0
M  V30 3326 H 324.15 3.20388 -2.32739 0
M  V30 3327 H 325.324 1.26704 -4.43038 0
M  V30 3328 H 323.639 1.29622 -3.95711 0
M  V30 3329 H 326.236 4.04013 -3.50253 0
M  V30 3330 H 326.579 3.74631 -1.81542 0
M  V30 3331 H 327.112 2.56742 -3.03856 0
M  V30 3332 H 323.851 2.55597 -6.03614 0
M  V30 3333 H 323.371 3.67535 -4.74002 0
M  V30 3334 H 325.05 3.66152 -5.33424 0
M  V30 3335 N 325.182 1.32811 0.848464 0
M  V30 3336 C 326.43 1.23479 1.59991 0
M  V30 3337 C 326.751 -0.201853 1.93952 0
M  V30 3338 O 326.021 -1.12818 1.60153 0
M  V30 3339 H 324.601 0.454034 0.593179 0
M  V30 3340 H 327.263 1.66412 1.01455 0
M  V30 3341 H 326.359 1.82178 2.53412 0
M  V30 3342 N 326.66 -1.06551 1.16123 0
M  V30 3343 C 328.076 -1.3142 0.905585 0
M  V30 3344 C 328.276 -1.96571 -0.442964 0
M  V30 3345 O 327.332 -2.23068 -1.18308 0
M  V30 3346 C 328.645 -2.19741 2.05267 0
M  V30 3347 C 330.193 -2.33165 2.08813 0
M  V30 3348 C 330.668 -3.24838 3.22868 0
M  V30 3349 N 332.159 -3.32421 3.22568 0
M  V30 3350 C 332.894 -4.0344 4.0746 0
M  V30 3351 N 332.39 -4.77003 5.02434 0
M  V30 3352 N 334.183 -3.99464 3.95456 0
M  V30 3353 H 326.334 -0.626548 2.02949 0
M  V30 3354 H 328.597 -0.338777 0.8854 0
M  V30 3355 H 328.303 -1.79142 3.02657 0
M  V30 3356 H 328.177 -3.20313 1.99198 0
M  V30 3357 H 330.564 -2.73013 1.12018 0
M  V30 3358 H 330.645 -1.3227 2.18948 0
M  V30 3359 H 330.289 -2.85708 4.19921 0
M  V30 3360 H 330.219 -4.25707 3.0997 0
M  V30 3361 H 332.71 -2.79994 2.53795 0
M  V30 3362 H 333.023 -5.28712 5.63634 0
M  V30 3363 H 331.368 -4.75992 5.06415 0
M  V30 3364 H 334.559 -3.4111 3.20564 0
M  V30 3365 H 334.732 -4.54544 4.61837 0
M  V30 3366 N 328.138 -0.959301 -1.25041 0
M  V30 3367 C 329.549 -0.65667 -1.74771 0
M  V30 3368 C 329.9 0.827852 -1.77879 0
M  V30 3369 O 329.025 1.64783 -1.40269 0
M  V30 3370 C 329.62 -1.1853 -3.1739 0
M  V30 3371 C 328.179 -0.932734 -3.6466 0
M  V30 3372 C 327.326 -1.32558 -2.43564 0
M  V30 3373 H 330.277 -1.13558 -1.10862 0
M  V30 3374 H 330.298 -0.547582 -3.76539 0
M  V30 3375 H 329.81 -2.26576 -3.15095 0
M  V30 3376 H 327.911 0.13257 -3.72364 0
M  V30 3377 H 328.024 -1.57248 -4.52559 0
M  V30 3378 H 326.388 -0.743956 -2.43593 0
M  V30 3379 H 327.171 -2.41537 -2.43957 0
M  V30 3380 N 329.616 1.39756 -0.72842 0
M  V30 3381 C 330.862 2.00942 -0.273892 0
M  V30 3382 C 331.195 1.57656 1.13394 0
M  V30 3383 O 330.47 0.802434 1.77176 0
M  V30 3384 C 330.753 3.58211 -0.368346 0
M  V30 3385 C 330.606 4.11534 -1.81548 0
M  V30 3386 C 331.925 4.39372 0.253054 0
M  V30 3387 H 329.044 0.730047 -0.100996 0
M  V30 3388 H 331.686 1.66056 -0.923337 0
M  V30 3389 H 329.836 3.88061 0.184588 0
M  V30 3390 H 331.508 3.92431 -2.42478 0
M  V30 3391 H 329.751 3.65341 -2.33898 0
M  V30 3392 H 330.422 5.20682 -1.83288 0
M  V30 3393 H 332.898 4.15527 -0.218224 0
M  V30 3394 H 331.774 5.48677 0.156585 0
M  V30 3395 H 332.035 4.21358 1.33826 0
M  V30 3396 N 331.094 0.475555 1.50254 0
M  V30 3397 C 332.322 -0.0754493 2.06762 0
M  V30 3398 C 332.737 -1.33111 1.33891 0
M  V30 3399 O 332.094 -1.77846 0.40952 0
M  V30 3400 C 332.145 -0.359008 3.59713 0
M  V30 3401 O 331.866 0.846851 4.29837 0
M  V30 3402 C 333.367 -0.956484 4.32858 0
M  V30 3403 H 330.587 0.00907525 0.670939 0
M  V30 3404 H 333.131 0.665618 1.93364 0
M  V30 3405 H 331.286 -1.05001 3.72899 0
M  V30 3406 H 331.7 0.594162 5.21124 0
M  V30 3407 H 333.174 -1.10463 5.40834 0
M  V30 3408 H 333.651 -1.94775 3.93649 0
M  V30 3409 H 334.257 -0.303723 4.24214 0
M  V30 3410 N 332.573 -1.56217 0.208337 0
M  V30 3411 C 333.505 -2.1695 -0.739276 0
M  V30 3412 C 334.518 -1.13492 -1.1672 0
M  V30 3413 O 335.707 -1.40529 -1.10063 0
M  V30 3414 C 332.807 -2.72755 -2.01142 0
M  V30 3415 C 331.98 -4.0125 -1.74118 0
M  V30 3416 C 331.039 -4.41749 -2.85909 0
M  V30 3417 O 330.065 -5.08912 -2.54946 0
M  V30 3418 N 331.267 -4.06342 -4.14568 0
M  V30 3419 H 334.032 -2.98893 -0.219837 0
M  V30 3420 H 331.593 -1.61878 0.0268445 0
M  V30 3421 H 333.585 -2.96826 -2.75094 0
M  V30 3422 H 332.155 -1.95191 -2.4417 0
M  V30 3423 H 331.375 -3.85173 -0.838775 0
M  V30 3424 H 332.663 -4.851 -1.53477 0
M  V30 3425 H 332.061 -3.52345 -4.42571 0
M  V30 3426 H 330.618 -4.35335 -4.85105 0
M  V30 3427 N 334.051 0.0651679 -1.57465 0
M  V30 3428 C 335.276 0.779605 -1.9219 0
M  V30 3429 C 335.701 1.69988 -0.805333 0
M  V30 3430 O 335.059 1.79685 0.241435 0
M  V30 3431 C 335.107 1.54364 -3.2589 0
M  V30 3432 O 334.211 2.65474 -3.1559 0
M  V30 3433 H 333.552 0.212249 -0.629163 0
M  V30 3434 H 336.082 0.0314294 -2.04576 0
M  V30 3435 H 336.092 1.92146 -3.59922 0
M  V30 3436 H 334.767 0.868457 -4.06732 0
M  V30 3437 H 333.344 2.30501 -2.93128 0
M  V30 3438 N 335.529 1.53961 0.336706 0
M  V30 3439 C 336.775 1.7179 1.07777 0
M  V30 3440 C 337.108 0.483263 1.88091 0
M  V30 3441 O 336.383 -0.519747 1.87427 0
M  V30 3442 C 336.666 2.98558 2.01334 0
M  V30 3443 C 336.519 4.32245 1.24437 0
M  V30 3444 C 337.838 3.21023 3.01052 0
M  V30 3445 H 334.957 0.625089 0.390426 0
M  V30 3446 H 337.599 1.86641 0.35567 0
M  V30 3447 H 335.749 2.86028 2.62908 0
M  V30 3448 H 337.421 4.56637 0.654243 0
M  V30 3449 H 335.664 4.30344 0.546458 0
M  V30 3450 H 336.335 5.17137 1.93063 0
M  V30 3451 H 338.811 3.32929 2.49595 0
M  V30 3452 H 337.687 4.11104 3.6371 0
M  V30 3453 H 337.948 2.37637 3.72802 0
M  V30 3454 N 337.007 -0.598083 1.45811 0
M  V30 3455 C 338.284 -1.35777 1.40797 0
M  V30 3456 C 338.664 -2.10935 0.083462 0
M  V30 3457 O 338.012 -2.08505 -0.934763 0
M  V30 3458 C 338.222 -2.29666 2.62783 0
M  V30 3459 C 339.57 -2.91977 3.08277 0
M  V30 3460 O 340.594 -2.39984 2.63223 0
M  V30 3461 O 339.453 -3.86376 3.86491 0
M  V30 3462 H 336.547 -0.609291 0.55919 0
M  V30 3463 H 339.093 -0.620379 1.57954 0
M  V30 3464 H 337.865 -1.73454 3.50756 0
M  V30 3465 H 337.488 -3.1077 2.48008 0
M  V30 3466 N 338.485 -1.33259 -0.841409 0
M  V30 3467 C 339.896 -1.22066 -1.41269 0
M  V30 3468 C 340.247 0.161479 -1.95534 0
M  V30 3469 O 339.372 1.06094 -1.88608 0
M  V30 3470 C 339.967 -2.20996 -2.568 0
M  V30 3471 C 338.526 -2.13649 -3.09888 0
M  V30 3472 C 337.673 -2.08623 -1.82679 0
M  V30 3473 H 340.624 -1.44895 -0.647395 0
M  V30 3474 H 340.645 -1.81621 -3.34356 0
M  V30 3475 H 340.157 -3.2158 -2.17274 0
M  V30 3476 H 338.258 -1.16359 -3.53965 0
M  V30 3477 H 338.371 -3.04079 -3.70234 0
M  V30 3478 H 336.735 -1.54061 -2.02824 0
M  V30 3479 H 337.518 -3.1101 -1.45353 0
M  V30 3480 N 339.963 1.05934 -1.16686 0
M  V30 3481 C 340.926 2.11669 -0.879144 0
M  V30 3482 C 341.926 1.60294 0.127445 0
M  V30 3483 O 343.116 1.7389 -0.103865 0
M  V30 3484 C 340.248 3.39438 -0.315425 0
M  V30 3485 H 341.441 2.38626 -1.81653 0
M  V30 3486 H 338.994 1.22058 -0.976299 0
M  V30 3487 H 339.729 3.18132 0.629468 0
M  V30 3488 H 339.514 3.78034 -1.04079 0
M  V30 3489 H 341.004 4.17391 -0.132189 0
M  V30 3490 N 341.441 0.965919 1.2453 0
M  V30 3491 C 342.373 0.452465 2.2469 0
M  V30 3492 C 343.386 -0.437821 1.56802 0
M  V30 3493 O 344.575 -0.244283 1.76821 0
M  V30 3494 C 341.675 -0.366258 3.36915 0
M  V30 3495 C 340.848 0.513701 4.34373 0
M  V30 3496 C 339.907 -0.248716 5.25612 0
M  V30 3497 O 338.933 0.356745 5.68081 0
M  V30 3498 N 340.135 -1.53877 5.59734 0
M  V30 3499 H 342.9 1.31361 2.69378 0
M  V30 3500 H 340.461 0.837541 1.38553 0
M  V30 3501 H 342.453 -0.884297 3.94921 0
M  V30 3502 H 341.023 -1.12832 2.91526 0
M  V30 3503 H 340.243 1.21273 3.75082 0
M  V30 3504 H 341.531 1.11391 4.96457 0
M  V30 3505 H 340.929 -2.05243 5.27154 0
M  V30 3506 H 339.486 -2.00254 6.20275 0
M  V30 3507 N 342.919 -1.39368 0.735821 0
M  V30 3508 C 344.147 -2.04795 0.294393 0
M  V30 3509 C 344.562 -1.55478 -1.07107 0
M  V30 3510 O 343.919 -0.720038 -1.67695 0
M  V30 3511 C 343.97 -3.6035 0.288071 0
M  V30 3512 O 343.691 -4.07852 1.59963 0
M  V30 3513 C 345.192 -4.42976 -0.169422 0
M  V30 3514 H 342.412 -0.658571 0.128551 0
M  V30 3515 H 344.956 -1.78399 0.999701 0
M  V30 3516 H 343.111 -3.85645 -0.368355 0
M  V30 3517 H 343.525 -5.02181 1.51375 0
M  V30 3518 H 344.999 -5.51864 -0.122687 0
M  V30 3519 H 345.476 -4.22068 -1.21472 0
M  V30 3520 H 346.082 -4.22832 0.457469 0
M  V30 3521 N 344.397 -0.483516 -1.5 0
M  V30 3522 C 345.327 0.293829 -2.31644 0
M  V30 3523 C 346.308 0.978864 -1.39112 0
M  V30 3524 O 347.493 0.973644 -1.68029 0
M  V30 3525 C 344.623 1.36897 -3.19181 0
M  V30 3526 C 343.577 0.804833 -4.20365 0
M  V30 3527 C 342.903 1.9792 -4.96721 0
M  V30 3528 C 344.203 -0.192313 -5.21946 0
M  V30 3529 H 345.897 -0.387616 -2.9688 0
M  V30 3530 H 343.443 -0.187856 -1.42769 0
M  V30 3531 H 345.396 1.92037 -3.751 0
M  V30 3532 H 344.12 2.07936 -2.51853 0
M  V30 3533 H 342.779 0.275319 -3.65565 0
M  V30 3534 H 342.427 2.67686 -4.25856 0
M  V30 3535 H 342.127 1.60789 -5.65173 0
M  V30 3536 H 343.651 2.53526 -5.55479 0
M  V30 3537 H 345.065 0.270333 -5.72662 0
M  V30 3538 H 343.462 -0.478543 -5.98189 0
M  V30 3539 H 344.532 -1.11409 -4.71928 0
M  V30 3540 N 345.875 1.56104 -0.216619 0
M  V30 3541 C 346.822 2.2007 0.695531 0
M  V30 3542 C 347.792 1.15471 1.19397 0
M  V30 3543 O 348.977 1.43807 1.25396 0
M  V30 3544 C 346.117 2.88073 1.90021 0
M  V30 3545 C 345.23 4.07253 1.44113 0
M  V30 3546 C 344.365 4.63052 2.603 0
M  V30 3547 C 343.404 5.74545 2.11103 0
M  V30 3548 N 342.541 6.24656 3.20545 0
M  V30 3549 H 347.381 2.97655 0.143327 0
M  V30 3550 H 344.918 1.46982 0.0589934 0
M  V30 3551 H 346.876 3.25681 2.60745 0
M  V30 3552 H 345.506 2.13015 2.42538 0
M  V30 3553 H 344.558 3.75164 0.628999 0
M  V30 3554 H 345.87 4.8783 1.04036 0
M  V30 3555 H 345.024 5.03078 3.39113 0
M  V30 3556 H 343.763 3.81628 3.03663 0
M  V30 3557 H 342.768 5.34027 1.3075 0
M  V30 3558 H 343.993 6.57801 1.68746 0
M  V30 3559 H 341.939 5.46148 3.63399 0
M  V30 3560 H 341.856 7.00343 2.84704 0
M  V30 3561 H 343.124 6.69338 3.99508 0
M  V30 3562 N 347.353 -0.0568162 1.57498 0
M  V30 3563 C 348.316 -1.05038 2.03715 0
M  V30 3564 C 349.316 -1.30709 0.936577 0
M  V30 3565 O 350.506 -1.26178 1.20103 0
M  V30 3566 C 347.638 -2.39034 2.43055 0
M  V30 3567 H 348.831 -0.651715 2.92733 0
M  V30 3568 H 346.384 -0.302947 1.53336 0
M  V30 3569 H 347.119 -2.83703 1.57108 0
M  V30 3570 H 346.904 -2.21739 3.2338 0
M  V30 3571 H 348.394 -3.10421 2.79336 0
M  V30 3572 N 348.832 -1.54138 -0.328536 0
M  V30 3573 C 350.081 -1.71318 -1.06456 0
M  V30 3574 C 350.394 -0.491109 -1.89334 0
M  V30 3575 O 351.6 -0.54416 -2.65991 0
M  V30 3576 C 350.056 -3.03 -1.94214 0
M  V30 3577 C 349.664 -4.32595 -1.16471 0
M  V30 3578 C 351.408 -3.29544 -2.67583 0
M  V30 3579 C 349.315 -5.55341 -2.03347 0
M  V30 3580 H 348.245 -0.638429 -0.401155 0
M  V30 3581 H 350.896 -1.80633 -0.323106 0
M  V30 3582 H 349.278 -2.87579 -2.72239 0
M  V30 3583 H 350.452 -4.58766 -0.432525 0
M  V30 3584 H 348.767 -4.12777 -0.548063 0
M  V30 3585 H 351.364 -4.18444 -3.3288 0
M  V30 3586 H 351.707 -2.47206 -3.34955 0
M  V30 3587 H 352.24 -3.45809 -1.96623 0
M  V30 3588 H 348.979 -6.40268 -1.40491 0
M  V30 3589 H 348.499 -5.33397 -2.74313 0
M  V30 3590 H 350.178 -5.91557 -2.62049 0
M  V30 3591 N 350.31 0.590341 -1.46126 0
M  V30 3592 C 351.258 1.72105 -1.5647 0
M  V30 3593 C 352.252 1.63756 -0.433612 0
M  V30 3594 O 353.458 1.69342 -0.610194 0
M  V30 3595 H 349.833 0.568889 -0.491802 0
M  V30 3596 H 351.804 1.6051 -2.51553 0
M  V30 3597 C 350.553 3.10493 -1.56491 0
M  V30 3598 H 349.876 3.17583 -2.4286 0
M  V30 3599 H 351.316 3.8939 -1.67785 0
M  V30 3600 C 349.775 3.3563 -0.292231 0
M  V30 3601 O 350.305 3.96875 0.620739 0
M  V30 3602 N 348.511 2.90026 -0.182523 0
M  V30 3603 H 348.058 2.40367 -0.926356 0
M  V30 3604 H 348.016 3.07218 0.668152 0
M  V30 3605 N 351.788 1.33704 0.83433 0
M  V30 3606 C 352.751 1.24244 1.92603 0
M  V30 3607 C 353.751 0.160383 1.59998 0
M  V30 3608 O 354.941 0.412228 1.69252 0
M  V30 3609 C 352.073 0.91555 3.28376 0
M  V30 3610 H 353.266 2.21287 2.02416 0
M  V30 3611 H 350.819 1.17827 1.02696 0
M  V30 3612 H 351.554 -0.0521886 3.24258 0
M  V30 3613 H 351.339 1.69811 3.53422 0
M  V30 3614 H 352.829 0.874231 4.08347 0
M  V30 3615 N 353.266 -1.05314 1.17247 0
M  V30 3616 C 354.491 -1.82509 0.985148 0
M  V30 3617 C 354.916 -1.82343 -0.461788 0
M  V30 3618 O 354.274 -1.23151 -1.33055 0
M  V30 3619 C 354.322 -3.26566 1.52929 0
M  V30 3620 O 353.426 -4.05666 0.742225 0
M  V30 3621 H 352.767 -0.564347 0.349869 0
M  V30 3622 H 355.297 -1.32718 1.55715 0
M  V30 3623 H 355.307 -3.77369 1.55103 0
M  V30 3624 H 353.982 -3.26001 2.58256 0
M  V30 3625 H 352.559 -3.64397 0.791794 0
M  V30 3626 N 354.744 -0.972509 -1.24016 0
M  V30 3627 C 355.674 -0.525548 -2.27509 0
M  V30 3628 C 356.655 0.437262 -1.64384 0
M  V30 3629 O 357.84 0.332343 -1.91335 0
M  V30 3630 C 354.97 0.180448 -3.46831 0
M  V30 3631 C 353.924 -0.698859 -4.22256 0
M  V30 3632 C 353.25 0.138903 -5.3452 0
M  V30 3633 C 354.55 -1.98582 -4.83076 0
M  V30 3634 H 356.244 -1.39058 -2.65148 0
M  V30 3635 H 353.79 -0.67009 -1.27459 0
M  V30 3636 H 355.743 0.504387 -4.18371 0
M  V30 3637 H 354.467 1.07987 -3.08231 0
M  V30 3638 H 353.126 -1.00614 -3.52523 0
M  V30 3639 H 352.774 1.03862 -4.9216 0
M  V30 3640 H 352.474 -0.446259 -5.85903 0
M  V30 3641 H 353.998 0.457404 -6.08884 0
M  V30 3642 H 355.412 -1.72715 -5.46665 0
M  V30 3643 H 353.809 -2.5181 -5.44713 0
M  V30 3644 H 354.879 -2.67769 -4.04262 0
M  V30 3645 N 356.222 1.38976 -0.743202 0
M  V30 3646 C 357.154 2.29096 -0.0689228 0
M  V30 3647 C 358.167 1.47229 0.694791 0
M  V30 3648 O 359.356 1.70212 0.537597 0
M  V30 3649 C 356.456 3.25988 0.926548 0
M  V30 3650 C 355.629 4.36833 0.222647 0
M  V30 3651 C 354.688 5.13981 1.12739 0
M  V30 3652 O 353.714 5.6601 0.601795 0
M  V30 3653 N 354.916 5.25966 2.45641 0
M  V30 3654 H 357.681 2.87604 -0.842846 0
M  V30 3655 H 355.242 1.50645 -0.593109 0
M  V30 3656 H 357.234 3.74476 1.5346 0
M  V30 3657 H 355.804 2.68453 1.60162 0
M  V30 3658 H 355.024 3.90116 -0.565983 0
M  V30 3659 H 356.312 5.0811 -0.264841 0
M  V30 3660 H 355.71 4.85228 2.9081 0
M  V30 3661 H 354.267 5.77865 3.01522 0
M  V30 3662 N 357.7 0.491464 1.49741 0
M  V30 3663 C 359.116 0.146835 1.58923 0
M  V30 3664 C 359.316 -1.34804 1.49767 0
M  V30 3665 O 358.372 -2.12317 1.36667 0
M  V30 3666 C 359.685 0.715157 2.92072 0
M  V30 3667 C 361.233 0.680407 3.05515 0
M  V30 3668 C 361.708 1.22663 4.41269 0
M  V30 3669 N 363.199 1.18691 4.47735 0
M  V30 3670 C 363.934 1.57984 5.51207 0
M  V30 3671 N 363.43 2.04824 6.6183 0
M  V30 3672 N 365.223 1.49459 5.41866 0
M  V30 3673 H 357.374 1.46347 1.53936 0
M  V30 3674 H 359.637 0.606453 0.728642 0
M  V30 3675 H 359.343 1.76317 3.04311 0
M  V30 3676 H 359.217 0.17018 3.76816 0
M  V30 3677 H 361.604 -0.358743 2.92911 0
M  V30 3678 H 361.685 1.26242 2.22478 0
M  V30 3679 H 361.329 2.26451 4.54623 0
M  V30 3680 H 361.259 0.620637 5.2293 0
M  V30 3681 H 363.75 0.843605 3.68364 0
M  V30 3682 H 364.063 2.32901 7.3687 0
M  V30 3683 H 362.408 2.08791 6.62896 0
M  V30 3684 H 365.599 1.12692 4.54333 0
M  V30 3685 H 365.772 1.80406 6.22381 0
M  V30 3686 N 359.178 -1.55987 0.224894 0
M  V30 3687 C 360.403 -2.03232 -0.41369 0
M  V30 3688 C 360.828 -1.10359 -1.52323 0
M  V30 3689 O 360.186 -0.092395 -1.81064 0
M  V30 3690 C 360.234 -3.48682 -0.919405 0
M  V30 3691 O 359.338 -3.58947 -2.03054 0
M  V30 3692 H 358.679 -0.657428 -0.0931903 0
M  V30 3693 H 361.209 -2.01679 0.34451 0
M  V30 3694 H 361.219 -3.8907 -1.22835 0
M  V30 3695 H 359.894 -4.15761 -0.107339 0
M  V30 3696 H 358.471 -3.30448 -1.72796 0
M  V30 3697 N 360.656 0.0484629 -1.57525 0
M  V30 3698 C 361.619 1.03956 -2.04269 0
M  V30 3699 C 362.619 1.30211 -0.943496 0
M  V30 3700 O 363.809 1.25539 -1.20771 0
M  V30 3701 C 360.941 2.37742 -2.44319 0
M  V30 3702 H 362.134 0.636182 -2.93075 0
M  V30 3703 H 359.687 0.294811 -1.53494 0
M  V30 3704 H 360.422 2.82866 -1.5861 0
M  V30 3705 H 360.207 2.20021 -3.24551 0
M  V30 3706 H 361.697 3.08936 -2.80978 0
M  V30 3707 O 362.173 1.60359 0.191666 0
M  V30 3708 H 362.864 1.75005 0.830227 0
M  V30 END ATOM
M  V30 BEGIN BOND
M  V30 END BOND
M  V30 END CTAB
M  END
$$$$
