drugbank_target|Q8IVA8 Glutamate decarboxylase 1 (Brain, 67kDa) (DB00114)
 OpenBabel12092120063D

  0  0  0     0  0            999 V3000
M  V30 BEGIN CTAB
M  V30 COUNTS 9362 9464 0 0 0
M  V30 BEGIN ATOM
M  V30 1 H -0.908 1.98254 -0.117106 0
M  V30 2 N 0 1.576 0 0
M  V30 3 C 0.933 2.03868 1.02534 0
M  V30 4 C 1.911 0.928543 1.3348 0
M  V30 5 O 3.095 1.19667 1.45644 0
M  V30 6 C 0.222 2.43627 2.35294 0
M  V30 7 C -0.732 3.65373 2.2001 0
M  V30 8 S 0.101 5.13292 1.52614 0
M  V30 9 C 1.257 5.56322 2.86805 0
M  V30 10 H 1.49 2.90518 0.631377 0
M  V30 11 H -0.977 1.52953 0.210867 0
M  V30 12 H 0.981 2.67203 3.11629 0
M  V30 13 H -0.358 1.57376 2.7183 0
M  V30 14 H -1.165 3.90944 3.18086 0
M  V30 15 H -1.563 3.418 1.51819 0
M  V30 16 H 0.729 5.58782 3.83104 0
M  V30 17 H 1.672 6.56266 2.65933 0
M  V30 18 H 2.08 4.83886 2.90714 0
M  V30 19 N 1.4781 -0.272755 1.55222 0
M  V30 20 C 2.4411 -1.32041 1.87344 0
M  V30 21 C 3.4411 -1.42342 0.74803 0
M  V30 22 O 4.6311 -1.41488 1.0162 0
M  V30 23 C 1.7631 -2.70173 2.07893 0
M  V30 24 H 2.9561 -1.04789 2.80997 0
M  V30 25 H 0.5091 -0.51083 1.47717 0
M  V30 26 H 1.2441 -3.02605 1.16622 0
M  V30 27 H 1.0291 -2.64082 2.89833 0
M  V30 28 H 2.5191 -3.45869 2.34017 0
M  V30 29 N 2.9562 -1.48159 -0.537278 0
M  V30 30 C 4.1812 -1.59707 -1.32319 0
M  V30 31 C 4.6062 -0.254859 -1.86365 0
M  V30 32 O 3.9642 0.772378 -1.64024 0
M  V30 33 C 4.0122 -2.6412 -2.45505 0
M  V30 34 O 3.1162 -2.20774 -3.48328 0
M  V30 35 H 2.4572 -0.535791 -0.392204 0
M  V30 36 H 4.9872 -1.94092 -0.647268 0
M  V30 37 H 4.9972 -2.85166 -2.91795 0
M  V30 38 H 3.6722 -3.61567 -2.05528 0
M  V30 39 H 2.2492 -2.09911 -3.08207 0
M  V30 40 N 4.4343 0.785586 -1.36625 0
M  V30 41 C 5.6593 1.57963 -1.34397 0
M  V30 42 C 6.0843 1.87964 0.071526 0
M  V30 43 O 5.4423 1.48182 1.0446 0
M  V30 44 C 5.4903 2.87511 -2.17646 0
M  V30 45 O 4.5943 3.81281 -1.57158 0
M  V30 46 H 3.9353 0.479014 -0.459828 0
M  V30 47 H 6.4653 0.973411 -1.79961 0
M  V30 48 H 6.4753 3.36745 -2.30362 0
M  V30 49 H 5.1503 2.65002 -3.20541 0
M  V30 50 H 3.7273 3.39885 -1.53403 0
M  V30 51 N 5.9124 1.20967 1.01018 0
M  V30 52 C 7.1404 1.04956 1.78303 0
M  V30 53 C 7.5554 -0.400915 1.84494 0
M  V30 54 O 6.9124 -1.27826 1.30257 0
M  V30 55 C 6.9634 1.63403 3.22462 0
M  V30 56 O 6.6844 3.02775 3.16637 0
M  V30 57 C 8.1854 1.52432 4.16268 0
M  V30 58 H 5.4054 0.368858 0.560522 0
M  V30 59 H 7.9494 1.60193 1.27116 0
M  V30 60 H 6.1044 1.1227 3.70775 0
M  V30 61 H 6.5184 3.30626 4.07169 0
M  V30 62 H 7.9924 1.98078 5.15237 0
M  V30 63 H 8.4694 0.477875 4.36592 0
M  V30 64 H 9.0754 2.02787 3.73841 0
M  V30 65 N 7.3905 -1.2043 1.01659 0
M  V30 66 C 8.8015 -1.71517 0.737482 0
M  V30 67 C 9.1525 -1.81547 -0.743973 0
M  V30 68 O 8.2775 -1.47803 -1.58061 0
M  V30 69 C 8.8725 -3.11515 1.33206 0
M  V30 70 C 7.4315 -3.59912 1.10183 0
M  V30 71 C 6.5785 -2.37116 1.43776 0
M  V30 72 H 9.5295 -1.05444 1.18606 0
M  V30 73 H 9.5505 -3.73575 0.722636 0
M  V30 74 H 9.0625 -3.04182 2.41028 0
M  V30 75 H 7.1635 -3.72577 0.0412756 0
M  V30 76 H 7.2765 -4.44731 1.78188 0
M  V30 77 H 5.6405 -2.39857 0.856778 0
M  V30 78 H 6.4235 -2.32424 2.52654 0
M  V30 79 N 8.8686 -0.792821 -1.36206 0
M  V30 80 C 10.0936 -0.377701 -2.03932 0
M  V30 81 C 10.5186 0.998947 -1.59382 0
M  V30 82 O 9.8766 1.64421 -0.763903 0
M  V30 83 C 9.9246 -0.453635 -3.57735 0
M  V30 84 O 9.0286 0.538151 -4.08874 0
M  V30 85 H 8.3696 -0.159855 -0.644471 0
M  V30 86 H 10.8996 -1.07488 -1.7409 0
M  V30 87 H 10.9096 -0.318464 -4.06755 0
M  V30 88 H 9.5846 -1.45784 -3.89512 0
M  V30 89 H 8.1616 0.364359 -3.71116 0
M  V30 90 N 10.3467 1.47872 -0.545128 0
M  V30 91 C 11.5717 2.07391 -0.0190611 0
M  V30 92 C 11.9967 1.39688 1.25971 0
M  V30 93 O 11.3547 0.467816 1.7516 0
M  V30 94 C 11.4027 3.60188 0.172335 0
M  V30 95 O 10.5067 3.9339 1.23766 0
M  V30 96 H 9.8477 0.662411 -0.0459059 0
M  V30 97 H 12.3777 1.90066 -0.757365 0
M  V30 98 H 12.3877 4.06129 0.390305 0
M  V30 99 H 11.0627 4.08865 -0.761725 0
M  V30 100 H 9.6397 3.5921 1.00114 0
M  V30 101 N 11.8248 0.280983 1.55075 0
M  V30 102 C 13.0498 -0.340154 2.04592 0
M  V30 103 C 13.4748 -1.48246 1.15779 0
M  V30 104 O 12.8328 -1.80614 0.15761 0
M  V30 105 C 12.8808 -0.793104 3.5177 0
M  V30 106 O 11.9848 -1.89981 3.66034 0
M  V30 107 H 11.3258 -0.0694289 0.66036 0
M  V30 108 H 13.8558 0.416993 2.00306 0
M  V30 109 H 13.8658 -1.08729 3.93245 0
M  V30 110 H 12.5408 0.0426163 4.15878 0
M  V30 111 H 11.1178 -1.60771 3.36463 0
M  V30 112 N 13.3029 -1.57598 0.00835791 0
M  V30 113 C 14.2659 -2.07884 -0.965242 0
M  V30 114 C 15.2659 -0.989825 -1.26725 0
M  V30 115 O 16.4559 -1.25218 -1.21104 0
M  V30 116 C 13.5879 -2.52731 -2.28779 0
M  V30 117 H 14.7809 -2.95178 -0.530112 0
M  V30 118 H 12.3339 -1.54458 -0.239283 0
M  V30 119 H 13.0689 -1.68705 -2.76964 0
M  V30 120 H 12.8539 -3.32272 -2.08177 0
M  V30 121 H 14.3439 -2.91933 -2.98605 0
M  V30 122 N 14.781 0.264519 -1.55364 0
M  V30 123 C 16.009 1.013 -1.80405 0
M  V30 124 C 16.424 1.79618 -0.581622 0
M  V30 125 O 15.781 1.76879 0.449468 0
M  V30 126 C 15.832 1.96487 -3.03439 0
M  V30 127 O 15.553 1.21341 -4.20961 0
M  V30 128 C 17.054 2.83079 -3.41147 0
M  V30 129 H 14.274 0.298875 -0.600762 0
M  V30 130 H 16.818 0.292736 -2.02394 0
M  V30 131 H 14.973 2.63965 -2.83551 0
M  V30 132 H 15.387 1.85573 -4.90574 0
M  V30 133 H 16.861 3.4565 -4.30384 0
M  V30 134 H 17.338 3.53286 -2.60932 0
M  V30 135 H 17.944 2.2108 -3.63323 0
M  V30 136 N 16.2591 1.48442 0.529413 0
M  V30 137 C 17.4841 1.60406 1.31471 0
M  V30 138 C 17.9091 0.264738 1.86228 0
M  V30 139 O 17.2671 -0.763668 1.64432 0
M  V30 140 C 17.3151 2.65419 2.44101 0
M  V30 141 O 16.4191 2.22618 3.47153 0
M  V30 142 H 15.7601 0.537863 0.389357 0
M  V30 143 H 18.2901 1.94432 0.636965 0
M  V30 144 H 18.3001 2.86709 2.90279 0
M  V30 145 H 16.9751 3.62652 2.03608 0
M  V30 146 H 15.5521 2.11543 3.0709 0
M  V30 147 N 17.7372 -0.778329 1.37039 0
M  V30 148 C 18.9622 -1.57248 1.35233 0
M  V30 149 C 19.3872 -1.87999 -0.0615568 0
M  V30 150 O 18.7452 -1.48734 -1.03672 0
M  V30 151 C 18.7932 -2.86353 2.19167 0
M  V30 152 O 17.8972 -3.80442 1.59178 0
M  V30 153 H 17.2382 -0.476569 0.462362 0
M  V30 154 H 19.7682 -0.963853 1.80474 0
M  V30 155 H 19.7782 -3.35519 2.32145 0
M  V30 156 H 18.4532 -2.63299 3.21942 0
M  V30 157 H 17.0302 -3.39067 1.55203 0
M  V30 158 N 19.2153 -1.21501 -1.00376 0
M  V30 159 C 20.1633 -0.972442 -2.11297 0
M  V30 160 C 21.1573 0.080731 -1.69208 0
M  V30 161 O 22.3633 -0.0707666 -1.79861 0
M  V30 162 H 18.7383 -0.297218 -0.690772 0
M  V30 163 H 20.7093 -1.91394 -2.28934 0
M  V30 164 C 19.4583 -0.555065 -3.43241 0
M  V30 165 H 18.7813 -1.35709 -3.76062 0
M  V30 166 H 20.2213 -0.424664 -4.21868 0
M  V30 167 C 18.6803 0.734147 -3.28804 0
M  V30 168 O 19.2103 1.78937 -3.59645 0
M  V30 169 N 17.4163 0.701133 -2.82015 0
M  V30 170 H 16.9633 -0.157874 -2.57116 0
M  V30 171 H 16.9213 1.56403 -2.72737 0
M  V30 172 N 20.6934 1.19889 -1.02296 0
M  V30 173 C 21.6564 2.21116 -0.603351 0
M  V30 174 C 22.6564 1.5738 0.329884 0
M  V30 175 O 23.8464 1.73802 0.117702 0
M  V30 176 C 20.9784 3.40696 0.117992 0
M  V30 177 H 22.1714 2.59754 -1.49893 0
M  V30 178 H 19.7244 1.33463 -0.813468 0
M  V30 179 H 20.4594 3.07569 1.0282 0
M  V30 180 H 20.2444 3.88188 -0.552511 0
M  V30 181 H 21.7344 4.15692 0.398696 0
M  V30 182 N 22.1715 0.800033 1.35784 0
M  V30 183 C 23.4195 0.376597 1.9856 0
M  V30 184 C 23.7405 -1.05812 1.63795 0
M  V30 185 O 23.0105 -1.73103 0.917171 0
M  V30 186 H 21.5905 0.136261 0.734467 0
M  V30 187 H 24.2525 1.02442 1.65806 0
M  V30 188 H 23.3485 0.477002 3.08433 0
M  V30 189 N 23.6496 -1.47581 0.552962 0
M  V30 190 C 24.6126 -2.28439 -0.186605 0
M  V30 191 C 25.6126 -1.36706 -0.84665 0
M  V30 192 O 26.8026 -1.59378 -0.703164 0
M  V30 193 C 23.9346 -3.16264 -1.2724 0
M  V30 194 H 25.1276 -2.95294 0.523609 0
M  V30 195 H 22.6806 -1.532 0.309745 0
M  V30 196 H 23.4156 -2.54091 -2.01514 0
M  V30 197 H 23.2006 -3.83769 -0.803968 0
M  V30 198 H 24.6906 -3.77198 -1.79196 0
M  V30 199 N 25.1277 -0.289203 -1.54924 0
M  V30 200 C 26.4047 0.376032 -1.91951 0
M  V30 201 C 26.7847 1.72622 -1.21511 0
M  V30 202 O 26.1327 2.25853 -0.346767 0
M  V30 203 C 26.3427 0.502378 -3.45365 0
M  V30 204 C 27.6907 0.778741 -4.17398 0
M  V30 205 O 28.7147 0.586647 -3.51336 0
M  V30 206 O 27.5737 1.14698 -5.34328 0
M  V30 207 H 24.6677 0.208167 -0.800372 0
M  V30 208 H 27.2137 -0.336394 -1.66332 0
M  V30 209 H 25.9857 -0.447255 -3.88736 0
M  V30 210 H 25.6087 1.26373 -3.76982 0
M  V30 211 N 26.6058 1.57591 -0.0167156 0
M  V30 212 C 28.0168 1.79201 0.523834 0
M  V30 213 C 28.3678 0.925796 1.72984 0
M  V30 214 O 27.4928 0.132792 2.15992 0
M  V30 215 C 28.0878 3.25 0.957091 0
M  V30 216 C 26.6468 3.47648 1.44283 0
M  V30 217 C 25.7938 2.74374 0.401757 0
M  V30 218 H 28.7448 1.56831 -0.242816 0
M  V30 219 H 28.7658 3.34031 1.82219 0
M  V30 220 H 28.2778 3.88019 0.0791415 0
M  V30 221 H 26.3788 2.89866 2.34113 0
M  V30 222 H 26.4918 4.56352 1.45877 0
M  V30 223 H 24.8558 2.39485 0.867121 0
M  V30 224 H 25.6388 3.40102 -0.467513 0
M  V30 225 N 28.0839 -0.256276 1.55502 0
M  V30 226 C 29.0319 -1.33694 1.90338 0
M  V30 227 C 30.0259 -1.50299 0.781441 0
M  V30 228 O 31.2319 -1.51885 0.965966 0
M  V30 229 H 27.6069 -0.447483 0.60437 0
M  V30 230 H 29.5779 -1.01574 2.8058 0
M  V30 231 C 28.3269 -2.68724 2.20642 0
M  V30 232 H 27.6499 -2.56743 3.06469 0
M  V30 233 H 29.0899 -3.43237 2.48926 0
M  V30 234 C 27.5489 -3.21101 1.01959 0
M  V30 235 O 28.0789 -4.0084 0.262762 0
M  V30 236 N 26.2849 -2.79003 0.812746 0
M  V30 237 H 25.8319 -2.14271 1.42989 0
M  V30 238 H 25.7899 -3.14393 0.0203076 0
M  V30 239 N 29.562 -1.4872 -0.521534 0
M  V30 240 C 30.79 -1.60843 -1.30142 0
M  V30 241 C 31.205 -0.271897 -1.86832 0
M  V30 242 O 30.562 0.739969 -1.66825 0
M  V30 243 C 30.613 -2.66155 -2.4463 0
M  V30 244 O 30.334 -3.94623 -1.90275 0
M  V30 245 C 31.835 -2.88795 -3.36322 0
M  V30 246 H 29.055 -0.542075 -0.395468 0
M  V30 247 H 31.599 -1.94609 -0.628285 0
M  V30 248 H 29.754 -2.35224 -3.07812 0
M  V30 249 H 30.168 -4.52468 -2.65279 0
M  V30 250 H 31.642 -3.66264 -4.12983 0
M  V30 251 H 32.119 -1.97934 -3.9207 0
M  V30 252 H 32.725 -3.21063 -2.78924 0
M  V30 253 N 31.0401 0.771051 -1.3745 0
M  V30 254 C 32.2681 1.56015 -1.35893 0
M  V30 255 C 32.6831 1.88718 0.0555523 0
M  V30 256 O 32.0401 1.51502 1.01752 0
M  V30 257 C 32.0911 2.87001 -2.19801 0
M  V30 258 O 31.8121 2.557 -3.55738 0
M  V30 259 C 33.3131 3.81228 -2.26231 0
M  V30 260 H 30.5331 0.483317 -0.465453 0
M  V30 261 H 33.0771 0.955611 -1.80799 0
M  V30 262 H 31.2321 3.43877 -1.78402 0
M  V30 263 H 31.6461 3.39584 -3.99729 0
M  V30 264 H 33.1201 4.70139 -2.89263 0
M  V30 265 H 33.5971 4.20409 -1.27093 0
M  V30 266 H 34.2031 3.30281 -2.67945 0
M  V30 267 N 32.5182 1.22032 0.997298 0
M  V30 268 C 33.4662 0.983634 2.10778 0
M  V30 269 C 34.4602 -0.0717564 1.69248 0
M  V30 270 O 35.6662 0.080304 1.79821 0
M  V30 271 H 32.0412 0.300877 0.689186 0
M  V30 272 H 34.0122 1.92606 2.27916 0
M  V30 273 C 32.7612 0.57326 3.42942 0
M  V30 274 H 32.0842 1.37702 3.75338 0
M  V30 275 H 33.5242 0.447031 4.21637 0
M  V30 276 C 31.9832 -0.7167 3.29188 0
M  V30 277 O 32.5132 -1.77027 3.60589 0
M  V30 278 N 30.7192 -0.686167 2.82383 0
M  V30 279 H 30.2662 0.171507 2.57028 0
M  V30 280 H 30.2242 -1.54955 2.73562 0
M  V30 281 N 33.9963 -1.19345 1.0293 0
M  V30 282 C 34.9263 -2.2481 0.631105 0
M  V30 283 C 35.9073 -1.66245 -0.360104 0
M  V30 284 O 37.0923 -1.92677 -0.242726 0
M  V30 285 C 34.2223 -3.47295 -0.0184607 0
M  V30 286 C 33.1763 -4.18536 0.895073 0
M  V30 287 C 32.5023 -5.34586 0.110592 0
M  V30 288 C 33.8023 -4.73287 2.209 0
M  V30 289 H 35.4963 -2.58372 1.51275 0
M  V30 290 H 33.0423 -1.24194 0.728818 0
M  V30 291 H 34.9953 -4.20268 -0.308675 0
M  V30 292 H 33.7193 -3.12933 -0.934907 0
M  V30 293 H 32.3783 -3.47446 1.16949 0
M  V30 294 H 32.0263 -4.96469 -0.807902 0
M  V30 295 H 31.7263 -5.83183 0.719087 0
M  V30 296 H 33.2503 -6.10355 -0.172871 0
M  V30 297 H 34.6643 -5.38013 1.98028 0
M  V30 298 H 33.0613 -5.32373 2.76946 0
M  V30 299 H 34.1313 -3.91331 2.86336 0
M  V30 300 N 35.4744 -0.807222 -1.35358 0
M  V30 301 C 36.8904 -0.491038 -1.51858 0
M  V30 302 C 37.0904 0.987648 -1.75635 0
M  V30 303 O 36.1464 1.77265 -1.79815 0
M  V30 304 C 37.4594 -1.33695 -2.69344 0
M  V30 305 C 39.0074 -1.33246 -2.83222 0
M  V30 306 C 39.4824 -2.1625 -4.03733 0
M  V30 307 N 40.9734 -2.1379 -4.10911 0
M  V30 308 C 41.7084 -2.74772 -5.03277 0
M  V30 309 N 41.2044 -3.44684 -6.0097 0
M  V30 310 N 42.9974 -2.6441 -4.96028 0
M  V30 311 H 35.1484 -1.76485 -1.18181 0
M  V30 312 H 37.4114 -0.751199 -0.578276 0
M  V30 313 H 37.1174 -2.38634 -2.58354 0
M  V30 314 H 36.9914 -0.990618 -3.6396 0
M  V30 315 H 39.3784 -0.290911 -2.93663 0
M  V30 316 H 39.4594 -1.71866 -1.89461 0
M  V30 317 H 39.1034 -3.20445 -3.94052 0
M  V30 318 H 39.0334 -1.74989 -4.96675 0
M  V30 319 H 41.5244 -1.62923 -3.40976 0
M  V30 320 H 41.8374 -3.88501 -6.68047 0
M  V30 321 H 40.1824 -3.48788 -6.01142 0
M  V30 322 H 43.3734 -2.0938 -4.18662 0
M  V30 323 H 43.5464 -3.12225 -5.6782 0
M  V30 324 N 36.9525 1.47285 -0.560781 0
M  V30 325 C 38.3635 1.86258 -0.128343 0
M  V30 326 C 38.7145 1.46699 1.30284 0
M  V30 327 O 37.8395 0.871698 1.98067 0
M  V30 328 C 38.4345 3.38044 -0.22614 0
M  V30 329 C 36.9935 3.76096 0.151283 0
M  V30 330 C 36.1405 2.71335 -0.572084 0
M  V30 331 H 39.0915 1.38752 -0.770297 0
M  V30 332 H 39.1125 3.76441 0.554322 0
M  V30 333 H 38.6245 3.66806 -1.26788 0
M  V30 334 H 36.7255 3.52951 1.19399 0
M  V30 335 H 36.8385 4.78641 -0.209765 0
M  V30 336 H 35.2025 2.54696 -0.0147653 0
M  V30 337 H 35.9855 3.02938 -1.61504 0
M  V30 338 N 38.4306 0.297415 1.54768 0
M  V30 339 C 39.6586 -0.315623 2.04478 0
M  V30 340 C 40.0736 -1.47792 1.17486 0
M  V30 341 O 39.4306 -1.81404 0.19971 0
M  V30 342 C 39.4816 -0.7753 3.53088 0
M  V30 343 O 39.2026 0.340732 4.36773 0
M  V30 344 C 40.7036 -1.45386 4.18781 0
M  V30 345 H 37.9236 -0.0690887 0.667434 0
M  V30 346 H 40.4676 0.436003 1.99798 0
M  V30 347 H 38.6226 -1.47696 3.58141 0
M  V30 348 H 39.0366 -0.0165035 5.24497 0
M  V30 349 H 40.5106 -1.72669 5.24299 0
M  V30 350 H 40.9876 -2.39275 3.68299 0
M  V30 351 H 41.5936 -0.795475 4.17795 0
M  V30 352 N 39.9087 -1.5758 0.0250728 0
M  V30 353 C 41.1367 -1.9593 -0.664747 0
M  V30 354 C 41.5517 -0.901352 -1.65895 0
M  V30 355 O 40.9087 0.117255 -1.82123 0
M  V30 356 C 40.9597 -3.34342 -1.37468 0
M  V30 357 O 40.6807 -4.36079 -0.420324 0
M  V30 358 C 42.1817 -3.873 -2.1567 0
M  V30 359 H 39.4017 -0.645405 -0.183557 0
M  V30 360 H 41.9457 -2.04329 0.0836372 0
M  V30 361 H 40.1007 -3.27175 -2.0745 0
M  V30 362 H 40.5147 -5.16297 -0.923991 0
M  V30 363 H 41.9887 -4.86504 -2.60803 0
M  V30 364 H 42.4657 -3.21331 -2.99405 0
M  V30 365 H 43.0717 -3.97723 -1.50654 0
M  V30 366 N 41.3868 0.248026 -1.55636 0
M  V30 367 C 42.6168 0.992367 -1.81206 0
M  V30 368 C 43.0248 1.7949 -0.598324 0
M  V30 369 O 42.3678 1.78292 0.442434 0
M  V30 370 C 42.4298 1.97926 -3.00109 0
M  V30 371 C 42.0938 1.36377 -4.36177 0
M  V30 372 C 43.0908 0.76682 -5.14214 0
M  V30 373 C 40.7758 1.38347 -4.82872 0
M  V30 374 C 42.7698 0.197778 -6.37093 0
M  V30 375 C 40.4568 0.810574 -6.057 0
M  V30 376 C 41.4548 0.218754 -6.8265 0
M  V30 377 O 41.1428 -0.345298 -8.03158 0
M  V30 378 H 40.8748 0.297704 -0.606917 0
M  V30 379 H 43.4288 0.276517 -2.0353 0
M  V30 380 H 41.6588 2.73339 -2.73538 0
M  V30 381 H 43.3478 2.58694 -3.12781 0
M  V30 382 H 44.1138 0.744114 -4.79258 0
M  V30 383 H 39.9928 1.8335 -4.2297 0
M  V30 384 H 43.5368 -0.264788 -6.97097 0
M  V30 385 H 39.4338 0.830604 -6.40134 0
M  V30 386 H 40.2018 -0.237055 -8.18157 0
M  V30 387 N 42.8649 1.48995 0.513639 0
M  V30 388 C 44.1419 1.48338 1.27495 0
M  V30 389 C 44.5219 0.204065 2.10111 0
M  V30 390 O 43.8699 -0.813881 2.13514 0
M  V30 391 C 44.0799 2.75498 2.14247 0
M  V30 392 C 45.4279 3.24484 2.73852 0
M  V30 393 O 46.4519 2.76528 2.24523 0
M  V30 394 O 45.3109 4.07974 3.6362 0
M  V30 395 H 42.4049 0.593149 0.576284 0
M  V30 396 H 44.9509 1.61246 0.528948 0
M  V30 397 H 43.7229 3.60109 1.53092 0
M  V30 398 H 43.3459 2.6539 2.96064 0
M  V30 399 N 44.343 -0.763751 1.37857 0
M  V30 400 C 45.571 -1.55293 1.36718 0
M  V30 401 C 45.986 -1.88745 -0.0455434 0
M  V30 402 O 45.343 -1.52039 -1.00947 0
M  V30 403 C 45.394 -2.85831 2.2132 0
M  V30 404 O 45.115 -2.5381 3.57089 0
M  V30 405 C 46.616 -3.80023 2.28249 0
M  V30 406 H 43.836 -0.480841 0.468009 0
M  V30 407 H 46.38 -0.946009 1.81303 0
M  V30 408 H 44.535 -3.42926 1.80223 0
M  V30 409 H 44.949 -3.37459 4.01524 0
M  V30 410 H 46.423 -4.68599 2.91752 0
M  V30 411 H 46.9 -4.1973 1.2932 0
M  V30 412 H 47.506 -3.28855 2.69693 0
M  V30 413 N 45.8211 -1.22559 -0.990812 0
M  V30 414 C 47.0671 -1.06303 -1.73411 0
M  V30 415 C 47.4221 0.397442 -1.8825 0
M  V30 416 O 46.7151 1.29062 -1.41611 0
M  V30 417 C 46.9091 -1.71011 -3.13831 0
M  V30 418 C 46.7381 -3.232 -3.12685 0
M  V30 419 C 45.5081 -3.92314 -3.18461 0
M  V30 420 C 47.7061 -4.20107 -2.96673 0
M  V30 421 N 45.6881 -5.31571 -3.07091 0
M  V30 422 C 47.0591 -5.46208 -2.93354 0
M  V30 423 C 49.1141 -4.10973 -2.8108 0
M  V30 424 C 47.8171 -6.64225 -2.76039 0
M  V30 425 C 49.8431 -5.28642 -2.65126 0
M  V30 426 C 49.2051 -6.53663 -2.62496 0
M  V30 427 H 45.3041 -0.443441 -0.644115 0
M  V30 428 H 47.8881 -1.55131 -1.17654 0
M  V30 429 H 46.0591 -1.2473 -3.67827 0
M  V30 430 H 47.7911 -1.47828 -3.76735 0
M  V30 431 H 44.5461 -3.43326 -3.26227 0
M  V30 432 H 44.9701 -6.0455 -3.0471 0
M  V30 433 H 49.6121 -3.15098 -2.8191 0
M  V30 434 H 47.3301 -7.60246 -2.73954 0
M  V30 435 H 50.9161 -5.23407 -2.54039 0
M  V30 436 H 49.7961 -7.43182 -2.50302 0
M  V30 437 N 47.2992 1.18797 -1.03562 0
M  V30 438 C 48.5392 1.90346 -0.744832 0
M  V30 439 C 48.9032 1.78231 0.713972 0
M  V30 440 O 50.1042 2.44441 1.11813 0
M  V30 441 C 48.3752 3.36942 -1.19184 0
M  V30 442 S 49.9342 4.26638 -1.02593 0
M  V30 443 H 46.7522 0.657343 -0.270963 0
M  V30 444 H 49.3542 1.43579 -1.32685 0
M  V30 445 H 48.0582 3.43287 -2.24905 0
M  V30 446 H 47.5892 3.88745 -0.603397 0
M  V30 447 H 49.6042 4.96164 0.0596033 0
M  V30 448 N 48.7773 0.814389 1.34928 0
M  V30 449 C 50.0253 0.397636 1.9815 0
M  V30 450 C 50.3463 -1.04069 1.64908 0
M  V30 451 O 49.6163 -1.72121 0.93548 0
M  V30 452 H 48.1963 0.144043 0.732981 0
M  V30 453 H 50.8583 1.04195 1.6471 0
M  V30 454 H 49.9543 0.509688 3.0791 0
M  V30 455 N 50.2554 -1.46986 0.568584 0
M  V30 456 C 51.5014 -2.02741 0.0488709 0
M  V30 457 C 51.8344 -1.44077 -1.30214 0
M  V30 458 O 51.1094 -0.600552 -1.84996 0
M  V30 459 C 51.3924 -3.60086 -0.032047 0
M  V30 460 C 51.2454 -4.29162 1.34686 0
M  V30 461 C 52.5644 -4.33838 -0.739798 0
M  V30 462 H 49.6834 -0.736749 0.0192338 0
M  V30 463 H 52.3254 -1.75289 0.733065 0
M  V30 464 H 50.4754 -3.83606 -0.61473 0
M  V30 465 H 52.1474 -4.16948 1.97362 0
M  V30 466 H 50.3904 -3.89073 1.91846 0
M  V30 467 H 51.0614 -5.37826 1.24285 0
M  V30 468 H 53.5374 -4.15378 -0.244939 0
M  V30 469 H 52.4134 -5.43537 -0.765406 0
M  V30 470 H 52.6744 -4.03875 -1.79827 0
M  V30 471 N 51.7335 -0.305618 -1.54608 0
M  V30 472 C 52.6965 0.555591 -2.22364 0
M  V30 473 C 53.6965 1.05768 -1.21119 0
M  V30 474 O 54.8865 0.952972 -1.45822 0
M  V30 475 C 52.0185 1.76974 -2.91364 0
M  V30 476 H 53.2115 -0.0364572 -2.99878 0
M  V30 477 H 50.7645 -0.0565007 -1.56198 0
M  V30 478 H 51.4995 2.40151 -2.17941 0
M  V30 479 H 51.2845 1.41732 -3.65588 0
M  V30 480 H 52.7745 2.38148 -3.43038 0
M  V30 481 N 53.2116 1.57565 -0.0334293 0
M  V30 482 C 54.1616 2.06978 0.956237 0
M  V30 483 C 55.1456 0.971193 1.28283 0
M  V30 484 O 56.3376 1.23471 1.26822 0
M  V30 485 C 53.4666 2.60393 2.23719 0
M  V30 486 C 52.5526 3.7719 1.93877 0
M  V30 487 N 52.9436 4.87639 1.34321 0
M  V30 488 C 51.2416 3.85758 2.23845 0
M  V30 489 C 51.9426 5.68825 1.21709 0
M  V30 490 N 50.9186 5.1587 1.71404 0
M  V30 491 H 54.7206 2.89773 0.490815 0
M  V30 492 H 52.2346 1.61492 0.171478 0
M  V30 493 H 54.2316 2.94088 2.95496 0
M  V30 494 H 52.8916 1.79031 2.70884 0
M  V30 495 H 53.9026 5.07803 1.01767 0
M  V30 496 H 50.5796 3.1531 2.73653 0
M  V30 497 H 51.9696 6.67631 0.75621 0
M  V30 498 N 54.6897 -0.239769 1.55765 0
M  V30 499 C 55.9377 -0.964892 1.77579 0
M  V30 500 C 56.2587 -1.85582 0.598699 0
M  V30 501 O 55.5287 -1.92075 -0.385226 0
M  V30 502 H 54.1087 -0.359265 0.654933 0
M  V30 503 H 56.7707 -0.256001 1.93211 0
M  V30 504 H 55.8667 -1.58243 2.69009 0
M  V30 505 N 56.1678 -1.49265 -0.50573 0
M  V30 506 C 57.4078 -1.60128 -1.27038 0
M  V30 507 C 57.7718 -0.279557 -1.89954 0
M  V30 508 O 58.9728 -0.263329 -2.67507 0
M  V30 509 C 57.2438 -2.72507 -2.31246 0
M  V30 510 S 58.8028 -3.0329 -3.17113 0
M  V30 511 H 55.6208 -0.564863 -0.4318 0
M  V30 512 H 58.2228 -1.86902 -0.573397 0
M  V30 513 H 56.9268 -3.67068 -1.83546 0
M  V30 514 H 56.4578 -2.4771 -3.05619 0
M  V30 515 H 58.4728 -2.44448 -4.31809 0
M  V30 516 N 57.6459 0.756429 -1.3826 0
M  V30 517 C 58.8739 1.54565 -1.3754 0
M  V30 518 C 59.2889 1.88767 0.0355331 0
M  V30 519 O 58.6459 1.52572 1.0014 0
M  V30 520 C 58.6969 2.84654 -2.22833 0
M  V30 521 O 58.4179 2.51912 -3.5843 0
M  V30 522 C 59.9189 3.78807 -2.30261 0
M  V30 523 H 57.1389 0.478353 -0.470553 0
M  V30 524 H 59.6829 0.936381 -1.81803 0
M  V30 525 H 57.8379 3.41965 -1.8204 0
M  V30 526 H 58.2519 3.35325 -4.03308 0
M  V30 527 H 59.7259 4.67045 -2.94233 0
M  V30 528 H 60.2029 4.19038 -1.31545 0
M  V30 529 H 60.8089 3.2742 -2.71433 0
M  V30 530 N 59.124 1.23083 0.984299 0
M  V30 531 C 60.54 0.992637 1.24975 0
M  V30 532 C 60.74 -0.308618 1.99123 0
M  V30 533 O 59.796 -1.02905 2.30579 0
M  V30 534 C 61.109 2.19698 2.05312 0
M  V30 535 C 62.657 2.24147 2.18465 0
M  V30 536 C 63.132 3.44157 3.02192 0
M  V30 537 N 64.623 3.44372 3.09777 0
M  V30 538 C 65.358 4.33886 3.74874 0
M  V30 539 N 64.854 5.3363 4.41827 0
M  V30 540 N 66.647 4.21639 3.71721 0
M  V30 541 H 58.798 2.06731 0.487453 0
M  V30 542 H 61.061 0.906339 0.277944 0
M  V30 543 H 60.767 3.1411 1.58201 0
M  V30 544 H 60.641 2.20465 3.06064 0
M  V30 545 H 63.028 1.30277 2.64786 0
M  V30 546 H 63.109 2.27415 1.17115 0
M  V30 547 H 62.753 4.38332 2.56568 0
M  V30 548 H 62.683 3.3813 4.03702 0
M  V30 549 H 65.174 2.72201 2.62135 0
M  V30 550 H 65.487 5.98196 4.89266 0
M  V30 551 H 63.832 5.37534 4.40548 0
M  V30 552 H 67.023 3.42962 3.18582 0
M  V30 553 H 67.196 4.91604 4.22173 0
M  V30 554 N 60.6021 -1.18246 1.0419 0
M  V30 555 C 61.5491 -2.2192 0.634037 0
M  V30 556 C 62.5191 -1.62179 -0.358765 0
M  V30 557 O 63.7041 -1.89122 -0.252466 0
M  V30 558 C 60.8441 -3.451 0.00445535 0
M  V30 559 C 59.9571 -4.19174 1.04487 0
M  V30 560 C 59.0921 -5.29813 0.383676 0
M  V30 561 C 58.1311 -5.9566 1.4091 0
M  V30 562 N 57.2681 -6.97834 0.772784 0
M  V30 563 H 62.1081 -2.56164 1.52263 0
M  V30 564 H 59.6451 -1.25843 0.761701 0
M  V30 565 H 61.6031 -4.15485 -0.377919 0
M  V30 566 H 60.2331 -3.11472 -0.847652 0
M  V30 567 H 59.2851 -3.47604 1.54518 0
M  V30 568 H 60.5971 -4.64267 1.82368 0
M  V30 569 H 59.7511 -6.06677 -0.0528366 0
M  V30 570 H 58.4901 -4.85825 -0.427208 0
M  V30 571 H 57.4951 -5.17535 1.85574 0
M  V30 572 H 58.7201 -6.4173 2.22171 0
M  V30 573 H 56.6661 -6.55998 -0.0177708 0
M  V30 574 H 56.5831 -7.41186 1.48928 0
M  V30 575 H 57.8511 -7.78665 0.36071 0
M  V30 576 N 62.0802 -0.821533 -1.34494 0
M  V30 577 C 63.0102 -0.257138 -2.3208 0
M  V30 578 C 63.9912 0.625645 -1.58176 0
M  V30 579 O 65.1762 0.552811 -1.86166 0
M  V30 580 C 62.3062 0.582958 -3.42372 0
M  V30 581 C 61.2602 -0.202571 -4.2752 0
M  V30 582 C 60.5862 0.760179 -5.29269 0
M  V30 583 C 61.8862 -1.40998 -5.02908 0
M  V30 584 H 63.5802 -1.07247 -2.79532 0
M  V30 585 H 61.1262 -0.517163 -1.34393 0
M  V30 586 H 63.0792 0.987972 -4.09655 0
M  V30 587 H 61.8032 1.43133 -2.93565 0
M  V30 588 H 60.4622 -0.588936 -3.61838 0
M  V30 589 H 60.1102 1.60447 -4.76724 0
M  V30 590 H 59.8102 0.238809 -5.87115 0
M  V30 591 H 61.3342 1.16308 -5.9942 0
M  V30 592 H 62.7482 -1.07905 -5.63054 0
M  V30 593 H 61.1452 -1.86689 -5.70322 0
M  V30 594 H 62.2152 -2.1889 -4.32684 0
M  V30 595 N 63.5583 1.46682 -0.576371 0
M  V30 596 C 64.8063 2.02013 -0.0594163 0
M  V30 597 C 65.1273 1.45101 1.30271 0
M  V30 598 O 64.3973 0.633317 1.8538 0
M  V30 599 H 62.9773 0.746759 -0.0189745 0
M  V30 600 H 65.6393 1.79862 -0.750717 0
M  V30 601 H 64.7353 3.12097 0.014345 0
M  V30 602 N 65.0364 0.313813 1.54444 0
M  V30 603 C 65.9664 -0.549454 2.26943 0
M  V30 604 C 66.9474 -1.12741 1.27372 0
M  V30 605 O 68.1324 -1.15436 1.56167 0
M  V30 606 C 65.2624 -1.71523 3.01989 0
M  V30 607 C 64.2164 -1.26703 4.08816 0
M  V30 608 C 63.5424 -2.51898 4.71647 0
M  V30 609 C 64.8424 -0.388962 5.2085 0
M  V30 610 H 66.5364 0.0552661 2.99349 0
M  V30 611 H 64.0824 0.0280207 1.43973 0
M  V30 612 H 66.0354 -2.32535 3.51433 0
M  V30 613 H 64.7594 -2.34639 2.27183 0
M  V30 614 H 63.4184 -0.679896 3.6024 0
M  V30 615 H 63.0664 -3.13356 3.93468 0
M  V30 616 H 62.7664 -2.22605 5.43802 0
M  V30 617 H 64.2904 -3.1369 5.23861 0
M  V30 618 H 65.7044 -0.905107 5.6611 0
M  V30 619 H 64.1014 -0.18924 5.99802 0
M  V30 620 H 65.1714 0.582699 4.81386 0
M  V30 621 N 66.5145 -1.57545 0.0417849 0
M  V30 622 C 67.4615 -2.10977 -0.935805 0
M  V30 623 C 68.4315 -1.01486 -1.31491 0
M  V30 624 O 69.6165 -1.2898 -1.40602 0
M  V30 625 C 66.7565 -2.65169 -2.2086 0
M  V30 626 C 65.8695 -3.88714 -1.88482 0
M  V30 627 C 65.0045 -4.31254 -3.1015 0
M  V30 628 C 64.0435 -5.47524 -2.7365 0
M  V30 629 N 63.1805 -5.85162 -3.87982 0
M  V30 630 H 68.0205 -2.94218 -0.473249 0
M  V30 631 H 65.5575 -1.45415 -0.221981 0
M  V30 632 H 67.5155 -2.94685 -2.95325 0
M  V30 633 H 66.1455 -1.8474 -2.64709 0
M  V30 634 H 65.1975 -3.65849 -1.04205 0
M  V30 635 H 66.5095 -4.73245 -1.57608 0
M  V30 636 H 65.6635 -4.62273 -3.92923 0
M  V30 637 H 64.4025 -3.45516 -3.44195 0
M  V30 638 H 63.4075 -5.16187 -1.89291 0
M  V30 639 H 64.6325 -6.34971 -2.40807 0
M  V30 640 H 62.5785 -5.02377 -4.21846 0
M  V30 641 H 62.4955 -6.64362 -3.60775 0
M  V30 642 H 63.7635 -6.20791 -4.71422 0
M  V30 643 N 67.9926 0.231505 -1.5589 0
M  V30 644 C 69.2416 0.955346 -1.7764 0
M  V30 645 C 69.5546 1.85893 -0.608546 0
M  V30 646 O 70.7606 2.62067 -0.70943 0
M  V30 647 C 69.2166 1.74886 -3.14552 0
M  V30 648 C 68.8246 0.891915 -4.39032 0
M  V30 649 C 70.5686 2.46452 -3.45633 0
M  V30 650 C 68.4756 1.68221 -5.66971 0
M  V30 651 H 67.4056 0.360446 -0.662265 0
M  V30 652 H 70.0566 0.209516 -1.823 0
M  V30 653 H 68.4386 2.53723 -3.04041 0
M  V30 654 H 69.6126 0.144793 -4.60572 0
M  V30 655 H 67.9276 0.288863 -4.15397 0
M  V30 656 H 70.5246 3.06061 -4.38441 0
M  V30 657 H 70.8676 3.18841 -2.67668 0
M  V30 658 H 71.4006 1.74613 -3.57428 0
M  V30 659 H 68.1396 1.00178 -6.478 0
M  V30 660 H 67.6596 2.4042 -5.49507 0
M  V30 661 H 69.3386 2.24544 -6.06786 0
M  V30 662 N 69.4707 1.49531 0.497807 0
M  V30 663 C 70.7107 1.60799 1.26187 0
M  V30 664 C 71.0747 0.289627 1.89803 0
M  V30 665 O 72.2757 0.277512 2.67364 0
M  V30 666 C 70.5467 2.73729 2.29798 0
M  V30 667 S 72.1057 3.04968 3.155 0
M  V30 668 H 68.9237 0.567145 0.428798 0
M  V30 669 H 71.5257 1.87204 0.563477 0
M  V30 670 H 70.2297 3.68036 1.81597 0
M  V30 671 H 69.7607 2.49328 3.04301 0
M  V30 672 H 71.7757 2.46735 4.30507 0
M  V30 673 N 70.9488 -0.749086 1.3866 0
M  V30 674 C 72.1968 -1.50535 1.34847 0
M  V30 675 C 72.5178 -1.94909 -0.0595016 0
M  V30 676 O 71.7878 -1.67973 -1.00806 0
M  V30 677 H 70.3678 -0.558395 0.49619 0
M  V30 678 H 73.0298 -0.890165 1.73384 0
M  V30 679 H 72.1258 -2.39413 2.00219 0
M  V30 680 N 72.4269 -1.23603 -0.977757 0
M  V30 681 C 73.6739 -1.06971 -1.71941 0
M  V30 682 C 74.0019 0.393009 -1.90488 0
M  V30 683 O 73.2569 1.30719 -1.4564 0
M  V30 684 C 73.5559 -1.7433 -3.11999 0
M  V30 685 C 73.2219 -3.24252 -3.13323 0
M  V30 686 C 71.8839 -3.65156 -3.13392 0
M  V30 687 C 74.2359 -4.20141 -3.08433 0
M  V30 688 C 71.5639 -5.00403 -3.0629 0
M  V30 689 C 73.9159 -5.55384 -3.02873 0
M  V30 690 C 72.5799 -5.95647 -3.01265 0
M  V30 691 H 71.8499 -0.391433 -0.629175 0
M  V30 692 H 74.4969 -1.53572 -1.14403 0
M  V30 693 H 72.8019 -1.20096 -3.7294 0
M  V30 694 H 74.4989 -1.58936 -3.68158 0
M  V30 695 H 71.0889 -2.91692 -3.14029 0
M  V30 696 H 75.2729 -3.89547 -3.07517 0
M  V30 697 H 70.5289 -5.3081 -3.03399 0
M  V30 698 H 74.7029 -6.29398 -2.98046 0
M  V30 699 H 72.3299 -7.0041 -2.95516 0
M  V30 700 N 73.905 1.17692 -1.04816 0
M  V30 701 C 74.835 2.23777 -0.666791 0
M  V30 702 C 75.816 1.66796 0.33361 0
M  V30 703 O 77.001 1.93039 0.212042 0
M  V30 704 C 74.131 3.47281 -0.0367933 0
M  V30 705 C 73.085 4.17059 -0.961546 0
M  V30 706 C 72.411 5.34342 -0.195626 0
M  V30 707 C 73.711 4.69713 -2.28402 0
M  V30 708 H 75.405 2.55933 -1.55367 0
M  V30 709 H 72.951 1.23019 -0.748484 0
M  V30 710 H 74.904 4.20706 0.241775 0
M  V30 711 H 73.628 3.14381 0.885004 0
M  V30 712 H 72.287 3.45541 -1.22462 0
M  V30 713 H 71.935 4.97692 0.728816 0
M  V30 714 H 71.635 5.81966 -0.811775 0
M  V30 715 H 73.159 6.10553 0.0757473 0
M  V30 716 H 74.573 5.34794 -2.06563 0
M  V30 717 H 72.97 5.279 -2.8538 0
M  V30 718 H 74.04 3.86726 -2.92525 0
M  V30 719 N 75.3831 0.828654 1.34056 0
M  V30 720 C 76.3151 0.212052 2.28217 0
M  V30 721 C 77.3281 -0.601362 1.51286 0
M  V30 722 O 78.5171 -0.430104 1.73241 0
M  V30 723 C 75.6171 -0.72088 3.31144 0
M  V30 724 C 74.7901 0.0509587 4.3737 0
M  V30 725 C 73.8491 -0.803766 5.20025 0
M  V30 726 O 72.8751 -0.246667 5.68665 0
M  V30 727 N 74.0771 -2.1227 5.40298 0
M  V30 728 H 76.8421 1.02105 2.81771 0
M  V30 729 H 74.4031 0.686153 1.46641 0
M  V30 730 H 76.3951 -1.29742 3.8334 0
M  V30 731 H 74.9651 -1.43061 2.77943 0
M  V30 732 H 74.1851 0.808831 3.85813 0
M  V30 733 H 75.4731 0.582065 5.0546 0
M  V30 734 H 74.8711 -2.59898 5.02464 0
M  V30 735 H 73.4281 -2.64796 5.95589 0
M  V30 736 N 76.8612 -1.46375 0.584142 0
M  V30 737 C 78.2772 -1.57694 0.245929 0
M  V30 738 C 78.4772 -1.57903 -1.25175 0
M  V30 739 O 77.5332 -1.49676 -2.03355 0
M  V30 740 C 78.8462 -2.87028 0.896402 0
M  V30 741 C 80.3942 -3.00662 0.870127 0
M  V30 742 C 80.8692 -4.32734 1.50017 0
M  V30 743 N 82.3602 -4.39436 1.46458 0
M  V30 744 C 83.0952 -5.40248 1.92144 0
M  V30 745 N 82.5912 -6.47726 2.4581 0
M  V30 746 N 84.3842 -5.31459 1.83052 0
M  V30 747 H 76.5352 -1.44483 1.55687 0
M  V30 748 H 78.7982 -0.689291 0.650831 0
M  V30 749 H 78.5042 -2.9269 1.95002 0
M  V30 750 H 78.3782 -3.75014 0.405486 0
M  V30 751 H 80.7652 -2.94581 -0.174871 0
M  V30 752 H 80.8462 -2.14148 1.39908 0
M  V30 753 H 80.4902 -4.39573 2.54437 0
M  V30 754 H 80.4202 -5.18025 0.946432 0
M  V30 755 H 82.9112 -3.62367 1.07231 0
M  V30 756 H 83.2242 -7.20863 2.78525 0
M  V30 757 H 81.5692 -6.48542 2.49836 0
M  V30 758 H 84.7602 -4.46396 1.40883 0
M  V30 759 H 84.9332 -6.09881 2.18973 0
M  V30 760 N 78.3393 -0.321999 -1.54275 0
M  V30 761 C 79.5673 0.283052 -2.04955 0
M  V30 762 C 79.9823 1.45904 -1.19823 0
M  V30 763 O 79.3393 1.81063 -0.228545 0
M  V30 764 C 79.3903 0.719028 -3.54277 0
M  V30 765 O 79.1113 -0.410175 -4.36176 0
M  V30 766 C 80.6123 1.38705 -4.21041 0
M  V30 767 H 77.8323 0.0584616 -0.668448 0
M  V30 768 H 80.3763 -0.467734 -1.99079 0
M  V30 769 H 78.5313 1.41979 -3.60445 0
M  V30 770 H 78.9453 -0.0669416 -5.24457 0
M  V30 771 H 80.4193 1.64306 -5.2698 0
M  V30 772 H 80.8963 2.33385 -3.72059 0
M  V30 773 H 81.5023 0.728906 -4.19007 0
M  V30 774 N 79.8174 1.5752 -0.0501392 0
M  V30 775 C 80.7654 2.12651 0.942459 0
M  V30 776 C 81.7594 1.05807 1.32292 0
M  V30 777 O 82.9654 1.24217 1.3027 0
M  V30 778 H 79.3404 0.679673 0.321789 0
M  V30 779 H 81.3114 2.94951 0.452356 0
M  V30 780 C 80.0604 2.68565 2.20836 0
M  V30 781 H 79.3834 3.50439 1.92439 0
M  V30 782 H 80.8234 3.10761 2.8845 0
M  V30 783 C 79.2824 1.62291 2.95234 0
M  V30 784 O 79.8124 1.03508 3.88135 0
M  V30 785 N 78.0184 1.33836 2.57946 0
M  V30 786 H 77.5654 1.81826 1.82475 0
M  V30 787 H 77.5234 0.629595 3.08032 0
M  V30 788 N 81.2955 -0.223234 1.56011 0
M  V30 789 C 82.5205 -0.968978 1.83373 0
M  V30 790 C 82.9455 -1.77227 0.630254 0
M  V30 791 O 82.3035 -1.76345 -0.420959 0
M  V30 792 C 82.3515 -1.86363 3.08709 0
M  V30 793 O 81.4555 -2.95873 2.87285 0
M  V30 794 H 80.7965 -0.274461 0.604622 0
M  V30 795 H 83.3265 -0.237056 2.03222 0
M  V30 796 H 83.3365 -2.27376 3.38768 0
M  V30 797 H 82.0115 -1.27319 3.95933 0
M  V30 798 H 80.5885 -2.58818 2.68454 0
M  V30 799 N 82.7736 -1.49793 -0.48987 0
M  V30 800 C 83.7036 -1.70201 -1.59856 0
M  V30 801 C 84.6846 -0.55076 -1.60937 0
M  V30 802 O 85.8696 -0.787841 -1.77501 0
M  V30 803 C 82.9996 -1.77882 -2.98287 0
M  V30 804 C 81.9536 -2.92907 -3.12073 0
M  V30 805 C 81.2796 -2.85712 -4.51965 0
M  V30 806 C 82.5796 -4.3369 -2.91051 0
M  V30 807 H 84.2736 -2.63025 -1.43032 0
M  V30 808 H 81.8196 -1.26574 -0.686664 0
M  V30 809 H 83.7726 -1.90744 -3.75759 0
M  V30 810 H 82.4966 -0.816653 -3.16225 0
M  V30 811 H 81.1556 -2.79665 -2.37029 0
M  V30 812 H 80.8036 -1.8738 -4.66795 0
M  V30 813 H 80.5036 -3.62921 -4.62128 0
M  V30 814 H 82.0276 -3.00598 -5.31482 0
M  V30 815 H 83.4416 -4.47555 -3.58284 0
M  V30 816 H 81.8386 -5.12205 -3.12675 0
M  V30 817 H 82.9086 -4.47362 -1.87071 0
M  V30 818 N 84.2517 0.741722 -1.39055 0
M  V30 819 C 85.1617 1.88621 -1.39496 0
M  V30 820 C 86.1777 1.71557 -0.290578 0
M  V30 821 O 87.3537 1.94275 -0.530954 0
M  V30 822 C 84.4187 3.24134 -1.23037 0
M  V30 823 C 83.4797 3.5364 -2.43387 0
M  V30 824 C 82.7127 4.82687 -2.27703 0
M  V30 825 O 82.9357 5.55922 -1.27696 0
M  V30 826 O 81.8697 5.1194 -3.16545 0
M  V30 827 H 85.6957 1.91203 -2.35956 0
M  V30 828 H 83.2807 0.888625 -1.20099 0
M  V30 829 H 85.1627 4.0513 -1.15964 0
M  V30 830 H 83.8377 3.22337 -0.296691 0
M  V30 831 H 82.7447 2.72758 -2.56035 0
M  V30 832 H 84.0777 3.60209 -3.35425 0
M  V30 833 N 85.7298 1.2412 0.971189 0
M  V30 834 C 86.6398 1.04747 2.09917 0
M  V30 835 C 87.6558 -0.0107162 1.73997 0
M  V30 836 O 88.8318 0.186714 2.00533 0
M  V30 837 C 85.8968 0.650828 3.40537 0
M  V30 838 C 84.9578 1.7851 3.90426 0
M  V30 839 C 84.1908 1.40729 5.14812 0
M  V30 840 O 84.4138 0.29557 5.69634 0
M  V30 841 O 83.3478 2.23168 5.58999 0
M  V30 842 H 87.1738 1.99304 2.29154 0
M  V30 843 H 84.7588 1.02908 1.08307 0
M  V30 844 H 86.6408 0.440992 4.19086 0
M  V30 845 H 85.3158 -0.265649 3.22608 0
M  V30 846 H 84.2228 2.04966 3.12953 0
M  V30 847 H 85.5558 2.68023 4.12825 0
M  V30 848 N 87.2079 -1.17134 1.05439 0
M  V30 849 C 88.1549 -2.21235 0.657539 0
M  V30 850 C 89.1249 -1.62551 -0.341543 0
M  V30 851 O 90.3099 -1.89379 -0.232393 0
M  V30 852 C 87.4499 -3.45076 0.0410575 0
M  V30 853 C 86.5629 -4.18042 1.08927 0
M  V30 854 C 85.6979 -5.29376 0.439848 0
M  V30 855 C 84.7369 -5.94132 1.4722 0
M  V30 856 N 83.8739 -6.96975 0.846756 0
M  V30 857 H 88.7139 -2.54534 1.54972 0
M  V30 858 H 86.2509 -1.25028 0.775006 0
M  V30 859 H 88.2089 -4.15862 -0.33383 0
M  V30 860 H 86.8389 -3.12353 -0.814568 0
M  V30 861 H 85.8909 -3.45945 1.58196 0
M  V30 862 H 87.2029 -4.62306 1.87282 0
M  V30 863 H 86.3569 -6.06699 0.0115125 0
M  V30 864 H 85.0959 -4.86251 -0.375656 0
M  V30 865 H 84.1009 -5.15538 1.91052 0
M  V30 866 H 85.3259 -6.39337 2.28965 0
M  V30 867 H 83.2719 -6.5598 0.0518075 0
M  V30 868 H 83.1889 -7.39565 1.5678 0
M  V30 869 H 84.4569 -7.78239 0.443277 0
M  V30 870 N 88.686 -0.835752 -1.33615 0
M  V30 871 C 89.911 -0.442389 -2.02627 0
M  V30 872 C 90.336 0.947735 -1.62479 0
M  V30 873 O 89.694 1.61907 -0.815826 0
M  V30 874 C 89.742 -0.567216 -3.56111 0
M  V30 875 O 88.846 0.407799 -4.10379 0
M  V30 876 H 88.187 -0.180278 -0.639059 0
M  V30 877 H 90.717 -1.12972 -1.70583 0
M  V30 878 H 90.727 -0.447708 -4.05536 0
M  V30 879 H 89.402 -1.58103 -3.84677 0
M  V30 880 H 87.979 0.246107 -3.72087 0
M  V30 881 N 90.1641 1.46063 -0.591896 0
M  V30 882 C 91.5801 1.57561 -0.254288 0
M  V30 883 C 91.7801 1.58565 1.24336 0
M  V30 884 O 90.8361 1.50753 2.02558 0
M  V30 885 C 92.1491 2.86549 -0.911611 0
M  V30 886 C 93.6971 3.00197 -0.886059 0
M  V30 887 C 94.1721 4.31933 -1.5231 0
M  V30 888 N 95.6631 4.38654 -1.48786 0
M  V30 889 C 96.3981 5.39222 -1.95006 0
M  V30 890 N 95.8941 6.46414 -2.49241 0
M  V30 891 N 97.6871 5.3048 -1.85868 0
M  V30 892 H 89.8381 1.43655 -1.56451 0
M  V30 893 H 92.1011 0.68583 -0.654478 0
M  V30 894 H 91.8071 2.91651 -1.96551 0
M  V30 895 H 91.6811 3.74794 -0.425368 0
M  V30 896 H 94.0681 2.9467 0.159246 0
M  V30 897 H 94.1491 2.13403 -1.41041 0
M  V30 898 H 93.7931 4.38217 -2.56765 0
M  V30 899 H 93.7231 5.17516 -0.973891 0
M  V30 900 H 96.2141 3.61793 -1.09151 0
M  V30 901 H 96.5271 7.19376 -2.82344 0
M  V30 902 H 94.8721 6.47208 -2.53272 0
M  V30 903 H 98.0631 4.45643 -1.43248 0
M  V30 904 H 98.2361 6.08711 -2.22204 0
M  V30 905 N 91.6422 0.330177 1.54103 0
M  V30 906 C 92.5722 -0.525353 2.27513 0
M  V30 907 C 93.5532 -1.11383 1.2856 0
M  V30 908 O 94.7382 -1.13773 1.57383 0
M  V30 909 C 91.8682 -1.6831 3.03791 0
M  V30 910 C 90.8222 -1.2236 4.10137 0
M  V30 911 C 90.1482 -2.46882 4.74293 0
M  V30 912 C 91.4482 -0.333697 5.21233 0
M  V30 913 H 93.1422 0.087013 2.99274 0
M  V30 914 H 90.6882 0.0432893 1.43935 0
M  V30 915 H 92.6412 -2.28795 3.5388 0
M  V30 916 H 91.3652 -2.32216 2.29659 0
M  V30 917 H 90.0242 -0.64165 3.60941 0
M  V30 918 H 89.6722 -3.09165 3.96769 0
M  V30 919 H 89.3722 -2.16825 5.46133 0
M  V30 920 H 90.8962 -3.08117 5.27159 0
M  V30 921 H 92.3102 -0.845013 5.67038 0
M  V30 922 H 90.7072 -0.125612 5.99969 0
M  V30 923 H 91.7772 0.633724 4.80741 0
M  V30 924 N 93.1203 -1.57491 0.0584922 0
M  V30 925 C 94.3663 -1.93264 -0.614558 0
M  V30 926 C 94.6993 -0.937717 -1.7006 0
M  V30 927 O 93.9743 0.0351652 -1.94468 0
M  V30 928 C 94.2573 -3.3938 -1.20386 0
M  V30 929 C 94.1103 -4.49625 -0.125375 0
M  V30 930 C 95.4293 -3.86039 -2.11334 0
M  V30 931 H 92.5483 -0.702791 -0.221933 0
M  V30 932 H 95.1903 -1.8961 0.12175 0
M  V30 933 H 93.3403 -3.42626 -1.83139 0
M  V30 934 H 95.0123 -4.58506 0.506971 0
M  V30 935 H 93.2553 -4.30354 0.545672 0
M  V30 936 H 93.9263 -5.48967 -0.577861 0
M  V30 937 H 96.4023 -3.84716 -1.58534 0
M  V30 938 H 95.2783 -4.88914 -2.49507 0
M  V30 939 H 95.5393 -3.23215 -3.01636 0
M  V30 940 N 94.5984 0.214957 -1.56127 0
M  V30 941 C 95.8234 0.95924 -1.83884 0
M  V30 942 C 96.2484 1.7689 -0.639644 0
M  V30 943 O 95.6064 1.76566 0.411601 0
M  V30 944 C 95.6544 1.84723 -3.09693 0
M  V30 945 O 94.7584 2.94346 -2.8885 0
M  V30 946 H 94.0994 0.27125 -0.606069 0
M  V30 947 H 96.6294 0.226276 -2.03345 0
M  V30 948 H 96.6394 2.25576 -3.39969 0
M  V30 949 H 95.3144 1.25218 -3.96602 0
M  V30 950 H 93.8914 2.57391 -2.69823 0
M  V30 951 N 96.0765 1.50051 0.48192 0
M  V30 952 C 97.0395 1.67584 1.5636 0
M  V30 953 C 98.0395 0.546894 1.51214 0
M  V30 954 O 99.2295 0.813725 1.54026 0
M  V30 955 C 96.3615 1.691 2.96003 0
M  V30 956 H 97.5545 2.64078 1.42136 0
M  V30 957 H 95.1075 1.39369 0.707533 0
M  V30 958 H 95.8425 0.742589 3.15684 0
M  V30 959 H 95.6275 2.51105 3.01146 0
M  V30 960 H 97.1175 1.84656 3.74556 0
M  V30 961 N 97.5546 -0.734337 1.39446 0
M  V30 962 C 98.8016 -1.49391 1.36706 0
M  V30 963 C 99.1296 -1.94465 -0.0367813 0
M  V30 964 O 98.3846 -1.67154 -1.01774 0
M  V30 965 C 98.6836 -2.74711 2.28623 0
M  V30 966 C 98.3496 -2.48501 3.76242 0
M  V30 967 C 97.0116 -2.41062 4.16464 0
M  V30 968 C 99.3636 -2.26098 4.69606 0
M  V30 969 C 96.6916 -2.09262 5.48112 0
M  V30 970 C 99.0436 -1.95814 6.01531 0
M  V30 971 C 97.7076 -1.86845 6.40816 0
M  V30 972 H 96.9776 -0.546661 0.500243 0
M  V30 973 H 99.6246 -0.842788 1.71957 0
M  V30 974 H 97.9296 -3.44569 1.86492 0
M  V30 975 H 99.6266 -3.32741 2.23796 0
M  V30 976 H 96.2166 -2.55169 3.44364 0
M  V30 977 H 100.401 -2.30812 4.39363 0
M  V30 978 H 95.6566 -2.00841 5.77471 0
M  V30 979 H 99.8306 -1.77488 6.73403 0
M  V30 980 H 97.4576 -1.6197 7.42745 0
M  V30 981 N 99.0327 -1.24633 -0.964593 0
M  V30 982 C 99.9797 -1.04144 -2.05968 0
M  V30 983 C 100.95 0.046262 -1.66036 0
M  V30 984 O 102.135 -0.108972 -1.90489 0
M  V30 985 C 99.2747 -0.65563 -3.38815 0
M  V30 986 C 98.3877 -1.81714 -3.91923 0
M  V30 987 C 97.5227 -1.37662 -5.13052 0
M  V30 988 C 96.5617 -2.50788 -5.58365 0
M  V30 989 N 95.6987 -2.07582 -6.70712 0
M  V30 990 H 100.539 -1.9787 -2.22827 0
M  V30 991 H 98.0757 -0.9855 -1.09208 0
M  V30 992 H 100.034 -0.412954 -4.15151 0
M  V30 993 H 98.6637 0.244627 -3.21872 0
M  V30 994 H 97.7157 -2.1734 -3.12198 0
M  V30 995 H 99.0277 -2.66705 -4.21509 0
M  V30 996 H 98.1817 -1.093 -5.96773 0
M  V30 997 H 96.9207 -0.497293 -4.85158 0
M  V30 998 H 95.9257 -2.79906 -4.73215 0
M  V30 999 H 97.1507 -3.39283 -5.88272 0
M  V30 1000 H 95.0967 -1.22051 -6.44546 0
M  V30 1001 H 95.0137 -2.86125 -6.99763 0
M  V30 1002 H 96.2817 -1.82369 -7.57867 0
M  V30 1003 N 100.511 1.16574 -1.06058 0
M  V30 1004 C 101.421 2.2452 -0.680282 0
M  V30 1005 C 102.437 1.71348 0.302604 0
M  V30 1006 O 103.613 2.00822 0.152513 0
M  V30 1007 C 100.678 3.46629 -0.0700315 0
M  V30 1008 C 99.7388 4.14849 -1.10448 0
M  V30 1009 C 98.9718 5.31129 -0.523256 0
M  V30 1010 O 99.1948 5.66514 0.664709 0
M  V30 1011 O 98.1288 5.88526 -1.26179 0
M  V30 1012 H 101.955 2.59355 -1.58015 0
M  V30 1013 H 99.5398 1.24043 -0.832694 0
M  V30 1014 H 101.422 4.20543 0.268667 0
M  V30 1015 H 100.097 3.13573 0.803353 0
M  V30 1016 H 99.0038 3.42916 -1.49532 0
M  V30 1017 H 100.337 4.51954 -1.94931 0
M  V30 1018 N 101.989 0.842826 1.3317 0
M  V30 1019 C 103.405 0.531128 1.50503 0
M  V30 1020 C 103.605 -0.940734 1.78192 0
M  V30 1021 O 102.661 -1.72436 1.84451 0
M  V30 1022 C 103.974 1.40789 2.65705 0
M  V30 1023 C 105.522 1.40708 2.79589 0
M  V30 1024 C 105.997 2.26878 3.97857 0
M  V30 1025 N 107.488 2.24609 4.05099 0
M  V30 1026 C 108.223 2.88019 4.95815 0
M  V30 1027 N 107.719 3.60496 5.9162 0
M  V30 1028 N 109.512 2.77469 4.88843 0
M  V30 1029 H 101.663 1.79557 1.1346 0
M  V30 1030 H 103.926 0.766267 0.558156 0
M  V30 1031 H 103.632 2.454 2.51936 0
M  V30 1032 H 103.506 1.08677 3.61205 0
M  V30 1033 H 105.893 0.368668 2.92788 0
M  V30 1034 H 105.974 1.76829 1.84838 0
M  V30 1035 H 105.618 3.3078 3.85418 0
M  V30 1036 H 105.548 1.88096 4.91861 0
M  V30 1037 H 108.039 1.71906 3.36536 0
M  V30 1038 H 108.352 4.06076 6.57512 0
M  V30 1039 H 106.697 3.64604 5.91683 0
M  V30 1040 H 109.888 2.20406 4.12963 0
M  V30 1041 H 110.061 3.2717 5.59342 0
M  V30 1042 N 103.467 -1.45747 0.599634 0
M  V30 1043 C 104.399 -2.28628 -0.161879 0
M  V30 1044 C 105.412 -1.39494 -0.839367 0
M  V30 1045 O 106.601 -1.63941 -0.706089 0
M  V30 1046 C 103.701 -3.15014 -1.24976 0
M  V30 1047 C 102.874 -4.32378 -0.660935 0
M  V30 1048 C 101.933 -5.00033 -1.63869 0
M  V30 1049 O 100.959 -5.57085 -1.1681 0
M  V30 1050 N 102.161 -4.98589 -2.97303 0
M  V30 1051 H 104.926 -2.94624 0.549265 0
M  V30 1052 H 102.487 -1.55847 0.438565 0
M  V30 1053 H 104.479 -3.5714 -1.9035 0
M  V30 1054 H 103.049 -2.5098 -1.86354 0
M  V30 1055 H 102.269 -3.9383 0.170688 0
M  V30 1056 H 103.557 -5.08197 -0.247619 0
M  V30 1057 H 102.955 -4.53514 -3.38145 0
M  V30 1058 H 101.512 -5.44603 -3.58121 0
M  V30 1059 N 104.945 -0.338344 -1.53925 0
M  V30 1060 C 106.17 0.263987 -2.05713 0
M  V30 1061 C 106.595 1.43847 -1.21201 0
M  V30 1062 O 105.953 1.79904 -0.224535 0
M  V30 1063 C 106.001 0.662 -3.54471 0
M  V30 1064 O 105.105 1.76265 -3.72833 0
M  V30 1065 H 104.446 0.0448722 -0.662482 0
M  V30 1066 H 106.976 -0.491048 -1.9862 0
M  V30 1067 H 106.986 0.940594 -3.9701 0
M  V30 1068 H 105.661 -0.196937 -4.15433 0
M  V30 1069 H 104.238 1.48173 -3.42198 0
M  V30 1070 N 106.423 1.57458 -0.0668435 0
M  V30 1071 C 107.648 1.9804 0.616027 0
M  V30 1072 C 108.073 0.944771 1.62652 0
M  V30 1073 O 107.431 -0.0902094 1.81075 0
M  V30 1074 C 107.479 3.37665 1.26549 0
M  V30 1075 O 106.583 3.36701 2.38131 0
M  V30 1076 H 105.924 0.644719 0.158849 0
M  V30 1077 H 108.454 2.04121 -0.139891 0
M  V30 1078 H 108.464 3.7474 1.6135 0
M  V30 1079 H 107.139 4.12573 0.525016 0
M  V30 1080 H 105.716 3.1139 2.0516 0
M  V30 1081 N 107.901 -0.206675 1.56239 0
M  V30 1082 C 108.848 -1.25617 1.93621 0
M  V30 1083 C 109.818 -1.45824 0.795274 0
M  V30 1084 O 111.003 -1.59148 1.05245 0
M  V30 1085 C 108.143 -2.59839 2.27107 0
M  V30 1086 C 107.256 -2.47308 3.54207 0
M  V30 1087 C 106.391 -3.74155 3.7707 0
M  V30 1088 C 105.43 -3.56407 4.97635 0
M  V30 1089 N 104.567 -4.75238 5.1681 0
M  V30 1090 H 109.407 -0.930383 2.83104 0
M  V30 1091 H 106.944 -0.448065 1.4011 0
M  V30 1092 H 108.902 -3.38021 2.44535 0
M  V30 1093 H 107.532 -2.90485 1.40778 0
M  V30 1094 H 106.584 -1.60483 3.4489 0
M  V30 1095 H 107.896 -2.30122 4.42544 0
M  V30 1096 H 107.05 -4.60778 3.94675 0
M  V30 1097 H 105.789 -3.94282 2.87042 0
M  V30 1098 H 104.794 -2.68168 4.79964 0
M  V30 1099 H 106.019 -3.37736 5.89161 0
M  V30 1100 H 103.965 -4.95651 4.29728 0
M  V30 1101 H 103.882 -4.60835 5.99306 0
M  V30 1102 H 105.15 -5.63246 5.38864 0
M  V30 1103 N 109.379 -1.50304 -0.473955 0
M  V30 1104 C 110.327 -1.69482 -1.59307 0
M  V30 1105 C 111.321 -0.560669 -1.59853 0
M  V30 1106 O 112.527 -0.741087 -1.64036 0
M  V30 1107 H 108.902 -0.534892 -0.528578 0
M  V30 1108 H 110.873 -2.63364 -1.40293 0
M  V30 1109 C 109.622 -1.80354 -2.97267 0
M  V30 1110 H 108.945 -2.67012 -2.97564 0
M  V30 1111 H 110.385 -1.97798 -3.75036 0
M  V30 1112 C 108.844 -0.55448 -3.32306 0
M  V30 1113 O 109.374 0.307661 -4.0052 0
M  V30 1114 N 107.58 -0.409354 -2.87702 0
M  V30 1115 H 107.127 -1.11196 -2.32364 0
M  V30 1116 H 107.085 0.425223 -3.11511 0
M  V30 1117 N 110.857 0.726932 -1.39834 0
M  V30 1118 C 111.787 1.85405 -1.41941 0
M  V30 1119 C 112.768 1.67751 -0.281728 0
M  V30 1120 O 113.953 1.8795 -0.488717 0
M  V30 1121 C 111.083 3.23243 -1.2701 0
M  V30 1122 C 110.037 3.55549 -2.38262 0
M  V30 1123 C 109.363 4.9241 -2.08415 0
M  V30 1124 C 110.663 3.577 -3.80589 0
M  V30 1125 H 112.357 1.83899 -2.36266 0
M  V30 1126 H 109.903 0.883349 -1.13723 0
M  V30 1127 H 111.856 4.01775 -1.27103 0
M  V30 1128 H 110.58 3.25296 -0.291564 0
M  V30 1129 H 109.239 2.79351 -2.37399 0
M  V30 1130 H 108.887 4.91052 -1.0898 0
M  V30 1131 H 108.587 5.14992 -2.82943 0
M  V30 1132 H 110.111 5.73289 -2.10171 0
M  V30 1133 H 111.525 4.26293 -3.83337 0
M  V30 1134 H 109.922 3.91804 -4.54543 0
M  V30 1135 H 110.992 2.57328 -4.10987 0
M  V30 1136 N 112.336 1.25143 0.95797 0
M  V30 1137 C 113.266 1.07711 2.07173 0
M  V30 1138 C 114.247 -0.0128462 1.70095 0
M  V30 1139 O 115.432 0.156061 1.93572 0
M  V30 1140 C 112.562 0.691503 3.40346 0
M  V30 1141 C 111.516 1.73132 3.9142 0
M  V30 1142 C 110.842 1.20049 5.21049 0
M  V30 1143 C 112.142 3.1294 4.1817 0
M  V30 1144 H 113.836 2.00873 2.22014 0
M  V30 1145 H 111.382 0.967191 1.06684 0
M  V30 1146 H 113.335 0.556505 4.17709 0
M  V30 1147 H 112.059 -0.275819 3.25433 0
M  V30 1148 H 110.718 1.8547 3.16222 0
M  V30 1149 H 110.366 0.223499 5.02503 0
M  V30 1150 H 110.066 1.89545 5.56189 0
M  V30 1151 H 111.59 1.07782 6.01012 0
M  V30 1152 H 113.004 3.03775 4.86203 0
M  V30 1153 H 111.401 3.79875 4.64559 0
M  V30 1154 H 112.471 3.6025 3.24573 0
M  V30 1155 N 113.814 -1.1601 1.06675 0
M  V30 1156 C 115.039 -1.91068 0.806706 0
M  V30 1157 C 115.464 -1.77112 -0.633485 0
M  V30 1158 O 114.822 -1.09908 -1.44187 0
M  V30 1159 C 114.87 -3.39655 1.21106 0
M  V30 1160 O 113.974 -4.10893 0.352189 0
M  V30 1161 H 113.315 -0.595125 0.294486 0
M  V30 1162 H 115.845 -1.46955 1.42356 0
M  V30 1163 H 115.855 -3.90434 1.18428 0
M  V30 1164 H 114.53 -3.49132 2.26008 0
M  V30 1165 H 113.107 -3.70285 0.440868 0
M  V30 1166 N 115.292 -0.849877 -1.32721 0
M  V30 1167 C 116.532 -0.457146 -1.99222 0
M  V30 1168 C 116.896 0.968038 -1.6581 0
M  V30 1169 O 118.097 1.46507 -2.25364 0
M  V30 1170 C 116.368 -0.683966 -3.50794 0
M  V30 1171 S 117.927 -0.388095 -4.3708 0
M  V30 1172 H 114.745 -0.171464 -0.690015 0
M  V30 1173 H 117.347 -1.10155 -1.61512 0
M  V30 1174 H 116.051 -1.72038 -3.726 0
M  V30 1175 H 115.582 -0.0258086 -3.93392 0
M  V30 1176 H 117.597 0.787791 -4.89906 0
M  V30 1177 N 116.77 1.45427 -0.607355 0
M  V30 1178 C 117.68 2.34325 0.113463 0
M  V30 1179 C 118.696 1.51226 0.860617 0
M  V30 1180 O 119.872 1.84029 0.818255 0
M  V30 1181 C 116.937 3.28839 1.09844 0
M  V30 1182 C 115.998 4.27844 0.353271 0
M  V30 1183 C 115.231 5.17842 1.29133 0
M  V30 1184 O 115.454 5.11264 2.52913 0
M  V30 1185 O 114.388 5.96713 0.788523 0
M  V30 1186 H 118.214 2.97364 -0.617094 0
M  V30 1187 H 115.799 1.44807 -0.367619 0
M  V30 1188 H 117.681 3.8708 1.66575 0
M  V30 1189 H 116.356 2.68365 1.81003 0
M  V30 1190 H 115.263 3.7322 -0.256494 0
M  V30 1191 H 116.596 4.91173 -0.317822 0
M  V30 1192 N 118.248 0.346503 1.53744 0
M  V30 1193 C 119.196 -0.52422 2.26616 0
M  V30 1194 C 120.19 -1.09948 1.28871 0
M  V30 1195 O 121.396 -1.04488 1.46568 0
M  V30 1196 H 117.771 -0.187743 0.728187 0
M  V30 1197 H 119.742 0.11239 2.98188 0
M  V30 1198 C 118.491 -1.66186 3.05414 0
M  V30 1199 H 117.814 -1.22848 3.80458 0
M  V30 1200 H 119.254 -2.24622 3.59612 0
M  V30 1201 C 117.713 -2.59302 2.1509 0
M  V30 1202 O 118.243 -3.61628 1.74895 0
M  V30 1203 N 116.449 -2.28055 1.8011 0
M  V30 1204 H 115.996 -1.44883 2.12994 0
M  V30 1205 H 115.954 -2.90615 1.19958 0
M  V30 1206 N 119.726 -1.57421 0.075193 0
M  V30 1207 C 120.951 -1.98364 -0.605515 0
M  V30 1208 C 121.376 -0.953383 -1.62149 0
M  V30 1209 O 120.734 0.0806053 -1.81121 0
M  V30 1210 C 120.782 -3.38332 -1.24756 0
M  V30 1211 O 119.886 -3.37959 -2.36342 0
M  V30 1212 H 119.227 -0.645553 -0.155428 0
M  V30 1213 H 121.757 -2.04044 0.150714 0
M  V30 1214 H 121.767 -3.75591 -1.5936 0
M  V30 1215 H 120.442 -4.12846 -0.503129 0
M  V30 1216 H 119.019 -3.12474 -2.03506 0
M  V30 1217 N 121.204 0.198386 -1.56346 0
M  V30 1218 C 122.481 0.944982 -1.71258 0
M  V30 1219 C 122.861 2.0151 -0.629048 0
M  V30 1220 O 122.209 2.25639 0.360473 0
M  V30 1221 C 122.419 1.5344 -3.1346 0
M  V30 1222 C 123.767 2.01778 -3.73591 0
M  V30 1223 O 124.791 1.63288 -3.16568 0
M  V30 1224 O 123.65 2.72594 -4.73661 0
M  V30 1225 H 120.744 0.442939 -0.69838 0
M  V30 1226 H 123.29 0.188342 -1.68652 0
M  V30 1227 H 122.062 0.762869 -3.83792 0
M  V30 1228 H 121.685 2.35596 -3.20282 0
M  V30 1229 N 122.682 1.50554 0.465978 0
M  V30 1230 C 124.098 1.38093 0.800154 0
M  V30 1231 C 124.298 0.440988 1.96615 0
M  V30 1232 O 123.354 -0.114499 2.5224 0
M  V30 1233 C 124.667 2.79565 1.10742 0
M  V30 1234 C 126.215 2.88516 1.21357 0
M  V30 1235 C 126.69 4.30833 1.55393 0
M  V30 1236 N 128.181 4.33807 1.62375 0
M  V30 1237 C 128.916 5.40927 1.90225 0
M  V30 1238 N 128.412 6.58247 2.16062 0
M  V30 1239 N 130.205 5.28376 1.9177 0
M  V30 1240 H 122.356 2.10237 -0.302366 0
M  V30 1241 H 124.619 0.945203 -0.0727746 0
M  V30 1242 H 124.325 3.50208 0.323661 0
M  V30 1243 H 124.199 3.17125 2.04234 0
M  V30 1244 H 126.586 2.1809 1.98799 0
M  V30 1245 H 126.667 2.54492 0.258321 0
M  V30 1246 H 126.311 5.01799 0.784889 0
M  V30 1247 H 126.241 4.62347 2.52076 0
M  V30 1248 H 128.732 3.49212 1.44427 0
M  V30 1249 H 129.045 7.3569 2.36601 0
M  V30 1250 H 127.39 6.61413 2.13444 0
M  V30 1251 H 130.581 4.35715 1.71085 0
M  V30 1252 H 130.754 6.11944 2.13139 0
M  V30 1253 N 124.16 -0.719506 1.40217 0
M  V30 1254 C 125.437 -1.47221 1.28784 0
M  V30 1255 C 125.817 -2.10883 -0.0956067 0
M  V30 1256 O 125.165 -1.99833 -1.10811 0
M  V30 1257 C 125.375 -2.5111 2.42373 0
M  V30 1258 C 126.723 -3.17053 2.82423 0
M  V30 1259 O 127.747 -2.61429 2.41937 0
M  V30 1260 O 126.606 -4.17742 3.52355 0
M  V30 1261 H 123.7 -0.654491 0.50554 0
M  V30 1262 H 126.246 -0.752014 1.52128 0
M  V30 1263 H 125.018 -2.02556 3.34793 0
M  V30 1264 H 124.641 -3.3067 2.20778 0
M  V30 1265 N 125.638 -1.25649 -0.95132 0
M  V30 1266 C 126.601 -1.06399 -2.03007 0
M  V30 1267 C 127.601 -0.0156794 -1.60792 0
M  V30 1268 O 128.791 -0.25817 -1.72276 0
M  V30 1269 C 125.923 -0.616184 -3.35285 0
M  V30 1270 H 127.116 -2.02164 -2.21517 0
M  V30 1271 H 124.669 -1.08103 -1.12887 0
M  V30 1272 H 125.404 0.343917 -3.22471 0
M  V30 1273 H 125.189 -1.37301 -3.67275 0
M  V30 1274 H 126.679 -0.503032 -4.14559 0
M  V30 1275 N 127.117 1.15442 -1.07289 0
M  V30 1276 C 128.533 1.38201 -0.798288 0
M  V30 1277 C 128.733 1.92429 0.597769 0
M  V30 1278 O 127.789 2.12962 1.3566 0
M  V30 1279 C 129.102 2.35357 -1.87156 0
M  V30 1280 C 130.65 2.49021 -1.89624 0
M  V30 1281 C 131.125 3.49468 -2.96034 0
M  V30 1282 N 132.616 3.57003 -2.95132 0
M  V30 1283 C 133.351 4.34543 -3.74112 0
M  V30 1284 N 132.847 5.15421 -4.6294 0
M  V30 1285 N 134.64 4.29625 -3.62462 0
M  V30 1286 H 126.791 0.78584 -1.97328 0
M  V30 1287 H 129.054 0.408065 -0.855679 0
M  V30 1288 H 128.76 2.02626 -2.87464 0
M  V30 1289 H 128.634 3.35129 -1.73114 0
M  V30 1290 H 131.021 2.81051 -0.899687 0
M  V30 1291 H 131.102 1.4925 -2.07745 0
M  V30 1292 H 130.746 3.18173 -3.95889 0
M  V30 1293 H 130.676 4.48992 -2.75161 0
M  V30 1294 H 133.167 2.99276 -2.30743 0
M  V30 1295 H 133.48 5.7183 -5.19837 0
M  V30 1296 H 131.825 5.14729 -4.66989 0
M  V30 1297 H 135.016 3.65505 -2.92444 0
M  V30 1298 H 135.189 4.89807 -4.24256 0
M  V30 1299 N 128.595 0.856903 1.32268 0
M  V30 1300 C 129.842 0.461386 1.97174 0
M  V30 1301 C 130.17 -0.983491 1.67803 0
M  V30 1302 O 129.425 -1.70541 0.959903 0
M  V30 1303 C 129.724 0.649919 3.51441 0
M  V30 1304 C 129.39 2.0656 4.00804 0
M  V30 1305 C 128.052 2.45279 4.13995 0
M  V30 1306 C 130.404 2.98947 4.26943 0
M  V30 1307 C 127.732 3.75653 4.50668 0
M  V30 1308 C 130.084 4.28822 4.65075 0
M  V30 1309 C 128.748 4.67472 4.76472 0
M  V30 1310 H 128.018 0.168833 0.72151 0
M  V30 1311 H 130.665 1.08739 1.57633 0
M  V30 1312 H 128.97 -0.0593018 3.91755 0
M  V30 1313 H 130.667 0.32391 3.9969 0
M  V30 1314 H 127.257 1.75495 3.91024 0
M  V30 1315 H 131.441 2.70265 4.16258 0
M  V30 1316 H 126.697 4.05379 4.57688 0
M  V30 1317 H 130.871 5.0047 4.84255 0
M  V30 1318 H 128.498 5.68539 5.04646 0
M  V30 1319 N 130.073 -1.45103 0.615059 0
M  V30 1320 C 131.489 -1.57137 0.279322 0
M  V30 1321 C 131.689 -1.60523 -1.21797 0
M  V30 1322 O 130.745 -1.53956 -2.00134 0
M  V30 1323 C 132.058 -2.85062 0.957083 0
M  V30 1324 C 133.606 -2.98749 0.933706 0
M  V30 1325 C 134.081 -4.29455 1.59162 0
M  V30 1326 N 135.572 -4.36231 1.55746 0
M  V30 1327 C 136.307 -5.36051 2.0356 0
M  V30 1328 N 135.803 -6.42367 2.59494 0
M  V30 1329 N 137.596 -5.27456 1.94284 0
M  V30 1330 H 129.747 -1.41148 1.58717 0
M  V30 1331 H 132.01 -0.675331 0.665306 0
M  V30 1332 H 131.716 -2.88488 2.01166 0
M  V30 1333 H 131.59 -3.7407 0.48494 0
M  V30 1334 H 133.977 -2.94886 -0.112347 0
M  V30 1335 H 134.058 -2.11132 1.44419 0
M  V30 1336 H 133.702 -4.34077 2.63704 0
M  V30 1337 H 133.632 -5.15901 1.0561 0
M  V30 1338 H 136.123 -3.60011 1.14893 0
M  V30 1339 H 136.436 -7.14793 2.93752 0
M  V30 1340 H 134.781 -6.43097 2.63537 0
M  V30 1341 H 137.972 -4.43308 1.5032 0
M  V30 1342 H 138.145 -6.05099 2.3186 0
M  V30 1343 N 131.551 -0.354651 -1.53558 0
M  V30 1344 C 132.967 -0.00315426 -1.596 0
M  V30 1345 C 133.167 1.47741 -1.37021 0
M  V30 1346 O 132.223 2.23759 -1.16996 0
M  V30 1347 C 133.536 -0.44929 -2.97325 0
M  V30 1348 C 135.084 -0.402578 -3.104 0
M  V30 1349 C 135.559 -0.824355 -4.5052 0
M  V30 1350 N 137.05 -0.778979 -4.56603 0
M  V30 1351 C 137.785 -1.07715 -5.63192 0
M  V30 1352 N 137.281 -1.44405 -6.77583 0
M  V30 1353 N 139.074 -1.00066 -5.53121 0
M  V30 1354 H 131.225 -1.31893 -1.66487 0
M  V30 1355 H 133.488 -0.538388 -0.780284 0
M  V30 1356 H 133.194 -1.48202 -3.1895 0
M  V30 1357 H 133.068 0.169772 -3.76818 0
M  V30 1358 H 135.455 0.621004 -2.88492 0
M  V30 1359 H 135.536 -1.05699 -2.32941 0
M  V30 1360 H 135.18 -1.846 -4.73165 0
M  V30 1361 H 135.11 -0.147304 -5.26394 0
M  V30 1362 H 137.601 -0.508528 -3.74463 0
M  V30 1363 H 137.914 -1.65612 -7.54846 0
M  V30 1364 H 136.259 -1.4826 -6.79002 0
M  V30 1365 H 139.45 -0.713293 -4.62633 0
M  V30 1366 H 139.623 -1.23638 -6.36096 0
M  V30 1367 N 133.029 1.57378 -0.0835403 0
M  V30 1368 C 134.257 1.98263 0.59157 0
M  V30 1369 C 134.672 0.962302 1.62435 0
M  V30 1370 O 134.029 -0.049581 1.82433 0
M  V30 1371 C 134.08 3.39214 1.24965 0
M  V30 1372 O 133.801 4.37339 0.258186 0
M  V30 1373 C 135.302 3.95038 2.01147 0
M  V30 1374 H 132.522 0.651773 0.159477 0
M  V30 1375 H 135.066 2.03878 -0.159415 0
M  V30 1376 H 133.221 3.34649 1.95164 0
M  V30 1377 H 133.635 5.19371 0.731734 0
M  V30 1378 H 135.109 4.95848 2.42567 0
M  V30 1379 H 135.586 3.32222 2.87272 0
M  V30 1380 H 136.192 4.0304 1.35789 0
M  V30 1381 N 134.507 -0.190092 1.56449 0
M  V30 1382 C 135.417 -1.25591 1.98152 0
M  V30 1383 C 136.433 -1.49519 0.889944 0
M  V30 1384 O 137.609 -1.62036 1.19609 0
M  V30 1385 C 134.674 -2.57916 2.3169 0
M  V30 1386 C 133.735 -2.42015 3.5458 0
M  V30 1387 C 132.968 -3.6803 3.8651 0
M  V30 1388 O 133.191 -4.72413 3.1966 0
M  V30 1389 O 132.125 -3.6326 4.79923 0
M  V30 1390 H 135.951 -0.931988 2.89046 0
M  V30 1391 H 133.536 -0.395488 1.4407 0
M  V30 1392 H 135.418 -3.36008 2.54316 0
M  V30 1393 H 134.093 -2.89925 1.43963 0
M  V30 1394 H 133 -1.62017 3.37196 0
M  V30 1395 H 134.333 -2.14937 4.4279 0
M  V30 1396 N 135.985 -1.50799 -0.457987 0
M  V30 1397 C 137.213 -1.66218 -1.23203 0
M  V30 1398 C 137.628 -0.350894 -1.85511 0
M  V30 1399 O 136.985 0.668546 -1.69814 0
M  V30 1400 C 137.036 -2.76291 -2.33121 0
M  V30 1401 O 136.757 -4.02338 -1.73366 0
M  V30 1402 C 138.258 -3.028 -3.2377 0
M  V30 1403 H 135.478 -0.558361 -0.372121 0
M  V30 1404 H 138.022 -1.97099 -0.545179 0
M  V30 1405 H 136.177 -2.48068 -2.97558 0
M  V30 1406 H 136.591 -4.63312 -2.4585 0
M  V30 1407 H 138.065 -3.8345 -3.97077 0
M  V30 1408 H 138.542 -2.14385 -3.83322 0
M  V30 1409 H 139.148 -3.32604 -2.65056 0
M  V30 1410 N 137.463 0.71206 -1.40597 0
M  V30 1411 C 138.74 1.46536 -1.29563 0
M  V30 1412 C 139.12 2.10931 0.0844217 0
M  V30 1413 O 138.468 2.00418 1.0975 0
M  V30 1414 C 138.678 2.49821 -2.43701 0
M  V30 1415 C 140.026 3.15551 -2.841 0
M  V30 1416 O 141.05 2.60142 -2.4332 0
M  V30 1417 O 139.909 4.15867 -3.54566 0
M  V30 1418 H 137.003 0.651801 -0.509004 0
M  V30 1419 H 139.549 0.743935 -1.52524 0
M  V30 1420 H 138.321 2.00778 -3.35863 0
M  V30 1421 H 137.944 3.29495 -2.22528 0
M  V30 1422 N 138.941 1.26152 0.944643 0
M  V30 1423 C 140.188 1.11492 1.69044 0
M  V30 1424 C 140.516 -0.342366 1.91463 0
M  V30 1425 O 139.771 -1.26812 1.49054 0
M  V30 1426 C 140.07 1.82541 3.07268 0
M  V30 1427 C 139.736 3.32445 3.04616 0
M  V30 1428 C 138.398 3.73337 3.036 0
M  V30 1429 C 140.75 4.28171 2.97185 0
M  V30 1430 C 138.078 5.08348 2.92915 0
M  V30 1431 C 140.43 5.63218 2.88041 0
M  V30 1432 C 139.094 6.03426 2.85366 0
M  V30 1433 H 138.364 0.407977 0.618576 0
M  V30 1434 H 141.011 1.56551 1.10291 0
M  V30 1435 H 139.316 1.29941 3.69625 0
M  V30 1436 H 141.013 1.68642 3.63815 0
M  V30 1437 H 137.603 2.99915 3.06185 0
M  V30 1438 H 141.787 3.97563 2.97081 0
M  V30 1439 H 137.043 5.38667 2.89219 0
M  V30 1440 H 141.217 6.37078 2.81254 0
M  V30 1441 H 138.844 7.07999 2.76842 0
M  V30 1442 N 140.419 -1.14872 1.07899 0
M  V30 1443 C 141.644 -1.90202 0.826926 0
M  V30 1444 C 142.069 -1.77774 -0.614664 0
M  V30 1445 O 141.427 -1.11431 -1.43013 0
M  V30 1446 C 141.475 -3.38352 1.24702 0
M  V30 1447 O 140.579 -4.10497 0.39575 0
M  V30 1448 H 139.92 -0.591968 0.300782 0
M  V30 1449 H 142.45 -1.45437 1.43907 0
M  V30 1450 H 142.46 -3.89156 1.22563 0
M  V30 1451 H 141.135 -3.46715 2.29698 0
M  V30 1452 H 139.712 -3.69796 0.480117 0
M  V30 1453 N 141.898 -0.863906 -1.31812 0
M  V30 1454 C 142.846 -0.30422 -2.30602 0
M  V30 1455 C 143.84 0.577419 -1.59255 0
M  V30 1456 O 145.046 0.464194 -1.73912 0
M  V30 1457 H 141.421 -0.0796877 -0.747766 0
M  V30 1458 H 143.392 -1.15148 -2.75288 0
M  V30 1459 C 142.141 0.484617 -3.44306 0
M  V30 1460 H 141.464 -0.18451 -3.99374 0
M  V30 1461 H 142.904 0.841664 -4.15562 0
M  V30 1462 C 141.363 1.6735 -2.92396 0
M  V30 1463 O 141.893 2.77273 -2.90659 0
M  V30 1464 N 140.099 1.50362 -2.48676 0
M  V30 1465 H 139.646 0.609402 -2.50288 0
M  V30 1466 H 139.604 2.30051 -2.14299 0
M  V30 1467 N 143.376 1.44774 -0.622745 0
M  V30 1468 C 144.306 2.33382 0.0741861 0
M  V30 1469 C 145.287 1.47719 0.843387 0
M  V30 1470 O 146.472 1.76458 0.810934 0
M  V30 1471 C 143.602 3.30663 1.06204 0
M  V30 1472 C 142.556 4.26079 0.405037 0
M  V30 1473 C 141.882 5.13165 1.5022 0
M  V30 1474 C 143.182 5.1781 -0.683414 0
M  V30 1475 H 144.876 2.91905 -0.665713 0
M  V30 1476 H 142.422 1.40363 -0.321587 0
M  V30 1477 H 144.375 3.9153 1.55827 0
M  V30 1478 H 143.099 2.70331 1.83272 0
M  V30 1479 H 141.758 3.66532 -0.0704683 0
M  V30 1480 H 141.406 4.49191 2.26355 0
M  V30 1481 H 141.106 5.77812 1.06803 0
M  V30 1482 H 142.63 5.76902 2.00041 0
M  V30 1483 H 144.044 5.72661 -0.270631 0
M  V30 1484 H 142.441 5.91015 -1.04023 0
M  V30 1485 H 143.511 4.59326 -1.55395 0
M  V30 1486 N 144.854 0.36279 1.53368 0
M  V30 1487 C 146.101 -0.227776 2.01215 0
M  V30 1488 C 146.429 -1.49003 1.25014 0
M  V30 1489 O 145.684 -1.92876 0.331236 0
M  V30 1490 C 145.983 -0.568417 3.52851 0
M  V30 1491 C 145.649 0.59918 4.46901 0
M  V30 1492 C 144.311 0.919559 4.72332 0
M  V30 1493 C 146.663 1.38156 5.02556 0
M  V30 1494 C 143.991 2.02434 5.5067 0
M  V30 1495 C 146.343 2.47674 5.821 0
M  V30 1496 C 145.007 2.8025 6.05819 0
M  V30 1497 H 144.277 -0.083349 0.736297 0
M  V30 1498 H 146.924 0.494677 1.85001 0
M  V30 1499 H 145.229 -1.37185 3.66998 0
M  V30 1500 H 146.926 -1.03756 3.87344 0
M  V30 1501 H 143.516 0.339437 4.27254 0
M  V30 1502 H 147.7 1.14729 4.82857 0
M  V30 1503 H 142.956 2.28075 5.67267 0
M  V30 1504 H 147.13 3.08716 6.24234 0
M  V30 1505 H 144.757 3.65979 6.66306 0
M  V30 1506 N 146.332 -1.57332 0.0918853 0
M  V30 1507 C 147.295 -2.12708 -0.85369 0
M  V30 1508 C 148.295 -1.05561 -1.213 0
M  V30 1509 O 149.485 -1.31461 -1.14296 0
M  V30 1510 C 146.617 -2.64503 -2.15061 0
M  V30 1511 H 147.81 -2.97573 -0.3729 0
M  V30 1512 H 145.363 -1.55509 -0.157072 0
M  V30 1513 H 146.098 -1.83149 -2.67632 0
M  V30 1514 H 145.883 -3.4284 -1.90272 0
M  V30 1515 H 147.373 -3.07351 -2.82711 0
M  V30 1516 N 147.81 0.181792 -1.56548 0
M  V30 1517 C 149.226 0.53316 -1.50431 0
M  V30 1518 C 149.426 1.85184 -0.794297 0
M  V30 1519 O 148.482 2.50058 -0.350318 0
M  V30 1520 C 149.795 0.575597 -2.9514 0
M  V30 1521 C 151.343 0.663519 -3.05886 0
M  V30 1522 C 151.818 0.736946 -4.52032 0
M  V30 1523 N 153.309 0.800118 -4.56237 0
M  V30 1524 C 154.044 0.877327 -5.66649 0
M  V30 1525 N 153.54 0.916016 -6.86718 0
M  V30 1526 N 155.333 0.915542 -5.54594 0
M  V30 1527 H 147.484 -0.683025 -2.01118 0
M  V30 1528 H 149.747 -0.244988 -0.915797 0
M  V30 1529 H 149.453 -0.324482 -3.502 0
M  V30 1530 H 149.327 1.42572 -3.49218 0
M  V30 1531 H 151.714 1.55403 -2.50867 0
M  V30 1532 H 151.795 -0.21307 -2.54911 0
M  V30 1533 H 151.439 -0.149262 -5.07681 0
M  V30 1534 H 151.369 1.62953 -5.00753 0
M  V30 1535 H 153.86 0.778926 -3.69785 0
M  V30 1536 H 154.173 0.975813 -7.66614 0
M  V30 1537 H 152.518 0.884469 -6.89349 0
M  V30 1538 H 155.709 0.882245 -4.59711 0
M  V30 1539 H 155.882 0.972253 -6.40665 0
M  V30 1540 N 149.288 1.51039 0.449983 0
M  V30 1541 C 150.565 1.53612 1.21089 0
M  V30 1542 C 150.945 0.292997 2.09057 0
M  V30 1543 O 150.293 -0.72259 2.16774 0
M  V30 1544 C 150.503 2.84337 2.0237 0
M  V30 1545 C 151.851 3.35807 2.59843 0
M  V30 1546 O 152.875 2.85802 2.12593 0
M  V30 1547 O 151.734 4.23029 3.45989 0
M  V30 1548 H 148.828 0.617057 0.550608 0
M  V30 1549 H 151.374 1.63344 0.460082 0
M  V30 1550 H 150.146 3.66278 1.37681 0
M  V30 1551 H 149.769 2.77708 2.84542 0
M  V30 1552 N 150.766 -0.704594 1.40972 0
M  V30 1553 C 151.696 -1.83124 1.44872 0
M  V30 1554 C 152.677 -1.67281 0.30838 0
M  V30 1555 O 153.862 -1.87149 0.518556 0
M  V30 1556 C 150.992 -3.21181 1.32136 0
M  V30 1557 C 149.946 -3.51714 2.43888 0
M  V30 1558 C 149.272 -4.89032 2.16222 0
M  V30 1559 C 150.572 -3.516 3.86232 0
M  V30 1560 H 152.266 -1.80117 2.39161 0
M  V30 1561 H 149.812 -0.865145 1.15114 0
M  V30 1562 H 151.765 -3.99702 1.33479 0
M  V30 1563 H 150.489 -3.24791 0.343279 0
M  V30 1564 H 149.148 -2.75539 2.41813 0
M  V30 1565 H 148.796 -4.89256 1.16778 0
M  V30 1566 H 148.496 -5.10426 2.911 0
M  V30 1567 H 150.02 -5.69873 2.19265 0
M  V30 1568 H 151.434 -4.2014 3.9007 0
M  V30 1569 H 149.831 -3.84523 4.60719 0
M  V30 1570 H 150.901 -2.50757 4.15029 0
M  V30 1571 N 152.244 -1.26651 -0.937939 0
M  V30 1572 C 153.174 -1.10993 -2.05433 0
M  V30 1573 C 154.155 -0.0142161 -1.70094 0
M  V30 1574 O 155.34 -0.186837 -1.93299 0
M  V30 1575 C 152.47 -0.745561 -3.39203 0
M  V30 1576 C 151.424 -1.79337 -3.88616 0
M  V30 1577 C 150.75 -1.28324 -5.19073 0
M  V30 1578 C 152.05 -3.19553 -4.13138 0
M  V30 1579 H 153.744 -2.0438 -2.1879 0
M  V30 1580 H 151.29 -0.984041 -1.05131 0
M  V30 1581 H 153.243 -0.622888 -4.16771 0
M  V30 1582 H 151.967 0.22401 -3.25831 0
M  V30 1583 H 150.626 -1.90477 -3.13231 0
M  V30 1584 H 150.274 -0.303414 -5.02084 0
M  V30 1585 H 149.974 -1.98369 -5.53103 0
M  V30 1586 H 151.498 -1.1733 -5.99221 0
M  V30 1587 H 152.912 -3.11471 -4.81309 0
M  V30 1588 H 151.309 -3.87218 -4.58457 0
M  V30 1589 H 152.379 -3.65368 -3.18801 0
M  V30 1590 N 153.722 1.14298 -1.08507 0
M  V30 1591 C 155.133 1.66926 -0.836227 0
M  V30 1592 C 155.484 1.85576 0.63686 0
M  V30 1593 O 154.609 1.56767 1.49175 0
M  V30 1594 C 155.204 3.03219 -1.51142 0
M  V30 1595 C 153.763 3.52876 -1.30979 0
M  V30 1596 C 152.91 2.2833 -1.57356 0
M  V30 1597 H 155.861 0.983491 -1.24552 0
M  V30 1598 H 155.882 3.68726 -0.939211 0
M  V30 1599 H 155.394 2.89612 -2.58353 0
M  V30 1600 H 153.495 3.71703 -0.258429 0
M  V30 1601 H 153.608 4.33586 -2.03814 0
M  V30 1602 H 151.972 2.34454 -0.995164 0
M  V30 1603 H 152.755 2.17298 -2.65775 0
M  V30 1604 N 155.201 0.870884 1.31352 0
M  V30 1605 C 156.164 0.332243 2.26779 0
M  V30 1606 C 157.164 -0.517302 1.52252 0
M  V30 1607 O 158.354 -0.326477 1.71113 0
M  V30 1608 C 155.486 -0.528066 3.36785 0
M  V30 1609 H 156.679 1.17469 2.75937 0
M  V30 1610 H 154.232 0.64655 1.423 0
M  V30 1611 H 154.967 -1.39167 2.92922 0
M  V30 1612 H 154.752 0.0802582 3.92018 0
M  V30 1613 H 156.242 -0.897179 4.07849 0
M  V30 1614 N 156.679 -1.44442 0.630414 0
M  V30 1615 C 157.626 -2.30678 -0.0749355 0
M  V30 1616 C 158.596 -1.4344 -0.837502 0
M  V30 1617 O 159.781 -1.72343 -0.818684 0
M  V30 1618 C 156.921 -3.28706 -1.05103 0
M  V30 1619 C 156.034 -4.31046 -0.286954 0
M  V30 1620 C 155.169 -5.16167 -1.2548 0
M  V30 1621 C 154.208 -6.10216 -0.479843 0
M  V30 1622 N 153.345 -6.88039 -1.39811 0
M  V30 1623 H 158.185 -2.90454 0.666386 0
M  V30 1624 H 155.722 -1.43107 0.340404 0
M  V30 1625 H 157.68 -3.84027 -1.63031 0
M  V30 1626 H 156.31 -2.70632 -1.75949 0
M  V30 1627 H 155.362 -3.78203 0.408243 0
M  V30 1628 H 156.674 -4.97794 0.316657 0
M  V30 1629 H 155.828 -5.76002 -1.90544 0
M  V30 1630 H 154.567 -4.49491 -1.89233 0
M  V30 1631 H 153.572 -5.49491 0.184295 0
M  V30 1632 H 154.797 -6.78928 0.152965 0
M  V30 1633 H 152.743 -6.24032 -2.02287 0
M  V30 1634 H 152.66 -7.51223 -0.848508 0
M  V30 1635 H 153.928 -7.52397 -2.03762 0
M  V30 1636 N 158.157 -0.370918 -1.53173 0
M  V30 1637 C 159.105 0.488101 -2.27421 0
M  V30 1638 C 160.099 1.07884 -1.30604 0
M  V30 1639 O 161.305 1.02143 -1.48212 0
M  V30 1640 H 157.68 0.176134 -0.731082 0
M  V30 1641 H 159.651 -0.159815 -2.97972 0
M  V30 1642 C 158.4 1.61306 -3.08019 0
M  V30 1643 H 157.723 1.1678 -3.82364 0
M  V30 1644 H 159.163 2.18872 -3.63141 0
M  V30 1645 C 157.622 2.55848 -2.19188 0
M  V30 1646 O 158.152 3.58799 -1.80626 0
M  V30 1647 N 156.358 2.2516 -1.83715 0
M  V30 1648 H 155.905 1.41476 -2.15273 0
M  V30 1649 H 155.863 2.8867 -1.24567 0
M  V30 1650 N 159.635 1.57281 -0.100228 0
M  V30 1651 C 160.883 1.94153 0.561157 0
M  V30 1652 C 161.204 0.983157 1.68401 0
M  V30 1653 O 160.474 0.0361132 1.95867 0
M  V30 1654 H 159.054 0.716791 0.210283 0
M  V30 1655 H 161.716 1.94202 -0.164765 0
M  V30 1656 H 160.812 2.96709 0.968008 0
M  V30 1657 N 161.113 -0.173488 1.56642 0
M  V30 1658 C 162.023 -1.23482 1.99473 0
M  V30 1659 C 163.039 -1.48567 0.905752 0
M  V30 1660 O 164.215 -1.60758 1.21321 0
M  V30 1661 C 161.28 -2.55444 2.34413 0
M  V30 1662 C 160.341 -2.38241 3.57127 0
M  V30 1663 C 159.574 -3.63909 3.90392 0
M  V30 1664 O 159.797 -4.68996 3.24653 0
M  V30 1665 O 158.731 -3.58149 4.83749 0
M  V30 1666 H 162.557 -0.901279 2.90018 0
M  V30 1667 H 160.142 -0.380185 1.44482 0
M  V30 1668 H 162.024 -3.33292 2.57865 0
M  V30 1669 H 160.699 -2.88382 1.4703 0
M  V30 1670 H 159.606 -1.58431 3.38896 0
M  V30 1671 H 160.939 -2.10228 4.45045 0
M  V30 1672 N 162.591 -1.51276 -0.441967 0
M  V30 1673 C 163.501 -1.75092 -1.56141 0
M  V30 1674 C 164.517 -0.634963 -1.62001 0
M  V30 1675 O 165.693 -0.916686 -1.79329 0
M  V30 1676 C 162.758 -1.86666 -2.92158 0
M  V30 1677 C 161.819 -3.10506 -2.96453 0
M  V30 1678 C 161.052 -3.21519 -4.25982 0
M  V30 1679 O 161.275 -2.38586 -5.18105 0
M  V30 1680 O 160.209 -4.14465 -4.36466 0
M  V30 1681 H 164.035 -2.70044 -1.38961 0
M  V30 1682 H 161.62 -1.35722 -0.624499 0
M  V30 1683 H 163.502 -1.96292 -3.72891 0
M  V30 1684 H 162.177 -0.949014 -3.09476 0
M  V30 1685 H 161.084 -3.06363 -2.14692 0
M  V30 1686 H 162.417 -4.01945 -2.84079 0
M  V30 1687 N 164.069 0.697108 -1.41344 0
M  V30 1688 C 165.001 1.8224 -1.39001 0
M  V30 1689 C 166.014 1.60152 -0.292428 0
M  V30 1690 O 167.203 1.69684 -0.554048 0
M  V30 1691 C 164.303 3.18976 -1.14489 0
M  V30 1692 C 163.476 3.68105 -2.36258 0
M  V30 1693 C 162.535 4.83506 -2.07625 0
M  V30 1694 O 161.561 4.95201 -2.8065 0
M  V30 1695 N 162.763 5.70637 -1.06555 0
M  V30 1696 H 165.528 1.84742 -2.35988 0
M  V30 1697 H 163.089 0.87937 -1.35936 0
M  V30 1698 H 165.081 3.93801 -0.932885 0
M  V30 1699 H 163.651 3.11508 -0.261043 0
M  V30 1700 H 162.871 2.84204 -2.7317 0
M  V30 1701 H 164.159 3.97667 -3.17393 0
M  V30 1702 H 163.557 5.63817 -0.461125 0
M  V30 1703 H 162.114 6.45368 -0.913444 0
M  V30 1704 N 165.547 1.27147 0.931209 0
M  V30 1705 C 166.775 1.16082 1.71267 0
M  V30 1706 C 167.19 -0.282772 1.8667 0
M  V30 1707 O 166.547 -1.19283 1.38122 0
M  V30 1708 C 166.598 1.8358 3.11417 0
M  V30 1709 O 166.319 3.22299 2.96741 0
M  V30 1710 C 167.82 1.78597 4.05732 0
M  V30 1711 H 165.04 0.403758 0.535929 0
M  V30 1712 H 167.584 1.67953 1.16671 0
M  V30 1713 H 165.739 1.35623 3.62885 0
M  V30 1714 H 166.153 3.55851 3.85319 0
M  V30 1715 H 167.627 2.30444 5.01597 0
M  V30 1716 H 168.104 0.754564 4.3267 0
M  V30 1717 H 168.71 2.26152 3.60188 0
M  V30 1718 N 167.025 -1.13721 1.09112 0
M  V30 1719 C 168.271 -1.85198 0.826414 0
M  V30 1720 C 168.604 -1.83129 -0.646319 0
M  V30 1721 O 167.879 -1.2671 -1.47563 0
M  V30 1722 C 168.162 -3.33507 1.35812 0
M  V30 1723 C 168.015 -3.44108 2.89672 0
M  V30 1724 C 169.334 -4.28838 0.989256 0
M  V30 1725 H 166.453 -0.67243 0.301675 0
M  V30 1726 H 169.095 -1.33499 1.35197 0
M  V30 1727 H 167.245 -3.77666 0.911082 0
M  V30 1728 H 168.917 -3.08684 3.428 0
M  V30 1729 H 167.16 -2.85087 3.26967 0
M  V30 1730 H 167.831 -4.48388 3.21951 0
M  V30 1731 H 170.307 -3.92734 1.37475 0
M  V30 1732 H 169.183 -5.31051 1.38838 0
M  V30 1733 H 169.444 -4.4198 -0.102924 0
M  V30 1734 N 168.503 -0.877838 -1.30888 0
M  V30 1735 C 169.435 -0.296607 -2.27273 0
M  V30 1736 C 170.448 0.544799 -1.53414 0
M  V30 1737 O 171.637 0.365511 -1.74718 0
M  V30 1738 C 168.737 0.597481 -3.33592 0
M  V30 1739 C 167.91 -0.213251 -4.3688 0
M  V30 1740 C 166.969 0.610208 -5.2265 0
M  V30 1741 O 165.995 0.035441 -5.69189 0
M  V30 1742 N 167.197 1.92071 -5.47804 0
M  V30 1743 H 169.962 -1.12492 -2.77787 0
M  V30 1744 H 167.523 -0.740105 -1.43993 0
M  V30 1745 H 169.515 1.15425 -3.87891 0
M  V30 1746 H 168.085 1.32647 -2.83061 0
M  V30 1747 H 167.305 -0.951466 -3.82545 0
M  V30 1748 H 168.593 -0.769262 -5.02951 0
M  V30 1749 H 167.991 2.4107 -5.11763 0
M  V30 1750 H 166.548 2.42508 -6.05007 0
M  V30 1751 N 169.982 1.44106 -0.638065 0
M  V30 1752 C 171.229 2.01978 -0.14533 0
M  V30 1753 C 171.557 1.50234 1.23532 0
M  V30 1754 O 170.812 0.679548 1.83523 0
M  V30 1755 C 171.111 3.5729 -0.0887327 0
M  V30 1756 C 170.777 4.28317 -1.40909 0
M  V30 1757 C 169.439 4.47437 -1.77069 0
M  V30 1758 C 171.791 4.6867 -2.28031 0
M  V30 1759 C 169.119 5.04171 -3.00047 0
M  V30 1760 C 171.471 5.26766 -3.50286 0
M  V30 1761 C 170.135 5.44104 -3.86661 0
M  V30 1762 H 169.405 0.739089 -0.0531801 0
M  V30 1763 H 172.052 1.72781 -0.825761 0
M  V30 1764 H 170.357 3.8594 0.675095 0
M  V30 1765 H 172.054 3.99807 0.309145 0
M  V30 1766 H 168.644 4.1377 -1.1177 0
M  V30 1767 H 172.828 4.53604 -2.01388 0
M  V30 1768 H 168.084 5.15782 -3.28298 0
M  V30 1769 H 172.258 5.56983 -4.18023 0
M  V30 1770 H 169.885 5.87832 -4.82034 0
M  V30 1771 N 171.46 0.379036 1.52974 0
M  V30 1772 C 172.39 -0.452706 2.29069 0
M  V30 1773 C 173.371 -1.07237 1.32039 0
M  V30 1774 O 174.556 -1.08708 1.60923 0
M  V30 1775 C 171.686 -1.5856 3.08992 0
M  V30 1776 C 170.64 -1.0925 4.13822 0
M  V30 1777 C 169.966 -2.31668 4.81907 0
M  V30 1778 C 171.266 -0.167702 5.22031 0
M  V30 1779 H 172.96 0.182181 2.98845 0
M  V30 1780 H 170.506 0.0890592 1.43724 0
M  V30 1781 H 172.459 -2.1742 3.6098 0
M  V30 1782 H 171.183 -2.24792 2.36931 0
M  V30 1783 H 169.842 -0.526494 3.628 0
M  V30 1784 H 169.49 -2.96386 4.06404 0
M  V30 1785 H 169.19 -1.9934 5.52754 0
M  V30 1786 H 170.714 -2.91189 5.36695 0
M  V30 1787 H 172.128 -0.664186 5.6944 0
M  V30 1788 H 170.525 0.0653265 6.00064 0
M  V30 1789 H 171.595 0.786347 4.78482 0
M  V30 1790 N 172.938 -1.57226 0.108567 0
M  V30 1791 C 173.868 -2.17778 -0.84232 0
M  V30 1792 C 174.849 -1.11487 -1.2847 0
M  V30 1793 O 176.034 -1.39681 -1.34918 0
M  V30 1794 C 173.164 -2.76888 -2.09644 0
M  V30 1795 C 172.118 -3.88669 -1.79221 0
M  V30 1796 C 171.444 -4.34541 -3.11574 0
M  V30 1797 C 172.744 -5.11251 -1.06864 0
M  V30 1798 H 174.438 -2.97489 -0.337774 0
M  V30 1799 H 171.984 -1.43097 -0.161025 0
M  V30 1800 H 173.937 -3.17904 -2.76614 0
M  V30 1801 H 172.661 -1.94451 -2.62405 0
M  V30 1802 H 171.32 -3.48213 -1.14644 0
M  V30 1803 H 170.968 -3.48977 -3.62249 0
M  V30 1804 H 170.668 -5.09914 -2.91996 0
M  V30 1805 H 172.192 -4.782 -3.7968 0
M  V30 1806 H 173.606 -5.49352 -1.63968 0
M  V30 1807 H 172.003 -5.9214 -0.974178 0
M  V30 1808 H 173.073 -4.8487 -0.0536168 0
M  V30 1809 N 174.416 0.165178 -1.56732 0
M  V30 1810 C 175.326 1.22423 -2.00125 0
M  V30 1811 C 176.342 1.48084 -0.913619 0
M  V30 1812 O 177.518 1.60112 -1.22172 0
M  V30 1813 C 174.583 2.54197 -2.35764 0
M  V30 1814 C 173.644 2.36343 -3.58386 0
M  V30 1815 C 172.877 3.61834 -3.92316 0
M  V30 1816 O 173.1 4.67267 -3.27135 0
M  V30 1817 O 172.034 3.55579 -4.85641 0
M  V30 1818 H 175.86 0.885886 -2.90492 0
M  V30 1819 H 173.445 0.372518 -1.44681 0
M  V30 1820 H 175.327 3.3192 -2.59629 0
M  V30 1821 H 174.002 2.87598 -1.48557 0
M  V30 1822 H 172.909 1.56632 -3.39731 0
M  V30 1823 H 174.242 2.07865 -4.46154 0
M  V30 1824 N 175.894 1.51508 0.433938 0
M  V30 1825 C 177.14 1.64588 1.18484 0
M  V30 1826 C 177.473 0.362666 1.90784 0
M  V30 1827 O 176.748 -0.637892 1.83742 0
M  V30 1828 C 177.031 2.85149 2.19913 0
M  V30 1829 C 176.884 4.23456 1.51674 0
M  V30 1830 C 178.203 3.01227 3.20858 0
M  V30 1831 H 175.322 0.598994 0.429389 0
M  V30 1832 H 177.964 1.84002 0.473647 0
M  V30 1833 H 176.114 2.68729 2.80566 0
M  V30 1834 H 177.786 4.51552 0.943322 0
M  V30 1835 H 176.029 4.25998 0.819035 0
M  V30 1836 H 176.7 5.03812 2.2556 0
M  V30 1837 H 179.176 3.16382 2.70263 0
M  V30 1838 H 178.052 3.87141 3.89118 0
M  V30 1839 H 178.313 2.13447 3.8716 0
M  V30 1840 N 177.372 -0.689602 1.41712 0
M  V30 1841 C 178.618 -1.45181 1.41599 0
M  V30 1842 C 178.951 -1.94181 0.0270081 0
M  V30 1843 O 178.226 -1.6993 -0.946265 0
M  V30 1844 C 178.509 -2.65945 2.42787 0
M  V30 1845 C 178.362 -2.22672 3.90816 0
M  V30 1846 C 179.681 -3.68149 2.41151 0
M  V30 1847 H 176.8 -0.526576 0.515642 0
M  V30 1848 H 179.442 -0.784947 1.73028 0
M  V30 1849 H 177.592 -3.2284 2.16116 0
M  V30 1850 H 179.264 -1.71058 4.28412 0
M  V30 1851 H 177.507 -1.54394 4.05395 0
M  V30 1852 H 178.178 -3.0935 4.57172 0
M  V30 1853 H 180.654 -3.2094 2.64834 0
M  V30 1854 H 179.53 -4.50248 3.13955 0
M  V30 1855 H 179.791 -4.18259 1.43221 0
M  V30 1856 N 178.85 -1.27639 -0.924453 0
M  V30 1857 C 180.127 -1.04887 -1.651 0
M  V30 1858 C 180.507 0.415327 -2.06974 0
M  V30 1859 O 179.855 1.39923 -1.80648 0
M  V30 1860 C 180.065 -2.01348 -2.85061 0
M  V30 1861 C 181.413 -2.30899 -3.56329 0
M  V30 1862 O 182.437 -1.99348 -2.95193 0
M  V30 1863 O 181.296 -2.84699 -4.66485 0
M  V30 1864 H 178.39 -0.400083 -0.723784 0
M  V30 1865 H 180.936 -1.38916 -0.974703 0
M  V30 1866 H 179.708 -3.0008 -2.51133 0
M  V30 1867 H 179.331 -1.679 -3.6041 0
M  V30 1868 N 180.328 1.1314 -1.09713 0
M  V30 1869 C 181.577 1.83838 -0.829851 0
M  V30 1870 C 181.89 1.84599 0.646728 0
M  V30 1871 O 183.096 2.51218 1.02965 0
M  V30 1872 C 181.552 3.30069 -1.43466 0
M  V30 1873 C 181.16 3.37688 -2.94399 0
M  V30 1874 C 182.904 4.05788 -1.24645 0
M  V30 1875 C 180.811 4.78209 -3.47952 0
M  V30 1876 H 179.741 0.68877 -0.306777 0
M  V30 1877 H 182.392 1.27448 -1.3202 0
M  V30 1878 H 180.774 3.8628 -0.871996 0
M  V30 1879 H 181.948 2.91456 -3.56918 0
M  V30 1880 H 180.263 2.75436 -3.12289 0
M  V30 1881 H 182.86 5.09535 -1.62107 0
M  V30 1882 H 183.203 4.15878 -0.187357 0
M  V30 1883 H 183.736 3.55915 -1.77678 0
M  V30 1884 H 180.475 4.73311 -4.53495 0
M  V30 1885 H 179.995 5.24924 -2.90198 0
M  V30 1886 H 181.674 5.47133 -3.45332 0
M  V30 1887 N 181.806 0.884767 1.30421 0
M  V30 1888 C 182.736 0.367574 2.30589 0
M  V30 1889 C 183.717 -0.549464 1.60981 0
M  V30 1890 O 184.902 -0.46336 1.88591 0
M  V30 1891 C 182.032 -0.418944 3.44764 0
M  V30 1892 C 180.986 0.406316 4.26067 0
M  V30 1893 C 180.312 -0.506793 5.32293 0
M  V30 1894 C 181.612 1.64832 4.95608 0
M  V30 1895 H 183.306 1.20462 2.74097 0
M  V30 1896 H 180.852 0.580695 1.31772 0
M  V30 1897 H 182.805 -0.791395 4.13902 0
M  V30 1898 H 181.529 -1.28964 3.0006 0
M  V30 1899 H 180.188 0.760903 3.58617 0
M  V30 1900 H 179.836 -1.37519 4.83836 0
M  V30 1901 H 179.536 0.0415828 5.87585 0
M  V30 1902 H 181.06 -0.875764 6.04287 0
M  V30 1903 H 182.474 1.34646 5.57264 0
M  V30 1904 H 180.871 2.13688 5.60765 0
M  V30 1905 H 181.941 2.39284 4.21748 0
M  V30 1906 N 183.284 -1.43765 0.645699 0
M  V30 1907 C 184.214 -2.33471 -0.0370477 0
M  V30 1908 C 185.195 -1.49042 -0.819779 0
M  V30 1909 O 186.38 -1.77726 -0.782758 0
M  V30 1910 C 183.51 -3.32311 -1.0093 0
M  V30 1911 C 182.464 -4.2667 -0.337201 0
M  V30 1912 C 181.79 -5.1549 -1.42037 0
M  V30 1913 C 183.09 -5.16657 0.765706 0
M  V30 1914 H 184.784 -2.90809 0.712069 0
M  V30 1915 H 182.33 -1.39834 0.343876 0
M  V30 1916 H 184.283 -3.9396 -1.49578 0
M  V30 1917 H 183.007 -2.73213 -1.78948 0
M  V30 1918 H 181.666 -3.66374 0.128771 0
M  V30 1919 H 181.314 -4.52735 -2.1918 0
M  V30 1920 H 181.014 -5.79438 -0.975966 0
M  V30 1921 H 182.538 -5.80012 -1.90838 0
M  V30 1922 H 183.952 -5.72158 0.361702 0
M  V30 1923 H 182.349 -5.89286 1.13413 0
M  V30 1924 H 183.419 -4.56796 1.62683 0
M  V30 1925 N 184.763 -0.387143 -1.52771 0
M  V30 1926 C 185.711 0.463953 -2.27926 0
M  V30 1927 C 186.705 1.06493 -1.31741 0
M  V30 1928 O 187.911 1.00565 -1.49287 0
M  V30 1929 H 184.286 0.16837 -0.732909 0
M  V30 1930 H 186.257 -0.19141 -2.97785 0
M  V30 1931 C 185.006 1.5803 -3.09713 0
M  V30 1932 H 184.329 1.12718 -3.83581 0
M  V30 1933 H 185.769 2.15008 -3.65442 0
M  V30 1934 C 184.228 2.53509 -2.2189 0
M  V30 1935 O 184.758 3.56863 -1.84422 0
M  V30 1936 N 182.964 2.23199 -1.86093 0
M  V30 1937 H 182.511 1.39185 -2.16761 0
M  V30 1938 H 182.469 2.87333 -1.27621 0
M  V30 1939 N 186.241 1.57166 -0.116904 0
M  V30 1940 C 187.471 1.99184 0.548586 0
M  V30 1941 C 187.879 0.995436 1.60897 0
M  V30 1942 O 187.222 -0.0201293 1.83689 0
M  V30 1943 C 187.284 3.37611 1.23526 0
M  V30 1944 C 186.948 4.55857 0.323077 0
M  V30 1945 C 187.945 5.18056 -0.437476 0
M  V30 1946 C 185.63 5.01751 0.234761 0
M  V30 1947 C 187.624 6.24536 -1.2741 0
M  V30 1948 C 185.311 6.08093 -0.605496 0
M  V30 1949 C 186.309 6.69352 -1.35856 0
M  V30 1950 O 185.997 7.7364 -2.18487 0
M  V30 1951 H 185.729 0.659148 0.149999 0
M  V30 1952 H 188.283 2.0443 -0.199428 0
M  V30 1953 H 186.513 3.29113 2.0303 0
M  V30 1954 H 188.202 3.63932 1.79745 0
M  V30 1955 H 188.968 4.83516 -0.379105 0
M  V30 1956 H 184.847 4.53817 0.810601 0
M  V30 1957 H 188.391 6.72281 -1.86237 0
M  V30 1958 H 184.288 6.42063 -0.665268 0
M  V30 1959 H 185.056 7.90727 -2.11406 0
M  V30 1960 N 187.719 -0.156864 1.56817 0
M  V30 1961 C 188.965 -0.872416 1.83076 0
M  V30 1962 C 189.298 -1.81261 0.697001 0
M  V30 1963 O 188.573 -1.92171 -0.30008 0
M  V30 1964 C 188.856 -1.65551 3.19789 0
M  V30 1965 C 188.709 -0.737467 4.43713 0
M  V30 1966 C 190.028 -2.62012 3.53606 0
M  V30 1967 H 187.147 -0.315715 0.665953 0
M  V30 1968 H 189.789 -0.138004 1.89498 0
M  V30 1969 H 187.939 -2.28159 3.14445 0
M  V30 1970 H 189.611 -0.123143 4.61136 0
M  V30 1971 H 187.854 -0.0464067 4.33775 0
M  V30 1972 H 188.525 -1.32122 5.35955 0
M  V30 1973 H 191.001 -2.09525 3.59497 0
M  V30 1974 H 189.877 -3.13861 4.50314 0
M  V30 1975 H 190.138 -3.42902 2.79053 0
M  V30 1976 N 189.197 -1.51736 -0.425897 0
M  V30 1977 C 190.613 -1.40166 -0.76326 0
M  V30 1978 C 190.813 -0.492962 -1.95377 0
M  V30 1979 O 189.869 0.0475815 -2.52455 0
M  V30 1980 C 191.182 -2.82403 -1.03291 0
M  V30 1981 C 192.73 -2.91632 -1.13665 0
M  V30 1982 C 193.205 -4.34801 -1.43916 0
M  V30 1983 N 194.696 -4.3796 -1.50816 0
M  V30 1984 C 195.431 -5.4578 -1.75817 0
M  V30 1985 N 194.927 -6.63744 -1.98534 0
M  V30 1986 N 196.72 -5.33274 -1.77694 0
M  V30 1987 H 188.871 -2.09361 0.358 0
M  V30 1988 H 191.134 -0.942941 0.0978094 0
M  V30 1989 H 190.84 -3.50943 -0.230696 0
M  V30 1990 H 190.714 -3.22428 -1.95754 0
M  V30 1991 H 193.101 -2.23284 -1.92947 0
M  V30 1992 H 193.182 -2.55088 -0.190756 0
M  V30 1993 H 192.826 -5.03703 -0.65157 0
M  V30 1994 H 192.756 -4.68868 -2.39729 0
M  V30 1995 H 195.247 -3.52919 -1.35118 0
M  V30 1996 H 195.56 -7.41704 -2.17013 0
M  V30 1997 H 193.905 -6.66839 -1.95832 0
M  V30 1998 H 197.096 -4.40098 -1.59473 0
M  V30 1999 H 197.269 -6.1738 -1.9684 0
M  V30 2000 N 190.675 0.682077 -1.42076 0
M  V30 2001 C 191.622 1.79578 -1.44984 0
M  V30 2002 C 192.592 1.6332 -0.302614 0
M  V30 2003 O 193.777 1.83978 -0.505633 0
M  V30 2004 C 190.917 3.1756 -1.35091 0
M  V30 2005 C 190.03 3.45156 -2.59791 0
M  V30 2006 C 189.165 4.72826 -2.42093 0
M  V30 2007 C 188.204 4.93433 -3.62202 0
M  V30 2008 N 187.341 6.12338 -3.43491 0
M  V30 2009 H 192.181 1.76427 -2.40161 0
M  V30 2010 H 189.718 0.861376 -1.19242 0
M  V30 2011 H 191.676 3.97287 -1.27354 0
M  V30 2012 H 190.306 3.19854 -0.435133 0
M  V30 2013 H 189.358 2.59736 -2.77923 0
M  V30 2014 H 190.67 3.5628 -3.49094 0
M  V30 2015 H 189.824 5.60631 -2.319 0
M  V30 2016 H 188.563 4.63973 -1.50268 0
M  V30 2017 H 187.568 4.04073 -3.72834 0
M  V30 2018 H 188.793 5.04136 -4.54998 0
M  V30 2019 H 186.739 6.04672 -2.54377 0
M  V30 2020 H 186.656 6.2429 -4.26377 0
M  V30 2021 H 187.924 7.02841 -3.37097 0
M  V30 2022 N 192.153 1.28127 0.917671 0
M  V30 2023 C 193.381 1.17892 1.70026 0
M  V30 2024 C 193.796 -0.262958 1.8696 0
M  V30 2025 O 193.153 -1.17811 1.3938 0
M  V30 2026 C 193.204 1.86872 3.09453 0
M  V30 2027 O 192.925 3.25428 2.93306 0
M  V30 2028 C 194.426 1.8289 4.03815 0
M  V30 2029 H 191.646 0.40942 0.531617 0
M  V30 2030 H 194.19 1.69181 1.14883 0
M  V30 2031 H 192.345 1.39464 3.61426 0
M  V30 2032 H 192.759 3.59918 3.81523 0
M  V30 2033 H 194.233 2.35751 4.99125 0
M  V30 2034 H 194.71 0.800412 4.31845 0
M  V30 2035 H 195.316 2.29959 3.57769 0
M  V30 2036 N 193.631 -1.12557 1.10312 0
M  V30 2037 C 194.878 -1.84038 0.844759 0
M  V30 2038 C 195.206 -1.84026 -0.629668 0
M  V30 2039 O 194.461 -1.28026 -1.48013 0
M  V30 2040 C 194.76 -3.31462 1.33669 0
M  V30 2041 C 194.426 -3.51647 2.82232 0
M  V30 2042 C 193.088 -3.56864 3.22802 0
M  V30 2043 C 195.44 -3.58867 3.77974 0
M  V30 2044 C 192.768 -3.66844 4.57867 0
M  V30 2045 C 195.12 -3.70375 5.1284 0
M  V30 2046 C 193.784 -3.73848 5.52986 0
M  V30 2047 H 193.054 -0.673444 0.309119 0
M  V30 2048 H 195.701 -1.32824 1.37949 0
M  V30 2049 H 194.006 -3.85091 0.721949 0
M  V30 2050 H 195.703 -3.85236 1.11329 0
M  V30 2051 H 192.293 -3.48249 2.49842 0
M  V30 2052 H 196.477 -3.54107 3.47738 0
M  V30 2053 H 191.733 -3.67804 4.88396 0
M  V30 2054 H 195.907 -3.74904 5.86873 0
M  V30 2055 H 193.534 -3.81333 6.57639 0
M  V30 2056 N 195.109 -0.891671 -1.2995 0
M  V30 2057 C 196.386 -0.433307 -1.9074 0
M  V30 2058 C 196.766 1.08646 -1.80995 0
M  V30 2059 O 196.114 1.92476 -1.23147 0
M  V30 2060 C 196.324 -0.938895 -3.36134 0
M  V30 2061 C 197.672 -0.977829 -4.13187 0
M  V30 2062 O 198.696 -0.886015 -3.45005 0
M  V30 2063 O 197.555 -1.11453 -5.35015 0
M  V30 2064 H 194.649 -0.133699 -0.816121 0
M  V30 2065 H 197.195 -0.981011 -1.38471 0
M  V30 2066 H 195.967 -1.98281 -3.37343 0
M  V30 2067 H 195.59 -0.37074 -3.95868 0
M  V30 2068 N 196.587 1.43421 -0.653314 0
M  V30 2069 C 198.003 1.56341 -0.320886 0
M  V30 2070 C 198.203 1.63696 1.17499 0
M  V30 2071 O 197.259 1.59208 1.95982 0
M  V30 2072 C 198.572 2.82424 -1.03233 0
M  V30 2073 C 200.12 2.96168 -1.01259 0
M  V30 2074 C 200.595 4.25084 -1.70492 0
M  V30 2075 N 202.086 4.31948 -1.67257 0
M  V30 2076 C 202.821 5.30466 -2.17701 0
M  V30 2077 N 202.317 6.35261 -2.76434 0
M  V30 2078 N 204.11 5.2212 -2.082 0
M  V30 2079 H 196.261 1.3689 -1.62403 0
M  V30 2080 H 198.524 0.657455 -0.682977 0
M  V30 2081 H 198.23 2.83053 -2.08744 0
M  V30 2082 H 198.104 3.72653 -0.583948 0
M  V30 2083 H 200.491 2.9508 0.0341235 0
M  V30 2084 H 200.572 2.07229 -1.49966 0
M  V30 2085 H 200.216 4.26932 -2.7512 0
M  V30 2086 H 200.146 5.1292 -1.19251 0
M  V30 2087 H 202.637 3.56838 -1.24398 0
M  V30 2088 H 202.95 7.06754 -3.12601 0
M  V30 2089 H 201.295 6.35884 -2.80495 0
M  V30 2090 H 204.486 4.39166 -1.62021 0
M  V30 2091 H 204.659 5.98739 -2.47822 0
M  V30 2092 N 198.065 0.39524 1.52563 0
M  V30 2093 C 199.29 -0.187456 2.06551 0
M  V30 2094 C 199.715 -1.39249 1.26457 0
M  V30 2095 O 199.073 -1.78947 0.291151 0
M  V30 2096 C 199.121 -0.529985 3.56684 0
M  V30 2097 O 198.225 -1.62307 3.79118 0
M  V30 2098 H 197.566 -0.0202537 0.663691 0
M  V30 2099 H 200.096 0.564426 1.96661 0
M  V30 2100 H 200.106 -0.792598 4.00227 0
M  V30 2101 H 198.781 0.350987 4.14416 0
M  V30 2102 H 197.358 -1.3537 3.47461 0
M  V30 2103 N 199.544 -1.57102 0.125237 0
M  V30 2104 C 200.772 -1.99761 -0.538797 0
M  V30 2105 C 201.187 -1.00503 -1.59827 0
M  V30 2106 O 200.544 0.00119474 -1.825 0
M  V30 2107 C 200.595 -3.42408 -1.15927 0
M  V30 2108 O 200.316 -4.37869 -0.142143 0
M  V30 2109 C 201.817 -4.00232 -1.90602 0
M  V30 2110 H 199.037 -0.655772 -0.14214 0
M  V30 2111 H 201.581 -2.03383 0.213413 0
M  V30 2112 H 199.736 -3.39706 -1.86223 0
M  V30 2113 H 200.15 -5.21128 -0.593775 0
M  V30 2114 H 201.624 -5.02105 -2.29335 0
M  V30 2115 H 202.101 -3.39721 -2.78363 0
M  V30 2116 H 202.707 -4.06499 -1.25055 0
M  V30 2117 N 201.022 0.148545 -1.56898 0
M  V30 2118 C 201.969 1.18345 -1.98149 0
M  V30 2119 C 202.939 1.42772 -0.848848 0
M  V30 2120 O 204.124 1.55132 -1.11079 0
M  V30 2121 C 201.264 2.51231 -2.36594 0
M  V30 2122 C 200.377 2.33991 -3.63142 0
M  V30 2123 C 199.512 3.59902 -3.90697 0
M  V30 2124 C 198.551 3.37692 -5.1052 0
M  V30 2125 N 197.688 4.5573 -5.34092 0
M  V30 2126 H 202.528 0.82467 -2.86362 0
M  V30 2127 H 200.065 0.395756 -1.41676 0
M  V30 2128 H 202.023 3.28713 -2.56912 0
M  V30 2129 H 200.653 2.85059 -1.51463 0
M  V30 2130 H 199.705 1.47572 -3.50609 0
M  V30 2131 H 201.017 2.13539 -4.5078 0
M  V30 2132 H 200.171 4.45813 -4.11505 0
M  V30 2133 H 198.91 3.83357 -3.01477 0
M  V30 2134 H 197.915 2.5017 -4.89587 0
M  V30 2135 H 199.14 3.15637 -6.0129 0
M  V30 2136 H 197.086 4.79361 -4.47827 0
M  V30 2137 H 197.003 4.38274 -6.15996 0
M  V30 2138 H 198.271 5.42858 -5.59397 0
M  V30 2139 N 202.5 1.5196 0.417844 0
M  V30 2140 C 203.746 1.65836 1.16732 0
M  V30 2141 C 204.079 0.382881 1.90388 0
M  V30 2142 O 203.354 -0.618368 1.84408 0
M  V30 2143 C 203.637 2.87466 2.16876 0
M  V30 2144 C 203.49 4.25041 1.47174 0
M  V30 2145 C 204.809 3.04613 3.17646 0
M  V30 2146 H 201.928 0.603515 0.423011 0
M  V30 2147 H 204.57 1.84494 0.454105 0
M  V30 2148 H 202.72 2.71689 2.777 0
M  V30 2149 H 204.392 4.52527 0.895376 0
M  V30 2150 H 202.635 4.26843 0.773806 0
M  V30 2151 H 203.306 5.06176 2.20204 0
M  V30 2152 H 205.782 3.1923 2.66892 0
M  V30 2153 H 204.658 3.91247 3.8499 0
M  V30 2154 H 204.919 2.17541 3.84874 0
M  V30 2155 N 203.978 -0.674533 1.42435 0
M  V30 2156 C 204.908 -1.80009 1.48724 0
M  V30 2157 C 205.889 -1.6659 0.343793 0
M  V30 2158 O 207.074 -1.86007 0.558137 0
M  V30 2159 C 204.204 -3.18306 1.38919 0
M  V30 2160 C 203.158 -3.46461 2.51294 0
M  V30 2161 C 202.484 -4.84335 2.26547 0
M  V30 2162 C 203.784 -3.43328 3.93603 0
M  V30 2163 H 205.478 -1.75004 2.42928 0
M  V30 2164 H 203.024 -0.840533 1.16923 0
M  V30 2165 H 204.977 -3.9678 1.41927 0
M  V30 2166 H 203.701 -3.2399 0.412094 0
M  V30 2167 H 202.36 -2.70348 2.47604 0
M  V30 2168 H 202.008 -4.86669 1.2713 0
M  V30 2169 H 201.708 -5.04136 3.01861 0
M  V30 2170 H 203.232 -5.65094 2.31304 0
M  V30 2171 H 204.646 -4.11772 3.98894 0
M  V30 2172 H 203.043 -3.74664 4.68771 0
M  V30 2173 H 204.113 -2.41897 4.20255 0
M  V30 2174 N 205.456 -1.28612 -0.910864 0
M  V30 2175 C 206.733 -1.06632 -1.63979 0
M  V30 2176 C 207.113 0.393351 -2.07403 0
M  V30 2177 O 206.461 1.37999 -1.82122 0
M  V30 2178 C 206.671 -2.0436 -2.8291 0
M  V30 2179 C 208.019 -2.34666 -3.5386 0
M  V30 2180 O 209.043 -2.02467 -2.93062 0
M  V30 2181 O 207.902 -2.89631 -4.63439 0
M  V30 2182 H 204.996 -0.407737 -0.7195 0
M  V30 2183 H 207.542 -1.39942 -0.959914 0
M  V30 2184 H 206.314 -3.02727 -2.47936 0
M  V30 2185 H 205.937 -1.71714 -3.58609 0
M  V30 2186 N 206.934 1.1197 -1.10907 0
M  V30 2187 C 208.181 1.83588 -0.854507 0
M  V30 2188 C 208.509 1.84357 0.6199 0
M  V30 2189 O 207.764 1.28809 1.47332 0
M  V30 2190 C 208.063 3.30749 -1.35425 0
M  V30 2191 C 207.729 3.50146 -2.84093 0
M  V30 2192 C 206.391 3.55148 -3.2469 0
M  V30 2193 C 208.743 3.56857 -3.79872 0
M  V30 2194 C 206.071 3.6441 -4.59806 0
M  V30 2195 C 208.423 3.6765 -5.14797 0
M  V30 2196 C 207.087 3.7091 -5.54961 0
M  V30 2197 H 206.357 0.671795 -0.312686 0
M  V30 2198 H 209.004 1.32091 -1.38652 0
M  V30 2199 H 207.309 3.84703 -0.742361 0
M  V30 2200 H 209.006 3.8464 -1.1337 0
M  V30 2201 H 205.596 3.46919 -2.51685 0
M  V30 2202 H 209.78 3.52258 -3.49611 0
M  V30 2203 H 205.036 3.65208 -4.9034 0
M  V30 2204 H 209.21 3.71786 -5.88853 0
M  V30 2205 H 206.837 3.7784 -6.59652 0
M  V30 2206 N 208.412 0.89855 1.29475 0
M  V30 2207 C 209.362 0.346767 2.25348 0
M  V30 2208 C 210.346 -0.532509 1.51833 0
M  V30 2209 O 211.538 -0.374714 1.72988 0
M  V30 2210 C 208.667 -0.425681 3.40651 0
M  V30 2211 C 207.753 0.46845 4.21505 0
M  V30 2212 N 208.144 1.57514 4.80648 0
M  V30 2213 C 206.442 0.26603 4.45206 0
M  V30 2214 C 207.143 2.12889 5.41344 0
M  V30 2215 N 206.119 1.42208 5.24669 0
M  V30 2216 H 209.921 1.19219 2.68634 0
M  V30 2217 H 207.435 0.749473 1.44072 0
M  V30 2218 H 209.432 -0.837716 4.08397 0
M  V30 2219 H 208.092 -1.26838 2.98902 0
M  V30 2220 H 209.103 1.95789 4.79465 0
M  V30 2221 H 205.78 -0.538394 4.14014 0
M  V30 2222 H 207.17 3.05901 5.98226 0
M  V30 2223 N 209.89 -1.43072 0.660911 0
M  V30 2224 C 210.84 -2.27948 -0.04847 0
M  V30 2225 C 211.824 -1.40325 -0.787246 0
M  V30 2226 O 213.016 -1.63893 -0.668446 0
M  V30 2227 C 210.145 -3.28143 -1.00881 0
M  V30 2228 C 209.231 -4.23252 -0.268108 0
M  V30 2229 N 209.622 -5.00656 0.719528 0
M  V30 2230 C 207.92 -4.43092 -0.508493 0
M  V30 2231 C 208.621 -5.70019 1.15988 0
M  V30 2232 N 207.597 -5.41364 0.492584 0
M  V30 2233 H 211.399 -2.85213 0.709279 0
M  V30 2234 H 208.913 -1.54869 0.488822 0
M  V30 2235 H 210.91 -3.87736 -1.53188 0
M  V30 2236 H 209.57 -2.7244 -1.76654 0
M  V30 2237 H 210.581 -5.06115 1.09855 0
M  V30 2238 H 207.258 -3.98449 -1.24679 0
M  V30 2239 H 208.648 -6.4214 1.97751 0
M  V30 2240 N 211.368 -0.403325 -1.52352 0
M  V30 2241 C 212.779 0.0675782 -1.86578 0
M  V30 2242 C 213.13 1.44941 -1.32236 0
M  V30 2243 O 212.255 2.06112 -0.659307 0
M  V30 2244 C 212.85 0.129404 -3.38553 0
M  V30 2245 C 211.409 0.544629 -3.72439 0
M  V30 2246 C 210.556 -0.284551 -2.75836 0
M  V30 2247 H 213.507 -0.620631 -1.46061 0
M  V30 2248 H 213.528 0.94581 -3.68558 0
M  V30 2249 H 213.04 -0.87645 -3.78074 0
M  V30 2250 H 211.141 1.55734 -3.38493 0
M  V30 2251 H 211.254 0.293046 -4.78203 0
M  V30 2252 H 209.618 0.252258 -2.53448 0
M  V30 2253 H 210.401 -1.28865 -3.18196 0
M  V30 2254 N 212.846 1.57033 -0.133567 0
M  V30 2255 C 213.796 2.12641 0.822671 0
M  V30 2256 C 214.78 1.05081 1.21847 0
M  V30 2257 O 215.972 1.31287 1.18713 0
M  V30 2258 C 213.101 2.74094 2.06706 0
M  V30 2259 C 212.187 3.88757 1.69497 0
M  V30 2260 N 212.578 4.95194 1.03037 0
M  V30 2261 C 210.876 3.99213 1.98859 0
M  V30 2262 C 211.577 5.75414 0.852873 0
M  V30 2263 N 210.553 5.25726 1.3825 0
M  V30 2264 H 214.355 2.92308 0.305537 0
M  V30 2265 H 211.869 1.62256 0.0684276 0
M  V30 2266 H 213.866 3.12285 2.76195 0
M  V30 2267 H 212.526 1.95896 2.5895 0
M  V30 2268 H 213.537 5.13247 0.692669 0
M  V30 2269 H 210.214 3.32075 2.53047 0
M  V30 2270 H 211.604 6.71089 0.330091 0
M  V30 2271 N 214.325 -0.140222 1.56975 0
M  V30 2272 C 215.257 -1.19818 1.95388 0
M  V30 2273 C 216.27 -1.38816 0.850525 0
M  V30 2274 O 217.459 -1.38267 1.12891 0
M  V30 2275 C 214.559 -2.56189 2.21857 0
M  V30 2276 C 213.732 -2.58077 3.5315 0
M  V30 2277 C 212.791 -3.76037 3.6808 0
M  V30 2278 O 211.817 -3.60598 4.40406 0
M  V30 2279 N 213.019 -4.93763 3.05251 0
M  V30 2280 H 215.784 -0.871609 2.86746 0
M  V30 2281 H 213.345 -0.32972 1.58507 0
M  V30 2282 H 215.337 -3.33623 2.2908 0
M  V30 2283 H 213.907 -2.81111 1.36731 0
M  V30 2284 H 213.127 -1.6651 3.57307 0
M  V30 2285 H 214.415 -2.56377 4.39486 0
M  V30 2286 H 213.813 -5.09209 2.46419 0
M  V30 2287 H 212.37 -5.68949 3.18026 0
M  V30 2288 N 215.803 -1.52179 -0.40978 0
M  V30 2289 C 216.733 -1.78435 -1.5061 0
M  V30 2290 C 217.714 -0.635295 -1.57791 0
M  V30 2291 O 218.899 -0.880823 -1.73076 0
M  V30 2292 C 216.029 -1.93444 -2.88439 0
M  V30 2293 C 214.983 -3.09038 -2.96108 0
M  V30 2294 C 214.309 -3.09268 -4.36185 0
M  V30 2295 C 215.609 -4.48508 -2.67652 0
M  V30 2296 H 217.303 -2.70237 -1.28889 0
M  V30 2297 H 214.849 -1.30036 -0.618605 0
M  V30 2298 H 216.802 -2.10394 -3.65119 0
M  V30 2299 H 215.526 -0.983129 -3.11452 0
M  V30 2300 H 214.185 -2.91837 -2.21872 0
M  V30 2301 H 213.833 -2.11861 -4.56206 0
M  V30 2302 H 213.533 -3.86907 -4.42241 0
M  V30 2303 H 215.057 -3.28348 -5.14801 0
M  V30 2304 H 216.471 -4.65918 -3.34056 0
M  V30 2305 H 214.868 -5.28059 -2.85085 0
M  V30 2306 H 215.938 -4.56649 -1.63095 0
M  V30 2307 N 217.281 0.66697 -1.42791 0
M  V30 2308 C 218.211 1.79218 -1.49677 0
M  V30 2309 C 219.192 1.66405 -0.352623 0
M  V30 2310 O 220.377 1.85708 -0.567993 0
M  V30 2311 C 217.507 3.17565 -1.40605 0
M  V30 2312 C 216.461 3.45124 -2.53127 0
M  V30 2313 C 215.787 4.83127 -2.29112 0
M  V30 2314 C 217.087 3.41236 -3.95418 0
M  V30 2315 H 218.781 1.73713 -2.43853 0
M  V30 2316 H 216.327 0.83432 -1.17367 0
M  V30 2317 H 218.28 3.96022 -1.44029 0
M  V30 2318 H 217.004 3.23767 -0.429271 0
M  V30 2319 H 215.663 2.69031 -2.49034 0
M  V30 2320 H 215.311 4.85988 -1.29709 0
M  V30 2321 H 215.011 5.02528 -3.04531 0
M  V30 2322 H 216.535 5.63859 -2.34297 0
M  V30 2323 H 217.949 4.09651 -4.01073 0
M  V30 2324 H 216.346 3.72173 -4.70752 0
M  V30 2325 H 217.416 2.39665 -4.21532 0
M  V30 2326 N 218.759 1.29093 0.90403 0
M  V30 2327 C 219.669 1.15727 2.0407 0
M  V30 2328 C 220.685 0.0815308 1.73809 0
M  V30 2329 O 221.861 0.292749 1.99261 0
M  V30 2330 C 218.926 0.830424 3.36608 0
M  V30 2331 C 217.987 1.98955 3.80415 0
M  V30 2332 C 217.22 1.6782 5.06628 0
M  V30 2333 O 217.443 0.597105 5.67266 0
M  V30 2334 O 216.377 2.52486 5.46383 0
M  V30 2335 H 220.203 2.11171 2.18267 0
M  V30 2336 H 217.788 1.08504 1.027 0
M  V30 2337 H 219.67 0.662521 4.16159 0
M  V30 2338 H 218.345 -0.0942678 3.23563 0
M  V30 2339 H 217.252 2.21267 3.01648 0
M  V30 2340 H 218.585 2.89529 3.98037 0
M  V30 2341 N 220.237 -1.11381 1.11499 0
M  V30 2342 C 221.485 -1.8277 0.862524 0
M  V30 2343 C 221.806 -1.85097 -0.613534 0
M  V30 2344 O 221.076 -1.32198 -1.4457 0
M  V30 2345 H 219.656 -0.676823 0.316101 0
M  V30 2346 H 222.318 -1.34816 1.4075 0
M  V30 2347 H 221.414 -2.86614 1.23527 0
M  V30 2348 N 221.715 -0.905404 -1.28997 0
M  V30 2349 C 222.648 -0.331959 -2.25773 0
M  V30 2350 C 223.626 0.559099 -1.52685 0
M  V30 2351 O 224.81 0.50463 -1.8162 0
M  V30 2352 C 221.937 0.526276 -3.34586 0
M  V30 2353 C 220.983 -0.298249 -4.25456 0
M  V30 2354 S 221.816 -1.69968 -5.0781 0
M  V30 2355 C 222.972 -0.848519 -6.20122 0
M  V30 2356 H 223.205 -1.15222 -2.74064 0
M  V30 2357 H 220.738 -0.706112 -1.37308 0
M  V30 2358 H 222.696 1.01565 -3.97737 0
M  V30 2359 H 221.357 1.32084 -2.84978 0
M  V30 2360 H 220.55 0.357607 -5.0273 0
M  V30 2361 H 220.152 -0.720968 -3.66985 0
M  V30 2362 H 222.444 -0.0744325 -6.77459 0
M  V30 2363 H 223.387 -1.59353 -6.89937 0
M  V30 2364 H 223.795 -0.400383 -5.63078 0
M  V30 2365 N 223.193 1.4272 -0.668489 0
M  V30 2366 C 224.103 2.34596 0.0139753 0
M  V30 2367 C 225.119 1.5474 0.795703 0
M  V30 2368 O 226.295 1.87334 0.739466 0
M  V30 2369 C 223.36 3.33202 0.957982 0
M  V30 2370 C 222.421 4.28957 0.17149 0
M  V30 2371 C 221.654 5.22853 1.07053 0
M  V30 2372 O 221.877 5.21531 2.31001 0
M  V30 2373 O 220.811 5.9952 0.534727 0
M  V30 2374 H 224.637 2.9448 -0.742661 0
M  V30 2375 H 222.222 1.43117 -0.428705 0
M  V30 2376 H 224.104 3.93796 1.50008 0
M  V30 2377 H 222.779 2.758 1.69458 0
M  V30 2378 H 221.686 3.71796 -0.414558 0
M  V30 2379 H 223.019 4.89383 -0.52586 0
M  V30 2380 N 224.671 0.411399 1.52136 0
M  V30 2381 C 225.919 -0.163322 2.01439 0
M  V30 2382 C 226.24 -1.45453 1.29879 0
M  V30 2383 O 225.51 -1.91225 0.4254 0
M  V30 2384 H 224.09 -0.0633447 0.744309 0
M  V30 2385 H 226.752 0.548161 1.87033 0
M  V30 2386 H 225.848 -0.357817 3.10042 0
M  V30 2387 N 226.149 -1.5696 0.141893 0
M  V30 2388 C 227.396 -1.9596 -0.510492 0
M  V30 2389 C 227.724 -1.02648 -1.65208 0
M  V30 2390 O 226.979 -0.0546947 -1.95624 0
M  V30 2391 C 227.278 -3.41242 -1.06249 0
M  V30 2392 C 226.944 -4.50882 -0.0398791 0
M  V30 2393 C 225.606 -4.80595 0.241247 0
M  V30 2394 C 227.958 -5.17058 0.65578 0
M  V30 2395 C 225.286 -5.73792 1.22393 0
M  V30 2396 C 227.638 -6.11313 1.62724 0
M  V30 2397 C 226.302 -6.39407 1.91612 0
M  V30 2398 H 225.572 -0.717068 -0.186802 0
M  V30 2399 H 228.219 -1.90142 0.227643 0
M  V30 2400 H 226.524 -3.43866 -1.87785 0
M  V30 2401 H 228.221 -3.68742 -1.57576 0
M  V30 2402 H 224.811 -4.27754 -0.269174 0
M  V30 2403 H 228.995 -4.94239 0.451779 0
M  V30 2404 H 224.251 -5.93853 1.45424 0
M  V30 2405 H 228.425 -6.61668 2.17183 0
M  V30 2406 H 226.052 -7.11427 2.6791 0
M  V30 2407 N 227.627 0.131896 -1.57047 0
M  V30 2408 C 228.575 1.18146 -2.0036 0
M  V30 2409 C 229.569 1.43614 -0.898406 0
M  V30 2410 O 230.775 1.43729 -1.08361 0
M  V30 2411 H 227.15 0.398042 -0.638018 0
M  V30 2412 H 229.121 0.789564 -2.87765 0
M  V30 2413 C 227.87 2.50341 -2.41298 0
M  V30 2414 H 227.193 2.31578 -3.25902 0
M  V30 2415 H 228.633 3.22371 -2.75414 0
M  V30 2416 C 227.092 3.11984 -1.27153 0
M  V30 2417 O 227.622 3.97484 -0.580459 0
M  V30 2418 N 225.828 2.71662 -1.03189 0
M  V30 2419 H 225.375 2.02231 -1.59564 0
M  V30 2420 H 225.333 3.13238 -0.270077 0
M  V30 2421 N 229.106 1.52395 0.401703 0
M  V30 2422 C 230.036 1.79231 1.49661 0
M  V30 2423 C 231.017 0.643654 1.57452 0
M  V30 2424 O 232.202 0.889989 1.72606 0
M  V30 2425 C 229.332 1.94971 2.87409 0
M  V30 2426 C 228.286 3.10604 2.94465 0
M  V30 2427 C 227.612 3.11577 4.34538 0
M  V30 2428 C 228.912 4.49921 2.6527 0
M  V30 2429 H 230.606 2.70917 1.27454 0
M  V30 2430 H 228.152 1.30362 0.6117 0
M  V30 2431 H 230.105 2.12328 3.63999 0
M  V30 2432 H 228.829 0.999632 3.10926 0
M  V30 2433 H 227.488 2.93009 2.20321 0
M  V30 2434 H 227.136 2.14277 4.55076 0
M  V30 2435 H 226.836 3.89247 4.40183 0
M  V30 2436 H 228.36 3.31073 5.13053 0
M  V30 2437 H 229.774 4.67683 3.31581 0
M  V30 2438 H 228.171 5.29564 2.82281 0
M  V30 2439 H 229.241 4.57507 1.60671 0
M  V30 2440 N 230.584 -0.659388 1.43143 0
M  V30 2441 C 231.494 -1.80167 1.50256 0
M  V30 2442 C 232.51 -1.69571 0.390106 0
M  V30 2443 O 233.686 -1.90849 0.643319 0
M  V30 2444 C 230.751 -3.16409 1.41725 0
M  V30 2445 C 229.812 -3.38848 2.63591 0
M  V30 2446 C 229.045 -4.68591 2.55458 0
M  V30 2447 O 229.268 -5.47532 1.59891 0
M  V30 2448 O 228.202 -4.92614 3.45854 0
M  V30 2449 H 232.028 -1.77121 2.46702 0
M  V30 2450 H 229.613 -0.817092 1.25076 0
M  V30 2451 H 231.495 -3.9768 1.39387 0
M  V30 2452 H 230.17 -3.20059 0.484118 0
M  V30 2453 H 229.077 -2.57366 2.71502 0
M  V30 2454 H 230.41 -3.4004 3.55856 0
M  V30 2455 N 232.062 -1.29571 -0.897171 0
M  V30 2456 C 232.992 -1.17473 -2.01798 0
M  V30 2457 C 233.973 -0.068323 -1.69963 0
M  V30 2458 O 235.158 -0.248239 -1.92607 0
M  V30 2459 C 232.288 -0.853099 -3.36659 0
M  V30 2460 C 231.242 -1.9161 -3.82713 0
M  V30 2461 C 230.568 -1.44773 -5.14728 0
M  V30 2462 C 231.868 -3.32535 -4.02763 0
M  V30 2463 H 233.562 -2.11237 -2.12177 0
M  V30 2464 H 231.108 -1.01699 -1.01948 0
M  V30 2465 H 233.061 -0.755165 -4.14578 0
M  V30 2466 H 231.785 0.120236 -3.26379 0
M  V30 2467 H 230.444 -2.00346 -3.07013 0
M  V30 2468 H 230.092 -0.462995 -5.00865 0
M  V30 2469 H 229.792 -2.15865 -5.46513 0
M  V30 2470 H 231.316 -1.36334 -5.95185 0
M  V30 2471 H 232.73 -3.26626 -4.71156 0
M  V30 2472 H 231.127 -4.01607 -4.45905 0
M  V30 2473 H 232.197 -3.75326 -3.07016 0
M  V30 2474 N 233.54 1.10788 -1.12088 0
M  V30 2475 C 234.765 1.87002 -0.896949 0
M  V30 2476 C 235.19 1.79933 0.548261 0
M  V30 2477 O 234.548 1.16662 1.38779 0
M  V30 2478 C 234.596 3.3349 -1.37174 0
M  V30 2479 O 233.7 4.08745 -0.547831 0
M  V30 2480 H 233.041 0.580397 -0.322545 0
M  V30 2481 H 235.571 1.39996 -1.49206 0
M  V30 2482 H 235.581 3.84339 -1.36922 0
M  V30 2483 H 234.256 3.37951 -2.42408 0
M  V30 2484 H 232.833 3.6776 -0.617034 0
M  V30 2485 N 235.018 0.912232 1.28515 0
M  V30 2486 C 236.295 0.463597 1.90027 0
M  V30 2487 C 236.675 -1.05753 1.82701 0
M  V30 2488 O 236.023 -1.90492 1.26194 0
M  V30 2489 C 236.233 0.992253 3.34597 0
M  V30 2490 C 237.581 1.04344 4.11579 0
M  V30 2491 O 238.605 0.94079 3.43551 0
M  V30 2492 O 237.464 1.1995 5.33174 0
M  V30 2493 H 234.558 0.146666 0.813891 0
M  V30 2494 H 237.104 1.00292 1.36893 0
M  V30 2495 H 235.876 2.03623 3.34146 0
M  V30 2496 H 235.499 0.433672 3.95228 0
M  V30 2497 N 236.496 -1.42363 0.676048 0
M  V30 2498 C 237.446 -2.27987 -0.0242903 0
M  V30 2499 C 238.43 -1.41153 -0.772319 0
M  V30 2500 O 239.622 -1.64592 -0.651025 0
M  V30 2501 C 236.751 -3.29195 -0.973953 0
M  V30 2502 C 235.837 -4.23512 -0.223202 0
M  V30 2503 N 236.228 -4.99865 0.772589 0
M  V30 2504 C 234.526 -4.43606 -0.461469 0
M  V30 2505 C 235.227 -5.68757 1.22027 0
M  V30 2506 N 234.203 -5.40811 0.549975 0
M  V30 2507 H 238.005 -2.84445 0.73949 0
M  V30 2508 H 235.519 -1.54341 0.50522 0
M  V30 2509 H 237.516 -3.89339 -1.49067 0
M  V30 2510 H 236.176 -2.74298 -1.73755 0
M  V30 2511 H 237.187 -5.04921 1.15217 0
M  V30 2512 H 233.864 -3.99749 -1.20446 0
M  V30 2513 H 235.254 -6.40007 2.0455 0
M  V30 2514 N 237.974 -0.419461 -1.51915 0
M  V30 2515 C 239.385 0.0477853 -1.86639 0
M  V30 2516 C 239.736 1.43531 -1.33766 0
M  V30 2517 O 238.861 2.05401 -0.68113 0
M  V30 2518 C 239.456 0.0934885 -3.38671 0
M  V30 2519 C 238.015 0.505097 -3.72996 0
M  V30 2520 C 237.162 -0.313792 -2.75519 0
M  V30 2521 H 240.113 -0.636088 -1.45395 0
M  V30 2522 H 240.134 0.906667 -3.6954 0
M  V30 2523 H 239.646 -0.916501 -3.77123 0
M  V30 2524 H 237.747 1.52135 -3.40126 0
M  V30 2525 H 237.86 0.242309 -4.78487 0
M  V30 2526 H 236.224 0.225363 -2.53701 0
M  V30 2527 H 237.007 -1.32232 -3.16812 0
M  V30 2528 N 239.452 1.56882 -0.150215 0
M  V30 2529 C 240.362 2.20494 0.801222 0
M  V30 2530 C 241.378 1.19019 1.26927 0
M  V30 2531 O 242.554 1.51607 1.32579 0
M  V30 2532 C 239.619 2.81659 2.02161 0
M  V30 2533 C 238.68 3.9827 1.60249 0
M  V30 2534 C 237.913 4.56508 2.7647 0
M  V30 2535 O 238.136 4.13627 3.92771 0
M  V30 2536 O 237.07 5.46719 2.51757 0
M  V30 2537 H 240.896 3.02315 0.289717 0
M  V30 2538 H 238.481 1.49202 0.0769684 0
M  V30 2539 H 240.363 3.20522 2.73576 0
M  V30 2540 H 239.038 2.02849 2.52258 0
M  V30 2541 H 237.945 3.64117 0.858477 0
M  V30 2542 H 239.278 4.78609 1.14864 0
M  V30 2543 N 240.93 -0.123565 1.57115 0
M  V30 2544 C 242.155 -0.850398 1.89164 0
M  V30 2545 C 242.58 -1.7286 0.741688 0
M  V30 2546 O 241.938 -1.78665 -0.307958 0
M  V30 2547 C 241.986 -1.66353 3.19936 0
M  V30 2548 O 241.09 -2.77004 3.0552 0
M  V30 2549 H 240.431 -0.235454 0.620852 0
M  V30 2550 H 242.961 -0.107335 2.04318 0
M  V30 2551 H 242.971 -2.05372 3.52543 0
M  V30 2552 H 241.646 -1.01881 4.03228 0
M  V30 2553 H 240.223 -2.41221 2.84371 0
M  V30 2554 N 242.408 -1.52605 -0.393616 0
M  V30 2555 C 243.338 -1.80022 -1.48709 0
M  V30 2556 C 244.319 -0.651995 -1.57108 0
M  V30 2557 O 245.504 -0.89913 -1.72132 0
M  V30 2558 C 242.634 -1.96492 -2.86371 0
M  V30 2559 C 241.588 -3.12161 -2.92813 0
M  V30 2560 C 240.914 -3.13877 -4.3288 0
M  V30 2561 C 242.214 -4.51322 -2.6288 0
M  V30 2562 H 243.908 -2.71589 -1.26015 0
M  V30 2563 H 241.454 -1.30684 -0.604778 0
M  V30 2564 H 243.407 -2.14255 -3.62867 0
M  V30 2565 H 242.131 -1.01611 -3.10391 0
M  V30 2566 H 240.79 -2.94173 -2.18764 0
M  V30 2567 H 240.438 -2.16687 -4.53933 0
M  V30 2568 H 240.138 -3.91576 -4.38112 0
M  V30 2569 H 241.662 -3.33789 -5.1129 0
M  V30 2570 H 243.076 -4.69435 -3.29096 0
M  V30 2571 H 241.473 -5.31053 -2.79468 0
M  V30 2572 H 242.543 -4.58353 -1.58242 0
M  V30 2573 N 243.887 0.651787 -1.4349 0
M  V30 2574 C 244.797 1.79368 -1.5121 0
M  V30 2575 C 245.813 1.69361 -0.399093 0
M  V30 2576 O 246.989 1.90505 -0.653431 0
M  V30 2577 C 244.054 3.15653 -1.43401 0
M  V30 2578 C 243.115 3.37446 -2.65384 0
M  V30 2579 C 242.348 4.67229 -2.57939 0
M  V30 2580 O 242.571 5.46676 -1.62792 0
M  V30 2581 O 241.505 4.90773 -3.48462 0
M  V30 2582 H 245.331 1.7581 -2.47638 0
M  V30 2583 H 242.916 0.810447 -1.25507 0
M  V30 2584 H 244.798 3.96935 -1.41494 0
M  V30 2585 H 243.473 3.19798 -0.501085 0
M  V30 2586 H 242.38 2.55923 -2.72863 0
M  V30 2587 H 243.713 3.38148 -3.57654 0
M  V30 2588 N 245.365 1.30045 0.890287 0
M  V30 2589 C 246.297 1.11786 2.00091 0
M  V30 2590 C 247.31 0.0626307 1.62679 0
M  V30 2591 O 248.499 0.308112 1.75821 0
M  V30 2592 C 245.599 0.681527 3.31977 0
M  V30 2593 C 244.772 1.81735 3.97858 0
M  V30 2594 C 243.831 1.37045 5.08041 0
M  V30 2595 O 242.857 2.07677 5.29961 0
M  V30 2596 N 244.059 0.246525 5.79976 0
M  V30 2597 H 246.824 2.07441 2.16306 0
M  V30 2598 H 244.385 1.2211 1.06305 0
M  V30 2599 H 246.377 0.365675 4.03045 0
M  V30 2600 H 244.947 -0.182828 3.12065 0
M  V30 2601 H 244.167 2.30159 3.20032 0
M  V30 2602 H 245.455 2.57865 4.38615 0
M  V30 2603 H 244.853 -0.34215 5.64664 0
M  V30 2604 H 243.41 -0.00990438 6.51799 0
M  V30 2605 N 246.843 -1.10192 1.12674 0
M  V30 2606 C 248.092 -1.81573 0.8783 0
M  V30 2607 C 248.405 -1.86249 -0.597557 0
M  V30 2608 O 249.611 -2.5386 -0.962681 0
M  V30 2609 C 248.067 -3.26149 1.52167 0
M  V30 2610 C 247.675 -3.29763 3.03249 0
M  V30 2611 C 249.419 -4.0234 1.3536 0
M  V30 2612 C 247.326 -4.68815 3.60508 0
M  V30 2613 H 246.256 -0.680394 0.324931 0
M  V30 2614 H 248.907 -1.23902 1.35353 0
M  V30 2615 H 247.289 -3.83832 0.974104 0
M  V30 2616 H 248.463 -2.8189 3.6452 0
M  V30 2617 H 246.778 -2.67059 3.19481 0
M  V30 2618 H 249.375 -5.05058 1.75559 0
M  V30 2619 H 249.718 -4.15235 0.297554 0
M  V30 2620 H 250.251 -3.51079 1.87052 0
M  V30 2621 H 246.99 -4.61121 4.65884 0
M  V30 2622 H 246.51 -5.17045 3.04014 0
M  V30 2623 H 248.189 -5.37785 3.59717 0
M  V30 2624 N 248.321 -0.919034 -1.28029 0
M  V30 2625 C 249.251 -0.428581 -2.29533 0
M  V30 2626 C 250.232 0.50659 -1.62381 0
M  V30 2627 O 251.417 0.413195 -1.89753 0
M  V30 2628 C 248.547 0.327388 -3.45753 0
M  V30 2629 C 247.501 -0.519137 -4.2484 0
M  V30 2630 C 246.827 0.365486 -5.33449 0
M  V30 2631 C 248.127 -1.77914 -4.91064 0
M  V30 2632 H 249.821 -1.27687 -2.70807 0
M  V30 2633 H 247.367 -0.615428 -1.30186 0
M  V30 2634 H 249.32 0.681378 -4.15855 0
M  V30 2635 H 248.044 1.20963 -3.03374 0
M  V30 2636 H 246.703 -0.855717 -3.56473 0
M  V30 2637 H 246.351 1.24642 -4.87312 0
M  V30 2638 H 246.051 -0.197356 -5.87268 0
M  V30 2639 H 247.575 0.715241 -6.06396 0
M  V30 2640 H 248.989 -1.49374 -5.53498 0
M  V30 2641 H 247.386 -2.2848 -5.54903 0
M  V30 2642 H 248.456 -2.50382 -4.15255 0
M  V30 2643 N 249.799 1.42003 -0.683588 0
M  V30 2644 C 251.045 2.01712 -0.209825 0
M  V30 2645 C 251.378 1.53968 1.18353 0
M  V30 2646 O 250.653 0.745661 1.79639 0
M  V30 2647 C 250.936 3.59202 -0.254197 0
M  V30 2648 C 250.789 4.17102 -1.68363 0
M  V30 2649 C 252.108 4.38344 0.392709 0
M  V30 2650 H 249.227 0.732891 -0.0777189 0
M  V30 2651 H 251.869 1.68909 -0.87004 0
M  V30 2652 H 250.019 3.87278 0.307954 0
M  V30 2653 H 251.691 3.99946 -2.29871 0
M  V30 2654 H 249.934 3.72597 -2.22157 0
M  V30 2655 H 250.605 5.26249 -1.6663 0
M  V30 2656 H 253.081 4.16011 -0.0859162 0
M  V30 2657 H 251.957 5.47901 0.331063 0
M  V30 2658 H 252.218 4.16887 1.47164 0
M  V30 2659 N 251.277 0.427512 1.51691 0
M  V30 2660 C 252.554 -0.201684 1.94557 0
M  V30 2661 C 252.934 -1.60981 1.36559 0
M  V30 2662 O 252.282 -2.21814 0.548702 0
M  V30 2663 C 252.492 -0.189394 3.48486 0
M  V30 2664 C 253.84 -0.39978 4.22714 0
M  V30 2665 O 254.864 -0.267945 3.55191 0
M  V30 2666 O 253.723 -0.661249 5.42485 0
M  V30 2667 H 250.817 -0.135261 0.815864 0
M  V30 2668 H 253.363 0.484782 1.62628 0
M  V30 2669 H 252.135 0.795431 3.8313 0
M  V30 2670 H 251.758 -0.919187 3.86829 0
M  V30 2671 N 252.755 -1.56801 0.158532 0
M  V30 2672 C 253.995 -1.98383 -0.49229 0
M  V30 2673 C 254.359 -1.04184 -1.61275 0
M  V30 2674 O 255.56 -1.34856 -2.32524 0
M  V30 2675 C 253.831 -3.4385 -0.974766 0
M  V30 2676 S 255.39 -4.07459 -1.62857 0
M  V30 2677 H 252.208 -0.693041 -0.158794 0
M  V30 2678 H 254.81 -1.93856 0.252974 0
M  V30 2679 H 253.514 -4.10131 -0.148688 0
M  V30 2680 H 253.045 -3.52115 -1.75438 0
M  V30 2681 H 255.06 -4.01458 -2.91627 0
M  V30 2682 N 254.233 0.115231 -1.57178 0
M  V30 2683 C 255.649 0.468877 -1.52557 0
M  V30 2684 C 255.849 1.81649 -0.872125 0
M  V30 2685 O 254.905 2.48347 -0.45606 0
M  V30 2686 C 256.218 0.4499 -2.97315 0
M  V30 2687 C 257.766 0.533185 -3.08425 0
M  V30 2688 C 258.241 0.54456 -4.54751 0
M  V30 2689 N 259.732 0.605892 -4.5922 0
M  V30 2690 C 260.467 0.636203 -5.6986 0
M  V30 2691 N 259.963 0.623931 -6.89985 0
M  V30 2692 N 261.756 0.679496 -5.57978 0
M  V30 2693 H 253.907 -0.767712 -1.9804 0
M  V30 2694 H 256.17 -0.283609 -0.904583 0
M  V30 2695 H 255.876 -0.472721 -3.48509 0
M  V30 2696 H 255.75 1.27632 -3.5495 0
M  V30 2697 H 258.137 1.44623 -2.57232 0
M  V30 2698 H 258.218 -0.320995 -2.53778 0
M  V30 2699 H 257.862 -0.364452 -5.06591 0
M  V30 2700 H 257.792 1.41568 -5.07214 0
M  V30 2701 H 260.283 0.621386 -3.72756 0
M  V30 2702 H 260.596 0.649787 -7.70063 0
M  V30 2703 H 258.941 0.591296 -6.9248 0
M  V30 2704 H 262.132 0.686472 -4.63039 0
M  V30 2705 H 262.305 0.69965 -6.44212 0
M  V30 2706 N 255.711 1.52812 0.385517 0
M  V30 2707 C 256.988 1.5861 1.14465 0
M  V30 2708 C 257.368 0.381402 2.07626 0
M  V30 2709 O 256.716 -0.629999 2.19643 0
M  V30 2710 C 256.926 2.92664 1.90128 0
M  V30 2711 C 258.274 3.46526 2.45367 0
M  V30 2712 O 259.298 2.94562 2.0028 0
M  V30 2713 O 258.157 4.37323 3.27736 0
M  V30 2714 H 255.251 0.639855 0.523941 0
M  V30 2715 H 257.797 1.65149 0.390389 0
M  V30 2716 H 256.569 3.71788 1.22022 0
M  V30 2717 H 256.192 2.89527 2.72507 0
M  V30 2718 N 257.189 -0.644168 1.43834 0
M  V30 2719 C 258.417 -1.43147 1.49387 0
M  V30 2720 C 258.832 -1.88452 0.114583 0
M  V30 2721 O 258.189 -1.60047 -0.876989 0
M  V30 2722 C 258.24 -2.66046 2.44748 0
M  V30 2723 O 257.961 -2.22633 3.77314 0
M  V30 2724 C 259.462 -3.59311 2.59635 0
M  V30 2725 H 256.682 -0.439447 0.507077 0
M  V30 2726 H 259.226 -0.78895 1.88669 0
M  V30 2727 H 257.381 -3.26418 2.08638 0
M  V30 2728 H 257.795 -3.02216 4.28679 0
M  V30 2729 H 259.269 -4.42187 3.30416 0
M  V30 2730 H 259.746 -4.07259 1.64427 0
M  V30 2731 H 260.352 -3.04816 2.96593 0
M  V30 2732 N 258.668 -1.30515 -0.883378 0
M  V30 2733 C 259.598 -1.19607 -2.00541 0
M  V30 2734 C 260.579 -0.086346 -1.69881 0
M  V30 2735 O 261.764 -0.268654 -1.92333 0
M  V30 2736 C 258.894 -0.888758 -3.35736 0
M  V30 2737 C 257.848 -1.95659 -3.8066 0
M  V30 2738 C 257.174 -1.50224 -5.13164 0
M  V30 2739 C 258.474 -3.36788 -3.99213 0
M  V30 2740 H 260.168 -2.13476 -2.09925 0
M  V30 2741 H 257.714 -1.02775 -1.00863 0
M  V30 2742 H 259.667 -0.799094 -4.13754 0
M  V30 2743 H 258.391 0.0856125 -3.26488 0
M  V30 2744 H 257.05 -2.03591 -3.04871 0
M  V30 2745 H 256.698 -0.516092 -5.00345 0
M  V30 2746 H 256.398 -2.2165 -5.44192 0
M  V30 2747 H 257.922 -1.42639 -5.93706 0
M  V30 2748 H 259.336 -3.31605 -4.67665 0
M  V30 2749 H 257.733 -4.06314 -4.41621 0
M  V30 2750 H 258.803 -3.78561 -3.03017 0
M  V30 2751 N 260.146 1.09593 -1.13257 0
M  V30 2752 C 261.093 2.1618 -0.808381 0
M  V30 2753 C 262.063 1.64517 0.228754 0
M  V30 2754 O 263.248 1.9053 0.101381 0
M  V30 2755 C 260.388 3.43973 -0.278675 0
M  V30 2756 C 259.501 4.09545 -1.37466 0
M  V30 2757 C 258.636 5.25088 -0.803479 0
M  V30 2758 C 257.675 5.82579 -1.87799 0
M  V30 2759 N 256.812 6.89486 -1.32488 0
M  V30 2760 H 261.652 2.43254 -1.72138 0
M  V30 2761 H 259.189 1.19392 -0.859294 0
M  V30 2762 H 261.147 4.17174 0.0465583 0
M  V30 2763 H 259.777 3.17223 0.597459 0
M  V30 2764 H 258.829 3.34226 -1.81652 0
M  V30 2765 H 260.141 4.48307 -2.18684 0
M  V30 2766 H 259.295 6.05178 -0.429427 0
M  V30 2767 H 258.034 4.87684 0.0397956 0
M  V30 2768 H 257.039 5.01152 -2.26113 0
M  V30 2769 H 258.264 6.22045 -2.72463 0
M  V30 2770 H 256.21 6.54064 -0.503575 0
M  V30 2771 H 256.127 7.27007 -2.07355 0
M  V30 2772 H 257.395 7.73336 -0.978336 0
M  V30 2773 N 261.624 0.925811 1.2754 0
M  V30 2774 C 262.854 0.580666 1.98272 0
M  V30 2775 C 263.262 -0.845207 1.69272 0
M  V30 2776 O 262.605 -1.57306 0.948707 0
M  V30 2777 C 262.667 0.724418 3.52126 0
M  V30 2778 C 262.331 2.12206 4.04744 0
M  V30 2779 C 263.328 3.09604 4.17662 0
M  V30 2780 C 261.013 2.4385 4.39138 0
M  V30 2781 C 263.007 4.36755 4.64246 0
M  V30 2782 C 260.694 3.71237 4.85414 0
M  V30 2783 C 261.692 4.67503 4.97926 0
M  V30 2784 O 261.38 5.92624 5.43187 0
M  V30 2785 H 261.112 0.218987 0.639547 0
M  V30 2786 H 263.666 1.24452 1.63404 0
M  V30 2787 H 261.896 0.0034663 3.867 0
M  V30 2788 H 263.585 0.384607 4.04074 0
M  V30 2789 H 264.351 2.86478 3.91351 0
M  V30 2790 H 260.23 1.69665 4.28643 0
M  V30 2791 H 263.774 5.11898 4.73927 0
M  V30 2792 H 259.671 3.94182 5.11166 0
M  V30 2793 H 260.439 5.95585 5.61445 0
M  V30 2794 N 263.102 -1.41638 0.69111 0
M  V30 2795 C 264.35 -2.00902 0.219758 0
M  V30 2796 C 264.671 -1.54994 -1.18329 0
M  V30 2797 O 263.941 -0.778628 -1.79762 0
M  V30 2798 H 262.521 -0.74289 0.0782558 0
M  V30 2799 H 265.183 -1.73327 0.891271 0
M  V30 2800 H 264.279 -3.11224 0.233708 0
M  V30 2801 N 264.58 -0.43555 -1.51462 0
M  V30 2802 C 265.826 0.131709 -2.02372 0
M  V30 2803 C 266.159 1.42516 -1.3192 0
M  V30 2804 O 265.434 1.89606 -0.433573 0
M  V30 2805 C 265.717 0.352301 -3.58373 0
M  V30 2806 C 265.57 -0.959676 -4.39443 0
M  V30 2807 C 266.889 1.12286 -4.25535 0
M  V30 2808 H 264.008 0.0463936 -0.735538 0
M  V30 2809 H 266.65 -0.574197 -1.81116 0
M  V30 2810 H 264.8 0.9536 -3.76615 0
M  V30 2811 H 266.472 -1.59482 -4.32855 0
M  V30 2812 H 264.715 -1.56468 -4.04599 0
M  V30 2813 H 265.386 -0.759394 -5.46752 0
M  V30 2814 H 267.862 0.613545 -4.11552 0
M  V30 2815 H 266.738 1.24598 -5.34571 0
M  V30 2816 H 266.999 2.15048 -3.86273 0
M  V30 2817 N 266.058 1.56714 -0.166846 0
M  V30 2818 C 267.474 1.58473 0.189372 0
M  V30 2819 C 267.674 1.18201 1.63189 0
M  V30 2820 O 266.73 0.891528 2.36237 0
M  V30 2821 C 268.043 3.00573 -0.0873872 0
M  V30 2822 C 269.591 3.1299 -0.0252443 0
M  V30 2823 C 270.066 4.57174 -0.274934 0
M  V30 2824 N 271.557 4.62665 -0.222553 0
M  V30 2825 C 272.292 5.72072 -0.389985 0
M  V30 2826 N 271.788 6.90054 -0.616229 0
M  V30 2827 N 273.581 5.61153 -0.326202 0
M  V30 2828 H 265.732 1.8118 -1.10849 0
M  V30 2829 H 267.995 0.839525 -0.440342 0
M  V30 2830 H 267.701 3.34497 -1.0865 0
M  V30 2831 H 267.575 3.72019 0.623037 0
M  V30 2832 H 269.962 2.78895 0.96444 0
M  V30 2833 H 270.043 2.43989 -0.768309 0
M  V30 2834 H 269.687 4.91976 -1.26181 0
M  V30 2835 H 269.617 5.24328 0.48869 0
M  V30 2836 H 272.108 3.77863 -0.0531512 0
M  V30 2837 H 272.421 7.69311 -0.733559 0
M  V30 2838 H 270.766 6.91927 -0.652791 0
M  V30 2839 H 273.957 4.67859 -0.150072 0
M  V30 2840 H 274.13 6.46364 -0.460116 0
M  V30 2841 N 267.536 -0.106894 1.57237 0
M  V30 2842 C 268.764 -0.826389 1.8968 0
M  V30 2843 C 269.179 -1.72856 0.759353 0
M  V30 2844 O 268.536 -1.80503 -0.269263 0
M  V30 2845 C 268.587 -1.64967 3.21665 0
M  V30 2846 O 268.308 -0.783804 4.31031 0
M  V30 2847 C 269.809 -2.47326 3.67892 0
M  V30 2848 H 267.029 -0.236927 0.627779 0
M  V30 2849 H 269.573 -0.0876593 2.04312 0
M  V30 2850 H 267.728 -2.34103 3.08666 0
M  V30 2851 H 268.142 -1.35284 5.06753 0
M  V30 2852 H 269.616 -3.00604 4.6297 0
M  V30 2853 H 270.093 -3.25247 2.95146 0
M  V30 2854 H 270.699 -1.83411 3.83719 0
M  V30 2855 N 269.014 -1.53014 -0.377408 0
M  V30 2856 C 270.262 -1.6829 -1.11906 0
M  V30 2857 C 270.583 -0.431206 -1.90173 0
M  V30 2858 O 269.853 0.554595 -1.87886 0
M  V30 2859 H 268.433 -0.620371 -0.416112 0
M  V30 2860 H 271.095 -1.90167 -0.426893 0
M  V30 2861 H 270.191 -2.53862 -1.8155 0
M  V30 2862 N 270.492 0.636531 -1.44174 0
M  V30 2863 C 271.442 1.74233 -1.47061 0
M  V30 2864 C 272.426 1.57331 -0.337034 0
M  V30 2865 O 273.618 1.67159 -0.581973 0
M  V30 2866 C 270.747 3.12897 -1.41246 0
M  V30 2867 C 269.833 3.35288 -2.59698 0
M  V30 2868 N 270.224 3.2807 -3.84972 0
M  V30 2869 C 268.522 3.66065 -2.54778 0
M  V30 2870 C 269.223 3.51001 -4.63867 0
M  V30 2871 N 268.199 3.73616 -3.94857 0
M  V30 2872 H 272.001 1.67103 -2.41773 0
M  V30 2873 H 269.515 0.838806 -1.3906 0
M  V30 2874 H 271.512 3.92189 -1.41398 0
M  V30 2875 H 270.172 3.21197 -0.47569 0
M  V30 2876 H 271.183 3.07109 -4.17019 0
M  V30 2877 H 267.86 3.81379 -1.6987 0
M  V30 2878 H 269.25 3.51059 -5.72894 0
M  V30 2879 N 271.97 1.30982 0.876444 0
M  V30 2880 C 273.381 1.18277 1.44456 0
M  V30 2881 C 273.732 -0.213265 1.95037 0
M  V30 2882 O 272.857 -1.11057 1.85729 0
M  V30 2883 C 273.452 2.1411 2.62569 0
M  V30 2884 C 272.011 2.05358 3.15444 0
M  V30 2885 C 271.158 2.03706 1.88146 0
M  V30 2886 H 274.109 1.43127 0.685584 0
M  V30 2887 H 274.13 1.72692 3.39054 0
M  V30 2888 H 273.642 3.15706 2.25724 0
M  V30 2889 H 271.743 1.06934 3.56926 0
M  V30 2890 H 271.856 2.94156 3.78166 0
M  V30 2891 H 270.22 1.48629 2.06837 0
M  V30 2892 H 271.003 3.07047 1.53547 0
M  V30 2893 N 273.449 -1.08991 1.13837 0
M  V30 2894 C 274.865 -1.33312 0.877506 0
M  V30 2895 C 275.065 -1.95587 -0.48456 0
M  V30 2896 O 274.121 -2.20509 -1.23013 0
M  V30 2897 C 275.434 -2.24045 2.0056 0
M  V30 2898 C 276.982 -2.37542 2.03821 0
M  V30 2899 C 277.457 -3.31614 3.15905 0
M  V30 2900 N 278.948 -3.39189 3.15445 0
M  V30 2901 C 279.683 -4.11992 3.98811 0
M  V30 2902 N 279.179 -4.87553 4.92203 0
M  V30 2903 N 280.972 -4.07762 3.86894 0
M  V30 2904 H 273.123 -0.669456 2.01574 0
M  V30 2905 H 275.386 -0.357482 0.878015 0
M  V30 2906 H 275.092 -1.85521 2.98789 0
M  V30 2907 H 274.966 -3.24466 1.92359 0
M  V30 2908 H 277.353 -2.75327 1.06202 0
M  V30 2909 H 277.434 -1.36884 2.16093 0
M  V30 2910 H 277.078 -2.94551 4.13766 0
M  V30 2911 H 277.008 -4.32186 3.0087 0
M  V30 2912 H 279.499 -2.85314 2.47799 0
M  V30 2913 H 279.812 -5.40549 5.52292 0
M  V30 2914 H 278.157 -4.86627 4.96205 0
M  V30 2915 H 281.348 -3.47833 3.13257 0
M  V30 2916 H 281.521 -4.64238 4.52092 0
M  V30 2917 N 274.927 -0.932562 -1.27047 0
M  V30 2918 C 276.174 -0.575559 -1.94148 0
M  V30 2919 C 276.502 0.883984 -1.73251 0
M  V30 2920 O 275.757 1.64655 -1.0577 0
M  V30 2921 C 276.056 -0.853713 -3.47054 0
M  V30 2922 C 275.722 -2.29577 -3.88079 0
M  V30 2923 C 274.384 -2.68999 -3.9899 0
M  V30 2924 C 276.736 -3.23331 -4.08787 0
M  V30 2925 C 274.064 -4.01289 -4.28 0
M  V30 2926 C 276.416 -4.55207 -4.39282 0
M  V30 2927 C 275.08 -4.94457 -4.48407 0
M  V30 2928 H 274.35 -0.210612 -0.710439 0
M  V30 2929 H 276.997 -1.17744 -1.51025 0
M  V30 2930 H 275.302 -0.169204 -3.91434 0
M  V30 2931 H 276.999 -0.55639 -3.97121 0
M  V30 2932 H 273.589 -1.97994 -3.80127 0
M  V30 2933 H 277.773 -2.94074 -3.99793 0
M  V30 2934 H 273.029 -4.31374 -4.33275 0
M  V30 2935 H 277.203 -5.27852 -4.54252 0
M  V30 2936 H 274.83 -5.96994 -4.7064 0
M  V30 2937 N 276.405 1.4127 -0.698611 0
M  V30 2938 C 277.652 2.0118 -0.230865 0
M  V30 2939 C 277.98 1.55338 1.17049 0
M  V30 2940 O 277.235 0.756775 1.80475 0
M  V30 2941 C 277.534 3.56592 -0.240192 0
M  V30 2942 C 277.2 4.21955 -1.58948 0
M  V30 2943 C 275.862 4.39524 -1.95887 0
M  V30 2944 C 278.214 4.58576 -2.47704 0
M  V30 2945 C 275.542 4.90992 -3.2116 0
M  V30 2946 C 277.894 5.11435 -3.72313 0
M  V30 2947 C 276.558 5.27215 -4.0939 0
M  V30 2948 H 275.828 0.736169 -0.0844796 0
M  V30 2949 H 278.475 1.69124 -0.8983 0
M  V30 2950 H 276.78 3.88456 0.510797 0
M  V30 2951 H 278.477 4.00758 0.139296 0
M  V30 2952 H 275.067 4.08657 -1.29219 0
M  V30 2953 H 279.251 4.44654 -2.20445 0
M  V30 2954 H 274.507 5.01393 -3.49878 0
M  V30 2955 H 278.681 5.38752 -4.4127 0
M  V30 2956 H 276.308 5.66859 -5.06533 0
M  V30 2957 N 277.883 0.443576 1.51229 0
M  V30 2958 C 278.831 -0.37904 2.29491 0
M  V30 2959 C 279.825 -1.0153 1.35603 0
M  V30 2960 O 281.031 -0.94955 1.52917 0
M  V30 2961 H 277.406 -0.141053 0.738653 0
M  V30 2962 H 279.377 0.301799 2.9687 0
M  V30 2963 C 278.126 -1.46426 3.15364 0
M  V30 2964 H 277.449 -0.984037 3.87501 0
M  V30 2965 H 278.889 -2.01297 3.7317 0
M  V30 2966 C 277.348 -2.45099 2.31146 0
M  V30 2967 O 277.878 -3.49773 1.9754 0
M  V30 2968 N 276.084 -2.16139 1.94249 0
M  V30 2969 H 275.631 -1.31044 2.21777 0
M  V30 2970 H 275.589 -2.82398 1.38198 0
M  V30 2971 N 279.361 -1.56624 0.175154 0
M  V30 2972 C 280.293 -2.15333 -0.785128 0
M  V30 2973 C 281.306 -1.1099 -1.19101 0
M  V30 2974 O 282.495 -1.38162 -1.13019 0
M  V30 2975 C 279.595 -2.68427 -2.06882 0
M  V30 2976 C 278.768 -3.97466 -1.8259 0
M  V30 2977 C 277.827 -4.35585 -2.95215 0
M  V30 2978 O 276.853 -5.03389 -2.65684 0
M  V30 2979 N 278.055 -3.97457 -4.23094 0
M  V30 2980 H 280.82 -2.98359 -0.283187 0
M  V30 2981 H 278.381 -1.61898 -0.00749817 0
M  V30 2982 H 280.373 -2.90924 -2.81328 0
M  V30 2983 H 278.943 -1.89968 -2.48256 0
M  V30 2984 H 278.163 -3.83307 -0.920287 0
M  V30 2985 H 279.451 -4.81736 -1.63733 0
M  V30 2986 H 278.849 -3.42878 -4.49945 0
M  V30 2987 H 277.406 -4.24947 -4.9423 0
M  V30 2988 N 280.839 0.0985539 -1.57292 0
M  V30 2989 C 281.769 1.12064 -2.04851 0
M  V30 2990 C 282.75 1.41981 -0.936767 0
M  V30 2991 O 283.935 1.52071 -1.20781 0
M  V30 2992 C 281.065 2.44144 -2.47004 0
M  V30 2993 C 280.019 2.28643 -3.6181 0
M  V30 2994 C 279.345 3.65869 -3.89929 0
M  V30 2995 C 280.645 1.72986 -4.92822 0
M  V30 2996 H 282.339 0.724979 -2.9049 0
M  V30 2997 H 279.885 0.34729 -1.39749 0
M  V30 2998 H 281.838 3.15914 -2.78884 0
M  V30 2999 H 280.562 2.85639 -1.5836 0
M  V30 3000 H 279.221 1.59318 -3.30172 0
M  V30 3001 H 278.869 4.04885 -2.98458 0
M  V30 3002 H 278.569 3.56344 -4.67218 0
M  V30 3003 H 280.093 4.39112 -4.2428 0
M  V30 3004 H 281.507 2.34593 -5.23105 0
M  V30 3005 H 279.904 1.74229 -5.74251 0
M  V30 3006 H 280.974 0.689007 -4.7998 0
M  V30 3007 N 282.317 1.53212 0.369288 0
M  V30 3008 C 283.542 1.73423 1.1375 0
M  V30 3009 C 283.967 0.460404 1.82378 0
M  V30 3010 O 283.325 -0.585298 1.71592 0
M  V30 3011 C 283.373 2.89769 2.1463 0
M  V30 3012 O 282.477 2.58119 3.21634 0
M  V30 3013 H 281.818 0.576061 0.330227 0
M  V30 3014 H 284.348 2.00083 0.427547 0
M  V30 3015 H 284.358 3.15829 2.58294 0
M  V30 3016 H 283.033 3.8217 1.64071 0
M  V30 3017 H 281.61 2.42864 2.82969 0
M  V30 3018 N 283.795 -0.628877 1.44509 0
M  V30 3019 C 285.023 -1.41554 1.50897 0
M  V30 3020 C 285.438 -1.8832 0.134564 0
M  V30 3021 O 284.795 -1.60969 -0.859965 0
M  V30 3022 C 284.846 -2.63435 2.47556 0
M  V30 3023 O 284.567 -2.18619 3.79654 0
M  V30 3024 C 286.068 -3.56537 2.63431 0
M  V30 3025 H 283.288 -0.434044 0.511709 0
M  V30 3026 H 285.832 -0.768895 1.89495 0
M  V30 3027 H 283.987 -3.24187 2.12089 0
M  V30 3028 H 284.401 -2.97652 4.31861 0
M  V30 3029 H 285.875 -4.38657 3.35088 0
M  V30 3030 H 286.352 -4.05493 1.68738 0
M  V30 3031 H 286.958 -3.01653 2.9981 0
M  V30 3032 N 285.273 -1.31445 -0.869486 0
M  V30 3033 C 286.521 -1.20918 -1.61936 0
M  V30 3034 C 286.842 0.232683 -1.93607 0
M  V30 3035 O 286.112 1.15352 -1.58338 0
M  V30 3036 H 284.692 -0.44454 -0.600328 0
M  V30 3037 H 287.354 -1.64776 -1.0409 0
M  V30 3038 H 286.45 -1.78124 -2.56278 0
M  V30 3039 N 286.751 1.08385 -1.14413 0
M  V30 3040 C 287.681 2.17321 -0.854044 0
M  V30 3041 C 288.662 1.69024 0.191049 0
M  V30 3042 O 289.847 1.94141 0.0476779 0
M  V30 3043 C 286.977 3.45719 -0.330983 0
M  V30 3044 C 285.931 4.07409 -1.31155 0
M  V30 3045 C 285.257 5.30762 -0.64778 0
M  V30 3046 C 286.557 4.48665 -2.67388 0
M  V30 3047 H 288.251 2.41845 -1.76498 0
M  V30 3048 H 285.797 1.16233 -0.850051 0
M  V30 3049 H 287.75 4.21241 -0.115645 0
M  V30 3050 H 286.474 3.2075 0.615381 0
M  V30 3051 H 285.133 3.33919 -1.51306 0
M  V30 3052 H 284.781 5.02078 0.304398 0
M  V30 3053 H 284.481 5.72992 -1.30207 0
M  V30 3054 H 286.005 6.08998 -0.441972 0
M  V30 3055 H 287.419 5.15364 -2.51143 0
M  V30 3056 H 285.816 5.01814 -3.29093 0
M  V30 3057 H 286.886 3.60543 -3.24248 0
M  V30 3058 N 288.23 0.939286 1.26551 0
M  V30 3059 C 289.507 0.5038 1.89001 0
M  V30 3060 C 289.887 -1.01854 1.84903 0
M  V30 3061 O 289.235 -1.87773 1.30206 0
M  V30 3062 C 289.445 1.063 3.32417 0
M  V30 3063 C 290.793 1.13051 4.09273 0
M  V30 3064 O 291.817 1.01345 3.41479 0
M  V30 3065 O 290.676 1.31233 5.30509 0
M  V30 3066 H 287.77 0.163897 0.810597 0
M  V30 3067 H 290.316 1.03173 1.34735 0
M  V30 3068 H 289.088 2.10665 3.29752 0
M  V30 3069 H 288.711 0.517408 3.94219 0
M  V30 3070 N 289.708 -1.40897 0.706093 0
M  V30 3071 C 290.957 -2.00284 0.238574 0
M  V30 3072 C 291.27 -1.56604 -1.17194 0
M  V30 3073 O 292.476 -2.08624 -1.73748 0
M  V30 3074 C 290.932 -3.57934 0.375623 0
M  V30 3075 C 290.54 -4.10591 1.79217 0
M  V30 3076 C 292.284 -4.24488 -0.0315857 0
M  V30 3077 C 290.191 -5.60712 1.88032 0
M  V30 3078 H 289.121 -0.749144 0.0854398 0
M  V30 3079 H 291.772 -1.61251 0.875813 0
M  V30 3080 H 290.154 -3.94622 -0.330042 0
M  V30 3081 H 291.328 -3.85301 2.52745 0
M  V30 3082 H 289.643 -3.56601 2.15 0
M  V30 3083 H 292.24 -5.34698 0.0136842 0
M  V30 3084 H 292.583 -4.02261 -1.072 0
M  V30 3085 H 293.116 -3.92873 0.624181 0
M  V30 3086 H 289.855 -5.87781 2.90161 0
M  V30 3087 H 289.375 -5.87896 1.18903 0
M  V30 3088 H 291.054 -6.25658 1.64805 0
M  V30 3089 N 291.186 -0.45159 -1.50991 0
M  V30 3090 C 292.435 0.111653 -2.01391 0
M  V30 3091 C 292.748 1.42529 -1.33959 0
M  V30 3092 O 293.954 2.07232 -1.75405 0
M  V30 3093 C 292.41 0.249514 -3.59034 0
M  V30 3094 C 292.018 -1.05453 -4.35412 0
M  V30 3095 C 293.762 0.765762 -4.17536 0
M  V30 3096 C 291.669 -0.881529 -5.84793 0
M  V30 3097 H 290.599 0.0455022 -0.752626 0
M  V30 3098 H 293.25 -0.583524 -1.73975 0
M  V30 3099 H 291.632 1.00803 -3.82955 0
M  V30 3100 H 292.806 -1.82248 -4.23229 0
M  V30 3101 H 291.121 -1.50039 -3.88429 0
M  V30 3102 H 293.718 0.911913 -5.26866 0
M  V30 3103 H 294.061 1.75201 -3.77638 0
M  V30 3104 H 294.594 0.0651744 -3.97747 0
M  V30 3105 H 291.333 -1.84057 -6.29129 0
M  V30 3106 H 290.853 -0.153625 -5.99603 0
M  V30 3107 H 292.532 -0.540363 -6.4474 0
M  V30 3108 N 292.664 1.56529 -0.183458 0
M  V30 3109 C 293.912 1.96855 0.457452 0
M  V30 3110 C 294.233 1.07104 1.62953 0
M  V30 3111 O 293.503 0.139887 1.954 0
M  V30 3112 H 292.083 0.72693 0.171992 0
M  V30 3113 H 294.745 1.93056 -0.267476 0
M  V30 3114 H 293.841 3.01423 0.809368 0
M  V30 3115 N 294.142 -0.090211 1.57342 0
M  V30 3116 C 295.072 -1.10976 2.05443 0
M  V30 3117 C 296.053 -1.41482 0.944284 0
M  V30 3118 O 297.238 -1.51428 1.21586 0
M  V30 3119 C 294.368 -2.42831 2.48295 0
M  V30 3120 C 293.322 -2.26721 3.63018 0
M  V30 3121 C 292.648 -3.63796 3.91863 0
M  V30 3122 C 293.948 -1.7037 4.93732 0
M  V30 3123 H 295.642 -0.709564 2.9087 0
M  V30 3124 H 293.188 -0.339874 1.39932 0
M  V30 3125 H 295.141 -3.14431 2.80555 0
M  V30 3126 H 293.865 -2.84795 1.59873 0
M  V30 3127 H 292.524 -1.57565 3.31012 0
M  V30 3128 H 292.172 -4.03297 3.00601 0
M  V30 3129 H 291.872 -3.53861 4.69101 0
M  V30 3130 H 293.396 -4.36855 4.26603 0
M  V30 3131 H 294.81 -2.31816 5.24342 0
M  V30 3132 H 293.207 -1.71181 5.75167 0
M  V30 3133 H 294.277 -0.663542 4.80339 0
M  V30 3134 N 295.62 -1.53406 -0.361157 0
M  V30 3135 C 296.583 -1.79479 -1.42548 0
M  V30 3136 C 297.583 -0.665327 -1.4639 0
M  V30 3137 O 298.773 -0.933549 -1.47073 0
M  V30 3138 C 295.905 -1.92087 -2.8163 0
M  V30 3139 H 297.098 -2.74538 -1.20701 0
M  V30 3140 H 294.651 -1.4455 -0.594546 0
M  V30 3141 H 295.386 -0.991099 -3.08784 0
M  V30 3142 H 295.171 -2.74241 -2.80239 0
M  V30 3143 H 296.661 -2.13836 -3.58697 0
M  V30 3144 N 297.098 0.621204 -1.44841 0
M  V30 3145 C 298.346 1.37783 -1.47852 0
M  V30 3146 C 298.667 1.94653 -0.116224 0
M  V30 3147 O 297.937 1.76367 0.852737 0
M  V30 3148 H 296.517 0.511453 -0.544449 0
M  V30 3149 H 299.179 0.730446 -1.80694 0
M  V30 3150 H 298.275 2.20414 -2.20961 0
M  V30 3151 N 298.576 1.31904 0.862503 0
M  V30 3152 C 299.486 1.22161 2.00285 0
M  V30 3153 C 300.502 0.136785 1.73462 0
M  V30 3154 O 301.678 0.355994 1.98229 0
M  V30 3155 C 298.743 0.937093 3.33796 0
M  V30 3156 C 297.804 2.10957 3.73893 0
M  V30 3157 C 297.037 1.83853 5.01033 0
M  V30 3158 O 297.26 0.777274 5.65079 0
M  V30 3159 O 296.194 2.69741 5.38074 0
M  V30 3160 H 300.02 2.18008 2.11439 0
M  V30 3161 H 297.605 1.11716 0.991957 0
M  V30 3162 H 299.487 0.794583 4.13841 0
M  V30 3163 H 298.162 0.00871894 3.23699 0
M  V30 3164 H 297.069 2.30752 2.94456 0
M  V30 3165 H 298.402 3.02046 3.88625 0
M  V30 3166 N 300.054 -1.07777 1.14986 0
M  V30 3167 C 301.3 -1.80719 0.93339 0
M  V30 3168 C 301.655 -1.8484 -0.534019 0
M  V30 3169 O 300.948 -1.31795 -1.3907 0
M  V30 3170 C 301.142 -3.25495 1.47608 0
M  V30 3171 C 300.971 -3.3548 2.99472 0
M  V30 3172 C 299.741 -3.46293 3.6798 0
M  V30 3173 C 301.939 -3.26596 3.97291 0
M  V30 3174 N 299.921 -3.45136 5.07695 0
M  V30 3175 C 301.292 -3.32506 5.23297 0
M  V30 3176 C 303.347 -3.10376 3.89321 0
M  V30 3177 C 302.05 -3.23866 6.42264 0
M  V30 3178 C 304.076 -3.03069 5.07842 0
M  V30 3179 C 303.438 -3.09587 6.32721 0
M  V30 3180 H 299.537 -0.674814 0.395158 0
M  V30 3181 H 302.121 -1.28681 1.46114 0
M  V30 3182 H 300.292 -3.75963 0.975022 0
M  V30 3183 H 302.024 -3.86535 1.19887 0
M  V30 3184 H 298.779 -3.50456 3.18555 0
M  V30 3185 H 299.203 -3.48097 5.80653 0
M  V30 3186 H 303.845 -3.04194 2.93642 0
M  V30 3187 H 301.563 -3.28807 7.38181 0
M  V30 3188 H 305.149 -2.91629 5.03432 0
M  V30 3189 H 304.029 -3.0397 7.22891 0
M  V30 3190 N 301.532 -0.945985 -1.26051 0
M  V30 3191 C 302.462 -0.477172 -2.28572 0
M  V30 3192 C 303.443 0.472032 -1.63419 0
M  V30 3193 O 304.628 0.372853 -1.90587 0
M  V30 3194 C 301.758 0.253975 -3.4637 0
M  V30 3195 C 300.712 -0.609135 -4.23643 0
M  V30 3196 C 300.038 0.252252 -5.34105 0
M  V30 3197 C 301.338 -1.8829 -4.8718 0
M  V30 3198 H 303.032 -1.33402 -2.68038 0
M  V30 3199 H 300.578 -0.642904 -1.28852 0
M  V30 3200 H 302.531 0.593016 -4.17207 0
M  V30 3201 H 301.255 1.145 -3.05871 0
M  V30 3202 H 299.914 -0.931138 -3.54578 0
M  V30 3203 H 299.562 1.14278 -4.89846 0
M  V30 3204 H 299.262 -0.32188 -5.86718 0
M  V30 3205 H 300.786 0.586454 -6.07777 0
M  V30 3206 H 302.2 -1.61081 -5.50205 0
M  V30 3207 H 300.597 -2.40199 -5.49931 0
M  V30 3208 H 301.667 -2.59134 -4.09851 0
M  V30 3209 N 303.011 1.40521 -0.713556 0
M  V30 3210 C 304.239 2.05237 -0.261775 0
M  V30 3211 C 304.654 1.53755 1.09567 0
M  V30 3212 O 304.011 0.693268 1.6882 0
M  V30 3213 C 304.062 3.60763 -0.230706 0
M  V30 3214 O 303.783 4.10345 -1.53455 0
M  V30 3215 C 305.284 4.42651 0.239874 0
M  V30 3216 H 302.504 0.660533 -0.118057 0
M  V30 3217 H 305.048 1.79967 -0.971192 0
M  V30 3218 H 303.203 3.8501 0.429661 0
M  V30 3219 H 303.617 5.04526 -1.43366 0
M  V30 3220 H 305.091 5.51599 0.210468 0
M  V30 3221 H 305.568 4.20082 1.28171 0
M  V30 3222 H 306.174 4.23507 -0.390142 0
M  V30 3223 N 304.489 0.459591 1.5075 0
M  V30 3224 C 305.714 -0.0996819 2.0716 0
M  V30 3225 C 306.139 -1.33761 1.32249 0
M  V30 3226 O 305.497 -1.77551 0.366786 0
M  V30 3227 C 305.545 -0.378226 3.58611 0
M  V30 3228 O 304.649 -1.46081 3.85661 0
M  V30 3229 H 303.99 0.00791392 0.663953 0
M  V30 3230 H 306.52 0.647329 1.9409 0
M  V30 3231 H 306.53 -0.622135 4.03229 0
M  V30 3232 H 305.205 0.526439 4.12555 0
M  V30 3233 H 303.782 -1.20511 3.5289 0
M  V30 3234 N 305.967 -1.56429 0.191757 0
M  V30 3235 C 307.195 -2.01867 -0.453586 0
M  V30 3236 C 307.61 -1.07191 -1.5542 0
M  V30 3237 O 306.967 -0.0762108 -1.82341 0
M  V30 3238 C 307.018 -3.47017 -1.013 0
M  V30 3239 O 306.739 -4.38078 0.0437005 0
M  V30 3240 C 308.24 -4.07956 -1.73456 0
M  V30 3241 H 305.46 -0.661211 -0.114199 0
M  V30 3242 H 308.004 -2.02295 0.299483 0
M  V30 3243 H 306.159 -3.47298 -1.71647 0
M  V30 3244 H 306.573 -5.23178 -0.372212 0
M  V30 3245 H 308.047 -5.1138 -2.07833 0
M  V30 3246 H 308.524 -3.51222 -2.63704 0
M  V30 3247 H 309.13 -4.11437 -1.07702 0
M  V30 3248 N 307.445 0.0818655 -1.57387 0
M  V30 3249 C 308.408 1.08265 -2.02018 0
M  V30 3250 C 309.408 1.32183 -0.915664 0
M  V30 3251 O 310.598 1.28073 -1.18081 0
M  V30 3252 C 307.73 2.42871 -2.39221 0
M  V30 3253 H 308.923 0.698204 -2.91659 0
M  V30 3254 H 306.476 0.327303 -1.52835 0
M  V30 3255 H 307.211 2.86167 -1.52575 0
M  V30 3256 H 306.996 2.26855 -3.19811 0
M  V30 3257 H 308.486 3.14826 -2.74362 0
M  V30 3258 N 308.923 1.53595 0.353017 0
M  V30 3259 C 309.871 1.81605 1.45335 0
M  V30 3260 C 310.865 0.685923 1.54892 0
M  V30 3261 O 312.071 0.869095 1.57628 0
M  V30 3262 H 308.446 0.575204 0.484401 0
M  V30 3263 H 310.417 2.73679 1.18921 0
M  V30 3264 C 309.166 2.03406 2.81995 0
M  V30 3265 H 308.489 2.89814 2.75405 0
M  V30 3266 H 309.929 2.26975 3.58132 0
M  V30 3267 C 308.388 0.816794 3.26849 0
M  V30 3268 O 308.918 0.0115856 4.01698 0
M  V30 3269 N 307.124 0.636682 2.8354 0
M  V30 3270 H 306.671 1.2931 2.22793 0
M  V30 3271 H 306.629 -0.176336 3.13905 0
M  V30 3272 N 310.401 -0.613514 1.45168 0
M  V30 3273 C 311.629 -1.39946 1.5239 0
M  V30 3274 C 312.044 -1.88167 0.154531 0
M  V30 3275 O 311.401 -1.61872 -0.842843 0
M  V30 3276 C 311.452 -2.60795 2.50337 0
M  V30 3277 O 311.173 -2.1458 3.81952 0
M  V30 3278 C 312.674 -3.53723 2.67198 0
M  V30 3279 H 309.894 -0.428593 0.516284 0
M  V30 3280 H 312.438 -0.748753 1.903 0
M  V30 3281 H 310.593 -3.21919 2.15515 0
M  V30 3282 H 311.007 -2.93055 4.34993 0
M  V30 3283 H 312.481 -4.35079 3.39721 0
M  V30 3284 H 312.958 -4.0368 1.73029 0
M  V30 3285 H 313.564 -2.98456 3.02992 0
M  V30 3286 N 311.879 -1.3236 -0.855495 0
M  V30 3287 C 312.827 -1.2118 -1.9854 0
M  V30 3288 C 313.821 -0.116788 -1.68997 0
M  V30 3289 O 315.027 -0.279657 -1.77814 0
M  V30 3290 H 311.402 -0.375608 -0.651477 0
M  V30 3291 H 313.373 -2.16743 -2.05098 0
M  V30 3292 C 312.122 -0.950849 -3.34446 0
M  V30 3293 H 311.445 -1.78563 -3.57708 0
M  V30 3294 H 312.885 -0.912863 -4.14057 0
M  V30 3295 C 311.344 0.346404 -3.35114 0
M  V30 3296 O 311.874 1.35855 -3.7803 0
M  V30 3297 N 310.08 0.36808 -2.88259 0
M  V30 3298 H 309.627 -0.456102 -2.5353 0
M  V30 3299 H 309.585 1.23591 -2.89089 0
M  V30 3300 N 313.357 1.07166 -1.15556 0
M  V30 3301 C 314.29 2.13808 -0.797593 0
M  V30 3302 C 315.268 1.6101 0.226812 0
M  V30 3303 O 316.452 1.88161 0.112932 0
M  V30 3304 C 313.579 3.38187 -0.186371 0
M  V30 3305 C 312.625 4.09766 -1.18297 0
M  V30 3306 S 313.458 4.60932 -2.72584 0
M  V30 3307 C 314.614 5.88583 -2.12886 0
M  V30 3308 H 314.847 2.43843 -1.70083 0
M  V30 3309 H 312.38 1.19467 -0.978106 0
M  V30 3310 H 314.338 4.10189 0.159837 0
M  V30 3311 H 312.999 3.06326 0.694489 0
M  V30 3312 H 312.192 4.99065 -0.703562 0
M  V30 3313 H 311.794 3.43736 -1.47381 0
M  V30 3314 H 314.086 6.60866 -1.49208 0
M  V30 3315 H 315.029 6.41241 -3.0036 0
M  V30 3316 H 315.437 5.42194 -1.57116 0
M  V30 3317 N 314.835 0.952656 1.25548 0
M  V30 3318 C 316.082 0.606373 1.93208 0
M  V30 3319 C 316.41 -0.85631 1.74636 0
M  V30 3320 O 315.665 -1.62951 1.08376 0
M  V30 3321 C 315.964 0.908818 3.45652 0
M  V30 3322 C 315.63 2.35722 3.84378 0
M  V30 3323 C 314.292 2.75312 3.9466 0
M  V30 3324 C 316.644 3.29793 4.03591 0
M  V30 3325 C 313.972 4.08047 4.21562 0
M  V30 3326 C 316.324 4.62138 4.31985 0
M  V30 3327 C 314.988 5.01528 4.40484 0
M  V30 3328 H 314.258 0.221888 0.706998 0
M  V30 3329 H 316.905 1.20132 1.49133 0
M  V30 3330 H 315.21 0.231456 3.91116 0
M  V30 3331 H 316.907 0.619498 3.96186 0
M  V30 3332 H 313.497 2.04017 3.76928 0
M  V30 3333 H 317.681 3.00397 3.95064 0
M  V30 3334 H 312.937 4.38212 4.26357 0
M  V30 3335 H 317.111 5.35012 4.45797 0
M  V30 3336 H 314.738 6.04406 4.61083 0
M  V30 3337 N 316.313 -1.40141 0.720998 0
M  V30 3338 C 317.541 -2.05096 0.272656 0
M  V30 3339 C 317.956 -1.54334 -1.0875 0
M  V30 3340 O 317.313 -0.702211 -1.6845 0
M  V30 3341 C 317.364 -3.60636 0.249835 0
M  V30 3342 O 317.085 -4.09526 1.55629 0
M  V30 3343 C 318.586 -4.42772 -0.216396 0
M  V30 3344 H 315.806 -0.659897 0.121558 0
M  V30 3345 H 318.35 -1.79449 0.980723 0
M  V30 3346 H 316.505 -3.85232 -0.409237 0
M  V30 3347 H 316.919 -5.03758 1.4604 0
M  V30 3348 H 318.393 -5.51702 -0.181212 0
M  V30 3349 H 318.87 -4.20756 -1.25941 0
M  V30 3350 H 319.476 -4.23294 0.412596 0
M  V30 3351 N 317.792 -0.46758 -1.50504 0
M  V30 3352 C 319.022 0.086288 -2.0642 0
M  V30 3353 C 319.43 1.34369 -1.33197 0
M  V30 3354 O 318.773 1.79431 -0.393747 0
M  V30 3355 C 318.835 0.443846 -3.5675 0
M  V30 3356 C 318.499 -0.711035 -4.51435 0
M  V30 3357 C 319.496 -1.59205 -4.94924 0
M  V30 3358 C 317.181 -0.900363 -4.94165 0
M  V30 3359 C 319.175 -2.64683 -5.79846 0
M  V30 3360 C 316.862 -1.95837 -5.7887 0
M  V30 3361 C 317.86 -2.82997 -6.21612 0
M  V30 3362 O 317.548 -3.86977 -7.0463 0
M  V30 3363 H 317.28 -0.00217814 -0.675996 0
M  V30 3364 H 319.834 -0.654346 -1.94698 0
M  V30 3365 H 318.064 1.23762 -3.6636 0
M  V30 3366 H 319.753 0.932386 -3.95046 0
M  V30 3367 H 320.519 -1.45745 -4.62583 0
M  V30 3368 H 316.398 -0.231427 -4.60419 0
M  V30 3369 H 319.942 -3.32745 -6.13128 0
M  V30 3370 H 315.839 -2.09305 -6.10624 0
M  V30 3371 H 316.607 -3.83923 -7.22873 0
M  V30 3372 N 319.27 1.56325 -0.20005 0
M  V30 3373 C 320.18 2.22931 0.730668 0
M  V30 3374 C 321.196 1.22997 1.23076 0
M  V30 3375 O 322.372 1.55748 1.27689 0
M  V30 3376 C 319.437 2.87948 1.93098 0
M  V30 3377 C 318.498 4.03166 1.47497 0
M  V30 3378 C 317.731 4.65073 2.61807 0
M  V30 3379 O 317.954 4.25913 3.79413 0
M  V30 3380 O 316.888 5.54452 2.34237 0
M  V30 3381 H 320.714 3.03084 0.193391 0
M  V30 3382 H 318.299 1.49371 0.0294621 0
M  V30 3383 H 320.181 3.29063 2.6324 0
M  V30 3384 H 318.856 2.10771 2.45677 0
M  V30 3385 H 317.763 3.66664 0.742201 0
M  V30 3386 H 319.096 4.82022 0.995796 0
M  V30 3387 N 320.748 -0.0735177 1.57428 0
M  V30 3388 C 321.997 -0.771809 1.86349 0
M  V30 3389 C 322.31 -1.78828 0.792452 0
M  V30 3390 O 323.516 -2.53602 0.96945 0
M  V30 3391 C 321.972 -1.42358 3.30548 0
M  V30 3392 C 321.58 -0.445761 4.45777 0
M  V30 3393 C 323.324 -2.10434 3.6867 0
M  V30 3394 C 321.231 -1.10335 5.81016 0
M  V30 3395 H 320.161 -0.291999 0.695164 0
M  V30 3396 H 322.812 -0.0250749 1.83483 0
M  V30 3397 H 321.194 -2.21852 3.28021 0
M  V30 3398 H 322.368 0.319239 4.59693 0
M  V30 3399 H 320.683 0.130457 4.16196 0
M  V30 3400 H 323.28 -2.60405 4.67004 0
M  V30 3401 H 323.623 -2.90298 2.98383 0
M  V30 3402 H 324.156 -1.37773 3.7318 0
M  V30 3403 H 320.895 -0.345061 6.54591 0
M  V30 3404 H 320.415 -1.83925 5.70904 0
M  V30 3405 H 322.094 -1.62367 6.26295 0
M  V30 3406 N 322.226 -1.5378 -0.344866 0
M  V30 3407 C 323.189 -1.80981 -1.40637 0
M  V30 3408 C 324.189 -0.680816 -1.45676 0
M  V30 3409 O 325.379 -0.949095 -1.46075 0
M  V30 3410 C 322.511 -1.95063 -2.79577 0
M  V30 3411 H 323.704 -2.75803 -1.17783 0
M  V30 3412 H 321.257 -1.45173 -0.579181 0
M  V30 3413 H 321.992 -1.02379 -3.07716 0
M  V30 3414 H 321.777 -2.77198 -2.77315 0
M  V30 3415 H 323.267 -2.17629 -3.56409 0
M  V30 3416 N 323.704 0.605807 -1.45491 0
M  V30 3417 C 325.115 1.18777 -1.44045 0
M  V30 3418 C 325.466 1.95471 -0.169001 0
M  V30 3419 O 324.591 2.0374 0.729324 0
M  V30 3420 C 325.186 2.16064 -2.60963 0
M  V30 3421 C 323.745 2.69633 -2.62631 0
M  V30 3422 C 322.892 1.45072 -2.36325 0
M  V30 3423 H 325.843 0.395017 -1.53705 0
M  V30 3424 H 325.864 2.9913 -2.35163 0
M  V30 3425 H 325.376 1.60217 -3.53486 0
M  V30 3426 H 323.477 3.29414 -1.74119 0
M  V30 3427 H 323.59 3.13944 -3.61906 0
M  V30 3428 H 321.954 1.74089 -1.85917 0
M  V30 3429 H 322.737 0.910899 -3.30995 0
M  V30 3430 N 325.182 1.32811 0.848464 0
M  V30 3431 C 326.428 1.23907 1.60546 0
M  V30 3432 C 326.761 -0.197161 1.93197 0
M  V30 3433 O 326.036 -1.13596 1.5788 0
M  V30 3434 C 326.319 2.10489 2.92175 0
M  V30 3435 C 326.172 3.62522 2.66266 0
M  V30 3436 C 327.491 1.97075 3.93509 0
M  V30 3437 H 324.61 0.451459 0.58254 0
M  V30 3438 H 327.252 1.62818 0.979296 0
M  V30 3439 H 325.402 1.77434 3.45614 0
M  V30 3440 H 327.074 4.05821 2.19334 0
M  V30 3441 H 325.317 3.84879 2.00126 0
M  V30 3442 H 325.988 4.18437 3.6002 0
M  V30 3443 H 328.464 2.26045 3.49346 0
M  V30 3444 H 327.34 2.59923 4.83457 0
M  V30 3445 H 327.601 0.940186 4.31987 0
M  V30 3446 N 326.66 -1.06551 1.16123 0
M  V30 3447 C 327.907 -1.79302 0.941126 0
M  V30 3448 C 328.235 -1.87105 -0.531235 0
M  V30 3449 O 327.49 -1.35692 -1.41018 0
M  V30 3450 C 327.789 -3.23911 1.51052 0
M  V30 3451 C 327.455 -3.36193 3.00475 0
M  V30 3452 C 326.117 -3.39252 3.41265 0
M  V30 3453 C 328.469 -3.38326 3.96465 0
M  V30 3454 C 325.797 -3.42057 4.76669 0
M  V30 3455 C 328.149 -3.4267 5.31752 0
M  V30 3456 C 326.813 -3.4401 5.72026 0
M  V30 3457 H 326.083 -0.656111 0.344382 0
M  V30 3458 H 328.73 -1.25325 1.44796 0
M  V30 3459 H 327.035 -3.80723 0.925063 0
M  V30 3460 H 328.732 -3.78793 1.31593 0
M  V30 3461 H 325.322 -3.34516 2.6795 0
M  V30 3462 H 329.506 -3.35176 3.6602 0
M  V30 3463 H 324.762 -3.41398 5.07206 0
M  V30 3464 H 328.936 -3.43268 6.05921 0
M  V30 3465 H 326.563 -3.45937 6.76928 0
M  V30 3466 N 328.138 -0.959301 -1.25041 0
M  V30 3467 C 329.384 -0.617525 -1.9317 0
M  V30 3468 C 329.717 0.843981 -1.74902 0
M  V30 3469 O 328.992 1.60615 -1.09696 0
M  V30 3470 C 329.275 -0.982736 -3.46431 0
M  V30 3471 C 329.128 -2.50032 -3.73904 0
M  V30 3472 C 330.447 -0.511176 -4.37121 0
M  V30 3473 H 327.566 -0.22582 -0.701552 0
M  V30 3474 H 330.208 -1.19679 -1.4757 0
M  V30 3475 H 328.358 -0.489806 -3.854 0
M  V30 3476 H 330.03 -3.06737 -3.44544 0
M  V30 3477 H 328.273 -2.93598 -3.19348 0
M  V30 3478 H 328.944 -2.70635 -4.81103 0
M  V30 3479 H 331.42 -0.934075 -4.0548 0
M  V30 3480 H 330.296 -0.795361 -5.43107 0
M  V30 3481 H 330.557 0.588834 -4.38161 0
M  V30 3482 N 329.616 1.39756 -0.72842 0
M  V30 3483 C 330.546 2.33289 -0.0991354 0
M  V30 3484 C 331.527 1.53568 0.731489 0
M  V30 3485 O 332.712 1.81987 0.677807 0
M  V30 3486 C 329.842 3.3763 0.813834 0
M  V30 3487 C 328.796 4.2791 0.0878663 0
M  V30 3488 C 328.122 5.22894 1.11741 0
M  V30 3489 C 329.422 5.11314 -1.06563 0
M  V30 3490 H 331.116 2.86163 -0.880408 0
M  V30 3491 H 328.662 1.37591 -0.424819 0
M  V30 3492 H 330.615 4.0201 1.26355 0
M  V30 3493 H 329.339 2.83181 1.62715 0
M  V30 3494 H 327.998 3.65 -0.342159 0
M  V30 3495 H 327.646 4.64744 1.92412 0
M  V30 3496 H 327.346 5.84143 0.636477 0
M  V30 3497 H 328.87 5.90151 1.56697 0
M  V30 3498 H 330.284 5.69076 -0.694671 0
M  V30 3499 H 328.681 5.81671 -1.47577 0
M  V30 3500 H 329.751 4.46534 -1.89038 0
M  V30 3501 N 331.094 0.475555 1.50254 0
M  V30 3502 C 332.027 -0.362381 2.25304 0
M  V30 3503 C 333.005 -0.992393 1.28803 0
M  V30 3504 O 334.189 -1.02746 1.58036 0
M  V30 3505 C 331.316 -1.50813 3.03271 0
M  V30 3506 C 330.362 -0.995044 4.1473 0
M  V30 3507 S 331.195 0.0938436 5.35418 0
M  V30 3508 C 332.351 -1.05567 6.16933 0
M  V30 3509 H 332.584 0.274686 2.96028 0
M  V30 3510 H 330.117 0.260495 1.52187 0
M  V30 3511 H 332.075 -2.16476 3.48781 0
M  V30 3512 H 330.736 -2.11672 2.32064 0
M  V30 3513 H 329.929 -1.85293 4.68703 0
M  V30 3514 H 329.531 -0.416052 3.71679 0
M  V30 3515 H 331.823 -1.96636 6.48337 0
M  V30 3516 H 332.766 -0.555109 7.05921 0
M  V30 3517 H 333.174 -1.31151 5.49053 0
M  V30 3518 N 332.573 -1.56217 0.208337 0
M  V30 3519 C 333.483 -2.23316 -0.718836 0
M  V30 3520 C 334.499 -1.23648 -1.22422 0
M  V30 3521 O 335.675 -1.56423 -1.26861 0
M  V30 3522 C 332.74 -2.88968 -1.91568 0
M  V30 3523 C 331.801 -4.03943 -1.45357 0
M  V30 3524 C 331.034 -4.66455 -2.59337 0
M  V30 3525 O 331.257 -4.27919 -3.77149 0
M  V30 3526 O 330.191 -5.55686 -2.31293 0
M  V30 3527 H 334.017 -3.03182 -0.177315 0
M  V30 3528 H 331.602 -1.49384 -0.0215402 0
M  V30 3529 H 333.484 -3.30455 -2.61491 0
M  V30 3530 H 332.159 -2.12071 -2.44556 0
M  V30 3531 H 331.066 -3.67052 -0.722746 0
M  V30 3532 H 332.399 -4.82543 -0.970219 0
M  V30 3533 N 334.051 0.0651679 -1.57465 0
M  V30 3534 C 334.983 1.10359 -2.00882 0
M  V30 3535 C 335.996 1.346 -0.915788 0
M  V30 3536 O 337.185 1.32723 -1.1936 0
M  V30 3537 C 334.285 2.45312 -2.33828 0
M  V30 3538 C 333.458 2.40934 -3.65061 0
M  V30 3539 C 332.517 3.58047 -3.85602 0
M  V30 3540 O 331.543 3.39175 -4.57109 0
M  V30 3541 N 332.745 4.78637 -3.28462 0
M  V30 3542 H 335.51 0.733807 -2.90578 0
M  V30 3543 H 333.071 0.253719 -1.599 0
M  V30 3544 H 335.063 3.22314 -2.44737 0
M  V30 3545 H 333.633 2.74267 -1.49988 0
M  V30 3546 H 332.853 1.49273 -3.64844 0
M  V30 3547 H 334.141 2.35117 -4.51218 0
M  V30 3548 H 333.539 4.96872 -2.70433 0
M  V30 3549 H 332.096 5.53127 -3.44809 0
M  V30 3550 N 335.529 1.53961 0.336706 0
M  V30 3551 C 336.778 1.70751 1.07363 0
M  V30 3552 C 337.091 0.481061 1.89592 0
M  V30 3553 O 338.297 0.530046 2.66276 0
M  V30 3554 C 336.753 3.01965 1.95818 0
M  V30 3555 C 336.361 4.31971 1.18764 0
M  V30 3556 C 338.105 3.28121 2.69327 0
M  V30 3557 C 336.012 5.54255 2.06289 0
M  V30 3558 H 334.942 0.636292 0.404535 0
M  V30 3559 H 337.593 1.80459 0.332681 0
M  V30 3560 H 335.975 2.86132 2.7376 0
M  V30 3561 H 337.149 4.5853 0.456849 0
M  V30 3562 H 335.464 4.12481 0.569946 0
M  V30 3563 H 338.061 4.16673 3.35094 0
M  V30 3564 H 338.404 2.45426 3.36261 0
M  V30 3565 H 338.937 3.44762 1.98454 0
M  V30 3566 H 335.676 6.39513 1.43885 0
M  V30 3567 H 335.196 5.31935 2.77138 0
M  V30 3568 H 336.875 5.90159 2.65182 0
M  V30 3569 N 337.007 -0.598083 1.45811 0
M  V30 3570 C 338.235 -1.38322 1.53866 0
M  V30 3571 C 338.65 -1.87992 0.174479 0
M  V30 3572 O 338.007 -1.62756 -0.825627 0
M  V30 3573 C 338.058 -2.58125 2.53089 0
M  V30 3574 O 337.779 -2.10516 3.84206 0
M  V30 3575 C 339.28 -3.50869 2.70935 0
M  V30 3576 H 336.5 -0.423093 0.520801 0
M  V30 3577 H 339.044 -0.728527 1.91083 0
M  V30 3578 H 337.199 -3.19615 2.18917 0
M  V30 3579 H 337.613 -2.88425 4.38077 0
M  V30 3580 H 339.087 -4.31451 3.44317 0
M  V30 3581 H 339.564 -4.01822 1.77301 0
M  V30 3582 H 340.17 -2.95225 3.06141 0
M  V30 3583 N 338.485 -1.33259 -0.841409 0
M  V30 3584 C 339.415 -1.25926 -1.96634 0
M  V30 3585 C 340.396 -0.140349 -1.6952 0
M  V30 3586 O 341.581 -0.329707 -1.91381 0
M  V30 3587 C 338.711 -0.99512 -3.32738 0
M  V30 3588 C 337.665 -2.0767 -3.74242 0
M  V30 3589 C 336.991 -1.66474 -5.08125 0
M  V30 3590 C 338.291 -3.49318 -3.88297 0
M  V30 3591 H 339.985 -2.20046 -2.03027 0
M  V30 3592 H 337.531 -1.05931 -0.975425 0
M  V30 3593 H 339.484 -0.930323 -4.11002 0
M  V30 3594 H 338.208 -0.0183004 -3.26595 0
M  V30 3595 H 336.867 -2.13187 -2.98239 0
M  V30 3596 H 336.515 -0.675012 -4.9845 0
M  V30 3597 H 336.215 -2.3885 -5.36865 0
M  V30 3598 H 337.739 -1.61455 -5.88867 0
M  V30 3599 H 339.153 -3.46316 -4.56879 0
M  V30 3600 H 337.55 -4.20158 -4.28471 0
M  V30 3601 H 338.62 -3.8801 -2.9082 0
M  V30 3602 N 339.963 1.05934 -1.16686 0
M  V30 3603 C 340.91 2.13499 -0.876748 0
M  V30 3604 C 341.88 1.65162 0.176299 0
M  V30 3605 O 343.065 1.90757 0.0407143 0
M  V30 3606 C 340.205 3.42912 -0.387967 0
M  V30 3607 C 339.318 4.04964 -1.50426 0
M  V30 3608 C 338.453 5.22266 -0.970125 0
M  V30 3609 C 337.492 5.76309 -2.06238 0
M  V30 3610 N 336.629 6.84922 -1.54356 0
M  V30 3611 H 341.469 2.37654 -1.7979 0
M  V30 3612 H 339.006 1.16598 -0.896843 0
M  V30 3613 H 340.964 4.17111 -0.086186 0
M  V30 3614 H 339.594 3.18963 0.496235 0
M  V30 3615 H 338.646 3.28277 -1.92193 0
M  V30 3616 H 339.958 4.41122 -2.32836 0
M  V30 3617 H 339.112 6.03506 -0.621743 0
M  V30 3618 H 337.851 4.87564 -0.115377 0
M  V30 3619 H 336.856 4.93704 -2.41942 0
M  V30 3620 H 338.081 6.13062 -2.92115 0
M  V30 3621 H 336.027 6.52131 -0.711406 0
M  V30 3622 H 335.944 7.20043 -2.30379 0
M  V30 3623 H 337.212 7.69832 -1.22387 0
M  V30 3624 N 341.441 0.965919 1.2453 0
M  V30 3625 C 342.388 0.49402 2.25451 0
M  V30 3626 C 343.358 -0.45948 1.59618 0
M  V30 3627 O 344.543 -0.370238 1.87173 0
M  V30 3628 C 341.683 -0.211359 3.44452 0
M  V30 3629 C 340.796 0.7807 4.24887 0
M  V30 3630 C 339.931 0.0516105 5.31175 0
M  V30 3631 C 338.97 1.03385 6.03306 0
M  V30 3632 N 338.107 0.334887 7.01301 0
M  V30 3633 H 342.947 1.35946 2.65184 0
M  V30 3634 H 340.484 0.681515 1.3036 0
M  V30 3635 H 342.442 -0.637 4.12308 0
M  V30 3636 H 341.072 -1.04077 3.05562 0
M  V30 3637 H 340.124 1.32479 3.56586 0
M  V30 3638 H 341.436 1.52978 4.74762 0
M  V30 3639 H 340.59 -0.432114 6.05159 0
M  V30 3640 H 339.329 -0.730179 4.82203 0
M  V30 3641 H 338.334 1.52847 5.28127 0
M  V30 3642 H 339.559 1.81606 6.54367 0
M  V30 3643 H 337.505 -0.427959 6.54603 0
M  V30 3644 H 337.422 1.02287 7.49048 0
M  V30 3645 H 338.69 -0.126928 7.79397 0
M  V30 3646 N 342.919 -1.39368 0.735821 0
M  V30 3647 C 343.852 -2.28155 0.0451175 0
M  V30 3648 C 344.83 -1.44433 -0.746852 0
M  V30 3649 O 346.014 -1.73823 -0.729237 0
M  V30 3650 C 343.141 -3.253 -0.943266 0
M  V30 3651 C 342.187 -4.25826 -0.239685 0
M  V30 3652 S 343.02 -5.25166 1.04693 0
M  V30 3653 C 344.176 -6.2587 0.0611639 0
M  V30 3654 H 344.409 -2.86388 0.79807 0
M  V30 3655 H 341.942 -1.45104 0.527653 0
M  V30 3656 H 343.9 -3.81789 -1.50824 0
M  V30 3657 H 342.561 -2.66085 -1.66906 0
M  V30 3658 H 341.754 -4.94229 -0.987596 0
M  V30 3659 H 341.356 -3.73141 0.253274 0
M  V30 3660 H 343.648 -6.73007 -0.778941 0
M  V30 3661 H 344.591 -7.04508 0.712362 0
M  V30 3662 H 344.999 -5.63639 -0.311602 0
M  V30 3663 N 344.397 -0.483516 -1.5 0
M  V30 3664 C 345.813 -0.138404 -1.58999 0
M  V30 3665 C 346.013 1.35597 -1.4905 0
M  V30 3666 O 345.069 2.13039 -1.35539 0
M  V30 3667 C 346.382 -0.699658 -2.92447 0
M  V30 3668 C 347.93 -0.664195 -3.05872 0
M  V30 3669 C 348.405 -1.20321 -4.41913 0
M  V30 3670 N 349.896 -1.16315 -4.48358 0
M  V30 3671 C 350.631 -1.55058 -5.52037 0
M  V30 3672 N 350.127 -2.01311 -6.62907 0
M  V30 3673 N 351.92 -1.46584 -5.42651 0
M  V30 3674 H 344.071 -1.45529 -1.5471 0
M  V30 3675 H 346.334 -0.60258 -0.731848 0
M  V30 3676 H 346.04 -1.747 -3.05242 0
M  V30 3677 H 345.914 -0.150194 -3.76901 0
M  V30 3678 H 348.301 0.374272 -2.92717 0
M  V30 3679 H 348.382 -1.25061 -2.23144 0
M  V30 3680 H 348.026 -2.24037 -4.55818 0
M  V30 3681 H 347.956 -0.592896 -5.23252 0
M  V30 3682 H 350.447 -0.824058 -3.68806 0
M  V30 3683 H 350.76 -2.2899 -7.38095 0
M  V30 3684 H 349.105 -2.05273 -6.63994 0
M  V30 3685 H 352.296 -1.10281 -4.54924 0
M  V30 3686 H 352.469 -1.77103 -6.23329 0
M  V30 3687 N 345.875 1.56104 -0.216619 0
M  V30 3688 C 346.785 2.23694 0.706982 0
M  V30 3689 C 347.801 1.24295 1.21765 0
M  V30 3690 O 348.977 1.57094 1.2603 0
M  V30 3691 C 346.042 2.8998 1.90033 0
M  V30 3692 C 345.103 4.04708 1.43213 0
M  V30 3693 C 344.336 4.67824 2.56859 0
M  V30 3694 O 344.559 4.29913 3.74874 0
M  V30 3695 O 343.493 5.56905 2.28343 0
M  V30 3696 H 347.319 3.03272 0.161235 0
M  V30 3697 H 344.904 1.49394 0.0136177 0
M  V30 3698 H 346.786 3.31837 2.59735 0
M  V30 3699 H 345.461 2.13365 2.43428 0
M  V30 3700 H 344.368 3.6743 0.70327 0
M  V30 3701 H 345.701 4.83051 0.944615 0
M  V30 3702 N 347.353 -0.0568162 1.57498 0
M  V30 3703 C 348.602 -0.752001 1.87157 0
M  V30 3704 C 348.915 -1.77978 0.811375 0
M  V30 3705 O 350.121 -2.52559 0.996293 0
M  V30 3706 C 348.577 -1.38844 3.3204 0
M  V30 3707 C 348.185 -0.398456 4.46225 0
M  V30 3708 C 349.929 -2.06512 3.70882 0
M  V30 3709 C 347.836 -1.04166 5.82154 0
M  V30 3710 H 346.766 -0.28461 0.698222 0
M  V30 3711 H 349.417 -0.00561272 1.83499 0
M  V30 3712 H 347.799 -2.1836 3.30356 0
M  V30 3713 H 348.973 0.367977 4.59328 0
M  V30 3714 H 347.288 0.174592 4.16034 0
M  V30 3715 H 349.885 -2.55437 4.6974 0
M  V30 3716 H 350.228 -2.87117 3.01445 0
M  V30 3717 H 350.761 -1.33808 3.7462 0
M  V30 3718 H 347.5 -0.275614 6.5492 0
M  V30 3719 H 347.02 -1.7786 5.72823 0
M  V30 3720 H 348.699 -1.55715 6.27982 0
M  V30 3721 N 348.832 -1.54138 -0.328536 0
M  V30 3722 C 350.078 -1.7236 -1.06865 0
M  V30 3723 C 350.411 -0.493231 -1.87832 0
M  V30 3724 O 349.686 0.5098 -1.877 0
M  V30 3725 C 349.969 -2.99621 -1.99747 0
M  V30 3726 C 349.822 -4.32899 -1.22143 0
M  V30 3727 C 351.141 -3.22615 -2.99345 0
M  V30 3728 H 348.26 -0.627151 -0.387105 0
M  V30 3729 H 350.902 -1.86827 -0.345767 0
M  V30 3730 H 349.052 -2.87418 -2.61387 0
M  V30 3731 H 350.724 -4.56978 -0.630017 0
M  V30 3732 H 348.967 -4.30628 -0.523628 0
M  V30 3733 H 349.638 -5.18154 -1.90318 0
M  V30 3734 H 352.114 -3.34248 -2.47826 0
M  V30 3735 H 350.99 -4.13027 -3.61524 0
M  V30 3736 H 351.251 -2.3961 -3.71536 0
M  V30 3737 N 350.31 0.590341 -1.46126 0
M  V30 3738 C 351.558 1.34616 -1.50742 0
M  V30 3739 C 351.879 1.94363 -0.157486 0
M  V30 3740 O 351.149 1.78136 0.815136 0
M  V30 3741 H 349.729 0.499789 -0.555175 0
M  V30 3742 H 352.391 0.691953 -1.82203 0
M  V30 3743 H 351.487 2.15678 -2.25587 0
M  V30 3744 N 351.788 1.33704 0.83433 0
M  V30 3745 C 353.034 1.26612 1.59188 0
M  V30 3746 C 353.389 -0.165439 1.91687 0
M  V30 3747 O 352.682 -1.10873 1.56262 0
M  V30 3748 C 352.876 2.07926 2.90692 0
M  V30 3749 C 352.705 3.58844 2.71038 0
M  V30 3750 C 351.475 4.28148 2.68361 0
M  V30 3751 C 353.673 4.53082 2.43353 0
M  V30 3752 N 351.655 5.64987 2.40132 0
M  V30 3753 C 353.026 5.77843 2.24716 0
M  V30 3754 C 355.081 4.42119 2.28987 0
M  V30 3755 C 353.784 6.92877 1.9317 0
M  V30 3756 C 355.81 5.56973 1.98835 0
M  V30 3757 C 355.172 6.80745 1.81012 0
M  V30 3758 H 351.271 0.518517 0.585375 0
M  V30 3759 H 353.855 1.68294 0.979044 0
M  V30 3760 H 352.026 1.68558 3.49918 0
M  V30 3761 H 353.758 1.92568 3.55949 0
M  V30 3762 H 350.513 3.80469 2.82029 0
M  V30 3763 H 350.937 6.37133 2.28889 0
M  V30 3764 H 355.579 3.47058 2.41477 0
M  V30 3765 H 353.297 7.87931 1.79418 0
M  V30 3766 H 356.883 5.50428 1.88468 0
M  V30 3767 H 355.763 7.68115 1.58017 0
M  V30 3768 N 353.266 -1.05314 1.17247 0
M  V30 3769 C 354.491 -1.82509 0.985148 0
M  V30 3770 C 354.916 -1.82343 -0.461788 0
M  V30 3771 O 354.274 -1.23151 -1.33055 0
M  V30 3772 C 354.322 -3.26566 1.52929 0
M  V30 3773 O 353.426 -4.05666 0.742225 0
M  V30 3774 H 352.767 -0.564347 0.349869 0
M  V30 3775 H 355.297 -1.32718 1.55715 0
M  V30 3776 H 355.307 -3.77369 1.55103 0
M  V30 3777 H 353.982 -3.26001 2.58256 0
M  V30 3778 H 352.559 -3.64397 0.791794 0
M  V30 3779 N 354.744 -0.972509 -1.24016 0
M  V30 3780 C 355.969 -0.654417 -1.96805 0
M  V30 3781 C 356.394 0.770398 -1.716 0
M  V30 3782 O 355.752 1.52361 -0.982647 0
M  V30 3783 C 355.8 -0.941031 -3.48105 0
M  V30 3784 O 354.904 -0.0289472 -4.1239 0
M  V30 3785 H 354.245 -0.24692 -0.616382 0
M  V30 3786 H 356.775 -1.30396 -1.57664 0
M  V30 3787 H 356.785 -0.87452 -3.98517 0
M  V30 3788 H 355.46 -1.97939 -3.65777 0
M  V30 3789 H 354.037 -0.149192 -3.72601 0
M  V30 3790 N 356.222 1.38976 -0.743202 0
M  V30 3791 C 357.169 2.30544 -0.10861 0
M  V30 3792 C 358.139 1.49642 0.720869 0
M  V30 3793 O 359.324 1.78304 0.679142 0
M  V30 3794 C 356.464 3.36018 0.786496 0
M  V30 3795 C 355.577 4.31963 -0.0564849 0
M  V30 3796 C 354.712 5.24506 0.840657 0
M  V30 3797 C 353.751 6.121 -0.00658363 0
M  V30 3798 N 352.888 6.96973 0.846943 0
M  V30 3799 H 357.728 2.8424 -0.895088 0
M  V30 3800 H 355.265 1.3995 -0.453048 0
M  V30 3801 H 357.223 3.95768 1.31999 0
M  V30 3802 H 355.853 2.83758 1.53887 0
M  V30 3803 H 354.905 3.73763 -0.707492 0
M  V30 3804 H 356.217 4.93703 -0.711229 0
M  V30 3805 H 355.371 5.89322 1.4417 0
M  V30 3806 H 354.11 4.63107 1.52916 0
M  V30 3807 H 353.115 5.46289 -0.620366 0
M  V30 3808 H 354.34 6.75565 -0.691992 0
M  V30 3809 H 352.286 6.38133 1.52059 0
M  V30 3810 H 352.203 7.5559 0.248864 0
M  V30 3811 H 353.471 7.6621 1.43328 0
M  V30 3812 N 357.7 0.491464 1.49741 0
M  V30 3813 C 358.977 -0.118984 1.95238 0
M  V30 3814 C 359.357 -1.55044 1.43264 0
M  V30 3815 O 358.705 -2.19287 0.642287 0
M  V30 3816 C 358.915 -0.0414187 3.48975 0
M  V30 3817 C 360.263 -0.220133 4.24029 0
M  V30 3818 O 361.287 -0.117055 3.56008 0
M  V30 3819 O 360.146 -0.430567 5.44801 0
M  V30 3820 H 357.24 -0.100536 0.820866 0
M  V30 3821 H 359.786 0.553322 1.60426 0
M  V30 3822 H 358.558 0.957214 3.79412 0
M  V30 3823 H 358.181 -0.754292 3.9038 0
M  V30 3824 N 359.178 -1.55987 0.224894 0
M  V30 3825 C 360.426 -1.97998 -0.405099 0
M  V30 3826 C 360.747 -1.11387 -1.60056 0
M  V30 3827 O 360.017 -0.191645 -1.9496 0
M  V30 3828 H 358.597 -0.731235 -0.152658 0
M  V30 3829 H 361.259 -1.92279 0.318567 0
M  V30 3830 H 360.355 -3.03463 -0.729167 0
M  V30 3831 N 360.656 0.0484629 -1.57525 0
M  V30 3832 C 361.933 0.777447 -1.79486 0
M  V30 3833 C 362.313 1.94597 -0.818251 0
M  V30 3834 O 361.661 2.28047 0.143767 0
M  V30 3835 C 361.871 1.22864 -3.26658 0
M  V30 3836 C 363.219 1.65251 -3.91123 0
M  V30 3837 O 364.243 1.32372 -3.3069 0
M  V30 3838 O 363.102 2.26207 -4.97486 0
M  V30 3839 H 360.196 0.374357 -0.737419 0
M  V30 3840 H 362.742 0.0267359 -1.69679 0
M  V30 3841 H 361.514 0.393589 -3.89316 0
M  V30 3842 H 361.137 2.03996 -3.41279 0
M  V30 3843 N 362.134 1.5431 0.320358 0
M  V30 3844 C 363.382 1.72327 1.05583 0
M  V30 3845 C 363.703 0.50149 1.88441 0
M  V30 3846 O 362.973 -0.48448 1.89815 0
M  V30 3847 H 361.553 0.635387 0.3928 0
M  V30 3848 H 364.215 1.91621 0.356019 0
M  V30 3849 H 363.311 2.60426 1.72003 0
M  V30 3850 N 363.613 -0.582584 1.46437 0
M  V30 3851 C 364.862 -1.337 1.5102 0
M  V30 3852 C 365.175 -1.94891 0.166359 0
M  V30 3853 O 366.381 -2.71351 0.0899954 0
M  V30 3854 C 364.837 -2.42315 2.66104 0
M  V30 3855 C 364.445 -1.87427 4.06909 0
M  V30 3856 C 366.189 -3.19099 2.79958 0
M  V30 3857 C 364.096 -2.93672 5.13333 0
M  V30 3858 H 363.026 -0.502619 0.562041 0
M  V30 3859 H 365.677 -0.621701 1.72647 0
M  V30 3860 H 364.059 -3.16645 2.37807 0
M  V30 3861 H 365.233 -1.19639 4.44998 0
M  V30 3862 H 363.548 -1.2331 3.97723 0
M  V30 3863 H 366.145 -3.9839 3.56636 0
M  V30 3864 H 366.488 -3.71695 1.87479 0
M  V30 3865 H 367.021 -2.51875 3.07902 0
M  V30 3866 H 363.76 -2.45962 6.07604 0
M  V30 3867 H 363.28 -3.59948 4.79789 0
M  V30 3868 H 364.959 -3.5762 5.39182 0
M  V30 3869 N 365.091 -1.34144 -0.827227 0
M  V30 3870 C 366.338 -1.26258 -1.58319 0
M  V30 3871 C 366.666 0.168595 -1.93768 0
M  V30 3872 O 365.921 1.12877 -1.59866 0
M  V30 3873 C 366.22 -2.09464 -2.89585 0
M  V30 3874 C 365.886 -3.58521 -2.73448 0
M  V30 3875 C 364.548 -3.99155 -2.68754 0
M  V30 3876 C 366.9 -4.53189 -2.57428 0
M  V30 3877 C 364.228 -5.32656 -2.45957 0
M  V30 3878 C 366.58 -5.86864 -2.36163 0
M  V30 3879 C 365.244 -6.26667 -2.29879 0
M  V30 3880 H 364.514 -0.462013 -0.579332 0
M  V30 3881 H 367.161 -1.65845 -0.95748 0
M  V30 3882 H 365.466 -1.62692 -3.56425 0
M  V30 3883 H 367.163 -2.00712 -3.47154 0
M  V30 3884 H 363.753 -3.26264 -2.77939 0
M  V30 3885 H 367.937 -4.22696 -2.60081 0
M  V30 3886 H 363.193 -5.62519 -2.39546 0
M  V30 3887 H 367.367 -6.59813 -2.22754 0
M  V30 3888 H 364.994 -7.30049 -2.11975 0
M  V30 3889 N 366.569 1.04691 -1.17803 0
M  V30 3890 C 367.794 1.81984 -0.994813 0
M  V30 3891 C 368.219 1.82586 0.452112 0
M  V30 3892 O 367.577 1.23854 1.324 0
M  V30 3893 C 367.625 3.2575 -1.54659 0
M  V30 3894 O 366.729 4.05267 -0.763728 0
M  V30 3895 H 366.07 0.562483 -0.352857 0
M  V30 3896 H 368.6 1.3189 -1.56417 0
M  V30 3897 H 368.61 3.76541 -1.57102 0
M  V30 3898 H 367.285 3.24627 -2.59981 0
M  V30 3899 H 365.862 3.63972 -0.811108 0
M  V30 3900 N 368.047 0.979072 1.23499 0
M  V30 3901 C 369.458 0.684391 1.73704 0
M  V30 3902 C 369.809 -0.799448 1.79174 0
M  V30 3903 O 368.934 -1.62531 1.42873 0
M  V30 3904 C 369.529 1.23564 3.15464 0
M  V30 3905 C 368.088 0.99063 3.6313 0
M  V30 3906 C 367.235 1.36416 2.41425 0
M  V30 3907 H 370.186 1.15307 1.09041 0
M  V30 3908 H 370.207 0.607417 3.7562 0
M  V30 3909 H 369.719 2.31561 3.1145 0
M  V30 3910 H 367.82 -0.0733136 3.72528 0
M  V30 3911 H 367.933 1.64427 4.5 0
M  V30 3912 H 366.297 0.782616 2.42378 0
M  V30 3913 H 367.08 2.45387 2.40083 0
M  V30 3914 N 369.525 -1.3858 0.750561 0
M  V30 3915 C 370.773 -1.99789 0.30477 0
M  V30 3916 C 371.094 -1.59874 -1.11649 0
M  V30 3917 O 370.364 -0.85417 -1.76297 0
M  V30 3918 H 368.944 -0.738902 0.109694 0
M  V30 3919 H 371.606 -1.69391 0.963983 0
M  V30 3920 H 370.702 -3.09952 0.365499 0
M  V30 3921 N 371.003 -0.499398 -1.49478 0
M  V30 3922 C 372.251 0.0455996 -2.02049 0
M  V30 3923 C 372.572 1.37633 -1.38138 0
M  V30 3924 O 371.842 1.8842 -0.536166 0
M  V30 3925 H 370.422 0.0198416 -0.746736 0
M  V30 3926 H 373.084 -0.656274 -1.83519 0
M  V30 3927 H 372.18 0.176445 -3.11601 0
M  V30 3928 N 372.481 1.55866 -0.233164 0
M  V30 3929 C 373.444 2.1953 0.658715 0
M  V30 3930 C 374.444 1.16053 1.11303 0
M  V30 3931 O 375.634 1.41218 1.01996 0
M  V30 3932 C 372.766 2.82791 1.90373 0
M  V30 3933 H 373.959 2.99721 0.10347 0
M  V30 3934 H 371.512 1.56291 0.0164245 0
M  V30 3935 H 372.247 2.06501 2.50056 0
M  V30 3936 H 372.032 3.58578 1.58632 0
M  V30 3937 H 373.522 3.31556 2.53891 0
M  V30 3938 N 373.959 -0.0401083 1.57549 0
M  V30 3939 C 375.208 -0.732108 1.87944 0
M  V30 3940 C 375.521 -1.77107 0.830206 0
M  V30 3941 O 376.727 -2.51488 1.02302 0
M  V30 3942 C 375.183 -1.35315 3.33494 0
M  V30 3943 C 374.791 -0.351105 4.46622 0
M  V30 3944 C 376.535 -2.02566 3.73051 0
M  V30 3945 C 374.442 -0.979859 5.83226 0
M  V30 3946 H 373.372 -0.277188 0.701201 0
M  V30 3947 H 376.023 0.0138501 1.83495 0
M  V30 3948 H 374.405 -2.14844 3.32653 0
M  V30 3949 H 375.579 0.416674 4.58912 0
M  V30 3950 H 373.894 0.218708 4.15825 0
M  V30 3951 H 376.491 -2.50441 4.72423 0
M  V30 3952 H 376.834 -2.83904 3.04474 0
M  V30 3953 H 377.367 -1.29827 3.76018 0
M  V30 3954 H 374.106 -0.206135 6.55176 0
M  V30 3955 H 373.626 -1.71774 5.74677 0
M  V30 3956 H 375.305 -1.49046 6.29599 0
M  V30 3957 N 375.437 -1.54477 -0.31217 0
M  V30 3958 C 376.662 -1.77526 -1.07235 0
M  V30 3959 C 377.087 -0.527775 -1.80544 0
M  V30 3960 O 376.445 0.52121 -1.73646 0
M  V30 3961 C 376.493 -2.97535 -2.03728 0
M  V30 3962 O 375.597 -2.69878 -3.11833 0
M  V30 3963 H 374.938 -0.58792 -0.30862 0
M  V30 3964 H 377.468 -2.01532 -0.352993 0
M  V30 3965 H 377.478 -3.25198 -2.46395 0
M  V30 3966 H 376.153 -3.87996 -1.49774 0
M  V30 3967 H 374.73 -2.53199 -2.7376 0
M  V30 3968 N 376.915 0.57481 -1.46744 0
M  V30 3969 C 377.863 1.70435 -1.58286 0
M  V30 3970 C 378.857 1.63287 -0.450956 0
M  V30 3971 O 380.063 1.68685 -0.628121 0
M  V30 3972 H 376.438 0.56364 -0.497809 0
M  V30 3973 H 378.409 1.57833 -2.53242 0
M  V30 3974 C 377.158 3.08815 -1.59776 0
M  V30 3975 H 376.481 3.1499 -2.46214 0
M  V30 3976 H 377.921 3.87588 -1.71905 0
M  V30 3977 C 376.38 3.35301 -0.327812 0
M  V30 3978 O 376.91 3.97511 0.57861 0
M  V30 3979 N 375.116 2.89816 -0.213274 0
M  V30 3980 H 374.663 2.39371 -0.951798 0
M  V30 3981 H 374.621 3.0791 0.63553 0
M  V30 3982 N 378.394 1.34581 0.820102 0
M  V30 3983 C 379.327 1.20735 1.93644 0
M  V30 3984 C 380.305 0.0983343 1.62302 0
M  V30 3985 O 381.489 0.263997 1.86642 0
M  V30 3986 C 378.616 0.856037 3.27704 0
M  V30 3987 C 377.662 1.97521 3.78005 0
M  V30 3988 S 378.495 3.58906 3.97425 0
M  V30 3989 C 379.651 3.25822 5.34407 0
M  V30 3990 H 379.884 2.15231 2.05093 0
M  V30 3991 H 377.417 1.1964 0.97599 0
M  V30 3992 H 379.375 0.660133 4.05157 0
M  V30 3993 H 378.036 -0.0706253 3.14021 0
M  V30 3994 H 377.229 1.68321 4.75062 0
M  V30 3995 H 376.831 2.12875 3.07507 0
M  V30 3996 H 379.123 2.77812 6.17922 0
M  V30 3997 H 380.066 4.22029 5.68592 0
M  V30 3998 H 380.474 2.61932 5.00052 0
M  V30 3999 N 379.872 -1.04064 1.18357 0
M  V30 4000 C 381.102 -1.80654 1.00238 0
M  V30 4001 C 381.51 -1.83713 -0.452362 0
M  V30 4002 O 380.853 -1.27135 -1.32599 0
M  V30 4003 C 380.915 -3.27582 1.48088 0
M  V30 4004 C 380.579 -3.48184 2.96002 0
M  V30 4005 C 381.576 -3.39372 3.93856 0
M  V30 4006 C 379.261 -3.7478 3.34433 0
M  V30 4007 C 381.255 -3.5686 5.28138 0
M  V30 4008 C 378.942 -3.91915 4.68877 0
M  V30 4009 C 379.94 -3.82956 5.65539 0
M  V30 4010 O 379.628 -3.996 6.97549 0
M  V30 4011 H 379.36 -0.575751 0.354241 0
M  V30 4012 H 381.914 -1.32044 1.57333 0
M  V30 4013 H 380.144 -3.77161 0.853588 0
M  V30 4014 H 381.833 -3.8573 1.2636 0
M  V30 4015 H 382.599 -3.18789 3.65511 0
M  V30 4016 H 378.478 -3.80852 2.59756 0
M  V30 4017 H 382.022 -3.49783 6.03571 0
M  V30 4018 H 377.919 -4.11992 4.96923 0
M  V30 4019 H 378.687 -4.1676 7.04452 0
M  V30 4020 N 381.35 -0.985608 -1.22978 0
M  V30 4021 C 382.575 -0.675254 -1.961 0
M  V30 4022 C 383 0.752154 -1.72407 0
M  V30 4023 O 382.358 1.5131 -0.998751 0
M  V30 4024 C 382.406 -0.977899 -3.47087 0
M  V30 4025 O 381.51 -0.072685 -4.12336 0
M  V30 4026 H 380.851 -0.253443 -0.613728 0
M  V30 4027 H 383.381 -1.32061 -1.56272 0
M  V30 4028 H 383.391 -0.916739 -3.97567 0
M  V30 4029 H 382.066 -2.01807 -3.63657 0
M  V30 4030 H 380.643 -0.188703 -3.72422 0
M  V30 4031 N 382.828 1.3818 -0.7579 0
M  V30 4032 C 384.077 1.99261 -0.312744 0
M  V30 4033 C 384.39 1.60846 1.11301 0
M  V30 4034 O 385.596 2.14929 1.65885 0
M  V30 4035 C 384.052 3.56294 -0.50821 0
M  V30 4036 C 383.66 4.03657 -1.94333 0
M  V30 4037 C 385.404 4.24313 -0.125982 0
M  V30 4038 C 383.311 5.53347 -2.08712 0
M  V30 4039 H 382.241 0.745456 -0.113185 0
M  V30 4040 H 384.892 1.57889 -0.935056 0
M  V30 4041 H 383.274 3.95575 0.183353 0
M  V30 4042 H 384.448 3.75655 -2.66871 0
M  V30 4043 H 382.763 3.48376 -2.28086 0
M  V30 4044 H 385.36 5.34279 -0.212125 0
M  V30 4045 H 385.703 4.05962 0.921964 0
M  V30 4046 H 386.236 3.90285 -0.769563 0
M  V30 4047 H 382.975 5.76607 -3.11777 0
M  V30 4048 H 382.495 5.83078 -1.4064 0
M  V30 4049 H 384.174 6.19111 -1.87912 0
M  V30 4050 N 384.306 0.507319 1.49211 0
M  V30 4051 C 385.239 -0.314509 2.26022 0
M  V30 4052 C 386.217 -0.964849 1.30879 0
M  V30 4053 O 387.401 -0.993707 1.6018 0
M  V30 4054 C 384.528 -1.44346 3.06402 0
M  V30 4055 C 383.574 -0.90685 4.16748 0
M  V30 4056 S 384.407 0.207392 5.35098 0
M  V30 4057 C 385.563 -0.924573 6.19033 0
M  V30 4058 H 385.796 0.337416 2.95379 0
M  V30 4059 H 383.329 0.292718 1.516 0
M  V30 4060 H 385.287 -2.09029 3.53295 0
M  V30 4061 H 383.948 -2.06702 2.36502 0
M  V30 4062 H 383.141 -1.75309 4.72528 0
M  V30 4063 H 382.743 -0.33712 3.72478 0
M  V30 4064 H 385.035 -1.82839 6.52362 0
M  V30 4065 H 385.978 -0.405248 7.06939 0
M  V30 4066 H 386.386 -1.19476 5.51712 0
M  V30 4067 N 385.784 -1.5574 0.241426 0
M  V30 4068 C 386.747 -2.19877 -0.647063 0
M  V30 4069 C 387.747 -1.16642 -1.10686 0
M  V30 4070 O 388.937 -1.41757 -1.01245 0
M  V30 4071 C 386.069 -2.83797 -1.88871 0
M  V30 4072 H 387.262 -2.99772 -0.087574 0
M  V30 4073 H 384.815 -1.56298 -0.00813574 0
M  V30 4074 H 385.55 -2.07824 -2.48957 0
M  V30 4075 H 385.335 -3.59414 -1.56728 0
M  V30 4076 H 386.825 -3.32898 -2.52129 0
M  V30 4077 N 387.262 0.0317525 -1.57568 0
M  V30 4078 C 388.225 1.01783 -2.0536 0
M  V30 4079 C 389.225 1.29203 -0.957253 0
M  V30 4080 O 390.415 1.24251 -1.22095 0
M  V30 4081 C 387.547 2.35137 -2.46827 0
M  V30 4082 H 388.74 0.605062 -2.93733 0
M  V30 4083 H 386.293 0.278514 -1.53799 0
M  V30 4084 H 387.028 2.81168 -1.61602 0
M  V30 4085 H 386.813 2.16566 -3.26866 0
M  V30 4086 H 388.303 3.05938 -2.84239 0
M  V30 4087 N 388.74 1.54641 0.303973 0
M  V30 4088 C 390.156 1.45788 0.649463 0
M  V30 4089 C 390.356 0.64666 1.90842 0
M  V30 4090 O 389.412 0.153183 2.52035 0
M  V30 4091 C 390.725 2.89718 0.805227 0
M  V30 4092 C 392.273 2.99742 0.901305 0
M  V30 4093 C 392.748 4.44863 1.08909 0
M  V30 4094 N 394.239 4.48559 1.15536 0
M  V30 4095 C 394.974 5.58026 1.3189 0
M  V30 4096 N 394.47 6.77422 1.45161 0
M  V30 4097 N 396.263 5.45708 1.34755 0
M  V30 4098 H 388.414 2.05854 -0.523237 0
M  V30 4099 H 390.677 0.932186 -0.172431 0
M  V30 4100 H 390.383 3.51666 -0.0489108 0
M  V30 4101 H 390.257 3.36964 1.69513 0
M  V30 4102 H 392.644 2.3791 1.74593 0
M  V30 4103 H 392.725 2.55797 -0.0125531 0
M  V30 4104 H 392.369 5.07288 0.249241 0
M  V30 4105 H 392.299 4.86436 2.01713 0
M  V30 4106 H 394.79 3.6254 1.06646 0
M  V30 4107 H 395.103 7.56604 1.57387 0
M  V30 4108 H 393.448 6.80292 1.42223 0
M  V30 4109 H 396.639 4.51378 1.23996 0
M  V30 4110 H 396.812 6.3107 1.47157 0
M  V30 4111 N 390.218 -0.567019 1.47046 0
M  V30 4112 C 391.448 -1.34831 1.56538 0
M  V30 4113 C 391.856 -1.8802 0.21101 0
M  V30 4114 O 391.199 -1.65152 -0.804387 0
M  V30 4115 C 391.261 -2.56139 2.52256 0
M  V30 4116 C 390.925 -2.24307 3.98165 0
M  V30 4117 C 391.922 -1.82192 4.86931 0
M  V30 4118 C 389.607 -2.35968 4.43423 0
M  V30 4119 C 391.601 -1.52153 6.18973 0
M  V30 4120 C 389.288 -2.05542 5.75496 0
M  V30 4121 C 390.286 -1.63701 6.63092 0
M  V30 4122 O 389.974 -1.33657 7.92711 0
M  V30 4123 H 389.706 -0.417683 0.531523 0
M  V30 4124 H 392.26 -0.694726 1.93294 0
M  V30 4125 H 390.49 -3.24356 2.10548 0
M  V30 4126 H 392.179 -3.18214 2.51982 0
M  V30 4127 H 392.945 -1.72684 4.53217 0
M  V30 4128 H 388.824 -2.67495 3.75456 0
M  V30 4129 H 392.368 -1.19421 6.87302 0
M  V30 4130 H 388.265 -2.14679 6.08755 0
M  V30 4131 H 389.033 -1.4737 8.05124 0
M  V30 4132 N 391.696 -1.35014 -0.812953 0
M  V30 4133 C 392.643 -1.27412 -1.92444 0
M  V30 4134 C 393.613 -0.14733 -1.65445 0
M  V30 4135 O 394.798 -0.329974 -1.87925 0
M  V30 4136 C 391.938 -1.04558 -3.28879 0
M  V30 4137 C 391.051 -2.26101 -3.68106 0
M  V30 4138 C 390.186 -1.96449 -4.9354 0
M  V30 4139 C 389.225 -3.14081 -5.25376 0
M  V30 4140 N 388.362 -2.84246 -6.41988 0
M  V30 4141 H 393.202 -2.22463 -1.98278 0
M  V30 4142 H 390.739 -1.10593 -0.969933 0
M  V30 4143 H 392.697 -0.893413 -4.07522 0
M  V30 4144 H 391.327 -0.131719 -3.22531 0
M  V30 4145 H 390.379 -2.52204 -2.84775 0
M  V30 4146 H 391.691 -3.13959 -3.87597 0
M  V30 4147 H 390.845 -1.78026 -5.79993 0
M  V30 4148 H 389.584 -1.05867 -4.76071 0
M  V30 4149 H 388.589 -3.33089 -4.37415 0
M  V30 4150 H 389.814 -4.05455 -5.44778 0
M  V30 4151 H 387.76 -1.96252 -6.25956 0
M  V30 4152 H 387.677 -3.65637 -6.61699 0
M  V30 4153 H 388.945 -2.6935 -7.31485 0
M  V30 4154 N 393.175 1.03435 -1.18907 0
M  V30 4155 C 394.405 1.8012 -1.01195 0
M  V30 4156 C 394.813 1.8395 0.442613 0
M  V30 4157 O 394.156 1.27836 1.31923 0
M  V30 4158 C 394.218 3.26792 -1.49823 0
M  V30 4159 C 393.882 3.46609 -2.97844 0
M  V30 4160 C 394.879 3.37278 -3.95651 0
M  V30 4161 C 392.564 3.73001 -3.36416 0
M  V30 4162 C 394.558 3.54054 -5.30023 0
M  V30 4163 C 392.245 3.89423 -4.70949 0
M  V30 4164 C 393.243 3.79951 -5.67562 0
M  V30 4165 O 392.931 3.95895 -6.99659 0
M  V30 4166 H 392.663 0.573865 -0.357289 0
M  V30 4167 H 395.217 1.31207 -1.58031 0
M  V30 4168 H 393.447 3.76703 -0.873578 0
M  V30 4169 H 395.136 3.85055 -1.28404 0
M  V30 4170 H 395.902 3.16846 -3.67197 0
M  V30 4171 H 391.781 3.79469 -2.61772 0
M  V30 4172 H 395.325 3.46577 -6.05417 0
M  V30 4173 H 391.222 4.09351 -4.99101 0
M  V30 4174 H 391.99 4.13019 -7.06653 0
M  V30 4175 N 394.653 0.992116 1.22453 0
M  V30 4176 C 395.9 0.667534 1.91181 0
M  V30 4177 C 396.228 -0.800317 1.77271 0
M  V30 4178 O 395.483 -1.59421 1.13505 0
M  V30 4179 C 395.782 1.01832 3.42586 0
M  V30 4180 C 395.448 2.47831 3.76684 0
M  V30 4181 C 394.11 2.87729 3.85701 0
M  V30 4182 C 396.462 3.42466 3.92895 0
M  V30 4183 C 393.79 4.21252 4.08367 0
M  V30 4184 C 396.142 4.75648 4.17064 0
M  V30 4185 C 394.806 5.15288 4.24305 0
M  V30 4186 H 394.076 0.244268 0.699581 0
M  V30 4187 H 396.723 1.24816 1.45235 0
M  V30 4188 H 395.028 0.355769 3.90181 0
M  V30 4189 H 396.725 0.745228 3.94014 0
M  V30 4190 H 393.315 2.15905 3.70247 0
M  V30 4191 H 397.499 3.12814 3.85307 0
M  V30 4192 H 392.755 4.51554 4.122 0
M  V30 4193 H 396.929 5.48924 4.2855 0
M  V30 4194 H 394.556 6.18769 4.41621 0
M  V30 4195 N 396.131 -1.37776 0.765217 0
M  V30 4196 C 397.542 -1.82521 0.392819 0
M  V30 4197 C 397.893 -1.63789 -1.08017 0
M  V30 4198 O 397.018 -1.14542 -1.83601 0
M  V30 4199 C 397.613 -3.31358 0.706214 0
M  V30 4200 C 396.172 -3.74406 0.386952 0
M  V30 4201 C 395.319 -2.60394 0.953422 0
M  V30 4202 H 398.27 -1.2634 0.960412 0
M  V30 4203 H 398.291 -3.80498 -0.0114706 0
M  V30 4204 H 397.803 -3.44959 1.77833 0
M  V30 4205 H 395.904 -3.66377 -0.678112 0
M  V30 4206 H 396.017 -4.70749 0.890636 0
M  V30 4207 H 394.381 -2.51878 0.378064 0
M  V30 4208 H 395.164 -2.76791 2.03081 0
M  V30 4209 N 397.609 -0.515225 -1.4894 0
M  V30 4210 C 398.519 0.259774 -2.33157 0
M  V30 4211 C 399.535 0.953501 -1.45548 0
M  V30 4212 O 400.711 0.931735 -1.78552 0
M  V30 4213 C 397.776 1.30193 -3.21326 0
M  V30 4214 C 396.837 0.620129 -4.24797 0
M  V30 4215 C 396.07 1.61263 -5.08753 0
M  V30 4216 O 396.293 2.84389 -4.94448 0
M  V30 4217 O 395.227 1.16013 -5.90614 0
M  V30 4218 H 399.053 -0.429932 -3.00641 0
M  V30 4219 H 396.638 -0.276346 -1.46822 0
M  V30 4220 H 398.52 1.90455 -3.75905 0
M  V30 4221 H 397.195 1.97431 -2.56521 0
M  V30 4222 H 396.102 -0.0226019 -3.74093 0
M  V30 4223 H 397.435 -0.0100493 -4.92199 0
M  V30 4224 N 399.087 1.5561 -0.249682 0
M  V30 4225 C 400.333 1.99306 0.374841 0
M  V30 4226 C 400.666 1.13767 1.57387 0
M  V30 4227 O 399.941 0.201711 1.93451 0
M  V30 4228 C 400.224 3.51507 0.781986 0
M  V30 4229 C 400.077 4.4781 -0.422629 0
M  V30 4230 C 401.396 4.08884 1.62793 0
M  V30 4231 H 398.515 0.724572 0.134773 0
M  V30 4232 H 401.157 1.86719 -0.351549 0
M  V30 4233 H 399.307 3.62363 1.4009 0
M  V30 4234 H 400.979 4.48931 -1.06108 0
M  V30 4235 H 399.222 4.20518 -1.06524 0
M  V30 4236 H 399.893 5.51919 -0.0943766 0
M  V30 4237 H 402.369 4.01147 1.10547 0
M  V30 4238 H 401.245 5.1564 1.88166 0
M  V30 4239 H 401.506 3.57515 2.60068 0
M  V30 4240 N 400.565 -0.0233959 1.57583 0
M  V30 4241 C 401.512 -1.02224 2.06927 0
M  V30 4242 C 402.482 -1.35575 0.959617 0
M  V30 4243 O 403.667 -1.45815 1.23055 0
M  V30 4244 C 400.807 -2.31636 2.5581 0
M  V30 4245 C 399.92 -2.04394 3.80588 0
M  V30 4246 C 399.055 -3.27717 4.18061 0
M  V30 4247 C 398.094 -2.96056 5.3574 0
M  V30 4248 N 397.231 -4.11847 5.68618 0
M  V30 4249 H 402.071 -0.594504 2.9201 0
M  V30 4250 H 399.608 -0.281921 1.44373 0
M  V30 4251 H 401.566 -3.07258 2.82221 0
M  V30 4252 H 400.196 -2.72122 1.73636 0
M  V30 4253 H 399.248 -1.19244 3.61227 0
M  V30 4254 H 400.56 -1.77042 4.66323 0
M  V30 4255 H 399.714 -4.11702 4.4563 0
M  V30 4256 H 398.453 -3.58188 3.30988 0
M  V30 4257 H 397.458 -2.10474 5.07918 0
M  V30 4258 H 398.683 -2.66857 6.24471 0
M  V30 4259 H 396.629 -4.42258 4.84504 0
M  V30 4260 H 396.546 -3.87938 6.48876 0
M  V30 4261 H 397.814 -4.96689 6.00766 0
M  V30 4262 N 402.043 -1.548 -0.295768 0
M  V30 4263 C 403.271 -1.78327 -1.04914 0
M  V30 4264 C 403.686 -0.545316 -1.80753 0
M  V30 4265 O 403.043 0.485013 -1.75937 0
M  V30 4266 C 403.094 -2.99418 -2.02561 0
M  V30 4267 O 402.815 -4.18431 -1.29798 0
M  V30 4268 C 404.316 -3.35375 -2.89895 0
M  V30 4269 H 401.536 -0.594618 -0.310918 0
M  V30 4270 H 404.08 -2.01763 -0.333454 0
M  V30 4271 H 402.235 -2.78175 -2.69624 0
M  V30 4272 H 402.649 -4.86736 -1.95419 0
M  V30 4273 H 404.123 -4.23332 -3.54251 0
M  V30 4274 H 404.6 -2.53761 -3.58472 0
M  V30 4275 H 405.206 -3.58796 -2.28355 0
M  V30 4276 N 403.521 0.559213 -1.47345 0
M  V30 4277 C 404.468 1.66645 -1.59682 0
M  V30 4278 C 405.438 1.60168 -0.43994 0
M  V30 4279 O 406.623 1.79031 -0.659736 0
M  V30 4280 C 403.763 3.04969 -1.61518 0
M  V30 4281 C 402.876 3.21897 -2.88108 0
M  V30 4282 C 402.011 4.50608 -2.81294 0
M  V30 4283 C 401.05 4.60961 -4.02717 0
M  V30 4284 N 400.187 5.81024 -3.94151 0
M  V30 4285 H 405.027 1.55439 -2.54249 0
M  V30 4286 H 402.564 0.757219 -1.26113 0
M  V30 4287 H 404.522 3.85064 -1.60566 0
M  V30 4288 H 403.152 3.15015 -0.704645 0
M  V30 4289 H 402.204 2.35248 -2.98936 0
M  V30 4290 H 403.516 3.25412 -3.78032 0
M  V30 4291 H 402.67 5.3896 -2.7858 0
M  V30 4292 H 401.409 4.49568 -1.89049 0
M  V30 4293 H 400.414 3.71021 -4.05738 0
M  V30 4294 H 401.639 4.63761 -4.96087 0
M  V30 4295 H 399.585 5.80938 -3.04708 0
M  V30 4296 H 399.502 5.85909 -4.77752 0
M  V30 4297 H 400.77 6.71744 -3.9545 0
M  V30 4298 N 404.999 1.35443 0.805782 0
M  V30 4299 C 406.247 1.28507 1.55982 0
M  V30 4300 C 406.568 -0.140046 1.94496 0
M  V30 4301 O 405.838 -1.07666 1.63661 0
M  V30 4302 H 404.418 0.472676 0.578434 0
M  V30 4303 H 407.08 1.69555 0.961098 0
M  V30 4304 H 406.176 1.90148 2.47488 0
M  V30 4305 N 406.477 -1.02803 1.19454 0
M  V30 4306 C 407.41 -2.107 0.876396 0
M  V30 4307 C 408.388 -1.61741 -0.166897 0
M  V30 4308 O 409.572 -1.88451 -0.0430195 0
M  V30 4309 C 406.699 -3.37262 0.311758 0
M  V30 4310 C 405.745 -4.05093 1.33424 0
M  V30 4311 S 406.578 -4.50498 2.89503 0
M  V30 4312 C 407.734 -5.80277 2.34584 0
M  V30 4313 H 407.967 -2.37362 1.79016 0
M  V30 4314 H 405.5 -1.15755 1.02177 0
M  V30 4315 H 407.458 -4.10499 -0.00748752 0
M  V30 4316 H 406.119 -3.08693 -0.58032 0
M  V30 4317 H 405.312 -4.9611 0.888302 0
M  V30 4318 H 404.914 -3.3803 1.60037 0
M  V30 4319 H 407.206 -6.54873 1.73633 0
M  V30 4320 H 408.149 -6.29651 3.23952 0
M  V30 4321 H 408.557 -5.3599 1.77131 0
M  V30 4322 N 407.956 -0.998596 -1.21925 0
M  V30 4323 C 408.919 -0.558679 -2.22287 0
M  V30 4324 C 409.919 0.361525 -1.56683 0
M  V30 4325 O 411.109 0.152695 -1.73529 0
M  V30 4326 C 408.241 0.18661 -3.40389 0
M  V30 4327 H 409.434 -1.4463 -2.62721 0
M  V30 4328 H 406.987 -0.786413 -1.35075 0
M  V30 4329 H 407.722 1.08996 -3.05435 0
M  V30 4330 H 407.507 -0.474188 -3.89222 0
M  V30 4331 H 408.997 0.482367 -4.14805 0
M  V30 4332 N 409.434 1.37368 -0.772513 0
M  V30 4333 C 410.397 2.28601 -0.165541 0
M  V30 4334 C 411.397 1.48062 0.627238 0
M  V30 4335 O 412.587 1.68268 0.450715 0
M  V30 4336 C 409.719 3.32023 0.772897 0
M  V30 4337 H 410.912 2.83787 -0.969787 0
M  V30 4338 H 408.465 1.46647 -0.540775 0
M  V30 4339 H 409.2 2.81962 1.60212 0
M  V30 4340 H 408.985 3.91555 0.206585 0
M  V30 4341 H 410.475 4.00197 1.19298 0
M  V30 4342 N 410.912 0.523116 1.48665 0
M  V30 4343 C 412.158 -0.0134963 2.02796 0
M  V30 4344 C 412.491 -1.34582 1.40004 0
M  V30 4345 O 411.766 -1.86756 0.543381 0
M  V30 4346 C 412.049 -0.14276 3.59817 0
M  V30 4347 C 411.902 1.21425 4.331 0
M  V30 4348 C 413.221 -0.872856 4.31357 0
M  V30 4349 H 410.34 -0.00343074 0.736992 0
M  V30 4350 H 412.982 0.678816 1.7746 0
M  V30 4351 H 411.132 -0.732401 3.81534 0
M  V30 4352 H 412.804 1.84447 4.2282 0
M  V30 4353 H 411.047 1.79791 3.94788 0
M  V30 4354 H 411.718 1.07687 5.41394 0
M  V30 4355 H 414.194 -0.372555 4.14429 0
M  V30 4356 H 413.07 -0.932185 5.40927 0
M  V30 4357 H 413.331 -1.92161 3.98154 0
M  V30 4358 N 412.39 -1.55475 0.257931 0
M  V30 4359 C 413.801 -1.8511 -0.243135 0
M  V30 4360 C 414.152 -1.17986 -1.5676 0
M  V30 4361 O 413.277 -0.462102 -2.11409 0
M  V30 4362 C 413.872 -3.35826 -0.447929 0
M  V30 4363 C 412.431 -3.65647 -0.893245 0
M  V30 4364 C 411.578 -2.7729 0.0232965 0
M  V30 4365 H 414.529 -1.51261 0.480199 0
M  V30 4366 H 414.55 -3.58002 -1.28898 0
M  V30 4367 H 414.062 -3.84652 0.516196 0
M  V30 4368 H 412.163 -3.22308 -1.86945 0
M  V30 4369 H 412.276 -4.73312 -0.742469 0
M  V30 4370 H 410.64 -2.49942 -0.490021 0
M  V30 4371 H 411.423 -3.28926 0.982994 0
M  V30 4372 N 413.868 0.0150385 -1.57593 0
M  V30 4373 C 414.815 1.01126 -2.07466 0
M  V30 4374 C 415.785 1.35064 -0.966794 0
M  V30 4375 O 416.97 1.4516 -1.23827 0
M  V30 4376 C 414.11 2.30276 -2.57035 0
M  V30 4377 C 413.223 2.02373 -3.81666 0
M  V30 4378 C 412.358 3.25496 -4.19793 0
M  V30 4379 C 411.397 2.93211 -5.37303 0
M  V30 4380 N 410.534 4.08826 -5.70794 0
M  V30 4381 H 415.374 0.57901 -2.92321 0
M  V30 4382 H 412.911 0.27426 -1.44521 0
M  V30 4383 H 414.869 3.05757 -2.83846 0
M  V30 4384 H 413.499 2.71197 -1.75077 0
M  V30 4385 H 412.551 1.17327 -3.61854 0
M  V30 4386 H 413.863 1.74567 -4.67256 0
M  V30 4387 H 413.017 4.09333 -4.47807 0
M  V30 4388 H 411.756 3.56428 -3.32882 0
M  V30 4389 H 410.761 2.07777 -5.09027 0
M  V30 4390 H 411.986 2.63542 -6.25877 0
M  V30 4391 H 409.932 4.39682 -4.86842 0
M  V30 4392 H 409.849 3.84491 -6.50924 0
M  V30 4393 H 411.117 4.93496 -6.03392 0
M  V30 4394 N 415.346 1.54954 0.287554 0
M  V30 4395 C 416.276 1.89839 1.35954 0
M  V30 4396 C 417.257 0.758675 1.52244 0
M  V30 4397 O 418.442 1.01557 1.65529 0
M  V30 4398 C 415.572 2.15753 2.72154 0
M  V30 4399 C 414.526 3.3159 2.70614 0
M  V30 4400 C 413.852 3.42952 4.10229 0
M  V30 4401 C 415.152 4.68359 2.31165 0
M  V30 4402 H 416.846 2.79625 1.07007 0
M  V30 4403 H 414.392 1.3454 0.513316 0
M  V30 4404 H 416.345 2.38743 3.47246 0
M  V30 4405 H 415.069 1.22752 3.02654 0
M  V30 4406 H 413.728 3.08545 1.97979 0
M  V30 4407 H 413.376 2.47443 4.37928 0
M  V30 4408 H 413.076 4.20826 4.10097 0
M  V30 4409 H 414.6 3.68218 4.87081 0
M  V30 4410 H 416.014 4.9099 2.95976 0
M  V30 4411 H 414.411 5.49044 2.42221 0
M  V30 4412 H 415.481 4.68165 1.26291 0
M  V30 4413 N 416.824 -0.551391 1.4764 0
M  V30 4414 C 418.07 -1.31024 1.54792 0
M  V30 4415 C 418.403 -1.9304 0.211967 0
M  V30 4416 O 417.678 -1.78175 -0.77999 0
M  V30 4417 C 417.961 -2.41593 2.67029 0
M  V30 4418 C 417.814 -1.84408 4.10261 0
M  V30 4419 C 419.133 -3.43488 2.75143 0
M  V30 4420 H 416.252 -0.475031 0.563485 0
M  V30 4421 H 418.894 -0.616454 1.79722 0
M  V30 4422 H 417.044 -3.00772 2.45904 0
M  V30 4423 H 418.716 -1.29445 4.42766 0
M  V30 4424 H 416.959 -1.15051 4.18265 0
M  V30 4425 H 417.63 -2.64367 4.84576 0
M  V30 4426 H 420.106 -2.94236 2.94218 0
M  V30 4427 H 418.982 -4.18274 3.55441 0
M  V30 4428 H 419.243 -4.02703 1.82435 0
M  V30 4429 N 418.302 -1.35869 -0.798587 0
M  V30 4430 C 419.232 -1.32118 -1.92528 0
M  V30 4431 C 420.213 -0.194209 -1.68988 0
M  V30 4432 O 421.398 -0.390426 -1.90235 0
M  V30 4433 C 418.528 -1.10047 -3.29404 0
M  V30 4434 C 417.482 -2.19471 -3.67446 0
M  V30 4435 C 416.808 -1.82555 -5.02571 0
M  V30 4436 C 418.108 -3.61495 -3.76987 0
M  V30 4437 H 419.802 -2.26394 -1.95924 0
M  V30 4438 H 417.348 -1.08981 -0.94123 0
M  V30 4439 H 419.301 -1.06061 -4.07835 0
M  V30 4440 H 418.025 -0.122195 -3.26371 0
M  V30 4441 H 416.684 -2.22568 -2.91306 0
M  V30 4442 H 416.332 -0.833249 -4.9605 0
M  V30 4443 H 416.032 -2.5581 -5.28995 0
M  V30 4444 H 417.556 -1.80108 -5.83432 0
M  V30 4445 H 418.97 -3.60676 -4.4563 0
M  V30 4446 H 417.367 -4.33577 -4.14887 0
M  V30 4447 H 418.437 -3.97065 -2.78329 0
M  V30 4448 N 419.78 1.02168 -1.19998 0
M  V30 4449 C 421.027 1.75685 -1.00702 0
M  V30 4450 C 421.355 1.88947 0.461426 0
M  V30 4451 O 420.61 1.40832 1.35885 0
M  V30 4452 C 420.909 3.18081 -1.62969 0
M  V30 4453 C 420.575 3.24809 -3.12746 0
M  V30 4454 C 419.237 3.26352 -3.53621 0
M  V30 4455 C 421.589 3.23379 -4.08749 0
M  V30 4456 C 418.917 3.2413 -4.89036 0
M  V30 4457 C 421.269 3.22698 -5.44104 0
M  V30 4458 C 419.933 3.22542 -5.84399 0
M  V30 4459 H 419.203 0.642877 -0.368496 0
M  V30 4460 H 421.85 1.19865 -1.49348 0
M  V30 4461 H 420.155 3.77027 -1.06573 0
M  V30 4462 H 421.852 3.73648 -1.45561 0
M  V30 4463 H 418.442 3.2434 -2.80181 0
M  V30 4464 H 422.626 3.21361 -3.78207 0
M  V30 4465 H 417.882 3.22338 -5.19527 0
M  V30 4466 H 422.056 3.20543 -6.18244 0
M  V30 4467 H 419.683 3.20575 -6.89301 0
M  V30 4468 N 421.258 1.00505 1.21394 0
M  V30 4469 C 422.486 0.706609 1.9446 0
M  V30 4470 C 422.901 -0.73081 1.74082 0
M  V30 4471 O 422.258 -1.49446 1.04747 0
M  V30 4472 C 422.309 1.01824 3.46863 0
M  V30 4473 O 422.03 2.39919 3.66566 0
M  V30 4474 C 423.531 0.739216 4.37093 0
M  V30 4475 H 420.751 0.260394 0.618414 0
M  V30 4476 H 423.295 1.34311 1.54211 0
M  V30 4477 H 421.45 0.427343 3.85036 0
M  V30 4478 H 421.864 2.50784 4.6066 0
M  V30 4479 H 423.338 1.00744 5.42729 0
M  V30 4480 H 423.815 -0.326746 4.37983 0
M  V30 4481 H 424.421 1.31173 4.04566 0
M  V30 4482 N 422.737 -1.36956 0.779787 0
M  V30 4483 C 423.962 -2.04283 0.358224 0
M  V30 4484 C 424.387 -1.58422 -1.01411 0
M  V30 4485 O 423.745 -0.748179 -1.65142 0
M  V30 4486 C 423.793 -3.58152 0.419479 0
M  V30 4487 O 422.897 -4.08342 -0.577142 0
M  V30 4488 H 422.238 -0.645967 0.153698 0
M  V30 4489 H 424.768 -1.75108 1.05822 0
M  V30 4490 H 424.778 -4.07041 0.279636 0
M  V30 4491 H 423.453 -3.90886 1.42061 0
M  V30 4492 H 422.03 -3.70751 -0.399755 0
M  V30 4493 N 424.215 -0.530993 -1.48385 0
M  V30 4494 C 425.125 0.23503 -2.3342 0
M  V30 4495 C 426.141 0.93801 -1.46552 0
M  V30 4496 O 427.317 0.912745 -1.7953 0
M  V30 4497 C 424.382 1.26778 -3.22689 0
M  V30 4498 C 423.443 0.575038 -4.25431 0
M  V30 4499 C 422.676 1.55858 -5.10435 0
M  V30 4500 O 422.899 2.79129 -4.97437 0
M  V30 4501 O 421.833 1.09742 -5.91811 0
M  V30 4502 H 425.659 -0.461794 -3.00169 0
M  V30 4503 H 423.244 -0.291903 -1.46521 0
M  V30 4504 H 425.126 1.86457 -3.77904 0
M  V30 4505 H 423.801 1.94699 -2.586 0
M  V30 4506 H 422.708 -0.0622782 -3.74048 0
M  V30 4507 H 424.041 -0.062253 -4.92161 0
M  V30 4508 N 425.693 1.55336 -0.266172 0
M  V30 4509 C 426.625 2.19544 0.658247 0
M  V30 4510 C 427.638 1.17746 1.12427 0
M  V30 4511 O 428.827 1.44517 1.04772 0
M  V30 4512 C 425.927 2.80032 1.9088 0
M  V30 4513 C 425.1 4.07436 1.59106 0
M  V30 4514 C 424.159 4.52056 2.69317 0
M  V30 4515 O 423.185 5.18023 2.35883 0
M  V30 4516 N 424.387 4.21448 3.99201 0
M  V30 4517 H 427.152 2.99503 0.108754 0
M  V30 4518 H 424.713 1.61667 -0.0869059 0
M  V30 4519 H 426.705 3.06831 2.63888 0
M  V30 4520 H 425.275 2.04119 2.36758 0
M  V30 4521 H 424.495 3.88021 0.695243 0
M  V30 4522 H 425.783 4.90462 1.35367 0
M  V30 4523 H 425.181 3.68528 4.29189 0
M  V30 4524 H 423.738 4.53039 4.68614 0
M  V30 4525 N 427.171 -0.0066808 1.57599 0
M  V30 4526 C 428.396 -0.707738 1.94951 0
M  V30 4527 C 428.821 -1.66882 0.867868 0
M  V30 4528 O 428.179 -1.80457 -0.17458 0
M  V30 4529 C 428.227 -1.42162 3.31394 0
M  V30 4530 O 427.331 -2.53578 3.25226 0
M  V30 4531 H 426.672 -0.188752 0.636607 0
M  V30 4532 H 429.202 0.0445193 2.04552 0
M  V30 4533 H 429.212 -1.78655 3.66806 0
M  V30 4534 H 427.887 -0.716903 4.09675 0
M  V30 4535 H 426.464 -2.19463 3.01481 0
M  V30 4536 N 428.649 -1.55105 -0.279332 0
M  V30 4537 C 430.065 -1.46803 -0.626187 0
M  V30 4538 C 430.265 -0.676939 -1.89789 0
M  V30 4539 O 429.321 -0.19326 -2.51759 0
M  V30 4540 C 430.634 -2.90962 -0.759034 0
M  V30 4541 C 432.182 -3.01138 -0.853504 0
M  V30 4542 C 432.657 -4.46539 -1.01818 0
M  V30 4543 N 434.148 -4.50341 -1.08386 0
M  V30 4544 C 434.883 -5.60053 -1.22996 0
M  V30 4545 N 434.379 -6.79645 -1.34366 0
M  V30 4546 N 436.172 -5.47783 -1.26056 0
M  V30 4547 H 428.323 -2.04996 0.555921 0
M  V30 4548 H 430.586 -0.929325 0.187239 0
M  V30 4549 H 430.292 -3.51544 0.104852 0
M  V30 4550 H 430.166 -3.39619 -1.64131 0
M  V30 4551 H 432.553 -2.40658 -1.70786 0
M  V30 4552 H 432.634 -2.55745 0.0532466 0
M  V30 4553 H 432.278 -5.0762 -0.168504 0
M  V30 4554 H 432.208 -4.89583 -1.93948 0
M  V30 4555 H 434.699 -3.64191 -1.00864 0
M  V30 4556 H 435.012 -7.59012 -1.4533 0
M  V30 4557 H 433.357 -6.82469 -1.31382 0
M  V30 4558 H 436.548 -4.53294 -1.168 0
M  V30 4559 H 436.721 -6.33331 -1.37098 0
M  V30 4560 N 430.127 0.543554 -1.4793 0
M  V30 4561 C 431.357 1.32324 -1.58663 0
M  V30 4562 C 431.765 1.8766 -0.240896 0
M  V30 4563 O 431.108 1.66411 0.778011 0
M  V30 4564 C 431.17 2.52094 -2.56299 0
M  V30 4565 C 430.834 2.17944 -4.01683 0
M  V30 4566 C 431.831 1.74422 -4.89768 0
M  V30 4567 C 429.516 2.28884 -4.47121 0
M  V30 4568 C 431.51 1.42287 -6.21316 0
M  V30 4569 C 429.197 1.96361 -5.78693 0
M  V30 4570 C 430.195 1.53132 -6.65612 0
M  V30 4571 O 429.883 1.21029 -7.94737 0
M  V30 4572 H 429.615 0.409174 -0.538101 0
M  V30 4573 H 432.169 0.663887 -1.94375 0
M  V30 4574 H 430.399 3.20965 -2.15681 0
M  V30 4575 H 432.088 3.14165 -2.57012 0
M  V30 4576 H 432.854 1.65452 -4.55907 0
M  V30 4577 H 428.733 2.61488 -3.79664 0
M  V30 4578 H 432.277 1.08472 -6.89115 0
M  V30 4579 H 428.174 2.04967 -6.12094 0
M  V30 4580 H 428.942 1.34543 -8.07366 0
M  V30 4581 N 431.605 1.3629 0.791371 0
M  V30 4582 C 432.83 1.33726 1.58531 0
M  V30 4583 C 433.255 -0.0794933 1.87932 0
M  V30 4584 O 432.613 -1.05087 1.47738 0
M  V30 4585 C 432.661 2.16425 2.88431 0
M  V30 4586 O 431.765 1.5554 3.81944 0
M  V30 4587 H 431.106 0.457793 0.480959 0
M  V30 4588 H 433.636 1.79547 0.981031 0
M  V30 4589 H 433.646 2.28933 3.37718 0
M  V30 4590 H 432.321 3.19415 2.66359 0
M  V30 4591 H 430.898 1.51961 3.40532 0
M  V30 4592 N 433.083 -1.0153 1.20538 0
M  V30 4593 C 434.332 -1.74558 1.01057 0
M  V30 4594 C 434.645 -1.90168 -0.457756 0
M  V30 4595 O 435.851 -2.60301 -0.771722 0
M  V30 4596 C 434.307 -3.13963 1.75941 0
M  V30 4597 C 433.915 -3.06361 3.26875 0
M  V30 4598 C 435.659 -3.91191 1.64832 0
M  V30 4599 C 433.566 -4.40782 3.94291 0
M  V30 4600 H 432.496 -0.654417 0.374505 0
M  V30 4601 H 435.147 -1.13521 1.44171 0
M  V30 4602 H 433.529 -3.75549 1.25614 0
M  V30 4603 H 434.703 -2.54074 3.84425 0
M  V30 4604 H 433.018 -2.42625 3.38411 0
M  V30 4605 H 435.615 -4.90644 2.12539 0
M  V30 4606 H 435.958 -4.11884 0.604745 0
M  V30 4607 H 436.491 -3.36236 2.12579 0
M  V30 4608 H 433.23 -4.25292 4.98805 0
M  V30 4609 H 432.75 -4.9307 3.41529 0
M  V30 4610 H 434.429 -5.09621 3.98617 0
M  V30 4611 N 434.561 -1.01147 -1.20859 0
M  V30 4612 C 435.508 -0.577354 -2.23462 0
M  V30 4613 C 436.478 0.399922 -1.61214 0
M  V30 4614 O 437.663 0.300515 -1.88419 0
M  V30 4615 C 434.803 0.083372 -3.44999 0
M  V30 4616 C 433.916 -0.937856 -4.21697 0
M  V30 4617 C 433.051 -0.248717 -5.30617 0
M  V30 4618 C 432.09 -1.25705 -5.99053 0
M  V30 4619 N 431.227 -0.594939 -6.99575 0
M  V30 4620 H 436.067 -1.45695 -2.59956 0
M  V30 4621 H 433.604 -0.729428 -1.27741 0
M  V30 4622 H 435.562 0.483535 -4.14388 0
M  V30 4623 H 434.192 0.926645 -3.09214 0
M  V30 4624 H 433.244 -1.45622 -3.51423 0
M  V30 4625 H 434.556 -1.70493 -4.68757 0
M  V30 4626 H 433.71 0.207215 -6.06346 0
M  V30 4627 H 432.449 0.55071 -4.84581 0
M  V30 4628 H 431.454 -1.72343 -5.2209 0
M  V30 4629 H 432.679 -2.05767 -6.47176 0
M  V30 4630 H 430.625 0.184713 -6.5574 0
M  V30 4631 H 430.542 -1.30017 -7.44736 0
M  V30 4632 H 431.81 -0.162427 -7.79331 0
M  V30 4633 N 436.039 1.36541 -0.78704 0
M  V30 4634 C 436.986 2.30082 -0.181901 0
M  V30 4635 C 437.956 1.5186 0.672896 0
M  V30 4636 O 439.141 1.80374 0.622072 0
M  V30 4637 C 436.281 3.3835 0.679197 0
M  V30 4638 C 435.394 4.31565 -0.193882 0
M  V30 4639 C 434.529 5.26915 0.673364 0
M  V30 4640 C 433.568 6.11769 -0.201315 0
M  V30 4641 N 432.705 6.99315 0.624777 0
M  V30 4642 H 437.545 2.81248 -0.985064 0
M  V30 4643 H 435.082 1.38437 -0.497342 0
M  V30 4644 H 437.04 3.99767 1.19341 0
M  V30 4645 H 435.67 2.8851 1.44781 0
M  V30 4646 H 434.722 3.71323 -0.826044 0
M  V30 4647 H 436.034 4.91191 -0.867937 0
M  V30 4648 H 435.188 5.9361 1.25348 0
M  V30 4649 H 433.927 4.67737 1.38105 0
M  V30 4650 H 432.932 5.44039 -0.793849 0
M  V30 4651 H 434.157 6.73022 -0.906568 0
M  V30 4652 H 432.103 6.42648 1.3168 0
M  V30 4653 H 432.02 7.56 0.00835237 0
M  V30 4654 H 433.288 7.70382 1.18879 0
M  V30 4655 N 437.518 0.538854 1.48102 0
M  V30 4656 C 438.481 -0.208395 2.28251 0
M  V30 4657 C 439.481 -0.859656 1.35892 0
M  V30 4658 O 440.671 -0.71834 1.58699 0
M  V30 4659 C 437.803 -1.30252 3.15035 0
M  V30 4660 H 438.996 0.495407 2.9578 0
M  V30 4661 H 436.549 0.295112 1.53489 0
M  V30 4662 H 437.284 -2.0393 2.52157 0
M  V30 4663 H 437.069 -0.840551 3.82985 0
M  V30 4664 H 438.559 -1.82787 3.75471 0
M  V30 4665 N 438.996 -1.55193 0.274407 0
M  V30 4666 C 440.244 -1.99187 -0.341902 0
M  V30 4667 C 440.565 -1.16422 -1.56431 0
M  V30 4668 O 439.835 -0.253573 -1.94252 0
M  V30 4669 H 438.415 -0.735721 -0.129317 0
M  V30 4670 H 441.077 -1.91168 0.379578 0
M  V30 4671 H 440.173 -3.05629 -0.632253 0
M  V30 4672 N 440.474 -0.00167713 -1.576 0
M  V30 4673 C 441.437 0.974046 -2.07473 0
M  V30 4674 C 442.437 1.27143 -0.984444 0
M  V30 4675 O 443.627 1.21633 -1.24703 0
M  V30 4676 C 440.759 2.29849 -2.51759 0
M  V30 4677 H 441.952 0.54262 -2.9495 0
M  V30 4678 H 439.505 0.245829 -1.54355 0
M  V30 4679 H 440.24 2.77677 -1.67529 0
M  V30 4680 H 440.025 2.09584 -3.31386 0
M  V30 4681 H 441.515 2.9984 -2.90664 0
M  V30 4682 N 441.952 1.55251 0.271103 0
M  V30 4683 C 442.915 1.87484 1.31842 0
M  V30 4684 C 443.915 0.749545 1.42262 0
M  V30 4685 O 445.105 1.01771 1.4138 0
M  V30 4686 C 442.237 2.0818 2.69951 0
M  V30 4687 H 443.43 2.81108 1.0449 0
M  V30 4688 H 440.983 1.47771 0.509258 0
M  V30 4689 H 441.718 1.16944 3.02481 0
M  V30 4690 H 441.503 2.90114 2.63774 0
M  V30 4691 H 442.993 2.34385 3.4562 0
M  V30 4692 N 443.43 -0.535701 1.48216 0
M  V30 4693 C 444.36 -1.65014 1.65204 0
M  V30 4694 C 445.341 -1.62554 0.501011 0
M  V30 4695 O 446.526 -1.7984 0.732886 0
M  V30 4696 C 443.656 -3.03616 1.68626 0
M  V30 4697 C 442.61 -3.20932 2.83172 0
M  V30 4698 C 441.936 -4.60537 2.71679 0
M  V30 4699 C 443.236 -3.04249 4.24535 0
M  V30 4700 H 444.93 -1.51053 2.58502 0
M  V30 4701 H 442.476 -0.725262 1.24402 0
M  V30 4702 H 444.429 -3.81446 1.79099 0
M  V30 4703 H 443.153 -3.18587 0.719026 0
M  V30 4704 H 441.812 -2.45517 2.72244 0
M  V30 4705 H 441.46 -4.72336 1.72937 0
M  V30 4706 H 441.16 -4.73069 3.48538 0
M  V30 4707 H 442.684 -5.40475 2.84112 0
M  V30 4708 H 444.098 -3.71877 4.36326 0
M  V30 4709 H 442.495 -3.28278 5.02348 0
M  V30 4710 H 443.565 -2.00739 4.41397 0
M  V30 4711 N 444.908 -1.36708 -0.784132 0
M  V30 4712 C 446.156 -1.30972 -1.53918 0
M  V30 4713 C 446.477 0.109086 -1.94695 0
M  V30 4714 O 445.747 1.05048 -1.65353 0
M  V30 4715 H 444.327 -0.481819 -0.570841 0
M  V30 4716 H 446.989 -1.71063 -0.934002 0
M  V30 4717 H 446.085 -1.94061 -2.44431 0
M  V30 4718 N 446.386 1.0089 -1.21074 0
M  V30 4719 C 447.633 1.74607 -1.0256 0
M  V30 4720 C 447.961 1.89426 0.44136 0
M  V30 4721 O 447.216 1.42266 1.34384 0
M  V30 4722 C 447.515 3.16335 -1.66334 0
M  V30 4723 C 447.181 3.21474 -3.16173 0
M  V30 4724 C 445.843 3.22583 -3.57062 0
M  V30 4725 C 448.195 3.19025 -4.12156 0
M  V30 4726 C 445.523 3.18925 -4.92446 0
M  V30 4727 C 447.875 3.16909 -5.47496 0
M  V30 4728 C 446.539 3.16326 -5.87787 0
M  V30 4729 H 445.809 0.638933 -0.375294 0
M  V30 4730 H 448.456 1.18274 -1.50611 0
M  V30 4731 H 446.761 3.75876 -1.10566 0
M  V30 4732 H 448.458 3.72083 -1.49516 0
M  V30 4733 H 445.048 3.2135 -2.83605 0
M  V30 4734 H 449.232 3.17332 -3.81595 0
M  V30 4735 H 444.488 3.16809 -5.22917 0
M  V30 4736 H 448.662 3.13968 -6.21609 0
M  V30 4737 H 446.289 3.13246 -6.92662 0
M  V30 4738 N 447.864 1.01787 1.20321 0
M  V30 4739 C 449.112 0.706538 1.89347 0
M  V30 4740 C 449.433 -0.766289 1.79313 0
M  V30 4741 O 448.703 -1.55126 1.19635 0
M  V30 4742 H 447.283 0.258348 0.700903 0
M  V30 4743 H 449.945 1.28974 1.46122 0
M  V30 4744 H 449.041 0.991066 2.95946 0
M  V30 4745 N 449.342 -1.36122 0.79427 0
M  V30 4746 C 450.57 -2.03362 0.380989 0
M  V30 4747 C 450.985 -1.59881 -1.00416 0
M  V30 4748 O 450.342 -0.790515 -1.6449 0
M  V30 4749 C 450.393 -3.58804 0.440649 0
M  V30 4750 O 450.114 -4.007 1.77118 0
M  V30 4751 C 451.615 -4.43296 0.0186117 0
M  V30 4752 H 448.835 -0.652526 0.156367 0
M  V30 4753 H 451.379 -1.73998 1.07447 0
M  V30 4754 H 449.534 -3.8686 -0.204458 0
M  V30 4755 H 449.948 -4.95309 1.72538 0
M  V30 4756 H 451.422 -5.51887 0.111488 0
M  V30 4757 H 451.899 -4.2684 -1.03461 0
M  V30 4758 H 452.505 -4.20512 0.636395 0
M  V30 4759 N 450.82 -0.546701 -1.47814 0
M  V30 4760 C 452.097 0.0464413 -1.95545 0
M  V30 4761 C 452.477 1.4962 -1.48919 0
M  V30 4762 O 451.825 2.16752 -0.723232 0
M  V30 4763 C 452.035 -0.0881298 -3.48889 0
M  V30 4764 C 453.383 0.0626059 -4.24554 0
M  V30 4765 O 454.407 -0.0151555 -3.56197 0
M  V30 4766 O 453.266 0.228071 -5.46024 0
M  V30 4767 H 450.36 0.0700004 -0.824032 0
M  V30 4768 H 452.906 -0.612482 -1.58262 0
M  V30 4769 H 451.678 -1.09737 -3.75597 0
M  V30 4770 H 451.301 0.608886 -3.9291 0
M  V30 4771 N 452.299 1.55045 -0.282633 0
M  V30 4772 C 453.247 2.24254 0.617478 0
M  V30 4773 C 454.241 1.24215 1.15183 0
M  V30 4774 O 455.447 1.42123 1.10459 0
M  V30 4775 H 451.822 0.719801 0.217693 0
M  V30 4776 H 453.793 2.98398 0.0110076 0
M  V30 4777 C 452.542 2.98281 1.78672 0
M  V30 4778 H 451.865 3.75053 1.38475 0
M  V30 4779 H 453.305 3.50017 2.393 0
M  V30 4780 C 451.764 2.04184 2.67975 0
M  V30 4781 O 452.294 1.59792 3.6855 0
M  V30 4782 N 450.5 1.70526 2.35307 0
M  V30 4783 H 450.047 2.06821 1.53567 0
M  V30 4784 H 450.005 1.07839 2.95327 0
M  V30 4785 N 453.777 0.010035 1.57597 0
M  V30 4786 C 455.023 -0.673697 1.91283 0
M  V30 4787 C 455.356 -1.72863 0.884979 0
M  V30 4788 O 454.631 -1.94268 -0.0949487 0
M  V30 4789 C 454.914 -1.30766 3.35518 0
M  V30 4790 C 454.767 -0.263578 4.49027 0
M  V30 4791 C 456.086 -2.23105 3.79358 0
M  V30 4792 H 453.205 -0.243439 0.695634 0
M  V30 4793 H 455.847 0.0633864 1.89894 0
M  V30 4794 H 453.997 -1.93588 3.36832 0
M  V30 4795 H 455.669 0.365738 4.59848 0
M  V30 4796 H 453.912 0.413077 4.31829 0
M  V30 4797 H 454.583 -0.746398 5.4693 0
M  V30 4798 H 457.059 -1.70289 3.79659 0
M  V30 4799 H 455.935 -2.64424 4.81011 0
M  V30 4800 H 456.196 -3.11433 3.13787 0
M  V30 4801 N 455.255 -1.55392 -0.262866 0
M  V30 4802 C 456.504 -1.75679 -0.990943 0
M  V30 4803 C 456.817 -0.57097 -1.87081 0
M  V30 4804 O 458.023 -0.656486 -2.63444 0
M  V30 4805 C 456.479 -3.10964 -1.81188 0
M  V30 4806 C 456.087 -4.37146 -0.980188 0
M  V30 4807 C 457.831 -3.40597 -2.53365 0
M  V30 4808 C 455.738 -5.63466 -1.7961 0
M  V30 4809 H 454.668 -0.654868 -0.373716 0
M  V30 4810 H 457.319 -1.81841 -0.246203 0
M  V30 4811 H 455.701 -2.98867 -2.59797 0
M  V30 4812 H 456.875 -4.60187 -0.237558 0
M  V30 4813 H 455.19 -4.14731 -0.372497 0
M  V30 4814 H 457.787 -4.32186 -3.14833 0
M  V30 4815 H 458.13 -2.6119 -3.24169 0
M  V30 4816 H 458.663 -3.53838 -1.81779 0
M  V30 4817 H 455.402 -6.4565 -1.13209 0
M  V30 4818 H 454.922 -5.44552 -2.51443 0
M  V30 4819 H 456.601 -6.02139 -2.36723 0
M  V30 4820 N 456.733 0.527833 -1.48498 0
M  V30 4821 C 457.663 1.64136 -1.66077 0
M  V30 4822 C 458.644 1.62286 -0.509625 0
M  V30 4823 O 459.829 1.79449 -0.742413 0
M  V30 4824 C 456.959 3.02717 -1.70234 0
M  V30 4825 C 455.913 3.19426 -2.8487 0
M  V30 4826 C 455.239 4.5909 -2.74118 0
M  V30 4827 C 456.539 3.01993 -4.26142 0
M  V30 4828 H 458.233 1.4968 -2.593 0
M  V30 4829 H 455.779 0.718654 -1.24785 0
M  V30 4830 H 457.732 3.80491 -1.8112 0
M  V30 4831 H 456.456 3.18201 -0.735911 0
M  V30 4832 H 455.115 2.4407 -2.73542 0
M  V30 4833 H 454.763 4.71413 -1.7544 0
M  V30 4834 H 454.463 4.71214 -3.51042 0
M  V30 4835 H 455.987 5.3896 -2.86974 0
M  V30 4836 H 457.401 3.69558 -4.38292 0
M  V30 4837 H 455.798 3.2561 -5.04082 0
M  V30 4838 H 456.868 1.98396 -4.42456 0
M  V30 4839 N 458.211 1.37122 0.776871 0
M  V30 4840 C 459.46 1.31373 1.53049 0
M  V30 4841 C 459.773 -0.101016 1.95339 0
M  V30 4842 O 460.979 -0.280953 2.70042 0
M  V30 4843 C 459.435 2.30567 2.76346 0
M  V30 4844 C 459.043 3.77543 2.41175 0
M  V30 4845 C 460.787 2.33818 3.54301 0
M  V30 4846 C 458.694 4.68481 3.60943 0
M  V30 4847 H 457.624 0.488234 0.574581 0
M  V30 4848 H 460.275 1.62554 0.851372 0
M  V30 4849 H 458.657 1.92396 3.46121 0
M  V30 4850 H 459.831 4.24521 1.79216 0
M  V30 4851 H 458.146 3.77187 1.76405 0
M  V30 4852 H 460.743 2.98965 4.4331 0
M  V30 4853 H 461.086 1.3503 3.93793 0
M  V30 4854 H 461.619 2.7067 2.91518 0
M  V30 4855 H 458.358 5.68378 3.26537 0
M  V30 4856 H 457.878 4.2621 4.22025 0
M  V30 4857 H 459.557 4.85366 4.27819 0
M  V30 4858 N 459.689 -1.00246 1.21608 0
M  V30 4859 C 460.636 -2.09073 0.977613 0
M  V30 4860 C 461.606 -1.65815 -0.097297 0
M  V30 4861 O 462.791 -1.90734 0.0503445 0
M  V30 4862 C 459.931 -3.40671 0.551133 0
M  V30 4863 C 459.044 -3.97326 1.69576 0
M  V30 4864 C 458.179 -5.17043 1.2182 0
M  V30 4865 C 457.218 -5.65813 2.335 0
M  V30 4866 N 456.355 -6.76778 1.86859 0
M  V30 4867 H 461.195 -2.28806 1.90924 0
M  V30 4868 H 458.732 -1.12186 0.951452 0
M  V30 4869 H 460.69 -4.16225 0.285097 0
M  V30 4870 H 459.32 -3.20967 -0.343489 0
M  V30 4871 H 458.372 -3.18734 2.07637 0
M  V30 4872 H 459.684 -4.29511 2.53617 0
M  V30 4873 H 458.838 -5.99852 0.908975 0
M  V30 4874 H 457.577 -4.86458 0.347869 0
M  V30 4875 H 456.582 -4.81599 2.65222 0
M  V30 4876 H 457.807 -5.98427 3.21033 0
M  V30 4877 H 455.753 -6.47994 1.02174 0
M  V30 4878 H 455.67 -7.08231 2.64471 0
M  V30 4879 H 456.938 -7.63116 1.58978 0
M  V30 4880 N 461.167 -1.02423 -1.1978 0
M  V30 4881 C 462.407 -0.726635 -1.91048 0
M  V30 4882 C 462.771 0.730947 -1.77542 0
M  V30 4883 O 463.972 1.14141 -2.43362 0
M  V30 4884 C 462.243 -1.15964 -3.38064 0
M  V30 4885 S 463.802 -0.985172 -4.27598 0
M  V30 4886 H 460.62 -0.264679 -0.659899 0
M  V30 4887 H 463.222 -1.31309 -1.44838 0
M  V30 4888 H 461.926 -2.21619 -3.45417 0
M  V30 4889 H 461.457 -0.566274 -3.89303 0
M  V30 4890 H 463.472 0.106946 -4.96085 0
M  V30 4891 N 462.645 1.35699 -0.801477 0
M  V30 4892 C 463.593 2.3177 -0.196317 0
M  V30 4893 C 464.587 1.56388 0.651081 0
M  V30 4894 O 465.793 1.71557 0.544815 0
M  V30 4895 H 462.168 0.750669 -0.0447189 0
M  V30 4896 H 464.139 2.8036 -1.02181 0
M  V30 4897 C 462.888 3.41671 0.644702 0
M  V30 4898 H 462.211 3.998 0.0019921 0
M  V30 4899 H 463.651 4.11184 1.0346 0
M  V30 4900 C 462.11 2.84271 1.80808 0
M  V30 4901 O 462.64 2.77408 2.9053 0
M  V30 4902 N 460.846 2.41391 1.61799 0
M  V30 4903 H 460.393 2.47173 0.725493 0
M  V30 4904 H 460.351 2.03334 2.39797 0
M  V30 4905 N 464.123 0.554532 1.47522 0
M  V30 4906 C 465.033 -0.197865 2.33764 0
M  V30 4907 C 466.049 -0.914576 1.48025 0
M  V30 4908 O 467.225 -0.884067 1.80959 0
M  V30 4909 C 464.29 -1.21628 3.24665 0
M  V30 4910 C 463.351 -0.507283 4.26292 0
M  V30 4911 C 462.584 -1.47718 5.1285 0
M  V30 4912 O 462.807 -2.7118 5.01814 0
M  V30 4913 O 461.741 -1.00313 5.93482 0
M  V30 4914 H 465.567 0.50949 2.99396 0
M  V30 4915 H 463.152 0.315176 1.46038 0
M  V30 4916 H 465.034 -1.80421 3.80823 0
M  V30 4917 H 463.709 -1.9056 2.61665 0
M  V30 4918 H 462.616 0.121778 3.73902 0
M  V30 4919 H 463.949 0.140544 4.91999 0
M  V30 4920 N 465.601 -1.54893 0.290851 0
M  V30 4921 C 467.017 -1.59476 -0.0628432 0
M  V30 4922 C 467.217 -1.30795 -1.5328 0
M  V30 4923 O 466.273 -1.07644 -2.28406 0
M  V30 4924 C 467.586 -2.98928 0.325962 0
M  V30 4925 C 469.134 -3.11799 0.273882 0
M  V30 4926 C 469.609 -4.53544 0.637359 0
M  V30 4927 N 471.1 -4.59433 0.589507 0
M  V30 4928 C 471.835 -5.67164 0.84335 0
M  V30 4929 N 471.331 -6.82975 1.16263 0
M  V30 4930 N 473.124 -5.56786 0.771091 0
M  V30 4931 H 465.275 -1.71798 1.24896 0
M  V30 4932 H 467.538 -0.801879 0.505663 0
M  V30 4933 H 467.244 -3.24805 1.34887 0
M  V30 4934 H 467.118 -3.75793 -0.325441 0
M  V30 4935 H 469.505 -2.85677 -0.739765 0
M  V30 4936 H 469.586 -2.37112 0.959766 0
M  V30 4937 H 469.23 -4.80394 1.64877 0
M  V30 4938 H 469.16 -5.26553 -0.0704866 0
M  V30 4939 H 471.651 -3.76245 0.353252 0
M  V30 4940 H 471.964 -7.61048 1.34257 0
M  V30 4941 H 470.309 -6.84552 1.20057 0
M  V30 4942 H 473.5 -4.65187 0.521383 0
M  V30 4943 H 473.673 -6.40664 0.972295 0
M  V30 4944 N 467.08 -0.0183926 -1.57589 0
M  V30 4945 C 468.328 0.661253 -1.90976 0
M  V30 4946 C 468.649 1.73281 -0.894353 0
M  V30 4947 O 467.919 1.9579 0.0656788 0
M  V30 4948 H 466.499 0.247233 -0.704901 0
M  V30 4949 H 469.161 -0.0636639 -1.94796 0
M  V30 4950 H 468.257 1.12083 -2.9128 0
M  V30 4951 N 468.558 1.5553 0.254621 0
M  V30 4952 C 469.468 1.92789 1.33677 0
M  V30 4953 C 470.484 0.827356 1.53071 0
M  V30 4954 O 471.66 1.12807 1.66843 0
M  V30 4955 C 468.725 2.20827 2.67275 0
M  V30 4956 C 467.786 3.4427 2.5647 0
M  V30 4957 C 467.019 3.70961 3.83697 0
M  V30 4958 O 467.242 2.99852 4.85227 0
M  V30 4959 O 466.176 4.64491 3.82794 0
M  V30 4960 H 470.002 2.84945 1.05071 0
M  V30 4961 H 467.587 1.42312 0.454723 0
M  V30 4962 H 469.469 2.40204 3.46237 0
M  V30 4963 H 468.144 1.31851 2.9563 0
M  V30 4964 H 467.051 3.30209 1.75821 0
M  V30 4965 H 468.384 4.33524 2.33062 0
M  V30 4966 N 470.036 -0.519951 1.48776 0
M  V30 4967 C 471.285 -1.27175 1.56555 0
M  V30 4968 C 471.598 -1.9401 0.248869 0
M  V30 4969 O 472.804 -2.70725 0.205004 0
M  V30 4970 C 471.26 -2.30811 2.76142 0
M  V30 4971 C 470.868 -1.7 4.14493 0
M  V30 4972 C 472.612 -3.06937 2.9324 0
M  V30 4973 C 470.519 -2.71635 5.25327 0
M  V30 4974 H 469.449 -0.478329 0.582853 0
M  V30 4975 H 472.1 -0.547916 1.75129 0
M  V30 4976 H 470.482 -3.06274 2.51023 0
M  V30 4977 H 471.656 -1.00658 4.49672 0
M  V30 4978 H 469.971 -1.06331 4.02595 0
M  V30 4979 H 472.568 -3.82905 3.73213 0
M  V30 4980 H 472.911 -3.63409 2.03075 0
M  V30 4981 H 473.444 -2.38589 3.18308 0
M  V30 4982 H 470.183 -2.1997 6.1749 0
M  V30 4983 H 469.703 -3.39275 4.94624 0
M  V30 4984 H 471.382 -3.34429 5.53865 0
M  V30 4985 N 471.514 -1.37532 -0.769588 0
M  V30 4986 C 472.763 -1.32183 -1.5235 0
M  V30 4987 C 473.076 0.0906555 -1.9539 0
M  V30 4988 O 474.282 0.266628 -2.70188 0
M  V30 4989 C 472.738 -2.32029 -2.75119 0
M  V30 4990 C 472.346 -3.78816 -2.3917 0
M  V30 4991 C 474.09 -2.35694 -3.53056 0
M  V30 4992 C 471.997 -4.70388 -3.58453 0
M  V30 4993 H 470.927 -0.491275 -0.571984 0
M  V30 4994 H 473.578 -1.63004 -0.842739 0
M  V30 4995 H 471.96 -1.94229 -3.45096 0
M  V30 4996 H 473.134 -4.25466 -1.76962 0
M  V30 4997 H 471.449 -3.78117 -1.74402 0
M  V30 4998 H 474.046 -3.01312 -4.41718 0
M  V30 4999 H 474.389 -1.37117 -3.93071 0
M  V30 5000 H 474.922 -2.72212 -2.90078 0
M  V30 5001 H 471.661 -5.70102 -3.23518 0
M  V30 5002 H 471.181 -4.28442 -4.19758 0
M  V30 5003 H 472.86 -4.87628 -4.25239 0
M  V30 5004 N 472.992 0.995999 -1.22138 0
M  V30 5005 C 474.403 1.54961 -1.04135 0
M  V30 5006 C 474.754 1.92159 0.396147 0
M  V30 5007 O 473.879 1.74435 1.28069 0
M  V30 5008 C 474.474 2.81581 -1.88408 0
M  V30 5009 C 473.033 3.33396 -1.74712 0
M  V30 5010 C 472.18 2.06509 -1.85066 0
M  V30 5011 H 475.131 0.817436 -1.36028 0
M  V30 5012 H 475.152 3.53822 -1.39966 0
M  V30 5013 H 474.664 2.54476 -2.93025 0
M  V30 5014 H 472.765 3.65416 -0.728159 0
M  V30 5015 H 472.878 4.04208 -2.57202 0
M  V30 5016 H 471.242 2.19925 -1.28472 0
M  V30 5017 H 472.025 1.81804 -2.91208 0
M  V30 5018 N 474.47 1.03057 1.19235 0
M  V30 5019 C 475.433 0.617418 2.20727 0
M  V30 5020 C 476.433 -0.319856 1.57587 0
M  V30 5021 O 477.623 -0.106633 1.73873 0
M  V30 5022 C 474.755 -0.096296 3.40764 0
M  V30 5023 H 475.948 1.51544 2.58794 0
M  V30 5024 H 473.501 0.821949 1.32942 0
M  V30 5025 H 474.236 -1.00859 3.08217 0
M  V30 5026 H 474.021 0.577217 3.87828 0
M  V30 5027 H 475.511 -0.372219 4.15938 0
M  V30 5028 N 475.948 -1.35272 0.808662 0
M  V30 5029 C 477.225 -1.93077 0.313181 0
M  V30 5030 C 477.605 -1.73847 -1.19752 0
M  V30 5031 O 476.953 -1.1087 -1.998 0
M  V30 5032 C 477.163 -3.41347 0.726859 0
M  V30 5033 C 478.511 -4.18493 0.717532 0
M  V30 5034 O 479.535 -3.4987 0.668535 0
M  V30 5035 O 478.394 -5.40937 0.777779 0
M  V30 5036 H 475.488 -0.822885 0.0824018 0
M  V30 5037 H 478.034 -1.44335 0.892499 0
M  V30 5038 H 476.806 -3.49082 1.76797 0
M  V30 5039 H 476.429 -3.97411 0.122461 0
M  V30 5040 N 477.426 -0.562348 -1.47226 0
M  V30 5041 C 478.673 -0.0402165 -2.0246 0
M  V30 5042 C 479.001 1.31169 -1.43614 0
M  V30 5043 O 478.256 1.86805 -0.5833 0
M  V30 5044 C 478.555 0.0969817 -3.57268 0
M  V30 5045 C 478.221 -1.1847 -4.35058 0
M  V30 5046 C 476.883 -1.53588 -4.56031 0
M  V30 5047 C 479.235 -2.03378 -4.79882 0
M  V30 5048 C 476.563 -2.73452 -5.19077 0
M  V30 5049 C 478.915 -3.2245 -5.44251 0
M  V30 5050 C 477.579 -3.57876 -5.63455 0
M  V30 5051 H 476.849 -0.0147163 -0.740854 0
M  V30 5052 H 479.496 -0.734895 -1.76838 0
M  V30 5053 H 477.801 0.87466 -3.81912 0
M  V30 5054 H 479.498 0.516408 -3.97661 0
M  V30 5055 H 476.088 -0.90126 -4.19017 0
M  V30 5056 H 480.272 -1.77553 -4.63453 0
M  V30 5057 H 475.528 -3.01062 -5.32139 0
M  V30 5058 H 479.702 -3.88526 -5.77945 0
M  V30 5059 H 477.329 -4.50849 -6.12078 0
M  V30 5060 N 478.904 1.54736 -0.299062 0
M  V30 5061 C 479.814 2.27127 0.587413 0
M  V30 5062 C 480.83 1.30575 1.15005 0
M  V30 5063 O 482.006 1.63554 1.17525 0
M  V30 5064 C 479.071 2.99645 1.74395 0
M  V30 5065 C 478.132 4.11731 1.21559 0
M  V30 5066 C 477.365 4.80781 2.317 0
M  V30 5067 O 477.588 4.4918 3.51558 0
M  V30 5068 O 476.522 5.68226 1.98501 0
M  V30 5069 H 480.348 3.037 0.000250109 0
M  V30 5070 H 477.933 1.49256 -0.0655919 0
M  V30 5071 H 479.815 3.45138 2.4178 0
M  V30 5072 H 478.49 2.25969 2.31775 0
M  V30 5073 H 477.397 3.70641 0.507514 0
M  V30 5074 H 478.73 4.87379 0.687233 0
M  V30 5075 N 480.382 0.0267497 1.57577 0
M  V30 5076 C 481.345 -0.940916 2.08996 0
M  V30 5077 C 482.345 -1.25561 1.00455 0
M  V30 5078 O 483.535 -1.19634 1.26623 0
M  V30 5079 C 480.667 -2.25814 2.55384 0
M  V30 5080 H 481.86 -0.495628 2.95776 0
M  V30 5081 H 479.413 -0.221241 1.54726 0
M  V30 5082 H 480.148 -2.74976 1.71926 0
M  V30 5083 H 479.933 -2.04285 3.34679 0
M  V30 5084 H 481.423 -2.95178 2.95398 0
M  V30 5085 N 481.861 -1.55662 -0.24637 0
M  V30 5086 C 482.808 -1.90361 -1.30504 0
M  V30 5087 C 483.778 -0.757905 -1.47801 0
M  V30 5088 O 484.963 -1.01161 -1.61775 0
M  V30 5089 C 482.103 -2.2042 -2.65535 0
M  V30 5090 C 481.216 -3.47799 -2.56242 0
M  V30 5091 C 480.351 -3.67426 -3.8363 0
M  V30 5092 C 479.39 -4.88403 -3.68956 0
M  V30 5093 N 478.527 -5.04548 -4.88237 0
M  V30 5094 H 483.367 -2.80645 -1.00213 0
M  V30 5095 H 480.904 -1.38924 -0.483577 0
M  V30 5096 H 482.862 -2.35853 -3.44135 0
M  V30 5097 H 481.492 -1.3334 -2.93973 0
M  V30 5098 H 480.544 -3.40694 -1.69208 0
M  V30 5099 H 481.856 -4.36544 -2.4131 0
M  V30 5100 H 481.01 -3.82821 -4.70673 0
M  V30 5101 H 479.749 -2.76914 -4.01459 0
M  V30 5102 H 478.754 -4.72984 -2.80296 0
M  V30 5103 H 479.979 -5.80375 -3.52621 0
M  V30 5104 H 477.925 -4.16974 -5.06427 0
M  V30 5105 H 477.842 -5.87384 -4.75937 0
M  V30 5106 H 479.11 -5.24355 -5.76777 0
M  V30 5107 N 483.339 0.512053 -1.4905 0
M  V30 5108 C 484.588 1.26343 -1.57227 0
M  V30 5109 C 484.901 1.93876 -0.259155 0
M  V30 5110 O 486.107 2.70612 -0.219358 0
M  V30 5111 C 484.563 2.29343 -2.77362 0
M  V30 5112 C 484.171 1.67799 -4.15388 0
M  V30 5113 C 485.915 3.05378 -2.94864 0
M  V30 5114 C 483.822 2.68845 -5.2676 0
M  V30 5115 H 482.752 0.475231 -0.585382 0
M  V30 5116 H 485.403 0.53862 -1.75417 0
M  V30 5117 H 483.785 3.04938 -2.52643 0
M  V30 5118 H 484.959 0.982715 -4.50199 0
M  V30 5119 H 483.274 1.04194 -4.03153 0
M  V30 5120 H 485.871 3.80921 -3.75238 0
M  V30 5121 H 486.214 3.62327 -2.05 0
M  V30 5122 H 486.747 2.36898 -3.19569 0
M  V30 5123 H 483.486 2.16692 -6.18647 0
M  V30 5124 H 483.006 3.36647 -4.96416 0
M  V30 5125 H 484.685 3.31487 -5.5563 0
M  V30 5126 N 484.817 1.37938 0.762283 0
M  V30 5127 C 485.747 1.37176 1.88958 0
M  V30 5128 C 486.728 0.238945 1.68413 0
M  V30 5129 O 487.913 0.440726 1.89133 0
M  V30 5130 C 485.043 1.18742 3.2637 0
M  V30 5131 C 483.997 2.29136 3.61498 0
M  V30 5132 C 483.323 1.95816 4.97554 0
M  V30 5133 C 484.623 3.71363 3.6727 0
M  V30 5134 H 486.317 2.31509 1.89853 0
M  V30 5135 H 483.863 1.11438 0.912005 0
M  V30 5136 H 485.816 1.16837 4.04879 0
M  V30 5137 H 484.54 0.208683 3.25933 0
M  V30 5138 H 483.199 2.30213 2.85303 0
M  V30 5139 H 482.847 0.964475 4.93667 0
M  V30 5140 H 482.547 2.69745 5.22026 0
M  V30 5141 H 484.071 1.95513 5.78452 0
M  V30 5142 H 485.485 3.72364 4.35911 0
M  V30 5143 H 483.882 4.44425 4.03245 0
M  V30 5144 H 484.952 4.04305 2.67704 0
M  V30 5145 N 486.295 -0.989507 1.22664 0
M  V30 5146 C 487.205 -2.11449 1.01619 0
M  V30 5147 C 488.221 -1.73962 -0.036545 0
M  V30 5148 O 489.397 -2.00788 0.156924 0
M  V30 5149 C 486.462 -3.41465 0.600204 0
M  V30 5150 C 485.523 -3.93033 1.72695 0
M  V30 5151 C 484.756 -5.16844 1.33071 0
M  V30 5152 O 484.979 -5.7001 0.210975 0
M  V30 5153 O 483.913 -5.6225 2.14845 0
M  V30 5154 H 487.739 -2.32088 1.9588 0
M  V30 5155 H 485.324 -1.09823 1.01289 0
M  V30 5156 H 487.206 -4.19695 0.37873 0
M  V30 5157 H 485.881 -3.22178 -0.313511 0
M  V30 5158 H 484.788 -3.15961 2.00298 0
M  V30 5159 H 486.121 -4.16758 2.61865 0
M  V30 5160 N 487.773 -1.03688 -1.18687 0
M  V30 5161 C 488.736 -0.629115 -2.20397 0
M  V30 5162 C 489.736 0.311495 -1.57754 0
M  V30 5163 O 490.926 0.0974107 -1.73927 0
M  V30 5164 C 488.058 0.0782231 -3.4081 0
M  V30 5165 H 489.251 -1.52915 -2.57987 0
M  V30 5166 H 486.804 -0.828988 -1.32505 0
M  V30 5167 H 487.539 0.992233 -3.08748 0
M  V30 5168 H 487.324 -0.597776 -3.87517 0
M  V30 5169 H 488.814 0.350156 -4.16129 0
M  V30 5170 N 489.251 1.34841 -0.815825 0
M  V30 5171 C 490.198 2.29644 -0.230664 0
M  V30 5172 C 491.168 1.53253 0.640533 0
M  V30 5173 O 492.353 1.81653 0.583672 0
M  V30 5174 C 489.493 3.39715 0.607275 0
M  V30 5175 C 488.606 4.31056 -0.28538 0
M  V30 5176 C 487.741 5.28225 0.561446 0
M  V30 5177 C 486.78 6.11204 -0.331035 0
M  V30 5178 N 485.917 7.00483 0.476302 0
M  V30 5179 H 490.757 2.79095 -1.0445 0
M  V30 5180 H 488.294 1.37351 -0.526595 0
M  V30 5181 H 490.252 4.02208 1.10835 0
M  V30 5182 H 488.882 2.91517 1.38629 0
M  V30 5183 H 487.934 3.69487 -0.904621 0
M  V30 5184 H 489.246 4.89239 -0.97193 0
M  V30 5185 H 488.4 5.96135 1.12728 0
M  V30 5186 H 487.139 4.70562 1.28153 0
M  V30 5187 H 486.144 5.42232 -0.909069 0
M  V30 5188 H 487.369 6.70947 -1.04912 0
M  V30 5189 H 485.315 6.45296 1.18019 0
M  V30 5190 H 485.232 7.55847 -0.152008 0
M  V30 5191 H 486.5 7.7273 1.02512 0
M  V30 5192 N 490.729 0.570148 1.46925 0
M  V30 5193 C 491.661 -0.207909 2.28255 0
M  V30 5194 C 492.674 -0.867301 1.37774 0
M  V30 5195 O 493.863 -0.738976 1.62485 0
M  V30 5196 C 490.963 -1.31298 3.12433 0
M  V30 5197 C 490.136 -0.747915 4.30958 0
M  V30 5198 C 489.195 -1.7391 4.9663 0
M  V30 5199 O 488.221 -1.2801 5.54619 0
M  V30 5200 N 489.423 -3.07288 4.92498 0
M  V30 5201 H 492.188 0.489794 2.95671 0
M  V30 5202 H 489.749 0.407076 1.56699 0
M  V30 5203 H 491.741 -1.97507 3.53232 0
M  V30 5204 H 490.311 -1.91373 2.47175 0
M  V30 5205 H 489.531 0.0913066 3.94094 0
M  V30 5206 H 490.819 -0.349958 5.07595 0
M  V30 5207 H 490.217 -3.47213 4.46609 0
M  V30 5208 H 488.774 -3.69021 5.37277 0
M  V30 5209 N 492.207 -1.54576 0.307264 0
M  V30 5210 C 493.154 -2.23751 -0.56604 0
M  V30 5211 C 494.124 -1.22235 -1.12462 0
M  V30 5212 O 495.309 -1.50873 -1.16799 0
M  V30 5213 C 492.449 -2.98661 -1.72903 0
M  V30 5214 C 491.562 -4.14963 -1.20124 0
M  V30 5215 C 490.697 -4.77441 -2.3286 0
M  V30 5216 C 489.736 -5.85875 -1.77247 0
M  V30 5217 N 488.873 -6.42282 -2.8358 0
M  V30 5218 H 493.713 -2.97984 0.0304578 0
M  V30 5219 H 491.25 -1.47076 0.0268015 0
M  V30 5220 H 493.208 -3.40329 -2.41313 0
M  V30 5221 H 491.838 -2.26793 -2.29706 0
M  V30 5222 H 490.89 -3.78193 -0.409198 0
M  V30 5223 H 492.202 -4.93066 -0.754171 0
M  V30 5224 H 491.356 -5.21993 -3.09205 0
M  V30 5225 H 490.095 -3.98684 -2.80896 0
M  V30 5226 H 489.1 -5.40741 -0.993926 0
M  V30 5227 H 490.325 -6.6652 -1.30107 0
M  V30 5228 H 488.271 -5.66406 -3.30939 0
M  V30 5229 H 488.188 -7.1575 -2.43388 0
M  V30 5230 H 489.456 -6.91492 -3.59804 0
M  V30 5231 N 493.685 -0.035106 -1.57561 0
M  V30 5232 C 494.933 0.64096 -1.91667 0
M  V30 5233 C 495.254 1.72323 -0.912681 0
M  V30 5234 O 494.524 1.95849 0.0449089 0
M  V30 5235 H 493.104 0.239743 -0.707483 0
M  V30 5236 H 495.766 -0.084321 -1.94718 0
M  V30 5237 H 494.862 1.08987 -2.92452 0
M  V30 5238 N 495.163 1.55791 0.238111 0
M  V30 5239 C 496.393 1.81834 0.980809 0
M  V30 5240 C 496.801 0.609741 1.79106 0
M  V30 5241 O 496.144 -0.431073 1.78571 0
M  V30 5242 C 496.206 3.01363 1.96011 0
M  V30 5243 C 495.87 4.37037 1.33597 0
M  V30 5244 C 496.867 5.14692 0.734063 0
M  V30 5245 C 494.552 4.83743 1.3527 0
M  V30 5246 C 496.546 6.37206 0.157208 0
M  V30 5247 C 494.233 6.06204 0.77199 0
M  V30 5248 C 495.231 6.82775 0.175282 0
M  V30 5249 O 494.919 8.02922 -0.396432 0
M  V30 5250 H 494.651 0.6088 0.293834 0
M  V30 5251 H 497.205 2.03702 0.263552 0
M  V30 5252 H 495.435 2.75273 2.71591 0
M  V30 5253 H 497.124 3.14422 2.56697 0
M  V30 5254 H 497.89 4.79722 0.713582 0
M  V30 5255 H 493.769 4.24129 1.80653 0
M  V30 5256 H 497.313 6.96915 -0.30917 0
M  V30 5257 H 493.21 6.4065 0.789828 0
M  V30 5258 H 493.978 8.17989 -0.289145 0
M  V30 5259 N 496.642 -0.504142 1.49319 0
M  V30 5260 C 497.888 -1.26033 1.58882 0
M  V30 5261 C 498.221 -1.92268 0.273274 0
M  V30 5262 O 497.496 -1.80567 -0.72291 0
M  V30 5263 C 497.779 -2.32976 2.7458 0
M  V30 5264 C 497.632 -1.71263 4.1592 0
M  V30 5265 C 498.951 -3.34561 2.85932 0
M  V30 5266 H 496.07 -0.456863 0.578312 0
M  V30 5267 H 498.712 -0.558965 1.81592 0
M  V30 5268 H 496.862 -2.92796 2.55348 0
M  V30 5269 H 498.534 -1.15294 4.4666 0
M  V30 5270 H 496.777 -1.01686 4.21714 0
M  V30 5271 H 497.448 -2.48816 4.92742 0
M  V30 5272 H 499.924 -2.84727 3.0343 0
M  V30 5273 H 498.8 -4.06754 3.68568 0
M  V30 5274 H 499.061 -3.96695 1.95154 0
M  V30 5275 N 498.12 -1.38341 -0.754957 0
M  V30 5276 C 499.531 -1.30803 -1.3322 0
M  V30 5277 C 499.882 0.0368 -1.96165 0
M  V30 5278 O 499.007 0.938844 -1.94974 0
M  V30 5279 C 499.602 -2.3688 -2.42225 0
M  V30 5280 C 498.161 -2.32925 -2.95674 0
M  V30 5281 C 497.308 -2.19819 -1.69042 0
M  V30 5282 H 500.259 -1.48719 -0.553937 0
M  V30 5283 H 500.28 -2.02517 -3.22129 0
M  V30 5284 H 499.792 -3.34747 -1.96383 0
M  V30 5285 H 497.893 -1.38635 -3.45848 0
M  V30 5286 H 498.006 -3.27008 -3.50146 0
M  V30 5287 H 496.37 -1.66648 -1.92615 0
M  V30 5288 H 497.153 -3.19625 -1.25279 0
M  V30 5289 N 499.598 0.982988 -1.23187 0
M  V30 5290 C 500.845 1.72392 -1.06241 0
M  V30 5291 C 501.173 1.9032 0.40108 0
M  V30 5292 O 500.428 1.45084 1.31336 0
M  V30 5293 C 500.727 3.12736 -1.73006 0
M  V30 5294 C 500.393 3.14695 -3.22921 0
M  V30 5295 C 499.055 3.14937 -3.63824 0
M  V30 5296 C 501.407 3.10211 -4.1883 0
M  V30 5297 C 498.735 3.08408 -4.99101 0
M  V30 5298 C 501.087 3.05224 -5.54095 0
M  V30 5299 C 499.751 3.03787 -5.94365 0
M  V30 5300 H 499.021 0.630829 -0.388762 0
M  V30 5301 H 501.668 1.15053 -1.53085 0
M  V30 5302 H 499.973 3.73446 -1.18514 0
M  V30 5303 H 501.67 3.68828 -1.57374 0
M  V30 5304 H 498.26 3.15262 -2.90358 0
M  V30 5305 H 502.444 3.09166 -3.8824 0
M  V30 5306 H 497.7 3.05646 -5.29519 0
M  V30 5307 H 501.874 3.00712 -6.28128 0
M  V30 5308 H 499.501 2.98483 -6.99151 0
M  V30 5309 N 501.076 1.04316 1.18135 0
M  V30 5310 C 502.306 0.767003 1.91835 0
M  V30 5311 C 502.714 -0.68002 1.76557 0
M  V30 5312 O 502.057 -1.47548 1.09432 0
M  V30 5313 C 502.119 1.05674 3.43618 0
M  V30 5314 C 501.783 2.49818 3.82675 0
M  V30 5315 C 502.78 3.48003 3.86251 0
M  V30 5316 C 500.465 2.84596 4.13897 0
M  V30 5317 C 502.459 4.79016 4.20503 0
M  V30 5318 C 500.146 4.15813 4.4782 0
M  V30 5319 C 501.144 5.12834 4.51099 0
M  V30 5320 O 500.832 6.41699 4.84229 0
M  V30 5321 H 500.564 0.278948 0.615763 0
M  V30 5322 H 503.118 1.3946 1.50798 0
M  V30 5323 H 501.348 0.372029 3.84906 0
M  V30 5324 H 503.037 0.767994 3.98568 0
M  V30 5325 H 503.803 3.22475 3.62264 0
M  V30 5326 H 499.682 2.09748 4.1052 0
M  V30 5327 H 503.226 5.54739 4.22978 0
M  V30 5328 H 499.123 4.41109 4.71268 0
M  V30 5329 H 499.891 6.46387 5.02121 0
M  V30 5330 N 502.554 -1.34406 0.822964 0
M  V30 5331 C 503.8 -1.98578 0.411666 0
M  V30 5332 C 504.133 -1.65093 -1.02264 0
M  V30 5333 O 503.408 -0.92258 -1.71227 0
M  V30 5334 C 503.691 -3.54823 0.614235 0
M  V30 5335 C 503.544 -3.9805 2.09466 0
M  V30 5336 C 504.863 -4.40071 0.050221 0
M  V30 5337 H 501.982 -0.721355 0.151047 0
M  V30 5338 H 504.624 -1.59301 1.03554 0
M  V30 5339 H 502.774 -3.88411 0.0831774 0
M  V30 5340 H 504.446 -3.74795 2.68936 0
M  V30 5341 H 502.689 -3.4836 2.5851 0
M  V30 5342 H 503.36 -5.06819 2.18721 0
M  V30 5343 H 505.836 -4.13037 0.503953 0
M  V30 5344 H 504.712 -5.48452 0.221759 0
M  V30 5345 H 504.973 -4.29576 -1.04482 0
M  V30 5346 N 504.032 -0.577932 -1.46621 0
M  V30 5347 C 504.98 0.170882 -2.31971 0
M  V30 5348 C 505.974 0.889086 -1.44193 0
M  V30 5349 O 507.18 0.808017 -1.60845 0
M  V30 5350 H 503.555 0.0739763 -0.748353 0
M  V30 5351 H 505.526 -0.567856 -2.92947 0
M  V30 5352 C 504.275 1.17438 -3.27267 0
M  V30 5353 H 503.598 0.63116 -3.94787 0
M  V30 5354 H 505.038 1.66882 -3.89778 0
M  V30 5355 C 503.497 2.23292 -2.52274 0
M  V30 5356 O 504.027 3.30567 -2.28229 0
M  V30 5357 N 502.233 1.97772 -2.12919 0
M  V30 5358 H 501.78 1.10545 -2.32675 0
M  V30 5359 H 501.738 2.68809 -1.63062 0
M  V30 5360 N 505.51 1.54411 -0.315457 0
M  V30 5361 C 506.473 2.22713 0.54142 0
M  V30 5362 C 507.473 1.2179 1.04995 0
M  V30 5363 O 508.663 1.46426 0.943667 0
M  V30 5364 C 505.795 2.92485 1.75116 0
M  V30 5365 H 506.988 2.99849 -0.0555508 0
M  V30 5366 H 504.541 1.56159 -0.0664453 0
M  V30 5367 H 505.276 2.19466 2.38758 0
M  V30 5368 H 505.061 3.66483 1.39401 0
M  V30 5369 H 506.551 3.44548 2.35959 0
M  V30 5370 N 506.988 0.0434614 1.5754 0
M  V30 5371 C 508.216 -0.641835 1.96693 0
M  V30 5372 C 508.631 -1.64832 0.920652 0
M  V30 5373 O 507.988 -1.82247 -0.095993 0
M  V30 5374 C 508.039 -1.33557 3.35924 0
M  V30 5375 O 507.76 -0.369403 4.3654 0
M  V30 5376 C 509.261 -2.11135 3.89791 0
M  V30 5377 H 506.481 -0.176013 0.647503 0
M  V30 5378 H 509.025 0.107478 2.04217 0
M  V30 5379 H 507.18 -2.03617 3.29574 0
M  V30 5380 H 507.594 -0.863674 5.1734 0
M  V30 5381 H 509.068 -2.55107 4.89514 0
M  V30 5382 H 509.545 -2.95634 3.24803 0
M  V30 5383 H 510.151 -1.46002 3.99454 0
M  V30 5384 N 508.466 -1.55915 -0.229846 0
M  V30 5385 C 509.429 -1.90914 -1.26824 0
M  V30 5386 C 510.429 -0.786999 -1.40225 0
M  V30 5387 O 511.619 -1.05484 -1.38632 0
M  V30 5388 C 508.751 -2.15264 -2.64337 0
M  V30 5389 H 509.944 -2.8378 -0.969998 0
M  V30 5390 H 507.497 -1.49069 -0.4699 0
M  V30 5391 H 508.232 -1.24923 -2.99274 0
M  V30 5392 H 508.017 -2.97005 -2.55989 0
M  V30 5393 H 509.507 -2.43467 -3.39284 0
M  V30 5394 N 509.944 0.496216 -1.49584 0
M  V30 5395 C 511.192 1.24756 -1.58998 0
M  V30 5396 C 511.513 1.92968 -0.280775 0
M  V30 5397 O 510.783 1.82959 0.700198 0
M  V30 5398 H 509.363 0.463471 -0.585836 0
M  V30 5399 H 512.025 0.574678 -1.86235 0
M  V30 5400 H 511.121 2.00895 -2.38847 0
M  V30 5401 N 511.423 1.38739 0.74761 0
M  V30 5402 C 512.651 1.38521 1.53686 0
M  V30 5403 C 513.066 -0.0235129 1.88785 0
M  V30 5404 O 512.423 -0.991662 1.53207 0
M  V30 5405 C 512.474 2.24641 2.83229 0
M  V30 5406 O 512.195 3.60026 2.49625 0
M  V30 5407 C 513.696 2.32669 3.77333 0
M  V30 5408 H 510.916 0.473589 0.475347 0
M  V30 5409 H 513.46 1.82395 0.924786 0
M  V30 5410 H 511.615 1.84213 3.40799 0
M  V30 5411 H 512.029 4.05435 3.3275 0
M  V30 5412 H 513.503 2.97201 4.65162 0
M  V30 5413 H 513.98 1.3421 4.18192 0
M  V30 5414 H 514.586 2.73512 3.25685 0
M  V30 5415 N 512.901 -0.976442 1.23707 0
M  V30 5416 C 514.129 -1.75341 1.09833 0
M  V30 5417 C 514.544 -1.8553 -0.349885 0
M  V30 5418 O 513.901 -1.33732 -1.24185 0
M  V30 5419 C 513.952 -3.17833 1.72233 0
M  V30 5420 O 513.673 -3.08167 3.11391 0
M  V30 5421 C 515.174 -4.11906 1.63853 0
M  V30 5422 H 512.394 -0.550137 0.384175 0
M  V30 5423 H 514.938 -1.2265 1.63638 0
M  V30 5424 H 513.093 -3.67538 1.22452 0
M  V30 5425 H 513.507 -3.97897 3.41729 0
M  V30 5426 H 514.981 -5.09579 2.12211 0
M  V30 5427 H 515.458 -4.35109 0.598092 0
M  V30 5428 H 516.064 -3.68107 2.13019 0
M  V30 5429 N 514.379 -1.04941 -1.1758 0
M  V30 5430 C 515.625 -0.759112 -1.88057 0
M  V30 5431 C 515.958 0.711918 -1.8068 0
M  V30 5432 O 515.233 1.52035 -1.21308 0
M  V30 5433 C 515.516 -1.237 -3.38187 0
M  V30 5434 C 515.369 -2.77078 -3.54327 0
M  V30 5435 C 516.688 -0.834014 -4.32125 0
M  V30 5436 H 513.807 -0.277237 -0.682868 0
M  V30 5437 H 516.449 -1.30296 -1.38286 0
M  V30 5438 H 514.599 -0.774337 -3.80705 0
M  V30 5439 H 516.271 -3.31449 -3.20842 0
M  V30 5440 H 514.514 -3.16477 -2.96689 0
M  V30 5441 H 515.185 -3.05577 -4.59703 0
M  V30 5442 H 517.661 -1.23228 -3.97434 0
M  V30 5443 H 516.537 -1.19603 -5.35711 0
M  V30 5444 H 516.798 0.262195 -4.41322 0
M  V30 5445 N 515.857 1.33968 -0.830081 0
M  V30 5446 C 517.087 2.01987 -0.434142 0
M  V30 5447 C 517.495 1.62639 0.96671 0
M  V30 5448 O 516.838 0.831151 1.63822 0
M  V30 5449 C 516.9 3.5648 -0.465018 0
M  V30 5450 C 516.564 4.19176 -1.82045 0
M  V30 5451 C 517.561 4.39181 -2.78237 0
M  V30 5452 C 515.246 4.55792 -2.11089 0
M  V30 5453 C 517.24 4.94937 -4.01642 0
M  V30 5454 C 514.927 5.11258 -3.34752 0
M  V30 5455 C 515.925 5.30775 -4.29845 0
M  V30 5456 O 515.613 5.85064 -5.51322 0
M  V30 5457 H 515.345 0.653847 -0.171639 0
M  V30 5458 H 517.899 1.72066 -1.12171 0
M  V30 5459 H 516.129 3.8569 0.279284 0
M  V30 5460 H 517.818 4.05804 -0.0881334 0
M  V30 5461 H 518.584 4.11249 -2.57097 0
M  V30 5462 H 514.463 4.39901 -1.3787 0
M  V30 5463 H 518.007 5.10086 -4.75876 0
M  V30 5464 H 513.904 5.38619 -3.55753 0
M  V30 5465 H 514.672 6.03489 -5.5294 0
M  V30 5466 N 517.335 0.585699 1.46312 0
M  V30 5467 C 518.583 0.072278 2.01971 0
M  V30 5468 C 518.904 -1.29345 1.45928 0
M  V30 5469 O 518.174 -1.84973 0.645109 0
M  V30 5470 H 516.754 0.023729 0.746623 0
M  V30 5471 H 519.416 0.762155 1.7938 0
M  V30 5472 H 518.512 0.00552767 3.121 0
M  V30 5473 N 518.813 -1.54241 0.323641 0
M  V30 5474 C 519.776 -2.22997 -0.529602 0
M  V30 5475 C 520.776 -1.22345 -1.04347 0
M  V30 5476 O 521.966 -1.46924 -0.935889 0
M  V30 5477 C 519.098 -2.93409 -1.73562 0
M  V30 5478 H 520.291 -2.99815 0.0714518 0
M  V30 5479 H 517.844 -1.56121 0.0747258 0
M  V30 5480 H 518.579 -2.20729 -2.37591 0
M  V30 5481 H 518.364 -3.67217 -1.37456 0
M  V30 5482 H 519.854 -3.45794 -2.34128 0
M  V30 5483 N 520.291 -0.0518155 -1.57515 0
M  V30 5484 C 521.538 0.621823 -1.92716 0
M  V30 5485 C 521.866 1.70813 -0.930229 0
M  V30 5486 O 521.121 1.95616 0.0573708 0
M  V30 5487 C 521.42 1.25607 -3.34601 0
M  V30 5488 C 521.086 0.297901 -4.49915 0
M  V30 5489 C 519.748 0.034243 -4.81188 0
M  V30 5490 C 522.1 -0.358738 -5.19964 0
M  V30 5491 C 519.428 -0.893479 -5.79857 0
M  V30 5492 C 521.78 -1.27466 -6.19625 0
M  V30 5493 C 520.444 -1.54698 -6.49326 0
M  V30 5494 H 519.714 0.227541 -0.705199 0
M  V30 5495 H 522.361 -0.118432 -1.91133 0
M  V30 5496 H 520.666 2.07161 -3.32553 0
M  V30 5497 H 522.363 1.78424 -3.59118 0
M  V30 5498 H 518.953 0.513581 -4.25512 0
M  V30 5499 H 523.137 -0.168133 -4.96015 0
M  V30 5500 H 518.393 -1.11193 -6.01204 0
M  V30 5501 H 522.567 -1.78953 -6.73015 0
M  V30 5502 H 520.194 -2.26748 -7.25596 0
M  V30 5503 N 521.769 1.56035 0.221574 0
M  V30 5504 C 523.046 1.69837 0.970301 0
M  V30 5505 C 523.426 0.599065 2.02421 0
M  V30 5506 O 522.774 -0.393929 2.25079 0
M  V30 5507 C 522.984 3.11148 1.58076 0
M  V30 5508 C 524.332 3.70555 2.07302 0
M  V30 5509 O 525.356 3.14109 1.6797 0
M  V30 5510 O 524.215 4.69562 2.79596 0
M  V30 5511 H 521.309 0.691727 0.453257 0
M  V30 5512 H 523.855 1.68353 0.213358 0
M  V30 5513 H 522.627 3.82617 0.819759 0
M  V30 5514 H 522.25 3.16749 2.40324 0
M  V30 5515 N 523.247 -0.488276 1.49845 0
M  V30 5516 C 524.658 -1.06955 1.53028 0
M  V30 5517 C 525.009 -1.9351 0.323797 0
M  V30 5518 O 524.134 -2.08891 -0.565116 0
M  V30 5519 C 524.729 -1.94643 2.77307 0
M  V30 5520 C 523.288 -2.4791 2.83227 0
M  V30 5521 C 522.435 -1.25833 2.47106 0
M  V30 5522 H 525.386 -0.271626 1.56358 0
M  V30 5523 H 525.407 -2.79496 2.5819 0
M  V30 5524 H 524.919 -1.31621 3.65099 0
M  V30 5525 H 523.02 -3.14535 1.99745 0
M  V30 5526 H 523.133 -2.84193 3.85709 0
M  V30 5527 H 521.497 -1.58764 1.99163 0
M  V30 5528 H 522.28 -0.644993 3.37186 0
M  V30 5529 N 524.725 -1.39134 -0.740242 0
M  V30 5530 C 525.974 -1.35384 -1.49512 0
M  V30 5531 C 526.287 0.04919 -1.95538 0
M  V30 5532 O 527.493 0.209257 -2.70692 0
M  V30 5533 C 525.949 -2.37812 -2.70136 0
M  V30 5534 C 525.557 -3.83804 -2.31081 0
M  V30 5535 C 527.301 -2.4313 -3.47977 0
M  V30 5536 C 525.208 -4.77886 -3.48395 0
M  V30 5537 H 524.138 -0.503297 -0.561434 0
M  V30 5538 H 526.789 -1.64754 -0.807974 0
M  V30 5539 H 525.171 -2.01505 -3.40899 0
M  V30 5540 H 526.345 -4.29123 -1.67898 0
M  V30 5541 H 524.66 -3.81732 -1.66343 0
M  V30 5542 H 527.257 -3.10614 -4.35228 0
M  V30 5543 H 527.6 -1.45423 -3.90074 0
M  V30 5544 H 528.133 -2.78304 -2.84239 0
M  V30 5545 H 524.872 -5.76836 -3.11353 0
M  V30 5546 H 524.392 -4.3725 -4.10576 0
M  V30 5547 H 526.071 -4.96538 -4.148 0
M  V30 5548 N 526.204 0.969867 -1.24223 0
M  V30 5549 C 527.136 2.0669 -0.99055 0
M  V30 5550 C 528.149 1.62753 0.0392222 0
M  V30 5551 O 529.338 1.77403 -0.197561 0
M  V30 5552 C 526.438 3.35589 -0.472594 0
M  V30 5553 C 525.611 4.08444 -1.56499 0
M  V30 5554 C 524.67 5.15616 -1.05007 0
M  V30 5555 O 523.696 5.41911 -1.7413 0
M  V30 5556 N 524.898 5.80383 0.116641 0
M  V30 5557 H 527.663 2.28855 -1.93508 0
M  V30 5558 H 525.224 1.13733 -1.15223 0
M  V30 5559 H 527.216 4.04542 -0.112919 0
M  V30 5560 H 525.786 3.10311 0.377617 0
M  V30 5561 H 525.006 3.33798 -2.09696 0
M  V30 5562 H 526.294 4.53882 -2.29932 0
M  V30 5563 H 525.692 5.6142 0.694589 0
M  V30 5564 H 524.249 6.50462 0.417483 0
M  V30 5565 N 527.682 1.05563 1.17022 0
M  V30 5566 C 528.592 0.670758 2.24807 0
M  V30 5567 C 529.608 -0.309865 1.71219 0
M  V30 5568 O 530.784 -0.161025 2.00755 0
M  V30 5569 C 527.849 0.055337 3.46656 0
M  V30 5570 C 526.91 1.08688 4.15314 0
M  V30 5571 C 526.143 0.500736 5.31346 0
M  V30 5572 O 526.366 -0.688718 5.66227 0
M  V30 5573 O 525.3 1.23683 5.89055 0
M  V30 5574 H 529.126 1.56914 2.60023 0
M  V30 5575 H 526.711 0.827428 1.24395 0
M  V30 5576 H 528.593 -0.286492 4.20425 0
M  V30 5577 H 527.268 -0.816638 3.13229 0
M  V30 5578 H 526.175 1.48077 3.43546 0
M  V30 5579 H 527.508 1.93014 4.52777 0
M  V30 5580 N 529.16 -1.33526 0.837174 0
M  V30 5581 C 530.409 -1.97098 0.428387 0
M  V30 5582 C 530.722 -1.67062 -1.01734 0
M  V30 5583 O 531.928 -2.24235 -1.53072 0
M  V30 5584 C 530.384 -3.52725 0.715075 0
M  V30 5585 C 529.992 -3.9164 2.17537 0
M  V30 5586 C 531.736 -4.22857 0.373154 0
M  V30 5587 C 529.643 -5.40237 2.40619 0
M  V30 5588 H 528.573 -0.737589 0.156455 0
M  V30 5589 H 531.224 -1.52169 1.02552 0
M  V30 5590 H 529.606 -3.95971 0.0475904 0
M  V30 5591 H 530.78 -3.59456 2.88319 0
M  V30 5592 H 529.095 -3.34485 2.4801 0
M  V30 5593 H 531.692 -5.32133 0.523264 0
M  V30 5594 H 532.035 -4.10647 -0.683708 0
M  V30 5595 H 532.568 -3.85135 0.995801 0
M  V30 5596 H 529.307 -5.57449 3.44864 0
M  V30 5597 H 528.827 -5.73887 1.74396 0
M  V30 5598 H 530.506 -6.07102 2.23688 0
M  V30 5599 N 530.638 -0.59345 -1.46 0
M  V30 5600 C 531.601 0.123538 -2.28867 0
M  V30 5601 C 532.601 0.808628 -1.38989 0
M  V30 5602 O 533.791 0.658945 -1.61256 0
M  V30 5603 C 530.923 1.1847 -3.19653 0
M  V30 5604 H 532.116 -0.604843 -2.93737 0
M  V30 5605 H 529.669 -0.351875 -1.52288 0
M  V30 5606 H 530.404 1.94431 -2.59552 0
M  V30 5607 H 530.189 0.69783 -3.8584 0
M  V30 5608 H 531.679 1.68726 -3.81997 0
M  V30 5609 N 532.116 1.54067 -0.331816 0
M  V30 5610 C 533.393 1.92915 0.322955 0
M  V30 5611 C 533.773 1.26225 1.69205 0
M  V30 5612 O 533.121 0.408919 2.24811 0
M  V30 5613 C 533.331 3.46619 0.406946 0
M  V30 5614 C 534.679 4.19386 0.663339 0
M  V30 5615 O 535.703 3.5282 0.489536 0
M  V30 5616 O 534.562 5.37288 0.999193 0
M  V30 5617 H 531.656 0.805808 0.186016 0
M  V30 5618 H 534.202 1.65342 -0.382135 0
M  V30 5619 H 532.974 3.87354 -0.554287 0
M  V30 5620 H 532.597 3.80324 1.15929 0
M  V30 5621 N 533.594 0.0601682 1.57485 0
M  V30 5622 C 534.843 -0.611101 1.9222 0
M  V30 5623 C 535.156 -1.71469 0.941159 0
M  V30 5624 O 536.362 -2.44473 1.18089 0
M  V30 5625 C 534.818 -1.13832 3.41424 0
M  V30 5626 C 534.426 -0.0663596 4.47951 0
M  V30 5627 C 536.17 -1.78432 3.85178 0
M  V30 5628 C 534.077 -0.606965 5.88277 0
M  V30 5629 H 533.007 -0.232033 0.71741 0
M  V30 5630 H 535.658 0.130518 1.83035 0
M  V30 5631 H 534.04 -1.93254 3.45643 0
M  V30 5632 H 535.214 0.707682 4.55333 0
M  V30 5633 H 533.529 0.482715 4.13593 0
M  V30 5634 H 536.126 -2.1989 4.87394 0
M  V30 5635 H 536.469 -2.63966 3.21913 0
M  V30 5636 H 537.002 -1.05651 3.83514 0
M  V30 5637 H 533.741 0.21095 6.5516 0
M  V30 5638 H 533.261 -1.34879 5.84438 0
M  V30 5639 H 534.94 -1.08704 6.37803 0
M  V30 5640 N 535.072 -1.5615 -0.213296 0
M  V30 5641 C 536.312 -1.81325 -0.943435 0
M  V30 5642 C 536.676 -0.634934 -1.81198 0
M  V30 5643 O 537.877 -0.766166 -2.5765 0
M  V30 5644 C 536.148 -3.11437 -1.75334 0
M  V30 5645 S 537.707 -3.57955 -2.53799 0
M  V30 5646 H 534.525 -0.636538 -0.316766 0
M  V30 5647 H 537.127 -1.94387 -0.208313 0
M  V30 5648 H 535.831 -3.95228 -1.10556 0
M  V30 5649 H 535.362 -3.01204 -2.53061 0
M  V30 5650 H 537.377 -3.21947 -3.77577 0
M  V30 5651 N 536.55 0.480323 -1.50102 0
M  V30 5652 C 537.46 1.60547 -1.71061 0
M  V30 5653 C 538.476 1.63564 -0.593529 0
M  V30 5654 O 539.652 1.81604 -0.870751 0
M  V30 5655 C 536.717 2.96814 -1.79171 0
M  V30 5656 C 535.778 3.04259 -3.02861 0
M  V30 5657 C 535.011 4.34027 -3.10574 0
M  V30 5658 O 535.234 5.24009 -2.25323 0
M  V30 5659 O 534.168 4.46873 -4.03223 0
M  V30 5660 H 537.994 1.45788 -2.6642 0
M  V30 5661 H 535.579 0.658838 -1.34088 0
M  V30 5662 H 537.461 3.77765 -1.86738 0
M  V30 5663 H 536.136 3.11791 -0.869947 0
M  V30 5664 H 535.043 2.22419 -3.008 0
M  V30 5665 H 536.376 2.94216 -3.94586 0
M  V30 5666 N 538.028 1.39524 0.732853 0
M  V30 5667 C 538.975 1.38416 1.84688 0
M  V30 5668 C 539.945 0.243539 1.64305 0
M  V30 5669 O 541.13 0.438979 1.85681 0
M  V30 5670 C 538.27 1.23555 3.22224 0
M  V30 5671 C 537.383 2.47179 3.54298 0
M  V30 5672 C 536.518 2.2489 4.81246 0
M  V30 5673 C 535.557 3.44178 5.0617 0
M  V30 5674 N 534.694 3.21192 6.24323 0
M  V30 5675 H 539.534 2.33645 1.84971 0
M  V30 5676 H 537.071 1.16059 0.903804 0
M  V30 5677 H 539.029 1.12949 4.0162 0
M  V30 5678 H 537.659 0.31954 3.21215 0
M  V30 5679 H 536.711 2.68379 2.69587 0
M  V30 5680 H 538.023 3.36022 3.68633 0
M  V30 5681 H 537.177 2.11538 5.68627 0
M  V30 5682 H 535.916 1.33443 4.69089 0
M  V30 5683 H 534.921 3.58025 4.17251 0
M  V30 5684 H 536.146 4.36528 5.20212 0
M  V30 5685 H 534.092 2.32413 6.1345 0
M  V30 5686 H 534.009 4.03594 6.39256 0
M  V30 5687 H 535.277 3.1154 7.14537 0
M  V30 5688 N 539.506 -0.963266 1.24736 0
M  V30 5689 C 540.736 -1.73913 1.11524 0
M  V30 5690 C 541.144 -1.86218 -0.334612 0
M  V30 5691 O 540.487 -1.3531 -1.24245 0
M  V30 5692 C 540.549 -3.17501 1.68622 0
M  V30 5693 C 540.213 -3.28655 3.17546 0
M  V30 5694 C 541.21 -3.13637 4.14642 0
M  V30 5695 C 538.895 -3.52753 3.5759 0
M  V30 5696 C 540.889 -3.2255 5.49764 0
M  V30 5697 C 538.576 -3.61303 4.92852 0
M  V30 5698 C 539.574 -3.46214 5.88748 0
M  V30 5699 O 539.262 -3.5443 7.2155 0
M  V30 5700 H 538.994 -0.552057 0.390139 0
M  V30 5701 H 541.548 -1.2177 1.65412 0
M  V30 5702 H 539.778 -3.70969 1.09172 0
M  V30 5703 H 541.467 -3.76914 1.50635 0
M  V30 5704 H 542.233 -2.94899 3.85045 0
M  V30 5705 H 538.112 -3.63561 2.83451 0
M  V30 5706 H 541.656 -3.1069 6.24594 0
M  V30 5707 H 537.553 -3.79556 5.22118 0
M  V30 5708 H 538.321 -3.71116 7.29531 0
M  V30 5709 N 540.985 -1.06182 -1.16461 0
M  V30 5710 C 541.933 -0.665716 -2.2287 0
M  V30 5711 C 542.927 0.317822 -1.66392 0
M  V30 5712 O 544.133 0.182807 -1.79069 0
M  V30 5713 H 540.508 -0.197148 -0.725697 0
M  V30 5714 H 542.479 -1.57307 -2.53569 0
M  V30 5715 C 541.228 -0.0669803 -3.47635 0
M  V30 5716 H 540.551 -0.814899 -3.91407 0
M  V30 5717 H 541.991 0.172669 -4.23648 0
M  V30 5718 C 540.45 1.18913 -3.15216 0
M  V30 5719 O 540.98 2.27723 -3.30916 0
M  V30 5720 N 539.186 1.09066 -2.69357 0
M  V30 5721 H 538.733 0.20518 -2.56782 0
M  V30 5722 H 538.691 1.93195 -2.48039 0
M  V30 5723 N 542.463 1.3308 -0.844243 0
M  V30 5724 C 543.393 2.3161 -0.296493 0
M  V30 5725 C 544.374 1.59215 0.598707 0
M  V30 5726 O 545.559 1.87077 0.521134 0
M  V30 5727 C 542.689 3.43313 0.524762 0
M  V30 5728 C 541.643 4.27115 -0.275106 0
M  V30 5729 C 540.969 5.30483 0.670236 0
M  V30 5730 C 542.269 5.00443 -1.49514 0
M  V30 5731 H 543.963 2.77672 -1.11976 0
M  V30 5732 H 541.509 1.33496 -0.539899 0
M  V30 5733 H 543.462 4.11273 0.918298 0
M  V30 5734 H 542.186 2.95952 1.3813 0
M  V30 5735 H 540.845 3.60787 -0.650267 0
M  V30 5736 H 540.493 4.79379 1.52332 0
M  V30 5737 H 540.193 5.87435 0.139123 0
M  V30 5738 H 541.717 6.01308 1.06117 0
M  V30 5739 H 543.131 5.61141 -1.17447 0
M  V30 5740 H 541.528 5.67071 -1.96343 0
M  V30 5741 H 542.598 4.28906 -2.26202 0
M  V30 5742 N 543.941 0.601185 1.45683 0
M  V30 5743 C 545.187 0.102425 2.03142 0
M  V30 5744 C 545.542 -1.25066 1.46207 0
M  V30 5745 O 544.835 -1.81126 0.624806 0
M  V30 5746 C 545.029 -0.00222425 3.574 0
M  V30 5747 C 544.858 1.33917 4.29298 0
M  V30 5748 C 543.628 1.91818 4.67476 0
M  V30 5749 C 545.826 2.26652 4.61664 0
M  V30 5750 N 543.808 3.19504 5.24204 0
M  V30 5751 C 545.179 3.38933 5.19157 0
M  V30 5752 C 547.234 2.26103 4.43601 0
M  V30 5753 C 545.937 4.50823 5.60492 0
M  V30 5754 C 547.963 3.37036 4.85964 0
M  V30 5755 C 547.325 4.48039 5.43545 0
M  V30 5756 H 543.424 0.0806974 0.777825 0
M  V30 5757 H 546.008 0.798134 1.77589 0
M  V30 5758 H 544.179 -0.66714 3.82627 0
M  V30 5759 H 545.911 -0.507058 4.01511 0
M  V30 5760 H 542.666 1.45097 4.50826 0
M  V30 5761 H 543.09 3.84705 5.57073 0
M  V30 5762 H 547.732 1.41547 3.98402 0
M  V30 5763 H 545.45 5.36108 6.0466 0
M  V30 5764 H 549.036 3.37752 4.73725 0
M  V30 5765 H 547.916 5.32459 5.75723 0
M  V30 5766 N 545.419 -1.53889 0.339982 0
M  V30 5767 C 546.349 -2.27843 -0.510856 0
M  V30 5768 C 547.33 -1.29267 -1.10563 0
M  V30 5769 O 548.515 -1.58104 -1.12768 0
M  V30 5770 C 545.645 -3.04857 -1.66372 0
M  V30 5771 C 544.599 -4.10907 -1.19746 0
M  V30 5772 C 543.925 -4.75855 -2.43857 0
M  V30 5773 C 545.225 -5.21435 -0.300501 0
M  V30 5774 H 546.919 -2.99212 0.106067 0
M  V30 5775 H 544.465 -1.43904 0.0524533 0
M  V30 5776 H 546.418 -3.5533 -2.26537 0
M  V30 5777 H 545.142 -2.31133 -2.30749 0
M  V30 5778 H 543.801 -3.61342 -0.618654 0
M  V30 5779 H 543.449 -3.9873 -3.06633 0
M  V30 5780 H 543.149 -5.47502 -2.13343 0
M  V30 5781 H 544.673 -5.2911 -3.04754 0
M  V30 5782 H 546.087 -5.67565 -0.80889 0
M  V30 5783 H 544.484 -6.00036 -0.0874076 0
M  V30 5784 H 545.554 -4.80328 0.664321 0
M  V30 5785 N 546.897 -0.0685191 -1.57451 0
M  V30 5786 C 547.847 0.909895 -2.09057 0
M  V30 5787 C 548.831 1.26088 -0.999528 0
M  V30 5788 O 550.023 1.24041 -1.26265 0
M  V30 5789 C 547.152 2.17863 -2.65312 0
M  V30 5790 C 546.238 1.85427 -3.81415 0
M  V30 5791 N 546.629 1.23426 -4.9051 0
M  V30 5792 C 544.927 2.15196 -3.90649 0
M  V30 5793 C 545.628 1.09008 -5.71395 0
M  V30 5794 N 544.604 1.59871 -5.1956 0
M  V30 5795 H 548.406 0.426145 -2.90794 0
M  V30 5796 H 545.92 0.135462 -1.61834 0
M  V30 5797 H 547.917 2.88872 -3.00597 0
M  V30 5798 H 546.577 2.66829 -1.85021 0
M  V30 5799 H 547.588 0.904305 -5.09944 0
M  V30 5800 H 544.265 2.66562 -3.21327 0
M  V30 5801 H 545.655 0.607305 -6.6915 0
M  V30 5802 N 548.375 1.56261 0.205012 0
M  V30 5803 C 549.621 1.80306 0.9283 0
M  V30 5804 C 549.954 0.640932 1.83319 0
M  V30 5805 O 549.229 -0.359032 1.91158 0
M  V30 5806 C 549.512 3.14547 1.75306 0
M  V30 5807 C 549.365 4.41236 0.873562 0
M  V30 5808 C 550.684 3.45382 2.72762 0
M  V30 5809 H 547.803 0.655929 0.336044 0
M  V30 5810 H 550.445 1.88984 0.196211 0
M  V30 5811 H 548.595 3.0728 2.37721 0
M  V30 5812 H 550.267 4.60539 0.264887 0
M  V30 5813 H 548.51 4.33427 0.179773 0
M  V30 5814 H 549.181 5.31639 1.48541 0
M  V30 5815 H 551.657 3.52884 2.20481 0
M  V30 5816 H 550.533 4.40449 3.2756 0
M  V30 5817 H 550.794 2.68377 3.51321 0
M  V30 5818 N 549.853 -0.472356 1.50355 0
M  V30 5819 C 551.13 -1.23356 1.51798 0
M  V30 5820 C 551.51 -2.09469 0.26193 0
M  V30 5821 O 550.858 -2.15677 -0.754691 0
M  V30 5822 C 551.068 -2.06568 2.81302 0
M  V30 5823 C 552.416 -2.648 3.31913 0
M  V30 5824 O 553.44 -2.16812 2.82614 0
M  V30 5825 O 552.299 -3.52231 4.17846 0
M  V30 5826 H 549.393 -0.559707 0.608816 0
M  V30 5827 H 551.939 -0.48428 1.62643 0
M  V30 5828 H 550.711 -1.43103 3.64194 0
M  V30 5829 H 550.334 -2.88633 2.73454 0
M  V30 5830 N 551.331 -1.39911 -0.725443 0
M  V30 5831 C 552.294 -1.39156 -1.82121 0
M  V30 5832 C 553.294 -0.287018 -1.58218 0
M  V30 5833 O 554.484 -0.545421 -1.65441 0
M  V30 5834 C 551.616 -1.1736 -3.20062 0
M  V30 5835 H 552.809 -2.36672 -1.84191 0
M  V30 5836 H 550.362 -1.25615 -0.930079 0
M  V30 5837 H 551.097 -0.205648 -3.23647 0
M  V30 5838 H 550.882 -1.97358 -3.3881 0
M  V30 5839 H 552.372 -1.19596 -4.00108 0
M  V30 5840 N 552.809 0.956637 -1.25245 0
M  V30 5841 C 553.772 2.03457 -1.05537 0
M  V30 5842 C 554.772 1.60798 -0.00886317 0
M  V30 5843 O 555.962 1.72384 -0.250865 0
M  V30 5844 C 553.094 3.35543 -0.601965 0
M  V30 5845 H 554.287 2.22372 -2.01223 0
M  V30 5846 H 551.84 1.13344 -1.07623 0
M  V30 5847 H 552.575 3.22323 0.357584 0
M  V30 5848 H 552.36 3.67854 -1.35743 0
M  V30 5849 H 553.85 4.14769 -0.485454 0
M  V30 5850 N 554.287 1.06798 1.15896 0
M  V30 5851 C 555.533 0.798757 1.8706 0
M  V30 5852 C 555.888 -0.667739 1.80441 0
M  V30 5853 O 555.181 -1.48334 1.21274 0
M  V30 5854 C 555.375 1.23414 3.35416 0
M  V30 5855 C 555.204 2.74142 3.56478 0
M  V30 5856 C 553.974 3.41675 3.72272 0
M  V30 5857 C 556.172 3.72348 3.5477 0
M  V30 5858 N 554.154 4.81101 3.81333 0
M  V30 5859 C 555.525 4.97585 3.69877 0
M  V30 5860 C 557.58 3.65585 3.38011 0
M  V30 5861 C 556.283 6.16866 3.69959 0
M  V30 5862 C 558.309 4.84323 3.39389 0
M  V30 5863 C 557.671 6.08391 3.5502 0
M  V30 5864 H 553.77 0.344761 0.7019 0
M  V30 5865 H 556.354 1.36314 1.3902 0
M  V30 5866 H 554.525 0.697522 3.82085 0
M  V30 5867 H 556.257 0.91304 3.94266 0
M  V30 5868 H 553.012 2.92078 3.7281 0
M  V30 5869 H 553.436 5.53647 3.8962 0
M  V30 5870 H 558.078 2.70615 3.2485 0
M  V30 5871 H 555.796 7.12164 3.819 0
M  V30 5872 H 559.382 4.80762 3.27658 0
M  V30 5873 H 558.262 6.98731 3.56012 0
M  V30 5874 N 555.766 -1.3263 0.851289 0
M  V30 5875 C 557.014 -1.96978 0.452128 0
M  V30 5876 C 557.335 -1.67715 -0.99482 0
M  V30 5877 O 556.605 -0.98259 -1.69476 0
M  V30 5878 H 555.185 -0.72873 0.164202 0
M  V30 5879 H 557.847 -1.61774 1.08698 0
M  V30 5880 H 556.943 -3.06387 0.594407 0
M  V30 5881 N 557.244 -0.608902 -1.45362 0
M  V30 5882 C 558.492 -0.104401 -2.0183 0
M  V30 5883 C 558.813 1.27007 -1.47967 0
M  V30 5884 O 558.083 1.83924 -0.674455 0
M  V30 5885 H 556.663 -0.0356042 -0.746151 0
M  V30 5886 H 559.325 -0.790596 -1.78145 0
M  V30 5887 H 558.421 -0.0551793 -3.12051 0
M  V30 5888 N 558.722 1.53707 -0.348139 0
M  V30 5889 C 559.97 2.00591 0.246478 0
M  V30 5890 C 560.291 1.23753 1.50699 0
M  V30 5891 O 559.561 0.345964 1.92821 0
M  V30 5892 H 558.141 0.741053 0.0940679 0
M  V30 5893 H 560.803 1.89139 -0.470354 0
M  V30 5894 H 559.899 3.08297 0.485714 0
M  V30 5895 N 560.2 0.0768682 1.57412 0
M  V30 5896 C 561.13 -0.886026 2.16037 0
M  V30 5897 C 562.111 -1.30691 1.08876 0
M  V30 5898 O 563.296 -1.37705 1.36934 0
M  V30 5899 C 560.426 -2.1518 2.72608 0
M  V30 5900 C 559.38 -1.87015 3.8498 0
M  V30 5901 C 558.706 -3.20266 4.28175 0
M  V30 5902 C 560.006 -1.17143 5.08994 0
M  V30 5903 H 561.7 -0.397642 2.96748 0
M  V30 5904 H 559.246 -0.189823 1.42743 0
M  V30 5905 H 561.199 -2.82962 3.12266 0
M  V30 5906 H 559.923 -2.66269 1.89125 0
M  V30 5907 H 558.582 -1.21636 3.45833 0
M  V30 5908 H 558.23 -3.69207 3.41607 0
M  V30 5909 H 557.93 -3.0221 5.03927 0
M  V30 5910 H 559.454 -3.89237 4.70454 0
M  V30 5911 H 560.868 -1.75003 5.45937 0
M  V30 5912 H 559.265 -1.09328 5.90057 0
M  V30 5913 H 560.335 -0.151295 4.84664 0
M  V30 5914 N 561.678 -1.56367 -0.196722 0
M  V30 5915 C 562.608 -1.97442 -1.24655 0
M  V30 5916 C 563.589 -0.846147 -1.47561 0
M  V30 5917 O 564.774 -1.11035 -1.59326 0
M  V30 5918 C 561.904 -2.31253 -2.59112 0
M  V30 5919 C 560.858 -3.46804 -2.50821 0
M  V30 5920 C 560.184 -3.66286 -3.89536 0
M  V30 5921 C 561.484 -4.8104 -2.03465 0
M  V30 5922 H 563.178 -2.85388 -0.905216 0
M  V30 5923 H 560.724 -1.37304 -0.434002 0
M  V30 5924 H 562.677 -2.58583 -3.32736 0
M  V30 5925 H 561.401 -1.40188 -2.94983 0
M  V30 5926 H 560.06 -3.19563 -1.79653 0
M  V30 5927 H 559.708 -2.72555 -4.22756 0
M  V30 5928 H 559.408 -4.4402 -3.84864 0
M  V30 5929 H 560.932 -3.9599 -4.64784 0
M  V30 5930 H 562.346 -5.07411 -2.66846 0
M  V30 5931 H 560.743 -5.62232 -2.09798 0
M  V30 5932 H 561.813 -4.74732 -0.98781 0
M  V30 5933 N 563.156 0.464375 -1.50603 0
M  V30 5934 C 564.089 1.58052 -1.64605 0
M  V30 5935 C 565.067 1.54914 -0.494016 0
M  V30 5936 O 566.251 1.74438 -0.714393 0
M  V30 5937 C 563.378 2.96634 -1.63481 0
M  V30 5938 C 562.424 3.17901 -2.84325 0
M  V30 5939 S 563.257 2.97083 -4.45536 0
M  V30 5940 C 564.413 4.37994 -4.47115 0
M  V30 5941 H 564.646 1.45937 -2.59017 0
M  V30 5942 H 562.179 0.652189 -1.39949 0
M  V30 5943 H 564.137 3.76527 -1.63517 0
M  V30 5944 H 562.798 3.06134 -0.702928 0
M  V30 5945 H 561.991 4.19158 -2.79862 0
M  V30 5946 H 561.593 2.45792 -2.81891 0
M  V30 5947 H 563.885 5.30743 -4.21091 0
M  V30 5948 H 564.828 4.47499 -5.48772 0
M  V30 5949 H 565.236 4.20386 -3.76743 0
M  V30 5950 N 564.634 1.40294 0.718013 0
M  V30 5951 C 565.859 1.41941 1.5122 0
M  V30 5952 C 566.284 0.0202371 1.88089 0
M  V30 5953 O 565.642 -0.971078 1.53101 0
M  V30 5954 C 565.69 2.3141 2.76554 0
M  V30 5955 O 564.794 1.75567 3.73162 0
M  V30 5956 H 564.135 0.482644 0.456016 0
M  V30 5957 H 566.665 1.84494 0.884478 0
M  V30 5958 H 566.675 2.46513 3.25108 0
M  V30 5959 H 565.35 3.33085 2.49053 0
M  V30 5960 H 563.927 1.69798 3.31999 0
M  V30 5961 N 566.112 -0.949982 1.2575 0
M  V30 5962 C 567.528 -1.22191 1.02672 0
M  V30 5963 C 567.728 -1.99898 -0.253588 0
M  V30 5964 O 566.784 -2.33329 -0.965076 0
M  V30 5965 C 568.097 -1.99175 2.25277 0
M  V30 5966 C 569.645 -2.12201 2.30087 0
M  V30 5967 C 570.12 -2.92586 3.5236 0
M  V30 5968 N 571.611 -3.00163 3.52784 0
M  V30 5969 C 572.346 -3.62766 4.44059 0
M  V30 5970 N 571.842 -4.26943 5.45611 0
M  V30 5971 N 573.635 -3.59953 4.3173 0
M  V30 5972 H 565.786 -0.430258 2.07996 0
M  V30 5973 H 568.049 -0.252844 0.91366 0
M  V30 5974 H 567.755 -1.49479 3.18354 0
M  V30 5975 H 567.629 -2.99868 2.28821 0
M  V30 5976 H 570.016 -2.61093 1.3753 0
M  V30 5977 H 570.097 -1.10799 2.30559 0
M  V30 5978 H 569.741 -2.44383 4.45241 0
M  V30 5979 H 569.671 -3.94224 3.49134 0
M  V30 5980 H 572.162 -2.54529 2.79327 0
M  V30 5981 H 572.475 -4.72583 6.11461 0
M  V30 5982 H 570.82 -4.25557 5.49478 0
M  V30 5983 H 574.011 -3.09003 3.51617 0
M  V30 5984 H 574.184 -4.08455 5.03059 0
M  V30 5985 N 567.59 -1.07411 -1.15328 0
M  V30 5986 C 568.537 -0.694995 -2.20087 0
M  V30 5987 C 569.507 0.313904 -1.63107 0
M  V30 5988 O 570.692 0.200216 -1.89747 0
M  V30 5989 C 567.832 -0.0996218 -3.44956 0
M  V30 5990 C 566.945 -1.16007 -4.16133 0
M  V30 5991 C 566.08 -0.529636 -5.28553 0
M  V30 5992 C 565.119 -1.57283 -5.91548 0
M  V30 5993 N 564.256 -0.964932 -6.95438 0
M  V30 5994 H 569.096 -1.5927 -2.51867 0
M  V30 5995 H 566.633 -0.796115 -1.23695 0
M  V30 5996 H 568.591 0.263197 -4.16369 0
M  V30 5997 H 567.221 0.761435 -3.13691 0
M  V30 5998 H 566.273 -1.64045 -3.4321 0
M  V30 5999 H 567.585 -1.95101 -4.59061 0
M  V30 6000 H 566.739 -0.114487 -6.06592 0
M  V30 6001 H 565.478 0.29307 -4.86819 0
M  V30 6002 H 564.483 -1.99775 -5.12221 0
M  V30 6003 H 565.708 -2.39783 -6.35359 0
M  V30 6004 H 563.654 -0.16314 -6.55797 0
M  V30 6005 H 563.571 -1.69311 -7.36797 0
M  V30 6006 H 564.839 -0.575305 -7.77374 0
M  V30 6007 N 569.068 1.32177 -0.85831 0
M  V30 6008 C 570.018 2.26307 -0.277307 0
M  V30 6009 C 571.002 1.50123 0.578946 0
M  V30 6010 O 572.194 1.71754 0.427731 0
M  V30 6011 C 569.323 3.39181 0.530232 0
M  V30 6012 C 568.409 4.22746 -0.338613 0
M  V30 6013 N 568.8 4.85265 -1.4266 0
M  V30 6014 C 567.098 4.45813 -0.129 0
M  V30 6015 C 567.799 5.47634 -1.96142 0
M  V30 6016 N 566.775 5.28794 -1.26007 0
M  V30 6017 H 570.577 2.72173 -1.10902 0
M  V30 6018 H 568.091 1.46308 -0.704816 0
M  V30 6019 H 570.088 4.05628 0.962904 0
M  V30 6020 H 568.748 2.9486 1.35969 0
M  V30 6021 H 569.759 4.85259 -1.80953 0
M  V30 6022 H 566.436 4.12163 0.665451 0
M  V30 6023 H 567.826 6.0735 -2.8736 0
M  V30 6024 N 570.547 0.616602 1.45037 0
M  V30 6025 C 571.963 0.280994 1.57107 0
M  V30 6026 C 572.163 -1.21627 1.60653 0
M  V30 6027 O 571.219 -1.9997 1.54169 0
M  V30 6028 C 572.532 0.960116 2.8496 0
M  V30 6029 C 574.08 0.936884 2.98649 0
M  V30 6030 C 574.555 1.59619 4.29285 0
M  V30 6031 N 576.046 1.5621 4.36065 0
M  V30 6032 C 576.781 2.04131 5.35834 0
M  V30 6033 N 576.277 2.60177 6.4209 0
M  V30 6034 N 578.07 1.94845 5.27249 0
M  V30 6035 H 570.221 1.58867 1.40979 0
M  V30 6036 H 572.484 0.666024 0.674623 0
M  V30 6037 H 572.19 2.01473 2.88273 0
M  V30 6038 H 572.064 0.488921 3.74018 0
M  V30 6039 H 574.451 -0.109209 2.94898 0
M  V30 6040 H 574.532 1.44643 2.10979 0
M  V30 6041 H 574.176 2.64166 4.33796 0
M  V30 6042 H 574.106 1.06159 5.15789 0
M  V30 6043 H 576.597 1.15276 3.59889 0
M  V30 6044 H 576.91 2.94513 7.1448 0
M  V30 6045 H 575.255 2.64221 6.42816 0
M  V30 6046 H 578.446 1.50792 4.43147 0
M  V30 6047 H 578.619 2.32504 6.04852 0
M  V30 6048 N 572.025 -1.5352 0.356285 0
M  V30 6049 C 572.975 -2.22204 -0.510815 0
M  V30 6050 C 573.959 -1.21393 -1.05605 0
M  V30 6051 O 575.151 -1.46883 -0.987639 0
M  V30 6052 C 572.28 -3.00786 -1.65478 0
M  V30 6053 C 571.366 -4.08965 -1.12287 0
M  V30 6054 N 571.757 -5.04829 -0.313191 0
M  V30 6055 C 570.055 -4.23505 -1.39856 0
M  V30 6056 C 570.756 -5.81695 -0.0230322 0
M  V30 6057 N 569.732 -5.40074 -0.618144 0
M  V30 6058 H 573.534 -2.93676 0.114711 0
M  V30 6059 H 571.048 -1.61572 0.163811 0
M  V30 6060 H 573.045 -3.48502 -2.28806 0
M  V30 6061 H 571.705 -2.30843 -2.28345 0
M  V30 6062 H 572.716 -5.17879 0.0468202 0
M  V30 6063 H 569.393 -3.64786 -2.0307 0
M  V30 6064 H 570.783 -6.68931 0.630927 0
M  V30 6065 N 573.503 -0.0852151 -1.57369 0
M  V30 6066 C 574.45 0.877268 -2.13478 0
M  V30 6067 C 575.42 1.28642 -1.05073 0
M  V30 6068 O 576.605 1.36992 -1.32808 0
M  V30 6069 C 573.745 2.13464 -2.71159 0
M  V30 6070 C 572.858 1.77691 -3.93764 0
M  V30 6071 C 571.993 2.98139 -4.39643 0
M  V30 6072 C 571.032 2.58447 -5.54862 0
M  V30 6073 N 570.169 3.71698 -5.95639 0
M  V30 6074 H 575.009 0.391933 -2.95411 0
M  V30 6075 H 572.546 0.181796 -1.45972 0
M  V30 6076 H 574.504 2.87086 -3.02717 0
M  V30 6077 H 573.134 2.59514 -1.91969 0
M  V30 6078 H 572.186 0.940768 -3.68583 0
M  V30 6079 H 573.498 1.44497 -4.77412 0
M  V30 6080 H 572.652 3.80026 -4.72933 0
M  V30 6081 H 571.391 3.34536 -3.54876 0
M  V30 6082 H 570.396 1.74984 -5.21211 0
M  V30 6083 H 571.621 2.23205 -6.41371 0
M  V30 6084 H 569.567 4.07831 -5.13819 0
M  V30 6085 H 569.484 3.42317 -6.74059 0
M  V30 6086 H 570.752 4.54123 -6.33555 0
M  V30 6087 N 574.981 1.5647 0.188427 0
M  V30 6088 C 575.911 1.98101 1.23606 0
M  V30 6089 C 576.892 0.853961 1.47111 0
M  V30 6090 O 578.077 1.11879 1.58735 0
M  V30 6091 C 575.207 2.32624 2.57882 0
M  V30 6092 C 574.161 3.48129 2.48978 0
M  V30 6093 C 573.487 3.68347 3.87588 0
M  V30 6094 C 574.787 4.82112 2.00911 0
M  V30 6095 H 576.481 2.85864 0.890068 0
M  V30 6096 H 574.027 1.37532 0.426714 0
M  V30 6097 H 575.98 2.60343 3.3136 0
M  V30 6098 H 574.704 1.41751 2.94235 0
M  V30 6099 H 573.363 3.20511 1.77956 0
M  V30 6100 H 573.011 2.74793 4.21305 0
M  V30 6101 H 572.711 4.46055 3.82503 0
M  V30 6102 H 574.235 3.98449 4.62678 0
M  V30 6103 H 575.649 5.08819 2.64151 0
M  V30 6104 H 574.046 5.63337 2.06814 0
M  V30 6105 H 575.116 4.75249 0.96262 0
M  V30 6106 N 576.459 -0.456382 1.50847 0
M  V30 6107 C 577.407 -1.57318 1.71329 0
M  V30 6108 C 578.401 -1.59187 0.579287 0
M  V30 6109 O 579.607 -1.6316 0.76018 0
M  V30 6110 H 575.982 -0.5223 0.541024 0
M  V30 6111 H 577.953 -1.3721 2.64983 0
M  V30 6112 C 576.702 -2.95142 1.83811 0
M  V30 6113 H 576.025 -2.94428 2.70467 0
M  V30 6114 H 577.465 -3.72702 2.02161 0
M  V30 6115 C 575.924 -3.31636 0.593224 0
M  V30 6116 O 576.454 -4.00852 -0.260898 0
M  V30 6117 N 574.66 -2.87205 0.442902 0
M  V30 6118 H 574.207 -2.31051 1.13901 0
M  V30 6119 H 574.165 -3.11986 -0.38884 0
M  V30 6120 N 577.937 -1.40673 -0.710563 0
M  V30 6121 C 579.185 -1.38947 -1.46759 0
M  V30 6122 C 579.506 0.00572879 -1.94999 0
M  V30 6123 O 578.776 0.961358 -1.70689 0
M  V30 6124 H 577.356 -0.5114 -0.544499 0
M  V30 6125 H 580.018 -1.75773 -0.842012 0
M  V30 6126 H 579.114 -2.06745 -2.33801 0
M  V30 6127 N 579.415 0.9433 -1.26252 0
M  V30 6128 C 580.664 1.68369 -1.11062 0
M  V30 6129 C 580.977 1.92514 0.346104 0
M  V30 6130 O 582.183 2.64358 0.618646 0
M  V30 6131 C 580.639 3.03171 -1.93946 0
M  V30 6132 C 580.247 2.86782 -3.4418 0
M  V30 6133 C 581.991 3.80916 -1.87359 0
M  V30 6134 C 579.898 4.17044 -4.19319 0
M  V30 6135 H 578.828 0.631469 -0.412023 0
M  V30 6136 H 581.479 1.04922 -1.50544 0
M  V30 6137 H 579.861 3.67587 -1.47296 0
M  V30 6138 H 581.035 2.31229 -3.98585 0
M  V30 6139 H 579.35 2.22482 -3.51981 0
M  V30 6140 H 581.947 4.77417 -2.40784 0
M  V30 6141 H 582.29 4.07658 -0.843857 0
M  V30 6142 H 582.823 3.2327 -2.31821 0
M  V30 6143 H 579.562 3.95487 -5.22753 0
M  V30 6144 H 579.082 4.72319 -3.69696 0
M  V30 6145 H 580.761 4.85513 -4.27651 0
M  V30 6146 N 580.893 1.08022 1.14757 0
M  V30 6147 C 581.803 0.718292 2.23333 0
M  V30 6148 C 582.819 -0.273477 1.71837 0
M  V30 6149 O 583.995 -0.118406 2.01052 0
M  V30 6150 C 581.06 0.128855 3.4646 0
M  V30 6151 C 580.121 1.17473 4.12915 0
M  V30 6152 C 579.354 0.61333 5.30164 0
M  V30 6153 O 579.577 -0.568458 5.6756 0
M  V30 6154 O 578.511 1.3615 5.86299 0
M  V30 6155 H 582.337 1.62394 2.56636 0
M  V30 6156 H 579.922 0.853628 1.22611 0
M  V30 6157 H 581.804 -0.197249 4.20938 0
M  V30 6158 H 580.479 -0.750014 3.14891 0
M  V30 6159 H 579.386 1.5533 3.40328 0
M  V30 6160 H 580.719 2.02574 4.48581 0
M  V30 6161 N 582.371 -1.3172 0.865308 0
M  V30 6162 C 583.787 -1.4958 0.556596 0
M  V30 6163 C 583.987 -1.79763 -0.910353 0
M  V30 6164 O 583.043 -1.87351 -1.6928 0
M  V30 6165 C 584.356 -2.63277 1.45279 0
M  V30 6166 C 585.904 -2.77161 1.45433 0
M  V30 6167 C 586.379 -3.93949 2.33598 0
M  V30 6168 N 587.87 -4.01228 2.31453 0
M  V30 6169 C 588.605 -4.90855 2.96393 0
M  V30 6170 N 588.101 -5.85416 3.70486 0
M  V30 6171 N 589.894 -4.84063 2.85726 0
M  V30 6172 H 582.045 -1.10396 1.81456 0
M  V30 6173 H 584.308 -0.54507 0.775631 0
M  V30 6174 H 584.014 -2.47734 2.49641 0
M  V30 6175 H 583.888 -3.59309 1.14792 0
M  V30 6176 H 586.275 -2.9212 0.41831 0
M  V30 6177 H 586.356 -1.8181 1.79941 0
M  V30 6178 H 586 -3.79748 3.37274 0
M  V30 6179 H 585.93 -4.88598 1.96417 0
M  V30 6180 H 588.421 -3.3357 1.77593 0
M  V30 6181 H 588.734 -6.50525 4.17178 0
M  V30 6182 H 587.079 -5.85409 3.74594 0
M  V30 6183 H 590.27 -4.09163 2.27384 0
M  V30 6184 H 590.443 -5.53708 3.36617 0
M  V30 6185 N 583.85 -0.624285 -1.44708 0
M  V30 6186 C 584.812 0.0749638 -2.29077 0
M  V30 6187 C 585.812 0.778965 -1.40673 0
M  V30 6188 O 587.003 0.624591 -1.62618 0
M  V30 6189 C 584.135 1.11663 -3.22094 0
M  V30 6190 H 585.327 -0.667013 -2.92388 0
M  V30 6191 H 582.88 -0.384098 -1.51507 0
M  V30 6192 H 583.615 1.88881 -2.63618 0
M  V30 6193 H 583.401 0.61583 -3.87234 0
M  V30 6194 H 584.891 1.60585 -3.8549 0
M  V30 6195 N 585.328 1.53329 -0.364422 0
M  V30 6196 C 586.276 2.27212 0.497737 0
M  V30 6197 C 587.27 1.30146 1.08437 0
M  V30 6198 O 588.476 1.47778 1.0277 0
M  V30 6199 H 584.851 0.730329 0.179232 0
M  V30 6200 H 586.822 2.98037 -0.147182 0
M  V30 6201 C 585.571 3.07333 1.6261 0
M  V30 6202 H 584.894 3.81866 1.184 0
M  V30 6203 H 586.334 3.62209 2.20409 0
M  V30 6204 C 584.793 2.18102 2.56775 0
M  V30 6205 O 585.323 1.79104 3.59562 0
M  V30 6206 N 583.529 1.82759 2.25937 0
M  V30 6207 H 583.076 2.14671 1.42387 0
M  V30 6208 H 583.034 1.23342 2.89196 0
M  V30 6209 N 586.806 0.0935595 1.57322 0
M  V30 6210 C 588.031 -0.582324 1.99057 0
M  V30 6211 C 588.456 -1.61025 0.972242 0
M  V30 6212 O 587.814 -1.81202 -0.0594622 0
M  V30 6213 C 587.862 -1.20799 3.39765 0
M  V30 6214 O 586.966 -2.32382 3.40694 0
M  V30 6215 H 586.307 -0.147884 0.647323 0
M  V30 6216 H 588.837 0.174516 2.03854 0
M  V30 6217 H 588.847 -1.54966 3.77425 0
M  V30 6218 H 587.522 -0.454914 4.13405 0
M  V30 6219 H 586.099 -1.99845 3.14827 0
M  V30 6220 N 588.284 -1.56567 -0.180126 0
M  V30 6221 C 589.53 -1.81761 -0.899497 0
M  V30 6222 C 589.863 -0.670015 -1.82276 0
M  V30 6223 O 589.138 0.328575 -1.91705 0
M  V30 6224 C 589.421 -3.17296 -1.7028 0
M  V30 6225 C 589.274 -4.4257 -0.803255 0
M  V30 6226 C 590.593 -3.49678 -2.67233 0
M  V30 6227 H 587.712 -0.661192 -0.325567 0
M  V30 6228 H 590.354 -1.89272 -0.16612 0
M  V30 6229 H 588.504 -3.11023 -2.32802 0
M  V30 6230 H 590.176 -4.60902 -0.191585 0
M  V30 6231 H 588.419 -4.33658 -0.110796 0
M  V30 6232 H 589.09 -5.33935 -1.40064 0
M  V30 6233 H 591.566 -3.56347 -2.14839 0
M  V30 6234 H 590.442 -4.45605 -3.20511 0
M  V30 6235 H 590.703 -2.73932 -3.47007 0
M  V30 6236 N 589.762 0.448376 -1.51087 0
M  V30 6237 C 590.99 1.22143 -1.66999 0
M  V30 6238 C 591.405 1.85283 -0.362699 0
M  V30 6239 O 590.762 1.70236 0.65772 0
M  V30 6240 C 590.813 2.31357 -2.7777 0
M  V30 6241 O 590.534 1.70801 -4.03434 0
M  V30 6242 C 592.035 3.21836 -3.04855 0
M  V30 6243 H 589.255 0.368558 -0.560719 0
M  V30 6244 H 591.799 0.532618 -1.97442 0
M  V30 6245 H 589.954 2.95973 -2.49958 0
M  V30 6246 H 590.368 2.42895 -4.64868 0
M  V30 6247 H 591.842 3.94627 -3.85971 0
M  V30 6248 H 592.319 3.81949 -2.16821 0
M  V30 6249 H 592.925 2.62933 -3.34285 0
M  V30 6250 N 591.24 1.41047 0.703093 0
M  V30 6251 C 592.486 1.41209 1.46396 0
M  V30 6252 C 592.841 0.0180188 1.92392 0
M  V30 6253 O 592.134 -0.954739 1.66118 0
M  V30 6254 C 592.328 2.34686 2.6955 0
M  V30 6255 C 592.157 3.83044 2.35601 0
M  V30 6256 C 590.927 4.51777 2.26331 0
M  V30 6257 C 593.125 4.74215 1.9906 0
M  V30 6258 N 591.107 5.85302 1.85188 0
M  V30 6259 C 592.478 5.96631 1.68616 0
M  V30 6260 C 594.533 4.61932 1.85805 0
M  V30 6261 C 593.236 7.08134 1.26249 0
M  V30 6262 C 595.262 5.73389 1.44842 0
M  V30 6263 C 594.624 6.94899 1.15304 0
M  V30 6264 H 590.723 0.571951 0.533288 0
M  V30 6265 H 593.307 1.76859 0.814179 0
M  V30 6266 H 591.478 2.01143 3.32259 0
M  V30 6267 H 593.21 2.25618 3.35974 0
M  V30 6268 H 589.965 4.05618 2.44482 0
M  V30 6269 H 590.389 6.56049 1.67119 0
M  V30 6270 H 595.031 3.68494 2.07298 0
M  V30 6271 H 592.749 8.01445 1.035 0
M  V30 6272 H 596.335 5.65886 1.35146 0
M  V30 6273 H 595.215 7.79679 0.840854 0
M  V30 6274 N 592.718 -0.936591 1.26751 0
M  V30 6275 C 593.666 -2.0573 1.08527 0
M  V30 6276 C 594.66 -1.69397 0.0108784 0
M  V30 6277 O 595.866 -1.79215 0.167915 0
M  V30 6278 H 592.241 -0.673691 0.334133 0
M  V30 6279 H 594.212 -2.1825 2.03493 0
M  V30 6280 C 592.961 -3.39738 0.739845 0
M  V30 6281 H 592.284 -3.68174 1.55845 0
M  V30 6282 H 593.724 -4.18955 0.652149 0
M  V30 6283 C 592.183 -3.32292 -0.555288 0
M  V30 6284 O 592.713 -3.68794 -1.59229 0
M  V30 6285 N 590.919 -2.85394 -0.54762 0
M  V30 6286 H 590.466 -2.55886 0.296667 0
M  V30 6287 H 590.424 -2.80795 -1.41427 0
M  V30 6288 N 594.196 -1.08629 -1.14182 0
M  V30 6289 C 595.607 -0.838003 -1.66836 0
M  V30 6290 C 595.958 0.634885 -1.85644 0
M  V30 6291 O 595.083 1.49008 -1.56926 0
M  V30 6292 C 595.678 -1.51465 -3.03058 0
M  V30 6293 C 594.237 -1.31355 -3.52736 0
M  V30 6294 C 593.384 -1.57599 -2.28162 0
M  V30 6295 H 596.335 -1.24656 -0.982165 0
M  V30 6296 H 596.356 -0.943134 -3.68626 0
M  V30 6297 H 595.868 -2.58661 -2.89337 0
M  V30 6298 H 593.969 -0.262384 -3.71675 0
M  V30 6299 H 594.082 -2.04275 -4.33369 0
M  V30 6300 H 592.446 -0.997659 -2.34348 0
M  V30 6301 H 593.229 -2.66006 -2.17015 0
M  V30 6302 N 595.674 1.31259 -0.872281 0
M  V30 6303 C 596.624 2.26 -0.301295 0
M  V30 6304 C 597.608 1.50729 0.562991 0
M  V30 6305 O 598.8 1.72198 0.40949 0
M  V30 6306 C 595.929 3.39724 0.494227 0
M  V30 6307 C 595.015 4.22363 -0.383432 0
M  V30 6308 N 595.406 4.83724 -1.47799 0
M  V30 6309 C 593.704 4.45652 -0.176278 0
M  V30 6310 C 594.405 5.45523 -2.01939 0
M  V30 6311 N 593.381 5.27428 -1.31608 0
M  V30 6312 H 597.183 2.70981 -1.13782 0
M  V30 6313 H 594.697 1.45552 -0.720294 0
M  V30 6314 H 596.694 4.06626 0.919828 0
M  V30 6315 H 595.354 2.96286 1.32834 0
M  V30 6316 H 596.365 4.83313 -1.8609 0
M  V30 6317 H 593.042 4.12845 0.621698 0
M  V30 6318 H 594.432 6.04268 -2.93786 0
M  V30 6319 N 597.152 0.631951 1.44375 0
M  V30 6320 C 598.099 -0.0724807 2.30686 0
M  V30 6321 C 599.069 -0.835975 1.43529 0
M  V30 6322 O 600.254 -0.816849 1.7243 0
M  V30 6323 C 597.394 -1.04753 3.28817 0
M  V30 6324 C 596.507 -0.282367 4.31076 0
M  V30 6325 C 595.642 -1.2493 5.163 0
M  V30 6326 C 594.681 -0.473349 6.10267 0
M  V30 6327 N 593.818 -1.39079 6.88187 0
M  V30 6328 H 598.658 0.669477 2.90383 0
M  V30 6329 H 596.195 0.341927 1.43071 0
M  V30 6330 H 598.153 -1.62623 3.842 0
M  V30 6331 H 596.783 -1.75661 2.70819 0
M  V30 6332 H 595.835 0.412268 3.78159 0
M  V30 6333 H 597.147 0.321955 4.9776 0
M  V30 6334 H 596.301 -1.89931 5.76204 0
M  V30 6335 H 595.04 -1.88755 4.49692 0
M  V30 6336 H 594.045 0.190142 5.49471 0
M  V30 6337 H 595.27 0.16019 6.78911 0
M  V30 6338 H 593.216 -2.01623 6.24247 0
M  V30 6339 H 593.133 -0.840513 7.51313 0
M  V30 6340 H 594.401 -2.02961 7.52613 0
M  V30 6341 N 598.631 -1.53133 0.372548 0
M  V30 6342 C 599.564 -2.22328 -0.514361 0
M  V30 6343 C 600.542 -1.21776 -1.07747 0
M  V30 6344 O 601.726 -1.50704 -1.13228 0
M  V30 6345 C 598.853 -2.92343 -1.71035 0
M  V30 6346 C 597.899 -4.07026 -1.27405 0
M  V30 6347 S 598.732 -5.34821 -0.269526 0
M  V30 6348 C 599.888 -6.08352 -1.47168 0
M  V30 6349 H 600.121 -2.9721 0.0732683 0
M  V30 6350 H 597.654 -1.53603 0.156673 0
M  V30 6351 H 599.612 -3.33296 -2.39634 0
M  V30 6352 H 598.273 -2.17173 -2.26925 0
M  V30 6353 H 597.466 -4.55056 -2.16656 0
M  V30 6354 H 597.068 -3.68001 -0.66719 0
M  V30 6355 H 599.36 -6.33507 -2.40157 0
M  V30 6356 H 600.303 -7.0053 -1.03263 0
M  V30 6357 H 600.711 -5.38893 -1.6809 0
M  V30 6358 N 600.109 -0.101901 -1.5727 0
M  V30 6359 C 601.042 0.891377 -2.10071 0
M  V30 6360 C 602.02 1.27197 -1.01291 0
M  V30 6361 O 603.204 1.37602 -1.28833 0
M  V30 6362 C 600.331 2.19049 -2.58331 0
M  V30 6363 C 599.377 1.95925 -3.78834 0
M  V30 6364 S 600.21 1.19106 -5.22086 0
M  V30 6365 C 601.366 2.50234 -5.73702 0
M  V30 6366 H 601.599 0.442212 -2.93993 0
M  V30 6367 H 599.132 0.111529 -1.53997 0
M  V30 6368 H 601.09 2.937 -2.86793 0
M  V30 6369 H 599.751 2.61086 -1.74622 0
M  V30 6370 H 598.944 2.92143 -4.10693 0
M  V30 6371 H 598.546 1.29401 -3.50901 0
M  V30 6372 H 600.838 3.46173 -5.82384 0
M  V30 6373 H 601.781 2.22944 -6.72088 0
M  V30 6374 H 602.189 2.58818 -5.01671 0
M  V30 6375 N 601.587 1.56661 0.17182 0
M  V30 6376 C 602.835 1.81606 0.886774 0
M  V30 6377 C 603.156 0.678818 1.82803 0
M  V30 6378 O 602.426 -0.301354 1.93568 0
M  V30 6379 H 601.006 0.669934 0.330451 0
M  V30 6380 H 603.668 1.94142 0.171757 0
M  V30 6381 H 602.764 2.75634 1.46398 0
M  V30 6382 N 603.065 -0.440357 1.51323 0
M  V30 6383 C 604.311 -1.19181 1.64085 0
M  V30 6384 C 604.644 -1.90936 0.354575 0
M  V30 6385 O 603.919 -1.8347 -0.645675 0
M  V30 6386 C 604.202 -2.2112 2.84215 0
M  V30 6387 C 604.055 -1.53468 4.22809 0
M  V30 6388 C 605.374 -3.22133 2.99864 0
M  V30 6389 H 602.493 -0.431924 0.597169 0
M  V30 6390 H 605.135 -0.481443 1.83799 0
M  V30 6391 H 603.285 -2.81703 2.67537 0
M  V30 6392 H 604.957 -0.962455 4.51148 0
M  V30 6393 H 603.2 -0.837086 4.25647 0
M  V30 6394 H 603.871 -2.27694 5.02852 0
M  V30 6395 H 606.347 -2.71601 3.15233 0
M  V30 6396 H 605.223 -3.90756 3.85488 0
M  V30 6397 H 605.484 -3.88061 2.11804 0
M  V30 6398 N 604.543 -1.41418 -0.695603 0
M  V30 6399 C 605.473 -1.46035 -1.82197 0
M  V30 6400 C 606.454 -0.319025 -1.67082 0
M  V30 6401 O 607.639 -0.530462 -1.86815 0
M  V30 6402 C 604.769 -1.34179 -3.20333 0
M  V30 6403 C 603.723 -2.46123 -3.50154 0
M  V30 6404 C 603.049 -2.19332 -4.87645 0
M  V30 6405 C 604.349 -3.88463 -3.49133 0
M  V30 6406 H 606.043 -2.40303 -1.78591 0
M  V30 6407 H 603.589 -1.15663 -0.857797 0
M  V30 6408 H 605.542 -1.36021 -3.98844 0
M  V30 6409 H 604.266 -0.363952 -3.24566 0
M  V30 6410 H 602.925 -2.43563 -2.73994 0
M  V30 6411 H 602.573 -1.19891 -4.88503 0
M  V30 6412 H 602.273 -2.94344 -5.08562 0
M  V30 6413 H 603.797 -2.22889 -5.68465 0
M  V30 6414 H 605.211 -3.92738 -4.17648 0
M  V30 6415 H 603.608 -4.63158 -3.81582 0
M  V30 6416 H 604.678 -4.16617 -2.48109 0
M  V30 6417 N 606.021 0.929856 -1.27246 0
M  V30 6418 C 606.951 2.04722 -1.12299 0
M  V30 6419 C 607.932 1.70082 -0.0250464 0
M  V30 6420 O 609.117 1.93176 -0.199141 0
M  V30 6421 C 606.247 3.38721 -0.767145 0
M  V30 6422 C 605.201 3.87466 -1.81808 0
M  V30 6423 C 604.527 5.18246 -1.31626 0
M  V30 6424 C 605.827 4.11095 -3.22177 0
M  V30 6425 H 607.521 2.17485 -2.05769 0
M  V30 6426 H 605.067 1.04503 -0.990715 0
M  V30 6427 H 607.02 4.16366 -0.649413 0
M  V30 6428 H 605.744 3.25967 0.203259 0
M  V30 6429 H 604.403 3.12012 -1.92468 0
M  V30 6430 H 604.051 5.01881 -0.335378 0
M  V30 6431 H 603.751 5.51829 -2.01887 0
M  V30 6432 H 605.275 5.98462 -1.21143 0
M  V30 6433 H 606.689 4.79316 -3.1453 0
M  V30 6434 H 605.086 4.55982 -3.90129 0
M  V30 6435 H 606.156 3.16468 -3.67391 0
M  V30 6436 N 607.499 1.09233 1.13605 0
M  V30 6437 C 608.431 0.687794 2.18637 0
M  V30 6438 C 609.444 -0.26936 1.60556 0
M  V30 6439 O 610.633 -0.0557162 1.78413 0
M  V30 6440 C 607.733 -0.00751901 3.38899 0
M  V30 6441 C 606.906 0.97067 4.26494 0
M  V30 6442 C 605.965 0.309129 5.25291 0
M  V30 6443 O 604.991 0.956149 5.61112 0
M  V30 6444 N 606.193 -0.937555 5.72879 0
M  V30 6445 H 608.958 1.59141 2.53957 0
M  V30 6446 H 606.519 0.979515 1.28907 0
M  V30 6447 H 608.511 -0.461238 4.02063 0
M  V30 6448 H 607.081 -0.813353 3.01833 0
M  V30 6449 H 606.301 1.603 3.60135 0
M  V30 6450 H 607.589 1.63323 4.81875 0
M  V30 6451 H 606.987 -1.48281 5.4592 0
M  V30 6452 H 605.544 -1.33463 6.3799 0
M  V30 6453 N 608.977 -1.30795 0.87923 0
M  V30 6454 C 610.217 -1.98155 0.50141 0
M  V30 6455 C 610.581 -1.67925 -0.930863 0
M  V30 6456 O 611.782 -2.28572 -1.41451 0
M  V30 6457 C 610.053 -3.49184 0.761937 0
M  V30 6458 S 611.612 -4.36107 0.485361 0
M  V30 6459 H 608.43 -0.686025 0.186792 0
M  V30 6460 H 611.032 -1.59018 1.13726 0
M  V30 6461 H 609.736 -3.68676 1.80295 0
M  V30 6462 H 609.267 -3.93236 0.113432 0
M  V30 6463 H 611.282 -4.9154 -0.678467 0
M  V30 6464 N 610.455 -0.639598 -1.44038 0
M  V30 6465 C 611.68 -0.153117 -2.06834 0
M  V30 6466 C 612.105 1.16676 -1.47541 0
M  V30 6467 O 611.463 1.71769 -0.580093 0
M  V30 6468 C 611.511 -0.0609169 -3.60549 0
M  V30 6469 O 610.615 0.98071 -4.00569 0
M  V30 6470 H 609.956 -0.0886402 -0.658057 0
M  V30 6471 H 612.486 -0.878674 -1.84771 0
M  V30 6472 H 612.496 0.126892 -4.07803 0
M  V30 6473 H 611.171 -1.0245 -4.03084 0
M  V30 6474 H 609.748 0.766789 -3.64931 0
M  V30 6475 N 611.933 1.52934 -0.380664 0
M  V30 6476 C 612.896 2.24809 0.446473 0
M  V30 6477 C 613.896 1.26133 0.997347 0
M  V30 6478 O 615.086 1.50297 0.880714 0
M  V30 6479 C 612.218 2.99649 1.62553 0
M  V30 6480 H 613.411 2.99343 -0.182677 0
M  V30 6481 H 610.964 1.55736 -0.132618 0
M  V30 6482 H 611.699 2.29395 2.29235 0
M  V30 6483 H 611.484 3.72066 1.23732 0
M  V30 6484 H 612.974 3.54246 2.21133 0
M  V30 6485 N 613.412 0.11024 1.57214 0
M  V30 6486 C 614.661 -0.549638 1.94067 0
M  V30 6487 C 614.974 -1.68388 0.995234 0
M  V30 6488 O 616.18 -2.40593 1.25807 0
M  V30 6489 C 614.636 -1.02912 3.44873 0
M  V30 6490 C 614.244 0.0761861 4.47935 0
M  V30 6491 C 615.988 -1.66087 3.9066 0
M  V30 6492 C 613.895 -0.419502 5.8991 0
M  V30 6493 H 612.825 -0.209092 0.724428 0
M  V30 6494 H 615.476 0.188683 1.82527 0
M  V30 6495 H 613.858 -1.82159 3.51616 0
M  V30 6496 H 615.032 0.852185 4.52851 0
M  V30 6497 H 613.347 0.614052 4.11847 0
M  V30 6498 H 615.944 -2.04272 4.94143 0
M  V30 6499 H 616.287 -2.53591 3.30148 0
M  V30 6500 H 616.82 -0.933959 3.86681 0
M  V30 6501 H 613.559 0.419277 6.54158 0
M  V30 6502 H 613.079 -1.16217 5.88433 0
M  V30 6503 H 614.758 -0.883577 6.40938 0
M  V30 6504 N 614.89 -1.56749 -0.16351 0
M  V30 6505 C 615.82 -2.00042 -1.20438 0
M  V30 6506 C 616.801 -0.877256 -1.45733 0
M  V30 6507 O 617.986 -1.1439 -1.56935 0
M  V30 6508 C 615.116 -2.36697 -2.54149 0
M  V30 6509 C 614.07 -3.52046 -2.43408 0
M  V30 6510 C 613.396 -3.74466 -3.81679 0
M  V30 6511 C 614.696 -4.85247 -1.93216 0
M  V30 6512 H 616.39 -2.87244 -0.844477 0
M  V30 6513 H 613.936 -1.38194 -0.40478 0
M  V30 6514 H 615.889 -2.65582 -3.27176 0
M  V30 6515 H 614.613 -1.46414 -2.91943 0
M  V30 6516 H 613.272 -3.23301 -1.72834 0
M  V30 6517 H 612.92 -2.81461 -4.1688 0
M  V30 6518 H 612.62 -4.52084 -3.75359 0
M  V30 6519 H 614.144 -4.0576 -4.5628 0
M  V30 6520 H 615.558 -5.12957 -2.56023 0
M  V30 6521 H 613.955 -5.66556 -1.97825 0
M  V30 6522 H 615.025 -4.7672 -0.88689 0
M  V30 6523 N 616.368 0.432326 -1.51554 0
M  V30 6524 C 617.614 1.18309 -1.64714 0
M  V30 6525 C 617.947 1.90745 -0.364696 0
M  V30 6526 O 617.222 1.8381 0.635936 0
M  V30 6527 C 617.505 2.1961 -2.85383 0
M  V30 6528 C 617.358 1.51223 -4.23617 0
M  V30 6529 C 618.677 3.20538 -3.01569 0
M  V30 6530 H 615.796 0.428751 -0.599451 0
M  V30 6531 H 618.438 0.471689 -1.84052 0
M  V30 6532 H 616.588 2.8028 -2.69027 0
M  V30 6533 H 618.26 0.938516 -4.51652 0
M  V30 6534 H 616.503 0.814501 -4.26085 0
M  V30 6535 H 617.174 2.25024 -5.04052 0
M  V30 6536 H 619.65 2.69926 -3.16669 0
M  V30 6537 H 618.526 3.88706 -3.87555 0
M  V30 6538 H 618.787 3.86933 -2.13859 0
M  V30 6539 N 617.846 1.41785 0.688094 0
M  V30 6540 C 618.793 1.44221 1.80191 0
M  V30 6541 C 619.763 0.295688 1.63447 0
M  V30 6542 O 620.948 0.49783 1.84191 0
M  V30 6543 C 618.088 1.33743 3.1813 0
M  V30 6544 C 617.201 2.58325 3.46254 0
M  V30 6545 C 616.336 2.40086 4.73848 0
M  V30 6546 C 615.375 3.60107 4.94964 0
M  V30 6547 N 614.512 3.40892 6.13789 0
M  V30 6548 H 619.352 2.39411 1.77444 0
M  V30 6549 H 616.889 1.18876 0.866423 0
M  V30 6550 H 618.847 1.25669 3.97823 0
M  V30 6551 H 617.477 0.42157 3.20035 0
M  V30 6552 H 616.529 2.7682 2.60912 0
M  V30 6553 H 617.841 3.4758 3.57756 0
M  V30 6554 H 616.995 2.29522 5.61609 0
M  V30 6555 H 615.734 1.483 4.64606 0
M  V30 6556 H 614.739 3.71118 4.05649 0
M  V30 6557 H 615.964 4.52857 5.06061 0
M  V30 6558 H 613.91 2.51812 6.05745 0
M  V30 6559 H 613.827 4.23727 6.26092 0
M  V30 6560 H 615.095 3.34114 7.04264 0
M  V30 6561 N 619.324 -0.923095 1.27737 0
M  V30 6562 C 620.234 -2.05765 1.12685 0
M  V30 6563 C 621.25 -1.73911 0.0557197 0
M  V30 6564 O 622.426 -1.99674 0.263137 0
M  V30 6565 C 619.491 -3.37804 0.780363 0
M  V30 6566 C 618.552 -3.83326 1.93286 0
M  V30 6567 C 617.785 -5.09064 1.60281 0
M  V30 6568 O 618.008 -5.6809 0.512828 0
M  V30 6569 O 616.942 -5.50071 2.44347 0
M  V30 6570 H 620.768 -2.21378 2.07907 0
M  V30 6571 H 618.353 -1.04299 1.06968 0
M  V30 6572 H 620.235 -4.17097 0.600668 0
M  V30 6573 H 618.91 -3.23387 -0.142291 0
M  V30 6574 H 617.817 -3.049 2.16764 0
M  V30 6575 H 619.15 -4.02292 2.83588 0
M  V30 6576 N 620.802 -1.09834 -1.13024 0
M  V30 6577 C 621.749 -0.741522 -2.18564 0
M  V30 6578 C 622.719 0.279236 -1.63736 0
M  V30 6579 O 623.904 0.159923 -1.90129 0
M  V30 6580 C 621.044 -0.17277 -3.44667 0
M  V30 6581 C 620.157 -1.24808 -4.13578 0
M  V30 6582 C 619.292 -0.641631 -5.27311 0
M  V30 6583 C 618.331 -1.69795 -5.88078 0
M  V30 6584 N 617.468 -1.11223 -6.93234 0
M  V30 6585 H 622.308 -1.64576 -2.48432 0
M  V30 6586 H 619.845 -0.822174 -1.21978 0
M  V30 6587 H 621.803 0.17482 -4.16834 0
M  V30 6588 H 620.433 0.694725 -3.15235 0
M  V30 6589 H 619.485 -1.71288 -3.39653 0
M  V30 6590 H 620.797 -2.04795 -4.54819 0
M  V30 6591 H 619.951 -0.243128 -6.06213 0
M  V30 6592 H 618.69 0.189742 -4.87331 0
M  V30 6593 H 617.695 -2.10595 -5.07868 0
M  V30 6594 H 618.92 -2.53206 -6.3013 0
M  V30 6595 H 616.866 -0.302208 -6.55304 0
M  V30 6596 H 616.783 -1.84901 -7.3304 0
M  V30 6597 H 618.051 -0.740068 -7.75979 0
M  V30 6598 N 622.28 1.30327 -0.886154 0
M  V30 6599 C 623.528 1.9571 -0.504195 0
M  V30 6600 C 623.849 1.70294 0.950003 0
M  V30 6601 O 623.119 1.02718 1.66811 0
M  V30 6602 H 621.699 0.72412 -0.183465 0
M  V30 6603 H 624.361 1.58835 -1.12949 0
M  V30 6604 H 623.457 3.04704 -0.675431 0
M  V30 6605 N 623.758 0.647228 1.43697 0
M  V30 6606 C 625.007 0.155552 2.01099 0
M  V30 6607 C 625.32 -1.23569 1.51624 0
M  V30 6608 O 626.526 -1.82226 2.01261 0
M  V30 6609 C 624.982 0.227296 3.59182 0
M  V30 6610 C 624.59 1.62086 4.17651 0
M  V30 6611 C 626.334 -0.207085 4.23995 0
M  V30 6612 C 624.241 1.64685 5.68008 0
M  V30 6613 H 623.171 0.0543895 0.752036 0
M  V30 6614 H 625.822 0.808386 1.64734 0
M  V30 6615 H 624.204 -0.492937 3.9292 0
M  V30 6616 H 625.378 2.36597 3.95422 0
M  V30 6617 H 623.693 2.0007 3.65186 0
M  V30 6618 H 626.29 -0.207426 5.34298 0
M  V30 6619 H 626.633 -1.23742 3.97484 0
M  V30 6620 H 627.166 0.461193 3.95118 0
M  V30 6621 H 623.905 2.65608 5.99277 0
M  V30 6622 H 623.425 0.944914 5.9231 0
M  V30 6623 H 625.104 1.38792 6.31938 0
M  V30 6624 N 625.236 -1.5273 0.388769 0
M  V30 6625 C 626.166 -2.29353 -0.438111 0
M  V30 6626 C 627.147 -1.32719 -1.06394 0
M  V30 6627 O 628.332 -1.61612 -1.07681 0
M  V30 6628 C 625.462 -3.09995 -1.56589 0
M  V30 6629 C 624.416 -4.14509 -1.06613 0
M  V30 6630 C 623.742 -4.83372 -2.28594 0
M  V30 6631 C 625.042 -5.22127 -0.134459 0
M  V30 6632 H 626.736 -2.98723 0.201206 0
M  V30 6633 H 624.282 -1.43665 0.0982089 0
M  V30 6634 H 626.235 -3.62357 -2.15118 0
M  V30 6635 H 624.959 -2.38357 -2.23279 0
M  V30 6636 H 623.618 -3.63128 -0.503383 0
M  V30 6637 H 623.266 -4.08283 -2.93792 0
M  V30 6638 H 622.966 -5.54012 -1.95817 0
M  V30 6639 H 624.49 -5.38538 -2.87766 0
M  V30 6640 H 625.904 -5.69851 -0.627914 0
M  V30 6641 H 624.301 -6.00011 0.103534 0
M  V30 6642 H 625.371 -4.77971 0.816798 0
M  V30 6643 N 626.714 -0.118576 -1.57153 0
M  V30 6644 C 627.646 0.862247 -2.12363 0
M  V30 6645 C 628.659 1.23025 -1.06625 0
M  V30 6646 O 629.848 1.17927 -1.33998 0
M  V30 6647 C 626.948 2.16425 -2.60794 0
M  V30 6648 C 626.121 1.96801 -3.90626 0
M  V30 6649 C 625.18 3.10726 -4.2466 0
M  V30 6650 O 624.206 2.83659 -4.93484 0
M  V30 6651 N 625.408 4.37147 -3.81946 0
M  V30 6652 H 628.173 0.390564 -2.97144 0
M  V30 6653 H 625.734 0.0658591 -1.61766 0
M  V30 6654 H 627.726 2.91633 -2.80593 0
M  V30 6655 H 626.296 2.54943 -1.80895 0
M  V30 6656 H 625.516 1.05787 -3.7974 0
M  V30 6657 H 626.804 1.80993 -4.7552 0
M  V30 6658 H 626.202 4.62014 -3.26435 0
M  V30 6659 H 624.759 5.09229 -4.06853 0
M  V30 6660 N 628.193 1.56834 0.155195 0
M  V30 6661 C 629.441 1.82536 0.867462 0
M  V30 6662 C 629.762 0.698168 1.82073 0
M  V30 6663 O 629.032 -0.280807 1.93877 0
M  V30 6664 H 627.612 0.673401 0.323327 0
M  V30 6665 H 630.274 1.94313 0.151156 0
M  V30 6666 H 629.37 2.77171 1.43466 0
M  V30 6667 N 629.671 -0.424282 1.51781 0
M  V30 6668 C 630.911 -1.18194 1.66762 0
M  V30 6669 C 631.275 -1.88164 0.381857 0
M  V30 6670 O 632.476 -2.65692 0.407586 0
M  V30 6671 C 630.747 -2.16173 2.84612 0
M  V30 6672 S 632.306 -3.0025 3.19993 0
M  V30 6673 H 629.124 -0.400626 0.587384 0
M  V30 6674 H 631.726 -0.471499 1.89729 0
M  V30 6675 H 630.43 -1.6343 3.76455 0
M  V30 6676 H 629.961 -2.91778 2.63873 0
M  V30 6677 H 631.976 -4.1796 2.67439 0
M  V30 6678 N 631.149 -1.42148 -0.680565 0
M  V30 6679 C 632.097 -1.45401 -1.81552 0
M  V30 6680 C 633.091 -0.33036 -1.66147 0
M  V30 6681 O 634.297 -0.503103 -1.72826 0
M  V30 6682 H 630.672 -0.455265 -0.59853 0
M  V30 6683 H 632.643 -2.41024 -1.75926 0
M  V30 6684 C 631.392 -1.36769 -3.19671 0
M  V30 6685 H 630.715 -2.22525 -3.32149 0
M  V30 6686 H 632.155 -1.43106 -3.9912 0
M  V30 6687 C 630.614 -0.0817752 -3.36801 0
M  V30 6688 O 631.144 0.867707 -3.92216 0
M  V30 6689 N 629.35 -0.000799811 -2.906 0
M  V30 6690 H 628.897 -0.774231 -2.4569 0
M  V30 6691 H 628.855 0.858961 -3.02439 0
M  V30 6692 N 632.627 0.916307 -1.28225 0
M  V30 6693 C 633.559 2.02303 -1.07732 0
M  V30 6694 C 634.572 1.62773 -0.0298421 0
M  V30 6695 O 635.761 1.76406 -0.272626 0
M  V30 6696 C 632.861 3.33282 -0.614504 0
M  V30 6697 C 632.034 4.01439 -1.73682 0
M  V30 6698 C 631.093 5.10698 -1.26781 0
M  V30 6699 O 630.119 5.34038 -1.96958 0
M  V30 6700 N 631.321 5.80355 -0.129624 0
M  V30 6701 H 634.086 2.20442 -2.03041 0
M  V30 6702 H 631.647 1.08744 -1.19943 0
M  V30 6703 H 633.639 4.03699 -0.284397 0
M  V30 6704 H 632.209 3.11633 0.245664 0
M  V30 6705 H 631.429 3.24604 -2.23665 0
M  V30 6706 H 632.717 4.43721 -2.48976 0
M  V30 6707 H 632.115 5.6386 0.455847 0
M  V30 6708 H 630.672 6.51647 0.141224 0
M  V30 6709 N 634.105 1.10431 1.1244 0
M  V30 6710 C 635.038 0.696987 2.17296 0
M  V30 6711 C 636.016 -0.301673 1.59777 0
M  V30 6712 O 637.2 -0.200583 1.8743 0
M  V30 6713 C 634.327 0.0284094 3.38688 0
M  V30 6714 C 633.373 0.990536 4.14838 0
M  V30 6715 S 634.206 2.50785 4.73146 0
M  V30 6716 C 635.362 1.85198 5.97873 0
M  V30 6717 H 635.595 1.58523 2.51511 0
M  V30 6718 H 633.128 0.921312 1.239 0
M  V30 6719 H 635.086 -0.351009 4.08997 0
M  V30 6720 H 633.747 -0.836629 3.02753 0
M  V30 6721 H 632.94 0.469991 5.01804 0
M  V30 6722 H 632.542 1.31186 3.50237 0
M  V30 6723 H 634.834 1.18217 6.67106 0
M  V30 6724 H 635.777 2.7012 6.54554 0
M  V30 6725 H 636.185 1.31653 5.48933 0
M  V30 6726 N 635.583 -1.29855 0.893053 0
M  V30 6727 C 636.823 -1.97612 0.522399 0
M  V30 6728 C 637.187 -1.68903 -0.913 0
M  V30 6729 O 638.388 -2.30059 -1.39019 0
M  V30 6730 C 636.659 -3.48356 0.79893 0
M  V30 6731 S 638.218 -4.35568 0.531588 0
M  V30 6732 H 635.036 -0.684005 0.194058 0
M  V30 6733 H 637.638 -1.57803 1.15406 0
M  V30 6734 H 636.342 -3.66743 1.84196 0
M  V30 6735 H 635.873 -3.93094 0.155133 0
M  V30 6736 H 637.888 -4.92232 -0.626295 0
M  V30 6737 N 637.061 -0.65484 -1.43351 0
M  V30 6738 C 638.024 0.0263562 -2.29185 0
M  V30 6739 C 639.024 0.748951 -1.42293 0
M  V30 6740 O 640.214 0.589957 -1.63906 0
M  V30 6741 C 637.346 1.04806 -3.2439 0
M  V30 6742 H 638.539 -0.728883 -2.90908 0
M  V30 6743 H 636.092 -0.416149 -1.50658 0
M  V30 6744 H 636.827 1.83247 -2.67565 0
M  V30 6745 H 636.612 0.533554 -3.88453 0
M  V30 6746 H 638.102 1.52372 -3.88809 0
M  V30 6747 N 638.539 1.52521 -0.396863 0
M  V30 6748 C 639.787 2.01274 0.182536 0
M  V30 6749 C 640.108 1.28485 1.46685 0
M  V30 6750 O 639.378 0.407134 1.91623 0
M  V30 6751 H 637.958 0.743671 0.0704442 0
M  V30 6752 H 640.62 1.87547 -0.530289 0
M  V30 6753 H 639.716 3.09687 0.387385 0
M  V30 6754 N 640.017 0.126909 1.57088 0
M  V30 6755 C 641.247 -0.535892 1.99529 0
M  V30 6756 C 641.655 -1.60259 1.00566 0
M  V30 6757 O 640.998 -1.83698 -0.00843269 0
M  V30 6758 C 641.06 -1.21374 3.38391 0
M  V30 6759 C 640.724 -0.294044 4.56053 0
M  V30 6760 C 641.721 0.470454 5.17767 0
M  V30 6761 C 639.406 -0.202808 5.0189 0
M  V30 6762 C 641.4 1.31384 6.23712 0
M  V30 6763 C 639.087 0.644203 6.07695 0
M  V30 6764 C 640.085 1.40115 6.68473 0
M  V30 6765 O 639.773 2.23408 7.72233 0
M  V30 6766 H 639.505 -0.145799 0.66009 0
M  V30 6767 H 642.059 0.212441 2.04298 0
M  V30 6768 H 640.289 -2.00931 3.30399 0
M  V30 6769 H 641.978 -1.77424 3.65069 0
M  V30 6770 H 642.744 0.409884 4.83265 0
M  V30 6771 H 638.623 -0.781688 4.54324 0
M  V30 6772 H 642.167 1.90514 6.71081 0
M  V30 6773 H 638.064 0.706137 6.41626 0
M  V30 6774 H 638.832 2.16436 7.89365 0
M  V30 6775 N 641.495 -1.56914 -0.146875 0
M  V30 6776 C 642.425 -2.01308 -1.1831 0
M  V30 6777 C 643.406 -0.892664 -1.44795 0
M  V30 6778 O 644.591 -1.16048 -1.55713 0
M  V30 6779 C 641.721 -2.3938 -2.51624 0
M  V30 6780 C 640.675 -3.54608 -2.3966 0
M  V30 6781 C 640.001 -3.78493 -3.77686 0
M  V30 6782 C 641.301 -4.87269 -1.88058 0
M  V30 6783 H 642.995 -2.88123 -0.813964 0
M  V30 6784 H 640.541 -1.38615 -0.3901 0
M  V30 6785 H 642.494 -2.69037 -3.24341 0
M  V30 6786 H 641.218 -1.49502 -2.90373 0
M  V30 6787 H 639.877 -3.25116 -1.69396 0
M  V30 6788 H 639.525 -2.85866 -4.13871 0
M  V30 6789 H 639.225 -4.56039 -3.70543 0
M  V30 6790 H 640.749 -4.10576 -4.51951 0
M  V30 6791 H 642.163 -5.15644 -2.50568 0
M  V30 6792 H 640.56 -5.68622 -1.91805 0
M  V30 6793 H 641.63 -4.77634 -0.836277 0
M  V30 6794 N 642.974 0.416227 -1.52004 0
M  V30 6795 C 644.221 1.16383 -1.65714 0
M  V30 6796 C 644.549 1.9068 -0.383594 0
M  V30 6797 O 643.804 1.85174 0.633185 0
M  V30 6798 C 644.103 2.18923 -2.82502 0
M  V30 6799 C 643.769 1.61485 -4.20991 0
M  V30 6800 C 642.431 1.45545 -4.58661 0
M  V30 6801 C 644.783 1.19468 -5.07323 0
M  V30 6802 C 642.111 0.860937 -5.80349 0
M  V30 6803 C 644.463 0.614386 -6.29609 0
M  V30 6804 C 643.127 0.442056 -6.66035 0
M  V30 6805 H 642.397 0.425875 -0.606392 0
M  V30 6806 H 645.044 0.45199 -1.8609 0
M  V30 6807 H 643.349 2.96225 -2.56433 0
M  V30 6808 H 645.046 2.76628 -2.90307 0
M  V30 6809 H 641.636 1.74873 -3.91302 0
M  V30 6810 H 645.82 1.30596 -4.78809 0
M  V30 6811 H 641.076 0.715372 -6.072 0
M  V30 6812 H 645.25 0.280393 -6.95835 0
M  V30 6813 H 642.877 -0.0207218 -7.60197 0
M  V30 6814 N 644.452 1.42507 0.673017 0
M  V30 6815 C 645.384 1.42074 1.79854 0
M  V30 6816 C 646.397 0.319569 1.59633 0
M  V30 6817 O 647.586 0.582769 1.68719 0
M  V30 6818 C 644.686 1.19886 3.16987 0
M  V30 6819 C 643.859 2.42471 3.64042 0
M  V30 6820 C 642.918 2.15802 4.79913 0
M  V30 6821 O 641.944 2.89015 4.90366 0
M  V30 6822 N 643.146 1.16225 5.68746 0
M  V30 6823 H 645.911 2.3909 1.8071 0
M  V30 6824 H 643.472 1.37409 0.856171 0
M  V30 6825 H 645.464 0.999591 3.92161 0
M  V30 6826 H 644.034 0.313879 3.1102 0
M  V30 6827 H 643.254 2.77954 2.79526 0
M  V30 6828 H 644.542 3.24097 3.92223 0
M  V30 6829 H 643.94 0.556756 5.62954 0
M  V30 6830 H 642.497 1.02285 6.43724 0
M  V30 6831 N 645.93 -0.909495 1.28709 0
M  V30 6832 C 647.341 -1.47419 1.14563 0
M  V30 6833 C 647.692 -1.94432 -0.262832 0
M  V30 6834 O 646.817 -1.82842 -1.15748 0
M  V30 6835 C 647.412 -2.67933 2.07358 0
M  V30 6836 C 645.971 -3.20568 1.97264 0
M  V30 6837 C 645.118 -1.93269 1.98852 0
M  V30 6838 H 648.069 -0.721787 1.41336 0
M  V30 6839 H 648.09 -3.43339 1.64007 0
M  V30 6840 H 647.602 -2.33685 3.09859 0
M  V30 6841 H 645.703 -3.59531 0.978157 0
M  V30 6842 H 645.816 -3.85529 2.84436 0
M  V30 6843 H 644.18 -2.10553 1.43317 0
M  V30 6844 H 644.963 -1.61312 3.0304 0
M  V30 6845 N 647.408 -1.11026 -1.11852 0
M  V30 6846 C 648.685 -0.768347 -1.79877 0
M  V30 6847 C 649.065 0.744261 -1.97545 0
M  V30 6848 O 648.413 1.67271 -1.55669 0
M  V30 6849 C 648.623 -1.52648 -3.13846 0
M  V30 6850 C 649.971 -1.70297 -3.88953 0
M  V30 6851 O 650.995 -1.49037 -3.23522 0
M  V30 6852 O 649.854 -2.05593 -5.06353 0
M  V30 6853 H 646.948 -0.277891 -0.778913 0
M  V30 6854 H 649.494 -1.21343 -1.18633 0
M  V30 6855 H 648.266 -2.55564 -2.96315 0
M  V30 6856 H 647.889 -1.07466 -3.82801 0
M  V30 6857 N 648.886 1.2938 -0.899927 0
M  V30 6858 C 649.833 2.27713 -0.376243 0
M  V30 6859 C 650.803 1.57016 0.541774 0
M  V30 6860 O 651.988 1.84997 0.466966 0
M  V30 6861 C 649.128 3.42889 0.39 0
M  V30 6862 C 648.241 4.28369 -0.558938 0
M  V30 6863 C 647.376 5.30726 0.224379 0
M  V30 6864 C 646.415 6.07862 -0.719068 0
M  V30 6865 N 645.552 7.02094 0.0298569 0
M  V30 6866 H 650.392 2.71888 -1.21988 0
M  V30 6867 H 647.929 1.33724 -0.612879 0
M  V30 6868 H 649.887 4.08443 0.850314 0
M  V30 6869 H 648.517 2.99743 1.19809 0
M  V30 6870 H 647.569 3.62986 -1.13777 0
M  V30 6871 H 648.881 4.82068 -1.2811 0
M  V30 6872 H 648.035 6.02098 0.745881 0
M  V30 6873 H 646.774 4.77759 0.979674 0
M  V30 6874 H 645.779 5.35353 -1.25207 0
M  V30 6875 H 647.004 6.62917 -1.4737 0
M  V30 6876 H 644.95 6.51496 0.767415 0
M  V30 6877 H 644.867 7.5335 -0.632391 0
M  V30 6878 H 646.135 7.77685 0.531615 0
M  V30 6879 N 650.364 0.662433 1.43002 0
M  V30 6880 C 651.296 -0.062326 2.29115 0
M  V30 6881 C 652.309 -0.777926 1.43011 0
M  V30 6882 O 653.498 -0.634146 1.66856 0
M  V30 6883 C 650.598 -1.11163 3.2015 0
M  V30 6884 C 649.771 -0.472327 4.34842 0
M  V30 6885 C 648.83 -1.41974 5.06685 0
M  V30 6886 O 647.856 -0.924795 5.61637 0
M  V30 6887 N 649.058 -2.75345 5.11043 0
M  V30 6888 H 651.823 0.676838 2.91957 0
M  V30 6889 H 649.384 0.505907 1.53793 0
M  V30 6890 H 651.376 -1.74643 3.65078 0
M  V30 6891 H 649.946 -1.75266 2.58845 0
M  V30 6892 H 649.166 0.341751 3.92716 0
M  V30 6893 H 650.454 -0.0264381 5.08793 0
M  V30 6894 H 649.852 -3.18108 4.67786 0
M  V30 6895 H 648.409 -3.34105 5.59658 0
M  V30 6896 N 651.842 -1.52309 0.404946 0
M  V30 6897 C 653.072 -2.05886 -0.171569 0
M  V30 6898 C 653.48 -1.27527 -1.39762 0
M  V30 6899 O 652.823 -0.319215 -1.80905 0
M  V30 6900 C 652.885 -3.54609 -0.590983 0
M  V30 6901 C 652.549 -4.53989 0.523757 0
M  V30 6902 C 653.546 -5.01084 1.38604 0
M  V30 6903 C 651.231 -4.97465 0.695255 0
M  V30 6904 C 653.225 -5.90295 2.4048 0
M  V30 6905 C 650.912 -5.86473 1.71733 0
M  V30 6906 C 651.91 -6.32782 2.57051 0
M  V30 6907 O 651.598 -7.20029 3.57509 0
M  V30 6908 H 651.33 -0.675508 -0.0257763 0
M  V30 6909 H 653.884 -1.97238 0.573278 0
M  V30 6910 H 652.114 -3.60929 -1.38805 0
M  V30 6911 H 653.803 -3.90853 -1.09494 0
M  V30 6912 H 654.569 -4.68214 1.26492 0
M  V30 6913 H 650.448 -4.60982 0.0408447 0
M  V30 6914 H 653.992 -6.26363 3.07108 0
M  V30 6915 H 649.889 -6.18756 1.83877 0
M  V30 6916 H 650.657 -7.3813 3.53703 0
M  V30 6917 N 653.32 -0.135238 -1.57019 0
M  V30 6918 C 654.597 0.563227 -1.87316 0
M  V30 6919 C 654.977 1.83749 -1.03921 0
M  V30 6920 O 654.325 2.2817 -0.122675 0
M  V30 6921 C 654.535 0.840031 -3.3874 0
M  V30 6922 C 655.883 1.18598 -4.077 0
M  V30 6923 O 656.907 0.92977 -3.43851 0
M  V30 6924 O 655.766 1.66758 -5.20436 0
M  V30 6925 H 652.86 0.285971 -0.775983 0
M  V30 6926 H 655.406 -0.170965 -1.68837 0
M  V30 6927 H 654.178 -0.0622785 -3.9125 0
M  V30 6928 H 653.801 1.62882 -3.62706 0
M  V30 6929 N 654.798 1.5699 0.138552 0
M  V30 6930 C 656.044 1.84081 0.85099 0
M  V30 6931 C 656.377 0.718107 1.80435 0
M  V30 6932 O 655.652 -0.277633 1.92508 0
M  V30 6933 C 655.935 3.21699 1.61808 0
M  V30 6934 C 655.788 4.44544 0.685633 0
M  V30 6935 C 657.107 3.5664 2.57868 0
M  V30 6936 H 654.226 0.669592 0.307922 0
M  V30 6937 H 656.868 1.89646 0.11588 0
M  V30 6938 H 655.018 3.17086 2.24474 0
M  V30 6939 H 656.69 4.61248 0.0693179 0
M  V30 6940 H 654.933 4.338 -0.00421993 0
M  V30 6941 H 655.604 5.3746 1.25858 0
M  V30 6942 H 658.08 3.61918 2.05316 0
M  V30 6943 H 656.956 4.53946 3.08584 0
M  V30 6944 H 657.217 2.83036 3.39622 0
M  V30 6945 N 656.276 -0.40816 1.52223 0
M  V30 6946 C 657.501 -1.18127 1.70472 0
M  V30 6947 C 657.926 -1.83491 0.41384 0
M  V30 6948 O 657.284 -1.70047 -0.628778 0
M  V30 6949 C 657.332 -2.21935 2.84213 0
M  V30 6950 O 656.436 -3.28099 2.4985 0
M  V30 6951 H 655.777 -0.344781 0.56747 0
M  V30 6952 H 658.307 -0.478328 1.9893 0
M  V30 6953 H 658.317 -2.66248 3.09153 0
M  V30 6954 H 656.992 -1.73744 3.7787 0
M  V30 6955 H 655.569 -2.89058 2.35584 0
M  V30 6956 N 657.755 -1.42862 -0.66545 0
M  V30 6957 C 658.985 -1.47032 -1.45138 0
M  V30 6958 C 659.393 -0.0829977 -1.89018 0
M  V30 6959 O 658.736 0.914551 -1.59316 0
M  V30 6960 C 658.798 -2.34302 -2.72659 0
M  V30 6961 C 658.462 -3.82034 -2.50796 0
M  V30 6962 C 659.459 -4.73453 -2.14799 0
M  V30 6963 C 657.144 -4.26397 -2.655 0
M  V30 6964 C 659.138 -6.07228 -1.93785 0
M  V30 6965 C 656.825 -5.6023 -2.44103 0
M  V30 6966 C 657.823 -6.50462 -2.08299 0
M  V30 6967 O 657.511 -7.8182 -1.87116 0
M  V30 6968 H 657.243 -0.501969 -0.452772 0
M  V30 6969 H 659.797 -1.88137 -0.82423 0
M  V30 6970 H 658.027 -1.88063 -3.37889 0
M  V30 6971 H 659.716 -2.29818 -3.34572 0
M  V30 6972 H 660.482 -4.4046 -2.03026 0
M  V30 6973 H 656.361 -3.56448 -2.92345 0
M  V30 6974 H 659.905 -6.7762 -1.65763 0
M  V30 6975 H 655.802 -5.92793 -2.55475 0
M  V30 6976 H 656.57 -7.93274 -2.01639 0
M  V30 6977 N 659.233 0.902656 -1.29189 0
M  V30 6978 C 660.51 1.63296 -1.07674 0
M  V30 6979 C 660.89 2.07649 0.380137 0
M  V30 6980 O 660.238 1.82997 1.36837 0
M  V30 6981 C 660.448 2.81603 -2.06158 0
M  V30 6982 C 661.796 3.52359 -2.36914 0
M  V30 6983 O 662.82 2.91767 -2.04329 0
M  V30 6984 O 661.679 4.61586 -2.92576 0
M  V30 6985 H 658.773 0.716889 -0.41231 0
M  V30 6986 H 661.319 0.950984 -1.4055 0
M  V30 6987 H 660.091 2.46004 -3.04299 0
M  V30 6988 H 659.714 3.57508 -1.73993 0
M  V30 6989 N 660.711 1.11618 1.11262 0
M  V30 6990 C 661.939 0.888739 1.8684 0
M  V30 6991 C 662.354 -0.561558 1.80255 0
M  V30 6992 O 661.711 -1.38782 1.18515 0
M  V30 6993 C 661.762 1.34422 3.35579 0
M  V30 6994 O 661.483 2.73766 3.42029 0
M  V30 6995 C 662.984 1.15246 4.28058 0
M  V30 6996 H 660.204 0.318152 0.590779 0
M  V30 6997 H 662.748 1.48398 1.40707 0
M  V30 6998 H 660.903 0.79239 3.7921 0
M  V30 6999 H 661.317 2.9355 4.34659 0
M  V30 7000 H 662.791 1.52015 5.30656 0
M  V30 7001 H 663.268 0.0922007 4.39103 0
M  V30 7002 H 663.874 1.69136 3.90222 0
M  V30 7003 N 662.189 -1.289 0.906776 0
M  V30 7004 C 663.437 -1.94883 0.535266 0
M  V30 7005 C 663.758 -1.71784 -0.922791 0
M  V30 7006 O 663.028 -1.05359 -1.65156 0
M  V30 7007 H 661.608 -0.721109 0.194962 0
M  V30 7008 H 664.27 -1.57018 1.15461 0
M  V30 7009 H 663.366 -3.03591 0.723821 0
M  V30 7010 N 663.667 -0.670007 -1.42649 0
M  V30 7011 C 664.944 -0.119451 -1.95235 0
M  V30 7012 C 665.324 1.36461 -1.61064 0
M  V30 7013 O 664.672 2.09843 -0.904329 0
M  V30 7014 C 664.882 -0.383498 -3.46887 0
M  V30 7015 C 666.23 -0.297431 -4.23557 0
M  V30 7016 O 667.254 -0.31698 -3.54787 0
M  V30 7017 O 666.113 -0.235507 -5.45992 0
M  V30 7018 H 663.207 -8.85474e-05 -0.827 0
M  V30 7019 H 665.753 -0.744406 -1.52501 0
M  V30 7020 H 664.525 -1.41174 -3.64946 0
M  V30 7021 H 664.148 0.273702 -3.96657 0
M  V30 7022 N 665.145 1.52092 -0.413018 0
M  V30 7023 C 666.092 2.27119 0.410558 0
M  V30 7024 C 667.062 1.29692 1.03774 0
M  V30 7025 O 668.247 1.58561 1.06128 0
M  V30 7026 C 665.387 3.09863 1.51918 0
M  V30 7027 C 664.5 4.22252 0.912528 0
M  V30 7028 C 663.635 4.92348 1.99417 0
M  V30 7029 C 662.674 5.96694 1.36466 0
M  V30 7030 N 661.811 6.60292 2.38661 0
M  V30 7031 H 666.651 2.97067 -0.235661 0
M  V30 7032 H 664.188 1.46542 -0.128055 0
M  V30 7033 H 666.146 3.56144 2.17295 0
M  V30 7034 H 664.776 2.42078 2.13537 0
M  V30 7035 H 663.828 3.80113 0.147697 0
M  V30 7036 H 665.14 4.9709 0.412717 0
M  V30 7037 H 664.294 5.42054 2.72512 0
M  V30 7038 H 663.033 4.17087 2.52764 0
M  V30 7039 H 662.038 5.46304 0.61906 0
M  V30 7040 H 663.263 6.73899 0.838827 0
M  V30 7041 H 661.209 5.87858 2.91134 0
M  V30 7042 H 661.126 7.30816 1.93503 0
M  V30 7043 H 662.394 7.14635 3.11314 0
M  V30 7044 N 666.623 0.143563 1.56945 0
M  V30 7045 C 667.586 -0.783295 2.154 0
M  V30 7046 C 668.586 -1.17763 1.09492 0
M  V30 7047 O 669.776 -1.09912 1.35148 0
M  V30 7048 C 666.908 -2.06248 2.7143 0
M  V30 7049 H 668.101 -0.274863 2.98638 0
M  V30 7050 H 665.654 -0.105859 1.55941 0
M  V30 7051 H 666.389 -2.61466 1.91849 0
M  V30 7052 H 666.174 -1.78897 3.4891 0
M  V30 7053 H 667.664 -2.72453 3.16479 0
M  V30 7054 N 668.101 -1.57061 -0.130224 0
M  V30 7055 C 669.35 -1.83446 -0.838488 0
M  V30 7056 C 669.663 -0.727468 -1.81569 0
M  V30 7057 O 670.869 -0.877394 -2.56932 0
M  V30 7058 C 669.325 -3.25201 -1.54182 0
M  V30 7059 C 668.933 -4.4388 -0.606178 0
M  V30 7060 C 670.677 -3.60844 -2.23588 0
M  V30 7061 C 668.584 -5.76661 -1.31209 0
M  V30 7062 H 667.514 -0.684185 -0.316871 0
M  V30 7063 H 670.165 -1.83273 -0.0912059 0
M  V30 7064 H 668.547 -3.1981 -2.33533 0
M  V30 7065 H 669.721 -4.60545 0.153308 0
M  V30 7066 H 668.036 -4.16395 -0.0196705 0
M  V30 7067 H 670.633 -4.57313 -2.77072 0
M  V30 7068 H 670.976 -2.87724 -3.00867 0
M  V30 7069 H 671.509 -3.67971 -1.51137 0
M  V30 7070 H 668.248 -6.52922 -0.580823 0
M  V30 7071 H 667.768 -5.63902 -2.04387 0
M  V30 7072 H 669.447 -6.20035 -1.8484 0
M  V30 7073 N 669.579 0.400081 -1.52437 0
M  V30 7074 C 670.511 1.50729 -1.72666 0
M  V30 7075 C 671.524 1.51058 -0.607075 0
M  V30 7076 O 672.713 1.5516 -0.88248 0
M  V30 7077 C 669.813 2.89604 -1.76019 0
M  V30 7078 C 668.986 3.13365 -3.05157 0
M  V30 7079 C 668.045 4.32163 -3.00203 0
M  V30 7080 O 667.071 4.29004 -3.74092 0
M  V30 7081 N 668.273 5.3776 -2.18619 0
M  V30 7082 H 671.038 1.33767 -2.68191 0
M  V30 7083 H 668.599 0.58948 -1.50787 0
M  V30 7084 H 670.591 3.67159 -1.70225 0
M  V30 7085 H 669.161 2.99979 -0.879284 0
M  V30 7086 H 668.381 2.23774 -3.24529 0
M  V30 7087 H 669.669 3.26089 -3.90568 0
M  V30 7088 H 669.067 5.43177 -1.58035 0
M  V30 7089 H 667.624 6.14023 -2.18674 0
M  V30 7090 N 671.057 1.43213 0.657864 0
M  V30 7091 C 672.297 1.46083 1.42965 0
M  V30 7092 C 672.661 0.0809712 1.91829 0
M  V30 7093 O 673.862 -0.0156305 2.68795 0
M  V30 7094 C 672.133 2.47044 2.58271 0
M  V30 7095 S 673.692 2.68753 3.46868 0
M  V30 7096 H 670.51 0.517015 0.488074 0
M  V30 7097 H 673.112 1.79945 0.764213 0
M  V30 7098 H 671.816 3.46044 2.20639 0
M  V30 7099 H 671.347 2.14665 3.2967 0
M  V30 7100 H 673.362 1.98329 4.54841 0
M  V30 7101 N 672.536 -0.895792 1.29666 0
M  V30 7102 C 673.784 -1.64339 1.17631 0
M  V30 7103 C 674.105 -1.93099 -0.271643 0
M  V30 7104 O 673.375 -1.55981 -1.18518 0
M  V30 7105 H 671.955 -0.609162 0.432354 0
M  V30 7106 H 674.617 -1.07389 1.62646 0
M  V30 7107 H 673.713 -2.59815 1.72924 0
M  V30 7108 N 674.014 -1.12206 -1.10668 0
M  V30 7109 C 675.43 -0.857619 -1.346 0
M  V30 7110 C 675.63 0.513542 -1.94846 0
M  V30 7111 O 674.686 1.26273 -2.18658 0
M  V30 7112 C 675.999 -1.97212 -2.26998 0
M  V30 7113 C 677.547 -2.00272 -2.40542 0
M  V30 7114 C 678.022 -3.10948 -3.36267 0
M  V30 7115 N 679.513 -3.10375 -3.43834 0
M  V30 7116 C 680.248 -3.92651 -4.17867 0
M  V30 7117 N 679.744 -4.84911 -4.94807 0
M  V30 7118 N 681.537 -3.80798 -4.1346 0
M  V30 7119 H 673.688 -2.00558 -0.699306 0
M  V30 7120 H 675.951 -0.872612 -0.370477 0
M  V30 7121 H 675.657 -2.96002 -1.89936 0
M  V30 7122 H 675.531 -1.87521 -3.27286 0
M  V30 7123 H 677.918 -1.02103 -2.76874 0
M  V30 7124 H 677.999 -2.14037 -1.40077 0
M  V30 7125 H 677.643 -4.09348 -3.00661 0
M  V30 7126 H 677.573 -2.94421 -4.36605 0
M  V30 7127 H 680.064 -2.43536 -2.88961 0
M  V30 7128 H 680.377 -5.44207 -5.48688 0
M  V30 7129 H 678.722 -4.88926 -4.93939 0
M  V30 7130 H 681.913 -3.08058 -3.52445 0
M  V30 7131 H 682.086 -4.4515 -4.70898 0
M  V30 7132 N 675.492 1.28418 -0.913599 0
M  V30 7133 C 676.442 2.24928 -0.373042 0
M  V30 7134 C 677.426 1.52444 0.514753 0
M  V30 7135 O 678.618 1.73414 0.3545 0
M  V30 7136 C 675.747 3.41124 0.385896 0
M  V30 7137 C 674.833 4.20929 -0.51761 0
M  V30 7138 N 675.224 4.78777 -1.63113 0
M  V30 7139 C 673.522 4.44865 -0.317969 0
M  V30 7140 C 674.223 5.38822 -2.19193 0
M  V30 7141 N 673.199 5.22974 -1.48321 0
M  V30 7142 H 677.001 2.67224 -1.22346 0
M  V30 7143 H 674.515 1.43187 -0.766236 0
M  V30 7144 H 676.512 4.09347 0.789997 0
M  V30 7145 H 675.172 3.00362 1.23341 0
M  V30 7146 H 676.183 4.77148 -2.01372 0
M  V30 7147 H 672.86 4.14614 0.49004 0
M  V30 7148 H 674.25 5.94615 -3.12861 0
M  V30 7149 N 676.97 0.677563 1.42291 0
M  V30 7150 C 678.216 0.201272 2.01799 0
M  V30 7151 C 678.549 -1.19004 1.53465 0
M  V30 7152 O 677.824 -1.79953 0.738039 0
M  V30 7153 C 678.107 0.238968 3.59306 0
M  V30 7154 C 677.96 1.66594 4.17812 0
M  V30 7155 C 679.279 -0.411287 4.38174 0
M  V30 7156 H 676.398 0.0746114 0.733214 0
M  V30 7157 H 679.04 0.862872 1.69276 0
M  V30 7158 H 677.19 -0.324368 3.87144 0
M  V30 7159 H 678.862 2.28173 4.00917 0
M  V30 7160 H 677.105 2.20576 3.73536 0
M  V30 7161 H 677.776 1.64398 5.26951 0
M  V30 7162 H 680.252 0.0682804 4.16044 0
M  V30 7163 H 679.128 -0.354286 5.47755 0
M  V30 7164 H 679.389 -1.4893 4.1626 0
M  V30 7165 N 678.448 -1.51871 0.421078 0
M  V30 7166 C 679.725 -1.9447 -0.20993 0
M  V30 7167 C 680.105 -1.35875 -1.61558 0
M  V30 7168 O 679.453 -0.539294 -2.22045 0
M  V30 7169 C 679.663 -3.48402 -0.204165 0
M  V30 7170 C 681.011 -4.2254 -0.417696 0
M  V30 7171 O 682.035 -3.55074 -0.282999 0
M  V30 7172 O 680.894 -5.422 -0.684239 0
M  V30 7173 H 677.988 -0.815283 -0.138718 0
M  V30 7174 H 680.534 -1.62832 0.477884 0
M  V30 7175 H 679.306 -3.83464 0.779183 0
M  V30 7176 H 678.929 -3.86436 -0.935576 0
M  V30 7177 N 679.926 -0.151884 -1.56866 0
M  V30 7178 C 681.175 0.497992 -1.95456 0
M  V30 7179 C 681.488 1.6569 -1.03953 0
M  V30 7180 O 682.694 2.37173 -1.32142 0
M  V30 7181 C 681.15 0.93732 -3.4748 0
M  V30 7182 C 680.758 -0.194921 -4.47576 0
M  V30 7183 C 682.502 1.55671 -3.94926 0
M  V30 7184 C 680.409 0.26295 -5.90815 0
M  V30 7185 H 679.339 0.189811 -0.729717 0
M  V30 7186 H 681.99 -0.237011 -1.81963 0
M  V30 7187 H 680.372 1.72773 -3.56322 0
M  V30 7188 H 681.546 -0.971951 -4.50433 0
M  V30 7189 H 679.861 -0.72303 -4.10075 0
M  V30 7190 H 682.458 1.91099 -4.99385 0
M  V30 7191 H 682.801 2.44748 -3.36755 0
M  V30 7192 H 683.334 0.831109 -3.89021 0
M  V30 7193 H 680.073 -0.592568 -6.52816 0
M  V30 7194 H 679.593 1.00575 -5.91308 0
M  V30 7195 H 681.272 0.713333 -6.43056 0
M  V30 7196 N 681.404 1.57128 0.121893 0
M  V30 7197 C 682.651 1.847 0.830188 0
M  V30 7198 C 682.979 0.736543 1.80015 0
M  V30 7199 O 682.234 -0.272358 1.93796 0
M  V30 7200 C 682.533 3.1874 1.61677 0
M  V30 7201 C 682.199 4.43901 0.791361 0
M  V30 7202 C 680.861 4.77887 0.563731 0
M  V30 7203 C 683.213 5.20753 0.215823 0
M  V30 7204 C 680.541 5.86168 -0.249737 0
M  V30 7205 C 682.893 6.29891 -0.584821 0
M  V30 7206 C 681.557 6.6241 -0.822794 0
M  V30 7207 H 680.827 0.675866 0.303787 0
M  V30 7208 H 683.474 1.91276 0.0926894 0
M  V30 7209 H 681.779 3.07728 2.42509 0
M  V30 7210 H 683.476 3.37295 2.16872 0
M  V30 7211 H 680.066 4.17272 0.978867 0
M  V30 7212 H 684.25 4.94851 0.378907 0
M  V30 7213 H 679.506 6.0979 -0.44336 0
M  V30 7214 H 683.68 6.88624 -1.03779 0
M  V30 7215 H 681.307 7.46147 -1.45496 0
M  V30 7216 N 682.882 -0.391992 1.52647 0
M  V30 7217 C 683.829 -1.47866 1.77213 0
M  V30 7218 C 684.799 -1.54286 0.615223 0
M  V30 7219 O 685.984 -1.7059 0.854622 0
M  V30 7220 C 683.124 -2.85129 1.94411 0
M  V30 7221 C 682.237 -2.87883 3.22098 0
M  V30 7222 C 681.372 -4.16553 3.29631 0
M  V30 7223 C 680.411 -4.13348 4.51453 0
M  V30 7224 N 679.548 -5.33619 4.56284 0
M  V30 7225 H 684.388 -1.26219 2.6995 0
M  V30 7226 H 681.925 -0.612367 1.33748 0
M  V30 7227 H 683.883 -3.64833 2.02367 0
M  V30 7228 H 682.513 -3.05232 1.05038 0
M  V30 7229 H 681.565 -2.00567 3.23229 0
M  V30 7230 H 682.877 -2.81382 4.11856 0
M  V30 7231 H 682.031 -5.0466 3.36753 0
M  V30 7232 H 680.77 -4.25773 2.37842 0
M  V30 7233 H 679.775 -3.23629 4.44459 0
M  V30 7234 H 681 -4.05754 5.44555 0
M  V30 7235 H 678.946 -5.43474 3.67385 0
M  V30 7236 H 678.863 -5.29182 5.3991 0
M  V30 7237 H 680.131 -6.23632 4.67657 0
M  V30 7238 N 684.36 -1.4356 -0.65026 0
M  V30 7239 C 685.607 -1.45333 -1.41012 0
M  V30 7240 C 685.935 -0.0787282 -1.94341 0
M  V30 7241 O 685.19 0.916715 -1.72901 0
M  V30 7242 C 685.489 -2.44528 -2.60654 0
M  V30 7243 C 685.155 -3.90331 -2.25727 0
M  V30 7244 C 683.817 -4.3004 -2.15914 0
M  V30 7245 C 686.169 -4.822 -1.97821 0
M  V30 7246 C 683.497 -5.59568 -1.76354 0
M  V30 7247 C 685.849 -6.12095 -1.59759 0
M  V30 7248 C 684.513 -6.50778 -1.48473 0
M  V30 7249 H 683.783 -0.531813 -0.516 0
M  V30 7250 H 686.43 -1.76657 -0.739219 0
M  V30 7251 H 684.735 -2.06619 -3.3289 0
M  V30 7252 H 686.432 -2.43155 -3.18868 0
M  V30 7253 H 683.022 -3.58905 -2.34276 0
M  V30 7254 H 687.206 -4.5229 -2.04322 0
M  V30 7255 H 682.462 -5.88376 -1.66205 0
M  V30 7256 H 686.636 -6.82751 -1.37198 0
M  V30 7257 H 684.263 -7.5105 -1.17591 0
M  V30 7258 N 685.838 0.888903 -1.30139 0
M  V30 7259 C 687.084 1.64288 -1.19922 0
M  V30 7260 C 687.439 1.90839 0.244561 0
M  V30 7261 O 686.732 1.51544 1.17239 0
M  V30 7262 C 686.926 2.99041 -1.95728 0
M  V30 7263 C 686.755 2.85644 -3.47329 0
M  V30 7264 C 685.525 2.85836 -4.16685 0
M  V30 7265 C 687.723 2.6188 -4.42632 0
M  V30 7266 N 685.705 2.63289 -5.54574 0
M  V30 7267 C 687.076 2.48418 -5.68057 0
M  V30 7268 C 689.131 2.47073 -4.32272 0
M  V30 7269 C 687.834 2.21655 -6.84296 0
M  V30 7270 C 689.86 2.21695 -5.48275 0
M  V30 7271 C 689.222 2.09007 -6.72678 0
M  V30 7272 H 685.321 0.606315 -0.493868 0
M  V30 7273 H 687.905 1.0478 -1.64102 0
M  V30 7274 H 686.076 3.56589 -1.53945 0
M  V30 7275 H 687.808 3.63607 -1.77685 0
M  V30 7276 H 684.563 2.97521 -3.68481 0
M  V30 7277 H 684.987 2.55039 -6.27124 0
M  V30 7278 H 689.629 2.55621 -3.36776 0
M  V30 7279 H 687.347 2.11845 -7.79838 0
M  V30 7280 H 690.933 2.11067 -5.42164 0
M  V30 7281 H 689.813 1.89643 -7.60924 0
M  V30 7282 N 687.317 1.12792 1.10072 0
M  V30 7283 C 688.247 0.821688 2.18565 0
M  V30 7284 C 689.228 -0.21612 1.68721 0
M  V30 7285 O 690.413 -0.0764932 1.94049 0
M  V30 7286 C 687.543 0.279624 3.46172 0
M  V30 7287 C 686.497 1.25092 4.09312 0
M  V30 7288 C 685.823 0.568916 5.31665 0
M  V30 7289 C 687.123 2.60699 4.52585 0
M  V30 7290 H 688.817 1.72888 2.44438 0
M  V30 7291 H 686.363 0.832702 1.17482 0
M  V30 7292 H 688.316 0.053099 4.21367 0
M  V30 7293 H 687.04 -0.662929 3.19801 0
M  V30 7294 H 685.699 1.46332 3.36129 0
M  V30 7295 H 685.347 -0.378898 5.01571 0
M  V30 7296 H 685.047 1.21687 5.74862 0
M  V30 7297 H 686.571 0.351517 6.09587 0
M  V30 7298 H 687.985 2.43465 5.19035 0
M  V30 7299 H 686.382 3.21608 5.06644 0
M  V30 7300 H 687.452 3.1886 3.65317 0
M  V30 7301 N 688.795 -1.27931 0.920396 0
M  V30 7302 C 689.728 -2.2537 0.358285 0
M  V30 7303 C 690.706 -1.53328 -0.541242 0
M  V30 7304 O 691.89 -1.82196 -0.483399 0
M  V30 7305 C 689.017 -3.35178 -0.487193 0
M  V30 7306 C 688.063 -4.25079 0.347881 0
M  V30 7307 S 688.896 -5.05792 1.75883 0
M  V30 7308 C 690.052 -6.19089 0.920832 0
M  V30 7309 H 690.285 -2.72701 1.18413 0
M  V30 7310 H 687.818 -1.36474 0.722088 0
M  V30 7311 H 689.776 -3.98895 -0.96916 0
M  V30 7312 H 688.437 -2.865 -1.28749 0
M  V30 7313 H 687.63 -5.03113 -0.298912 0
M  V30 7314 H 687.232 -3.66119 0.763748 0
M  V30 7315 H 689.524 -6.77326 0.15349 0
M  V30 7316 H 690.467 -6.8803 1.67394 0
M  V30 7317 H 690.875 -5.62573 0.466069 0
M  V30 7318 N 690.273 -0.685099 -1.4193 0
M  V30 7319 C 691.519 -0.220688 -2.02199 0
M  V30 7320 C 691.874 1.16329 -1.5325 0
M  V30 7321 O 691.167 1.77175 -0.729345 0
M  V30 7322 C 691.361 -0.206154 -3.56805 0
M  V30 7323 C 691.19 -1.58718 -4.2076 0
M  V30 7324 C 689.96 -2.18747 -4.55497 0
M  V30 7325 C 692.158 -2.53182 -4.47664 0
M  V30 7326 N 690.14 -3.49523 -5.04685 0
M  V30 7327 C 691.511 -3.68625 -4.98514 0
M  V30 7328 C 693.566 -2.51582 -4.29664 0
M  V30 7329 C 692.269 -4.82734 -5.33255 0
M  V30 7330 C 694.295 -3.64795 -4.65487 0
M  V30 7331 C 693.657 -4.78967 -5.16498 0
M  V30 7332 H 689.756 -0.12591 -0.771797 0
M  V30 7333 H 692.34 -0.900316 -1.72634 0
M  V30 7334 H 690.511 0.442923 -3.85866 0
M  V30 7335 H 692.243 0.272103 -4.03784 0
M  V30 7336 H 688.998 -1.71135 -4.41599 0
M  V30 7337 H 689.422 -4.1653 -5.33696 0
M  V30 7338 H 694.064 -1.64535 -3.89472 0
M  V30 7339 H 691.782 -5.7045 -5.72375 0
M  V30 7340 H 695.368 -3.64796 -4.53227 0
M  V30 7341 H 694.248 -5.6512 -5.437 0
M  V30 7342 N 691.751 1.51645 -0.429126 0
M  V30 7343 C 692.698 2.27542 0.386446 0
M  V30 7344 C 693.668 1.30786 1.02393 0
M  V30 7345 O 694.853 1.59678 1.0444 0
M  V30 7346 C 691.993 3.11457 1.48623 0
M  V30 7347 C 691.106 4.23196 0.867691 0
M  V30 7348 C 690.241 4.94435 1.94183 0
M  V30 7349 C 689.28 5.98108 1.30129 0
M  V30 7350 N 688.417 6.62786 2.31644 0
M  V30 7351 H 693.257 2.968 -0.267155 0
M  V30 7352 H 690.794 1.46397 -0.143591 0
M  V30 7353 H 692.752 3.58429 2.13506 0
M  V30 7354 H 691.382 2.44329 2.10957 0
M  V30 7355 H 690.434 3.80248 0.107373 0
M  V30 7356 H 691.746 4.97499 0.35997 0
M  V30 7357 H 690.9 5.44914 2.66747 0
M  V30 7358 H 689.639 4.19744 2.48326 0
M  V30 7359 H 688.644 5.4693 0.561082 0
M  V30 7360 H 689.869 6.74751 0.767303 0
M  V30 7361 H 687.815 5.90913 2.84883 0
M  V30 7362 H 687.732 7.32828 1.85741 0
M  V30 7363 H 689 7.17897 3.03717 0
M  V30 7364 N 693.229 0.160201 1.56784 0
M  V30 7365 C 694.192 -0.760405 2.16219 0
M  V30 7366 C 695.192 -1.16595 1.10735 0
M  V30 7367 O 696.382 -1.08472 1.36306 0
M  V30 7368 C 693.514 -2.03358 2.73603 0
M  V30 7369 H 694.707 -0.243173 2.98912 0
M  V30 7370 H 692.26 -0.0893139 1.56045 0
M  V30 7371 H 692.995 -2.59416 1.94612 0
M  V30 7372 H 692.78 -1.75186 3.50788 0
M  V30 7373 H 694.27 -2.69081 3.19351 0
M  V30 7374 N 694.707 -1.5719 -0.113559 0
M  V30 7375 C 695.654 -2.00736 -1.13901 0
M  V30 7376 C 696.624 -0.88044 -1.40846 0
M  V30 7377 O 697.809 -1.14507 -1.5262 0
M  V30 7378 C 694.949 -2.42132 -2.45899 0
M  V30 7379 C 694.062 -3.68264 -2.25844 0
M  V30 7380 C 693.197 -3.98617 -3.5111 0
M  V30 7381 C 692.236 -5.17915 -3.26236 0
M  V30 7382 N 691.373 -5.44111 -4.4372 0
M  V30 7383 H 696.213 -2.88128 -0.760677 0
M  V30 7384 H 693.75 -1.42523 -0.364099 0
M  V30 7385 H 695.708 -2.6417 -3.22908 0
M  V30 7386 H 694.338 -1.57775 -2.81615 0
M  V30 7387 H 693.39 -3.53809 -1.39726 0
M  V30 7388 H 694.702 -4.55425 -2.03444 0
M  V30 7389 H 693.856 -4.21333 -4.36536 0
M  V30 7390 H 692.595 -3.09942 -3.76546 0
M  V30 7391 H 691.6 -4.95038 -2.39202 0
M  V30 7392 H 692.825 -6.08172 -3.02165 0
M  V30 7393 H 690.771 -4.58394 -4.69266 0
M  V30 7394 H 690.688 -6.25606 -4.24444 0
M  V30 7395 H 691.956 -5.71351 -5.30263 0
M  V30 7396 N 696.185 0.383891 -1.52853 0
M  V30 7397 C 697.433 1.12619 -1.67814 0
M  V30 7398 C 697.754 1.90354 -0.423141 0
M  V30 7399 O 697.024 1.87649 0.562554 0
M  V30 7400 H 695.604 0.418738 -0.618601 0
M  V30 7401 H 698.266 0.43495 -1.89985 0
M  V30 7402 H 697.362 1.82624 -2.5309 0
M  V30 7403 N 697.663 1.43903 0.642637 0
M  V30 7404 C 698.891 1.4954 1.42988 0
M  V30 7405 C 699.306 0.116588 1.8844 0
M  V30 7406 O 698.663 -0.875285 1.60141 0
M  V30 7407 C 698.714 2.45031 2.65785 0
M  V30 7408 O 698.435 3.77551 2.22232 0
M  V30 7409 C 699.936 2.60017 3.59035 0
M  V30 7410 H 697.156 0.507544 0.438907 0
M  V30 7411 H 699.7 1.88752 0.786942 0
M  V30 7412 H 697.855 2.08985 3.26196 0
M  V30 7413 H 698.269 4.29001 3.01759 0
M  V30 7414 H 699.743 3.30887 4.41835 0
M  V30 7415 H 700.22 1.64861 4.07084 0
M  V30 7416 H 700.826 2.96918 3.045 0
M  V30 7417 N 699.141 -0.881989 1.30609 0
M  V30 7418 C 700.387 -1.63647 1.19781 0
M  V30 7419 C 700.72 -1.92632 -0.246265 0
M  V30 7420 O 699.995 -1.54938 -1.17577 0
M  V30 7421 C 700.278 -2.97437 2.02985 0
M  V30 7422 C 700.131 -2.75406 3.55628 0
M  V30 7423 C 701.45 -3.98397 1.86997 0
M  V30 7424 H 698.569 -0.593841 0.436488 0
M  V30 7425 H 701.211 -1.02041 1.60273 0
M  V30 7426 H 699.361 -3.50018 1.68581 0
M  V30 7427 H 701.033 -2.2959 4.00107 0
M  V30 7428 H 699.276 -2.09856 3.79662 0
M  V30 7429 H 699.947 -3.70552 4.09139 0
M  V30 7430 H 702.423 -3.54986 2.17081 0
M  V30 7431 H 701.299 -4.89916 2.47536 0
M  V30 7432 H 701.56 -4.3424 0.829943 0
M  V30 7433 N 700.619 -1.13374 -1.09472 0
M  V30 7434 C 701.867 -0.893422 -1.8128 0
M  V30 7435 C 702.188 0.582029 -1.86111 0
M  V30 7436 O 701.458 1.42305 -1.34633 0
M  V30 7437 H 700.038 -0.327543 -0.67136 0
M  V30 7438 H 702.7 -1.43018 -1.32408 0
M  V30 7439 H 701.796 -1.28374 -2.84476 0
M  V30 7440 N 702.098 1.27442 -0.927168 0
M  V30 7441 C 703.345 1.94391 -0.567324 0
M  V30 7442 C 703.673 1.72875 0.891321 0
M  V30 7443 O 702.928 1.05071 1.65102 0
M  V30 7444 C 703.227 3.47413 -0.838994 0
M  V30 7445 C 702.893 3.89049 -2.2793 0
M  V30 7446 C 701.555 4.00127 -2.67305 0
M  V30 7447 C 703.907 4.10154 -3.21595 0
M  V30 7448 C 701.235 4.29697 -3.99471 0
M  V30 7449 C 703.587 4.41208 -4.53341 0
M  V30 7450 C 702.251 4.50499 -4.92551 0
M  V30 7451 H 701.521 0.711325 -0.207598 0
M  V30 7452 H 704.168 1.51523 -1.17103 0
M  V30 7453 H 702.473 3.91503 -0.152609 0
M  V30 7454 H 704.17 3.97354 -0.53955 0
M  V30 7455 H 700.76 3.80962 -1.96381 0
M  V30 7456 H 704.944 4.01036 -2.92377 0
M  V30 7457 H 700.2 4.35099 -4.29533 0
M  V30 7458 H 704.374 4.56486 -5.25922 0
M  V30 7459 H 702.001 4.73167 -5.94994 0
M  V30 7460 N 703.576 0.692616 1.41565 0
M  V30 7461 C 704.486 0.0258451 2.34586 0
M  V30 7462 C 705.502 -0.769324 1.56069 0
M  V30 7463 O 706.678 -0.707563 1.88562 0
M  V30 7464 C 703.743 -0.901289 3.3478 0
M  V30 7465 C 702.804 -0.0986579 4.29187 0
M  V30 7466 C 702.037 -0.981634 5.24595 0
M  V30 7467 O 702.26 -2.22115 5.25377 0
M  V30 7468 O 701.194 -0.432892 6.00341 0
M  V30 7469 H 705.02 0.792537 2.93177 0
M  V30 7470 H 702.605 0.452935 1.42369 0
M  V30 7471 H 704.487 -1.43302 3.96286 0
M  V30 7472 H 703.162 -1.64752 2.78637 0
M  V30 7473 H 702.069 0.477604 3.71039 0
M  V30 7474 H 703.402 0.608848 4.8842 0
M  V30 7475 N 705.054 -1.51416 0.437162 0
M  V30 7476 C 706.002 -2.29328 -0.388765 0
M  V30 7477 C 706.996 -1.35171 -1.02104 0
M  V30 7478 O 708.202 -1.52513 -0.956024 0
M  V30 7479 H 704.577 -0.738048 -0.144183 0
M  V30 7480 H 706.548 -2.96995 0.289212 0
M  V30 7481 C 705.297 -3.14741 -1.47761 0
M  V30 7482 H 704.62 -3.8708 -1.00045 0
M  V30 7483 H 706.06 -3.72313 -2.02877 0
M  V30 7484 C 704.519 -2.30105 -2.46076 0
M  V30 7485 O 705.049 -1.96055 -3.50607 0
M  V30 7486 N 703.255 -1.93331 -2.1696 0
M  V30 7487 H 702.802 -2.2122 -1.31983 0
M  V30 7488 H 702.76 -1.36999 -2.82982 0
M  V30 7489 N 706.532 -0.168513 -1.56696 0
M  V30 7490 C 707.464 0.794249 -2.14998 0
M  V30 7491 C 708.477 1.1957 -1.10485 0
M  V30 7492 O 709.666 1.13604 -1.37682 0
M  V30 7493 C 706.766 2.08018 -2.67547 0
M  V30 7494 C 705.939 1.84274 -3.96689 0
M  V30 7495 C 704.998 2.97059 -4.3433 0
M  V30 7496 O 704.024 2.67815 -5.02259 0
M  V30 7497 N 705.226 4.24775 -3.9566 0
M  V30 7498 H 707.991 0.295832 -2.98236 0
M  V30 7499 H 705.552 0.0143611 -1.61894 0
M  V30 7500 H 707.544 2.82559 -2.89729 0
M  V30 7501 H 706.114 2.49059 -1.88914 0
M  V30 7502 H 705.334 0.936528 -3.82914 0
M  V30 7503 H 706.622 1.65773 -4.81037 0
M  V30 7504 H 706.02 4.51395 -3.40968 0
M  V30 7505 H 704.577 4.96027 -4.22848 0
M  V30 7506 N 708.01 1.57248 0.105221 0
M  V30 7507 C 709.259 1.84756 0.809198 0
M  V30 7508 C 709.572 0.756262 1.80389 0
M  V30 7509 O 710.778 0.918158 2.55504 0
M  V30 7510 C 709.234 3.27613 1.48989 0
M  V30 7511 C 708.842 4.44788 0.535484 0
M  V30 7512 C 710.586 3.64356 2.17819 0
M  V30 7513 C 708.493 5.78676 1.22019 0
M  V30 7514 H 707.423 0.689139 0.305946 0
M  V30 7515 H 710.074 1.83395 0.0620371 0
M  V30 7516 H 708.456 3.23485 2.28415 0
M  V30 7517 H 709.63 4.60243 -0.226557 0
M  V30 7518 H 707.945 4.16374 -0.0465769 0
M  V30 7519 H 710.542 4.61663 2.69761 0
M  V30 7520 H 710.885 2.92474 2.96251 0
M  V30 7521 H 711.418 3.70328 1.45264 0
M  V30 7522 H 708.157 6.53763 0.476875 0
M  V30 7523 H 707.677 5.67083 1.9539 0
M  V30 7524 H 709.356 6.22897 1.74952 0
M  V30 7525 N 709.488 -0.375779 1.53054 0
M  V30 7526 C 710.436 -1.48015 1.79428 0
M  V30 7527 C 711.43 -1.55893 0.662854 0
M  V30 7528 O 712.636 -1.58901 0.845599 0
M  V30 7529 H 709.011 -0.492887 0.56795 0
M  V30 7530 H 710.982 -1.22971 2.71884 0
M  V30 7531 C 709.731 -2.84984 1.99197 0
M  V30 7532 H 709.054 -2.79677 2.85693 0
M  V30 7533 H 710.494 -3.61462 2.21633 0
M  V30 7534 C 708.953 -3.28025 0.768183 0
M  V30 7535 O 709.483 -4.01671 -0.0480482 0
M  V30 7536 N 707.689 -2.84454 0.594521 0
M  V30 7537 H 707.236 -2.24688 1.25988 0
M  V30 7538 H 707.194 -3.13609 -0.222916 0
M  V30 7539 N 710.966 -1.44241 -0.634997 0
M  V30 7540 C 711.913 -1.5081 -1.74714 0
M  V30 7541 C 712.883 -0.356147 -1.62237 0
M  V30 7542 O 714.068 -0.565848 -1.82216 0
M  V30 7543 C 711.208 -1.45458 -3.12947 0
M  V30 7544 C 710.321 -2.70998 -3.36428 0
M  V30 7545 C 709.456 -2.57507 -4.64611 0
M  V30 7546 C 708.495 -3.78229 -4.81258 0
M  V30 7547 N 707.632 -3.63438 -6.00714 0
M  V30 7548 H 712.472 -2.45832 -1.68436 0
M  V30 7549 H 710.009 -1.2201 -0.821706 0
M  V30 7550 H 711.967 -1.40347 -3.92885 0
M  V30 7551 H 710.597 -0.540058 -3.1825 0
M  V30 7552 H 709.649 -2.86312 -2.50458 0
M  V30 7553 H 710.961 -3.60619 -3.44609 0
M  V30 7554 H 710.115 -2.50207 -5.52703 0
M  V30 7555 H 708.854 -1.65441 -4.58782 0
M  V30 7556 H 707.859 -3.85918 -3.91596 0
M  V30 7557 H 709.084 -4.71327 -4.88904 0
M  V30 7558 H 707.03 -2.7412 -5.95982 0
M  V30 7559 H 706.947 -4.46672 -6.09934 0
M  V30 7560 H 708.215 -3.60022 -6.91378 0
M  V30 7561 N 712.444 0.87505 -1.31075 0
M  V30 7562 C 713.684 1.64174 -1.21763 0
M  V30 7563 C 714.048 1.90713 0.221933 0
M  V30 7564 O 715.249 2.652 0.438458 0
M  V30 7565 C 713.52 2.93932 -2.0332 0
M  V30 7566 S 715.079 3.84841 -2.10815 0
M  V30 7567 H 711.897 0.563358 -0.433761 0
M  V30 7568 H 714.499 1.03788 -1.65675 0
M  V30 7569 H 713.203 2.72349 -3.07009 0
M  V30 7570 H 712.734 3.59345 -1.60108 0
M  V30 7571 H 714.749 4.80385 -1.24276 0
M  V30 7572 N 713.922 1.13953 1.08869 0
M  V30 7573 C 714.852 0.844824 2.17681 0
M  V30 7574 C 715.833 -0.198213 1.68941 0
M  V30 7575 O 717.018 -0.0559073 1.9412 0
M  V30 7576 C 714.148 0.316325 3.45856 0
M  V30 7577 C 713.102 1.29426 4.07962 0
M  V30 7578 C 712.428 0.625275 5.31031 0
M  V30 7579 C 713.728 2.65484 4.49795 0
M  V30 7580 H 715.422 1.75471 2.42591 0
M  V30 7581 H 712.968 0.845116 1.16592 0
M  V30 7582 H 714.921 0.0977876 4.21287 0
M  V30 7583 H 713.645 -0.628972 3.20486 0
M  V30 7584 H 712.304 1.49889 3.34558 0
M  V30 7585 H 711.952 -0.325678 5.01945 0
M  V30 7586 H 711.652 1.27777 5.73539 0
M  V30 7587 H 713.176 0.416152 6.0918 0
M  V30 7588 H 714.59 2.48957 5.16424 0
M  V30 7589 H 712.987 3.26963 5.03205 0
M  V30 7590 H 714.057 3.22717 3.61914 0
M  V30 7591 N 715.4 -1.26948 0.933913 0
M  V30 7592 C 716.31 -2.30366 0.443671 0
M  V30 7593 C 717.326 -1.67284 -0.478745 0
M  V30 7594 O 718.502 -1.98156 -0.360043 0
M  V30 7595 C 715.567 -3.45485 -0.289974 0
M  V30 7596 C 714.628 -4.24069 0.668114 0
M  V30 7597 C 713.861 -5.33691 -0.0306138 0
M  V30 7598 O 714.084 -5.5656 -1.24888 0
M  V30 7599 O 713.018 -5.98441 0.644384 0
M  V30 7600 H 716.844 -2.74349 1.30254 0
M  V30 7601 H 714.429 -1.32012 0.699506 0
M  V30 7602 H 716.311 -4.15486 -0.70353 0
M  V30 7603 H 714.986 -3.03546 -1.12435 0
M  V30 7604 H 713.893 -3.56579 1.13147 0
M  V30 7605 H 715.226 -4.69739 1.46989 0
M  V30 7606 N 716.879 -0.700114 -1.41195 0
M  V30 7607 C 717.809 -0.0521132 -2.33442 0
M  V30 7608 C 718.79 0.76228 -1.52063 0
M  V30 7609 O 719.975 0.714336 -1.80585 0
M  V30 7610 C 717.105 0.881693 -3.35922 0
M  V30 7611 C 716.059 0.174062 -4.27646 0
M  V30 7612 C 715.385 1.22254 -5.20536 0
M  V30 7613 C 716.685 -0.962396 -5.13357 0
M  V30 7614 H 718.379 -0.822574 -2.87879 0
M  V30 7615 H 715.925 -0.397011 -1.38419 0
M  V30 7616 H 717.878 1.34429 -3.99383 0
M  V30 7617 H 716.602 1.68387 -2.79845 0
M  V30 7618 H 715.261 -0.268551 -3.65615 0
M  V30 7619 H 714.909 2.01736 -4.60773 0
M  V30 7620 H 714.609 0.754038 -5.82742 0
M  V30 7621 H 716.133 1.68555 -5.86874 0
M  V30 7622 H 717.547 -0.579875 -5.7036 0
M  V30 7623 H 715.944 -1.35828 -5.84526 0
M  V30 7624 H 717.014 -1.80003 -4.50252 0
M  V30 7625 N 718.357 1.51182 -0.445186 0
M  V30 7626 C 719.32 2.26501 0.350722 0
M  V30 7627 C 720.32 1.3025 0.942952 0
M  V30 7628 O 721.51 1.53897 0.816175 0
M  V30 7629 C 718.642 3.06274 1.49697 0
M  V30 7630 H 719.835 2.98299 -0.309474 0
M  V30 7631 H 717.388 1.55034 -0.198551 0
M  V30 7632 H 718.123 2.38911 2.19299 0
M  V30 7633 H 717.908 3.76979 1.0784 0
M  V30 7634 H 719.398 3.63306 2.05909 0
M  V30 7635 N 719.835 0.176821 1.56605 0
M  V30 7636 C 720.745 -0.763682 2.21822 0
M  V30 7637 C 721.761 -1.24889 1.21156 0
M  V30 7638 O 722.937 -1.29987 1.53836 0
M  V30 7639 C 720.002 -1.97352 2.8505 0
M  V30 7640 C 719.063 -1.53466 4.00932 0
M  V30 7641 C 718.296 -2.68682 4.61135 0
M  V30 7642 O 718.519 -3.85694 4.20234 0
M  V30 7643 O 717.453 -2.42442 5.50913 0
M  V30 7644 H 721.279 -0.238363 3.02763 0
M  V30 7645 H 718.864 -0.0516331 1.49311 0
M  V30 7646 H 720.746 -2.68096 3.25119 0
M  V30 7647 H 719.421 -2.48779 2.07101 0
M  V30 7648 H 718.328 -0.796551 3.65521 0
M  V30 7649 H 719.661 -1.06724 4.8049 0
M  V30 7650 N 721.313 -1.57302 -0.09688 0
M  V30 7651 C 722.543 -1.89926 -0.813114 0
M  V30 7652 C 722.951 -0.76852 -1.72888 0
M  V30 7653 O 722.294 0.268549 -1.81726 0
M  V30 7654 C 722.356 -3.17787 -1.68082 0
M  V30 7655 C 722.02 -4.4729 -0.937061 0
M  V30 7656 C 723.017 -5.1921 -0.267687 0
M  V30 7657 C 720.702 -4.93957 -0.911671 0
M  V30 7658 C 722.696 -6.36034 0.417129 0
M  V30 7659 C 720.383 -6.10693 -0.223068 0
M  V30 7660 C 721.381 -6.8158 0.440155 0
M  V30 7661 O 721.069 -7.96092 1.11772 0
M  V30 7662 H 720.801 -0.632783 -0.237828 0
M  V30 7663 H 723.355 -2.05248 -0.0790818 0
M  V30 7664 H 721.585 -2.98607 -2.45705 0
M  V30 7665 H 723.274 -3.36257 -2.27346 0
M  V30 7666 H 724.04 -4.84198 -0.278774 0
M  V30 7667 H 719.919 -4.38671 -1.41734 0
M  V30 7668 H 723.463 -6.91301 0.93537 0
M  V30 7669 H 719.36 -6.45159 -0.209821 0
M  V30 7670 H 720.128 -8.12064 1.02443 0
M  V30 7671 N 722.791 0.367657 -1.53252 0
M  V30 7672 C 723.721 1.45632 -1.8252 0
M  V30 7673 C 724.702 1.55979 -0.678568 0
M  V30 7674 O 725.887 1.70581 -0.928217 0
M  V30 7675 C 723.017 2.82994 -2.01325 0
M  V30 7676 C 721.971 2.87473 -3.17086 0
M  V30 7677 C 721.297 4.2749 -3.21179 0
M  V30 7678 C 722.597 2.55182 -4.55719 0
M  V30 7679 H 724.291 1.21387 -2.73689 0
M  V30 7680 H 721.837 0.58251 -1.31692 0
M  V30 7681 H 723.79 3.59179 -2.20383 0
M  V30 7682 H 722.514 3.08622 -1.06864 0
M  V30 7683 H 721.173 2.13739 -2.97844 0
M  V30 7684 H 720.821 4.5019 -2.24361 0
M  V30 7685 H 720.521 4.31403 -3.98955 0
M  V30 7686 H 722.045 5.0555 -3.42419 0
M  V30 7687 H 723.459 3.21081 -4.74953 0
M  V30 7688 H 721.856 2.70414 -5.3572 0
M  V30 7689 H 722.926 1.5044 -4.60973 0
M  V30 7690 N 724.269 1.44576 0.627338 0
M  V30 7691 C 725.499 1.50829 1.41189 0
M  V30 7692 C 725.907 0.133083 1.88731 0
M  V30 7693 O 725.25 -0.87199 1.61685 0
M  V30 7694 C 725.312 2.41449 2.66351 0
M  V30 7695 C 724.976 3.88549 2.40579 0
M  V30 7696 C 725.973 4.78981 2.0217 0
M  V30 7697 C 723.658 4.33287 2.54102 0
M  V30 7698 C 725.652 6.12153 1.77618 0
M  V30 7699 C 723.339 5.66505 2.29163 0
M  V30 7700 C 724.337 6.55756 1.9098 0
M  V30 7701 O 724.025 7.86506 1.66321 0
M  V30 7702 H 723.757 0.513797 0.439304 0
M  V30 7703 H 726.311 1.90256 0.774059 0
M  V30 7704 H 724.541 1.96955 3.32784 0
M  V30 7705 H 726.23 2.38608 3.28361 0
M  V30 7706 H 726.996 4.45689 1.91277 0
M  V30 7707 H 722.875 3.64074 2.82792 0
M  V30 7708 H 726.419 6.81776 1.47739 0
M  V30 7709 H 722.316 5.99358 2.39668 0
M  V30 7710 H 723.084 7.98341 1.80536 0
M  V30 7711 N 725.747 -0.868086 1.31537 0
M  V30 7712 C 726.71 -1.95703 1.19302 0
M  V30 7713 C 727.71 -1.60355 0.119612 0
M  V30 7714 O 728.9 -1.70247 0.36902 0
M  V30 7715 C 726.032 -3.30599 0.831684 0
M  V30 7716 H 727.225 -2.07982 2.16064 0
M  V30 7717 H 724.778 -1.05661 1.15176 0
M  V30 7718 H 725.513 -3.2402 -0.134694 0
M  V30 7719 H 725.298 -3.57629 1.60761 0
M  V30 7720 H 726.788 -4.10439 0.770026 0
M  V30 7721 N 727.225 -1.14528 -1.08264 0
M  V30 7722 C 728.172 -0.833556 -2.15222 0
M  V30 7723 C 729.142 0.209539 -1.64773 0
M  V30 7724 O 730.327 0.0791388 -1.90636 0
M  V30 7725 C 727.467 -0.318799 -3.43624 0
M  V30 7726 C 726.58 -1.42237 -4.07913 0
M  V30 7727 C 725.715 -0.864704 -5.24115 0
M  V30 7728 C 724.754 -1.94585 -5.80347 0
M  V30 7729 N 723.891 -1.40525 -6.87893 0
M  V30 7730 H 728.731 -1.74965 -2.41228 0
M  V30 7731 H 726.268 -0.873169 -1.18381 0
M  V30 7732 H 728.226 -0.00213088 -4.172 0
M  V30 7733 H 726.856 0.560397 -3.17898 0
M  V30 7734 H 725.908 -1.8554 -3.32083 0
M  V30 7735 H 727.22 -2.23901 -4.45724 0
M  V30 7736 H 726.374 -0.500025 -6.04636 0
M  V30 7737 H 725.113 -0.0171219 -4.87697 0
M  V30 7738 H 724.118 -2.31946 -4.98479 0
M  V30 7739 H 725.343 -2.79704 -6.18823 0
M  V30 7740 H 723.289 -0.579873 -6.53432 0
M  V30 7741 H 723.206 -2.15825 -7.24538 0
M  V30 7742 H 724.474 -1.06852 -7.72142 0
M  V30 7743 N 728.703 1.26451 -0.940633 0
M  V30 7744 C 729.952 1.93071 -0.583656 0
M  V30 7745 C 730.265 1.74618 0.881366 0
M  V30 7746 O 731.471 2.35689 1.34769 0
M  V30 7747 C 729.927 3.45927 -0.993106 0
M  V30 7748 C 729.535 3.73115 -2.4797 0
M  V30 7749 C 731.279 4.18554 -0.707998 0
M  V30 7750 C 729.186 5.19408 -2.82788 0
M  V30 7751 H 728.116 0.722824 -0.214572 0
M  V30 7752 H 730.767 1.43538 -1.1432 0
M  V30 7753 H 729.149 3.94341 -0.362099 0
M  V30 7754 H 730.323 3.35408 -3.15971 0
M  V30 7755 H 728.638 3.13719 -2.73805 0
M  V30 7756 H 731.235 5.26293 -0.94447 0
M  V30 7757 H 731.578 4.14782 0.355225 0
M  V30 7758 H 732.111 3.76003 -1.2987 0
M  V30 7759 H 728.85 5.28281 -3.88071 0
M  V30 7760 H 728.37 5.58214 -2.19449 0
M  V30 7761 H 730.049 5.87407 -2.71224 0
M  V30 7762 N 730.181 0.707592 1.40822 0
M  V30 7763 C 731.128 0.0499029 2.30746 0
M  V30 7764 C 732.098 -0.758718 1.47759 0
M  V30 7765 O 733.283 -0.724299 1.76518 0
M  V30 7766 C 730.423 -0.871756 3.33908 0
M  V30 7767 C 729.536 -0.0534655 4.31967 0
M  V30 7768 C 728.671 -0.973869 5.22197 0
M  V30 7769 C 727.71 -0.149194 6.11918 0
M  V30 7770 N 726.847 -1.02404 6.94592 0
M  V30 7771 H 731.687 0.822461 2.86426 0
M  V30 7772 H 729.224 0.417285 1.41057 0
M  V30 7773 H 731.182 -1.42028 3.9228 0
M  V30 7774 H 729.812 -1.61058 2.7975 0
M  V30 7775 H 728.864 0.612142 3.75442 0
M  V30 7776 H 730.176 0.585354 4.95353 0
M  V30 7777 H 729.33 -1.59121 5.85462 0
M  V30 7778 H 728.069 -1.64652 4.59065 0
M  V30 7779 H 727.074 0.481137 5.47691 0
M  V30 7780 H 728.299 0.519841 6.77107 0
M  V30 7781 H 726.245 -1.6825 6.34057 0
M  V30 7782 H 726.162 -0.441076 7.54712 0
M  V30 7783 H 727.43 -1.62782 7.62314 0
M  V30 7784 N 731.66 -1.50943 0.453197 0
M  V30 7785 C 732.608 -2.29728 -0.364419 0
M  V30 7786 C 733.602 -1.36246 -1.00664 0
M  V30 7787 O 734.808 -1.53518 -0.939794 0
M  V30 7788 H 731.183 -0.739536 -0.136347 0
M  V30 7789 H 733.154 -2.96672 0.320696 0
M  V30 7790 C 731.903 -3.1629 -1.44415 0
M  V30 7791 H 731.226 -3.88119 -0.959343 0
M  V30 7792 H 732.666 -3.74444 -1.98917 0
M  V30 7793 C 731.125 -2.32702 -2.43622 0
M  V30 7794 O 731.655 -1.99763 -3.48508 0
M  V30 7795 N 729.861 -1.95621 -2.14897 0
M  V30 7796 H 729.408 -2.22607 -1.29629 0
M  V30 7797 H 729.366 -1.39993 -2.81513 0
M  V30 7798 N 733.138 -0.185124 -1.56509 0
M  V30 7799 C 734.554 0.170865 -1.58683 0
M  V30 7800 C 734.754 1.61799 -1.20098 0
M  V30 7801 O 733.81 2.35181 -0.919038 0
M  V30 7802 C 735.123 -0.122459 -3.00451 0
M  V30 7803 C 736.671 -0.0617699 -3.12939 0
M  V30 7804 C 737.146 -0.328269 -4.56822 0
M  V30 7805 N 738.637 -0.276533 -4.62374 0
M  V30 7806 C 739.372 -0.456722 -5.71578 0
M  V30 7807 N 738.868 -0.69672 -6.89288 0
M  V30 7808 N 740.661 -0.391669 -5.60734 0
M  V30 7809 H 732.812 -1.12956 -1.79874 0
M  V30 7810 H 735.075 -0.45011 -0.834329 0
M  V30 7811 H 734.781 -1.12546 -3.33206 0
M  V30 7812 H 734.655 0.579578 -3.72721 0
M  V30 7813 H 737.042 0.931826 -2.80002 0
M  V30 7814 H 737.123 -0.796732 -2.43076 0
M  V30 7815 H 736.767 -1.31914 -4.9047 0
M  V30 7816 H 736.697 0.427465 -5.24862 0
M  V30 7817 H 739.188 -0.0972458 -3.77775 0
M  V30 7818 H 739.501 -0.823291 -7.68402 0
M  V30 7819 H 737.846 -0.733497 -6.91119 0
M  V30 7820 H 741.037 -0.204663 -4.67652 0
M  V30 7821 H 741.21 -0.535518 -6.45783 0
M  V30 7822 N 734.616 1.57351 0.0885366 0
M  V30 7823 C 735.526 2.05858 1.12516 0
M  V30 7824 C 736.542 0.984758 1.43452 0
M  V30 7825 O 737.718 1.29836 1.53963 0
M  V30 7826 C 734.783 2.47882 2.42395 0
M  V30 7827 C 733.844 3.69487 2.18582 0
M  V30 7828 C 733.077 4.09497 3.42268 0
M  V30 7829 O 733.3 3.49536 4.50755 0
M  V30 7830 O 732.234 5.02406 3.31469 0
M  V30 7831 H 736.06 2.94467 0.743146 0
M  V30 7832 H 733.645 1.46326 0.301507 0
M  V30 7833 H 735.527 2.75509 3.18862 0
M  V30 7834 H 734.202 1.62408 2.8001 0
M  V30 7835 H 733.109 3.46967 1.39875 0
M  V30 7836 H 734.442 4.55761 1.85857 0
M  V30 7837 N 736.094 -0.359525 1.53444 0
M  V30 7838 C 737.004 -1.46445 1.83278 0
M  V30 7839 C 738.02 -1.5833 0.721629 0
M  V30 7840 O 739.196 -1.7411 1.01231 0
M  V30 7841 C 736.261 -2.81638 2.02191 0
M  V30 7842 C 735.322 -2.7923 3.26082 0
M  V30 7843 C 734.555 -4.07974 3.44082 0
M  V30 7844 O 734.778 -5.04447 2.66251 0
M  V30 7845 O 733.712 -4.13417 4.37458 0
M  V30 7846 H 737.538 -1.24156 2.77162 0
M  V30 7847 H 735.123 -0.550201 1.389 0
M  V30 7848 H 737.005 -3.61732 2.16167 0
M  V30 7849 H 735.68 -3.03892 1.11496 0
M  V30 7850 H 734.587 -1.97813 3.17523 0
M  V30 7851 H 735.92 -2.6193 4.16718 0
M  V30 7852 N 737.572 -1.44907 -0.619662 0
M  V30 7853 C 738.819 -1.48292 -1.37898 0
M  V30 7854 C 739.147 -0.119933 -1.9413 0
M  V30 7855 O 738.402 0.879834 -1.74807 0
M  V30 7856 C 738.701 -2.50002 -2.55409 0
M  V30 7857 C 738.367 -3.95031 -2.17397 0
M  V30 7858 C 737.029 -4.34524 -2.06743 0
M  V30 7859 C 739.381 -4.86287 -1.87548 0
M  V30 7860 C 736.709 -5.63183 -1.64445 0
M  V30 7861 C 739.061 -6.15346 -1.4674 0
M  V30 7862 C 737.725 -6.53781 -1.34636 0
M  V30 7863 H 736.995 -0.542638 -0.504603 0
M  V30 7864 H 739.642 -1.78186 -0.701581 0
M  V30 7865 H 737.947 -2.13634 -3.28433 0
M  V30 7866 H 739.644 -2.49864 -3.13639 0
M  V30 7867 H 736.234 -3.63793 -2.26611 0
M  V30 7868 H 740.418 -4.56522 -1.94682 0
M  V30 7869 H 735.674 -5.91769 -1.53687 0
M  V30 7870 H 739.848 -6.85508 -1.22685 0
M  V30 7871 H 737.475 -7.53375 -1.01634 0
M  V30 7872 N 739.05 0.861098 -1.31996 0
M  V30 7873 C 739.96 2.00154 -1.22374 0
M  V30 7874 C 740.976 1.73447 -0.138631 0
M  V30 7875 O 742.152 1.98191 -0.358104 0
M  V30 7876 C 739.217 3.33696 -0.940645 0
M  V30 7877 C 738.278 3.73668 -2.11355 0
M  V30 7878 C 737.511 5.00837 -1.84386 0
M  V30 7879 O 737.734 5.64996 -0.783287 0
M  V30 7880 O 736.668 5.37787 -2.70313 0
M  V30 7881 H 740.494 2.11207 -2.18233 0
M  V30 7882 H 738.079 0.990768 -1.11822 0
M  V30 7883 H 739.961 4.13756 -0.798987 0
M  V30 7884 H 738.636 3.23698 -0.0121636 0
M  V30 7885 H 737.543 2.94211 -2.31065 0
M  V30 7886 H 738.876 3.88303 -3.02459 0
M  V30 7887 N 740.528 1.15101 1.07655 0
M  V30 7888 C 741.461 0.788522 2.14144 0
M  V30 7889 C 742.439 -0.233635 1.60913 0
M  V30 7890 O 743.623 -0.120908 1.88112 0
M  V30 7891 C 740.75 0.172033 3.38263 0
M  V30 7892 C 739.796 1.16559 4.10264 0
M  V30 7893 S 740.629 2.70627 4.62084 0
M  V30 7894 C 741.785 2.10389 5.8948 0
M  V30 7895 H 742.018 1.69047 2.44561 0
M  V30 7896 H 739.551 0.973033 1.19881 0
M  V30 7897 H 741.509 -0.177223 4.10117 0
M  V30 7898 H 740.17 -0.707468 3.06029 0
M  V30 7899 H 739.363 0.6824 4.99359 0
M  V30 7900 H 738.965 1.45923 3.44358 0
M  V30 7901 H 741.257 1.46405 6.61492 0
M  V30 7902 H 742.2 2.97639 6.42508 0
M  V30 7903 H 742.608 1.54816 5.42856 0
M  V30 7904 N 742.006 -1.2595 0.947325 0
M  V30 7905 C 743.252 -1.9375 0.599064 0
M  V30 7906 C 743.585 -1.74088 -0.860632 0
M  V30 7907 O 742.86 -1.08158 -1.61654 0
M  V30 7908 C 743.143 -3.47353 0.949634 0
M  V30 7909 C 742.996 -3.76273 2.46452 0
M  V30 7910 C 744.315 -4.37589 0.469442 0
M  V30 7911 H 741.434 -0.703674 0.219115 0
M  V30 7912 H 744.076 -1.48705 1.18266 0
M  V30 7913 H 742.226 -3.8585 0.453008 0
M  V30 7914 H 743.898 -3.47455 3.03435 0
M  V30 7915 H 742.141 -3.22135 2.90537 0
M  V30 7916 H 742.812 -4.83664 2.66032 0
M  V30 7917 H 745.288 -4.06353 0.89534 0
M  V30 7918 H 744.164 -5.43841 0.7435 0
M  V30 7919 H 744.425 -4.37579 -0.630618 0
M  V30 7920 N 743.484 -0.715051 -1.40445 0
M  V30 7921 C 744.731 -0.254328 -2.00897 0
M  V30 7922 C 745.059 1.15228 -1.56693 0
M  V30 7923 O 744.314 1.7958 -0.777786 0
M  V30 7924 C 744.613 -0.281791 -3.56287 0
M  V30 7925 C 744.279 -1.63862 -4.20071 0
M  V30 7926 C 742.941 -2.01003 -4.37208 0
M  V30 7927 C 745.293 -2.53039 -4.55654 0
M  V30 7928 C 742.621 -3.26869 -4.8721 0
M  V30 7929 C 744.973 -3.78256 -5.07055 0
M  V30 7930 C 743.637 -4.15515 -5.22401 0
M  V30 7931 H 742.907 -0.0930652 -0.735133 0
M  V30 7932 H 745.554 -0.917977 -1.68064 0
M  V30 7933 H 743.859 0.465428 -3.89026 0
M  V30 7934 H 745.556 0.0925158 -4.00893 0
M  V30 7935 H 742.146 -1.33979 -4.07121 0
M  V30 7936 H 746.33 -2.2562 -4.42051 0
M  V30 7937 H 741.586 -3.55706 -4.97276 0
M  V30 7938 H 745.76 -4.47528 -5.33565 0
M  V30 7939 H 743.387 -5.13114 -5.60909 0
M  V30 7940 N 744.962 1.50701 -0.461195 0
M  V30 7941 C 745.91 2.29918 0.352231 0
M  V30 7942 C 746.904 1.36778 0.999403 0
M  V30 7943 O 748.11 1.54015 0.931639 0
M  V30 7944 H 744.485 0.740249 0.132423 0
M  V30 7945 H 746.456 2.96497 -0.336424 0
M  V30 7946 C 745.205 3.17052 1.42736 0
M  V30 7947 H 744.528 3.88623 0.938747 0
M  V30 7948 H 745.968 3.75493 1.96928 0
M  V30 7949 C 744.427 2.3399 2.42384 0
M  V30 7950 O 744.957 2.01608 3.47444 0
M  V30 7951 N 743.163 1.96758 2.13857 0
M  V30 7952 H 742.71 2.23292 1.28447 0
M  V30 7953 H 742.668 1.41484 2.80766 0
M  V30 7954 N 746.441 0.193421 1.56409 0
M  V30 7955 C 747.689 -0.444908 1.97142 0
M  V30 7956 C 748.01 -1.62268 1.08139 0
M  V30 7957 O 747.28 -1.95307 0.152326 0
M  V30 7958 H 745.86 -0.16736 0.728011 0
M  V30 7959 H 748.522 0.279763 1.92882 0
M  V30 7960 H 747.618 -0.790159 3.01932 0
M  V30 7961 N 747.919 -1.57396 -0.0801906 0
M  V30 7962 C 748.829 -2.06451 -1.11423 0
M  V30 7963 C 749.845 -0.992352 -1.42928 0
M  V30 7964 O 751.021 -1.30651 -1.53272 0
M  V30 7965 C 748.086 -2.49164 -2.41077 0
M  V30 7966 C 747.147 -3.70641 -2.16619 0
M  V30 7967 C 746.38 -4.11307 -3.40092 0
M  V30 7968 O 746.603 -3.51922 -4.48895 0
M  V30 7969 O 745.537 -5.04157 -3.288 0
M  V30 7970 H 749.363 -2.94857 -0.727519 0
M  V30 7971 H 746.948 -1.46484 -0.293743 0
M  V30 7972 H 748.83 -2.77196 -3.17396 0
M  V30 7973 H 747.505 -1.6389 -2.79145 0
M  V30 7974 H 746.412 -3.47703 -1.38033 0
M  V30 7975 H 747.745 -4.5674 -1.83437 0
M  V30 7976 N 749.397 0.351382 -1.53633 0
M  V30 7977 C 750.808 0.927429 -1.62036 0
M  V30 7978 C 751.159 1.89809 -0.496706 0
M  V30 7979 O 750.284 2.1313 0.374749 0
M  V30 7980 C 750.879 1.68886 -2.93706 0
M  V30 7981 C 749.438 2.21404 -3.04397 0
M  V30 7982 C 748.585 1.03075 -2.57431 0
M  V30 7983 H 751.536 0.129748 -1.58169 0
M  V30 7984 H 751.557 2.55116 -2.82305 0
M  V30 7985 H 751.069 0.982149 -3.75467 0
M  V30 7986 H 749.17 2.95274 -2.27253 0
M  V30 7987 H 749.283 2.48312 -4.09729 0
M  V30 7988 H 747.647 1.40188 -2.12649 0
M  V30 7989 H 748.43 0.338793 -3.41624 0
M  V30 7990 N 750.875 1.45233 0.611969 0
M  V30 7991 C 751.785 1.56098 1.7513 0
M  V30 7992 C 752.801 0.445646 1.68196 0
M  V30 7993 O 753.977 0.705718 1.88631 0
M  V30 7994 C 751.042 1.52052 3.11579 0
M  V30 7995 C 750.103 2.74589 3.29999 0
M  V30 7996 C 749.336 2.70726 4.59938 0
M  V30 7997 O 749.559 1.77806 5.41979 0
M  V30 7998 O 748.493 3.61864 4.80976 0
M  V30 7999 H 752.319 2.52392 1.68914 0
M  V30 8000 H 749.904 1.27695 0.775528 0
M  V30 8001 H 751.786 1.52387 3.92882 0
M  V30 8002 H 750.461 0.589085 3.18295 0
M  V30 8003 H 749.368 2.79817 2.48301 0
M  V30 8004 H 750.701 3.66843 3.28157 0
M  V30 8005 N 752.353 -0.854086 1.3245 0
M  V30 8006 C 753.303 -1.9508 1.18016 0
M  V30 8007 C 754.287 -1.60665 0.0869417 0
M  V30 8008 O 755.479 -1.74201 0.313505 0
M  V30 8009 C 752.608 -3.3113 0.905961 0
M  V30 8010 C 751.694 -3.71763 2.04091 0
M  V30 8011 N 752.085 -3.84218 3.28953 0
M  V30 8012 C 750.383 -4.01393 1.94421 0
M  V30 8013 C 751.084 -4.192 4.03294 0
M  V30 8014 N 750.06 -4.30749 3.31596 0
M  V30 8015 H 753.862 -2.02843 2.12678 0
M  V30 8016 H 751.376 -1.04588 1.24238 0
M  V30 8017 H 753.373 -4.09471 0.783508 0
M  V30 8018 H 752.033 -3.24684 -0.0322715 0
M  V30 8019 H 753.044 -3.68524 3.63883 0
M  V30 8020 H 749.721 -4.03246 1.08162 0
M  V30 8021 H 751.111 -4.36301 5.1097 0
M  V30 8022 N 753.831 -1.1567 -1.07043 0
M  V30 8023 C 755.059 -0.957471 -1.83412 0
M  V30 8024 C 755.474 0.494271 -1.82215 0
M  V30 8025 O 754.831 1.34288 -1.23584 0
M  V30 8026 C 754.882 -1.46784 -3.30359 0
M  V30 8027 O 754.603 -2.86271 -3.31633 0
M  V30 8028 C 756.104 -1.31054 -4.23485 0
M  V30 8029 H 753.324 -0.33986 -0.578564 0
M  V30 8030 H 755.868 -1.53518 -1.35102 0
M  V30 8031 H 754.023 -0.932586 -3.76007 0
M  V30 8032 H 754.437 -3.0948 -4.23465 0
M  V30 8033 H 755.911 -1.71605 -5.24648 0
M  V30 8034 H 756.388 -0.255107 -4.38458 0
M  V30 8035 H 756.994 -1.83503 -3.83676 0
M  V30 8036 N 755.309 1.25446 -0.953992 0
M  V30 8037 C 756.257 2.27909 -0.46478 0
M  V30 8038 C 757.251 1.62904 0.464607 0
M  V30 8039 O 758.457 1.76733 0.341407 0
M  V30 8040 H 754.832 0.74036 -0.131798 0
M  V30 8041 H 756.803 2.66559 -1.34122 0
M  V30 8042 C 755.552 3.46853 0.242589 0
M  V30 8043 H 754.875 3.97105 -0.463418 0
M  V30 8044 H 756.315 4.20432 0.548919 0
M  V30 8045 C 754.774 3.03386 1.46487 0
M  V30 8046 O 755.304 3.09342 2.56262 0
M  V30 8047 N 753.51 2.58584 1.32599 0
M  V30 8048 H 753.057 2.53938 0.432834 0
M  V30 8049 H 753.015 2.29866 2.14497 0
M  V30 8050 N 756.787 0.722489 1.40064 0
M  V30 8051 C 758.033 0.265371 2.01056 0
M  V30 8052 C 758.366 -1.14062 1.57174 0
M  V30 8053 O 757.641 -1.77514 0.794916 0
M  V30 8054 C 757.924 0.353157 3.58364 0
M  V30 8055 C 757.777 1.79802 4.123 0
M  V30 8056 C 759.096 -0.271677 4.39261 0
M  V30 8057 H 756.215 0.0979002 0.730469 0
M  V30 8058 H 758.857 0.916289 1.66446 0
M  V30 8059 H 757.007 -0.201037 3.87979 0
M  V30 8060 H 758.679 2.40813 3.93455 0
M  V30 8061 H 756.922 2.32348 3.66329 0
M  V30 8062 H 757.593 1.81079 5.21454 0
M  V30 8063 H 760.069 0.200607 4.15616 0
M  V30 8064 H 758.945 -0.179843 5.48605 0
M  V30 8065 H 759.206 -1.35611 4.20787 0
M  V30 8066 N 758.265 -1.50454 0.469181 0
M  V30 8067 C 759.505 -2.04222 -0.0852381 0
M  V30 8068 C 759.869 -1.34357 -1.37158 0
M  V30 8069 O 761.07 -1.78669 -2.00825 0
M  V30 8070 C 759.341 -3.56403 -0.266778 0
M  V30 8071 S 760.9 -4.31811 -0.780028 0
M  V30 8072 H 757.718 -0.7108 -0.0168589 0
M  V30 8073 H 760.32 -1.8487 0.635883 0
M  V30 8074 H 759.024 -4.04807 0.67525 0
M  V30 8075 H 758.555 -3.80106 -1.01407 0
M  V30 8076 H 760.57 -4.51706 -2.05368 0
M  V30 8077 N 759.743 -0.201713 -1.56304 0
M  V30 8078 C 760.99 0.435307 -1.97766 0
M  V30 8079 C 761.318 1.61169 -1.0888 0
M  V30 8080 O 760.573 1.95272 -0.12934 0
M  V30 8081 C 760.872 0.931432 -3.45049 0
M  V30 8082 C 760.538 -0.132287 -4.50706 0
M  V30 8083 C 759.2 -0.424552 -4.79323 0
M  V30 8084 C 761.552 -0.852703 -5.14177 0
M  V30 8085 C 758.88 -1.4421 -5.68701 0
M  V30 8086 C 761.232 -1.85944 -6.04655 0
M  V30 8087 C 759.896 -2.15884 -6.31625 0
M  V30 8088 H 759.166 0.15929 -0.723676 0
M  V30 8089 H 761.813 -0.300069 -1.89134 0
M  V30 8090 H 760.118 1.7452 -3.50785 0
M  V30 8091 H 761.815 1.43383 -3.74489 0
M  V30 8092 H 758.405 0.105671 -4.2847 0
M  V30 8093 H 762.589 -0.640139 -4.92154 0
M  V30 8094 H 757.845 -1.6799 -5.87869 0
M  V30 8095 H 762.019 -2.42286 -6.52894 0
M  V30 8096 H 759.646 -2.94875 -7.0068 0
M  V30 8097 N 761.222 1.57436 0.0718424 0
M  V30 8098 C 762.468 1.88388 0.766904 0
M  V30 8099 C 762.823 0.7954 1.75189 0
M  V30 8100 O 762.116 -0.200438 1.90549 0
M  V30 8101 C 762.31 3.23723 1.51455 0
M  V30 8102 C 762.139 4.45632 0.603475 0
M  V30 8103 C 760.909 5.04728 0.240437 0
M  V30 8104 C 763.107 5.14203 -0.0997624 0
M  V30 8105 N 761.089 6.10163 -0.676363 0
M  V30 8106 C 762.46 6.13812 -0.873755 0
M  V30 8107 C 764.515 4.97605 -0.171238 0
M  V30 8108 C 763.218 6.98615 -1.71258 0
M  V30 8109 C 765.244 5.82935 -0.997041 0
M  V30 8110 C 764.606 6.82082 -1.75908 0
M  V30 8111 H 760.705 0.738888 0.256064 0
M  V30 8112 H 763.289 1.94679 0.0284273 0
M  V30 8113 H 761.46 3.1844 2.22375 0
M  V30 8114 H 763.192 3.42324 2.15862 0
M  V30 8115 H 759.947 4.69869 0.593284 0
M  V30 8116 H 760.371 6.67537 -1.12801 0
M  V30 8117 H 765.013 4.20869 0.403586 0
M  V30 8118 H 762.731 7.74726 -2.29838 0
M  V30 8119 H 766.317 5.72149 -1.05532 0
M  V30 8120 H 765.197 7.46964 -2.38778 0
M  V30 8121 N 762.7 -0.34323 1.53817 0
M  V30 8122 C 763.93 -1.10188 1.74763 0
M  V30 8123 C 764.338 -1.82829 0.486856 0
M  V30 8124 O 763.681 -1.75236 -0.551198 0
M  V30 8125 C 763.743 -2.16 2.87375 0
M  V30 8126 C 763.407 -1.62931 4.26969 0
M  V30 8127 C 764.404 -1.08147 5.08528 0
M  V30 8128 C 762.089 -1.67769 4.73454 0
M  V30 8129 C 764.083 -0.589039 6.34672 0
M  V30 8130 C 761.77 -1.18138 5.99572 0
M  V30 8131 C 762.768 -0.637979 6.80014 0
M  V30 8132 O 762.456 -0.149073 8.03762 0
M  V30 8133 H 762.188 -0.33445 0.587469 0
M  V30 8134 H 764.742 -0.401109 2.01445 0
M  V30 8135 H 762.972 -2.89637 2.56218 0
M  V30 8136 H 764.661 -2.77432 2.96287 0
M  V30 8137 H 765.427 -1.03732 4.73777 0
M  V30 8138 H 761.306 -2.09004 4.10899 0
M  V30 8139 H 764.85 -0.164233 6.97407 0
M  V30 8140 H 760.747 -1.22254 6.33817 0
M  V30 8141 H 761.515 -0.266332 8.18067 0
M  V30 8142 N 764.178 -1.45556 -0.604258 0
M  V30 8143 C 765.427 -1.49019 -1.35928 0
M  V30 8144 C 765.74 -0.137409 -1.95117 0
M  V30 8145 O 766.946 -0.0497032 -2.71455 0
M  V30 8146 C 765.402 -2.62477 -2.46239 0
M  V30 8147 C 765.01 -4.04082 -1.93447 0
M  V30 8148 C 766.754 -2.7519 -3.23219 0
M  V30 8149 C 764.661 -5.08917 -3.0126 0
M  V30 8150 H 763.591 -0.554518 -0.510907 0
M  V30 8151 H 766.242 -1.71705 -0.647262 0
M  V30 8152 H 764.624 -2.3308 -3.2014 0
M  V30 8153 H 765.798 -4.43173 -1.26232 0
M  V30 8154 H 764.113 -3.95849 -1.29201 0
M  V30 8155 H 766.71 -3.50683 -4.0364 0
M  V30 8156 H 767.053 -1.81941 -3.74437 0
M  V30 8157 H 767.586 -3.04129 -2.56418 0
M  V30 8158 H 764.325 -6.03886 -2.54955 0
M  V30 8159 H 763.845 -4.74393 -3.67031 0
M  V30 8160 H 765.524 -5.33814 -3.65584 0
M  V30 8161 N 765.656 0.84705 -1.32902 0
M  V30 8162 C 767.067 1.41785 -1.21466 0
M  V30 8163 C 767.418 1.95464 0.169767 0
M  V30 8164 O 766.543 1.88157 1.06892 0
M  V30 8165 C 767.138 2.57734 -2.19906 0
M  V30 8166 C 765.697 3.10791 -2.12334 0
M  V30 8167 C 764.844 1.83562 -2.07847 0
M  V30 8168 H 767.795 0.653532 -1.44619 0
M  V30 8169 H 767.816 3.35123 -1.80202 0
M  V30 8170 H 767.328 2.18635 -3.20656 0
M  V30 8171 H 765.429 3.54455 -1.14858 0
M  V30 8172 H 765.542 3.71519 -3.02506 0
M  V30 8173 H 763.906 2.03475 -1.53199 0
M  V30 8174 H 764.689 1.4667 -3.10392 0
M  V30 8175 N 767.134 1.16236 1.06428 0
M  V30 8176 C 768.066 0.825446 2.1382 0
M  V30 8177 C 769.079 -0.166707 1.61944 0
M  V30 8178 O 770.268 0.0578606 1.78406 0
M  V30 8179 C 767.368 0.208023 3.38261 0
M  V30 8180 C 766.541 1.23994 4.19457 0
M  V30 8181 C 765.6 0.642569 5.22262 0
M  V30 8182 O 764.626 1.31106 5.53895 0
M  V30 8183 N 765.828 -0.571327 5.77682 0
M  V30 8184 H 768.593 1.7497 2.43322 0
M  V30 8185 H 766.154 1.05951 1.22417 0
M  V30 8186 H 768.146 -0.204608 4.04182 0
M  V30 8187 H 766.716 -0.619752 3.06395 0
M  V30 8188 H 765.936 1.82879 3.49212 0
M  V30 8189 H 767.224 1.93638 4.70512 0
M  V30 8190 H 766.622 -1.13263 5.54245 0
M  V30 8191 H 765.179 -0.926187 6.45186 0
M  V30 8192 N 768.612 -1.24939 0.960631 0
M  V30 8193 C 769.837 -1.9742 0.635608 0
M  V30 8194 C 770.262 -1.70857 -0.786737 0
M  V30 8195 O 769.62 -0.968063 -1.53291 0
M  V30 8196 C 769.668 -3.48987 0.907771 0
M  V30 8197 O 768.772 -4.12399 -0.0104053 0
M  V30 8198 H 768.113 -0.61871 0.241027 0
M  V30 8199 H 770.643 -1.58901 1.28886 0
M  V30 8200 H 770.653 -3.99334 0.836453 0
M  V30 8201 H 769.328 -3.6765 1.94439 0
M  V30 8202 H 767.905 -3.72727 0.113631 0
M  V30 8203 N 770.09 -0.729906 -1.39679 0
M  V30 8204 C 771.02 -0.101618 -2.33279 0
M  V30 8205 C 772.001 0.729854 -1.53646 0
M  V30 8206 O 773.186 0.67587 -1.82059 0
M  V30 8207 C 770.316 0.81024 -3.37716 0
M  V30 8208 C 769.27 0.0833126 -4.27919 0
M  V30 8209 C 768.596 1.11185 -5.23012 0
M  V30 8210 C 769.896 -1.07107 -5.112 0
M  V30 8211 H 771.59 -0.883452 -2.86069 0
M  V30 8212 H 769.136 -0.426283 -1.37546 0
M  V30 8213 H 771.089 1.25927 -4.02145 0
M  V30 8214 H 769.813 1.62413 -2.83354 0
M  V30 8215 H 768.472 -0.346043 -3.64963 0
M  V30 8216 H 768.12 1.91917 -4.64948 0
M  V30 8217 H 767.82 0.63026 -5.8421 0
M  V30 8218 H 769.344 1.56068 -5.90318 0
M  V30 8219 H 770.758 -0.700726 -5.69002 0
M  V30 8220 H 769.155 -1.48196 -5.81514 0
M  V30 8221 H 770.225 -1.89513 -4.46332 0
M  V30 8222 N 771.568 1.50203 -0.477153 0
M  V30 8223 C 772.984 1.59056 -0.131663 0
M  V30 8224 C 773.184 1.48473 1.36227 0
M  V30 8225 O 772.24 1.34635 2.13611 0
M  V30 8226 C 773.553 2.92741 -0.687254 0
M  V30 8227 C 775.101 3.0615 -0.651223 0
M  V30 8228 C 775.576 4.42419 -1.18446 0
M  V30 8229 N 777.067 4.48847 -1.14413 0
M  V30 8230 C 777.802 5.52689 -1.52717 0
M  V30 8231 N 777.298 6.63754 -1.98499 0
M  V30 8232 N 779.091 5.43267 -1.44282 0
M  V30 8233 H 771.242 1.55325 -1.44872 0
M  V30 8234 H 773.505 0.734395 -0.599473 0
M  V30 8235 H 773.211 3.0598 -1.73405 0
M  V30 8236 H 773.085 3.76961 -0.134215 0
M  V30 8237 H 775.472 2.92556 0.386677 0
M  V30 8238 H 775.553 2.23673 -1.24114 0
M  V30 8239 H 775.197 4.56763 -2.22103 0
M  V30 8240 H 775.127 5.23498 -0.570709 0
M  V30 8241 H 777.618 3.69152 -0.808416 0
M  V30 8242 H 777.931 7.39059 -2.25859 0
M  V30 8243 H 776.276 6.64858 -2.02456 0
M  V30 8244 H 779.467 4.55387 -1.08352 0
M  V30 8245 H 779.64 6.24074 -1.74459 0
M  V30 8246 N 773.046 0.209999 1.56195 0
M  V30 8247 C 774.294 -0.423974 1.97603 0
M  V30 8248 C 774.615 -1.61112 1.09854 0
M  V30 8249 O 773.885 -1.95134 0.173032 0
M  V30 8250 H 772.465 -0.159629 0.729745 0
M  V30 8251 H 775.127 0.300205 1.92574 0
M  V30 8252 H 774.223 -0.75809 3.02753 0
M  V30 8253 N 774.524 -1.57472 -0.0634922 0
M  V30 8254 C 775.77 -1.87932 -0.762194 0
M  V30 8255 C 776.103 -0.803377 -1.76804 0
M  V30 8256 O 775.378 0.185468 -1.93614 0
M  V30 8257 C 775.661 -3.29053 -1.46275 0
M  V30 8258 C 775.514 -4.47309 -0.472755 0
M  V30 8259 C 776.833 -3.68537 -2.40558 0
M  V30 8260 H 773.952 -0.683521 -0.275624 0
M  V30 8261 H 776.594 -1.89983 -0.0252651 0
M  V30 8262 H 774.744 -3.27435 -2.0909 0
M  V30 8263 H 776.416 -4.61053 0.150828 0
M  V30 8264 H 774.659 -4.33286 0.211187 0
M  V30 8265 H 775.33 -5.42853 -1.00072 0
M  V30 8266 H 777.806 -3.71302 -1.87814 0
M  V30 8267 H 776.682 -4.68152 -2.86574 0
M  V30 8268 H 776.943 -2.98917 -3.25731 0
M  V30 8269 N 776.003 0.335068 -1.53997 0
M  V30 8270 C 777.414 0.910191 -1.6301 0
M  V30 8271 C 777.765 1.89271 -0.516809 0
M  V30 8272 O 776.89 2.13516 0.352123 0
M  V30 8273 C 777.485 1.65761 -2.9548 0
M  V30 8274 C 776.044 2.18163 -3.06728 0
M  V30 8275 C 775.191 1.00338 -2.5851 0
M  V30 8276 H 778.142 0.112965 -1.58297 0
M  V30 8277 H 778.163 2.52107 -2.84995 0
M  V30 8278 H 777.675 0.94227 -3.76488 0
M  V30 8279 H 775.776 2.92847 -2.30372 0
M  V30 8280 H 775.889 2.43952 -4.1234 0
M  V30 8281 H 774.253 1.37925 -2.14124 0
M  V30 8282 H 775.036 0.30254 -3.41964 0
M  V30 8283 N 777.481 1.45874 0.596531 0
M  V30 8284 C 778.758 1.40942 1.35627 0
M  V30 8285 C 779.138 0.0857066 2.10926 0
M  V30 8286 O 778.486 -0.932544 2.08605 0
M  V30 8287 C 778.696 2.63027 2.29386 0
M  V30 8288 C 780.044 3.08588 2.91649 0
M  V30 8289 O 781.068 2.63478 2.39704 0
M  V30 8290 O 779.927 3.86902 3.85965 0
M  V30 8291 H 777.021 0.559838 0.608696 0
M  V30 8292 H 779.567 1.5802 0.618698 0
M  V30 8293 H 778.339 3.5094 1.7308 0
M  V30 8294 H 777.962 2.48338 3.10506 0
M  V30 8295 N 778.959 -0.83999 1.33349 0
M  V30 8296 C 780.184 -1.63249 1.27924 0
M  V30 8297 C 780.609 -1.87523 -0.147193 0
M  V30 8298 O 779.967 -1.43853 -1.10345 0
M  V30 8299 C 780.015 -2.96046 2.05886 0
M  V30 8300 O 779.119 -3.87303 1.4167 0
M  V30 8301 H 778.46 -0.49715 0.440157 0
M  V30 8302 H 780.99 -1.04512 1.75893 0
M  V30 8303 H 781 -3.45752 2.16609 0
M  V30 8304 H 779.675 -2.77701 3.09605 0
M  V30 8305 H 778.252 -3.45789 1.39585 0
M  V30 8306 N 780.437 -1.16799 -1.0581 0
M  V30 8307 C 781.848 -0.95945 -1.60161 0
M  V30 8308 C 782.199 0.49543 -1.89842 0
M  V30 8309 O 781.324 1.36957 -1.67546 0
M  V30 8310 C 781.919 -1.73527 -2.90987 0
M  V30 8311 C 780.478 -1.57158 -3.42021 0
M  V30 8312 C 779.625 -1.74089 -2.15843 0
M  V30 8313 H 782.576 -1.31598 -0.886992 0
M  V30 8314 H 782.597 -1.21397 -3.60615 0
M  V30 8315 H 782.109 -2.79411 -2.69353 0
M  V30 8316 H 780.21 -0.537361 -3.68705 0
M  V30 8317 H 780.323 -2.35858 -4.17022 0
M  V30 8318 H 778.687 -1.16874 -2.26302 0
M  V30 8319 H 779.47 -2.81371 -1.96686 0
M  V30 8320 N 781.915 1.24427 -0.967243 0
M  V30 8321 C 782.847 2.24641 -0.454856 0
M  V30 8322 C 783.86 1.56849 0.436152 0
M  V30 8323 O 785.049 1.76846 0.242401 0
M  V30 8324 C 782.149 3.36954 0.362672 0
M  V30 8325 C 781.322 4.34318 -0.518324 0
M  V30 8326 C 780.381 5.25638 0.243122 0
M  V30 8327 O 779.407 5.68043 -0.362791 0
M  V30 8328 N 780.609 5.59897 1.53282 0
M  V30 8329 H 783.374 2.69238 -1.31648 0
M  V30 8330 H 780.935 1.38464 -0.839015 0
M  V30 8331 H 782.927 3.95014 0.880094 0
M  V30 8332 H 781.497 2.91646 1.12522 0
M  V30 8333 H 780.717 3.74953 -1.21672 0
M  V30 8334 H 782.005 4.96338 -1.11919 0
M  V30 8335 H 781.403 5.27373 2.04682 0
M  V30 8336 H 779.96 6.20488 1.99594 0
M  V30 8337 N 783.393 0.737304 1.3929 0
M  V30 8338 C 784.809 0.413132 1.5416 0
M  V30 8339 C 785.009 -1.07574 1.70382 0
M  V30 8340 O 784.065 -1.86185 1.70562 0
M  V30 8341 C 785.378 1.19817 2.75798 0
M  V30 8342 C 786.926 1.18662 2.89635 0
M  V30 8343 C 787.401 1.95427 4.14213 0
M  V30 8344 N 788.892 1.92605 4.21257 0
M  V30 8345 C 789.627 2.48808 5.16606 0
M  V30 8346 N 789.123 3.13659 6.1773 0
M  V30 8347 N 790.916 2.38829 5.08839 0
M  V30 8348 H 783.067 1.70243 1.27008 0
M  V30 8349 H 785.33 0.720802 0.61575 0
M  V30 8350 H 785.036 2.25179 2.70161 0
M  V30 8351 H 784.91 0.804144 3.68529 0
M  V30 8352 H 787.297 0.141112 2.94762 0
M  V30 8353 H 787.378 1.62003 1.97961 0
M  V30 8354 H 787.022 2.9998 4.09847 0
M  V30 8355 H 786.952 1.4949 5.04936 0
M  V30 8356 H 789.443 1.45362 3.48824 0
M  V30 8357 H 789.756 3.54006 6.8695 0
M  V30 8358 H 788.101 3.17749 6.1811 0
M  V30 8359 H 791.292 1.87806 4.28773 0
M  V30 8360 H 791.465 2.82929 5.82971 0
M  V30 8361 N 784.871 -1.49948 0.485112 0
M  V30 8362 C 786.287 -1.58984 0.140096 0
M  V30 8363 C 786.487 -1.49194 -1.35438 0
M  V30 8364 O 785.543 -1.35765 -2.12894 0
M  V30 8365 C 786.856 -2.92372 0.702769 0
M  V30 8366 C 788.404 -3.05801 0.66745 0
M  V30 8367 C 788.879 -4.41785 1.20791 0
M  V30 8368 N 790.37 -4.48234 1.16792 0
M  V30 8369 C 791.105 -5.51871 1.55646 0
M  V30 8370 N 790.601 -6.62692 2.02016 0
M  V30 8371 N 792.394 -5.42494 1.47161 0
M  V30 8372 H 784.545 -1.54555 1.45693 0
M  V30 8373 H 786.808 -0.731206 0.603359 0
M  V30 8374 H 786.514 -3.05056 1.75025 0
M  V30 8375 H 786.388 -3.76885 0.154205 0
M  V30 8376 H 788.775 -2.92757 -0.371157 0
M  V30 8377 H 788.856 -2.23011 1.25298 0
M  V30 8378 H 788.5 -4.55579 2.24522 0
M  V30 8379 H 788.43 -5.23188 0.598464 0
M  V30 8380 H 790.921 -3.68718 0.827982 0
M  V30 8381 H 791.234 -7.3785 2.29775 0
M  V30 8382 H 789.579 -6.63775 2.05979 0
M  V30 8383 H 792.77 -4.54806 1.10765 0
M  V30 8384 H 792.943 -6.2314 1.77766 0
M  V30 8385 N 786.349 -0.21828 -1.56081 0
M  V30 8386 C 787.259 0.704602 -2.23769 0
M  V30 8387 C 788.275 1.21633 -1.24425 0
M  V30 8388 O 789.451 1.25862 -1.57228 0
M  V30 8389 C 786.516 1.89725 -2.90182 0
M  V30 8390 C 785.577 1.42782 -4.0486 0
M  V30 8391 C 784.81 2.56361 -4.68097 0
M  V30 8392 O 785.033 3.74417 -4.30312 0
M  V30 8393 O 783.967 2.2775 -5.57148 0
M  V30 8394 H 787.793 0.158007 -3.03289 0
M  V30 8395 H 785.378 0.0120279 -1.49395 0
M  V30 8396 H 787.26 2.59382 -3.32113 0
M  V30 8397 H 785.935 2.432 -2.13624 0
M  V30 8398 H 784.842 0.699359 -3.67505 0
M  V30 8399 H 786.175 0.939474 -4.83151 0
M  V30 8400 N 787.827 1.57504 0.0551401 0
M  V30 8401 C 788.774 2.04825 1.06373 0
M  V30 8402 C 789.744 0.932108 1.37481 0
M  V30 8403 O 790.929 1.20093 1.48265 0
M  V30 8404 C 788.069 2.51091 2.36743 0
M  V30 8405 C 787.182 3.76392 2.12021 0
M  V30 8406 C 786.317 4.11373 3.36074 0
M  V30 8407 C 785.356 5.29666 3.0679 0
M  V30 8408 N 784.493 5.60205 4.2322 0
M  V30 8409 H 789.333 2.90753 0.653216 0
M  V30 8410 H 786.87 1.43776 0.310951 0
M  V30 8411 H 788.828 2.75973 3.12881 0
M  V30 8412 H 787.458 1.68118 2.75565 0
M  V30 8413 H 786.51 3.58751 1.26498 0
M  V30 8414 H 787.822 4.62662 1.86401 0
M  V30 8415 H 786.976 4.37245 4.20597 0
M  V30 8416 H 785.715 3.23704 3.64784 0
M  V30 8417 H 784.72 5.03574 2.20664 0
M  V30 8418 H 785.945 6.18968 2.79385 0
M  V30 8419 H 783.891 4.75495 4.5193 0
M  V30 8420 H 783.808 6.40928 4.00933 0
M  V30 8421 H 785.076 5.90637 5.08692 0
M  V30 8422 N 789.305 -0.326896 1.54172 0
M  V30 8423 C 790.235 -1.40741 1.86317 0
M  V30 8424 C 791.216 -1.54125 0.719684 0
M  V30 8425 O 792.401 -1.6806 0.973117 0
M  V30 8426 C 789.531 -2.77557 2.08757 0
M  V30 8427 C 788.485 -2.78965 3.24596 0
M  V30 8428 C 787.811 -4.18824 3.32401 0
M  V30 8429 C 789.111 -2.4301 4.62324 0
M  V30 8430 H 790.805 -1.14088 2.76811 0
M  V30 8431 H 788.351 -0.547389 1.3319 0
M  V30 8432 H 790.304 -3.53209 2.29829 0
M  V30 8433 H 789.028 -3.0568 1.15009 0
M  V30 8434 H 787.687 -2.05767 3.03406 0
M  V30 8435 H 787.335 -4.44083 2.36218 0
M  V30 8436 H 787.035 -4.20673 4.10253 0
M  V30 8437 H 788.559 -4.96294 3.55703 0
M  V30 8438 H 789.973 -3.08375 4.83299 0
M  V30 8439 H 788.37 -2.56116 5.42701 0
M  V30 8440 H 789.44 -1.38165 4.64799 0
M  V30 8441 N 790.784 -1.46188 -0.588786 0
M  V30 8442 C 791.734 -1.5271 -1.69303 0
M  V30 8443 C 792.718 -0.388578 -1.56137 0
M  V30 8444 O 793.91 -0.636616 -1.65155 0
M  V30 8445 C 791.039 -1.51457 -3.08084 0
M  V30 8446 C 790.125 -2.70581 -3.26568 0
M  V30 8447 N 790.516 -3.9555 -3.15236 0
M  V30 8448 C 788.814 -2.66676 -3.57491 0
M  V30 8449 C 789.515 -4.75157 -3.35561 0
M  V30 8450 N 788.491 -4.06927 -3.60432 0
M  V30 8451 H 792.293 -2.47136 -1.59063 0
M  V30 8452 H 789.807 -1.41743 -0.792632 0
M  V30 8453 H 791.804 -1.54216 -3.87328 0
M  V30 8454 H 790.464 -0.581036 -3.19459 0
M  V30 8455 H 791.475 -4.2689 -2.93232 0
M  V30 8456 H 788.152 -1.82317 -3.75588 0
M  V30 8457 H 789.542 -5.84126 -3.32034 0
M  V30 8458 N 792.262 0.832906 -1.33792 0
M  V30 8459 C 793.209 1.94314 -1.24541 0
M  V30 8460 C 794.179 1.65646 -0.122753 0
M  V30 8461 O 795.364 1.88394 -0.30204 0
M  V30 8462 C 792.504 3.30395 -0.996641 0
M  V30 8463 C 791.617 3.71422 -2.20612 0
M  V30 8464 C 790.752 4.96401 -1.89101 0
M  V30 8465 C 789.791 5.2998 -3.06247 0
M  V30 8466 N 788.928 6.46137 -2.74685 0
M  V30 8467 H 793.768 2.01559 -2.19495 0
M  V30 8468 H 791.305 0.986243 -1.09141 0
M  V30 8469 H 793.263 4.08803 -0.832817 0
M  V30 8470 H 791.893 3.22691 -0.0838242 0
M  V30 8471 H 790.945 2.88488 -2.47949 0
M  V30 8472 H 792.257 3.92215 -3.0817 0
M  V30 8473 H 791.411 5.82572 -1.69396 0
M  V30 8474 H 790.15 4.7759 -0.987882 0
M  V30 8475 H 789.155 4.42312 -3.26559 0
M  V30 8476 H 790.38 5.50737 -3.97323 0
M  V30 8477 H 788.326 6.28801 -1.86938 0
M  V30 8478 H 788.243 6.67054 -3.55774 0
M  V30 8479 H 789.511 7.35403 -2.58461 0
M  V30 8480 N 793.74 1.17359 1.05189 0
M  V30 8481 C 794.986 0.963413 1.78455 0
M  V30 8482 C 795.319 -0.506703 1.87473 0
M  V30 8483 O 794.594 -1.37611 1.37453 0
M  V30 8484 C 794.877 1.60519 3.22344 0
M  V30 8485 C 794.73 3.14741 3.21338 0
M  V30 8486 C 796.049 1.3091 4.20179 0
M  V30 8487 H 793.168 0.351412 0.647826 0
M  V30 8488 H 795.81 1.44858 1.22948 0
M  V30 8489 H 793.96 1.19265 3.69741 0
M  V30 8490 H 795.632 3.65053 2.82017 0
M  V30 8491 H 793.875 3.4749 2.59679 0
M  V30 8492 H 794.546 3.54775 4.22894 0
M  V30 8493 H 797.022 1.66635 3.81277 0
M  V30 8494 H 795.898 1.784 5.191 0
M  V30 8495 H 796.159 0.229908 4.41502 0
M  V30 8496 N 795.218 -1.23913 0.973828 0
M  V30 8497 C 796.181 -2.23367 0.51378 0
M  V30 8498 C 797.181 -1.55923 -0.39302 0
M  V30 8499 O 798.371 -1.73187 -0.187626 0
M  V30 8500 C 795.503 -3.39944 -0.255152 0
M  V30 8501 H 796.696 -2.65581 1.39307 0
M  V30 8502 H 794.249 -1.36632 0.759039 0
M  V30 8503 H 794.984 -3.03177 -1.15127 0
M  V30 8504 H 794.769 -3.90098 0.395673 0
M  V30 8505 H 796.259 -4.13749 -0.565842 0
M  V30 8506 N 796.696 -0.74468 -1.38897 0
M  V30 8507 C 798.107 -0.36568 -1.83084 0
M  V30 8508 C 798.458 1.10436 -1.62168 0
M  V30 8509 O 797.583 1.85281 -1.11804 0
M  V30 8510 C 798.178 -0.656946 -3.3237 0
M  V30 8511 C 796.737 -0.331329 -3.74939 0
M  V30 8512 C 795.884 -0.914661 -2.61781 0
M  V30 8513 H 798.835 -0.941551 -1.27752 0
M  V30 8514 H 798.856 0.0679546 -3.80439 0
M  V30 8515 H 798.368 -1.72693 -3.47561 0
M  V30 8516 H 796.469 0.732426 -3.6533 0
M  V30 8517 H 796.582 -0.820655 -4.72019 0
M  V30 8518 H 794.946 -0.34063 -2.52412 0
M  V30 8519 H 795.729 -1.98949 -2.79775 0
M  V30 8520 N 798.174 1.49689 -0.493057 0
M  V30 8521 C 799.121 2.28976 0.28959 0
M  V30 8522 C 800.091 1.35011 0.967536 0
M  V30 8523 O 801.276 1.63964 0.975736 0
M  V30 8524 C 798.416 3.1748 1.35279 0
M  V30 8525 C 797.529 4.26496 0.687418 0
M  V30 8526 C 796.664 5.02226 1.73038 0
M  V30 8527 C 795.703 6.03089 1.04645 0
M  V30 8528 N 794.84 6.72014 2.03325 0
M  V30 8529 H 799.68 2.954 -0.392798 0
M  V30 8530 H 797.217 1.45657 -0.205554 0
M  V30 8531 H 799.175 3.67162 1.98111 0
M  V30 8532 H 797.805 2.53057 2.00405 0
M  V30 8533 H 796.857 3.80362 -0.0540001 0
M  V30 8534 H 798.169 4.98578 0.14864 0
M  V30 8535 H 797.323 5.55737 2.43395 0
M  V30 8536 H 796.062 4.29899 2.303 0
M  V30 8537 H 795.067 5.48817 0.328606 0
M  V30 8538 H 796.292 6.77398 0.480428 0
M  V30 8539 H 794.238 6.02464 2.59564 0
M  V30 8540 H 794.155 7.40046 1.54492 0
M  V30 8541 H 795.423 7.30133 2.72995 0
M  V30 8542 N 799.652 0.226554 1.55963 0
M  V30 8543 C 800.901 -0.40417 1.97609 0
M  V30 8544 C 801.214 -1.60541 1.1174 0
M  V30 8545 O 802.42 -2.30598 1.43307 0
M  V30 8546 C 800.876 -0.770466 3.51556 0
M  V30 8547 C 800.484 0.408244 4.46136 0
M  V30 8548 C 802.228 -1.36651 4.01904 0
M  V30 8549 C 800.135 0.0192347 5.91397 0
M  V30 8550 H 799.065 -0.15478 0.737943 0
M  V30 8551 H 801.716 0.323558 1.80625 0
M  V30 8552 H 800.098 -1.55575 3.6416 0
M  V30 8553 H 801.272 1.18575 4.45283 0
M  V30 8554 H 799.587 0.917859 4.06158 0
M  V30 8555 H 802.184 -1.67055 5.07934 0
M  V30 8556 H 802.527 -2.28403 3.48049 0
M  V30 8557 H 803.06 -0.644556 3.92543 0
M  V30 8558 H 799.799 0.90336 6.49245 0
M  V30 8559 H 799.319 -0.722485 5.95433 0
M  V30 8560 H 800.998 -0.405711 6.45727 0
M  V30 8561 N 801.13 -1.57531 -0.0467866 0
M  V30 8562 C 802.077 -2.05387 -1.05285 0
M  V30 8563 C 803.047 -0.939385 -1.36985 0
M  V30 8564 O 804.232 -1.20877 -1.47626 0
M  V30 8565 C 801.372 -2.52343 -2.35408 0
M  V30 8566 C 800.485 -3.77512 -2.10022 0
M  V30 8567 C 799.62 -4.1315 -3.33887 0
M  V30 8568 C 798.659 -5.31286 -3.03976 0
M  V30 8569 N 797.796 -5.62441 -4.20243 0
M  V30 8570 H 802.636 -2.91095 -0.637788 0
M  V30 8571 H 800.173 -1.43939 -0.303322 0
M  V30 8572 H 802.131 -2.77628 -3.11413 0
M  V30 8573 H 800.761 -1.69577 -2.7467 0
M  V30 8574 H 799.813 -3.59417 -1.24594 0
M  V30 8575 H 801.125 -4.63644 -1.83945 0
M  V30 8576 H 800.279 -4.39469 -4.18273 0
M  V30 8577 H 799.018 -3.25634 -3.63062 0
M  V30 8578 H 798.023 -5.04738 -2.17991 0
M  V30 8579 H 799.248 -6.20441 -2.76098 0
M  V30 8580 H 797.194 -4.77885 -4.49402 0
M  V30 8581 H 797.111 -6.43046 -3.97528 0
M  V30 8582 H 798.379 -5.93327 -5.05553 0
M  V30 8583 N 802.608 0.318715 -1.54344 0
M  V30 8584 C 803.571 1.37545 -1.83342 0
M  V30 8585 C 804.571 1.445 -0.705444 0
M  V30 8586 O 805.761 1.44443 -0.973752 0
M  V30 8587 C 802.893 2.76225 -1.99781 0
M  V30 8588 H 804.086 1.13084 -2.77762 0
M  V30 8589 H 801.639 0.554457 -1.46135 0
M  V30 8590 H 802.374 3.05934 -1.07588 0
M  V30 8591 H 802.159 2.7257 -2.81865 0
M  V30 8592 H 803.649 3.52664 -2.23647 0
M  V30 8593 N 804.086 1.46499 0.581025 0
M  V30 8594 C 805.016 1.60052 1.70017 0
M  V30 8595 C 805.997 0.450788 1.64018 0
M  V30 8596 O 807.182 0.677237 1.82009 0
M  V30 8597 C 804.312 1.5921 3.08658 0
M  V30 8598 C 803.266 2.73169 3.29488 0
M  V30 8599 C 802.592 2.57389 4.68674 0
M  V30 8600 C 803.892 4.14978 3.1716 0
M  V30 8601 H 805.586 2.53735 1.5893 0
M  V30 8602 H 803.132 1.22113 0.763173 0
M  V30 8603 H 805.085 1.67285 3.86773 0
M  V30 8604 H 803.809 0.620718 3.20647 0
M  V30 8605 H 802.468 2.64566 2.53773 0
M  V30 8606 H 802.116 1.58331 4.77431 0
M  V30 8607 H 801.816 3.33826 4.83564 0
M  V30 8608 H 803.34 2.67358 5.48956 0
M  V30 8609 H 804.754 4.24684 3.85119 0
M  V30 8610 H 803.151 4.92016 3.4357 0
M  V30 8611 H 804.221 4.35016 2.14218 0
M  V30 8612 N 805.565 -0.825799 1.34232 0
M  V30 8613 C 806.498 -1.94155 1.19914 0
M  V30 8614 C 807.476 -1.62343 0.0914533 0
M  V30 8615 O 808.66 -1.86752 0.256082 0
M  V30 8616 C 805.787 -3.28064 0.842138 0
M  V30 8617 C 804.833 -3.78839 1.95917 0
M  V30 8618 S 805.666 -3.98943 3.57218 0
M  V30 8619 C 806.822 -5.35783 3.23554 0
M  V30 8620 H 807.055 -2.06003 2.14359 0
M  V30 8621 H 804.588 -0.981053 1.19225 0
M  V30 8622 H 806.546 -4.05434 0.642952 0
M  V30 8623 H 805.207 -3.13988 -0.0839363 0
M  V30 8624 H 804.4 -4.75771 1.66306 0
M  V30 8625 H 804.002 -3.08406 2.11569 0
M  V30 8626 H 806.294 -6.19094 2.7519 0
M  V30 8627 H 807.237 -5.70376 4.19615 0
M  V30 8628 H 807.645 -5.01158 2.5981 0
M  V30 8629 N 807.043 -1.17915 -1.04565 0
M  V30 8630 C 807.976 -0.845021 -2.11978 0
M  V30 8631 C 808.954 0.19089 -1.61476 0
M  V30 8632 O 810.138 0.0709905 -1.88366 0
M  V30 8633 C 807.265 -0.261657 -3.37688 0
M  V30 8634 C 806.311 -1.27396 -4.07029 0
M  V30 8635 S 807.144 -2.82783 -4.54746 0
M  V30 8636 C 808.3 -2.25944 -5.83695 0
M  V30 8637 H 808.533 -1.75472 -2.39993 0
M  V30 8638 H 806.066 -1.00447 -1.17259 0
M  V30 8639 H 808.024 0.0684257 -4.10443 0
M  V30 8640 H 806.685 0.626082 -3.07797 0
M  V30 8641 H 805.878 -0.814557 -4.97374 0
M  V30 8642 H 805.48 -1.55002 -3.40368 0
M  V30 8643 H 807.772 -1.63892 -6.57378 0
M  V30 8644 H 808.715 -3.14569 -6.34391 0
M  V30 8645 H 809.123 -1.69155 -5.3856 0
M  V30 8646 N 808.521 1.23394 -0.980386 0
M  V30 8647 C 809.431 2.28561 -0.528864 0
M  V30 8648 C 810.447 1.68946 0.416329 0
M  V30 8649 O 811.623 1.99355 0.286251 0
M  V30 8650 C 808.688 3.46323 0.16155 0
M  V30 8651 C 807.749 4.21297 -0.825044 0
M  V30 8652 C 806.982 5.33437 -0.167483 0
M  V30 8653 O 807.205 5.60812 1.04146 0
M  V30 8654 O 806.139 5.95637 -0.866047 0
M  V30 8655 H 809.965 2.69326 -1.40346 0
M  V30 8656 H 807.55 1.29325 -0.748019 0
M  V30 8657 H 809.432 4.17811 0.548841 0
M  V30 8658 H 808.107 3.0751 1.01092 0
M  V30 8659 H 807.014 3.52134 -1.26303 0
M  V30 8660 H 808.347 4.6396 -1.64322 0
M  V30 8661 N 809.999 0.752036 1.385 0
M  V30 8662 C 811.224 0.316993 2.04963 0
M  V30 8663 C 811.649 -1.04582 1.56346 0
M  V30 8664 O 811.007 -1.66616 0.714755 0
M  V30 8665 C 811.055 0.347235 3.58924 0
M  V30 8666 O 810.159 -0.659296 4.07096 0
M  V30 8667 H 809.5 0.140652 0.648932 0
M  V30 8668 H 812.03 1.02272 1.77205 0
M  V30 8669 H 812.04 0.19757 4.07521 0
M  V30 8670 H 810.715 1.34157 3.93668 0
M  V30 8671 H 809.292 -0.474371 3.6987 0
M  V30 8672 N 811.477 -1.49425 0.500989 0
M  V30 8673 C 812.725 -2.02053 -0.0434495 0
M  V30 8674 C 813.046 -1.38285 -1.37486 0
M  V30 8675 O 812.316 -0.538171 -1.88363 0
M  V30 8676 H 810.896 -0.746757 -0.0190469 0
M  V30 8677 H 813.558 -1.83449 0.658227 0
M  V30 8678 H 812.654 -3.11619 -0.173129 0
M  V30 8679 N 812.955 -0.234822 -1.55841 0
M  V30 8680 C 814.183 0.397745 -2.03041 0
M  V30 8681 C 814.598 1.52405 -1.11437 0
M  V30 8682 O 813.955 1.82061 -0.126466 0
M  V30 8683 C 814.006 0.916919 -3.49678 0
M  V30 8684 O 813.727 -0.164493 -4.37791 0
M  V30 8685 C 815.228 1.62139 -4.12584 0
M  V30 8686 H 812.448 0.0959214 -0.664108 0
M  V30 8687 H 814.992 -0.355156 -2.01392 0
M  V30 8688 H 813.147 1.62004 -3.519 0
M  V30 8689 H 813.561 0.227794 -5.24005 0
M  V30 8690 H 815.035 1.93651 -5.16917 0
M  V30 8691 H 815.512 2.53918 -3.58361 0
M  V30 8692 H 816.118 0.963145 -4.14251 0
M  V30 8693 N 814.433 1.57553 0.0384317 0
M  V30 8694 C 815.661 1.93093 0.743141 0
M  V30 8695 C 816.076 0.833787 1.69391 0
M  V30 8696 O 815.433 -0.190532 1.81503 0
M  V30 8697 C 815.484 3.28533 1.50826 0
M  V30 8698 O 815.205 4.34032 0.595665 0
M  V30 8699 C 816.706 3.78297 2.31098 0
M  V30 8700 H 813.926 0.637486 0.20941 0
M  V30 8701 H 816.47 2.045 -0.00125154 0
M  V30 8702 H 814.625 3.18552 2.20462 0
M  V30 8703 H 815.039 5.12155 1.13124 0
M  V30 8704 H 816.513 4.75602 2.80191 0
M  V30 8705 H 816.99 3.09008 3.12107 0
M  V30 8706 H 817.596 3.91331 1.66555 0
M  V30 8707 N 815.911 -0.310526 1.54511 0
M  V30 8708 C 816.844 -1.40693 1.79668 0
M  V30 8709 C 817.822 -1.49159 0.64734 0
M  V30 8710 O 819.006 -1.66367 0.886239 0
M  V30 8711 C 816.133 -2.78685 1.92491 0
M  V30 8712 C 815.179 -2.87688 3.14861 0
M  V30 8713 S 816.012 -2.50759 4.7316 0
M  V30 8714 C 817.168 -3.90797 4.88906 0
M  V30 8715 H 817.401 -1.19142 2.72383 0
M  V30 8716 H 814.934 -0.508103 1.458 0
M  V30 8717 H 816.892 -3.58168 2.00563 0
M  V30 8718 H 815.553 -2.9751 1.00731 0
M  V30 8719 H 814.746 -3.8888 3.20607 0
M  V30 8720 H 814.348 -2.16189 3.05186 0
M  V30 8721 H 816.64 -4.85693 4.72344 0
M  V30 8722 H 817.583 -3.90027 5.91003 0
M  V30 8723 H 817.991 -3.80357 4.1712 0
M  V30 8724 N 817.389 -1.46805 -0.573248 0
M  V30 8725 C 818.635 -1.5283 -1.33307 0
M  V30 8726 C 818.968 -0.183287 -1.93333 0
M  V30 8727 O 818.243 0.806354 -1.76998 0
M  V30 8728 C 818.526 -2.63414 -2.45531 0
M  V30 8729 C 818.379 -4.07478 -1.90478 0
M  V30 8730 C 819.698 -2.70014 -3.47535 0
M  V30 8731 H 816.817 -0.556371 -0.483343 0
M  V30 8732 H 819.459 -1.78787 -0.643066 0
M  V30 8733 H 817.609 -2.41412 -3.04389 0
M  V30 8734 H 819.281 -4.40795 -1.36004 0
M  V30 8735 H 817.524 -4.16511 -1.21248 0
M  V30 8736 H 818.195 -4.80598 -2.71531 0
M  V30 8737 H 820.671 -2.89817 -2.98572 0
M  V30 8738 H 819.547 -3.49192 -4.23504 0
M  V30 8739 H 819.808 -1.76436 -4.05367 0
M  V30 8740 N 818.867 0.818669 -1.34668 0
M  V30 8741 C 820.115 1.57201 -1.27013 0
M  V30 8742 C 820.436 1.94354 0.158599 0
M  V30 8743 O 819.706 1.62626 1.09223 0
M  V30 8744 H 818.286 0.582919 -0.467135 0
M  V30 8745 H 820.948 0.977234 -1.6863 0
M  V30 8746 H 820.044 2.49291 -1.87778 0
M  V30 8747 N 820.346 1.18468 1.03938 0
M  V30 8748 C 821.576 1.0043 1.80547 0
M  V30 8749 C 821.984 -0.450407 1.83761 0
M  V30 8750 O 821.327 -1.32463 1.27276 0
M  V30 8751 C 821.389 1.48437 3.27424 0
M  V30 8752 C 821.053 2.96372 3.47869 0
M  V30 8753 C 822.05 3.94217 3.38953 0
M  V30 8754 C 819.735 3.34831 3.74424 0
M  V30 8755 C 821.729 5.28517 3.56298 0
M  V30 8756 C 819.416 4.69294 3.91416 0
M  V30 8757 C 820.414 5.65946 3.82354 0
M  V30 8758 O 820.102 6.97974 3.98858 0
M  V30 8759 H 819.834 0.354853 0.575374 0
M  V30 8760 H 822.388 1.57473 1.31876 0
M  V30 8761 H 820.618 0.857601 3.7707 0
M  V30 8762 H 822.307 1.2677 3.85596 0
M  V30 8763 H 823.073 3.6585 3.184 0
M  V30 8764 H 818.952 2.60161 3.80575 0
M  V30 8765 H 822.496 6.03943 3.49141 0
M  V30 8766 H 818.393 4.97361 4.11463 0
M  V30 8767 H 819.161 7.04895 4.1601 0
M  V30 8768 N 821.824 -1.22873 0.986916 0
M  V30 8769 C 822.756 -2.23889 0.490537 0
M  V30 8770 C 823.769 -1.57523 -0.411144 0
M  V30 8771 O 824.958 -1.7721 -0.214236 0
M  V30 8772 C 822.058 -3.37488 -0.30902 0
M  V30 8773 C 821.231 -4.33438 0.587354 0
M  V30 8774 C 820.29 -5.25958 -0.159467 0
M  V30 8775 O 819.316 -5.67394 0.453115 0
M  V30 8776 N 820.518 -5.62265 -1.44355 0
M  V30 8777 H 823.283 -2.67109 1.35914 0
M  V30 8778 H 820.844 -1.37111 0.860937 0
M  V30 8779 H 822.836 -3.96365 -0.817139 0
M  V30 8780 H 821.406 -2.934 -1.07868 0
M  V30 8781 H 820.626 -3.72969 1.27622 0
M  V30 8782 H 821.914 -4.94495 1.19801 0
M  V30 8783 H 821.312 -5.30562 -1.96266 0
M  V30 8784 H 819.869 -6.23585 -1.89698 0
M  V30 8785 N 823.302 -0.75937 -1.38099 0
M  V30 8786 C 824.713 -0.385078 -1.82686 0
M  V30 8787 C 825.064 1.0871 -1.6333 0
M  V30 8788 O 824.189 1.84084 -1.13762 0
M  V30 8789 C 824.784 -0.692161 -3.31654 0
M  V30 8790 C 823.343 -0.371077 -3.74566 0
M  V30 8791 C 822.49 -0.942375 -2.60796 0
M  V30 8792 H 825.441 -0.955048 -1.26746 0
M  V30 8793 H 825.462 0.0276001 -3.8049 0
M  V30 8794 H 824.974 -1.76369 -3.4571 0
M  V30 8795 H 823.075 0.693637 -3.66087 0
M  V30 8796 H 823.188 -0.870672 -4.71122 0
M  V30 8797 H 821.552 -0.367383 -2.52036 0
M  V30 8798 H 822.335 -2.01905 -2.77649 0
M  V30 8799 N 824.78 1.49157 -0.508906 0
M  V30 8800 C 825.712 2.272 0.302115 0
M  V30 8801 C 826.725 1.3407 0.923529 0
M  V30 8802 O 827.914 1.5929 0.805532 0
M  V30 8803 C 825.014 3.06736 1.44105 0
M  V30 8804 C 824.187 4.27497 0.925477 0
M  V30 8805 C 823.246 4.89014 1.94297 0
M  V30 8806 O 822.272 5.48851 1.50834 0
M  V30 8807 N 823.474 4.7937 3.2739 0
M  V30 8808 H 826.239 2.97443 -0.367115 0
M  V30 8809 H 823.8 1.58248 -0.341933 0
M  V30 8810 H 825.792 3.44763 2.11944 0
M  V30 8811 H 824.362 2.3905 2.0143 0
M  V30 8812 H 823.582 3.94135 0.0717301 0
M  V30 8813 H 824.87 5.05714 0.55955 0
M  V30 8814 H 824.268 4.31869 3.65384 0
M  V30 8815 H 822.825 5.21559 3.90922 0
M  V30 8816 N 826.258 0.243083 1.55714 0
M  V30 8817 C 827.506 -0.381964 1.98458 0
M  V30 8818 C 827.827 -1.58745 1.13247 0
M  V30 8819 O 827.097 -1.94723 0.214384 0
M  V30 8820 H 825.677 -0.144114 0.732967 0
M  V30 8821 H 828.339 0.340985 1.91894 0
M  V30 8822 H 827.435 -0.693702 3.04293 0
M  V30 8823 N 827.736 -1.57571 -0.0300757 0
M  V30 8824 C 829.013 -1.80381 -0.756447 0
M  V30 8825 C 829.393 -0.840906 -1.93628 0
M  V30 8826 O 828.741 0.117143 -2.282 0
M  V30 8827 C 828.951 -3.2807 -1.19043 0
M  V30 8828 C 830.299 -3.93025 -1.60676 0
M  V30 8829 O 831.323 -3.32213 -1.28503 0
M  V30 8830 O 830.182 -5.00092 -2.20386 0
M  V30 8831 H 827.276 -0.741737 -0.365725 0
M  V30 8832 H 829.822 -1.69699 -0.00693177 0
M  V30 8833 H 828.594 -3.89748 -0.348128 0
M  V30 8834 H 828.217 -3.43637 -1.99999 0
M  V30 8835 N 829.214 0.302327 -1.54673 0
M  V30 8836 C 830.161 1.37282 -1.85532 0
M  V30 8837 C 831.131 1.50437 -0.704129 0
M  V30 8838 O 832.316 1.65317 -0.952627 0
M  V30 8839 C 829.456 2.73309 -2.10704 0
M  V30 8840 C 828.569 2.68614 -3.38335 0
M  V30 8841 C 827.704 3.96626 -3.53357 0
M  V30 8842 C 826.743 3.86324 -4.74784 0
M  V30 8843 N 825.88 5.06109 -4.86619 0
M  V30 8844 H 830.72 1.10265 -2.76849 0
M  V30 8845 H 828.257 0.533346 -1.37091 0
M  V30 8846 H 830.215 3.52414 -2.23294 0
M  V30 8847 H 828.845 2.98589 -1.22656 0
M  V30 8848 H 827.897 1.81381 -3.34373 0
M  V30 8849 H 829.209 2.56891 -4.27561 0
M  V30 8850 H 828.363 4.84168 -3.65604 0
M  V30 8851 H 827.102 4.11182 -2.62261 0
M  V30 8852 H 826.107 2.97166 -4.62572 0
M  V30 8853 H 827.332 3.73315 -5.67286 0
M  V30 8854 H 825.278 5.2113 -3.98446 0
M  V30 8855 H 825.195 4.96804 -5.69844 0
M  V30 8856 H 826.463 5.95306 -5.03221 0
M  V30 8857 N 830.692 1.47107 0.565454 0
M  V30 8858 C 831.655 1.58535 1.65527 0
M  V30 8859 C 832.655 0.461081 1.54048 0
M  V30 8860 O 833.845 0.725911 1.58355 0
M  V30 8861 C 830.977 1.52204 3.05036 0
M  V30 8862 H 832.17 2.55676 1.56747 0
M  V30 8863 H 829.723 1.35174 0.78471 0
M  V30 8864 H 830.458 0.564071 3.19357 0
M  V30 8865 H 830.243 2.3379 3.14777 0
M  V30 8866 H 831.733 1.63322 3.84338 0
M  V30 8867 N 832.17 -0.811516 1.35101 0
M  V30 8868 C 833.118 -1.94449 1.27642 0
M  V30 8869 C 834.112 -1.68522 0.172287 0
M  V30 8870 O 835.318 -1.76799 0.337967 0
M  V30 8871 H 831.693 -0.638776 0.396824 0
M  V30 8872 H 833.664 -1.97861 2.23369 0
M  V30 8873 C 832.413 -3.31139 1.06029 0
M  V30 8874 H 831.736 -3.51644 1.90227 0
M  V30 8875 H 833.176 -4.10831 1.0485 0
M  V30 8876 C 831.635 -3.36072 -0.236039 0
M  V30 8877 O 832.165 -3.82292 -1.23353 0
M  V30 8878 N 830.371 -2.89314 -0.273107 0
M  V30 8879 H 829.918 -2.51893 0.539211 0
M  V30 8880 H 829.876 -2.92996 -1.1402 0
M  V30 8881 N 833.648 -1.19017 -1.03309 0
M  V30 8882 C 834.895 -0.990214 -1.76638 0
M  V30 8883 C 835.223 0.479435 -1.88498 0
M  V30 8884 O 834.478 1.37223 -1.39529 0
M  V30 8885 C 834.777 -1.59927 -3.19622 0
M  V30 8886 C 834.443 -3.09632 -3.27779 0
M  V30 8887 C 833.105 -3.50491 -3.29712 0
M  V30 8888 C 835.457 -4.05644 -3.27264 0
M  V30 8889 C 832.785 -4.85921 -3.28782 0
M  V30 8890 C 835.137 -5.41 -3.27875 0
M  V30 8891 C 833.801 -5.81295 -3.28104 0
M  V30 8892 H 833.071 -0.362345 -0.646364 0
M  V30 8893 H 835.718 -1.48197 -1.21284 0
M  V30 8894 H 834.023 -1.0297 -3.78027 0
M  V30 8895 H 835.72 -1.41989 -3.7502 0
M  V30 8896 H 832.31 -2.77073 -3.26999 0
M  V30 8897 H 836.494 -3.75124 -3.24955 0
M  V30 8898 H 831.75 -5.16427 -3.27281 0
M  V30 8899 H 835.924 -6.15157 -3.26428 0
M  V30 8900 H 833.551 -6.86211 -3.27138 0
M  V30 8901 N 835.127 1.22348 -0.993418 0
M  V30 8902 C 836.374 1.9111 -0.669568 0
M  V30 8903 C 836.702 1.77357 0.79843 0
M  V30 8904 O 835.957 1.13675 1.593 0
M  V30 8905 C 836.256 3.42477 -1.02197 0
M  V30 8906 C 835.922 3.7642 -2.48232 0
M  V30 8907 C 834.584 3.85395 -2.88139 0
M  V30 8908 C 836.936 3.9253 -3.42884 0
M  V30 8909 C 834.264 4.07918 -4.21687 0
M  V30 8910 C 836.616 4.16557 -4.76091 0
M  V30 8911 C 835.28 4.23757 -5.15739 0
M  V30 8912 H 834.55 0.699321 -0.245012 0
M  V30 8913 H 837.197 1.45102 -1.2497 0
M  V30 8914 H 835.502 3.90143 -0.359921 0
M  V30 8915 H 837.199 3.93935 -0.74942 0
M  V30 8916 H 833.789 3.70017 -2.16299 0
M  V30 8917 H 837.973 3.84974 -3.13224 0
M  V30 8918 H 833.229 4.11719 -4.51993 0
M  V30 8919 H 837.403 4.27966 -5.4938 0
M  V30 8920 H 835.03 4.40962 -6.19239 0
M  V30 8921 N 836.605 0.766683 1.37694 0
M  V30 8922 C 838.021 0.445739 1.53249 0
M  V30 8923 C 838.221 -1.03935 1.72626 0
M  V30 8924 O 837.277 -1.82525 1.74473 0
M  V30 8925 C 838.59 1.2564 2.73194 0
M  V30 8926 C 840.138 1.24779 2.87053 0
M  V30 8927 C 840.613 2.04169 4.09974 0
M  V30 8928 N 842.104 2.01497 4.17077 0
M  V30 8929 C 842.839 2.5971 5.11212 0
M  V30 8930 N 842.335 3.26691 6.10938 0
M  V30 8931 N 844.128 2.49568 5.03659 0
M  V30 8932 H 836.279 1.72899 1.23368 0
M  V30 8933 H 838.542 0.733701 0.600322 0
M  V30 8934 H 838.248 2.30859 2.65324 0
M  V30 8935 H 838.122 0.882133 3.6674 0
M  V30 8936 H 840.509 0.203603 2.94397 0
M  V30 8937 H 840.59 1.66166 1.9448 0
M  V30 8938 H 840.234 3.08606 4.03392 0
M  V30 8939 H 840.164 1.60167 5.01651 0
M  V30 8940 H 842.655 1.52728 3.45662 0
M  V30 8941 H 842.968 3.68497 6.79286 0
M  V30 8942 H 841.313 3.30789 6.11231 0
M  V30 8943 H 844.504 1.96859 4.24693 0
M  V30 8944 H 844.677 2.95231 5.76839 0
M  V30 8945 N 838.083 -1.48885 0.516809 0
M  V30 8946 C 839.016 -2.26218 -0.30011 0
M  V30 8947 C 839.994 -1.31491 -0.956496 0
M  V30 8948 O 841.178 -1.6081 -0.983488 0
M  V30 8949 C 838.305 -3.07315 -1.42392 0
M  V30 8950 C 837.351 -4.17316 -0.880295 0
M  V30 8951 S 838.184 -5.34955 0.24146 0
M  V30 8952 C 839.34 -6.1961 -0.885138 0
M  V30 8953 H 839.573 -2.95158 0.356217 0
M  V30 8954 H 837.106 -1.5141 0.302365 0
M  V30 8955 H 839.064 -3.54619 -2.06775 0
M  V30 8956 H 837.725 -2.37813 -2.05192 0
M  V30 8957 H 836.918 -4.73635 -1.72297 0
M  V30 8958 H 836.52 -3.72685 -0.313396 0
M  V30 8959 H 838.812 -6.53513 -1.78682 0
M  V30 8960 H 839.755 -7.07183 -0.360226 0
M  V30 8961 H 840.163 -5.52461 -1.1596 0
M  V30 8962 N 839.561 -0.251338 -1.55583 0
M  V30 8963 C 840.807 0.37272 -1.99346 0
M  V30 8964 C 841.14 1.57266 -1.13934 0
M  V30 8965 O 840.415 1.9343 -0.20377 0
M  V30 8966 C 840.698 0.778245 -3.5159 0
M  V30 8967 C 840.551 -0.427394 -4.47765 0
M  V30 8968 C 841.87 1.62358 -4.09057 0
M  V30 8969 H 838.989 0.134002 -0.724715 0
M  V30 8970 H 841.631 -0.353536 -1.86682 0
M  V30 8971 H 839.781 1.39704 -3.62512 0
M  V30 8972 H 841.453 -1.06586 -4.48818 0
M  V30 8973 H 839.696 -1.06972 -4.20404 0
M  V30 8974 H 840.367 -0.10025 -5.51909 0
M  V30 8975 H 842.843 1.1012 -4.01264 0
M  V30 8976 H 841.719 1.87617 -5.1584 0
M  V30 8977 H 841.98 2.59688 -3.57791 0
M  V30 8978 N 841.039 1.57585 0.0217189 0
M  V30 8979 C 842.288 1.88786 0.710125 0
M  V30 8980 C 842.601 0.850819 1.76126 0
M  V30 8981 O 843.807 1.0523 2.50277 0
M  V30 8982 C 842.263 3.3505 1.31413 0
M  V30 8983 C 841.871 4.47001 0.298959 0
M  V30 8984 C 843.615 3.7539 1.98199 0
M  V30 8985 C 841.522 5.8433 0.911727 0
M  V30 8986 H 840.452 0.704388 0.268986 0
M  V30 8987 H 843.103 1.83466 -0.0352638 0
M  V30 8988 H 841.485 3.35138 2.10947 0
M  V30 8989 H 842.659 4.58395 -0.470203 0
M  V30 8990 H 840.974 4.15542 -0.267222 0
M  V30 8991 H 843.571 4.75314 2.4491 0
M  V30 8992 H 843.914 3.07766 2.80331 0
M  V30 8993 H 844.447 3.77508 1.2543 0
M  V30 8994 H 841.186 6.55372 0.129659 0
M  V30 8995 H 840.706 5.76643 1.65056 0
M  V30 8996 H 842.385 6.31295 1.41688 0
M  V30 8997 N 842.517 -0.29412 1.54831 0
M  V30 8998 C 843.742 -1.05156 1.78765 0
M  V30 8999 C 844.167 -1.79916 0.548809 0
M  V30 9000 O 843.525 -1.74243 -0.500909 0
M  V30 9001 C 843.573 -2.00242 2.99893 0
M  V30 9002 O 842.677 -3.08662 2.73499 0
M  V30 9003 H 842.018 -0.301737 0.591482 0
M  V30 9004 H 844.548 -0.329449 2.0193 0
M  V30 9005 H 844.558 -2.42583 3.28051 0
M  V30 9006 H 843.233 -1.45235 3.89717 0
M  V30 9007 H 841.81 -2.70786 2.56377 0
M  V30 9008 N 843.995 -1.47404 -0.557645 0
M  V30 9009 C 844.943 -1.60265 -1.68576 0
M  V30 9010 C 845.937 -0.469982 -1.6275 0
M  V30 9011 O 847.143 -0.647764 -1.67941 0
M  V30 9012 H 843.518 -0.504353 -0.557792 0
M  V30 9013 H 845.489 -2.55066 -1.54867 0
M  V30 9014 C 844.238 -1.63369 -3.0693 0
M  V30 9015 H 843.561 -2.49874 -3.12095 0
M  V30 9016 H 845.001 -1.76417 -3.85556 0
M  V30 9017 C 843.46 -0.366921 -3.34896 0
M  V30 9018 O 843.99 0.53218 -3.98159 0
M  V30 9019 N 842.196 -0.247082 -2.89548 0
M  V30 9020 H 841.743 -0.979669 -2.38244 0
M  V30 9021 H 841.701 0.599552 -3.0863 0
M  V30 9022 N 845.473 0.80434 -1.35529 0
M  V30 9023 C 846.884 1.37849 -1.25915 0
M  V30 9024 C 847.235 1.95905 0.107495 0
M  V30 9025 O 846.36 1.91462 1.00852 0
M  V30 9026 C 846.955 2.50608 -2.27994 0
M  V30 9027 C 845.514 3.03879 -2.22114 0
M  V30 9028 C 844.661 1.76856 -2.13582 0
M  V30 9029 H 847.612 0.607192 -1.46625 0
M  V30 9030 H 847.633 3.29221 -1.90772 0
M  V30 9031 H 847.145 2.08323 -3.27449 0
M  V30 9032 H 845.246 3.50622 -1.26077 0
M  V30 9033 H 845.359 3.61707 -3.14173 0
M  V30 9034 H 843.723 1.98498 -1.59595 0
M  V30 9035 H 844.506 1.36721 -3.14901 0
M  V30 9036 N 846.951 1.19563 1.02676 0
M  V30 9037 C 847.914 0.937182 2.09164 0
M  V30 9038 C 848.914 -0.0831927 1.60585 0
M  V30 9039 O 850.104 0.15178 1.73538 0
M  V30 9040 C 847.236 0.408912 3.38439 0
M  V30 9041 H 848.429 1.88164 2.33526 0
M  V30 9042 H 845.982 1.00959 1.19319 0
M  V30 9043 H 846.717 -0.541497 3.19747 0
M  V30 9044 H 846.502 1.14464 3.7502 0
M  V30 9045 H 847.992 0.247242 4.16867 0
M  V30 9046 N 848.429 -1.21819 0.999893 0
M  V30 9047 C 849.392 -2.22227 0.561044 0
M  V30 9048 C 850.392 -1.56722 -0.359858 0
M  V30 9049 O 851.582 -1.73546 -0.150848 0
M  V30 9050 C 848.714 -3.40409 -0.182987 0
M  V30 9051 H 849.907 -2.62567 1.44909 0
M  V30 9052 H 847.46 -1.34991 0.78785 0
M  V30 9053 H 848.195 -3.05551 -1.08671 0
M  V30 9054 H 847.98 -3.89171 0.47833 0
M  V30 9055 H 849.47 -4.14856 -0.477952 0
M  V30 9056 N 849.908 -0.773975 -1.37286 0
M  V30 9057 C 851.136 -0.350758 -2.03905 0
M  V30 9058 C 851.551 1.02779 -1.58373 0
M  V30 9059 O 850.908 1.65646 -0.766009 0
M  V30 9060 C 850.959 -0.387335 -3.59419 0
M  V30 9061 O 850.68 -1.7115 -4.03286 0
M  V30 9062 C 852.181 0.047198 -4.43275 0
M  V30 9063 H 849.401 -0.146663 -0.654775 0
M  V30 9064 H 851.945 -1.04852 -1.75574 0
M  V30 9065 H 850.1 0.261865 -3.86514 0
M  V30 9066 H 850.514 -1.65166 -4.97816 0
M  V30 9067 H 851.988 -0.0295474 -5.51992 0
M  V30 9068 H 852.465 1.09786 -4.25257 0
M  V30 9069 H 853.071 -0.573899 -4.2141 0
M  V30 9070 N 851.386 1.48609 -0.524698 0
M  V30 9071 C 852.318 2.27508 0.278 0
M  V30 9072 C 853.331 1.35042 0.909258 0
M  V30 9073 O 854.52 1.60136 0.788592 0
M  V30 9074 C 851.62 3.08247 1.40843 0
M  V30 9075 C 850.793 4.28455 0.880083 0
M  V30 9076 C 849.852 4.91048 1.891 0
M  V30 9077 O 848.878 5.5042 1.45005 0
M  V30 9078 N 850.08 4.82816 3.22288 0
M  V30 9079 H 852.845 2.97037 -0.398642 0
M  V30 9080 H 850.406 1.57876 -0.358698 0
M  V30 9081 H 852.398 3.46992 2.08276 0
M  V30 9082 H 850.968 2.41173 1.98883 0
M  V30 9083 H 850.188 3.94189 0.0299228 0
M  V30 9084 H 851.476 5.06279 0.505881 0
M  V30 9085 H 850.874 4.3572 3.60783 0
M  V30 9086 H 849.431 5.25676 3.85368 0
M  V30 9087 N 852.864 0.259585 1.55447 0
M  V30 9088 C 854.089 -0.368317 2.04103 0
M  V30 9089 C 854.514 -1.49827 1.13725 0
M  V30 9090 O 853.872 -1.80814 0.132705 0
M  V30 9091 C 853.92 -0.841506 3.50644 0
M  V30 9092 O 853.024 -1.95008 3.63381 0
M  V30 9093 H 852.365 -0.0785227 0.659341 0
M  V30 9094 H 854.895 0.389349 2.00861 0
M  V30 9095 H 854.905 -1.14138 3.9171 0
M  V30 9096 H 853.58 -0.0147001 4.15897 0
M  V30 9097 H 852.157 -1.65393 3.34215 0
M  V30 9098 N 854.342 -1.57594 -0.0133615 0
M  V30 9099 C 855.619 -1.81173 -0.737273 0
M  V30 9100 C 855.999 -0.861395 -1.92726 0
M  V30 9101 O 855.347 0.0929324 -2.28311 0
M  V30 9102 C 855.557 -3.29314 -1.15557 0
M  V30 9103 C 856.905 -3.94707 -1.56498 0
M  V30 9104 O 857.929 -3.33557 -1.24973 0
M  V30 9105 O 856.788 -5.02402 -2.15069 0
M  V30 9106 H 853.882 -0.745575 -0.357837 0
M  V30 9107 H 856.428 -1.69696 0.0110674 0
M  V30 9108 H 855.2 -3.90096 -0.30677 0
M  V30 9109 H 854.823 -3.45739 -1.96343 0
M  V30 9110 N 855.82 0.285905 -1.54985 0
M  V30 9111 C 857.069 1.01691 -1.74189 0
M  V30 9112 C 857.382 1.87908 -0.543135 0
M  V30 9113 O 858.588 2.64389 -0.617305 0
M  V30 9114 C 857.044 1.85785 -3.0824 0
M  V30 9115 C 856.652 1.04497 -4.35642 0
M  V30 9116 C 858.396 2.58393 -3.36798 0
M  V30 9117 C 856.303 1.87955 -5.60738 0
M  V30 9118 H 855.233 0.383396 -0.649248 0
M  V30 9119 H 857.884 0.27317 -1.81455 0
M  V30 9120 H 856.266 2.64205 -2.94978 0
M  V30 9121 H 857.44 0.305847 -4.59784 0
M  V30 9122 H 855.755 0.434023 -4.14132 0
M  V30 9123 H 858.352 3.21214 -4.27464 0
M  V30 9124 H 858.695 3.28011 -2.56349 0
M  V30 9125 H 859.228 1.87012 -3.511 0
M  V30 9126 H 855.967 1.22781 -6.43898 0
M  V30 9127 H 855.487 2.59499 -5.40759 0
M  V30 9128 H 857.166 2.45636 -5.98558 0
M  V30 9129 N 857.298 1.47698 0.54982 0
M  V30 9130 C 858.575 1.45185 1.31075 0
M  V30 9131 C 858.955 0.152768 2.10547 0
M  V30 9132 O 858.303 -0.865706 2.11466 0
M  V30 9133 C 858.513 2.70192 2.20902 0
M  V30 9134 C 859.861 3.1771 2.81683 0
M  V30 9135 O 860.885 2.70971 2.312 0
M  V30 9136 O 859.744 3.98986 3.7346 0
M  V30 9137 H 856.838 0.57892 0.590577 0
M  V30 9138 H 859.384 1.59908 0.568112 0
M  V30 9139 H 858.156 3.56269 1.61828 0
M  V30 9140 H 857.779 2.58091 3.02448 0
M  V30 9141 N 858.776 -0.797141 1.35954 0
M  V30 9142 C 860.023 -1.55468 1.29754 0
M  V30 9143 C 860.351 -1.94095 -0.125391 0
M  V30 9144 O 859.606 -1.62341 -1.09288 0
M  V30 9145 C 859.905 -2.84847 2.15863 0
M  V30 9146 C 859.571 -2.65394 3.64523 0
M  V30 9147 C 858.233 -2.59796 4.05042 0
M  V30 9148 C 860.585 -2.4727 4.58811 0
M  V30 9149 C 857.913 -2.3403 5.38002 0
M  V30 9150 C 860.265 -2.23032 5.91979 0
M  V30 9151 C 858.929 -2.15862 6.31633 0
M  V30 9152 H 858.199 -0.568897 0.474803 0
M  V30 9153 H 860.846 -0.920299 1.67937 0
M  V30 9154 H 859.151 -3.52712 1.70591 0
M  V30 9155 H 860.848 -3.42597 2.08395 0
M  V30 9156 H 857.438 -2.70602 3.32374 0
M  V30 9157 H 861.622 -2.506 4.28384 0
M  V30 9158 H 856.878 -2.26956 5.67715 0
M  V30 9159 H 861.052 -2.08001 6.64612 0
M  V30 9160 H 858.679 -1.9566 7.34589 0
M  V30 9161 N 860.254 -1.20106 -1.0204 0
M  V30 9162 C 861.184 -0.970301 -2.12385 0
M  V30 9163 C 862.165 0.099378 -1.69809 0
M  V30 9164 O 863.35 -0.057365 -1.94115 0
M  V30 9165 C 860.48 -0.517431 -3.43424 0
M  V30 9166 C 859.434 -1.52992 -3.99722 0
M  V30 9167 C 858.76 -0.933817 -5.26483 0
M  V30 9168 C 860.06 -2.91257 -4.33551 0
M  V30 9169 H 861.754 -1.89316 -2.31948 0
M  V30 9170 H 859.3 -0.911655 -1.11467 0
M  V30 9171 H 861.253 -0.343243 -4.2 0
M  V30 9172 H 859.977 0.441049 -3.23608 0
M  V30 9173 H 858.636 -1.6914 -3.2525 0
M  V30 9174 H 858.284 0.0324763 -5.0299 0
M  V30 9175 H 857.984 -1.60999 -5.65113 0
M  V30 9176 H 859.508 -0.770614 -6.05718 0
M  V30 9177 H 860.922 -2.78642 -5.0103 0
M  V30 9178 H 859.319 -3.55745 -4.83286 0
M  V30 9179 H 860.389 -3.43269 -3.42483 0
M  V30 9180 N 861.732 1.21287 -1.00634 0
M  V30 9181 C 862.981 1.89706 -0.685178 0
M  V30 9182 C 863.294 1.79044 0.787566 0
M  V30 9183 O 864.5 2.42502 1.22086 0
M  V30 9184 C 862.956 3.40176 -1.17508 0
M  V30 9185 C 862.564 3.59446 -2.674 0
M  V30 9186 C 864.308 4.14213 -0.928869 0
M  V30 9187 C 862.215 5.03688 -3.09923 0
M  V30 9188 H 861.145 0.710434 -0.252586 0
M  V30 9189 H 863.796 1.37277 -1.21768 0
M  V30 9190 H 862.178 3.91867 -0.570622 0
M  V30 9191 H 863.352 3.18188 -3.33306 0
M  V30 9192 H 861.667 2.98764 -2.9005 0
M  V30 9193 H 864.264 5.20546 -1.22212 0
M  V30 9194 H 864.607 4.16082 0.134859 0
M  V30 9195 H 865.14 3.68591 -1.49619 0
M  V30 9196 H 861.879 5.06968 -4.15529 0
M  V30 9197 H 861.399 5.45796 -2.4873 0
M  V30 9198 H 863.078 5.72204 -3.0198 0
M  V30 9199 N 863.21 0.781244 1.36873 0
M  V30 9200 C 864.12 0.174981 2.33947 0
M  V30 9201 C 865.136 -0.668512 1.60645 0
M  V30 9202 O 866.312 -0.586213 1.9268 0
M  V30 9203 C 863.377 -0.686557 3.39834 0
M  V30 9204 C 862.438 0.174489 4.28945 0
M  V30 9205 C 861.671 -0.646024 5.29776 0
M  V30 9206 O 861.894 -1.88254 5.38439 0
M  V30 9207 O 860.828 -0.0502214 6.01879 0
M  V30 9208 H 864.654 0.977382 2.87543 0
M  V30 9209 H 862.239 0.542559 1.392 0
M  V30 9210 H 864.121 -1.1781 4.04597 0
M  V30 9211 H 862.796 -1.46699 2.8855 0
M  V30 9212 H 861.703 0.712604 3.6725 0
M  V30 9213 H 863.036 0.918232 4.83559 0
M  V30 9214 N 864.689 -1.48329 0.532571 0
M  V30 9215 C 865.599 -2.33445 -0.232546 0
M  V30 9216 C 866.615 -1.46651 -0.93645 0
M  V30 9217 O 867.791 -1.79627 -0.910834 0
M  V30 9218 C 864.856 -3.22824 -1.26434 0
M  V30 9219 C 863.917 -4.25492 -0.570511 0
M  V30 9220 C 863.15 -5.10601 -1.55315 0
M  V30 9221 O 863.373 -4.97733 -2.78599 0
M  V30 9222 O 862.307 -5.91927 -1.09112 0
M  V30 9223 H 866.133 -3.00119 0.464988 0
M  V30 9224 H 863.718 -1.46489 0.293462 0
M  V30 9225 H 865.6 -3.78103 -1.86055 0
M  V30 9226 H 864.275 -2.58807 -1.94424 0
M  V30 9227 H 863.182 -3.74041 0.0662587 0
M  V30 9228 H 864.515 -4.92154 0.0674904 0
M  V30 9229 N 866.167 -0.267825 -1.55308 0
M  V30 9230 C 867.416 0.351635 -1.98611 0
M  V30 9231 C 867.729 1.57522 -1.15957 0
M  V30 9232 O 868.935 2.26717 -1.49371 0
M  V30 9233 C 867.391 0.676986 -3.53475 0
M  V30 9234 C 866.999 -0.526385 -4.44897 0
M  V30 9235 C 868.743 1.25948 -4.05386 0
M  V30 9236 C 866.65 -0.176026 -5.91138 0
M  V30 9237 H 865.58 0.13516 -0.741787 0
M  V30 9238 H 868.231 -0.371333 -1.79704 0
M  V30 9239 H 866.613 1.45866 -3.68156 0
M  V30 9240 H 867.787 -1.30339 -4.41982 0
M  V30 9241 H 866.102 -1.02522 -4.03582 0
M  V30 9242 H 868.699 1.53529 -5.12184 0
M  V30 9243 H 869.042 2.19094 -3.53982 0
M  V30 9244 H 869.575 0.540253 -3.94114 0
M  V30 9245 H 866.314 -1.07518 -6.46622 0
M  V30 9246 H 865.834 0.564363 -5.97139 0
M  V30 9247 H 867.513 0.234365 -6.46575 0
M  V30 9248 N 867.645 1.57599 0.00500368 0
M  V30 9249 C 868.555 2.11532 1.01446 0
M  V30 9250 C 869.571 1.05941 1.3803 0
M  V30 9251 O 870.747 1.37815 1.46864 0
M  V30 9252 C 867.812 2.60382 2.28915 0
M  V30 9253 C 866.873 3.80554 1.98689 0
M  V30 9254 C 866.106 4.27064 3.20081 0
M  V30 9255 O 866.329 3.72939 4.31593 0
M  V30 9256 O 865.263 5.1927 3.04371 0
M  V30 9257 H 869.089 2.97993 0.586011 0
M  V30 9258 H 866.674 1.47718 0.223519 0
M  V30 9259 H 868.556 2.92024 3.03809 0
M  V30 9260 H 867.231 1.77022 2.71007 0
M  V30 9261 H 866.138 3.53893 1.21286 0
M  V30 9262 H 867.471 4.64972 1.61437 0
M  V30 9263 N 869.123 -0.277682 1.55134 0
M  V30 9264 C 870.539 -0.624625 1.46869 0
M  V30 9265 C 870.739 -1.89717 0.678958 0
M  V30 9266 O 869.795 -2.51739 0.195939 0
M  V30 9267 C 871.108 -0.755937 2.91043 0
M  V30 9268 C 872.656 -0.850299 3.01229 0
M  V30 9269 C 873.131 -1.01343 4.46647 0
M  V30 9270 N 874.622 -1.07906 4.50456 0
M  V30 9271 C 875.357 -1.224 5.60184 0
M  V30 9272 N 874.853 -1.33642 6.79788 0
M  V30 9273 N 876.646 -1.25473 5.47917 0
M  V30 9274 H 868.797 0.558102 2.04937 0
M  V30 9275 H 871.06 0.188228 0.929125 0
M  V30 9276 H 870.766 0.108593 3.51532 0
M  V30 9277 H 870.64 -1.6377 3.39793 0
M  V30 9278 H 873.027 -1.7053 2.40839 0
M  V30 9279 H 873.108 0.0559681 2.55739 0
M  V30 9280 H 872.752 -0.163102 5.07638 0
M  V30 9281 H 872.682 -1.93427 4.89789 0
M  V30 9282 H 875.173 -1.00477 3.64298 0
M  V30 9283 H 875.486 -1.44522 7.59166 0
M  V30 9284 H 873.831 -1.30655 6.82608 0
M  V30 9285 H 877.022 -1.16317 4.53418 0
M  V30 9286 H 877.195 -1.36424 6.33476 0
M  V30 9287 N 870.601 -1.47988 -0.541979 0
M  V30 9288 C 871.531 -1.64503 -1.65713 0
M  V30 9289 C 872.512 -0.494116 -1.62765 0
M  V30 9290 O 873.697 -0.725256 -1.80149 0
M  V30 9291 C 870.827 -1.67337 -3.04328 0
M  V30 9292 C 869.781 -2.81809 -3.2213 0
M  V30 9293 C 869.107 -2.69724 -4.61685 0
M  V30 9294 C 870.407 -4.23241 -3.06046 0
M  V30 9295 H 872.101 -2.5786 -1.52147 0
M  V30 9296 H 869.647 -1.24094 -0.730529 0
M  V30 9297 H 871.6 -1.77481 -3.82202 0
M  V30 9298 H 870.324 -0.705514 -3.18889 0
M  V30 9299 H 868.983 -2.71201 -2.46669 0
M  V30 9300 H 868.631 -1.70934 -4.73065 0
M  V30 9301 H 868.331 -3.4653 -4.74543 0
M  V30 9302 H 869.855 -2.81818 -5.41674 0
M  V30 9303 H 871.269 -4.34746 -3.73723 0
M  V30 9304 H 869.666 -5.00952 -3.30405 0
M  V30 9305 H 870.736 -4.40543 -2.02609 0
M  V30 9306 N 872.079 0.78992 -1.36375 0
M  V30 9307 C 873.327 1.54472 -1.30319 0
M  V30 9308 C 873.648 1.94647 0.117338 0
M  V30 9309 O 872.918 1.64906 1.05748 0
M  V30 9310 H 871.498 0.572879 -0.479394 0
M  V30 9311 H 874.16 0.941245 -1.70665 0
M  V30 9312 H 873.256 2.45252 -1.93024 0
M  V30 9313 N 873.557 1.20646 1.01402 0
M  V30 9314 C 874.489 0.915392 2.10127 0
M  V30 9315 C 875.502 -0.0978705 1.62506 0
M  V30 9316 O 876.691 0.133477 1.78 0
M  V30 9317 C 873.791 0.351304 3.37074 0
M  V30 9318 C 872.964 1.41673 4.13821 0
M  V30 9319 C 872.023 0.8635 5.19067 0
M  V30 9320 O 871.049 1.54481 5.47836 0
M  V30 9321 N 872.251 -0.325799 5.79585 0
M  V30 9322 H 875.016 1.85132 2.35682 0
M  V30 9323 H 872.577 1.11048 1.17813 0
M  V30 9324 H 874.569 -0.032996 4.04687 0
M  V30 9325 H 873.139 -0.489242 3.08748 0
M  V30 9326 H 872.359 1.97526 3.41141 0
M  V30 9327 H 873.647 2.1342 4.61876 0
M  V30 9328 H 873.045 -0.896534 5.58551 0
M  V30 9329 H 871.602 -0.651708 6.48534 0
M  V30 9330 N 875.035 -1.20752 1.01276 0
M  V30 9331 C 876.312 -1.85676 0.615112 0
M  V30 9332 C 876.692 -1.90623 -0.906976 0
M  V30 9333 O 876.04 -1.41124 -1.79712 0
M  V30 9334 C 876.25 -3.2552 1.25847 0
M  V30 9335 C 877.598 -4.0184 1.37148 0
M  V30 9336 O 878.622 -3.3486 1.21438 0
M  V30 9337 O 877.481 -5.21783 1.62495 0
M  V30 9338 H 874.575 -0.799437 0.211729 0
M  V30 9339 H 877.121 -1.28372 1.10989 0
M  V30 9340 H 875.893 -3.16664 2.29869 0
M  V30 9341 H 875.516 -3.90452 0.750524 0
M  V30 9342 N 876.513 -0.788492 -1.36457 0
M  V30 9343 C 877.443 -0.200468 -2.32638 0
M  V30 9344 C 878.424 0.664031 -1.56603 0
M  V30 9345 O 879.609 0.598045 -1.84762 0
M  V30 9346 C 876.739 0.666274 -3.40849 0
M  V30 9347 C 875.693 -0.0982574 -4.27887 0
M  V30 9348 C 875.019 0.889018 -5.27258 0
M  V30 9349 C 876.319 -1.28692 -5.06197 0
M  V30 9350 H 878.013 -1.00399 -2.82065 0
M  V30 9351 H 875.559 -0.484237 -1.35614 0
M  V30 9352 H 877.512 1.08757 -4.07124 0
M  V30 9353 H 876.236 1.50249 -2.89987 0
M  V30 9354 H 874.895 -0.500525 -3.63167 0
M  V30 9355 H 874.543 1.72024 -4.7267 0
M  V30 9356 H 874.243 0.381909 -5.86358 0
M  V30 9357 H 875.767 1.30891 -5.96406 0
M  V30 9358 H 877.181 -0.941429 -5.65517 0
M  V30 9359 H 875.578 -1.72726 -5.74705 0
M  V30 9360 H 876.648 -2.08273 -4.37893 0
M  V30 9361 O 878.03 1.46408 -0.681684 0
M  V30 9362 H 878.721 1.92492 -0.21602 0
M  V30 END ATOM
M  V30 BEGIN BOND
M  V30 END BOND
M  V30 END CTAB
M  END
$$$$
