drugbank_target|P16233 Pancreatic triacylglycerol lipase (DB01083; DB02451; DB04233; DB06586; DB08222)
 OpenBabel12092119373D

  0  0  0     0  0            999 V3000
M  V30 BEGIN CTAB
M  V30 COUNTS 7099 7194 0 0 0
M  V30 BEGIN ATOM
M  V30 1 H -0.908 1.98254 -0.117106 0
M  V30 2 N 0 1.576 0 0
M  V30 3 C 0.933 2.03868 1.02534 0
M  V30 4 C 1.911 0.928543 1.3348 0
M  V30 5 O 3.095 1.19667 1.45644 0
M  V30 6 C 0.222 2.43627 2.35294 0
M  V30 7 C -0.732 3.65373 2.2001 0
M  V30 8 S 0.101 5.13292 1.52614 0
M  V30 9 C 1.257 5.56322 2.86805 0
M  V30 10 H 1.49 2.90518 0.631377 0
M  V30 11 H -0.977 1.52953 0.210867 0
M  V30 12 H 0.981 2.67203 3.11629 0
M  V30 13 H -0.358 1.57376 2.7183 0
M  V30 14 H -1.165 3.90944 3.18086 0
M  V30 15 H -1.563 3.418 1.51819 0
M  V30 16 H 0.729 5.58782 3.83104 0
M  V30 17 H 1.672 6.56266 2.65933 0
M  V30 18 H 2.08 4.83886 2.90714 0
M  V30 19 N 1.4781 -0.272755 1.55222 0
M  V30 20 C 2.4081 -1.34136 1.91127 0
M  V30 21 C 3.3891 -1.51513 0.773168 0
M  V30 22 O 4.5741 -1.64552 1.03132 0
M  V30 23 C 1.7041 -2.70083 2.1834 0
M  V30 24 C 0.6581 -2.67437 3.34158 0
M  V30 25 C -0.0159 -4.06938 3.46851 0
M  V30 26 C 1.2841 -2.26686 4.70543 0
M  V30 27 H 2.9781 -1.04333 2.80633 0
M  V30 28 H 0.5241 -0.500454 1.35024 0
M  V30 29 H 2.4771 -3.44952 2.42046 0
M  V30 30 H 1.2011 -3.01469 1.25634 0
M  V30 31 H -0.1399 -1.95026 3.1042 0
M  V30 32 H -0.4919 -4.35547 2.51611 0
M  V30 33 H -0.7919 -4.06062 4.2472 0
M  V30 34 H 0.7321 -4.83545 3.72849 0
M  V30 35 H 2.1461 -2.91277 4.93792 0
M  V30 36 H 0.5431 -2.36971 5.5133 0
M  V30 37 H 1.6131 -1.21818 4.69349 0
M  V30 38 N 2.9562 -1.48159 -0.537278 0
M  V30 39 C 4.3672 -1.49429 -1.11928 0
M  V30 40 C 4.7182 -0.26 -1.9447 0
M  V30 41 O 3.8432 0.633489 -2.0692 0
M  V30 42 C 4.4382 -2.70758 -2.03656 0
M  V30 43 C 2.9972 -2.74923 -2.57088 0
M  V30 44 C 2.1442 -2.42835 -1.3389 0
M  V30 45 H 5.0952 -1.55381 -0.322886 0
M  V30 46 H 5.1162 -2.48861 -2.87834 0
M  V30 47 H 4.6282 -3.60575 -1.43553 0
M  V30 48 H 2.7292 -1.89296 -3.20933 0
M  V30 49 H 2.8422 -3.76157 -2.9672 0
M  V30 50 H 1.2062 -1.93836 -1.65226 0
M  V30 51 H 1.9892 -3.34884 -0.755504 0
M  V30 52 N 4.4343 0.785586 -1.36625 0
M  V30 53 C 5.3643 1.91259 -1.33949 0
M  V30 54 C 6.3453 1.68795 -0.210325 0
M  V30 55 O 7.5303 1.89854 -0.408561 0
M  V30 56 C 4.6603 3.28339 -1.13186 0
M  V30 57 C 3.6143 3.65335 -2.22967 0
M  V30 58 C 2.9403 5.00806 -1.87342 0
M  V30 59 C 4.2403 3.7352 -3.65075 0
M  V30 60 H 5.9343 1.93755 -2.28253 0
M  V30 61 H 3.4803 0.930788 -1.09874 0
M  V30 62 H 5.4333 4.06804 -1.09948 0
M  V30 63 H 4.1573 3.2624 -0.153332 0
M  V30 64 H 2.8163 2.89169 -2.25337 0
M  V30 65 H 2.4643 4.95233 -0.880545 0
M  V30 66 H 2.1643 5.26529 -2.60846 0
M  V30 67 H 3.6883 5.81687 -1.85667 0
M  V30 68 H 5.1023 4.42168 -3.64911 0
M  V30 69 H 3.4993 4.10731 -4.37516 0
M  V30 70 H 4.5693 2.74527 -3.99703 0
M  V30 71 N 5.9124 1.20967 1.01018 0
M  V30 72 C 7.1584 1.0353 1.7508 0
M  V30 73 C 7.5134 -0.42734 1.87594 0
M  V30 74 O 6.8064 -1.31298 1.3954 0
M  V30 75 C 7.0004 1.65997 3.16512 0
M  V30 76 C 6.8294 3.18184 3.17788 0
M  V30 77 C 5.5994 3.87198 3.24662 0
M  V30 78 C 7.7974 4.15334 3.03319 0
M  V30 79 N 5.7794 5.26618 3.15509 0
M  V30 80 C 7.1504 5.41472 3.02007 0
M  V30 81 C 9.2054 4.06449 2.87583 0
M  V30 82 C 7.9084 6.5975 2.86571 0
M  V30 83 C 9.9344 5.24357 2.73503 0
M  V30 84 C 9.2964 6.49404 2.72862 0
M  V30 85 H 5.3954 0.433137 0.651089 0
M  V30 86 H 7.9794 1.5324 1.20107 0
M  V30 87 H 6.1504 1.18863 3.69765 0
M  V30 88 H 7.8824 1.41816 3.79039 0
M  V30 89 H 4.6374 3.38093 3.31648 0
M  V30 90 H 5.0614 5.99626 3.14289 0
M  V30 91 H 9.7034 3.10573 2.86887 0
M  V30 92 H 7.4214 7.55792 2.86015 0
M  V30 93 H 11.0074 5.19299 2.62334 0
M  V30 94 H 9.8874 7.39105 2.62093 0
M  V30 95 N 7.3905 -1.2043 1.01659 0
M  V30 96 C 8.6185 -1.93777 0.725132 0
M  V30 97 C 9.0335 -1.74772 -0.714166 0
M  V30 98 O 8.3905 -1.06169 -1.4844 0
M  V30 99 C 8.4415 -3.45876 1.05129 0
M  V30 100 O 8.1625 -3.6426 2.43406 0
M  V30 101 C 9.6635 -4.36368 0.780891 0
M  V30 102 H 6.8835 -0.615901 0.266284 0
M  V30 103 H 9.4275 -1.52922 1.35776 0
M  V30 104 H 7.5825 -3.8461 0.464065 0
M  V30 105 H 7.9965 -4.58246 2.55169 0
M  V30 106 H 9.4705 -5.41743 1.05918 0
M  V30 107 H 9.9475 -4.38275 -0.284937 0
M  V30 108 H 10.5535 -4.03296 1.35027 0
M  V30 109 N 8.8686 -0.792821 -1.36206 0
M  V30 110 C 9.7986 -0.207853 -2.32573 0
M  V30 111 C 10.7796 0.659055 -1.56813 0
M  V30 112 O 11.9646 0.592176 -1.84951 0
M  V30 113 C 9.0946 0.655449 -3.41059 0
M  V30 114 C 8.0486 -0.111842 -4.27854 0
M  V30 115 C 7.3746 0.872274 -5.27537 0
M  V30 116 C 8.6746 -1.30299 -5.05786 0
M  V30 117 H 10.3686 -1.01294 -2.81744 0
M  V30 118 H 7.9146 -0.48854 -1.3546 0
M  V30 119 H 9.8676 1.07464 -4.07467 0
M  V30 120 H 8.5916 1.49328 -2.90463 0
M  V30 121 H 7.2506 -0.512053 -3.63006 0
M  V30 122 H 6.8986 1.70523 -4.73214 0
M  V30 123 H 6.5986 0.363291 -5.86476 0
M  V30 124 H 8.1226 1.28996 -5.96818 0
M  V30 125 H 9.5366 -0.959379 -5.65216 0
M  V30 126 H 7.9336 -1.7455 -5.74154 0
M  V30 127 H 9.0036 -2.09663 -4.37229 0
M  V30 128 N 10.3467 1.47872 -0.545128 0
M  V30 129 C 11.5717 2.07391 -0.0190611 0
M  V30 130 C 11.9967 1.39688 1.25971 0
M  V30 131 O 11.3547 0.467816 1.7516 0
M  V30 132 C 11.4027 3.60188 0.172335 0
M  V30 133 O 10.5067 3.9339 1.23766 0
M  V30 134 H 9.8477 0.662411 -0.0459059 0
M  V30 135 H 12.3777 1.90066 -0.757365 0
M  V30 136 H 12.3877 4.06129 0.390305 0
M  V30 137 H 11.0627 4.08865 -0.761725 0
M  V30 138 H 9.6397 3.5921 1.00114 0
M  V30 139 N 11.8248 0.280983 1.55075 0
M  V30 140 C 12.7548 -0.597469 2.25727 0
M  V30 141 C 13.7358 -1.15417 1.24952 0
M  V30 142 O 14.9208 -1.18722 1.53684 0
M  V30 143 C 12.0508 -1.7789 2.98283 0
M  V30 144 C 11.0048 -1.35347 4.06036 0
M  V30 145 C 10.3308 -2.61846 4.66198 0
M  V30 146 C 11.6308 -0.499354 5.19907 0
M  V30 147 H 13.3248 -0.00824265 2.99399 0
M  V30 148 H 10.8708 -0.0025244 1.44 0
M  V30 149 H 12.8238 -2.39937 3.46422 0
M  V30 150 H 11.5478 -2.39405 2.22155 0
M  V30 151 H 10.2068 -0.756156 3.58717 0
M  V30 152 H 9.8548 -3.21632 3.86732 0
M  V30 153 H 9.5548 -2.3409 5.38958 0
M  V30 154 H 11.0788 -3.24732 5.1709 0
M  V30 155 H 12.4928 -1.02498 5.64063 0
M  V30 156 H 10.8898 -0.316424 5.99265 0
M  V30 157 H 11.9598 0.480459 4.82514 0
M  V30 158 N 13.3029 -1.57598 0.00835791 0
M  V30 159 C 14.2329 -2.1198 -0.979113 0
M  V30 160 C 15.2139 -1.03091 -1.35301 0
M  V30 161 O 16.3989 -1.30818 -1.43528 0
M  V30 162 C 13.5289 -2.62995 -2.26828 0
M  V30 163 C 12.4829 -3.76485 -2.03576 0
M  V30 164 C 11.8089 -4.13846 -3.38579 0
M  V30 165 C 13.1089 -5.0342 -1.39161 0
M  V30 166 H 14.8029 -2.94738 -0.526281 0
M  V30 167 H 12.3489 -1.41783 -0.251704 0
M  V30 168 H 14.3019 -2.99669 -2.96271 0
M  V30 169 H 13.0259 -1.7737 -2.7424 0
M  V30 170 H 11.6849 -3.40217 -1.36557 0
M  V30 171 H 11.3329 -3.25232 -3.83709 0
M  V30 172 H 11.0329 -4.90312 -3.23834 0
M  V30 173 H 12.5569 -4.53086 -4.09323 0
M  V30 174 H 13.9709 -5.37812 -1.98573 0
M  V30 175 H 12.3679 -5.84746 -1.34878 0
M  V30 176 H 13.4379 -4.83548 -0.361868 0
M  V30 177 N 14.781 0.264519 -1.55364 0
M  V30 178 C 15.711 1.33121 -1.91836 0
M  V30 179 C 16.692 1.51101 -0.781192 0
M  V30 180 O 17.877 1.64003 -1.04003 0
M  V30 181 C 15.007 2.68921 -2.19769 0
M  V30 182 C 13.961 2.65661 -3.35571 0
M  V30 183 C 13.287 4.05093 -3.49004 0
M  V30 184 C 14.587 2.24187 -4.71739 0
M  V30 185 H 16.281 1.02844 -2.81182 0
M  V30 186 H 13.827 0.493286 -1.35287 0
M  V30 187 H 15.78 3.43663 -2.43872 0
M  V30 188 H 14.504 3.00799 -1.27231 0
M  V30 189 H 13.163 1.93377 -3.1145 0
M  V30 190 H 12.811 4.34206 -2.53917 0
M  V30 191 H 12.511 4.03804 -4.26868 0
M  V30 192 H 14.035 4.81561 -3.75408 0
M  V30 193 H 15.449 2.88654 -4.9533 0
M  V30 194 H 13.846 2.34044 -5.52579 0
M  V30 195 H 14.916 1.19327 -4.69988 0
M  V30 196 N 16.2591 1.48442 0.529413 0
M  V30 197 C 17.5071 1.56179 1.28267 0
M  V30 198 C 17.8281 0.237721 1.93546 0
M  V30 199 O 17.0981 -0.740779 1.81354 0
M  V30 200 H 15.6781 0.575367 0.476405 0
M  V30 201 H 18.3401 1.84909 0.61602 0
M  V30 202 H 17.4361 2.34312 2.06165 0
M  V30 203 N 17.7372 -0.778329 1.37039 0
M  V30 204 C 18.7002 -1.87301 1.32102 0
M  V30 205 C 19.7002 -1.59198 0.226405 0
M  V30 206 O 20.8902 -1.67403 0.481861 0
M  V30 207 C 18.0222 -3.24309 1.05055 0
M  V30 208 H 19.2152 -1.93093 2.29467 0
M  V30 209 H 16.7682 -0.977358 1.21973 0
M  V30 210 H 17.5032 -3.24196 0.0819373 0
M  V30 211 H 17.2882 -3.46098 1.84279 0
M  V30 212 H 18.7782 -4.04382 1.04234 0
M  V30 213 N 19.2153 -1.21501 -1.00376 0
M  V30 214 C 20.4613 -1.03452 -1.74429 0
M  V30 215 C 20.7943 0.430764 -1.89362 0
M  V30 216 O 20.0693 1.31962 -1.42886 0
M  V30 217 C 20.3523 -1.73375 -3.15615 0
M  V30 218 C 20.2053 -3.27431 -3.08397 0
M  V30 219 C 21.5243 -1.47732 -4.14564 0
M  V30 220 H 18.6433 -0.377226 -0.633143 0
M  V30 221 H 21.2853 -1.49693 -1.17013 0
M  V30 222 H 19.4353 -1.34064 -3.64636 0
M  V30 223 H 21.1073 -3.76119 -2.67081 0
M  V30 224 H 19.3503 -3.5767 -2.45468 0
M  V30 225 H 20.0213 -3.71524 -4.08258 0
M  V30 226 H 22.4973 -1.8186 -3.74254 0
M  V30 227 H 21.3733 -1.99169 -5.11491 0
M  V30 228 H 21.6343 -0.407589 -4.40217 0
M  V30 229 N 20.6934 1.19889 -1.02296 0
M  V30 230 C 21.6564 2.21116 -0.603351 0
M  V30 231 C 22.6564 1.5738 0.329884 0
M  V30 232 O 23.8464 1.73802 0.117702 0
M  V30 233 C 20.9784 3.40696 0.117992 0
M  V30 234 H 22.1714 2.59754 -1.49893 0
M  V30 235 H 19.7244 1.33463 -0.813468 0
M  V30 236 H 20.4594 3.07569 1.0282 0
M  V30 237 H 20.2444 3.88188 -0.552511 0
M  V30 238 H 21.7344 4.15692 0.398696 0
M  V30 239 N 22.1715 0.800033 1.35784 0
M  V30 240 C 23.4195 0.376597 1.9856 0
M  V30 241 C 23.7405 -1.05812 1.63795 0
M  V30 242 O 23.0105 -1.73103 0.917171 0
M  V30 243 H 21.5905 0.136261 0.734467 0
M  V30 244 H 24.2525 1.02442 1.65806 0
M  V30 245 H 23.3485 0.477002 3.08433 0
M  V30 246 N 23.6496 -1.47581 0.552962 0
M  V30 247 C 24.5966 -2.29957 -0.197108 0
M  V30 248 C 25.5666 -1.38799 -0.912359 0
M  V30 249 O 26.7516 -1.67761 -0.908888 0
M  V30 250 C 23.8916 -3.22672 -1.22379 0
M  V30 251 C 23.0046 -4.28919 -0.515038 0
M  V30 252 C 22.1396 -5.0879 -1.52664 0
M  V30 253 C 21.1786 -6.06815 -0.802631 0
M  V30 254 N 20.3156 -6.7966 -1.76086 0
M  V30 255 H 25.1556 -2.93578 0.511486 0
M  V30 256 H 22.6926 -1.4471 0.264067 0
M  V30 257 H 24.6506 -3.74845 -1.83159 0
M  V30 258 H 23.2806 -2.60925 -1.90047 0
M  V30 259 H 22.3326 -3.79835 0.207192 0
M  V30 260 H 23.6446 -4.98773 0.0523425 0
M  V30 261 H 22.7986 -5.65091 -2.20809 0
M  V30 262 H 21.5376 -4.38828 -2.12794 0
M  V30 263 H 20.5426 -5.49695 -0.107238 0
M  V30 264 H 21.7676 -6.78784 -0.207135 0
M  V30 265 H 19.7136 -6.12432 -2.35081 0
M  V30 266 H 19.6306 -7.45669 -1.24552 0
M  V30 267 H 20.8986 -7.40538 -2.43359 0
M  V30 268 N 25.1277 -0.289203 -1.54924 0
M  V30 269 C 26.0377 0.601863 -2.26748 0
M  V30 270 C 27.0537 1.15834 -1.2984 0
M  V30 271 O 28.2297 1.18564 -1.62802 0
M  V30 272 C 25.2947 1.76299 -2.98529 0
M  V30 273 C 24.3557 1.24178 -4.10948 0
M  V30 274 C 23.5887 2.34757 -4.79296 0
M  V30 275 O 23.8117 3.54411 -4.46933 0
M  V30 276 O 22.7457 2.02115 -5.66951 0
M  V30 277 H 26.5717 0.0195879 -3.03694 0
M  V30 278 H 24.1567 -0.0560868 -1.49295 0
M  V30 279 H 26.0387 2.43973 -3.43592 0
M  V30 280 H 24.7137 2.33209 -2.24488 0
M  V30 281 H 23.6207 0.531104 -3.70311 0
M  V30 282 H 24.9537 0.718252 -4.86931 0
M  V30 283 N 26.6058 1.57591 -0.0167156 0
M  V30 284 C 27.8518 1.91567 0.665582 0
M  V30 285 C 28.1848 0.892298 1.72487 0
M  V30 286 O 27.4598 -0.0867127 1.94307 0
M  V30 287 C 27.7428 3.36069 1.29342 0
M  V30 288 C 27.5958 4.49135 0.244541 0
M  V30 289 C 28.9148 3.803 2.21495 0
M  V30 290 H 26.0338 0.69666 0.240488 0
M  V30 291 H 28.6758 1.89866 -0.0714356 0
M  V30 292 H 26.8258 3.3765 1.92158 0
M  V30 293 H 28.4978 4.59689 -0.385228 0
M  V30 294 H 26.7408 4.3165 -0.431379 0
M  V30 295 H 27.4118 5.47242 0.723207 0
M  V30 296 H 29.8878 3.80377 1.68678 0
M  V30 297 H 28.7638 4.82127 2.62382 0
M  V30 298 H 29.0248 3.15104 3.101 0
M  V30 299 N 28.0839 -0.256276 1.55502 0
M  V30 300 C 29.3239 -0.993081 1.78654 0
M  V30 301 C 29.6879 -1.8288 0.584724 0
M  V30 302 O 30.8889 -2.59665 0.694822 0
M  V30 303 C 29.1599 -1.83856 3.06483 0
M  V30 304 S 30.7189 -2.63573 3.5082 0
M  V30 305 H 27.5369 -0.334199 0.62756 0
M  V30 306 H 30.1389 -0.26184 1.93739 0
M  V30 307 H 28.8429 -1.21414 3.92029 0
M  V30 308 H 28.3739 -2.61271 2.94111 0
M  V30 309 H 30.3889 -3.86312 3.11412 0
M  V30 310 N 29.562 -1.4872 -0.521534 0
M  V30 311 C 30.792 -1.6061 -1.29954 0
M  V30 312 C 31.2 -0.268728 -1.87282 0
M  V30 313 O 30.543 0.753221 -1.67548 0
M  V30 314 C 30.605 -2.60013 -2.48261 0
M  V30 315 C 30.269 -4.04874 -2.11957 0
M  V30 316 C 31.266 -4.92304 -1.67132 0
M  V30 317 C 28.951 -4.5047 -2.22221 0
M  V30 318 C 30.945 -6.2336 -1.33047 0
M  V30 319 C 28.632 -5.81544 -1.87748 0
M  V30 320 C 29.63 -6.67812 -1.43234 0
M  V30 321 O 29.318 -7.96446 -1.09217 0
M  V30 322 H 29.05 -0.544116 -0.401141 0
M  V30 323 H 31.604 -1.95339 -0.634958 0
M  V30 324 H 29.834 -2.20422 -3.17728 0
M  V30 325 H 31.523 -2.61648 -3.10315 0
M  V30 326 H 32.289 -4.58312 -1.58665 0
M  V30 327 H 28.168 -3.83504 -2.55823 0
M  V30 328 H 31.712 -6.90649 -0.982299 0
M  V30 329 H 27.609 -6.15069 -1.95858 0
M  V30 330 H 28.377 -8.09275 -1.22542 0
M  V30 331 N 31.0401 0.771051 -1.3745 0
M  V30 332 C 31.9501 1.91538 -1.35464 0
M  V30 333 C 32.9661 1.72134 -0.254123 0
M  V30 334 O 34.1421 1.95358 -0.489626 0
M  V30 335 C 31.2071 3.26671 -1.16134 0
M  V30 336 C 30.2681 3.58723 -2.35831 0
M  V30 337 C 29.5011 4.87409 -2.17413 0
M  V30 338 O 29.7241 5.58506 -1.15876 0
M  V30 339 O 28.6581 5.18539 -3.05615 0
M  V30 340 H 32.4841 1.96165 -2.31847 0
M  V30 341 H 30.0691 0.9139 -1.18187 0
M  V30 342 H 31.9511 4.07499 -1.07345 0
M  V30 343 H 30.6261 3.22894 -0.228251 0
M  V30 344 H 29.5331 2.78127 -2.50192 0
M  V30 345 H 30.8661 3.67243 -3.27709 0
M  V30 346 N 32.5182 1.22032 0.997298 0
M  V30 347 C 33.9342 0.979326 1.26021 0
M  V30 348 C 34.1342 -0.32972 1.98784 0
M  V30 349 O 33.1902 -1.05345 2.29475 0
M  V30 350 C 34.5032 2.17509 2.07631 0
M  V30 351 C 36.0512 2.21817 2.2083 0
M  V30 352 C 36.5262 3.40933 3.05825 0
M  V30 353 N 38.0172 3.41067 3.13412 0
M  V30 354 C 38.7522 4.29885 3.79455 0
M  V30 355 N 38.2482 5.28914 4.47462 0
M  V30 356 N 40.0412 4.17673 3.76173 0
M  V30 357 H 32.1922 2.06202 0.509352 0
M  V30 358 H 34.4552 0.90334 0.287541 0
M  V30 359 H 34.1612 3.12415 1.61524 0
M  V30 360 H 34.0352 2.17206 3.08385 0
M  V30 361 H 36.4222 1.27462 2.66153 0
M  V30 362 H 36.5032 2.2616 1.1952 0
M  V30 363 H 36.1472 4.35586 2.61203 0
M  V30 364 H 36.0772 3.33829 4.07266 0
M  V30 365 H 38.5682 2.69406 2.65007 0
M  V30 366 H 38.8812 5.92973 4.95583 0
M  V30 367 H 37.2262 5.32831 4.46224 0
M  V30 368 H 40.4172 3.39564 3.22202 0
M  V30 369 H 40.5902 4.87098 4.27363 0
M  V30 370 N 33.9963 -1.19345 1.0293 0
M  V30 371 C 34.9263 -2.2481 0.631105 0
M  V30 372 C 35.9073 -1.66245 -0.360104 0
M  V30 373 O 37.0923 -1.92677 -0.242726 0
M  V30 374 C 34.2223 -3.47295 -0.0184607 0
M  V30 375 C 33.1763 -4.18536 0.895073 0
M  V30 376 C 32.5023 -5.34586 0.110592 0
M  V30 377 C 33.8023 -4.73287 2.209 0
M  V30 378 H 35.4963 -2.58372 1.51275 0
M  V30 379 H 33.0423 -1.24194 0.728818 0
M  V30 380 H 34.9953 -4.20268 -0.308675 0
M  V30 381 H 33.7193 -3.12933 -0.934907 0
M  V30 382 H 32.3783 -3.47446 1.16949 0
M  V30 383 H 32.0263 -4.96469 -0.807902 0
M  V30 384 H 31.7263 -5.83183 0.719087 0
M  V30 385 H 33.2503 -6.10355 -0.172871 0
M  V30 386 H 34.6643 -5.38013 1.98028 0
M  V30 387 H 33.0613 -5.32373 2.76946 0
M  V30 388 H 34.1313 -3.91331 2.86336 0
M  V30 389 N 35.4744 -0.807222 -1.35358 0
M  V30 390 C 36.7224 -0.387122 -1.98358 0
M  V30 391 C 37.0434 1.04942 -1.64354 0
M  V30 392 O 36.3134 1.72615 -0.926339 0
M  V30 393 H 34.8934 -0.140154 -0.733734 0
M  V30 394 H 37.5554 -1.0332 -1.6526 0
M  V30 395 H 36.6514 -0.493352 -3.08176 0
M  V30 396 N 36.9525 1.47285 -0.560781 0
M  V30 397 C 38.1925 2.0436 -0.0404627 0
M  V30 398 C 38.5565 1.42534 1.28639 0
M  V30 399 O 39.7575 1.90677 1.89462 0
M  V30 400 C 38.0285 3.57369 0.0471856 0
M  V30 401 S 39.5875 4.3579 0.513109 0
M  V30 402 H 36.4055 0.710492 -0.0268674 0
M  V30 403 H 39.0075 1.80611 -0.748323 0
M  V30 404 H 37.7115 3.9989 -0.922817 0
M  V30 405 H 37.2425 3.8562 0.778491 0
M  V30 406 H 39.2575 4.63476 1.77212 0
M  V30 407 N 38.4306 0.297415 1.54768 0
M  V30 408 C 39.6776 -0.312913 2.00068 0
M  V30 409 C 40.0056 -1.54171 1.18582 0
M  V30 410 O 39.2606 -1.94108 0.249133 0
M  V30 411 C 39.5596 -0.717561 3.50123 0
M  V30 412 C 39.2256 0.409095 4.4904 0
M  V30 413 C 37.8876 0.718399 4.75807 0
M  V30 414 C 40.2396 1.16717 5.07963 0
M  V30 415 C 37.5676 1.78896 5.5876 0
M  V30 416 C 39.9196 2.22762 5.92081 0
M  V30 417 C 38.5836 2.54303 6.1716 0
M  V30 418 H 37.8536 -0.114503 0.7321 0
M  V30 419 H 40.5006 0.415767 1.86932 0
M  V30 420 H 38.8056 -1.52627 3.60849 0
M  V30 421 H 40.5026 -1.20091 3.82595 0
M  V30 422 H 37.0926 0.157918 4.28309 0
M  V30 423 H 41.2766 0.941466 4.87289 0
M  V30 424 H 36.5326 2.0381 5.7643 0
M  V30 425 H 40.7066 2.81962 6.36765 0
M  V30 426 H 38.3336 3.3739 6.81229 0
M  V30 427 N 39.9087 -1.5758 0.0250728 0
M  V30 428 C 41.1337 -1.96337 -0.668317 0
M  V30 429 C 41.5587 -0.901314 -1.651 0
M  V30 430 O 40.9167 0.138187 -1.80773 0
M  V30 431 C 40.9647 -3.34191 -1.35457 0
M  V30 432 O 40.0687 -3.30269 -2.46974 0
M  V30 433 H 39.4097 -0.640281 -0.175887 0
M  V30 434 H 41.9397 -2.0442 0.0857224 0
M  V30 435 H 41.9497 -3.70331 -1.71228 0
M  V30 436 H 40.6247 -4.11036 -0.634218 0
M  V30 437 H 39.2017 -3.05841 -2.13344 0
M  V30 438 N 41.3868 0.248026 -1.55636 0
M  V30 439 C 42.6638 0.998988 -1.68165 0
M  V30 440 C 43.0438 2.03409 -0.564621 0
M  V30 441 O 42.3918 2.24378 0.432076 0
M  V30 442 C 42.6018 1.63334 -3.0842 0
M  V30 443 C 43.9498 2.13562 -3.66983 0
M  V30 444 O 44.9738 1.73277 -3.11213 0
M  V30 445 O 43.8328 2.87526 -4.64749 0
M  V30 446 H 40.9268 0.464933 -0.683935 0
M  V30 447 H 43.4728 0.241902 -1.67967 0
M  V30 448 H 42.2448 0.884583 -3.8117 0
M  V30 449 H 41.8678 2.45666 -3.12624 0
M  V30 450 N 42.8649 1.48995 0.513639 0
M  V30 451 C 44.1419 1.48338 1.27495 0
M  V30 452 C 44.5219 0.204065 2.10111 0
M  V30 453 O 43.8699 -0.813881 2.13514 0
M  V30 454 C 44.0799 2.75498 2.14247 0
M  V30 455 C 45.4279 3.24484 2.73852 0
M  V30 456 O 46.4519 2.76528 2.24523 0
M  V30 457 O 45.3109 4.07974 3.6362 0
M  V30 458 H 42.4049 0.593149 0.576284 0
M  V30 459 H 44.9509 1.61246 0.528948 0
M  V30 460 H 43.7229 3.60109 1.53092 0
M  V30 461 H 43.3459 2.6539 2.96064 0
M  V30 462 N 44.343 -0.763751 1.37857 0
M  V30 463 C 45.568 -1.55805 1.36893 0
M  V30 464 C 45.993 -1.88054 -0.0416135 0
M  V30 465 O 45.351 -1.49825 -1.02089 0
M  V30 466 C 45.399 -2.84012 2.22192 0
M  V30 467 O 44.503 -3.78732 1.63204 0
M  V30 468 H 43.844 -0.471638 0.46739 0
M  V30 469 H 46.374 -0.944657 1.81487 0
M  V30 470 H 46.384 -3.33037 2.35691 0
M  V30 471 H 45.059 -2.59869 3.24716 0
M  V30 472 H 43.636 -3.37402 1.58791 0
M  V30 473 N 45.8211 -1.22559 -0.990812 0
M  V30 474 C 47.2321 -1.04791 -1.54518 0
M  V30 475 C 47.5831 0.387998 -1.92325 0
M  V30 476 O 46.7081 1.27328 -1.74976 0
M  V30 477 C 47.3031 -1.896 -2.80779 0
M  V30 478 C 45.8621 -1.76124 -3.32652 0
M  V30 479 C 45.0091 -1.8594 -2.05722 0
M  V30 480 H 47.9601 -1.36374 -0.811662 0
M  V30 481 H 47.9811 -1.41464 -3.53225 0
M  V30 482 H 47.4931 -2.94101 -2.53231 0
M  V30 483 H 45.5941 -0.743643 -3.65104 0
M  V30 484 H 45.7071 -2.58913 -4.03114 0
M  V30 485 H 44.0711 -1.29403 -2.19379 0
M  V30 486 H 44.8541 -2.91976 -1.80568 0
M  V30 487 N 47.2992 1.18797 -1.03562 0
M  V30 488 C 48.5452 1.89192 -0.746867 0
M  V30 489 C 48.9002 1.78531 0.717245 0
M  V30 490 O 48.1932 1.17137 1.51622 0
M  V30 491 C 48.3872 3.38692 -1.14117 0
M  V30 492 C 48.2162 3.63902 -2.64207 0
M  V30 493 C 46.9862 3.81553 -3.31279 0
M  V30 494 C 49.1842 3.64903 -3.62423 0
M  V30 495 N 47.1662 3.94455 -4.70402 0
M  V30 496 C 48.5372 3.83458 -4.87196 0
M  V30 497 C 50.5922 3.47965 -3.56125 0
M  V30 498 C 49.2952 3.86829 -6.06429 0
M  V30 499 C 51.3212 3.52616 -4.7478 0
M  V30 500 C 50.6832 3.71663 -5.9837 0
M  V30 501 H 46.7822 0.711141 -0.325273 0
M  V30 502 H 49.3662 1.42727 -1.32428 0
M  V30 503 H 47.5372 3.83864 -0.591889 0
M  V30 504 H 49.2692 3.96634 -0.803966 0
M  V30 505 H 46.0242 3.80723 -2.81686 0
M  V30 506 H 46.4482 4.0474 -5.42692 0
M  V30 507 H 51.0902 3.32189 -2.61553 0
M  V30 508 H 48.8082 4.01395 -7.01362 0
M  V30 509 H 52.3942 3.40791 -4.71543 0
M  V30 510 H 51.2742 3.75145 -6.88648 0
M  V30 511 N 48.7773 0.814389 1.34928 0
M  V30 512 C 50.0023 0.410097 2.03305 0
M  V30 513 C 50.4273 -0.973464 1.60951 0
M  V30 514 O 49.7853 -1.63185 0.789964 0
M  V30 515 C 49.8333 0.51049 3.56968 0
M  V30 516 O 48.9373 -0.473035 4.09678 0
M  V30 517 H 48.2783 0.170088 0.641846 0
M  V30 518 H 50.8083 1.10244 1.72358 0
M  V30 519 H 50.8183 0.383135 4.06197 0
M  V30 520 H 49.4933 1.51963 3.87144 0
M  V30 521 H 48.0703 -0.305272 3.71648 0
M  V30 522 N 50.2554 -1.46986 0.568584 0
M  V30 523 C 51.5034 -2.02041 0.0487022 0
M  V30 524 C 51.8244 -1.44408 -1.31039 0
M  V30 525 O 51.0944 -0.623477 -1.85714 0
M  V30 526 H 49.6744 -0.746849 0.015014 0
M  V30 527 H 52.3364 -1.80257 0.741168 0
M  V30 528 H 51.4324 -3.12085 -0.0308961 0
M  V30 529 N 51.7335 -0.305618 -1.54608 0
M  V30 530 C 52.9825 0.303098 -1.9941 0
M  V30 531 C 53.2955 1.54648 -1.19764 0
M  V30 532 O 54.5015 2.23007 -1.54855 0
M  V30 533 C 52.9575 0.590588 -3.55021 0
M  V30 534 C 52.5655 -0.634719 -4.43481 0
M  V30 535 C 54.3095 1.16025 -4.08336 0
M  V30 536 C 52.2165 -0.320126 -5.90533 0
M  V30 537 H 51.1465 0.117031 -0.744862 0
M  V30 538 H 53.7975 -0.415045 -1.78745 0
M  V30 539 H 52.1795 1.36845 -3.71604 0
M  V30 540 H 53.3535 -1.41079 -4.38672 0
M  V30 541 H 51.6685 -1.12333 -4.00962 0
M  V30 542 H 54.2655 1.40994 -5.15776 0
M  V30 543 H 54.6085 2.10397 -3.5922 0
M  V30 544 H 55.1415 0.443985 -3.95315 0
M  V30 545 H 51.8805 -1.23254 -6.43808 0
M  V30 546 H 51.4005 0.418579 -5.98338 0
M  V30 547 H 53.0795 0.0766241 -6.46955 0
M  V30 548 N 53.2116 1.57565 -0.0334293 0
M  V30 549 C 54.4396 1.9628 0.654347 0
M  V30 550 C 54.8546 0.910138 1.65414 0
M  V30 551 O 54.2116 -0.107595 1.82183 0
M  V30 552 C 54.2626 3.35067 1.35693 0
M  V30 553 O 53.9836 4.36296 0.397191 0
M  V30 554 C 55.4846 3.88439 2.13613 0
M  V30 555 H 52.7046 0.646369 0.180132 0
M  V30 556 H 55.2486 2.04282 -0.0944721 0
M  V30 557 H 53.4036 3.2827 2.05712 0
M  V30 558 H 53.8176 5.1678 0.896597 0
M  V30 559 H 55.2916 4.8788 2.58219 0
M  V30 560 H 55.7686 3.22914 2.97696 0
M  V30 561 H 56.3746 3.98516 1.48543 0
M  V30 562 N 54.6897 -0.239769 1.55765 0
M  V30 563 C 55.5997 -1.31831 1.94056 0
M  V30 564 C 56.6157 -1.52275 0.841925 0
M  V30 565 O 57.7917 -1.65759 1.14394 0
M  V30 566 C 54.8567 -2.65156 2.23368 0
M  V30 567 C 53.9177 -2.53173 3.46701 0
M  V30 568 C 53.1507 -3.8014 3.74606 0
M  V30 569 O 53.3737 -4.82343 3.04469 0
M  V30 570 O 52.3077 -3.78344 4.68123 0
M  V30 571 H 56.1337 -1.02347 2.85935 0
M  V30 572 H 53.7187 -0.441123 1.42739 0
M  V30 573 H 55.6007 -3.43929 2.43497 0
M  V30 574 H 54.2757 -2.94358 1.34666 0
M  V30 575 H 53.1827 -1.72662 3.31871 0
M  V30 576 H 54.5157 -2.28915 4.35728 0
M  V30 577 N 56.1678 -1.49265 -0.50573 0
M  V30 578 C 57.5838 -1.35923 -0.836486 0
M  V30 579 C 57.7838 -0.388704 -1.97715 0
M  V30 580 O 56.8398 0.181336 -2.51848 0
M  V30 581 C 58.1528 -2.76531 -1.18115 0
M  V30 582 C 59.7008 -2.85197 -1.28964 0
M  V30 583 C 60.1758 -4.26561 -1.66761 0
M  V30 584 N 61.6668 -4.2935 -1.73819 0
M  V30 585 C 62.4018 -5.35693 -2.045 0
M  V30 586 N 61.8978 -6.52287 -2.33438 0
M  V30 587 N 63.6908 -5.23105 -2.05711 0
M  V30 588 H 55.8418 -2.10965 0.246519 0
M  V30 589 H 58.1048 -0.9468 0.0476887 0
M  V30 590 H 57.8108 -3.49226 -0.416398 0
M  V30 591 H 57.6848 -3.11599 -2.1257 0
M  V30 592 H 60.0718 -2.12742 -2.04511 0
M  V30 593 H 60.1528 -2.53718 -0.325704 0
M  V30 594 H 59.7968 -4.99541 -0.917656 0
M  V30 595 H 59.7268 -4.55502 -2.64246 0
M  V30 596 H 62.2178 -3.4526 -1.53635 0
M  V30 597 H 62.5308 -7.29158 -2.56024 0
M  V30 598 H 60.8758 -6.55521 -2.30905 0
M  V30 599 H 64.0668 -4.31026 -1.82577 0
M  V30 600 H 64.2398 -6.06078 -2.29289 0
M  V30 601 N 57.6459 0.756429 -1.3826 0
M  V30 602 C 59.0569 1.33359 -1.30661 0
M  V30 603 C 59.4079 1.96161 0.0388875 0
M  V30 604 O 58.5329 1.94874 0.940918 0
M  V30 605 C 59.1279 2.42477 -2.36622 0
M  V30 606 C 57.6869 2.95922 -2.3261 0
M  V30 607 C 56.8339 1.69275 -2.19639 0
M  V30 608 H 59.7849 0.55552 -1.4866 0
M  V30 609 H 59.8059 3.22345 -2.02174 0
M  V30 610 H 59.3179 1.96739 -3.34538 0
M  V30 611 H 57.4189 3.45996 -1.38267 0
M  V30 612 H 57.5319 3.50494 -3.26636 0
M  V30 613 H 55.8959 1.92793 -1.66442 0
M  V30 614 H 56.6789 1.25619 -3.19491 0
M  V30 615 N 59.124 1.23083 0.984299 0
M  V30 616 C 60.054 1.03292 2.09411 0
M  V30 617 C 61.035 -0.048923 1.7003 0
M  V30 618 O 62.22 0.114967 1.93859 0
M  V30 619 C 59.35 0.619155 3.41736 0
M  V30 620 C 58.304 1.64791 3.95004 0
M  V30 621 C 57.63 1.0897 5.23478 0
M  V30 622 C 58.93 3.03999 4.24714 0
M  V30 623 H 60.624 1.96119 2.26225 0
M  V30 624 H 58.17 0.944344 1.08711 0
M  V30 625 H 60.123 0.467777 4.18796 0
M  V30 626 H 58.847 -0.344786 3.24775 0
M  V30 627 H 57.506 1.78721 3.20085 0
M  V30 628 H 57.154 0.11686 5.02864 0
M  V30 629 H 56.854 1.77704 5.60085 0
M  V30 630 H 58.378 0.950093 6.03163 0
M  V30 631 H 59.792 2.93393 4.92538 0
M  V30 632 H 58.189 3.69936 4.72512 0
M  V30 633 H 59.259 3.53285 3.32142 0
M  V30 634 N 60.6021 -1.18246 1.0419 0
M  V30 635 C 61.5521 -2.19843 0.604392 0
M  V30 636 C 62.5361 -1.56962 -0.353814 0
M  V30 637 O 63.7281 -1.76156 -0.17267 0
M  V30 638 C 60.8571 -3.43287 -0.0298975 0
M  V30 639 C 59.9431 -4.13288 0.951531 0
M  V30 640 N 60.3341 -4.59271 2.11906 0
M  V30 641 C 58.6321 -4.39165 0.7778 0
M  V30 642 C 59.3331 -5.13173 2.73912 0
M  V30 643 N 58.3091 -5.04763 2.01779 0
M  V30 644 H 62.1111 -2.53089 1.4941 0
M  V30 645 H 59.6251 -1.34465 0.910658 0
M  V30 646 H 61.6221 -4.15334 -0.361037 0
M  V30 647 H 60.2821 -3.11537 -0.915127 0
M  V30 648 H 61.2931 -4.5368 2.49789 0
M  V30 649 H 57.9701 -4.17461 -0.0572331 0
M  V30 650 H 59.3601 -5.58947 3.72864 0
M  V30 651 N 62.0802 -0.821533 -1.34494 0
M  V30 652 C 63.3292 -0.405355 -1.97585 0
M  V30 653 C 63.6422 1.03677 -1.65863 0
M  V30 654 O 64.8482 1.55679 -2.22433 0
M  V30 655 C 63.3042 -0.673861 -3.53535 0
M  V30 656 C 62.9122 -2.12951 -3.94152 0
M  V30 657 C 64.6562 -0.32378 -4.23263 0
M  V30 658 C 62.5632 -2.34298 -5.43009 0
M  V30 659 H 61.4932 -0.147836 -0.739365 0
M  V30 660 H 64.1442 -1.00769 -1.53355 0
M  V30 661 H 62.5262 -0.00137554 -3.96 0
M  V30 662 H 63.7002 -2.84104 -3.62797 0
M  V30 663 H 62.0152 -2.44089 -3.37356 0
M  V30 664 H 64.6122 -0.461126 -5.32708 0
M  V30 665 H 64.9552 0.731586 -4.09821 0
M  V30 666 H 65.4882 -0.950786 -3.8627 0
M  V30 667 H 62.2272 -3.38335 -5.61435 0
M  V30 668 H 61.7472 -1.67687 -5.75883 0
M  V30 669 H 63.4262 -2.16588 -6.09671 0
M  V30 670 N 63.5583 1.46682 -0.576371 0
M  V30 671 C 64.4883 2.33028 0.148397 0
M  V30 672 C 65.4693 1.44961 0.889956 0
M  V30 673 O 66.6543 1.73789 0.866662 0
M  V30 674 C 63.7843 3.27117 1.1667 0
M  V30 675 C 62.7383 4.24575 0.540386 0
M  V30 676 C 62.0643 5.08126 1.6647 0
M  V30 677 C 63.3643 5.19722 -0.518331 0
M  V30 678 H 65.0583 2.93875 -0.572509 0
M  V30 679 H 62.6043 1.41315 -0.276768 0
M  V30 680 H 64.5573 3.86374 1.68204 0
M  V30 681 H 63.2813 2.64364 1.9178 0
M  V30 682 H 61.9403 3.66571 0.0461769 0
M  V30 683 H 61.5883 4.41762 2.40531 0
M  V30 684 H 61.2883 5.74122 1.25131 0
M  V30 685 H 62.8123 5.70246 2.18293 0
M  V30 686 H 64.2263 5.73232 -0.0883058 0
M  V30 687 H 62.6233 5.94026 -0.851679 0
M  V30 688 H 63.6933 4.64037 -1.40703 0
M  V30 689 N 65.0364 0.313813 1.54444 0
M  V30 690 C 66.4474 -0.176243 1.85866 0
M  V30 691 C 66.7984 -1.52405 1.23561 0
M  V30 692 O 65.9234 -2.09605 0.538016 0
M  V30 693 C 66.5184 -0.32657 3.37222 0
M  V30 694 C 65.0774 -0.760846 3.6863 0
M  V30 695 C 64.2244 0.123247 2.77026 0
M  V30 696 H 67.1754 0.534418 1.49431 0
M  V30 697 H 67.1964 -1.15908 3.62416 0
M  V30 698 H 66.7084 0.654531 3.82541 0
M  V30 699 H 64.8094 -1.75204 3.28838 0
M  V30 700 H 64.9224 -0.571353 4.75681 0
M  V30 701 H 63.2864 -0.399597 2.51546 0
M  V30 702 H 64.0694 1.10094 3.25168 0
M  V30 703 N 66.5145 -1.57545 0.0417849 0
M  V30 704 C 67.7605 -1.93424 -0.629168 0
M  V30 705 C 68.1155 -0.919564 -1.69002 0
M  V30 706 O 67.4085 0.0626178 -1.91498 0
M  V30 707 C 67.6025 -3.33794 -1.27735 0
M  V30 708 C 67.4315 -4.48822 -0.280806 0
M  V30 709 C 66.2015 -5.05148 0.123869 0
M  V30 710 C 68.3995 -5.12148 0.470012 0
M  V30 711 N 66.3815 -6.03703 1.11426 0
M  V30 712 C 67.7525 -6.05921 1.31377 0
M  V30 713 C 69.8075 -4.95078 0.529343 0
M  V30 714 C 68.5105 -6.84459 2.21152 0
M  V30 715 C 70.5365 -5.74235 1.41448 0
M  V30 716 C 69.8985 -6.67634 2.24598 0
M  V30 717 H 65.9975 -0.755418 -0.202158 0
M  V30 718 H 68.5815 -1.94378 0.111923 0
M  V30 719 H 66.7525 -3.33635 -1.98852 0
M  V30 720 H 68.4845 -3.56988 -1.90635 0
M  V30 721 H 65.2395 -4.72923 -0.253178 0
M  V30 722 H 65.6635 -6.57674 1.60607 0
M  V30 723 H 70.3055 -4.22683 -0.0992798 0
M  V30 724 H 68.0235 -7.56151 2.85063 0
M  V30 725 H 71.6095 -5.63057 1.46484 0
M  V30 726 H 70.4895 -7.27817 2.9198 0
M  V30 727 N 67.9926 0.231505 -1.5589 0
M  V30 728 C 69.2176 0.978689 -1.82856 0
M  V30 729 C 69.6426 1.77559 -0.620846 0
M  V30 730 O 69.0006 1.76119 0.430305 0
M  V30 731 C 69.0486 1.87997 -3.07716 0
M  V30 732 O 68.1526 2.97393 -2.85712 0
M  V30 733 H 67.4936 0.277663 -0.603158 0
M  V30 734 H 70.0236 0.24783 -2.03093 0
M  V30 735 H 70.0336 2.2917 -3.37558 0
M  V30 736 H 68.7086 1.29417 -3.95252 0
M  V30 737 H 67.2856 2.60238 -2.67078 0
M  V30 738 N 69.4707 1.49531 0.497807 0
M  V30 739 C 70.8817 1.52344 1.07927 0
M  V30 740 C 71.2327 0.311469 1.93712 0
M  V30 741 O 70.3577 -0.578405 2.08527 0
M  V30 742 C 70.9527 2.76062 1.96405 0
M  V30 743 C 69.5117 2.81643 2.49709 0
M  V30 744 C 68.6587 2.46299 1.27404 0
M  V30 745 H 71.6097 1.56182 0.281576 0
M  V30 746 H 71.6307 2.56405 2.81135 0
M  V30 747 H 71.1427 3.64254 1.33943 0
M  V30 748 H 69.2437 1.97739 3.15801 0
M  V30 749 H 69.3567 3.83891 2.86643 0
M  V30 750 H 67.7207 1.98148 1.60029 0
M  V30 751 H 68.5037 3.36769 0.66645 0
M  V30 752 N 70.9488 -0.749086 1.3866 0
M  V30 753 C 71.8958 -1.86291 1.36251 0
M  V30 754 C 72.8658 -1.64578 0.224347 0
M  V30 755 O 74.0508 -1.86181 0.417279 0
M  V30 756 C 71.1908 -3.23644 1.19786 0
M  V30 757 C 70.3038 -3.57158 2.43027 0
M  V30 758 C 69.4388 -4.83838 2.19258 0
M  V30 759 C 68.4778 -5.10152 3.38247 0
M  V30 760 N 67.6148 -6.28029 3.13884 0
M  V30 761 H 72.4548 -1.87685 2.3147 0
M  V30 762 H 69.9918 -0.917287 1.14997 0
M  V30 763 H 71.9498 -4.0291 1.08254 0
M  V30 764 H 70.5798 -3.21566 0.282031 0
M  V30 765 H 69.6318 -2.72701 2.65214 0
M  V30 766 H 70.9438 -3.7253 3.31697 0
M  V30 767 H 70.0978 -5.71057 2.04888 0
M  V30 768 H 68.8368 -4.70614 1.2796 0
M  V30 769 H 67.8418 -4.21401 3.53131 0
M  V30 770 H 69.0668 -5.25271 4.30427 0
M  V30 771 H 67.0128 -6.1612 2.25238 0
M  V30 772 H 66.9298 -6.43922 3.96106 0
M  V30 773 H 68.1978 -7.18124 3.03179 0
M  V30 774 N 72.4269 -1.23603 -0.977757 0
M  V30 775 C 73.7039 -0.977897 -1.69401 0
M  V30 776 C 74.0839 0.502738 -2.05026 0
M  V30 777 O 73.4319 1.47459 -1.74551 0
M  V30 778 C 73.6419 -1.89077 -2.93345 0
M  V30 779 C 74.9899 -2.15579 -3.65802 0
M  V30 780 O 76.0139 -1.86648 -3.03383 0
M  V30 781 O 74.8729 -2.64658 -4.78141 0
M  V30 782 H 71.9669 -0.369025 -0.740101 0
M  V30 783 H 74.5129 -1.34657 -1.03274 0
M  V30 784 H 73.2849 -2.89158 -2.63634 0
M  V30 785 H 72.9079 -1.52463 -3.67207 0
M  V30 786 N 73.905 1.17692 -1.04816 0
M  V30 787 C 75.151 1.88137 -0.75711 0
M  V30 788 C 75.484 1.80604 0.713841 0
M  V30 789 O 74.759 1.21146 1.52164 0
M  V30 790 C 75.042 3.38318 -1.2334 0
M  V30 791 C 74.895 3.54622 -2.76701 0
M  V30 792 C 76.214 4.32214 -0.829415 0
M  V30 793 H 73.333 0.683163 -0.27651 0
M  V30 794 H 75.975 1.38424 -1.30149 0
M  V30 795 H 74.125 3.80787 -0.770286 0
M  V30 796 H 75.797 3.21194 -3.31107 0
M  V30 797 H 74.04 2.97026 -3.16161 0
M  V30 798 H 74.711 4.60028 -3.05088 0
M  V30 799 H 77.187 3.97565 -1.22805 0
M  V30 800 H 76.063 5.35838 -1.19033 0
M  V30 801 H 76.324 4.41294 0.266891 0
M  V30 802 N 75.3831 0.828654 1.34056 0
M  V30 803 C 76.3311 0.242973 2.31327 0
M  V30 804 C 77.3251 -0.61944 1.57668 0
M  V30 805 O 78.5311 -0.51014 1.7262 0
M  V30 806 H 74.9061 0.059834 0.749616 0
M  V30 807 H 76.8771 1.07809 2.78244 0
M  V30 808 C 75.6261 -0.575733 3.429 0
M  V30 809 H 74.9491 0.0785582 3.99723 0
M  V30 810 H 76.3891 -0.951547 4.13185 0
M  V30 811 C 74.8481 -1.75044 2.87856 0
M  V30 812 O 75.3781 -2.84882 2.83205 0
M  V30 813 N 73.5841 -1.56903 2.44602 0
M  V30 814 H 73.1311 -0.675547 2.48584 0
M  V30 815 H 73.0891 -2.35652 2.08124 0
M  V30 816 N 76.8612 -1.46375 0.584142 0
M  V30 817 C 78.0892 -2.06761 0.0759296 0
M  V30 818 C 78.5042 -1.43266 -1.22965 0
M  V30 819 O 77.8612 -0.538458 -1.74376 0
M  V30 820 C 77.9122 -3.61375 -0.0950384 0
M  V30 821 O 77.6332 -4.22495 1.15887 0
M  V30 822 C 79.1342 -4.38693 -0.637434 0
M  V30 823 H 76.3542 -0.668479 0.0581075 0
M  V30 824 H 78.8982 -1.8798 0.805218 0
M  V30 825 H 77.0532 -3.79578 -0.774554 0
M  V30 826 H 77.4672 -5.15385 0.973598 0
M  V30 827 H 78.9412 -5.47464 -0.706237 0
M  V30 828 H 79.4182 -4.06836 -1.65472 0
M  V30 829 H 80.0242 -4.25299 0.00725967 0
M  V30 830 N 78.3393 -0.321999 -1.54275 0
M  V30 831 C 79.7553 0.0306999 -1.5957 0
M  V30 832 C 79.9553 1.50614 -1.33857 0
M  V30 833 O 79.0113 2.2619 -1.12223 0
M  V30 834 C 80.3243 -0.386122 -2.98211 0
M  V30 835 C 81.8723 -0.336647 -3.11184 0
M  V30 836 C 82.3473 -0.728607 -4.52167 0
M  V30 837 N 83.8383 -0.681952 -4.58152 0
M  V30 838 C 84.5733 -0.957449 -5.6535 0
M  V30 839 N 84.0693 -1.3 -6.80494 0
M  V30 840 N 85.8623 -0.883113 -5.55119 0
M  V30 841 H 78.0133 -1.28332 -1.69247 0
M  V30 842 H 80.2763 -0.521716 -0.791528 0
M  V30 843 H 79.9823 -1.41404 -3.22022 0
M  V30 844 H 79.8563 0.249662 -3.76373 0
M  V30 845 H 82.2433 0.682058 -2.8711 0
M  V30 846 H 82.3243 -1.00734 -2.3513 0
M  V30 847 H 81.9683 -1.74522 -4.76974 0
M  V30 848 H 81.8983 -0.0356152 -5.26588 0
M  V30 849 H 84.3893 -0.428985 -3.75457 0
M  V30 850 H 84.7023 -1.49563 -7.58189 0
M  V30 851 H 83.0473 -1.33824 -6.81994 0
M  V30 852 H 86.2383 -0.615001 -4.64042 0
M  V30 853 H 86.4113 -1.10118 -6.38575 0
M  V30 854 N 79.8174 1.5752 -0.0501392 0
M  V30 855 C 81.0644 1.9265 0.623874 0
M  V30 856 C 81.3924 0.928411 1.70912 0
M  V30 857 O 80.6474 -0.0594525 1.9561 0
M  V30 858 C 80.9464 3.34467 1.25963 0
M  V30 859 C 80.6124 4.49883 0.302689 0
M  V30 860 C 79.2744 4.81184 0.0393636 0
M  V30 861 C 81.6264 5.20002 -0.353205 0
M  V30 862 C 78.9544 5.79951 -0.887308 0
M  V30 863 C 81.3064 6.1976 -1.26806 0
M  V30 864 C 79.9704 6.49491 -1.54007 0
M  V30 865 H 79.2404 0.704957 0.228292 0
M  V30 866 H 81.8874 1.91146 -0.116398 0
M  V30 867 H 80.1924 3.32333 2.07514 0
M  V30 868 H 81.8894 3.58928 1.78806 0
M  V30 869 H 78.4794 4.25457 0.518109 0
M  V30 870 H 82.6634 4.96033 -0.162854 0
M  V30 871 H 77.9194 6.01322 -1.10553 0
M  V30 872 H 82.0934 6.73205 -1.78236 0
M  V30 873 H 79.7204 7.25837 -2.25976 0
M  V30 874 N 81.2955 -0.223234 1.56011 0
M  V30 875 C 82.2255 -1.27988 1.95298 0
M  V30 876 C 83.2065 -1.48976 0.820979 0
M  V30 877 O 84.3915 -1.61188 1.08315 0
M  V30 878 C 81.5215 -2.63 2.26822 0
M  V30 879 C 80.4755 -2.56671 3.42497 0
M  V30 880 C 79.8015 -3.95697 3.59622 0
M  V30 881 C 81.1015 -2.11601 4.77517 0
M  V30 882 H 82.7955 -0.953525 2.8381 0
M  V30 883 H 80.3415 -0.457244 1.36548 0
M  V30 884 H 82.2945 -3.37077 2.52898 0
M  V30 885 H 81.0185 -2.9732 1.35161 0
M  V30 886 H 79.6775 -1.85051 3.16467 0
M  V30 887 H 79.3255 -4.27322 2.6534 0
M  V30 888 H 79.0255 -3.92345 4.37424 0
M  V30 889 H 80.5495 -4.71438 3.88044 0
M  V30 890 H 81.9635 -2.7542 5.02809 0
M  V30 891 H 80.3605 -2.19311 5.5859 0
M  V30 892 H 81.4305 -1.06824 4.72987 0
M  V30 893 N 82.7736 -1.49793 -0.48987 0
M  V30 894 C 83.7036 -1.70201 -1.59856 0
M  V30 895 C 84.6846 -0.55076 -1.60937 0
M  V30 896 O 85.8696 -0.787841 -1.77501 0
M  V30 897 C 82.9996 -1.77882 -2.98287 0
M  V30 898 C 81.9536 -2.92907 -3.12073 0
M  V30 899 C 81.2796 -2.85712 -4.51965 0
M  V30 900 C 82.5796 -4.3369 -2.91051 0
M  V30 901 H 84.2736 -2.63025 -1.43032 0
M  V30 902 H 81.8196 -1.26574 -0.686664 0
M  V30 903 H 83.7726 -1.90744 -3.75759 0
M  V30 904 H 82.4966 -0.816653 -3.16225 0
M  V30 905 H 81.1556 -2.79665 -2.37029 0
M  V30 906 H 80.8036 -1.8738 -4.66795 0
M  V30 907 H 80.5036 -3.62921 -4.62128 0
M  V30 908 H 82.0276 -3.00598 -5.31482 0
M  V30 909 H 83.4416 -4.47555 -3.58284 0
M  V30 910 H 81.8386 -5.12205 -3.12675 0
M  V30 911 H 82.9086 -4.47362 -1.87071 0
M  V30 912 N 84.2517 0.741722 -1.39055 0
M  V30 913 C 85.4817 1.52876 -1.3897 0
M  V30 914 C 85.8897 1.8919 0.0193266 0
M  V30 915 O 85.2327 1.54138 0.999356 0
M  V30 916 C 85.2947 2.84929 -2.19216 0
M  V30 917 C 84.9587 2.71086 -3.67915 0
M  V30 918 C 85.9557 2.40084 -4.61146 0
M  V30 919 C 83.6407 2.88168 -4.11418 0
M  V30 920 C 85.6347 2.26335 -5.95862 0
M  V30 921 C 83.3217 2.74037 -5.46211 0
M  V30 922 C 84.3197 2.43166 -6.38247 0
M  V30 923 O 84.0077 2.29115 -7.70559 0
M  V30 924 H 83.7397 0.479252 -0.476753 0
M  V30 925 H 86.2937 0.924751 -1.83405 0
M  V30 926 H 84.5237 3.47564 -1.69518 0
M  V30 927 H 86.2127 3.46509 -2.11392 0
M  V30 928 H 86.9787 2.26545 -4.28838 0
M  V30 929 H 82.8577 3.11191 -3.40119 0
M  V30 930 H 86.4017 2.0216 -6.67665 0
M  V30 931 H 82.2987 2.87153 -5.78112 0
M  V30 932 H 83.0667 2.44237 -7.81211 0
M  V30 933 N 85.7298 1.2412 0.971189 0
M  V30 934 C 86.9578 1.10575 1.74874 0
M  V30 935 C 87.3728 -0.342017 1.85676 0
M  V30 936 O 86.7298 -1.23617 1.34258 0
M  V30 937 C 86.7808 1.73579 3.171 0
M  V30 938 O 86.5018 3.12695 3.06844 0
M  V30 939 C 88.0028 1.65598 4.11208 0
M  V30 940 H 85.2228 0.386504 0.548503 0
M  V30 941 H 87.7668 1.64156 1.21955 0
M  V30 942 H 85.9218 1.24009 3.67016 0
M  V30 943 H 86.3358 3.43412 3.96445 0
M  V30 944 H 87.8098 2.1437 5.08674 0
M  V30 945 H 88.2868 0.616532 4.34851 0
M  V30 946 H 88.8928 2.14578 3.67201 0
M  V30 947 N 87.2079 -1.17134 1.05439 0
M  V30 948 C 88.1559 -2.23289 0.651511 0
M  V30 949 C 89.1499 -1.66186 -0.328411 0
M  V30 950 O 90.3559 -1.78949 -0.194206 0
M  V30 951 H 86.7309 -0.726938 0.192523 0
M  V30 952 H 88.7019 -2.54565 1.55689 0
M  V30 953 C 87.4509 -3.47671 0.0448436 0
M  V30 954 H 86.7739 -3.91918 0.78996 0
M  V30 955 H 88.2139 -4.2353 -0.19964 0
M  V30 956 C 86.6729 -3.14453 -1.20918 0
M  V30 957 O 87.2029 -3.29459 -2.29825 0
M  V30 958 N 85.4089 -2.68657 -1.10779 0
M  V30 959 H 84.9559 -2.56646 -0.221526 0
M  V30 960 H 84.9139 -2.46804 -1.9477 0
M  V30 961 N 88.686 -0.835752 -1.33615 0
M  V30 962 C 89.596 -0.269088 -2.33052 0
M  V30 963 C 90.612 0.603251 -1.63208 0
M  V30 964 O 91.788 0.508112 -1.94885 0
M  V30 965 C 88.853 0.549091 -3.42324 0
M  V30 966 C 87.914 -0.347156 -4.27894 0
M  V30 967 C 87.147 0.43207 -5.31948 0
M  V30 968 O 87.37 1.66409 -5.45586 0
M  V30 969 O 86.304 -0.192298 -6.01593 0
M  V30 970 H 90.13 -1.09243 -2.83372 0
M  V30 971 H 87.715 -0.598198 -1.36901 0
M  V30 972 H 89.597 1.01414 -4.09015 0
M  V30 973 H 88.272 1.34955 -2.94226 0
M  V30 974 H 87.179 -0.859979 -3.64081 0
M  V30 975 H 88.512 -1.1123 -4.79467 0
M  V30 976 N 90.1641 1.46063 -0.591896 0
M  V30 977 C 91.1121 2.32124 0.148739 0
M  V30 978 C 92.1061 1.45035 0.875286 0
M  V30 979 O 93.3121 1.61609 0.792632 0
M  V30 980 H 89.6871 0.749024 0.066832 0
M  V30 981 H 91.6581 2.92392 -0.595783 0
M  V30 982 C 90.4071 3.28373 1.1431 0
M  V30 983 H 89.7301 3.95371 0.59346 0
M  V30 984 H 91.1701 3.91352 1.63155 0
M  V30 985 C 89.6291 2.54393 2.20875 0
M  V30 986 O 90.1591 2.31373 3.28374 0
M  V30 987 N 88.3651 2.14797 1.95731 0
M  V30 988 H 87.9121 2.33719 1.08319 0
M  V30 989 H 87.8701 1.65619 2.67241 0
M  V30 990 N 91.6422 0.330177 1.54103 0
M  V30 991 C 93.0532 -0.15652 1.86043 0
M  V30 992 C 93.4042 -1.51086 1.2517 0
M  V30 993 O 92.5292 -2.09023 0.560217 0
M  V30 994 C 93.1242 -0.290784 3.3755 0
M  V30 995 C 91.6832 -0.721705 3.69416 0
M  V30 996 C 90.8302 0.152622 2.7688 0
M  V30 997 H 93.7812 0.550237 1.48856 0
M  V30 998 H 93.8022 -1.12058 3.63625 0
M  V30 999 H 93.3142 0.695068 3.81825 0
M  V30 1000 H 91.4152 -1.71706 3.30678 0
M  V30 1001 H 91.5282 -0.520869 4.7626 0
M  V30 1002 H 89.8922 -0.372894 2.51956 0
M  V30 1003 H 90.6752 1.13536 3.23982 0
M  V30 1004 N 93.1203 -1.57491 0.0584922 0
M  V30 1005 C 94.0683 -2.13148 -0.931168 0
M  V30 1006 C 95.0623 -1.06507 -1.31729 0
M  V30 1007 O 96.2683 -1.24906 -1.29609 0
M  V30 1008 H 92.6433 -0.68137 -0.31818 0
M  V30 1009 H 94.6143 -2.95187 -0.436707 0
M  V30 1010 C 93.3633 -2.69732 -2.19408 0
M  V30 1011 H 92.6863 -3.51454 -1.90578 0
M  V30 1012 H 94.1263 -3.12287 -2.86798 0
M  V30 1013 C 92.5853 -1.63855 -2.94369 0
M  V30 1014 O 93.1153 -1.05565 -3.87581 0
M  V30 1015 N 91.3213 -1.35202 -2.57233 0
M  V30 1016 H 90.8683 -1.82791 -1.81508 0
M  V30 1017 H 90.8263 -0.645922 -3.07693 0
M  V30 1018 N 94.5984 0.214957 -1.56127 0
M  V30 1019 C 95.5464 1.28601 -1.93816 0
M  V30 1020 C 96.5404 1.48175 -0.821016 0
M  V30 1021 O 97.7464 1.49271 -1.0059 0
M  V30 1022 H 94.1214 0.431302 -0.616022 0
M  V30 1023 H 96.0924 0.940991 -2.83175 0
M  V30 1024 C 94.8414 2.62779 -2.27689 0
M  V30 1025 H 94.1644 2.48527 -3.13168 0
M  V30 1026 H 95.6044 3.36517 -2.57939 0
M  V30 1027 C 94.0634 3.18285 -1.10436 0
M  V30 1028 O 94.5934 4.00002 -0.368945 0
M  V30 1029 N 92.7994 2.7675 -0.886433 0
M  V30 1030 H 92.3464 2.10404 -1.48619 0
M  V30 1031 H 92.3044 3.14229 -0.103656 0
M  V30 1032 N 96.0765 1.50051 0.48192 0
M  V30 1033 C 97.3235 1.60498 1.23477 0
M  V30 1034 C 97.6515 0.300331 1.92167 0
M  V30 1035 O 96.9065 -0.713094 1.82246 0
M  V30 1036 C 97.2055 2.72717 2.30998 0
M  V30 1037 C 96.8715 4.13572 1.79636 0
M  V30 1038 C 95.5335 4.519 1.65348 0
M  V30 1039 C 97.8855 5.01649 1.41412 0
M  V30 1040 C 95.2135 5.76057 1.11244 0
M  V30 1041 C 97.5655 6.26343 0.887538 0
M  V30 1042 C 96.2295 6.63483 0.731207 0
M  V30 1043 H 95.4995 0.587303 0.451836 0
M  V30 1044 H 98.1465 1.83948 0.532468 0
M  V30 1045 H 96.4515 2.43312 3.07094 0
M  V30 1046 H 98.1485 2.78006 2.88988 0
M  V30 1047 H 94.7385 3.83329 1.91721 0
M  V30 1048 H 98.9225 4.72679 1.51289 0
M  V30 1049 H 94.1785 6.03516 0.978686 0
M  V30 1050 H 98.3525 6.93958 0.582654 0
M  V30 1051 H 95.9795 7.59568 0.309806 0
M  V30 1052 N 97.5546 -0.734337 1.39446 0
M  V30 1053 C 98.4866 -1.85861 1.34121 0
M  V30 1054 C 99.4996 -1.60871 0.249864 0
M  V30 1055 O 100.689 -1.71093 0.508865 0
M  V30 1056 C 97.7886 -3.21899 1.05991 0
M  V30 1057 C 96.9616 -3.74239 2.26415 0
M  V30 1058 C 96.0206 -4.88841 1.94733 0
M  V30 1059 O 95.0466 -5.02468 2.67422 0
M  V30 1060 N 96.2486 -5.73261 0.913884 0
M  V30 1061 H 99.0136 -1.90934 2.31007 0
M  V30 1062 H 96.5746 -0.915102 1.33557 0
M  V30 1063 H 98.5666 -3.96136 0.828147 0
M  V30 1064 H 97.1366 -3.12091 0.178361 0
M  V30 1065 H 96.3566 -2.91347 2.65539 0
M  V30 1066 H 97.6446 -4.05942 3.06738 0
M  V30 1067 H 97.0426 -5.64842 0.311476 0
M  V30 1068 H 95.5996 -6.47563 0.742015 0
M  V30 1069 N 99.0327 -1.24633 -0.964593 0
M  V30 1070 C 99.9427 -1.05859 -2.09359 0
M  V30 1071 C 100.959 0.00148855 -1.74 0
M  V30 1072 O 102.135 -0.197346 -2.00431 0
M  V30 1073 C 99.1997 -0.668879 -3.40187 0
M  V30 1074 C 98.2607 -1.80578 -3.89474 0
M  V30 1075 C 97.4937 -1.43457 -5.14058 0
M  V30 1076 O 97.7167 -0.325775 -5.69469 0
M  V30 1077 O 96.6507 -2.2613 -5.57807 0
M  V30 1078 H 100.477 -2.00516 -2.28094 0
M  V30 1079 H 98.0617 -1.03481 -1.0776 0
M  V30 1080 H 99.9437 -0.463211 -4.18846 0
M  V30 1081 H 98.6187 0.248536 -3.22744 0
M  V30 1082 H 97.5257 -2.06623 -3.11862 0
M  V30 1083 H 98.8587 -2.70208 -4.11398 0
M  V30 1084 N 100.511 1.16574 -1.06058 0
M  V30 1085 C 101.757 1.87324 -0.777022 0
M  V30 1086 C 102.09 1.81351 0.694645 0
M  V30 1087 O 101.365 1.22753 1.50871 0
M  V30 1088 C 101.648 3.36991 -1.26922 0
M  V30 1089 C 101.501 3.51667 -2.80447 0
M  V30 1090 C 102.82 4.3131 -0.87521 0
M  V30 1091 H 99.9388 0.680191 -0.28374 0
M  V30 1092 H 102.581 1.37036 -1.3161 0
M  V30 1093 H 100.731 3.79949 -0.81063 0
M  V30 1094 H 102.403 3.17664 -3.34495 0
M  V30 1095 H 100.646 2.93656 -3.19294 0
M  V30 1096 H 101.317 4.56766 -3.0995 0
M  V30 1097 H 103.793 3.9624 -1.27014 0
M  V30 1098 H 102.669 5.34545 -1.2471 0
M  V30 1099 H 102.93 4.41552 0.220071 0
M  V30 1100 N 101.989 0.842826 1.3317 0
M  V30 1101 C 102.952 0.284065 2.27433 0
M  V30 1102 C 103.952 -0.54948 1.5112 0
M  V30 1103 O 105.142 -0.362699 1.70382 0
M  V30 1104 C 102.274 -0.599384 3.35589 0
M  V30 1105 H 103.467 1.11589 2.78366 0
M  V30 1106 H 101.02 0.616221 1.4364 0
M  V30 1107 H 101.755 -1.45349 2.89904 0
M  V30 1108 H 101.54 -0.00291266 3.921 0
M  V30 1109 H 103.03 -0.983488 4.05854 0
M  V30 1110 N 103.467 -1.45747 0.599634 0
M  V30 1111 C 104.43 -2.28917 -0.113835 0
M  V30 1112 C 105.43 -1.3933 -0.802729 0
M  V30 1113 O 106.62 -1.61534 -0.652103 0
M  V30 1114 C 103.752 -3.20152 -1.17114 0
M  V30 1115 H 104.945 -2.93478 0.617289 0
M  V30 1116 H 102.498 -1.52137 0.358327 0
M  V30 1117 H 103.233 -2.60374 -1.93329 0
M  V30 1118 H 103.018 -3.86133 -0.681468 0
M  V30 1119 H 104.508 -3.82708 -1.67105 0
M  V30 1120 N 104.945 -0.338344 -1.53925 0
M  V30 1121 C 106.222 0.314774 -1.93051 0
M  V30 1122 C 106.602 1.68669 -1.26941 0
M  V30 1123 O 105.95 2.24636 -0.418445 0
M  V30 1124 C 106.16 0.392249 -3.46789 0
M  V30 1125 C 107.508 0.645554 -4.19664 0
M  V30 1126 O 108.532 0.474575 -3.53024 0
M  V30 1127 O 107.391 0.976408 -5.37707 0
M  V30 1128 H 104.485 0.182598 -0.80659 0
M  V30 1129 H 107.031 -0.389141 -1.65178 0
M  V30 1130 H 105.803 -0.570702 -3.87116 0
M  V30 1131 H 105.426 1.14316 -3.80812 0
M  V30 1132 N 106.423 1.57458 -0.0668435 0
M  V30 1133 C 107.648 1.9804 0.616027 0
M  V30 1134 C 108.073 0.944771 1.62652 0
M  V30 1135 O 107.431 -0.0902094 1.81075 0
M  V30 1136 C 107.479 3.37665 1.26549 0
M  V30 1137 O 106.583 3.36701 2.38131 0
M  V30 1138 H 105.924 0.644719 0.158849 0
M  V30 1139 H 108.454 2.04121 -0.139891 0
M  V30 1140 H 108.464 3.7474 1.6135 0
M  V30 1141 H 107.139 4.12573 0.525016 0
M  V30 1142 H 105.716 3.1139 2.0516 0
M  V30 1143 N 107.901 -0.206675 1.56239 0
M  V30 1144 C 109.126 -0.949474 1.8439 0
M  V30 1145 C 109.551 -1.76549 0.649016 0
M  V30 1146 O 108.909 -1.76782 -0.402231 0
M  V30 1147 C 108.957 -1.83078 3.10668 0
M  V30 1148 O 108.061 -2.9281 2.90407 0
M  V30 1149 H 107.402 -0.268033 0.607499 0
M  V30 1150 H 109.932 -0.215488 2.03462 0
M  V30 1151 H 109.942 -2.2377 3.41161 0
M  V30 1152 H 108.617 -1.23112 3.97261 0
M  V30 1153 H 107.194 -2.55956 2.71184 0
M  V30 1154 N 109.379 -1.50304 -0.473955 0
M  V30 1155 C 110.604 -1.65175 -1.25427 0
M  V30 1156 C 111.029 -0.333673 -1.85117 0
M  V30 1157 O 110.387 0.702114 -1.67153 0
M  V30 1158 C 110.435 -2.74295 -2.34082 0
M  V30 1159 O 109.539 -2.35349 -3.38651 0
M  V30 1160 H 108.88 -0.551944 -0.369126 0
M  V30 1161 H 111.41 -1.96662 -0.564364 0
M  V30 1162 H 111.42 -2.97285 -2.79438 0
M  V30 1163 H 110.095 -3.69959 -1.90008 0
M  V30 1164 H 108.672 -2.22794 -2.99027 0
M  V30 1165 N 110.857 0.726932 -1.39834 0
M  V30 1166 C 112.106 1.48214 -1.36805 0
M  V30 1167 C 112.419 1.95576 0.0305291 0
M  V30 1168 O 113.625 2.7088 0.183417 0
M  V30 1169 C 112.081 2.67854 -2.40379 0
M  V30 1170 C 111.689 2.27408 -3.85992 0
M  V30 1171 C 113.433 3.45641 -2.46439 0
M  V30 1172 C 111.34 3.43819 -4.81189 0
M  V30 1173 H 110.27 0.556606 -0.508631 0
M  V30 1174 H 112.921 0.792216 -1.65518 0
M  V30 1175 H 111.303 3.3896 -2.04749 0
M  V30 1176 H 112.477 1.63795 -4.30706 0
M  V30 1177 H 110.792 1.62692 -3.83302 0
M  V30 1178 H 113.389 4.32244 -3.14753 0
M  V30 1179 H 113.732 3.88669 -1.49139 0
M  V30 1180 H 114.265 2.8157 -2.81004 0
M  V30 1181 H 111.004 3.05834 -5.79781 0
M  V30 1182 H 110.524 4.06385 -4.41148 0
M  V30 1183 H 112.203 4.10043 -5.00474 0
M  V30 1184 N 112.336 1.25143 0.95797 0
M  V30 1185 C 113.561 1.12521 1.74223 0
M  V30 1186 C 113.986 -0.317402 1.85403 0
M  V30 1187 O 113.344 -1.2299 1.33204 0
M  V30 1188 C 113.392 1.78062 3.1357 0
M  V30 1189 O 112.496 1.058 3.98598 0
M  V30 1190 H 111.837 0.39304 0.535178 0
M  V30 1191 H 114.367 1.65641 1.201 0
M  V30 1192 H 114.377 1.84213 3.64046 0
M  V30 1193 H 113.052 2.83021 3.04749 0
M  V30 1194 H 111.629 1.07506 3.57067 0
M  V30 1195 N 113.814 -1.1601 1.06675 0
M  V30 1196 C 115.062 -1.86264 0.784229 0
M  V30 1197 C 115.383 -1.82328 -0.691488 0
M  V30 1198 O 114.653 -1.25947 -1.50047 0
M  V30 1199 H 113.233 -0.689621 0.28711 0
M  V30 1200 H 115.895 -1.40664 1.34906 0
M  V30 1201 H 114.991 -2.91595 1.11259 0
M  V30 1202 N 115.292 -0.849877 -1.32721 0
M  V30 1203 C 116.517 -0.463856 -2.02146 0
M  V30 1204 C 116.942 0.930449 -1.63476 0
M  V30 1205 O 116.3 1.61033 -0.832952 0
M  V30 1206 C 116.348 -0.604955 -3.55489 0
M  V30 1207 O 115.452 0.36425 -4.10788 0
M  V30 1208 H 114.793 -0.187046 -0.637111 0
M  V30 1209 H 117.323 -1.14775 -1.69375 0
M  V30 1210 H 117.333 -0.490696 -4.05038 0
M  V30 1211 H 116.008 -1.62174 -3.82978 0
M  V30 1212 H 114.585 0.206628 -3.72327 0
M  V30 1213 N 116.77 1.45427 -0.607355 0
M  V30 1214 C 117.718 2.32269 0.12411 0
M  V30 1215 C 118.712 1.45955 0.859854 0
M  V30 1216 O 119.918 1.6244 0.775447 0
M  V30 1217 H 116.293 0.749691 0.0588839 0
M  V30 1218 H 118.264 2.91743 -0.626762 0
M  V30 1219 C 117.013 3.29567 1.1082 0
M  V30 1220 H 116.336 3.95978 0.551492 0
M  V30 1221 H 117.776 3.93061 1.58995 0
M  V30 1222 C 116.235 2.56722 2.18164 0
M  V30 1223 O 116.765 2.34842 3.25902 0
M  V30 1224 N 114.971 2.16861 1.93442 0
M  V30 1225 H 114.518 2.34855 1.05834 0
M  V30 1226 H 114.476 1.68444 2.65469 0
M  V30 1227 N 118.248 0.346503 1.53744 0
M  V30 1228 C 119.495 -0.249104 2.00962 0
M  V30 1229 C 119.823 -1.5032 1.23426 0
M  V30 1230 O 119.078 -1.93217 0.310761 0
M  V30 1231 C 119.377 -0.605809 3.52228 0
M  V30 1232 C 119.043 0.551747 4.47512 0
M  V30 1233 C 117.705 0.86941 4.73281 0
M  V30 1234 C 120.057 1.32818 5.03993 0
M  V30 1235 C 117.385 1.96582 5.52786 0
M  V30 1236 C 119.737 2.41486 5.84694 0
M  V30 1237 C 118.401 2.73808 6.08757 0
M  V30 1238 H 117.671 -0.0911538 0.735372 0
M  V30 1239 H 120.318 0.475027 1.85515 0
M  V30 1240 H 118.623 -1.4107 3.65522 0
M  V30 1241 H 120.32 -1.07858 3.86222 0
M  V30 1242 H 116.91 0.294102 4.2759 0
M  V30 1243 H 121.094 1.09602 4.84047 0
M  V30 1244 H 116.35 2.22045 5.69654 0
M  V30 1245 H 120.524 3.02078 6.27473 0
M  V30 1246 H 118.151 3.58892 6.7015 0
M  V30 1247 N 119.726 -1.57421 0.075193 0
M  V30 1248 C 120.673 -2.12915 -0.890843 0
M  V30 1249 C 121.643 -1.04252 -1.29309 0
M  V30 1250 O 122.828 -1.31933 -1.37834 0
M  V30 1251 C 119.968 -2.69795 -2.15186 0
M  V30 1252 C 119.081 -3.92624 -1.80194 0
M  V30 1253 C 118.216 -4.37736 -3.00933 0
M  V30 1254 C 117.255 -5.53205 -2.61974 0
M  V30 1255 N 116.392 -5.9326 -3.75483 0
M  V30 1256 H 121.232 -2.95156 -0.410735 0
M  V30 1257 H 118.769 -1.45854 -0.191086 0
M  V30 1258 H 120.727 -3.00883 -2.89008 0
M  V30 1259 H 119.357 -1.90313 -2.60731 0
M  V30 1260 H 118.409 -3.67977 -0.964218 0
M  V30 1261 H 119.721 -4.76482 -1.47534 0
M  V30 1262 H 118.875 -4.70503 -3.8303 0
M  V30 1263 H 117.614 -3.52739 -3.36789 0
M  V30 1264 H 116.619 -5.20086 -1.783 0
M  V30 1265 H 117.844 -6.39936 -2.27284 0
M  V30 1266 H 115.79 -5.11212 -4.11094 0
M  V30 1267 H 115.707 -6.71865 -3.46602 0
M  V30 1268 H 116.975 -6.30651 -4.58148 0
M  V30 1269 N 121.204 0.198386 -1.56346 0
M  V30 1270 C 122.432 0.935572 -1.84539 0
M  V30 1271 C 122.847 1.76989 -0.657281 0
M  V30 1272 O 122.204 1.78626 0.374043 0
M  V30 1273 C 122.255 1.8344 -3.11499 0
M  V30 1274 O 121.976 1.03377 -4.25728 0
M  V30 1275 C 123.477 2.68355 -3.52846 0
M  V30 1276 H 120.697 0.273126 -0.612897 0
M  V30 1277 H 123.241 0.20663 -2.03453 0
M  V30 1278 H 121.396 2.51701 -2.94492 0
M  V30 1279 H 121.81 1.64599 -4.98003 0
M  V30 1280 H 123.284 3.27085 -4.44657 0
M  V30 1281 H 123.761 3.41901 -2.75681 0
M  V30 1282 H 124.367 2.05471 -3.72373 0
M  V30 1283 N 122.682 1.50554 0.465978 0
M  V30 1284 C 123.63 1.70324 1.58406 0
M  V30 1285 C 124.624 0.569139 1.59553 0
M  V30 1286 O 125.83 0.749776 1.63641 0
M  V30 1287 H 122.205 0.537688 0.525734 0
M  V30 1288 H 124.176 2.64104 1.38894 0
M  V30 1289 C 122.925 1.81928 2.96307 0
M  V30 1290 H 122.248 2.68586 2.96144 0
M  V30 1291 H 123.688 1.99784 3.73982 0
M  V30 1292 C 122.147 0.572095 3.32007 0
M  V30 1293 O 122.677 -0.286416 4.00678 0
M  V30 1294 N 120.883 0.424606 2.87481 0
M  V30 1295 H 120.43 1.12427 2.31771 0
M  V30 1296 H 120.388 -0.408697 3.11732 0
M  V30 1297 N 124.16 -0.719506 1.40217 0
M  V30 1298 C 125.576 -1.02707 1.22161 0
M  V30 1299 C 125.776 -2.0128 0.0940557 0
M  V30 1300 O 124.832 -2.46452 -0.549318 0
M  V30 1301 C 126.145 -1.57454 2.56181 0
M  V30 1302 C 127.693 -1.69458 2.63159 0
M  V30 1303 C 128.168 -2.27611 3.97438 0
M  V30 1304 N 129.659 -2.35002 3.99159 0
M  V30 1305 C 130.394 -2.80972 4.99842 0
M  V30 1306 N 129.89 -3.26723 6.10921 0
M  V30 1307 N 131.683 -2.80321 4.87213 0
M  V30 1308 H 123.834 -0.0660492 2.12297 0
M  V30 1309 H 126.097 -0.0919077 0.943534 0
M  V30 1310 H 125.803 -0.924873 3.39321 0
M  V30 1311 H 125.677 -2.56036 2.76993 0
M  V30 1312 H 128.064 -2.33543 1.80393 0
M  V30 1313 H 128.145 -0.694867 2.46181 0
M  V30 1314 H 127.789 -1.6415 4.80643 0
M  V30 1315 H 127.719 -3.2829 4.11744 0
M  V30 1316 H 130.21 -2.02685 3.18947 0
M  V30 1317 H 130.523 -3.60355 6.8364 0
M  V30 1318 H 128.868 -3.24692 6.14492 0
M  V30 1319 H 132.059 -2.43912 3.9953 0
M  V30 1320 H 132.232 -3.15831 5.65822 0
M  V30 1321 N 125.638 -1.25649 -0.95132 0
M  V30 1322 C 126.585 -1.06323 -2.04851 0
M  V30 1323 C 127.555 0.0286491 -1.66075 0
M  V30 1324 O 128.74 -0.12917 -1.90362 0
M  V30 1325 C 125.88 -0.691529 -3.381 0
M  V30 1326 C 124.993 -1.85861 -3.89974 0
M  V30 1327 C 124.128 -1.43096 -5.11563 0
M  V30 1328 C 123.167 -2.56696 -5.55674 0
M  V30 1329 N 122.304 -2.14684 -6.68472 0
M  V30 1330 H 127.144 -2.00222 -2.20715 0
M  V30 1331 H 124.681 -0.997027 -1.08156 0
M  V30 1332 H 126.639 -0.456963 -4.1469 0
M  V30 1333 H 125.269 0.210474 -3.22113 0
M  V30 1334 H 124.321 -2.20639 -3.09875 0
M  V30 1335 H 125.633 -2.71161 -4.18657 0
M  V30 1336 H 124.787 -1.15624 -5.9558 0
M  V30 1337 H 123.526 -0.548722 -4.84603 0
M  V30 1338 H 122.531 -2.84909 -4.7022 0
M  V30 1339 H 123.756 -3.45503 -5.8464 0
M  V30 1340 H 121.702 -1.28881 -6.43215 0
M  V30 1341 H 121.619 -2.9353 -6.96689 0
M  V30 1342 H 122.887 -1.90397 -7.5589 0
M  V30 1343 N 127.117 1.15442 -1.07289 0
M  V30 1344 C 128.345 1.90096 -0.81676 0
M  V30 1345 C 128.76 1.7798 0.629966 0
M  V30 1346 O 128.117 1.1313 1.43206 0
M  V30 1347 C 128.168 3.40466 -1.21512 0
M  V30 1348 O 127.889 3.52232 -2.60508 0
M  V30 1349 C 129.39 4.32145 -0.988198 0
M  V30 1350 H 126.61 0.602495 -0.295366 0
M  V30 1351 H 129.154 1.4627 -1.42918 0
M  V30 1352 H 127.309 3.81958 -0.647039 0
M  V30 1353 H 127.723 4.45549 -2.76742 0
M  V30 1354 H 129.197 5.36072 -1.31645 0
M  V30 1355 H 129.674 4.39135 0.0755063 0
M  V30 1356 H 130.28 3.96395 -1.54115 0
M  V30 1357 N 128.595 0.856903 1.32268 0
M  V30 1358 C 130.011 0.547061 1.49931 0
M  V30 1359 C 130.211 -0.921781 1.7918 0
M  V30 1360 O 129.267 -1.70469 1.8627 0
M  V30 1361 C 130.58 1.43599 2.64196 0
M  V30 1362 C 132.128 1.43665 2.78081 0
M  V30 1363 C 132.603 2.31085 3.95428 0
M  V30 1364 N 134.094 2.28893 4.02694 0
M  V30 1365 C 134.829 2.93262 4.92732 0
M  V30 1366 N 134.325 3.66751 5.87763 0
M  V30 1367 N 136.118 2.82638 4.85873 0
M  V30 1368 H 128.269 1.8075 1.11549 0
M  V30 1369 H 130.532 0.772144 0.549997 0
M  V30 1370 H 130.238 2.48058 2.49319 0
M  V30 1371 H 130.112 1.12502 3.60032 0
M  V30 1372 H 132.499 0.399701 2.92381 0
M  V30 1373 H 132.58 1.7878 1.82952 0
M  V30 1374 H 132.224 3.34849 3.81888 0
M  V30 1375 H 132.154 1.93302 4.89839 0
M  V30 1376 H 134.645 1.75466 3.34694 0
M  V30 1377 H 134.958 4.13027 6.53168 0
M  V30 1378 H 133.303 3.70859 5.87783 0
M  V30 1379 H 136.494 2.24774 4.10602 0
M  V30 1380 H 136.667 3.33084 5.55841 0
M  V30 1381 N 130.073 -1.45103 0.615059 0
M  V30 1382 C 131.32 -2.02183 0.113179 0
M  V30 1383 C 131.648 -1.48249 -1.25906 0
M  V30 1384 O 130.903 -0.650265 -1.84581 0
M  V30 1385 C 131.202 -3.57386 0.0318797 0
M  V30 1386 C 130.868 -4.30505 1.34077 0
M  V30 1387 C 129.53 -4.50197 1.69929 0
M  V30 1388 C 131.882 -4.72238 2.20546 0
M  V30 1389 C 129.21 -5.08881 2.91988 0
M  V30 1390 C 131.562 -5.32272 3.41861 0
M  V30 1391 C 130.226 -5.50187 3.77956 0
M  V30 1392 H 129.496 -0.739842 0.0414151 0
M  V30 1393 H 132.143 -1.74073 0.798168 0
M  V30 1394 H 130.448 -3.84817 -0.736409 0
M  V30 1395 H 132.145 -3.99264 -0.372712 0
M  V30 1396 H 128.735 -4.15496 1.05173 0
M  V30 1397 H 132.919 -4.56751 1.94146 0
M  V30 1398 H 128.175 -5.20939 3.2005 0
M  V30 1399 H 132.349 -5.63563 4.09109 0
M  V30 1400 H 129.976 -5.95427 4.72622 0
M  V30 1401 N 131.551 -0.354651 -1.53558 0
M  V30 1402 C 132.8 0.239504 -2.00273 0
M  V30 1403 C 133.113 1.50759 -1.24623 0
M  V30 1404 O 134.319 2.17968 -1.61871 0
M  V30 1405 C 132.775 0.477341 -3.5672 0
M  V30 1406 C 132.383 -0.775488 -4.41237 0
M  V30 1407 C 134.127 1.02975 -4.11821 0
M  V30 1408 C 132.034 -0.507838 -5.89216 0
M  V30 1409 H 130.964 0.0932743 -0.748208 0
M  V30 1410 H 133.615 -0.471701 -1.77334 0
M  V30 1411 H 131.997 1.24953 -3.7577 0
M  V30 1412 H 133.171 -1.54963 -4.33962 0
M  V30 1413 H 131.486 -1.25033 -3.97185 0
M  V30 1414 H 134.083 1.24513 -5.2 0
M  V30 1415 H 134.426 1.98862 -3.65731 0
M  V30 1416 H 134.959 0.317994 -3.96527 0
M  V30 1417 H 131.698 -1.43674 -6.39561 0
M  V30 1418 H 131.218 0.228011 -5.99366 0
M  V30 1419 H 132.897 -0.129238 -6.46871 0
M  V30 1420 N 133.029 1.57378 -0.0835403 0
M  V30 1421 C 134.278 1.93106 0.582498 0
M  V30 1422 C 134.591 0.96651 1.70053 0
M  V30 1423 O 135.797 1.21705 2.42693 0
M  V30 1424 C 134.253 3.43076 1.08751 0
M  V30 1425 C 133.861 4.48 -0.000146404 0
M  V30 1426 C 135.605 3.87785 1.72694 0
M  V30 1427 C 133.512 5.89113 0.519568 0
M  V30 1428 H 132.442 0.720775 0.221358 0
M  V30 1429 H 135.093 1.82821 -0.157675 0
M  V30 1430 H 133.475 3.48474 1.88101 0
M  V30 1431 H 134.649 4.54233 -0.775199 0
M  V30 1432 H 132.964 4.1283 -0.54406 0
M  V30 1433 H 135.561 4.90604 2.1263 0
M  V30 1434 H 135.904 3.25796 2.59158 0
M  V30 1435 H 136.437 3.8504 0.999457 0
M  V30 1436 H 133.176 6.54775 -0.308186 0
M  V30 1437 H 132.696 5.86376 1.26188 0
M  V30 1438 H 134.375 6.39346 0.992237 0
M  V30 1439 N 134.507 -0.190092 1.56449 0
M  V30 1440 C 135.457 -1.23977 1.91347 0
M  V30 1441 C 136.441 -1.40747 0.779693 0
M  V30 1442 O 137.633 -1.43033 1.04262 0
M  V30 1443 C 134.762 -2.58347 2.26079 0
M  V30 1444 C 133.848 -2.4535 3.45925 0
M  V30 1445 N 134.239 -2.02039 4.63696 0
M  V30 1446 C 132.537 -2.76229 3.50162 0
M  V30 1447 C 133.238 -2.01053 5.4585 0
M  V30 1448 N 132.214 -2.42747 4.8639 0
M  V30 1449 H 136.016 -0.896318 2.79899 0
M  V30 1450 H 133.53 -0.398496 1.57435 0
M  V30 1451 H 135.527 -3.34173 2.49267 0
M  V30 1452 H 134.187 -2.93512 1.38856 0
M  V30 1453 H 135.198 -1.7267 4.88268 0
M  V30 1454 H 131.875 -3.15556 2.73369 0
M  V30 1455 H 133.265 -1.69426 6.50188 0
M  V30 1456 N 135.985 -1.50799 -0.457987 0
M  V30 1457 C 137.233 -1.62121 -1.2067 0
M  V30 1458 C 137.554 -0.329793 -1.92191 0
M  V30 1459 O 136.824 0.653409 -1.84682 0
M  V30 1460 H 135.404 -0.597441 -0.448411 0
M  V30 1461 H 138.066 -1.87637 -0.527096 0
M  V30 1462 H 137.162 -2.43882 -1.94751 0
M  V30 1463 N 137.463 0.71206 -1.40597 0
M  V30 1464 C 138.71 1.47197 -1.39065 0
M  V30 1465 C 139.038 1.94499 0.00583891 0
M  V30 1466 O 138.293 1.68752 0.99102 0
M  V30 1467 C 138.592 2.71039 -2.32965 0
M  V30 1468 C 138.258 2.42484 -3.80148 0
M  V30 1469 C 136.92 2.34406 -4.20247 0
M  V30 1470 C 139.272 2.18598 -4.73143 0
M  V30 1471 C 136.6 2.00516 -5.51371 0
M  V30 1472 C 138.952 1.8622 -6.0457 0
M  V30 1473 C 137.616 1.76626 -6.43708 0
M  V30 1474 H 136.886 0.538634 -0.508876 0
M  V30 1475 H 139.533 0.815325 -1.73276 0
M  V30 1476 H 137.838 3.41558 -1.91951 0
M  V30 1477 H 139.535 3.29138 -2.29061 0
M  V30 1478 H 136.125 2.49659 -3.4838 0
M  V30 1479 H 140.309 2.23793 -4.42979 0
M  V30 1480 H 135.565 1.91628 -5.80593 0
M  V30 1481 H 139.739 1.66752 -6.76141 0
M  V30 1482 H 137.366 1.50133 -7.45228 0
M  V30 1483 N 138.941 1.26152 0.944643 0
M  V30 1484 C 140.19 1.10883 1.68487 0
M  V30 1485 C 140.503 -0.348153 1.92477 0
M  V30 1486 O 141.709 -0.621459 2.64292 0
M  V30 1487 C 140.165 1.93624 3.03377 0
M  V30 1488 C 139.773 3.43875 2.87148 0
M  V30 1489 C 141.517 1.86954 3.81115 0
M  V30 1490 C 139.424 4.18875 4.1749 0
M  V30 1491 H 138.354 0.41135 0.631907 0
M  V30 1492 H 141.005 1.50433 1.05082 0
M  V30 1493 H 139.387 1.46904 3.67743 0
M  V30 1494 H 140.561 3.98338 2.31653 0
M  V30 1495 H 138.876 3.51744 2.22856 0
M  V30 1496 H 141.473 2.40275 4.77673 0
M  V30 1497 H 141.816 0.839518 4.07747 0
M  V30 1498 H 142.349 2.31477 3.23517 0
M  V30 1499 H 139.088 5.22332 3.96043 0
M  V30 1500 H 138.608 3.69193 4.72712 0
M  V30 1501 H 140.287 4.27134 4.85968 0
M  V30 1502 N 140.419 -1.14872 1.07899 0
M  V30 1503 C 141.696 -1.81928 0.71845 0
M  V30 1504 C 142.076 -1.95417 -0.798455 0
M  V30 1505 O 141.424 -1.50997 -1.715 0
M  V30 1506 C 141.634 -3.17937 1.43935 0
M  V30 1507 C 142.982 -3.93501 1.59506 0
M  V30 1508 O 144.006 -3.27509 1.40058 0
M  V30 1509 O 142.865 -5.1183 1.91551 0
M  V30 1510 H 139.959 -0.78628 0.256305 0
M  V30 1511 H 142.505 -1.21934 1.18026 0
M  V30 1512 H 141.277 -3.0325 2.47295 0
M  V30 1513 H 140.9 -3.85619 0.968687 0
M  V30 1514 N 141.898 -0.863906 -1.31812 0
M  V30 1515 C 142.845 -0.313303 -2.28664 0
M  V30 1516 C 143.815 0.584868 -1.55462 0
M  V30 1517 O 145 0.517805 -1.83639 0
M  V30 1518 C 142.14 0.48441 -3.41683 0
M  V30 1519 C 141.253 -0.440594 -4.29747 0
M  V30 1520 C 140.388 0.370652 -5.29905 0
M  V30 1521 C 139.427 -0.551164 -6.09613 0
M  V30 1522 N 138.564 0.223462 -7.01744 0
M  V30 1523 H 143.404 -1.14444 -2.75148 0
M  V30 1524 H 140.941 -0.575769 -1.35364 0
M  V30 1525 H 142.899 0.962627 -4.05943 0
M  V30 1526 H 141.529 1.28029 -2.96325 0
M  V30 1527 H 140.581 -1.03724 -3.65986 0
M  V30 1528 H 141.893 -1.14767 -4.85417 0
M  V30 1529 H 141.047 0.911638 -5.99812 0
M  V30 1530 H 139.786 1.11105 -4.74876 0
M  V30 1531 H 138.791 -1.10396 -5.38603 0
M  V30 1532 H 140.016 -1.29032 -6.66729 0
M  V30 1533 H 137.962 0.946787 -6.49132 0
M  V30 1534 H 137.879 -0.424399 -7.54808 0
M  V30 1535 H 139.147 0.745876 -7.75923 0
M  V30 1536 N 143.376 1.44774 -0.622745 0
M  V30 1537 C 144.624 2.01721 -0.123655 0
M  V30 1538 C 144.945 1.49172 1.25589 0
M  V30 1539 O 144.215 0.691974 1.83272 0
M  V30 1540 H 142.795 0.745777 -0.0427225 0
M  V30 1541 H 145.457 1.77382 -0.807559 0
M  V30 1542 H 144.553 3.11984 -0.0849534 0
M  V30 1543 N 144.854 0.36279 1.53368 0
M  V30 1544 C 145.764 -0.492994 2.29362 0
M  V30 1545 C 146.78 -1.09507 1.35219 0
M  V30 1546 O 147.956 -1.10662 1.68273 0
M  V30 1547 C 145.021 -1.61855 3.066 0
M  V30 1548 C 144.082 -1.04429 4.16405 0
M  V30 1549 C 143.315 -2.11621 4.89951 0
M  V30 1550 O 143.538 -3.32684 4.63333 0
M  V30 1551 O 142.472 -1.74835 5.75948 0
M  V30 1552 H 146.298 0.125331 3.03441 0
M  V30 1553 H 143.883 0.127253 1.48857 0
M  V30 1554 H 145.765 -2.27302 3.54841 0
M  V30 1555 H 144.44 -2.22233 2.3536 0
M  V30 1556 H 143.347 -0.353819 3.72423 0
M  V30 1557 H 144.68 -0.485113 4.89804 0
M  V30 1558 N 146.332 -1.57332 0.0918853 0
M  V30 1559 C 147.242 -2.17368 -0.882505 0
M  V30 1560 C 148.258 -1.14226 -1.31257 0
M  V30 1561 O 149.434 -1.46582 -1.38115 0
M  V30 1562 C 146.499 -2.73962 -2.12476 0
M  V30 1563 C 145.56 -3.92048 -1.7492 0
M  V30 1564 C 144.793 -4.45933 -2.93223 0
M  V30 1565 O 145.016 -3.98764 -4.07852 0
M  V30 1566 O 143.95 -5.36999 -2.71875 0
M  V30 1567 H 147.776 -3.01031 -0.40172 0
M  V30 1568 H 145.361 -1.48813 -0.132291 0
M  V30 1569 H 147.243 -3.10147 -2.85283 0
M  V30 1570 H 145.918 -1.93347 -2.59613 0
M  V30 1571 H 144.825 -3.6068 -0.993025 0
M  V30 1572 H 146.158 -4.74017 -1.32548 0
M  V30 1573 N 147.81 0.181792 -1.56548 0
M  V30 1574 C 148.758 1.24461 -1.965 0
M  V30 1575 C 149.752 1.464 -0.852261 0
M  V30 1576 O 150.958 1.47103 -1.03733 0
M  V30 1577 H 147.333 0.418138 -0.625031 0
M  V30 1578 H 149.304 0.880714 -2.85107 0
M  V30 1579 C 148.053 2.57891 -2.33212 0
M  V30 1580 H 147.376 2.41829 -3.18369 0
M  V30 1581 H 148.816 3.3097 -2.65019 0
M  V30 1582 C 147.275 3.15871 -1.17163 0
M  V30 1583 O 147.805 3.9913 -0.453708 0
M  V30 1584 N 146.011 2.74808 -0.944936 0
M  V30 1585 H 145.558 2.07205 -1.53049 0
M  V30 1586 H 145.516 3.13939 -0.170286 0
M  V30 1587 N 149.288 1.51039 0.449983 0
M  V30 1588 C 150.534 1.64287 1.19923 0
M  V30 1589 C 150.889 0.348701 1.89214 0
M  V30 1590 O 150.182 -0.654751 1.80065 0
M  V30 1591 C 150.376 2.77556 2.25161 0
M  V30 1592 C 150.205 4.17862 1.66198 0
M  V30 1593 C 148.975 4.83976 1.45243 0
M  V30 1594 C 151.173 5.01388 1.14519 0
M  V30 1595 N 149.155 6.08433 0.817437 0
M  V30 1596 C 150.526 6.16743 0.634705 0
M  V30 1597 C 152.581 4.87008 1.03574 0
M  V30 1598 C 151.284 7.19295 0.0255452 0
M  V30 1599 C 153.31 5.89757 0.440489 0
M  V30 1600 C 152.672 7.04375 -0.0595112 0
M  V30 1601 H 148.771 0.655161 0.426952 0
M  V30 1602 H 151.355 1.88228 0.49781 0
M  V30 1603 H 149.526 2.553 2.92706 0
M  V30 1604 H 151.258 2.80049 2.92155 0
M  V30 1605 H 148.013 4.41627 1.71063 0
M  V30 1606 H 148.437 6.75017 0.517747 0
M  V30 1607 H 153.079 3.9866 1.4082 0
M  V30 1608 H 150.797 8.07302 -0.359071 0
M  V30 1609 H 154.383 5.80698 0.35788 0
M  V30 1610 H 153.263 7.82521 -0.512882 0
M  V30 1611 N 150.766 -0.704594 1.40972 0
M  V30 1612 C 151.696 -1.83124 1.44872 0
M  V30 1613 C 152.677 -1.67281 0.30838 0
M  V30 1614 O 153.862 -1.87149 0.518556 0
M  V30 1615 C 150.992 -3.21181 1.32136 0
M  V30 1616 C 149.946 -3.51714 2.43888 0
M  V30 1617 C 149.272 -4.89032 2.16222 0
M  V30 1618 C 150.572 -3.516 3.86232 0
M  V30 1619 H 152.266 -1.80117 2.39161 0
M  V30 1620 H 149.812 -0.865145 1.15114 0
M  V30 1621 H 151.765 -3.99702 1.33479 0
M  V30 1622 H 150.489 -3.24791 0.343279 0
M  V30 1623 H 149.148 -2.75539 2.41813 0
M  V30 1624 H 148.796 -4.89256 1.16778 0
M  V30 1625 H 148.496 -5.10426 2.911 0
M  V30 1626 H 150.02 -5.69873 2.19265 0
M  V30 1627 H 151.434 -4.2014 3.9007 0
M  V30 1628 H 149.831 -3.84523 4.60719 0
M  V30 1629 H 150.901 -2.50757 4.15029 0
M  V30 1630 N 152.244 -1.26651 -0.937939 0
M  V30 1631 C 153.207 -1.08546 -2.01867 0
M  V30 1632 C 154.207 -0.0327327 -1.60767 0
M  V30 1633 O 155.397 -0.276427 -1.71993 0
M  V30 1634 C 152.529 -0.651711 -3.34613 0
M  V30 1635 H 153.722 -2.04502 -2.1936 0
M  V30 1636 H 151.275 -1.09294 -1.11734 0
M  V30 1637 H 152.01 0.309696 -3.22818 0
M  V30 1638 H 151.795 -1.41189 -3.65798 0
M  V30 1639 H 153.285 -0.546973 -4.14002 0
M  V30 1640 N 153.722 1.14298 -1.08507 0
M  V30 1641 C 154.67 2.21483 -0.710483 0
M  V30 1642 C 155.664 1.66998 0.284234 0
M  V30 1643 O 156.87 1.79401 0.146692 0
M  V30 1644 H 153.245 0.721578 -0.211729 0
M  V30 1645 H 155.216 2.50348 -1.62384 0
M  V30 1646 C 153.965 3.4743 -0.137007 0
M  V30 1647 H 153.288 3.89686 -0.893592 0
M  V30 1648 H 154.728 4.2391 0.0872789 0
M  V30 1649 C 153.187 3.17548 1.12538 0
M  V30 1650 O 153.717 3.35437 2.21009 0
M  V30 1651 N 151.923 2.71499 1.03617 0
M  V30 1652 H 151.47 2.57143 0.153403 0
M  V30 1653 H 151.428 2.51881 1.88158 0
M  V30 1654 N 155.201 0.870884 1.31352 0
M  V30 1655 C 156.447 0.482987 1.96965 0
M  V30 1656 C 156.78 -0.962462 1.68672 0
M  V30 1657 O 156.055 -1.6779 0.98371 0
M  V30 1658 C 156.338 0.741752 3.52378 0
M  V30 1659 C 156.191 2.2368 3.9024 0
M  V30 1660 C 157.51 0.208838 4.39604 0
M  V30 1661 H 154.629 0.176955 0.715441 0
M  V30 1662 H 157.271 1.09229 1.55464 0
M  V30 1663 H 155.421 0.223149 3.87859 0
M  V30 1664 H 157.093 2.82273 3.64856 0
M  V30 1665 H 155.336 2.70901 3.38814 0
M  V30 1666 H 156.007 2.3685 4.98604 0
M  V30 1667 H 158.483 0.652529 4.10952 0
M  V30 1668 H 157.359 0.419336 5.47296 0
M  V30 1669 H 157.62 -0.889275 4.33064 0
M  V30 1670 N 156.679 -1.44442 0.630414 0
M  V30 1671 C 157.919 -2.03934 0.137919 0
M  V30 1672 C 158.283 -1.48509 -1.21692 0
M  V30 1673 O 159.484 -1.99499 -1.80149 0
M  V30 1674 C 157.755 -3.57187 0.123373 0
M  V30 1675 S 159.314 -4.37741 -0.304604 0
M  V30 1676 H 156.132 -0.708401 0.0607353 0
M  V30 1677 H 158.734 -1.76835 0.833643 0
M  V30 1678 H 157.438 -3.95032 1.11256 0
M  V30 1679 H 156.969 -3.88895 -0.59362 0
M  V30 1680 H 158.984 -4.71403 -1.54897 0
M  V30 1681 N 158.157 -0.370918 -1.53173 0
M  V30 1682 C 159.104 0.473035 -2.259 0
M  V30 1683 C 160.074 1.07311 -1.26781 0
M  V30 1684 O 161.259 1.1046 -1.55574 0
M  V30 1685 C 158.399 1.60405 -3.05556 0
M  V30 1686 C 157.512 1.02863 -4.19575 0
M  V30 1687 C 156.647 2.12918 -4.86661 0
M  V30 1688 C 155.686 1.52869 -5.92704 0
M  V30 1689 N 154.823 2.56779 -6.53459 0
M  V30 1690 H 159.663 -0.153649 -2.97604 0
M  V30 1691 H 157.2 -0.0875946 -1.46839 0
M  V30 1692 H 159.158 2.27034 -3.50016 0
M  V30 1693 H 157.788 2.20131 -2.36097 0
M  V30 1694 H 156.84 0.252465 -3.79561 0
M  V30 1695 H 158.152 0.549642 -4.95762 0
M  V30 1696 H 157.306 2.87356 -5.34333 0
M  V30 1697 H 156.045 2.6417 -4.09958 0
M  V30 1698 H 155.05 0.769479 -5.44389 0
M  V30 1699 H 156.275 1.02435 -6.7133 0
M  V30 1700 H 154.221 3.07235 -5.79606 0
M  V30 1701 H 154.138 2.13583 -7.25202 0
M  V30 1702 H 155.406 3.30903 -7.05779 0
M  V30 1703 N 159.635 1.57281 -0.100228 0
M  V30 1704 C 160.583 2.15542 0.874328 0
M  V30 1705 C 161.577 1.09962 1.28859 0
M  V30 1706 O 162.783 1.28298 1.26252 0
M  V30 1707 H 159.158 0.689567 0.300003 0
M  V30 1708 H 161.129 2.96241 0.35829 0
M  V30 1709 C 159.878 2.75454 2.1218 0
M  V30 1710 H 159.201 3.56384 1.81193 0
M  V30 1711 H 160.641 3.19781 2.78417 0
M  V30 1712 C 159.1 1.71602 2.89921 0
M  V30 1713 O 159.63 1.15804 3.84646 0
M  V30 1714 N 157.836 1.41975 2.53558 0
M  V30 1715 H 157.383 1.87539 1.76598 0
M  V30 1716 H 157.341 0.727274 3.05873 0
M  V30 1717 N 161.113 -0.173488 1.56642 0
M  V30 1718 C 162.043 -1.2171 1.99271 0
M  V30 1719 C 163.024 -1.46289 0.867959 0
M  V30 1720 O 164.209 -1.5766 1.13388 0
M  V30 1721 C 161.339 -2.55651 2.35074 0
M  V30 1722 C 160.293 -2.45645 3.50489 0
M  V30 1723 C 159.619 -3.84056 3.72028 0
M  V30 1724 C 160.919 -1.96302 4.84007 0
M  V30 1725 H 162.613 -0.86275 2.867 0
M  V30 1726 H 160.159 -0.413571 1.37933 0
M  V30 1727 H 162.112 -3.2886 2.63494 0
M  V30 1728 H 160.836 -2.92869 1.44552 0
M  V30 1729 H 159.495 -1.7489 3.22194 0
M  V30 1730 H 159.143 -4.18664 2.788 0
M  V30 1731 H 158.843 -3.7823 4.49684 0
M  V30 1732 H 160.367 -4.58854 4.02846 0
M  V30 1733 H 161.781 -2.59284 5.11317 0
M  V30 1734 H 160.178 -2.01429 5.65284 0
M  V30 1735 H 161.248 -0.917226 4.76146 0
M  V30 1736 N 162.591 -1.51276 -0.441967 0
M  V30 1737 C 163.838 -1.63715 -1.19179 0
M  V30 1738 C 164.166 -0.351175 -1.91303 0
M  V30 1739 O 163.421 0.664524 -1.84072 0
M  V30 1740 C 163.72 -2.78746 -2.23686 0
M  V30 1741 C 163.386 -4.18189 -1.68607 0
M  V30 1742 C 162.048 -4.56125 -1.53308 0
M  V30 1743 C 164.4 -5.05222 -1.28062 0
M  V30 1744 C 161.728 -5.78804 -0.959317 0
M  V30 1745 C 164.08 -6.28476 -0.721162 0
M  V30 1746 C 162.744 -6.65188 -0.55504 0
M  V30 1747 H 162.014 -0.599076 -0.436106 0
M  V30 1748 H 164.661 -1.85296 -0.48351 0
M  V30 1749 H 162.966 -2.51369 -3.00535 0
M  V30 1750 H 164.663 -2.8557 -2.81515 0
M  V30 1751 H 161.253 -3.88277 -1.8149 0
M  V30 1752 H 165.437 -4.76524 -1.38704 0
M  V30 1753 H 160.693 -6.05899 -0.81833 0
M  V30 1754 H 164.867 -6.95259 -0.398458 0
M  V30 1755 H 162.494 -7.60123 -0.108311 0
M  V30 1756 N 164.069 0.697108 -1.41344 0
M  V30 1757 C 165.016 1.81106 -1.43071 0
M  V30 1758 C 165.986 1.63632 -0.285275 0
M  V30 1759 O 167.171 1.84504 -0.486091 0
M  V30 1760 C 164.311 3.18975 -1.31715 0
M  V30 1761 C 163.424 3.47892 -2.56115 0
M  V30 1762 C 162.559 4.75367 -2.37064 0
M  V30 1763 C 161.598 4.97247 -3.56948 0
M  V30 1764 N 160.735 6.15947 -3.36977 0
M  V30 1765 H 165.575 1.78965 -2.38276 0
M  V30 1766 H 163.112 0.873975 -1.18322 0
M  V30 1767 H 165.07 3.98615 -1.23133 0
M  V30 1768 H 163.7 3.20297 -0.401183 0
M  V30 1769 H 162.752 2.62669 -2.75153 0
M  V30 1770 H 164.064 3.59962 -3.45295 0
M  V30 1771 H 163.218 5.63059 -2.25941 0
M  V30 1772 H 161.957 4.65541 -1.45338 0
M  V30 1773 H 160.962 4.08004 -3.68527 0
M  V30 1774 H 162.187 5.08934 -4.49626 0
M  V30 1775 H 160.133 6.07336 -2.47949 0
M  V30 1776 H 160.05 6.28777 -4.19732 0
M  V30 1777 H 161.318 7.06377 -3.29623 0
M  V30 1778 N 165.547 1.27147 0.931209 0
M  V30 1779 C 166.793 1.13446 1.68101 0
M  V30 1780 C 167.126 -0.319628 1.91552 0
M  V30 1781 O 166.401 -1.23407 1.50336 0
M  V30 1782 C 166.684 1.91482 3.0497 0
M  V30 1783 C 166.537 3.44855 2.88782 0
M  V30 1784 C 167.856 1.71651 4.05246 0
M  V30 1785 H 164.975 0.413498 0.610072 0
M  V30 1786 H 167.617 1.56261 1.08086 0
M  V30 1787 H 165.767 1.55095 3.56199 0
M  V30 1788 H 167.439 3.9105 2.44698 0
M  V30 1789 H 165.682 3.71373 2.24198 0
M  V30 1790 H 166.353 3.94694 3.85902 0
M  V30 1791 H 168.829 2.0337 3.63015 0
M  V30 1792 H 167.705 2.28651 4.99009 0
M  V30 1793 H 167.966 0.663555 4.37092 0
M  V30 1794 N 167.025 -1.13721 1.09112 0
M  V30 1795 C 167.935 -2.22638 0.73957 0
M  V30 1796 C 168.951 -1.72091 -0.257068 0
M  V30 1797 O 170.127 -2.01155 -0.0992154 0
M  V30 1798 C 167.192 -3.46322 0.16191 0
M  V30 1799 C 166.253 -4.11775 1.21408 0
M  V30 1800 C 165.486 -5.29555 0.663891 0
M  V30 1801 O 165.709 -5.68077 -0.514274 0
M  V30 1802 O 164.643 -5.84973 1.41738 0
M  V30 1803 H 168.469 -2.55074 1.64836 0
M  V30 1804 H 166.054 -1.21791 0.865289 0
M  V30 1805 H 167.936 -4.21107 -0.157073 0
M  V30 1806 H 166.611 -3.15593 -0.719932 0
M  V30 1807 H 165.518 -3.3883 1.58571 0
M  V30 1808 H 166.851 -4.46627 2.06845 0
M  V30 1809 N 168.503 -0.877838 -1.30888 0
M  V30 1810 C 169.728 -0.506629 -2.01117 0
M  V30 1811 C 170.153 0.895564 -1.65412 0
M  V30 1812 O 169.511 1.5923 -0.866922 0
M  V30 1813 C 169.559 -0.680223 -3.54126 0
M  V30 1814 O 168.663 0.277033 -4.11468 0
M  V30 1815 H 168.004 -0.200518 -0.633 0
M  V30 1816 H 170.534 -1.18342 -1.66902 0
M  V30 1817 H 170.544 -0.5765 -4.03907 0
M  V30 1818 H 169.219 -1.70261 -3.79452 0
M  V30 1819 H 167.796 0.127606 -3.72682 0
M  V30 1820 N 169.982 1.44106 -0.638065 0
M  V30 1821 C 171.228 2.02277 -0.145546 0
M  V30 1822 C 171.561 1.50125 1.23191 0
M  V30 1823 O 170.836 0.688133 1.8192 0
M  V30 1824 C 171.119 3.59829 -0.139791 0
M  V30 1825 C 170.972 4.22247 -1.55008 0
M  V30 1826 C 172.291 4.36873 0.531966 0
M  V30 1827 H 169.41 0.734992 -0.0543632 0
M  V30 1828 H 172.052 1.71592 -0.815863 0
M  V30 1829 H 170.202 3.86102 0.431007 0
M  V30 1830 H 171.874 4.07057 -2.1703 0
M  V30 1831 H 170.117 3.79476 -2.10191 0
M  V30 1832 H 170.788 5.31284 -1.49804 0
M  V30 1833 H 173.264 4.16074 0.0464781 0
M  V30 1834 H 172.14 5.4657 0.505206 0
M  V30 1835 H 172.401 4.11995 1.60352 0
M  V30 1836 N 171.46 0.379036 1.52974 0
M  V30 1837 C 172.408 -0.476033 2.27677 0
M  V30 1838 C 173.402 -1.0719 1.31174 0
M  V30 1839 O 174.608 -1.01355 1.48752 0
M  V30 1840 H 170.983 -0.172255 0.732006 0
M  V30 1841 H 172.954 0.175615 2.97883 0
M  V30 1842 C 171.703 -1.5967 3.0887 0
M  V30 1843 H 171.026 -1.1475 3.82978 0
M  V30 1844 H 172.466 -2.16943 3.64296 0
M  V30 1845 C 170.925 -2.54682 2.20542 0
M  V30 1846 O 171.455 -3.57836 1.82527 0
M  V30 1847 N 169.661 -2.24183 1.84907 0
M  V30 1848 H 169.208 -1.40333 2.1602 0
M  V30 1849 H 169.166 -2.88006 1.26096 0
M  V30 1850 N 172.938 -1.57226 0.108567 0
M  V30 1851 C 174.178 -1.96717 -0.555155 0
M  V30 1852 C 174.542 -0.990003 -1.64508 0
M  V30 1853 O 175.743 -1.2739 -2.36696 0
M  V30 1854 C 174.014 -3.40575 -1.08367 0
M  V30 1855 S 175.573 -4.02072 -1.75737 0
M  V30 1856 H 172.391 -0.687638 -0.180762 0
M  V30 1857 H 174.993 -1.94563 0.191172 0
M  V30 1858 H 173.697 -4.0945 -0.279092 0
M  V30 1859 H 173.228 -3.46356 -1.86551 0
M  V30 1860 H 175.243 -3.91977 -3.04251 0
M  V30 1861 N 174.416 0.165178 -1.56732 0
M  V30 1862 C 175.665 0.879143 -1.81532 0
M  V30 1863 C 175.978 1.83144 -0.686842 0
M  V30 1864 O 177.184 2.58823 -0.819944 0
M  V30 1865 C 175.64 1.61388 -3.21686 0
M  V30 1866 C 175.248 0.704904 -4.4242 0
M  V30 1867 C 176.992 2.3157 -3.55774 0
M  V30 1868 C 174.899 1.44022 -5.73595 0
M  V30 1869 H 173.829 0.332033 -0.676957 0
M  V30 1870 H 176.48 0.132008 -1.83025 0
M  V30 1871 H 174.862 2.40599 -3.14529 0
M  V30 1872 H 176.036 -0.0506815 -4.60772 0
M  V30 1873 H 174.351 0.112419 -4.16248 0
M  V30 1874 H 176.948 2.8719 -4.51028 0
M  V30 1875 H 177.291 3.07201 -2.8095 0
M  V30 1876 H 177.824 1.59297 -3.64513 0
M  V30 1877 H 174.563 0.72612 -6.51466 0
M  V30 1878 H 174.083 2.16898 -5.5921 0
M  V30 1879 H 175.762 1.98606 -6.15764 0
M  V30 1880 N 175.894 1.51508 0.433938 0
M  V30 1881 C 177.134 1.66006 1.19253 0
M  V30 1882 C 177.498 0.369868 1.88404 0
M  V30 1883 O 178.699 0.39066 2.65946 0
M  V30 1884 C 176.97 2.83229 2.17981 0
M  V30 1885 S 178.529 3.18075 3.02281 0
M  V30 1886 H 175.347 0.584821 0.404358 0
M  V30 1887 H 177.949 1.89425 0.48357 0
M  V30 1888 H 176.653 3.75407 1.65824 0
M  V30 1889 H 176.184 2.6201 2.93453 0
M  V30 1890 H 178.199 2.64772 4.19655 0
M  V30 1891 N 177.372 -0.689602 1.41712 0
M  V30 1892 C 178.618 -1.45181 1.41599 0
M  V30 1893 C 178.951 -1.94181 0.0270081 0
M  V30 1894 O 178.226 -1.6993 -0.946265 0
M  V30 1895 C 178.509 -2.65945 2.42787 0
M  V30 1896 C 178.362 -2.22672 3.90816 0
M  V30 1897 C 179.681 -3.68149 2.41151 0
M  V30 1898 H 176.8 -0.526576 0.515642 0
M  V30 1899 H 179.442 -0.784947 1.73028 0
M  V30 1900 H 177.592 -3.2284 2.16116 0
M  V30 1901 H 179.264 -1.71058 4.28412 0
M  V30 1902 H 177.507 -1.54394 4.05395 0
M  V30 1903 H 178.178 -3.0935 4.57172 0
M  V30 1904 H 180.654 -3.2094 2.64834 0
M  V30 1905 H 179.53 -4.50248 3.13955 0
M  V30 1906 H 179.791 -4.18259 1.43221 0
M  V30 1907 N 178.85 -1.27639 -0.924453 0
M  V30 1908 C 180.127 -1.04887 -1.651 0
M  V30 1909 C 180.507 0.415327 -2.06974 0
M  V30 1910 O 179.855 1.39923 -1.80648 0
M  V30 1911 C 180.065 -2.01348 -2.85061 0
M  V30 1912 C 181.413 -2.30899 -3.56329 0
M  V30 1913 O 182.437 -1.99348 -2.95193 0
M  V30 1914 O 181.296 -2.84699 -4.66485 0
M  V30 1915 H 178.39 -0.400083 -0.723784 0
M  V30 1916 H 180.936 -1.38916 -0.974703 0
M  V30 1917 H 179.708 -3.0008 -2.51133 0
M  V30 1918 H 179.331 -1.679 -3.6041 0
M  V30 1919 N 180.328 1.1314 -1.09713 0
M  V30 1920 C 181.574 1.84967 -0.846104 0
M  V30 1921 C 181.929 1.82082 0.621601 0
M  V30 1922 O 181.222 1.2501 1.452 0
M  V30 1923 C 181.416 3.32167 -1.3191 0
M  V30 1924 C 181.245 3.49386 -2.83125 0
M  V30 1925 C 180.015 3.63456 -3.51038 0
M  V30 1926 C 182.213 3.45179 -3.81256 0
M  V30 1927 N 180.195 3.68966 -4.9065 0
M  V30 1928 C 181.566 3.57094 -5.06837 0
M  V30 1929 C 183.621 3.28598 -3.74069 0
M  V30 1930 C 182.324 3.5414 -6.26081 0
M  V30 1931 C 184.35 3.26953 -4.92804 0
M  V30 1932 C 183.712 3.39422 -6.17229 0
M  V30 1933 H 179.811 0.692899 -0.362512 0
M  V30 1934 H 182.395 1.35506 -1.39808 0
M  V30 1935 H 180.566 3.80186 -0.794535 0
M  V30 1936 H 182.298 3.91815 -1.01308 0
M  V30 1937 H 179.053 3.65256 -3.01471 0
M  V30 1938 H 179.477 3.75404 -5.63383 0
M  V30 1939 H 184.119 3.17858 -2.78794 0
M  V30 1940 H 181.837 3.63653 -7.21653 0
M  V30 1941 H 185.423 3.15316 -4.88945 0
M  V30 1942 H 184.303 3.38114 -7.07565 0
M  V30 1943 N 181.806 0.884767 1.30421 0
M  V30 1944 C 182.753 0.349642 2.28136 0
M  V30 1945 C 183.723 -0.560061 1.56373 0
M  V30 1946 O 184.908 -0.488524 1.8444 0
M  V30 1947 C 182.048 -0.42999 3.42411 0
M  V30 1948 C 181.161 0.508907 4.28992 0
M  V30 1949 C 180.296 -0.286301 5.30428 0
M  V30 1950 C 179.335 0.648079 6.08659 0
M  V30 1951 N 178.472 -0.111792 7.02011 0
M  V30 1952 H 183.312 1.18807 2.73293 0
M  V30 1953 H 180.849 0.597231 1.3443 0
M  V30 1954 H 182.807 -0.897923 4.07423 0
M  V30 1955 H 181.437 -1.23299 2.98324 0
M  V30 1956 H 180.489 1.09533 3.64289 0
M  V30 1957 H 181.801 1.22475 4.8353 0
M  V30 1958 H 180.955 -0.816098 6.01186 0
M  V30 1959 H 179.694 -1.03536 4.76583 0
M  V30 1960 H 178.699 1.18951 5.36778 0
M  V30 1961 H 179.924 1.39623 6.64592 0
M  V30 1962 H 177.87 -0.843395 6.50556 0
M  V30 1963 H 177.787 0.544429 7.54037 0
M  V30 1964 H 179.055 -0.622339 7.77012 0
M  V30 1965 N 183.284 -1.43765 0.645699 0
M  V30 1966 C 184.532 -2.01499 0.155731 0
M  V30 1967 C 184.853 -1.51151 -1.232 0
M  V30 1968 O 184.123 -0.721044 -1.82148 0
M  V30 1969 H 182.703 -0.745003 0.0545817 0
M  V30 1970 H 185.365 -1.76075 0.835677 0
M  V30 1971 H 184.461 -3.1181 0.134577 0
M  V30 1972 N 184.763 -0.387143 -1.52771 0
M  V30 1973 C 186.011 0.195349 -2.01154 0
M  V30 1974 C 186.332 1.475 -1.27549 0
M  V30 1975 O 185.602 1.91878 -0.394924 0
M  V30 1976 H 184.182 0.075178 -0.743207 0
M  V30 1977 H 186.844 -0.518337 -1.87881 0
M  V30 1978 H 185.94 0.407096 -3.09434 0
M  V30 1979 N 186.241 1.57166 -0.116904 0
M  V30 1980 C 187.466 1.999 0.55271 0
M  V30 1981 C 187.891 0.996039 1.59564 0
M  V30 1982 O 187.249 -0.032556 1.81271 0
M  V30 1983 C 187.297 3.4152 1.15742 0
M  V30 1984 O 186.401 3.44106 2.27299 0
M  V30 1985 H 185.742 0.649447 0.138258 0
M  V30 1986 H 188.272 2.03573 -0.204759 0
M  V30 1987 H 188.282 3.79684 1.49346 0
M  V30 1988 H 186.957 4.14034 0.393493 0
M  V30 1989 H 185.534 3.17759 1.9515 0
M  V30 1990 N 187.719 -0.156864 1.56817 0
M  V30 1991 C 189.135 -0.50916 1.5126 0
M  V30 1992 C 189.335 -1.83897 0.823658 0
M  V30 1993 O 188.391 -2.49469 0.390055 0
M  V30 1994 C 189.704 -0.52857 2.96018 0
M  V30 1995 C 191.252 -0.614771 3.06903 0
M  V30 1996 C 191.727 -0.664938 4.53147 0
M  V30 1997 N 193.218 -0.727433 4.57452 0
M  V30 1998 C 193.953 -0.787067 5.67973 0
M  V30 1999 N 193.449 -0.806649 6.88088 0
M  V30 2000 N 195.242 -0.827195 5.5598 0
M  V30 2001 H 187.393 0.714935 2.00006 0
M  V30 2002 H 189.656 0.259526 0.911784 0
M  V30 2003 H 189.362 0.380154 3.49639 0
M  V30 2004 H 189.236 -1.36998 3.51442 0
M  V30 2005 H 191.623 -1.51392 2.53307 0
M  V30 2006 H 191.704 0.253597 2.5454 0
M  V30 2007 H 191.348 0.230011 5.07379 0
M  V30 2008 H 191.278 -1.54966 5.03282 0
M  V30 2009 H 193.769 -0.719998 3.70978 0
M  V30 2010 H 194.082 -0.853727 7.6807 0
M  V30 2011 H 192.427 -0.774687 6.90669 0
M  V30 2012 H 195.618 -0.808998 4.61056 0
M  V30 2013 H 195.791 -0.870206 6.4213 0
M  V30 2014 N 189.197 -1.51736 -0.425897 0
M  V30 2015 C 190.425 -1.68794 -1.1965 0
M  V30 2016 C 190.84 -0.390164 -1.84725 0
M  V30 2017 O 190.197 0.632376 -1.71194 0
M  V30 2018 C 190.248 -2.81174 -2.27208 0
M  V30 2019 O 189.969 -4.05925 -1.64793 0
M  V30 2020 C 191.47 -3.09599 -3.17275 0
M  V30 2021 H 188.69 -0.566128 -0.360194 0
M  V30 2022 H 191.234 -1.98211 -0.503249 0
M  V30 2023 H 189.389 -2.54324 -2.9223 0
M  V30 2024 H 189.803 -4.68423 -2.35967 0
M  V30 2025 H 191.277 -3.91786 -3.88854 0
M  V30 2026 H 191.754 -2.22468 -3.78688 0
M  V30 2027 H 192.36 -3.38151 -2.57941 0
M  V30 2028 N 190.675 0.682077 -1.42076 0
M  V30 2029 C 191.923 1.4393 -1.41876 0
M  V30 2030 C 192.244 1.94971 -0.0335599 0
M  V30 2031 O 191.514 1.72591 0.926773 0
M  V30 2032 H 190.094 0.534085 -0.522267 0
M  V30 2033 H 192.756 0.806427 -1.77434 0
M  V30 2034 H 191.852 2.29588 -2.11414 0
M  V30 2035 N 192.153 1.28127 0.917671 0
M  V30 2036 C 193.383 1.17722 1.6978 0
M  V30 2037 C 193.791 -0.267261 1.87303 0
M  V30 2038 O 193.134 -1.19286 1.39702 0
M  V30 2039 C 193.196 1.79958 3.11216 0
M  V30 2040 C 192.86 3.29187 3.16993 0
M  V30 2041 C 193.857 4.25679 2.98485 0
M  V30 2042 C 191.542 3.70075 3.39632 0
M  V30 2043 C 193.536 5.61035 3.02521 0
M  V30 2044 C 191.223 5.05557 3.433 0
M  V30 2045 C 192.221 6.00847 3.24764 0
M  V30 2046 O 191.909 7.33859 3.28187 0
M  V30 2047 H 191.641 0.409788 0.537634 0
M  V30 2048 H 194.195 1.69694 1.15728 0
M  V30 2049 H 192.425 1.22475 3.66793 0
M  V30 2050 H 194.114 1.64125 3.71238 0
M  V30 2051 H 194.88 3.95426 2.80826 0
M  V30 2052 H 190.759 2.96373 3.53106 0
M  V30 2053 H 194.303 6.35388 2.87971 0
M  V30 2054 H 190.2 5.35462 3.60486 0
M  V30 2055 H 190.968 7.42436 3.44575 0
M  V30 2056 N 193.631 -1.12557 1.10312 0
M  V30 2057 C 194.859 -1.87864 0.866873 0
M  V30 2058 C 195.274 -1.79588 -0.582557 0
M  V30 2059 O 194.631 -1.16887 -1.40156 0
M  V30 2060 C 194.682 -3.37125 1.30496 0
M  V30 2061 O 194.403 -3.45201 2.69755 0
M  V30 2062 C 195.904 -4.29373 1.10243 0
M  V30 2063 H 193.124 -0.594452 0.311236 0
M  V30 2064 H 195.668 -1.42429 1.46745 0
M  V30 2065 H 193.823 -3.80109 0.748081 0
M  V30 2066 H 194.237 -4.38056 2.88457 0
M  V30 2067 H 195.711 -5.32394 1.45811 0
M  V30 2068 H 196.188 -4.39181 0.0409492 0
M  V30 2069 H 196.794 -3.92169 1.64571 0
M  V30 2070 N 195.109 -0.891671 -1.2995 0
M  V30 2071 C 196.041 -0.320695 -2.26945 0
M  V30 2072 C 197.054 0.528497 -1.53983 0
M  V30 2073 O 198.243 0.346959 -1.75096 0
M  V30 2074 C 195.343 0.562066 -3.34207 0
M  V30 2075 C 194.516 -0.259576 -4.36629 0
M  V30 2076 C 193.575 0.554739 -5.23268 0
M  V30 2077 O 192.601 -0.0249311 -5.69195 0
M  V30 2078 N 193.803 1.8625 -5.4981 0
M  V30 2079 H 196.568 -1.15432 -2.76578 0
M  V30 2080 H 194.129 -0.755336 -1.432 0
M  V30 2081 H 196.121 1.11304 -3.89093 0
M  V30 2082 H 194.691 1.29637 -2.84452 0
M  V30 2083 H 193.911 -0.991986 -3.81514 0
M  V30 2084 H 195.199 -0.822564 -5.02107 0
M  V30 2085 H 194.597 2.35628 -5.14292 0
M  V30 2086 H 193.154 2.36078 -6.07545 0
M  V30 2087 N 196.587 1.43421 -0.653314 0
M  V30 2088 C 197.55 2.29182 0.0287951 0
M  V30 2089 C 198.55 1.42213 0.750465 0
M  V30 2090 O 199.74 1.63843 0.591701 0
M  V30 2091 C 196.872 3.24278 1.05151 0
M  V30 2092 H 198.065 2.90985 -0.725786 0
M  V30 2093 H 195.618 1.50702 -0.414545 0
M  V30 2094 H 196.353 2.6737 1.83532 0
M  V30 2095 H 196.138 3.88396 0.537687 0
M  V30 2096 H 197.628 3.88647 1.52786 0
M  V30 2097 N 198.065 0.39524 1.52563 0
M  V30 2098 C 199.29 -0.187456 2.06551 0
M  V30 2099 C 199.715 -1.39249 1.26457 0
M  V30 2100 O 199.073 -1.78947 0.291151 0
M  V30 2101 C 199.121 -0.529985 3.56684 0
M  V30 2102 O 198.225 -1.62307 3.79118 0
M  V30 2103 H 197.566 -0.0202537 0.663691 0
M  V30 2104 H 200.096 0.564426 1.96661 0
M  V30 2105 H 200.106 -0.792598 4.00227 0
M  V30 2106 H 198.781 0.350987 4.14416 0
M  V30 2107 H 197.358 -1.3537 3.47461 0
M  V30 2108 N 199.544 -1.57102 0.125237 0
M  V30 2109 C 200.476 -2.12726 -0.853237 0
M  V30 2110 C 201.489 -1.07145 -1.22571 0
M  V30 2111 O 202.678 -1.34497 -1.17358 0
M  V30 2112 C 199.778 -2.61709 -2.15317 0
M  V30 2113 C 198.951 -3.91456 -1.95143 0
M  V30 2114 C 198.01 -4.25973 -3.08923 0
M  V30 2115 O 197.036 -4.94682 -2.81564 0
M  V30 2116 N 198.238 -3.83795 -4.35524 0
M  V30 2117 H 201.003 -2.97307 -0.377964 0
M  V30 2118 H 198.564 -1.61792 -0.0590011 0
M  V30 2119 H 200.556 -2.81826 -2.90441 0
M  V30 2120 H 199.126 -1.81974 -2.54174 0
M  V30 2121 H 198.346 -3.80185 -1.04177 0
M  V30 2122 H 199.634 -4.76283 -1.78976 0
M  V30 2123 H 199.032 -3.2839 -4.60626 0
M  V30 2124 H 197.589 -4.09008 -5.07499 0
M  V30 2125 N 201.022 0.148545 -1.56898 0
M  V30 2126 C 201.97 1.20265 -1.99096 0
M  V30 2127 C 202.964 1.44559 -0.883123 0
M  V30 2128 O 204.17 1.4487 -1.0683 0
M  V30 2129 H 200.545 0.404786 -0.63376 0
M  V30 2130 H 202.516 0.82004 -2.86911 0
M  V30 2131 C 201.265 2.52886 -2.3863 0
M  V30 2132 H 200.588 2.35021 -3.23427 0
M  V30 2133 H 202.028 3.25274 -2.7198 0
M  V30 2134 C 200.487 3.13315 -1.23837 0
M  V30 2135 O 201.017 3.98077 -0.538268 0
M  V30 2136 N 199.223 2.72742 -1.00301 0
M  V30 2137 H 198.77 2.03912 -1.5741 0
M  V30 2138 H 198.728 3.13507 -0.236838 0
M  V30 2139 N 202.5 1.5196 0.417844 0
M  V30 2140 C 203.749 1.6482 1.16264 0
M  V30 2141 C 204.062 0.379886 1.91876 0
M  V30 2142 O 205.268 0.388154 2.68711 0
M  V30 2143 C 203.724 2.91161 2.1155 0
M  V30 2144 C 203.332 4.25068 1.41495 0
M  V30 2145 C 205.076 3.13383 2.86341 0
M  V30 2146 C 202.983 5.42541 2.35379 0
M  V30 2147 H 201.913 0.613954 0.437694 0
M  V30 2148 H 204.564 1.78442 0.427871 0
M  V30 2149 H 202.946 2.71218 2.88543 0
M  V30 2150 H 204.12 4.55463 0.699263 0
M  V30 2151 H 202.435 4.0888 0.787792 0
M  V30 2152 H 205.032 3.98324 3.5671 0
M  V30 2153 H 205.375 2.27256 3.48798 0
M  V30 2154 H 205.908 3.33757 2.1645 0
M  V30 2155 H 202.647 6.30987 1.77582 0
M  V30 2156 H 202.167 5.16497 3.04945 0
M  V30 2157 H 203.846 5.75272 2.96093 0
M  V30 2158 N 203.978 -0.674533 1.42435 0
M  V30 2159 C 205.394 -0.98769 1.25367 0
M  V30 2160 C 205.594 -2.00879 0.158044 0
M  V30 2161 O 204.65 -2.48075 -0.470633 0
M  V30 2162 C 205.963 -1.49224 2.6106 0
M  V30 2163 C 207.511 -1.61 2.68417 0
M  V30 2164 C 207.986 -2.14852 4.04478 0
M  V30 2165 N 209.477 -2.22185 4.06434 0
M  V30 2166 C 210.212 -2.64928 5.08528 0
M  V30 2167 N 209.708 -3.07121 6.21006 0
M  V30 2168 N 211.501 -2.64679 4.95885 0
M  V30 2169 H 203.652 0.00152503 2.124 0
M  V30 2170 H 205.915 -0.0618434 0.945981 0
M  V30 2171 H 205.621 -0.816453 3.42092 0
M  V30 2172 H 205.495 -2.47094 2.84999 0
M  V30 2173 H 207.882 -2.27686 1.87732 0
M  V30 2174 H 207.963 -0.616195 2.48267 0
M  V30 2175 H 207.607 -1.48775 4.85622 0
M  V30 2176 H 207.537 -3.15024 4.2198 0
M  V30 2177 H 210.028 -1.92435 3.25234 0
M  V30 2178 H 210.341 -3.38423 6.94759 0
M  V30 2179 H 208.686 -3.04978 6.24511 0
M  V30 2180 H 211.877 -2.31078 4.07088 0
M  V30 2181 H 212.05 -2.9767 5.75584 0
M  V30 2182 N 205.456 -1.28612 -0.910864 0
M  V30 2183 C 206.705 -1.15311 -1.65488 0
M  V30 2184 C 207.018 0.296999 -1.93332 0
M  V30 2185 O 208.224 0.551168 -2.65847 0
M  V30 2186 C 206.68 -2.01599 -2.98137 0
M  V30 2187 C 206.288 -3.51367 -2.7793 0
M  V30 2188 C 208.032 -1.96993 -3.76024 0
M  V30 2189 C 205.939 -4.29797 -4.06237 0
M  V30 2190 H 204.869 -0.42796 -0.620779 0
M  V30 2191 H 207.52 -1.53166 -1.01057 0
M  V30 2192 H 205.902 -1.56603 -3.63719 0
M  V30 2193 H 207.076 -4.0434 -2.21011 0
M  V30 2194 H 205.391 -3.57529 -2.13452 0
M  V30 2195 H 207.988 -2.52856 -4.71135 0
M  V30 2196 H 208.331 -0.94733 -4.05378 0
M  V30 2197 H 208.864 -2.39973 -3.17266 0
M  V30 2198 H 205.603 -5.32648 -3.82055 0
M  V30 2199 H 205.123 -3.81596 -4.62757 0
M  V30 2200 H 206.802 -4.39869 -4.74473 0
M  V30 2201 N 206.934 1.1197 -1.10907 0
M  V30 2202 C 208.18 1.8386 -0.855773 0
M  V30 2203 C 208.513 1.84134 0.617103 0
M  V30 2204 O 207.788 1.29041 1.45529 0
M  V30 2205 C 208.071 3.31305 -1.411 0
M  V30 2206 C 207.924 3.39456 -2.9511 0
M  V30 2207 C 209.243 4.2721 -1.05736 0
M  V30 2208 H 206.362 0.667545 -0.312334 0
M  V30 2209 H 209.004 1.31331 -1.37303 0
M  V30 2210 H 207.154 3.76169 -0.97105 0
M  V30 2211 H 208.826 3.03191 -3.47668 0
M  V30 2212 H 207.069 2.79849 -3.31462 0
M  V30 2213 H 207.74 4.43209 -3.29044 0
M  V30 2214 H 210.216 3.90497 -1.43706 0
M  V30 2215 H 209.092 5.28775 -1.47269 0
M  V30 2216 H 209.353 4.42088 0.0325958 0
M  V30 2217 N 208.412 0.89855 1.29475 0
M  V30 2218 C 209.66 0.522847 1.9522 0
M  V30 2219 C 209.981 -0.93371 1.71192 0
M  V30 2220 O 209.251 -1.65823 1.04305 0
M  V30 2221 H 207.831 0.190366 0.722336 0
M  V30 2222 H 210.493 1.14459 1.5775 0
M  V30 2223 H 209.589 0.704476 3.04045 0
M  V30 2224 N 209.89 -1.43072 0.660911 0
M  V30 2225 C 210.853 -2.29194 -0.0166406 0
M  V30 2226 C 211.853 -1.42609 -0.742912 0
M  V30 2227 O 213.043 -1.64155 -0.583004 0
M  V30 2228 C 210.175 -3.24831 -1.0343 0
M  V30 2229 H 211.368 -2.90596 0.741208 0
M  V30 2230 H 208.921 -1.5048 0.422532 0
M  V30 2231 H 209.656 -2.68339 -1.82111 0
M  V30 2232 H 209.441 -3.88676 -0.517082 0
M  V30 2233 H 210.931 -3.89451 -1.50723 0
M  V30 2234 N 211.368 -0.403325 -1.52352 0
M  V30 2235 C 212.278 0.432009 -2.30588 0
M  V30 2236 C 213.294 1.05884 -1.38075 0
M  V30 2237 O 214.47 1.06161 -1.71148 0
M  V30 2238 C 211.535 1.53669 -3.10784 0
M  V30 2239 C 210.596 0.933525 -4.19027 0
M  V30 2240 C 209.829 1.98557 -4.9539 0
M  V30 2241 O 210.052 3.20283 -4.71991 0
M  V30 2242 O 208.986 1.59504 -5.80381 0
M  V30 2243 H 212.812 -0.205739 -3.03002 0
M  V30 2244 H 210.397 -0.166675 -1.48467 0
M  V30 2245 H 212.279 2.17814 -3.60742 0
M  V30 2246 H 210.954 2.15915 -2.41169 0
M  V30 2247 H 209.861 0.254954 -3.7323 0
M  V30 2248 H 211.194 0.35508 -4.90918 0
M  V30 2249 N 212.846 1.57033 -0.133567 0
M  V30 2250 C 214.092 1.95976 0.521649 0
M  V30 2251 C 214.425 1.01779 1.65393 0
M  V30 2252 O 213.7 0.0576581 1.94415 0
M  V30 2253 C 213.983 3.44738 1.04057 0
M  V30 2254 C 213.836 4.49711 -0.0892897 0
M  V30 2255 C 215.155 3.95682 1.92675 0
M  V30 2256 H 212.274 0.712579 0.188149 0
M  V30 2257 H 214.916 1.88813 -0.212076 0
M  V30 2258 H 213.066 3.50973 1.66583 0
M  V30 2259 H 214.738 4.55565 -0.725152 0
M  V30 2260 H 212.981 4.27261 -0.750378 0
M  V30 2261 H 213.652 5.51099 0.315284 0
M  V30 2262 H 216.128 3.91841 1.39998 0
M  V30 2263 H 215.004 5.00262 2.25897 0
M  V30 2264 H 215.265 3.37239 2.85872 0
M  V30 2265 N 214.325 -0.140222 1.56975 0
M  V30 2266 C 215.288 -1.15689 1.97861 0
M  V30 2267 C 216.288 -1.3549 0.865974 0
M  V30 2268 O 217.478 -1.32367 1.13246 0
M  V30 2269 C 214.61 -2.51582 2.30042 0
M  V30 2270 H 215.803 -0.805971 2.88867 0
M  V30 2271 H 213.356 -0.383801 1.51515 0
M  V30 2272 H 214.091 -2.91632 1.41849 0
M  V30 2273 H 213.876 -2.38569 3.11171 0
M  V30 2274 H 215.366 -3.24792 2.62488 0
M  V30 2275 N 215.803 -1.52179 -0.40978 0
M  V30 2276 C 217.033 -1.69807 -1.17682 0
M  V30 2277 C 217.441 -0.406908 -1.84773 0
M  V30 2278 O 216.784 0.626863 -1.72673 0
M  V30 2279 C 216.846 -2.77712 -2.2829 0
M  V30 2280 C 216.51 -4.19481 -1.81341 0
M  V30 2281 C 217.507 -5.03345 -1.30154 0
M  V30 2282 C 215.192 -4.65713 -1.88194 0
M  V30 2283 C 217.186 -6.31511 -0.864416 0
M  V30 2284 C 214.873 -5.93869 -1.44093 0
M  V30 2285 C 215.871 -6.76597 -0.933023 0
M  V30 2286 O 215.559 -8.02354 -0.49838 0
M  V30 2287 H 215.291 -0.572372 -0.359675 0
M  V30 2288 H 217.845 -1.99511 -0.488311 0
M  V30 2289 H 216.075 -2.43383 -3.00502 0
M  V30 2290 H 217.764 -2.83946 -2.90051 0
M  V30 2291 H 218.53 -4.68819 -1.24232 0
M  V30 2292 H 214.409 -4.01424 -2.26671 0
M  V30 2293 H 217.953 -6.96033 -0.467286 0
M  V30 2294 H 213.85 -6.27903 -1.49694 0
M  V30 2295 H 214.618 -8.16135 -0.621747 0
M  V30 2296 N 217.281 0.66697 -1.42791 0
M  V30 2297 C 218.528 1.42699 -1.43678 0
M  V30 2298 C 218.856 1.94419 -0.0560425 0
M  V30 2299 O 218.111 1.7182 0.936831 0
M  V30 2300 C 218.41 2.6349 -2.4147 0
M  V30 2301 C 218.076 2.30267 -3.8767 0
M  V30 2302 C 216.738 2.20918 -4.27491 0
M  V30 2303 C 219.09 2.03435 -4.79858 0
M  V30 2304 C 216.418 1.82873 -5.57471 0
M  V30 2305 C 218.77 1.66892 -6.10188 0
M  V30 2306 C 217.434 1.56058 -6.49001 0
M  V30 2307 H 216.704 0.522171 -0.525755 0
M  V30 2308 H 219.351 0.759785 -1.75783 0
M  V30 2309 H 217.656 3.35279 -2.0272 0
M  V30 2310 H 219.353 3.21684 -2.39417 0
M  V30 2311 H 215.943 2.38449 -3.56146 0
M  V30 2312 H 220.127 2.09586 -4.49875 0
M  V30 2313 H 215.383 1.7306 -5.86396 0
M  V30 2314 H 219.557 1.45157 -6.81104 0
M  V30 2315 H 217.184 1.26348 -7.49627 0
M  V30 2316 N 218.759 1.29093 0.90403 0
M  V30 2317 C 220.005 1.16986 1.65656 0
M  V30 2318 C 220.338 -0.278925 1.92186 0
M  V30 2319 O 219.613 -1.2019 1.5292 0
M  V30 2320 C 219.896 1.97908 3.0084 0
M  V30 2321 C 219.749 3.50903 2.81403 0
M  V30 2322 C 221.068 1.80208 4.01513 0
M  V30 2323 H 218.187 0.426346 0.601164 0
M  V30 2324 H 220.829 1.58518 1.04747 0
M  V30 2325 H 218.979 1.62616 3.52829 0
M  V30 2326 H 220.651 3.96153 2.36348 0
M  V30 2327 H 218.894 3.76045 2.1627 0
M  V30 2328 H 219.565 4.02791 3.77443 0
M  V30 2329 H 222.041 2.11025 3.58619 0
M  V30 2330 H 220.917 2.39184 4.94047 0
M  V30 2331 H 221.178 0.756119 4.35586 0
M  V30 2332 N 220.237 -1.11381 1.11499 0
M  V30 2333 C 221.147 -2.21019 0.786628 0
M  V30 2334 C 222.163 -1.72597 -0.220507 0
M  V30 2335 O 223.339 -2.01321 -0.0565251 0
M  V30 2336 C 220.404 -3.459 0.235333 0
M  V30 2337 C 219.465 -4.09107 1.30115 0
M  V30 2338 C 218.698 -5.28027 0.776068 0
M  V30 2339 O 218.921 -5.6904 -0.393661 0
M  V30 2340 O 217.855 -5.81835 1.54114 0
M  V30 2341 H 221.681 -2.51521 1.70209 0
M  V30 2342 H 219.266 -1.19928 0.890928 0
M  V30 2343 H 221.148 -4.21346 -0.067715 0
M  V30 2344 H 219.823 -3.17049 -0.652828 0
M  V30 2345 H 218.73 -3.35391 1.65722 0
M  V30 2346 H 220.063 -4.42139 2.16273 0
M  V30 2347 N 221.715 -0.905404 -1.28997 0
M  V30 2348 C 222.962 -0.534248 -1.95325 0
M  V30 2349 C 223.29 0.920535 -1.71337 0
M  V30 2350 O 222.545 1.66861 -1.02254 0
M  V30 2351 C 222.844 -0.779906 -3.48787 0
M  V30 2352 C 222.51 -2.21293 -3.92861 0
M  V30 2353 C 221.172 -2.60475 -4.04606 0
M  V30 2354 C 223.524 -3.14587 -4.15553 0
M  V30 2355 C 220.852 -3.9212 -4.36416 0
M  V30 2356 C 223.204 -4.45787 -4.48839 0
M  V30 2357 C 221.868 -4.84834 -4.58794 0
M  V30 2358 H 221.138 -0.195495 -0.714747 0
M  V30 2359 H 223.785 -1.14514 -1.53488 0
M  V30 2360 H 222.09 -0.0861365 -3.91705 0
M  V30 2361 H 223.787 -0.472029 -3.98212 0
M  V30 2362 H 220.377 -1.89887 -3.84241 0
M  V30 2363 H 224.561 -2.85528 -4.0594 0
M  V30 2364 H 219.817 -4.22086 -4.42327 0
M  V30 2365 H 223.991 -5.18098 -4.65346 0
M  V30 2366 H 221.618 -5.86877 -4.83197 0
M  V30 2367 N 223.193 1.4272 -0.668489 0
M  V30 2368 C 224.123 2.335 -0.000100175 0
M  V30 2369 C 225.104 1.50328 0.795964 0
M  V30 2370 O 226.289 1.78949 0.754385 0
M  V30 2371 C 223.419 3.33874 0.956302 0
M  V30 2372 C 222.373 4.27152 0.269278 0
M  V30 2373 C 221.699 5.17684 1.33818 0
M  V30 2374 C 222.999 5.15373 -0.847805 0
M  V30 2375 H 224.693 2.89639 -0.758244 0
M  V30 2376 H 222.239 1.39269 -0.366079 0
M  V30 2377 H 224.192 3.9629 1.43292 0
M  V30 2378 H 222.916 2.76025 1.74579 0
M  V30 2379 H 221.575 3.66123 -0.187042 0
M  V30 2380 H 221.223 4.56165 2.1195 0
M  V30 2381 H 220.923 5.80918 0.883659 0
M  V30 2382 H 222.447 5.82974 1.81586 0
M  V30 2383 H 223.861 5.7151 -0.452681 0
M  V30 2384 H 222.258 5.87407 -1.22773 0
M  V30 2385 H 223.328 4.5415 -1.69929 0
M  V30 2386 N 224.671 0.411399 1.52136 0
M  V30 2387 C 225.603 -0.448386 2.24771 0
M  V30 2388 C 226.616 -1.00828 1.27818 0
M  V30 2389 O 227.805 -0.906841 1.53749 0
M  V30 2390 C 224.905 -1.63636 2.96777 0
M  V30 2391 C 224.078 -1.19995 4.20618 0
M  V30 2392 C 223.137 -2.25509 4.75428 0
M  V30 2393 O 222.163 -1.86007 5.3795 0
M  V30 2394 N 223.365 -3.577 4.57199 0
M  V30 2395 H 226.13 0.174025 2.99194 0
M  V30 2396 H 223.691 0.238897 1.60128 0
M  V30 2397 H 225.683 -2.33793 3.30338 0
M  V30 2398 H 224.253 -2.16465 2.25526 0
M  V30 2399 H 223.473 -0.326421 3.92846 0
M  V30 2400 H 224.761 -0.885365 5.01038 0
M  V30 2401 H 224.159 -3.92543 4.07341 0
M  V30 2402 H 222.716 -4.23827 4.95191 0
M  V30 2403 N 226.149 -1.5696 0.141893 0
M  V30 2404 C 227.374 -2.00754 -0.520838 0
M  V30 2405 C 227.799 -1.0213 -1.57959 0
M  V30 2406 O 227.157 0.00371324 -1.813 0
M  V30 2407 C 227.205 -3.43318 -1.10294 0
M  V30 2408 O 226.309 -3.47679 -2.21795 0
M  V30 2409 H 225.65 -0.651564 -0.127908 0
M  V30 2410 H 228.18 -2.03221 0.23712 0
M  V30 2411 H 228.19 -3.82012 -1.43287 0
M  V30 2412 H 226.865 -4.14608 -0.327574 0
M  V30 2413 H 225.442 -3.20824 -1.9007 0
M  V30 2414 N 227.627 0.131896 -1.57047 0
M  V30 2415 C 228.59 1.14638 -1.98471 0
M  V30 2416 C 229.59 1.35029 -0.873148 0
M  V30 2417 O 230.78 1.31764 -1.13946 0
M  V30 2418 C 227.912 2.50358 -2.31373 0
M  V30 2419 H 229.105 0.79064 -2.8929 0
M  V30 2420 H 226.658 0.375761 -1.51716 0
M  V30 2421 H 227.393 2.90876 -1.43393 0
M  V30 2422 H 227.178 2.36915 -3.12432 0
M  V30 2423 H 228.668 3.23395 -2.64207 0
M  V30 2424 N 229.106 1.52395 0.401703 0
M  V30 2425 C 230.353 1.66817 1.14796 0
M  V30 2426 C 230.681 0.401772 1.90305 0
M  V30 2427 O 229.936 -0.615487 1.85769 0
M  V30 2428 C 230.235 2.84578 2.16217 0
M  V30 2429 C 229.901 4.22513 1.5746 0
M  V30 2430 C 228.563 4.60029 1.41161 0
M  V30 2431 C 230.915 5.0844 1.14622 0
M  V30 2432 C 228.243 5.81144 0.80552 0
M  V30 2433 C 230.595 6.30167 0.55428 0
M  V30 2434 C 229.259 6.66426 0.378482 0
M  V30 2435 H 228.529 0.610428 0.420069 0
M  V30 2436 H 231.176 1.86512 0.434212 0
M  V30 2437 H 229.481 2.59248 2.93764 0
M  V30 2438 H 231.178 2.92933 2.73845 0
M  V30 2439 H 227.768 3.92953 1.71132 0
M  V30 2440 H 231.952 4.80034 1.26021 0
M  V30 2441 H 227.208 6.07855 0.657399 0
M  V30 2442 H 231.382 6.96071 0.213983 0
M  V30 2443 H 229.009 7.60143 -0.0932606 0
M  V30 2444 N 230.584 -0.659388 1.43143 0
M  V30 2445 C 231.832 -1.41654 1.44147 0
M  V30 2446 C 232.153 -1.94893 0.0645739 0
M  V30 2447 O 231.423 -1.74044 -0.899198 0
M  V30 2448 H 230.003 -0.525708 0.530697 0
M  V30 2449 H 232.665 -0.778097 1.78694 0
M  V30 2450 H 231.761 -2.26195 2.1504 0
M  V30 2451 N 232.062 -1.29571 -0.897171 0
M  V30 2452 C 233.292 -1.20408 -1.67886 0
M  V30 2453 C 233.7 0.237429 -1.87704 0
M  V30 2454 O 233.043 1.17048 -1.41582 0
M  V30 2455 C 233.105 -1.84887 -3.08314 0
M  V30 2456 C 232.769 -3.34189 -3.11716 0
M  V30 2457 C 233.766 -4.30374 -2.91675 0
M  V30 2458 C 231.451 -3.75431 -3.33701 0
M  V30 2459 C 233.445 -5.65776 -2.93557 0
M  V30 2460 C 231.132 -5.10955 -3.35214 0
M  V30 2461 C 232.13 -6.05938 -3.15164 0
M  V30 2462 O 231.818 -7.38987 -3.1647 0
M  V30 2463 H 231.55 -0.418289 -0.531046 0
M  V30 2464 H 234.104 -1.71514 -1.13014 0
M  V30 2465 H 232.334 -1.28295 -3.64798 0
M  V30 2466 H 234.023 -1.70011 -3.6858 0
M  V30 2467 H 234.789 -3.99844 -2.74499 0
M  V30 2468 H 230.668 -3.01953 -3.48347 0
M  V30 2469 H 234.212 -6.39889 -2.77826 0
M  V30 2470 H 230.109 -5.4113 -3.51922 0
M  V30 2471 H 230.877 -7.47823 -3.3272 0
M  V30 2472 N 233.54 1.10788 -1.12088 0
M  V30 2473 C 234.765 1.87002 -0.896949 0
M  V30 2474 C 235.19 1.79933 0.548261 0
M  V30 2475 O 234.548 1.16662 1.38779 0
M  V30 2476 C 234.596 3.3349 -1.37174 0
M  V30 2477 O 233.7 4.08745 -0.547831 0
M  V30 2478 H 233.041 0.580397 -0.322545 0
M  V30 2479 H 235.571 1.39996 -1.49206 0
M  V30 2480 H 235.581 3.84339 -1.36922 0
M  V30 2481 H 234.256 3.37951 -2.42408 0
M  V30 2482 H 232.833 3.6776 -0.617034 0
M  V30 2483 N 235.018 0.912232 1.28515 0
M  V30 2484 C 236.429 0.591352 1.77087 0
M  V30 2485 C 236.78 -0.8933 1.74684 0
M  V30 2486 O 235.905 -1.69876 1.34056 0
M  V30 2487 C 236.5 1.06668 3.2157 0
M  V30 2488 C 235.059 0.79675 3.67871 0
M  V30 2489 C 234.206 1.23427 2.48316 0
M  V30 2490 H 237.157 1.09365 1.15 0
M  V30 2491 H 237.178 0.407455 3.78312 0
M  V30 2492 H 236.69 2.14726 3.23287 0
M  V30 2493 H 234.791 -0.270679 3.71616 0
M  V30 2494 H 234.904 1.40343 4.58084 0
M  V30 2495 H 233.268 0.653036 2.46186 0
M  V30 2496 H 234.051 2.32316 2.52753 0
M  V30 2497 N 236.496 -1.42363 0.676048 0
M  V30 2498 C 237.721 -2.06377 0.205705 0
M  V30 2499 C 238.146 -1.50463 -1.12883 0
M  V30 2500 O 237.504 -0.623619 -1.70237 0
M  V30 2501 C 237.552 -3.60277 0.152655 0
M  V30 2502 O 236.656 -4.02935 -0.87845 0
M  V30 2503 H 235.997 -0.655588 0.105359 0
M  V30 2504 H 238.527 -1.82475 0.925412 0
M  V30 2505 H 238.537 -4.07993 -0.0230675 0
M  V30 2506 H 237.212 -4.00346 1.12675 0
M  V30 2507 H 235.789 -3.66764 -0.673668 0
M  V30 2508 N 237.974 -0.419461 -1.51915 0
M  V30 2509 C 238.922 0.415502 -2.28859 0
M  V30 2510 C 239.916 1.03674 -1.3397 0
M  V30 2511 O 241.122 0.973757 -1.51387 0
M  V30 2512 H 237.497 0.152786 -0.736315 0
M  V30 2513 H 239.468 -0.254531 -2.97312 0
M  V30 2514 C 238.217 1.51425 -3.12995 0
M  V30 2515 H 237.54 1.04556 -3.85886 0
M  V30 2516 H 238.98 2.07208 -3.6992 0
M  V30 2517 C 237.439 2.48745 -2.27217 0
M  V30 2518 O 237.969 3.52871 -1.9195 0
M  V30 2519 N 236.175 2.19202 -1.90785 0
M  V30 2520 H 235.722 1.34556 -2.19664 0
M  V30 2521 H 235.68 2.84561 -1.33687 0
M  V30 2522 N 239.452 1.56882 -0.150215 0
M  V30 2523 C 240.698 1.96518 0.500834 0
M  V30 2524 C 241.031 1.03527 1.64304 0
M  V30 2525 O 240.306 0.0782751 1.94342 0
M  V30 2526 C 240.589 3.45822 1.00395 0
M  V30 2527 C 240.442 4.49591 -0.136983 0
M  V30 2528 C 241.761 3.97704 1.88467 0
M  V30 2529 H 238.88 0.714535 0.18058 0
M  V30 2530 H 241.522 1.88577 -0.232091 0
M  V30 2531 H 239.672 3.5272 1.62851 0
M  V30 2532 H 241.344 4.5477 -0.77343 0
M  V30 2533 H 239.587 4.26441 -0.795652 0
M  V30 2534 H 240.258 5.51402 0.256815 0
M  V30 2535 H 242.734 3.93304 1.35834 0
M  V30 2536 H 241.61 5.0263 2.20578 0
M  V30 2537 H 241.871 3.40252 2.82279 0
M  V30 2538 N 240.93 -0.123565 1.57115 0
M  V30 2539 C 241.88 -1.1575 1.96433 0
M  V30 2540 C 242.864 -1.37313 0.838686 0
M  V30 2541 O 244.056 -1.38482 1.10235 0
M  V30 2542 C 241.185 -2.48526 2.36833 0
M  V30 2543 C 240.271 -2.30457 3.5602 0
M  V30 2544 N 240.662 -1.8219 4.71848 0
M  V30 2545 C 238.96 -2.61129 3.61563 0
M  V30 2546 C 239.661 -1.77721 5.53886 0
M  V30 2547 N 238.637 -2.21899 4.96248 0
M  V30 2548 H 242.439 -0.776797 2.83449 0
M  V30 2549 H 239.953 -0.331364 1.58983 0
M  V30 2550 H 241.95 -3.233 2.63216 0
M  V30 2551 H 240.61 -2.87358 1.5118 0
M  V30 2552 H 241.621 -1.51805 4.95152 0
M  V30 2553 H 238.298 -3.03678 2.86507 0
M  V30 2554 H 239.688 -1.41697 6.56789 0
M  V30 2555 N 242.408 -1.52605 -0.393616 0
M  V30 2556 C 243.654 -1.67672 -1.14079 0
M  V30 2557 C 243.987 -0.413121 -1.89755 0
M  V30 2558 O 243.262 0.588952 -1.85369 0
M  V30 2559 C 243.545 -2.9088 -2.12276 0
M  V30 2560 C 243.398 -4.27329 -1.40394 0
M  V30 2561 C 244.717 -3.09628 -3.12759 0
M  V30 2562 H 241.836 -0.610168 -0.413356 0
M  V30 2563 H 244.478 -1.85193 -0.424696 0
M  V30 2564 H 242.628 -2.76073 -2.73342 0
M  V30 2565 H 244.3 -4.53894 -0.82327 0
M  V30 2566 H 242.543 -4.2802 -0.705801 0
M  V30 2567 H 243.214 -5.09615 -2.12123 0
M  V30 2568 H 245.69 -3.23436 -2.61779 0
M  V30 2569 H 244.566 -3.97322 -3.78717 0
M  V30 2570 H 244.827 -2.23637 -3.81365 0
M  V30 2571 N 243.887 0.651787 -1.4349 0
M  V30 2572 C 245.136 1.40754 -1.44469 0
M  V30 2573 C 245.449 1.95463 -0.0731845 0
M  V30 2574 O 246.655 2.71471 0.0395721 0
M  V30 2575 C 245.111 2.54735 -2.5424 0
M  V30 2576 C 244.719 2.06628 -3.97504 0
M  V30 2577 C 246.463 3.32092 -2.64414 0
M  V30 2578 C 244.37 3.17829 -4.98737 0
M  V30 2579 H 243.3 0.528862 -0.53742 0
M  V30 2580 H 245.951 0.703365 -1.69485 0
M  V30 2581 H 244.333 3.2763 -2.22428 0
M  V30 2582 H 245.507 1.40734 -4.38783 0
M  V30 2583 H 243.822 1.42146 -3.91387 0
M  V30 2584 H 246.419 4.14952 -3.37223 0
M  V30 2585 H 246.762 3.80217 -1.69532 0
M  V30 2586 H 247.295 2.66279 -2.95534 0
M  V30 2587 H 244.034 2.74671 -5.95177 0
M  V30 2588 H 243.554 3.82429 -4.62069 0
M  V30 2589 H 245.233 3.82937 -5.21505 0
M  V30 2590 N 245.365 1.30045 0.890287 0
M  V30 2591 C 246.613 1.18327 1.63839 0
M  V30 2592 C 246.934 -0.263455 1.93212 0
M  V30 2593 O 246.204 -1.17856 1.56482 0
M  V30 2594 H 244.784 0.434933 0.607324 0
M  V30 2595 H 247.446 1.631 1.06698 0
M  V30 2596 H 246.542 1.74024 2.59079 0
M  V30 2597 N 246.843 -1.10192 1.12674 0
M  V30 2598 C 247.793 -2.14754 0.765801 0
M  V30 2599 C 248.777 -1.59154 -0.236409 0
M  V30 2600 O 249.969 -1.76951 -0.0415261 0
M  V30 2601 C 247.098 -3.42563 0.224827 0
M  V30 2602 C 246.184 -4.05091 1.25548 0
M  V30 2603 N 246.575 -4.42287 2.4539 0
M  V30 2604 C 244.873 -4.32186 1.10142 0
M  V30 2605 C 245.574 -4.91441 3.11224 0
M  V30 2606 N 244.55 -4.88405 2.38666 0
M  V30 2607 H 248.352 -2.41309 1.67772 0
M  V30 2608 H 245.866 -1.27339 1.00789 0
M  V30 2609 H 247.863 -4.16868 -0.0519578 0
M  V30 2610 H 246.523 -3.17467 -0.681515 0
M  V30 2611 H 247.534 -4.33902 2.82754 0
M  V30 2612 H 244.211 -4.16735 0.252587 0
M  V30 2613 H 245.601 -5.29749 4.13298 0
M  V30 2614 N 248.321 -0.919034 -1.28029 0
M  V30 2615 C 249.546 -0.570357 -1.99403 0
M  V30 2616 C 249.971 0.842486 -1.68178 0
M  V30 2617 O 249.329 1.56391 -0.917141 0
M  V30 2618 C 249.377 -0.792541 -3.51783 0
M  V30 2619 O 248.481 0.145988 -4.12142 0
M  V30 2620 H 247.822 -0.220555 -0.6263 0
M  V30 2621 H 250.352 -1.23592 -1.63053 0
M  V30 2622 H 250.362 -0.704708 -4.01868 0
M  V30 2623 H 249.037 -1.82247 -3.73844 0
M  V30 2624 H 247.614 0.00897528 -3.72899 0
M  V30 2625 N 249.799 1.42003 -0.683588 0
M  V30 2626 C 250.729 2.33487 -0.024866 0
M  V30 2627 C 251.71 1.51163 0.779975 0
M  V30 2628 O 252.895 1.79739 0.735362 0
M  V30 2629 C 250.025 3.3487 0.920836 0
M  V30 2630 C 248.979 4.27414 0.223958 0
M  V30 2631 C 248.305 5.19074 1.2832 0
M  V30 2632 C 249.605 5.14445 -0.90242 0
M  V30 2633 H 251.299 2.88819 -0.788921 0
M  V30 2634 H 248.845 1.38873 -0.38083 0
M  V30 2635 H 250.798 3.97787 1.39081 0
M  V30 2636 H 249.522 2.77861 1.71642 0
M  V30 2637 H 248.181 3.65904 -0.225864 0
M  V30 2638 H 247.829 4.58387 2.071 0
M  V30 2639 H 247.529 5.81822 0.821995 0
M  V30 2640 H 249.053 5.84867 1.75392 0
M  V30 2641 H 250.467 5.70998 -0.513272 0
M  V30 2642 H 248.864 5.86072 -1.28997 0
M  V30 2643 H 249.934 4.52322 -1.74737 0
M  V30 2644 N 251.277 0.427512 1.51691 0
M  V30 2645 C 252.525 -0.141948 2.01601 0
M  V30 2646 C 252.846 -1.44067 1.31414 0
M  V30 2647 O 252.116 -1.90763 0.445658 0
M  V30 2648 H 250.696 -0.0554468 0.744939 0
M  V30 2649 H 253.358 0.567968 1.86441 0
M  V30 2650 H 252.454 -0.324913 3.10404 0
M  V30 2651 N 252.755 -1.56801 0.158532 0
M  V30 2652 C 253.718 -2.16138 -0.762705 0
M  V30 2653 C 254.718 -1.1061 -1.16713 0
M  V30 2654 O 255.908 -1.36191 -1.08617 0
M  V30 2655 C 253.04 -2.73386 -2.03649 0
M  V30 2656 H 254.233 -2.98886 -0.246354 0
M  V30 2657 H 251.786 -1.56035 -0.0909744 0
M  V30 2658 H 252.521 -1.94335 -2.59623 0
M  V30 2659 H 252.306 -3.50601 -1.75559 0
M  V30 2660 H 253.796 -3.19065 -2.6942 0
M  V30 2661 N 254.233 0.115231 -1.57178 0
M  V30 2662 C 255.183 1.14707 -1.97044 0
M  V30 2663 C 256.167 1.36866 -0.845957 0
M  V30 2664 O 257.359 1.37895 -1.10968 0
M  V30 2665 C 254.488 2.47266 -2.38148 0
M  V30 2666 C 253.574 2.28566 -3.57237 0
M  V30 2667 N 253.965 1.79685 -4.72807 0
M  V30 2668 C 252.263 2.59208 -3.62943 0
M  V30 2669 C 252.964 1.74781 -5.54821 0
M  V30 2670 N 251.94 2.19264 -4.97417 0
M  V30 2671 H 255.742 0.761754 -2.83857 0
M  V30 2672 H 253.256 0.322928 -1.59157 0
M  V30 2673 H 255.253 3.219 -2.64927 0
M  V30 2674 H 253.913 2.86552 -1.52702 0
M  V30 2675 H 254.924 1.49177 -4.9595 0
M  V30 2676 H 251.601 3.02154 -2.88113 0
M  V30 2677 H 252.991 1.38212 -6.57531 0
M  V30 2678 N 255.711 1.52812 0.385517 0
M  V30 2679 C 256.674 1.77188 1.45386 0
M  V30 2680 C 257.674 0.641953 1.4743 0
M  V30 2681 O 258.864 0.910033 1.4854 0
M  V30 2682 C 255.996 1.87582 2.8465 0
M  V30 2683 H 257.189 2.72583 1.25054 0
M  V30 2684 H 254.742 1.43586 0.617467 0
M  V30 2685 H 255.477 0.941849 3.10322 0
M  V30 2686 H 255.262 2.69748 2.84567 0
M  V30 2687 H 256.752 2.08102 3.62054 0
M  V30 2688 N 257.189 -0.644168 1.43834 0
M  V30 2689 C 258.152 -1.73857 1.49353 0
M  V30 2690 C 259.152 -1.56315 0.377112 0
M  V30 2691 O 260.342 -1.62048 0.639226 0
M  V30 2692 C 257.474 -3.12819 1.35488 0
M  V30 2693 H 258.667 -1.70342 2.46827 0
M  V30 2694 H 256.22 -0.856652 1.30733 0
M  V30 2695 H 256.955 -3.2194 0.390569 0
M  V30 2696 H 256.74 -3.26958 2.16428 0
M  V30 2697 H 258.23 -3.92606 1.42302 0
M  V30 2698 N 258.668 -1.30515 -0.883378 0
M  V30 2699 C 259.916 -1.19194 -1.63209 0
M  V30 2700 C 260.237 0.253205 -1.93349 0
M  V30 2701 O 259.507 1.17025 -1.57105 0
M  V30 2702 H 258.087 -0.438148 -0.605009 0
M  V30 2703 H 260.749 -1.63663 -1.05832 0
M  V30 2704 H 259.845 -1.75396 -2.58153 0
M  V30 2705 N 260.146 1.09593 -1.13257 0
M  V30 2706 C 261.056 2.19739 -0.821691 0
M  V30 2707 C 262.072 1.72926 0.19302 0
M  V30 2708 O 263.248 2.01385 0.0244895 0
M  V30 2709 C 260.313 3.45482 -0.290333 0
M  V30 2710 C 259.374 4.06985 -1.36607 0
M  V30 2711 C 258.607 5.26726 -0.859975 0
M  V30 2712 O 258.83 5.69594 0.303082 0
M  V30 2713 O 257.764 5.7931 -1.63351 0
M  V30 2714 H 261.59 2.48781 -1.74189 0
M  V30 2715 H 259.175 1.18496 -0.909894 0
M  V30 2716 H 261.057 4.214 0.000674022 0
M  V30 2717 H 259.732 3.18047 0.602306 0
M  V30 2718 H 258.639 3.32712 -1.71037 0
M  V30 2719 H 259.972 4.38643 -2.23279 0
M  V30 2720 N 261.624 0.925811 1.2754 0
M  V30 2721 C 262.587 0.428129 2.25166 0
M  V30 2722 C 263.587 -0.452261 1.54309 0
M  V30 2723 O 264.777 -0.253608 1.72344 0
M  V30 2724 C 261.909 -0.384749 3.38722 0
M  V30 2725 H 263.102 1.29066 2.70706 0
M  V30 2726 H 260.655 0.706323 1.3943 0
M  V30 2727 H 261.39 -1.26618 2.98561 0
M  V30 2728 H 261.175 0.246454 3.91325 0
M  V30 2729 H 262.665 -0.723389 4.11287 0
M  V30 2730 N 263.102 -1.41638 0.69111 0
M  V30 2731 C 264.35 -2.00902 0.219758 0
M  V30 2732 C 264.671 -1.54994 -1.18329 0
M  V30 2733 O 263.941 -0.778628 -1.79762 0
M  V30 2734 H 262.521 -0.74289 0.0782558 0
M  V30 2735 H 265.183 -1.73327 0.891271 0
M  V30 2736 H 264.279 -3.11224 0.233708 0
M  V30 2737 N 264.58 -0.43555 -1.51462 0
M  V30 2738 C 265.996 -0.0877501 -1.59359 0
M  V30 2739 C 266.196 1.4027 -1.4466 0
M  V30 2740 O 265.252 2.17243 -1.28693 0
M  V30 2741 C 266.565 -0.606264 -2.94525 0
M  V30 2742 C 268.113 -0.566548 -3.0783 0
M  V30 2743 C 268.588 -1.06201 -4.45517 0
M  V30 2744 N 270.079 -1.01992 -4.51832 0
M  V30 2745 C 270.814 -1.37417 -5.5669 0
M  V30 2746 N 270.31 -1.80119 -6.68976 0
M  V30 2747 N 272.103 -1.29245 -5.47039 0
M  V30 2748 H 264.254 -1.40533 -1.59261 0
M  V30 2749 H 266.517 -0.578992 -0.750648 0
M  V30 2750 H 266.223 -1.64901 -3.10645 0
M  V30 2751 H 266.097 -0.0302097 -3.77188 0
M  V30 2752 H 268.484 0.467208 -2.91378 0
M  V30 2753 H 268.565 -1.17898 -2.2701 0
M  V30 2754 H 268.209 -2.09422 -4.62715 0
M  V30 2755 H 268.139 -0.426127 -5.24873 0
M  V30 2756 H 270.63 -0.706308 -3.71241 0
M  V30 2757 H 270.943 -2.05392 -7.45006 0
M  V30 2758 H 269.288 -1.84044 -6.70189 0
M  V30 2759 H 272.479 -0.957522 -4.58202 0
M  V30 2760 H 272.652 -1.57182 -6.28648 0
M  V30 2761 N 266.058 1.56714 -0.166846 0
M  V30 2762 C 267.474 1.58473 0.189372 0
M  V30 2763 C 267.674 1.18201 1.63189 0
M  V30 2764 O 266.73 0.891528 2.36237 0
M  V30 2765 C 268.043 3.00573 -0.0873872 0
M  V30 2766 C 269.591 3.1299 -0.0252443 0
M  V30 2767 C 270.066 4.57174 -0.274934 0
M  V30 2768 N 271.557 4.62665 -0.222553 0
M  V30 2769 C 272.292 5.72072 -0.389985 0
M  V30 2770 N 271.788 6.90054 -0.616229 0
M  V30 2771 N 273.581 5.61153 -0.326202 0
M  V30 2772 H 265.732 1.8118 -1.10849 0
M  V30 2773 H 267.995 0.839525 -0.440342 0
M  V30 2774 H 267.701 3.34497 -1.0865 0
M  V30 2775 H 267.575 3.72019 0.623037 0
M  V30 2776 H 269.962 2.78895 0.96444 0
M  V30 2777 H 270.043 2.43989 -0.768309 0
M  V30 2778 H 269.687 4.91976 -1.26181 0
M  V30 2779 H 269.617 5.24328 0.48869 0
M  V30 2780 H 272.108 3.77863 -0.0531512 0
M  V30 2781 H 272.421 7.69311 -0.733559 0
M  V30 2782 H 270.766 6.91927 -0.652791 0
M  V30 2783 H 273.957 4.67859 -0.150072 0
M  V30 2784 H 274.13 6.46364 -0.460116 0
M  V30 2785 N 267.536 -0.106894 1.57237 0
M  V30 2786 C 268.764 -0.826389 1.8968 0
M  V30 2787 C 269.179 -1.72856 0.759353 0
M  V30 2788 O 268.536 -1.80503 -0.269263 0
M  V30 2789 C 268.587 -1.64967 3.21665 0
M  V30 2790 O 268.308 -0.783804 4.31031 0
M  V30 2791 C 269.809 -2.47326 3.67892 0
M  V30 2792 H 267.029 -0.236927 0.627779 0
M  V30 2793 H 269.573 -0.0876593 2.04312 0
M  V30 2794 H 267.728 -2.34103 3.08666 0
M  V30 2795 H 268.142 -1.35284 5.06753 0
M  V30 2796 H 269.616 -3.00604 4.6297 0
M  V30 2797 H 270.093 -3.25247 2.95146 0
M  V30 2798 H 270.699 -1.83411 3.83719 0
M  V30 2799 N 269.014 -1.53014 -0.377408 0
M  V30 2800 C 269.962 -1.7927 -1.48206 0
M  V30 2801 C 270.956 -0.661195 -1.55963 0
M  V30 2802 O 272.162 -0.843908 -1.58991 0
M  V30 2803 H 268.537 -0.567425 -0.493491 0
M  V30 2804 H 270.508 -2.71753 -1.2326 0
M  V30 2805 C 269.257 -1.98894 -2.85196 0
M  V30 2806 H 268.58 -2.85395 -2.79981 0
M  V30 2807 H 270.02 -2.21249 -3.61698 0
M  V30 2808 C 268.479 -0.764691 -3.28107 0
M  V30 2809 O 269.009 0.0523226 -4.01666 0
M  V30 2810 N 267.215 -0.591493 -2.84517 0
M  V30 2811 H 266.762 -1.25749 -2.24822 0
M  V30 2812 H 266.72 0.226253 -3.13585 0
M  V30 2813 N 270.492 0.636531 -1.44174 0
M  V30 2814 C 271.74 1.39343 -1.46383 0
M  V30 2815 C 272.061 1.94766 -0.0955715 0
M  V30 2816 O 271.331 1.75452 0.871395 0
M  V30 2817 H 269.911 0.517199 -0.538994 0
M  V30 2818 H 272.573 0.74957 -1.7991 0
M  V30 2819 H 271.669 2.22746 -2.18611 0
M  V30 2820 N 271.97 1.30982 0.876444 0
M  V30 2821 C 273.198 1.23242 1.6619 0
M  V30 2822 C 273.613 -0.203345 1.87702 0
M  V30 2823 O 272.97 -1.13317 1.43057 0
M  V30 2824 C 273.021 1.96623 3.03351 0
M  V30 2825 O 272.742 3.34594 2.82804 0
M  V30 2826 C 274.243 1.95644 3.97792 0
M  V30 2827 H 271.463 0.426126 0.518322 0
M  V30 2828 H 274.007 1.7275 1.09442 0
M  V30 2829 H 272.162 1.50892 3.56806 0
M  V30 2830 H 272.576 3.71873 3.69879 0
M  V30 2831 H 274.05 2.51511 4.91372 0
M  V30 2832 H 274.527 0.937395 4.2908 0
M  V30 2833 H 275.133 2.41225 3.50272 0
M  V30 2834 N 273.449 -1.08991 1.13837 0
M  V30 2835 C 274.698 -1.80631 0.897509 0
M  V30 2836 C 275.011 -1.86872 -0.57777 0
M  V30 2837 O 276.217 -2.54866 -0.935701 0
M  V30 2838 C 274.673 -3.24517 1.55618 0
M  V30 2839 C 274.281 -3.26529 3.0673 0
M  V30 2840 C 276.025 -4.00882 1.3962 0
M  V30 2841 C 273.932 -4.64965 3.65461 0
M  V30 2842 H 272.862 -0.67691 0.332129 0
M  V30 2843 H 275.513 -1.2246 1.3666 0
M  V30 2844 H 273.895 -3.82778 1.01476 0
M  V30 2845 H 275.069 -2.78008 3.67489 0
M  V30 2846 H 273.384 -2.63656 3.22296 0
M  V30 2847 H 275.981 -5.03167 1.80906 0
M  V30 2848 H 276.324 -4.14896 0.341578 0
M  V30 2849 H 276.857 -3.49075 1.90766 0
M  V30 2850 H 273.596 -4.56153 4.70749 0
M  V30 2851 H 273.116 -5.13792 3.09481 0
M  V30 2852 H 274.795 -5.3394 3.654 0
M  V30 2853 N 274.927 -0.932562 -1.27047 0
M  V30 2854 C 276.175 -0.574422 -1.93765 0
M  V30 2855 C 276.496 0.887993 -1.73608 0
M  V30 2856 O 275.766 1.62999 -1.08665 0
M  V30 2857 H 274.346 -0.209451 -0.717035 0
M  V30 2858 H 277.008 -1.18601 -1.5466 0
M  V30 2859 H 276.104 -0.784841 -3.02071 0
M  V30 2860 N 276.405 1.4127 -0.698611 0
M  V30 2861 C 277.821 1.55241 -0.370462 0
M  V30 2862 C 278.021 1.67351 1.12231 0
M  V30 2863 O 277.077 1.65363 1.90818 0
M  V30 2864 C 278.39 2.78997 -1.12165 0
M  V30 2865 C 279.938 2.92797 -1.1063 0
M  V30 2866 C 280.413 4.19445 -1.8393 0
M  V30 2867 N 281.904 4.26409 -1.80914 0
M  V30 2868 C 282.639 5.23271 -2.34467 0
M  V30 2869 N 282.135 6.26145 -2.96504 0
M  V30 2870 N 283.928 5.15232 -2.24706 0
M  V30 2871 H 276.079 1.31654 -1.66676 0
M  V30 2872 H 278.342 0.635393 -0.703548 0
M  V30 2873 H 278.048 2.76268 -2.17644 0
M  V30 2874 H 277.922 3.70606 -0.702209 0
M  V30 2875 H 280.309 2.95039 -0.0597713 0
M  V30 2876 H 280.39 2.02353 -1.56483 0
M  V30 2877 H 280.034 4.17964 -2.88563 0
M  V30 2878 H 279.964 5.08866 -1.35509 0
M  V30 2879 H 282.455 3.527 -1.35687 0
M  V30 2880 H 282.768 6.96451 -3.34927 0
M  V30 2881 H 281.113 6.26638 -3.00583 0
M  V30 2882 H 284.304 4.33789 -1.7591 0
M  V30 2883 H 284.477 5.90552 -2.66745 0
M  V30 2884 N 277.883 0.443576 1.51229 0
M  V30 2885 C 279.132 -0.122332 2.01329 0
M  V30 2886 C 279.445 -1.43237 1.33201 0
M  V30 2887 O 280.651 -2.0816 1.74304 0
M  V30 2888 C 279.107 -0.268551 3.58897 0
M  V30 2889 C 278.715 1.03142 4.35965 0
M  V30 2890 C 280.459 -0.787894 4.17124 0
M  V30 2891 C 278.366 0.850504 5.85252 0
M  V30 2892 H 277.296 -0.0494929 0.752374 0
M  V30 2893 H 279.947 0.574289 1.74282 0
M  V30 2894 H 278.329 -1.02832 3.82415 0
M  V30 2895 H 279.503 1.80001 4.24189 0
M  V30 2896 H 277.818 1.47977 3.89219 0
M  V30 2897 H 280.415 -0.939841 5.26375 0
M  V30 2898 H 280.758 -1.77201 3.76703 0
M  V30 2899 H 281.291 -0.0862669 3.97706 0
M  V30 2900 H 278.03 1.80718 6.30096 0
M  V30 2901 H 277.55 0.121825 5.99676 0
M  V30 2902 H 279.229 0.506163 6.45017 0
M  V30 2903 N 279.361 -1.56624 0.175154 0
M  V30 2904 C 280.589 -2.01374 -0.474971 0
M  V30 2905 C 281.004 -1.05537 -1.56548 0
M  V30 2906 O 280.361 -0.0568668 -1.82411 0
M  V30 2907 C 280.412 -3.45923 -1.04975 0
M  V30 2908 O 280.133 -4.381 -0.00276605 0
M  V30 2909 C 281.634 -4.06093 -1.77773 0
M  V30 2910 H 278.854 -0.659962 -0.121206 0
M  V30 2911 H 281.398 -2.02601 0.27801 0
M  V30 2912 H 279.553 -3.45458 -1.75321 0
M  V30 2913 H 279.967 -5.22753 -0.427681 0
M  V30 2914 H 281.441 -5.09147 -2.13245 0
M  V30 2915 H 281.918 -3.48405 -2.67414 0
M  V30 2916 H 282.524 -4.10272 -1.12059 0
M  V30 2917 N 280.839 0.0985539 -1.57292 0
M  V30 2918 C 282.087 0.801092 -1.85545 0
M  V30 2919 C 282.408 1.79438 -0.763353 0
M  V30 2920 O 281.678 1.94763 0.21073 0
M  V30 2921 H 280.258 0.29884 -0.684619 0
M  V30 2922 H 282.92 0.0810064 -1.94732 0
M  V30 2923 H 282.016 1.3338 -2.82163 0
M  V30 2924 N 282.317 1.53212 0.369288 0
M  V30 2925 C 283.247 1.82365 1.45826 0
M  V30 2926 C 284.228 0.676907 1.56051 0
M  V30 2927 O 285.413 0.926401 1.70679 0
M  V30 2928 C 282.543 2.01023 2.83208 0
M  V30 2929 C 281.497 3.1678 2.8781 0
M  V30 2930 C 280.823 3.20724 4.27832 0
M  V30 2931 C 282.123 4.55447 2.55667 0
M  V30 2932 H 283.817 2.73559 1.21678 0
M  V30 2933 H 281.363 1.3163 0.583911 0
M  V30 2934 H 283.316 2.20001 3.59413 0
M  V30 2935 H 282.04 1.06536 3.08736 0
M  V30 2936 H 280.699 2.97616 2.14056 0
M  V30 2937 H 280.347 2.23882 4.50429 0
M  V30 2938 H 280.047 3.98496 4.31827 0
M  V30 2939 H 281.571 3.41881 5.05915 0
M  V30 2940 H 282.985 4.74611 3.21586 0
M  V30 2941 H 281.382 5.35432 2.70984 0
M  V30 2942 H 282.452 4.60812 1.5093 0
M  V30 2943 N 283.795 -0.628877 1.44509 0
M  V30 2944 C 285.072 -1.38733 1.37886 0
M  V30 2945 C 285.452 -2.11065 0.0387008 0
M  V30 2946 O 284.8 -2.06476 -0.97878 0
M  V30 2947 C 285.01 -2.35188 2.57852 0
M  V30 2948 C 286.358 -2.9845 3.02014 0
M  V30 2949 O 287.382 -2.45513 2.58073 0
M  V30 2950 O 286.241 -3.94487 3.78209 0
M  V30 2951 H 283.335 -0.621015 0.54614 0
M  V30 2952 H 285.881 -0.653744 1.56602 0
M  V30 2953 H 284.653 -1.80855 3.46998 0
M  V30 2954 H 284.276 -3.1596 2.4136 0
M  V30 2955 N 285.273 -1.31445 -0.869486 0
M  V30 2956 C 286.684 -1.19042 -1.43826 0
M  V30 2957 C 287.035 0.202919 -1.95148 0
M  V30 2958 O 286.16 1.10071 -1.86315 0
M  V30 2959 C 286.755 -2.15499 -2.6143 0
M  V30 2960 C 285.314 -2.07028 -3.14351 0
M  V30 2961 C 284.461 -2.04701 -1.87063 0
M  V30 2962 H 287.412 -1.43489 -0.677984 0
M  V30 2963 H 287.433 -1.74488 -3.38134 0
M  V30 2964 H 286.945 -3.16899 -2.24046 0
M  V30 2965 H 285.046 -1.08825 -3.56354 0
M  V30 2966 H 285.159 -2.96157 -3.766 0
M  V30 2967 H 283.523 -1.49724 -2.06046 0
M  V30 2968 H 284.306 -3.07857 -1.51917 0
M  V30 2969 N 286.751 1.08385 -1.14413 0
M  V30 2970 C 287.714 2.13486 -0.834048 0
M  V30 2971 C 288.714 1.59988 0.161418 0
M  V30 2972 O 289.904 1.74071 -0.0669575 0
M  V30 2973 C 287.036 3.4003 -0.243354 0
M  V30 2974 H 288.229 2.42425 -1.7655 0
M  V30 2975 H 285.782 1.24101 -0.950189 0
M  V30 2976 H 286.517 3.16726 0.696807 0
M  V30 2977 H 286.302 3.80157 -0.960367 0
M  V30 2978 H 287.792 4.17577 -0.0436242 0
M  V30 2979 N 288.23 0.939286 1.26551 0
M  V30 2980 C 289.14 0.453432 2.30176 0
M  V30 2981 C 290.156 -0.471649 1.67486 0
M  V30 2982 O 291.332 -0.35164 1.98306 0
M  V30 2983 C 288.397 -0.275326 3.45605 0
M  V30 2984 C 287.458 0.686084 4.23782 0
M  V30 2985 C 286.691 -0.00798994 5.33699 0
M  V30 2986 O 286.914 -1.22528 5.57085 0
M  V30 2987 O 285.848 0.669746 5.98162 0
M  V30 2988 H 289.674 1.31416 2.73795 0
M  V30 2989 H 287.259 0.705095 1.31715 0
M  V30 2990 H 289.141 -0.685911 4.1578 0
M  V30 2991 H 287.816 -1.11147 3.0402 0
M  V30 2992 H 286.723 1.14658 3.56096 0
M  V30 2993 H 288.056 1.48979 4.69112 0
M  V30 2994 N 289.708 -1.40897 0.706093 0
M  V30 2995 C 291.119 -1.84023 0.315052 0
M  V30 2996 C 291.47 -1.5906 -1.14866 0
M  V30 2997 O 290.595 -1.06651 -1.88293 0
M  V30 2998 C 291.19 -3.34055 0.565038 0
M  V30 2999 C 289.749 -3.7571 0.227806 0
M  V30 3000 C 288.896 -2.64204 0.842122 0
M  V30 3001 H 291.847 -1.303 0.905963 0
M  V30 3002 H 291.868 -3.80107 -0.172843 0
M  V30 3003 H 291.38 -3.52192 1.63042 0
M  V30 3004 H 289.481 -3.63172 -0.832895 0
M  V30 3005 H 289.594 -4.74103 0.690174 0
M  V30 3006 H 287.958 -2.53255 0.270893 0
M  V30 3007 H 288.741 -2.85155 1.91158 0
M  V30 3008 N 291.186 -0.45159 -1.50991 0
M  V30 3009 C 292.426 0.109066 -2.04109 0
M  V30 3010 C 292.79 1.38716 -1.32747 0
M  V30 3011 O 293.991 2.02896 -1.76314 0
M  V30 3012 C 292.262 0.308354 -3.56067 0
M  V30 3013 S 293.821 0.830369 -4.30872 0
M  V30 3014 H 290.639 0.0251531 -0.710555 0
M  V30 3015 H 293.241 -0.614264 -1.85599 0
M  V30 3016 H 291.945 -0.627962 -4.05567 0
M  V30 3017 H 291.476 1.05836 -3.78896 0
M  V30 3018 H 293.491 2.10626 -4.49279 0
M  V30 3019 N 292.664 1.56529 -0.183458 0
M  V30 3020 C 293.911 1.97244 0.458357 0
M  V30 3021 C 294.239 1.06992 1.62428 0
M  V30 3022 O 293.494 0.106542 1.9541 0
M  V30 3023 C 293.793 3.43939 0.971637 0
M  V30 3024 C 293.459 4.5083 -0.0796784 0
M  V30 3025 C 292.121 4.79786 -0.368584 0
M  V30 3026 C 294.473 5.15138 -0.792638 0
M  V30 3027 C 291.801 5.70345 -1.37563 0
M  V30 3028 C 294.153 6.06784 -1.78875 0
M  V30 3029 C 292.817 6.34102 -2.08497 0
M  V30 3030 H 292.087 0.721768 0.167725 0
M  V30 3031 H 294.734 1.89472 -0.277976 0
M  V30 3032 H 293.039 3.48724 1.78602 0
M  V30 3033 H 294.736 3.72791 1.47744 0
M  V30 3034 H 291.326 4.28317 0.155668 0
M  V30 3035 H 295.51 4.92868 -0.582659 0
M  V30 3036 H 290.766 5.89789 -1.61118 0
M  V30 3037 H 294.94 6.55677 -2.3465 0
M  V30 3038 H 292.567 7.04074 -2.86678 0
M  V30 3039 N 294.142 -0.090211 1.57342 0
M  V30 3040 C 295.074 -1.13541 1.99101 0
M  V30 3041 C 296.087 -1.3604 0.894258 0
M  V30 3042 O 297.276 -1.34606 1.17233 0
M  V30 3043 C 294.376 -2.49001 2.29895 0
M  V30 3044 C 293.549 -2.46712 3.61182 0
M  V30 3045 C 292.608 -3.64136 3.79857 0
M  V30 3046 O 291.634 -3.46405 4.51655 0
M  V30 3047 N 292.836 -4.83802 3.20806 0
M  V30 3048 H 295.601 -0.779942 2.89373 0
M  V30 3049 H 293.162 -0.279125 1.59476 0
M  V30 3050 H 295.154 -3.26166 2.39578 0
M  V30 3051 H 293.724 -2.76619 1.45605 0
M  V30 3052 H 292.944 -1.55058 3.62423 0
M  V30 3053 H 294.232 -2.42265 4.4742 0
M  V30 3054 H 293.63 -5.01112 2.62494 0
M  V30 3055 H 292.187 -5.58543 3.35966 0
M  V30 3056 N 295.62 -1.53406 -0.361157 0
M  V30 3057 C 296.868 -1.69467 -1.10115 0
M  V30 3058 C 297.189 -0.451352 -1.89705 0
M  V30 3059 O 296.459 0.534636 -1.88463 0
M  V30 3060 H 295.039 -0.624749 -0.409508 0
M  V30 3061 H 297.701 -1.90609 -0.406699 0
M  V30 3062 H 296.797 -2.55774 -1.78847 0
M  V30 3063 N 297.098 0.621204 -1.44841 0
M  V30 3064 C 298.326 1.40752 -1.51646 0
M  V30 3065 C 298.741 1.88246 -0.144549 0
M  V30 3066 O 298.098 1.61422 0.851416 0
M  V30 3067 C 298.149 2.62119 -2.4895 0
M  V30 3068 O 297.87 2.16602 -3.80808 0
M  V30 3069 C 299.371 3.55135 -2.65319 0
M  V30 3070 H 296.591 0.431325 -0.514004 0
M  V30 3071 H 299.135 0.758835 -1.899 0
M  V30 3072 H 297.29 3.23058 -2.13805 0
M  V30 3073 H 297.704 2.95358 -4.33433 0
M  V30 3074 H 299.178 4.36874 -3.37409 0
M  V30 3075 H 299.655 4.04592 -1.70886 0
M  V30 3076 H 300.261 3.00058 -3.01405 0
M  V30 3077 N 298.576 1.31904 0.862503 0
M  V30 3078 C 299.987 1.19803 1.43193 0
M  V30 3079 C 300.338 -0.192567 1.95253 0
M  V30 3080 O 299.463 -1.09081 1.86896 0
M  V30 3081 C 300.058 2.16883 2.60283 0
M  V30 3082 C 298.617 2.08692 3.13248 0
M  V30 3083 C 297.764 2.05691 1.85975 0
M  V30 3084 H 300.715 1.43846 0.670365 0
M  V30 3085 H 300.736 1.76278 3.37204 0
M  V30 3086 H 300.248 3.18083 2.22363 0
M  V30 3087 H 298.349 1.10713 3.55771 0
M  V30 3088 H 298.462 2.9815 3.75025 0
M  V30 3089 H 296.826 1.50814 2.05249 0
M  V30 3090 H 297.609 3.08659 1.50282 0
M  V30 3091 N 300.054 -1.07777 1.14986 0
M  V30 3092 C 300.964 -2.18404 0.856546 0
M  V30 3093 C 301.98 -1.73211 -0.165485 0
M  V30 3094 O 303.156 -2.01399 0.00755219 0
M  V30 3095 C 300.221 -3.44977 0.34526 0
M  V30 3096 C 299.282 -4.0476 1.43065 0
M  V30 3097 C 298.515 -5.25291 0.943663 0
M  V30 3098 O 298.738 -5.70004 -0.212426 0
M  V30 3099 O 297.672 -5.76638 1.72547 0
M  V30 3100 H 301.498 -2.45978 1.78125 0
M  V30 3101 H 299.083 -1.17033 0.928631 0
M  V30 3102 H 300.965 -4.21348 0.0663671 0
M  V30 3103 H 299.64 -3.18965 -0.551631 0
M  V30 3104 H 298.547 -3.29949 1.76309 0
M  V30 3105 H 299.88 -4.35035 2.30229 0
M  V30 3106 N 301.532 -0.945985 -1.26051 0
M  V30 3107 C 302.462 -0.477172 -2.28572 0
M  V30 3108 C 303.443 0.472032 -1.63419 0
M  V30 3109 O 304.628 0.372853 -1.90587 0
M  V30 3110 C 301.758 0.253975 -3.4637 0
M  V30 3111 C 300.712 -0.609135 -4.23643 0
M  V30 3112 C 300.038 0.252252 -5.34105 0
M  V30 3113 C 301.338 -1.8829 -4.8718 0
M  V30 3114 H 303.032 -1.33402 -2.68038 0
M  V30 3115 H 300.578 -0.642904 -1.28852 0
M  V30 3116 H 302.531 0.593016 -4.17207 0
M  V30 3117 H 301.255 1.145 -3.05871 0
M  V30 3118 H 299.914 -0.931138 -3.54578 0
M  V30 3119 H 299.562 1.14278 -4.89846 0
M  V30 3120 H 299.262 -0.32188 -5.86718 0
M  V30 3121 H 300.786 0.586454 -6.07777 0
M  V30 3122 H 302.2 -1.61081 -5.50205 0
M  V30 3123 H 300.597 -2.40199 -5.49931 0
M  V30 3124 H 301.667 -2.59134 -4.09851 0
M  V30 3125 N 303.011 1.40521 -0.713556 0
M  V30 3126 C 304.257 2.01221 -0.252564 0
M  V30 3127 C 304.59 1.56444 1.1506 0
M  V30 3128 O 303.865 0.783597 1.78017 0
M  V30 3129 C 304.148 3.58582 -0.330332 0
M  V30 3130 C 304.001 4.13437 -1.77173 0
M  V30 3131 C 305.32 4.39079 0.299641 0
M  V30 3132 H 302.439 0.731077 -0.0932471 0
M  V30 3133 H 305.081 1.67026 -0.905673 0
M  V30 3134 H 303.231 3.87844 0.225737 0
M  V30 3135 H 304.903 3.9498 -2.38303 0
M  V30 3136 H 303.146 3.67801 -2.3001 0
M  V30 3137 H 303.817 5.22597 -1.77755 0
M  V30 3138 H 306.293 4.15735 -0.174139 0
M  V30 3139 H 305.169 5.4848 0.214771 0
M  V30 3140 H 305.43 4.19915 1.38288 0
M  V30 3141 N 304.489 0.459591 1.5075 0
M  V30 3142 C 305.905 0.113092 1.59199 0
M  V30 3143 C 306.105 -1.37951 1.46874 0
M  V30 3144 O 305.161 -2.15168 1.32132 0
M  V30 3145 C 306.474 0.653043 2.93523 0
M  V30 3146 C 308.022 0.615449 3.0689 0
M  V30 3147 C 308.497 1.13275 4.43771 0
M  V30 3148 N 309.988 1.09167 4.50152 0
M  V30 3149 C 310.723 1.46256 5.54434 0
M  V30 3150 N 310.219 1.90739 6.66026 0
M  V30 3151 N 312.012 1.37932 5.44914 0
M  V30 3152 H 304.163 1.43049 1.57005 0
M  V30 3153 H 306.426 0.590861 0.741341 0
M  V30 3154 H 306.132 1.69822 3.07983 0
M  V30 3155 H 306.006 0.0902132 3.77092 0
M  V30 3156 H 308.393 -0.420793 2.92084 0
M  V30 3157 H 308.474 1.21495 2.25106 0
M  V30 3158 H 308.118 2.16757 4.59324 0
M  V30 3159 H 308.048 0.509576 5.24129 0
M  V30 3160 H 310.539 0.76528 3.7007 0
M  V30 3161 H 310.852 2.17218 7.41644 0
M  V30 3162 H 309.197 1.94683 6.67176 0
M  V30 3163 H 312.388 1.0303 4.56621 0
M  V30 3164 H 312.561 1.67164 6.26067 0
M  V30 3165 N 305.967 -1.56429 0.191757 0
M  V30 3166 C 306.897 -2.21937 -0.725696 0
M  V30 3167 C 307.878 -1.1814 -1.2238 0
M  V30 3168 O 309.063 -1.46636 -1.27325 0
M  V30 3169 C 306.193 -2.87611 -1.94672 0
M  V30 3170 C 305.147 -3.97623 -1.58366 0
M  V30 3171 C 304.473 -4.50446 -2.88102 0
M  V30 3172 C 305.773 -5.16197 -0.796133 0
M  V30 3173 H 307.467 -2.98861 -0.179606 0
M  V30 3174 H 305.013 -1.43749 -0.0849464 0
M  V30 3175 H 306.966 -3.3212 -2.59373 0
M  V30 3176 H 305.69 -2.08087 -2.51728 0
M  V30 3177 H 304.349 -3.53801 -0.960247 0
M  V30 3178 H 303.997 -3.67688 -3.43241 0
M  V30 3179 H 303.697 -5.24675 -2.64556 0
M  V30 3180 H 305.221 -4.97654 -3.53798 0
M  V30 3181 H 306.635 -5.57271 -1.34618 0
M  V30 3182 H 305.032 -5.96471 -0.658928 0
M  V30 3183 H 306.102 -4.84473 0.203478 0
M  V30 3184 N 307.445 0.0818655 -1.57387 0
M  V30 3185 C 308.722 0.815343 -1.77796 0
M  V30 3186 C 309.102 1.96289 -0.77679 0
M  V30 3187 O 308.45 2.27691 0.192106 0
M  V30 3188 C 308.66 1.29765 -3.23978 0
M  V30 3189 C 310.008 1.7351 -3.8753 0
M  V30 3190 O 311.032 1.39356 -3.27808 0
M  V30 3191 O 309.891 2.36708 -4.92576 0
M  V30 3192 H 306.985 0.389914 -0.729312 0
M  V30 3193 H 309.531 0.0627213 -1.69584 0
M  V30 3194 H 308.303 0.47608 -3.88393 0
M  V30 3195 H 307.926 2.11189 -3.36875 0
M  V30 3196 N 308.923 1.53595 0.353017 0
M  V30 3197 C 310.334 1.61937 0.929153 0
M  V30 3198 C 310.685 0.494686 1.89861 0
M  V30 3199 O 309.81 -0.377017 2.1309 0
M  V30 3200 C 310.405 2.93526 1.69199 0
M  V30 3201 C 308.964 3.04161 2.21727 0
M  V30 3202 C 308.111 2.57322 1.03348 0
M  V30 3203 H 311.062 1.58155 0.131431 0
M  V30 3204 H 311.083 2.82034 2.55416 0
M  V30 3205 H 310.595 3.75362 0.986144 0
M  V30 3206 H 308.696 2.26938 2.95516 0
M  V30 3207 H 308.809 4.09465 2.48748 0
M  V30 3208 H 307.173 2.12499 1.40414 0
M  V30 3209 H 307.956 3.41588 0.342428 0
M  V30 3210 N 310.401 -0.613514 1.45168 0
M  V30 3211 C 311.626 -1.40437 1.52618 0
M  V30 3212 C 312.051 -1.87438 0.157707 0
M  V30 3213 O 311.409 -1.59791 -0.856537 0
M  V30 3214 C 311.457 -2.58894 2.51011 0
M  V30 3215 O 310.561 -3.59326 2.02382 0
M  V30 3216 H 309.902 -0.419506 0.514695 0
M  V30 3217 H 312.432 -0.747215 1.90467 0
M  V30 3218 H 312.442 -3.06214 2.69624 0
M  V30 3219 H 311.117 -2.24032 3.50403 0
M  V30 3220 H 309.694 -3.18695 1.93618 0
M  V30 3221 N 311.879 -1.3236 -0.855495 0
M  V30 3222 C 313.156 -1.13491 -1.59309 0
M  V30 3223 C 313.536 0.30503 -2.08885 0
M  V30 3224 O 312.884 1.30151 -1.87811 0
M  V30 3225 C 313.094 -2.16176 -2.73987 0
M  V30 3226 C 314.442 -2.49463 -3.43589 0
M  V30 3227 O 315.466 -2.14715 -2.84211 0
M  V30 3228 O 314.325 -3.09027 -4.50738 0
M  V30 3229 H 311.419 -0.437887 -0.701559 0
M  V30 3230 H 313.965 -1.43887 -0.899696 0
M  V30 3231 H 312.737 -3.1297 -2.34873 0
M  V30 3232 H 312.36 -1.86769 -3.51003 0
M  V30 3233 N 313.357 1.07166 -1.15556 0
M  V30 3234 C 314.32 2.12589 -0.856644 0
M  V30 3235 C 315.32 1.6015 0.14444 0
M  V30 3236 O 316.51 1.7399 -0.0854163 0
M  V30 3237 C 313.642 3.39753 -0.279405 0
M  V30 3238 H 314.835 2.40539 -1.79112 0
M  V30 3239 H 312.388 1.23086 -0.963298 0
M  V30 3240 H 313.123 3.17447 0.663174 0
M  V30 3241 H 312.908 3.79117 -1.00063 0
M  V30 3242 H 314.398 4.17507 -0.0879113 0
M  V30 3243 N 314.835 0.952656 1.25548 0
M  V30 3244 C 315.782 0.47008 2.25962 0
M  V30 3245 C 316.752 -0.476384 1.59122 0
M  V30 3246 O 317.937 -0.39007 1.8677 0
M  V30 3247 C 315.077 -0.247881 3.44209 0
M  V30 3248 C 314.19 0.735591 4.25691 0
M  V30 3249 C 313.325 -0.0047306 5.312 0
M  V30 3250 C 312.364 0.969805 6.04368 0
M  V30 3251 N 311.501 0.260486 7.01617 0
M  V30 3252 H 316.341 1.33126 2.66611 0
M  V30 3253 H 313.878 0.66765 1.31076 0
M  V30 3254 H 315.836 -0.680695 4.1161 0
M  V30 3255 H 314.466 -1.07312 3.0444 0
M  V30 3256 H 313.518 1.28689 3.57971 0
M  V30 3257 H 314.83 1.47934 4.76358 0
M  V30 3258 H 313.984 -0.496275 6.04667 0
M  V30 3259 H 312.723 -0.781282 4.81401 0
M  V30 3260 H 311.728 1.47237 5.29718 0
M  V30 3261 H 312.953 1.74655 6.56256 0
M  V30 3262 H 310.899 -0.497364 6.54112 0
M  V30 3263 H 310.816 0.943362 7.50091 0
M  V30 3264 H 312.084 -0.209587 7.79218 0
M  V30 3265 N 316.313 -1.40141 0.720998 0
M  V30 3266 C 317.56 -2.00787 0.262842 0
M  V30 3267 C 317.888 -1.5718 -1.14563 0
M  V30 3268 O 317.143 -0.785391 -1.79249 0
M  V30 3269 C 317.442 -3.56165 0.296892 0
M  V30 3270 C 317.108 -4.19373 1.65641 0
M  V30 3271 C 315.77 -4.36352 2.02855 0
M  V30 3272 C 318.122 -4.54578 2.54968 0
M  V30 3273 C 315.45 -4.8582 3.28931 0
M  V30 3274 C 317.802 -5.05447 3.80402 0
M  V30 3275 C 316.466 -5.20635 4.17726 0
M  V30 3276 H 315.736 -0.734731 0.0961807 0
M  V30 3277 H 318.383 -1.67673 0.925093 0
M  V30 3278 H 316.688 -3.8922 -0.448932 0
M  V30 3279 H 318.385 -4.00929 -0.0755208 0
M  V30 3280 H 314.975 -4.06549 1.35704 0
M  V30 3281 H 319.159 -4.41091 2.27491 0
M  V30 3282 H 314.415 -4.95764 3.57811 0
M  V30 3283 H 318.589 -5.31663 4.49786 0
M  V30 3284 H 316.216 -5.58728 5.15487 0
M  V30 3285 N 317.792 -0.46758 -1.50504 0
M  V30 3286 C 319.038 0.0887532 -2.02606 0
M  V30 3287 C 319.371 1.39686 -1.34913 0
M  V30 3288 O 318.646 1.88644 -0.473694 0
M  V30 3289 C 318.929 0.276206 -3.59039 0
M  V30 3290 C 318.782 -1.05267 -4.37309 0
M  V30 3291 C 320.101 1.03235 -4.27821 0
M  V30 3292 H 317.22 0.0307814 -0.736357 0
M  V30 3293 H 319.862 -0.612485 -1.79857 0
M  V30 3294 H 318.012 0.8735 -3.78553 0
M  V30 3295 H 319.684 -1.68628 -4.29374 0
M  V30 3296 H 317.927 -1.65015 -4.01189 0
M  V30 3297 H 318.598 -0.875197 -5.45018 0
M  V30 3298 H 321.074 0.526111 -4.12761 0
M  V30 3299 H 319.95 1.1323 -5.37094 0
M  V30 3300 H 320.211 2.06806 -3.90748 0
M  V30 3301 N 319.27 1.56325 -0.20005 0
M  V30 3302 C 320.547 1.89484 0.48529 0
M  V30 3303 C 320.927 1.1143 1.79294 0
M  V30 3304 O 320.275 0.216919 2.27468 0
M  V30 3305 C 320.485 3.41923 0.699243 0
M  V30 3306 C 321.833 4.12256 1.01638 0
M  V30 3307 O 322.857 3.47402 0.786792 0
M  V30 3308 O 321.716 5.26887 1.45095 0
M  V30 3309 H 318.81 0.787144 0.253639 0
M  V30 3310 H 321.356 1.67985 -0.240633 0
M  V30 3311 H 320.128 3.90658 -0.224008 0
M  V30 3312 H 319.751 3.69131 1.47744 0
M  V30 3313 N 320.748 -0.0735177 1.57428 0
M  V30 3314 C 321.994 -0.774145 1.87443 0
M  V30 3315 C 322.327 -1.77311 0.792103 0
M  V30 3316 O 321.602 -1.93492 -0.197793 0
M  V30 3317 C 321.885 -1.48367 3.28115 0
M  V30 3318 C 321.738 -0.501227 4.46999 0
M  V30 3319 C 323.057 -2.429 3.66998 0
M  V30 3320 H 320.176 -0.279971 0.681752 0
M  V30 3321 H 322.818 -0.0373616 1.89963 0
M  V30 3322 H 320.968 -2.11171 3.26097 0
M  V30 3323 H 322.64 0.121468 4.6114 0
M  V30 3324 H 320.883 0.183593 4.33411 0
M  V30 3325 H 321.554 -1.03526 5.42205 0
M  V30 3326 H 324.03 -1.90175 3.70098 0
M  V30 3327 H 322.906 -2.89549 4.66318 0
M  V30 3328 H 323.167 -3.27628 2.96837 0
M  V30 3329 N 322.226 -1.5378 -0.344866 0
M  V30 3330 C 323.475 -1.7018 -1.08267 0
M  V30 3331 C 323.788 -0.471 -1.89845 0
M  V30 3332 O 324.994 -0.515917 -2.66553 0
M  V30 3333 C 323.45 -3.00923 -1.97417 0
M  V30 3334 C 323.058 -4.31335 -1.21053 0
M  V30 3335 C 324.802 -3.26688 -2.71063 0
M  V30 3336 C 322.709 -5.53153 -2.09225 0
M  V30 3337 H 321.639 -0.634138 -0.407903 0
M  V30 3338 H 324.29 -1.8028 -0.342246 0
M  V30 3339 H 322.672 -2.84676 -2.75274 0
M  V30 3340 H 323.846 -4.58281 -0.481159 0
M  V30 3341 H 322.161 -4.12173 -0.591813 0
M  V30 3342 H 324.758 -4.1489 -3.37299 0
M  V30 3343 H 325.101 -2.43639 -3.37558 0
M  V30 3344 H 325.634 -3.43705 -2.0028 0
M  V30 3345 H 322.373 -6.38741 -1.47274 0
M  V30 3346 H 321.893 -5.30458 -2.79955 0
M  V30 3347 H 323.572 -5.88744 -2.68308 0
M  V30 3348 N 323.704 0.605807 -1.45491 0
M  V30 3349 C 324.654 1.71074 -1.50724 0
M  V30 3350 C 325.638 1.5658 -0.37033 0
M  V30 3351 O 326.83 1.65887 -0.617299 0
M  V30 3352 C 323.959 3.0983 -1.47852 0
M  V30 3353 C 323.045 3.29704 -2.66751 0
M  V30 3354 N 323.436 3.19831 -3.91844 0
M  V30 3355 C 321.734 3.60579 -2.62486 0
M  V30 3356 C 322.435 3.41083 -4.71208 0
M  V30 3357 N 321.411 3.65157 -4.02693 0
M  V30 3358 H 325.213 1.61937 -2.45263 0
M  V30 3359 H 322.727 0.80912 -1.40808 0
M  V30 3360 H 324.724 3.89101 -1.49686 0
M  V30 3361 H 323.384 3.20115 -0.543714 0
M  V30 3362 H 324.395 2.98194 -4.23439 0
M  V30 3363 H 321.072 3.7769 -1.77922 0
M  V30 3364 H 322.462 3.38828 -5.80211 0
M  V30 3365 N 325.182 1.32811 0.848464 0
M  V30 3366 C 326.41 1.26739 1.63538 0
M  V30 3367 C 326.825 -0.163484 1.88091 0
M  V30 3368 O 326.182 -1.10258 1.45429 0
M  V30 3369 C 326.233 2.03013 2.99112 0
M  V30 3370 O 325.954 3.40518 2.75643 0
M  V30 3371 C 327.455 2.04038 3.93552 0
M  V30 3372 H 324.675 0.437024 0.509167 0
M  V30 3373 H 327.219 1.75033 1.05753 0
M  V30 3374 H 325.374 1.58426 3.53525 0
M  V30 3375 H 325.788 3.79635 3.61908 0
M  V30 3376 H 327.262 2.61877 4.85926 0
M  V30 3377 H 327.739 1.0282 4.26995 0
M  V30 3378 H 328.345 2.486 3.45077 0
M  V30 3379 N 326.66 -1.06551 1.16123 0
M  V30 3380 C 327.937 -1.76097 0.85142 0
M  V30 3381 C 328.317 -2.00802 -0.6513 0
M  V30 3382 O 327.665 -1.63302 -1.59827 0
M  V30 3383 C 327.875 -3.06384 1.67122 0
M  V30 3384 C 329.223 -3.80585 1.88255 0
M  V30 3385 O 330.247 -3.16218 1.63966 0
M  V30 3386 O 329.106 -4.96212 2.2899 0
M  V30 3387 H 326.2 -0.765102 0.313923 0
M  V30 3388 H 328.746 -1.12844 1.26745 0
M  V30 3389 H 327.518 -2.84071 2.69108 0
M  V30 3390 H 327.141 -3.77371 1.25206 0
M  V30 3391 N 328.138 -0.959301 -1.25041 0
M  V30 3392 C 329.386 -0.615393 -1.92503 0
M  V30 3393 C 329.707 0.850969 -1.75452 0
M  V30 3394 O 328.977 1.60658 -1.12098 0
M  V30 3395 H 327.557 -0.224613 -0.712431 0
M  V30 3396 H 330.219 -1.21855 -1.5211 0
M  V30 3397 H 329.315 -0.848738 -3.00338 0
M  V30 3398 N 329.616 1.39756 -0.72842 0
M  V30 3399 C 330.579 2.29012 -0.0927297 0
M  V30 3400 C 331.579 1.45992 0.674025 0
M  V30 3401 O 332.769 1.66749 0.50402 0
M  V30 3402 C 329.901 3.29396 0.878137 0
M  V30 3403 H 331.094 2.86729 -0.879011 0
M  V30 3404 H 328.647 1.48293 -0.493847 0
M  V30 3405 H 329.382 2.76722 1.69101 0
M  V30 3406 H 329.167 3.907 0.331051 0
M  V30 3407 H 330.657 3.96199 1.3197 0
M  V30 3408 N 331.094 0.475555 1.50254 0
M  V30 3409 C 332.505 0.0215174 1.86688 0
M  V30 3410 C 332.856 -1.38467 1.39001 0
M  V30 3411 O 331.981 -2.02732 0.756894 0
M  V30 3412 C 332.576 0.0322715 3.38785 0
M  V30 3413 C 331.135 -0.366314 3.74613 0
M  V30 3414 C 330.282 0.415832 2.74164 0
M  V30 3415 H 333.233 0.689612 1.42934 0
M  V30 3416 H 333.254 -0.76889 3.7265 0
M  V30 3417 H 332.766 1.05584 3.73462 0
M  V30 3418 H 330.867 -1.39406 3.45538 0
M  V30 3419 H 330.98 -0.064555 4.79057 0
M  V30 3420 H 329.344 -0.131048 2.54363 0
M  V30 3421 H 330.127 1.43899 3.11686 0
M  V30 3422 N 332.573 -1.56217 0.208337 0
M  V30 3423 C 333.822 -1.97124 -0.427204 0
M  V30 3424 C 334.135 -1.09859 -1.61835 0
M  V30 3425 O 335.341 -1.40606 -2.32255 0
M  V30 3426 C 333.797 -3.50633 -0.811442 0
M  V30 3427 C 333.405 -4.46582 0.35615 0
M  V30 3428 C 335.149 -4.00282 -1.41332 0
M  V30 3429 C 333.056 -5.91379 -0.0497852 0
M  V30 3430 H 331.986 -0.736086 -0.163381 0
M  V30 3431 H 334.637 -1.8099 0.302456 0
M  V30 3432 H 333.019 -3.62319 -1.59815 0
M  V30 3433 H 334.193 -4.46636 1.1337 0
M  V30 3434 H 332.508 -4.07202 0.870396 0
M  V30 3435 H 335.105 -5.0595 -1.72972 0
M  V30 3436 H 335.448 -3.45359 -2.32449 0
M  V30 3437 H 335.981 -3.91764 -0.690323 0
M  V30 3438 H 332.72 -6.50255 0.827529 0
M  V30 3439 H 332.24 -5.94549 -0.791926 0
M  V30 3440 H 333.919 -6.45209 -0.481042 0
M  V30 3441 N 334.051 0.0651679 -1.57465 0
M  V30 3442 C 335.297 0.764193 -1.87851 0
M  V30 3443 C 335.63 1.76889 -0.801495 0
M  V30 3444 O 334.905 1.93594 0.187528 0
M  V30 3445 C 335.188 1.46625 -3.28897 0
M  V30 3446 C 335.041 0.477515 -4.47258 0
M  V30 3447 C 336.36 2.4095 -3.68281 0
M  V30 3448 H 333.479 0.276351 -0.683227 0
M  V30 3449 H 336.121 0.0272868 -1.8998 0
M  V30 3450 H 334.271 2.09438 -3.27212 0
M  V30 3451 H 335.943 -0.145922 -4.61069 0
M  V30 3452 H 334.186 -0.206576 -4.33308 0
M  V30 3453 H 334.857 1.0065 -5.42746 0
M  V30 3454 H 337.333 1.88209 -3.71102 0
M  V30 3455 H 336.209 2.87072 -4.67847 0
M  V30 3456 H 336.47 3.26049 -2.98571 0
M  V30 3457 N 335.529 1.53961 0.336706 0
M  V30 3458 C 336.94 1.62914 0.911925 0
M  V30 3459 C 337.291 0.514795 1.89326 0
M  V30 3460 O 336.416 -0.354395 2.13478 0
M  V30 3461 C 337.011 2.95304 1.66076 0
M  V30 3462 C 335.57 3.06496 2.18489 0
M  V30 3463 C 334.717 2.58403 1.00613 0
M  V30 3464 H 337.668 1.58285 0.114649 0
M  V30 3465 H 337.689 2.84727 2.5241 0
M  V30 3466 H 337.201 3.76387 0.946276 0
M  V30 3467 H 335.302 2.3006 2.93092 0
M  V30 3468 H 335.415 4.1208 2.44391 0
M  V30 3469 H 333.779 2.13977 1.38152 0
M  V30 3470 H 334.562 3.41932 0.306179 0
M  V30 3471 N 337.007 -0.598083 1.45811 0
M  V30 3472 C 337.955 -1.72932 1.55555 0
M  V30 3473 C 338.949 -1.63984 0.424921 0
M  V30 3474 O 340.155 -1.69663 0.601205 0
M  V30 3475 H 336.53 -0.571489 0.488779 0
M  V30 3476 H 338.501 -1.61842 2.50699 0
M  V30 3477 C 337.25 -3.11318 1.54843 0
M  V30 3478 H 336.573 -3.18867 2.41172 0
M  V30 3479 H 338.013 -3.90274 1.65717 0
M  V30 3480 C 336.472 -3.3578 0.274427 0
M  V30 3481 O 337.002 -3.9654 -0.641778 0
M  V30 3482 N 335.208 -2.90119 0.167139 0
M  V30 3483 H 334.755 -2.40855 0.913596 0
M  V30 3484 H 334.713 -3.0686 -0.684435 0
M  V30 3485 N 338.485 -1.33259 -0.841409 0
M  V30 3486 C 339.415 -1.25926 -1.96634 0
M  V30 3487 C 340.396 -0.140349 -1.6952 0
M  V30 3488 O 341.581 -0.329707 -1.91381 0
M  V30 3489 C 338.711 -0.99512 -3.32738 0
M  V30 3490 C 337.665 -2.0767 -3.74242 0
M  V30 3491 C 336.991 -1.66474 -5.08125 0
M  V30 3492 C 338.291 -3.49318 -3.88297 0
M  V30 3493 H 339.985 -2.20046 -2.03027 0
M  V30 3494 H 337.531 -1.05931 -0.975425 0
M  V30 3495 H 339.484 -0.930323 -4.11002 0
M  V30 3496 H 338.208 -0.0183004 -3.26595 0
M  V30 3497 H 336.867 -2.13187 -2.98239 0
M  V30 3498 H 336.515 -0.675012 -4.9845 0
M  V30 3499 H 336.215 -2.3885 -5.36865 0
M  V30 3500 H 337.739 -1.61455 -5.88867 0
M  V30 3501 H 339.153 -3.46316 -4.56879 0
M  V30 3502 H 337.55 -4.20158 -4.28471 0
M  V30 3503 H 338.62 -3.8801 -2.9082 0
M  V30 3504 N 339.963 1.05934 -1.16686 0
M  V30 3505 C 341.211 1.78447 -0.948744 0
M  V30 3506 C 341.532 1.87813 0.524523 0
M  V30 3507 O 340.802 1.38945 1.38098 0
M  V30 3508 H 339.382 0.660971 -0.348033 0
M  V30 3509 H 342.044 1.27947 -1.47022 0
M  V30 3510 H 341.14 2.80394 -1.37061 0
M  V30 3511 N 341.441 0.965919 1.2453 0
M  V30 3512 C 342.688 0.626831 1.92554 0
M  V30 3513 C 343.016 -0.837739 1.75534 0
M  V30 3514 O 342.271 -1.61793 1.10098 0
M  V30 3515 C 342.57 0.945428 3.44669 0
M  V30 3516 C 342.236 2.39785 3.81856 0
M  V30 3517 C 340.898 2.79483 3.91718 0
M  V30 3518 C 343.25 3.34055 4.00071 0
M  V30 3519 C 340.578 4.12496 4.1721 0
M  V30 3520 C 342.93 4.66694 4.27059 0
M  V30 3521 C 341.594 5.06172 4.3514 0
M  V30 3522 H 340.864 0.229374 0.704605 0
M  V30 3523 H 343.511 1.21707 1.4785 0
M  V30 3524 H 341.816 0.272926 3.90848 0
M  V30 3525 H 343.513 0.661484 3.95507 0
M  V30 3526 H 340.103 2.08003 3.74743 0
M  V30 3527 H 344.287 3.04571 3.91855 0
M  V30 3528 H 339.543 4.42709 4.21685 0
M  V30 3529 H 343.717 5.3971 4.40097 0
M  V30 3530 H 341.344 6.09262 4.54646 0
M  V30 3531 N 342.919 -1.39368 0.735821 0
M  V30 3532 C 344.167 -2.00101 0.283562 0
M  V30 3533 C 344.488 -1.5868 -1.13338 0
M  V30 3534 O 343.758 -0.835423 -1.77193 0
M  V30 3535 H 342.338 -0.740024 0.101851 0
M  V30 3536 H 345 -1.70404 0.945962 0
M  V30 3537 H 344.096 -3.10323 0.332604 0
M  V30 3538 N 344.397 -0.483516 -1.5 0
M  V30 3539 C 345.33 0.350427 -2.25493 0
M  V30 3540 C 346.308 0.985549 -1.29328 0
M  V30 3541 O 347.492 1.01906 -1.58579 0
M  V30 3542 C 344.619 1.49202 -3.04066 0
M  V30 3543 C 343.665 0.973036 -4.15252 0
M  V30 3544 S 344.498 -0.122237 -5.3536 0
M  V30 3545 C 345.654 1.02294 -6.17484 0
M  V30 3546 H 345.887 -0.290381 -2.95878 0
M  V30 3547 H 343.42 -0.268562 -1.52046 0
M  V30 3548 H 345.378 2.14623 -3.49925 0
M  V30 3549 H 344.039 2.10438 -2.33183 0
M  V30 3550 H 343.232 1.82804 -4.69679 0
M  V30 3551 H 342.834 0.396335 -3.71894 0
M  V30 3552 H 345.126 1.93195 -6.49371 0
M  V30 3553 H 346.069 0.517664 -7.06205 0
M  V30 3554 H 346.477 1.28238 -5.49741 0
M  V30 3555 N 345.875 1.56104 -0.216619 0
M  V30 3556 C 347.1 2.0301 0.424462 0
M  V30 3557 C 347.525 1.0955 1.52907 0
M  V30 3558 O 346.883 0.0827914 1.81111 0
M  V30 3559 C 346.931 3.4819 0.937883 0
M  V30 3560 O 346.035 3.57865 2.04955 0
M  V30 3561 H 345.376 0.656925 0.0966755 0
M  V30 3562 H 347.906 2.01859 -0.33381 0
M  V30 3563 H 347.916 3.88413 1.24897 0
M  V30 3564 H 346.591 4.15699 0.129387 0
M  V30 3565 H 345.168 3.29527 1.74546 0
M  V30 3566 N 347.353 -0.0568162 1.57498 0
M  V30 3567 C 348.285 -1.09292 2.01464 0
M  V30 3568 C 349.298 -1.34112 0.922913 0
M  V30 3569 O 350.487 -1.32089 1.20062 0
M  V30 3570 C 347.587 -2.44068 2.35125 0
M  V30 3571 C 346.76 -2.38995 3.66333 0
M  V30 3572 C 345.819 -3.55997 3.87495 0
M  V30 3573 O 344.845 -3.36746 4.58901 0
M  V30 3574 N 346.047 -4.76888 3.30996 0
M  V30 3575 H 348.812 -0.718386 2.90963 0
M  V30 3576 H 346.373 -0.245235 1.60032 0
M  V30 3577 H 348.365 -3.21011 2.46443 0
M  V30 3578 H 346.935 -2.73468 1.5144 0
M  V30 3579 H 346.155 -1.47336 3.65631 0
M  V30 3580 H 347.443 -2.3272 4.52458 0
M  V30 3581 H 346.841 -4.95431 2.73065 0
M  V30 3582 H 345.398 -5.51291 3.47738 0
M  V30 3583 N 348.832 -1.54138 -0.328536 0
M  V30 3584 C 350.078 -1.7236 -1.06865 0
M  V30 3585 C 350.411 -0.493231 -1.87832 0
M  V30 3586 O 349.686 0.5098 -1.877 0
M  V30 3587 C 349.969 -2.99621 -1.99747 0
M  V30 3588 C 349.822 -4.32899 -1.22143 0
M  V30 3589 C 351.141 -3.22615 -2.99345 0
M  V30 3590 H 348.26 -0.627151 -0.387105 0
M  V30 3591 H 350.902 -1.86827 -0.345767 0
M  V30 3592 H 349.052 -2.87418 -2.61387 0
M  V30 3593 H 350.724 -4.56978 -0.630017 0
M  V30 3594 H 348.967 -4.30628 -0.523628 0
M  V30 3595 H 349.638 -5.18154 -1.90318 0
M  V30 3596 H 352.114 -3.34248 -2.47826 0
M  V30 3597 H 350.99 -4.13027 -3.61524 0
M  V30 3598 H 351.251 -2.3961 -3.71536 0
M  V30 3599 N 350.31 0.590341 -1.46126 0
M  V30 3600 C 351.556 1.35082 -1.51264 0
M  V30 3601 C 351.889 1.93534 -0.160711 0
M  V30 3602 O 351.164 1.76045 0.826956 0
M  V30 3603 C 351.447 2.48588 -2.6053 0
M  V30 3604 C 351.3 1.95221 -4.05227 0
M  V30 3605 C 352.619 3.50662 -2.6594 0
M  V30 3606 H 349.738 0.489803 -0.550692 0
M  V30 3607 H 352.38 0.663887 -1.78024 0
M  V30 3608 H 350.53 3.07186 -2.37843 0
M  V30 3609 H 352.202 1.41139 -4.39178 0
M  V30 3610 H 350.445 1.26101 -4.15068 0
M  V30 3611 H 351.116 2.77121 -4.77397 0
M  V30 3612 H 353.592 3.01934 -2.86313 0
M  V30 3613 H 352.468 4.27551 -3.44226 0
M  V30 3614 H 352.729 4.07399 -1.71694 0
M  V30 3615 N 351.788 1.33704 0.83433 0
M  V30 3616 C 353.036 1.25169 1.58673 0
M  V30 3617 C 353.357 -0.18127 1.94156 0
M  V30 3618 O 352.627 -1.11113 1.6134 0
M  V30 3619 H 351.207 0.4603 0.58833 0
M  V30 3620 H 353.869 1.67478 0.996847 0
M  V30 3621 H 352.965 1.84856 2.51465 0
M  V30 3622 N 353.266 -1.05314 1.17247 0
M  V30 3623 C 354.216 -2.11313 0.856196 0
M  V30 3624 C 355.2 -1.60013 -0.168694 0
M  V30 3625 O 356.392 -1.76968 0.0335624 0
M  V30 3626 C 353.521 -3.41301 0.369917 0
M  V30 3627 C 352.607 -3.99401 1.42616 0
M  V30 3628 N 352.998 -4.31481 2.63928 0
M  V30 3629 C 351.296 -4.27126 1.28373 0
M  V30 3630 C 351.997 -4.77799 3.31787 0
M  V30 3631 N 350.973 -4.77843 2.59166 0
M  V30 3632 H 354.775 -2.33976 1.77856 0
M  V30 3633 H 352.289 -1.2295 1.06099 0
M  V30 3634 H 354.286 -4.16713 0.124897 0
M  V30 3635 H 352.946 -3.20072 -0.546253 0
M  V30 3636 H 353.957 -4.21519 3.00902 0
M  V30 3637 H 350.634 -4.15289 0.429111 0
M  V30 3638 H 352.024 -5.11743 4.35395 0
M  V30 3639 N 354.744 -0.972509 -1.24016 0
M  V30 3640 C 355.674 -0.525548 -2.27509 0
M  V30 3641 C 356.655 0.437262 -1.64384 0
M  V30 3642 O 357.84 0.332343 -1.91335 0
M  V30 3643 C 354.97 0.180448 -3.46831 0
M  V30 3644 C 353.924 -0.698859 -4.22256 0
M  V30 3645 C 353.25 0.138903 -5.3452 0
M  V30 3646 C 354.55 -1.98582 -4.83076 0
M  V30 3647 H 356.244 -1.39058 -2.65148 0
M  V30 3648 H 353.79 -0.67009 -1.27459 0
M  V30 3649 H 355.743 0.504387 -4.18371 0
M  V30 3650 H 354.467 1.07987 -3.08231 0
M  V30 3651 H 353.126 -1.00614 -3.52523 0
M  V30 3652 H 352.774 1.03862 -4.9216 0
M  V30 3653 H 352.474 -0.446259 -5.85903 0
M  V30 3654 H 353.998 0.457404 -6.08884 0
M  V30 3655 H 355.412 -1.72715 -5.46665 0
M  V30 3656 H 353.809 -2.5181 -5.44713 0
M  V30 3657 H 354.879 -2.67769 -4.04262 0
M  V30 3658 N 356.222 1.38976 -0.743202 0
M  V30 3659 C 357.499 1.94351 -0.220705 0
M  V30 3660 C 357.879 1.67935 1.2791 0
M  V30 3661 O 357.227 1.01211 2.04862 0
M  V30 3662 C 357.437 3.44426 -0.563171 0
M  V30 3663 C 358.785 4.2144 -0.517046 0
M  V30 3664 O 359.809 3.52661 -0.500846 0
M  V30 3665 O 358.668 5.44032 -0.518806 0
M  V30 3666 H 355.762 0.825879 -0.043047 0
M  V30 3667 H 358.308 1.48429 -0.822618 0
M  V30 3668 H 357.08 3.5712 -1.59941 0
M  V30 3669 H 356.703 3.97543 0.0672883 0
M  V30 3670 N 357.7 0.491464 1.49741 0
M  V30 3671 C 358.947 -0.0564256 2.02421 0
M  V30 3672 C 359.275 -1.37872 1.37192 0
M  V30 3673 O 358.53 -1.89375 0.493508 0
M  V30 3674 C 358.829 -0.267329 3.56399 0
M  V30 3675 C 358.495 0.975775 4.40215 0
M  V30 3676 C 357.157 1.31655 4.62839 0
M  V30 3677 C 359.509 1.80251 4.89039 0
M  V30 3678 C 356.837 2.48375 5.31532 0
M  V30 3679 C 359.189 2.96116 5.59015 0
M  V30 3680 C 357.853 3.30585 5.79888 0
M  V30 3681 H 357.123 -0.0206476 0.740712 0
M  V30 3682 H 359.77 0.649686 1.80143 0
M  V30 3683 H 358.075 -1.05588 3.77304 0
M  V30 3684 H 359.772 -0.705549 3.94744 0
M  V30 3685 H 356.362 0.700315 4.2284 0
M  V30 3686 H 360.546 1.55239 4.71396 0
M  V30 3687 H 355.802 2.7533 5.45897 0
M  V30 3688 H 359.976 3.60509 5.95824 0
M  V30 3689 H 357.603 4.21132 6.32892 0
M  V30 3690 N 359.178 -1.55987 0.224894 0
M  V30 3691 C 360.425 -1.9839 -0.4059 0
M  V30 3692 C 360.753 -1.11261 -1.59535 0
M  V30 3693 O 360.008 -0.158314 -1.95059 0
M  V30 3694 C 360.307 -3.46394 -0.880106 0
M  V30 3695 C 359.973 -4.5046 0.19918 0
M  V30 3696 C 358.635 -4.7864 0.495661 0
M  V30 3697 C 360.987 -5.12855 0.928939 0
M  V30 3698 C 358.315 -5.66497 1.52636 0
M  V30 3699 C 360.667 -6.01828 1.949 0
M  V30 3700 C 359.331 -6.28351 2.25236 0
M  V30 3701 H 358.601 -0.725961 -0.148529 0
M  V30 3702 H 361.248 -1.88668 0.328113 0
M  V30 3703 H 359.553 -3.53337 -1.69294 0
M  V30 3704 H 361.25 -3.76577 -1.37808 0
M  V30 3705 H 357.84 -4.28579 -0.0420526 0
M  V30 3706 H 362.024 -4.9115 0.713129 0
M  V30 3707 H 357.28 -5.8531 1.76698 0
M  V30 3708 H 361.454 -6.49225 2.51951 0
M  V30 3709 H 359.081 -6.96226 3.05244 0
M  V30 3710 N 360.656 0.0484629 -1.57525 0
M  V30 3711 C 362.067 0.597486 -1.76881 0
M  V30 3712 C 362.418 1.76664 -0.853475 0
M  V30 3713 O 361.543 2.16357 -0.0433656 0
M  V30 3714 C 362.138 1.09066 -3.20765 0
M  V30 3715 C 360.697 1.58535 -3.41385 0
M  V30 3716 C 359.844 0.514868 -2.72478 0
M  V30 3717 H 362.795 -0.177758 -1.57701 0
M  V30 3718 H 362.816 1.95875 -3.2621 0
M  V30 3719 H 362.328 0.239521 -3.8736 0
M  V30 3720 H 360.429 2.45898 -2.79937 0
M  V30 3721 H 360.542 1.64622 -4.49929 0
M  V30 3722 H 358.906 0.965407 -2.35695 0
M  V30 3723 H 359.689 -0.32648 -3.41744 0
M  V30 3724 N 362.134 1.5431 0.320358 0
M  V30 3725 C 363.082 1.84647 1.4145 0
M  V30 3726 C 364.076 0.718624 1.53402 0
M  V30 3727 O 365.282 0.902335 1.5575 0
M  V30 3728 H 361.657 0.585349 0.472091 0
M  V30 3729 H 363.628 2.7614 1.13089 0
M  V30 3730 C 362.377 2.09341 2.77617 0
M  V30 3731 H 361.7 2.9559 2.69196 0
M  V30 3732 H 363.14 2.3452 3.53237 0
M  V30 3733 C 361.599 0.885939 3.25043 0
M  V30 3734 O 362.129 0.0967891 4.01583 0
M  V30 3735 N 360.335 0.696682 2.82125 0
M  V30 3736 H 359.882 1.34006 2.2 0
M  V30 3737 H 359.84 -0.109712 3.14209 0
M  V30 3738 N 363.613 -0.582584 1.46437 0
M  V30 3739 C 364.861 -1.33814 1.51453 0
M  V30 3740 C 365.182 -1.94277 0.167792 0
M  V30 3741 O 364.452 -1.78566 -0.805677 0
M  V30 3742 H 363.032 -0.496838 0.557818 0
M  V30 3743 H 365.694 -0.682281 1.82568 0
M  V30 3744 H 364.79 -2.14479 2.26728 0
M  V30 3745 N 365.091 -1.34144 -0.827227 0
M  V30 3746 C 366.339 -1.26009 -1.58007 0
M  V30 3747 C 366.66 0.170971 -1.94249 0
M  V30 3748 O 365.93 1.10256 -1.61927 0
M  V30 3749 H 364.51 -0.463414 -0.585881 0
M  V30 3750 H 367.172 -1.68005 -0.987951 0
M  V30 3751 H 366.268 -1.86187 -2.50481 0
M  V30 3752 N 366.569 1.04691 -1.17803 0
M  V30 3753 C 367.815 1.78045 -0.970969 0
M  V30 3754 C 368.148 1.87686 0.498751 0
M  V30 3755 O 367.423 1.38035 1.37027 0
M  V30 3756 C 367.706 3.2166 -1.61884 0
M  V30 3757 C 367.559 3.20001 -3.161 0
M  V30 3758 C 368.878 4.1962 -1.3269 0
M  V30 3759 H 365.997 0.64633 -0.354155 0
M  V30 3760 H 368.639 1.22333 -1.45378 0
M  V30 3761 H 366.789 3.69232 -1.20831 0
M  V30 3762 H 368.461 2.80467 -3.66246 0
M  V30 3763 H 366.704 2.58203 -3.48588 0
M  V30 3764 H 367.375 4.21386 -3.56564 0
M  V30 3765 H 369.851 3.80567 -1.68249 0
M  V30 3766 H 368.727 5.18339 -1.80599 0
M  V30 3767 H 368.988 4.414 -0.248622 0
M  V30 3768 N 368.047 0.979072 1.23499 0
M  V30 3769 C 368.957 0.526431 2.28617 0
M  V30 3770 C 369.973 -0.418126 1.68901 0
M  V30 3771 O 371.149 -0.288372 1.99325 0
M  V30 3772 C 368.214 -0.165235 3.46306 0
M  V30 3773 C 367.275 0.82056 4.21385 0
M  V30 3774 C 366.508 0.161807 5.33455 0
M  V30 3775 O 366.731 -1.04742 5.60701 0
M  V30 3776 O 365.665 0.859708 5.95729 0
M  V30 3777 H 369.491 1.4006 2.69475 0
M  V30 3778 H 367.076 0.746643 1.29405 0
M  V30 3779 H 368.958 -0.553287 4.17752 0
M  V30 3780 H 367.633 -1.01419 3.07402 0
M  V30 3781 H 366.54 1.25929 3.52268 0
M  V30 3782 H 367.873 1.63828 4.64135 0
M  V30 3783 N 369.525 -1.3858 0.750561 0
M  V30 3784 C 370.458 -2.28095 0.0693139 0
M  V30 3785 C 371.436 -1.45217 -0.731491 0
M  V30 3786 O 372.62 -1.74587 -0.71076 0
M  V30 3787 C 369.747 -3.26282 -0.90871 0
M  V30 3788 C 368.793 -4.26056 -0.194507 0
M  V30 3789 S 369.626 -5.24026 1.10257 0
M  V30 3790 C 370.782 -6.2577 0.127542 0
M  V30 3791 H 371.015 -2.85526 0.8284 0
M  V30 3792 H 368.548 -1.44536 0.543014 0
M  V30 3793 H 370.506 -3.83367 -1.46766 0
M  V30 3794 H 369.167 -2.6784 -1.64075 0
M  V30 3795 H 368.36 -4.95249 -0.93512 0
M  V30 3796 H 367.962 -3.72852 0.292837 0
M  V30 3797 H 370.254 -6.73796 -0.707516 0
M  V30 3798 H 371.197 -7.03712 0.787044 0
M  V30 3799 H 371.605 -5.63938 -0.251803 0
M  V30 3800 N 371.003 -0.499398 -1.49478 0
M  V30 3801 C 372.414 -0.051215 -1.8663 0
M  V30 3802 C 372.765 1.36238 -1.41186 0
M  V30 3803 O 371.89 2.01502 -0.789051 0
M  V30 3804 C 372.485 -0.0861651 -3.3869 0
M  V30 3805 C 371.044 0.30667 -3.75149 0
M  V30 3806 C 370.191 -0.459397 -2.73468 0
M  V30 3807 H 373.142 -0.712264 -1.41818 0
M  V30 3808 H 373.163 0.709507 -3.73826 0
M  V30 3809 H 372.675 -1.11512 -3.71735 0
M  V30 3810 H 370.776 1.33892 -3.47712 0
M  V30 3811 H 370.889 -0.0116669 -4.79099 0
M  V30 3812 H 369.253 0.0905645 -2.54539 0
M  V30 3813 H 370.036 -1.4884 -3.09357 0
M  V30 3814 N 372.481 1.55866 -0.233164 0
M  V30 3815 C 373.729 1.9821 0.394593 0
M  V30 3816 C 374.05 1.12234 1.59463 0
M  V30 3817 O 373.32 0.201981 1.94856 0
M  V30 3818 H 371.9 0.732034 0.148778 0
M  V30 3819 H 374.562 1.92107 -0.32876 0
M  V30 3820 H 373.658 3.03845 0.713063 0
M  V30 3821 N 373.959 -0.0401083 1.57549 0
M  V30 3822 C 375.199 -0.738098 1.90608 0
M  V30 3823 C 375.563 -1.73107 0.830539 0
M  V30 3824 O 376.764 -2.4765 1.04513 0
M  V30 3825 C 375.035 -1.39985 3.28845 0
M  V30 3826 S 376.594 -2.12852 3.83718 0
M  V30 3827 H 373.412 -0.24477 0.667539 0
M  V30 3828 H 376.014 0.00693599 1.95499 0
M  V30 3829 H 374.718 -0.663775 4.04997 0
M  V30 3830 H 374.249 -2.18366 3.2723 0
M  V30 3831 H 376.264 -3.39842 3.61555 0
M  V30 3832 N 375.437 -1.54477 -0.31217 0
M  V30 3833 C 376.384 -1.84655 -1.38461 0
M  V30 3834 C 377.354 -0.694536 -1.50882 0
M  V30 3835 O 378.539 -0.942081 -1.6592 0
M  V30 3836 C 375.679 -2.0896 -2.74645 0
M  V30 3837 C 374.792 -3.36618 -2.70763 0
M  V30 3838 C 373.927 -3.50824 -3.98868 0
M  V30 3839 C 372.966 -4.72315 -3.89339 0
M  V30 3840 N 372.103 -4.83387 -5.09197 0
M  V30 3841 H 376.943 -2.76142 -1.12026 0
M  V30 3842 H 374.48 -1.36748 -0.542065 0
M  V30 3843 H 376.438 -2.21045 -3.53829 0
M  V30 3844 H 375.068 -1.20752 -2.99364 0
M  V30 3845 H 374.12 -3.33211 -1.83506 0
M  V30 3846 H 375.432 -4.25917 -2.59608 0
M  V30 3847 H 374.586 -3.62513 -4.86486 0
M  V30 3848 H 373.325 -2.59638 -4.12843 0
M  V30 3849 H 372.33 -4.6067 -3.00105 0
M  V30 3850 H 373.555 -5.64897 -3.76919 0
M  V30 3851 H 371.501 -3.9512 -5.23657 0
M  V30 3852 H 371.418 -5.66669 -5.00422 0
M  V30 3853 H 372.686 -4.9942 -5.98498 0
M  V30 3854 N 376.915 0.57481 -1.46744 0
M  V30 3855 C 377.862 1.68329 -1.57905 0
M  V30 3856 C 378.832 1.60625 -0.422927 0
M  V30 3857 O 380.017 1.79721 -0.640711 0
M  V30 3858 C 377.157 3.06665 -1.58274 0
M  V30 3859 C 376.27 3.24935 -2.84678 0
M  V30 3860 C 375.405 4.53566 -2.76499 0
M  V30 3861 C 374.444 4.65207 -3.97806 0
M  V30 3862 N 373.581 5.85172 -3.87967 0
M  V30 3863 H 378.421 1.58127 -2.52587 0
M  V30 3864 H 375.958 0.770552 -1.25303 0
M  V30 3865 H 377.916 3.86745 -1.56473 0
M  V30 3866 H 376.546 3.15745 -0.671194 0
M  V30 3867 H 375.598 2.38405 -2.96424 0
M  V30 3868 H 376.91 3.29403 -3.7456 0
M  V30 3869 H 376.064 5.41885 -2.72848 0
M  V30 3870 H 374.803 4.51548 -1.8427 0
M  V30 3871 H 373.808 3.75304 -4.0178 0
M  V30 3872 H 375.033 4.68997 -4.9114 0
M  V30 3873 H 372.979 5.84137 -2.98529 0
M  V30 3874 H 372.896 5.90943 -4.71511 0
M  V30 3875 H 374.164 6.759 -3.88303 0
M  V30 3876 N 378.394 1.34581 0.820102 0
M  V30 3877 C 379.342 1.26401 1.95258 0
M  V30 3878 C 380.336 0.161553 1.68628 0
M  V30 3879 O 381.542 0.326703 1.7701 0
M  V30 3880 H 377.917 0.392749 0.64129 0
M  V30 3881 H 379.888 2.22105 1.99279 0
M  V30 3882 C 378.637 1.03919 3.31807 0
M  V30 3883 H 377.96 1.87984 3.52848 0
M  V30 3884 H 379.4 1.02232 4.11491 0
M  V30 3885 C 377.859 -0.257433 3.35915 0
M  V30 3886 O 378.389 -1.25784 3.81499 0
M  V30 3887 N 376.595 -0.291524 2.89134 0
M  V30 3888 H 376.142 0.523161 2.52232 0
M  V30 3889 H 376.1 -1.15883 2.92264 0
M  V30 3890 N 379.872 -1.04064 1.18357 0
M  V30 3891 C 381.121 -1.76662 0.973313 0
M  V30 3892 C 381.434 -1.89154 -0.497991 0
M  V30 3893 O 382.64 -2.58606 -0.826762 0
M  V30 3894 C 381.096 -3.17624 1.69242 0
M  V30 3895 C 380.704 -3.13225 3.20303 0
M  V30 3896 C 382.448 -3.946 1.56497 0
M  V30 3897 C 380.355 -4.49046 3.84853 0
M  V30 3898 H 379.285 -0.662214 0.36054 0
M  V30 3899 H 381.936 -1.16553 1.41731 0
M  V30 3900 H 380.318 -3.78129 1.1762 0
M  V30 3901 H 381.492 -2.62172 3.78949 0
M  V30 3902 H 379.807 -2.49749 3.33189 0
M  V30 3903 H 382.404 -4.95042 2.02084 0
M  V30 3904 H 382.747 -4.13074 0.517243 0
M  V30 3905 H 383.28 -3.4067 2.05399 0
M  V30 3906 H 380.019 -4.35777 4.89672 0
M  V30 3907 H 379.539 -5.00203 3.30994 0
M  V30 3908 H 381.218 -5.17961 3.87718 0
M  V30 3909 N 381.35 -0.985608 -1.22978 0
M  V30 3910 C 382.28 -0.549649 -2.26939 0
M  V30 3911 C 383.261 0.419803 -1.64838 0
M  V30 3912 O 384.446 0.31203 -1.91677 0
M  V30 3913 C 381.576 0.143652 -3.47003 0
M  V30 3914 C 380.53 -0.743606 -4.21491 0
M  V30 3915 C 379.856 0.0822027 -5.34637 0
M  V30 3916 C 381.156 -2.03694 -4.80943 0
M  V30 3917 H 382.85 -1.41862 -2.63658 0
M  V30 3918 H 380.396 -0.683571 -1.26741 0
M  V30 3919 H 382.349 0.459985 -4.18882 0
M  V30 3920 H 381.073 1.04711 -3.09359 0
M  V30 3921 H 379.732 -1.04347 -3.51436 0
M  V30 3922 H 379.38 0.986359 -4.93234 0
M  V30 3923 H 379.08 -0.508377 -5.85397 0
M  V30 3924 H 380.604 0.392797 -6.09335 0
M  V30 3925 H 382.018 -1.78504 -5.44802 0
M  V30 3926 H 380.415 -2.57573 -5.42011 0
M  V30 3927 H 381.485 -2.72042 -4.01399 0
M  V30 3928 N 382.828 1.3818 -0.7579 0
M  V30 3929 C 384.053 2.04827 -0.325679 0
M  V30 3930 C 384.478 1.56788 1.03919 0
M  V30 3931 O 383.836 0.721811 1.66312 0
M  V30 3932 C 383.884 3.58774 -0.362447 0
M  V30 3933 O 382.988 4.07372 0.642033 0
M  V30 3934 H 382.329 0.64833 -0.143402 0
M  V30 3935 H 384.859 1.7677 -1.03023 0
M  V30 3936 H 384.869 4.07434 -0.214844 0
M  V30 3937 H 383.544 3.93096 -1.35824 0
M  V30 3938 H 382.121 3.70068 0.458688 0
M  V30 3939 N 384.306 0.507319 1.49211 0
M  V30 3940 C 385.238 -0.304532 2.27168 0
M  V30 3941 C 386.251 -0.924956 1.33972 0
M  V30 3942 O 387.44 -0.807227 1.59205 0
M  V30 3943 C 384.54 -1.44431 3.06583 0
M  V30 3944 C 383.713 -0.930026 4.27398 0
M  V30 3945 C 382.772 -1.94817 4.88807 0
M  V30 3946 O 381.798 -1.51418 5.4869 0
M  V30 3947 N 383 -3.279 4.79022 0
M  V30 3948 H 385.765 0.36395 2.97482 0
M  V30 3949 H 383.326 0.340249 1.58284 0
M  V30 3950 H 385.318 -2.12311 3.44537 0
M  V30 3951 H 383.888 -2.01684 2.38835 0
M  V30 3952 H 383.108 -0.0759244 3.94127 0
M  V30 3953 H 384.396 -0.564932 5.05654 0
M  V30 3954 H 383.794 -3.65843 4.3148 0
M  V30 3955 H 382.351 -3.91476 5.21142 0
M  V30 3956 N 385.784 -1.5574 0.241426 0
M  V30 3957 C 387.033 -1.97986 -0.385295 0
M  V30 3958 C 387.346 -1.13267 -1.59468 0
M  V30 3959 O 388.552 -1.45501 -2.2922 0
M  V30 3960 C 387.008 -3.52275 -0.736884 0
M  V30 3961 C 386.616 -4.45726 0.450796 0
M  V30 3962 C 388.36 -4.03189 -1.3281 0
M  V30 3963 C 386.267 -5.91352 0.0756662 0
M  V30 3964 H 385.197 -0.739386 -0.147731 0
M  V30 3965 H 387.848 -1.80308 0.340779 0
M  V30 3966 H 386.23 -3.65628 -1.52094 0
M  V30 3967 H 387.404 -4.44131 1.22819 0
M  V30 3968 H 385.719 -4.05264 0.956573 0
M  V30 3969 H 388.316 -5.09505 -1.62201 0
M  V30 3970 H 388.659 -3.50212 -2.25071 0
M  V30 3971 H 389.192 -3.93141 -0.607069 0
M  V30 3972 H 385.931 -6.48354 0.965272 0
M  V30 3973 H 385.451 -5.96095 -0.665635 0
M  V30 3974 H 387.13 -6.46084 -0.344075 0
M  V30 3975 N 387.262 0.0317525 -1.57568 0
M  V30 3976 C 388.508 0.724175 -1.8943 0
M  V30 3977 C 388.841 1.75149 -0.838836 0
M  V30 3978 O 388.116 1.93948 0.146422 0
M  V30 3979 C 388.399 1.39615 -3.31933 0
M  V30 3980 C 388.252 0.382537 -4.4817 0
M  V30 3981 C 389.571 2.33084 -3.73309 0
M  V30 3982 H 386.69 0.261797 -0.688935 0
M  V30 3983 H 389.332 -0.013017 -1.89996 0
M  V30 3984 H 387.482 2.02451 -3.31581 0
M  V30 3985 H 389.154 -0.243689 -4.60656 0
M  V30 3986 H 387.397 -0.29844 -4.32772 0
M  V30 3987 H 388.068 0.891145 -5.44759 0
M  V30 3988 H 390.544 1.80295 -3.7501 0
M  V30 3989 H 389.42 2.77084 -4.73831 0
M  V30 3990 H 389.681 3.19643 -3.05419 0
M  V30 3991 N 388.74 1.54641 0.303973 0
M  V30 3992 C 390.017 1.64455 1.05896 0
M  V30 3993 C 390.397 0.490923 2.05312 0
M  V30 3994 O 389.745 -0.512685 2.22674 0
M  V30 3995 C 389.955 3.02331 1.74347 0
M  V30 3996 C 391.303 3.59045 2.26653 0
M  V30 3997 O 392.327 3.04764 1.84384 0
M  V30 3998 O 391.186 4.54081 3.04093 0
M  V30 3999 H 388.28 0.666729 0.489287 0
M  V30 4000 H 390.826 1.66986 0.302298 0
M  V30 4001 H 389.598 3.77734 1.02142 0
M  V30 4002 H 389.221 3.03565 2.56777 0
M  V30 4003 N 390.218 -0.567019 1.47046 0
M  V30 4004 C 391.467 -1.32091 1.5243 0
M  V30 4005 C 391.78 -1.94704 0.187021 0
M  V30 4006 O 392.986 -2.7124 0.118771 0
M  V30 4007 C 391.442 -2.39479 2.68659 0
M  V30 4008 C 391.05 -1.831 4.08874 0
M  V30 4009 C 392.794 -3.16111 2.83327 0
M  V30 4010 C 390.701 -2.8821 5.16419 0
M  V30 4011 H 389.631 -0.496629 0.56734 0
M  V30 4012 H 392.282 -0.603354 1.73297 0
M  V30 4013 H 390.664 -3.14105 2.41152 0
M  V30 4014 H 391.838 -1.14913 4.46242 0
M  V30 4015 H 390.153 -1.19085 3.99008 0
M  V30 4016 H 392.75 -3.94585 3.60842 0
M  V30 4017 H 393.093 -3.69686 1.91411 0
M  V30 4018 H 393.626 -2.48595 3.10556 0
M  V30 4019 H 390.365 -2.39504 6.10179 0
M  V30 4020 H 389.885 -3.54839 4.8358 0
M  V30 4021 H 391.564 -3.51881 5.42945 0
M  V30 4022 N 391.696 -1.35014 -0.812953 0
M  V30 4023 C 392.973 -1.18502 -1.55617 0
M  V30 4024 C 393.353 0.238421 -2.09749 0
M  V30 4025 O 392.701 1.2411 -1.91857 0
M  V30 4026 C 392.911 -2.24783 -2.66971 0
M  V30 4027 C 394.259 -2.60268 -3.35478 0
M  V30 4028 O 395.283 -2.23648 -2.77236 0
M  V30 4029 O 394.142 -3.2321 -4.40678 0
M  V30 4030 H 391.236 -0.459984 -0.687272 0
M  V30 4031 H 393.782 -1.46677 -0.853464 0
M  V30 4032 H 392.554 -3.20284 -2.24798 0
M  V30 4033 H 392.177 -1.97841 -3.44884 0
M  V30 4034 N 393.175 1.03435 -1.18907 0
M  V30 4035 C 394.423 1.76394 -0.986382 0
M  V30 4036 C 394.744 1.88883 0.484567 0
M  V30 4037 O 394.014 1.41843 1.3512 0
M  V30 4038 H 392.594 0.65344 -0.361975 0
M  V30 4039 H 395.256 1.248 -1.49703 0
M  V30 4040 H 394.352 2.77424 -1.42978 0
M  V30 4041 N 394.653 0.992116 1.22453 0
M  V30 4042 C 395.902 0.662992 1.90492 0
M  V30 4043 C 396.215 -0.808407 1.78113 0
M  V30 4044 O 397.421 -1.24908 2.41061 0
M  V30 4045 C 395.877 1.1353 3.41524 0
M  V30 4046 C 395.485 2.63187 3.62542 0
M  V30 4047 C 397.229 0.880465 4.15269 0
M  V30 4048 C 395.136 3.04024 5.0727 0
M  V30 4049 H 394.066 0.244278 0.713333 0
M  V30 4050 H 396.717 1.20157 1.38688 0
M  V30 4051 H 395.099 0.52485 3.92506 0
M  V30 4052 H 396.273 3.2957 3.22056 0
M  V30 4053 H 394.588 2.86543 3.02129 0
M  V30 4054 H 397.185 1.16128 5.21937 0
M  V30 4055 H 397.528 -0.183408 4.15896 0
M  V30 4056 H 398.061 1.45307 3.70312 0
M  V30 4057 H 394.8 4.09584 5.11782 0
M  V30 4058 H 394.32 2.42343 5.48662 0
M  V30 4059 H 395.999 2.95282 5.75689 0
M  V30 4060 N 396.131 -1.37776 0.765217 0
M  V30 4061 C 397.377 -2.00604 0.336066 0
M  V30 4062 C 397.732 -1.59657 -1.07366 0
M  V30 4063 O 397.025 -0.829565 -1.7271 0
M  V30 4064 C 397.219 -3.5504 0.410053 0
M  V30 4065 C 397.048 -4.10985 1.82542 0
M  V30 4066 C 395.818 -4.42229 2.44461 0
M  V30 4067 C 398.016 -4.32438 2.78392 0
M  V30 4068 N 395.998 -4.8385 3.77839 0
M  V30 4069 C 397.369 -4.76596 3.96556 0
M  V30 4070 C 399.424 -4.14559 2.75764 0
M  V30 4071 C 398.127 -5.04748 5.12466 0
M  V30 4072 C 400.153 -4.43843 3.90842 0
M  V30 4073 C 399.515 -4.88235 5.07746 0
M  V30 4074 H 395.614 -0.763325 0.169881 0
M  V30 4075 H 398.198 -1.67197 0.997656 0
M  V30 4076 H 396.369 -3.87769 -0.221325 0
M  V30 4077 H 398.101 -4.0468 -0.0405285 0
M  V30 4078 H 394.856 -4.31079 1.96131 0
M  V30 4079 H 395.28 -5.08979 4.46396 0
M  V30 4080 H 399.922 -3.79415 1.86558 0
M  V30 4081 H 397.64 -5.38783 6.02277 0
M  V30 4082 H 401.226 -4.31603 3.90141 0
M  V30 4083 H 400.106 -5.10461 5.95315 0
M  V30 4084 N 397.609 -0.515225 -1.4894 0
M  V30 4085 C 398.519 0.259774 -2.33157 0
M  V30 4086 C 399.535 0.953501 -1.45548 0
M  V30 4087 O 400.711 0.931735 -1.78552 0
M  V30 4088 C 397.776 1.30193 -3.21326 0
M  V30 4089 C 396.837 0.620129 -4.24797 0
M  V30 4090 C 396.07 1.61263 -5.08753 0
M  V30 4091 O 396.293 2.84389 -4.94448 0
M  V30 4092 O 395.227 1.16013 -5.90614 0
M  V30 4093 H 399.053 -0.429932 -3.00641 0
M  V30 4094 H 396.638 -0.276346 -1.46822 0
M  V30 4095 H 398.52 1.90455 -3.75905 0
M  V30 4096 H 397.195 1.97431 -2.56521 0
M  V30 4097 H 396.102 -0.0226019 -3.74093 0
M  V30 4098 H 397.435 -0.0100493 -4.92199 0
M  V30 4099 N 399.087 1.5561 -0.249682 0
M  V30 4100 C 400.335 1.98618 0.373548 0
M  V30 4101 C 400.656 1.13919 1.58264 0
M  V30 4102 O 399.926 0.222637 1.94631 0
M  V30 4103 H 398.506 0.733571 0.141006 0
M  V30 4104 H 401.168 1.91748 -0.349117 0
M  V30 4105 H 400.264 3.04584 0.680796 0
M  V30 4106 N 400.565 -0.0233959 1.57583 0
M  V30 4107 C 401.793 -0.724682 1.93794 0
M  V30 4108 C 402.208 -1.68588 0.849912 0
M  V30 4109 O 401.565 -1.81676 -0.173204 0
M  V30 4110 C 401.616 -1.47684 3.29957 0
M  V30 4111 O 401.337 -0.554222 4.3458 0
M  V30 4112 C 402.838 -2.27477 3.80485 0
M  V30 4113 H 400.058 -0.203317 0.639455 0
M  V30 4114 H 402.602 0.0207653 2.04489 0
M  V30 4115 H 400.757 -2.17412 3.20641 0
M  V30 4116 H 401.171 -1.08232 5.13212 0
M  V30 4117 H 402.645 -2.7564 4.78254 0
M  V30 4118 H 403.122 -3.09144 3.11972 0
M  V30 4119 H 403.728 -1.62813 3.92902 0
M  V30 4120 N 402.043 -1.548 -0.295768 0
M  V30 4121 C 403.459 -1.4613 -0.641722 0
M  V30 4122 C 403.659 -0.656771 -1.90496 0
M  V30 4123 O 402.715 -0.166547 -2.5195 0
M  V30 4124 C 404.028 -2.90141 -0.789852 0
M  V30 4125 C 405.576 -3.00216 -0.885396 0
M  V30 4126 C 406.051 -4.45434 -1.06548 0
M  V30 4127 N 407.542 -4.49166 -1.13156 0
M  V30 4128 C 408.277 -5.58717 -1.28929 0
M  V30 4129 N 407.773 -6.78182 -1.41567 0
M  V30 4130 N 409.566 -5.46415 -1.31859 0
M  V30 4131 H 401.717 -2.05574 0.534147 0
M  V30 4132 H 403.98 -0.931259 0.177372 0
M  V30 4133 H 403.686 -3.51635 0.0675598 0
M  V30 4134 H 403.56 -3.37859 -1.67724 0
M  V30 4135 H 405.947 -2.38833 -1.73329 0
M  V30 4136 H 406.028 -2.55787 0.0261185 0
M  V30 4137 H 405.672 -5.07413 -0.222335 0
M  V30 4138 H 405.602 -4.87499 -1.9913 0
M  V30 4139 H 408.093 -3.631 -1.04721 0
M  V30 4140 H 408.406 -7.57428 -1.53372 0
M  V30 4141 H 406.751 -6.81037 -1.38613 0
M  V30 4142 H 409.942 -4.5203 -1.21601 0
M  V30 4143 H 410.115 -6.31841 -1.43808 0
M  V30 4144 N 403.521 0.559213 -1.47345 0
M  V30 4145 C 404.798 1.31997 -1.44348 0
M  V30 4146 C 405.178 2.1064 -0.139358 0
M  V30 4147 O 404.526 2.1091 0.879153 0
M  V30 4148 C 404.736 2.22618 -2.68779 0
M  V30 4149 C 406.084 2.83701 -3.1591 0
M  V30 4150 O 407.108 2.32921 -2.69493 0
M  V30 4151 O 405.967 3.75993 -3.966 0
M  V30 4152 H 403.061 0.594251 -0.575147 0
M  V30 4153 H 405.607 0.578282 -1.59543 0
M  V30 4154 H 404.379 1.64093 -3.55231 0
M  V30 4155 H 404.002 3.04085 -2.5616 0
M  V30 4156 N 404.999 1.35443 0.805782 0
M  V30 4157 C 406.246 1.28761 1.56291 0
M  V30 4158 C 406.574 -0.137747 1.94012 0
M  V30 4159 O 405.829 -1.1032 1.61642 0
M  V30 4160 C 406.128 2.14045 2.86216 0
M  V30 4161 C 405.794 3.62826 2.67709 0
M  V30 4162 C 404.456 4.0338 2.6237 0
M  V30 4163 C 406.808 4.57227 2.50186 0
M  V30 4164 C 404.136 5.36501 2.37451 0
M  V30 4165 C 406.488 5.90547 2.26797 0
M  V30 4166 C 405.152 6.30245 2.1988 0
M  V30 4167 H 404.422 0.471171 0.571908 0
M  V30 4168 H 407.069 1.67347 0.930974 0
M  V30 4169 H 405.374 1.68342 3.53791 0
M  V30 4170 H 407.071 2.0621 3.43917 0
M  V30 4171 H 403.661 3.30644 2.72713 0
M  V30 4172 H 407.845 4.2678 2.53323 0
M  V30 4173 H 403.101 5.66259 2.30567 0
M  V30 4174 H 407.275 6.63274 2.12228 0
M  V30 4175 H 404.902 7.33328 2.00333 0
M  V30 4176 N 406.477 -1.02803 1.19454 0
M  V30 4177 C 407.44 -2.09264 0.934955 0
M  V30 4178 C 408.44 -1.60576 -0.0849015 0
M  V30 4179 O 409.63 -1.73554 0.149933 0
M  V30 4180 C 406.762 -3.38482 0.40531 0
M  V30 4181 H 407.955 -2.33726 1.87916 0
M  V30 4182 H 405.508 -1.19426 1.00832 0
M  V30 4183 H 406.243 -3.19689 -0.544899 0
M  V30 4184 H 406.028 -3.75142 1.14065 0
M  V30 4185 H 407.518 -4.16894 0.242806 0
M  V30 4186 N 407.956 -0.998596 -1.21925 0
M  V30 4187 C 408.919 -0.558679 -2.22287 0
M  V30 4188 C 409.919 0.361525 -1.56683 0
M  V30 4189 O 411.109 0.152695 -1.73529 0
M  V30 4190 C 408.241 0.18661 -3.40389 0
M  V30 4191 H 409.434 -1.4463 -2.62721 0
M  V30 4192 H 406.987 -0.786413 -1.35075 0
M  V30 4193 H 407.722 1.08996 -3.05435 0
M  V30 4194 H 407.507 -0.474188 -3.89222 0
M  V30 4195 H 408.997 0.482367 -4.14805 0
M  V30 4196 N 409.434 1.37368 -0.772513 0
M  V30 4197 C 410.674 2.01512 -0.342361 0
M  V30 4198 C 411.038 1.59997 1.06136 0
M  V30 4199 O 412.239 2.16609 1.59167 0
M  V30 4200 C 410.51 3.54134 -0.482048 0
M  V30 4201 S 412.069 4.38585 -0.137272 0
M  V30 4202 H 408.887 0.698699 -0.131686 0
M  V30 4203 H 411.489 1.67552 -1.0073 0
M  V30 4204 H 410.193 3.81837 -1.50428 0
M  V30 4205 H 409.724 3.92894 0.199413 0
M  V30 4206 H 411.739 4.84594 1.06692 0
M  V30 4207 N 410.912 0.523116 1.48665 0
M  V30 4208 C 411.86 -0.256859 2.31177 0
M  V30 4209 C 412.854 -0.94199 1.40794 0
M  V30 4210 O 414.06 -0.867157 1.57735 0
M  V30 4211 H 410.435 -0.1017 0.745091 0
M  V30 4212 H 412.406 0.458739 2.94853 0
M  V30 4213 C 411.155 -1.29503 3.22683 0
M  V30 4214 H 410.478 -0.777248 3.92172 0
M  V30 4215 H 411.918 -1.81233 3.83315 0
M  V30 4216 C 410.377 -2.32501 2.43813 0
M  V30 4217 O 410.907 -3.3881 2.15803 0
M  V30 4218 N 409.113 -2.05538 2.05432 0
M  V30 4219 H 408.66 -1.19104 2.28412 0
M  V30 4220 H 408.618 -2.74676 1.52973 0
M  V30 4221 N 412.39 -1.55475 0.257931 0
M  V30 4222 C 413.34 -2.18506 -0.651094 0
M  V30 4223 C 414.324 -1.14431 -1.13112 0
M  V30 4224 O 415.516 -1.40305 -1.07905 0
M  V30 4225 C 412.645 -2.89653 -1.84272 0
M  V30 4226 C 411.731 -4.00996 -1.38068 0
M  V30 4227 N 412.122 -5.01816 -0.633609 0
M  V30 4228 C 410.42 -4.13753 -1.66506 0
M  V30 4229 C 411.121 -5.80371 -0.392922 0
M  V30 4230 N 410.097 -5.3505 -0.960359 0
M  V30 4231 H 413.899 -2.93811 -0.0722883 0
M  V30 4232 H 411.413 -1.62286 0.0607256 0
M  V30 4233 H 413.41 -3.33245 -2.50506 0
M  V30 4234 H 412.07 -2.15854 -2.42564 0
M  V30 4235 H 413.081 -5.17128 -0.282626 0
M  V30 4236 H 409.758 -3.51133 -2.25858 0
M  V30 4237 H 411.148 -6.7159 0.204235 0
M  V30 4238 N 413.868 0.0150385 -1.57593 0
M  V30 4239 C 414.798 1.01047 -2.10503 0
M  V30 4240 C 415.779 1.36816 -1.01071 0
M  V30 4241 O 416.964 1.45455 -1.28672 0
M  V30 4242 C 414.094 2.30708 -2.59598 0
M  V30 4243 C 413.048 2.09142 -3.73421 0
M  V30 4244 C 412.374 3.44685 -4.08774 0
M  V30 4245 C 413.674 1.46619 -5.01298 0
M  V30 4246 H 415.368 0.569978 -2.93925 0
M  V30 4247 H 412.914 0.272724 -1.41394 0
M  V30 4248 H 414.867 3.00687 -2.95238 0
M  V30 4249 H 413.591 2.76843 -1.73279 0
M  V30 4250 H 412.25 1.41592 -3.38153 0
M  V30 4251 H 411.898 3.88495 -3.195 0
M  V30 4252 H 411.598 3.31077 -4.8545 0
M  V30 4253 H 413.122 4.16004 -4.4696 0
M  V30 4254 H 414.536 2.06535 -5.34805 0
M  V30 4255 H 412.933 1.43544 -5.82679 0
M  V30 4256 H 414.003 0.433611 -4.82957 0
M  V30 4257 N 415.346 1.54954 0.287554 0
M  V30 4258 C 416.762 1.46469 0.633964 0
M  V30 4259 C 416.962 0.666865 1.90145 0
M  V30 4260 O 416.018 0.179906 2.51858 0
M  V30 4261 C 417.331 2.90556 0.774454 0
M  V30 4262 C 418.879 3.00681 0.869462 0
M  V30 4263 C 419.354 4.45993 1.04184 0
M  V30 4264 N 420.845 4.4976 1.10772 0
M  V30 4265 C 421.58 5.59393 1.25964 0
M  V30 4266 N 421.076 6.78923 1.37968 0
M  V30 4267 N 422.869 5.47107 1.28959 0
M  V30 4268 H 415.02 2.05288 -0.545041 0
M  V30 4269 H 417.283 0.930305 -0.182308 0
M  V30 4270 H 416.989 3.51594 -0.086207 0
M  V30 4271 H 416.863 3.38743 1.6593 0
M  V30 4272 H 419.25 2.39749 1.7206 0
M  V30 4273 H 419.331 2.55769 -0.0396831 0
M  V30 4274 H 418.975 5.07524 0.195422 0
M  V30 4275 H 418.905 4.88548 1.96542 0
M  V30 4276 H 421.396 3.63651 1.02794 0
M  V30 4277 H 421.709 7.58231 1.49353 0
M  V30 4278 H 420.054 6.81763 1.34999 0
M  V30 4279 H 423.245 4.52668 1.19202 0
M  V30 4280 H 423.418 6.32595 1.40455 0
M  V30 4281 N 416.824 -0.551391 1.4764 0
M  V30 4282 C 418.049 -1.33837 1.58437 0
M  V30 4283 C 418.474 -1.866 0.237063 0
M  V30 4284 O 417.832 -1.6328 -0.787994 0
M  V30 4285 C 417.88 -2.48014 2.61766 0
M  V30 4286 O 416.984 -3.50419 2.1744 0
M  V30 4287 H 416.325 -0.397299 0.532024 0
M  V30 4288 H 418.855 -0.665759 1.93465 0
M  V30 4289 H 418.865 -2.94503 2.82369 0
M  V30 4290 H 417.54 -2.08969 3.5959 0
M  V30 4291 H 416.117 -3.10196 2.06961 0
M  V30 4292 N 418.302 -1.35869 -0.798587 0
M  V30 4293 C 419.532 -1.32529 -1.58491 0
M  V30 4294 C 419.94 0.0975405 -1.88948 0
M  V30 4295 O 419.283 1.06224 -1.49874 0
M  V30 4296 C 419.345 -2.07247 -2.9375 0
M  V30 4297 C 419.009 -3.56391 -2.86068 0
M  V30 4298 C 420.006 -4.50824 -2.58947 0
M  V30 4299 C 417.691 -3.9915 -3.04933 0
M  V30 4300 C 419.685 -5.85993 -2.5078 0
M  V30 4301 C 417.372 -5.34413 -2.96389 0
M  V30 4302 C 418.37 -6.27646 -2.69349 0
M  V30 4303 O 418.058 -7.60426 -2.60782 0
M  V30 4304 H 417.79 -0.456529 -0.498556 0
M  V30 4305 H 420.344 -1.79425 -0.999799 0
M  V30 4306 H 418.574 -1.55001 -3.54276 0
M  V30 4307 H 420.263 -1.96883 -3.54954 0
M  V30 4308 H 421.029 -4.19104 -2.44084 0
M  V30 4309 H 416.908 -3.26961 -3.24989 0
M  V30 4310 H 420.452 -6.58735 -2.29595 0
M  V30 4311 H 416.349 -5.65743 -3.10813 0
M  V30 4312 H 417.117 -7.70444 -2.76331 0
M  V30 4313 N 419.78 1.02168 -1.19998 0
M  V30 4314 C 420.727 2.10601 -0.944228 0
M  V30 4315 C 421.697 1.65639 0.123664 0
M  V30 4316 O 422.882 1.9079 -0.0199941 0
M  V30 4317 C 420.022 3.41504 -0.496865 0
M  V30 4318 C 419.135 3.99973 -1.63234 0
M  V30 4319 C 418.27 5.18915 -1.13579 0
M  V30 4320 C 417.309 5.69456 -2.24468 0
M  V30 4321 N 416.446 6.79665 -1.76068 0
M  V30 4322 H 421.286 2.31814 -1.8726 0
M  V30 4323 H 418.823 1.13686 -0.933483 0
M  V30 4324 H 420.781 4.16626 -0.218843 0
M  V30 4325 H 419.411 3.2038 0.394508 0
M  V30 4326 H 418.463 3.21997 -2.0254 0
M  V30 4327 H 419.775 4.33492 -2.46752 0
M  V30 4328 H 418.929 6.01222 -0.813429 0
M  V30 4329 H 417.668 4.8695 -0.270434 0
M  V30 4330 H 416.673 4.85757 -2.57526 0
M  V30 4331 H 417.898 6.03459 -3.11472 0
M  V30 4332 H 415.844 6.49538 -0.918516 0
M  V30 4333 H 415.761 7.12349 -2.5317 0
M  V30 4334 H 417.029 7.65549 -1.46817 0
M  V30 4335 N 421.258 1.00505 1.21394 0
M  V30 4336 C 422.488 0.705584 1.94178 0
M  V30 4337 C 422.896 -0.735846 1.74304 0
M  V30 4338 O 422.239 -1.50954 1.04683 0
M  V30 4339 C 422.301 0.94689 3.46806 0
M  V30 4340 C 421.965 2.37517 3.90429 0
M  V30 4341 C 422.962 3.35539 3.97127 0
M  V30 4342 C 420.647 2.71284 4.22742 0
M  V30 4343 C 422.641 4.65395 4.3553 0
M  V30 4344 C 420.328 4.01356 4.60822 0
M  V30 4345 C 421.326 4.98223 4.67186 0
M  V30 4346 O 421.014 6.25969 5.04399 0
M  V30 4347 H 420.746 0.259216 0.624326 0
M  V30 4348 H 423.3 1.34592 1.55159 0
M  V30 4349 H 421.53 0.249386 3.85895 0
M  V30 4350 H 423.219 0.640804 4.0081 0
M  V30 4351 H 423.985 3.10786 3.7234 0
M  V30 4352 H 419.864 1.96581 4.16985 0
M  V30 4353 H 423.408 5.41002 4.40412 0
M  V30 4354 H 419.305 4.25893 4.85063 0
M  V30 4355 H 420.073 6.30085 5.22431 0
M  V30 4356 N 422.737 -1.36956 0.779787 0
M  V30 4357 C 423.967 -2.03459 0.358877 0
M  V30 4358 C 424.375 -1.58939 -1.02641 0
M  V30 4359 O 423.718 -0.769777 -1.66794 0
M  V30 4360 C 423.78 -3.5796 0.332393 0
M  V30 4361 C 423.444 -4.25644 1.66362 0
M  V30 4362 C 424.441 -4.49205 2.61746 0
M  V30 4363 C 422.126 -4.63313 1.94027 0
M  V30 4364 C 424.12 -5.09503 3.82996 0
M  V30 4365 C 421.807 -5.2333 3.15546 0
M  V30 4366 C 422.805 -5.46363 4.0985 0
M  V30 4367 O 422.493 -6.05122 5.29228 0
M  V30 4368 H 422.225 -0.659767 0.147254 0
M  V30 4369 H 424.779 -1.76111 1.05708 0
M  V30 4370 H 423.009 -3.84388 -0.422237 0
M  V30 4371 H 424.698 -4.05852 -0.0625389 0
M  V30 4372 H 425.464 -4.20508 2.41657 0
M  V30 4373 H 421.343 -4.44715 1.21448 0
M  V30 4374 H 424.887 -5.27397 4.56617 0
M  V30 4375 H 420.784 -5.51451 3.35517 0
M  V30 4376 H 421.552 -6.23595 5.30161 0
M  V30 4377 N 424.215 -0.530993 -1.48385 0
M  V30 4378 C 425.443 -0.00134122 -2.069 0
M  V30 4379 C 425.858 1.2805 -1.3874 0
M  V30 4380 O 425.215 1.76204 -0.475244 0
M  V30 4381 C 425.266 0.225256 -3.60798 0
M  V30 4382 O 424.987 -1.0058 -4.26398 0
M  V30 4383 C 426.488 0.795172 -4.3611 0
M  V30 4384 H 423.708 -0.0339704 -0.67014 0
M  V30 4385 H 426.252 -0.736926 -1.90761 0
M  V30 4386 H 424.407 0.910891 -3.76539 0
M  V30 4387 H 424.821 -0.787165 -5.1856 0
M  V30 4388 H 426.295 0.903143 -5.44562 0
M  V30 4389 H 426.772 1.80031 -4.00606 0
M  V30 4390 H 427.378 0.146069 -4.25049 0
M  V30 4391 N 425.693 1.55336 -0.266172 0
M  V30 4392 C 426.97 1.91372 0.404486 0
M  V30 4393 C 427.35 1.18935 1.74407 0
M  V30 4394 O 426.698 0.3132 2.26343 0
M  V30 4395 C 426.908 3.44581 0.553593 0
M  V30 4396 C 428.256 4.16196 0.840618 0
M  V30 4397 O 429.28 3.50426 0.638739 0
M  V30 4398 O 428.139 5.32567 1.22618 0
M  V30 4399 H 425.233 0.797194 0.220025 0
M  V30 4400 H 427.779 1.66813 -0.311664 0
M  V30 4401 H 426.551 3.89357 -0.389498 0
M  V30 4402 H 426.174 3.75065 1.31955 0
M  V30 4403 N 427.171 -0.0066808 1.57599 0
M  V30 4404 C 428.396 -0.707738 1.94951 0
M  V30 4405 C 428.821 -1.66882 0.867868 0
M  V30 4406 O 428.179 -1.80457 -0.17458 0
M  V30 4407 C 428.227 -1.42162 3.31394 0
M  V30 4408 O 427.331 -2.53578 3.25226 0
M  V30 4409 H 426.672 -0.188752 0.636607 0
M  V30 4410 H 429.202 0.0445193 2.04552 0
M  V30 4411 H 429.212 -1.78655 3.66806 0
M  V30 4412 H 427.887 -0.716903 4.09675 0
M  V30 4413 H 426.464 -2.19463 3.01481 0
M  V30 4414 N 428.649 -1.55105 -0.279332 0
M  V30 4415 C 429.898 -1.74618 -1.00952 0
M  V30 4416 C 430.211 -0.551096 -1.87676 0
M  V30 4417 O 431.417 -0.628507 -2.64125 0
M  V30 4418 C 429.873 -3.09025 -1.84476 0
M  V30 4419 C 429.481 -4.36081 -1.0265 0
M  V30 4420 C 431.225 -3.37891 -2.56963 0
M  V30 4421 C 429.132 -5.6153 -1.85576 0
M  V30 4422 H 428.062 -0.650868 -0.38064 0
M  V30 4423 H 430.713 -1.81569 -0.265475 0
M  V30 4424 H 429.095 -2.96095 -2.62952 0
M  V30 4425 H 430.269 -4.59909 -0.286354 0
M  V30 4426 H 428.584 -4.14312 -0.416464 0
M  V30 4427 H 431.181 -4.28822 -3.19399 0
M  V30 4428 H 431.524 -2.57737 -3.26921 0
M  V30 4429 H 432.057 -3.5189 -1.85522 0
M  V30 4430 H 428.796 -6.44413 -1.2005 0
M  V30 4431 H 428.316 -5.41854 -2.57204 0
M  V30 4432 H 429.995 -5.99594 -2.43096 0
M  V30 4433 N 430.127 0.543554 -1.4793 0
M  V30 4434 C 431.373 1.30201 -1.55485 0
M  V30 4435 C 431.706 1.92925 -0.222201 0
M  V30 4436 O 430.981 1.78586 0.77053 0
M  V30 4437 C 431.264 2.40174 -2.68307 0
M  V30 4438 C 431.117 1.8223 -4.11233 0
M  V30 4439 C 432.436 3.42024 -2.76961 0
M  V30 4440 H 429.555 0.472036 -0.565996 0
M  V30 4441 H 432.197 0.606914 -1.80046 0
M  V30 4442 H 430.347 2.99463 -2.47495 0
M  V30 4443 H 432.019 1.27096 -4.43446 0
M  V30 4444 H 430.262 1.12832 -4.18869 0
M  V30 4445 H 430.933 2.61793 -4.85972 0
M  V30 4446 H 433.409 2.92672 -2.95774 0
M  V30 4447 H 432.285 4.16383 -3.57654 0
M  V30 4448 H 432.546 4.0173 -1.84568 0
M  V30 4449 N 431.605 1.3629 0.791371 0
M  V30 4450 C 432.553 1.30514 1.92533 0
M  V30 4451 C 433.547 0.197285 1.68247 0
M  V30 4452 O 434.753 0.364176 1.76278 0
M  V30 4453 H 431.128 0.406263 0.632815 0
M  V30 4454 H 433.099 2.26282 1.94523 0
M  V30 4455 C 431.848 1.10933 3.29529 0
M  V30 4456 H 431.171 1.95427 3.48781 0
M  V30 4457 H 432.611 1.10937 4.0923 0
M  V30 4458 C 431.07 -0.186123 3.36385 0
M  V30 4459 O 431.6 -1.17664 3.84081 0
M  V30 4460 N 429.806 -0.230128 2.89687 0
M  V30 4461 H 429.353 0.576545 2.51065 0
M  V30 4462 H 429.311 -1.09658 2.94657 0
M  V30 4463 N 433.083 -1.0153 1.20538 0
M  V30 4464 C 434.494 -1.56598 1.01657 0
M  V30 4465 C 434.845 -1.91505 -0.426668 0
M  V30 4466 O 433.97 -1.72375 -1.30827 0
M  V30 4467 C 434.565 -2.84542 1.83905 0
M  V30 4468 C 433.124 -3.36133 1.69386 0
M  V30 4469 C 432.271 -2.09427 1.81757 0
M  V30 4470 H 435.222 -0.838974 1.34711 0
M  V30 4471 H 435.243 -3.56004 1.34319 0
M  V30 4472 H 434.755 -2.59105 2.8894 0
M  V30 4473 H 432.856 -3.66528 0.669933 0
M  V30 4474 H 432.969 -4.08248 2.50739 0
M  V30 4475 H 431.333 -2.21941 1.24957 0
M  V30 4476 H 432.116 -1.86414 2.88279 0
M  V30 4477 N 434.561 -1.01147 -1.20859 0
M  V30 4478 C 435.838 -0.613136 -1.85742 0
M  V30 4479 C 436.218 0.909004 -1.90526 0
M  V30 4480 O 435.566 1.79862 -1.40932 0
M  V30 4481 C 435.776 -1.255 -3.25654 0
M  V30 4482 C 437.124 -1.3672 -4.01986 0
M  V30 4483 O 438.148 -1.21082 -3.34989 0
M  V30 4484 O 437.007 -1.6194 -5.21956 0
M  V30 4485 H 434.101 -0.210878 -0.799662 0
M  V30 4486 H 436.647 -1.10853 -1.2849 0
M  V30 4487 H 435.419 -2.29532 -3.16908 0
M  V30 4488 H 435.042 -0.746369 -3.90532 0
M  V30 4489 N 436.039 1.36541 -0.78704 0
M  V30 4490 C 437.287 1.98911 -0.357633 0
M  V30 4491 C 437.608 1.62778 1.07371 0
M  V30 4492 O 436.878 0.900612 1.73971 0
M  V30 4493 H 435.458 0.735734 -0.129246 0
M  V30 4494 H 438.12 1.66776 -1.00855 0
M  V30 4495 H 437.216 3.08874 -0.447549 0
M  V30 4496 N 437.518 0.538854 1.48102 0
M  V30 4497 C 438.765 0.0080018 2.02498 0
M  V30 4498 C 439.093 -1.33437 1.41509 0
M  V30 4499 O 438.348 -1.87709 0.553507 0
M  V30 4500 C 438.647 -0.153808 3.57069 0
M  V30 4501 C 438.313 1.11533 4.36888 0
M  V30 4502 C 436.975 1.46314 4.58417 0
M  V30 4503 C 439.327 1.95718 4.83057 0
M  V30 4504 C 436.655 2.6516 5.23361 0
M  V30 4505 C 439.007 3.13751 5.49312 0
M  V30 4506 C 437.671 3.48866 5.69077 0
M  V30 4507 H 436.941 0.00292807 0.740994 0
M  V30 4508 H 439.588 0.706668 1.77984 0
M  V30 4509 H 437.893 -0.935309 3.80472 0
M  V30 4510 H 439.59 -0.579607 3.96789 0
M  V30 4511 H 436.18 0.834484 4.20398 0
M  V30 4512 H 440.364 1.70158 4.66219 0
M  V30 4513 H 435.62 2.92558 5.36861 0
M  V30 4514 H 439.794 3.79282 5.84053 0
M  V30 4515 H 437.421 4.41054 6.19173 0
M  V30 4516 N 438.996 -1.55193 0.274407 0
M  V30 4517 C 439.959 -2.212 -0.600279 0
M  V30 4518 C 440.959 -1.18963 -1.08187 0
M  V30 4519 O 442.149 -1.43873 -0.982158 0
M  V30 4520 C 439.281 -2.87739 -1.82809 0
M  V30 4521 H 440.474 -2.9989 -0.0239682 0
M  V30 4522 H 438.027 -1.5628 0.0250192 0
M  V30 4523 H 438.762 -2.13058 -2.44493 0
M  V30 4524 H 438.547 -3.62658 -1.49069 0
M  V30 4525 H 440.037 -3.38171 -2.45011 0
M  V30 4526 N 440.474 -0.00167713 -1.576 0
M  V30 4527 C 441.722 0.681471 -1.90264 0
M  V30 4528 C 442.043 1.7422 -0.875924 0
M  V30 4529 O 441.313 1.95709 0.0864412 0
M  V30 4530 H 439.893 0.254696 -0.702239 0
M  V30 4531 H 442.555 -0.0429996 -1.94853 0
M  V30 4532 H 441.651 1.15166 -2.90075 0
M  V30 4533 N 441.952 1.55251 0.271103 0
M  V30 4534 C 443.199 1.75946 1.00245 0
M  V30 4535 C 443.527 0.561611 1.86215 0
M  V30 4536 O 442.782 -0.455832 1.90317 0
M  V30 4537 C 443.081 3.01879 1.91321 0
M  V30 4538 C 442.747 4.34337 1.21086 0
M  V30 4539 C 441.409 4.70338 1.01666 0
M  V30 4540 C 443.761 5.16325 0.71119 0
M  V30 4541 C 441.089 5.8588 0.310099 0
M  V30 4542 C 443.441 6.32597 0.0182157 0
M  V30 4543 C 442.105 6.67236 -0.18768 0
M  V30 4544 H 441.375 0.643833 0.366824 0
M  V30 4545 H 444.022 1.89521 0.27458 0
M  V30 4546 H 442.327 2.83212 2.70736 0
M  V30 4547 H 444.024 3.15088 2.48033 0
M  V30 4548 H 440.614 4.06043 1.37213 0
M  V30 4549 H 444.798 4.88987 0.848844 0
M  V30 4550 H 440.054 6.1124 0.139873 0
M  V30 4551 H 444.228 6.9538 -0.376711 0
M  V30 4552 H 441.855 7.56618 -0.73715 0
M  V30 4553 N 443.43 -0.535701 1.48216 0
M  V30 4554 C 444.841 -1.11769 1.49548 0
M  V30 4555 C 445.192 -1.94442 0.26207 0
M  V30 4556 O 444.317 -2.06987 -0.631287 0
M  V30 4557 C 444.912 -2.03367 2.70975 0
M  V30 4558 C 443.471 -2.56795 2.75196 0
M  V30 4559 C 442.618 -1.33631 2.42977 0
M  V30 4560 H 445.569 -0.321232 1.55415 0
M  V30 4561 H 445.59 -2.87569 2.49167 0
M  V30 4562 H 445.102 -1.43169 3.60727 0
M  V30 4563 H 443.203 -3.20731 1.89638 0
M  V30 4564 H 443.316 -2.9632 3.76472 0
M  V30 4565 H 441.68 -1.6502 1.94012 0
M  V30 4566 H 442.463 -0.75194 3.34964 0
M  V30 4567 N 444.908 -1.36708 -0.784132 0
M  V30 4568 C 446.148 -1.32618 -1.55537 0
M  V30 4569 C 446.512 0.0920681 -1.91779 0
M  V30 4570 O 447.713 0.257573 -2.67563 0
M  V30 4571 C 445.984 -2.22788 -2.79464 0
M  V30 4572 S 447.543 -2.36432 -3.69656 0
M  V30 4573 H 444.361 -0.470973 -0.53264 0
M  V30 4574 H 446.963 -1.72333 -0.92312 0
M  V30 4575 H 445.667 -3.24774 -2.50899 0
M  V30 4576 H 445.198 -1.84112 -3.47658 0
M  V30 4577 H 447.213 -1.56573 -4.7085 0
M  V30 4578 N 446.386 1.0089 -1.21074 0
M  V30 4579 C 447.349 2.0775 -0.968129 0
M  V30 4580 C 448.349 1.6069 0.0593445 0
M  V30 4581 O 449.539 1.73293 -0.177525 0
M  V30 4582 C 446.671 3.37794 -0.459108 0
M  V30 4583 H 447.864 2.30707 -1.9161 0
M  V30 4584 H 445.417 1.17807 -1.02719 0
M  V30 4585 H 446.152 3.20516 0.49397 0
M  V30 4586 H 445.937 3.7328 -1.20019 0
M  V30 4587 H 447.427 4.16454 -0.309099 0
M  V30 4588 N 447.864 1.01787 1.20321 0
M  V30 4589 C 449.089 0.727009 1.9424 0
M  V30 4590 C 449.514 -0.706179 1.74341 0
M  V30 4591 O 448.872 -1.48609 1.03852 0
M  V30 4592 C 448.92 1.06958 3.44372 0
M  V30 4593 O 448.024 0.181983 4.11998 0
M  V30 4594 H 447.365 0.269626 0.606793 0
M  V30 4595 H 449.895 1.36158 1.52716 0
M  V30 4596 H 449.905 1.02182 3.94997 0
M  V30 4597 H 448.58 2.11378 3.58179 0
M  V30 4598 H 447.157 0.287378 3.71791 0
M  V30 4599 N 449.342 -1.36122 0.79427 0
M  V30 4600 C 450.572 -2.03067 0.380437 0
M  V30 4601 C 450.98 -1.60018 -1.00949 0
M  V30 4602 O 450.323 -0.787425 -1.65968 0
M  V30 4603 C 450.385 -3.57587 0.37034 0
M  V30 4604 C 450.049 -4.23855 1.70867 0
M  V30 4605 C 451.046 -4.46404 2.66496 0
M  V30 4606 C 448.731 -4.61229 1.9893 0
M  V30 4607 C 450.725 -5.05412 3.88378 0
M  V30 4608 C 448.412 -5.19953 3.21079 0
M  V30 4609 C 449.41 -5.41985 4.15621 0
M  V30 4610 O 449.098 -5.99475 5.35616 0
M  V30 4611 H 448.83 -0.658168 0.154243 0
M  V30 4612 H 451.384 -1.7498 1.0757 0
M  V30 4613 H 449.614 -3.84814 -0.381444 0
M  V30 4614 H 451.303 -4.05895 -0.0194894 0
M  V30 4615 H 452.069 -4.17921 2.46103 0
M  V30 4616 H 447.948 -4.43402 1.26158 0
M  V30 4617 H 451.492 -5.22524 4.62185 0
M  V30 4618 H 447.389 -5.47862 3.41347 0
M  V30 4619 H 448.157 -6.17937 5.36745 0
M  V30 4620 N 450.82 -0.546701 -1.47814 0
M  V30 4621 C 451.768 0.220048 -2.31557 0
M  V30 4622 C 452.762 0.919472 -1.42275 0
M  V30 4623 O 453.968 0.841953 -1.59095 0
M  V30 4624 H 450.343 0.0898334 -0.746615 0
M  V30 4625 H 452.314 -0.505589 -2.94086 0
M  V30 4626 C 451.063 1.24353 -3.24702 0
M  V30 4627 H 450.386 0.714758 -3.93359 0
M  V30 4628 H 451.826 1.75112 -3.8615 0
M  V30 4629 C 450.285 2.28593 -2.47481 0
M  V30 4630 O 450.815 3.35334 -2.21165 0
M  V30 4631 N 449.021 2.02244 -2.08676 0
M  V30 4632 H 448.568 1.15455 -2.30278 0
M  V30 4633 H 448.526 2.72207 -1.57323 0
M  V30 4634 N 452.299 1.55045 -0.282633 0
M  V30 4635 C 453.545 2.00056 0.332481 0
M  V30 4636 C 453.878 1.1708 1.54939 0
M  V30 4637 O 453.153 0.2427 1.9298 0
M  V30 4638 C 453.436 3.53086 0.70725 0
M  V30 4639 C 453.289 4.46813 -0.517521 0
M  V30 4640 C 454.608 4.12245 1.54084 0
M  V30 4641 H 451.727 0.727268 0.119373 0
M  V30 4642 H 454.369 1.85932 -0.391076 0
M  V30 4643 H 452.519 3.65253 1.32372 0
M  V30 4644 H 454.191 4.46579 -1.15607 0
M  V30 4645 H 452.434 4.18163 -1.1542 0
M  V30 4646 H 453.105 5.51595 -0.211426 0
M  V30 4647 H 455.581 4.03401 1.02013 0
M  V30 4648 H 454.457 5.19515 1.77186 0
M  V30 4649 H 454.718 3.62951 2.52427 0
M  V30 4650 N 453.777 0.010035 1.57597 0
M  V30 4651 C 455.024 -0.6727 1.91 0
M  V30 4652 C 455.352 -1.73219 0.884614 0
M  V30 4653 O 454.607 -1.95395 -0.109215 0
M  V30 4654 C 454.906 -1.34434 3.31153 0
M  V30 4655 C 454.572 -0.417083 4.48967 0
M  V30 4656 C 453.234 -0.161809 4.80928 0
M  V30 4657 C 455.586 0.220753 5.20732 0
M  V30 4658 C 452.914 0.739426 5.82022 0
M  V30 4659 C 455.266 1.10993 6.22787 0
M  V30 4660 C 453.93 1.37428 6.532 0
M  V30 4661 H 453.2 -0.246158 0.698918 0
M  V30 4662 H 455.847 0.0677145 1.9138 0
M  V30 4663 H 454.152 -2.15905 3.26944 0
M  V30 4664 H 455.849 -1.87883 3.54261 0
M  V30 4665 H 452.439 -0.626217 4.24001 0
M  V30 4666 H 456.623 0.0365643 4.96287 0
M  V30 4667 H 451.879 0.952139 6.03941 0
M  V30 4668 H 456.053 1.61046 6.77523 0
M  V30 4669 H 453.68 2.0743 7.31353 0
M  V30 4670 N 455.255 -1.55392 -0.262866 0
M  V30 4671 C 456.483 -1.80513 -1.01108 0
M  V30 4672 C 456.898 -0.583533 -1.79556 0
M  V30 4673 O 456.255 0.447585 -1.76926 0
M  V30 4674 C 456.306 -3.03648 -1.96164 0
M  V30 4675 O 456.027 -4.2109 -1.20893 0
M  V30 4676 C 457.528 -3.41448 -2.82715 0
M  V30 4677 H 454.748 -0.601079 -0.298236 0
M  V30 4678 H 457.292 -2.02425 -0.290582 0
M  V30 4679 H 455.447 -2.83832 -2.63663 0
M  V30 4680 H 455.861 -4.90771 -1.85051 0
M  V30 4681 H 457.335 -4.30751 -3.45192 0
M  V30 4682 H 457.812 -2.61308 -3.53008 0
M  V30 4683 H 458.418 -3.63559 -2.20693 0
M  V30 4684 N 456.733 0.527833 -1.48498 0
M  V30 4685 C 457.696 1.61439 -1.62696 0
M  V30 4686 C 458.696 1.52824 -0.500136 0
M  V30 4687 O 459.886 1.56456 -0.765976 0
M  V30 4688 C 457.018 3.01063 -1.59918 0
M  V30 4689 H 458.211 1.50189 -2.59583 0
M  V30 4690 H 455.764 0.750055 -1.37127 0
M  V30 4691 H 456.499 3.17818 -0.645163 0
M  V30 4692 H 456.284 3.08725 -2.41726 0
M  V30 4693 H 457.774 3.80057 -1.73051 0
M  V30 4694 N 458.211 1.37122 0.776871 0
M  V30 4695 C 459.159 1.32549 1.91138 0
M  V30 4696 C 460.153 0.215119 1.68029 0
M  V30 4697 O 461.359 0.382852 1.75881 0
M  V30 4698 H 457.734 0.412952 0.62847 0
M  V30 4699 H 459.705 2.28332 1.92112 0
M  V30 4700 C 458.454 1.14422 3.28333 0
M  V30 4701 H 457.777 1.99115 3.46689 0
M  V30 4702 H 459.217 1.15272 4.0803 0
M  V30 4703 C 457.676 -0.150434 3.36564 0
M  V30 4704 O 458.206 -1.13584 3.85307 0
M  V30 4705 N 456.412 -0.19939 2.89915 0
M  V30 4706 H 455.959 0.603142 2.5044 0
M  V30 4707 H 455.917 -1.06526 2.95803 0
M  V30 4708 N 459.689 -1.00246 1.21608 0
M  V30 4709 C 460.636 -2.09073 0.977613 0
M  V30 4710 C 461.606 -1.65815 -0.097297 0
M  V30 4711 O 462.791 -1.90734 0.0503445 0
M  V30 4712 C 459.931 -3.40671 0.551133 0
M  V30 4713 C 459.044 -3.97326 1.69576 0
M  V30 4714 C 458.179 -5.17043 1.2182 0
M  V30 4715 C 457.218 -5.65813 2.335 0
M  V30 4716 N 456.355 -6.76778 1.86859 0
M  V30 4717 H 461.195 -2.28806 1.90924 0
M  V30 4718 H 458.732 -1.12186 0.951452 0
M  V30 4719 H 460.69 -4.16225 0.285097 0
M  V30 4720 H 459.32 -3.20967 -0.343489 0
M  V30 4721 H 458.372 -3.18734 2.07637 0
M  V30 4722 H 459.684 -4.29511 2.53617 0
M  V30 4723 H 458.838 -5.99852 0.908975 0
M  V30 4724 H 457.577 -4.86458 0.347869 0
M  V30 4725 H 456.582 -4.81599 2.65222 0
M  V30 4726 H 457.807 -5.98427 3.21033 0
M  V30 4727 H 455.753 -6.47994 1.02174 0
M  V30 4728 H 455.67 -7.08231 2.64471 0
M  V30 4729 H 456.938 -7.63116 1.58978 0
M  V30 4730 N 461.167 -1.02423 -1.1978 0
M  V30 4731 C 462.407 -0.726635 -1.91048 0
M  V30 4732 C 462.771 0.730947 -1.77542 0
M  V30 4733 O 463.972 1.14141 -2.43362 0
M  V30 4734 C 462.243 -1.15964 -3.38064 0
M  V30 4735 S 463.802 -0.985172 -4.27598 0
M  V30 4736 H 460.62 -0.264679 -0.659899 0
M  V30 4737 H 463.222 -1.31309 -1.44838 0
M  V30 4738 H 461.926 -2.21619 -3.45417 0
M  V30 4739 H 461.457 -0.566274 -3.89303 0
M  V30 4740 H 463.472 0.106946 -4.96085 0
M  V30 4741 N 462.645 1.35699 -0.801477 0
M  V30 4742 C 463.892 1.98913 -0.379459 0
M  V30 4743 C 464.22 1.63592 1.05204 0
M  V30 4744 O 463.475 0.888563 1.74365 0
M  V30 4745 C 463.774 3.53828 -0.504041 0
M  V30 4746 C 463.44 4.09002 -1.8981 0
M  V30 4747 C 462.102 4.23783 -2.27951 0
M  V30 4748 C 464.454 4.38939 -2.81038 0
M  V30 4749 C 461.782 4.65816 -3.56696 0
M  V30 4750 C 464.134 4.82409 -4.09224 0
M  V30 4751 C 462.798 4.95395 -4.4737 0
M  V30 4752 H 462.068 0.727874 -0.138854 0
M  V30 4753 H 464.715 1.61994 -1.02128 0
M  V30 4754 H 463.02 3.91175 0.221242 0
M  V30 4755 H 464.717 4.00687 -0.158361 0
M  V30 4756 H 461.307 3.97946 -1.59176 0
M  V30 4757 H 465.491 4.27077 -2.52821 0
M  V30 4758 H 460.747 4.74059 -3.86106 0
M  V30 4759 H 464.921 5.04535 -4.80018 0
M  V30 4760 H 462.548 5.27724 -5.47185 0
M  V30 4761 N 464.123 0.554532 1.47522 0
M  V30 4762 C 465.534 0.120446 1.86311 0
M  V30 4763 C 465.885 -1.30904 1.46145 0
M  V30 4764 O 465.01 -1.98434 0.863294 0
M  V30 4765 C 465.605 0.211808 3.38137 0
M  V30 4766 C 464.164 -0.167224 3.76028 0
M  V30 4767 C 463.311 0.560576 2.71575 0
M  V30 4768 H 466.262 0.764408 1.39077 0
M  V30 4769 H 466.283 -0.570275 3.76202 0
M  V30 4770 H 465.795 1.25232 3.6734 0
M  V30 4771 H 463.896 -1.20894 3.52442 0
M  V30 4772 H 464.009 0.189473 4.78725 0
M  V30 4773 H 462.373 0.00396836 2.547 0
M  V30 4774 H 463.156 1.60219 3.0362 0
M  V30 4775 N 465.601 -1.54893 0.290851 0
M  V30 4776 C 466.841 -2.01842 -0.322388 0
M  V30 4777 C 467.205 -1.17477 -1.51865 0
M  V30 4778 O 468.406 -1.54077 -2.20258 0
M  V30 4779 C 466.677 -3.50874 -0.679844 0
M  V30 4780 S 468.236 -4.19796 -1.27739 0
M  V30 4781 H 465.054 -0.704005 -0.0994866 0
M  V30 4782 H 467.656 -1.91015 0.416358 0
M  V30 4783 H 466.36 -4.09915 0.199435 0
M  V30 4784 H 465.891 -3.65717 -1.44964 0
M  V30 4785 H 467.906 -4.24729 -2.56554 0
M  V30 4786 N 467.08 -0.0183926 -1.57589 0
M  V30 4787 C 468.491 0.521927 -1.79256 0
M  V30 4788 C 468.842 1.72885 -0.927636 0
M  V30 4789 O 467.967 2.15978 -0.135091 0
M  V30 4790 C 468.562 0.953632 -3.25102 0
M  V30 4791 C 467.121 1.43913 -3.47801 0
M  V30 4792 C 466.268 0.398837 -2.74417 0
M  V30 4793 H 469.219 -0.244485 -1.56805 0
M  V30 4794 H 469.24 1.81863 -3.34224 0
M  V30 4795 H 468.752 0.0750123 -3.88028 0
M  V30 4796 H 466.853 2.33804 -2.90115 0
M  V30 4797 H 466.966 1.45391 -4.56507 0
M  V30 4798 H 465.33 0.864572 -2.39577 0
M  V30 4799 H 466.113 -0.471132 -3.40052 0
M  V30 4800 N 468.558 1.5553 0.254621 0
M  V30 4801 C 469.783 1.81383 1.00573 0
M  V30 4802 C 470.208 0.594419 1.78461 0
M  V30 4803 O 469.566 -0.456403 1.75461 0
M  V30 4804 C 469.614 3.04892 1.92545 0
M  V30 4805 O 468.718 2.81266 3.01601 0
M  V30 4806 H 468.059 0.598969 0.286587 0
M  V30 4807 H 470.589 2.02703 0.277952 0
M  V30 4808 H 470.599 3.34119 2.34155 0
M  V30 4809 H 469.274 3.93287 1.3527 0
M  V30 4810 H 467.851 2.63185 2.64174 0
M  V30 4811 N 470.036 -0.519951 1.48776 0
M  V30 4812 C 471.284 -1.2727 1.56993 0
M  V30 4813 C 471.605 -1.9339 0.25004 0
M  V30 4814 O 470.875 -1.81822 -0.729216 0
M  V30 4815 H 469.455 -0.472732 0.578389 0
M  V30 4816 H 472.117 -0.604234 1.85297 0
M  V30 4817 H 471.213 -2.04669 2.3562 0
M  V30 4818 N 471.514 -1.37532 -0.769588 0
M  V30 4819 C 472.762 -1.32597 -1.5252 0
M  V30 4820 C 473.083 0.0884294 -1.94799 0
M  V30 4821 O 472.353 1.03289 -1.66458 0
M  V30 4822 H 470.933 -0.487846 -0.565699 0
M  V30 4823 H 473.595 -1.72044 -0.915806 0
M  V30 4824 H 472.691 -1.96643 -2.42359 0
M  V30 4825 N 472.992 0.995999 -1.22138 0
M  V30 4826 C 474.232 1.75032 -1.05561 0
M  V30 4827 C 474.596 1.87729 0.402698 0
M  V30 4828 O 475.797 2.59813 0.689234 0
M  V30 4829 C 474.068 3.11973 -1.74379 0
M  V30 4830 S 475.627 4.03182 -1.73175 0
M  V30 4831 H 472.445 0.602137 -0.37809 0
M  V30 4832 H 475.047 1.19107 -1.55028 0
M  V30 4833 H 473.751 3.00371 -2.79652 0
M  V30 4834 H 473.282 3.7297 -1.25128 0
M  V30 4835 H 475.297 4.90043 -0.77923 0
M  V30 4836 N 474.47 1.03057 1.19235 0
M  V30 4837 C 475.881 0.757449 1.70645 0
M  V30 4838 C 476.232 -0.722735 1.82403 0
M  V30 4839 O 475.357 -1.56325 1.49638 0
M  V30 4840 C 475.952 1.36833 3.09939 0
M  V30 4841 C 474.511 1.14375 3.58602 0
M  V30 4842 C 473.658 1.46533 2.35422 0
M  V30 4843 H 476.609 1.19828 1.04052 0
M  V30 4844 H 476.63 0.766184 3.72706 0
M  V30 4845 H 476.142 2.44562 3.01349 0
M  V30 4846 H 474.243 0.0847542 3.72504 0
M  V30 4847 H 474.356 1.83366 4.42622 0
M  V30 4848 H 472.72 0.884712 2.38841 0
M  V30 4849 H 473.503 2.55349 2.2946 0
M  V30 4850 N 475.948 -1.35272 0.808662 0
M  V30 4851 C 476.88 -2.28507 0.178149 0
M  V30 4852 C 477.893 -1.50377 -0.623754 0
M  V30 4853 O 479.082 -1.72583 -0.455774 0
M  V30 4854 C 476.182 -3.30038 -0.769959 0
M  V30 4855 C 475.355 -4.37398 -0.0139749 0
M  V30 4856 C 474.414 -5.18775 -0.880875 0
M  V30 4857 O 473.44 -5.68236 -0.331059 0
M  V30 4858 N 474.642 -5.37087 -2.20267 0
M  V30 4859 H 477.407 -2.83255 0.979106 0
M  V30 4860 H 474.968 -1.47643 0.664308 0
M  V30 4861 H 476.96 -3.81371 -1.35418 0
M  V30 4862 H 475.53 -2.75789 -1.47171 0
M  V30 4863 H 474.75 -3.86971 0.751468 0
M  V30 4864 H 476.038 -5.06268 0.506965 0
M  V30 4865 H 475.436 -4.9855 -2.67328 0
M  V30 4866 H 473.993 -5.91593 -2.73608 0
M  V30 4867 N 477.426 -0.562348 -1.47226 0
M  V30 4868 C 478.359 0.230405 -2.27034 0
M  V30 4869 C 479.337 0.915609 -1.3437 0
M  V30 4870 O 480.521 0.933573 -1.63758 0
M  V30 4871 C 477.648 1.32874 -3.11548 0
M  V30 4872 C 476.694 0.751552 -4.19826 0
M  V30 4873 S 477.527 -0.405848 -5.3396 0
M  V30 4874 C 478.683 0.694186 -6.22038 0
M  V30 4875 H 478.916 -0.446811 -2.93923 0
M  V30 4876 H 476.449 -0.348781 -1.50409 0
M  V30 4877 H 478.407 1.95773 -3.60809 0
M  V30 4878 H 477.068 1.97782 -2.44011 0
M  V30 4879 H 476.261 1.57651 -4.78709 0
M  V30 4880 H 475.863 0.198645 -3.73472 0
M  V30 4881 H 478.155 1.58501 -6.58698 0
M  V30 4882 H 479.098 0.142592 -7.07956 0
M  V30 4883 H 479.506 0.989169 -5.55766 0
M  V30 4884 N 478.904 1.54736 -0.299062 0
M  V30 4885 C 480.152 1.99706 0.31017 0
M  V30 4886 C 480.473 1.18896 1.54559 0
M  V30 4887 O 479.743 0.284445 1.93824 0
M  V30 4888 H 478.323 0.737686 0.117596 0
M  V30 4889 H 480.985 1.9054 -0.409943 0
M  V30 4890 H 480.081 3.06596 0.58355 0
M  V30 4891 N 480.382 0.0267497 1.57577 0
M  V30 4892 C 481.332 -0.965003 2.06571 0
M  V30 4893 C 482.316 -1.28694 0.965746 0
M  V30 4894 O 483.508 -1.27345 1.22932 0
M  V30 4895 C 480.637 -2.24821 2.59443 0
M  V30 4896 C 479.723 -1.95474 3.76365 0
M  V30 4897 N 480.114 -1.36387 4.87065 0
M  V30 4898 C 478.412 -2.25478 3.84806 0
M  V30 4899 C 479.113 -1.24119 5.68304 0
M  V30 4900 N 478.089 -1.7359 5.15138 0
M  V30 4901 H 481.891 -0.503095 2.89562 0
M  V30 4902 H 479.405 -0.178322 1.61418 0
M  V30 4903 H 481.402 -2.9674 2.92833 0
M  V30 4904 H 480.062 -2.7164 1.77881 0
M  V30 4905 H 481.073 -1.03919 5.07367 0
M  V30 4906 H 477.75 -2.74987 3.14147 0
M  V30 4907 H 479.14 -0.784504 6.67304 0
M  V30 4908 N 481.861 -1.55662 -0.24637 0
M  V30 4909 C 483.091 -1.81312 -0.990438 0
M  V30 4910 C 483.499 -0.600234 -1.79426 0
M  V30 4911 O 482.842 0.440537 -1.78339 0
M  V30 4912 C 482.904 -3.0032 -1.97607 0
M  V30 4913 C 482.568 -4.36322 -1.35912 0
M  V30 4914 C 483.565 -5.14295 -0.761348 0
M  V30 4915 C 481.25 -4.83019 -1.37833 0
M  V30 4916 C 483.244 -6.37114 -0.190998 0
M  V30 4917 C 480.931 -6.05786 -0.804128 0
M  V30 4918 C 481.929 -6.82672 -0.211489 0
M  V30 4919 O 481.617 -8.03121 0.353845 0
M  V30 4920 H 481.349 -0.607233 -0.297058 0
M  V30 4921 H 483.903 -2.0356 -0.274351 0
M  V30 4922 H 482.133 -2.73829 -2.73047 0
M  V30 4923 H 483.822 -3.13057 -2.58361 0
M  V30 4924 H 484.588 -4.79337 -0.739013 0
M  V30 4925 H 480.467 -4.23165 -1.829 0
M  V30 4926 H 484.011 -6.97069 0.272206 0
M  V30 4927 H 479.908 -6.40222 -0.823792 0
M  V30 4928 H 480.676 -8.18131 0.245761 0
M  V30 4929 N 483.339 0.512053 -1.4905 0
M  V30 4930 C 484.302 1.59704 -1.64399 0
M  V30 4931 C 485.302 1.52285 -0.516317 0
M  V30 4932 O 486.492 1.55635 -0.782527 0
M  V30 4933 C 483.624 2.9935 -1.63102 0
M  V30 4934 H 484.817 1.47428 -2.61161 0
M  V30 4935 H 482.37 0.735469 -1.37915 0
M  V30 4936 H 483.105 3.17116 -0.678836 0
M  V30 4937 H 482.89 3.06144 -2.44986 0
M  V30 4938 H 484.38 3.782 -1.77072 0
M  V30 4939 N 484.817 1.37938 0.762283 0
M  V30 4940 C 486.094 1.24196 1.51112 0
M  V30 4941 C 486.474 -0.160409 2.1049 0
M  V30 4942 O 485.822 -1.16904 1.96331 0
M  V30 4943 C 486.032 2.34537 2.58445 0
M  V30 4944 C 487.38 2.7254 3.25588 0
M  V30 4945 O 488.404 2.33783 2.68745 0
M  V30 4946 O 487.263 3.39343 4.28379 0
M  V30 4947 H 484.357 0.485175 0.669727 0
M  V30 4948 H 486.903 1.49743 0.798438 0
M  V30 4949 H 485.675 3.28406 2.12756 0
M  V30 4950 H 485.298 2.10505 3.37303 0
M  V30 4951 N 486.295 -0.989507 1.22664 0
M  V30 4952 C 487.711 -1.25395 0.987331 0
M  V30 4953 C 487.911 -1.9899 -0.317056 0
M  V30 4954 O 486.967 -2.30141 -1.03882 0
M  V30 4955 C 488.28 -2.06242 2.18826 0
M  V30 4956 C 489.828 -2.19413 2.23219 0
M  V30 4957 C 490.303 -3.03648 3.42873 0
M  V30 4958 N 491.794 -3.11234 3.43056 0
M  V30 4959 C 492.529 -3.7671 4.32293 0
M  V30 4960 N 492.025 -4.44085 5.31752 0
M  V30 4961 N 493.818 -3.73505 4.2006 0
M  V30 4962 H 485.969 -0.496212 2.06522 0
M  V30 4963 H 488.232 -0.281784 0.905153 0
M  V30 4964 H 487.938 -1.59531 3.13437 0
M  V30 4965 H 487.812 -3.06996 2.19165 0
M  V30 4966 H 490.199 -2.65336 1.29154 0
M  V30 4967 H 490.28 -1.18078 2.26917 0
M  V30 4968 H 489.924 -2.58424 4.37241 0
M  V30 4969 H 489.854 -4.05132 3.36416 0
M  V30 4970 H 492.345 -2.63287 2.71088 0
M  V30 4971 H 492.658 -4.91797 5.96117 0
M  V30 4972 H 491.003 -4.42822 5.35662 0
M  V30 4973 H 494.194 -3.20033 3.41609 0
M  V30 4974 H 494.367 -4.24253 4.8981 0
M  V30 4975 N 487.773 -1.03688 -1.18687 0
M  V30 4976 C 489.003 -0.756819 -1.92239 0
M  V30 4977 C 489.411 0.689374 -1.76194 0
M  V30 4978 O 488.754 1.48126 -1.08648 0
M  V30 4979 C 488.816 -1.03851 -3.44173 0
M  V30 4980 C 488.48 -2.47785 -3.83994 0
M  V30 4981 C 489.477 -3.4595 -3.88091 0
M  V30 4982 C 487.162 -2.82397 -4.154 0
M  V30 4983 C 489.156 -4.76779 -4.23038 0
M  V30 4984 C 486.843 -4.13433 -4.50018 0
M  V30 4985 C 487.841 -5.10434 -4.53813 0
M  V30 4986 O 487.529 -6.39122 -4.87625 0
M  V30 4987 H 487.261 -0.275678 -0.617234 0
M  V30 4988 H 489.815 -1.38658 -1.51536 0
M  V30 4989 H 488.045 -0.351612 -3.85098 0
M  V30 4990 H 489.734 -0.746846 -3.9897 0
M  V30 4991 H 490.5 -3.20549 -3.63969 0
M  V30 4992 H 486.379 -2.07568 -4.11627 0
M  V30 4993 H 489.923 -5.52488 -4.25914 0
M  V30 4994 H 485.82 -4.38604 -4.736 0
M  V30 4995 H 486.588 -6.43715 -5.05542 0
M  V30 4996 N 489.251 1.34841 -0.815825 0
M  V30 4997 C 490.662 1.80937 -0.46029 0
M  V30 4998 C 491.013 1.67685 1.01863 0
M  V30 4999 O 490.138 1.21277 1.79223 0
M  V30 5000 C 490.733 3.28509 -0.828708 0
M  V30 5001 C 489.292 3.72712 -0.525644 0
M  V30 5002 C 488.439 2.56676 -1.04941 0
M  V30 5003 H 491.39 1.22688 -1.00664 0
M  V30 5004 H 491.411 3.80279 -0.129757 0
M  V30 5005 H 490.923 3.38122 -1.90513 0
M  V30 5006 H 489.024 3.68642 0.541666 0
M  V30 5007 H 489.137 4.67119 -1.06474 0
M  V30 5008 H 487.501 2.50302 -0.471286 0
M  V30 5009 H 488.284 2.69063 -2.13214 0
M  V30 5010 N 490.729 0.570148 1.46925 0
M  V30 5011 C 491.977 0.0508523 2.02036 0
M  V30 5012 C 492.298 -1.30885 1.44548 0
M  V30 5013 O 491.568 -1.85647 0.625453 0
M  V30 5014 H 490.148 0.0158088 0.746833 0
M  V30 5015 H 492.81 0.743086 1.80178 0
M  V30 5016 H 491.906 -0.027575 3.12088 0
M  V30 5017 N 492.207 -1.54576 0.307264 0
M  V30 5018 C 493.154 -2.23751 -0.56604 0
M  V30 5019 C 494.124 -1.22235 -1.12462 0
M  V30 5020 O 495.309 -1.50873 -1.16799 0
M  V30 5021 C 492.449 -2.98661 -1.72903 0
M  V30 5022 C 491.562 -4.14963 -1.20124 0
M  V30 5023 C 490.697 -4.77441 -2.3286 0
M  V30 5024 C 489.736 -5.85875 -1.77247 0
M  V30 5025 N 488.873 -6.42282 -2.8358 0
M  V30 5026 H 493.713 -2.97984 0.0304578 0
M  V30 5027 H 491.25 -1.47076 0.0268015 0
M  V30 5028 H 493.208 -3.40329 -2.41313 0
M  V30 5029 H 491.838 -2.26793 -2.29706 0
M  V30 5030 H 490.89 -3.78193 -0.409198 0
M  V30 5031 H 492.202 -4.93066 -0.754171 0
M  V30 5032 H 491.356 -5.21993 -3.09205 0
M  V30 5033 H 490.095 -3.98684 -2.80896 0
M  V30 5034 H 489.1 -5.40741 -0.993926 0
M  V30 5035 H 490.325 -6.6652 -1.30107 0
M  V30 5036 H 488.271 -5.66406 -3.30939 0
M  V30 5037 H 488.188 -7.1575 -2.43388 0
M  V30 5038 H 489.456 -6.91492 -3.59804 0
M  V30 5039 N 493.685 -0.035106 -1.57561 0
M  V30 5040 C 494.913 0.652258 -1.9635 0
M  V30 5041 C 495.328 1.65317 -0.911897 0
M  V30 5042 O 494.685 1.82194 0.105657 0
M  V30 5043 C 494.736 1.35337 -3.35211 0
M  V30 5044 O 494.457 0.392548 -4.36338 0
M  V30 5045 C 495.958 2.13199 -3.88666 0
M  V30 5046 H 493.178 0.179444 -0.646561 0
M  V30 5047 H 495.722 -0.0966459 -2.04271 0
M  V30 5048 H 493.877 2.05362 -3.28489 0
M  V30 5049 H 494.291 0.891097 -5.16875 0
M  V30 5050 H 495.765 2.577 -4.88154 0
M  V30 5051 H 496.242 2.97353 -3.23231 0
M  V30 5052 H 496.848 1.48118 -3.98674 0
M  V30 5053 N 495.163 1.55791 0.238111 0
M  V30 5054 C 496.111 1.91885 1.31464 0
M  V30 5055 C 497.105 0.798929 1.49377 0
M  V30 5056 O 498.311 0.983626 1.50747 0
M  V30 5057 H 494.686 0.609551 0.440399 0
M  V30 5058 H 496.657 2.81747 0.982925 0
M  V30 5059 C 495.406 2.23763 2.6613 0
M  V30 5060 H 494.729 3.09444 2.53149 0
M  V30 5061 H 496.169 2.52915 3.40309 0
M  V30 5062 C 494.628 1.05699 3.1989 0
M  V30 5063 O 495.158 0.309524 4.00506 0
M  V30 5064 N 493.364 0.845251 2.78036 0
M  V30 5065 H 492.911 1.4548 2.12588 0
M  V30 5066 H 492.869 0.0569973 3.14348 0
M  V30 5067 N 496.642 -0.504142 1.49319 0
M  V30 5068 C 497.919 -1.26548 1.49147 0
M  V30 5069 C 498.299 -2.09977 0.21744 0
M  V30 5070 O 497.647 -2.14028 -0.800269 0
M  V30 5071 C 497.857 -2.12489 2.76857 0
M  V30 5072 C 499.205 -2.7178 3.26222 0
M  V30 5073 O 500.229 -2.22758 2.77952 0
M  V30 5074 O 499.088 -3.61015 4.10281 0
M  V30 5075 H 496.182 -0.572495 0.596806 0
M  V30 5076 H 498.728 -0.51867 1.61579 0
M  V30 5077 H 497.5 -1.50796 3.61077 0
M  V30 5078 H 497.123 -2.94368 2.6727 0
M  V30 5079 N 498.12 -1.38341 -0.754957 0
M  V30 5080 C 499.366 -1.34672 -1.51628 0
M  V30 5081 C 499.699 0.0636036 -1.94096 0
M  V30 5082 O 498.974 1.0245 -1.6533 0
M  V30 5083 C 499.257 -2.30116 -2.76981 0
M  V30 5084 C 499.11 -3.80003 -2.4066 0
M  V30 5085 C 500.429 -2.23715 -3.78998 0
M  V30 5086 H 497.548 -0.490517 -0.550056 0
M  V30 5087 H 500.19 -1.69178 -0.864807 0
M  V30 5088 H 498.34 -2.00821 -3.3257 0
M  V30 5089 H 500.012 -4.19966 -1.90856 0
M  V30 5090 H 498.255 -3.97751 -1.73137 0
M  V30 5091 H 498.926 -4.42244 -3.30339 0
M  V30 5092 H 501.402 -2.49574 -3.32945 0
M  V30 5093 H 500.278 -2.9261 -4.64403 0
M  V30 5094 H 500.539 -1.23554 -4.24484 0
M  V30 5095 N 499.598 0.982988 -1.23187 0
M  V30 5096 C 500.846 1.72052 -1.06031 0
M  V30 5097 C 501.167 1.90769 0.404019 0
M  V30 5098 O 500.437 1.47446 1.28982 0
M  V30 5099 H 499.017 0.637499 -0.389363 0
M  V30 5100 H 501.679 1.18338 -1.54862 0
M  V30 5101 H 500.775 2.7111 -1.54615 0
M  V30 5102 N 501.076 1.04316 1.18135 0
M  V30 5103 C 502.008 0.594444 2.21357 0
M  V30 5104 C 503.021 -0.337215 1.59269 0
M  V30 5105 O 504.21 -0.131337 1.78016 0
M  V30 5106 C 501.31 -0.151251 3.38562 0
M  V30 5107 C 500.483 0.788907 4.30227 0
M  V30 5108 C 499.542 0.0860572 5.2613 0
M  V30 5109 O 498.568 0.717302 5.64662 0
M  V30 5110 N 499.77 -1.17969 5.68387 0
M  V30 5111 H 502.535 1.48227 2.60478 0
M  V30 5112 H 500.096 0.92396 1.32946 0
M  V30 5113 H 502.088 -0.631352 3.99745 0
M  V30 5114 H 500.658 -0.940639 2.98112 0
M  V30 5115 H 499.878 1.44882 3.6661 0
M  V30 5116 H 501.166 1.42738 4.88368 0
M  V30 5117 H 500.564 -1.71302 5.3914 0
M  V30 5118 H 499.121 -1.60402 6.31755 0
M  V30 5119 N 502.554 -1.34406 0.822964 0
M  V30 5120 C 503.501 -2.29519 0.24284 0
M  V30 5121 C 504.471 -1.5359 -0.632397 0
M  V30 5122 O 505.656 -1.8196 -0.57403 0
M  V30 5123 C 502.796 -3.40032 -0.58925 0
M  V30 5124 C 501.909 -4.30899 0.308236 0
M  V30 5125 C 501.044 -5.28515 -0.533425 0
M  V30 5126 C 500.083 -6.1102 0.363444 0
M  V30 5127 N 499.22 -7.00725 -0.439147 0
M  V30 5128 H 504.06 -2.78537 1.05929 0
M  V30 5129 H 501.597 -1.3707 0.533872 0
M  V30 5130 H 503.555 -4.0279 -1.087 0
M  V30 5131 H 502.185 -2.92248 -1.37081 0
M  V30 5132 H 501.237 -3.69002 0.924203 0
M  V30 5133 H 502.549 -4.88717 0.997862 0
M  V30 5134 H 501.703 -5.96725 -1.09565 0
M  V30 5135 H 500.442 -4.71235 -1.25656 0
M  V30 5136 H 499.447 -5.41743 0.937812 0
M  V30 5137 H 500.672 -6.70381 1.08469 0
M  V30 5138 H 498.618 -6.45913 -1.14595 0
M  V30 5139 H 498.535 -7.55756 0.19209 0
M  V30 5140 H 499.803 -7.73263 -0.984124 0
M  V30 5141 N 504.032 -0.577932 -1.46621 0
M  V30 5142 C 505.279 -0.0616879 -2.02406 0
M  V30 5143 C 505.607 1.29638 -1.44997 0
M  V30 5144 O 504.862 1.86176 -0.60308 0
M  V30 5145 C 505.161 0.0590832 -3.57351 0
M  V30 5146 C 504.827 -1.23077 -4.33777 0
M  V30 5147 C 503.489 -1.58416 -4.54376 0
M  V30 5148 C 505.841 -2.08457 -4.77698 0
M  V30 5149 C 503.169 -2.78943 -5.16147 0
M  V30 5150 C 505.521 -3.28204 -5.408 0
M  V30 5151 C 504.185 -3.63832 -5.59627 0
M  V30 5152 H 503.455 -0.0225732 -0.740656 0
M  V30 5153 H 506.102 -0.753609 -1.76048 0
M  V30 5154 H 504.407 0.834104 -3.82818 0
M  V30 5155 H 506.104 0.474202 -3.98186 0
M  V30 5156 H 502.694 -0.945652 -4.18038 0
M  V30 5157 H 506.878 -1.82459 -4.61544 0
M  V30 5158 H 502.134 -3.06689 -5.28916 0
M  V30 5159 H 506.308 -3.94634 -5.73792 0
M  V30 5160 H 503.935 -4.57315 -6.07262 0
M  V30 5161 N 505.51 1.54411 -0.315457 0
M  V30 5162 C 506.74 2.04536 0.291315 0
M  V30 5163 C 507.148 1.19162 1.4696 0
M  V30 5164 O 506.491 0.213199 1.82459 0
M  V30 5165 C 506.553 3.5056 0.796725 0
M  V30 5166 C 506.217 4.5627 -0.258178 0
M  V30 5167 C 507.214 5.08312 -1.09153 0
M  V30 5168 C 504.899 5.00672 -0.404036 0
M  V30 5169 C 506.893 6.03312 -2.05655 0
M  V30 5170 C 504.58 5.95488 -1.37248 0
M  V30 5171 C 505.578 6.46693 -2.19721 0
M  V30 5172 O 505.266 7.39648 -3.14921 0
M  V30 5173 H 504.998 0.672856 0.0651165 0
M  V30 5174 H 507.552 2.00244 -0.457308 0
M  V30 5175 H 505.782 3.52223 1.59612 0
M  V30 5176 H 507.471 3.83804 1.32096 0
M  V30 5177 H 508.237 4.74793 -0.98979 0
M  V30 5178 H 504.116 4.60436 0.22799 0
M  V30 5179 H 507.66 6.43203 -2.70067 0
M  V30 5180 H 503.557 6.28424 -1.47489 0
M  V30 5181 H 504.325 7.57496 -3.10067 0
M  V30 5182 N 506.988 0.0434614 1.5754 0
M  V30 5183 C 507.918 -0.931651 2.14109 0
M  V30 5184 C 508.899 -1.32971 1.06079 0
M  V30 5185 O 510.084 -1.40579 1.33982 0
M  V30 5186 C 507.214 -2.20914 2.67982 0
M  V30 5187 C 506.168 -1.95139 3.80926 0
M  V30 5188 C 505.494 -3.29276 4.21285 0
M  V30 5189 C 506.794 -1.27913 5.06395 0
M  V30 5190 H 508.488 -0.460497 2.95837 0
M  V30 5191 H 506.034 -0.220058 1.42309 0
M  V30 5192 H 507.987 -2.89522 3.06194 0
M  V30 5193 H 506.711 -2.70221 1.83434 0
M  V30 5194 H 505.37 -1.28945 3.43175 0
M  V30 5195 H 505.018 -3.76369 3.33699 0
M  V30 5196 H 504.718 -3.12831 4.97404 0
M  V30 5197 H 506.242 -3.99129 4.62091 0
M  V30 5198 H 507.656 -1.86544 5.42102 0
M  V30 5199 H 506.053 -1.2182 5.87605 0
M  V30 5200 H 507.123 -0.254066 4.84234 0
M  V30 5201 N 508.466 -1.55915 -0.229846 0
M  V30 5202 C 509.743 -1.6932 -0.979295 0
M  V30 5203 C 510.123 -0.588321 -2.02736 0
M  V30 5204 O 509.471 0.40586 -2.24867 0
M  V30 5205 C 509.681 -3.10305 -1.59724 0
M  V30 5206 C 511.029 -3.6945 -2.09264 0
M  V30 5207 O 512.053 -3.13214 -1.69633 0
M  V30 5208 O 510.912 -4.68072 -2.82082 0
M  V30 5209 H 508.006 -0.689314 -0.456919 0
M  V30 5210 H 510.552 -1.68238 -0.222283 0
M  V30 5211 H 509.324 -3.82177 -0.840039 0
M  V30 5212 H 508.947 -3.1547 -2.42001 0
M  V30 5213 N 509.944 0.496216 -1.49584 0
M  V30 5214 C 511.172 1.27394 -1.63029 0
M  V30 5215 C 511.587 1.86344 -0.303569 0
M  V30 5216 O 510.944 1.68057 0.711547 0
M  V30 5217 C 510.995 2.40077 -2.70269 0
M  V30 5218 O 510.716 1.83549 -3.97796 0
M  V30 5219 C 512.217 3.31372 -2.94462 0
M  V30 5220 H 509.437 0.386211 -0.54871 0
M  V30 5221 H 511.981 0.595163 -1.95648 0
M  V30 5222 H 510.136 3.03775 -2.40415 0
M  V30 5223 H 510.55 2.57561 -4.56905 0
M  V30 5224 H 512.024 4.06707 -3.73221 0
M  V30 5225 H 512.501 3.88654 -2.0456 0
M  V30 5226 H 513.107 2.73435 -3.25751 0
M  V30 5227 N 511.423 1.38739 0.74761 0
M  V30 5228 C 512.671 1.35007 1.50391 0
M  V30 5229 C 512.992 -0.0574274 1.94915 0
M  V30 5230 O 512.262 -1.00628 1.6808 0
M  V30 5231 H 510.842 0.496784 0.557866 0
M  V30 5232 H 513.504 1.73479 0.888319 0
M  V30 5233 H 512.6 2.00474 2.392 0
M  V30 5234 N 512.901 -0.976442 1.23707 0
M  V30 5235 C 514.178 -1.69296 0.979699 0
M  V30 5236 C 514.558 -2.0508 -0.500555 0
M  V30 5237 O 513.906 -1.74708 -1.47273 0
M  V30 5238 C 514.116 -2.93143 1.89389 0
M  V30 5239 C 515.464 -3.65572 2.15968 0
M  V30 5240 O 516.488 -3.03184 1.86971 0
M  V30 5241 O 515.347 -4.77859 2.65167 0
M  V30 5242 H 512.441 -0.739708 0.369812 0
M  V30 5243 H 514.987 -1.03131 1.34767 0
M  V30 5244 H 513.759 -2.63327 2.89439 0
M  V30 5245 H 513.382 -3.67044 1.52854 0
M  V30 5246 N 514.379 -1.04941 -1.1758 0
M  V30 5247 C 515.342 -0.652456 -2.19717 0
M  V30 5248 C 516.342 0.294745 -1.58076 0
M  V30 5249 O 517.532 0.0789579 -1.74021 0
M  V30 5250 C 514.664 0.0420712 -3.40874 0
M  V30 5251 H 515.857 -1.55642 -2.5635 0
M  V30 5252 H 513.41 -0.842995 -1.31618 0
M  V30 5253 H 514.145 0.95943 -3.09783 0
M  V30 5254 H 513.93 -0.638844 -3.86861 0
M  V30 5255 H 515.42 0.306 -4.16477 0
M  V30 5256 N 515.857 1.33968 -0.830081 0
M  V30 5257 C 517.082 2.02813 -0.433796 0
M  V30 5258 C 517.507 1.62076 0.954614 0
M  V30 5259 O 516.865 0.808955 1.62252 0
M  V30 5260 C 516.913 3.56348 -0.552115 0
M  V30 5261 O 516.017 4.10202 0.425191 0
M  V30 5262 H 515.358 0.639817 -0.177567 0
M  V30 5263 H 517.888 1.7106 -1.12248 0
M  V30 5264 H 517.898 4.05722 -0.430513 0
M  V30 5265 H 516.573 3.85344 -1.56471 0
M  V30 5266 H 515.15 3.71979 0.261878 0
M  V30 5267 N 517.335 0.585699 1.46312 0
M  V30 5268 C 518.283 -0.158577 2.32059 0
M  V30 5269 C 519.277 -0.881427 1.44662 0
M  V30 5270 O 520.483 -0.799476 1.61271 0
M  V30 5271 H 516.858 -0.0700066 0.748734 0
M  V30 5272 H 518.829 0.583383 2.92642 0
M  V30 5273 C 517.578 -1.15701 3.27885 0
M  V30 5274 H 516.901 -0.610215 3.95116 0
M  V30 5275 H 518.341 -1.64812 3.90657 0
M  V30 5276 C 516.8 -2.21951 2.53455 0
M  V30 5277 O 517.33 -3.29352 2.29978 0
M  V30 5278 N 515.536 -1.9664 2.13965 0
M  V30 5279 H 515.083 -1.09309 2.33258 0
M  V30 5280 H 515.041 -2.6794 1.64485 0
M  V30 5281 N 518.813 -1.54241 0.323641 0
M  V30 5282 C 520.06 -2.0057 -0.27891 0
M  V30 5283 C 520.388 -1.21181 -1.52136 0
M  V30 5284 O 519.643 -0.282043 -1.93657 0
M  V30 5285 C 519.942 -3.5129 -0.658031 0
M  V30 5286 C 519.608 -4.48281 0.485252 0
M  V30 5287 C 518.27 -4.74519 0.799055 0
M  V30 5288 C 520.622 -5.05909 1.25322 0
M  V30 5289 C 517.95 -5.55643 1.88354 0
M  V30 5290 C 520.302 -5.88215 2.32779 0
M  V30 5291 C 518.966 -6.12755 2.64741 0
M  V30 5292 H 518.236 -0.733938 -0.10206 0
M  V30 5293 H 520.883 -1.862 0.447435 0
M  V30 5294 H 519.188 -3.63388 -1.4648 0
M  V30 5295 H 520.885 -3.84578 -1.1358 0
M  V30 5296 H 517.475 -4.27979 0.230593 0
M  V30 5297 H 521.659 -4.8562 1.02404 0
M  V30 5298 H 516.915 -5.72888 2.13564 0
M  V30 5299 H 521.089 -6.31888 2.92729 0
M  V30 5300 H 518.716 -6.75404 3.48904 0
M  V30 5301 N 520.291 -0.0518155 -1.57515 0
M  V30 5302 C 521.254 0.907547 -2.10467 0
M  V30 5303 C 522.254 1.23947 -1.02439 0
M  V30 5304 O 523.444 1.17604 -1.2851 0
M  V30 5305 C 520.576 2.21723 -2.58944 0
M  V30 5306 H 521.769 0.44851 -2.96527 0
M  V30 5307 H 519.322 0.196598 -1.55059 0
M  V30 5308 H 520.057 2.72206 -1.76279 0
M  V30 5309 H 519.842 1.98935 -3.37886 0
M  V30 5310 H 521.332 2.90441 -3.00056 0
M  V30 5311 N 521.769 1.56035 0.221574 0
M  V30 5312 C 523.185 1.49026 0.571271 0
M  V30 5313 C 523.385 0.746912 1.87146 0
M  V30 5314 O 522.441 0.286566 2.50869 0
M  V30 5315 C 523.754 2.93579 0.650522 0
M  V30 5316 C 525.302 3.04099 0.741151 0
M  V30 5317 C 525.777 4.5001 0.851747 0
M  V30 5318 N 527.268 4.54053 0.915968 0
M  V30 5319 C 528.003 5.64232 1.02125 0
M  V30 5320 N 527.499 6.84164 1.09049 0
M  V30 5321 N 529.292 5.52084 1.05639 0
M  V30 5322 H 521.443 2.02791 -0.63162 0
M  V30 5323 H 523.706 0.921736 -0.221602 0
M  V30 5324 H 523.412 3.50912 -0.235253 0
M  V30 5325 H 523.286 3.45476 1.51413 0
M  V30 5326 H 525.673 2.4683 1.61737 0
M  V30 5327 H 525.754 2.55371 -0.148128 0
M  V30 5328 H 525.398 5.07896 -0.0200117 0
M  V30 5329 H 525.328 4.96444 1.75644 0
M  V30 5330 H 527.819 3.67683 0.872782 0
M  V30 5331 H 528.132 7.63883 1.1706 0
M  V30 5332 H 526.477 6.86875 1.05962 0
M  V30 5333 H 529.668 4.57317 0.998953 0
M  V30 5334 H 529.841 6.37983 1.13498 0
M  V30 5335 N 523.247 -0.488276 1.49845 0
M  V30 5336 C 524.493 -1.24065 1.61182 0
M  V30 5337 C 524.848 -1.9004 0.300435 0
M  V30 5338 O 524.141 -1.78341 -0.700365 0
M  V30 5339 C 524.335 -2.32152 2.71735 0
M  V30 5340 C 524.164 -1.76778 4.13497 0
M  V30 5341 C 522.934 -1.57513 4.80123 0
M  V30 5342 C 525.132 -1.27242 4.98311 0
M  V30 5343 N 523.114 -0.972015 6.06156 0
M  V30 5344 C 524.485 -0.791457 6.14928 0
M  V30 5345 C 526.54 -1.15934 4.84214 0
M  V30 5346 C 525.243 -0.208593 7.18997 0
M  V30 5347 C 527.269 -0.590436 5.88445 0
M  V30 5348 C 526.631 -0.119767 7.04298 0
M  V30 5349 H 522.73 -0.443487 0.644083 0
M  V30 5350 H 525.314 -0.545551 1.86901 0
M  V30 5351 H 523.485 -2.99108 2.47768 0
M  V30 5352 H 525.217 -2.99187 2.72523 0
M  V30 5353 H 521.972 -1.82247 4.37131 0
M  V30 5354 H 522.396 -0.689367 6.73481 0
M  V30 5355 H 527.038 -1.5092 3.94947 0
M  V30 5356 H 524.756 0.153501 8.07954 0
M  V30 5357 H 528.342 -0.505548 5.79599 0
M  V30 5358 H 527.222 0.313568 7.83573 0
M  V30 5359 N 524.725 -1.39134 -0.740242 0
M  V30 5360 C 526.141 -1.20623 -1.0451 0
M  V30 5361 C 526.341 -0.0641651 -2.01398 0
M  V30 5362 O 525.397 0.585843 -2.4561 0
M  V30 5363 C 526.71 -2.53815 -1.6124 0
M  V30 5364 C 528.258 -2.60615 -1.73346 0
M  V30 5365 C 528.733 -3.94015 -2.33486 0
M  V30 5366 N 530.224 -3.95627 -2.40902 0
M  V30 5367 C 530.959 -4.95616 -2.88361 0
M  V30 5368 N 530.455 -6.06003 -3.35756 0
M  V30 5369 N 532.248 -4.82998 -2.87523 0
M  V30 5370 H 524.399 -2.12176 -0.0975576 0
M  V30 5371 H 526.662 -0.942066 -0.105904 0
M  V30 5372 H 526.368 -3.37911 -0.975144 0
M  V30 5373 H 526.242 -2.73162 -2.6012 0
M  V30 5374 H 528.629 -1.76906 -2.36195 0
M  V30 5375 H 528.71 -2.45123 -0.731336 0
M  V30 5376 H 528.354 -4.78153 -1.71267 0
M  V30 5377 H 528.284 -4.06825 -3.34366 0
M  V30 5378 H 530.775 -3.15903 -2.07398 0
M  V30 5379 H 531.088 -6.78215 -3.70464 0
M  V30 5380 H 529.433 -6.09604 -3.33778 0
M  V30 5381 H 532.624 -3.95866 -2.49816 0
M  V30 5382 H 532.797 -5.61072 -3.24196 0
M  V30 5383 N 526.204 0.969867 -1.24223 0
M  V30 5384 C 527.434 1.74502 -1.106 0
M  V30 5385 C 527.842 1.86038 0.344483 0
M  V30 5386 O 527.185 1.3465 1.24961 0
M  V30 5387 C 527.247 3.18391 -1.66935 0
M  V30 5388 C 526.911 3.30334 -3.15798 0
M  V30 5389 C 527.908 3.15832 -4.12973 0
M  V30 5390 C 525.593 3.54644 -3.55715 0
M  V30 5391 C 527.587 3.25461 -5.48045 0
M  V30 5392 C 525.274 3.63912 -4.90929 0
M  V30 5393 C 526.272 3.49332 -5.86904 0
M  V30 5394 O 525.96 3.58251 -7.1966 0
M  V30 5395 H 525.692 0.554119 -0.387206 0
M  V30 5396 H 528.246 1.22646 -1.64764 0
M  V30 5397 H 526.476 3.71543 -1.07203 0
M  V30 5398 H 528.165 3.77707 -1.48634 0
M  V30 5399 H 528.931 2.96937 -3.83476 0
M  V30 5400 H 524.81 3.65059 -2.81519 0
M  V30 5401 H 528.354 3.13998 -6.22937 0
M  V30 5402 H 524.251 3.82319 -5.20098 0
M  V30 5403 H 525.019 3.7498 -7.27552 0
M  V30 5404 N 527.682 1.05563 1.17022 0
M  V30 5405 C 528.629 0.659893 2.21165 0
M  V30 5406 C 529.599 -0.339813 1.62587 0
M  V30 5407 O 530.784 -0.230378 1.89404 0
M  V30 5408 C 527.924 0.0447297 3.45071 0
M  V30 5409 C 527.037 1.09372 4.17926 0
M  V30 5410 C 526.172 0.445481 5.29329 0
M  V30 5411 C 525.211 1.47852 5.93975 0
M  V30 5412 N 524.348 0.854172 6.96885 0
M  V30 5413 H 529.188 1.55243 2.54369 0
M  V30 5414 H 526.725 0.776336 1.24946 0
M  V30 5415 H 528.683 -0.329404 4.15898 0
M  V30 5416 H 527.313 -0.811244 3.1244 0
M  V30 5417 H 526.365 1.58564 3.45777 0
M  V30 5418 H 527.677 1.87773 4.62107 0
M  V30 5419 H 526.831 0.0179688 6.06697 0
M  V30 5420 H 525.57 -0.370481 4.86291 0
M  V30 5421 H 524.575 1.91601 5.15334 0
M  V30 5422 H 525.8 2.29645 6.39093 0
M  V30 5423 H 523.746 0.0587882 6.55974 0
M  V30 5424 H 523.663 1.57567 7.39397 0
M  V30 5425 H 524.931 0.451559 7.78191 0
M  V30 5426 N 529.16 -1.33526 0.837174 0
M  V30 5427 C 530.406 -1.9813 0.432704 0
M  V30 5428 C 530.739 -1.66168 -1.00508 0
M  V30 5429 O 530.014 -0.94069 -1.70239 0
M  V30 5430 C 530.297 -3.54151 0.651834 0
M  V30 5431 C 530.15 -3.95806 2.13676 0
M  V30 5432 C 531.469 -4.39993 0.0968937 0
M  V30 5433 H 528.588 -0.719713 0.15869 0
M  V30 5434 H 531.23 -1.58193 1.05237 0
M  V30 5435 H 529.38 -3.88301 0.124369 0
M  V30 5436 H 531.052 -3.71921 2.72896 0
M  V30 5437 H 529.295 -3.45599 2.62191 0
M  V30 5438 H 529.966 -5.0447 2.24084 0
M  V30 5439 H 532.442 -4.12479 0.547733 0
M  V30 5440 H 531.318 -5.48186 0.279917 0
M  V30 5441 H 531.579 -4.3066 -0.9992 0
M  V30 5442 N 530.638 -0.59345 -1.46 0
M  V30 5443 C 531.863 -0.0872365 -2.07216 0
M  V30 5444 C 532.288 1.2131 -1.43755 0
M  V30 5445 O 531.646 1.73528 -0.525152 0
M  V30 5446 C 531.694 0.0538197 -3.6056 0
M  V30 5447 O 530.798 1.10765 -3.97247 0
M  V30 5448 H 530.139 -0.0676598 -0.660544 0
M  V30 5449 H 532.669 -0.819445 -1.87473 0
M  V30 5450 H 532.679 0.256567 -4.07193 0
M  V30 5451 H 531.354 -0.895739 -4.0614 0
M  V30 5452 H 529.931 0.882501 -3.62307 0
M  V30 5453 N 532.116 1.54067 -0.331816 0
M  V30 5454 C 533.362 2.01012 0.268667 0
M  V30 5455 C 533.695 1.2195 1.51136 0
M  V30 5456 O 532.97 0.303972 1.9211 0
M  V30 5457 C 533.253 3.55158 0.59456 0
M  V30 5458 C 533.106 4.4494 -0.659409 0
M  V30 5459 C 534.425 4.16939 1.4089 0
M  V30 5460 H 531.544 0.730698 0.0961756 0
M  V30 5461 H 534.186 1.84593 -0.450031 0
M  V30 5462 H 532.336 3.6928 1.20685 0
M  V30 5463 H 534.008 4.42675 -1.29756 0
M  V30 5464 H 532.251 4.1428 -1.28665 0
M  V30 5465 H 532.922 5.50643 -0.386804 0
M  V30 5466 H 535.398 4.06443 0.891272 0
M  V30 5467 H 534.274 5.24889 1.60569 0
M  V30 5468 H 534.535 3.70798 2.40752 0
M  V30 5469 N 533.594 0.0601682 1.57485 0
M  V30 5470 C 534.822 -0.620937 1.97363 0
M  V30 5471 C 535.237 -1.63846 0.938082 0
M  V30 5472 O 534.594 -1.82339 -0.0766578 0
M  V30 5473 C 534.645 -1.29987 3.37321 0
M  V30 5474 O 534.366 -0.323081 4.36907 0
M  V30 5475 C 535.867 -2.06989 3.92008 0
M  V30 5476 H 533.087 -0.169135 0.649334 0
M  V30 5477 H 535.631 0.129132 2.04092 0
M  V30 5478 H 533.786 -2.0011 3.31715 0
M  V30 5479 H 534.2 -0.808754 5.18227 0
M  V30 5480 H 535.674 -2.49901 4.92192 0
M  V30 5481 H 536.151 -2.92173 3.2792 0
M  V30 5482 H 536.757 -1.41757 4.0098 0
M  V30 5483 N 535.072 -1.5615 -0.213296 0
M  V30 5484 C 536.002 -1.96109 -1.26742 0
M  V30 5485 C 536.983 -0.830448 -1.48451 0
M  V30 5486 O 538.168 -1.09339 -1.60495 0
M  V30 5487 C 535.298 -2.28492 -2.61551 0
M  V30 5488 C 534.252 -3.44124 -2.54485 0
M  V30 5489 C 533.578 -3.62134 -3.93399 0
M  V30 5490 C 534.878 -4.78855 -2.08556 0
M  V30 5491 H 536.572 -2.84412 -0.935434 0
M  V30 5492 H 534.118 -1.36836 -0.44854 0
M  V30 5493 H 536.071 -2.55039 -3.3546 0
M  V30 5494 H 534.795 -1.37052 -2.96453 0
M  V30 5495 H 533.454 -3.17639 -1.83033 0
M  V30 5496 H 533.102 -2.68055 -4.25623 0
M  V30 5497 H 532.802 -4.39913 -3.89551 0
M  V30 5498 H 534.326 -3.91038 -4.68958 0
M  V30 5499 H 535.74 -5.04552 -2.72213 0
M  V30 5500 H 534.137 -5.59975 -2.1575 0
M  V30 5501 H 535.207 -4.73657 -1.03811 0
M  V30 5502 N 536.55 0.480323 -1.50102 0
M  V30 5503 C 537.775 1.26126 -1.64642 0
M  V30 5504 C 538.2 1.85257 -0.325823 0
M  V30 5505 O 537.558 1.66854 0.709194 0
M  V30 5506 C 537.606 2.35243 -2.73301 0
M  V30 5507 O 536.71 3.39646 -2.33911 0
M  V30 5508 H 536.051 0.371463 -0.550374 0
M  V30 5509 H 538.581 0.572696 -1.96421 0
M  V30 5510 H 538.591 2.80695 -2.96098 0
M  V30 5511 H 537.266 1.91574 -3.6915 0
M  V30 5512 H 535.843 2.99969 -2.21525 0
M  V30 5513 N 538.028 1.39524 0.732853 0
M  V30 5514 C 539.276 1.36594 1.48951 0
M  V30 5515 C 539.597 -0.0367507 1.94965 0
M  V30 5516 O 538.867 -0.988391 1.69138 0
M  V30 5517 H 537.447 0.502673 0.552566 0
M  V30 5518 H 540.109 1.74411 0.869869 0
M  V30 5519 H 539.205 2.03 2.3706 0
M  V30 5520 N 539.506 -0.963266 1.24736 0
M  V30 5521 C 540.453 -2.05857 1.04363 0
M  V30 5522 C 541.423 -1.6604 -0.0444951 0
M  V30 5523 O 542.608 -1.90477 0.110999 0
M  V30 5524 C 539.748 -3.38745 0.659235 0
M  V30 5525 C 538.861 -3.9173 1.82131 0
M  V30 5526 C 537.996 -5.12906 1.38208 0
M  V30 5527 C 537.035 -5.58098 2.51382 0
M  V30 5528 N 536.172 -6.7049 2.08295 0
M  V30 5529 H 541.012 -2.22616 1.98107 0
M  V30 5530 H 538.549 -1.09103 0.986661 0
M  V30 5531 H 540.507 -4.15107 0.417371 0
M  V30 5532 H 539.137 -3.21898 -0.241201 0
M  V30 5533 H 538.189 -3.11966 2.17672 0
M  V30 5534 H 539.501 -4.21225 2.67153 0
M  V30 5535 H 538.655 -5.96657 1.09935 0
M  V30 5536 H 537.394 -4.85105 0.502456 0
M  V30 5537 H 536.399 -4.72917 2.80409 0
M  V30 5538 H 537.624 -5.87911 3.39909 0
M  V30 5539 H 535.57 -6.44416 1.22737 0
M  V30 5540 H 535.487 -6.99458 2.86869 0
M  V30 5541 H 536.755 -7.57672 1.83175 0
M  V30 5542 N 540.985 -1.06182 -1.16461 0
M  V30 5543 C 541.932 -0.671613 -2.20812 0
M  V30 5544 C 542.902 0.331186 -1.62765 0
M  V30 5545 O 544.087 0.22033 -1.89524 0
M  V30 5546 C 541.227 -0.063029 -3.45042 0
M  V30 5547 C 540.34 -1.11587 -4.1734 0
M  V30 5548 C 539.475 -0.473546 -5.29085 0
M  V30 5549 C 538.514 -1.51 -5.93182 0
M  V30 5550 N 537.651 -0.891118 -6.96422 0
M  V30 5551 H 542.491 -1.56589 -2.53542 0
M  V30 5552 H 540.028 -0.782951 -1.24532 0
M  V30 5553 H 541.986 0.307344 -4.16066 0
M  V30 5554 H 540.616 0.794663 -3.12866 0
M  V30 5555 H 539.668 -1.60396 -3.44931 0
M  V30 5556 H 540.98 -1.90221 -4.61104 0
M  V30 5557 H 540.134 -0.0501432 -6.06679 0
M  V30 5558 H 538.873 0.344687 -4.8648 0
M  V30 5559 H 537.878 -1.94331 -5.14311 0
M  V30 5560 H 539.103 -2.33031 -6.37866 0
M  V30 5561 H 537.049 -0.0935753 -6.55933 0
M  V30 5562 H 536.966 -1.61486 -7.38551 0
M  V30 5563 H 538.234 -0.492822 -7.77941 0
M  V30 5564 N 542.463 1.3308 -0.844243 0
M  V30 5565 C 543.709 1.97898 -0.443206 0
M  V30 5566 C 544.042 1.66699 0.99625 0
M  V30 5567 O 543.317 0.949704 1.69738 0
M  V30 5568 C 543.6 3.53801 -0.670606 0
M  V30 5569 C 543.453 3.94667 -2.15772 0
M  V30 5570 C 544.772 4.39936 -0.120226 0
M  V30 5571 H 541.891 0.718861 -0.162504 0
M  V30 5572 H 544.533 1.57633 -1.06075 0
M  V30 5573 H 542.683 3.88229 -0.14496 0
M  V30 5574 H 544.355 3.70469 -2.74865 0
M  V30 5575 H 542.598 3.44203 -2.6402 0
M  V30 5576 H 543.269 5.03275 -2.26757 0
M  V30 5577 H 545.745 4.12183 -0.5696 0
M  V30 5578 H 544.621 5.4803 -0.308984 0
M  V30 5579 H 544.882 4.31184 0.976347 0
M  V30 5580 N 543.941 0.601185 1.45683 0
M  V30 5581 C 545.169 0.100054 2.06658 0
M  V30 5582 C 545.584 -1.21285 1.44691 0
M  V30 5583 O 544.941 -1.73735 0.558772 0
M  V30 5584 C 544.992 -0.0528579 3.61461 0
M  V30 5585 O 544.713 1.20809 4.21114 0
M  V30 5586 C 546.214 -0.586193 4.39407 0
M  V30 5587 H 543.434 0.065905 0.667756 0
M  V30 5588 H 545.978 0.827101 1.87028 0
M  V30 5589 H 544.133 -0.730203 3.80456 0
M  V30 5590 H 544.547 1.03368 5.14213 0
M  V30 5591 H 546.021 -0.642297 5.4825 0
M  V30 5592 H 546.498 -1.60713 4.0874 0
M  V30 5593 H 547.104 0.0568935 4.25262 0
M  V30 5594 N 545.419 -1.53889 0.339982 0
M  V30 5595 C 546.667 -2.00458 -0.257112 0
M  V30 5596 C 546.988 -1.22953 -1.51353 0
M  V30 5597 O 546.258 -0.335734 -1.93002 0
M  V30 5598 H 544.838 -0.740544 -0.0979965 0
M  V30 5599 H 547.5 -1.89386 0.460317 0
M  V30 5600 H 546.596 -3.08035 -0.502057 0
M  V30 5601 N 546.897 -0.0685191 -1.57451 0
M  V30 5602 C 547.847 0.909895 -2.09057 0
M  V30 5603 C 548.831 1.26088 -0.999528 0
M  V30 5604 O 550.023 1.24041 -1.26265 0
M  V30 5605 C 547.152 2.17863 -2.65312 0
M  V30 5606 C 546.238 1.85427 -3.81415 0
M  V30 5607 N 546.629 1.23426 -4.9051 0
M  V30 5608 C 544.927 2.15196 -3.90649 0
M  V30 5609 C 545.628 1.09008 -5.71395 0
M  V30 5610 N 544.604 1.59871 -5.1956 0
M  V30 5611 H 548.406 0.426145 -2.90794 0
M  V30 5612 H 545.92 0.135462 -1.61834 0
M  V30 5613 H 547.917 2.88872 -3.00597 0
M  V30 5614 H 546.577 2.66829 -1.85021 0
M  V30 5615 H 547.588 0.904305 -5.09944 0
M  V30 5616 H 544.265 2.66562 -3.21327 0
M  V30 5617 H 545.655 0.607305 -6.6915 0
M  V30 5618 N 548.375 1.56261 0.205012 0
M  V30 5619 C 549.624 1.79236 0.925058 0
M  V30 5620 C 549.937 0.640011 1.84833 0
M  V30 5621 O 551.143 0.753809 2.60826 0
M  V30 5622 C 549.599 3.17475 1.69522 0
M  V30 5623 C 549.207 4.40482 0.817269 0
M  V30 5624 C 550.951 3.49766 2.4055 0
M  V30 5625 C 548.858 5.69744 1.58573 0
M  V30 5626 H 547.788 0.668287 0.349153 0
M  V30 5627 H 550.439 1.82629 0.178544 0
M  V30 5628 H 548.821 3.08304 2.48526 0
M  V30 5629 H 549.995 4.60752 0.0665988 0
M  V30 5630 H 548.31 4.15827 0.218316 0
M  V30 5631 H 550.907 4.43573 2.98575 0
M  V30 5632 H 551.25 2.73041 3.14252 0
M  V30 5633 H 551.783 3.60341 1.68522 0
M  V30 5634 H 548.522 6.49407 0.891679 0
M  V30 5635 H 548.042 5.53509 2.31059 0
M  V30 5636 H 549.721 6.1051 2.14212 0
M  V30 5637 N 549.853 -0.472356 1.50355 0
M  V30 5638 C 550.783 -1.57859 1.72055 0
M  V30 5639 C 551.764 -1.60283 0.569505 0
M  V30 5640 O 552.949 -1.7657 0.808503 0
M  V30 5641 C 550.079 -2.96191 1.81351 0
M  V30 5642 C 549.033 -3.08633 2.96529 0
M  V30 5643 C 548.359 -4.486 2.90968 0
M  V30 5644 C 549.659 -2.85969 4.37057 0
M  V30 5645 H 551.353 -1.39953 2.64676 0
M  V30 5646 H 548.899 -0.671846 1.27367 0
M  V30 5647 H 550.852 -3.73507 1.95117 0
M  V30 5648 H 549.576 -3.15251 0.853502 0
M  V30 5649 H 548.235 -2.33749 2.82413 0
M  V30 5650 H 547.883 -4.64577 1.92815 0
M  V30 5651 H 547.583 -4.57861 3.68289 0
M  V30 5652 H 549.107 -5.27938 3.0678 0
M  V30 5653 H 550.521 -3.53036 4.51706 0
M  V30 5654 H 548.918 -3.06677 5.15819 0
M  V30 5655 H 549.988 -1.81838 4.49514 0
M  V30 5656 N 551.331 -1.39911 -0.725443 0
M  V30 5657 C 552.577 -1.37858 -1.48738 0
M  V30 5658 C 552.91 0.0224187 -1.94187 0
M  V30 5659 O 552.185 0.989204 -1.67466 0
M  V30 5660 C 552.468 -2.3594 -2.72038 0
M  V30 5661 C 552.321 -3.85023 -2.32546 0
M  V30 5662 C 553.64 -2.31704 -3.74167 0
M  V30 5663 H 550.759 -0.502074 -0.539528 0
M  V30 5664 H 553.401 -1.70974 -0.828728 0
M  V30 5665 H 551.551 -2.0783 -3.28236 0
M  V30 5666 H 553.223 -4.2392 -1.81905 0
M  V30 5667 H 551.466 -4.01334 -1.64661 0
M  V30 5668 H 552.137 -4.49152 -3.20884 0
M  V30 5669 H 554.613 -2.5658 -3.27576 0
M  V30 5670 H 553.489 -3.02395 -4.58092 0
M  V30 5671 H 553.75 -1.3253 -4.21768 0
M  V30 5672 N 552.809 0.956637 -1.25245 0
M  V30 5673 C 554.034 1.74104 -1.12706 0
M  V30 5674 C 554.459 1.85436 0.315429 0
M  V30 5675 O 553.817 1.33334 1.22848 0
M  V30 5676 C 553.865 3.1338 -1.78396 0
M  V30 5677 O 552.969 3.98485 -1.06224 0
M  V30 5678 H 552.31 0.53476 -0.393609 0
M  V30 5679 H 554.84 1.19924 -1.65769 0
M  V30 5680 H 554.85 3.6385 -1.846 0
M  V30 5681 H 553.525 3.04448 -2.83345 0
M  V30 5682 H 552.102 3.56952 -1.07886 0
M  V30 5683 N 554.287 1.06798 1.15896 0
M  V30 5684 C 555.217 0.704677 2.22613 0
M  V30 5685 C 556.198 -0.305252 1.67339 0
M  V30 5686 O 557.383 -0.179247 1.93371 0
M  V30 5687 C 554.513 0.0957325 3.47168 0
M  V30 5688 C 553.467 1.0322 4.15367 0
M  V30 5689 C 552.793 0.286293 5.33933 0
M  V30 5690 C 554.093 2.36341 4.65768 0
M  V30 5691 H 555.787 1.59688 2.53259 0
M  V30 5692 H 553.333 0.769257 1.21731 0
M  V30 5693 H 555.286 -0.170333 4.21056 0
M  V30 5694 H 554.01 -0.831516 3.15838 0
M  V30 5695 H 552.669 1.28309 3.43413 0
M  V30 5696 H 552.317 -0.644237 4.98857 0
M  V30 5697 H 552.017 0.910436 5.80504 0
M  V30 5698 H 553.541 0.0278938 6.10594 0
M  V30 5699 H 554.955 2.1561 5.31211 0
M  V30 5700 H 553.352 2.94299 5.2298 0
M  V30 5701 H 554.422 2.99047 3.81705 0
M  V30 5702 N 555.766 -1.3263 0.851289 0
M  V30 5703 C 557.013 -1.97368 0.453023 0
M  V30 5704 C 557.341 -1.67384 -0.990596 0
M  V30 5705 O 556.596 -0.952665 -1.70947 0
M  V30 5706 C 556.895 -3.51713 0.635015 0
M  V30 5707 C 556.561 -4.01676 2.04859 0
M  V30 5708 C 555.223 -4.15031 2.43522 0
M  V30 5709 C 557.575 -4.28206 2.97135 0
M  V30 5710 C 554.903 -4.52257 3.73739 0
M  V30 5711 C 557.255 -4.66889 4.26846 0
M  V30 5712 C 555.919 -4.7845 4.65448 0
M  V30 5713 H 555.189 -0.722219 0.165773 0
M  V30 5714 H 557.836 -1.58092 1.0807 0
M  V30 5715 H 556.141 -3.91726 -0.0759081 0
M  V30 5716 H 557.838 -3.99823 0.306964 0
M  V30 5717 H 554.428 -3.91764 1.73836 0
M  V30 5718 H 558.612 -4.174 2.68498 0
M  V30 5719 H 553.868 -4.59402 4.03435 0
M  V30 5720 H 558.042 -4.86372 4.98413 0
M  V30 5721 H 555.669 -5.07052 5.66395 0
M  V30 5722 N 557.244 -0.608902 -1.45362 0
M  V30 5723 C 558.492 -0.104401 -2.0183 0
M  V30 5724 C 558.813 1.27007 -1.47967 0
M  V30 5725 O 558.083 1.83924 -0.674455 0
M  V30 5726 H 556.663 -0.0356042 -0.746151 0
M  V30 5727 H 559.325 -0.790596 -1.78145 0
M  V30 5728 H 558.421 -0.0551793 -3.12051 0
M  V30 5729 N 558.722 1.53707 -0.348139 0
M  V30 5730 C 559.67 2.26671 0.521808 0
M  V30 5731 C 560.664 1.28988 1.09811 0
M  V30 5732 O 561.87 1.4668 1.04332 0
M  V30 5733 H 558.245 0.728387 0.186968 0
M  V30 5734 H 560.216 2.98176 -0.115563 0
M  V30 5735 C 558.965 3.05591 1.6586 0
M  V30 5736 H 558.288 3.80589 1.22443 0
M  V30 5737 H 559.728 3.59851 2.24239 0
M  V30 5738 C 558.187 2.15366 2.59073 0
M  V30 5739 O 558.717 1.7528 3.61441 0
M  V30 5740 N 556.923 1.80352 2.27863 0
M  V30 5741 H 556.47 2.13149 1.44656 0
M  V30 5742 H 556.428 1.20268 2.90488 0
M  V30 5743 N 560.2 0.0768682 1.57412 0
M  V30 5744 C 561.147 -0.888577 2.13009 0
M  V30 5745 C 562.117 -1.29198 1.0439 0
M  V30 5746 O 563.302 -1.37694 1.3208 0
M  V30 5747 C 560.442 -2.14899 2.70023 0
M  V30 5748 C 559.555 -1.79777 3.92816 0
M  V30 5749 C 558.69 -3.00467 4.38056 0
M  V30 5750 C 557.729 -2.61385 5.53484 0
M  V30 5751 N 556.866 -3.74851 5.93659 0
M  V30 5752 H 561.706 -0.407593 2.95199 0
M  V30 5753 H 559.243 -0.189534 1.45874 0
M  V30 5754 H 561.201 -2.88688 3.0119 0
M  V30 5755 H 559.831 -2.60529 1.9059 0
M  V30 5756 H 558.883 -0.960301 3.68079 0
M  V30 5757 H 560.195 -1.47027 4.76639 0
M  V30 5758 H 559.349 -3.82529 4.7091 0
M  V30 5759 H 558.088 -3.36413 3.53097 0
M  V30 5760 H 557.093 -1.77746 5.20275 0
M  V30 5761 H 558.318 -2.26603 6.40178 0
M  V30 5762 H 556.264 -4.1055 5.11649 0
M  V30 5763 H 556.181 -3.45887 6.72234 0
M  V30 5764 H 557.449 -4.57477 6.31138 0
M  V30 5765 N 561.678 -1.56367 -0.196722 0
M  V30 5766 C 562.926 -1.80172 -0.915554 0
M  V30 5767 C 563.247 -0.649649 -1.8386 0
M  V30 5768 O 562.517 0.332111 -1.93064 0
M  V30 5769 H 561.097 -0.664592 -0.341067 0
M  V30 5770 H 563.759 -1.93844 -0.202622 0
M  V30 5771 H 562.855 -2.7327 -1.50764 0
M  V30 5772 N 563.156 0.464375 -1.50603 0
M  V30 5773 C 564.104 1.58224 -1.70493 0
M  V30 5774 C 565.098 1.59492 -0.570836 0
M  V30 5775 O 566.304 1.63561 -0.751517 0
M  V30 5776 H 562.679 0.525161 -0.538247 0
M  V30 5777 H 564.65 1.38613 -2.64252 0
M  V30 5778 C 563.399 2.96113 -1.82243 0
M  V30 5779 H 562.722 2.95858 -2.68901 0
M  V30 5780 H 564.162 3.73769 -2.00182 0
M  V30 5781 C 562.621 3.31946 -0.575628 0
M  V30 5782 O 563.151 4.00708 0.282152 0
M  V30 5783 N 561.357 2.87436 -0.427665 0
M  V30 5784 H 560.904 2.31652 -1.12674 0
M  V30 5785 H 560.862 3.11776 0.405379 0
M  V30 5786 N 564.634 1.40294 0.718013 0
M  V30 5787 C 565.859 1.41941 1.5122 0
M  V30 5788 C 566.284 0.0202371 1.88089 0
M  V30 5789 O 565.642 -0.971078 1.53101 0
M  V30 5790 C 565.69 2.3141 2.76554 0
M  V30 5791 O 564.794 1.75567 3.73162 0
M  V30 5792 H 564.135 0.482644 0.456016 0
M  V30 5793 H 566.665 1.84494 0.884478 0
M  V30 5794 H 566.675 2.46513 3.25108 0
M  V30 5795 H 565.35 3.33085 2.49053 0
M  V30 5796 H 563.927 1.69798 3.31999 0
M  V30 5797 N 566.112 -0.949982 1.2575 0
M  V30 5798 C 567.059 -2.04738 1.06541 0
M  V30 5799 C 568.029 -1.66078 -0.0268818 0
M  V30 5800 O 569.214 -1.90348 0.131196 0
M  V30 5801 C 566.354 -3.38027 0.695127 0
M  V30 5802 C 565.467 -3.89776 1.86276 0
M  V30 5803 C 564.602 -5.11411 1.4364 0
M  V30 5804 C 563.641 -5.554 2.57287 0
M  V30 5805 N 562.778 -6.68244 2.15395 0
M  V30 5806 H 567.618 -2.20502 2.00457 0
M  V30 5807 H 565.155 -1.0805 0.998178 0
M  V30 5808 H 567.113 -4.14641 0.461375 0
M  V30 5809 H 565.743 -3.22135 -0.207046 0
M  V30 5810 H 564.795 -3.0964 2.20969 0
M  V30 5811 H 566.107 -4.18368 2.71606 0
M  V30 5812 H 565.261 -5.95457 1.16257 0
M  V30 5813 H 564 -4.84545 0.553879 0
M  V30 5814 H 563.005 -4.69916 2.85409 0
M  V30 5815 H 564.23 -5.84272 3.46125 0
M  V30 5816 H 562.176 -6.43078 1.29565 0
M  V30 5817 H 562.093 -6.96377 2.94272 0
M  V30 5818 H 563.361 -7.55687 1.91201 0
M  V30 5819 N 567.59 -1.07411 -1.15328 0
M  V30 5820 C 568.522 -0.652924 -2.19703 0
M  V30 5821 C 569.535 0.294869 -1.60107 0
M  V30 5822 O 570.724 0.0840932 -1.78302 0
M  V30 5823 C 567.824 0.061434 -3.38844 0
M  V30 5824 C 566.997 -0.902696 -4.27984 0
M  V30 5825 C 566.056 -0.225521 -5.25717 0
M  V30 5826 O 565.082 -0.86676 -5.62562 0
M  V30 5827 N 566.284 1.02858 -5.71315 0
M  V30 5828 H 569.049 -1.55081 -2.56457 0
M  V30 5829 H 566.61 -0.958883 -1.30449 0
M  V30 5830 H 568.602 0.525145 -4.01278 0
M  V30 5831 H 567.172 0.861269 -3.00501 0
M  V30 5832 H 566.392 -1.54551 -3.6264 0
M  V30 5833 H 567.68 -1.55636 -4.84412 0
M  V30 5834 H 567.078 1.56948 -5.43492 0
M  V30 5835 H 565.635 1.43596 -6.35786 0
M  V30 5836 N 569.068 1.32177 -0.85831 0
M  V30 5837 C 570.298 2.01021 -0.476889 0
M  V30 5838 C 570.706 1.64653 0.931995 0
M  V30 5839 O 570.049 0.865713 1.62022 0
M  V30 5840 C 570.111 3.55413 -0.540528 0
M  V30 5841 C 569.775 4.1522 -1.90895 0
M  V30 5842 C 570.772 4.3318 -2.87491 0
M  V30 5843 C 568.457 4.51212 -2.20709 0
M  V30 5844 C 570.451 4.86306 -4.1205 0
M  V30 5845 C 568.138 5.04042 -3.45521 0
M  V30 5846 C 569.136 5.21538 -4.41007 0
M  V30 5847 O 568.824 5.73238 -5.63608 0
M  V30 5848 H 568.556 0.650059 -0.18547 0
M  V30 5849 H 571.11 1.69648 -1.15796 0
M  V30 5850 H 569.34 3.86196 0.19741 0
M  V30 5851 H 571.029 4.05526 -0.174191 0
M  V30 5852 H 571.795 4.05704 -2.65762 0
M  V30 5853 H 567.674 4.36878 -1.4717 0
M  V30 5854 H 571.218 4.99877 -4.86589 0
M  V30 5855 H 567.115 5.30952 -3.67098 0
M  V30 5856 H 567.883 5.91625 -5.65617 0
M  V30 5857 N 570.547 0.616602 1.45037 0
M  V30 5858 C 571.457 -0.0985401 2.34393 0
M  V30 5859 C 572.473 -0.850971 1.51771 0
M  V30 5860 O 573.649 -0.806521 1.84546 0
M  V30 5861 C 570.714 -1.07748 3.29532 0
M  V30 5862 C 569.775 -0.326022 4.2806 0
M  V30 5863 C 569.008 -1.25833 5.18654 0
M  V30 5864 O 569.231 -2.49652 5.12864 0
M  V30 5865 O 568.165 -0.750512 5.97203 0
M  V30 5866 H 571.991 0.636016 2.96966 0
M  V30 5867 H 569.576 0.376832 1.44569 0
M  V30 5868 H 571.458 -1.64107 3.88133 0
M  V30 5869 H 570.133 -1.79291 2.69512 0
M  V30 5870 H 569.04 0.280253 3.73049 0
M  V30 5871 H 570.373 0.349091 4.9096 0
M  V30 5872 N 572.025 -1.5352 0.356285 0
M  V30 5873 C 573.274 -2.00298 -0.237373 0
M  V30 5874 C 573.587 -1.24784 -1.50627 0
M  V30 5875 O 574.793 -1.62103 -2.17795 0
M  V30 5876 C 573.249 -3.56771 -0.473545 0
M  V30 5877 C 572.857 -4.41154 0.780183 0
M  V30 5878 C 574.601 -4.1193 -1.02537 0
M  V30 5879 C 572.508 -5.89161 0.514108 0
M  V30 5880 H 571.438 -0.748307 -0.092478 0
M  V30 5881 H 574.089 -1.77283 0.473588 0
M  V30 5882 H 572.471 -3.75902 -1.24553 0
M  V30 5883 H 573.645 -4.33797 1.55425 0
M  V30 5884 H 571.96 -3.97052 1.25455 0
M  V30 5885 H 574.557 -5.20133 -1.2396 0
M  V30 5886 H 574.9 -3.65943 -1.98473 0
M  V30 5887 H 575.433 -3.96561 -0.313775 0
M  V30 5888 H 572.172 -6.39408 1.44355 0
M  V30 5889 H 571.692 -5.9939 -0.221632 0
M  V30 5890 H 573.371 -6.46857 0.136122 0
M  V30 5891 N 573.503 -0.0852151 -1.57369 0
M  V30 5892 C 574.75 0.580806 -1.93992 0
M  V30 5893 C 575.078 1.68801 -0.966252 0
M  V30 5894 O 574.333 1.95694 0.0158649 0
M  V30 5895 C 574.632 1.18482 -3.3719 0
M  V30 5896 C 574.298 0.2024 -4.50446 0
M  V30 5897 C 572.96 -0.0678318 -4.81152 0
M  V30 5898 C 575.312 -0.46895 -5.19086 0
M  V30 5899 C 572.64 -1.01627 -5.77831 0
M  V30 5900 C 574.992 -1.4058 -6.16782 0
M  V30 5901 C 573.656 -1.68436 -6.45899 0
M  V30 5902 H 572.926 0.212532 -0.709867 0
M  V30 5903 H 575.573 -0.158947 -1.90839 0
M  V30 5904 H 573.878 2.0006 -3.36873 0
M  V30 5905 H 575.575 1.70767 -3.62822 0
M  V30 5906 H 572.165 0.423208 -4.26505 0
M  V30 5907 H 576.349 -0.273307 -4.95547 0
M  V30 5908 H 571.605 -1.2392 -5.9871 0
M  V30 5909 H 575.779 -1.93188 -6.69068 0
M  V30 5910 H 573.406 -2.42088 -7.20623 0
M  V30 5911 N 574.981 1.5647 0.188427 0
M  V30 5912 C 575.928 1.95073 1.23349 0
M  V30 5913 C 576.898 0.812238 1.44886 0
M  V30 5914 O 578.083 1.07095 1.57909 0
M  V30 5915 C 575.223 2.30124 2.57171 0
M  V30 5916 C 574.336 3.57069 2.43157 0
M  V30 5917 C 573.471 3.81411 3.69729 0
M  V30 5918 C 572.51 5.0176 3.50575 0
M  V30 5919 N 571.647 5.22321 4.69175 0
M  V30 5920 H 576.487 2.84171 0.89728 0
M  V30 5921 H 574.024 1.40623 0.431683 0
M  V30 5922 H 575.982 2.48463 3.35145 0
M  V30 5923 H 574.612 1.44159 2.88822 0
M  V30 5924 H 573.664 3.4674 1.56447 0
M  V30 5925 H 574.976 4.452 2.24942 0
M  V30 5926 H 574.13 4.00026 4.56141 0
M  V30 5927 H 572.869 2.91624 3.90905 0
M  V30 5928 H 571.874 4.83061 2.62549 0
M  V30 5929 H 573.099 5.93063 3.30837 0
M  V30 5930 H 571.045 4.35483 4.90602 0
M  V30 5931 H 570.962 6.04643 4.53809 0
M  V30 5932 H 572.23 5.45401 5.56919 0
M  V30 5933 N 576.459 -0.456382 1.50847 0
M  V30 5934 C 577.707 -1.20497 1.62249 0
M  V30 5935 C 578.028 -1.92156 0.331839 0
M  V30 5936 O 577.298 -1.84751 -0.651443 0
M  V30 5937 H 575.878 -0.447775 0.597918 0
M  V30 5938 H 578.54 -0.525099 1.87693 0
M  V30 5939 H 577.636 -1.94492 2.44089 0
M  V30 5940 N 577.937 -1.40673 -0.710563 0
M  V30 5941 C 579.165 -1.42547 -1.4996 0
M  V30 5942 C 579.58 -0.0265485 -1.88781 0
M  V30 5943 O 578.937 0.950694 -1.55782 0
M  V30 5944 C 578.988 -2.32071 -2.77173 0
M  V30 5945 O 578.709 -3.66518 -2.39992 0
M  V30 5946 C 580.21 -2.42591 -3.71032 0
M  V30 5947 H 577.43 -0.486025 -0.462623 0
M  V30 5948 H 579.974 -1.84783 -0.876102 0
M  V30 5949 H 578.129 -1.93184 -3.35795 0
M  V30 5950 H 578.543 -4.14115 -3.21884 0
M  V30 5951 H 580.017 -3.09429 -4.57119 0
M  V30 5952 H 580.494 -1.4525 -4.14486 0
M  V30 5953 H 581.1 -2.82051 -3.18319 0
M  V30 5954 N 579.415 0.9433 -1.26252 0
M  V30 5955 C 580.345 2.05902 -1.10122 0
M  V30 5956 C 581.326 1.70099 -0.00700552 0
M  V30 5957 O 582.511 1.93377 -0.178641 0
M  V30 5958 C 579.641 3.39516 -0.731175 0
M  V30 5959 C 578.595 3.89372 -1.77688 0
M  V30 5960 C 577.921 5.19613 -1.26122 0
M  V30 5961 C 579.221 4.14489 -3.17799 0
M  V30 5962 H 580.915 2.19655 -2.03451 0
M  V30 5963 H 578.461 1.05548 -0.979576 0
M  V30 5964 H 580.414 4.17031 -0.605215 0
M  V30 5965 H 579.138 3.25733 0.23782 0
M  V30 5966 H 577.797 3.14036 -1.89148 0
M  V30 5967 H 577.445 5.02208 -0.282128 0
M  V30 5968 H 577.145 5.53939 -1.96023 0
M  V30 5969 H 578.669 5.99713 -1.14789 0
M  V30 5970 H 580.083 4.82625 -3.09428 0
M  V30 5971 H 578.48 4.60094 -3.85271 0
M  V30 5972 H 579.55 3.20347 -3.64014 0
M  V30 5973 N 580.893 1.08022 1.14757 0
M  V30 5974 C 581.84 0.706657 2.19716 0
M  V30 5975 C 582.81 -0.30525 1.63271 0
M  V30 5976 O 583.995 -0.19015 1.8985 0
M  V30 5977 C 581.135 0.117914 3.44898 0
M  V30 5978 C 580.248 1.18212 4.15512 0
M  V30 5979 C 579.383 0.557659 5.28265 0
M  V30 5980 C 578.422 1.60418 5.90705 0
M  V30 5981 N 577.559 1.0018 6.94916 0
M  V30 5982 H 582.399 1.60603 2.51019 0
M  V30 5983 H 579.936 0.802664 1.23271 0
M  V30 5984 H 581.894 -0.241112 4.16503 0
M  V30 5985 H 580.524 -0.744788 3.1409 0
M  V30 5986 H 579.576 1.65863 3.42335 0
M  V30 5987 H 580.888 1.97533 4.5802 0
M  V30 5988 H 580.042 0.146654 6.06523 0
M  V30 5989 H 578.781 -0.267249 4.86967 0
M  V30 5990 H 577.786 2.02489 5.11154 0
M  V30 5991 H 579.011 2.43149 6.34078 0
M  V30 5992 H 576.957 0.197917 6.55701 0
M  V30 5993 H 576.874 1.73216 7.35889 0
M  V30 5994 H 578.142 0.616523 7.77058 0
M  V30 5995 N 582.371 -1.3172 0.865308 0
M  V30 5996 C 583.782 -1.79104 0.527126 0
M  V30 5997 C 584.133 -1.7135 -0.955695 0
M  V30 5998 O 583.258 -1.27845 -1.74598 0
M  V30 5999 C 583.853 -3.25207 0.950061 0
M  V30 6000 C 582.412 -3.70504 0.663611 0
M  V30 6001 C 581.559 -2.52605 1.14395 0
M  V30 6002 H 584.51 -1.18868 1.05148 0
M  V30 6003 H 584.531 -3.79535 0.270805 0
M  V30 6004 H 584.043 -3.30818 2.02931 0
M  V30 6005 H 582.144 -3.70398 -0.404474 0
M  V30 6006 H 582.257 -4.62845 1.23737 0
M  V30 6007 H 580.621 -2.4838 0.563859 0
M  V30 6008 H 581.404 -2.60964 2.23053 0
M  V30 6009 N 583.85 -0.624285 -1.44708 0
M  V30 6010 C 585.127 -0.0572781 -1.95516 0
M  V30 6011 C 585.507 1.41516 -1.56641 0
M  V30 6012 O 584.855 2.12614 -0.837111 0
M  V30 6013 C 585.065 -0.272944 -3.47931 0
M  V30 6014 C 586.413 -0.162529 -4.24289 0
M  V30 6015 O 587.437 -0.203946 -3.55616 0
M  V30 6016 O 586.296 -0.0616847 -5.46465 0
M  V30 6017 H 583.389 0.0262219 -0.826584 0
M  V30 6018 H 585.936 -0.695512 -1.54793 0
M  V30 6019 H 584.707 -1.29492 -3.69253 0
M  V30 6020 H 584.331 0.399756 -3.95585 0
M  V30 6021 N 585.328 1.53329 -0.364422 0
M  V30 6022 C 586.553 2.06132 0.229033 0
M  V30 6023 C 586.978 1.23625 1.41769 0
M  V30 6024 O 586.336 0.255038 1.79497 0
M  V30 6025 C 586.384 3.55544 0.60174 0
M  V30 6026 O 585.488 3.75771 1.69912 0
M  V30 6027 H 584.829 0.663148 0.0336213 0
M  V30 6028 H 587.359 1.97758 -0.524689 0
M  V30 6029 H 587.369 3.98549 0.873073 0
M  V30 6030 H 586.044 4.15039 -0.267421 0
M  V30 6031 H 584.621 3.44663 1.42343 0
M  V30 6032 N 586.806 0.0935595 1.57322 0
M  V30 6033 C 588.034 -0.578934 1.98635 0
M  V30 6034 C 588.449 -1.61819 0.972626 0
M  V30 6035 O 587.806 -1.82461 -0.0379638 0
M  V30 6036 C 587.857 -1.22802 3.40003 0
M  V30 6037 O 587.578 -0.230334 4.37494 0
M  V30 6038 C 589.079 -1.98627 3.96311 0
M  V30 6039 H 586.299 -0.155324 0.652775 0
M  V30 6040 H 588.843 0.172393 2.03772 0
M  V30 6041 H 586.998 -1.93029 3.35885 0
M  V30 6042 H 587.412 -0.698649 5.19826 0
M  V30 6043 H 588.886 -2.39405 4.97382 0
M  V30 6044 H 589.363 -2.85151 3.34044 0
M  V30 6045 H 589.969 -1.3322 4.03897 0
M  V30 6046 N 588.284 -1.56567 -0.180126 0
M  V30 6047 C 589.234 -1.92132 -1.22756 0
M  V30 6048 C 590.218 -0.788639 -1.40247 0
M  V30 6049 O 591.41 -1.05171 -1.42366 0
M  V30 6050 C 588.539 -2.27719 -2.56902 0
M  V30 6051 C 587.625 -3.47481 -2.43142 0
M  V30 6052 N 588.016 -4.64973 -1.99082 0
M  V30 6053 C 586.314 -3.51914 -2.73994 0
M  V30 6054 C 587.015 -5.47119 -1.97574 0
M  V30 6055 N 585.991 -4.87925 -2.39645 0
M  V30 6056 H 589.793 -2.80464 -0.878478 0
M  V30 6057 H 587.307 -1.57686 -0.388463 0
M  V30 6058 H 589.304 -2.51389 -3.32579 0
M  V30 6059 H 587.964 -1.40722 -2.92621 0
M  V30 6060 H 588.975 -4.89358 -1.69557 0
M  V30 6061 H 585.652 -2.75372 -3.13809 0
M  V30 6062 H 587.042 -6.51254 -1.65282 0
M  V30 6063 N 589.762 0.448376 -1.51087 0
M  V30 6064 C 590.987 1.22605 -1.6728 0
M  V30 6065 C 591.412 1.84524 -0.365045 0
M  V30 6066 O 590.77 1.6832 0.673642 0
M  V30 6067 C 590.818 2.29393 -2.78229 0
M  V30 6068 O 589.922 3.34608 -2.41063 0
M  V30 6069 H 589.263 0.359705 -0.558129 0
M  V30 6070 H 591.793 0.530903 -1.97592 0
M  V30 6071 H 591.803 2.74352 -3.01986 0
M  V30 6072 H 590.478 1.83701 -3.73131 0
M  V30 6073 H 589.055 2.95202 -2.27838 0
M  V30 6074 N 591.24 1.41047 0.703093 0
M  V30 6075 C 592.188 1.42494 1.83843 0
M  V30 6076 C 593.182 0.303885 1.66652 0
M  V30 6077 O 594.388 0.475544 1.73605 0
M  V30 6078 H 590.763 0.445685 0.605697 0
M  V30 6079 H 592.734 2.38194 1.79739 0
M  V30 6080 C 591.483 1.31666 3.21807 0
M  V30 6081 H 590.806 2.17212 3.35647 0
M  V30 6082 H 592.246 1.36738 4.01346 0
M  V30 6083 C 590.705 0.0281828 3.36888 0
M  V30 6084 O 591.235 -0.929995 3.90786 0
M  V30 6085 N 589.441 -0.0454322 2.90564 0
M  V30 6086 H 588.988 0.735046 2.4689 0
M  V30 6087 H 588.946 -0.906968 3.01034 0
M  V30 6088 N 592.718 -0.936591 1.26751 0
M  V30 6089 C 593.628 -2.06949 1.10496 0
M  V30 6090 C 594.644 -1.7396 0.037271 0
M  V30 6091 O 595.82 -1.99941 0.241944 0
M  V30 6092 C 592.885 -3.38612 0.744491 0
M  V30 6093 C 591.946 -3.85355 1.89209 0
M  V30 6094 C 591.179 -5.10735 1.54873 0
M  V30 6095 O 591.402 -5.68602 0.452546 0
M  V30 6096 O 590.336 -5.52632 2.38499 0
M  V30 6097 H 594.162 -2.23571 2.05547 0
M  V30 6098 H 591.747 -1.05428 1.05855 0
M  V30 6099 H 593.629 -4.17711 0.556396 0
M  V30 6100 H 592.304 -3.23218 -0.176582 0
M  V30 6101 H 591.211 -3.07182 2.13518 0
M  V30 6102 H 592.544 -4.05277 2.79305 0
M  V30 6103 N 594.196 -1.08629 -1.14182 0
M  V30 6104 C 595.443 -0.817345 -1.85272 0
M  V30 6105 C 595.771 0.656917 -1.83071 0
M  V30 6106 O 595.026 1.49897 -1.25815 0
M  V30 6107 C 595.325 -1.28734 -3.3341 0
M  V30 6108 C 594.991 -2.76981 -3.55798 0
M  V30 6109 C 593.653 -3.17469 -3.61617 0
M  V30 6110 C 596.005 -3.72605 -3.64438 0
M  V30 6111 C 593.333 -4.52371 -3.736 0
M  V30 6112 C 595.685 -5.07286 -3.77947 0
M  V30 6113 C 594.349 -5.47376 -3.82016 0
M  V30 6114 H 593.619 -0.299088 -0.677958 0
M  V30 6115 H 596.266 -1.35962 -1.34857 0
M  V30 6116 H 594.571 -0.664702 -3.8612 0
M  V30 6117 H 596.268 -1.05598 -3.86846 0
M  V30 6118 H 592.858 -2.44644 -3.51919 0
M  V30 6119 H 597.042 -3.42443 -3.5923 0
M  V30 6120 H 592.298 -4.82882 -3.75013 0
M  V30 6121 H 596.472 -5.81243 -3.83575 0
M  V30 6122 H 594.099 -6.51906 -3.91054 0
M  V30 6123 N 595.674 1.31259 -0.872281 0
M  V30 6124 C 596.951 1.91362 -0.404943 0
M  V30 6125 C 597.331 1.79362 1.11321 0
M  V30 6126 O 596.679 1.20277 1.94283 0
M  V30 6127 C 596.889 3.3749 -0.888893 0
M  V30 6128 C 598.237 4.14593 -0.916384 0
M  V30 6129 O 599.261 3.46282 -0.834701 0
M  V30 6130 O 598.12 5.3661 -1.03498 0
M  V30 6131 H 595.214 0.818016 -0.121569 0
M  V30 6132 H 597.76 1.39912 -0.960346 0
M  V30 6133 H 596.532 3.40249 -1.93251 0
M  V30 6134 H 596.155 3.96375 -0.311932 0
M  V30 6135 N 597.152 0.631951 1.44375 0
M  V30 6136 C 598.377 0.142146 2.06912 0
M  V30 6137 C 598.802 -1.17456 1.4692 0
M  V30 6138 O 598.16 -1.72074 0.570975 0
M  V30 6139 C 598.208 0.0417952 3.60576 0
M  V30 6140 O 597.312 -1.00194 4.00044 0
M  V30 6141 H 596.653 0.0851491 0.658518 0
M  V30 6142 H 599.183 0.868863 1.85235 0
M  V30 6143 H 599.193 -0.148517 4.0773 0
M  V30 6144 H 597.868 1.0031 4.03622 0
M  V30 6145 H 596.445 -0.786131 3.64519 0
M  V30 6146 N 598.631 -1.53133 0.372548 0
M  V30 6147 C 599.908 -1.93704 -0.271693 0
M  V30 6148 C 600.288 -1.30667 -1.65799 0
M  V30 6149 O 599.636 -0.46838 -2.23648 0
M  V30 6150 C 599.846 -3.47576 -0.314903 0
M  V30 6151 C 601.194 -4.20998 -0.551912 0
M  V30 6152 O 602.218 -3.53994 -0.39582 0
M  V30 6153 O 601.077 -5.39748 -0.85639 0
M  V30 6154 H 598.171 -0.810457 -0.164586 0
M  V30 6155 H 600.717 -1.6427 0.425838 0
M  V30 6156 H 599.489 -3.85749 0.656792 0
M  V30 6157 H 599.112 -3.83264 -1.05804 0
M  V30 6158 N 600.109 -0.101901 -1.5727 0
M  V30 6159 C 601.355 0.561027 -1.94885 0
M  V30 6160 C 601.688 1.6741 -0.984258 0
M  V30 6161 O 600.963 1.94491 -0.0184767 0
M  V30 6162 C 601.246 1.10982 -3.42571 0
M  V30 6163 C 601.099 0.00133418 -4.498 0
M  V30 6164 C 602.418 2.00608 -3.9172 0
M  V30 6165 H 599.537 0.202467 -0.708644 0
M  V30 6166 H 602.179 -0.173992 -1.89202 0
M  V30 6167 H 600.329 1.73621 -3.47546 0
M  V30 6168 H 602.001 -0.63322 -4.56933 0
M  V30 6169 H 600.244 -0.664143 -4.28686 0
M  V30 6170 H 600.915 0.426253 -5.50352 0
M  V30 6171 H 603.391 1.47864 -3.88941 0
M  V30 6172 H 602.267 2.3593 -4.95609 0
M  V30 6173 H 602.528 2.92608 -3.3141 0
M  V30 6174 N 601.587 1.56661 0.17182 0
M  V30 6175 C 602.864 1.72838 0.915778 0
M  V30 6176 C 603.244 0.66316 2.00413 0
M  V30 6177 O 602.592 -0.322123 2.26218 0
M  V30 6178 C 602.802 3.16019 1.48097 0
M  V30 6179 C 604.15 3.76962 1.95408 0
M  V30 6180 O 605.174 3.19294 1.57892 0
M  V30 6181 O 604.033 4.78219 2.64516 0
M  V30 6182 H 601.127 0.705797 0.431021 0
M  V30 6183 H 603.673 1.68947 0.159689 0
M  V30 6184 H 602.445 3.85031 0.697618 0
M  V30 6185 H 602.068 3.24234 2.30126 0
M  V30 6186 N 603.065 -0.440357 1.51323 0
M  V30 6187 C 604.311 -1.19181 1.64085 0
M  V30 6188 C 604.644 -1.90936 0.354575 0
M  V30 6189 O 603.919 -1.8347 -0.645675 0
M  V30 6190 C 604.202 -2.2112 2.84215 0
M  V30 6191 C 604.055 -1.53468 4.22809 0
M  V30 6192 C 605.374 -3.22133 2.99864 0
M  V30 6193 H 602.493 -0.431924 0.597169 0
M  V30 6194 H 605.135 -0.481443 1.83799 0
M  V30 6195 H 603.285 -2.81703 2.67537 0
M  V30 6196 H 604.957 -0.962455 4.51148 0
M  V30 6197 H 603.2 -0.837086 4.25647 0
M  V30 6198 H 603.871 -2.27694 5.02852 0
M  V30 6199 H 606.347 -2.71601 3.15233 0
M  V30 6200 H 605.223 -3.90756 3.85488 0
M  V30 6201 H 605.484 -3.88061 2.11804 0
M  V30 6202 N 604.543 -1.41418 -0.695603 0
M  V30 6203 C 605.791 -1.40496 -1.45277 0
M  V30 6204 C 606.112 -0.0149538 -1.94994 0
M  V30 6205 O 605.382 0.9432 -1.71699 0
M  V30 6206 H 603.962 -0.517147 -0.539044 0
M  V30 6207 H 606.624 -1.76656 -0.823321 0
M  V30 6208 H 605.72 -2.09214 -2.31595 0
M  V30 6209 N 606.021 0.929856 -1.27246 0
M  V30 6210 C 607.298 1.65544 -1.04186 0
M  V30 6211 C 607.678 2.06796 0.424097 0
M  V30 6212 O 607.026 1.80053 1.40688 0
M  V30 6213 C 607.236 2.85912 -2.00138 0
M  V30 6214 C 608.584 3.57305 -2.29387 0
M  V30 6215 O 609.608 2.96036 -1.98094 0
M  V30 6216 O 608.467 4.67688 -2.82719 0
M  V30 6217 H 605.561 0.725473 -0.397011 0
M  V30 6218 H 608.107 0.980583 -1.38501 0
M  V30 6219 H 606.879 2.52403 -2.99013 0
M  V30 6220 H 606.502 3.61118 -1.66371 0
M  V30 6221 N 607.499 1.09233 1.13605 0
M  V30 6222 C 608.429 0.751738 2.21068 0
M  V30 6223 C 609.41 -0.269688 1.67948 0
M  V30 6224 O 610.595 -0.13819 1.93708 0
M  V30 6225 C 607.725 0.16935 3.46887 0
M  V30 6226 C 606.679 1.12007 4.13084 0
M  V30 6227 C 606.005 0.399483 5.33206 0
M  V30 6228 C 607.305 2.46168 4.6065 0
M  V30 6229 H 608.999 1.65024 2.49815 0
M  V30 6230 H 606.545 0.794905 1.20072 0
M  V30 6231 H 608.498 -0.0809824 4.21322 0
M  V30 6232 H 607.222 -0.764335 3.1753 0
M  V30 6233 H 605.881 1.35564 3.40614 0
M  V30 6234 H 605.529 -0.538277 5.00112 0
M  V30 6235 H 605.229 1.03337 5.78442 0
M  V30 6236 H 606.753 0.157403 6.10397 0
M  V30 6237 H 608.167 2.26829 5.26518 0
M  V30 6238 H 606.564 3.05326 5.1662 0
M  V30 6239 H 607.634 3.07076 3.75276 0
M  V30 6240 N 608.977 -1.30795 0.87923 0
M  V30 6241 C 609.909 -2.27241 0.299025 0
M  V30 6242 C 610.922 -1.53472 -0.543166 0
M  V30 6243 O 612.111 -1.74756 -0.363651 0
M  V30 6244 C 609.211 -3.33655 -0.593931 0
M  V30 6245 C 608.384 -4.36857 0.2179 0
M  V30 6246 C 607.443 -5.22715 -0.604646 0
M  V30 6247 O 606.469 -5.69192 -0.0293838 0
M  V30 6248 N 607.671 -5.48008 -1.91488 0
M  V30 6249 H 610.436 -2.77667 1.12788 0
M  V30 6250 H 607.997 -1.43914 0.741637 0
M  V30 6251 H 609.989 -3.88013 -1.15012 0
M  V30 6252 H 608.559 -2.83202 -1.32346 0
M  V30 6253 H 607.779 -3.82444 0.955536 0
M  V30 6254 H 609.067 -5.02869 0.774614 0
M  V30 6255 H 608.465 -5.1202 -2.40525 0
M  V30 6256 H 607.022 -6.05264 -2.41864 0
M  V30 6257 N 610.455 -0.639598 -1.44038 0
M  V30 6258 C 611.388 0.109736 -2.27936 0
M  V30 6259 C 612.366 0.843095 -1.39035 0
M  V30 6260 O 613.55 0.845456 -1.68476 0
M  V30 6261 C 610.677 1.16173 -3.18153 0
M  V30 6262 C 609.723 0.527954 -4.2322 0
M  V30 6263 S 610.556 -0.688318 -5.31058 0
M  V30 6264 C 611.712 0.363481 -6.24844 0
M  V30 6265 H 611.945 -0.601986 -2.91142 0
M  V30 6266 H 609.478 -0.42802 -1.48349 0
M  V30 6267 H 611.436 1.76372 -3.7068 0
M  V30 6268 H 610.097 1.84569 -2.54151 0
M  V30 6269 H 609.29 1.32054 -4.86393 0
M  V30 6270 H 608.892 0.000396444 -3.74 0
M  V30 6271 H 611.184 1.23362 -6.66174 0
M  V30 6272 H 612.127 -0.23288 -7.07717 0
M  V30 6273 H 612.535 0.693179 -5.60228 0
M  V30 6274 N 611.933 1.52934 -0.380664 0
M  V30 6275 C 613.179 2.01765 0.20458 0
M  V30 6276 C 613.512 1.26696 1.47179 0
M  V30 6277 O 612.787 0.364936 1.91046 0
M  V30 6278 C 613.07 3.56869 0.481269 0
M  V30 6279 C 612.923 4.42617 -0.800629 0
M  V30 6280 C 614.242 4.2121 1.27554 0
M  V30 6281 H 611.361 0.733388 0.0728803 0
M  V30 6282 H 614.003 1.83068 -0.50853 0
M  V30 6283 H 612.153 3.72932 1.08875 0
M  V30 6284 H 613.825 4.38323 -1.43773 0
M  V30 6285 H 612.068 4.09977 -1.4178 0
M  V30 6286 H 612.739 5.49134 -0.561791 0
M  V30 6287 H 615.215 4.09072 0.761514 0
M  V30 6288 H 614.091 5.29732 1.43788 0
M  V30 6289 H 614.352 3.78269 2.28833 0
M  V30 6290 N 613.412 0.11024 1.57214 0
M  V30 6291 C 614.359 -0.843195 2.14846 0
M  V30 6292 C 615.329 -1.26954 1.07107 0
M  V30 6293 O 616.514 -1.34861 1.34971 0
M  V30 6294 C 613.654 -2.09123 2.74521 0
M  V30 6295 C 612.767 -1.71404 3.96541 0
M  V30 6296 C 611.902 -2.91107 4.44331 0
M  V30 6297 C 610.941 -2.49586 5.58903 0
M  V30 6298 N 610.078 -3.62175 6.01477 0
M  V30 6299 H 614.918 -0.344886 2.95998 0
M  V30 6300 H 612.455 -0.15855 1.46243 0
M  V30 6301 H 614.413 -2.82234 3.07246 0
M  V30 6302 H 613.043 -2.56427 1.96074 0
M  V30 6303 H 612.095 -0.88201 3.70033 0
M  V30 6304 H 613.407 -1.36884 4.7965 0
M  V30 6305 H 612.561 -3.72454 4.78919 0
M  V30 6306 H 611.3 -3.28848 3.60153 0
M  V30 6307 H 610.305 -1.6667 5.23929 0
M  V30 6308 H 611.53 -2.12973 6.4484 0
M  V30 6309 H 609.476 -3.99605 5.20242 0
M  V30 6310 H 609.393 -3.3155 6.79419 0
M  V30 6311 H 610.661 -4.43987 6.407 0
M  V30 6312 N 614.89 -1.56749 -0.16351 0
M  V30 6313 C 616.137 -1.82434 -0.878866 0
M  V30 6314 C 616.465 -0.688557 -1.81904 0
M  V30 6315 O 615.72 0.323644 -1.93005 0
M  V30 6316 C 616.019 -3.14342 -1.70071 0
M  V30 6317 C 615.685 -4.41647 -0.908775 0
M  V30 6318 C 614.347 -4.76224 -0.690236 0
M  V30 6319 C 616.699 -5.19998 -0.353815 0
M  V30 6320 C 614.027 -5.86624 0.0942374 0
M  V30 6321 C 616.379 -6.3122 0.41761 0
M  V30 6322 C 615.043 -6.64358 0.646879 0
M  V30 6323 H 614.313 -0.667574 -0.3216 0
M  V30 6324 H 616.96 -1.90963 -0.14337 0
M  V30 6325 H 615.265 -3.0119 -2.50583 0
M  V30 6326 H 616.962 -3.31426 -2.25738 0
M  V30 6327 H 613.552 -4.1453 -1.08916 0
M  V30 6328 H 617.736 -4.93673 -0.509975 0
M  V30 6329 H 612.992 -6.10751 0.281529 0
M  V30 6330 H 617.166 -6.91133 0.854849 0
M  V30 6331 H 614.793 -7.49742 1.25662 0
M  V30 6332 N 616.368 0.432326 -1.51554 0
M  V30 6333 C 617.617 1.17831 -1.63703 0
M  V30 6334 C 617.93 1.92229 -0.36156 0
M  V30 6335 O 619.136 2.69069 -0.362495 0
M  V30 6336 C 617.592 2.14318 -2.89129 0
M  V30 6337 C 617.2 1.45544 -4.23699 0
M  V30 6338 C 618.944 2.89319 -3.10636 0
M  V30 6339 C 616.851 2.40545 -5.4027 0
M  V30 6340 H 615.781 0.443533 -0.60975 0
M  V30 6341 H 618.432 0.444878 -1.78026 0
M  V30 6342 H 616.814 2.91117 -2.68452 0
M  V30 6343 H 617.988 0.742693 -4.54775 0
M  V30 6344 H 616.303 0.826772 -4.0811 0
M  V30 6345 H 618.9 3.60495 -3.94902 0
M  V30 6346 H 619.243 3.50951 -2.23918 0
M  V30 6347 H 619.776 2.19625 -3.31677 0
M  V30 6348 H 616.515 1.83594 -6.29264 0
M  V30 6349 H 616.035 3.09859 -5.13563 0
M  V30 6350 H 617.714 3.01569 -5.72421 0
M  V30 6351 N 617.846 1.41785 0.688094 0
M  V30 6352 C 619.092 1.42753 1.4489 0
M  V30 6353 C 619.447 0.0384235 1.92362 0
M  V30 6354 O 618.74 -0.937066 1.67122 0
M  V30 6355 C 618.934 2.37532 2.67046 0
M  V30 6356 C 618.763 3.85521 2.31525 0
M  V30 6357 C 617.533 4.54152 2.21527 0
M  V30 6358 C 619.731 4.76299 1.94019 0
M  V30 6359 N 617.713 5.87233 1.78969 0
M  V30 6360 C 619.084 5.98386 1.62279 0
M  V30 6361 C 621.139 4.63877 1.80895 0
M  V30 6362 C 619.842 7.09433 1.18732 0
M  V30 6363 C 621.868 5.74893 1.38752 0
M  V30 6364 C 621.23 6.96083 1.07927 0
M  V30 6365 H 617.329 0.577575 0.527192 0
M  V30 6366 H 619.913 1.77713 0.795375 0
M  V30 6367 H 618.084 2.04656 3.30107 0
M  V30 6368 H 619.816 2.29169 3.33562 0
M  V30 6369 H 616.571 4.08188 2.40166 0
M  V30 6370 H 616.995 6.57785 1.60151 0
M  V30 6371 H 621.637 3.70671 2.03378 0
M  V30 6372 H 619.355 8.02497 0.949937 0
M  V30 6373 H 622.941 5.67287 1.29136 0
M  V30 6374 H 621.821 7.80527 0.758111 0
M  V30 6375 N 619.324 -0.923095 1.27737 0
M  V30 6376 C 620.554 -1.70277 1.17001 0
M  V30 6377 C 620.962 -1.87188 -0.275199 0
M  V30 6378 O 620.305 -1.39195 -1.19877 0
M  V30 6379 C 620.367 -3.11976 1.78637 0
M  V30 6380 C 620.031 -3.18386 3.27841 0
M  V30 6381 C 621.028 -3.00287 4.2441 0
M  V30 6382 C 618.713 -3.41198 3.68632 0
M  V30 6383 C 620.707 -3.04896 5.59747 0
M  V30 6384 C 618.394 -3.4544 5.04097 0
M  V30 6385 C 619.392 -3.27309 5.99465 0
M  V30 6386 O 619.08 -3.31295 7.32461 0
M  V30 6387 H 618.812 -0.539366 0.407505 0
M  V30 6388 H 621.366 -1.16446 1.69202 0
M  V30 6389 H 619.596 -3.67308 1.20919 0
M  V30 6390 H 621.285 -3.7193 1.6255 0
M  V30 6391 H 622.051 -2.825 3.94232 0
M  V30 6392 H 617.93 -3.54359 2.94873 0
M  V30 6393 H 621.474 -2.90662 6.34162 0
M  V30 6394 H 617.371 -3.62753 5.33929 0
M  V30 6395 H 618.139 -3.47719 7.40968 0
M  V30 6396 N 620.802 -1.09834 -1.13024 0
M  V30 6397 C 621.75 -0.736283 -2.20639 0
M  V30 6398 C 622.744 0.264725 -1.67319 0
M  V30 6399 O 623.95 0.125745 -1.7956 0
M  V30 6400 H 620.325 -0.220136 -0.719058 0
M  V30 6401 H 622.296 -1.65295 -2.48436 0
M  V30 6402 C 621.045 -0.177544 -3.47246 0
M  V30 6403 H 620.368 -0.939009 -3.88616 0
M  V30 6404 H 621.808 0.0378007 -4.23983 0
M  V30 6405 C 620.267 1.08824 -3.1884 0
M  V30 6406 O 620.797 2.1708 -3.37993 0
M  V30 6407 N 619.003 1.00442 -2.7269 0
M  V30 6408 H 618.55 0.123383 -2.57304 0
M  V30 6409 H 618.508 1.85206 -2.5406 0
M  V30 6410 N 622.28 1.30327 -0.886154 0
M  V30 6411 C 623.228 2.30052 -0.343317 0
M  V30 6412 C 624.222 1.60212 0.550305 0
M  V30 6413 O 625.428 1.74674 0.434609 0
M  V30 6414 H 621.803 0.746306 -0.0923681 0
M  V30 6415 H 623.774 2.73294 -1.19804 0
M  V30 6416 C 622.523 3.45079 0.426107 0
M  V30 6417 H 621.846 3.99003 -0.25227 0
M  V30 6418 H 623.286 4.16931 0.771009 0
M  V30 6419 C 621.745 2.95195 1.62363 0
M  V30 6420 O 622.275 2.95323 2.723 0
M  V30 6421 N 620.481 2.51192 1.4612 0
M  V30 6422 H 620.028 2.51286 0.566832 0
M  V30 6423 H 619.986 2.18173 2.2638 0
M  V30 6424 N 623.758 0.647228 1.43697 0
M  V30 6425 C 625.004 0.158422 2.0218 0
M  V30 6426 C 625.337 -1.22233 1.50907 0
M  V30 6427 O 624.612 -1.81478 0.699702 0
M  V30 6428 C 624.895 0.1627 3.59732 0
M  V30 6429 C 624.748 1.57694 4.21251 0
M  V30 6430 C 626.067 -0.504138 4.37203 0
M  V30 6431 H 623.186 0.059042 0.734631 0
M  V30 6432 H 625.828 0.826772 1.71069 0
M  V30 6433 H 623.978 -0.406414 3.86368 0
M  V30 6434 H 625.65 2.19618 4.05667 0
M  V30 6435 H 623.893 2.12603 3.7813 0
M  V30 6436 H 624.564 1.53183 5.3032 0
M  V30 6437 H 627.04 -0.0199841 4.16095 0
M  V30 6438 H 625.916 -0.470394 5.46881 0
M  V30 6439 H 626.177 -1.57726 4.13007 0
M  V30 6440 N 625.236 -1.5273 0.388769 0
M  V30 6441 C 626.485 -2.00757 -0.194833 0
M  V30 6442 C 626.798 -1.27951 -1.47946 0
M  V30 6443 O 628.004 -1.66686 -2.14308 0
M  V30 6444 C 626.46 -3.57695 -0.397762 0
M  V30 6445 C 626.068 -4.394 0.873583 0
M  V30 6446 C 627.812 -4.14012 -0.937759 0
M  V30 6447 C 625.719 -5.87938 0.638962 0
M  V30 6448 H 624.649 -0.750101 -0.0765845 0
M  V30 6449 H 627.3 -1.76239 0.511086 0
M  V30 6450 H 625.682 -3.7846 -1.16552 0
M  V30 6451 H 626.856 -4.30403 1.64591 0
M  V30 6452 H 625.171 -3.94301 1.33849 0
M  V30 6453 H 627.768 -5.22645 -1.12899 0
M  V30 6454 H 628.111 -3.7007 -1.90666 0
M  V30 6455 H 628.644 -3.97137 -0.229588 0
M  V30 6456 H 625.383 -6.36202 1.57885 0
M  V30 6457 H 624.903 -5.99726 -0.094443 0
M  V30 6458 H 626.582 -6.46423 0.273299 0
M  V30 6459 N 626.714 -0.118576 -1.57153 0
M  V30 6460 C 627.662 0.849114 -2.16547 0
M  V30 6461 C 628.656 1.27567 -1.11458 0
M  V30 6462 O 629.862 1.24746 -1.29763 0
M  V30 6463 H 626.237 0.291935 -0.693021 0
M  V30 6464 H 628.208 0.323693 -2.96639 0
M  V30 6465 C 626.957 2.08951 -2.77912 0
M  V30 6466 H 626.28 1.77021 -3.58474 0
M  V30 6467 H 627.72 2.74666 -3.23008 0
M  V30 6468 C 626.179 2.87899 -1.74974 0
M  V30 6469 O 626.709 3.83268 -1.20285 0
M  V30 6470 N 624.915 2.51884 -1.44924 0
M  V30 6471 H 624.462 1.74397 -1.89587 0
M  V30 6472 H 624.42 3.05003 -0.762921 0
M  V30 6473 N 628.193 1.56834 0.155195 0
M  V30 6474 C 629.604 1.72421 0.716082 0
M  V30 6475 C 629.955 0.731685 1.82046 0
M  V30 6476 O 629.08 -0.103481 2.16152 0
M  V30 6477 C 629.675 3.12629 1.30571 0
M  V30 6478 C 628.234 3.29846 1.81325 0
M  V30 6479 C 627.381 2.68359 0.698494 0
M  V30 6480 H 630.332 1.58544 -0.0703861 0
M  V30 6481 H 630.353 3.12174 2.1755 0
M  V30 6482 H 629.865 3.84844 0.501701 0
M  V30 6483 H 627.966 2.62614 2.64319 0
M  V30 6484 H 628.079 4.37727 1.9476 0
M  V30 6485 H 626.443 2.28604 1.12305 0
M  V30 6486 H 627.226 3.43171 -0.0939366 0
M  V30 6487 N 629.671 -0.424282 1.51781 0
M  V30 6488 C 630.899 -1.1947 1.68921 0
M  V30 6489 C 631.314 -1.84683 0.39213 0
M  V30 6490 O 630.671 -1.71261 -0.630554 0
M  V30 6491 C 630.722 -2.26909 2.81416 0
M  V30 6492 O 630.443 -1.64361 4.061 0
M  V30 6493 C 631.944 -3.16945 3.09937 0
M  V30 6494 H 629.164 -0.359591 0.566511 0
M  V30 6495 H 631.708 -0.501139 1.98265 0
M  V30 6496 H 629.863 -2.91959 2.54635 0
M  V30 6497 H 630.277 -2.35468 4.68674 0
M  V30 6498 H 631.751 -3.88437 3.922 0
M  V30 6499 H 632.228 -3.78451 2.22871 0
M  V30 6500 H 632.834 -2.57581 3.38426 0
M  V30 6501 N 631.149 -1.42148 -0.680565 0
M  V30 6502 C 632.079 -1.4796 -1.80638 0
M  V30 6503 C 633.06 -0.336728 -1.66734 0
M  V30 6504 O 634.245 -0.550247 -1.86242 0
M  V30 6505 C 631.375 -1.37569 -3.18892 0
M  V30 6506 C 630.329 -2.49823 -3.47524 0
M  V30 6507 C 629.655 -2.24491 -4.85291 0
M  V30 6508 C 630.955 -3.92144 -3.44994 0
M  V30 6509 H 632.649 -2.42184 -1.76032 0
M  V30 6510 H 630.195 -1.16566 -0.845481 0
M  V30 6511 H 632.148 -1.40243 -3.97379 0
M  V30 6512 H 630.872 -0.398357 -3.24162 0
M  V30 6513 H 629.531 -2.46455 -2.71395 0
M  V30 6514 H 629.179 -1.25066 -4.87204 0
M  V30 6515 H 628.879 -2.99722 -5.05411 0
M  V30 6516 H 630.403 -2.28906 -5.66069 0
M  V30 6517 H 631.817 -3.97145 -4.13459 0
M  V30 6518 H 630.214 -4.67179 -3.76648 0
M  V30 6519 H 631.284 -4.19225 -2.43676 0
M  V30 6520 N 632.627 0.916307 -1.28225 0
M  V30 6521 C 634.038 1.48024 -1.13779 0
M  V30 6522 C 634.389 1.94289 0.273139 0
M  V30 6523 O 633.514 1.82226 1.16716 0
M  V30 6524 C 634.109 2.69029 -2.05935 0
M  V30 6525 C 632.668 3.2161 -1.95561 0
M  V30 6526 C 631.815 1.94321 -1.97825 0
M  V30 6527 H 634.766 0.729272 -1.40951 0
M  V30 6528 H 634.787 3.44204 -1.62184 0
M  V30 6529 H 634.299 2.35325 -3.08616 0
M  V30 6530 H 632.4 3.60045 -0.959076 0
M  V30 6531 H 632.513 3.87032 -2.82388 0
M  V30 6532 H 630.877 2.1131 -1.42198 0
M  V30 6533 H 631.66 1.62917 -3.0218 0
M  V30 6534 N 634.105 1.10431 1.1244 0
M  V30 6535 C 635.521 0.836096 1.35947 0
M  V30 6536 C 635.721 -0.544475 1.94004 0
M  V30 6537 O 634.777 -1.29735 2.16622 0
M  V30 6538 C 636.09 1.93575 2.30107 0
M  V30 6539 C 637.638 1.9642 2.43697 0
M  V30 6540 C 638.113 3.05559 3.41171 0
M  V30 6541 N 639.604 3.04865 3.48728 0
M  V30 6542 C 640.339 3.85954 4.24061 0
M  V30 6543 N 639.835 4.76977 5.02458 0
M  V30 6544 N 641.628 3.74172 4.19466 0
M  V30 6545 H 633.779 1.9942 0.731124 0
M  V30 6546 H 636.042 0.866607 0.384312 0
M  V30 6547 H 635.748 2.92943 1.94621 0
M  V30 6548 H 635.622 1.8229 3.30227 0
M  V30 6549 H 638.009 0.97685 2.78463 0
M  V30 6550 H 638.09 2.11782 1.43465 0
M  V30 6551 H 637.734 4.04513 3.07135 0
M  V30 6552 H 637.664 2.87438 4.41234 0
M  V30 6553 H 640.155 2.38908 2.92799 0
M  V30 6554 H 640.468 5.35409 5.57277 0
M  V30 6555 H 638.813 4.81006 5.01655 0
M  V30 6556 H 642.004 3.02412 3.57302 0
M  V30 6557 H 642.177 4.37602 4.77921 0
M  V30 6558 N 635.583 -1.29855 0.893053 0
M  V30 6559 C 636.829 -1.96116 0.516349 0
M  V30 6560 C 637.162 -1.70281 -0.933695 0
M  V30 6561 O 636.437 -1.01205 -1.66096 0
M  V30 6562 C 636.72 -3.51068 0.801455 0
M  V30 6563 C 636.573 -3.86387 2.30272 0
M  V30 6564 C 637.892 -4.39186 0.283423 0
M  V30 6565 H 635.011 -0.712335 0.189072 0
M  V30 6566 H 637.653 -1.53587 1.11852 0
M  V30 6567 H 635.803 -3.87424 0.288949 0
M  V30 6568 H 637.475 -3.60012 2.88425 0
M  V30 6569 H 635.718 -3.34167 2.76613 0
M  V30 6570 H 636.389 -4.94512 2.45279 0
M  V30 6571 H 638.865 -4.09785 0.722187 0
M  V30 6572 H 637.741 -5.46505 0.512169 0
M  V30 6573 H 638.002 -4.34511 -0.815643 0
M  V30 6574 N 637.061 -0.65484 -1.43351 0
M  V30 6575 C 638.309 -0.168559 -2.01396 0
M  V30 6576 C 638.63 1.22235 -1.51933 0
M  V30 6577 O 637.9 1.81685 -0.732627 0
M  V30 6578 H 636.48 -0.0593244 -0.744641 0
M  V30 6579 H 639.142 -0.846871 -1.75539 0
M  V30 6580 H 638.238 -0.154428 -3.11718 0
M  V30 6581 N 638.539 1.52521 -0.396863 0
M  V30 6582 C 639.502 2.2527 0.422604 0
M  V30 6583 C 640.502 1.27184 0.983913 0
M  V30 6584 O 641.692 1.51222 0.864723 0
M  V30 6585 C 638.824 3.01356 1.59365 0
M  V30 6586 H 640.017 2.99133 -0.214416 0
M  V30 6587 H 637.57 1.55587 -0.149128 0
M  V30 6588 H 638.305 2.31813 2.26789 0
M  V30 6589 H 638.09 3.73357 1.19779 0
M  V30 6590 H 639.58 3.56571 2.17363 0
M  V30 6591 N 640.017 0.126909 1.57088 0
M  V30 6592 C 641.242 -0.53997 2.00248 0
M  V30 6593 C 641.667 -1.58927 1.00618 0
M  V30 6594 O 641.025 -1.81288 -0.0210131 0
M  V30 6595 C 641.073 -1.13565 3.4225 0
M  V30 6596 O 640.177 -2.25103 3.45547 0
M  V30 6597 H 639.518 -0.13412 0.650314 0
M  V30 6598 H 642.048 0.217718 2.03438 0
M  V30 6599 H 642.058 -1.46925 3.80627 0
M  V30 6600 H 640.733 -0.367122 4.14277 0
M  V30 6601 H 639.31 -1.93123 3.18995 0
M  V30 6602 N 641.495 -1.56914 -0.146875 0
M  V30 6603 C 642.442 -1.98275 -1.18134 0
M  V30 6604 C 643.412 -0.850367 -1.42681 0
M  V30 6605 O 644.597 -1.11244 -1.55014 0
M  V30 6606 C 641.737 -2.36861 -2.5098 0
M  V30 6607 C 640.85 -3.63391 -2.33605 0
M  V30 6608 C 639.985 -3.91079 -3.59486 0
M  V30 6609 C 639.024 -5.10879 -3.37149 0
M  V30 6610 N 638.161 -5.34577 -4.55161 0
M  V30 6611 H 643.001 -2.8645 -0.821622 0
M  V30 6612 H 640.538 -1.41718 -0.394248 0
M  V30 6613 H 642.496 -2.57262 -3.28439 0
M  V30 6614 H 641.126 -1.51766 -2.84898 0
M  V30 6615 H 640.178 -3.50766 -1.47199 0
M  V30 6616 H 641.49 -4.51007 -2.13059 0
M  V30 6617 H 640.644 -4.11979 -4.45374 0
M  V30 6618 H 639.383 -3.01885 -3.83036 0
M  V30 6619 H 638.388 -4.89853 -2.49649 0
M  V30 6620 H 639.613 -6.01626 -3.14997 0
M  V30 6621 H 637.559 -4.48337 -4.78884 0
M  V30 6622 H 637.476 -6.16463 -4.37618 0
M  V30 6623 H 638.744 -5.59975 -5.42263 0
M  V30 6624 N 642.974 0.416227 -1.52004 0
M  V30 6625 C 644.223 1.16088 -1.64944 0
M  V30 6626 C 644.536 1.91835 -0.381928 0
M  V30 6627 O 645.742 2.6867 -0.391013 0
M  V30 6628 C 644.198 2.1124 -2.91386 0
M  V30 6629 C 643.806 1.41042 -4.25219 0
M  V30 6630 C 645.55 2.86008 -3.13688 0
M  V30 6631 C 643.457 2.34801 -5.42791 0
M  V30 6632 H 642.387 0.437041 -0.61442 0
M  V30 6633 H 645.038 0.425971 -1.78487 0
M  V30 6634 H 643.42 2.88254 -2.71525 0
M  V30 6635 H 644.594 0.694416 -4.55538 0
M  V30 6636 H 642.909 0.78344 -4.08964 0
M  V30 6637 H 645.506 3.56286 -3.98703 0
M  V30 6638 H 645.849 3.48556 -2.27628 0
M  V30 6639 H 646.382 2.16095 -3.33988 0
M  V30 6640 H 643.121 1.7691 -6.31176 0
M  V30 6641 H 642.641 3.04395 -5.16821 0
M  V30 6642 H 644.32 2.9548 -5.75587 0
M  V30 6643 N 644.452 1.42507 0.673017 0
M  V30 6644 C 645.701 1.42364 1.42883 0
M  V30 6645 C 646.014 0.0441598 1.9555 0
M  V30 6646 O 647.22 -0.0798679 2.71382 0
M  V30 6647 C 645.676 2.5043 2.58482 0
M  V30 6648 C 645.284 3.94392 2.12506 0
M  V30 6649 C 647.028 2.59455 3.35981 0
M  V30 6650 C 644.935 4.93964 3.25198 0
M  V30 6651 H 643.865 0.52951 0.536782 0
M  V30 6652 H 646.516 1.68422 0.728448 0
M  V30 6653 H 644.898 2.1754 3.30896 0
M  V30 6654 H 646.072 4.36645 1.47233 0
M  V30 6655 H 644.387 3.89233 1.4794 0
M  V30 6656 H 646.984 3.31025 4.19912 0
M  V30 6657 H 647.327 1.63869 3.82691 0
M  V30 6658 H 647.86 2.91549 2.70637 0
M  V30 6659 H 644.599 5.91034 2.83477 0
M  V30 6660 H 644.119 4.56341 3.89247 0
M  V30 6661 H 645.798 5.15763 3.90637 0
M  V30 6662 N 645.93 -0.909495 1.28709 0
M  V30 6663 C 647.176 -1.66151 1.16283 0
M  V30 6664 C 647.509 -1.92067 -0.287069 0
M  V30 6665 O 646.784 -1.52409 -1.20837 0
M  V30 6666 C 647.067 -3.01676 1.9663 0
M  V30 6667 C 646.92 -2.82888 3.49707 0
M  V30 6668 C 648.239 -4.02274 1.78504 0
M  V30 6669 H 645.358 -0.602966 0.423793 0
M  V30 6670 H 648 -1.05418 1.58073 0
M  V30 6671 H 646.15 -3.53515 1.61119 0
M  V30 6672 H 647.822 -2.38026 3.95147 0
M  V30 6673 H 646.065 -2.17862 3.75125 0
M  V30 6674 H 646.736 -3.79147 4.01187 0
M  V30 6675 H 649.212 -3.59511 2.09503 0
M  V30 6676 H 648.088 -4.95056 2.37088 0
M  V30 6677 H 648.349 -4.35903 0.737647 0
M  V30 6678 N 647.408 -1.11026 -1.11852 0
M  V30 6679 C 648.318 -0.777252 -2.2135 0
M  V30 6680 C 649.334 0.227821 -1.72502 0
M  V30 6681 O 650.51 0.0650587 -2.01295 0
M  V30 6682 C 647.575 -0.220668 -3.45997 0
M  V30 6683 C 646.636 -1.2838 -4.09655 0
M  V30 6684 C 645.869 -0.753678 -5.28352 0
M  V30 6685 O 646.092 0.417779 -5.68868 0
M  V30 6686 O 645.026 -1.51647 -5.82483 0
M  V30 6687 H 648.852 -1.69141 -2.5224 0
M  V30 6688 H 646.437 -0.885836 -1.20305 0
M  V30 6689 H 648.319 0.0855756 -4.21313 0
M  V30 6690 H 646.994 0.666262 -3.16769 0
M  V30 6691 H 645.901 -1.64299 -3.3609 0
M  V30 6692 H 647.234 -2.14396 -4.43052 0
M  V30 6693 N 648.886 1.2938 -0.899927 0
M  V30 6694 C 650.114 1.99691 -0.541386 0
M  V30 6695 C 650.529 1.67355 0.873936 0
M  V30 6696 O 649.886 0.918728 1.57688 0
M  V30 6697 C 649.937 3.54168 -0.72438 0
M  V30 6698 O 649.658 3.85359 -2.08399 0
M  V30 6699 C 651.159 4.41746 -0.370819 0
M  V30 6700 H 648.379 0.638037 -0.207726 0
M  V30 6701 H 650.923 1.6491 -1.20934 0
M  V30 6702 H 649.078 3.87261 -0.103607 0
M  V30 6703 H 649.492 4.80032 -2.11352 0
M  V30 6704 H 650.966 5.49256 -0.549693 0
M  V30 6705 H 651.443 4.33712 0.692148 0
M  V30 6706 H 652.049 4.14125 -0.968543 0
M  V30 6707 N 650.364 0.662433 1.43002 0
M  V30 6708 C 651.312 -0.035345 2.32573 0
M  V30 6709 C 652.306 -0.803505 1.49131 0
M  V30 6710 O 653.512 -0.712865 1.65282 0
M  V30 6711 H 649.887 -0.0302194 0.751393 0
M  V30 6712 H 651.858 0.737686 2.89138 0
M  V30 6713 C 650.607 -0.981575 3.33557 0
M  V30 6714 H 649.93 -0.399914 3.97795 0
M  V30 6715 H 651.37 -1.43873 3.98844 0
M  V30 6716 C 649.829 -2.08204 2.64863 0
M  V30 6717 O 650.359 -3.16698 2.47113 0
M  V30 6718 N 648.565 -1.85022 2.24088 0
M  V30 6719 H 648.112 -0.967909 2.38724 0
M  V30 6720 H 648.07 -2.58845 1.78457 0
M  V30 6721 N 651.842 -1.52309 0.404946 0
M  V30 6722 C 653.088 -2.02065 -0.172455 0
M  V30 6723 C 653.421 -1.29022 -1.45145 0
M  V30 6724 O 652.696 -0.395284 -1.90441 0
M  V30 6725 C 652.979 -3.5759 -0.424433 0
M  V30 6726 C 652.832 -4.41287 0.870945 0
M  V30 6727 C 654.151 -4.23186 -1.20837 0
M  V30 6728 H 651.27 -0.734454 -0.0612035 0
M  V30 6729 H 653.912 -1.82236 0.53759 0
M  V30 6730 H 652.062 -3.74617 -1.02929 0
M  V30 6731 H 653.734 -4.3598 1.50729 0
M  V30 6732 H 651.977 -4.07669 1.48284 0
M  V30 6733 H 652.648 -5.48171 0.649083 0
M  V30 6734 H 655.124 -4.10232 -0.696338 0
M  V30 6735 H 654 -5.31953 -1.35343 0
M  V30 6736 H 654.261 -3.81862 -2.22786 0
M  V30 6737 N 653.32 -0.135238 -1.57019 0
M  V30 6738 C 654.568 0.51777 -1.95355 0
M  V30 6739 C 654.889 1.6617 -1.02042 0
M  V30 6740 O 654.159 1.95738 -0.0797343 0
M  V30 6741 H 652.739 0.194264 -0.721298 0
M  V30 6742 H 655.401 -0.207983 -1.93787 0
M  V30 6743 H 654.497 0.901675 -2.98791 0
M  V30 6744 N 654.798 1.5699 0.138552 0
M  V30 6745 C 655.745 1.98899 1.17081 0
M  V30 6746 C 656.715 0.857922 1.42228 0
M  V30 6747 O 657.9 1.12065 1.54422 0
M  V30 6748 C 655.04 2.38189 2.4972 0
M  V30 6749 C 654.153 3.64624 2.31674 0
M  V30 6750 C 653.288 3.9298 3.57407 0
M  V30 6751 C 652.327 5.1266 3.34435 0
M  V30 6752 N 651.464 5.36983 4.5232 0
M  V30 6753 H 656.304 2.86881 0.80642 0
M  V30 6754 H 653.841 1.41925 0.386727 0
M  V30 6755 H 655.799 2.59 3.2707 0
M  V30 6756 H 654.429 1.53275 2.84089 0
M  V30 6757 H 653.481 3.51542 1.45337 0
M  V30 6758 H 654.793 4.52131 2.10664 0
M  V30 6759 H 653.947 4.14335 4.43183 0
M  V30 6760 H 652.686 3.03912 3.8143 0
M  V30 6761 H 651.691 4.9117 2.47048 0
M  V30 6762 H 652.916 6.03288 3.11802 0
M  V30 6763 H 650.862 4.50871 4.76499 0
M  V30 6764 H 650.779 6.18775 4.34343 0
M  V30 6765 H 652.047 5.62842 5.39285 0
M  V30 6766 N 656.276 -0.40816 1.52223 0
M  V30 6767 C 657.208 -1.51642 1.71864 0
M  V30 6768 C 658.221 -1.51378 0.599056 0
M  V30 6769 O 659.41 -1.55626 0.874239 0
M  V30 6770 C 656.51 -2.90534 1.74481 0
M  V30 6771 C 655.683 -3.14979 3.03491 0
M  V30 6772 C 654.742 -4.33749 2.97907 0
M  V30 6773 O 653.768 -4.30982 3.71811 0
M  V30 6774 N 654.97 -5.38912 2.15764 0
M  V30 6775 H 657.735 -1.35188 2.67478 0
M  V30 6776 H 655.296 -0.597468 1.50472 0
M  V30 6777 H 657.288 -3.68056 1.68275 0
M  V30 6778 H 655.858 -3.00441 0.863363 0
M  V30 6779 H 655.078 -2.25492 3.23337 0
M  V30 6780 H 656.366 -3.28156 3.88833 0
M  V30 6781 H 655.764 -5.44008 1.55152 0
M  V30 6782 H 654.321 -6.15174 2.15415 0
M  V30 6783 N 657.755 -1.42862 -0.66545 0
M  V30 6784 C 659.002 -1.4383 -1.42546 0
M  V30 6785 C 659.33 -0.0581114 -1.94413 0
M  V30 6786 O 658.585 0.935002 -1.71919 0
M  V30 6787 C 658.884 -2.4175 -2.63233 0
M  V30 6788 C 658.55 -3.87915 -2.29854 0
M  V30 6789 C 657.212 -4.27726 -2.20463 0
M  V30 6790 C 659.564 -4.80074 -2.02924 0
M  V30 6791 C 656.892 -5.57666 -1.82279 0
M  V30 6792 C 659.244 -6.10366 -1.66242 0
M  V30 6793 C 657.908 -6.49167 -1.55367 0
M  V30 6794 H 657.178 -0.52631 -0.521612 0
M  V30 6795 H 659.825 -1.75863 -0.757914 0
M  V30 6796 H 658.13 -2.03077 -3.35063 0
M  V30 6797 H 659.827 -2.39759 -3.21429 0
M  V30 6798 H 656.417 -3.564 -2.3807 0
M  V30 6799 H 660.601 -4.50097 -2.09108 0
M  V30 6800 H 655.857 -5.8658 -1.72436 0
M  V30 6801 H 660.031 -6.81258 -1.44432 0
M  V30 6802 H 657.658 -7.49761 -1.2555 0
M  V30 6803 N 659.233 0.902656 -1.29189 0
M  V30 6804 C 660.181 2.0278 -1.13943 0
M  V30 6805 C 661.175 1.69308 -0.055787 0
M  V30 6806 O 662.381 1.78707 -0.215371 0
M  V30 6807 H 658.756 0.664595 -0.351877 0
M  V30 6808 H 660.727 2.12778 -2.09208 0
M  V30 6809 C 659.476 3.37657 -0.82966 0
M  V30 6810 H 658.799 3.63913 -1.65551 0
M  V30 6811 H 660.239 4.17078 -0.762998 0
M  V30 6812 C 658.698 3.33648 0.466991 0
M  V30 6813 O 659.228 3.72886 1.49395 0
M  V30 6814 N 657.434 2.86745 0.471761 0
M  V30 6815 H 656.981 2.55009 -0.364406 0
M  V30 6816 H 656.939 2.84446 1.33933 0
M  V30 6817 N 660.711 1.11618 1.11262 0
M  V30 6818 C 661.958 0.86618 1.8304 0
M  V30 6819 C 662.286 -0.608149 1.84748 0
M  V30 6820 O 661.541 -1.46508 1.29745 0
M  V30 6821 C 661.84 1.37529 3.2988 0
M  V30 6822 C 661.506 2.86317 3.4833 0
M  V30 6823 C 660.168 3.26945 3.53073 0
M  V30 6824 C 662.52 3.82136 3.54431 0
M  V30 6825 C 659.848 4.62117 3.61475 0
M  V30 6826 C 662.2 5.17128 3.64365 0
M  V30 6827 C 660.864 5.57312 3.67369 0
M  V30 6828 H 660.134 0.316958 0.66979 0
M  V30 6829 H 662.781 1.3949 1.31205 0
M  V30 6830 H 661.086 0.766842 3.84222 0
M  V30 6831 H 662.783 1.15817 3.83911 0
M  V30 6832 H 659.373 2.53889 3.45309 0
M  V30 6833 H 663.557 3.51847 3.50025 0
M  V30 6834 H 658.813 4.92655 3.62079 0
M  V30 6835 H 662.987 5.91208 3.68029 0
M  V30 6836 H 660.614 6.62045 3.73632 0
M  V30 6837 N 662.189 -1.289 0.906776 0
M  V30 6838 C 663.429 -1.97046 0.543329 0
M  V30 6839 C 663.793 -1.69862 -0.895034 0
M  V30 6840 O 664.994 -2.31521 -1.36571 0
M  V30 6841 C 663.265 -3.47489 0.835833 0
M  V30 6842 S 664.824 -4.3498 0.577756 0
M  V30 6843 H 661.642 -0.681908 0.201302 0
M  V30 6844 H 664.244 -1.5657 1.17073 0
M  V30 6845 H 662.948 -3.64768 1.88075 0
M  V30 6846 H 662.479 -3.92907 0.196817 0
M  V30 6847 H 664.494 -4.92868 -0.574052 0
M  V30 6848 N 663.667 -0.670007 -1.42649 0
M  V30 6849 C 664.892 -0.196955 -2.06463 0
M  V30 6850 C 665.317 1.1352 -1.49983 0
M  V30 6851 O 664.675 1.705 -0.616397 0
M  V30 6852 C 664.723 -0.137381 -3.60338 0
M  V30 6853 O 663.827 0.895523 -4.02559 0
M  V30 6854 H 663.168 -0.102579 -0.656029 0
M  V30 6855 H 665.698 -0.917669 -1.82866 0
M  V30 6856 H 665.708 0.0403625 -4.0798 0
M  V30 6857 H 664.383 -1.10977 -4.0082 0
M  V30 6858 H 662.96 0.689209 -3.66476 0
M  V30 6859 N 665.145 1.52092 -0.413018 0
M  V30 6860 C 666.556 1.86617 0.0556967 0
M  V30 6861 C 666.907 1.33156 1.44097 0
M  V30 6862 O 666.032 0.672417 2.05688 0
M  V30 6863 C 666.627 3.38628 0.107844 0
M  V30 6864 C 665.186 3.72778 0.520904 0
M  V30 6865 C 664.333 2.75649 -0.302109 0
M  V30 6866 H 667.284 1.45663 -0.629919 0
M  V30 6867 H 667.305 3.69152 0.922324 0
M  V30 6868 H 666.817 3.77508 -0.900506 0
M  V30 6869 H 664.918 3.39478 1.53575 0
M  V30 6870 H 665.031 4.7838 0.262591 0
M  V30 6871 H 663.395 2.53603 0.236115 0
M  V30 6872 H 664.178 3.17369 -1.30888 0
M  V30 6873 N 666.623 0.143563 1.56945 0
M  V30 6874 C 667.533 -0.810562 2.20152 0
M  V30 6875 C 668.549 -1.27431 1.1848 0
M  V30 6876 O 669.725 -1.33221 1.51044 0
M  V30 6877 C 666.79 -2.03353 2.80799 0
M  V30 6878 C 665.851 -1.61936 3.97587 0
M  V30 6879 C 665.084 -2.78403 4.55332 0
M  V30 6880 O 665.307 -3.94521 4.11958 0
M  V30 6881 O 664.241 -2.54073 5.45647 0
M  V30 6882 H 668.067 -0.30253 3.02189 0
M  V30 6883 H 665.652 -0.0832925 1.49168 0
M  V30 6884 H 667.534 -2.74932 3.19359 0
M  V30 6885 H 666.209 -2.53116 2.01777 0
M  V30 6886 H 665.116 -0.873904 3.6375 0
M  V30 6887 H 666.449 -1.16892 4.78118 0
M  V30 6888 N 668.101 -1.57061 -0.130224 0
M  V30 6889 C 669.329 -1.88432 -0.854456 0
M  V30 6890 C 669.744 -0.733608 -1.73964 0
M  V30 6891 O 669.101 0.296029 -1.80083 0
M  V30 6892 C 669.152 -3.1918 -1.69724 0
M  V30 6893 O 668.873 -4.2982 -0.847705 0
M  V30 6894 C 670.374 -3.6418 -2.5276 0
M  V30 6895 H 667.594 -0.624193 -0.246221 0
M  V30 6896 H 670.138 -2.04159 -0.11798 0
M  V30 6897 H 668.293 -3.05156 -2.3866 0
M  V30 6898 H 668.707 -5.04689 -1.42792 0
M  V30 6899 H 670.181 -4.58457 -3.07443 0
M  V30 6900 H 670.658 -2.90285 -3.29592 0
M  V30 6901 H 671.264 -3.80954 -1.89087 0
M  V30 6902 N 669.579 0.400081 -1.52437 0
M  V30 6903 C 670.825 1.14788 -1.67187 0
M  V30 6904 C 671.158 1.89928 -0.405074 0
M  V30 6905 O 670.433 1.85118 0.596804 0
M  V30 6906 C 670.716 2.13507 -2.89977 0
M  V30 6907 C 670.569 1.42204 -4.2673 0
M  V30 6908 C 671.888 3.14069 -3.083 0
M  V30 6909 H 669.007 0.415939 -0.608411 0
M  V30 6910 H 671.649 0.432542 -1.85011 0
M  V30 6911 H 669.799 2.7451 -2.74912 0
M  V30 6912 H 671.471 0.842503 -4.53541 0
M  V30 6913 H 669.714 0.723939 -4.27717 0
M  V30 6914 H 670.385 2.14281 -5.08712 0
M  V30 6915 H 672.861 2.63148 -3.22323 0
M  V30 6916 H 671.737 3.80398 -3.95713 0
M  V30 6917 H 671.998 3.82309 -2.22018 0
M  V30 6918 N 671.057 1.43213 0.657864 0
M  V30 6919 C 672.473 1.26511 0.972992 0
M  V30 6920 C 672.673 0.181477 2.00681 0
M  V30 6921 O 671.729 -0.441649 2.48608 0
M  V30 6922 C 673.042 2.62784 1.46168 0
M  V30 6923 C 674.59 2.70278 1.57857 0
M  V30 6924 C 675.065 4.06958 2.10117 0
M  V30 6925 N 676.556 4.08999 2.17426 0
M  V30 6926 C 677.291 5.11585 2.58975 0
M  V30 6927 N 676.787 6.24548 2.99853 0
M  V30 6928 N 678.58 4.9894 2.58873 0
M  V30 6929 H 670.731 2.12384 -0.0263129 0
M  V30 6930 H 672.994 0.946638 0.0507992 0
M  V30 6931 H 672.7 3.43022 0.776474 0
M  V30 6932 H 672.574 2.87863 2.43751 0
M  V30 6933 H 674.961 1.90376 2.25479 0
M  V30 6934 H 675.042 2.4897 0.587179 0
M  V30 6935 H 674.686 4.87325 1.43098 0
M  V30 6936 H 674.616 4.25628 3.10078 0
M  V30 6937 H 677.107 3.27457 1.88627 0
M  V30 6938 H 677.42 6.98661 3.30292 0
M  V30 6939 H 675.765 6.28027 2.97669 0
M  V30 6940 H 678.956 4.09757 2.26311 0
M  V30 6941 H 679.129 5.79019 2.90932 0
M  V30 6942 N 672.536 -0.895792 1.29666 0
M  V30 6943 C 673.446 -2.03329 1.17024 0
M  V30 6944 C 674.462 -1.73753 0.0925962 0
M  V30 6945 O 675.638 -1.99071 0.305431 0
M  V30 6946 C 672.703 -3.36072 0.851841 0
M  V30 6947 C 671.764 -3.7914 2.01373 0
M  V30 6948 C 670.997 -5.05549 1.71043 0
M  V30 6949 O 671.22 -5.66874 0.633213 0
M  V30 6950 O 670.154 -5.44764 2.5596 0
M  V30 6951 H 673.98 -2.16918 2.12556 0
M  V30 6952 H 671.565 -1.02007 1.09156 0
M  V30 6953 H 673.447 -4.15729 0.689006 0
M  V30 6954 H 672.122 -3.23616 -0.0736634 0
M  V30 6955 H 671.029 -3.00233 2.23183 0
M  V30 6956 H 672.362 -3.96186 2.92058 0
M  V30 6957 N 674.014 -1.12206 -1.10668 0
M  V30 6958 C 674.924 -0.800686 -2.20513 0
M  V30 6959 C 675.94 0.209512 -1.72734 0
M  V30 6960 O 677.116 0.043705 -2.01353 0
M  V30 6961 C 674.181 -0.257353 -3.45744 0
M  V30 6962 C 673.242 -1.32718 -4.0827 0
M  V30 6963 C 672.475 -0.809674 -5.27522 0
M  V30 6964 O 672.698 0.35742 -5.69279 0
M  V30 6965 O 671.632 -1.57816 -5.80842 0
M  V30 6966 H 675.458 -1.71807 -2.50432 0
M  V30 6967 H 673.043 -0.898546 -1.19359 0
M  V30 6968 H 674.925 0.0408849 -4.2138 0
M  V30 6969 H 673.6 0.632627 -3.17458 0
M  V30 6970 H 672.507 -1.67855 -3.34329 0
M  V30 6971 H 673.84 -2.19083 -4.40753 0
M  V30 6972 N 675.492 1.28418 -0.913599 0
M  V30 6973 C 676.738 1.9527 -0.547484 0
M  V30 6974 C 677.071 1.71745 0.906486 0
M  V30 6975 O 676.346 1.03834 1.64465 0
M  V30 6976 C 676.629 3.49748 -0.857205 0
M  V30 6977 C 676.482 3.82675 -2.3639 0
M  V30 6978 C 677.801 4.3868 -0.353258 0
M  V30 6979 H 674.92 0.709236 -0.200381 0
M  V30 6980 H 677.562 1.51789 -1.14281 0
M  V30 6981 H 675.712 3.86915 -0.350548 0
M  V30 6982 H 677.384 3.55378 -2.94116 0
M  V30 6983 H 675.627 3.29724 -2.81894 0
M  V30 6984 H 676.298 4.90547 -2.53115 0
M  V30 6985 H 678.774 4.08584 -0.787288 0
M  V30 6986 H 677.65 5.45621 -0.599049 0
M  V30 6987 H 677.911 4.35753 0.746413 0
M  V30 6988 N 676.97 0.677563 1.42291 0
M  V30 6989 C 677.9 0.014968 2.33495 0
M  V30 6990 C 678.881 -0.786376 1.50831 0
M  V30 6991 O 680.066 -0.742975 1.79426 0
M  V30 6992 C 677.196 -0.935023 3.34477 0
M  V30 6993 C 676.15 -0.242074 4.27315 0
M  V30 6994 C 675.476 -1.30519 5.18526 0
M  V30 6995 C 676.776 0.880604 5.14823 0
M  V30 6996 H 678.47 0.776671 2.89151 0
M  V30 6997 H 676.016 0.37494 1.39033 0
M  V30 6998 H 677.969 -1.40766 3.97194 0
M  V30 6999 H 676.693 -1.72818 2.77131 0
M  V30 7000 H 675.352 0.210351 3.65996 0
M  V30 7001 H 675 -2.09041 4.57505 0
M  V30 7002 H 674.7 -0.846652 5.81468 0
M  V30 7003 H 676.224 -1.7787 5.84119 0
M  V30 7004 H 677.638 0.489062 5.7121 0
M  V30 7005 H 676.035 1.26511 5.86613 0
M  V30 7006 H 677.105 1.72818 4.53059 0
M  V30 7007 N 678.448 -1.51871 0.421078 0
M  V30 7008 C 679.378 -2.30231 -0.389363 0
M  V30 7009 C 680.359 -1.34946 -1.03555 0
M  V30 7010 O 681.544 -1.63859 -1.04229 0
M  V30 7011 C 678.674 -3.13247 -1.49979 0
M  V30 7012 C 677.628 -4.16677 -0.977966 0
M  V30 7013 C 676.954 -4.88112 -2.1829 0
M  V30 7014 C 678.254 -5.22295 -0.0236775 0
M  V30 7015 H 679.948 -2.98229 0.264524 0
M  V30 7016 H 677.494 -1.43424 0.12866 0
M  V30 7017 H 679.447 -3.66838 -2.07383 0
M  V30 7018 H 678.171 -2.4304 -2.18173 0
M  V30 7019 H 676.83 -3.64114 -0.426245 0
M  V30 7020 H 676.478 -4.14423 -2.85066 0
M  V30 7021 H 676.178 -5.58041 -1.84021 0
M  V30 7022 H 677.702 -5.44521 -2.76278 0
M  V30 7023 H 679.116 -5.71055 -0.506899 0
M  V30 7024 H 677.513 -5.99656 0.230782 0
M  V30 7025 H 678.583 -4.76131 0.917999 0
M  V30 7026 N 679.926 -0.151884 -1.56866 0
M  V30 7027 C 681.154 0.504813 -2.00647 0
M  V30 7028 C 681.569 1.58098 -1.03201 0
M  V30 7029 O 680.926 1.82476 -0.0297814 0
M  V30 7030 C 680.977 1.10099 -3.44326 0
M  V30 7031 O 680.698 0.0678021 -4.38048 0
M  V30 7032 C 682.199 1.83782 -4.03409 0
M  V30 7033 H 679.419 0.130989 -0.65809 0
M  V30 7034 H 681.963 -0.247903 -2.02992 0
M  V30 7035 H 680.118 1.8043 -3.42817 0
M  V30 7036 H 680.532 0.505237 -5.22061 0
M  V30 7037 H 682.006 2.2078 -5.05925 0
M  V30 7038 H 682.483 2.72557 -3.44397 0
M  V30 7039 H 683.089 1.18138 -4.08563 0
M  V30 7040 N 681.404 1.57128 0.121893 0
M  V30 7041 C 682.334 2.03165 1.15092 0
M  V30 7042 C 683.315 0.915587 1.43356 0
M  V30 7043 O 684.5 1.1851 1.53847 0
M  V30 7044 C 681.63 2.43352 2.47784 0
M  V30 7045 C 680.584 3.58376 2.33989 0
M  V30 7046 C 679.91 3.84454 3.71617 0
M  V30 7047 C 681.21 4.90199 1.80283 0
M  V30 7048 H 682.904 2.89382 0.768023 0
M  V30 7049 H 680.45 1.39218 0.367998 0
M  V30 7050 H 682.403 2.74163 3.20019 0
M  V30 7051 H 681.127 1.54103 2.87958 0
M  V30 7052 H 679.786 3.2777 1.64202 0
M  V30 7053 H 679.434 2.92414 4.09271 0
M  V30 7054 H 679.134 4.61877 3.6324 0
M  V30 7055 H 680.658 4.17714 4.45362 0
M  V30 7056 H 682.072 5.19565 2.42333 0
M  V30 7057 H 680.469 5.71601 1.82735 0
M  V30 7058 H 681.539 4.78904 0.760184 0
M  V30 7059 N 682.882 -0.391992 1.52647 0
M  V30 7060 C 684.11 -1.1586 1.71418 0
M  V30 7061 C 684.525 -1.8381 0.431216 0
M  V30 7062 O 683.882 -1.7256 -0.594085 0
M  V30 7063 C 683.933 -2.20888 2.86165 0
M  V30 7064 O 683.654 -1.5571 4.09495 0
M  V30 7065 C 685.155 -3.103 3.1659 0
M  V30 7066 H 682.375 -0.347494 0.574011 0
M  V30 7067 H 684.919 -0.458972 1.99283 0
M  V30 7068 H 683.074 -2.86492 2.6077 0
M  V30 7069 H 683.488 -2.25474 4.73563 0
M  V30 7070 H 684.962 -3.8003 4.00351 0
M  V30 7071 H 685.439 -3.73639 2.30848 0
M  V30 7072 H 686.045 -2.50345 3.43813 0
M  V30 7073 N 684.36 -1.4356 -0.65026 0
M  V30 7074 C 685.771 -1.40324 -1.2315 0
M  V30 7075 C 686.122 -0.108812 -1.95898 0
M  V30 7076 O 685.247 0.79163 -2.01401 0
M  V30 7077 C 685.842 -2.54195 -2.23987 0
M  V30 7078 C 684.401 -2.54215 -2.77582 0
M  V30 7079 C 683.548 -2.31752 -1.5227 0
M  V30 7080 H 686.499 -1.52418 -0.442095 0
M  V30 7081 H 686.52 -2.25854 -3.0622 0
M  V30 7082 H 686.032 -3.48392 -1.71011 0
M  V30 7083 H 684.133 -1.63907 -3.34612 0
M  V30 7084 H 684.246 -3.52081 -3.24925 0
M  V30 7085 H 682.61 -1.80476 -1.79723 0
M  V30 7086 H 683.393 -3.28037 -1.01225 0
M  V30 7087 N 685.838 0.888903 -1.30139 0
M  V30 7088 C 687.078 1.65456 -1.20015 0
M  V30 7089 C 687.442 1.90467 0.242148 0
M  V30 7090 O 688.643 2.6472 0.466561 0
M  V30 7091 C 686.914 2.96071 -2.00191 0
M  V30 7092 S 688.473 3.87055 -2.06721 0
M  V30 7093 H 685.291 0.567927 -0.427761 0
M  V30 7094 H 687.893 1.05539 -1.64565 0
M  V30 7095 H 686.597 2.7559 -3.04103 0
M  V30 7096 H 686.128 3.61023 -1.56288 0
M  V30 7097 H 688.143 4.81676 -1.19174 0
M  V30 7098 O 687.355 1.24817 1.02483 0
M  V30 7099 H 688.046 1.02783 1.64181 0
M  V30 END ATOM
M  V30 BEGIN BOND
M  V30 END BOND
M  V30 END CTAB
M  END
$$$$
