drugbank_target|Q08499 cAMP-specific 3',5'-cyclic phosphodiesterase 4D (DB00131; DB00651; DB01088; DB01656; DB01791; DB01954; DB01959; DB02676; DB02918; DB03183; DB03606; DB03849; DB04149; DB04271; DB04469; DB05219; DB05266; DB05298; DB06246; DB06842; DB07051; DB07954; DB08299)
 OpenBabel12092119513D

  0  0  0     0  0            999 V3000
M  V30 BEGIN CTAB
M  V30 COUNTS 12598 12745 0 0 0
M  V30 BEGIN ATOM
M  V30 1 H -0.908 1.98254 -0.117106 0
M  V30 2 N 0 1.576 0 0
M  V30 3 C 0.933 2.03868 1.02534 0
M  V30 4 C 1.911 0.928543 1.3348 0
M  V30 5 O 3.095 1.19667 1.45644 0
M  V30 6 C 0.222 2.43627 2.35294 0
M  V30 7 C -0.732 3.65373 2.2001 0
M  V30 8 S 0.101 5.13292 1.52614 0
M  V30 9 C 1.257 5.56322 2.86805 0
M  V30 10 H 1.49 2.90518 0.631377 0
M  V30 11 H -0.977 1.52953 0.210867 0
M  V30 12 H 0.981 2.67203 3.11629 0
M  V30 13 H -0.358 1.57376 2.7183 0
M  V30 14 H -1.165 3.90944 3.18086 0
M  V30 15 H -1.563 3.418 1.51819 0
M  V30 16 H 0.729 5.58782 3.83104 0
M  V30 17 H 1.672 6.56266 2.65933 0
M  V30 18 H 2.08 4.83886 2.90714 0
M  V30 19 N 1.4781 -0.272755 1.55222 0
M  V30 20 C 2.3881 -1.35918 1.91216 0
M  V30 21 C 3.4041 -1.54026 0.809436 0
M  V30 22 O 4.5801 -1.68148 1.10852 0
M  V30 23 C 1.6451 -2.69834 2.17693 0
M  V30 24 C 0.7061 -2.6047 3.41253 0
M  V30 25 C -0.0609 -3.88 3.66458 0
M  V30 26 O 0.1621 -4.88693 2.94169 0
M  V30 27 O -0.9039 -3.88189 4.59992 0
M  V30 28 H 2.9221 -1.0839 2.83699 0
M  V30 29 H 0.5071 -0.471301 1.41771 0
M  V30 30 H 2.3891 -3.49017 2.36147 0
M  V30 31 H 1.0641 -2.97148 1.28392 0
M  V30 32 H -0.0289 -1.79663 3.28134 0
M  V30 33 H 1.3041 -2.38106 4.30774 0
M  V30 34 N 2.9562 -1.48159 -0.537278 0
M  V30 35 C 3.9192 -1.61665 -1.62472 0
M  V30 36 C 4.9192 -0.490395 -1.5314 0
M  V30 37 O 6.1092 -0.755998 -1.5694 0
M  V30 38 C 3.2412 -1.57997 -3.02076 0
M  V30 39 H 4.4342 -2.58621 -1.51839 0
M  V30 40 H 1.9872 -1.36647 -0.758771 0
M  V30 41 H 2.7222 -0.624913 -3.18222 0
M  V30 42 H 2.5072 -2.39755 -3.10258 0
M  V30 43 H 3.9972 -1.70627 -3.81151 0
M  V30 44 N 4.4343 0.785586 -1.36625 0
M  V30 45 C 5.3443 1.92964 -1.33425 0
M  V30 46 C 6.3603 1.72394 -0.235851 0
M  V30 47 O 7.5363 1.95866 -0.468878 0
M  V30 48 C 4.6013 3.27884 -1.12662 0
M  V30 49 C 3.6623 3.61204 -2.32013 0
M  V30 50 C 2.8953 4.89687 -2.12231 0
M  V30 51 O 3.1183 5.59704 -1.09945 0
M  V30 52 O 2.0523 5.21752 -3.00098 0
M  V30 53 H 5.8783 1.98613 -2.29753 0
M  V30 54 H 3.4633 0.926384 -1.17211 0
M  V30 55 H 5.3453 4.08614 -1.03016 0
M  V30 56 H 4.0203 3.23118 -0.193991 0
M  V30 57 H 2.9273 2.80765 -2.47228 0
M  V30 58 H 4.2603 3.70698 -3.23796 0
M  V30 59 N 5.9124 1.20967 1.01018 0
M  V30 60 C 7.1604 1.02172 1.74371 0
M  V30 61 C 7.4814 -0.446414 1.89821 0
M  V30 62 O 6.7514 -1.32234 1.44537 0
M  V30 63 H 5.3314 0.375066 0.646014 0
M  V30 64 H 7.9934 1.52187 1.21758 0
M  V30 65 H 7.0894 1.48538 2.74487 0
M  V30 66 N 7.3905 -1.2043 1.01659 0
M  V30 67 C 8.6155 -1.94318 0.724942 0
M  V30 68 C 9.0405 -1.74266 -0.708034 0
M  V30 69 O 8.3985 -1.03694 -1.48719 0
M  V30 70 C 8.4465 -3.44486 1.06591 0
M  V30 71 O 7.5505 -4.12017 0.177599 0
M  V30 72 H 6.8915 -0.60708 0.26898 0
M  V30 73 H 9.4215 -1.52861 1.35995 0
M  V30 74 H 9.4315 -3.95106 1.01762 0
M  V30 75 H 8.1065 -3.58404 2.10997 0
M  V30 76 H 6.6835 -3.71821 0.283421 0
M  V30 77 N 8.8686 -0.792821 -1.36206 0
M  V30 78 C 10.0936 -0.377701 -2.03932 0
M  V30 79 C 10.5186 0.998947 -1.59382 0
M  V30 80 O 9.8766 1.64421 -0.763903 0
M  V30 81 C 9.9246 -0.453635 -3.57735 0
M  V30 82 O 9.0286 0.538151 -4.08874 0
M  V30 83 H 8.3696 -0.159855 -0.644471 0
M  V30 84 H 10.8996 -1.07488 -1.7409 0
M  V30 85 H 10.9096 -0.318464 -4.06755 0
M  V30 86 H 9.5846 -1.45784 -3.89512 0
M  V30 87 H 8.1616 0.364359 -3.71116 0
M  V30 88 N 10.3467 1.47872 -0.545128 0
M  V30 89 C 11.3097 2.28337 0.198717 0
M  V30 90 C 12.3097 1.36255 0.853888 0
M  V30 91 O 13.4997 1.59003 0.711606 0
M  V30 92 C 10.6317 3.15585 1.28915 0
M  V30 93 H 11.8247 2.95567 -0.507941 0
M  V30 94 H 9.3777 1.53362 -0.301616 0
M  V30 95 H 10.1127 2.53019 2.02859 0
M  V30 96 H 9.8977 3.83337 0.824309 0
M  V30 97 H 11.3877 3.76243 1.81194 0
M  V30 98 N 11.8248 0.280983 1.55075 0
M  V30 99 C 13.2358 -0.215629 1.85451 0
M  V30 100 C 13.5868 -1.54991 1.203 0
M  V30 101 O 12.7118 -2.10699 0.493435 0
M  V30 102 C 13.3068 -0.398026 3.36454 0
M  V30 103 C 11.8658 -0.838866 3.66933 0
M  V30 104 C 11.0128 0.064458 2.77225 0
M  V30 105 H 13.9638 0.502601 1.50531 0
M  V30 106 H 13.9848 -1.23569 3.59876 0
M  V30 107 H 13.4968 0.573241 3.83843 0
M  V30 108 H 11.5978 -1.8214 3.25048 0
M  V30 109 H 11.7108 -0.672123 4.74362 0
M  V30 110 H 10.0748 -0.452863 2.50642 0
M  V30 111 H 10.8578 1.03172 3.2743 0
M  V30 112 N 13.3029 -1.57598 0.00835791 0
M  V30 113 C 14.2659 -2.07884 -0.965242 0
M  V30 114 C 15.2659 -0.989825 -1.26725 0
M  V30 115 O 16.4559 -1.25218 -1.21104 0
M  V30 116 C 13.5879 -2.52731 -2.28779 0
M  V30 117 H 14.7809 -2.95178 -0.530112 0
M  V30 118 H 12.3339 -1.54458 -0.239283 0
M  V30 119 H 13.0689 -1.68705 -2.76964 0
M  V30 120 H 12.8539 -3.32272 -2.08177 0
M  V30 121 H 14.3439 -2.91933 -2.98605 0
M  V30 122 N 14.781 0.264519 -1.55364 0
M  V30 123 C 16.197 0.61215 -1.47394 0
M  V30 124 C 16.397 1.89134 -0.695018 0
M  V30 125 O 15.453 2.51563 -0.217275 0
M  V30 126 C 16.766 0.731235 -2.91674 0
M  V30 127 C 18.314 0.82473 -3.01939 0
M  V30 128 C 18.789 0.975522 -4.4749 0
M  V30 129 N 20.28 1.04083 -4.51354 0
M  V30 130 C 21.015 1.17646 -5.61201 0
M  V30 131 N 20.511 1.27874 -6.80896 0
M  V30 132 N 22.304 1.20823 -5.48961 0
M  V30 133 H 14.455 -0.575456 -2.04456 0
M  V30 134 H 16.718 -0.196099 -0.927496 0
M  V30 135 H 16.424 -0.138392 -3.51428 0
M  V30 136 H 16.298 1.60883 -3.41169 0
M  V30 137 H 18.685 1.68482 -2.42276 0
M  V30 138 H 18.766 -0.0776479 -2.55682 0
M  V30 139 H 18.41 0.120058 -5.07758 0
M  V30 140 H 18.34 1.89268 -4.91412 0
M  V30 141 H 20.831 0.973846 -3.65136 0
M  V30 142 H 21.144 1.38081 -7.60364 0
M  V30 143 H 19.489 1.24863 -6.83692 0
M  V30 144 H 22.68 1.12469 -4.54388 0
M  V30 145 H 22.853 1.31049 -6.3461 0
M  V30 146 N 16.2591 1.48442 0.529413 0
M  V30 147 C 17.2221 1.62524 1.61612 0
M  V30 148 C 18.2221 0.498509 1.52877 0
M  V30 149 O 19.4121 0.76431 1.56537 0
M  V30 150 C 16.5441 1.59597 3.01233 0
M  V30 151 H 17.7371 2.59423 1.50465 0
M  V30 152 H 15.2901 1.37047 0.751514 0
M  V30 153 H 16.0251 0.641781 3.17886 0
M  V30 154 H 15.8101 2.41397 3.08982 0
M  V30 155 H 17.3001 1.72646 3.80241 0
M  V30 156 N 17.7372 -0.778329 1.37039 0
M  V30 157 C 18.9852 -1.53361 1.31623 0
M  V30 158 C 19.3062 -1.94739 -0.100831 0
M  V30 159 O 18.5762 -1.65797 -1.04347 0
M  V30 160 H 17.1562 -0.568794 0.484234 0
M  V30 161 H 19.8182 -0.926742 1.71457 0
M  V30 162 H 18.9142 -2.43606 1.95096 0
M  V30 163 N 19.2153 -1.21501 -1.00376 0
M  V30 164 C 20.4403 -1.05977 -1.78279 0
M  V30 165 C 20.8653 0.385994 -1.84097 0
M  V30 166 O 20.2233 1.27849 -1.28547 0
M  V30 167 C 20.2713 -1.66302 -3.19963 0
M  V30 168 O 19.3753 -0.909333 -4.0225 0
M  V30 169 H 18.7163 -0.372906 -0.549397 0
M  V30 170 H 21.2463 -1.6107 -1.26165 0
M  V30 171 H 21.2563 -1.70574 -3.70632 0
M  V30 172 H 19.9313 -2.71515 -3.15043 0
M  V30 173 H 18.5083 -0.941795 -3.60811 0
M  V30 174 N 20.6934 1.19889 -1.02296 0
M  V30 175 C 21.9414 1.89046 -0.714558 0
M  V30 176 C 22.2624 1.79636 0.758681 0
M  V30 177 O 21.5324 1.20292 1.54618 0
M  V30 178 H 20.1124 0.699802 -0.261317 0
M  V30 179 H 22.7744 1.45574 -1.29592 0
M  V30 180 H 21.8704 2.95524 -1.0036 0
M  V30 181 N 22.1715 0.800033 1.35784 0
M  V30 182 C 23.0815 0.207204 2.33683 0
M  V30 183 C 24.0975 -0.64631 1.61551 0
M  V30 184 O 25.2735 -0.559604 1.93469 0
M  V30 185 C 22.3385 -0.639659 3.40748 0
M  V30 186 C 21.3995 0.233585 4.28664 0
M  V30 187 C 20.6325 -0.572954 5.30616 0
M  V30 188 O 20.8555 -1.80816 5.40982 0
M  V30 189 O 19.7895 0.0327285 6.01891 0
M  V30 190 H 23.6155 1.01692 2.86169 0
M  V30 191 H 21.2005 0.561691 1.38439 0
M  V30 192 H 23.0825 -1.12223 4.06182 0
M  V30 193 H 21.7575 -1.42708 2.90544 0
M  V30 194 H 20.6645 0.763147 3.66233 0
M  V30 195 H 21.9975 0.984784 4.82248 0
M  V30 196 N 23.6496 -1.47581 0.552962 0
M  V30 197 C 24.8976 -2.02082 0.0272703 0
M  V30 198 C 25.2186 -1.4301 -1.32563 0
M  V30 199 O 24.4886 -0.603745 -1.86365 0
M  V30 200 H 23.0686 -0.746966 0.00709182 0
M  V30 201 H 25.7306 -1.81033 0.722008 0
M  V30 202 H 24.8266 -3.12034 -0.0639951 0
M  V30 203 N 25.1277 -0.289203 -1.54924 0
M  V30 204 C 26.3527 0.329299 -2.04769 0
M  V30 205 C 26.7777 1.4763 -1.16564 0
M  V30 206 O 26.1357 1.80527 -0.167186 0
M  V30 207 C 26.1837 0.774438 -3.52186 0
M  V30 208 O 25.2877 1.88038 -3.67036 0
M  V30 209 H 24.6287 0.0659259 -0.660719 0
M  V30 210 H 27.1587 -0.42761 -2.00082 0
M  V30 211 H 27.1687 1.06642 -3.93816 0
M  V30 212 H 25.8437 -0.0646707 -4.1585 0
M  V30 213 H 24.4207 1.58985 -3.3731 0
M  V30 214 N 26.6058 1.57591 -0.0167156 0
M  V30 215 C 27.8828 1.82547 0.702564 0
M  V30 216 C 28.2628 0.898018 1.91047 0
M  V30 217 O 27.6108 -0.0493456 2.28447 0
M  V30 218 C 27.8208 3.31459 1.09251 0
M  V30 219 C 29.1688 3.97622 1.48937 0
M  V30 220 O 30.1928 3.35881 1.18584 0
M  V30 221 O 29.0518 5.06415 2.05442 0
M  V30 222 H 26.1458 0.752268 0.343544 0
M  V30 223 H 28.6918 1.69644 -0.0434495 0
M  V30 224 H 27.4638 3.9061 0.23227 0
M  V30 225 H 27.0868 3.49422 1.89709 0
M  V30 226 N 28.0839 -0.256276 1.55502 0
M  V30 227 C 29.3089 -1.00766 1.81276 0
M  V30 228 C 29.7339 -1.78524 0.59252 0
M  V30 229 O 29.0919 -1.75413 -0.45827 0
M  V30 230 C 29.1399 -1.92869 3.04687 0
M  V30 231 O 28.2439 -3.019 2.80945 0
M  V30 232 H 27.5849 -0.287224 0.598664 0
M  V30 233 H 30.1149 -0.280109 2.02674 0
M  V30 234 H 30.1249 -2.34511 3.33869 0
M  V30 235 H 28.7999 -1.35689 3.93143 0
M  V30 236 H 27.3769 -2.64454 2.62904 0
M  V30 237 N 29.562 -1.4872 -0.521534 0
M  V30 238 C 30.525 -1.63379 -1.60748 0
M  V30 239 C 31.525 -0.50661 -1.52611 0
M  V30 240 O 32.715 -0.772601 -1.5613 0
M  V30 241 C 29.847 -1.61192 -3.00383 0
M  V30 242 H 31.04 -2.60217 -1.49087 0
M  V30 243 H 28.593 -1.37444 -0.744235 0
M  V30 244 H 29.328 -0.65863 -3.17541 0
M  V30 245 H 29.113 -2.43032 -3.07698 0
M  V30 246 H 30.603 -1.7466 -3.7932 0
M  V30 247 N 31.0401 0.771051 -1.3745 0
M  V30 248 C 32.2881 1.52661 -1.32435 0
M  V30 249 C 32.6091 1.9479 0.0905024 0
M  V30 250 O 31.8791 1.66348 1.03466 0
M  V30 251 H 30.4591 0.566218 -0.487244 0
M  V30 252 H 33.1211 0.917636 -1.71946 0
M  V30 253 H 32.2171 2.42568 -1.96385 0
M  V30 254 N 32.5182 1.22032 0.997298 0
M  V30 255 C 33.7662 1.04016 1.73278 0
M  V30 256 C 34.0872 -0.426255 1.90284 0
M  V30 257 O 33.3572 -1.30694 1.45931 0
M  V30 258 H 31.9372 0.381897 0.642 0
M  V30 259 H 34.5992 1.5347 1.20137 0
M  V30 260 H 33.6952 1.51441 2.72896 0
M  V30 261 N 33.9963 -1.19345 1.0293 0
M  V30 262 C 34.9593 -2.20793 0.615069 0
M  V30 263 C 35.9593 -1.57553 -0.321533 0
M  V30 264 O 37.1493 -1.73862 -0.108483 0
M  V30 265 C 34.2813 -3.40754 -0.0999222 0
M  V30 266 H 35.4743 -2.58955 1.51269 0
M  V30 267 H 33.0273 -1.3303 0.820534 0
M  V30 268 H 33.7623 -3.0811 -1.01187 0
M  V30 269 H 33.5473 -3.87889 0.57309 0
M  V30 270 H 35.0373 -4.15898 -0.376645 0
M  V30 271 N 35.4744 -0.807222 -1.35358 0
M  V30 272 C 36.7024 -0.400377 -2.02989 0
M  V30 273 C 37.1174 0.988859 -1.60832 0
M  V30 274 O 36.4744 1.63729 -0.806175 0
M  V30 275 C 36.5254 -0.474867 -3.58368 0
M  V30 276 O 36.2464 -1.80933 -3.98992 0
M  V30 277 C 37.7474 -0.0609112 -4.43258 0
M  V30 278 H 34.9674 -0.162587 -0.651004 0
M  V30 279 H 37.5114 -1.09102 -1.72965 0
M  V30 280 H 35.6664 0.167534 -3.87038 0
M  V30 281 H 36.0804 -1.77256 -4.9364 0
M  V30 282 H 37.5544 -0.164145 -5.51756 0
M  V30 283 H 38.0314 0.993831 -4.27808 0
M  V30 284 H 38.6374 -0.676492 -4.19885 0
M  V30 285 N 36.9525 1.47285 -0.560781 0
M  V30 286 C 37.8825 2.32857 0.173105 0
M  V30 287 C 38.8635 1.44009 0.905281 0
M  V30 288 O 40.0485 1.7286 0.885046 0
M  V30 289 C 37.1785 3.25861 1.20133 0
M  V30 290 C 36.1325 4.23978 0.585388 0
M  V30 291 C 35.4585 5.06332 1.7185 0
M  V30 292 C 36.7585 5.20242 -0.463178 0
M  V30 293 H 38.4525 2.94466 -0.541307 0
M  V30 294 H 35.9985 1.41601 -0.261764 0
M  V30 295 H 37.9515 3.84569 1.72293 0
M  V30 296 H 36.6755 2.62315 1.94573 0
M  V30 297 H 35.3345 3.66501 0.085054 0
M  V30 298 H 34.9825 4.39186 2.45203 0
M  V30 299 H 34.6825 5.72762 1.31213 0
M  V30 300 H 36.2065 5.67899 2.24329 0
M  V30 301 H 37.6205 5.73293 -0.027502 0
M  V30 302 H 36.0175 5.94896 -0.788627 0
M  V30 303 H 37.0875 4.65504 -1.35773 0
M  V30 304 N 38.4306 0.297415 1.54768 0
M  V30 305 C 39.3776 -0.580276 2.23386 0
M  V30 306 C 40.3476 -1.13238 1.21517 0
M  V30 307 O 41.5326 -1.17757 1.50126 0
M  V30 308 C 38.6726 -1.74801 2.97555 0
M  V30 309 C 37.7856 -1.22764 4.1419 0
M  V30 310 C 36.9206 -2.35895 4.75949 0
M  V30 311 C 35.9596 -1.80974 5.84735 0
M  V30 312 N 35.0966 -2.87664 6.40464 0
M  V30 313 H 39.9366 0.0114833 2.97998 0
M  V30 314 H 37.4736 0.0174361 1.4709 0
M  V30 315 H 39.4316 -2.43475 3.38786 0
M  V30 316 H 38.0616 -2.31145 2.25326 0
M  V30 317 H 37.1136 -0.433271 3.77924 0
M  V30 318 H 38.4256 -0.785551 4.92575 0
M  V30 319 H 37.5796 -3.12523 5.20014 0
M  V30 320 H 36.3186 -2.83429 3.96887 0
M  V30 321 H 35.3236 -1.02834 5.40097 0
M  V30 322 H 36.5486 -1.34348 6.65678 0
M  V30 323 H 34.4946 -3.34538 5.64287 0
M  V30 324 H 34.4116 -2.4794 7.14186 0
M  V30 325 H 35.6796 -3.642 6.89187 0
M  V30 326 N 39.9087 -1.5758 0.0250728 0
M  V30 327 C 40.8717 -2.08896 -0.943139 0
M  V30 328 C 41.8717 -1.00321 -1.25668 0
M  V30 329 O 43.0617 -1.26495 -1.19769 0
M  V30 330 C 40.1937 -2.55143 -2.26086 0
M  V30 331 H 41.3867 -2.95723 -0.498775 0
M  V30 332 H 38.9397 -1.54703 -0.222888 0
M  V30 333 H 39.6747 -1.71633 -2.75159 0
M  V30 334 H 39.4597 -3.34461 -2.04641 0
M  V30 335 H 40.9497 -2.95083 -2.95492 0
M  V30 336 N 41.3868 0.248026 -1.55636 0
M  V30 337 C 42.7978 0.817177 -1.67866 0
M  V30 338 C 43.1488 1.86069 -0.622322 0
M  V30 339 O 42.2738 2.15157 0.231618 0
M  V30 340 C 42.8688 1.489 -3.04326 0
M  V30 341 C 41.4278 2.00587 -3.185 0
M  V30 342 C 40.5748 0.856573 -2.63739 0
M  V30 343 H 43.5258 0.0238579 -1.58682 0
M  V30 344 H 43.5468 2.35698 -2.98708 0
M  V30 345 H 43.0588 0.729279 -3.81186 0
M  V30 346 H 41.1598 2.79443 -2.4646 0
M  V30 347 H 41.2728 2.20402 -4.25393 0
M  V30 348 H 39.6368 1.25678 -2.21534 0
M  V30 349 H 40.4198 0.109953 -3.43124 0
M  V30 350 N 42.8649 1.48995 0.513639 0
M  V30 351 C 43.8119 1.6473 1.61656 0
M  V30 352 C 44.7819 0.488984 1.58739 0
M  V30 353 O 45.9669 0.714478 1.76918 0
M  V30 354 C 43.1069 1.7082 2.99858 0
M  V30 355 C 42.2199 2.9787 3.12885 0
M  V30 356 C 41.3549 2.95017 4.41744 0
M  V30 357 C 40.3939 4.16702 4.48359 0
M  V30 358 N 39.5309 4.11832 5.68629 0
M  V30 359 H 44.3709 2.58909 1.47547 0
M  V30 360 H 41.9079 1.28382 0.71808 0
M  V30 361 H 43.8659 1.72331 3.79944 0
M  V30 362 H 42.4959 0.801181 3.12699 0
M  V30 363 H 41.5479 3.06029 2.25944 0
M  V30 364 H 42.8599 3.8786 3.13633 0
M  V30 365 H 42.0139 2.95021 5.30139 0
M  V30 366 H 40.7529 2.02784 4.43542 0
M  V30 367 H 39.7579 4.16955 3.58369 0
M  V30 368 H 40.9829 5.10113 4.48287 0
M  V30 369 H 38.9289 3.22428 5.71293 0
M  V30 370 H 38.8459 4.95543 5.7094 0
M  V30 371 H 40.1139 4.1592 6.59266 0
M  V30 372 N 44.343 -0.763751 1.37857 0
M  V30 373 C 45.293 -1.86765 1.30777 0
M  V30 374 C 46.277 -1.59726 0.194015 0
M  V30 375 O 47.469 -1.7172 0.42911 0
M  V30 376 C 44.598 -3.24343 1.12502 0
M  V30 377 C 43.684 -3.57307 2.28456 0
M  V30 378 N 44.075 -3.61398 3.53871 0
M  V30 379 C 42.373 -3.87517 2.20786 0
M  V30 380 C 43.074 -3.91339 4.30382 0
M  V30 381 N 42.05 -4.07649 3.59615 0
M  V30 382 H 45.852 -1.88191 2.25746 0
M  V30 383 H 43.366 -0.9606 1.30944 0
M  V30 384 H 45.363 -4.03327 1.05514 0
M  V30 385 H 44.023 -3.24175 0.184574 0
M  V30 386 H 45.034 -3.43407 3.87675 0
M  V30 387 H 41.711 -3.95125 1.34844 0
M  V30 388 H 43.101 -4.01213 5.3896 0
M  V30 389 N 45.8211 -1.22559 -0.990812 0
M  V30 390 C 46.7511 -1.0218 -2.09956 0
M  V30 391 C 47.7321 0.0579394 -1.70001 0
M  V30 392 O 48.9171 -0.104684 -1.93918 0
M  V30 393 C 46.0471 -0.601023 -3.4206 0
M  V30 394 C 45.0011 -1.62694 -3.95872 0
M  V30 395 C 44.3271 -1.06193 -5.24049 0
M  V30 396 C 45.6271 -3.01743 -4.2632 0
M  V30 397 H 47.3211 -1.94916 -2.27262 0
M  V30 398 H 44.8671 -0.938566 -1.09211 0
M  V30 399 H 46.8201 -0.445561 -4.19038 0
M  V30 400 H 45.5441 0.362005 -3.24588 0
M  V30 401 H 44.2031 -1.77021 -3.21028 0
M  V30 402 H 43.8511 -0.0901903 -5.02919 0
M  V30 403 H 43.5511 -1.74732 -5.61019 0
M  V30 404 H 45.0751 -0.918092 -6.03658 0
M  V30 405 H 46.4891 -2.90777 -4.94087 0
M  V30 406 H 44.8861 -3.67425 -4.74467 0
M  V30 407 H 45.9561 -3.51518 -3.34011 0
M  V30 408 N 47.2992 1.18797 -1.03562 0
M  V30 409 C 48.5452 1.89192 -0.746867 0
M  V30 410 C 48.9002 1.78531 0.717245 0
M  V30 411 O 48.1932 1.17137 1.51622 0
M  V30 412 C 48.3872 3.38692 -1.14117 0
M  V30 413 C 48.2162 3.63902 -2.64207 0
M  V30 414 C 46.9862 3.81553 -3.31279 0
M  V30 415 C 49.1842 3.64903 -3.62423 0
M  V30 416 N 47.1662 3.94455 -4.70402 0
M  V30 417 C 48.5372 3.83458 -4.87196 0
M  V30 418 C 50.5922 3.47965 -3.56125 0
M  V30 419 C 49.2952 3.86829 -6.06429 0
M  V30 420 C 51.3212 3.52616 -4.7478 0
M  V30 421 C 50.6832 3.71663 -5.9837 0
M  V30 422 H 46.7822 0.711141 -0.325273 0
M  V30 423 H 49.3662 1.42727 -1.32428 0
M  V30 424 H 47.5372 3.83864 -0.591889 0
M  V30 425 H 49.2692 3.96634 -0.803966 0
M  V30 426 H 46.0242 3.80723 -2.81686 0
M  V30 427 H 46.4482 4.0474 -5.42692 0
M  V30 428 H 51.0902 3.32189 -2.61553 0
M  V30 429 H 48.8082 4.01395 -7.01362 0
M  V30 430 H 52.3942 3.40791 -4.71543 0
M  V30 431 H 51.2742 3.75145 -6.88648 0
M  V30 432 N 48.7773 0.814389 1.34928 0
M  V30 433 C 50.1933 0.499084 1.51596 0
M  V30 434 C 50.3933 -0.978319 1.76157 0
M  V30 435 O 49.4493 -1.76309 1.80752 0
M  V30 436 C 50.7623 1.35121 2.68631 0
M  V30 437 C 52.3103 1.34746 2.82511 0
M  V30 438 C 52.7853 2.18388 4.0258 0
M  V30 439 N 54.2763 2.15966 4.09772 0
M  V30 440 C 55.0113 2.77437 5.01813 0
M  V30 441 N 54.5073 3.47866 5.99134 0
M  V30 442 N 56.3003 2.67037 4.94619 0
M  V30 443 H 48.4513 1.7711 1.17243 0
M  V30 444 H 50.7143 0.754256 0.574284 0
M  V30 445 H 50.4203 2.40001 2.57085 0
M  V30 446 H 50.2943 1.00991 3.63429 0
M  V30 447 H 52.6813 0.30648 2.93504 0
M  V30 448 H 52.7623 1.72869 1.88547 0
M  V30 449 H 52.4063 3.2253 3.92347 0
M  V30 450 H 52.3363 1.77621 4.9574 0
M  V30 451 H 54.8273 1.64729 3.40107 0
M  V30 452 H 55.1403 3.92038 6.65977 0
M  V30 453 H 53.4853 3.51972 5.99284 0
M  V30 454 H 56.6763 2.11597 4.17546 0
M  V30 455 H 56.8493 3.15232 5.66156 0
M  V30 456 N 50.2554 -1.46986 0.568584 0
M  V30 457 C 51.2054 -2.27179 -0.193339 0
M  V30 458 C 52.1894 -1.35035 -0.874895 0
M  V30 459 O 53.3814 -1.5931 -0.771322 0
M  V30 460 C 50.5104 -3.21063 -1.21546 0
M  V30 461 C 49.5964 -4.2069 -0.536738 0
M  V30 462 N 49.9874 -5.04218 0.399673 0
M  V30 463 C 48.2854 -4.38961 -0.789254 0
M  V30 464 C 48.9864 -5.76242 0.795017 0
M  V30 465 N 47.9624 -5.434 0.1473 0
M  V30 466 H 51.7644 -2.89146 0.526458 0
M  V30 467 H 49.2784 -1.57664 0.389342 0
M  V30 468 H 51.2754 -3.77209 -1.77536 0
M  V30 469 H 49.9354 -2.60654 -1.93623 0
M  V30 470 H 50.9464 -5.12077 0.774454 0
M  V30 471 H 47.6234 -3.89713 -1.49767 0
M  V30 472 H 49.0134 -6.53417 1.56513 0
M  V30 473 N 51.7335 -0.305618 -1.54608 0
M  V30 474 C 52.6435 0.57778 -2.27374 0
M  V30 475 C 53.6595 1.14451 -1.31061 0
M  V30 476 O 54.8355 1.16831 -1.6405 0
M  V30 477 C 51.9005 1.73123 -3.00382 0
M  V30 478 C 50.9615 1.19812 -4.12242 0
M  V30 479 C 50.1945 2.2966 -4.81759 0
M  V30 480 O 50.4175 3.49651 -4.50666 0
M  V30 481 O 49.3515 1.96091 -5.69062 0
M  V30 482 H 53.1775 -0.012624 -3.03697 0
M  V30 483 H 50.7625 -0.0719184 -1.49227 0
M  V30 484 H 52.6445 2.40315 -3.4616 0
M  V30 485 H 51.3195 2.30815 -2.26949 0
M  V30 486 H 50.2265 0.491798 -3.70853 0
M  V30 487 H 51.5595 0.666566 -4.87666 0
M  V30 488 N 53.2116 1.57565 -0.0334293 0
M  V30 489 C 54.1436 2.0739 0.975811 0
M  V30 490 C 55.1566 0.998166 1.2861 0
M  V30 491 O 56.3456 1.27426 1.25 0
M  V30 492 C 53.4456 2.4871 2.30209 0
M  V30 493 C 52.6186 3.79413 2.17634 0
M  V30 494 C 51.6776 4.07237 3.33233 0
M  V30 495 O 50.7036 4.77425 3.09927 0
M  V30 496 N 51.9056 3.5775 4.5716 0
M  V30 497 H 54.6706 2.94598 0.55066 0
M  V30 498 H 52.2316 1.61173 0.15323 0
M  V30 499 H 54.2236 2.64413 3.06378 0
M  V30 500 H 52.7936 1.66845 2.64351 0
M  V30 501 H 52.0136 3.73465 1.26165 0
M  V30 502 H 53.3016 4.65038 2.0644 0
M  V30 503 H 52.6996 3.00976 4.78989 0
M  V30 504 H 51.2566 3.78724 5.30482 0
M  V30 505 N 54.6897 -0.239769 1.55765 0
M  V30 506 C 55.6397 -1.30002 1.87306 0
M  V30 507 C 56.6237 -1.43156 0.73452 0
M  V30 508 O 57.8157 -1.46277 0.99659 0
M  V30 509 C 54.9447 -2.65409 2.17745 0
M  V30 510 C 54.0307 -2.56231 3.37945 0
M  V30 511 N 54.4217 -2.16689 4.57033 0
M  V30 512 C 52.7197 -2.87229 3.41197 0
M  V30 513 C 53.4207 -2.18318 5.39177 0
M  V30 514 N 52.3967 -2.58098 4.78421 0
M  V30 515 H 56.1987 -0.984912 2.76906 0
M  V30 516 H 53.7127 -0.448381 1.56087 0
M  V30 517 H 55.7097 -3.41934 2.38509 0
M  V30 518 H 54.3697 -2.97781 1.29448 0
M  V30 519 H 55.3807 -1.88116 4.82528 0
M  V30 520 H 52.0577 -3.24094 2.63191 0
M  V30 521 H 53.4477 -1.90025 6.44469 0
M  V30 522 N 56.1678 -1.49265 -0.50573 0
M  V30 523 C 57.1178 -1.6198 -1.60457 0
M  V30 524 C 58.1018 -0.47568 -1.53708 0
M  V30 525 O 59.2938 -0.728392 -1.61318 0
M  V30 526 C 56.4228 -1.68526 -2.99089 0
M  V30 527 C 55.5088 -2.885 -3.10852 0
M  V30 528 N 55.8998 -4.12635 -2.92517 0
M  V30 529 C 54.1978 -2.86338 -3.41945 0
M  V30 530 C 54.8988 -4.93258 -3.08337 0
M  V30 531 N 53.8748 -4.26533 -3.37003 0
M  V30 532 H 57.6768 -2.55681 -1.44928 0
M  V30 533 H 55.1908 -1.45972 -0.711752 0
M  V30 534 H 57.1878 -1.75732 -3.78053 0
M  V30 535 H 55.8478 -0.759584 -3.1569 0
M  V30 536 H 56.8588 -4.42689 -2.68787 0
M  V30 537 H 53.5358 -2.03129 -3.64753 0
M  V30 538 H 54.9258 -6.01856 -2.98695 0
M  V30 539 N 57.6459 0.756429 -1.3826 0
M  V30 540 C 58.5779 1.87971 -1.31147 0
M  V30 541 C 59.5909 1.61248 -0.224239 0
M  V30 542 O 60.7799 1.71881 -0.481581 0
M  V30 543 C 57.8799 3.23545 -1.00857 0
M  V30 544 C 57.0529 3.77794 -2.20432 0
M  V30 545 C 56.1119 4.91877 -1.86931 0
M  V30 546 O 55.1379 5.06659 -2.59395 0
M  V30 547 N 56.3399 5.74643 -0.822568 0
M  V30 548 H 59.1049 1.94585 -2.2794 0
M  V30 549 H 56.6659 0.936234 -1.32084 0
M  V30 550 H 58.6579 3.97403 -0.765021 0
M  V30 551 H 57.2279 3.12335 -0.128687 0
M  V30 552 H 56.4479 2.95534 -2.6087 0
M  V30 553 H 57.7359 4.10771 -3.00241 0
M  V30 554 H 57.1339 5.65266 -0.221575 0
M  V30 555 H 55.6909 6.48661 -0.638899 0
M  V30 556 N 59.124 1.23083 0.984299 0
M  V30 557 C 60.354 1.08556 1.75781 0
M  V30 558 C 60.762 -0.366171 1.85623 0
M  V30 559 O 60.105 -1.26524 1.33182 0
M  V30 560 C 60.167 1.63208 3.20318 0
M  V30 561 C 59.831 3.11922 3.33997 0
M  V30 562 C 60.828 4.09259 3.2063 0
M  V30 563 C 58.513 3.51552 3.58771 0
M  V30 564 C 60.507 5.4421 3.31835 0
M  V30 565 C 58.194 4.86649 3.69616 0
M  V30 566 C 59.192 5.82787 3.56157 0
M  V30 567 O 58.88 7.15431 3.66626 0
M  V30 568 H 58.612 0.380713 0.5586 0
M  V30 569 H 61.166 1.63321 1.2456 0
M  V30 570 H 59.396 1.0286 3.72769 0
M  V30 571 H 61.085 1.44216 3.79416 0
M  V30 572 H 61.851 3.79984 3.01392 0
M  V30 573 H 57.73 2.77239 3.6832 0
M  V30 574 H 61.274 6.1923 3.21247 0
M  V30 575 H 57.171 5.15601 3.88363 0
M  V30 576 H 57.939 7.23127 3.83445 0
M  V30 577 N 60.6021 -1.18246 1.0419 0
M  V30 578 C 62.0131 -1.69914 0.773698 0
M  V30 579 C 62.3641 -1.83085 -0.705297 0
M  V30 580 O 61.4891 -1.51123 -1.5489 0
M  V30 581 C 62.0841 -3.08619 1.39784 0
M  V30 582 C 60.6431 -3.57494 1.17792 0
M  V30 583 C 59.7901 -2.34013 1.48773 0
M  V30 584 H 62.7411 -1.02904 1.20816 0
M  V30 585 H 62.7621 -3.71958 0.801714 0
M  V30 586 H 62.2741 -2.99001 2.47426 0
M  V30 587 H 60.3751 -3.72406 0.120295 0
M  V30 588 H 60.4881 -4.40852 1.87581 0
M  V30 589 H 58.8521 -2.37986 0.907463 0
M  V30 590 H 59.6351 -2.27013 2.57527 0
M  V30 591 N 62.0802 -0.821533 -1.34494 0
M  V30 592 C 63.0102 -0.257138 -2.3208 0
M  V30 593 C 63.9912 0.625645 -1.58176 0
M  V30 594 O 65.1762 0.552811 -1.86166 0
M  V30 595 C 62.3062 0.582958 -3.42372 0
M  V30 596 C 61.2602 -0.202571 -4.2752 0
M  V30 597 C 60.5862 0.760179 -5.29269 0
M  V30 598 C 61.8862 -1.40998 -5.02908 0
M  V30 599 H 63.5802 -1.07247 -2.79532 0
M  V30 600 H 61.1262 -0.517163 -1.34393 0
M  V30 601 H 63.0792 0.987972 -4.09655 0
M  V30 602 H 61.8032 1.43133 -2.93565 0
M  V30 603 H 60.4622 -0.588936 -3.61838 0
M  V30 604 H 60.1102 1.60447 -4.76724 0
M  V30 605 H 59.8102 0.238809 -5.87115 0
M  V30 606 H 61.3342 1.16308 -5.9942 0
M  V30 607 H 62.7482 -1.07905 -5.63054 0
M  V30 608 H 61.1452 -1.86689 -5.70322 0
M  V30 609 H 62.2152 -2.1889 -4.32684 0
M  V30 610 N 63.5583 1.46682 -0.576371 0
M  V30 611 C 64.9743 1.57822 -0.237562 0
M  V30 612 C 65.1743 1.57237 1.26011 0
M  V30 613 O 64.2303 1.48596 2.04146 0
M  V30 614 C 65.5433 2.87499 -0.881168 0
M  V30 615 C 67.0913 3.01119 -0.85417 0
M  V30 616 C 67.5663 4.33524 -1.4772 0
M  V30 617 N 69.0573 4.40207 -1.44125 0
M  V30 618 C 69.7923 5.4126 -1.89276 0
M  V30 619 N 69.2883 6.49021 -2.42371 0
M  V30 620 N 71.0813 5.32422 -1.80231 0
M  V30 621 H 63.2323 1.45306 -1.54919 0
M  V30 622 H 65.4953 0.692733 -0.647167 0
M  V30 623 H 65.2013 2.9372 -1.93447 0
M  V30 624 H 65.0753 3.75224 -0.385592 0
M  V30 625 H 67.4623 2.94485 0.190491 0
M  V30 626 H 67.5433 2.14887 -1.3877 0
M  V30 627 H 67.1873 4.40916 -2.52103 0
M  V30 628 H 67.1173 5.1852 -0.918947 0
M  V30 629 H 69.6083 3.62931 -1.05307 0
M  V30 630 H 69.9213 7.2233 -2.74698 0
M  V30 631 H 68.2663 6.49858 -2.46393 0
M  V30 632 H 71.4573 4.47137 -1.38514 0
M  V30 633 H 71.6303 6.11034 -2.15735 0
M  V30 634 N 65.0364 0.313813 1.54444 0
M  V30 635 C 65.9684 -0.590425 2.21465 0
M  V30 636 C 66.9814 -1.08753 1.21147 0
M  V30 637 O 68.1704 -1.00278 1.4767 0
M  V30 638 C 65.2704 -1.82179 2.85769 0
M  V30 639 C 64.4434 -1.46502 4.12136 0
M  V30 640 C 63.5024 -2.55288 4.60124 0
M  V30 641 O 62.5284 -2.19842 5.25032 0
M  V30 642 N 63.7304 -3.86053 4.33525 0
M  V30 643 H 66.4954 -0.0166033 2.99695 0
M  V30 644 H 64.0564 0.136578 1.61323 0
M  V30 645 H 66.0484 -2.54328 3.14801 0
M  V30 646 H 64.6184 -2.30369 2.11303 0
M  V30 647 H 63.8384 -0.575595 3.89975 0
M  V30 648 H 65.1264 -1.20221 4.94393 0
M  V30 649 H 64.5244 -4.17654 3.81552 0
M  V30 650 H 63.0814 -4.54461 4.67235 0
M  V30 651 N 66.5145 -1.57545 0.0417849 0
M  V30 652 C 67.9255 -1.80011 -0.495259 0
M  V30 653 C 68.2765 -0.953199 -1.71489 0
M  V30 654 O 67.4015 -0.167138 -2.15754 0
M  V30 655 C 67.9965 -3.26482 -0.905265 0
M  V30 656 C 66.5555 -3.499 -1.38734 0
M  V30 657 C 65.7025 -2.74979 -0.358056 0
M  V30 658 H 68.6535 -1.56425 0.267736 0
M  V30 659 H 68.6745 -3.36887 -1.76882 0
M  V30 660 H 68.1865 -3.88096 -0.017401 0
M  V30 661 H 66.2875 -2.93553 -2.29471 0
M  V30 662 H 66.4005 -4.58615 -1.38598 0
M  V30 663 H 64.7645 -2.40834 -0.828912 0
M  V30 664 H 65.5475 -3.39315 0.521561 0
M  V30 665 N 67.9926 0.231505 -1.5589 0
M  V30 666 C 68.9246 1.31006 -1.8807 0
M  V30 667 C 69.9376 1.43539 -0.768145 0
M  V30 668 O 71.1266 1.44614 -1.04638 0
M  V30 669 C 68.2266 2.68688 -2.06543 0
M  V30 670 C 67.3996 2.78228 -3.37502 0
M  V30 671 C 66.4586 3.96857 -3.4553 0
M  V30 672 O 65.4846 3.85662 -4.18633 0
M  V30 673 N 66.6866 5.1072 -2.75944 0
M  V30 674 H 69.4516 1.03731 -2.81176 0
M  V30 675 H 67.0126 0.421573 -1.56315 0
M  V30 676 H 69.0046 3.46412 -2.09239 0
M  V30 677 H 67.5746 2.88605 -1.20109 0
M  V30 678 H 66.7946 1.87059 -3.46991 0
M  V30 679 H 68.0826 2.81564 -4.23791 0
M  V30 680 H 67.4806 5.2271 -2.16311 0
M  V30 681 H 66.0376 5.86523 -2.84314 0
M  V30 682 N 69.4707 1.49531 0.497807 0
M  V30 683 C 70.7177 1.59179 1.25173 0
M  V30 684 C 71.0457 0.279932 1.92475 0
M  V30 685 O 70.3007 -0.732383 1.81479 0
M  V30 686 C 70.5997 2.70252 2.33878 0
M  V30 687 C 70.2657 4.11644 1.84012 0
M  V30 688 C 68.9277 4.50121 1.70132 0
M  V30 689 C 71.2797 5.00121 1.46725 0
M  V30 690 C 68.6077 5.74845 1.17348 0
M  V30 691 C 70.9597 6.25366 0.95392 0
M  V30 692 C 69.6237 6.6267 0.801538 0
M  V30 693 H 68.8937 0.582478 0.45804 0
M  V30 694 H 71.5407 1.83373 0.551948 0
M  V30 695 H 69.8457 2.40041 3.09657 0
M  V30 696 H 71.5427 2.74925 2.9192 0
M  V30 697 H 68.1327 3.81274 1.95775 0
M  V30 698 H 72.3167 4.71048 1.56294 0
M  V30 699 H 67.5727 6.02444 1.04264 0
M  V30 700 H 71.7467 6.93301 0.656225 0
M  V30 701 H 69.3737 7.59197 0.390351 0
M  V30 702 N 70.9488 -0.749086 1.3866 0
M  V30 703 C 72.3648 -1.05276 1.19955 0
M  V30 704 C 72.5648 -2.01435 0.05134 0
M  V30 705 O 71.6208 -2.45232 -0.60147 0
M  V30 706 C 72.9338 -1.62853 2.52783 0
M  V30 707 C 74.4818 -1.75002 2.59506 0
M  V30 708 C 74.9568 -2.35991 3.92521 0
M  V30 709 N 76.4478 -2.43416 3.94085 0
M  V30 710 C 77.1828 -2.91511 4.9377 0
M  V30 711 N 76.6788 -3.39608 6.03853 0
M  V30 712 N 78.4718 -2.90592 4.81157 0
M  V30 713 H 70.6228 -0.111066 2.12109 0
M  V30 714 H 72.8858 -0.111901 0.941373 0
M  V30 715 H 72.5918 -0.99664 3.37283 0
M  V30 716 H 72.4658 -2.61854 2.715 0
M  V30 717 H 74.8528 -2.37317 1.75398 0
M  V30 718 H 74.9338 -0.74693 2.44652 0
M  V30 719 H 74.5778 -1.74308 4.77053 0
M  V30 720 H 74.5078 -3.3695 4.04688 0
M  V30 721 H 76.9988 -2.09405 3.14576 0
M  V30 722 H 77.3118 -3.74775 6.75843 0
M  V30 723 H 75.6568 -3.37653 6.07466 0
M  V30 724 H 78.8478 -2.52332 3.94267 0
M  V30 725 H 79.0208 -3.27762 5.58996 0
M  V30 726 N 72.4269 -1.23603 -0.977757 0
M  V30 727 C 73.3569 -1.04401 -2.0886 0
M  V30 728 C 74.3379 0.0399052 -1.70053 0
M  V30 729 O 75.5229 -0.125246 -1.93796 0
M  V30 730 C 72.6529 -0.637269 -3.41403 0
M  V30 731 C 71.6069 -1.66883 -3.94124 0
M  V30 732 C 70.9329 -1.11745 -5.22893 0
M  V30 733 C 72.2329 -3.06247 -4.23096 0
M  V30 734 H 73.9269 -1.97316 -2.25182 0
M  V30 735 H 71.4729 -0.950096 -1.08209 0
M  V30 736 H 73.4259 -0.48998 -4.18542 0
M  V30 737 H 72.1499 0.327557 -3.24953 0
M  V30 738 H 70.8089 -1.80416 -3.19133 0
M  V30 739 H 70.4569 -0.143527 -5.02795 0
M  V30 740 H 70.1569 -1.80672 -5.59134 0
M  V30 741 H 71.6809 -0.982067 -6.02651 0
M  V30 742 H 73.0949 -2.96001 -4.90975 0
M  V30 743 H 71.4919 -3.72436 -4.70544 0
M  V30 744 H 72.5619 -3.55041 -3.30263 0
M  V30 745 N 73.905 1.17692 -1.04816 0
M  V30 746 C 74.835 2.23777 -0.666791 0
M  V30 747 C 75.816 1.66796 0.33361 0
M  V30 748 O 77.001 1.93039 0.212042 0
M  V30 749 C 74.131 3.47281 -0.0367933 0
M  V30 750 C 73.085 4.17059 -0.961546 0
M  V30 751 C 72.411 5.34342 -0.195626 0
M  V30 752 C 73.711 4.69713 -2.28402 0
M  V30 753 H 75.405 2.55933 -1.55367 0
M  V30 754 H 72.951 1.23019 -0.748484 0
M  V30 755 H 74.904 4.20706 0.241775 0
M  V30 756 H 73.628 3.14381 0.885004 0
M  V30 757 H 72.287 3.45541 -1.22462 0
M  V30 758 H 71.935 4.97692 0.728816 0
M  V30 759 H 71.635 5.81966 -0.811775 0
M  V30 760 H 73.159 6.10553 0.0757473 0
M  V30 761 H 74.573 5.34794 -2.06563 0
M  V30 762 H 72.97 5.279 -2.8538 0
M  V30 763 H 74.04 3.86726 -2.92525 0
M  V30 764 N 75.3831 0.828654 1.34056 0
M  V30 765 C 76.3331 0.226828 2.26869 0
M  V30 766 C 77.3171 -0.612243 1.48796 0
M  V30 767 O 78.5091 -0.465884 1.70759 0
M  V30 768 C 75.6381 -0.605654 3.37915 0
M  V30 769 C 74.7241 0.244361 4.23395 0
M  V30 770 N 75.1151 1.31815 4.88322 0
M  V30 771 C 73.4131 0.0296616 4.4599 0
M  V30 772 C 74.1141 1.83895 5.51867 0
M  V30 773 N 73.0901 1.14196 5.3147 0
M  V30 774 H 76.8921 1.04811 2.74576 0
M  V30 775 H 74.4061 0.67205 1.47842 0
M  V30 776 H 76.4031 -1.05302 4.03382 0
M  V30 777 H 75.0631 -1.42504 2.91758 0
M  V30 778 H 76.0741 1.70099 4.8917 0
M  V30 779 H 72.7511 -0.757097 4.10578 0
M  V30 780 H 74.1411 2.7376 6.136 0
M  V30 781 N 76.8612 -1.46375 0.584142 0
M  V30 782 C 78.2722 -1.86031 0.157959 0
M  V30 783 C 78.6232 -1.48753 -1.27933 0
M  V30 784 O 77.7482 -0.903098 -1.96655 0
M  V30 785 C 78.3432 -3.37642 0.279892 0
M  V30 786 C 76.9022 -3.76289 -0.09143 0
M  V30 787 C 76.0492 -2.7039 0.615178 0
M  V30 788 H 79.0002 -1.37509 0.792274 0
M  V30 789 H 79.0212 -3.77275 -0.494364 0
M  V30 790 H 78.5332 -3.64742 1.32607 0
M  V30 791 H 76.6342 -3.54806 -1.13769 0
M  V30 792 H 76.7472 -4.78246 0.285886 0
M  V30 793 H 75.1112 -2.5464 0.0552833 0
M  V30 794 H 75.8942 -3.0033 1.66303 0
M  V30 795 N 78.3393 -0.321999 -1.54275 0
M  V30 796 C 79.2893 0.560185 -2.21011 0
M  V30 797 C 80.2733 1.08283 -1.19011 0
M  V30 798 O 81.4653 1.02011 -1.44647 0
M  V30 799 C 78.5943 1.72137 -2.97025 0
M  V30 800 C 77.6803 1.21369 -4.06363 0
M  V30 801 N 78.0713 0.425566 -5.04007 0
M  V30 802 C 76.3693 1.49255 -4.20284 0
M  V30 803 C 77.0703 0.152601 -5.815 0
M  V30 804 N 76.0463 0.738294 -5.38563 0
M  V30 805 H 79.8483 -0.049265 -2.93859 0
M  V30 806 H 77.3623 -0.127779 -1.61897 0
M  V30 807 H 79.3593 2.36512 -3.43319 0
M  V30 808 H 78.0193 2.33431 -2.25699 0
M  V30 809 H 79.0303 0.068551 -5.17855 0
M  V30 810 H 75.7073 2.11145 -3.60172 0
M  V30 811 H 77.0973 -0.481764 -6.70171 0
M  V30 812 N 79.8174 1.5752 -0.0501392 0
M  V30 813 C 80.7674 2.07981 0.934231 0
M  V30 814 C 81.7514 0.984745 1.27246 0
M  V30 815 O 82.9434 1.24809 1.25506 0
M  V30 816 C 80.0724 2.62751 2.20945 0
M  V30 817 C 79.1584 3.79225 1.89865 0
M  V30 818 N 79.5494 4.89036 1.29142 0
M  V30 819 C 77.8474 3.88111 2.19741 0
M  V30 820 C 78.5484 5.70084 1.15669 0
M  V30 821 N 77.5244 5.17659 1.65923 0
M  V30 822 H 81.3264 2.90277 0.460053 0
M  V30 823 H 78.8404 1.61665 0.15434 0
M  V30 824 H 80.8374 2.97205 2.9236 0
M  V30 825 H 79.4974 1.81894 2.6897 0
M  V30 826 H 80.5084 5.08854 0.963756 0
M  V30 827 H 77.1854 3.18194 2.70293 0
M  V30 828 H 78.5754 6.68395 0.685356 0
M  V30 829 N 81.2955 -0.223234 1.56011 0
M  V30 830 C 82.2455 -1.28008 1.88674 0
M  V30 831 C 83.2295 -1.42369 0.749663 0
M  V30 832 O 84.4215 -1.45212 1.01205 0
M  V30 833 C 81.5505 -2.63084 2.20548 0
M  V30 834 C 80.6365 -2.52632 3.40643 0
M  V30 835 N 81.0275 -2.11829 4.59306 0
M  V30 836 C 79.3255 -2.83594 3.44224 0
M  V30 837 C 80.0265 -2.12587 5.41463 0
M  V30 838 N 79.0025 -2.5301 4.81131 0
M  V30 839 H 82.8045 -0.955487 2.77935 0
M  V30 840 H 80.3185 -0.431801 1.56554 0
M  V30 841 H 82.3155 -3.39385 2.42122 0
M  V30 842 H 80.9755 -2.96391 1.32599 0
M  V30 843 H 81.9865 -1.82988 4.84496 0
M  V30 844 H 78.6635 -3.21284 2.66614 0
M  V30 845 H 80.0535 -1.83179 6.46448 0
M  V30 846 N 82.7736 -1.49793 -0.48987 0
M  V30 847 C 83.7036 -1.70201 -1.59856 0
M  V30 848 C 84.6846 -0.55076 -1.60937 0
M  V30 849 O 85.8696 -0.787841 -1.77501 0
M  V30 850 C 82.9996 -1.77882 -2.98287 0
M  V30 851 C 81.9536 -2.92907 -3.12073 0
M  V30 852 C 81.2796 -2.85712 -4.51965 0
M  V30 853 C 82.5796 -4.3369 -2.91051 0
M  V30 854 H 84.2736 -2.63025 -1.43032 0
M  V30 855 H 81.8196 -1.26574 -0.686664 0
M  V30 856 H 83.7726 -1.90744 -3.75759 0
M  V30 857 H 82.4966 -0.816653 -3.16225 0
M  V30 858 H 81.1556 -2.79665 -2.37029 0
M  V30 859 H 80.8036 -1.8738 -4.66795 0
M  V30 860 H 80.5036 -3.62921 -4.62128 0
M  V30 861 H 82.0276 -3.00598 -5.31482 0
M  V30 862 H 83.4416 -4.47555 -3.58284 0
M  V30 863 H 81.8386 -5.12205 -3.12675 0
M  V30 864 H 82.9086 -4.47362 -1.87071 0
M  V30 865 N 84.2517 0.741722 -1.39055 0
M  V30 866 C 85.6627 1.31966 -1.32068 0
M  V30 867 C 86.0137 1.96192 0.0180797 0
M  V30 868 O 85.1387 1.95861 0.920196 0
M  V30 869 C 85.7337 2.39954 -2.39181 0
M  V30 870 C 84.2927 2.93438 -2.35735 0
M  V30 871 C 83.4397 1.66936 -2.21422 0
M  V30 872 H 86.3907 0.539721 -1.4924 0
M  V30 873 H 86.4117 3.20182 -2.05581 0
M  V30 874 H 85.9237 1.9318 -3.36605 0
M  V30 875 H 84.0247 3.4451 -1.41929 0
M  V30 876 H 84.1377 3.4701 -3.30335 0
M  V30 877 H 82.5017 1.91016 -1.68478 0
M  V30 878 H 83.2847 1.22224 -3.20806 0
M  V30 879 N 85.7298 1.2412 0.971189 0
M  V30 880 C 87.1408 1.07236 1.52831 0
M  V30 881 C 87.4918 -0.357352 1.92918 0
M  V30 882 O 86.6168 -1.24528 1.76979 0
M  V30 883 C 87.2118 1.94043 2.77728 0
M  V30 884 C 85.7708 1.81394 3.29808 0
M  V30 885 C 84.9178 1.89189 2.02738 0
M  V30 886 H 87.8688 1.37648 0.789864 0
M  V30 887 H 87.8898 1.47066 3.5093 0
M  V30 888 H 87.4018 2.98093 2.4852 0
M  V30 889 H 85.5028 0.801634 3.63874 0
M  V30 890 H 85.6158 2.65294 3.98944 0
M  V30 891 H 83.9798 1.32877 2.17292 0
M  V30 892 H 84.7628 2.94812 1.759 0
M  V30 893 N 87.2079 -1.17134 1.05439 0
M  V30 894 C 88.6189 -1.69084 0.791676 0
M  V30 895 C 88.9699 -1.83822 -0.685839 0
M  V30 896 O 88.0949 -1.52757 -1.53278 0
M  V30 897 C 88.6899 -3.07119 1.4305 0
M  V30 898 C 87.2489 -3.56225 1.21577 0
M  V30 899 C 86.3959 -2.32421 1.51247 0
M  V30 900 H 89.3469 -1.01617 1.219 0
M  V30 901 H 89.3679 -3.71087 0.84112 0
M  V30 902 H 88.8799 -2.9636 2.50584 0
M  V30 903 H 86.9809 -3.72257 0.159787 0
M  V30 904 H 87.0939 -4.38837 1.92246 0
M  V30 905 H 85.4579 -2.3701 0.932653 0
M  V30 906 H 86.2409 -2.24268 2.5992 0
M  V30 907 N 88.686 -0.835752 -1.33615 0
M  V30 908 C 90.097 -0.487099 -1.80234 0
M  V30 909 C 90.448 0.993627 -1.69179 0
M  V30 910 O 89.573 1.77403 -1.23924 0
M  V30 911 C 90.168 -0.877385 -3.27242 0
M  V30 912 C 88.727 -0.580915 -3.7189 0
M  V30 913 C 87.874 -1.0874 -2.5509 0
M  V30 914 H 90.825 -1.02474 -1.2118 0
M  V30 915 H 90.846 -0.186195 -3.80044 0
M  V30 916 H 90.358 -1.95512 -3.35256 0
M  V30 917 H 88.459 0.486881 -3.69405 0
M  V30 918 H 88.572 -1.13396 -4.65487 0
M  V30 919 H 86.936 -0.508392 -2.49575 0
M  V30 920 H 87.719 -2.17184 -2.65868 0
M  V30 921 N 90.1641 1.46063 -0.591896 0
M  V30 922 C 91.5751 1.85944 -0.167822 0
M  V30 923 C 91.9261 1.49429 1.27143 0
M  V30 924 O 91.0511 0.913515 1.96173 0
M  V30 925 C 91.6461 3.37489 -0.297794 0
M  V30 926 C 90.2051 3.76332 0.0714732 0
M  V30 927 C 89.3521 2.7006 -0.629509 0
M  V30 928 H 92.3031 1.37087 -0.799555 0
M  V30 929 H 92.3241 3.77532 0.474349 0
M  V30 930 H 91.8361 3.64034 -1.3454 0
M  V30 931 H 89.9371 3.55405 1.11886 0
M  V30 932 H 90.0501 4.78088 -0.311245 0
M  V30 933 H 88.4141 2.54607 -0.0687867 0
M  V30 934 H 89.1971 2.99444 -1.67894 0
M  V30 935 N 91.6422 0.330177 1.54103 0
M  V30 936 C 93.0532 -0.15652 1.86043 0
M  V30 937 C 93.4042 -1.51086 1.2517 0
M  V30 938 O 92.5292 -2.09023 0.560217 0
M  V30 939 C 93.1242 -0.290784 3.3755 0
M  V30 940 C 91.6832 -0.721705 3.69416 0
M  V30 941 C 90.8302 0.152622 2.7688 0
M  V30 942 H 93.7812 0.550237 1.48856 0
M  V30 943 H 93.8022 -1.12058 3.63625 0
M  V30 944 H 93.3142 0.695068 3.81825 0
M  V30 945 H 91.4152 -1.71706 3.30678 0
M  V30 946 H 91.5282 -0.520869 4.7626 0
M  V30 947 H 89.8922 -0.372894 2.51956 0
M  V30 948 H 90.6752 1.13536 3.23982 0
M  V30 949 N 93.1203 -1.57491 0.0584922 0
M  V30 950 C 94.3453 -1.97711 -0.62652 0
M  V30 951 C 94.7703 -0.936132 -1.63151 0
M  V30 952 O 94.1283 0.099811 -1.81025 0
M  V30 953 C 94.1763 -3.36989 -1.28338 0
M  V30 954 O 93.2803 -3.35433 -2.39913 0
M  V30 955 H 92.6213 -0.643868 -0.162266 0
M  V30 956 H 95.1513 -2.04193 0.129064 0
M  V30 957 H 95.1613 -3.73879 -1.63335 0
M  V30 958 H 93.8363 -4.12289 -0.546889 0
M  V30 959 H 92.4133 -3.10298 -2.06809 0
M  V30 960 N 94.5984 0.214957 -1.56127 0
M  V30 961 C 96.0094 0.781386 -1.69562 0
M  V30 962 C 96.3604 1.84707 -0.66165 0
M  V30 963 O 95.4854 2.156 0.185927 0
M  V30 964 C 96.0804 1.42411 -3.07416 0
M  V30 965 C 94.6394 1.93786 -3.22683 0
M  V30 966 C 93.7864 0.800438 -2.65496 0
M  V30 967 H 96.7374 -0.00980633 -1.58697 0
M  V30 968 H 96.7584 2.29309 -3.0364 0
M  V30 969 H 96.2704 0.64826 -3.82648 0
M  V30 970 H 94.3714 2.74152 -2.52332 0
M  V30 971 H 94.4844 2.1133 -4.29973 0
M  V30 972 H 92.8484 1.2095 -2.2415 0
M  V30 973 H 93.6314 0.0371471 -3.4328 0
M  V30 974 N 96.0765 1.50051 0.48192 0
M  V30 975 C 97.0085 1.64263 1.59844 0
M  V30 976 C 98.0215 0.52451 1.54119 0
M  V30 977 O 99.2105 0.797293 1.59704 0
M  V30 978 C 96.3105 1.60102 2.98698 0
M  V30 979 C 95.4835 2.87767 3.29407 0
M  V30 980 C 94.5425 2.76397 4.47762 0
M  V30 981 O 93.5685 3.50348 4.48603 0
M  V30 982 N 94.7705 1.89222 5.48794 0
M  V30 983 H 97.5355 2.60566 1.48073 0
M  V30 984 H 95.0965 1.47379 0.670149 0
M  V30 985 H 97.0885 1.50123 3.75826 0
M  V30 986 H 95.6585 0.715798 3.04294 0
M  V30 987 H 94.8785 3.11954 2.40994 0
M  V30 988 H 96.1665 3.72365 3.4673 0
M  V30 989 H 95.5645 1.28434 5.50928 0
M  V30 990 H 94.1215 1.85154 6.24949 0
M  V30 991 N 97.5546 -0.734337 1.39446 0
M  V30 992 C 98.9656 -1.31264 1.32766 0
M  V30 993 C 99.3166 -1.96198 -0.00767497 0
M  V30 994 O 98.4416 -1.96346 -0.909796 0
M  V30 995 C 99.0366 -2.38682 2.4045 0
M  V30 996 C 97.5956 -2.92184 2.37288 0
M  V30 997 C 96.7426 -1.6576 2.22304 0
M  V30 998 H 99.6936 -0.531799 1.49525 0
M  V30 999 H 99.7146 -3.19087 2.07276 0
M  V30 1000 H 99.2266 -1.91392 3.37625 0
M  V30 1001 H 97.3276 -3.43752 1.43754 0
M  V30 1002 H 97.4406 -3.45253 3.3217 0
M  V30 1003 H 95.8046 -1.9012 1.69489 0
M  V30 1004 H 96.5876 -1.20521 3.21449 0
M  V30 1005 N 99.0327 -1.24633 -0.964593 0
M  V30 1006 C 99.9647 -0.999302 -2.06268 0
M  V30 1007 C 100.978 0.0323226 -1.62768 0
M  V30 1008 O 102.167 -0.205079 -1.77318 0
M  V30 1009 C 99.2667 -0.486816 -3.35385 0
M  V30 1010 C 98.4397 -1.5823 -4.07777 0
M  V30 1011 C 97.4987 -1.07191 -5.15166 0
M  V30 1012 O 96.5247 -1.76426 -5.41168 0
M  V30 1013 N 97.7267 0.0920373 -5.80427 0
M  V30 1014 H 100.492 -1.94477 -2.28033 0
M  V30 1015 H 98.0527 -1.15704 -1.13244 0
M  V30 1016 H 100.045 -0.130066 -4.04491 0
M  V30 1017 H 98.6147 0.364459 -3.10468 0
M  V30 1018 H 97.8347 -2.11109 -3.32906 0
M  V30 1019 H 99.1227 -2.31854 -4.52903 0
M  V30 1020 H 98.5207 0.670784 -5.61709 0
M  V30 1021 H 97.0777 0.389905 -6.50633 0
M  V30 1022 N 100.511 1.16574 -1.06058 0
M  V30 1023 C 101.922 1.68662 -0.800632 0
M  V30 1024 C 102.273 1.84184 0.67608 0
M  V30 1025 O 101.398 1.53568 1.52466 0
M  V30 1026 C 101.993 3.06356 -1.44676 0
M  V30 1027 C 100.552 3.55575 -1.23465 0
M  V30 1028 C 99.6988 2.31616 -1.52477 0
M  V30 1029 H 102.65 1.00969 -1.22438 0
M  V30 1030 H 102.671 3.70636 -0.860788 0
M  V30 1031 H 102.183 2.95027 -2.52152 0
M  V30 1032 H 100.284 3.72167 -0.179527 0
M  V30 1033 H 100.397 4.37812 -1.94571 0
M  V30 1034 H 98.7608 2.36512 -0.945209 0
M  V30 1035 H 99.5438 2.22887 -2.61106 0
M  V30 1036 N 101.989 0.842826 1.3317 0
M  V30 1037 C 102.921 0.236245 2.27979 0
M  V30 1038 C 103.934 -0.585282 1.51915 0
M  V30 1039 O 105.123 -0.411705 1.73687 0
M  V30 1040 C 102.223 -0.685717 3.3189 0
M  V30 1041 C 101.396 0.0973448 4.37292 0
M  V30 1042 C 100.455 -0.748565 5.20848 0
M  V30 1043 O 99.4809 -0.186339 5.68895 0
M  V30 1044 N 100.683 -2.06527 5.42519 0
M  V30 1045 H 103.448 1.05088 2.80672 0
M  V30 1046 H 101.009 0.701667 1.45905 0
M  V30 1047 H 103.001 -1.25669 3.84694 0
M  V30 1048 H 101.571 -1.40105 2.79445 0
M  V30 1049 H 100.791 0.849706 3.84933 0
M  V30 1050 H 102.079 0.635643 5.04814 0
M  V30 1051 H 101.477 -2.54554 5.05192 0
M  V30 1052 H 100.034 -2.58464 5.98364 0
M  V30 1053 N 103.467 -1.45747 0.599634 0
M  V30 1054 C 104.707 -2.04181 0.0946309 0
M  V30 1055 C 105.071 -1.45895 -1.24815 0
M  V30 1056 O 106.272 -1.95633 -1.8434 0
M  V30 1057 C 104.543 -3.57368 0.047581 0
M  V30 1058 S 106.102 -4.36997 -0.397387 0
M  V30 1059 H 102.92 -0.70953 0.0456954 0
M  V30 1060 H 105.522 -1.78564 0.795946 0
M  V30 1061 H 104.226 -3.97303 1.02852 0
M  V30 1062 H 103.757 -3.87549 -0.675977 0
M  V30 1063 H 105.772 -4.68012 -1.64862 0
M  V30 1064 N 104.945 -0.338344 -1.53925 0
M  V30 1065 C 106.356 0.146651 -1.86123 0
M  V30 1066 C 106.707 1.5042 -1.2597 0
M  V30 1067 O 105.832 2.08723 -0.571294 0
M  V30 1068 C 106.427 0.272879 -3.37699 0
M  V30 1069 C 104.986 0.702103 -3.69794 0
M  V30 1070 C 104.133 -0.167304 -2.76795 0
M  V30 1071 H 107.084 -0.558123 -1.48562 0
M  V30 1072 H 107.105 1.10128 -3.64214 0
M  V30 1073 H 106.617 -0.715307 -3.81451 0
M  V30 1074 H 104.718 1.6995 -3.31584 0
M  V30 1075 H 104.831 0.495604 -4.7653 0
M  V30 1076 H 103.195 0.359527 -2.5215 0
M  V30 1077 H 103.978 -1.15253 -3.23375 0
M  V30 1078 N 106.423 1.57458 -0.0668435 0
M  V30 1079 C 107.353 2.15468 0.899764 0
M  V30 1080 C 108.334 1.08042 1.31381 0
M  V30 1081 O 109.519 1.36054 1.38574 0
M  V30 1082 C 106.649 2.71232 2.16911 0
M  V30 1083 C 105.603 3.83781 1.89463 0
M  V30 1084 C 104.929 4.26127 3.22986 0
M  V30 1085 C 106.229 5.08238 1.20381 0
M  V30 1086 H 107.923 2.96488 0.416529 0
M  V30 1087 H 105.469 1.4262 0.198908 0
M  V30 1088 H 107.422 3.10458 2.84945 0
M  V30 1089 H 106.146 1.87426 2.67468 0
M  V30 1090 H 104.805 3.45051 1.23836 0
M  V30 1091 H 104.453 3.39249 3.71374 0
M  V30 1092 H 104.153 5.01993 3.05413 0
M  V30 1093 H 105.677 4.67966 3.92225 0
M  V30 1094 H 107.091 5.44811 1.78475 0
M  V30 1095 H 105.488 5.89349 1.13083 0
M  V30 1096 H 106.558 4.84558 0.182153 0
M  V30 1097 N 107.901 -0.206675 1.56239 0
M  V30 1098 C 108.833 -1.27997 1.9013 0
M  V30 1099 C 109.846 -1.42299 0.790883 0
M  V30 1100 O 111.035 -1.42931 1.06925 0
M  V30 1101 C 108.135 -2.65368 2.10792 0
M  V30 1102 C 107.308 -2.72824 3.41886 0
M  V30 1103 C 106.367 -3.9131 3.51799 0
M  V30 1104 O 105.393 -3.78953 4.24716 0
M  V30 1105 N 106.595 -5.06265 2.84035 0
M  V30 1106 H 109.36 -0.992444 2.82791 0
M  V30 1107 H 106.921 -0.396652 1.56966 0
M  V30 1108 H 108.913 -3.43039 2.14724 0
M  V30 1109 H 107.483 -2.86657 1.24685 0
M  V30 1110 H 106.703 -1.81515 3.49923 0
M  V30 1111 H 107.991 -2.74786 4.28217 0
M  V30 1112 H 107.389 -5.19203 2.246 0
M  V30 1113 H 105.946 -5.81925 2.93609 0
M  V30 1114 N 109.379 -1.50304 -0.473955 0
M  V30 1115 C 110.79 -1.54042 -1.0549 0
M  V30 1116 C 111.141 -0.342248 -1.93192 0
M  V30 1117 O 110.266 0.545157 -2.09421 0
M  V30 1118 C 110.861 -2.79152 -1.91989 0
M  V30 1119 C 109.42 -2.8558 -2.45196 0
M  V30 1120 C 108.567 -2.48295 -1.2347 0
M  V30 1121 H 111.518 -1.5661 -0.256693 0
M  V30 1122 H 111.539 -2.60845 -2.7702 0
M  V30 1123 H 111.051 -3.66339 -1.28131 0
M  V30 1124 H 109.152 -2.02738 -3.12615 0
M  V30 1125 H 109.265 -3.88403 -2.80499 0
M  V30 1126 H 107.629 -2.00669 -1.56856 0
M  V30 1127 H 108.412 -3.37787 -0.612789 0
M  V30 1128 N 110.857 0.726932 -1.39834 0
M  V30 1129 C 112.268 1.30558 -1.3346 0
M  V30 1130 C 112.619 1.962 -0.00273003 0
M  V30 1131 O 111.744 1.96826 0.899371 0
M  V30 1132 C 112.339 2.37404 -2.41713 0
M  V30 1133 C 110.898 2.90921 -2.38835 0
M  V30 1134 C 110.045 1.64578 -2.2318 0
M  V30 1135 H 112.996 0.523862 -1.49804 0
M  V30 1136 H 113.017 3.17984 -2.08966 0
M  V30 1137 H 112.529 1.89599 -3.38635 0
M  V30 1138 H 110.63 3.42985 -1.45575 0
M  V30 1139 H 110.743 3.43487 -3.33997 0
M  V30 1140 H 109.107 1.89219 -1.70494 0
M  V30 1141 H 109.89 1.18814 -3.22084 0
M  V30 1142 N 112.336 1.25143 0.95797 0
M  V30 1143 C 113.747 1.08851 1.51685 0
M  V30 1144 C 114.098 -0.33687 1.93286 0
M  V30 1145 O 113.223 -1.22644 1.7829 0
M  V30 1146 C 113.818 1.96978 2.75654 0
M  V30 1147 C 112.377 1.84881 3.27866 0
M  V30 1148 C 111.524 1.91329 2.0072 0
M  V30 1149 H 114.475 1.38478 0.77522 0
M  V30 1150 H 114.496 1.5078 3.4935 0
M  V30 1151 H 114.008 3.00712 2.45345 0
M  V30 1152 H 112.109 0.840182 3.63004 0
M  V30 1153 H 112.222 2.6951 3.96107 0
M  V30 1154 H 110.586 1.35174 2.15871 0
M  V30 1155 H 111.369 2.96661 1.72764 0
M  V30 1156 N 113.814 -1.1601 1.06675 0
M  V30 1157 C 115.225 -1.68235 0.809565 0
M  V30 1158 C 115.576 -1.8454 -0.666303 0
M  V30 1159 O 114.701 -1.54374 -1.5165 0
M  V30 1160 C 115.296 -3.05585 1.46299 0
M  V30 1161 C 113.855 -3.54915 1.25349 0
M  V30 1162 C 113.002 -2.30804 1.53703 0
M  V30 1163 H 115.953 -1.00318 1.22971 0
M  V30 1164 H 115.974 -3.70174 0.880431 0
M  V30 1165 H 115.486 -2.93686 2.53713 0
M  V30 1166 H 113.587 -3.72067 0.199261 0
M  V30 1167 H 113.7 -4.36774 1.9689 0
M  V30 1168 H 112.064 -2.36007 0.957739 0
M  V30 1169 H 112.847 -2.21499 2.62284 0
M  V30 1170 N 115.292 -0.849877 -1.32721 0
M  V30 1171 C 116.703 -0.506188 -1.79707 0
M  V30 1172 C 117.054 0.975627 -1.70223 0
M  V30 1173 O 116.179 1.76078 -1.25799 0
M  V30 1174 C 116.774 -0.912044 -3.26293 0
M  V30 1175 C 115.333 -0.620326 -3.71253 0
M  V30 1176 C 114.48 -1.11439 -2.53922 0
M  V30 1177 H 117.431 -1.03754 -1.20087 0
M  V30 1178 H 117.452 -0.226493 -3.79825 0
M  V30 1179 H 116.964 -1.99057 -3.33164 0
M  V30 1180 H 115.065 0.447674 -3.69901 0
M  V30 1181 H 115.178 -1.18327 -4.64258 0
M  V30 1182 H 113.542 -0.534834 -2.49021 0
M  V30 1183 H 114.325 -2.19992 -2.6355 0
M  V30 1184 N 116.77 1.45427 -0.607355 0
M  V30 1185 C 118.181 1.85756 -0.187535 0
M  V30 1186 C 118.532 1.5077 1.25551 0
M  V30 1187 O 117.657 0.93427 1.95193 0
M  V30 1188 C 118.252 3.37154 -0.333572 0
M  V30 1189 C 116.811 3.76387 0.0315542 0
M  V30 1190 C 115.958 2.69377 -0.658117 0
M  V30 1191 H 118.909 1.36231 -0.81405 0
M  V30 1192 H 118.93 3.78014 0.43428 0
M  V30 1193 H 118.442 3.62586 -1.38393 0
M  V30 1194 H 116.543 3.56571 1.0811 0
M  V30 1195 H 116.656 4.77731 -0.361935 0
M  V30 1196 H 115.02 2.5452 -0.0957873 0
M  V30 1197 H 115.803 2.97646 -1.7106 0
M  V30 1198 N 118.248 0.346503 1.53744 0
M  V30 1199 C 119.178 -0.501193 2.28058 0
M  V30 1200 C 120.159 -1.10014 1.29734 0
M  V30 1201 O 121.344 -1.12097 1.58581 0
M  V30 1202 C 118.474 -1.65078 3.05559 0
M  V30 1203 C 117.428 -1.18003 4.11411 0
M  V30 1204 C 116.754 -2.41837 4.76884 0
M  V30 1205 C 118.054 -0.278394 5.21558 0
M  V30 1206 H 119.748 0.11875 2.99164 0
M  V30 1207 H 117.294 0.0585531 1.43881 0
M  V30 1208 H 119.247 -2.25028 3.56287 0
M  V30 1209 H 117.971 -2.29767 2.32109 0
M  V30 1210 H 116.63 -0.603331 3.61601 0
M  V30 1211 H 116.278 -3.0494 4.00026 0
M  V30 1212 H 115.978 -2.1102 5.48402 0
M  V30 1213 H 117.502 -3.02508 5.30397 0
M  V30 1214 H 118.916 -0.784823 5.67903 0
M  V30 1215 H 117.313 -0.0619707 6.00068 0
M  V30 1216 H 118.383 0.684677 4.80042 0
M  V30 1217 N 119.726 -1.57421 0.075193 0
M  V30 1218 C 121.137 -1.81021 -0.456964 0
M  V30 1219 C 121.488 -0.98936 -1.69429 0
M  V30 1220 O 120.613 -0.212865 -2.15351 0
M  V30 1221 C 121.208 -3.28329 -0.83581 0
M  V30 1222 C 119.767 -3.52764 -1.31281 0
M  V30 1223 C 118.914 -2.75676 -0.299648 0
M  V30 1224 H 121.865 -1.55822 0.300856 0
M  V30 1225 H 121.886 -3.40564 -1.69696 0
M  V30 1226 H 121.398 -3.88046 0.0649238 0
M  V30 1227 H 119.499 -2.98355 -2.23193 0
M  V30 1228 H 119.612 -4.61451 -1.28839 0
M  V30 1229 H 117.976 -2.42538 -0.777641 0
M  V30 1230 H 118.759 -3.38132 0.593417 0
M  V30 1231 N 121.204 0.198386 -1.56346 0
M  V30 1232 C 122.615 0.763358 -1.70381 0
M  V30 1233 C 122.966 1.83995 -0.681203 0
M  V30 1234 O 122.091 2.15785 0.16305 0
M  V30 1235 C 122.686 1.39143 -3.08909 0
M  V30 1236 C 121.245 1.90352 -3.2472 0
M  V30 1237 C 120.392 0.772233 -2.6633 0
M  V30 1238 H 123.343 -0.0266377 -1.58678 0
M  V30 1239 H 123.364 2.26076 -3.06055 0
M  V30 1240 H 122.876 0.607638 -3.83314 0
M  V30 1241 H 120.977 2.71461 -2.55225 0
M  V30 1242 H 121.09 2.06757 -4.3219 0
M  V30 1243 H 119.454 1.18566 -2.2542 0
M  V30 1244 H 120.237 0.00073556 -3.433 0
M  V30 1245 N 122.682 1.50554 0.465978 0
M  V30 1246 C 124.093 1.54599 1.04671 0
M  V30 1247 C 124.444 0.352488 1.93008 0
M  V30 1248 O 123.569 -0.534044 2.09707 0
M  V30 1249 C 124.164 2.80166 1.90505 0
M  V30 1250 C 122.723 2.86876 2.43678 0
M  V30 1251 C 121.87 2.48947 1.22151 0
M  V30 1252 H 124.821 1.56744 0.248384 0
M  V30 1253 H 124.842 2.62311 2.75633 0
M  V30 1254 H 124.354 3.67013 1.26186 0
M  V30 1255 H 122.455 2.04393 3.11536 0
M  V30 1256 H 122.568 3.89885 2.78436 0
M  V30 1257 H 120.932 2.01498 1.5579 0
M  V30 1258 H 121.715 3.38107 0.594866 0
M  V30 1259 N 124.16 -0.719506 1.40217 0
M  V30 1260 C 125.571 -1.29848 1.34151 0
M  V30 1261 C 125.922 -1.96196 0.0131349 0
M  V30 1262 O 125.047 -1.973 -0.88892 0
M  V30 1263 C 125.642 -2.36118 2.42968 0
M  V30 1264 C 124.201 -2.8965 2.40374 0
M  V30 1265 C 123.348 -1.63393 2.24049 0
M  V30 1266 H 126.299 -0.51591 1.5008 0
M  V30 1267 H 126.32 -3.16871 2.10649 0
M  V30 1268 H 125.832 -1.878 3.39636 0
M  V30 1269 H 123.933 -3.42208 1.47392 0
M  V30 1270 H 124.046 -3.4171 3.35814 0
M  V30 1271 H 122.41 -1.88312 1.71495 0
M  V30 1272 H 123.193 -1.17104 3.2271 0
M  V30 1273 N 125.638 -1.25649 -0.95132 0
M  V30 1274 C 127.049 -1.09654 -1.51106 0
M  V30 1275 C 127.4 0.326615 -1.93462 0
M  V30 1276 O 126.525 1.21697 -1.78938 0
M  V30 1277 C 127.12 -1.98437 -2.74605 0
M  V30 1278 C 125.679 -1.86618 -3.2688 0
M  V30 1279 C 124.826 -1.9239 -1.99703 0
M  V30 1280 H 127.777 -1.38887 -0.767865 0
M  V30 1281 H 127.798 -1.5263 -3.48546 0
M  V30 1282 H 127.31 -3.02009 -2.43746 0
M  V30 1283 H 125.411 -0.859421 -3.62553 0
M  V30 1284 H 125.524 -2.71607 -3.94673 0
M  V30 1285 H 123.888 -1.36317 -2.15151 0
M  V30 1286 H 124.671 -2.97573 -1.71188 0
M  V30 1287 N 127.117 1.15442 -1.07289 0
M  V30 1288 C 128.528 1.67803 -0.818475 0
M  V30 1289 C 128.879 1.8489 0.656507 0
M  V30 1290 O 128.004 1.55176 1.50829 0
M  V30 1291 C 128.599 3.04805 -1.47917 0
M  V30 1292 C 127.158 3.54245 -1.27229 0
M  V30 1293 C 126.305 2.29986 -1.54925 0
M  V30 1294 H 129.256 0.996646 -1.23502 0
M  V30 1295 H 129.277 3.69702 -0.90005 0
M  V30 1296 H 128.789 2.92336 -2.55267 0
M  V30 1297 H 126.89 3.71956 -0.21899 0
M  V30 1298 H 127.003 4.35723 -1.99203 0
M  V30 1299 H 125.367 2.35496 -0.970242 0
M  V30 1300 H 126.15 2.20105 -2.63455 0
M  V30 1301 N 128.595 0.856903 1.32268 0
M  V30 1302 C 130.006 0.515711 1.79436 0
M  V30 1303 C 130.357 -0.966586 1.70738 0
M  V30 1304 O 129.482 -1.75409 1.26731 0
M  V30 1305 C 130.077 0.929335 3.25805 0
M  V30 1306 C 128.636 0.640006 3.70919 0
M  V30 1307 C 127.783 1.12784 2.53328 0
M  V30 1308 H 130.734 1.04389 1.19535 0
M  V30 1309 H 130.755 0.246633 3.797 0
M  V30 1310 H 130.267 2.00821 3.32103 0
M  V30 1311 H 128.368 -0.428051 3.70133 0
M  V30 1312 H 128.481 1.20788 4.63624 0
M  V30 1313 H 126.845 0.548033 2.48734 0
M  V30 1314 H 127.628 2.21387 2.62379 0
M  V30 1315 N 130.073 -1.45103 0.615059 0
M  V30 1316 C 131.321 -2.01784 0.112955 0
M  V30 1317 C 131.642 -1.48504 -1.26378 0
M  V30 1318 O 130.912 -0.682245 -1.83636 0
M  V30 1319 H 129.492 -0.745993 0.0387668 0
M  V30 1320 H 132.154 -1.77808 0.798141 0
M  V30 1321 H 131.25 -3.12025 0.0684069 0
M  V30 1322 N 131.551 -0.354651 -1.53558 0
M  V30 1323 C 132.514 0.484566 -2.24019 0
M  V30 1324 C 133.514 1.01861 -1.24422 0
M  V30 1325 O 134.704 0.906097 -1.4878 0
M  V30 1326 C 131.836 1.67615 -2.96847 0
M  V30 1327 H 133.029 -0.131843 -2.9961 0
M  V30 1328 H 130.582 -0.106165 -1.55939 0
M  V30 1329 H 131.317 2.33095 -2.25471 0
M  V30 1330 H 131.102 1.30029 -3.69912 0
M  V30 1331 H 132.592 2.27114 -3.50441 0
M  V30 1332 N 133.029 1.57378 -0.0835403 0
M  V30 1333 C 133.992 2.12252 0.864959 0
M  V30 1334 C 134.992 1.04916 1.21858 0
M  V30 1335 O 136.182 1.30853 1.14991 0
M  V30 1336 C 133.314 2.63358 2.16461 0
M  V30 1337 H 134.507 2.97371 0.388676 0
M  V30 1338 H 132.06 1.55423 0.165317 0
M  V30 1339 H 132.795 1.81727 2.686 0
M  V30 1340 H 132.58 3.41826 1.92087 0
M  V30 1341 H 134.07 3.05847 2.84337 0
M  V30 1342 N 134.507 -0.190092 1.56449 0
M  V30 1343 C 135.923 -0.54113 1.50146 0
M  V30 1344 C 136.123 -1.85603 0.784465 0
M  V30 1345 O 135.179 -2.5024 0.337051 0
M  V30 1346 C 136.492 -0.591241 2.9483 0
M  V30 1347 C 138.04 -0.679732 3.0553 0
M  V30 1348 C 138.515 -0.760908 4.51635 0
M  V30 1349 N 140.006 -0.824302 4.55806 0
M  V30 1350 C 140.741 -0.907365 5.66175 0
M  V30 1351 N 140.237 -0.952422 6.86222 0
M  V30 1352 N 142.03 -0.94494 5.541 0
M  V30 1353 H 134.181 0.67235 2.01478 0
M  V30 1354 H 136.444 0.240127 0.917084 0
M  V30 1355 H 136.15 0.305905 3.50367 0
M  V30 1356 H 136.024 -1.44422 3.48457 0
M  V30 1357 H 138.411 -1.56731 2.50039 0
M  V30 1358 H 138.492 0.199549 2.5502 0
M  V30 1359 H 138.136 0.122336 5.07753 0
M  V30 1360 H 138.066 -1.65606 4.99882 0
M  V30 1361 H 140.557 -0.798526 3.69367 0
M  V30 1362 H 140.87 -1.01645 7.66086 0
M  V30 1363 H 139.215 -0.921014 6.8887 0
M  V30 1364 H 142.406 -0.906612 4.59236 0
M  V30 1365 H 142.579 -1.00622 6.4014 0
M  V30 1366 N 135.985 -1.50799 -0.457987 0
M  V30 1367 C 137.233 -1.62121 -1.2067 0
M  V30 1368 C 137.554 -0.329793 -1.92191 0
M  V30 1369 O 136.824 0.653409 -1.84682 0
M  V30 1370 H 135.404 -0.597441 -0.448411 0
M  V30 1371 H 138.066 -1.87637 -0.527096 0
M  V30 1372 H 137.162 -2.43882 -1.94751 0
M  V30 1373 N 137.463 0.71206 -1.40597 0
M  V30 1374 C 138.879 1.02058 -1.22704 0
M  V30 1375 C 139.079 2.01228 -0.104729 0
M  V30 1376 O 138.135 2.4674 0.53624 0
M  V30 1377 C 139.448 1.56094 -2.57012 0
M  V30 1378 C 140.996 1.6806 -2.64054 0
M  V30 1379 C 141.471 2.25501 -3.9864 0
M  V30 1380 N 142.962 2.32882 -4.004 0
M  V30 1381 C 143.697 2.78317 -5.01325 0
M  V30 1382 N 143.193 3.23478 -6.12645 0
M  V30 1383 N 144.986 2.77733 -4.88693 0
M  V30 1384 H 137.137 0.0547896 -2.12329 0
M  V30 1385 H 139.4 0.0869027 -0.944008 0
M  V30 1386 H 139.106 0.906865 -3.39807 0
M  V30 1387 H 138.98 2.54564 -2.78347 0
M  V30 1388 H 141.367 2.32583 -1.81629 0
M  V30 1389 H 141.448 0.681802 -2.46546 0
M  V30 1390 H 141.092 1.61598 -4.81506 0
M  V30 1391 H 141.022 3.26102 -4.13479 0
M  V30 1392 H 143.513 2.00991 -3.20017 0
M  V30 1393 H 143.826 3.56725 -6.85542 0
M  V30 1394 H 142.171 3.21429 -6.16205 0
M  V30 1395 H 145.362 2.4179 -4.00818 0
M  V30 1396 H 145.535 3.12826 -5.67489 0
M  V30 1397 N 138.941 1.26152 0.944643 0
M  V30 1398 C 140.171 1.14094 1.72239 0
M  V30 1399 C 140.579 -0.306931 1.86694 0
M  V30 1400 O 139.922 -1.22222 1.3714 0
M  V30 1401 C 139.984 1.73316 3.14963 0
M  V30 1402 C 139.648 3.2239 3.23904 0
M  V30 1403 C 140.645 4.19252 3.07447 0
M  V30 1404 C 138.33 3.62788 3.47405 0
M  V30 1405 C 140.324 5.54491 3.14353 0
M  V30 1406 C 138.011 4.98162 3.53947 0
M  V30 1407 C 139.009 5.93823 3.37436 0
M  V30 1408 O 138.697 7.26732 3.43679 0
M  V30 1409 H 138.429 0.398292 0.546205 0
M  V30 1410 H 140.983 1.67201 1.19301 0
M  V30 1411 H 139.213 1.14667 3.69308 0
M  V30 1412 H 140.902 1.56214 3.74636 0
M  V30 1413 H 141.668 3.8938 2.8915 0
M  V30 1414 H 137.547 2.88816 3.59313 0
M  V30 1415 H 141.091 6.29137 3.01384 0
M  V30 1416 H 136.988 5.27695 3.71763 0
M  V30 1417 H 137.756 7.3496 3.60245 0
M  V30 1418 N 140.419 -1.14872 1.07899 0
M  V30 1419 C 141.382 -2.17986 0.708161 0
M  V30 1420 C 142.382 -1.58775 -0.25442 0
M  V30 1421 O 143.572 -1.74166 -0.034645 0
M  V30 1422 C 140.704 -3.40871 0.0446929 0
M  V30 1423 H 141.897 -2.52306 1.62116 0
M  V30 1424 H 139.45 -1.2943 0.876218 0
M  V30 1425 H 140.185 -3.12124 -0.880281 0
M  V30 1426 H 139.97 -3.8511 0.737091 0
M  V30 1427 H 141.46 -4.17121 -0.19991 0
M  V30 1428 N 141.898 -0.863906 -1.31812 0
M  V30 1429 C 143.123 -0.48527 -2.01643 0
M  V30 1430 C 143.548 0.913058 -1.64453 0
M  V30 1431 O 142.906 1.6014 -0.849985 0
M  V30 1432 C 142.954 -0.642625 -3.54828 0
M  V30 1433 O 142.058 0.320659 -4.11151 0
M  V30 1434 H 141.399 -0.193793 -0.635091 0
M  V30 1435 H 143.929 -1.16565 -1.68148 0
M  V30 1436 H 143.939 -0.533628 -4.04495 0
M  V30 1437 H 142.614 -1.66227 -3.81237 0
M  V30 1438 H 141.191 0.167126 -3.72525 0
M  V30 1439 N 143.376 1.44774 -0.622745 0
M  V30 1440 C 144.601 2.06999 -0.128968 0
M  V30 1441 C 145.026 1.4617 1.1839 0
M  V30 1442 O 144.384 0.560007 1.72434 0
M  V30 1443 C 144.432 3.60595 -0.0188351 0
M  V30 1444 O 143.536 3.99398 1.02739 0
M  V30 1445 H 142.877 0.659047 -0.0809544 0
M  V30 1446 H 145.407 1.85784 -0.85705 0
M  V30 1447 H 145.417 4.07627 0.174476 0
M  V30 1448 H 144.092 4.04252 -0.977384 0
M  V30 1449 H 142.669 3.64011 0.809326 0
M  V30 1450 N 144.854 0.36279 1.53368 0
M  V30 1451 C 146.102 -0.227326 2.00817 0
M  V30 1452 C 146.423 -1.49511 1.25186 0
M  V30 1453 O 145.693 -1.92482 0.364348 0
M  V30 1454 H 144.273 -0.0869923 0.741917 0
M  V30 1455 H 146.935 0.488381 1.88682 0
M  V30 1456 H 146.031 -0.456273 3.08747 0
M  V30 1457 N 146.332 -1.57332 0.0918853 0
M  V30 1458 C 147.295 -2.12708 -0.85369 0
M  V30 1459 C 148.295 -1.05561 -1.213 0
M  V30 1460 O 149.485 -1.31461 -1.14296 0
M  V30 1461 C 146.617 -2.64503 -2.15061 0
M  V30 1462 H 147.81 -2.97573 -0.3729 0
M  V30 1463 H 145.363 -1.55509 -0.157072 0
M  V30 1464 H 146.098 -1.83149 -2.67632 0
M  V30 1465 H 145.883 -3.4284 -1.90272 0
M  V30 1466 H 147.373 -3.07351 -2.82711 0
M  V30 1467 N 147.81 0.181792 -1.56548 0
M  V30 1468 C 149.038 0.915947 -1.85521 0
M  V30 1469 C 149.453 1.76282 -0.676016 0
M  V30 1470 O 148.81 1.79012 0.355077 0
M  V30 1471 C 148.861 1.80126 -3.13427 0
M  V30 1472 O 148.582 0.988562 -4.26801 0
M  V30 1473 C 150.083 2.64597 -3.55673 0
M  V30 1474 H 147.303 0.26661 -0.61576 0
M  V30 1475 H 149.847 0.185039 -2.03661 0
M  V30 1476 H 148.002 2.48563 -2.97145 0
M  V30 1477 H 148.416 1.59308 -4.99721 0
M  V30 1478 H 149.89 3.2235 -4.48101 0
M  V30 1479 H 150.367 3.38958 -2.79292 0
M  V30 1480 H 150.973 2.0151 -3.74532 0
M  V30 1481 N 149.288 1.51039 0.449983 0
M  V30 1482 C 150.536 1.62759 1.19808 0
M  V30 1483 C 150.857 0.339981 1.92013 0
M  V30 1484 O 150.127 -0.643606 1.85026 0
M  V30 1485 H 148.707 0.599811 0.445237 0
M  V30 1486 H 151.369 1.87914 0.517138 0
M  V30 1487 H 150.465 2.44911 1.93455 0
M  V30 1488 N 150.766 -0.704594 1.40972 0
M  V30 1489 C 152.182 -1.01406 1.23244 0
M  V30 1490 C 152.382 -2.01169 0.115399 0
M  V30 1491 O 151.438 -2.47021 -0.523147 0
M  V30 1492 C 152.751 -1.54728 2.57836 0
M  V30 1493 C 154.299 -1.66658 2.64942 0
M  V30 1494 C 154.774 -2.23383 3.9983 0
M  V30 1495 N 156.265 -2.30756 4.01629 0
M  V30 1496 C 157 -2.75655 5.02794 0
M  V30 1497 N 156.496 -3.20225 6.14352 0
M  V30 1498 N 158.289 -2.75138 4.90159 0
M  V30 1499 H 150.44 -0.0435285 2.12355 0
M  V30 1500 H 152.703 -0.0818951 0.944456 0
M  V30 1501 H 152.409 -0.888832 3.40283 0
M  V30 1502 H 152.283 -2.53084 2.79693 0
M  V30 1503 H 154.67 -2.31617 1.8286 0
M  V30 1504 H 154.751 -0.668717 2.46904 0
M  V30 1505 H 154.395 -1.59043 4.82357 0
M  V30 1506 H 154.325 -3.23904 4.15203 0
M  V30 1507 H 156.816 -1.99291 3.21079 0
M  V30 1508 H 157.129 -3.53084 6.87424 0
M  V30 1509 H 155.474 -3.18156 6.17901 0
M  V30 1510 H 158.665 -2.39661 4.02095 0
M  V30 1511 H 158.838 -3.09812 5.6914 0
M  V30 1512 N 152.244 -1.26651 -0.937939 0
M  V30 1513 C 153.49 -1.12553 -1.687 0
M  V30 1514 C 153.823 0.329782 -1.91379 0
M  V30 1515 O 153.098 1.24202 -1.4968 0
M  V30 1516 C 153.381 -1.89862 -3.05981 0
M  V30 1517 C 153.234 -3.43318 -2.90607 0
M  V30 1518 C 154.553 -1.69499 -4.0615 0
M  V30 1519 H 151.672 -0.410257 -0.612257 0
M  V30 1520 H 154.314 -1.55685 -1.08913 0
M  V30 1521 H 152.464 -1.53204 -3.57017 0
M  V30 1522 H 154.136 -3.89747 -2.46769 0
M  V30 1523 H 152.379 -3.70179 -2.26164 0
M  V30 1524 H 153.05 -3.92642 -3.8799 0
M  V30 1525 H 155.526 -2.01442 -3.64088 0
M  V30 1526 H 154.402 -2.26002 -5.00214 0
M  V30 1527 H 154.663 -0.640365 -4.37438 0
M  V30 1528 N 153.722 1.14298 -1.08507 0
M  V30 1529 C 155.138 1.37347 -0.812901 0
M  V30 1530 C 155.338 1.93052 0.577325 0
M  V30 1531 O 154.394 2.14389 1.33393 0
M  V30 1532 C 155.707 2.33359 -1.89642 0
M  V30 1533 C 157.255 2.46996 -1.92255 0
M  V30 1534 C 157.73 3.46309 -2.99724 0
M  V30 1535 N 159.221 3.53853 -2.98902 0
M  V30 1536 C 159.956 4.3055 -3.787 0
M  V30 1537 N 159.452 5.10482 -4.6838 0
M  V30 1538 N 161.245 4.25757 -3.66998 0
M  V30 1539 H 153.396 0.764867 -1.9815 0
M  V30 1540 H 155.659 0.398966 -0.859959 0
M  V30 1541 H 155.365 1.99565 -2.89597 0
M  V30 1542 H 155.239 3.33274 -1.76659 0
M  V30 1543 H 157.626 2.80081 -0.929445 0
M  V30 1544 H 157.707 1.47039 -2.09316 0
M  V30 1545 H 157.351 3.13957 -3.99241 0
M  V30 1546 H 157.281 4.46049 -2.79907 0
M  V30 1547 H 159.772 2.96812 -2.33904 0
M  V30 1548 H 160.085 5.66284 -5.25873 0
M  V30 1549 H 158.43 5.09747 -4.72422 0
M  V30 1550 H 161.621 3.62383 -2.96304 0
M  V30 1551 H 161.794 4.85279 -4.29427 0
M  V30 1552 N 155.201 0.870884 1.31352 0
M  V30 1553 C 156.151 0.298889 2.26032 0
M  V30 1554 C 157.135 -0.564595 1.50669 0
M  V30 1555 O 158.327 -0.411323 1.72154 0
M  V30 1556 C 155.456 -0.497842 3.39671 0
M  V30 1557 C 154.542 0.378937 4.22404 0
M  V30 1558 N 154.933 1.47284 4.83881 0
M  V30 1559 C 153.231 0.171535 4.4567 0
M  V30 1560 C 153.932 2.01359 5.45738 0
M  V30 1561 N 152.908 1.31047 5.27568 0
M  V30 1562 H 156.71 1.13494 2.71102 0
M  V30 1563 H 154.224 0.718745 1.45629 0
M  V30 1564 H 156.221 -0.924155 4.06528 0
M  V30 1565 H 154.881 -1.33149 2.96144 0
M  V30 1566 H 155.892 1.85575 4.8351 0
M  V30 1567 H 152.569 -0.626091 4.12779 0
M  V30 1568 H 153.959 2.93143 6.0458 0
M  V30 1569 N 156.679 -1.44442 0.630414 0
M  V30 1570 C 158.095 -1.56832 0.295973 0
M  V30 1571 C 158.295 -1.61806 -1.20088 0
M  V30 1572 O 157.351 -1.5607 -1.9849 0
M  V30 1573 C 158.664 -2.84031 0.987264 0
M  V30 1574 C 160.212 -2.97742 0.96534 0
M  V30 1575 C 160.687 -4.27743 1.63708 0
M  V30 1576 N 162.178 -4.34555 1.60364 0
M  V30 1577 C 162.913 -5.33862 2.09234 0
M  V30 1578 N 162.409 -6.39578 2.66292 0
M  V30 1579 N 164.202 -5.25366 1.99867 0
M  V30 1580 H 156.353 -1.39457 1.60205 0
M  V30 1581 H 158.616 -0.668237 0.672431 0
M  V30 1582 H 158.322 -2.86338 2.04215 0
M  V30 1583 H 158.196 -3.73534 0.524588 0
M  V30 1584 H 160.583 -2.94989 -0.0810639 0
M  V30 1585 H 160.664 -2.09589 1.4665 0
M  V30 1586 H 160.308 -4.31255 2.68293 0
M  V30 1587 H 160.238 -5.14752 1.11076 0
M  V30 1588 H 162.729 -3.58772 1.18705 0
M  V30 1589 H 163.042 -7.11637 3.01317 0
M  V30 1590 H 161.387 -6.40265 2.70343 0
M  V30 1591 H 164.578 -4.41688 1.55013 0
M  V30 1592 H 164.751 -6.02606 2.38265 0
M  V30 1593 N 158.157 -0.370918 -1.53173 0
M  V30 1594 C 159.405 0.216673 -2.00935 0
M  V30 1595 C 159.726 1.48845 -1.25977 0
M  V30 1596 O 158.996 1.92286 -0.374551 0
M  V30 1597 H 157.576 0.0830565 -0.742368 0
M  V30 1598 H 160.238 -0.49838 -1.8842 0
M  V30 1599 H 159.334 0.439893 -3.08984 0
M  V30 1600 N 159.635 1.57281 -0.100228 0
M  V30 1601 C 160.865 1.98591 0.569681 0
M  V30 1602 C 161.273 0.978315 1.61943 0
M  V30 1603 O 160.616 -0.0396108 1.83657 0
M  V30 1604 C 160.678 3.36282 1.271 0
M  V30 1605 C 160.342 4.55488 0.371409 0
M  V30 1606 C 161.339 5.18491 -0.382504 0
M  V30 1607 C 159.024 5.01474 0.287965 0
M  V30 1608 C 161.018 6.25852 -1.20779 0
M  V30 1609 C 158.705 6.08701 -0.540965 0
M  V30 1610 C 159.703 6.70755 -1.28749 0
M  V30 1611 O 159.391 7.75914 -2.10269 0
M  V30 1612 H 159.123 0.65752 0.156982 0
M  V30 1613 H 161.677 2.0463 -0.177734 0
M  V30 1614 H 159.907 3.26941 2.0651 0
M  V30 1615 H 161.596 3.62005 1.83595 0
M  V30 1616 H 162.362 4.83891 -0.3278 0
M  V30 1617 H 158.241 4.52932 0.858689 0
M  V30 1618 H 161.785 6.74218 -1.79096 0
M  V30 1619 H 157.682 6.42732 -0.597131 0
M  V30 1620 H 158.45 7.92925 -2.03007 0
M  V30 1621 N 161.113 -0.173488 1.56642 0
M  V30 1622 C 162.338 -0.910149 1.86363 0
M  V30 1623 C 162.763 -1.75132 0.686318 0
M  V30 1624 O 162.121 -1.77595 -0.364643 0
M  V30 1625 C 162.169 -1.76447 3.14482 0
M  V30 1626 O 161.273 -2.86584 2.96553 0
M  V30 1627 H 160.614 -0.255086 0.613047 0
M  V30 1628 H 163.144 -0.172283 2.03873 0
M  V30 1629 H 163.154 -2.16483 3.45831 0
M  V30 1630 H 161.829 -1.14658 3.99783 0
M  V30 1631 H 160.406 -2.50146 2.76553 0
M  V30 1632 N 162.591 -1.51276 -0.441967 0
M  V30 1633 C 163.868 -1.54252 -1.20273 0
M  V30 1634 C 164.248 -0.30408 -2.08898 0
M  V30 1635 O 163.596 0.711084 -2.17154 0
M  V30 1636 C 163.806 -2.85406 -2.00859 0
M  V30 1637 C 165.154 -3.37181 -2.58059 0
M  V30 1638 O 166.178 -2.86925 -2.11074 0
M  V30 1639 O 165.037 -4.24858 -3.43741 0
M  V30 1640 H 162.131 -0.619969 -0.547328 0
M  V30 1641 H 164.677 -1.63586 -0.451413 0
M  V30 1642 H 163.449 -3.67003 -1.35736 0
M  V30 1643 H 163.072 -2.79213 -2.83065 0
M  V30 1644 N 164.069 0.697108 -1.41344 0
M  V30 1645 C 165.297 1.48593 -1.43972 0
M  V30 1646 C 165.712 1.88747 -0.0445612 0
M  V30 1647 O 165.069 1.56682 0.935785 0
M  V30 1648 C 165.12 2.74946 -2.34706 0
M  V30 1649 O 164.841 2.36484 -3.68791 0
M  V30 1650 C 166.342 3.687 -2.46121 0
M  V30 1651 H 163.562 0.457964 -0.490418 0
M  V30 1652 H 166.106 0.858429 -1.8561 0
M  V30 1653 H 164.261 3.33937 -1.9638 0
M  V30 1654 H 164.675 3.17918 -4.17167 0
M  V30 1655 H 166.149 4.54145 -3.13777 0
M  V30 1656 H 166.626 4.13081 -1.49199 0
M  V30 1657 H 167.232 3.15613 -2.85076 0
M  V30 1658 N 165.547 1.27147 0.931209 0
M  V30 1659 C 166.457 1.11372 2.06478 0
M  V30 1660 C 167.473 0.044645 1.73943 0
M  V30 1661 O 168.649 0.250417 1.99837 0
M  V30 1662 C 165.714 0.758838 3.38294 0
M  V30 1663 C 164.775 1.90841 3.84549 0
M  V30 1664 C 164.008 1.57036 5.10074 0
M  V30 1665 O 164.231 0.476645 5.68405 0
M  V30 1666 O 163.165 2.40839 5.51616 0
M  V30 1667 H 166.991 2.06493 2.22698 0
M  V30 1668 H 164.576 1.06301 1.04978 0
M  V30 1669 H 166.458 0.574098 4.17471 0
M  V30 1670 H 165.133 -0.162879 3.2329 0
M  V30 1671 H 164.04 2.14819 3.06274 0
M  V30 1672 H 165.373 2.81021 4.04089 0
M  V30 1673 N 167.025 -1.13721 1.09112 0
M  V30 1674 C 168.441 -1.36914 0.820174 0
M  V30 1675 C 168.641 -1.93356 -0.567079 0
M  V30 1676 O 167.697 -2.15093 -1.32255 0
M  V30 1677 C 169.01 -2.3235 1.90877 0
M  V30 1678 C 170.558 -2.45973 1.93562 0
M  V30 1679 C 171.033 -3.44714 3.01556 0
M  V30 1680 N 172.524 -3.52263 3.00775 0
M  V30 1681 C 173.259 -4.28536 3.80978 0
M  V30 1682 N 172.755 -5.07991 4.71081 0
M  V30 1683 N 174.548 -4.23804 3.69251 0
M  V30 1684 H 166.699 -0.754348 1.98553 0
M  V30 1685 H 168.962 -0.3944 0.862063 0
M  V30 1686 H 168.668 -1.98027 2.90651 0
M  V30 1687 H 168.542 -3.32332 1.78424 0
M  V30 1688 H 170.929 -2.79584 0.944286 0
M  V30 1689 H 171.01 -1.45926 2.10093 0
M  V30 1690 H 170.654 -3.11835 4.00901 0
M  V30 1691 H 170.584 -4.44558 2.82269 0
M  V30 1692 H 173.075 -2.95567 2.35475 0
M  V30 1693 H 173.388 -5.63487 5.28869 0
M  V30 1694 H 171.733 -5.07235 4.75119 0
M  V30 1695 H 174.924 -3.60806 2.98222 0
M  V30 1696 H 175.097 -4.82995 4.31995 0
M  V30 1697 N 168.503 -0.877838 -1.30888 0
M  V30 1698 C 169.733 -0.506678 -2.00291 0
M  V30 1699 C 170.141 0.907449 -1.66018 0
M  V30 1700 O 169.484 1.60719 -0.88967 0
M  V30 1701 C 169.546 -0.59323 -3.54572 0
M  V30 1702 C 169.21 -1.97038 -4.12341 0
M  V30 1703 C 170.207 -2.93889 -4.28865 0
M  V30 1704 C 167.892 -2.27383 -4.47886 0
M  V30 1705 C 169.886 -4.19224 -4.80136 0
M  V30 1706 C 167.573 -3.52965 -4.98857 0
M  V30 1707 C 168.571 -4.48701 -5.14934 0
M  V30 1708 O 168.259 -5.72056 -5.64808 0
M  V30 1709 H 167.991 -0.1951 -0.647234 0
M  V30 1710 H 170.545 -1.18301 -1.6791 0
M  V30 1711 H 168.775 0.140057 -3.86446 0
M  V30 1712 H 170.464 -0.234372 -4.05223 0
M  V30 1713 H 171.23 -2.71756 -4.01714 0
M  V30 1714 H 167.109 -1.53639 -4.34645 0
M  V30 1715 H 170.653 -4.93956 -4.92599 0
M  V30 1716 H 166.55 -3.74939 -5.25443 0
M  V30 1717 H 167.318 -5.74337 -5.83163 0
M  V30 1718 N 169.982 1.44106 -0.638065 0
M  V30 1719 C 170.912 2.33448 0.0494287 0
M  V30 1720 C 171.893 1.48606 0.827672 0
M  V30 1721 O 173.078 1.77308 0.792173 0
M  V30 1722 C 170.208 3.31771 1.02691 0
M  V30 1723 C 169.162 4.26485 0.359823 0
M  V30 1724 C 168.488 5.14729 1.44769 0
M  V30 1725 C 169.788 5.17056 -0.738296 0
M  V30 1726 H 171.482 2.91183 -0.696636 0
M  V30 1727 H 169.028 1.40014 -0.336456 0
M  V30 1728 H 170.981 3.93161 1.51666 0
M  V30 1729 H 169.705 2.7226 1.80395 0
M  V30 1730 H 168.364 3.66437 -0.10934 0
M  V30 1731 H 168.012 4.51566 2.21578 0
M  V30 1732 H 167.712 5.78913 1.00668 0
M  V30 1733 H 169.236 5.78991 1.93911 0
M  V30 1734 H 170.65 5.72342 -0.331354 0
M  V30 1735 H 169.047 5.89879 -1.10286 0
M  V30 1736 H 170.117 4.57652 -1.60258 0
M  V30 1737 N 171.46 0.379036 1.52974 0
M  V30 1738 C 172.69 -0.20649 2.05566 0
M  V30 1739 C 173.098 -1.41906 1.25137 0
M  V30 1740 O 172.441 -1.81421 0.288464 0
M  V30 1741 C 172.503 -0.651086 3.53555 0
M  V30 1742 C 172.167 0.446626 4.54812 0
M  V30 1743 C 173.164 1.30079 5.03364 0
M  V30 1744 C 170.849 0.610719 4.98573 0
M  V30 1745 C 172.843 2.30426 5.94292 0
M  V30 1746 C 170.53 1.61754 5.89304 0
M  V30 1747 C 171.528 2.46274 6.37054 0
M  V30 1748 O 171.216 3.45237 7.25994 0
M  V30 1749 H 170.948 -0.0372381 0.674974 0
M  V30 1750 H 173.502 0.539718 1.98182 0
M  V30 1751 H 171.732 -1.44911 3.58522 0
M  V30 1752 H 173.421 -1.16112 3.88938 0
M  V30 1753 H 174.187 1.18527 4.70294 0
M  V30 1754 H 170.066 -0.0374044 4.60985 0
M  V30 1755 H 173.61 2.96432 6.31485 0
M  V30 1756 H 169.507 1.73348 6.21788 0
M  V30 1757 H 170.275 3.41124 7.44027 0
M  V30 1758 N 172.938 -1.57226 0.108567 0
M  V30 1759 C 174.178 -1.96717 -0.555155 0
M  V30 1760 C 174.542 -0.990003 -1.64508 0
M  V30 1761 O 175.743 -1.2739 -2.36696 0
M  V30 1762 C 174.014 -3.40575 -1.08367 0
M  V30 1763 S 175.573 -4.02072 -1.75737 0
M  V30 1764 H 172.391 -0.687638 -0.180762 0
M  V30 1765 H 174.993 -1.94563 0.191172 0
M  V30 1766 H 173.697 -4.0945 -0.279092 0
M  V30 1767 H 173.228 -3.46356 -1.86551 0
M  V30 1768 H 175.243 -3.91977 -3.04251 0
M  V30 1769 N 174.416 0.165178 -1.56732 0
M  V30 1770 C 175.832 0.517174 -1.50988 0
M  V30 1771 C 176.032 1.84331 -0.813894 0
M  V30 1772 O 175.088 2.49672 -0.37682 0
M  V30 1773 C 176.401 0.544261 -2.95733 0
M  V30 1774 C 177.949 0.631039 -3.06573 0
M  V30 1775 C 178.424 0.68896 -4.52788 0
M  V30 1776 N 179.915 0.751683 -4.5706 0
M  V30 1777 C 180.65 0.817177 -5.67547 0
M  V30 1778 N 180.146 0.843129 -6.8765 0
M  V30 1779 N 181.939 0.856668 -5.55534 0
M  V30 1780 H 174.09 -0.704318 -2.00382 0
M  V30 1781 H 176.353 -0.254687 -0.913148 0
M  V30 1782 H 176.059 -0.361607 -3.49836 0
M  V30 1783 H 175.933 1.3886 -3.5071 0
M  V30 1784 H 178.32 1.52733 -2.52501 0
M  V30 1785 H 178.401 -0.240095 -2.54671 0
M  V30 1786 H 178.045 -0.2031 -5.07494 0
M  V30 1787 H 177.975 1.57633 -5.02454 0
M  V30 1788 H 180.466 0.739661 -3.70591 0
M  V30 1789 H 180.779 0.894448 -7.67606 0
M  V30 1790 H 179.124 0.811304 -6.90248 0
M  V30 1791 H 182.315 0.833437 -4.60621 0
M  V30 1792 H 182.488 0.904247 -6.4166 0
M  V30 1793 N 175.894 1.51508 0.433938 0
M  V30 1794 C 176.857 1.72473 1.50949 0
M  V30 1795 C 177.857 0.594725 1.49398 0
M  V30 1796 O 179.047 0.862315 1.5136 0
M  V30 1797 C 176.179 1.78431 2.90474 0
M  V30 1798 H 177.372 2.68467 1.33662 0
M  V30 1799 H 174.925 1.41549 0.662836 0
M  V30 1800 H 175.66 0.842645 3.13161 0
M  V30 1801 H 175.445 2.60558 2.93005 0
M  V30 1802 H 176.935 1.96479 3.68491 0
M  V30 1803 N 177.372 -0.689602 1.41712 0
M  V30 1804 C 178.305 -1.81403 1.3845 0
M  V30 1805 C 179.283 -1.60653 0.250874 0
M  V30 1806 O 180.467 -1.83323 0.43874 0
M  V30 1807 C 177.594 -3.18176 1.1611 0
M  V30 1808 C 176.64 -3.57705 2.3227 0
M  V30 1809 S 177.473 -3.61827 3.94767 0
M  V30 1810 C 178.629 -5.01318 3.74742 0
M  V30 1811 H 178.862 -1.83893 2.33603 0
M  V30 1812 H 176.395 -0.858878 1.28307 0
M  V30 1813 H 178.353 -3.97132 1.03907 0
M  V30 1814 H 177.014 -3.13288 0.225668 0
M  V30 1815 H 176.207 -4.57082 2.12349 0
M  V30 1816 H 175.809 -2.86073 2.40911 0
M  V30 1817 H 178.101 -5.88986 3.34817 0
M  V30 1818 H 179.044 -5.26283 4.73743 0
M  V30 1819 H 179.452 -4.73138 3.07898 0
M  V30 1820 N 178.85 -1.27639 -0.924453 0
M  V30 1821 C 180.127 -1.04887 -1.651 0
M  V30 1822 C 180.507 0.415327 -2.06974 0
M  V30 1823 O 179.855 1.39923 -1.80648 0
M  V30 1824 C 180.065 -2.01348 -2.85061 0
M  V30 1825 C 181.413 -2.30899 -3.56329 0
M  V30 1826 O 182.437 -1.99348 -2.95193 0
M  V30 1827 O 181.296 -2.84699 -4.66485 0
M  V30 1828 H 178.39 -0.400083 -0.723784 0
M  V30 1829 H 180.936 -1.38916 -0.974703 0
M  V30 1830 H 179.708 -3.0008 -2.51133 0
M  V30 1831 H 179.331 -1.679 -3.6041 0
M  V30 1832 N 180.328 1.1314 -1.09713 0
M  V30 1833 C 181.744 1.36477 -0.827423 0
M  V30 1834 C 181.944 1.93654 0.556817 0
M  V30 1835 O 181 2.15791 1.31112 0
M  V30 1836 C 182.313 2.31334 -1.92106 0
M  V30 1837 C 183.861 2.44943 -1.94864 0
M  V30 1838 C 184.336 3.4311 -3.0338 0
M  V30 1839 N 185.827 3.50662 -3.02639 0
M  V30 1840 C 186.562 4.2651 -3.83246 0
M  V30 1841 N 186.058 5.05485 -4.73768 0
M  V30 1842 N 187.851 4.2184 -3.71493 0
M  V30 1843 H 180.002 0.743807 -1.9895 0
M  V30 1844 H 182.265 0.389823 -0.864143 0
M  V30 1845 H 181.971 1.96483 -2.91698 0
M  V30 1846 H 181.845 3.31381 -1.80184 0
M  V30 1847 H 184.232 2.79079 -0.959099 0
M  V30 1848 H 184.313 1.4481 -2.10864 0
M  V30 1849 H 183.957 3.09704 -4.02549 0
M  V30 1850 H 183.887 4.43055 -2.84622 0
M  V30 1851 H 186.378 2.94315 -2.37039 0
M  V30 1852 H 186.691 5.60675 -5.3185 0
M  V30 1853 H 185.036 5.04708 -4.77802 0
M  V30 1854 H 188.227 3.5922 -3.00131 0
M  V30 1855 H 188.4 4.80697 -4.3455 0
M  V30 1856 N 181.806 0.884767 1.30421 0
M  V30 1857 C 183.034 0.518044 2.0031 0
M  V30 1858 C 183.449 -0.893408 1.66324 0
M  V30 1859 O 182.806 -1.5875 0.900262 0
M  V30 1860 C 182.857 0.682997 3.54989 0
M  V30 1861 O 182.578 2.03888 3.87764 0
M  V30 1862 C 184.079 0.31924 4.42149 0
M  V30 1863 H 181.299 0.200265 0.640418 0
M  V30 1864 H 183.843 1.19001 1.6631 0
M  V30 1865 H 181.998 0.0584052 3.87356 0
M  V30 1866 H 182.412 2.05735 4.82466 0
M  V30 1867 H 183.886 0.485555 5.4986 0
M  V30 1868 H 184.363 -0.742717 4.32875 0
M  V30 1869 H 184.969 0.920147 4.15227 0
M  V30 1870 N 183.284 -1.43765 0.645699 0
M  V30 1871 C 184.509 -2.06767 0.161883 0
M  V30 1872 C 184.934 -1.48034 -1.16049 0
M  V30 1873 O 184.292 -0.587369 -1.71522 0
M  V30 1874 C 184.34 -3.60519 0.0762003 0
M  V30 1875 O 183.444 -4.00982 -0.963721 0
M  V30 1876 H 182.785 -0.657675 0.091429 0
M  V30 1877 H 185.315 -1.84397 0.886499 0
M  V30 1878 H 185.325 -4.07853 -0.109604 0
M  V30 1879 H 184 -4.02646 1.04157 0
M  V30 1880 H 182.577 -3.65253 -0.751312 0
M  V30 1881 N 184.763 -0.387143 -1.52771 0
M  V30 1882 C 185.993 0.195585 -2.05672 0
M  V30 1883 C 186.401 1.41241 -1.25887 0
M  V30 1884 O 185.744 1.81265 -0.298081 0
M  V30 1885 C 185.806 0.632327 -3.53895 0
M  V30 1886 C 185.47 -0.470739 -4.54569 0
M  V30 1887 C 186.467 -1.32746 -5.02667 0
M  V30 1888 C 184.152 -0.637151 -4.98243 0
M  V30 1889 C 186.146 -2.33574 -5.93061 0
M  V30 1890 C 183.833 -1.64877 -5.88438 0
M  V30 1891 C 184.831 -2.49649 -6.35739 0
M  V30 1892 O 184.519 -3.49082 -7.24153 0
M  V30 1893 H 184.251 0.033658 -0.675162 0
M  V30 1894 H 186.805 -0.550221 -1.97893 0
M  V30 1895 H 185.035 1.43008 -3.59285 0
M  V30 1896 H 186.724 1.14048 -3.89548 0
M  V30 1897 H 187.49 -1.21019 -4.69659 0
M  V30 1898 H 183.369 0.0129567 -4.60998 0
M  V30 1899 H 186.913 -2.99777 -6.29904 0
M  V30 1900 H 182.81 -1.76643 -6.2086 0
M  V30 1901 H 183.578 -3.45065 -7.42208 0
M  V30 1902 N 186.241 1.57166 -0.116904 0
M  V30 1903 C 187.204 2.14039 0.819742 0
M  V30 1904 C 188.204 1.07477 1.19605 0
M  V30 1905 O 189.394 1.33263 1.1219 0
M  V30 1906 C 186.526 2.67891 2.10826 0
M  V30 1907 H 187.719 2.98128 0.325511 0
M  V30 1908 H 185.272 1.55739 0.132312 0
M  V30 1909 H 186.007 1.87384 2.64685 0
M  V30 1910 H 185.792 3.45823 1.84793 0
M  V30 1911 H 187.282 3.11809 2.77785 0
M  V30 1912 N 187.719 -0.156864 1.56817 0
M  V30 1913 C 188.965 -0.872416 1.83076 0
M  V30 1914 C 189.298 -1.81261 0.697001 0
M  V30 1915 O 188.573 -1.92171 -0.30008 0
M  V30 1916 C 188.856 -1.65551 3.19789 0
M  V30 1917 C 188.709 -0.737467 4.43713 0
M  V30 1918 C 190.028 -2.62012 3.53606 0
M  V30 1919 H 187.147 -0.315715 0.665953 0
M  V30 1920 H 189.789 -0.138004 1.89498 0
M  V30 1921 H 187.939 -2.28159 3.14445 0
M  V30 1922 H 189.611 -0.123143 4.61136 0
M  V30 1923 H 187.854 -0.0464067 4.33775 0
M  V30 1924 H 188.525 -1.32122 5.35955 0
M  V30 1925 H 191.001 -2.09525 3.59497 0
M  V30 1926 H 189.877 -3.13861 4.50314 0
M  V30 1927 H 190.138 -3.42902 2.79053 0
M  V30 1928 N 189.197 -1.51736 -0.425897 0
M  V30 1929 C 190.107 -1.76738 -1.54275 0
M  V30 1930 C 191.123 -0.65211 -1.61318 0
M  V30 1931 O 192.299 -0.935654 -1.78346 0
M  V30 1932 C 189.364 -1.89755 -2.90162 0
M  V30 1933 C 188.425 -3.13633 -2.93143 0
M  V30 1934 C 187.658 -3.2602 -4.22548 0
M  V30 1935 O 187.881 -2.44067 -5.15546 0
M  V30 1936 O 186.815 -4.19071 -4.32046 0
M  V30 1937 H 190.641 -2.71502 -1.36089 0
M  V30 1938 H 188.226 -1.36376 -0.610069 0
M  V30 1939 H 190.108 -2.00236 -3.70788 0
M  V30 1940 H 188.783 -0.981785 -3.08452 0
M  V30 1941 H 187.69 -3.08622 -2.11431 0
M  V30 1942 H 189.023 -4.04936 -2.798 0
M  V30 1943 N 190.675 0.682077 -1.42076 0
M  V30 1944 C 191.903 1.47057 -1.4554 0
M  V30 1945 C 192.318 1.8869 -0.0645779 0
M  V30 1946 O 191.675 1.57666 0.919115 0
M  V30 1947 C 191.726 2.72442 -2.37609 0
M  V30 1948 O 191.447 2.32559 -3.71279 0
M  V30 1949 C 192.948 3.66069 -2.50017 0
M  V30 1950 H 190.168 0.452737 -0.495248 0
M  V30 1951 H 192.712 0.838695 -1.8651 0
M  V30 1952 H 190.867 3.31835 -1.9991 0
M  V30 1953 H 191.281 3.13475 -4.20516 0
M  V30 1954 H 192.755 4.50792 -3.18576 0
M  V30 1955 H 193.232 4.11476 -1.53572 0
M  V30 1956 H 193.838 3.12572 -2.88407 0
M  V30 1957 N 192.153 1.28127 0.917671 0
M  V30 1958 C 193.401 1.14825 1.66312 0
M  V30 1959 C 193.722 -0.304379 1.9261 0
M  V30 1960 O 192.992 -1.21149 1.53947 0
M  V30 1961 H 191.572 0.421953 0.616413 0
M  V30 1962 H 194.234 1.608 1.10134 0
M  V30 1963 H 193.33 1.68489 2.62712 0
M  V30 1964 N 193.631 -1.12557 1.10312 0
M  V30 1965 C 194.581 -2.16331 0.720076 0
M  V30 1966 C 195.565 -1.58616 -0.270115 0
M  V30 1967 O 196.757 -1.76823 -0.0790507 0
M  V30 1968 C 193.886 -3.42963 0.152113 0
M  V30 1969 C 192.972 -4.07663 1.16927 0
M  V30 1970 N 193.363 -4.47392 2.35953 0
M  V30 1971 C 191.661 -4.34425 1.0095 0
M  V30 1972 C 192.362 -4.97932 3.0073 0
M  V30 1973 N 191.338 -4.93358 2.28252 0
M  V30 1974 H 195.14 -2.44813 1.62616 0
M  V30 1975 H 192.654 -1.29449 0.980654 0
M  V30 1976 H 194.651 -4.16664 -0.14037 0
M  V30 1977 H 193.311 -3.1595 -0.748701 0
M  V30 1978 H 194.322 -4.39802 2.73486 0
M  V30 1979 H 190.999 -4.17177 0.164134 0
M  V30 1980 H 192.389 -5.38397 4.01969 0
M  V30 1981 N 195.109 -0.891671 -1.2995 0
M  V30 1982 C 196.525 -0.58662 -1.48428 0
M  V30 1983 C 196.725 0.873951 -1.81561 0
M  V30 1984 O 195.781 1.65471 -1.90724 0
M  V30 1985 C 197.094 -1.50553 -2.60296 0
M  V30 1986 C 198.642 -1.50988 -2.74175 0
M  V30 1987 C 199.117 -2.41488 -3.89163 0
M  V30 1988 N 200.608 -2.39489 -3.96483 0
M  V30 1989 C 201.343 -3.06223 -4.84784 0
M  V30 1990 N 200.839 -3.82206 -5.77833 0
M  V30 1991 N 202.632 -2.95421 -4.78208 0
M  V30 1992 H 194.783 -1.83644 -1.06718 0
M  V30 1993 H 197.046 -0.786455 -0.529332 0
M  V30 1994 H 196.752 -2.54581 -2.42654 0
M  V30 1995 H 196.626 -1.22008 -3.56923 0
M  V30 1996 H 199.013 -0.47708 -2.91218 0
M  V30 1997 H 199.094 -1.83567 -1.78148 0
M  V30 1998 H 198.738 -3.44857 -3.72876 0
M  V30 1999 H 198.668 -2.06222 -4.84541 0
M  V30 2000 H 201.159 -1.84278 -3.29924 0
M  V30 2001 H 201.472 -4.302 -6.41988 0
M  V30 2002 H 199.817 -3.86313 -5.77743 0
M  V30 2003 H 203.008 -2.35581 -4.04499 0
M  V30 2004 H 203.181 -3.47704 -5.46814 0
M  V30 2005 N 196.587 1.43421 -0.653314 0
M  V30 2006 C 197.998 1.85065 -0.246537 0
M  V30 2007 C 198.349 1.54688 1.2069 0
M  V30 2008 O 197.474 0.995896 1.92122 0
M  V30 2009 C 198.069 3.35922 -0.440666 0
M  V30 2010 C 196.628 3.76297 -0.0882064 0
M  V30 2011 C 195.775 2.67147 -0.743484 0
M  V30 2012 H 198.726 1.33572 -0.856979 0
M  V30 2013 H 198.747 3.79204 0.313798 0
M  V30 2014 H 198.259 3.58 -1.49858 0
M  V30 2015 H 196.36 3.5983 0.96711 0
M  V30 2016 H 196.473 4.76338 -0.513738 0
M  V30 2017 H 194.837 2.54086 -0.176712 0
M  V30 2018 H 195.62 2.92053 -1.80443 0
M  V30 2019 N 198.065 0.39524 1.52563 0
M  V30 2020 C 199.313 -0.184678 2.01254 0
M  V30 2021 C 199.634 -1.46822 1.28329 0
M  V30 2022 O 198.904 -1.91666 0.405094 0
M  V30 2023 H 197.484 -0.0712355 0.743596 0
M  V30 2024 H 200.146 0.528293 1.87603 0
M  V30 2025 H 199.242 -0.390681 3.09645 0
M  V30 2026 N 199.544 -1.57102 0.125237 0
M  V30 2027 C 200.474 -2.18659 -0.819174 0
M  V30 2028 C 201.455 -1.12843 -1.27281 0
M  V30 2029 O 202.64 -1.41104 -1.33429 0
M  V30 2030 C 199.77 -2.79096 -2.06695 0
M  V30 2031 C 198.724 -3.90548 -1.75088 0
M  V30 2032 C 198.05 -4.37821 -3.06948 0
M  V30 2033 C 199.35 -5.12356 -1.01435 0
M  V30 2034 H 201.044 -2.9783 -0.306202 0
M  V30 2035 H 198.59 -1.4326 -0.145839 0
M  V30 2036 H 200.543 -3.2082 -2.73226 0
M  V30 2037 H 199.267 -1.97223 -2.60328 0
M  V30 2038 H 197.926 -3.49409 -1.10944 0
M  V30 2039 H 197.574 -3.52799 -3.58527 0
M  V30 2040 H 197.274 -5.12982 -2.86571 0
M  V30 2041 H 198.798 -4.822 -3.74587 0
M  V30 2042 H 200.212 -5.5106 -1.58132 0
M  V30 2043 H 198.609 -5.9314 -0.911319 0
M  V30 2044 H 199.679 -4.849 -0.00218681 0
M  V30 2045 N 201.022 0.148545 -1.56898 0
M  V30 2046 C 201.969 1.18345 -1.98149 0
M  V30 2047 C 202.939 1.42772 -0.848848 0
M  V30 2048 O 204.124 1.55132 -1.11079 0
M  V30 2049 C 201.264 2.51231 -2.36594 0
M  V30 2050 C 200.377 2.33991 -3.63142 0
M  V30 2051 C 199.512 3.59902 -3.90697 0
M  V30 2052 C 198.551 3.37692 -5.1052 0
M  V30 2053 N 197.688 4.5573 -5.34092 0
M  V30 2054 H 202.528 0.82467 -2.86362 0
M  V30 2055 H 200.065 0.395756 -1.41676 0
M  V30 2056 H 202.023 3.28713 -2.56912 0
M  V30 2057 H 200.653 2.85059 -1.51463 0
M  V30 2058 H 199.705 1.47572 -3.50609 0
M  V30 2059 H 201.017 2.13539 -4.5078 0
M  V30 2060 H 200.171 4.45813 -4.11505 0
M  V30 2061 H 198.91 3.83357 -3.01477 0
M  V30 2062 H 197.915 2.5017 -4.89587 0
M  V30 2063 H 199.14 3.15637 -6.0129 0
M  V30 2064 H 197.086 4.79361 -4.47827 0
M  V30 2065 H 197.003 4.38274 -6.15996 0
M  V30 2066 H 198.271 5.42858 -5.59397 0
M  V30 2067 N 202.5 1.5196 0.417844 0
M  V30 2068 C 203.447 1.74678 1.50852 0
M  V30 2069 C 204.417 0.588947 1.55308 0
M  V30 2070 O 205.602 0.825544 1.72016 0
M  V30 2071 C 202.742 1.89544 2.88387 0
M  V30 2072 C 201.855 3.17166 2.93309 0
M  V30 2073 C 200.99 3.22513 4.22088 0
M  V30 2074 C 200.029 4.44372 4.20951 0
M  V30 2075 N 199.166 4.47161 5.41287 0
M  V30 2076 H 204.006 2.67768 1.30783 0
M  V30 2077 H 201.543 1.32689 0.63498 0
M  V30 2078 H 203.501 1.96146 3.68216 0
M  V30 2079 H 202.131 0.998424 3.06971 0
M  V30 2080 H 201.183 3.19778 2.06024 0
M  V30 2081 H 202.495 4.07021 2.88332 0
M  V30 2082 H 201.649 3.28139 5.10303 0
M  V30 2083 H 200.388 2.30581 4.29748 0
M  V30 2084 H 199.393 4.38902 3.31127 0
M  V30 2085 H 200.618 5.3759 4.14938 0
M  V30 2086 H 198.564 3.58108 5.49632 0
M  V30 2087 H 198.481 5.3085 5.3827 0
M  V30 2088 H 199.749 4.57005 6.3148 0
M  V30 2089 N 203.978 -0.674533 1.42435 0
M  V30 2090 C 205.203 -1.46784 1.46524 0
M  V30 2091 C 205.628 -1.87938 0.078066 0
M  V30 2092 O 204.986 -1.56014 -0.92354 0
M  V30 2093 C 205.034 -2.69307 2.39805 0
M  V30 2094 O 204.138 -3.67587 1.86959 0
M  V30 2095 H 203.479 -0.440959 0.496439 0
M  V30 2096 H 206.009 -0.827326 1.87127 0
M  V30 2097 H 206.019 -3.17374 2.56393 0
M  V30 2098 H 204.694 -2.38692 3.40586 0
M  V30 2099 H 203.271 -3.2662 1.79927 0
M  V30 2100 N 205.456 -1.28612 -0.910864 0
M  V30 2101 C 206.872 -1.06381 -1.18976 0
M  V30 2102 C 207.072 0.191998 -2.00583 0
M  V30 2103 O 206.128 0.892869 -2.36187 0
M  V30 2104 C 207.441 -2.31295 -1.92154 0
M  V30 2105 C 208.989 -2.36503 -2.05025 0
M  V30 2106 C 209.464 -3.61191 -2.81612 0
M  V30 2107 N 210.955 -3.61847 -2.89172 0
M  V30 2108 C 211.69 -4.55004 -3.4894 0
M  V30 2109 N 211.186 -5.58482 -4.09963 0
M  V30 2110 N 212.979 -4.42594 -3.46506 0
M  V30 2111 H 205.13 -2.09221 -0.366094 0
M  V30 2112 H 207.393 -0.921003 -0.224629 0
M  V30 2113 H 207.099 -3.228 -1.39618 0
M  V30 2114 H 206.973 -2.37934 -2.9269 0
M  V30 2115 H 209.36 -1.45494 -2.5674 0
M  V30 2116 H 209.441 -2.33857 -1.03657 0
M  V30 2117 H 209.085 -4.52545 -2.30576 0
M  V30 2118 H 209.015 -3.61092 -3.83302 0
M  V30 2119 H 211.506 -2.87022 -2.45819 0
M  V30 2120 H 211.819 -6.25704 -4.53557 0
M  V30 2121 H 210.164 -5.62305 -4.08459 0
M  V30 2122 H 213.355 -3.60953 -2.98045 0
M  V30 2123 H 213.528 -5.15381 -3.92793 0
M  V30 2124 N 206.934 1.1197 -1.10907 0
M  V30 2125 C 207.867 2.16998 -0.706192 0
M  V30 2126 C 208.845 1.59903 0.294897 0
M  V30 2127 O 210.029 1.87513 0.192636 0
M  V30 2128 C 207.156 3.38673 -0.0427664 0
M  V30 2129 C 206.202 4.14414 -1.00811 0
M  V30 2130 S 207.035 4.72079 -2.52789 0
M  V30 2131 C 208.191 5.97083 -1.87731 0
M  V30 2132 H 208.424 2.50837 -1.59587 0
M  V30 2133 H 205.957 1.23508 -0.926555 0
M  V30 2134 H 207.915 4.09142 0.333668 0
M  V30 2135 H 206.576 3.03105 0.823788 0
M  V30 2136 H 205.769 5.016 -0.491259 0
M  V30 2137 H 205.371 3.49678 -1.3267 0
M  V30 2138 H 207.663 6.66599 -1.21044 0
M  V30 2139 H 208.606 6.53403 -2.72892 0
M  V30 2140 H 209.014 5.4837 -1.33979 0
M  V30 2141 N 208.412 0.89855 1.29475 0
M  V30 2142 C 209.637 0.538561 2.00285 0
M  V30 2143 C 210.062 -0.869135 1.66816 0
M  V30 2144 O 209.42 -1.57831 0.892145 0
M  V30 2145 C 209.468 0.736475 3.52999 0
M  V30 2146 O 208.572 -0.211537 4.11857 0
M  V30 2147 H 207.913 0.210563 0.62973 0
M  V30 2148 H 210.443 1.20982 1.64998 0
M  V30 2149 H 210.453 0.640685 4.02938 0
M  V30 2150 H 209.128 1.76276 3.76696 0
M  V30 2151 H 207.705 -0.0682991 3.72837 0
M  V30 2152 N 209.89 -1.43072 0.660911 0
M  V30 2153 C 211.136 -2.02545 0.186337 0
M  V30 2154 C 211.491 -1.51253 -1.18913 0
M  V30 2155 O 210.784 -0.699167 -1.78388 0
M  V30 2156 C 210.978 -3.57103 0.145563 0
M  V30 2157 C 210.807 -4.23393 1.51554 0
M  V30 2158 C 209.577 -4.59144 2.10984 0
M  V30 2159 C 211.775 -4.51897 2.45548 0
M  V30 2160 N 209.757 -5.10545 3.40907 0
M  V30 2161 C 211.128 -5.04698 3.6011 0
M  V30 2162 C 213.183 -4.33872 2.44253 0
M  V30 2163 C 211.886 -5.41371 4.73613 0
M  V30 2164 C 213.912 -4.71612 3.56842 0
M  V30 2165 C 213.274 -5.24553 4.70131 0
M  V30 2166 H 209.373 -0.773823 0.112792 0
M  V30 2167 H 211.957 -1.74137 0.870885 0
M  V30 2168 H 210.128 -3.85059 -0.508353 0
M  V30 2169 H 211.86 -4.03264 -0.340598 0
M  V30 2170 H 208.615 -4.4444 1.63615 0
M  V30 2171 H 209.039 -5.40689 4.07411 0
M  V30 2172 H 213.681 -3.92208 1.579 0
M  V30 2173 H 211.399 -5.81975 5.60652 0
M  V30 2174 H 214.985 -4.59354 3.57051 0
M  V30 2175 H 213.865 -5.53213 5.5581 0
M  V30 2176 N 211.368 -0.403325 -1.52352 0
M  V30 2177 C 212.779 0.0675782 -1.86578 0
M  V30 2178 C 213.13 1.44941 -1.32236 0
M  V30 2179 O 212.255 2.06112 -0.659307 0
M  V30 2180 C 212.85 0.129404 -3.38553 0
M  V30 2181 C 211.409 0.544629 -3.72439 0
M  V30 2182 C 210.556 -0.284551 -2.75836 0
M  V30 2183 H 213.507 -0.620631 -1.46061 0
M  V30 2184 H 213.528 0.94581 -3.68558 0
M  V30 2185 H 213.04 -0.87645 -3.78074 0
M  V30 2186 H 211.141 1.55734 -3.38493 0
M  V30 2187 H 211.254 0.293046 -4.78203 0
M  V30 2188 H 209.618 0.252258 -2.53448 0
M  V30 2189 H 210.401 -1.28865 -3.18196 0
M  V30 2190 N 212.846 1.57033 -0.133567 0
M  V30 2191 C 214.071 2.00475 0.531477 0
M  V30 2192 C 214.496 1.01291 1.58499 0
M  V30 2193 O 213.854 -0.0133279 1.81295 0
M  V30 2194 C 213.902 3.42729 1.12113 0
M  V30 2195 O 213.006 3.46498 2.23636 0
M  V30 2196 H 212.347 0.650876 0.131362 0
M  V30 2197 H 214.877 2.03344 -0.22634 0
M  V30 2198 H 214.887 3.81246 1.4531 0
M  V30 2199 H 213.562 4.14428 0.349557 0
M  V30 2200 H 212.139 3.19811 1.91769 0
M  V30 2201 N 214.325 -0.140222 1.56975 0
M  V30 2202 C 215.55 -0.870414 1.88251 0
M  V30 2203 C 215.975 -1.73637 0.723312 0
M  V30 2204 O 215.333 -1.78329 -0.32689 0
M  V30 2205 C 215.381 -1.69737 3.18154 0
M  V30 2206 O 214.485 -2.80229 3.02565 0
M  V30 2207 H 213.826 -0.242025 0.61832 0
M  V30 2208 H 216.356 -0.128999 2.04193 0
M  V30 2209 H 216.366 -2.09099 3.50345 0
M  V30 2210 H 215.041 -1.06152 4.02125 0
M  V30 2211 H 213.618 -2.44224 2.81796 0
M  V30 2212 N 215.803 -1.52179 -0.40978 0
M  V30 2213 C 217.05 -1.66206 -1.15679 0
M  V30 2214 C 217.378 -0.391674 -1.90516 0
M  V30 2215 O 216.633 0.62533 -1.8544 0
M  V30 2216 C 216.932 -2.83428 -2.17723 0
M  V30 2217 C 216.598 -4.21672 -1.59699 0
M  V30 2218 C 215.26 -4.59274 -1.43599 0
M  V30 2219 C 217.612 -5.07825 -1.17317 0
M  V30 2220 C 214.94 -5.80709 -0.836328 0
M  V30 2221 C 217.292 -6.29864 -0.587691 0
M  V30 2222 C 215.956 -6.66216 -0.413818 0
M  V30 2223 H 215.226 -0.608192 -0.423301 0
M  V30 2224 H 217.873 -1.86279 -0.444097 0
M  V30 2225 H 216.178 -2.57687 -2.95135 0
M  V30 2226 H 217.875 -2.91477 -2.75394 0
M  V30 2227 H 214.465 -3.9204 -1.73213 0
M  V30 2228 H 218.649 -4.79359 -1.28565 0
M  V30 2229 H 213.905 -6.07498 -0.689626 0
M  V30 2230 H 218.079 -6.95948 -0.250894 0
M  V30 2231 H 215.706 -7.60182 0.0529471 0
M  V30 2232 N 217.281 0.66697 -1.42791 0
M  V30 2233 C 218.213 1.7925 -1.42836 0
M  V30 2234 C 219.226 1.59496 -0.326333 0
M  V30 2235 O 220.415 1.6847 -0.589916 0
M  V30 2236 C 217.515 3.16476 -1.21229 0
M  V30 2237 C 216.688 3.63011 -2.44013 0
M  V30 2238 C 215.747 4.78993 -2.17834 0
M  V30 2239 O 214.773 4.89137 -2.91091 0
M  V30 2240 N 215.975 5.68248 -1.18635 0
M  V30 2241 H 218.74 1.79695 -2.39854 0
M  V30 2242 H 216.301 0.850338 -1.37771 0
M  V30 2243 H 218.293 3.91734 -1.01621 0
M  V30 2244 H 216.863 3.10884 -0.32706 0
M  V30 2245 H 216.083 2.78346 -2.79137 0
M  V30 2246 H 217.371 3.90845 -3.25757 0
M  V30 2247 H 216.769 5.62712 -0.580615 0
M  V30 2248 H 215.326 6.43285 -1.05013 0
M  V30 2249 N 218.759 1.29093 0.90403 0
M  V30 2250 C 220.007 1.16583 1.65085 0
M  V30 2251 C 220.328 -0.283933 1.92922 0
M  V30 2252 O 219.598 -1.19509 1.55224 0
M  V30 2253 H 218.178 0.428467 0.611903 0
M  V30 2254 H 220.84 1.61959 1.08422 0
M  V30 2255 H 219.936 1.71266 2.6091 0
M  V30 2256 N 220.237 -1.11381 1.11499 0
M  V30 2257 C 221.167 -2.19509 0.796125 0
M  V30 2258 C 222.148 -1.68458 -0.235796 0
M  V30 2259 O 223.333 -1.93947 -0.0991344 0
M  V30 2260 C 220.463 -3.46475 0.239205 0
M  V30 2261 C 219.417 -4.10744 1.20307 0
M  V30 2262 C 218.743 -5.32293 0.50683 0
M  V30 2263 C 220.043 -4.55597 2.55399 0
M  V30 2264 H 221.737 -2.46439 1.70024 0
M  V30 2265 H 219.283 -1.18446 0.818935 0
M  V30 2266 H 221.236 -4.214 0.00392006 0
M  V30 2267 H 219.96 -3.19006 -0.700206 0
M  V30 2268 H 218.619 -3.37813 1.42399 0
M  V30 2269 H 218.267 -5.01095 -0.437408 0
M  V30 2270 H 217.967 -5.76243 1.1497 0
M  V30 2271 H 219.491 -6.09956 0.280351 0
M  V30 2272 H 220.905 -5.21841 2.37391 0
M  V30 2273 H 219.302 -5.10363 3.15673 0
M  V30 2274 H 220.372 -3.69013 3.14575 0
M  V30 2275 N 221.715 -0.905404 -1.28997 0
M  V30 2276 C 223.131 -0.60233 -1.47798 0
M  V30 2277 C 223.331 0.854645 -1.82478 0
M  V30 2278 O 222.387 1.63439 -1.92468 0
M  V30 2279 C 223.7 -1.53306 -2.58685 0
M  V30 2280 C 225.248 -1.53887 -2.72558 0
M  V30 2281 C 225.723 -2.45602 -3.86579 0
M  V30 2282 N 227.214 -2.43681 -3.93921 0
M  V30 2283 C 227.949 -3.11347 -4.81509 0
M  V30 2284 N 227.445 -3.88313 -5.73746 0
M  V30 2285 N 229.238 -3.00476 -4.75048 0
M  V30 2286 H 221.389 -1.84765 -1.04764 0
M  V30 2287 H 223.652 -0.792025 -0.520961 0
M  V30 2288 H 223.358 -2.57141 -2.39941 0
M  V30 2289 H 223.232 -1.25787 -3.55609 0
M  V30 2290 H 225.619 -0.507941 -2.90696 0
M  V30 2291 H 225.7 -1.85447 -1.76191 0
M  V30 2292 H 225.344 -3.48792 -3.69197 0
M  V30 2293 H 225.274 -2.11349 -4.82327 0
M  V30 2294 H 227.765 -1.87767 -3.27951 0
M  V30 2295 H 228.078 -4.36985 -6.37389 0
M  V30 2296 H 226.423 -3.92419 -5.73614 0
M  V30 2297 H 229.614 -2.39858 -4.01977 0
M  V30 2298 H 229.787 -3.53485 -5.43095 0
M  V30 2299 N 223.193 1.4272 -0.668489 0
M  V30 2300 C 224.609 1.55992 -0.33745 0
M  V30 2301 C 224.809 1.64933 1.15756 0
M  V30 2302 O 223.865 1.61278 1.94282 0
M  V30 2303 C 225.178 2.81314 -1.06222 0
M  V30 2304 C 226.726 2.95078 -1.04394 0
M  V30 2305 C 227.201 4.23252 -1.74991 0
M  V30 2306 N 228.692 4.3015 -1.71829 0
M  V30 2307 C 229.427 5.28127 -2.23315 0
M  V30 2308 N 228.923 6.32293 -2.83156 0
M  V30 2309 N 230.716 5.19882 -2.13726 0
M  V30 2310 H 222.867 1.3516 -1.63846 0
M  V30 2311 H 225.13 0.650174 -0.689912 0
M  V30 2312 H 224.836 2.80823 -2.11734 0
M  V30 2313 H 224.71 3.72012 -0.62344 0
M  V30 2314 H 227.097 2.951 0.0028244 0
M  V30 2315 H 227.178 2.05627 -1.52155 0
M  V30 2316 H 226.822 4.2399 -2.79633 0
M  V30 2317 H 226.752 5.11626 -1.24685 0
M  V30 2318 H 229.243 3.55499 -1.28175 0
M  V30 2319 H 229.556 7.03398 -3.20079 0
M  V30 2320 H 227.901 6.32873 -2.87223 0
M  V30 2321 H 231.092 4.37423 -1.66669 0
M  V30 2322 H 231.265 5.96077 -2.54158 0
M  V30 2323 N 224.671 0.411399 1.52136 0
M  V30 2324 C 225.918 -0.163645 2.01838 0
M  V30 2325 C 226.246 -1.4495 1.29691 0
M  V30 2326 O 225.501 -1.91725 0.392431 0
M  V30 2327 C 225.8 -0.455872 3.54481 0
M  V30 2328 C 225.466 0.741055 4.44769 0
M  V30 2329 C 224.128 1.06936 4.69167 0
M  V30 2330 C 226.48 1.54075 4.97906 0
M  V30 2331 C 223.808 2.19851 5.43951 0
M  V30 2332 C 226.16 2.66067 5.73926 0
M  V30 2333 C 224.824 2.99381 5.96596 0
M  V30 2334 H 224.094 -0.0598821 0.738576 0
M  V30 2335 H 226.741 0.553283 1.83333 0
M  V30 2336 H 225.046 -1.2544 3.71177 0
M  V30 2337 H 226.743 -0.913802 3.90449 0
M  V30 2338 H 223.333 0.475192 4.25958 0
M  V30 2339 H 227.517 1.30033 4.78963 0
M  V30 2340 H 222.773 2.46006 5.59724 0
M  V30 2341 H 226.947 3.28419 6.14096 0
M  V30 2342 H 224.574 3.86992 6.54325 0
M  V30 2343 N 226.149 -1.5696 0.141893 0
M  V30 2344 C 227.426 -1.87553 -0.555281 0
M  V30 2345 C 227.806 -1.04699 -1.83306 0
M  V30 2346 O 227.154 -0.132346 -2.28116 0
M  V30 2347 C 227.364 -3.39093 -0.825664 0
M  V30 2348 C 228.712 -4.08199 -1.16869 0
M  V30 2349 O 229.736 -3.44242 -0.915185 0
M  V30 2350 O 228.595 -5.21139 -1.6455 0
M  V30 2351 H 225.689 -0.777188 -0.282679 0
M  V30 2352 H 228.235 -1.68763 0.17812 0
M  V30 2353 H 227.007 -3.91221 0.0788633 0
M  V30 2354 H 226.63 -3.63393 -1.61343 0
M  V30 2355 N 227.627 0.131896 -1.57047 0
M  V30 2356 C 228.873 0.843179 -1.84441 0
M  V30 2357 C 229.206 1.80129 -0.725749 0
M  V30 2358 O 228.481 1.92624 0.269469 0
M  V30 2359 C 228.764 1.60442 -3.22382 0
M  V30 2360 C 228.617 0.666782 -4.4483 0
M  V30 2361 C 229.936 2.56354 -3.5773 0
M  V30 2362 H 227.055 0.305081 -0.670891 0
M  V30 2363 H 229.697 0.107839 -1.89694 0
M  V30 2364 H 227.847 2.23128 -3.18035 0
M  V30 2365 H 229.519 0.0497646 -4.61273 0
M  V30 2366 H 227.762 -0.022609 -4.33794 0
M  V30 2367 H 228.433 1.23579 -5.37989 0
M  V30 2368 H 230.909 2.0378 -3.62785 0
M  V30 2369 H 229.785 3.06657 -4.5525 0
M  V30 2370 H 230.046 3.38419 -2.84473 0
M  V30 2371 N 229.106 1.52395 0.401703 0
M  V30 2372 C 230.383 1.57387 1.16141 0
M  V30 2373 C 230.763 0.359359 2.08019 0
M  V30 2374 O 230.111 -0.65326 2.18963 0
M  V30 2375 C 230.321 2.90631 1.93221 0
M  V30 2376 C 231.669 3.43904 2.49028 0
M  V30 2377 O 232.693 2.92421 2.03393 0
M  V30 2378 O 231.552 4.33823 3.32356 0
M  V30 2379 H 228.646 0.634262 0.530698 0
M  V30 2380 H 231.192 1.64725 0.407883 0
M  V30 2381 H 229.964 3.70473 1.25958 0
M  V30 2382 H 229.587 2.8662 2.75563 0
M  V30 2383 N 230.584 -0.659388 1.43143 0
M  V30 2384 C 231.532 -1.79374 1.4808 0
M  V30 2385 C 232.526 -1.65639 0.354988 0
M  V30 2386 O 233.732 -1.7206 0.528704 0
M  V30 2387 H 230.107 -0.591705 0.4641 0
M  V30 2388 H 232.078 -1.72329 2.43609 0
M  V30 2389 C 230.827 -3.17606 1.41499 0
M  V30 2390 H 230.15 -3.28809 2.27431 0
M  V30 2391 H 231.59 -3.96951 1.49015 0
M  V30 2392 C 230.049 -3.36642 0.131765 0
M  V30 2393 O 230.579 -3.93461 -0.809386 0
M  V30 2394 N 228.785 -2.90567 0.0439396 0
M  V30 2395 H 228.332 -2.44513 0.810619 0
M  V30 2396 H 228.29 -3.03681 -0.813969 0
M  V30 2397 N 232.062 -1.29571 -0.897171 0
M  V30 2398 C 233.31 -1.17456 -1.64464 0
M  V30 2399 C 233.631 0.273698 -1.9307 0
M  V30 2400 O 232.901 1.18684 -1.55855 0
M  V30 2401 H 231.481 -0.431706 -0.609622 0
M  V30 2402 H 234.143 -1.62531 -1.07562 0
M  V30 2403 H 233.239 -1.72648 -2.59998 0
M  V30 2404 N 233.54 1.10788 -1.12088 0
M  V30 2405 C 234.768 1.86461 -0.896651 0
M  V30 2406 C 235.183 1.80492 0.553912 0
M  V30 2407 O 234.54 1.19102 1.38278 0
M  V30 2408 C 234.591 3.35006 -1.35843 0
M  V30 2409 O 234.312 3.40866 -2.75213 0
M  V30 2410 C 235.813 4.27565 -1.1706 0
M  V30 2411 H 233.033 0.589425 -0.320654 0
M  V30 2412 H 235.577 1.40076 -1.48993 0
M  V30 2413 H 233.732 3.7887 -0.808458 0
M  V30 2414 H 234.146 4.33411 -2.9539 0
M  V30 2415 H 235.62 5.30007 -1.54263 0
M  V30 2416 H 236.097 4.3906 -0.110814 0
M  V30 2417 H 236.703 3.89501 -1.70789 0
M  V30 2418 N 235.018 0.912232 1.28515 0
M  V30 2419 C 236.243 0.559774 1.99703 0
M  V30 2420 C 236.668 -0.851393 1.67729 0
M  V30 2421 O 236.026 -1.56875 0.908834 0
M  V30 2422 C 236.074 0.773874 3.52198 0
M  V30 2423 O 235.178 -0.167842 4.12058 0
M  V30 2424 H 234.519 0.21723 0.627461 0
M  V30 2425 H 237.049 1.22725 1.63706 0
M  V30 2426 H 237.059 0.683386 4.02236 0
M  V30 2427 H 235.734 1.80261 3.74805 0
M  V30 2428 H 234.311 -0.0287509 3.72889 0
M  V30 2429 N 236.496 -1.42363 0.676048 0
M  V30 2430 C 237.459 -2.29199 0.00766941 0
M  V30 2431 C 238.459 -1.43389 -0.727745 0
M  V30 2432 O 239.649 -1.64764 -0.56556 0
M  V30 2433 C 236.781 -3.2591 -0.999785 0
M  V30 2434 H 237.974 -2.89794 0.771988 0
M  V30 2435 H 235.527 -1.50024 0.438468 0
M  V30 2436 H 236.262 -2.70256 -1.79255 0
M  V30 2437 H 236.047 -3.89202 -0.475829 0
M  V30 2438 H 237.537 -3.91028 -1.46583 0
M  V30 2439 N 237.974 -0.419461 -1.51915 0
M  V30 2440 C 239.222 0.152637 -2.01523 0
M  V30 2441 C 239.543 1.44762 -1.30649 0
M  V30 2442 O 238.813 1.90997 -0.435535 0
M  V30 2443 H 237.393 0.0593966 -0.744635 0
M  V30 2444 H 240.055 -0.558073 -1.86739 0
M  V30 2445 H 239.151 0.341369 -3.10227 0
M  V30 2446 N 239.452 1.56882 -0.150215 0
M  V30 2447 C 240.868 1.58263 0.20617 0
M  V30 2448 C 241.068 1.16464 1.64434 0
M  V30 2449 O 240.124 0.866422 2.3717 0
M  V30 2450 C 241.437 3.00649 -0.0555025 0
M  V30 2451 C 242.985 3.12999 0.00795388 0
M  V30 2452 C 243.46 4.5744 -0.226429 0
M  V30 2453 N 244.951 4.62875 -0.173469 0
M  V30 2454 C 245.686 5.72454 -0.329288 0
M  V30 2455 N 245.182 6.90669 -0.543005 0
M  V30 2456 N 246.975 5.61467 -0.266666 0
M  V30 2457 H 239.126 1.82345 -1.08922 0
M  V30 2458 H 241.389 0.844149 -0.431413 0
M  V30 2459 H 241.095 3.3563 -1.05096 0
M  V30 2460 H 240.969 3.71337 0.66246 0
M  V30 2461 H 243.356 2.77857 0.993966 0
M  V30 2462 H 243.437 2.4479 -0.742388 0
M  V30 2463 H 243.081 4.93287 -1.20956 0
M  V30 2464 H 243.011 5.2378 0.544274 0
M  V30 2465 H 245.502 3.77898 -0.0130709 0
M  V30 2466 H 245.815 7.70045 -0.651922 0
M  V30 2467 H 244.16 6.92581 -0.579366 0
M  V30 2468 H 247.351 4.67992 -0.100441 0
M  V30 2469 H 247.524 6.46816 -0.391535 0
M  V30 2470 N 240.93 -0.123565 1.57115 0
M  V30 2471 C 242.155 -0.850398 1.89164 0
M  V30 2472 C 242.58 -1.7286 0.741688 0
M  V30 2473 O 241.938 -1.78665 -0.307958 0
M  V30 2474 C 241.986 -1.66353 3.19936 0
M  V30 2475 O 241.09 -2.77004 3.0552 0
M  V30 2476 H 240.431 -0.235454 0.620852 0
M  V30 2477 H 242.961 -0.107335 2.04318 0
M  V30 2478 H 242.971 -2.05372 3.52543 0
M  V30 2479 H 241.646 -1.01881 4.03228 0
M  V30 2480 H 240.223 -2.41221 2.84371 0
M  V30 2481 N 242.408 -1.52605 -0.393616 0
M  V30 2482 C 243.819 -1.59417 -0.971761 0
M  V30 2483 C 244.17 -0.444173 -1.91106 0
M  V30 2484 O 243.295 0.433382 -2.12016 0
M  V30 2485 C 243.89 -2.88936 -1.76921 0
M  V30 2486 C 242.449 -2.98175 -2.29714 0
M  V30 2487 C 241.596 -2.54491 -1.10135 0
M  V30 2488 H 244.547 -1.57751 -0.173317 0
M  V30 2489 H 244.568 -2.75163 -2.62804 0
M  V30 2490 H 244.08 -3.72616 -1.08532 0
M  V30 2491 H 242.181 -2.19024 -3.01429 0
M  V30 2492 H 242.294 -4.02726 -2.59517 0
M  V30 2493 H 240.658 -2.08702 -1.45999 0
M  V30 2494 H 241.441 -3.4056 -0.432874 0
M  V30 2495 N 243.887 0.651787 -1.4349 0
M  V30 2496 C 244.817 1.77621 -1.51569 0
M  V30 2497 C 245.798 1.66022 -0.370253 0
M  V30 2498 O 246.983 1.85095 -0.587658 0
M  V30 2499 C 244.113 3.16056 -1.43966 0
M  V30 2500 C 243.067 3.4242 -2.56774 0
M  V30 2501 C 242.393 4.8067 -2.34223 0
M  V30 2502 C 243.693 3.37023 -3.99015 0
M  V30 2503 H 245.387 1.71117 -2.45681 0
M  V30 2504 H 242.933 0.821825 -1.18246 0
M  V30 2505 H 244.886 3.94472 -1.48221 0
M  V30 2506 H 243.61 3.23293 -0.463586 0
M  V30 2507 H 242.269 2.66375 -2.51873 0
M  V30 2508 H 241.917 4.84585 -1.34856 0
M  V30 2509 H 241.617 4.9927 -3.09844 0
M  V30 2510 H 243.141 5.61342 -2.40265 0
M  V30 2511 H 244.555 4.05374 -4.05395 0
M  V30 2512 H 242.952 3.67159 -4.74673 0
M  V30 2513 H 244.022 2.3518 -4.2405 0
M  V30 2514 N 245.365 1.30045 0.890287 0
M  V30 2515 C 246.642 1.09227 1.62262 0
M  V30 2516 C 247.022 -0.360305 2.08002 0
M  V30 2517 O 246.37 -1.35084 1.84295 0
M  V30 2518 C 246.58 2.08835 2.79623 0
M  V30 2519 C 247.928 2.40266 3.50082 0
M  V30 2520 O 248.952 2.07104 2.89804 0
M  V30 2521 O 247.811 2.96967 4.58773 0
M  V30 2522 H 244.905 0.419132 0.712922 0
M  V30 2523 H 247.451 1.41451 0.937529 0
M  V30 2524 H 246.223 3.06633 2.43089 0
M  V30 2525 H 245.846 1.77397 3.55832 0
M  V30 2526 N 246.843 -1.10192 1.12674 0
M  V30 2527 C 248.254 -1.63707 0.897604 0
M  V30 2528 C 248.605 -1.87812 -0.567546 0
M  V30 2529 O 247.73 -1.62196 -1.43253 0
M  V30 2530 C 248.325 -2.974 1.62292 0
M  V30 2531 C 246.884 -3.47772 1.43986 0
M  V30 2532 C 246.031 -2.22332 1.65722 0
M  V30 2533 H 248.982 -0.936587 1.28116 0
M  V30 2534 H 249.003 -3.64986 1.07541 0
M  V30 2535 H 248.515 -2.79824 2.68924 0
M  V30 2536 H 246.616 -3.70487 0.396206 0
M  V30 2537 H 246.729 -4.25723 2.19765 0
M  V30 2538 H 245.093 -2.30599 1.08149 0
M  V30 2539 H 245.876 -2.07285 2.73657 0
M  V30 2540 N 248.321 -0.919034 -1.28029 0
M  V30 2541 C 249.254 -0.355887 -2.25408 0
M  V30 2542 C 250.232 0.542874 -1.5327 0
M  V30 2543 O 251.416 0.485338 -1.82145 0
M  V30 2544 C 248.543 0.490759 -3.35126 0
M  V30 2545 C 247.589 -0.343358 -4.25116 0
M  V30 2546 S 248.422 -1.75344 -5.05979 0
M  V30 2547 C 249.578 -0.914244 -6.19187 0
M  V30 2548 H 249.811 -1.18123 -2.72826 0
M  V30 2549 H 247.344 -0.720636 -1.36551 0
M  V30 2550 H 249.302 0.973404 -3.98792 0
M  V30 2551 H 247.963 1.29054 -2.86363 0
M  V30 2552 H 247.156 0.304266 -5.03081 0
M  V30 2553 H 246.758 -0.759851 -3.662 0
M  V30 2554 H 249.05 -0.146282 -6.77342 0
M  V30 2555 H 249.993 -1.66661 -6.88208 0
M  V30 2556 H 250.401 -0.460082 -5.62622 0
M  V30 2557 N 249.799 1.42003 -0.683588 0
M  V30 2558 C 251.027 2.05746 -0.218182 0
M  V30 2559 C 251.442 1.51396 1.12804 0
M  V30 2560 O 250.799 0.657303 1.70252 0
M  V30 2561 C 250.85 3.61171 -0.154131 0
M  V30 2562 O 250.571 4.13508 -1.44716 0
M  V30 2563 C 252.072 4.42042 0.333713 0
M  V30 2564 H 249.292 0.662888 -0.10402 0
M  V30 2565 H 251.836 1.81987 -0.9328 0
M  V30 2566 H 249.991 3.84012 0.511231 0
M  V30 2567 H 250.405 5.07453 -1.32632 0
M  V30 2568 H 251.879 5.51028 0.327423 0
M  V30 2569 H 252.356 4.17269 1.37053 0
M  V30 2570 H 252.962 4.24239 -0.300222 0
M  V30 2571 N 251.277 0.427512 1.51691 0
M  V30 2572 C 252.502 -0.143601 2.06902 0
M  V30 2573 C 252.927 -1.36536 1.29382 0
M  V30 2574 O 252.285 -1.78289 0.329043 0
M  V30 2575 C 252.333 -0.454207 3.57728 0
M  V30 2576 O 251.437 -1.54228 3.82475 0
M  V30 2577 H 250.778 -0.00617128 0.663971 0
M  V30 2578 H 253.308 0.606014 1.95419 0
M  V30 2579 H 253.318 -0.707525 4.01818 0
M  V30 2580 H 251.993 0.438812 4.13579 0
M  V30 2581 H 250.57 -1.2797 3.50254 0
M  V30 2582 N 252.755 -1.56801 0.158532 0
M  V30 2583 C 254.166 -1.83189 -0.360366 0
M  V30 2584 C 254.517 -1.07778 -1.63946 0
M  V30 2585 O 253.642 -0.326718 -2.13919 0
M  V30 2586 C 254.237 -3.32297 -0.660595 0
M  V30 2587 C 252.796 -3.59227 -1.12398 0
M  V30 2588 C 251.943 -2.76877 -0.153097 0
M  V30 2589 H 254.894 -1.54008 0.383031 0
M  V30 2590 H 254.915 -3.4908 -1.51405 0
M  V30 2591 H 254.427 -3.87156 0.270527 0
M  V30 2592 H 252.528 -3.09766 -2.07064 0
M  V30 2593 H 252.641 -4.67632 -1.04197 0
M  V30 2594 H 251.005 -2.46319 -0.647983 0
M  V30 2595 H 251.788 -3.34511 0.77182 0
M  V30 2596 N 254.233 0.115231 -1.57178 0
M  V30 2597 C 255.481 0.820727 -1.84685 0
M  V30 2598 C 255.802 1.80237 -0.744279 0
M  V30 2599 O 255.072 1.94529 0.231375 0
M  V30 2600 H 253.652 0.306084 -0.681411 0
M  V30 2601 H 256.314 0.101656 -1.94635 0
M  V30 2602 H 255.41 1.36366 -2.80733 0
M  V30 2603 N 255.711 1.52812 0.385517 0
M  V30 2604 C 256.936 1.72207 1.15583 0
M  V30 2605 C 257.361 0.441034 1.82857 0
M  V30 2606 O 256.719 -0.603465 1.70962 0
M  V30 2607 C 256.767 2.87476 2.17692 0
M  V30 2608 O 255.871 2.54693 3.24354 0
M  V30 2609 H 255.212 0.572526 0.336319 0
M  V30 2610 H 257.742 1.99618 0.448744 0
M  V30 2611 H 257.752 3.13072 2.6163 0
M  V30 2612 H 256.427 3.80408 1.68115 0
M  V30 2613 H 255.004 2.3985 2.85529 0
M  V30 2614 N 257.189 -0.644168 1.43834 0
M  V30 2615 C 258.437 -1.40117 1.45642 0
M  V30 2616 C 258.758 -1.94814 0.0852413 0
M  V30 2617 O 258.028 -1.74988 -0.880688 0
M  V30 2618 H 256.608 -0.52005 0.536243 0
M  V30 2619 H 259.27 -0.7591 1.7951 0
M  V30 2620 H 258.366 -2.23902 2.17427 0
M  V30 2621 N 258.668 -1.30515 -0.883378 0
M  V30 2622 C 259.598 -1.19607 -2.00541 0
M  V30 2623 C 260.579 -0.086346 -1.69881 0
M  V30 2624 O 261.764 -0.268654 -1.92333 0
M  V30 2625 C 258.894 -0.888758 -3.35736 0
M  V30 2626 C 257.848 -1.95659 -3.8066 0
M  V30 2627 C 257.174 -1.50224 -5.13164 0
M  V30 2628 C 258.474 -3.36788 -3.99213 0
M  V30 2629 H 260.168 -2.13476 -2.09925 0
M  V30 2630 H 257.714 -1.02775 -1.00863 0
M  V30 2631 H 259.667 -0.799094 -4.13754 0
M  V30 2632 H 258.391 0.0856125 -3.26488 0
M  V30 2633 H 257.05 -2.03591 -3.04871 0
M  V30 2634 H 256.698 -0.516092 -5.00345 0
M  V30 2635 H 256.398 -2.2165 -5.44192 0
M  V30 2636 H 257.922 -1.42639 -5.93706 0
M  V30 2637 H 259.336 -3.31605 -4.67665 0
M  V30 2638 H 257.733 -4.06314 -4.41621 0
M  V30 2639 H 258.803 -3.78561 -3.03017 0
M  V30 2640 N 260.146 1.09593 -1.13257 0
M  V30 2641 C 261.395 1.81105 -0.887917 0
M  V30 2642 C 261.708 1.86563 0.587672 0
M  V30 2643 O 262.914 2.54367 0.949204 0
M  V30 2644 C 261.37 3.25338 -1.53895 0
M  V30 2645 C 260.978 3.28151 -3.04994 0
M  V30 2646 C 262.722 4.01617 -1.37492 0
M  V30 2647 C 260.629 4.66897 -3.6299 0
M  V30 2648 H 259.559 0.678661 -0.328534 0
M  V30 2649 H 262.21 1.23183 -1.36008 0
M  V30 2650 H 260.592 3.8331 -0.994446 0
M  V30 2651 H 261.766 2.79953 -3.66009 0
M  V30 2652 H 260.081 2.65361 -3.20893 0
M  V30 2653 H 262.678 5.04119 -1.78235 0
M  V30 2654 H 263.021 4.15072 -0.31957 0
M  V30 2655 H 263.554 3.50082 -1.88912 0
M  V30 2656 H 260.293 4.58643 -4.68323 0
M  V30 2657 H 259.813 5.15426 -3.06752 0
M  V30 2658 H 261.492 5.3587 -3.62563 0
M  V30 2659 N 261.624 0.925811 1.2754 0
M  V30 2660 C 262.554 0.440748 2.29303 0
M  V30 2661 C 263.535 -0.497971 1.62648 0
M  V30 2662 O 264.72 -0.403126 1.8997 0
M  V30 2663 C 261.85 -0.309048 3.45922 0
M  V30 2664 C 260.804 0.54166 4.24559 0
M  V30 2665 C 260.13 -0.337191 5.33636 0
M  V30 2666 C 261.43 1.80516 4.90114 0
M  V30 2667 H 263.124 1.29121 2.70126 0
M  V30 2668 H 260.67 0.622323 1.29858 0
M  V30 2669 H 262.623 -0.659315 4.1621 0
M  V30 2670 H 261.347 -1.19352 3.04011 0
M  V30 2671 H 260.006 0.874609 3.56014 0
M  V30 2672 H 259.654 -1.22056 4.87966 0
M  V30 2673 H 259.354 0.228497 5.87156 0
M  V30 2674 H 260.878 -0.683072 6.06767 0
M  V30 2675 H 262.292 1.52307 5.52698 0
M  V30 2676 H 260.689 2.3142 5.53683 0
M  V30 2677 H 261.759 2.52581 4.13921 0
M  V30 2678 N 263.102 -1.41638 0.69111 0
M  V30 2679 C 264.034 -2.29194 -0.0161523 0
M  V30 2680 C 265.047 -1.44549 -0.748955 0
M  V30 2681 O 266.236 -1.681 -0.6004 0
M  V30 2682 C 263.336 -3.22325 -1.0469 0
M  V30 2683 C 262.509 -4.35706 -0.384621 0
M  V30 2684 C 261.568 -5.09443 -1.31737 0
M  V30 2685 O 260.594 -5.63386 -0.811451 0
M  V30 2686 N 261.796 -5.16487 -2.64993 0
M  V30 2687 H 264.561 -2.90534 0.735523 0
M  V30 2688 H 262.122 -1.52742 0.53679 0
M  V30 2689 H 264.114 -3.68522 -1.67252 0
M  V30 2690 H 262.684 -2.62323 -1.70015 0
M  V30 2691 H 261.904 -3.91948 0.420804 0
M  V30 2692 H 263.192 -5.08743 0.0760765 0
M  V30 2693 H 262.59 -4.741 -3.08619 0
M  V30 2694 H 261.147 -5.66276 -3.22761 0
M  V30 2695 N 264.58 -0.43555 -1.51462 0
M  V30 2696 C 265.543 0.365137 -2.26273 0
M  V30 2697 C 266.543 0.951227 -1.29647 0
M  V30 2698 O 267.733 0.825958 -1.53374 0
M  V30 2699 C 264.865 1.51645 -3.05314 0
M  V30 2700 H 266.058 -0.290474 -2.9849 0
M  V30 2701 H 263.611 -0.188676 -1.55157 0
M  V30 2702 H 264.346 2.20816 -2.3751 0
M  V30 2703 H 264.131 1.10238 -3.76284 0
M  V30 2704 H 265.621 2.08218 -3.61987 0
M  V30 2705 N 266.058 1.56714 -0.166846 0
M  V30 2706 C 267.006 2.19056 0.782123 0
M  V30 2707 C 268 1.15328 1.24079 0
M  V30 2708 O 269.206 1.33537 1.20697 0
M  V30 2709 H 265.581 0.70167 0.270486 0
M  V30 2710 H 267.552 2.97494 0.232322 0
M  V30 2711 C 266.301 2.84206 2.00306 0
M  V30 2712 H 265.624 3.63748 1.65914 0
M  V30 2713 H 267.064 3.31302 2.64604 0
M  V30 2714 C 265.523 1.83744 2.82382 0
M  V30 2715 O 266.053 1.32014 3.79388 0
M  V30 2716 N 264.259 1.52601 2.47308 0
M  V30 2717 H 263.806 1.9486 1.68485 0
M  V30 2718 H 263.764 0.856351 3.02513 0
M  V30 2719 N 267.536 -0.106894 1.57237 0
M  V30 2720 C 268.783 -0.812526 1.85484 0
M  V30 2721 C 269.111 -1.79304 0.753687 0
M  V30 2722 O 268.366 -1.94047 -0.253853 0
M  V30 2723 C 268.665 -1.58628 3.20268 0
M  V30 2724 C 268.331 -0.748967 4.44636 0
M  V30 2725 C 266.993 -0.518104 4.78403 0
M  V30 2726 C 269.345 -0.166122 5.20935 0
M  V30 2727 C 266.673 0.305659 5.85903 0
M  V30 2728 C 269.025 0.644899 6.29304 0
M  V30 2729 C 267.689 0.885965 6.61594 0
M  V30 2730 H 266.959 -0.297324 0.678734 0
M  V30 2731 H 269.606 -0.0744332 1.91355 0
M  V30 2732 H 267.911 -2.39562 3.10028 0
M  V30 2733 H 269.608 -2.13643 3.39349 0
M  V30 2734 H 266.198 -0.939006 4.18187 0
M  V30 2735 H 270.382 -0.33167 4.95191 0
M  V30 2736 H 265.638 0.501528 6.0934 0
M  V30 2737 H 269.812 1.10345 6.87602 0
M  V30 2738 H 267.439 1.52609 7.44725 0
M  V30 2739 N 269.014 -1.53014 -0.377408 0
M  V30 2740 C 270.26 -1.68872 -1.12294 0
M  V30 2741 C 270.593 -0.433224 -1.89306 0
M  V30 2742 O 269.868 0.569258 -1.85983 0
M  V30 2743 C 270.151 -2.93115 -2.09179 0
M  V30 2744 C 270.004 -4.28794 -1.35853 0
M  V30 2745 C 271.323 -3.12928 -3.09458 0
M  V30 2746 H 268.442 -0.614518 -0.406862 0
M  V30 2747 H 271.084 -1.85633 -0.40503 0
M  V30 2748 H 269.234 -2.78956 -2.70399 0
M  V30 2749 H 270.906 -4.54742 -0.775082 0
M  V30 2750 H 269.149 -4.28744 -0.660364 0
M  V30 2751 H 269.82 -5.11837 -2.06706 0
M  V30 2752 H 272.296 -3.26194 -2.58334 0
M  V30 2753 H 271.172 -4.01316 -3.74482 0
M  V30 2754 H 271.433 -2.27669 -3.78971 0
M  V30 2755 N 270.492 0.636531 -1.44174 0
M  V30 2756 C 271.442 1.74233 -1.47061 0
M  V30 2757 C 272.426 1.57331 -0.337034 0
M  V30 2758 O 273.618 1.67159 -0.581973 0
M  V30 2759 C 270.747 3.12897 -1.41246 0
M  V30 2760 C 269.833 3.35288 -2.59698 0
M  V30 2761 N 270.224 3.2807 -3.84972 0
M  V30 2762 C 268.522 3.66065 -2.54778 0
M  V30 2763 C 269.223 3.51001 -4.63867 0
M  V30 2764 N 268.199 3.73616 -3.94857 0
M  V30 2765 H 272.001 1.67103 -2.41773 0
M  V30 2766 H 269.515 0.838806 -1.3906 0
M  V30 2767 H 271.512 3.92189 -1.41398 0
M  V30 2768 H 270.172 3.21197 -0.47569 0
M  V30 2769 H 271.183 3.07109 -4.17019 0
M  V30 2770 H 267.86 3.81379 -1.6987 0
M  V30 2771 H 269.25 3.51059 -5.72894 0
M  V30 2772 N 271.97 1.30982 0.876444 0
M  V30 2773 C 273.195 1.23373 1.66715 0
M  V30 2774 C 273.62 -0.19885 1.87046 0
M  V30 2775 O 272.978 -1.1427 1.40756 0
M  V30 2776 C 273.026 1.97644 3.01611 0
M  V30 2777 O 272.13 1.30935 3.91062 0
M  V30 2778 H 271.471 0.426279 0.509099 0
M  V30 2779 H 274.001 1.72944 1.09323 0
M  V30 2780 H 274.011 2.06992 3.51594 0
M  V30 2781 H 272.686 3.01829 2.86133 0
M  V30 2782 H 271.263 1.29996 3.49507 0
M  V30 2783 N 273.449 -1.08991 1.13837 0
M  V30 2784 C 274.381 -2.15606 0.777612 0
M  V30 2785 C 275.394 -1.61533 -0.202739 0
M  V30 2786 O 276.583 -1.78491 0.0181055 0
M  V30 2787 C 273.683 -3.3864 0.132623 0
M  V30 2788 C 272.856 -4.22115 1.1462 0
M  V30 2789 C 271.915 -5.23564 0.526074 0
M  V30 2790 O 270.941 -5.56678 1.18735 0
M  V30 2791 N 272.143 -5.76266 -0.699866 0
M  V30 2792 H 274.908 -2.47159 1.69506 0
M  V30 2793 H 272.469 -1.24747 1.03198 0
M  V30 2794 H 274.461 -4.03626 -0.29459 0
M  V30 2795 H 273.031 -3.04938 -0.687849 0
M  V30 2796 H 272.251 -3.53199 1.75055 0
M  V30 2797 H 273.539 -4.74709 1.83109 0
M  V30 2798 H 272.937 -5.51585 -1.25581 0
M  V30 2799 H 271.494 -6.42963 -1.06968 0
M  V30 2800 N 274.927 -0.932562 -1.27047 0
M  V30 2801 C 276.343 -0.633544 -1.46487 0
M  V30 2802 C 276.543 0.815746 -1.84249 0
M  V30 2803 O 275.599 1.59319 -1.95892 0
M  V30 2804 C 276.912 -1.58758 -2.55375 0
M  V30 2805 C 278.46 -1.59634 -2.69232 0
M  V30 2806 C 278.935 -2.53747 -3.81283 0
M  V30 2807 N 280.426 -2.51982 -3.88664 0
M  V30 2808 C 281.161 -3.21491 -4.74796 0
M  V30 2809 N 280.657 -4.00395 -5.65381 0
M  V30 2810 N 282.45 -3.10485 -4.68568 0
M  V30 2811 H 274.601 -1.86946 -1.00821 0
M  V30 2812 H 276.864 -0.802897 -0.504044 0
M  V30 2813 H 276.57 -2.62172 -2.34432 0
M  V30 2814 H 276.444 -1.33301 -3.52861 0
M  V30 2815 H 278.831 -0.569488 -2.89553 0
M  V30 2816 H 278.912 -1.89142 -1.72218 0
M  V30 2817 H 278.556 -3.56545 -3.61715 0
M  V30 2818 H 278.486 -2.21532 -4.77735 0
M  V30 2819 H 280.977 -1.94681 -3.23895 0
M  V30 2820 H 281.29 -4.50406 -6.27976 0
M  V30 2821 H 279.635 -4.04498 -5.65161 0
M  V30 2822 H 282.826 -2.48331 -3.96799 0
M  V30 2823 H 282.999 -3.64925 -5.35475 0
M  V30 2824 N 276.405 1.4127 -0.698611 0
M  V30 2825 C 277.821 1.55241 -0.370462 0
M  V30 2826 C 278.021 1.67351 1.12231 0
M  V30 2827 O 277.077 1.65363 1.90818 0
M  V30 2828 C 278.39 2.78997 -1.12165 0
M  V30 2829 C 279.938 2.92797 -1.1063 0
M  V30 2830 C 280.413 4.19445 -1.8393 0
M  V30 2831 N 281.904 4.26409 -1.80914 0
M  V30 2832 C 282.639 5.23271 -2.34467 0
M  V30 2833 N 282.135 6.26145 -2.96504 0
M  V30 2834 N 283.928 5.15232 -2.24706 0
M  V30 2835 H 276.079 1.31654 -1.66676 0
M  V30 2836 H 278.342 0.635393 -0.703548 0
M  V30 2837 H 278.048 2.76268 -2.17644 0
M  V30 2838 H 277.922 3.70606 -0.702209 0
M  V30 2839 H 280.309 2.95039 -0.0597713 0
M  V30 2840 H 280.39 2.02353 -1.56483 0
M  V30 2841 H 280.034 4.17964 -2.88563 0
M  V30 2842 H 279.964 5.08866 -1.35509 0
M  V30 2843 H 282.455 3.527 -1.35687 0
M  V30 2844 H 282.768 6.96451 -3.34927 0
M  V30 2845 H 281.113 6.26638 -3.00583 0
M  V30 2846 H 284.304 4.33789 -1.7591 0
M  V30 2847 H 284.477 5.90552 -2.66745 0
M  V30 2848 N 277.883 0.443576 1.51229 0
M  V30 2849 C 278.793 -0.370721 2.31652 0
M  V30 2850 C 279.809 -1.02186 1.40833 0
M  V30 2851 O 280.985 -1.01586 1.73903 0
M  V30 2852 C 278.05 -1.45376 3.14749 0
M  V30 2853 C 277.111 -0.822099 4.21355 0
M  V30 2854 C 276.344 -1.85353 5.0048 0
M  V30 2855 O 276.567 -3.07656 4.80316 0
M  V30 2856 O 275.501 -1.4406 5.84406 0
M  V30 2857 H 279.327 0.286002 3.0235 0
M  V30 2858 H 276.912 0.20598 1.47973 0
M  V30 2859 H 278.794 -2.08173 3.66391 0
M  V30 2860 H 277.469 -2.09445 2.46809 0
M  V30 2861 H 276.376 -0.155909 3.73775 0
M  V30 2862 H 277.709 -0.224797 4.91686 0
M  V30 2863 N 279.361 -1.56624 0.175154 0
M  V30 2864 C 280.586 -2.01813 -0.478137 0
M  V30 2865 C 281.011 -1.05457 -1.55757 0
M  V30 2866 O 280.369 -0.0347439 -1.81267 0
M  V30 2867 C 280.417 -3.45581 -1.02987 0
M  V30 2868 O 279.521 -3.52305 -2.14371 0
M  V30 2869 H 278.862 -0.65413 -0.114059 0
M  V30 2870 H 281.392 -2.02673 0.280173 0
M  V30 2871 H 281.402 -3.84965 -1.35151 0
M  V30 2872 H 280.077 -4.1521 -0.239556 0
M  V30 2873 H 278.654 -3.24783 -1.83222 0
M  V30 2874 N 280.839 0.0985539 -1.57292 0
M  V30 2875 C 282.086 0.802678 -1.85912 0
M  V30 2876 C 282.414 1.78901 -0.763186 0
M  V30 2877 O 281.669 1.94178 0.243559 0
M  V30 2878 C 281.968 1.56927 -3.21105 0
M  V30 2879 C 281.634 0.725376 -4.45027 0
M  V30 2880 C 280.296 0.492726 -4.78671 0
M  V30 2881 C 282.648 0.138493 -5.21016 0
M  V30 2882 C 279.976 -0.336727 -5.85733 0
M  V30 2883 C 282.328 -0.678264 -6.28953 0
M  V30 2884 C 280.992 -0.921039 -6.61115 0
M  V30 2885 H 280.262 0.293721 -0.680301 0
M  V30 2886 H 282.909 0.0642841 -1.91392 0
M  V30 2887 H 281.214 2.37914 -3.11294 0
M  V30 2888 H 282.911 2.11841 -3.40477 0
M  V30 2889 H 279.501 0.916815 -4.18679 0
M  V30 2890 H 283.685 0.305404 -4.95359 0
M  V30 2891 H 278.941 -0.533836 -6.09065 0
M  V30 2892 H 283.115 -1.1399 -6.87007 0
M  V30 2893 H 280.742 -1.56556 -7.43905 0
M  V30 2894 N 282.317 1.53212 0.369288 0
M  V30 2895 C 283.247 1.82365 1.45826 0
M  V30 2896 C 284.228 0.676907 1.56051 0
M  V30 2897 O 285.413 0.926401 1.70679 0
M  V30 2898 C 282.543 2.01023 2.83208 0
M  V30 2899 C 281.497 3.1678 2.8781 0
M  V30 2900 C 280.823 3.20724 4.27832 0
M  V30 2901 C 282.123 4.55447 2.55667 0
M  V30 2902 H 283.817 2.73559 1.21678 0
M  V30 2903 H 281.363 1.3163 0.583911 0
M  V30 2904 H 283.316 2.20001 3.59413 0
M  V30 2905 H 282.04 1.06536 3.08736 0
M  V30 2906 H 280.699 2.97616 2.14056 0
M  V30 2907 H 280.347 2.23882 4.50429 0
M  V30 2908 H 280.047 3.98496 4.31827 0
M  V30 2909 H 281.571 3.41881 5.05915 0
M  V30 2910 H 282.985 4.74611 3.21586 0
M  V30 2911 H 281.382 5.35432 2.70984 0
M  V30 2912 H 282.452 4.60812 1.5093 0
M  V30 2913 N 283.795 -0.628877 1.44509 0
M  V30 2914 C 285.025 -1.41349 1.50678 0
M  V30 2915 C 285.433 -1.88745 0.131075 0
M  V30 2916 O 284.776 -1.61592 -0.87371 0
M  V30 2917 C 284.838 -2.66608 2.41165 0
M  V30 2918 C 284.502 -2.40993 3.88293 0
M  V30 2919 C 285.499 -2.0268 4.78766 0
M  V30 2920 C 283.184 -2.54563 4.33016 0
M  V30 2921 C 285.178 -1.78269 6.11963 0
M  V30 2922 C 282.865 -2.29766 5.6626 0
M  V30 2923 C 283.863 -1.91678 6.55552 0
M  V30 2924 O 283.551 -1.67158 7.86329 0
M  V30 2925 H 283.283 -0.439851 0.51333 0
M  V30 2926 H 285.837 -0.776084 1.90174 0
M  V30 2927 H 284.067 -3.32994 1.96601 0
M  V30 2928 H 285.756 -3.28615 2.38259 0
M  V30 2929 H 286.522 -1.91751 4.45485 0
M  V30 2930 H 282.401 -2.83179 3.63773 0
M  V30 2931 H 285.945 -1.48465 6.81619 0
M  V30 2932 H 281.842 -2.40306 5.99102 0
M  V30 2933 H 282.61 -1.81386 7.98149 0
M  V30 2934 N 285.273 -1.31445 -0.869486 0
M  V30 2935 C 286.689 -1.10113 -1.15531 0
M  V30 2936 C 286.889 0.128087 -2.01092 0
M  V30 2937 O 285.945 0.817276 -2.38908 0
M  V30 2938 C 287.258 -2.37291 -1.84698 0
M  V30 2939 C 288.806 -2.42906 -1.97397 0
M  V30 2940 C 289.281 -3.69967 -2.69979 0
M  V30 2941 N 290.772 -3.70864 -2.77514 0
M  V30 2942 C 291.507 -4.65875 -3.34287 0
M  V30 2943 N 291.003 -5.71242 -3.91988 0
M  V30 2944 N 292.796 -4.53394 -3.3225 0
M  V30 2945 H 284.947 -2.1028 -0.299347 0
M  V30 2946 H 287.21 -0.927683 -0.195214 0
M  V30 2947 H 286.916 -3.27078 -1.29278 0
M  V30 2948 H 286.79 -2.47125 -2.84972 0
M  V30 2949 H 289.177 -1.53588 -2.51982 0
M  V30 2950 H 289.258 -2.37036 -0.961643 0
M  V30 2951 H 288.902 -4.59652 -2.16062 0
M  V30 2952 H 288.832 -3.73103 -3.7162 0
M  V30 2953 H 291.323 -2.94697 -2.36563 0
M  V30 2954 H 291.636 -6.39817 -4.33421 0
M  V30 2955 H 289.981 -5.75015 -3.90362 0
M  V30 2956 H 293.172 -3.70252 -2.8641 0
M  V30 2957 H 293.345 -5.27617 -3.76197 0
M  V30 2958 N 286.751 1.08385 -1.14413 0
M  V30 2959 C 287.976 1.85057 -0.936413 0
M  V30 2960 C 288.401 1.81055 0.509971 0
M  V30 2961 O 287.759 1.1958 1.36273 0
M  V30 2962 C 287.807 3.30505 -1.44217 0
M  V30 2963 O 286.911 4.07491 -0.634409 0
M  V30 2964 H 286.252 0.573425 -0.334784 0
M  V30 2965 H 288.782 1.36799 -1.52142 0
M  V30 2966 H 288.792 3.81348 -1.45043 0
M  V30 2967 H 287.467 3.32734 -2.49522 0
M  V30 2968 H 286.044 3.66368 -0.694902 0
M  V30 2969 N 288.23 0.939286 1.26551 0
M  V30 2970 C 289.507 0.5038 1.89001 0
M  V30 2971 C 289.887 -1.01854 1.84903 0
M  V30 2972 O 289.235 -1.87773 1.30206 0
M  V30 2973 C 289.445 1.063 3.32417 0
M  V30 2974 C 290.793 1.13051 4.09273 0
M  V30 2975 O 291.817 1.01345 3.41479 0
M  V30 2976 O 290.676 1.31233 5.30509 0
M  V30 2977 H 287.77 0.163897 0.810597 0
M  V30 2978 H 290.316 1.03173 1.34735 0
M  V30 2979 H 289.088 2.10665 3.29752 0
M  V30 2980 H 288.711 0.517408 3.94219 0
M  V30 2981 N 289.708 -1.40897 0.706093 0
M  V30 2982 C 290.933 -2.05895 0.249435 0
M  V30 2983 C 291.358 -1.52823 -1.09666 0
M  V30 2984 O 290.716 -0.659589 -1.68876 0
M  V30 2985 C 290.764 -3.59872 0.22904 0
M  V30 2986 O 289.868 -4.04708 -0.792784 0
M  V30 2987 H 289.209 -0.653206 0.119241 0
M  V30 2988 H 291.739 -1.80471 0.96391 0
M  V30 2989 H 291.749 -4.07951 0.0634791 0
M  V30 2990 H 290.424 -3.97866 1.21141 0
M  V30 2991 H 289.001 -3.68111 -0.59572 0
M  V30 2992 N 291.186 -0.45159 -1.50991 0
M  V30 2993 C 292.463 0.170707 -1.94854 0
M  V30 2994 C 292.843 1.58788 -1.39103 0
M  V30 2995 O 292.191 2.20913 -0.583921 0
M  V30 2996 C 292.401 0.133929 -3.48743 0
M  V30 2997 C 293.749 0.33248 -4.23296 0
M  V30 2998 O 294.773 0.211403 -3.55572 0
M  V30 2999 O 293.632 0.57486 -5.43468 0
M  V30 3000 H 290.726 0.122264 -0.817912 0
M  V30 3001 H 293.272 -0.510594 -1.61836 0
M  V30 3002 H 292.044 -0.856283 -3.81816 0
M  V30 3003 H 291.667 0.857529 -3.88242 0
M  V30 3004 N 292.664 1.56529 -0.183458 0
M  V30 3005 C 293.894 2.01331 0.463612 0
M  V30 3006 C 294.302 1.06278 1.5653 0
M  V30 3007 O 293.645 0.0577976 1.83609 0
M  V30 3008 C 293.707 3.42547 1.09096 0
M  V30 3009 C 293.371 4.56817 0.129442 0
M  V30 3010 C 294.368 5.15734 -0.656807 0
M  V30 3011 C 292.053 5.02295 0.02174 0
M  V30 3012 C 294.047 6.1857 -1.53784 0
M  V30 3013 C 291.734 6.04978 -0.862864 0
M  V30 3014 C 292.732 6.62988 -1.64123 0
M  V30 3015 O 292.42 7.63677 -2.51103 0
M  V30 3016 H 292.152 0.664917 0.121907 0
M  V30 3017 H 294.706 2.034 -0.285954 0
M  V30 3018 H 292.936 3.37428 1.88889 0
M  V30 3019 H 294.625 3.71228 1.64148 0
M  V30 3020 H 295.391 4.81473 -0.583839 0
M  V30 3021 H 291.27 4.56847 0.617392 0
M  V30 3022 H 294.814 6.63777 -2.14583 0
M  V30 3023 H 290.711 6.38663 -0.93699 0
M  V30 3024 H 291.479 7.81049 -2.44753 0
M  V30 3025 N 294.142 -0.090211 1.57342 0
M  V30 3026 C 295.419 -0.824761 1.77361 0
M  V30 3027 C 295.799 -1.96698 0.76637 0
M  V30 3028 O 295.147 -2.27586 -0.204179 0
M  V30 3029 C 295.357 -1.31481 3.23286 0
M  V30 3030 C 296.705 -1.75563 3.86604 0
M  V30 3031 O 297.729 -1.41093 3.27065 0
M  V30 3032 O 296.588 -2.39317 4.91314 0
M  V30 3033 H 293.682 -0.393776 0.727234 0
M  V30 3034 H 296.228 -0.0717138 1.69548 0
M  V30 3035 H 295 -0.496671 3.88135 0
M  V30 3036 H 294.623 -2.12973 3.35751 0
M  V30 3037 N 295.62 -1.53406 -0.361157 0
M  V30 3038 C 296.55 -1.83136 -1.44857 0
M  V30 3039 C 297.531 -0.685174 -1.5569 0
M  V30 3040 O 298.716 -0.93544 -1.70186 0
M  V30 3041 C 295.846 -2.02522 -2.82138 0
M  V30 3042 C 294.8 -3.18302 -2.86126 0
M  V30 3043 C 294.126 -3.22989 -4.26125 0
M  V30 3044 C 295.426 -4.56796 -2.53248 0
M  V30 3045 H 297.12 -2.74201 -1.20226 0
M  V30 3046 H 294.666 -1.31938 -0.576922 0
M  V30 3047 H 296.619 -2.21904 -3.58241 0
M  V30 3048 H 295.343 -1.08172 -3.08166 0
M  V30 3049 H 294.002 -2.98747 -2.12475 0
M  V30 3050 H 293.65 -2.26267 -4.49235 0
M  V30 3051 H 293.35 -4.00781 -4.29708 0
M  V30 3052 H 294.874 -3.44559 -5.04094 0
M  V30 3053 H 296.288 -4.7631 -3.19064 0
M  V30 3054 H 294.685 -5.36862 -2.68141 0
M  V30 3055 H 295.755 -4.61606 -1.48484 0
M  V30 3056 N 297.098 0.621204 -1.44841 0
M  V30 3057 C 298.323 1.41244 -1.51871 0
M  V30 3058 C 298.748 1.87519 -0.147764 0
M  V30 3059 O 298.106 1.59334 0.865 0
M  V30 3060 C 298.154 2.60221 -2.49634 0
M  V30 3061 O 297.258 3.60395 -2.00473 0
M  V30 3062 H 296.599 0.42223 -0.512463 0
M  V30 3063 H 299.129 0.757305 -1.90069 0
M  V30 3064 H 299.139 3.0764 -2.67996 0
M  V30 3065 H 297.814 2.25887 -3.4921 0
M  V30 3066 H 296.391 3.19717 -1.91925 0
M  V30 3067 N 298.576 1.31904 0.862503 0
M  V30 3068 C 299.987 1.19803 1.43193 0
M  V30 3069 C 300.338 -0.192567 1.95253 0
M  V30 3070 O 299.463 -1.09081 1.86896 0
M  V30 3071 C 300.058 2.16883 2.60283 0
M  V30 3072 C 298.617 2.08692 3.13248 0
M  V30 3073 C 297.764 2.05691 1.85975 0
M  V30 3074 H 300.715 1.43846 0.670365 0
M  V30 3075 H 300.736 1.76278 3.37204 0
M  V30 3076 H 300.248 3.18083 2.22363 0
M  V30 3077 H 298.349 1.10713 3.55771 0
M  V30 3078 H 298.462 2.9815 3.75025 0
M  V30 3079 H 296.826 1.50814 2.05249 0
M  V30 3080 H 297.609 3.08659 1.50282 0
M  V30 3081 N 300.054 -1.07777 1.14986 0
M  V30 3082 C 301.001 -2.14867 0.842672 0
M  V30 3083 C 301.971 -1.6486 -0.202552 0
M  V30 3084 O 303.156 -1.90668 -0.0710568 0
M  V30 3085 C 300.296 -3.43486 0.333363 0
M  V30 3086 C 299.409 -4.07306 1.43965 0
M  V30 3087 C 298.544 -5.23744 0.886914 0
M  V30 3088 C 297.583 -5.79517 1.97043 0
M  V30 3089 N 296.72 -6.87291 1.4344 0
M  V30 3090 H 301.56 -2.40485 1.75986 0
M  V30 3091 H 299.097 -1.1801 0.878179 0
M  V30 3092 H 301.055 -4.17195 0.0198163 0
M  V30 3093 H 299.685 -3.18133 -0.546916 0
M  V30 3094 H 298.737 -3.31293 1.86946 0
M  V30 3095 H 300.049 -4.44771 2.25788 0
M  V30 3096 H 299.203 -6.04419 0.525651 0
M  V30 3097 H 297.942 -4.87685 0.0377957 0
M  V30 3098 H 296.947 -4.97491 2.34057 0
M  V30 3099 H 298.172 -6.17632 2.82325 0
M  V30 3100 H 296.118 -6.5318 0.607567 0
M  V30 3101 H 296.035 -7.23617 2.18895 0
M  V30 3102 H 297.303 -7.71682 1.10124 0
M  V30 3103 N 301.532 -0.945985 -1.26051 0
M  V30 3104 C 302.757 -0.612525 -1.98149 0
M  V30 3105 C 303.182 0.806623 -1.69927 0
M  V30 3106 O 302.54 1.54411 -0.950108 0
M  V30 3107 C 302.588 -0.866981 -3.50023 0
M  V30 3108 O 301.692 0.0585333 -4.12358 0
M  V30 3109 H 301.033 -0.23379 -0.621481 0
M  V30 3110 H 303.563 -1.27023 -1.60395 0
M  V30 3111 H 303.573 -0.789792 -4.00283 0
M  V30 3112 H 302.248 -1.90135 -3.69894 0
M  V30 3113 H 300.825 -0.0701241 -3.72834 0
M  V30 3114 N 303.011 1.40521 -0.713556 0
M  V30 3115 C 303.944 2.28198 -0.00881422 0
M  V30 3116 C 304.922 1.43227 0.769735 0
M  V30 3117 O 306.106 1.72641 0.756799 0
M  V30 3118 C 303.233 3.23758 0.994899 0
M  V30 3119 C 302.279 4.25391 0.3074 0
M  V30 3120 S 303.112 5.26765 -0.963247 0
M  V30 3121 C 304.268 6.25888 0.0384143 0
M  V30 3122 H 304.501 2.87622 -0.752407 0
M  V30 3123 H 302.034 1.45925 -0.504502 0
M  V30 3124 H 303.992 3.79341 1.56879 0
M  V30 3125 H 302.653 2.63396 1.71118 0
M  V30 3126 H 301.846 4.92596 1.0661 0
M  V30 3127 H 301.448 3.73497 -0.193879 0
M  V30 3128 H 303.74 6.71683 0.885912 0
M  V30 3129 H 304.683 7.05552 -0.60019 0
M  V30 3130 H 305.091 5.63072 0.401233 0
M  V30 3131 N 304.489 0.459591 1.5075 0
M  V30 3132 C 305.714 -0.0996819 2.0716 0
M  V30 3133 C 306.139 -1.33761 1.32249 0
M  V30 3134 O 305.497 -1.77551 0.366786 0
M  V30 3135 C 305.545 -0.378226 3.58611 0
M  V30 3136 O 304.649 -1.46081 3.85661 0
M  V30 3137 H 303.99 0.00791392 0.663953 0
M  V30 3138 H 306.52 0.647329 1.9409 0
M  V30 3139 H 306.53 -0.622135 4.03229 0
M  V30 3140 H 305.205 0.526439 4.12555 0
M  V30 3141 H 303.782 -1.20511 3.5289 0
M  V30 3142 N 305.967 -1.56429 0.191757 0
M  V30 3143 C 307.383 -1.58754 -0.164137 0
M  V30 3144 C 307.583 -1.20782 -1.61288 0
M  V30 3145 O 306.639 -0.928999 -2.34789 0
M  V30 3146 C 307.952 -3.00396 0.135195 0
M  V30 3147 C 309.5 -3.1291 0.0750351 0
M  V30 3148 C 309.975 -4.56679 0.347632 0
M  V30 3149 N 311.466 -4.62252 0.296131 0
M  V30 3150 C 312.201 -5.71379 0.480948 0
M  V30 3151 N 311.697 -6.88986 0.725933 0
M  V30 3152 N 313.49 -5.60563 0.415435 0
M  V30 3153 H 305.641 -1.79393 1.13718 0
M  V30 3154 H 307.904 -0.832414 0.453643 0
M  V30 3155 H 307.61 -3.32726 1.13958 0
M  V30 3156 H 307.484 -3.72963 -0.563773 0
M  V30 3157 H 309.871 -2.80394 -0.919948 0
M  V30 3158 H 309.952 -2.42736 0.807029 0
M  V30 3159 H 309.596 -4.89907 1.33992 0
M  V30 3160 H 309.526 -5.25039 -0.405212 0
M  V30 3161 H 312.017 -3.7773 0.113259 0
M  V30 3162 H 312.33 -7.68046 0.855857 0
M  V30 3163 H 310.675 -6.90801 0.762788 0
M  V30 3164 H 313.866 -4.67561 0.224486 0
M  V30 3165 H 314.039 -6.45551 0.562889 0
M  V30 3166 N 307.445 0.0818655 -1.57387 0
M  V30 3167 C 308.393 1.11712 -2.04018 0
M  V30 3168 C 309.387 1.40683 -0.94364 0
M  V30 3169 O 310.593 1.40209 -1.12878 0
M  V30 3170 H 306.968 0.377542 -0.650358 0
M  V30 3171 H 308.939 0.697614 -2.90131 0
M  V30 3172 C 307.688 2.42537 -2.49141 0
M  V30 3173 H 307.011 2.21092 -3.33104 0
M  V30 3174 H 308.451 3.13446 -2.85531 0
M  V30 3175 C 306.91 3.0778 -1.37014 0
M  V30 3176 O 307.44 3.95436 -0.706621 0
M  V30 3177 N 305.646 2.68242 -1.11779 0
M  V30 3178 H 305.193 1.97052 -1.65917 0
M  V30 3179 H 305.151 3.1222 -0.369594 0
M  V30 3180 N 308.923 1.53595 0.353017 0
M  V30 3181 C 310.148 1.7462 1.11904 0
M  V30 3182 C 310.573 0.479721 1.8188 0
M  V30 3183 O 309.931 -0.567066 1.72204 0
M  V30 3184 C 309.979 2.92029 2.11545 0
M  V30 3185 O 309.083 2.61516 3.18878 0
M  V30 3186 H 308.424 0.579531 0.324099 0
M  V30 3187 H 310.954 2.00525 0.406301 0
M  V30 3188 H 310.964 3.18551 2.5493 0
M  V30 3189 H 309.639 3.83888 1.60008 0
M  V30 3190 H 308.216 2.45852 2.80377 0
M  V30 3191 N 310.401 -0.613514 1.45168 0
M  V30 3192 C 311.626 -1.40437 1.52618 0
M  V30 3193 C 312.051 -1.87438 0.157707 0
M  V30 3194 O 311.409 -1.59791 -0.856537 0
M  V30 3195 C 311.457 -2.58894 2.51011 0
M  V30 3196 O 310.561 -3.59326 2.02382 0
M  V30 3197 H 309.902 -0.419506 0.514695 0
M  V30 3198 H 312.432 -0.747215 1.90467 0
M  V30 3199 H 312.442 -3.06214 2.69624 0
M  V30 3200 H 311.117 -2.24032 3.50403 0
M  V30 3201 H 309.694 -3.18695 1.93618 0
M  V30 3202 N 311.879 -1.3236 -0.855495 0
M  V30 3203 C 313.128 -1.22226 -1.60448 0
M  V30 3204 C 313.441 0.214733 -1.94418 0
M  V30 3205 O 314.647 0.437917 -2.67945 0
M  V30 3206 C 313.103 -2.14063 -2.89318 0
M  V30 3207 C 312.711 -3.62839 -2.62777 0
M  V30 3208 C 314.455 -2.12764 -3.67331 0
M  V30 3209 C 312.362 -4.4664 -3.87643 0
M  V30 3210 H 311.292 -0.453904 -0.602069 0
M  V30 3211 H 313.943 -1.57314 -0.944698 0
M  V30 3212 H 312.325 -1.71889 -3.5675 0
M  V30 3213 H 313.499 -4.1335 -2.03662 0
M  V30 3214 H 311.814 -3.66261 -1.98096 0
M  V30 3215 H 314.411 -2.72611 -4.59987 0
M  V30 3216 H 314.754 -1.11841 -4.00995 0
M  V30 3217 H 315.287 -2.53214 -3.06802 0
M  V30 3218 H 312.026 -5.48373 -3.5912 0
M  V30 3219 H 311.546 -4.0088 -4.46156 0
M  V30 3220 H 313.225 -4.59597 -4.55389 0
M  V30 3221 N 313.357 1.07166 -1.15556 0
M  V30 3222 C 314.32 2.12589 -0.856644 0
M  V30 3223 C 315.32 1.6015 0.14444 0
M  V30 3224 O 316.51 1.7399 -0.0854163 0
M  V30 3225 C 313.642 3.39753 -0.279405 0
M  V30 3226 H 314.835 2.40539 -1.79112 0
M  V30 3227 H 312.388 1.23086 -0.963298 0
M  V30 3228 H 313.123 3.17447 0.663174 0
M  V30 3229 H 312.908 3.79117 -1.00063 0
M  V30 3230 H 314.398 4.17507 -0.0879113 0
M  V30 3231 N 314.835 0.952656 1.25548 0
M  V30 3232 C 316.06 0.623025 1.97821 0
M  V30 3233 C 316.485 -0.7976 1.70352 0
M  V30 3234 O 315.843 -1.53905 0.958283 0
M  V30 3235 C 315.891 0.885532 3.49558 0
M  V30 3236 O 314.995 -0.0366641 4.12384 0
M  V30 3237 H 314.336 0.237082 0.620232 0
M  V30 3238 H 316.866 1.27871 1.59719 0
M  V30 3239 H 316.876 0.811009 3.99858 0
M  V30 3240 H 315.551 1.92094 3.6888 0
M  V30 3241 H 314.128 0.0898954 3.72792 0
M  V30 3242 N 316.313 -1.40141 0.720998 0
M  V30 3243 C 317.59 -1.94677 0.189757 0
M  V30 3244 C 317.97 -1.65879 -1.30566 0
M  V30 3245 O 317.318 -0.979391 -2.06447 0
M  V30 3246 C 317.528 -3.45279 0.508304 0
M  V30 3247 C 318.876 -4.22209 0.449934 0
M  V30 3248 O 319.9 -3.53413 0.444677 0
M  V30 3249 O 318.759 -5.44788 0.432189 0
M  V30 3250 H 315.853 -0.826459 0.0299026 0
M  V30 3251 H 318.399 -1.49719 0.7989 0
M  V30 3252 H 317.171 -3.59619 1.54239 0
M  V30 3253 H 316.794 -3.97386 -0.130525 0
M  V30 3254 N 317.792 -0.46758 -1.50504 0
M  V30 3255 C 319.041 0.0902868 -2.01498 0
M  V30 3256 C 319.354 1.411 -1.35463 0
M  V30 3257 O 320.56 2.0536 -1.77594 0
M  V30 3258 C 319.016 0.21142 -3.59278 0
M  V30 3259 C 318.624 -1.10065 -4.34269 0
M  V30 3260 C 320.368 0.721433 -4.18325 0
M  V30 3261 C 318.275 -0.943505 -5.83825 0
M  V30 3262 H 317.205 0.037517 -0.753066 0
M  V30 3263 H 319.856 -0.601943 -1.73346 0
M  V30 3264 H 318.238 0.967352 -3.84003 0
M  V30 3265 H 319.412 -1.86726 -4.21272 0
M  V30 3266 H 317.727 -1.5415 -3.86816 0
M  V30 3267 H 320.324 0.85598 -5.27804 0
M  V30 3268 H 320.667 1.71186 -3.79475 0
M  V30 3269 H 321.2 0.0229843 -3.97793 0
M  V30 3270 H 317.939 -1.90719 -6.27141 0
M  V30 3271 H 317.459 -0.217213 -5.99407 0
M  V30 3272 H 319.138 -0.608715 -6.4413 0
M  V30 3273 N 319.27 1.56325 -0.20005 0
M  V30 3274 C 320.22 2.15939 0.731743 0
M  V30 3275 C 321.204 1.10154 1.17281 0
M  V30 3276 O 322.396 1.36203 1.13038 0
M  V30 3277 C 319.525 2.82614 1.94895 0
M  V30 3278 C 318.611 3.95596 1.52855 0
M  V30 3279 N 319.002 4.99118 0.819418 0
M  V30 3280 C 317.3 4.07288 1.81748 0
M  V30 3281 C 318.001 5.78513 0.608053 0
M  V30 3282 N 316.977 5.31117 1.15828 0
M  V30 3283 H 320.779 2.9334 0.181285 0
M  V30 3284 H 318.293 1.624 -0.000452172 0
M  V30 3285 H 320.29 3.23718 2.62702 0
M  V30 3286 H 318.95 2.06702 2.50408 0
M  V30 3287 H 319.961 5.15723 0.47436 0
M  V30 3288 H 316.638 3.42509 2.38734 0
M  V30 3289 H 318.028 6.71885 0.0451619 0
M  V30 3290 N 320.748 -0.0735177 1.57428 0
M  V30 3291 C 321.996 -0.771472 1.86796 0
M  V30 3292 C 322.317 -1.78201 0.791804 0
M  V30 3293 O 321.587 -1.95074 -0.179718 0
M  V30 3294 H 320.167 -0.28791 0.689287 0
M  V30 3295 H 322.829 -0.0500161 1.94836 0
M  V30 3296 H 321.925 -1.28874 2.8425 0
M  V30 3297 N 322.226 -1.5378 -0.344866 0
M  V30 3298 C 323.503 -1.61589 -1.10219 0
M  V30 3299 C 323.883 -0.436316 -2.06542 0
M  V30 3300 O 323.231 0.571543 -2.21237 0
M  V30 3301 C 323.441 -2.97602 -1.82301 0
M  V30 3302 C 324.789 -3.5291 -2.36093 0
M  V30 3303 O 325.813 -2.99768 -1.924 0
M  V30 3304 O 324.672 -4.45859 -3.16026 0
M  V30 3305 H 321.766 -0.653522 -0.506792 0
M  V30 3306 H 324.312 -1.66126 -0.346465 0
M  V30 3307 H 323.084 -3.74893 -1.12121 0
M  V30 3308 H 322.707 -2.9665 -2.64735 0
M  V30 3309 N 323.704 0.605807 -1.45491 0
M  V30 3310 C 324.981 1.36522 -1.40075 0
M  V30 3311 C 325.361 2.10976 -0.0722744 0
M  V30 3312 O 324.709 2.08007 0.945808 0
M  V30 3313 C 324.919 2.31056 -2.61561 0
M  V30 3314 C 326.267 2.93608 -3.06724 0
M  V30 3315 O 327.291 2.41376 -2.61946 0
M  V30 3316 O 326.15 3.88421 -3.84437 0
M  V30 3317 H 323.244 0.612248 -0.555951 0
M  V30 3318 H 325.79 0.628747 -1.57623 0
M  V30 3319 H 324.562 1.75311 -3.49831 0
M  V30 3320 H 324.185 3.12081 -2.46356 0
M  V30 3321 N 325.182 1.32811 0.848464 0
M  V30 3322 C 326.112 1.24882 1.97299 0
M  V30 3323 C 327.093 0.131357 1.69592 0
M  V30 3324 O 328.278 0.319553 1.91553 0
M  V30 3325 C 325.408 0.97746 3.33261 0
M  V30 3326 C 324.362 2.05682 3.75338 0
M  V30 3327 C 323.688 1.63777 5.09 0
M  V30 3328 C 324.988 3.47254 3.90144 0
M  V30 3329 H 326.682 2.18966 2.04191 0
M  V30 3330 H 324.228 1.05413 0.981029 0
M  V30 3331 H 326.181 0.908513 4.1149 0
M  V30 3332 H 324.905 0.000980011 3.266 0
M  V30 3333 H 323.564 2.11603 2.99366 0
M  V30 3334 H 323.212 0.648569 4.98801 0
M  V30 3335 H 322.912 2.36 5.38124 0
M  V30 3336 H 324.436 1.5833 5.89715 0
M  V30 3337 H 325.85 3.43888 4.58709 0
M  V30 3338 H 324.247 4.1788 4.30693 0
M  V30 3339 H 325.317 3.86462 2.92874 0
M  V30 3340 N 326.66 -1.06551 1.16123 0
M  V30 3341 C 327.909 -1.78687 0.935622 0
M  V30 3342 C 328.222 -1.88056 -0.538001 0
M  V30 3343 O 329.428 -2.56794 -0.88143 0
M  V30 3344 C 327.884 -3.21143 1.62466 0
M  V30 3345 C 327.492 -3.19949 3.13587 0
M  V30 3346 C 329.236 -3.9783 1.48092 0
M  V30 3347 C 327.143 -4.57108 3.75241 0
M  V30 3348 H 326.073 -0.669712 0.346412 0
M  V30 3349 H 328.724 -1.19534 1.39226 0
M  V30 3350 H 327.106 -3.80539 1.09572 0
M  V30 3351 H 328.28 -2.70151 3.73303 0
M  V30 3352 H 326.595 -2.5676 3.27816 0
M  V30 3353 H 329.192 -4.99217 1.91538 0
M  V30 3354 H 329.535 -4.14078 0.429507 0
M  V30 3355 H 330.068 -3.4495 1.98127 0
M  V30 3356 H 326.807 -4.46065 4.80319 0
M  V30 3357 H 326.327 -5.07111 3.20309 0
M  V30 3358 H 328.006 -5.26069 3.76644 0
M  V30 3359 N 328.138 -0.959301 -1.25041 0
M  V30 3360 C 329.384 -0.617525 -1.9317 0
M  V30 3361 C 329.717 0.843981 -1.74902 0
M  V30 3362 O 328.992 1.60615 -1.09696 0
M  V30 3363 C 329.275 -0.982736 -3.46431 0
M  V30 3364 C 329.128 -2.50032 -3.73904 0
M  V30 3365 C 330.447 -0.511176 -4.37121 0
M  V30 3366 H 327.566 -0.22582 -0.701552 0
M  V30 3367 H 330.208 -1.19679 -1.4757 0
M  V30 3368 H 328.358 -0.489806 -3.854 0
M  V30 3369 H 330.03 -3.06737 -3.44544 0
M  V30 3370 H 328.273 -2.93598 -3.19348 0
M  V30 3371 H 328.944 -2.70635 -4.81103 0
M  V30 3372 H 331.42 -0.934075 -4.0548 0
M  V30 3373 H 330.296 -0.795361 -5.43107 0
M  V30 3374 H 330.557 0.588834 -4.38161 0
M  V30 3375 N 329.616 1.39756 -0.72842 0
M  V30 3376 C 330.844 2.04948 -0.283528 0
M  V30 3377 C 331.259 1.54908 1.0793 0
M  V30 3378 O 330.616 0.711135 1.68075 0
M  V30 3379 C 330.667 3.60498 -0.268957 0
M  V30 3380 O 330.388 4.08695 -1.57798 0
M  V30 3381 C 331.889 4.4288 0.192912 0
M  V30 3382 H 329.109 0.659243 -0.125056 0
M  V30 3383 H 331.653 1.78927 -0.990226 0
M  V30 3384 H 329.808 3.85444 0.388801 0
M  V30 3385 H 330.222 5.02977 -1.48709 0
M  V30 3386 H 331.696 5.51791 0.151952 0
M  V30 3387 H 332.173 4.21418 1.23708 0
M  V30 3388 H 332.779 4.23069 -0.435039 0
M  V30 3389 N 331.094 0.475555 1.50254 0
M  V30 3390 C 332.505 0.0215174 1.86688 0
M  V30 3391 C 332.856 -1.38467 1.39001 0
M  V30 3392 O 331.981 -2.02732 0.756894 0
M  V30 3393 C 332.576 0.0322715 3.38785 0
M  V30 3394 C 331.135 -0.366314 3.74613 0
M  V30 3395 C 330.282 0.415832 2.74164 0
M  V30 3396 H 333.233 0.689612 1.42934 0
M  V30 3397 H 333.254 -0.76889 3.7265 0
M  V30 3398 H 332.766 1.05584 3.73462 0
M  V30 3399 H 330.867 -1.39406 3.45538 0
M  V30 3400 H 330.98 -0.064555 4.79057 0
M  V30 3401 H 329.344 -0.131048 2.54363 0
M  V30 3402 H 330.127 1.43899 3.11686 0
M  V30 3403 N 332.573 -1.56217 0.208337 0
M  V30 3404 C 333.82 -1.97949 -0.42692 0
M  V30 3405 C 334.148 -1.09562 -1.60706 0
M  V30 3406 O 333.403 -0.137616 -1.95216 0
M  V30 3407 C 333.702 -3.45441 -0.916797 0
M  V30 3408 C 333.368 -4.50646 0.151391 0
M  V30 3409 C 332.03 -4.79139 0.444867 0
M  V30 3410 C 334.382 -5.13811 0.874492 0
M  V30 3411 C 331.71 -5.68084 1.46619 0
M  V30 3412 C 334.062 -6.03861 1.88506 0
M  V30 3413 C 332.726 -6.30704 2.18559 0
M  V30 3414 H 331.996 -0.724345 -0.156221 0
M  V30 3415 H 334.643 -1.89006 0.308084 0
M  V30 3416 H 332.948 -3.51521 -1.73032 0
M  V30 3417 H 334.645 -3.75094 -1.41794 0
M  V30 3418 H 331.235 -4.28511 -0.0875068 0
M  V30 3419 H 335.419 -4.91879 0.660996 0
M  V30 3420 H 330.675 -5.87151 1.7048 0
M  V30 3421 H 334.849 -6.51861 2.45051 0
M  V30 3422 H 332.476 -6.99424 2.97843 0
M  V30 3423 N 334.051 0.0651679 -1.57465 0
M  V30 3424 C 335.014 1.06117 -2.03155 0
M  V30 3425 C 336.014 1.31204 -0.929632 0
M  V30 3426 O 337.204 1.26813 -1.19432 0
M  V30 3427 C 334.336 2.4032 -2.41783 0
M  V30 3428 H 335.529 0.667231 -2.92383 0
M  V30 3429 H 333.082 0.311075 -1.53173 0
M  V30 3430 H 333.817 2.84532 -1.55601 0
M  V30 3431 H 333.602 2.23451 -3.22199 0
M  V30 3432 H 335.092 3.11898 -2.77685 0
M  V30 3433 N 335.529 1.53961 0.336706 0
M  V30 3434 C 336.461 1.78751 1.4346 0
M  V30 3435 C 337.474 0.669019 1.48418 0
M  V30 3436 O 338.663 0.945884 1.51378 0
M  V30 3437 C 335.763 1.87844 2.82078 0
M  V30 3438 C 334.936 3.17854 3.00479 0
M  V30 3439 C 333.995 3.17816 4.19379 0
M  V30 3440 O 333.021 3.91511 4.13168 0
M  V30 3441 N 334.223 2.40669 5.2826 0
M  V30 3442 H 336.988 2.73493 1.22563 0
M  V30 3443 H 334.549 1.53096 0.526625 0
M  V30 3444 H 336.541 1.85261 3.59806 0
M  V30 3445 H 335.111 1.00257 2.96086 0
M  V30 3446 H 334.331 3.33504 2.10163 0
M  V30 3447 H 335.619 4.03718 3.0966 0
M  V30 3448 H 335.017 1.8036 5.36178 0
M  V30 3449 H 333.574 2.43877 6.04456 0
M  V30 3450 N 337.007 -0.598083 1.45811 0
M  V30 3451 C 338.253 -1.35882 1.50545 0
M  V30 3452 C 338.586 -1.93616 0.150445 0
M  V30 3453 O 337.861 -1.75604 -0.83628 0
M  V30 3454 C 338.144 -2.49966 2.59208 0
M  V30 3455 C 337.997 -1.97367 4.04186 0
M  V30 3456 C 339.316 -3.52068 2.64076 0
M  V30 3457 H 336.435 -0.492717 0.548087 0
M  V30 3458 H 339.077 -0.673319 1.77669 0
M  V30 3459 H 337.227 -3.08443 2.3621 0
M  V30 3460 H 338.899 -1.43466 4.38423 0
M  V30 3461 H 337.142 -1.283 4.14393 0
M  V30 3462 H 337.813 -2.79649 4.75921 0
M  V30 3463 H 340.289 -3.03448 2.84708 0
M  V30 3464 H 339.165 -4.2937 3.41954 0
M  V30 3465 H 339.426 -4.08304 1.69531 0
M  V30 3466 N 338.485 -1.33259 -0.841409 0
M  V30 3467 C 339.415 -1.25926 -1.96634 0
M  V30 3468 C 340.396 -0.140349 -1.6952 0
M  V30 3469 O 341.581 -0.329707 -1.91381 0
M  V30 3470 C 338.711 -0.99512 -3.32738 0
M  V30 3471 C 337.665 -2.0767 -3.74242 0
M  V30 3472 C 336.991 -1.66474 -5.08125 0
M  V30 3473 C 338.291 -3.49318 -3.88297 0
M  V30 3474 H 339.985 -2.20046 -2.03027 0
M  V30 3475 H 337.531 -1.05931 -0.975425 0
M  V30 3476 H 339.484 -0.930323 -4.11002 0
M  V30 3477 H 338.208 -0.0183004 -3.26595 0
M  V30 3478 H 336.867 -2.13187 -2.98239 0
M  V30 3479 H 336.515 -0.675012 -4.9845 0
M  V30 3480 H 336.215 -2.3885 -5.36865 0
M  V30 3481 H 337.739 -1.61455 -5.88867 0
M  V30 3482 H 339.153 -3.46316 -4.56879 0
M  V30 3483 H 337.55 -4.20158 -4.28471 0
M  V30 3484 H 338.62 -3.8801 -2.9082 0
M  V30 3485 N 339.963 1.05934 -1.16686 0
M  V30 3486 C 340.926 2.11669 -0.879144 0
M  V30 3487 C 341.926 1.60294 0.127445 0
M  V30 3488 O 343.116 1.7389 -0.103865 0
M  V30 3489 C 340.248 3.39438 -0.315425 0
M  V30 3490 H 341.441 2.38626 -1.81653 0
M  V30 3491 H 338.994 1.22058 -0.976299 0
M  V30 3492 H 339.729 3.18132 0.629468 0
M  V30 3493 H 339.514 3.78034 -1.04079 0
M  V30 3494 H 341.004 4.17391 -0.132189 0
M  V30 3495 N 341.441 0.965919 1.2453 0
M  V30 3496 C 342.666 0.643971 1.97149 0
M  V30 3497 C 343.091 -0.779487 1.71189 0
M  V30 3498 O 342.449 -1.5288 0.974553 0
M  V30 3499 C 342.497 0.922557 3.48599 0
M  V30 3500 O 341.601 0.00707672 4.12399 0
M  V30 3501 H 340.942 0.243647 0.617683 0
M  V30 3502 H 343.472 1.29558 1.58353 0
M  V30 3503 H 343.482 0.853373 3.98976 0
M  V30 3504 H 342.157 1.95996 3.66822 0
M  V30 3505 H 340.734 0.12943 3.72675 0
M  V30 3506 N 342.919 -1.39368 0.735821 0
M  V30 3507 C 343.849 -2.33234 0.111506 0
M  V30 3508 C 344.83 -1.53954 -0.723334 0
M  V30 3509 O 346.015 -1.82344 -0.668147 0
M  V30 3510 C 343.145 -3.38057 -0.795917 0
M  V30 3511 C 342.099 -4.2795 -0.065172 0
M  V30 3512 C 341.425 -5.23479 -1.08967 0
M  V30 3513 C 342.725 -5.10741 1.09273 0
M  V30 3514 H 344.419 -2.85692 0.895571 0
M  V30 3515 H 341.965 -1.37364 0.432109 0
M  V30 3516 H 343.918 -4.02675 -1.24221 0
M  V30 3517 H 342.642 -2.8404 -1.61211 0
M  V30 3518 H 341.301 -3.64813 0.361511 0
M  V30 3519 H 340.949 -4.65758 -1.89944 0
M  V30 3520 H 340.649 -5.84472 -0.605489 0
M  V30 3521 H 342.173 -5.90974 -1.53565 0
M  V30 3522 H 343.587 -5.68699 0.724841 0
M  V30 3523 H 341.984 -5.8088 1.50659 0
M  V30 3524 H 343.054 -4.45525 1.91404 0
M  V30 3525 N 344.397 -0.483516 -1.5 0
M  V30 3526 C 345.813 -0.138404 -1.58999 0
M  V30 3527 C 346.013 1.35597 -1.4905 0
M  V30 3528 O 345.069 2.13039 -1.35539 0
M  V30 3529 C 346.382 -0.699658 -2.92447 0
M  V30 3530 C 347.93 -0.664195 -3.05872 0
M  V30 3531 C 348.405 -1.20321 -4.41913 0
M  V30 3532 N 349.896 -1.16315 -4.48358 0
M  V30 3533 C 350.631 -1.55058 -5.52037 0
M  V30 3534 N 350.127 -2.01311 -6.62907 0
M  V30 3535 N 351.92 -1.46584 -5.42651 0
M  V30 3536 H 344.071 -1.45529 -1.5471 0
M  V30 3537 H 346.334 -0.60258 -0.731848 0
M  V30 3538 H 346.04 -1.747 -3.05242 0
M  V30 3539 H 345.914 -0.150194 -3.76901 0
M  V30 3540 H 348.301 0.374272 -2.92717 0
M  V30 3541 H 348.382 -1.25061 -2.23144 0
M  V30 3542 H 348.026 -2.24037 -4.55818 0
M  V30 3543 H 347.956 -0.592896 -5.23252 0
M  V30 3544 H 350.447 -0.824058 -3.68806 0
M  V30 3545 H 350.76 -2.2899 -7.38095 0
M  V30 3546 H 349.105 -2.05273 -6.63994 0
M  V30 3547 H 352.296 -1.10281 -4.54924 0
M  V30 3548 H 352.469 -1.77103 -6.23329 0
M  V30 3549 N 345.875 1.56104 -0.216619 0
M  V30 3550 C 347.103 2.02563 0.421413 0
M  V30 3551 C 347.518 1.0965 1.53695 0
M  V30 3552 O 346.875 0.10521 1.82196 0
M  V30 3553 C 346.926 3.48584 0.957665 0
M  V30 3554 O 346.647 4.37953 -0.113389 0
M  V30 3555 C 348.148 4.10664 1.66943 0
M  V30 3556 H 345.368 0.662944 0.103665 0
M  V30 3557 H 347.912 2.01793 -0.331629 0
M  V30 3558 H 346.067 3.49985 1.661 0
M  V30 3559 H 346.481 5.23704 0.288932 0
M  V30 3560 H 347.955 5.14622 1.99671 0
M  V30 3561 H 348.432 3.55373 2.58083 0
M  V30 3562 H 349.038 4.13098 1.01142 0
M  V30 3563 N 347.353 -0.0568162 1.57498 0
M  V30 3564 C 348.599 -0.75422 1.88253 0
M  V30 3565 C 348.932 -1.76461 0.810865 0
M  V30 3566 O 348.207 -1.93691 -0.177259 0
M  V30 3567 C 348.49 -1.44878 3.2967 0
M  V30 3568 C 348.343 -0.453789 4.47505 0
M  V30 3569 C 349.662 -2.38994 3.69554 0
M  V30 3570 H 346.781 -0.272724 0.684683 0
M  V30 3571 H 349.423 -0.0172113 1.89992 0
M  V30 3572 H 347.573 -2.077 3.28318 0
M  V30 3573 H 349.245 0.170371 4.60985 0
M  V30 3574 H 347.488 0.229552 4.33192 0
M  V30 3575 H 348.159 -0.977699 5.43273 0
M  V30 3576 H 350.635 -1.86239 3.72095 0
M  V30 3577 H 349.511 -2.84587 4.69363 0
M  V30 3578 H 349.772 -3.24461 3.00296 0
M  V30 3579 N 348.832 -1.54138 -0.328536 0
M  V30 3580 C 350.248 -1.44736 -0.672574 0
M  V30 3581 C 350.448 -0.616217 -1.91846 0
M  V30 3582 O 349.504 -0.113067 -2.52247 0
M  V30 3583 C 350.817 -2.884 -0.851217 0
M  V30 3584 C 352.365 -2.98271 -0.948877 0
M  V30 3585 C 352.84 -4.43074 -1.15973 0
M  V30 3586 N 354.331 -4.46665 -1.22658 0
M  V30 3587 C 355.066 -5.55857 -1.40751 0
M  V30 3588 N 354.562 -6.75026 -1.5592 0
M  V30 3589 N 356.355 -5.43495 -1.4342 0
M  V30 3590 H 348.506 -2.06661 0.490421 0
M  V30 3591 H 350.769 -0.934812 0.157579 0
M  V30 3592 H 350.475 -3.51699 -0.00704236 0
M  V30 3593 H 350.349 -3.34225 -1.74853 0
M  V30 3594 H 352.736 -2.35102 -1.78356 0
M  V30 3595 H 352.817 -2.55785 -0.0281435 0
M  V30 3596 H 352.461 -5.06827 -0.329915 0
M  V30 3597 H 352.391 -4.83165 -2.09426 0
M  V30 3598 H 354.882 -3.60797 -1.124 0
M  V30 3599 H 355.195 -7.54004 -1.69404 0
M  V30 3600 H 353.54 -6.77944 -1.53027 0
M  V30 3601 H 356.731 -4.49349 -1.31162 0
M  V30 3602 H 356.904 -6.28649 -1.57178 0
M  V30 3603 N 350.31 0.590341 -1.46126 0
M  V30 3604 C 351.258 1.72105 -1.5647 0
M  V30 3605 C 352.252 1.63756 -0.433612 0
M  V30 3606 O 353.458 1.69342 -0.610194 0
M  V30 3607 H 349.833 0.568889 -0.491802 0
M  V30 3608 H 351.804 1.6051 -2.51553 0
M  V30 3609 C 350.553 3.10493 -1.56491 0
M  V30 3610 H 349.876 3.17583 -2.4286 0
M  V30 3611 H 351.316 3.8939 -1.67785 0
M  V30 3612 C 349.775 3.3563 -0.292231 0
M  V30 3613 O 350.305 3.96875 0.620739 0
M  V30 3614 N 348.511 2.90026 -0.182523 0
M  V30 3615 H 348.058 2.40367 -0.926356 0
M  V30 3616 H 348.016 3.07218 0.668152 0
M  V30 3617 N 351.788 1.33704 0.83433 0
M  V30 3618 C 352.736 1.24323 1.96587 0
M  V30 3619 C 353.73 0.143659 1.6879 0
M  V30 3620 O 354.936 0.30791 1.77347 0
M  V30 3621 H 351.311 0.385925 0.645419 0
M  V30 3622 H 353.282 2.19978 2.01624 0
M  V30 3623 C 352.031 1.00394 3.32891 0
M  V30 3624 H 351.354 1.84231 3.54822 0
M  V30 3625 H 352.794 0.97862 4.12552 0
M  V30 3626 C 351.253 -0.293047 3.35623 0
M  V30 3627 O 351.783 -1.29823 3.80143 0
M  V30 3628 N 349.989 -0.322174 2.88809 0
M  V30 3629 H 349.536 0.496379 2.52772 0
M  V30 3630 H 349.494 -1.18977 2.91019 0
M  V30 3631 N 353.266 -1.05314 1.17247 0
M  V30 3632 C 354.513 -1.78293 0.960091 0
M  V30 3633 C 354.841 -1.87658 -0.51136 0
M  V30 3634 O 354.096 -1.3718 -1.39571 0
M  V30 3635 C 354.395 -3.2229 1.54479 0
M  V30 3636 C 354.061 -3.32987 3.04024 0
M  V30 3637 C 352.723 -3.35613 3.44844 0
M  V30 3638 C 355.075 -3.34102 4.00031 0
M  V30 3639 C 352.403 -3.36982 4.8027 0
M  V30 3640 C 354.755 -3.3701 5.35357 0
M  V30 3641 C 353.419 -3.37923 5.75642 0
M  V30 3642 H 352.689 -0.652422 0.351322 0
M  V30 3643 H 355.336 -1.23782 1.46117 0
M  V30 3644 H 353.641 -3.7972 0.965391 0
M  V30 3645 H 355.338 -3.77376 1.35603 0
M  V30 3646 H 351.928 -3.31655 2.71483 0
M  V30 3647 H 356.112 -3.31276 3.69554 0
M  V30 3648 H 351.368 -3.35999 5.10798 0
M  V30 3649 H 355.542 -3.36822 6.09528 0
M  V30 3650 H 353.169 -3.38738 6.80559 0
M  V30 3651 N 354.744 -0.972509 -1.24016 0
M  V30 3652 C 355.707 -0.511403 -2.23422 0
M  V30 3653 C 356.707 0.394679 -1.55881 0
M  V30 3654 O 357.897 0.189469 -1.73167 0
M  V30 3655 C 355.029 0.258769 -3.39916 0
M  V30 3656 H 356.222 -1.39024 -2.6573 0
M  V30 3657 H 353.775 -0.757585 -1.36713 0
M  V30 3658 H 354.51 1.1545 -3.03054 0
M  V30 3659 H 354.295 -0.391522 -3.9014 0
M  V30 3660 H 355.785 0.570244 -4.13688 0
M  V30 3661 N 356.222 1.38976 -0.743202 0
M  V30 3662 C 357.185 2.28901 -0.117014 0
M  V30 3663 C 358.185 1.46698 0.658503 0
M  V30 3664 O 359.375 1.67274 0.486305 0
M  V30 3665 C 356.507 3.30309 0.84315 0
M  V30 3666 H 357.7 2.8578 -0.909373 0
M  V30 3667 H 355.253 1.47761 -0.509547 0
M  V30 3668 H 355.988 2.785 1.66157 0
M  V30 3669 H 355.773 3.91029 0.289594 0
M  V30 3670 H 357.263 3.97577 1.2776 0
M  V30 3671 N 357.7 0.491464 1.49741 0
M  V30 3672 C 358.63 -0.28154 2.31796 0
M  V30 3673 C 359.611 -0.971473 1.3963 0
M  V30 3674 O 360.796 -0.964719 1.68543 0
M  V30 3675 C 357.926 -1.35203 3.19902 0
M  V30 3676 C 356.88 -0.782529 4.20786 0
M  V30 3677 C 356.206 -1.95283 4.97764 0
M  V30 3678 C 357.506 0.21999 5.21837 0
M  V30 3679 H 359.2 0.403355 2.96671 0
M  V30 3680 H 356.746 0.195425 1.42668 0
M  V30 3681 H 358.699 -1.90045 3.76113 0
M  V30 3682 H 357.423 -2.06598 2.52953 0
M  V30 3683 H 356.082 -0.255928 3.65706 0
M  V30 3684 H 355.73 -2.65423 4.2727 0
M  V30 3685 H 355.43 -1.57789 5.66018 0
M  V30 3686 H 356.954 -2.50577 5.56816 0
M  V30 3687 H 358.368 -0.23996 5.72798 0
M  V30 3688 H 356.765 0.51026 5.97927 0
M  V30 3689 H 357.835 1.13911 4.7133 0
M  V30 3690 N 359.178 -1.55987 0.224894 0
M  V30 3691 C 360.406 -2.02784 -0.410665 0
M  V30 3692 C 360.821 -1.10464 -1.53112 0
M  V30 3693 O 360.178 -0.114871 -1.82138 0
M  V30 3694 C 360.229 -3.49087 -0.939165 0
M  V30 3695 O 359.95 -4.37887 0.136614 0
M  V30 3696 C 361.451 -4.11543 -1.64763 0
M  V30 3697 H 358.671 -0.663484 -0.100148 0
M  V30 3698 H 361.215 -2.01614 0.342326 0
M  V30 3699 H 359.37 -3.50861 -1.64242 0
M  V30 3700 H 359.784 -5.23849 -0.261155 0
M  V30 3701 H 361.258 -5.15673 -1.96939 0
M  V30 3702 H 361.735 -3.56736 -2.56195 0
M  V30 3703 H 362.341 -4.13629 -0.989503 0
M  V30 3704 N 360.656 0.0484629 -1.57525 0
M  V30 3705 C 361.604 1.07359 -2.06341 0
M  V30 3706 C 362.598 1.3865 -0.973269 0
M  V30 3707 O 363.804 1.37783 -1.15827 0
M  V30 3708 H 360.179 0.363662 -0.65822 0
M  V30 3709 H 362.15 0.635916 -2.91545 0
M  V30 3710 C 360.899 2.37198 -2.54229 0
M  V30 3711 H 360.222 2.13977 -3.37719 0
M  V30 3712 H 361.662 3.07319 -2.92115 0
M  V30 3713 C 360.121 3.04805 -1.43511 0
M  V30 3714 O 360.651 3.93848 -0.79034 0
M  V30 3715 N 358.857 2.65811 -1.17444 0
M  V30 3716 H 358.404 1.93488 -1.70059 0
M  V30 3717 H 358.362 3.11366 -0.435737 0
M  V30 3718 N 362.134 1.5431 0.320358 0
M  V30 3719 C 363.064 1.86912 1.3995 0
M  V30 3720 C 364.045 0.726211 1.53819 0
M  V30 3721 O 365.23 0.980233 1.67646 0
M  V30 3722 C 362.36 2.09932 2.7667 0
M  V30 3723 C 361.314 3.25776 2.77586 0
M  V30 3724 C 360.64 3.34173 4.17412 0
M  V30 3725 C 361.94 4.6335 2.41048 0
M  V30 3726 H 363.634 2.77292 1.12914 0
M  V30 3727 H 361.18 1.33421 0.541738 0
M  V30 3728 H 363.133 2.31324 3.52232 0
M  V30 3729 H 361.857 1.16304 3.0519 0
M  V30 3730 H 360.516 3.04276 2.04479 0
M  V30 3731 H 360.164 2.38098 4.43078 0
M  V30 3732 H 359.864 4.12033 4.18931 0
M  V30 3733 H 361.388 3.57803 4.94782 0
M  V30 3734 H 362.802 4.84602 3.06324 0
M  V30 3735 H 361.199 5.43782 2.53813 0
M  V30 3736 H 362.269 4.65381 1.36193 0
M  V30 3737 N 363.613 -0.582584 1.46437 0
M  V30 3738 C 364.545 -1.70618 1.53043 0
M  V30 3739 C 365.558 -1.57322 0.418769 0
M  V30 3740 O 366.747 -1.64744 0.687136 0
M  V30 3741 C 363.847 -3.08869 1.39474 0
M  V30 3742 C 363.02 -3.48166 2.64762 0
M  V30 3743 C 362.079 -4.65478 2.4539 0
M  V30 3744 O 361.105 -4.71333 3.19114 0
M  V30 3745 N 362.307 -5.60365 1.51564 0
M  V30 3746 H 365.072 -1.65405 2.49923 0
M  V30 3747 H 362.633 -0.768567 1.42494 0
M  V30 3748 H 364.625 -3.85143 1.24287 0
M  V30 3749 H 363.195 -3.08449 0.507758 0
M  V30 3750 H 362.415 -2.61598 2.9489 0
M  V30 3751 H 363.703 -3.71188 3.4799 0
M  V30 3752 H 363.101 -5.5837 0.907705 0
M  V30 3753 H 361.658 -6.36068 1.4234 0
M  V30 3754 N 365.091 -1.34144 -0.827227 0
M  V30 3755 C 366.368 -1.16844 -1.56865 0
M  V30 3756 C 366.748 0.260654 -2.09485 0
M  V30 3757 O 366.096 1.26138 -1.9053 0
M  V30 3758 C 366.306 -2.21939 -2.6934 0
M  V30 3759 C 367.654 -2.56695 -3.3822 0
M  V30 3760 O 368.678 -2.20695 -2.79593 0
M  V30 3761 O 367.537 -3.18518 -4.44082 0
M  V30 3762 H 364.631 -0.452669 -0.692112 0
M  V30 3763 H 367.177 -1.45763 -0.868973 0
M  V30 3764 H 365.949 -3.17882 -2.28182 0
M  V30 3765 H 365.572 -1.94172 -3.46962 0
M  V30 3766 N 366.569 1.04691 -1.17803 0
M  V30 3767 C 367.985 1.29963 -0.926379 0
M  V30 3768 C 368.185 1.97251 0.411635 0
M  V30 3769 O 367.241 2.24922 1.14744 0
M  V30 3770 C 368.554 2.16447 -2.08737 0
M  V30 3771 C 370.102 2.29814 -2.12496 0
M  V30 3772 C 370.577 3.19661 -3.27995 0
M  V30 3773 N 372.068 3.27247 -3.27816 0
M  V30 3774 C 372.803 3.96906 -4.13827 0
M  V30 3775 N 372.299 4.6895 -5.09959 0
M  V30 3776 N 374.092 3.93122 -4.01761 0
M  V30 3777 H 366.243 0.594182 -2.0392 0
M  V30 3778 H 368.506 0.324649 -0.890678 0
M  V30 3779 H 368.212 1.74304 -3.05469 0
M  V30 3780 H 368.086 3.17103 -2.04268 0
M  V30 3781 H 370.473 2.71196 -1.16347 0
M  V30 3782 H 370.554 1.2877 -2.21025 0
M  V30 3783 H 370.198 2.78991 -4.24413 0
M  V30 3784 H 370.128 4.20722 -3.16703 0
M  V30 3785 H 372.619 2.75921 -2.58217 0
M  V30 3786 H 372.932 5.19679 -5.71974 0
M  V30 3787 H 371.277 4.67875 -5.13924 0
M  V30 3788 H 374.468 3.35967 -3.2595 0
M  V30 3789 H 374.641 4.47139 -4.6901 0
M  V30 3790 N 368.047 0.979072 1.23499 0
M  V30 3791 C 369.01 0.523244 2.23147 0
M  V30 3792 C 370.01 -0.386406 1.56088 0
M  V30 3793 O 371.2 -0.180283 1.73265 0
M  V30 3794 C 368.332 -0.240739 3.40049 0
M  V30 3795 H 369.525 1.40432 2.64989 0
M  V30 3796 H 367.078 0.764824 1.36309 0
M  V30 3797 H 367.813 -1.13841 3.03662 0
M  V30 3798 H 367.598 0.412207 3.89927 0
M  V30 3799 H 369.088 -0.548297 4.13985 0
M  V30 3800 N 369.525 -1.3858 0.750561 0
M  V30 3801 C 370.936 -1.82927 0.373438 0
M  V30 3802 C 371.287 -1.62634 -1.09748 0
M  V30 3803 O 370.412 -1.12588 -1.84805 0
M  V30 3804 C 371.007 -3.32088 0.671029 0
M  V30 3805 C 369.566 -3.74795 0.34722 0
M  V30 3806 C 368.713 -2.61391 0.92575 0
M  V30 3807 H 371.664 -1.27351 0.946958 0
M  V30 3808 H 371.685 -3.80465 -0.0518269 0
M  V30 3809 H 371.197 -3.46826 1.74164 0
M  V30 3810 H 369.298 -3.65638 -0.716933 0
M  V30 3811 H 369.411 -4.71667 0.840656 0
M  V30 3812 H 367.775 -2.52265 0.351327 0
M  V30 3813 H 368.558 -2.78929 2.00133 0
M  V30 3814 N 371.003 -0.499398 -1.49478 0
M  V30 3815 C 372.228 0.044722 -2.07352 0
M  V30 3816 C 372.653 1.30207 -1.35749 0
M  V30 3817 O 372.011 1.76516 -0.413732 0
M  V30 3818 C 372.059 0.283013 -3.59488 0
M  V30 3819 O 371.163 1.35804 -3.89398 0
M  V30 3820 H 370.504 -0.0255147 -0.66351 0
M  V30 3821 H 373.034 -0.698561 -1.92305 0
M  V30 3822 H 373.044 0.515007 -4.04737 0
M  V30 3823 H 371.719 -0.635636 -4.11014 0
M  V30 3824 H 370.296 1.11113 -3.55961 0
M  V30 3825 N 372.481 1.55866 -0.233164 0
M  V30 3826 C 373.428 2.20796 0.67215 0
M  V30 3827 C 374.398 1.16731 1.18166 0
M  V30 3828 O 375.583 1.45129 1.23864 0
M  V30 3829 C 372.723 2.90072 1.86955 0
M  V30 3830 C 371.836 4.08759 1.39786 0
M  V30 3831 C 370.971 4.65787 2.55374 0
M  V30 3832 C 370.01 5.76752 2.04998 0
M  V30 3833 N 369.147 6.28021 3.13901 0
M  V30 3834 H 373.987 2.9779 0.111749 0
M  V30 3835 H 371.524 1.47036 0.0434007 0
M  V30 3836 H 373.482 3.28428 2.57276 0
M  V30 3837 H 372.112 2.15575 2.40265 0
M  V30 3838 H 371.164 3.7581 0.589173 0
M  V30 3839 H 372.476 4.88906 0.98856 0
M  V30 3840 H 371.63 5.06646 3.33758 0
M  V30 3841 H 370.369 3.84828 2.99598 0
M  V30 3842 H 369.374 5.35383 1.25079 0
M  V30 3843 H 370.599 6.59553 1.61759 0
M  V30 3844 H 368.545 5.49971 3.57586 0
M  V30 3845 H 368.462 7.03323 2.7726 0
M  V30 3846 H 369.73 6.73538 3.92386 0
M  V30 3847 N 373.959 -0.0401083 1.57549 0
M  V30 3848 C 375.375 -0.395556 1.54621 0
M  V30 3849 C 375.575 -1.77281 0.957799 0
M  V30 3850 O 374.631 -2.45888 0.574031 0
M  V30 3851 C 375.944 -0.307535 2.99123 0
M  V30 3852 C 377.492 -0.385425 3.10618 0
M  V30 3853 C 377.967 -0.326973 4.56831 0
M  V30 3854 N 379.458 -0.386102 4.61588 0
M  V30 3855 C 380.193 -0.363591 5.72246 0
M  V30 3856 N 379.689 -0.29402 6.92176 0
M  V30 3857 N 381.482 -0.412503 5.60584 0
M  V30 3858 H 373.633 0.861325 1.94152 0
M  V30 3859 H 375.896 0.326445 0.890021 0
M  V30 3860 H 375.602 0.638461 3.45856 0
M  V30 3861 H 375.476 -1.10552 3.60636 0
M  V30 3862 H 377.863 -1.32185 2.63839 0
M  V30 3863 H 377.944 0.44171 2.51957 0
M  V30 3864 H 377.588 0.605738 5.04275 0
M  V30 3865 H 377.518 -1.17207 5.13391 0
M  V30 3866 H 380.009 -0.442832 3.75296 0
M  V30 3867 H 380.322 -0.28164 7.72287 0
M  V30 3868 H 378.667 -0.260232 6.94513 0
M  V30 3869 H 381.858 -0.464769 4.65787 0
M  V30 3870 H 382.031 -0.391492 6.46816 0
M  V30 3871 N 375.437 -1.54477 -0.31217 0
M  V30 3872 C 376.662 -1.77526 -1.07235 0
M  V30 3873 C 377.087 -0.527775 -1.80544 0
M  V30 3874 O 376.445 0.52121 -1.73646 0
M  V30 3875 C 376.493 -2.97535 -2.03728 0
M  V30 3876 O 375.597 -2.69878 -3.11833 0
M  V30 3877 H 374.938 -0.58792 -0.30862 0
M  V30 3878 H 377.468 -2.01532 -0.352993 0
M  V30 3879 H 377.478 -3.25198 -2.46395 0
M  V30 3880 H 376.153 -3.87996 -1.49774 0
M  V30 3881 H 374.73 -2.53199 -2.7376 0
M  V30 3882 N 376.915 0.57481 -1.46744 0
M  V30 3883 C 378.326 1.15695 -1.46532 0
M  V30 3884 C 378.677 1.95068 -0.210425 0
M  V30 3885 O 377.802 2.05241 0.685944 0
M  V30 3886 C 378.397 2.1048 -2.65487 0
M  V30 3887 C 376.956 2.64002 -2.68291 0
M  V30 3888 C 376.103 1.40026 -2.39349 0
M  V30 3889 H 379.054 0.362325 -1.54509 0
M  V30 3890 H 379.075 2.94074 -2.41455 0
M  V30 3891 H 378.587 1.52683 -3.56805 0
M  V30 3892 H 376.688 3.25646 -1.81067 0
M  V30 3893 H 376.801 3.06197 -3.68483 0
M  V30 3894 H 375.165 1.70106 -1.89568 0
M  V30 3895 H 375.948 0.840485 -3.32852 0
M  V30 3896 N 378.394 1.34581 0.820102 0
M  V30 3897 C 379.327 1.20735 1.93644 0
M  V30 3898 C 380.305 0.0983343 1.62302 0
M  V30 3899 O 381.489 0.263997 1.86642 0
M  V30 3900 C 378.616 0.856037 3.27704 0
M  V30 3901 C 377.662 1.97521 3.78005 0
M  V30 3902 S 378.495 3.58906 3.97425 0
M  V30 3903 C 379.651 3.25822 5.34407 0
M  V30 3904 H 379.884 2.15231 2.05093 0
M  V30 3905 H 377.417 1.1964 0.97599 0
M  V30 3906 H 379.375 0.660133 4.05157 0
M  V30 3907 H 378.036 -0.0706253 3.14021 0
M  V30 3908 H 377.229 1.68321 4.75062 0
M  V30 3909 H 376.831 2.12875 3.07507 0
M  V30 3910 H 379.123 2.77812 6.17922 0
M  V30 3911 H 380.066 4.22029 5.68592 0
M  V30 3912 H 380.474 2.61932 5.00052 0
M  V30 3913 N 379.872 -1.04064 1.18357 0
M  V30 3914 C 381.112 -1.78829 0.989921 0
M  V30 3915 C 381.476 -1.86106 -0.472095 0
M  V30 3916 O 382.677 -2.57076 -0.785187 0
M  V30 3917 C 380.948 -3.1823 1.6268 0
M  V30 3918 S 382.507 -4.09332 1.58091 0
M  V30 3919 H 379.325 -0.615754 0.355482 0
M  V30 3920 H 381.927 -1.24778 1.50501 0
M  V30 3921 H 380.631 -3.10543 2.68311 0
M  V30 3922 H 380.162 -3.77357 1.112 0
M  V30 3923 H 382.177 -4.92598 0.596817 0
M  V30 3924 N 381.35 -0.985608 -1.22978 0
M  V30 3925 C 382.298 -0.522631 -2.26652 0
M  V30 3926 C 383.292 0.422998 -1.64034 0
M  V30 3927 O 384.498 0.296319 -1.77544 0
M  V30 3928 H 380.873 -0.150597 -0.736766 0
M  V30 3929 H 382.844 -1.40863 -2.63059 0
M  V30 3930 C 381.593 0.154238 -3.47358 0
M  V30 3931 H 380.916 -0.564329 -3.95797 0
M  V30 3932 H 382.356 0.441744 -4.21693 0
M  V30 3933 C 380.815 1.38719 -3.07016 0
M  V30 3934 O 381.345 2.48307 -3.15764 0
M  V30 3935 N 379.551 1.25975 -2.61875 0
M  V30 3936 H 379.098 0.368068 -2.54957 0
M  V30 3937 H 379.056 2.08578 -2.3525 0
M  V30 3938 N 382.828 1.3818 -0.7579 0
M  V30 3939 C 383.76 2.2901 -0.0932177 0
M  V30 3940 C 384.773 1.47958 0.679136 0
M  V30 3941 O 385.962 1.70773 0.519514 0
M  V30 3942 C 383.062 3.26953 0.89192 0
M  V30 3943 C 382.235 4.37045 0.176303 0
M  V30 3944 C 381.294 5.15148 1.07281 0
M  V30 3945 O 380.32 5.66616 0.541728 0
M  V30 3946 N 381.522 5.28542 2.40049 0
M  V30 3947 H 384.287 2.86694 -0.873303 0
M  V30 3948 H 381.848 1.50007 -0.609054 0
M  V30 3949 H 383.84 3.76083 1.49479 0
M  V30 3950 H 382.41 2.70136 1.57306 0
M  V30 3951 H 381.63 3.89493 -0.607328 0
M  V30 3952 H 382.918 5.07801 -0.318718 0
M  V30 3953 H 382.316 4.88285 2.85647 0
M  V30 3954 H 380.873 5.8103 2.95376 0
M  V30 3955 N 384.306 0.507319 1.49211 0
M  V30 3956 C 385.717 0.0611118 1.866 0
M  V30 3957 C 386.068 -1.35488 1.41907 0
M  V30 3958 O 385.193 -2.0108 0.799726 0
M  V30 3959 C 385.788 0.104125 3.3864 0
M  V30 3960 C 384.347 -0.28677 3.75306 0
M  V30 3961 C 383.494 0.473893 2.73221 0
M  V30 3962 H 386.445 0.719775 1.41439 0
M  V30 3963 H 386.466 -0.689672 3.74198 0
M  V30 3964 H 385.978 1.13482 3.71138 0
M  V30 3965 H 384.079 -1.32046 3.48417 0
M  V30 3966 H 384.192 0.0370745 4.79086 0
M  V30 3967 H 382.556 -0.0770644 2.54583 0
M  V30 3968 H 383.339 1.50478 3.08563 0
M  V30 3969 N 385.784 -1.5574 0.241426 0
M  V30 3970 C 387.009 -2.0366 -0.392111 0
M  V30 3971 C 387.434 -1.11969 -1.51144 0
M  V30 3972 O 386.792 -0.111594 -1.80956 0
M  V30 3973 C 386.84 -3.49638 -0.882371 0
M  V30 3974 O 385.944 -3.6108 -1.99235 0
M  V30 3975 H 385.285 -0.658379 -0.0862122 0
M  V30 3976 H 387.815 -2.01302 0.365881 0
M  V30 3977 H 387.825 -3.90351 -1.18702 0
M  V30 3978 H 386.5 -4.15852 -0.0632361 0
M  V30 3979 H 385.077 -3.32262 -1.69282 0
M  V30 3980 N 387.262 0.0317525 -1.57568 0
M  V30 3981 C 388.511 0.722131 -1.8833 0
M  V30 3982 C 388.824 1.76664 -0.839587 0
M  V30 3983 O 390.03 2.50942 -1.03635 0
M  V30 3984 C 388.486 1.33544 -3.34207 0
M  V30 3985 C 388.094 0.327415 -4.46802 0
M  V30 3986 C 389.838 2.00585 -3.7412 0
M  V30 3987 C 387.745 0.948915 -5.83738 0
M  V30 3988 H 386.675 0.273466 -0.702661 0
M  V30 3989 H 389.326 -0.0235811 -1.83485 0
M  V30 3990 H 387.708 2.13077 -3.33788 0
M  V30 3991 H 388.882 -0.441006 -4.58685 0
M  V30 3992 H 387.197 -0.240758 -4.15703 0
M  V30 3993 H 389.794 2.47932 -4.73744 0
M  V30 3994 H 390.137 2.82285 -3.05975 0
M  V30 3995 H 390.67 1.27831 -3.76702 0
M  V30 3996 H 387.409 0.171387 -6.55276 0
M  V30 3997 H 386.929 1.68724 -5.7558 0
M  V30 3998 H 388.608 1.45705 -6.3038 0
M  V30 3999 N 388.74 1.54641 0.303973 0
M  V30 4000 C 389.688 1.86137 1.39484 0
M  V30 4001 C 390.682 0.734854 1.52631 0
M  V30 4002 O 391.888 0.918803 1.54784 0
M  V30 4003 H 388.263 0.590324 0.465856 0
M  V30 4004 H 390.234 2.77324 1.10154 0
M  V30 4005 C 388.983 2.12274 2.75382 0
M  V30 4006 H 388.306 2.98429 2.66046 0
M  V30 4007 H 389.746 2.38254 3.5073 0
M  V30 4008 C 388.205 0.920365 3.24085 0
M  V30 4009 O 388.735 0.139377 4.01458 0
M  V30 4010 N 386.941 0.726566 2.81371 0
M  V30 4011 H 386.488 1.36332 2.18567 0
M  V30 4012 H 386.446 -0.0763799 3.14307 0
M  V30 4013 N 390.218 -0.567019 1.47046 0
M  V30 4014 C 391.165 -1.67489 1.58796 0
M  V30 4015 C 392.135 -1.60399 0.43144 0
M  V30 4016 O 393.32 -1.79378 0.650233 0
M  V30 4017 C 390.46 -3.05821 1.59899 0
M  V30 4018 C 389.573 -3.2342 2.86397 0
M  V30 4019 C 388.708 -4.52093 2.789 0
M  V30 4020 C 387.747 -4.6309 4.00267 0
M  V30 4021 N 386.884 -5.83106 3.91064 0
M  V30 4022 H 391.724 -1.56785 2.53422 0
M  V30 4023 H 389.261 -0.763896 1.2571 0
M  V30 4024 H 391.219 -3.8591 1.58522 0
M  V30 4025 H 389.849 -3.15384 0.687929 0
M  V30 4026 H 388.901 -2.3683 2.97684 0
M  V30 4027 H 390.213 -3.27412 3.76301 0
M  V30 4028 H 389.367 -5.4043 2.75718 0
M  V30 4029 H 388.106 -4.50565 1.86662 0
M  V30 4030 H 387.111 -3.73168 4.03765 0
M  V30 4031 H 388.336 -4.66386 4.93621 0
M  V30 4032 H 386.282 -5.82546 3.01623 0
M  V30 4033 H 386.199 -5.88434 4.74638 0
M  V30 4034 H 387.467 -6.73831 3.91882 0
M  V30 4035 N 391.696 -1.35014 -0.812953 0
M  V30 4036 C 392.659 -1.27292 -1.90602 0
M  V30 4037 C 393.659 -0.185817 -1.59723 0
M  V30 4038 O 394.849 -0.439102 -1.68575 0
M  V30 4039 C 391.981 -0.967676 -3.26877 0
M  V30 4040 H 393.174 -2.24479 -1.9887 0
M  V30 4041 H 390.727 -1.19446 -1.00808 0
M  V30 4042 H 391.462 0.0005954 -3.243 0
M  V30 4043 H 391.247 -1.75412 -3.50675 0
M  V30 4044 H 392.737 -0.939085 -4.06904 0
M  V30 4045 N 393.175 1.03435 -1.18907 0
M  V30 4046 C 394.403 1.80381 -1.01342 0
M  V30 4047 C 394.818 1.83649 0.438005 0
M  V30 4048 O 394.175 1.27655 1.30424 0
M  V30 4049 C 394.226 3.25689 -1.56873 0
M  V30 4050 O 393.947 3.22673 -2.96334 0
M  V30 4051 C 395.448 4.19255 -1.44014 0
M  V30 4052 H 392.668 0.56784 -0.35749 0
M  V30 4053 H 395.212 1.30317 -1.576 0
M  V30 4054 H 393.367 3.72962 -1.04777 0
M  V30 4055 H 393.781 4.13748 -3.22355 0
M  V30 4056 H 395.255 5.19123 -1.87657 0
M  V30 4057 H 395.732 4.37467 -0.389815 0
M  V30 4058 H 396.338 3.77851 -1.95214 0
M  V30 4059 N 394.653 0.992116 1.22453 0
M  V30 4060 C 395.902 0.662992 1.90492 0
M  V30 4061 C 396.215 -0.808407 1.78113 0
M  V30 4062 O 397.421 -1.24908 2.41061 0
M  V30 4063 C 395.877 1.1353 3.41524 0
M  V30 4064 C 395.485 2.63187 3.62542 0
M  V30 4065 C 397.229 0.880465 4.15269 0
M  V30 4066 C 395.136 3.04024 5.0727 0
M  V30 4067 H 394.066 0.244278 0.713333 0
M  V30 4068 H 396.717 1.20157 1.38688 0
M  V30 4069 H 395.099 0.52485 3.92506 0
M  V30 4070 H 396.273 3.2957 3.22056 0
M  V30 4071 H 394.588 2.86543 3.02129 0
M  V30 4072 H 397.185 1.16128 5.21937 0
M  V30 4073 H 397.528 -0.183408 4.15896 0
M  V30 4074 H 398.061 1.45307 3.70312 0
M  V30 4075 H 394.8 4.09584 5.11782 0
M  V30 4076 H 394.32 2.42343 5.48662 0
M  V30 4077 H 395.999 2.95282 5.75689 0
M  V30 4078 N 396.131 -1.37776 0.765217 0
M  V30 4079 C 397.359 -2.04124 0.337767 0
M  V30 4080 C 397.774 -1.57715 -1.03785 0
M  V30 4081 O 397.131 -0.755447 -1.6613 0
M  V30 4082 C 397.182 -3.59658 0.364442 0
M  V30 4083 O 396.903 -4.04367 1.68579 0
M  V30 4084 C 398.404 -4.43236 -0.0754221 0
M  V30 4085 H 395.624 -0.655696 0.142491 0
M  V30 4086 H 398.168 -1.76238 1.03732 0
M  V30 4087 H 396.323 -3.86339 -0.286471 0
M  V30 4088 H 396.737 -4.98857 1.61993 0
M  V30 4089 H 398.211 -5.52 -0.00560067 0
M  V30 4090 H 398.688 -4.2455 -1.12491 0
M  V30 4091 H 399.294 -4.21767 0.547055 0
M  V30 4092 N 397.609 -0.515225 -1.4894 0
M  V30 4093 C 398.519 0.259774 -2.33157 0
M  V30 4094 C 399.535 0.953501 -1.45548 0
M  V30 4095 O 400.711 0.931735 -1.78552 0
M  V30 4096 C 397.776 1.30193 -3.21326 0
M  V30 4097 C 396.837 0.620129 -4.24797 0
M  V30 4098 C 396.07 1.61263 -5.08753 0
M  V30 4099 O 396.293 2.84389 -4.94448 0
M  V30 4100 O 395.227 1.16013 -5.90614 0
M  V30 4101 H 399.053 -0.429932 -3.00641 0
M  V30 4102 H 396.638 -0.276346 -1.46822 0
M  V30 4103 H 398.52 1.90455 -3.75905 0
M  V30 4104 H 397.195 1.97431 -2.56521 0
M  V30 4105 H 396.102 -0.0226019 -3.74093 0
M  V30 4106 H 397.435 -0.0100493 -4.92199 0
M  V30 4107 N 399.087 1.5561 -0.249682 0
M  V30 4108 C 399.997 2.25143 0.659375 0
M  V30 4109 C 401.013 1.2685 1.19101 0
M  V30 4110 O 402.189 1.59732 1.22669 0
M  V30 4111 C 399.254 2.93945 1.8384 0
M  V30 4112 C 398.315 4.07655 1.34596 0
M  V30 4113 C 397.548 4.73167 2.46878 0
M  V30 4114 O 397.771 4.37768 3.65671 0
M  V30 4115 O 396.705 5.61623 2.16478 0
M  V30 4116 H 400.531 3.03545 0.0968698 0
M  V30 4117 H 398.116 1.49389 -0.018074 0
M  V30 4118 H 399.998 3.37271 2.52638 0
M  V30 4119 H 398.673 2.18481 2.38847 0
M  V30 4120 H 397.58 3.68839 0.625174 0
M  V30 4121 H 398.913 4.84946 0.841941 0
M  V30 4122 N 400.565 -0.0233959 1.57583 0
M  V30 4123 C 401.528 -1.00693 2.05897 0
M  V30 4124 C 402.528 -1.28693 0.964092 0
M  V30 4125 O 403.718 -1.23602 1.22753 0
M  V30 4126 C 400.85 -2.33825 2.4807 0
M  V30 4127 H 402.043 -0.589476 2.9405 0
M  V30 4128 H 399.596 -0.270354 1.53944 0
M  V30 4129 H 400.331 -2.80307 1.6309 0
M  V30 4130 H 400.116 -2.1483 3.2801 0
M  V30 4131 H 401.606 -3.04426 2.85857 0
M  V30 4132 N 402.043 -1.548 -0.295768 0
M  V30 4133 C 403.273 -1.78069 -1.04762 0
M  V30 4134 C 403.681 -0.542847 -1.81245 0
M  V30 4135 O 403.024 0.497051 -1.76848 0
M  V30 4136 C 403.086 -2.93881 -2.07061 0
M  V30 4137 C 402.75 -4.31777 -1.49725 0
M  V30 4138 C 403.747 -5.11613 -0.924581 0
M  V30 4139 C 401.432 -4.78389 -1.5313 0
M  V30 4140 C 403.426 -6.36184 -0.393594 0
M  V30 4141 C 401.113 -6.02921 -0.996447 0
M  V30 4142 C 402.111 -6.81654 -0.428569 0
M  V30 4143 O 401.799 -8.0384 0.0981593 0
M  V30 4144 H 401.531 -0.597475 -0.316226 0
M  V30 4145 H 404.085 -2.02584 -0.338973 0
M  V30 4146 H 402.315 -2.65003 -2.81621 0
M  V30 4147 H 404.004 -3.04679 -2.6819 0
M  V30 4148 H 404.77 -4.76743 -0.891136 0
M  V30 4149 H 400.649 -4.17132 -1.9627 0
M  V30 4150 H 404.193 -6.97582 0.0503014 0
M  V30 4151 H 400.09 -6.37277 -1.02706 0
M  V30 4152 H 400.858 -8.18499 -0.0146455 0
M  V30 4153 N 403.521 0.559213 -1.47345 0
M  V30 4154 C 404.453 1.68161 -1.55738 0
M  V30 4155 C 405.466 1.56636 -0.443744 0
M  V30 4156 O 406.655 1.6363 -0.713258 0
M  V30 4157 C 403.755 3.06611 -1.4437 0
M  V30 4158 C 402.928 3.4391 -2.70268 0
M  V30 4159 C 401.987 4.61515 -2.52765 0
M  V30 4160 O 401.013 4.66197 -3.26572 0
M  V30 4161 N 402.215 5.57883 -1.6046 0
M  V30 4162 H 404.98 1.61408 -2.52522 0
M  V30 4163 H 402.541 0.7458 -1.43699 0
M  V30 4164 H 404.533 3.83117 -1.30398 0
M  V30 4165 H 403.103 3.07602 -0.556766 0
M  V30 4166 H 402.323 2.56873 -2.99015 0
M  V30 4167 H 403.611 3.65605 -3.53851 0
M  V30 4168 H 403.009 5.56855 -0.996422 0
M  V30 4169 H 401.566 6.33723 -1.52441 0
M  V30 4170 N 404.999 1.35443 0.805782 0
M  V30 4171 C 405.946 1.28431 1.91766 0
M  V30 4172 C 406.916 0.156102 1.65365 0
M  V30 4173 O 408.101 0.339936 1.87747 0
M  V30 4174 C 405.241 1.06301 3.2832 0
M  V30 4175 C 404.354 2.2805 3.66902 0
M  V30 4176 C 403.489 1.99064 4.92491 0
M  V30 4177 C 402.528 3.16863 5.23703 0
M  V30 4178 N 401.665 2.87647 6.40471 0
M  V30 4179 H 406.505 2.23511 1.97096 0
M  V30 4180 H 404.042 1.11105 0.964054 0
M  V30 4181 H 406 0.915012 4.07042 0
M  V30 4182 H 404.63 0.148822 3.22457 0
M  V30 4183 H 403.682 2.53711 2.83434 0
M  V30 4184 H 404.994 3.1601 3.85927 0
M  V30 4185 H 404.148 1.81099 5.7904 0
M  V30 4186 H 402.887 1.0839 4.75503 0
M  V30 4187 H 401.892 3.35404 4.35642 0
M  V30 4188 H 403.117 4.08339 5.4262 0
M  V30 4189 H 401.063 1.99568 6.24907 0
M  V30 4190 H 400.98 3.69141 6.59751 0
M  V30 4191 H 402.248 2.73226 7.30047 0
M  V30 4192 N 406.477 -1.02803 1.19454 0
M  V30 4193 C 407.407 -2.12999 0.956758 0
M  V30 4194 C 408.388 -1.69743 -0.110188 0
M  V30 4195 O 409.573 -1.94148 0.0450038 0
M  V30 4196 C 406.703 -3.43746 0.495553 0
M  V30 4197 C 405.657 -4.00688 1.50443 0
M  V30 4198 C 404.983 -5.27067 0.900275 0
M  V30 4199 C 406.283 -4.35397 2.8849 0
M  V30 4200 H 407.977 -2.33148 1.87836 0
M  V30 4201 H 405.523 -1.12045 0.904539 0
M  V30 4202 H 407.476 -4.2021 0.316493 0
M  V30 4203 H 406.2 -3.23321 -0.461646 0
M  V30 4204 H 404.859 -3.2632 1.67065 0
M  V30 4205 H 404.507 -5.02959 -0.064503 0
M  V30 4206 H 404.207 -5.66127 1.57397 0
M  V30 4207 H 405.731 -6.06196 0.73203 0
M  V30 4208 H 407.145 -5.02795 2.75446 0
M  V30 4209 H 405.542 -4.85541 3.52661 0
M  V30 4210 H 406.612 -3.44662 3.41081 0
M  V30 4211 N 407.956 -0.998596 -1.21925 0
M  V30 4212 C 408.919 -0.558679 -2.22287 0
M  V30 4213 C 409.919 0.361525 -1.56683 0
M  V30 4214 O 411.109 0.152695 -1.73529 0
M  V30 4215 C 408.241 0.18661 -3.40389 0
M  V30 4216 H 409.434 -1.4463 -2.62721 0
M  V30 4217 H 406.987 -0.786413 -1.35075 0
M  V30 4218 H 407.722 1.08996 -3.05435 0
M  V30 4219 H 407.507 -0.474188 -3.89222 0
M  V30 4220 H 408.997 0.482367 -4.14805 0
M  V30 4221 N 409.434 1.37368 -0.772513 0
M  V30 4222 C 410.659 2.0447 -0.347386 0
M  V30 4223 C 411.084 1.57882 1.0225 0
M  V30 4224 O 410.442 0.73941 1.65537 0
M  V30 4225 C 410.49 3.58369 -0.400479 0
M  V30 4226 O 409.594 4.0803 0.598789 0
M  V30 4227 H 408.935 0.646773 -0.15027 0
M  V30 4228 H 411.465 1.75667 -1.04892 0
M  V30 4229 H 411.475 4.07183 -0.258045 0
M  V30 4230 H 410.15 3.91633 -1.39986 0
M  V30 4231 H 408.727 3.70534 0.419411 0
M  V30 4232 N 410.912 0.523116 1.48665 0
M  V30 4233 C 411.822 -0.247406 2.33292 0
M  V30 4234 C 412.838 -0.945769 1.46052 0
M  V30 4235 O 414.014 -0.922253 1.79043 0
M  V30 4236 C 411.079 -1.28487 3.22012 0
M  V30 4237 C 410.14 -0.597592 4.2512 0
M  V30 4238 C 409.373 -1.58563 5.09601 0
M  V30 4239 O 409.596 -2.81763 4.95949 0
M  V30 4240 O 408.53 -1.12879 5.91221 0
M  V30 4241 H 412.356 0.445869 3.00409 0
M  V30 4242 H 409.941 0.284128 1.46673 0
M  V30 4243 H 411.823 -1.88459 3.7691 0
M  V30 4244 H 410.498 -1.96068 2.57564 0
M  V30 4245 H 409.405 0.0424407 3.74076 0
M  V30 4246 H 410.738 0.0361517 4.92187 0
M  V30 4247 N 412.39 -1.55475 0.257931 0
M  V30 4248 C 413.618 -2.03609 -0.367559 0
M  V30 4249 C 414.033 -1.13687 -1.50734 0
M  V30 4250 O 413.39 -0.153479 -1.81853 0
M  V30 4251 C 413.441 -3.51001 -0.864908 0
M  V30 4252 O 413.162 -4.37499 0.229465 0
M  V30 4253 C 414.663 -4.14946 -1.55997 0
M  V30 4254 H 411.883 -0.665459 -0.0860521 0
M  V30 4255 H 414.427 -2.00843 0.385014 0
M  V30 4256 H 412.582 -3.54266 -1.56762 0
M  V30 4257 H 412.996 -5.24286 -0.14998 0
M  V30 4258 H 414.47 -5.19735 -1.85956 0
M  V30 4259 H 414.947 -3.6209 -2.4857 0
M  V30 4260 H 415.553 -4.15635 -0.901543 0
M  V30 4261 N 413.868 0.0150385 -1.57593 0
M  V30 4262 C 414.798 1.01047 -2.10503 0
M  V30 4263 C 415.779 1.36816 -1.01071 0
M  V30 4264 O 416.964 1.45455 -1.28672 0
M  V30 4265 C 414.094 2.30708 -2.59598 0
M  V30 4266 C 413.048 2.09142 -3.73421 0
M  V30 4267 C 412.374 3.44685 -4.08774 0
M  V30 4268 C 413.674 1.46619 -5.01298 0
M  V30 4269 H 415.368 0.569978 -2.93925 0
M  V30 4270 H 412.914 0.272724 -1.41394 0
M  V30 4271 H 414.867 3.00687 -2.95238 0
M  V30 4272 H 413.591 2.76843 -1.73279 0
M  V30 4273 H 412.25 1.41592 -3.38153 0
M  V30 4274 H 411.898 3.88495 -3.195 0
M  V30 4275 H 411.598 3.31077 -4.8545 0
M  V30 4276 H 413.122 4.16004 -4.4696 0
M  V30 4277 H 414.536 2.06535 -5.34805 0
M  V30 4278 H 412.933 1.43544 -5.82679 0
M  V30 4279 H 414.003 0.433611 -4.82957 0
M  V30 4280 N 415.346 1.54954 0.287554 0
M  V30 4281 C 416.256 1.8991 1.37736 0
M  V30 4282 C 417.272 0.794701 1.54792 0
M  V30 4283 O 418.448 1.09243 1.69198 0
M  V30 4284 C 415.513 2.15108 2.71899 0
M  V30 4285 C 414.574 3.38752 2.63715 0
M  V30 4286 C 413.807 3.62739 3.91479 0
M  V30 4287 O 414.03 2.89492 4.91478 0
M  V30 4288 O 412.964 4.56267 3.92561 0
M  V30 4289 H 416.79 2.82652 1.11092 0
M  V30 4290 H 414.375 1.41315 0.484807 0
M  V30 4291 H 416.257 2.32806 3.51254 0
M  V30 4292 H 414.932 1.25551 2.9836 0
M  V30 4293 H 413.839 3.26405 1.82786 0
M  V30 4294 H 415.172 4.28483 2.42205 0
M  V30 4295 N 416.824 -0.551391 1.4764 0
M  V30 4296 C 417.734 -1.68525 1.63207 0
M  V30 4297 C 418.75 -1.6621 0.514815 0
M  V30 4298 O 419.926 -1.85551 0.783113 0
M  V30 4299 C 416.991 -3.05025 1.64805 0
M  V30 4300 C 416.052 -3.18362 2.88 0
M  V30 4301 C 415.285 -4.4835 2.89513 0
M  V30 4302 O 415.508 -5.34163 2.00065 0
M  V30 4303 O 414.442 -4.65602 3.81443 0
M  V30 4304 H 418.268 -1.58333 2.59161 0
M  V30 4305 H 415.853 -0.722063 1.30792 0
M  V30 4306 H 417.735 -3.86245 1.68502 0
M  V30 4307 H 416.41 -3.15587 0.720197 0
M  V30 4308 H 415.317 -2.36518 2.89845 0
M  V30 4309 H 416.65 -3.12707 3.80099 0
M  V30 4310 N 418.302 -1.35869 -0.798587 0
M  V30 4311 C 419.232 -1.32118 -1.92528 0
M  V30 4312 C 420.213 -0.194209 -1.68988 0
M  V30 4313 O 421.398 -0.390426 -1.90235 0
M  V30 4314 C 418.528 -1.10047 -3.29404 0
M  V30 4315 C 417.482 -2.19471 -3.67446 0
M  V30 4316 C 416.808 -1.82555 -5.02571 0
M  V30 4317 C 418.108 -3.61495 -3.76987 0
M  V30 4318 H 419.802 -2.26394 -1.95924 0
M  V30 4319 H 417.348 -1.08981 -0.94123 0
M  V30 4320 H 419.301 -1.06061 -4.07835 0
M  V30 4321 H 418.025 -0.122195 -3.26371 0
M  V30 4322 H 416.684 -2.22568 -2.91306 0
M  V30 4323 H 416.332 -0.833249 -4.9605 0
M  V30 4324 H 416.032 -2.5581 -5.28995 0
M  V30 4325 H 417.556 -1.80108 -5.83432 0
M  V30 4326 H 418.97 -3.60676 -4.4563 0
M  V30 4327 H 417.367 -4.33577 -4.14887 0
M  V30 4328 H 418.437 -3.97065 -2.78329 0
M  V30 4329 N 419.78 1.02168 -1.19998 0
M  V30 4330 C 421.057 1.72816 -0.916191 0
M  V30 4331 C 421.437 2.03081 0.576325 0
M  V30 4332 O 420.785 1.69122 1.53656 0
M  V30 4333 C 420.995 2.9997 -1.78378 0
M  V30 4334 C 422.343 3.73336 -2.02251 0
M  V30 4335 O 423.367 3.09914 -1.75589 0
M  V30 4336 O 422.226 4.87371 -2.47249 0
M  V30 4337 H 419.32 0.752924 -0.342103 0
M  V30 4338 H 421.866 1.08062 -1.30846 0
M  V30 4339 H 420.638 2.73888 -2.79466 0
M  V30 4340 H 420.261 3.72464 -1.39126 0
M  V30 4341 N 421.258 1.00505 1.21394 0
M  V30 4342 C 422.504 0.698477 1.91031 0
M  V30 4343 C 422.859 -0.762448 1.76648 0
M  V30 4344 O 422.152 -1.54554 1.13241 0
M  V30 4345 C 422.346 1.0546 3.41486 0
M  V30 4346 C 422.175 2.5486 3.70508 0
M  V30 4347 C 420.945 3.21461 3.8986 0
M  V30 4348 C 423.143 3.53019 3.74008 0
M  V30 4349 N 421.125 4.60211 4.06299 0
M  V30 4350 C 422.496 4.77279 3.95733 0
M  V30 4351 C 424.551 3.47154 3.56915 0
M  V30 4352 C 423.254 5.96388 4.02137 0
M  V30 4353 C 425.28 4.65652 3.64585 0
M  V30 4354 C 424.642 5.88717 3.86771 0
M  V30 4355 H 420.741 0.30707 0.719189 0
M  V30 4356 H 423.325 1.28753 1.46051 0
M  V30 4357 H 421.496 0.494007 3.85246 0
M  V30 4358 H 423.228 0.702765 3.98552 0
M  V30 4359 H 419.983 2.71906 3.87768 0
M  V30 4360 H 420.407 5.32216 4.1842 0
M  V30 4361 H 425.049 2.53015 3.38738 0
M  V30 4362 H 422.767 6.90919 4.19114 0
M  V30 4363 H 426.353 4.62717 3.52681 0
M  V30 4364 H 425.233 6.78877 3.92549 0
M  V30 4365 N 422.737 -1.36956 0.779787 0
M  V30 4366 C 423.977 -2.01328 0.353043 0
M  V30 4367 C 424.341 -1.60558 -1.05286 0
M  V30 4368 O 425.542 -2.1745 -1.58016 0
M  V30 4369 C 423.813 -3.53874 0.500822 0
M  V30 4370 S 425.372 -4.38506 0.16053 0
M  V30 4371 H 422.19 -0.69799 0.13539 0
M  V30 4372 H 424.792 -1.67016 1.01617 0
M  V30 4373 H 423.496 -3.81034 1.52451 0
M  V30 4374 H 423.027 -3.92994 -0.178574 0
M  V30 4375 H 425.042 -4.85153 -1.04121 0
M  V30 4376 N 424.215 -0.530993 -1.48385 0
M  V30 4377 C 425.145 0.219985 -2.32461 0
M  V30 4378 C 426.126 0.934111 -1.42156 0
M  V30 4379 O 427.311 0.919694 -1.71042 0
M  V30 4380 C 424.441 1.26674 -3.23375 0
M  V30 4381 C 423.395 0.67069 -4.22712 0
M  V30 4382 C 422.721 1.82017 -5.02766 0
M  V30 4383 C 424.021 -0.358268 -5.2107 0
M  V30 4384 H 425.715 -0.48187 -2.95497 0
M  V30 4385 H 423.261 -0.233182 -1.42099 0
M  V30 4386 H 425.214 1.80006 -3.81019 0
M  V30 4387 H 423.938 1.99818 -2.58341 0
M  V30 4388 H 422.597 0.158878 -3.66256 0
M  V30 4389 H 422.245 2.54002 -4.34157 0
M  V30 4390 H 421.945 1.42727 -5.70003 0
M  V30 4391 H 423.469 2.35725 -5.63264 0
M  V30 4392 H 424.883 0.0880081 -5.73232 0
M  V30 4393 H 423.28 -0.66861 -5.96364 0
M  V30 4394 H 424.35 -1.26367 -4.68145 0
M  V30 4395 N 425.693 1.55336 -0.266172 0
M  V30 4396 C 426.97 1.91372 0.404486 0
M  V30 4397 C 427.35 1.18935 1.74407 0
M  V30 4398 O 426.698 0.3132 2.26343 0
M  V30 4399 C 426.908 3.44581 0.553593 0
M  V30 4400 C 428.256 4.16196 0.840618 0
M  V30 4401 O 429.28 3.50426 0.638739 0
M  V30 4402 O 428.139 5.32567 1.22618 0
M  V30 4403 H 425.233 0.797194 0.220025 0
M  V30 4404 H 427.779 1.66813 -0.311664 0
M  V30 4405 H 426.551 3.89357 -0.389498 0
M  V30 4406 H 426.174 3.75065 1.31955 0
M  V30 4407 N 427.171 -0.0066808 1.57599 0
M  V30 4408 C 428.103 -1.02827 2.04839 0
M  V30 4409 C 429.116 -1.31108 0.965113 0
M  V30 4410 O 430.305 -1.28202 1.24203 0
M  V30 4411 C 427.405 -2.36464 2.42771 0
M  V30 4412 C 426.578 -2.27219 3.73751 0
M  V30 4413 C 425.637 -3.43489 3.98625 0
M  V30 4414 O 424.663 -3.21976 4.69382 0
M  V30 4415 N 425.865 -4.66116 3.46 0
M  V30 4416 H 428.63 -0.625455 2.93101 0
M  V30 4417 H 426.191 -0.194198 1.60731 0
M  V30 4418 H 428.183 -3.13008 2.56531 0
M  V30 4419 H 426.753 -2.68512 1.60063 0
M  V30 4420 H 425.973 -1.35629 3.70133 0
M  V30 4421 H 427.261 -2.18208 4.59633 0
M  V30 4422 H 426.659 -4.86493 2.88688 0
M  V30 4423 H 425.216 -5.39949 3.65101 0
M  V30 4424 N 428.649 -1.55105 -0.279332 0
M  V30 4425 C 429.579 -1.90557 -1.34945 0
M  V30 4426 C 430.56 -0.766738 -1.51839 0
M  V30 4427 O 431.745 -1.02434 -1.64988 0
M  V30 4428 C 428.875 -2.17193 -2.71006 0
M  V30 4429 C 427.829 -3.33021 -2.68851 0
M  V30 4430 C 427.155 -3.45123 -4.08405 0
M  V30 4431 C 428.455 -4.69578 -2.28678 0
M  V30 4432 H 430.149 -2.80188 -1.05522 0
M  V30 4433 H 427.695 -1.34811 -0.506173 0
M  V30 4434 H 429.648 -2.40581 -3.45975 0
M  V30 4435 H 428.372 -1.24355 -3.01999 0
M  V30 4436 H 427.031 -3.0959 -1.9634 0
M  V30 4437 H 426.679 -2.49762 -4.3661 0
M  V30 4438 H 426.379 -4.22995 -4.07859 0
M  V30 4439 H 427.903 -3.70796 -4.85121 0
M  V30 4440 H 429.317 -4.92553 -2.93368 0
M  V30 4441 H 427.714 -5.5032 -2.39306 0
M  V30 4442 H 428.784 -4.68828 -1.23807 0
M  V30 4443 N 430.127 0.543554 -1.4793 0
M  V30 4444 C 431.037 1.67657 -1.64098 0
M  V30 4445 C 432.053 1.65934 -0.523622 0
M  V30 4446 O 433.229 1.85133 -0.792943 0
M  V30 4447 C 430.294 3.04146 -1.66421 0
M  V30 4448 C 429.355 3.16831 -2.89684 0
M  V30 4449 C 428.588 4.46809 -2.91886 0
M  V30 4450 O 428.811 5.33095 -2.02895 0
M  V30 4451 O 427.745 4.63573 -3.83906 0
M  V30 4452 H 431.571 1.56957 -2.59997 0
M  V30 4453 H 429.156 0.715116 -1.31173 0
M  V30 4454 H 431.038 3.85346 -1.70548 0
M  V30 4455 H 429.713 3.152 -0.736923 0
M  V30 4456 H 428.62 2.34977 -2.91095 0
M  V30 4457 H 429.953 3.10687 -3.81752 0
M  V30 4458 N 431.605 1.3629 0.791371 0
M  V30 4459 C 432.833 1.33562 1.58016 0
M  V30 4460 C 433.248 -0.0835616 1.88615 0
M  V30 4461 O 432.605 -1.0399 1.49974 0
M  V30 4462 C 432.656 2.15517 2.90232 0
M  V30 4463 O 432.377 3.51902 2.60953 0
M  V30 4464 C 433.878 2.20546 3.84544 0
M  V30 4465 H 431.098 0.458226 0.490173 0
M  V30 4466 H 433.642 1.79361 0.982345 0
M  V30 4467 H 431.797 1.73278 3.46487 0
M  V30 4468 H 432.211 3.94644 3.4548 0
M  V30 4469 H 433.685 2.82252 4.74382 0
M  V30 4470 H 434.162 1.20838 4.2225 0
M  V30 4471 H 434.768 2.63013 3.34222 0
M  V30 4472 N 433.083 -1.0153 1.20538 0
M  V30 4473 C 434.013 -2.11972 0.979295 0
M  V30 4474 C 434.994 -1.6985 -0.0921787 0
M  V30 4475 O 436.179 -1.94089 0.0655932 0
M  V30 4476 C 433.309 -3.43201 0.531984 0
M  V30 4477 C 432.263 -3.9907 1.54685 0
M  V30 4478 C 431.589 -5.26082 0.956127 0
M  V30 4479 C 432.889 -4.32313 2.93092 0
M  V30 4480 H 434.583 -2.31143 1.90298 0
M  V30 4481 H 432.129 -1.11079 0.916372 0
M  V30 4482 H 434.082 -4.1985 0.361044 0
M  V30 4483 H 432.806 -3.23792 -0.427327 0
M  V30 4484 H 431.465 -3.2453 1.70517 0
M  V30 4485 H 431.113 -5.02999 -0.0111538 0
M  V30 4486 H 430.813 -5.64426 1.63393 0
M  V30 4487 H 432.337 -6.05386 0.796284 0
M  V30 4488 H 433.751 -4.99845 2.80763 0
M  V30 4489 H 432.148 -4.81774 3.57791 0
M  V30 4490 H 433.218 -3.41025 3.44717 0
M  V30 4491 N 434.561 -1.01147 -1.20859 0
M  V30 4492 C 435.493 -0.535546 -2.22855 0
M  V30 4493 C 436.506 0.379323 -1.58319 0
M  V30 4494 O 437.695 0.178489 -1.77605 0
M  V30 4495 C 434.795 0.240962 -3.38042 0
M  V30 4496 C 433.968 -0.674562 -4.32167 0
M  V30 4497 C 433.027 0.053467 -5.26173 0
M  V30 4498 O 432.053 -0.567339 -5.66366 0
M  V30 4499 N 433.255 1.32997 -5.65059 0
M  V30 4500 H 436.02 -1.41268 -2.64317 0
M  V30 4501 H 433.581 -0.888386 -1.35349 0
M  V30 4502 H 435.573 0.737115 -3.97931 0
M  V30 4503 H 434.143 1.01935 -2.95513 0
M  V30 4504 H 433.363 -1.35111 -3.70322 0
M  V30 4505 H 434.651 -1.2974 -4.91981 0
M  V30 4506 H 434.049 1.85536 -5.34409 0
M  V30 4507 H 432.606 1.77095 -6.2728 0
M  V30 4508 N 436.039 1.36541 -0.78704 0
M  V30 4509 C 437.267 2.03561 -0.370199 0
M  V30 4510 C 437.682 1.59347 1.01263 0
M  V30 4511 O 437.039 0.781781 1.64907 0
M  V30 4512 C 437.09 3.59033 -0.421614 0
M  V30 4513 O 436.811 4.01634 -1.7499 0
M  V30 4514 C 438.312 4.433 0.00489763 0
M  V30 4515 H 435.532 0.653346 -0.152904 0
M  V30 4516 H 438.076 1.74566 -1.06522 0
M  V30 4517 H 436.231 3.86746 0.224971 0
M  V30 4518 H 436.645 4.96217 -1.69909 0
M  V30 4519 H 438.119 5.51939 -0.0822184 0
M  V30 4520 H 438.596 4.26285 1.05723 0
M  V30 4521 H 439.202 4.20843 -0.614085 0
M  V30 4522 N 437.518 0.538854 1.48102 0
M  V30 4523 C 438.934 0.19732 1.58376 0
M  V30 4524 C 439.134 -1.29971 1.5398 0
M  V30 4525 O 438.19 -2.07861 1.43352 0
M  V30 4526 C 439.503 0.807716 2.89649 0
M  V30 4527 C 441.051 0.77726 3.03196 0
M  V30 4528 C 441.526 1.36639 4.37143 0
M  V30 4529 N 443.017 1.32875 4.43732 0
M  V30 4530 C 443.752 1.7544 5.45901 0
M  V30 4531 N 443.248 2.25776 6.54979 0
M  V30 4532 N 445.041 1.66623 5.36836 0
M  V30 4533 H 437.192 1.5117 1.49202 0
M  V30 4534 H 439.455 0.629327 0.708979 0
M  V30 4535 H 439.161 1.85909 2.98548 0
M  V30 4536 H 439.035 0.289975 3.76084 0
M  V30 4537 H 441.422 -0.265374 2.93904 0
M  V30 4538 H 441.503 1.33256 2.18349 0
M  V30 4539 H 441.147 2.408 4.47189 0
M  V30 4540 H 441.077 0.786689 5.20691 0
M  V30 4541 H 443.568 0.96037 3.65493 0
M  V30 4542 H 443.881 2.56226 7.29087 0
M  V30 4543 H 442.226 2.29775 6.55918 0
M  V30 4544 H 445.417 1.27089 4.50517 0
M  V30 4545 H 445.59 2.00115 6.16326 0
M  V30 4546 N 438.996 -1.55193 0.274407 0
M  V30 4547 C 439.946 -2.19184 -0.627882 0
M  V30 4548 C 440.93 -1.15625 -1.11892 0
M  V30 4549 O 442.122 -1.41441 -1.06411 0
M  V30 4550 C 439.251 -2.91591 -1.81189 0
M  V30 4551 C 438.337 -4.02438 -1.33807 0
M  V30 4552 N 438.728 -5.0246 -0.580349 0
M  V30 4553 C 437.026 -4.15496 -1.62109 0
M  V30 4554 C 437.727 -5.80756 -0.331344 0
M  V30 4555 N 436.703 -5.36038 -0.903556 0
M  V30 4556 H 440.505 -2.93871 -0.0411216 0
M  V30 4557 H 438.019 -1.62213 0.0779348 0
M  V30 4558 H 440.016 -3.35883 -2.46957 0
M  V30 4559 H 438.676 -2.18414 -2.40261 0
M  V30 4560 H 439.687 -5.17399 -0.227762 0
M  V30 4561 H 436.364 -3.53509 -2.22121 0
M  V30 4562 H 437.754 -6.71335 0.275454 0
M  V30 4563 N 440.474 -0.00167713 -1.576 0
M  V30 4564 C 441.699 0.69739 -1.95323 0
M  V30 4565 C 442.124 1.6642 -0.876706 0
M  V30 4566 O 441.482 1.80548 0.165007 0
M  V30 4567 C 441.53 1.40403 -3.32144 0
M  V30 4568 O 440.634 2.5185 -3.26566 0
M  V30 4569 H 439.975 0.185373 -0.637599 0
M  V30 4570 H 442.505 -0.0553665 -2.04525 0
M  V30 4571 H 442.515 1.76707 -3.67748 0
M  V30 4572 H 441.19 0.695167 -4.10049 0
M  V30 4573 H 439.767 2.17861 -3.0264 0
M  V30 4574 N 441.952 1.55251 0.271103 0
M  V30 4575 C 443.198 1.76207 1.00394 0
M  V30 4576 C 443.531 0.562604 1.85872 0
M  V30 4577 O 442.806 -0.439785 1.89463 0
M  V30 4578 C 443.089 3.06828 1.8849 0
M  V30 4579 C 442.942 4.37134 1.05992 0
M  V30 4580 C 444.261 3.33503 2.87165 0
M  V30 4581 H 441.38 0.641086 0.363562 0
M  V30 4582 H 444.022 1.87982 0.276189 0
M  V30 4583 H 442.172 2.96921 2.5054 0
M  V30 4584 H 443.844 4.59001 0.459978 0
M  V30 4585 H 442.087 4.32275 0.363443 0
M  V30 4586 H 442.758 5.2486 1.70955 0
M  V30 4587 H 445.234 3.43215 2.3525 0
M  V30 4588 H 444.11 4.2616 3.45946 0
M  V30 4589 H 444.371 2.53235 3.62387 0
M  V30 4590 N 443.43 -0.535701 1.48216 0
M  V30 4591 C 444.655 -1.32149 1.59848 0
M  V30 4592 C 445.08 -1.86338 0.256842 0
M  V30 4593 O 444.438 -1.64107 -0.770632 0
M  V30 4594 C 444.486 -2.45224 2.64381 0
M  V30 4595 O 443.59 -3.48093 2.21144 0
M  V30 4596 H 442.931 -0.391634 0.536208 0
M  V30 4597 H 445.461 -0.645202 1.94161 0
M  V30 4598 H 445.471 -2.91491 2.85476 0
M  V30 4599 H 444.146 -2.05143 3.61786 0
M  V30 4600 H 442.723 -3.07984 2.10239 0
M  V30 4601 N 444.908 -1.36708 -0.784132 0
M  V30 4602 C 445.818 -1.3363 -1.92822 0
M  V30 4603 C 446.834 -0.237686 -1.72369 0
M  V30 4604 O 448.01 -0.470962 -1.95816 0
M  V30 4605 C 445.075 -1.13011 -3.27764 0
M  V30 4606 C 444.136 -2.32397 -3.60957 0
M  V30 4607 C 443.369 -2.12752 -4.89461 0
M  V30 4608 O 443.592 -1.10541 -5.59586 0
M  V30 4609 O 442.526 -3.00653 -5.21432 0
M  V30 4610 H 446.352 -2.29964 -1.98369 0
M  V30 4611 H 443.937 -1.1731 -0.925136 0
M  V30 4612 H 445.819 -1.03451 -4.08504 0
M  V30 4613 H 444.494 -0.19743 -3.23097 0
M  V30 4614 H 443.401 -2.47527 -2.80502 0
M  V30 4615 H 444.734 -3.2419 -3.70354 0
M  V30 4616 N 446.386 1.0089 -1.21074 0
M  V30 4617 C 447.319 2.09279 -0.909806 0
M  V30 4618 C 448.297 1.61986 0.141145 0
M  V30 4619 O 449.481 1.88495 0.0130332 0
M  V30 4620 C 446.608 3.36723 -0.365374 0
M  V30 4621 C 445.654 4.02919 -1.39852 0
M  V30 4622 S 446.487 4.45835 -2.96633 0
M  V30 4623 C 447.643 5.76471 -2.43786 0
M  V30 4624 H 447.876 2.34484 -1.82769 0
M  V30 4625 H 445.409 1.14115 -1.04006 0
M  V30 4626 H 447.367 4.10459 -0.0578203 0
M  V30 4627 H 446.028 3.09577 0.531136 0
M  V30 4628 H 445.221 4.94634 -0.967117 0
M  V30 4629 H 444.823 3.35441 -1.65395 0
M  V30 4630 H 447.115 6.52027 -1.84029 0
M  V30 4631 H 448.058 6.24418 -3.33928 0
M  V30 4632 H 448.466 5.33104 -1.85636 0
M  V30 4633 N 447.864 1.01787 1.20321 0
M  V30 4634 C 448.827 0.593972 2.2137 0
M  V30 4635 C 449.827 -0.336553 1.57239 0
M  V30 4636 O 451.017 -0.125069 1.7375 0
M  V30 4637 C 448.149 -0.132433 3.40643 0
M  V30 4638 H 449.342 1.48791 2.60387 0
M  V30 4639 H 446.895 0.807803 1.33807 0
M  V30 4640 H 447.63 -1.04123 3.0713 0
M  V30 4641 H 447.415 0.53605 3.88418 0
M  V30 4642 H 448.905 -0.416314 4.1552 0
M  V30 4643 N 449.342 -1.36122 0.79427 0
M  V30 4644 C 450.567 -2.03891 0.379871 0
M  V30 4645 C 450.992 -1.59488 -0.997251 0
M  V30 4646 O 450.35 -0.765652 -1.64339 0
M  V30 4647 C 450.398 -3.57687 0.457442 0
M  V30 4648 O 449.502 -4.08931 -0.5338 0
M  V30 4649 H 448.843 -0.6443 0.160541 0
M  V30 4650 H 451.373 -1.73976 1.07673 0
M  V30 4651 H 451.383 -4.06721 0.322792 0
M  V30 4652 H 450.058 -3.89357 1.46199 0
M  V30 4653 H 448.635 -3.71154 -0.360409 0
M  V30 4654 N 450.82 -0.546701 -1.47814 0
M  V30 4655 C 451.768 0.220048 -2.31557 0
M  V30 4656 C 452.762 0.919472 -1.42275 0
M  V30 4657 O 453.968 0.841953 -1.59095 0
M  V30 4658 H 450.343 0.0898334 -0.746615 0
M  V30 4659 H 452.314 -0.505589 -2.94086 0
M  V30 4660 C 451.063 1.24353 -3.24702 0
M  V30 4661 H 450.386 0.714758 -3.93359 0
M  V30 4662 H 451.826 1.75112 -3.8615 0
M  V30 4663 C 450.285 2.28593 -2.47481 0
M  V30 4664 O 450.815 3.35334 -2.21165 0
M  V30 4665 N 449.021 2.02244 -2.08676 0
M  V30 4666 H 448.568 1.15455 -2.30278 0
M  V30 4667 H 448.526 2.72207 -1.57323 0
M  V30 4668 N 452.299 1.55045 -0.282633 0
M  V30 4669 C 453.246 2.22822 0.601566 0
M  V30 4670 C 454.216 1.20431 1.14392 0
M  V30 4671 O 455.401 1.48996 1.19184 0
M  V30 4672 C 452.541 2.95873 1.77632 0
M  V30 4673 C 451.654 4.12999 1.26711 0
M  V30 4674 C 450.789 4.73676 2.40426 0
M  V30 4675 C 449.828 5.82981 1.86545 0
M  V30 4676 N 448.965 6.3769 2.93762 0
M  V30 4677 H 453.805 2.97995 0.0169528 0
M  V30 4678 H 451.342 1.471 -0.00339964 0
M  V30 4679 H 453.3 3.36447 2.46697 0
M  V30 4680 H 451.93 2.2311 2.33285 0
M  V30 4681 H 450.982 3.77494 0.469314 0
M  V30 4682 H 452.294 4.91803 0.832518 0
M  V30 4683 H 451.448 5.17008 3.17471 0
M  V30 4684 H 450.187 3.94164 2.87203 0
M  V30 4685 H 449.192 5.39092 1.07983 0
M  V30 4686 H 450.417 6.64366 1.40694 0
M  V30 4687 H 448.363 5.61069 3.39908 0
M  V30 4688 H 448.28 7.11788 2.54744 0
M  V30 4689 H 449.548 6.8568 3.7076 0
M  V30 4690 N 453.777 0.010035 1.57597 0
M  V30 4691 C 455.024 -0.6727 1.91 0
M  V30 4692 C 455.352 -1.73219 0.884614 0
M  V30 4693 O 454.607 -1.95395 -0.109215 0
M  V30 4694 C 454.906 -1.34434 3.31153 0
M  V30 4695 C 454.572 -0.417083 4.48967 0
M  V30 4696 C 453.234 -0.161809 4.80928 0
M  V30 4697 C 455.586 0.220753 5.20732 0
M  V30 4698 C 452.914 0.739426 5.82022 0
M  V30 4699 C 455.266 1.10993 6.22787 0
M  V30 4700 C 453.93 1.37428 6.532 0
M  V30 4701 H 453.2 -0.246158 0.698918 0
M  V30 4702 H 455.847 0.0677145 1.9138 0
M  V30 4703 H 454.152 -2.15905 3.26944 0
M  V30 4704 H 455.849 -1.87883 3.54261 0
M  V30 4705 H 452.439 -0.626217 4.24001 0
M  V30 4706 H 456.623 0.0365643 4.96287 0
M  V30 4707 H 451.879 0.952139 6.03941 0
M  V30 4708 H 456.053 1.61046 6.77523 0
M  V30 4709 H 453.68 2.0743 7.31353 0
M  V30 4710 N 455.255 -1.55392 -0.262866 0
M  V30 4711 C 456.202 -1.88966 -1.32516 0
M  V30 4712 C 457.172 -0.742187 -1.48596 0
M  V30 4713 O 458.357 -0.99439 -1.62839 0
M  V30 4714 C 455.497 -2.17592 -2.67858 0
M  V30 4715 C 454.61 -3.45061 -2.59917 0
M  V30 4716 C 453.745 -3.63336 -3.87505 0
M  V30 4717 C 452.784 -4.84462 -3.74116 0
M  V30 4718 N 451.921 -4.99342 -4.93561 0
M  V30 4719 H 456.761 -2.79566 -1.03184 0
M  V30 4720 H 454.298 -1.38404 -0.498285 0
M  V30 4721 H 456.256 -2.3219 -3.46617 0
M  V30 4722 H 454.886 -1.30215 -2.95371 0
M  V30 4723 H 453.938 -3.38881 -1.72812 0
M  V30 4724 H 455.25 -4.3396 -2.45926 0
M  V30 4725 H 454.404 -3.77807 -4.74707 0
M  V30 4726 H 453.143 -2.72641 -4.04374 0
M  V30 4727 H 452.148 -4.69985 -2.85297 0
M  V30 4728 H 453.373 -5.76603 -3.58757 0
M  V30 4729 H 451.319 -4.1158 -5.10821 0
M  V30 4730 H 451.236 -5.82303 -4.82141 0
M  V30 4731 H 452.504 -5.18208 -5.82306 0
M  V30 4732 N 456.733 0.527833 -1.48498 0
M  V30 4733 C 458.149 0.856571 -1.34666 0
M  V30 4734 C 458.349 1.98271 -0.35931 0
M  V30 4735 O 457.405 2.51551 0.218703 0
M  V30 4736 C 458.718 1.22207 -2.74747 0
M  V30 4737 C 460.266 1.33183 -2.83251 0
M  V30 4738 C 460.741 1.73075 -4.24039 0
M  V30 4739 N 462.232 1.80174 -4.26722 0
M  V30 4740 C 462.967 2.1243 -5.32598 0
M  V30 4741 N 462.463 2.43096 -6.4875 0
M  V30 4742 N 464.256 2.13454 -5.19994 0
M  V30 4743 H 456.407 -0.215174 -2.11307 0
M  V30 4744 H 458.67 -0.0336281 -0.947403 0
M  V30 4745 H 458.376 0.468195 -3.4857 0
M  V30 4746 H 458.25 2.17173 -3.08409 0
M  V30 4747 H 460.637 2.07647 -2.09683 0
M  V30 4748 H 460.718 0.363333 -2.53206 0
M  V30 4749 H 460.362 0.991712 -4.98124 0
M  V30 4750 H 460.292 2.70979 -4.51529 0
M  V30 4751 H 462.783 1.58744 -3.42942 0
M  V30 4752 H 463.096 2.6682 -7.25277 0
M  V30 4753 H 461.441 2.40611 -6.52021 0
M  V30 4754 H 464.632 1.88956 -4.28268 0
M  V30 4755 H 464.805 2.38261 -6.02608 0
M  V30 4756 N 458.211 1.37122 0.776871 0
M  V30 4757 C 459.144 1.26835 1.89705 0
M  V30 4758 C 460.122 0.14992 1.61907 0
M  V30 4759 O 461.306 0.323242 1.85708 0
M  V30 4760 C 458.433 0.95986 3.24814 0
M  V30 4761 C 457.479 2.09447 3.7153 0
M  V30 4762 S 458.312 3.71368 3.85806 0
M  V30 4763 C 459.468 3.42659 5.23771 0
M  V30 4764 H 459.701 2.21647 1.98141 0
M  V30 4765 H 457.234 1.22685 0.937433 0
M  V30 4766 H 459.192 0.788696 4.02852 0
M  V30 4767 H 457.853 0.0293137 3.14086 0
M  V30 4768 H 457.046 1.8335 4.69467 0
M  V30 4769 H 456.648 2.2255 3.00578 0
M  V30 4770 H 458.94 2.9733 6.0877 0
M  V30 4771 H 459.883 4.39905 5.54878 0
M  V30 4772 H 460.291 2.77708 4.91466 0
M  V30 4773 N 459.689 -1.00246 1.21608 0
M  V30 4774 C 460.619 -2.10921 1.00172 0
M  V30 4775 C 461.6 -1.69938 -0.0741587 0
M  V30 4776 O 462.785 -1.94009 0.0861753 0
M  V30 4777 C 459.915 -3.42618 0.568355 0
M  V30 4778 C 458.869 -3.97407 1.58909 0
M  V30 4779 C 458.195 -5.25038 1.01187 0
M  V30 4780 C 459.495 -4.2918 2.97661 0
M  V30 4781 H 461.189 -2.29112 1.92739 0
M  V30 4782 H 458.735 -1.10101 0.928102 0
M  V30 4783 H 460.688 -4.19444 0.405555 0
M  V30 4784 H 459.412 -3.24227 -0.392961 0
M  V30 4785 H 458.071 -3.22703 1.73949 0
M  V30 4786 H 457.719 -5.02982 0.0421965 0
M  V30 4787 H 457.419 -5.62661 1.6937 0
M  V30 4788 H 458.943 -6.04507 0.860448 0
M  V30 4789 H 460.357 -4.96839 2.86049 0
M  V30 4790 H 458.754 -4.77952 3.6288 0
M  V30 4791 H 459.824 -3.3735 3.48315 0
M  V30 4792 N 461.167 -1.02423 -1.1978 0
M  V30 4793 C 462.115 -0.594474 -2.24875 0
M  V30 4794 C 463.109 0.370598 -1.65296 0
M  V30 4795 O 464.315 0.239684 -1.78397 0
M  V30 4796 H 460.69 -0.173961 -0.731602 0
M  V30 4797 H 462.661 -1.4916 -2.58445 0
M  V30 4798 C 461.41 0.0436512 -3.47673 0
M  V30 4799 H 460.733 -0.689963 -3.93801 0
M  V30 4800 H 462.173 0.307362 -4.22884 0
M  V30 4801 C 460.632 1.28881 -3.11274 0
M  V30 4802 O 461.162 2.38135 -3.23503 0
M  V30 4803 N 459.368 1.1758 -2.6575 0
M  V30 4804 H 458.915 0.286769 -2.55999 0
M  V30 4805 H 458.873 2.00988 -2.41767 0
M  V30 4806 N 462.645 1.35699 -0.801477 0
M  V30 4807 C 464.061 1.52065 -0.484596 0
M  V30 4808 C 464.261 1.75215 0.995084 0
M  V30 4809 O 463.317 1.79061 1.78026 0
M  V30 4810 C 464.63 2.69908 -1.32552 0
M  V30 4811 C 466.178 2.83784 -1.32044 0
M  V30 4812 C 466.653 4.04646 -2.14536 0
M  V30 4813 N 468.144 4.11814 -2.12046 0
M  V30 4814 C 468.879 5.04437 -2.72636 0
M  V30 4815 N 468.375 6.02426 -3.42133 0
M  V30 4816 N 470.168 4.97144 -2.62305 0
M  V30 4817 H 462.319 1.18928 -1.75983 0
M  V30 4818 H 464.582 0.581455 -0.748741 0
M  V30 4819 H 464.288 2.59363 -2.37537 0
M  V30 4820 H 464.162 3.64376 -0.975181 0
M  V30 4821 H 466.549 2.93783 -0.27846 0
M  V30 4822 H 466.63 1.90188 -1.71062 0
M  V30 4823 H 466.274 3.95407 -3.18772 0
M  V30 4824 H 466.204 4.97413 -1.72882 0
M  V30 4825 H 468.695 3.41664 -1.61476 0
M  V30 4826 H 469.008 6.69688 -3.85666 0
M  V30 4827 H 467.353 6.02615 -3.46237 0
M  V30 4828 H 470.544 4.19546 -2.07603 0
M  V30 4829 H 470.717 5.69138 -3.09815 0
M  V30 4830 N 464.123 0.554532 1.47522 0
M  V30 4831 C 465.033 -0.197865 2.33764 0
M  V30 4832 C 466.049 -0.914576 1.48025 0
M  V30 4833 O 467.225 -0.884067 1.80959 0
M  V30 4834 C 464.29 -1.21628 3.24665 0
M  V30 4835 C 463.351 -0.507283 4.26292 0
M  V30 4836 C 462.584 -1.47718 5.1285 0
M  V30 4837 O 462.807 -2.7118 5.01814 0
M  V30 4838 O 461.741 -1.00313 5.93482 0
M  V30 4839 H 465.567 0.50949 2.99396 0
M  V30 4840 H 463.152 0.315176 1.46038 0
M  V30 4841 H 465.034 -1.80421 3.80823 0
M  V30 4842 H 463.709 -1.9056 2.61665 0
M  V30 4843 H 462.616 0.121778 3.73902 0
M  V30 4844 H 463.949 0.140544 4.91999 0
M  V30 4845 N 465.601 -1.54893 0.290851 0
M  V30 4846 C 466.531 -2.26103 -0.583084 0
M  V30 4847 C 467.512 -1.25684 -1.14619 0
M  V30 4848 O 468.697 -1.54436 -1.17741 0
M  V30 4849 C 465.827 -2.99409 -1.75987 0
M  V30 4850 C 464.781 -4.0689 -1.32758 0
M  V30 4851 C 464.107 -4.67856 -2.58872 0
M  V30 4852 C 465.407 -5.20215 -0.46624 0
M  V30 4853 H 467.101 -2.99398 0.0108214 0
M  V30 4854 H 464.647 -1.43998 0.00664468 0
M  V30 4855 H 466.6 -3.47943 -2.37727 0
M  V30 4856 H 465.324 -2.23675 -2.37985 0
M  V30 4857 H 463.983 -3.59191 -0.733299 0
M  V30 4858 H 463.631 -3.88772 -3.19163 0
M  V30 4859 H 463.331 -5.40438 -2.30653 0
M  V30 4860 H 464.855 -5.19147 -3.21433 0
M  V30 4861 H 466.269 -5.64704 -0.989047 0
M  V30 4862 H 464.666 -5.99455 -0.27826 0
M  V30 4863 H 465.736 -4.82198 0.511173 0
M  V30 4864 N 467.08 -0.0183926 -1.57589 0
M  V30 4865 C 468.308 0.673046 -1.95647 0
M  V30 4866 C 468.723 1.66275 -0.894312 0
M  V30 4867 O 468.08 1.82072 0.124975 0
M  V30 4868 C 468.131 1.38884 -3.33756 0
M  V30 4869 O 467.852 0.438806 -4.35897 0
M  V30 4870 C 469.353 2.1731 -3.86383 0
M  V30 4871 H 466.573 0.186292 -0.644621 0
M  V30 4872 H 469.117 -0.0749748 -2.04363 0
M  V30 4873 H 467.272 2.08835 -3.26293 0
M  V30 4874 H 467.686 0.945869 -5.15901 0
M  V30 4875 H 469.16 2.62863 -4.85394 0
M  V30 4876 H 469.637 3.00764 -3.20059 0
M  V30 4877 H 470.243 1.52339 -3.97081 0
M  V30 4878 N 468.558 1.5553 0.254621 0
M  V30 4879 C 469.508 1.86057 1.31783 0
M  V30 4880 C 470.492 0.720827 1.4385 0
M  V30 4881 O 471.684 0.982586 1.47222 0
M  V30 4882 C 468.813 2.15203 2.67475 0
M  V30 4883 C 467.899 3.35484 2.59444 0
M  V30 4884 N 468.29 4.54945 2.2104 0
M  V30 4885 C 466.588 3.38441 2.90472 0
M  V30 4886 C 467.289 5.3707 2.23453 0
M  V30 4887 N 466.265 4.75936 2.62652 0
M  V30 4888 H 470.067 2.75953 1.01129 0
M  V30 4889 H 467.581 1.55653 0.463255 0
M  V30 4890 H 469.578 2.35235 3.44195 0
M  V30 4891 H 468.238 1.26601 2.99002 0
M  V30 4892 H 469.249 4.8071 1.92712 0
M  V30 4893 H 465.926 2.60087 3.2659 0
M  V30 4894 H 467.316 6.42626 1.96166 0
M  V30 4895 N 470.036 -0.519951 1.48776 0
M  V30 4896 C 470.966 -1.63253 1.66945 0
M  V30 4897 C 471.947 -1.62014 0.518224 0
M  V30 4898 O 473.132 -1.79053 0.751919 0
M  V30 4899 C 470.262 -3.0181 1.71836 0
M  V30 4900 C 469.216 -3.17911 2.8656 0
M  V30 4901 C 468.542 -4.5763 2.76548 0
M  V30 4902 C 469.842 -2.99729 4.27738 0
M  V30 4903 H 471.536 -1.48302 2.6009 0
M  V30 4904 H 469.082 -0.712026 1.25165 0
M  V30 4905 H 471.035 -3.79525 1.83135 0
M  V30 4906 H 469.759 -3.17806 0.752775 0
M  V30 4907 H 468.418 -2.42616 2.74833 0
M  V30 4908 H 468.066 -4.70476 1.77937 0
M  V30 4909 H 467.766 -4.69346 3.53536 0
M  V30 4910 H 469.29 -5.37431 2.89828 0
M  V30 4911 H 470.704 -3.67228 4.40246 0
M  V30 4912 H 469.101 -3.22932 5.05801 0
M  V30 4913 H 470.171 -1.96047 4.43502 0
M  V30 4914 N 471.514 -1.37532 -0.769588 0
M  V30 4915 C 472.739 -1.36231 -1.56384 0
M  V30 4916 C 473.164 0.0495849 -1.88035 0
M  V30 4917 O 472.522 1.02723 -1.49391 0
M  V30 4918 C 472.57 -2.20986 -2.84952 0
M  V30 4919 O 471.674 -1.61597 -3.79421 0
M  V30 4920 H 471.015 -0.465387 -0.473615 0
M  V30 4921 H 473.545 -1.81085 -0.952342 0
M  V30 4922 H 473.555 -2.34277 -3.34034 0
M  V30 4923 H 472.23 -3.23612 -2.61243 0
M  V30 4924 H 470.807 -1.57359 -3.38072 0
M  V30 4925 N 472.992 0.995999 -1.22138 0
M  V30 4926 C 473.902 2.11985 -1.00496 0
M  V30 4927 C 474.918 1.7394 0.0457701 0
M  V30 4928 O 476.094 2.00868 -0.146273 0
M  V30 4929 C 473.159 3.41779 -0.582086 0
M  V30 4930 C 472.22 3.93943 -1.70608 0
M  V30 4931 C 471.453 5.17542 -1.30328 0
M  V30 4932 O 471.676 5.70114 -0.180743 0
M  V30 4933 O 470.61 5.63382 -2.11861 0
M  V30 4934 H 474.436 2.33123 -1.94647 0
M  V30 4935 H 472.021 1.10358 -1.00705 0
M  V30 4936 H 473.903 4.1989 -0.356467 0
M  V30 4937 H 472.578 3.22007 0.330592 0
M  V30 4938 H 471.485 3.17019 -1.98619 0
M  V30 4939 H 472.818 4.18141 -2.59651 0
M  V30 4940 N 474.47 1.03057 1.19235 0
M  V30 4941 C 475.403 0.557384 2.21288 0
M  V30 4942 C 476.381 -0.402675 1.57535 0
M  V30 4943 O 477.565 -0.319376 1.85775 0
M  V30 4944 C 474.692 -0.187041 3.38183 0
M  V30 4945 C 473.738 0.72471 4.20298 0
M  V30 4946 S 474.571 2.20187 4.88137 0
M  V30 4947 C 475.727 1.46801 6.08441 0
M  V30 4948 H 475.96 1.42207 2.61083 0
M  V30 4949 H 473.493 0.840651 1.29508 0
M  V30 4950 H 475.451 -0.610405 4.05936 0
M  V30 4951 H 474.112 -1.02748 2.96819 0
M  V30 4952 H 473.305 0.149911 5.03777 0
M  V30 4953 H 472.907 1.08647 3.57871 0
M  V30 4954 H 475.199 0.755522 6.73274 0
M  V30 4955 H 476.142 2.27946 6.70407 0
M  V30 4956 H 476.55 0.964762 5.56195 0
M  V30 4957 N 475.948 -1.35272 0.808662 0
M  V30 4958 C 477.173 -2.03477 0.401475 0
M  V30 4959 C 477.598 -1.60537 -0.980279 0
M  V30 4960 O 476.956 -0.78304 -1.63518 0
M  V30 4961 C 477.004 -3.57181 0.495354 0
M  V30 4962 O 476.108 -4.09474 -0.490397 0
M  V30 4963 H 475.449 -0.642561 0.167366 0
M  V30 4964 H 477.979 -1.72824 1.09512 0
M  V30 4965 H 477.989 -4.06356 0.365912 0
M  V30 4966 H 476.664 -3.87784 1.5032 0
M  V30 4967 H 475.241 -3.71516 -0.321023 0
M  V30 4968 N 477.426 -0.562348 -1.47226 0
M  V30 4969 C 478.842 -0.222492 -1.58042 0
M  V30 4970 C 479.042 1.27505 -1.56028 0
M  V30 4971 O 478.098 2.05555 -1.46641 0
M  V30 4972 C 479.411 -0.853694 -2.88327 0
M  V30 4973 C 480.959 -0.825397 -3.01921 0
M  V30 4974 C 481.434 -1.43576 -4.34914 0
M  V30 4975 N 482.925 -1.39918 -4.41562 0
M  V30 4976 C 483.66 -1.84103 -5.43041 0
M  V30 4977 N 483.156 -2.36167 -6.51304 0
M  V30 4978 N 484.949 -1.75142 -5.34118 0
M  V30 4979 H 477.1 -1.53525 -1.46778 0
M  V30 4980 H 479.363 -0.640527 -0.698877 0
M  V30 4981 H 479.069 -1.90635 -2.95552 0
M  V30 4982 H 478.943 -0.34977 -3.75575 0
M  V30 4983 H 481.33 0.218583 -2.94289 0
M  V30 4984 H 481.411 -1.36713 -2.16202 0
M  V30 4985 H 481.055 -2.47884 -4.43301 0
M  V30 4986 H 480.985 -0.869427 -5.19373 0
M  V30 4987 H 483.476 -1.0184 -3.63919 0
M  V30 4988 H 483.789 -2.67793 -7.24919 0
M  V30 4989 H 482.134 -2.40181 -6.52179 0
M  V30 4990 H 485.325 -1.34241 -4.48439 0
M  V30 4991 H 485.498 -2.09895 -6.13065 0
M  V30 4992 N 478.904 1.54736 -0.299062 0
M  V30 4993 C 480.129 2.04975 0.316254 0
M  V30 4994 C 480.554 1.17501 1.46885 0
M  V30 4995 O 479.912 0.178678 1.80417 0
M  V30 4996 C 479.96 3.52672 0.751997 0
M  V30 4997 O 479.064 3.68226 1.85697 0
M  V30 4998 H 478.405 0.661126 0.0617175 0
M  V30 4999 H 480.935 1.99805 -0.440341 0
M  V30 5000 H 480.945 3.94488 1.04133 0
M  V30 5001 H 479.62 4.158 -0.0911482 0
M  V30 5002 H 478.197 3.38316 1.56834 0
M  V30 5003 N 480.382 0.0267497 1.57577 0
M  V30 5004 C 481.63 -0.651116 1.91324 0
M  V30 5005 C 481.951 -1.72804 0.90353 0
M  V30 5006 O 481.221 -1.95822 -0.0552946 0
M  V30 5007 H 479.801 -0.243491 0.706202 0
M  V30 5008 H 482.463 0.0739935 1.94759 0
M  V30 5009 H 481.559 -1.10536 2.9187 0
M  V30 5010 N 481.861 -1.55662 -0.24637 0
M  V30 5011 C 482.809 -1.91186 -1.3248 0
M  V30 5012 C 483.803 -0.790996 -1.49799 0
M  V30 5013 O 485.009 -0.975617 -1.51267 0
M  V30 5014 H 481.384 -0.607207 -0.443626 0
M  V30 5015 H 483.355 -2.81221 -0.997853 0
M  V30 5016 C 482.104 -2.22349 -2.67313 0
M  V30 5017 H 481.427 -3.08097 -2.54786 0
M  V30 5018 H 482.867 -2.51107 -3.41645 0
M  V30 5019 C 481.326 -1.04001 -3.20446 0
M  V30 5020 O 481.856 -0.28828 -4.00664 0
M  V30 5021 N 480.062 -0.830494 -2.7848 0
M  V30 5022 H 479.609 -1.4435 -2.13356 0
M  V30 5023 H 479.567 -0.0403258 -3.14374 0
M  V30 5024 N 483.339 0.512053 -1.4905 0
M  V30 5025 C 484.271 1.63121 -1.6101 0
M  V30 5026 C 485.284 1.55145 -0.493352 0
M  V30 5027 O 486.473 1.61278 -0.764955 0
M  V30 5028 C 483.573 3.01863 -1.54052 0
M  V30 5029 C 482.746 3.35138 -2.81072 0
M  V30 5030 C 481.805 4.5324 -2.67319 0
M  V30 5031 O 480.831 4.55571 -3.41238 0
M  V30 5032 N 482.033 5.52495 -1.78127 0
M  V30 5033 H 484.798 1.53292 -2.5753 0
M  V30 5034 H 482.359 0.699706 -1.45999 0
M  V30 5035 H 484.351 3.78774 -1.42521 0
M  V30 5036 H 482.921 3.05675 -0.654345 0
M  V30 5037 H 482.141 2.4723 -3.07036 0
M  V30 5038 H 483.429 3.54162 -3.65304 0
M  V30 5039 H 482.827 5.53403 -1.17308 0
M  V30 5040 H 481.384 6.28553 -1.72525 0
M  V30 5041 N 484.817 1.37938 0.762283 0
M  V30 5042 C 486.063 1.33866 1.52341 0
M  V30 5043 C 486.396 -0.0738961 1.94059 0
M  V30 5044 O 485.671 -1.03326 1.64785 0
M  V30 5045 C 485.954 2.28644 2.78197 0
M  V30 5046 C 485.807 3.78722 2.42672 0
M  V30 5047 C 487.126 2.21702 3.80179 0
M  V30 5048 H 484.245 0.487593 0.55265 0
M  V30 5049 H 486.887 1.68717 0.873767 0
M  V30 5050 H 485.037 1.99055 3.33631 0
M  V30 5051 H 486.709 4.18948 1.93081 0
M  V30 5052 H 484.952 3.96827 1.75244 0
M  V30 5053 H 485.623 4.40486 3.3268 0
M  V30 5054 H 488.099 2.47805 3.34263 0
M  V30 5055 H 486.975 2.90143 4.65949 0
M  V30 5056 H 487.236 1.21301 4.25133 0
M  V30 5057 N 486.295 -0.989507 1.22664 0
M  V30 5058 C 487.52 -1.77031 1.08051 0
M  V30 5059 C 487.945 -1.84535 -0.364483 0
M  V30 5060 O 487.303 -1.3003 -1.2634 0
M  V30 5061 C 487.351 -3.18 1.70024 0
M  V30 5062 O 486.455 -4.01161 0.956216 0
M  V30 5063 H 485.796 -0.545008 0.379292 0
M  V30 5064 H 488.326 -1.24277 1.62531 0
M  V30 5065 H 488.336 -3.68616 1.74888 0
M  V30 5066 H 487.011 -3.11853 2.75174 0
M  V30 5067 H 485.588 -3.59687 0.98384 0
M  V30 5068 N 487.773 -1.03688 -1.18687 0
M  V30 5069 C 488.683 -0.634908 -2.25845 0
M  V30 5070 C 489.699 0.337065 -1.70704 0
M  V30 5071 O 490.875 0.192943 -2.00474 0
M  V30 5072 C 487.94 -0.000180054 -3.467 0
M  V30 5073 C 487.001 -1.02067 -4.1699 0
M  V30 5074 C 486.234 -0.41614 -5.32075 0
M  V30 5075 O 486.457 0.778712 -5.65059 0
M  V30 5076 O 485.391 -1.14296 -5.90948 0
M  V30 5077 H 489.217 -1.52757 -2.62486 0
M  V30 5078 H 486.802 -0.807533 -1.25695 0
M  V30 5079 H 488.684 0.353342 -4.19916 0
M  V30 5080 H 487.359 0.866367 -3.11891 0
M  V30 5081 H 486.266 -1.42592 -3.45859 0
M  V30 5082 H 487.599 -1.85786 -4.5579 0
M  V30 5083 N 489.251 1.34841 -0.815825 0
M  V30 5084 C 490.498 1.98499 -0.400535 0
M  V30 5085 C 490.826 1.64699 1.03463 0
M  V30 5086 O 490.081 0.907006 1.73412 0
M  V30 5087 C 490.38 3.53273 -0.541541 0
M  V30 5088 C 490.046 4.06966 -1.94138 0
M  V30 5089 C 488.708 4.21341 -2.32433 0
M  V30 5090 C 491.06 4.35933 -2.85677 0
M  V30 5091 C 488.388 4.62007 -3.61617 0
M  V30 5092 C 490.74 4.78042 -4.14317 0
M  V30 5093 C 489.404 4.90622 -4.52599 0
M  V30 5094 H 488.674 0.72636 -0.146566 0
M  V30 5095 H 491.321 1.60902 -1.0384 0
M  V30 5096 H 489.626 3.91387 0.179741 0
M  V30 5097 H 491.323 4.00497 -0.20085 0
M  V30 5098 H 487.913 3.96235 -1.63388 0
M  V30 5099 H 492.097 4.24372 -2.57337 0
M  V30 5100 H 487.353 4.69937 -3.91113 0
M  V30 5101 H 491.527 4.99415 -4.85342 0
M  V30 5102 H 489.154 5.2189 -5.52752 0
M  V30 5103 N 490.729 0.570148 1.46925 0
M  V30 5104 C 491.978 0.0487352 2.01641 0
M  V30 5105 C 492.291 -1.31433 1.44861 0
M  V30 5106 O 493.497 -1.92638 1.91318 0
M  V30 5107 C 491.953 0.0365817 3.59881 0
M  V30 5108 C 491.561 1.39719 4.25655 0
M  V30 5109 C 493.305 -0.431545 4.22301 0
M  V30 5110 C 491.212 1.34345 5.75939 0
M  V30 5111 H 490.142 0.0144492 0.753862 0
M  V30 5112 H 492.793 0.719928 1.68788 0
M  V30 5113 H 491.175 -0.700522 3.89755 0
M  V30 5114 H 492.349 2.15303 4.07408 0
M  V30 5115 H 490.664 1.80431 3.75278 0
M  V30 5116 H 493.261 -0.490354 5.32447 0
M  V30 5117 H 493.604 -1.44638 3.90366 0
M  V30 5118 H 494.137 0.251102 3.97007 0
M  V30 5119 H 490.876 2.33469 6.12513 0
M  V30 5120 H 490.396 0.629615 5.96486 0
M  V30 5121 H 492.075 1.051 6.38407 0
M  V30 5122 N 492.207 -1.54576 0.307264 0
M  V30 5123 C 493.432 -2.05139 -0.305379 0
M  V30 5124 C 493.857 -1.18278 -1.46259 0
M  V30 5125 O 493.215 -0.188243 -1.8032 0
M  V30 5126 C 493.263 -3.53066 -0.733283 0
M  V30 5127 O 492.367 -3.69206 -1.83741 0
M  V30 5128 H 491.708 -0.661444 -0.0582105 0
M  V30 5129 H 494.238 -1.99569 0.450931 0
M  V30 5130 H 494.248 -3.95034 -1.02039 0
M  V30 5131 H 492.923 -4.15746 0.113198 0
M  V30 5132 H 491.5 -3.39143 -1.55037 0
M  V30 5133 N 493.685 -0.035106 -1.57561 0
M  V30 5134 C 494.633 0.962707 -2.11742 0
M  V30 5135 C 495.627 1.33296 -1.0454 0
M  V30 5136 O 496.833 1.31449 -1.22968 0
M  V30 5137 H 493.208 0.32826 -0.676572 0
M  V30 5138 H 495.179 0.48048 -2.94506 0
M  V30 5139 C 493.928 2.23388 -2.66445 0
M  V30 5140 H 493.251 1.95774 -3.48587 0
M  V30 5141 H 494.691 2.91402 -3.07995 0
M  V30 5142 C 493.15 2.96769 -1.59467 0
M  V30 5143 O 493.68 3.89105 -0.998 0
M  V30 5144 N 491.886 2.59212 -1.31369 0
M  V30 5145 H 491.433 1.84202 -1.80076 0
M  V30 5146 H 491.391 3.08618 -0.600173 0
M  V30 5147 N 495.163 1.55791 0.238111 0
M  V30 5148 C 496.391 1.82098 0.982233 0
M  V30 5149 C 496.806 0.612025 1.78605 0
M  V30 5150 O 496.163 -0.419381 1.77616 0
M  V30 5151 C 496.214 3.0673 1.91309 0
M  V30 5152 O 495.935 4.2296 1.14179 0
M  V30 5153 C 497.436 3.45903 2.77248 0
M  V30 5154 H 494.656 0.605748 0.288635 0
M  V30 5155 H 497.2 2.02862 0.258341 0
M  V30 5156 H 495.355 2.87991 2.59114 0
M  V30 5157 H 495.769 4.93653 1.7722 0
M  V30 5158 H 497.243 4.36189 3.38295 0
M  V30 5159 H 497.72 2.66891 3.48806 0
M  V30 5160 H 498.326 3.67024 2.14881 0
M  V30 5161 N 496.642 -0.504142 1.49319 0
M  V30 5162 C 497.889 -1.25846 1.58647 0
M  V30 5163 C 498.217 -1.92592 0.27177 0
M  V30 5164 O 497.472 -1.81167 -0.74007 0
M  V30 5165 C 497.771 -2.35021 2.69258 0
M  V30 5166 C 497.437 -1.85755 4.1086 0
M  V30 5167 C 496.099 -1.72038 4.49395 0
M  V30 5168 C 498.451 -1.48844 4.99495 0
M  V30 5169 C 495.779 -1.19783 5.74342 0
M  V30 5170 C 498.131 -0.980422 6.24956 0
M  V30 5171 C 496.795 -0.829622 6.62324 0
M  V30 5172 H 496.065 -0.460505 0.580531 0
M  V30 5173 H 498.712 -0.559716 1.83138 0
M  V30 5174 H 497.017 -3.10672 2.38726 0
M  V30 5175 H 498.714 -2.93083 2.73685 0
M  V30 5176 H 495.304 -1.9739 3.80441 0
M  V30 5177 H 499.488 -1.5829 4.70381 0
M  V30 5178 H 494.744 -1.06817 6.01997 0
M  V30 5179 H 498.918 -0.685608 6.93017 0
M  V30 5180 H 496.545 -0.42253 7.59025 0
M  V30 5181 N 498.12 -1.38341 -0.754957 0
M  V30 5182 C 499.05 -1.38176 -1.88227 0
M  V30 5183 C 500.031 -0.247873 -1.68284 0
M  V30 5184 O 501.216 -0.45075 -1.88896 0
M  V30 5185 C 498.346 -1.20471 -3.25736 0
M  V30 5186 C 497.3 -2.3105 -3.60278 0
M  V30 5187 C 496.626 -1.98452 -4.96509 0
M  V30 5188 C 497.926 -3.73305 -3.65295 0
M  V30 5189 H 499.62 -2.32512 -1.88622 0
M  V30 5190 H 497.166 -1.1192 -0.906082 0
M  V30 5191 H 499.119 -1.18982 -4.04254 0
M  V30 5192 H 497.843 -0.225965 -3.25817 0
M  V30 5193 H 496.502 -2.31723 -2.84078 0
M  V30 5194 H 496.15 -0.990641 -4.93148 0
M  V30 5195 H 495.85 -2.7251 -5.20588 0
M  V30 5196 H 497.374 -1.98578 -5.77407 0
M  V30 5197 H 498.788 -3.7467 -4.3393 0
M  V30 5198 H 497.185 -4.46557 -4.00883 0
M  V30 5199 H 498.255 -4.05719 -2.65556 0
M  V30 5200 N 499.598 0.982988 -1.23187 0
M  V30 5201 C 500.875 1.69814 -0.970707 0
M  V30 5202 C 501.255 2.04811 0.511424 0
M  V30 5203 O 500.603 1.73924 1.48198 0
M  V30 5204 C 500.813 2.94143 -1.87831 0
M  V30 5205 C 502.161 3.66712 -2.14026 0
M  V30 5206 O 503.185 3.04171 -1.8536 0
M  V30 5207 O 502.044 4.79258 -2.62629 0
M  V30 5208 H 499.138 0.741659 -0.365884 0
M  V30 5209 H 501.684 1.03844 -1.34218 0
M  V30 5210 H 500.456 2.64858 -2.88038 0
M  V30 5211 H 500.079 3.6785 -1.50905 0
M  V30 5212 N 501.076 1.04316 1.18135 0
M  V30 5213 C 502.023 0.636398 2.21853 0
M  V30 5214 C 502.993 -0.357039 1.62217 0
M  V30 5215 O 504.178 -0.250453 1.89149 0
M  V30 5216 C 501.318 0.00812779 3.45099 0
M  V30 5217 C 500.431 1.04933 4.19062 0
M  V30 5218 C 499.566 0.389313 5.29771 0
M  V30 5219 C 498.605 1.41544 5.9551 0
M  V30 5220 N 497.742 0.78021 6.97751 0
M  V30 5221 H 502.582 1.52536 2.56002 0
M  V30 5222 H 500.119 0.76304 1.25762 0
M  V30 5223 H 502.077 -0.373497 4.15525 0
M  V30 5224 H 500.707 -0.844336 3.11562 0
M  V30 5225 H 499.759 1.54888 3.47439 0
M  V30 5226 H 501.071 1.82862 4.64072 0
M  V30 5227 H 500.225 -0.0463805 6.06682 0
M  V30 5228 H 498.964 -0.422038 4.8587 0
M  V30 5229 H 497.969 1.86124 5.17337 0
M  V30 5230 H 499.194 2.22854 6.41493 0
M  V30 5231 H 497.14 -0.0107899 6.55999 0
M  V30 5232 H 497.057 1.49716 7.41027 0
M  V30 5233 H 498.325 0.368996 7.78626 0
M  V30 5234 N 502.554 -1.34406 0.822964 0
M  V30 5235 C 503.486 -2.28305 0.202375 0
M  V30 5236 C 504.499 -1.5103 -0.60777 0
M  V30 5237 O 505.688 -1.73057 -0.437444 0
M  V30 5238 C 502.788 -3.30836 -0.734911 0
M  V30 5239 C 501.961 -4.37388 0.0324177 0
M  V30 5240 C 501.02 -5.1968 -0.825803 0
M  V30 5241 O 500.046 -5.68556 -0.270771 0
M  V30 5242 N 501.248 -5.39393 -2.14558 0
M  V30 5243 H 504.013 -2.82201 1.00909 0
M  V30 5244 H 501.574 -1.4693 0.67993 0
M  V30 5245 H 503.566 -3.82786 -1.31365 0
M  V30 5246 H 502.136 -2.77334 -1.44238 0
M  V30 5247 H 501.356 -3.86152 0.792469 0
M  V30 5248 H 502.644 -5.05702 0.560633 0
M  V30 5249 H 502.042 -5.01357 -2.62025 0
M  V30 5250 H 500.599 -5.94461 -2.67318 0
M  V30 5251 N 504.032 -0.577932 -1.46621 0
M  V30 5252 C 504.982 0.178869 -2.27297 0
M  V30 5253 C 505.966 0.866279 -1.35589 0
M  V30 5254 O 507.158 0.761163 -1.59798 0
M  V30 5255 C 504.287 1.19499 -3.2183 0
M  V30 5256 C 503.373 0.50994 -4.21023 0
M  V30 5257 N 503.764 -0.43177 -5.03954 0
M  V30 5258 C 502.062 0.761287 -4.39455 0
M  V30 5259 C 502.763 -0.831693 -5.75724 0
M  V30 5260 N 501.739 -0.181897 -5.43296 0
M  V30 5261 H 505.541 -0.544859 -2.88805 0
M  V30 5262 H 503.055 -0.399373 -1.57413 0
M  V30 5263 H 505.052 1.75131 -3.78332 0
M  V30 5264 H 503.712 1.91959 -2.61881 0
M  V30 5265 H 504.723 -0.807045 -5.11573 0
M  V30 5266 H 501.4 1.47282 -3.90659 0
M  V30 5267 H 502.79 -1.6067 -6.52407 0
M  V30 5268 N 505.51 1.54411 -0.315457 0
M  V30 5269 C 506.42 2.27737 0.56329 0
M  V30 5270 C 507.436 1.31787 1.13614 0
M  V30 5271 O 508.612 1.64791 1.15784 0
M  V30 5272 C 505.677 3.01478 1.71207 0
M  V30 5273 C 504.738 4.12997 1.17185 0
M  V30 5274 C 503.971 4.83212 2.26588 0
M  V30 5275 O 504.194 4.52884 3.46775 0
M  V30 5276 O 503.128 5.70299 1.92463 0
M  V30 5277 H 506.954 3.03683 -0.0319614 0
M  V30 5278 H 504.539 1.49178 -0.0814188 0
M  V30 5279 H 506.421 3.47683 2.38106 0
M  V30 5280 H 505.096 2.28414 2.29366 0
M  V30 5281 H 504.003 3.71159 0.468174 0
M  V30 5282 H 505.336 4.8808 0.635501 0
M  V30 5283 N 506.988 0.0434614 1.5754 0
M  V30 5284 C 508.234 -0.632971 1.92669 0
M  V30 5285 C 508.567 -1.70947 0.921446 0
M  V30 5286 O 507.842 -1.94426 -0.0537202 0
M  V30 5287 C 508.125 -1.23619 3.38216 0
M  V30 5288 C 507.978 -0.168274 4.49485 0
M  V30 5289 C 509.297 -2.15008 3.84005 0
M  V30 5290 H 506.416 -0.228629 0.700641 0
M  V30 5291 H 509.058 0.103651 1.89717 0
M  V30 5292 H 507.208 -1.864 3.40863 0
M  V30 5293 H 508.88 0.463196 4.58969 0
M  V30 5294 H 507.123 0.504581 4.30855 0
M  V30 5295 H 507.794 -0.630218 5.48391 0
M  V30 5296 H 510.27 -1.62198 3.83185 0
M  V30 5297 H 509.146 -2.54161 4.86511 0
M  V30 5298 H 509.407 -3.04707 3.20322 0
M  V30 5299 N 508.466 -1.55915 -0.229846 0
M  V30 5300 C 509.376 -1.94891 -1.30593 0
M  V30 5301 C 510.392 -0.851604 -1.51736 0
M  V30 5302 O 511.568 -1.15447 -1.65027 0
M  V30 5303 C 508.633 -2.25052 -2.63728 0
M  V30 5304 C 507.694 -3.48306 -2.5096 0
M  V30 5305 C 506.927 -3.77019 -3.77747 0
M  V30 5306 O 507.15 -3.07534 -4.80395 0
M  V30 5307 O 506.084 -4.70523 -3.75356 0
M  V30 5308 H 509.91 -2.86581 -1.00525 0
M  V30 5309 H 507.495 -1.43017 -0.432025 0
M  V30 5310 H 509.377 -2.45682 -3.42372 0
M  V30 5311 H 508.052 -1.36538 -2.93495 0
M  V30 5312 H 506.959 -3.32964 -1.70546 0
M  V30 5313 H 508.292 -4.37177 -2.26136 0
M  V30 5314 N 509.944 0.496216 -1.49584 0
M  V30 5315 C 511.193 1.24668 -1.58558 0
M  V30 5316 C 511.506 1.9359 -0.279703 0
M  V30 5317 O 512.712 2.70365 -0.248048 0
M  V30 5318 C 511.168 2.26388 -2.79779 0
M  V30 5319 C 510.776 1.63384 -4.17145 0
M  V30 5320 C 512.52 3.02233 -2.98086 0
M  V30 5321 C 510.427 2.63243 -5.29582 0
M  V30 5322 H 509.357 0.468995 -0.590389 0
M  V30 5323 H 512.008 0.519985 -1.75978 0
M  V30 5324 H 510.39 3.02241 -2.55863 0
M  V30 5325 H 511.564 0.93491 -4.51216 0
M  V30 5326 H 509.879 0.999121 -4.04236 0
M  V30 5327 H 512.476 3.76919 -3.79257 0
M  V30 5328 H 512.819 3.60132 -2.08831 0
M  V30 5329 H 513.352 2.33495 -3.22063 0
M  V30 5330 H 510.091 2.10119 -6.20911 0
M  V30 5331 H 509.611 3.31363 -4.99959 0
M  V30 5332 H 511.29 3.25575 -5.59115 0
M  V30 5333 N 511.423 1.38739 0.74761 0
M  V30 5334 C 512.834 1.31507 1.32524 0
M  V30 5335 C 513.185 -0.0263963 1.96182 0
M  V30 5336 O 512.31 -0.92849 1.95469 0
M  V30 5337 C 512.905 2.38162 2.40966 0
M  V30 5338 C 511.464 2.34489 2.94434 0
M  V30 5339 C 510.611 2.20712 1.67873 0
M  V30 5340 H 513.562 1.4901 0.546043 0
M  V30 5341 H 513.583 2.04222 3.21051 0
M  V30 5342 H 513.095 3.35783 1.94605 0
M  V30 5343 H 511.196 1.40467 3.45108 0
M  V30 5344 H 511.309 3.28861 3.48407 0
M  V30 5345 H 509.673 1.67667 1.91729 0
M  V30 5346 H 510.456 3.20285 1.23582 0
M  V30 5347 N 512.901 -0.976442 1.23707 0
M  V30 5348 C 514.126 -1.75875 1.09922 0
M  V30 5349 C 514.551 -1.84911 -0.34489 0
M  V30 5350 O 513.909 -1.31363 -1.24954 0
M  V30 5351 C 513.957 -3.16179 1.73388 0
M  V30 5352 O 513.061 -4.00124 0.99871 0
M  V30 5353 H 512.402 -0.540954 0.385052 0
M  V30 5354 H 514.932 -1.22546 1.6384 0
M  V30 5355 H 514.942 -3.66741 1.78788 0
M  V30 5356 H 513.617 -3.08917 2.78466 0
M  V30 5357 H 512.194 -3.58624 1.02193 0
M  V30 5358 N 514.379 -1.04941 -1.1758 0
M  V30 5359 C 515.79 -0.784501 -1.69418 0
M  V30 5360 C 516.141 0.693625 -1.8353 0
M  V30 5361 O 515.266 1.53925 -1.52106 0
M  V30 5362 C 515.861 -1.41746 -3.07723 0
M  V30 5363 C 514.42 -1.20066 -3.56737 0
M  V30 5364 C 513.567 -1.5026 -2.33061 0
M  V30 5365 H 516.518 -1.21469 -1.02133 0
M  V30 5366 H 516.539 -0.825381 -3.7144 0
M  V30 5367 H 516.051 -2.49325 -2.9742 0
M  V30 5368 H 514.152 -0.144006 -3.72322 0
M  V30 5369 H 514.265 -1.90384 -4.39648 0
M  V30 5370 H 512.629 -0.922598 -2.37403 0
M  V30 5371 H 513.412 -2.58967 -2.25368 0
M  V30 5372 N 515.857 1.33968 -0.830081 0
M  V30 5373 C 517.085 2.0228 -0.434773 0
M  V30 5374 C 517.5 1.62487 0.961419 0
M  V30 5375 O 516.857 0.833849 1.62337 0
M  V30 5376 C 516.908 3.5751 -0.535625 0
M  V30 5377 O 516.629 3.95864 -1.87679 0
M  V30 5378 C 518.13 4.43091 -0.136137 0
M  V30 5379 H 515.35 0.648151 -0.173613 0
M  V30 5380 H 517.894 1.71089 -1.12022 0
M  V30 5381 H 516.049 3.87266 0.101817 0
M  V30 5382 H 516.463 4.9056 -1.85609 0
M  V30 5383 H 517.937 5.51398 -0.257772 0
M  V30 5384 H 518.414 4.29433 0.921076 0
M  V30 5385 H 519.02 4.18677 -0.747662 0
M  V30 5386 N 517.335 0.585699 1.46312 0
M  V30 5387 C 518.267 -0.183687 2.28463 0
M  V30 5388 C 519.28 -0.85264 1.38686 0
M  V30 5389 O 520.469 -0.721701 1.6326 0
M  V30 5390 C 517.569 -1.27977 3.13808 0
M  V30 5391 C 516.742 -0.702164 4.31727 0
M  V30 5392 C 515.801 -1.68633 4.98447 0
M  V30 5393 O 514.827 -1.22121 5.55945 0
M  V30 5394 N 516.029 -3.02047 4.95729 0
M  V30 5395 H 518.794 0.521127 2.95134 0
M  V30 5396 H 516.355 0.423673 1.56258 0
M  V30 5397 H 518.347 -1.9375 3.55307 0
M  V30 5398 H 516.917 -1.8874 2.4919 0
M  V30 5399 H 516.137 0.1331 3.93975 0
M  V30 5400 H 517.425 -0.296101 5.07938 0
M  V30 5401 H 516.823 -3.42457 4.50266 0
M  V30 5402 H 515.38 -3.63301 5.41161 0
M  V30 5403 N 518.813 -1.54241 0.323641 0
M  V30 5404 C 519.76 -2.24339 -0.542277 0
M  V30 5405 C 520.73 -1.23421 -1.11159 0
M  V30 5406 O 521.915 -1.52104 -1.15192 0
M  V30 5407 C 519.055 -3.00479 -1.69725 0
M  V30 5408 C 518.168 -4.16214 -1.15716 0
M  V30 5409 C 517.303 -4.79884 -2.27783 0
M  V30 5410 C 516.342 -5.87722 -1.71023 0
M  V30 5411 N 515.479 -6.45254 -2.76752 0
M  V30 5412 H 520.319 -2.97935 0.0620613 0
M  V30 5413 H 517.856 -1.47039 0.0423993 0
M  V30 5414 H 519.814 -3.42869 -2.3769 0
M  V30 5415 H 518.444 -2.29217 -2.27288 0
M  V30 5416 H 517.496 -3.78605 -0.369063 0
M  V30 5417 H 518.808 -4.93838 -0.701832 0
M  V30 5418 H 517.962 -5.25243 -3.03651 0
M  V30 5419 H 516.701 -4.01641 -2.76652 0
M  V30 5420 H 515.706 -5.41765 -0.936518 0
M  V30 5421 H 516.931 -6.67863 -1.2303 0
M  V30 5422 H 514.877 -5.69884 -3.24912 0
M  V30 5423 H 514.794 -7.18292 -2.35782 0
M  V30 5424 H 516.062 -6.95269 -3.5245 0
M  V30 5425 N 520.291 -0.0518155 -1.57515 0
M  V30 5426 C 521.201 0.937539 -2.15052 0
M  V30 5427 C 522.217 1.34121 -1.10849 0
M  V30 5428 O 523.393 1.418 -1.4302 0
M  V30 5429 C 520.458 2.19379 -2.68466 0
M  V30 5430 C 519.519 1.84841 -3.87469 0
M  V30 5431 C 518.752 3.04477 -4.38326 0
M  V30 5432 O 518.975 4.17868 -3.88256 0
M  V30 5433 O 517.909 2.85453 -5.29906 0
M  V30 5434 H 521.735 0.478201 -2.99912 0
M  V30 5435 H 519.32 0.17012 -1.48428 0
M  V30 5436 H 521.202 2.93084 -3.02787 0
M  V30 5437 H 519.877 2.64449 -1.86677 0
M  V30 5438 H 518.784 1.08449 -3.58036 0
M  V30 5439 H 520.117 1.44569 -4.7049 0
M  V30 5440 N 521.769 1.56035 0.221574 0
M  V30 5441 C 522.716 1.92413 1.27459 0
M  V30 5442 C 523.686 0.781323 1.46576 0
M  V30 5443 O 524.871 1.03721 1.60145 0
M  V30 5444 C 522.011 2.24617 2.61995 0
M  V30 5445 C 521.124 3.51831 2.50677 0
M  V30 5446 C 520.259 3.73482 3.77736 0
M  V30 5447 C 519.298 4.94211 3.6114 0
M  V30 5448 N 518.435 5.12252 4.80148 0
M  V30 5449 H 523.275 2.82203 0.957355 0
M  V30 5450 H 520.812 1.39676 0.461415 0
M  V30 5451 H 522.77 2.41298 3.40339 0
M  V30 5452 H 521.4 1.38 2.91815 0
M  V30 5453 H 520.452 3.43343 1.63767 0
M  V30 5454 H 521.764 4.40328 2.34334 0
M  V30 5455 H 520.918 3.9026 4.64523 0
M  V30 5456 H 519.657 2.83266 3.97003 0
M  V30 5457 H 518.662 4.77384 2.72736 0
M  V30 5458 H 519.887 5.85912 3.43343 0
M  V30 5459 H 517.833 4.24978 4.99729 0
M  V30 5460 H 517.75 5.94881 4.66532 0
M  V30 5461 H 519.018 5.33465 5.68362 0
M  V30 5462 N 523.247 -0.488276 1.49845 0
M  V30 5463 C 524.157 -1.61451 1.70207 0
M  V30 5464 C 525.173 -1.63877 0.584846 0
M  V30 5465 O 526.349 -1.82063 0.861107 0
M  V30 5466 C 523.414 -2.9776 1.77594 0
M  V30 5467 C 522.475 -3.05861 3.01243 0
M  V30 5468 C 521.708 -4.35668 3.08268 0
M  V30 5469 O 521.931 -5.25197 2.22541 0
M  V30 5470 O 520.865 -4.49005 4.00847 0
M  V30 5471 H 524.691 -1.47199 2.65643 0
M  V30 5472 H 522.276 -0.665939 1.33737 0
M  V30 5473 H 524.158 -3.7875 1.84732 0
M  V30 5474 H 522.833 -3.12248 0.8534 0
M  V30 5475 H 521.74 -2.24012 2.99616 0
M  V30 5476 H 523.073 -2.96304 3.9302 0
M  V30 5477 N 524.725 -1.39134 -0.740242 0
M  V30 5478 C 525.672 -1.37434 -1.8542 0
M  V30 5479 C 526.642 -0.234822 -1.64432 0
M  V30 5480 O 527.827 -0.429125 -1.85912 0
M  V30 5481 C 524.967 -1.21844 -3.22875 0
M  V30 5482 C 524.08 -2.45296 -3.55603 0
M  V30 5483 C 523.215 -2.22334 -4.82432 0
M  V30 5484 C 522.254 -3.41488 -5.07988 0
M  V30 5485 N 521.391 -3.17877 -6.26018 0
M  V30 5486 H 526.231 -2.3266 -1.86207 0
M  V30 5487 H 523.768 -1.15578 -0.909946 0
M  V30 5488 H 525.726 -1.10818 -4.02213 0
M  V30 5489 H 524.356 -0.3025 -3.21379 0
M  V30 5490 H 523.408 -2.66945 -2.71006 0
M  V30 5491 H 524.72 -3.34063 -3.7041 0
M  V30 5492 H 523.874 -2.0852 -5.69741 0
M  V30 5493 H 522.613 -1.30954 -4.6979 0
M  V30 5494 H 521.618 -3.55807 -4.19144 0
M  V30 5495 H 522.843 -4.33763 -5.22519 0
M  V30 5496 H 520.789 -2.29156 -6.14673 0
M  V30 5497 H 520.706 -4.00198 -6.41387 0
M  V30 5498 H 521.974 -3.07746 -7.16179 0
M  V30 5499 N 526.204 0.969867 -1.24223 0
M  V30 5500 C 527.151 2.06407 -1.0327 0
M  V30 5501 C 528.121 1.66014 0.0533 0
M  V30 5502 O 529.306 1.90533 -0.100896 0
M  V30 5503 C 526.446 3.3909 -0.641262 0
M  V30 5504 C 525.559 3.9269 -1.80051 0
M  V30 5505 C 524.694 5.13631 -1.35486 0
M  V30 5506 C 523.733 5.59423 -2.48419 0
M  V30 5507 N 522.87 6.71586 -2.04737 0
M  V30 5508 H 527.71 2.23663 -1.96923 0
M  V30 5509 H 525.247 1.09624 -0.980862 0
M  V30 5510 H 527.205 4.15323 -0.395351 0
M  V30 5511 H 525.835 3.21765 0.258269 0
M  V30 5512 H 524.887 3.13116 -2.16014 0
M  V30 5513 H 526.199 4.22636 -2.64916 0
M  V30 5514 H 525.353 5.97231 -1.0677 0
M  V30 5515 H 524.092 4.85364 -0.476722 0
M  V30 5516 H 523.097 4.74398 -2.77897 0
M  V30 5517 H 524.322 5.89705 -3.36786 0
M  V30 5518 H 522.268 6.45058 -1.19318 0
M  V30 5519 H 522.185 7.0097 -2.83156 0
M  V30 5520 H 523.453 7.58633 -1.79154 0
M  V30 5521 N 527.682 1.05563 1.17022 0
M  V30 5522 C 528.629 0.659893 2.21165 0
M  V30 5523 C 529.599 -0.339813 1.62587 0
M  V30 5524 O 530.784 -0.230378 1.89404 0
M  V30 5525 C 527.924 0.0447297 3.45071 0
M  V30 5526 C 527.037 1.09372 4.17926 0
M  V30 5527 C 526.172 0.445481 5.29329 0
M  V30 5528 C 525.211 1.47852 5.93975 0
M  V30 5529 N 524.348 0.854172 6.96885 0
M  V30 5530 H 529.188 1.55243 2.54369 0
M  V30 5531 H 526.725 0.776336 1.24946 0
M  V30 5532 H 528.683 -0.329404 4.15898 0
M  V30 5533 H 527.313 -0.811244 3.1244 0
M  V30 5534 H 526.365 1.58564 3.45777 0
M  V30 5535 H 527.677 1.87773 4.62107 0
M  V30 5536 H 526.831 0.0179688 6.06697 0
M  V30 5537 H 525.57 -0.370481 4.86291 0
M  V30 5538 H 524.575 1.91601 5.15334 0
M  V30 5539 H 525.8 2.29645 6.39093 0
M  V30 5540 H 523.746 0.0587882 6.55974 0
M  V30 5541 H 523.663 1.57567 7.39397 0
M  V30 5542 H 524.931 0.451559 7.78191 0
M  V30 5543 N 529.16 -1.33526 0.837174 0
M  V30 5544 C 530.576 -1.50727 0.524743 0
M  V30 5545 C 530.776 -1.77792 -0.948279 0
M  V30 5546 O 529.832 -1.83719 -1.73216 0
M  V30 5547 C 531.145 -2.66299 1.39661 0
M  V30 5548 C 532.693 -2.80183 1.39521 0
M  V30 5549 C 533.168 -3.98815 2.25189 0
M  V30 5550 N 534.659 -4.06047 2.2289 0
M  V30 5551 C 535.394 -4.97032 2.85915 0
M  V30 5552 N 534.89 -5.93143 3.57985 0
M  V30 5553 N 536.683 -4.90015 2.75394 0
M  V30 5554 H 528.834 -1.1422 1.79074 0
M  V30 5555 H 531.097 -0.561399 0.763894 0
M  V30 5556 H 530.803 -2.52974 2.4433 0
M  V30 5557 H 530.677 -3.61663 1.07145 0
M  V30 5558 H 533.064 -2.92942 0.356253 0
M  V30 5559 H 533.145 -1.85586 1.76044 0
M  V30 5560 H 532.789 -3.86817 3.29143 0
M  V30 5561 H 532.719 -4.92654 1.86009 0
M  V30 5562 H 535.21 -3.37262 1.70478 0
M  V30 5563 H 535.523 -6.59227 4.03286 0
M  V30 5564 H 533.868 -5.93223 3.62093 0
M  V30 5565 H 537.059 -4.13894 2.18654 0
M  V30 5566 H 537.232 -5.60724 3.24796 0
M  V30 5567 N 530.638 -0.59345 -1.46 0
M  V30 5568 C 532.049 -0.169801 -1.85926 0
M  V30 5569 C 532.4 1.26984 -1.49565 0
M  V30 5570 O 531.525 1.96076 -0.915602 0
M  V30 5571 C 532.12 -0.301385 -3.37457 0
M  V30 5572 C 530.679 0.0674684 -3.7634 0
M  V30 5573 C 529.826 -0.632383 -2.69993 0
M  V30 5574 H 532.777 -0.801014 -1.37002 0
M  V30 5575 H 532.798 0.470331 -3.77582 0
M  V30 5576 H 532.31 -1.34927 -3.63891 0
M  V30 5577 H 530.411 1.11507 -3.55523 0
M  V30 5578 H 530.524 -0.316332 -4.78055 0
M  V30 5579 H 528.888 -0.0714961 -2.546 0
M  V30 5580 H 529.671 -1.68212 -2.99265 0
M  V30 5581 N 532.116 1.54067 -0.331816 0
M  V30 5582 C 533.049 2.20886 0.573127 0
M  V30 5583 C 534.027 1.18876 1.10938 0
M  V30 5584 O 535.211 1.47649 1.17184 0
M  V30 5585 C 532.338 2.87706 1.78726 0
M  V30 5586 C 531.384 4.03505 1.38152 0
M  V30 5587 S 532.217 5.33919 0.41123 0
M  V30 5588 C 533.373 6.04236 1.63246 0
M  V30 5589 H 533.606 2.97299 0.00555737 0
M  V30 5590 H 531.139 1.53964 -0.115893 0
M  V30 5591 H 533.097 3.26825 2.48386 0
M  V30 5592 H 531.758 2.1108 2.32603 0
M  V30 5593 H 530.951 4.49152 2.28645 0
M  V30 5594 H 530.553 3.66102 0.764524 0
M  V30 5595 H 532.845 6.26917 2.56869 0
M  V30 5596 H 533.788 6.97546 1.218 0
M  V30 5597 H 534.196 5.34247 1.82318 0
M  V30 5598 N 533.594 0.0601682 1.57485 0
M  V30 5599 C 534.819 -0.624416 1.97777 0
M  V30 5600 C 535.244 -1.63051 0.937867 0
M  V30 5601 O 534.602 -1.81036 -0.0978845 0
M  V30 5602 C 534.65 -1.27979 3.37126 0
M  V30 5603 O 533.754 -2.39556 3.35688 0
M  V30 5604 H 533.095 -0.161581 0.64404 0
M  V30 5605 H 535.625 0.131237 2.04179 0
M  V30 5606 H 535.635 -1.62937 3.74053 0
M  V30 5607 H 534.31 -0.542501 4.12347 0
M  V30 5608 H 532.887 -2.06478 3.10517 0
M  V30 5609 N 535.072 -1.5615 -0.213296 0
M  V30 5610 C 536.004 -1.89586 -1.28802 0
M  V30 5611 C 537.017 -0.784844 -1.42633 0
M  V30 5612 O 538.206 -1.06319 -1.43383 0
M  V30 5613 C 535.306 -2.09665 -2.66259 0
M  V30 5614 C 534.479 -3.40726 -2.7427 0
M  V30 5615 C 533.538 -3.50137 -3.92798 0
M  V30 5616 O 532.564 -4.23105 -3.8075 0
M  V30 5617 N 533.766 -2.81886 -5.07465 0
M  V30 5618 H 536.531 -2.82368 -1.00442 0
M  V30 5619 H 534.092 -1.56796 -0.403302 0
M  V30 5620 H 536.084 -2.13268 -3.43946 0
M  V30 5621 H 534.654 -1.23469 -2.87183 0
M  V30 5622 H 533.874 -3.4915 -1.82997 0
M  V30 5623 H 535.162 -4.27048 -2.76599 0
M  V30 5624 H 534.56 -2.22397 -5.2015 0
M  V30 5625 H 533.117 -2.91139 -5.83165 0
M  V30 5626 N 536.55 0.480323 -1.50102 0
M  V30 5627 C 537.799 1.22979 -1.59872 0
M  V30 5628 C 538.112 1.93282 -0.30022 0
M  V30 5629 O 539.318 2.70086 -0.276709 0
M  V30 5630 C 537.774 2.23408 -2.82164 0
M  V30 5631 C 537.382 1.5895 -4.18854 0
M  V30 5632 C 539.126 2.99055 -3.01275 0
M  V30 5633 C 537.033 2.57611 -5.32344 0
M  V30 5634 H 535.963 0.462707 -0.59533 0
M  V30 5635 H 538.614 0.501291 -1.7652 0
M  V30 5636 H 536.996 2.99511 -2.59055 0
M  V30 5637 H 538.17 0.887 -4.52182 0
M  V30 5638 H 536.485 0.956191 -4.05273 0
M  V30 5639 H 539.082 3.72876 -3.83233 0
M  V30 5640 H 539.425 3.57897 -2.12639 0
M  V30 5641 H 539.958 2.30066 -3.24522 0
M  V30 5642 H 536.697 2.03521 -6.23105 0
M  V30 5643 H 536.217 3.26041 -5.03445 0
M  V30 5644 H 537.896 3.19627 -5.62537 0
M  V30 5645 N 538.028 1.39524 0.732853 0
M  V30 5646 C 539.253 1.40329 1.52717 0
M  V30 5647 C 539.678 0.000286574 1.881 0
M  V30 5648 O 539.036 -0.987262 1.52062 0
M  V30 5649 C 539.084 2.28464 2.78992 0
M  V30 5650 O 538.188 1.716 3.75003 0
M  V30 5651 H 537.529 0.47778 0.461109 0
M  V30 5652 H 540.059 1.83546 0.903996 0
M  V30 5653 H 540.069 2.43051 3.27705 0
M  V30 5654 H 538.744 3.30425 2.52572 0
M  V30 5655 H 537.321 1.66267 3.33781 0
M  V30 5656 N 539.506 -0.963266 1.24736 0
M  V30 5657 C 540.754 -1.70343 1.08755 0
M  V30 5658 C 541.075 -1.91387 -0.373619 0
M  V30 5659 O 540.345 -1.4948 -1.2662 0
M  V30 5660 H 538.925 -0.631224 0.399456 0
M  V30 5661 H 541.587 -1.15859 1.56725 0
M  V30 5662 H 540.683 -2.68616 1.58909 0
M  V30 5663 N 540.985 -1.06182 -1.16461 0
M  V30 5664 C 542.231 -0.779015 -1.87241 0
M  V30 5665 C 542.564 0.692715 -1.81425 0
M  V30 5666 O 541.839 1.5074 -1.22913 0
M  V30 5667 C 542.122 -1.2728 -3.36856 0
M  V30 5668 C 541.975 -2.80821 -3.51368 0
M  V30 5669 C 543.294 -0.879799 -4.31216 0
M  V30 5670 H 540.413 -0.284464 -0.679889 0
M  V30 5671 H 543.055 -1.31755 -1.36896 0
M  V30 5672 H 541.205 -0.814673 -3.79862 0
M  V30 5673 H 542.877 -3.34833 -3.17308 0
M  V30 5674 H 541.12 -3.19606 -2.93316 0
M  V30 5675 H 541.791 -3.10435 -4.56436 0
M  V30 5676 H 544.267 -1.27436 -3.96105 0
M  V30 5677 H 543.143 -1.25278 -5.34412 0
M  V30 5678 H 543.404 0.215372 -4.41575 0
M  V30 5679 N 542.463 1.3308 -0.844243 0
M  V30 5680 C 543.41 2.29104 -0.279323 0
M  V30 5681 C 544.38 1.54577 0.607882 0
M  V30 5682 O 545.565 1.8285 0.545009 0
M  V30 5683 C 542.705 3.40927 0.53508 0
M  V30 5684 C 541.818 4.30354 -0.376749 0
M  V30 5685 C 540.953 5.29297 0.449276 0
M  V30 5686 C 539.992 6.10365 -0.460606 0
M  V30 5687 N 539.129 7.01335 0.327612 0
M  V30 5688 H 543.969 2.76817 -1.10346 0
M  V30 5689 H 541.506 1.36203 -0.555611 0
M  V30 5690 H 543.464 4.04469 1.02278 0
M  V30 5691 H 542.094 2.94391 1.32414 0
M  V30 5692 H 541.146 3.67485 -0.982791 0
M  V30 5693 H 542.458 4.87067 -1.07549 0
M  V30 5694 H 541.612 5.98392 1.00058 0
M  V30 5695 H 540.351 4.73174 1.18143 0
M  V30 5696 H 539.356 5.40182 -1.02388 0
M  V30 5697 H 540.581 6.68571 -1.1912 0
M  V30 5698 H 538.527 6.47655 1.04305 0
M  V30 5699 H 538.444 7.55355 -0.3123 0
M  V30 5700 H 539.712 7.74731 0.86098 0
M  V30 5701 N 543.941 0.601185 1.45683 0
M  V30 5702 C 544.888 -0.121396 2.30481 0
M  V30 5703 C 545.858 -0.866232 1.41724 0
M  V30 5704 O 547.043 -0.85324 1.70659 0
M  V30 5705 C 544.183 -1.11704 3.26521 0
M  V30 5706 C 543.296 -0.373741 4.3038 0
M  V30 5707 C 542.431 -1.35854 5.13534 0
M  V30 5708 C 541.47 -0.602689 6.09126 0
M  V30 5709 N 540.607 -1.53645 6.85082 0
M  V30 5710 H 545.447 0.607732 2.91737 0
M  V30 5711 H 542.984 0.311502 1.43764 0
M  V30 5712 H 544.942 -1.70735 3.80664 0
M  V30 5713 H 543.572 -1.81366 2.67032 0
M  V30 5714 H 542.624 0.331962 3.78949 0
M  V30 5715 H 543.936 0.2163 4.98331 0
M  V30 5716 H 543.09 -2.02111 5.72046 0
M  V30 5717 H 541.829 -1.98251 4.45587 0
M  V30 5718 H 540.834 0.0735482 5.49751 0
M  V30 5719 H 542.059 0.0161467 6.79098 0
M  V30 5720 H 540.005 -2.14819 6.1983 0
M  V30 5721 H 539.922 -0.999688 7.49361 0
M  V30 5722 H 541.19 -2.1888 7.48139 0
M  V30 5723 N 545.419 -1.53889 0.339982 0
M  V30 5724 C 546.349 -2.27843 -0.510856 0
M  V30 5725 C 547.33 -1.29267 -1.10563 0
M  V30 5726 O 548.515 -1.58104 -1.12768 0
M  V30 5727 C 545.645 -3.04857 -1.66372 0
M  V30 5728 C 544.599 -4.10907 -1.19746 0
M  V30 5729 C 543.925 -4.75855 -2.43857 0
M  V30 5730 C 545.225 -5.21435 -0.300501 0
M  V30 5731 H 546.919 -2.99212 0.106067 0
M  V30 5732 H 544.465 -1.43904 0.0524533 0
M  V30 5733 H 546.418 -3.5533 -2.26537 0
M  V30 5734 H 545.142 -2.31133 -2.30749 0
M  V30 5735 H 543.801 -3.61342 -0.618654 0
M  V30 5736 H 543.449 -3.9873 -3.06633 0
M  V30 5737 H 543.149 -5.47502 -2.13343 0
M  V30 5738 H 544.673 -5.2911 -3.04754 0
M  V30 5739 H 546.087 -5.67565 -0.80889 0
M  V30 5740 H 544.484 -6.00036 -0.0874076 0
M  V30 5741 H 545.554 -4.80328 0.664321 0
M  V30 5742 N 546.897 -0.0685191 -1.57451 0
M  V30 5743 C 547.83 0.935736 -2.08133 0
M  V30 5744 C 548.808 1.29317 -0.985698 0
M  V30 5745 O 549.992 1.40304 -1.25886 0
M  V30 5746 C 547.119 2.2448 -2.53627 0
M  V30 5747 C 546.165 2.03917 -3.74593 0
M  V30 5748 S 546.998 1.30154 -5.19442 0
M  V30 5749 C 548.154 2.62346 -5.68265 0
M  V30 5750 H 548.387 0.504473 -2.92989 0
M  V30 5751 H 545.92 0.144169 -1.53725 0
M  V30 5752 H 547.878 2.99718 -2.80499 0
M  V30 5753 H 546.539 2.64731 -1.69045 0
M  V30 5754 H 545.732 3.00788 -4.04404 0
M  V30 5755 H 545.334 1.36815 -3.48077 0
M  V30 5756 H 547.626 3.58448 -5.7491 0
M  V30 5757 H 548.569 2.3715 -6.67207 0
M  V30 5758 H 548.977 2.69401 -4.96068 0
M  V30 5759 N 548.375 1.56261 0.205012 0
M  V30 5760 C 549.325 1.90155 1.25798 0
M  V30 5761 C 550.309 0.766227 1.41484 0
M  V30 5762 O 551.501 1.02893 1.44021 0
M  V30 5763 C 548.63 2.23603 2.60493 0
M  V30 5764 C 547.716 3.43568 2.48639 0
M  V30 5765 N 548.107 4.61747 2.06455 0
M  V30 5766 C 546.405 3.4751 2.79558 0
M  V30 5767 C 547.106 5.43907 2.06253 0
M  V30 5768 N 546.082 4.84051 2.47377 0
M  V30 5769 H 549.884 2.79031 0.922986 0
M  V30 5770 H 547.398 1.57048 0.413501 0
M  V30 5771 H 549.395 2.46067 3.36537 0
M  V30 5772 H 548.055 1.36049 2.94823 0
M  V30 5773 H 549.066 4.86598 1.77321 0
M  V30 5774 H 545.743 2.70345 3.18151 0
M  V30 5775 H 547.133 6.48542 1.75622 0
M  V30 5776 N 549.853 -0.472356 1.50355 0
M  V30 5777 C 551.078 -1.25251 1.65309 0
M  V30 5778 C 551.503 -1.85081 0.335643 0
M  V30 5779 O 550.861 -1.67227 -0.700335 0
M  V30 5780 C 550.909 -2.3379 2.74544 0
M  V30 5781 O 550.013 -3.38401 2.35709 0
M  V30 5782 H 549.354 -0.368539 0.552336 0
M  V30 5783 H 551.884 -0.562271 1.96722 0
M  V30 5784 H 551.894 -2.79121 2.97583 0
M  V30 5785 H 550.569 -1.89614 3.70161 0
M  V30 5786 H 549.146 -2.9879 2.23112 0
M  V30 5787 N 551.331 -1.39911 -0.725443 0
M  V30 5788 C 552.556 -1.41137 -1.5197 0
M  V30 5789 C 552.981 -0.010262 -1.88097 0
M  V30 5790 O 552.339 0.979184 -1.52583 0
M  V30 5791 C 552.387 -2.2994 -2.77777 0
M  V30 5792 O 551.491 -1.73586 -3.74088 0
M  V30 5793 H 550.832 -0.480219 -0.458569 0
M  V30 5794 H 553.362 -1.84023 -0.894249 0
M  V30 5795 H 553.372 -2.44785 -3.26411 0
M  V30 5796 H 552.047 -3.31759 -2.50816 0
M  V30 5797 H 550.624 -1.68035 -3.32894 0
M  V30 5798 N 552.809 0.956637 -1.25245 0
M  V30 5799 C 554.034 1.74104 -1.12706 0
M  V30 5800 C 554.459 1.85436 0.315429 0
M  V30 5801 O 553.817 1.33334 1.22848 0
M  V30 5802 C 553.865 3.1338 -1.78396 0
M  V30 5803 O 552.969 3.98485 -1.06224 0
M  V30 5804 H 552.31 0.53476 -0.393609 0
M  V30 5805 H 554.84 1.19924 -1.65769 0
M  V30 5806 H 554.85 3.6385 -1.846 0
M  V30 5807 H 553.525 3.04448 -2.83345 0
M  V30 5808 H 552.102 3.56952 -1.07886 0
M  V30 5809 N 554.287 1.06798 1.15896 0
M  V30 5810 C 555.217 0.704677 2.22613 0
M  V30 5811 C 556.198 -0.305252 1.67339 0
M  V30 5812 O 557.383 -0.179247 1.93371 0
M  V30 5813 C 554.513 0.0957325 3.47168 0
M  V30 5814 C 553.467 1.0322 4.15367 0
M  V30 5815 C 552.793 0.286293 5.33933 0
M  V30 5816 C 554.093 2.36341 4.65768 0
M  V30 5817 H 555.787 1.59688 2.53259 0
M  V30 5818 H 553.333 0.769257 1.21731 0
M  V30 5819 H 555.286 -0.170333 4.21056 0
M  V30 5820 H 554.01 -0.831516 3.15838 0
M  V30 5821 H 552.669 1.28309 3.43413 0
M  V30 5822 H 552.317 -0.644237 4.98857 0
M  V30 5823 H 552.017 0.910436 5.80504 0
M  V30 5824 H 553.541 0.0278938 6.10594 0
M  V30 5825 H 554.955 2.1561 5.31211 0
M  V30 5826 H 553.352 2.94299 5.2298 0
M  V30 5827 H 554.422 2.99047 3.81705 0
M  V30 5828 N 555.766 -1.3263 0.851289 0
M  V30 5829 C 556.994 -2.01563 0.466899 0
M  V30 5830 C 557.409 -1.63996 -0.935447 0
M  V30 5831 O 556.766 -0.85957 -1.6099 0
M  V30 5832 C 556.817 -3.56613 0.592433 0
M  V30 5833 O 556.538 -3.92828 1.93954 0
M  V30 5834 C 558.039 -4.42818 0.206612 0
M  V30 5835 H 555.259 -0.645307 0.183902 0
M  V30 5836 H 557.803 -1.69285 1.1473 0
M  V30 5837 H 555.958 -3.87379 -0.0401936 0
M  V30 5838 H 556.372 -4.87545 1.9339 0
M  V30 5839 H 557.846 -5.50918 0.345462 0
M  V30 5840 H 558.323 -4.30844 -0.85264 0
M  V30 5841 H 558.929 -4.17434 0.814176 0
M  V30 5842 N 557.244 -0.608902 -1.45362 0
M  V30 5843 C 558.192 0.121639 -2.32282 0
M  V30 5844 C 559.186 0.858301 -1.46046 0
M  V30 5845 O 560.392 0.773718 -1.62523 0
M  V30 5846 H 556.767 0.058086 -0.749753 0
M  V30 5847 H 558.738 -0.629866 -2.91677 0
M  V30 5848 C 557.487 1.1047 -3.29684 0
M  V30 5849 H 556.81 0.547278 -3.96036 0
M  V30 5850 H 558.25 1.58576 -3.9323 0
M  V30 5851 C 556.709 2.17891 -2.56954 0
M  V30 5852 O 557.239 3.25652 -2.35189 0
M  V30 5853 N 555.445 1.93211 -2.17066 0
M  V30 5854 H 554.992 1.05584 -2.34967 0
M  V30 5855 H 554.95 2.6529 -1.68727 0
M  V30 5856 N 558.722 1.53707 -0.348139 0
M  V30 5857 C 559.947 2.05877 0.250883 0
M  V30 5858 C 560.372 1.22115 1.43072 0
M  V30 5859 O 559.73 0.235986 1.79758 0
M  V30 5860 C 559.778 3.54886 0.639416 0
M  V30 5861 O 558.882 3.73948 1.73888 0
M  V30 5862 H 558.223 0.662754 0.040653 0
M  V30 5863 H 560.753 1.98303 -0.503685 0
M  V30 5864 H 560.763 3.97601 0.915295 0
M  V30 5865 H 559.438 4.153 -0.223386 0
M  V30 5866 H 558.015 3.43134 1.45991 0
M  V30 5867 N 560.2 0.0768682 1.57412 0
M  V30 5868 C 561.425 -0.603404 1.98428 0
M  V30 5869 C 561.85 -1.62047 0.955108 0
M  V30 5870 O 561.208 -1.81129 -0.0786778 0
M  V30 5871 C 561.256 -1.24396 3.38464 0
M  V30 5872 O 560.36 -2.35982 3.3821 0
M  V30 5873 H 559.701 -0.154741 0.645718 0
M  V30 5874 H 562.231 0.152885 2.04028 0
M  V30 5875 H 562.241 -1.5896 3.7576 0
M  V30 5876 H 560.916 -0.498735 4.12899 0
M  V30 5877 H 559.493 -2.03173 3.1269 0
M  V30 5878 N 561.678 -1.56367 -0.196722 0
M  V30 5879 C 562.927 -1.79724 -0.915539 0
M  V30 5880 C 563.24 -0.649804 -1.84491 0
M  V30 5881 O 564.446 -0.767631 -2.60422 0
M  V30 5882 C 562.902 -3.18369 -1.67836 0
M  V30 5883 C 562.51 -4.4091 -0.793897 0
M  V30 5884 C 564.254 -3.51037 -2.38691 0
M  V30 5885 C 562.161 -5.70577 -1.55549 0
M  V30 5886 H 561.091 -0.67013 -0.345604 0
M  V30 5887 H 563.742 -1.82721 -0.168856 0
M  V30 5888 H 562.124 -3.09617 -2.46887 0
M  V30 5889 H 563.298 -4.60781 -0.042163 0
M  V30 5890 H 561.613 -4.15937 -0.19626 0
M  V30 5891 H 564.21 -4.4515 -2.96219 0
M  V30 5892 H 564.553 -2.74704 -3.12799 0
M  V30 5893 H 565.086 -3.61229 -1.66608 0
M  V30 5894 H 561.825 -6.49871 -0.857226 0
M  V30 5895 H 561.345 -5.54726 -2.2812 0
M  V30 5896 H 563.024 -6.11637 -2.10971 0
M  V30 5897 N 563.156 0.464375 -1.50603 0
M  V30 5898 C 564.567 1.04507 -1.5471 0
M  V30 5899 C 564.918 1.9297 -0.354542 0
M  V30 5900 O 564.043 2.09763 0.531812 0
M  V30 5901 C 564.638 1.90207 -2.80369 0
M  V30 5902 C 563.197 2.43373 -2.87135 0
M  V30 5903 C 562.344 1.21886 -2.49076 0
M  V30 5904 H 565.295 0.246716 -1.56771 0
M  V30 5905 H 565.316 2.75353 -2.62604 0
M  V30 5906 H 564.828 1.25796 -3.67147 0
M  V30 5907 H 562.929 3.11318 -2.04724 0
M  V30 5908 H 563.042 2.7802 -3.90181 0
M  V30 5909 H 561.406 1.55575 -2.01664 0
M  V30 5910 H 562.189 0.591268 -3.3817 0
M  V30 5911 N 564.634 1.40294 0.718013 0
M  V30 5912 C 566.05 1.2227 1.02577 0
M  V30 5913 C 566.25 0.0961976 2.0127 0
M  V30 5914 O 565.306 -0.546695 2.46511 0
M  V30 5915 C 566.619 2.56348 1.57182 0
M  V30 5916 C 568.167 2.6334 1.69178 0
M  V30 5917 C 568.642 3.9768 2.27188 0
M  V30 5918 N 570.133 3.99409 2.34578 0
M  V30 5919 C 570.868 5.00141 2.8044 0
M  V30 5920 N 570.364 6.11268 3.26073 0
M  V30 5921 N 572.157 4.87511 2.79802 0
M  V30 5922 H 564.308 2.12304 0.0637899 0
M  V30 5923 H 566.571 0.943632 0.0909036 0
M  V30 5924 H 566.277 3.3942 0.921262 0
M  V30 5925 H 566.151 2.77266 2.55741 0
M  V30 5926 H 568.538 1.80641 2.33351 0
M  V30 5927 H 568.619 2.46255 0.692247 0
M  V30 5928 H 568.263 4.80817 1.63638 0
M  V30 5929 H 568.193 4.12093 3.27852 0
M  V30 5930 H 570.684 3.19162 2.02346 0
M  V30 5931 H 570.997 6.84023 3.59628 0
M  V30 5932 H 569.342 6.14837 3.24038 0
M  V30 5933 H 572.533 3.9979 2.43487 0
M  V30 5934 H 572.706 5.66158 3.15228 0
M  V30 5935 N 566.112 -0.949982 1.2575 0
M  V30 5936 C 567.359 -1.69515 1.10774 0
M  V30 5937 C 567.687 -1.91316 -0.350479 0
M  V30 5938 O 566.942 -1.48515 -1.27443 0
M  V30 5939 C 567.241 -3.08039 1.81237 0
M  V30 5940 C 566.907 -3.06023 3.31151 0
M  V30 5941 C 565.569 -3.0518 3.72047 0
M  V30 5942 C 567.921 -2.98998 4.26907 0
M  V30 5943 C 565.249 -2.95067 5.07102 0
M  V30 5944 C 567.601 -2.90426 5.61992 0
M  V30 5945 C 566.265 -2.87922 6.0221 0
M  V30 5946 H 565.535 -0.6203 0.405351 0
M  V30 5947 H 568.182 -1.10953 1.56082 0
M  V30 5948 H 566.487 -3.70172 1.28373 0
M  V30 5949 H 568.184 -3.64526 1.67098 0
M  V30 5950 H 564.774 -3.07453 2.98614 0
M  V30 5951 H 568.958 -2.98764 3.963 0
M  V30 5952 H 564.214 -2.915 5.37436 0
M  V30 5953 H 568.388 -2.83952 6.35881 0
M  V30 5954 H 566.015 -2.79841 7.06819 0
M  V30 5955 N 567.59 -1.07411 -1.15328 0
M  V30 5956 C 568.838 -0.796073 -1.85761 0
M  V30 5957 C 569.159 0.679864 -1.82764 0
M  V30 5958 O 568.429 1.49242 -1.269 0
M  V30 5959 H 567.009 -0.291495 -0.687779 0
M  V30 5960 H 569.671 -1.35799 -1.39802 0
M  V30 5961 H 568.767 -1.13114 -2.90881 0
M  V30 5962 N 569.068 1.32177 -0.85831 0
M  V30 5963 C 570.314 1.97417 -0.46417 0
M  V30 5964 C 570.647 1.67746 0.978514 0
M  V30 5965 O 569.922 0.967654 1.68721 0
M  V30 5966 C 570.205 3.53069 -0.708094 0
M  V30 5967 C 570.058 3.92357 -2.19946 0
M  V30 5968 C 571.377 4.39783 -0.166881 0
M  V30 5969 H 568.496 0.717097 -0.17012 0
M  V30 5970 H 571.138 1.56499 -1.07741 0
M  V30 5971 H 569.288 3.88054 -0.186128 0
M  V30 5972 H 570.96 3.67533 -2.78779 0
M  V30 5973 H 569.203 3.41384 -2.67656 0
M  V30 5974 H 569.874 5.00841 -2.32082 0
M  V30 5975 H 572.35 4.11556 -0.613285 0
M  V30 5976 H 571.226 5.47671 -0.367093 0
M  V30 5977 H 571.487 4.32196 0.930559 0
M  V30 5978 N 570.547 0.616602 1.45037 0
M  V30 5979 C 571.494 -0.0969439 2.30596 0
M  V30 5980 C 572.464 -0.851151 1.42635 0
M  V30 5981 O 573.649 -0.835092 1.71554 0
M  V30 5982 C 570.789 -1.08234 3.27688 0
M  V30 5983 C 569.902 -0.328072 4.30752 0
M  V30 5984 C 569.037 -1.30399 5.14946 0
M  V30 5985 C 568.076 -0.538049 6.09731 0
M  V30 5986 N 567.213 -1.46371 6.86673 0
M  V30 5987 H 572.053 0.63864 2.91076 0
M  V30 5988 H 569.59 0.326733 1.43425 0
M  V30 5989 H 571.548 -1.66688 3.82454 0
M  V30 5990 H 570.178 -1.78523 2.68941 0
M  V30 5991 H 569.23 0.372136 3.78575 0
M  V30 5992 H 570.542 0.269142 4.98073 0
M  V30 5993 H 569.696 -1.96032 5.74157 0
M  V30 5994 H 568.435 -1.93514 4.47665 0
M  V30 5995 H 567.44 0.131852 5.49642 0
M  V30 5996 H 568.665 0.0881732 6.79043 0
M  V30 5997 H 566.611 -2.08233 6.22073 0
M  V30 5998 H 566.528 -0.920152 7.50379 0
M  V30 5999 H 567.796 -2.10932 7.50418 0
M  V30 6000 N 572.025 -1.5352 0.356285 0
M  V30 6001 C 573.253 -2.05534 -0.237328 0
M  V30 6002 C 573.668 -1.23043 -1.43199 0
M  V30 6003 O 573.025 -0.268821 -1.80509 0
M  V30 6004 C 573.076 -3.55791 -0.639933 0
M  V30 6005 O 572.797 -4.35154 0.507233 0
M  V30 6006 C 574.298 -4.24027 -1.29292 0
M  V30 6007 H 571.518 -0.669585 -0.0435572 0
M  V30 6008 H 574.062 -1.97988 0.511963 0
M  V30 6009 H 572.217 -3.63518 -1.33915 0
M  V30 6010 H 572.631 -5.24178 0.18375 0
M  V30 6011 H 574.105 -5.30509 -1.52527 0
M  V30 6012 H 574.582 -3.77166 -2.25039 0
M  V30 6013 H 575.188 -4.20527 -0.63539 0
M  V30 6014 N 573.503 -0.0852151 -1.57369 0
M  V30 6015 C 574.413 0.891712 -2.16992 0
M  V30 6016 C 575.429 1.3174 -1.13669 0
M  V30 6017 O 576.605 1.38735 -1.45995 0
M  V30 6018 C 573.67 2.13635 -2.73059 0
M  V30 6019 C 572.731 1.7658 -3.91303 0
M  V30 6020 C 571.964 2.95111 -4.44686 0
M  V30 6021 O 572.187 4.09539 -3.97032 0
M  V30 6022 O 571.121 2.74149 -5.35841 0
M  V30 6023 H 574.947 0.414477 -3.00858 0
M  V30 6024 H 572.532 0.138598 -1.48756 0
M  V30 6025 H 574.414 2.86595 -3.08935 0
M  V30 6026 H 573.089 2.6043 -1.92244 0
M  V30 6027 H 571.996 1.00831 -3.60255 0
M  V30 6028 H 573.329 1.34557 -4.7345 0
M  V30 6029 N 574.981 1.5647 0.188427 0
M  V30 6030 C 575.913 1.91611 1.25769 0
M  V30 6031 C 576.926 0.807436 1.41366 0
M  V30 6032 O 578.115 1.08586 1.41673 0
M  V30 6033 C 575.215 2.13874 2.6289 0
M  V30 6034 C 574.388 3.45047 2.68815 0
M  V30 6035 C 573.447 3.56342 3.87178 0
M  V30 6036 O 572.473 4.29109 3.73971 0
M  V30 6037 N 573.675 2.89924 5.02916 0
M  V30 6038 H 576.44 2.8393 0.959373 0
M  V30 6039 H 574.001 1.57418 0.378306 0
M  V30 6040 H 575.993 2.18713 3.4051 0
M  V30 6041 H 574.563 1.28022 2.85183 0
M  V30 6042 H 573.783 3.52017 1.77419 0
M  V30 6043 H 575.071 4.31395 2.6977 0
M  V30 6044 H 574.469 2.30644 5.16546 0
M  V30 6045 H 573.026 3.0038 5.78459 0
M  V30 6046 N 576.459 -0.456382 1.50847 0
M  V30 6047 C 577.369 -1.57805 1.73594 0
M  V30 6048 C 578.385 -1.62599 0.619476 0
M  V30 6049 O 579.561 -1.80195 0.899532 0
M  V30 6050 C 576.626 -2.93926 1.8387 0
M  V30 6051 C 575.687 -2.99402 3.07663 0
M  V30 6052 C 574.92 -4.29031 3.1744 0
M  V30 6053 O 575.143 -5.20358 2.33631 0
M  V30 6054 O 574.077 -4.40401 4.10281 0
M  V30 6055 H 577.903 -1.41531 2.68705 0
M  V30 6056 H 575.488 -0.637422 1.3512 0
M  V30 6057 H 577.37 -3.74747 1.92725 0
M  V30 6058 H 576.045 -3.10368 0.91944 0
M  V30 6059 H 574.952 -2.17606 3.043 0
M  V30 6060 H 576.285 -2.87901 3.99216 0
M  V30 6061 N 577.937 -1.40673 -0.710563 0
M  V30 6062 C 579.214 -1.29718 -1.46398 0
M  V30 6063 C 579.594 0.082177 -2.1094 0
M  V30 6064 O 578.942 1.09536 -2.00534 0
M  V30 6065 C 579.152 -2.43967 -2.49562 0
M  V30 6066 C 580.5 -2.84436 -3.15248 0
M  V30 6067 O 581.524 -2.43597 -2.59883 0
M  V30 6068 O 580.383 -3.55008 -4.1549 0
M  V30 6069 H 577.477 -0.509697 -0.651258 0
M  V30 6070 H 580.023 -1.52603 -0.742312 0
M  V30 6071 H 578.795 -3.36076 -2.0042 0
M  V30 6072 H 578.418 -2.22879 -3.29258 0
M  V30 6073 N 579.415 0.9433 -1.26252 0
M  V30 6074 C 580.661 1.69175 -1.11837 0
M  V30 6075 C 580.994 1.91238 0.337891 0
M  V30 6076 O 580.269 1.49152 1.24836 0
M  V30 6077 C 580.552 3.06783 -1.88563 0
M  V30 6078 C 580.405 2.9206 -3.42083 0
M  V30 6079 C 581.724 4.06865 -1.67776 0
M  V30 6080 H 578.843 0.61399 -0.407658 0
M  V30 6081 H 581.485 1.09572 -1.55222 0
M  V30 6082 H 579.635 3.57663 -1.51689 0
M  V30 6083 H 581.307 2.48419 -3.88698 0
M  V30 6084 H 579.55 2.27731 -3.69217 0
M  V30 6085 H 580.221 3.89651 -3.90994 0
M  V30 6086 H 582.697 3.64939 -1.99897 0
M  V30 6087 H 581.573 5.01168 -2.23879 0
M  V30 6088 H 581.834 4.37705 -0.621816 0
M  V30 6089 N 580.893 1.08022 1.14757 0
M  V30 6090 C 581.823 0.728248 2.21853 0
M  V30 6091 C 582.804 -0.287486 1.67653 0
M  V30 6092 O 583.989 -0.158727 1.9355 0
M  V30 6093 C 581.119 0.132549 3.47047 0
M  V30 6094 C 580.073 1.07619 4.14249 0
M  V30 6095 C 579.399 0.342907 5.33599 0
M  V30 6096 C 580.699 2.41268 4.63235 0
M  V30 6097 H 582.393 1.62365 2.51551 0
M  V30 6098 H 579.939 0.782125 1.20908 0
M  V30 6099 H 581.892 -0.125665 4.21213 0
M  V30 6100 H 580.616 -0.797971 3.16702 0
M  V30 6101 H 579.275 1.31944 3.42033 0
M  V30 6102 H 578.923 -0.59129 4.99513 0
M  V30 6103 H 578.623 0.971955 5.79506 0
M  V30 6104 H 580.147 0.0926538 6.1053 0
M  V30 6105 H 581.561 2.21232 5.28894 0
M  V30 6106 H 579.958 2.9983 5.19829 0
M  V30 6107 H 581.028 3.03079 3.78512 0
M  V30 6108 N 582.371 -1.3172 0.865308 0
M  V30 6109 C 583.334 -2.26918 0.322627 0
M  V30 6110 C 584.334 -1.52031 -0.523751 0
M  V30 6111 O 585.524 -1.70973 -0.333727 0
M  V30 6112 C 582.656 -3.36558 -0.542338 0
M  V30 6113 H 583.849 -2.76432 1.16298 0
M  V30 6114 H 581.402 -1.42573 0.640512 0
M  V30 6115 H 582.137 -2.92329 -1.40407 0
M  V30 6116 H 581.922 -3.92048 0.0636395 0
M  V30 6117 H 583.412 -4.07465 -0.91446 0
M  V30 6118 N 583.85 -0.624285 -1.44708 0
M  V30 6119 C 584.797 0.0847135 -2.30644 0
M  V30 6120 C 585.767 0.843575 -1.43084 0
M  V30 6121 O 586.952 0.825982 -1.71995 0
M  V30 6122 C 584.091 1.06495 -3.28257 0
M  V30 6123 C 583.205 0.305224 -4.3092 0
M  V30 6124 C 582.34 1.27667 -5.1563 0
M  V30 6125 C 581.379 0.505706 -6.10007 0
M  V30 6126 N 580.516 1.42727 -6.8744 0
M  V30 6127 H 585.356 -0.654068 -2.90733 0
M  V30 6128 H 582.893 -0.334334 -1.4325 0
M  V30 6129 H 584.851 1.64658 -3.83332 0
M  V30 6130 H 583.481 1.77094 -2.69884 0
M  V30 6131 H 582.533 -0.392207 -3.78373 0
M  V30 6132 H 583.845 -0.295553 -4.97924 0
M  V30 6133 H 582.999 1.92984 -5.75189 0
M  V30 6134 H 581.738 1.91137 -4.48685 0
M  V30 6135 H 580.743 -0.160999 -5.49564 0
M  V30 6136 H 581.968 -0.124183 -6.78986 0
M  V30 6137 H 579.913 2.04931 -6.23169 0
M  V30 6138 H 579.831 0.880345 -7.50857 0
M  V30 6139 H 581.099 2.0695 -7.51526 0
M  V30 6140 N 585.328 1.53329 -0.364422 0
M  V30 6141 C 586.238 2.29414 0.490552 0
M  V30 6142 C 587.254 1.35335 1.09363 0
M  V30 6143 O 588.43 1.68391 1.10483 0
M  V30 6144 C 585.495 3.06772 1.61529 0
M  V30 6145 C 584.556 4.16516 1.03986 0
M  V30 6146 C 583.789 4.90176 2.111 0
M  V30 6147 O 584.012 4.63687 3.32191 0
M  V30 6148 O 582.946 5.76134 1.74222 0
M  V30 6149 H 586.772 3.03428 -0.12856 0
M  V30 6150 H 584.357 1.48843 -0.128837 0
M  V30 6151 H 586.239 3.55082 2.26924 0
M  V30 6152 H 584.914 2.35596 2.21983 0
M  V30 6153 H 583.821 3.7246 0.349856 0
M  V30 6154 H 585.154 4.89855 0.4799 0
M  V30 6155 N 586.806 0.0935595 1.57322 0
M  V30 6156 C 587.736 -0.863062 2.16964 0
M  V30 6157 C 588.717 -1.29528 1.10256 0
M  V30 6158 O 589.902 -1.36245 1.38387 0
M  V30 6159 C 587.032 -2.12276 2.74875 0
M  V30 6160 C 585.986 -1.82921 3.86942 0
M  V30 6161 C 585.312 -3.15707 4.31548 0
M  V30 6162 C 586.612 -1.11737 5.10208 0
M  V30 6163 H 588.306 -0.366145 2.97153 0
M  V30 6164 H 585.852 -0.174673 1.42937 0
M  V30 6165 H 587.805 -2.79634 3.1525 0
M  V30 6166 H 586.529 -2.64248 1.91938 0
M  V30 6167 H 585.188 -1.17961 3.47103 0
M  V30 6168 H 584.836 -3.65563 3.45504 0
M  V30 6169 H 584.536 -2.96849 5.07104 0
M  V30 6170 H 586.06 -3.84226 4.74555 0
M  V30 6171 H 587.474 -1.69203 5.47762 0
M  V30 6172 H 585.871 -1.03064 5.91183 0
M  V30 6173 H 586.941 -0.0998818 4.84797 0
M  V30 6174 N 588.284 -1.56567 -0.180126 0
M  V30 6175 C 589.194 -1.98947 -1.24327 0
M  V30 6176 C 590.21 -0.899446 -1.4895 0
M  V30 6177 O 591.386 -1.20639 -1.61271 0
M  V30 6178 C 588.451 -2.33328 -2.56435 0
M  V30 6179 C 587.512 -3.56114 -2.39752 0
M  V30 6180 C 586.745 -3.88845 -3.65561 0
M  V30 6181 O 586.968 -3.22662 -4.70368 0
M  V30 6182 O 585.902 -4.82226 -3.60197 0
M  V30 6183 H 589.728 -2.89634 -0.913565 0
M  V30 6184 H 587.313 -1.44319 -0.386306 0
M  V30 6185 H 589.195 -2.5645 -3.34382 0
M  V30 6186 H 587.87 -1.45806 -2.89002 0
M  V30 6187 H 586.777 -3.38221 -1.59866 0
M  V30 6188 H 588.11 -4.4415 -2.12113 0
M  V30 6189 N 589.762 0.448376 -1.51087 0
M  V30 6190 C 591.039 1.20926 -1.53741 0
M  V30 6191 C 591.419 2.09025 -0.295222 0
M  V30 6192 O 590.767 2.16851 0.720283 0
M  V30 6193 C 590.977 2.02067 -2.84552 0
M  V30 6194 C 592.325 2.59486 -3.36084 0
M  V30 6195 O 593.349 2.12289 -2.86028 0
M  V30 6196 O 592.208 3.45539 -4.23397 0
M  V30 6197 H 589.302 0.549951 -0.617643 0
M  V30 6198 H 591.848 0.458344 -1.63393 0
M  V30 6199 H 590.62 1.37291 -3.66425 0
M  V30 6200 H 590.243 2.84246 -2.78011 0
M  V30 6201 N 591.24 1.41047 0.703093 0
M  V30 6202 C 592.486 1.40207 1.46526 0
M  V30 6203 C 592.819 0.00847763 1.94198 0
M  V30 6204 O 592.094 -0.962437 1.69019 0
M  V30 6205 C 592.377 2.40238 2.6825 0
M  V30 6206 C 592.23 3.88674 2.26391 0
M  V30 6207 C 593.549 2.37627 3.70434 0
M  V30 6208 H 590.668 0.510594 0.531472 0
M  V30 6209 H 593.31 1.72271 0.801422 0
M  V30 6210 H 591.46 2.13026 3.24888 0
M  V30 6211 H 593.132 4.2676 1.75138 0
M  V30 6212 H 591.375 4.03903 1.58255 0
M  V30 6213 H 592.046 4.542 3.13698 0
M  V30 6214 H 594.522 2.61759 3.23452 0
M  V30 6215 H 593.398 3.09645 4.53223 0
M  V30 6216 H 593.659 1.39223 4.19606 0
M  V30 6217 N 592.718 -0.936591 1.26751 0
M  V30 6218 C 593.666 -2.0573 1.08527 0
M  V30 6219 C 594.66 -1.69397 0.0108784 0
M  V30 6220 O 595.866 -1.79215 0.167915 0
M  V30 6221 H 592.241 -0.673691 0.334133 0
M  V30 6222 H 594.212 -2.1825 2.03493 0
M  V30 6223 C 592.961 -3.39738 0.739845 0
M  V30 6224 H 592.284 -3.68174 1.55845 0
M  V30 6225 H 593.724 -4.18955 0.652149 0
M  V30 6226 C 592.183 -3.32292 -0.555288 0
M  V30 6227 O 592.713 -3.68794 -1.59229 0
M  V30 6228 N 590.919 -2.85394 -0.54762 0
M  V30 6229 H 590.466 -2.55886 0.296667 0
M  V30 6230 H 590.424 -2.80795 -1.41427 0
M  V30 6231 N 594.196 -1.08629 -1.14182 0
M  V30 6232 C 595.143 -0.718299 -2.19338 0
M  V30 6233 C 596.113 0.296587 -1.63431 0
M  V30 6234 O 597.298 0.180079 -1.89948 0
M  V30 6235 C 594.438 -0.136203 -3.44831 0
M  V30 6236 C 593.551 -1.20414 -4.14879 0
M  V30 6237 C 592.686 -0.585666 -5.27962 0
M  V30 6238 C 591.725 -1.63548 -5.89846 0
M  V30 6239 N 590.862 -1.03864 -6.94375 0
M  V30 6240 H 595.702 -1.61932 -2.50164 0
M  V30 6241 H 593.239 -0.80919 -1.22844 0
M  V30 6242 H 595.197 0.219021 -4.16625 0
M  V30 6243 H 593.827 0.728121 -3.14481 0
M  V30 6244 H 592.879 -1.67676 -3.41451 0
M  V30 6245 H 594.191 -1.99959 -4.56966 0
M  V30 6246 H 593.345 -0.178818 -6.06436 0
M  V30 6247 H 592.084 0.24142 -4.87102 0
M  V30 6248 H 591.089 -2.05197 -5.10073 0
M  V30 6249 H 592.314 -2.46509 -6.3278 0
M  V30 6250 H 590.26 -0.232687 -6.55587 0
M  V30 6251 H 590.177 -1.77116 -7.3496 0
M  V30 6252 H 591.445 -0.657724 -7.7672 0
M  V30 6253 N 595.674 1.31259 -0.872281 0
M  V30 6254 C 596.92 1.973 -0.494414 0
M  V30 6255 C 597.275 1.67684 0.94339 0
M  V30 6256 O 596.568 0.964186 1.65572 0
M  V30 6257 C 596.762 3.50659 -0.690889 0
M  V30 6258 C 596.591 3.95179 -2.14624 0
M  V30 6259 C 595.361 4.21405 -2.7883 0
M  V30 6260 C 597.559 4.08948 -3.11875 0
M  V30 6261 N 595.541 4.52295 -4.15093 0
M  V30 6262 C 596.912 4.43576 -4.33174 0
M  V30 6263 C 598.967 3.91334 -3.07835 0
M  V30 6264 C 597.67 4.62429 -5.50956 0
M  V30 6265 C 599.696 4.11381 -4.24876 0
M  V30 6266 C 599.058 4.46343 -5.44938 0
M  V30 6267 H 595.157 0.747411 -0.230002 0
M  V30 6268 H 597.741 1.58741 -1.12736 0
M  V30 6269 H 595.912 3.88301 -0.0875162 0
M  V30 6270 H 597.644 4.03722 -0.281179 0
M  V30 6271 H 594.399 4.14131 -2.29767 0
M  V30 6272 H 594.823 4.71897 -4.8543 0
M  V30 6273 H 599.465 3.6339 -2.16119 0
M  V30 6274 H 597.183 4.8922 -6.43187 0
M  V30 6275 H 600.769 3.99235 -4.23205 0
M  V30 6276 H 599.649 4.6154 -6.33996 0
M  V30 6277 N 597.152 0.631951 1.44375 0
M  V30 6278 C 598.4 0.136497 2.01639 0
M  V30 6279 C 598.721 -1.24637 1.49969 0
M  V30 6280 O 597.991 -1.82827 0.70363 0
M  V30 6281 H 596.571 0.0474703 0.74549 0
M  V30 6282 H 599.233 0.818837 1.76865 0
M  V30 6283 H 598.329 0.104817 3.11924 0
M  V30 6284 N 598.631 -1.53133 0.372548 0
M  V30 6285 C 599.561 -2.28876 -0.462412 0
M  V30 6286 C 600.542 -1.31583 -1.07796 0
M  V30 6287 O 601.727 -1.60461 -1.09389 0
M  V30 6288 C 598.857 -3.08317 -1.59868 0
M  V30 6289 C 597.811 -4.13355 -1.11003 0
M  V30 6290 C 597.137 -4.8092 -2.33708 0
M  V30 6291 C 598.437 -5.21955 -0.18983 0
M  V30 6292 H 600.131 -2.9892 0.169511 0
M  V30 6293 H 597.677 -1.43761 0.0829658 0
M  V30 6294 H 599.63 -3.60055 -2.18949 0
M  V30 6295 H 598.354 -2.35976 -2.25794 0
M  V30 6296 H 597.013 -3.62573 -0.541869 0
M  V30 6297 H 596.661 -4.05144 -2.98106 0
M  V30 6298 H 596.361 -5.51904 -2.01682 0
M  V30 6299 H 597.885 -5.35455 -2.93462 0
M  V30 6300 H 599.299 -5.69153 -0.688319 0
M  V30 6301 H 597.696 -6.00087 0.0398887 0
M  V30 6302 H 598.766 -4.78811 0.766057 0
M  V30 6303 N 600.109 -0.101901 -1.5727 0
M  V30 6304 C 601.059 0.865346 -2.1094 0
M  V30 6305 C 602.043 1.2394 -1.02605 0
M  V30 6306 O 603.235 1.21334 -1.28868 0
M  V30 6307 C 600.364 2.12187 -2.69874 0
M  V30 6308 C 599.45 1.77295 -3.85263 0
M  V30 6309 N 599.841 1.12993 -4.93017 0
M  V30 6310 C 598.139 2.06862 -3.95126 0
M  V30 6311 C 598.84 0.968631 -5.73579 0
M  V30 6312 N 597.816 1.48814 -5.22834 0
M  V30 6313 H 601.618 0.364368 -2.91633 0
M  V30 6314 H 599.132 0.101104 -1.62085 0
M  V30 6315 H 601.129 2.82431 -3.06657 0
M  V30 6316 H 599.789 2.62844 -1.90639 0
M  V30 6317 H 600.8 0.795935 -5.11747 0
M  V30 6318 H 597.477 2.59686 -3.26909 0
M  V30 6319 H 598.867 0.465231 -6.70287 0
M  V30 6320 N 601.587 1.56661 0.17182 0
M  V30 6321 C 602.833 1.82235 0.889845 0
M  V30 6322 C 603.166 0.679673 1.81918 0
M  V30 6323 O 602.441 -0.318404 1.91876 0
M  V30 6324 C 602.724 3.18195 1.68595 0
M  V30 6325 C 602.577 4.42989 0.779773 0
M  V30 6326 C 603.896 3.5109 2.65375 0
M  V30 6327 H 601.015 0.66291 0.322056 0
M  V30 6328 H 603.657 1.89358 0.15608 0
M  V30 6329 H 601.807 3.12253 2.3115 0
M  V30 6330 H 603.479 4.60997 0.16714 0
M  V30 6331 H 601.722 4.33711 0.0877964 0
M  V30 6332 H 602.393 5.3467 1.3723 0
M  V30 6333 H 604.869 3.57482 2.12946 0
M  V30 6334 H 603.745 4.47298 3.18144 0
M  V30 6335 H 604.006 2.75768 3.45549 0
M  V30 6336 N 603.065 -0.440357 1.51323 0
M  V30 6337 C 604.312 -1.19004 1.63842 0
M  V30 6338 C 604.64 -1.91266 0.35321 0
M  V30 6339 O 603.895 -1.84143 -0.662565 0
M  V30 6340 C 604.194 -2.2339 2.78984 0
M  V30 6341 C 603.86 -1.68162 4.18369 0
M  V30 6342 C 602.522 -1.52823 4.56288 0
M  V30 6343 C 604.874 -1.27524 5.05358 0
M  V30 6344 C 602.202 -0.953157 5.78906 0
M  V30 6345 C 604.554 -0.714474 6.28552 0
M  V30 6346 C 603.218 -0.547961 6.65247 0
M  V30 6347 H 602.488 -0.435468 0.59954 0
M  V30 6348 H 605.135 -0.481538 1.85347 0
M  V30 6349 H 603.44 -3.00267 2.51688 0
M  V30 6350 H 605.137 -2.81211 2.85869 0
M  V30 6351 H 601.727 -1.81077 3.8847 0
M  V30 6352 H 605.911 -1.38197 4.76671 0
M  V30 6353 H 601.167 -0.811882 6.05986 0
M  V30 6354 H 605.341 -0.391059 6.95301 0
M  V30 6355 H 602.968 -0.100222 7.60134 0
M  V30 6356 N 604.543 -1.41418 -0.695603 0
M  V30 6357 C 605.959 -1.23887 -1.00619 0
M  V30 6358 C 606.159 -0.128206 -2.01092 0
M  V30 6359 O 605.215 0.507408 -2.47349 0
M  V30 6360 C 606.528 -2.58816 -1.53083 0
M  V30 6361 C 608.076 -2.65998 -1.64967 0
M  V30 6362 C 608.551 -4.01244 -2.20833 0
M  V30 6363 N 610.042 -4.0309 -2.28194 0
M  V30 6364 C 610.777 -5.04539 -2.72448 0
M  V30 6365 N 610.273 -6.16378 -3.16306 0
M  V30 6366 N 612.066 -4.91901 -2.72011 0
M  V30 6367 H 604.217 -2.12379 -0.0300061 0
M  V30 6368 H 606.48 -0.944958 -0.0758797 0
M  V30 6369 H 606.186 -3.40842 -0.867147 0
M  V30 6370 H 606.06 -2.81299 -2.51298 0
M  V30 6371 H 608.447 -1.84331 -2.30448 0
M  V30 6372 H 608.528 -2.47325 -0.652982 0
M  V30 6373 H 608.172 -4.83359 -1.55968 0
M  V30 6374 H 608.102 -4.17257 -3.21254 0
M  V30 6375 H 610.593 -3.22341 -1.97242 0
M  V30 6376 H 610.906 -6.89658 -3.487 0
M  V30 6377 H 609.251 -6.19914 -3.14215 0
M  V30 6378 H 612.442 -4.03613 -2.37095 0
M  V30 6379 H 612.615 -5.71102 -3.06181 0
M  V30 6380 N 606.021 0.929856 -1.27246 0
M  V30 6381 C 607.27 1.67182 -1.12842 0
M  V30 6382 C 607.583 1.9287 0.325666 0
M  V30 6383 O 608.789 2.64999 0.590572 0
M  V30 6384 C 607.245 3.01097 -1.97151 0
M  V30 6385 C 606.853 2.83115 -3.47203 0
M  V30 6386 C 608.597 3.78907 -1.91389 0
M  V30 6387 C 606.504 4.12573 -4.23719 0
M  V30 6388 H 605.434 0.627064 -0.418697 0
M  V30 6389 H 608.085 1.0332 -1.51649 0
M  V30 6390 H 606.467 3.66004 -1.51186 0
M  V30 6391 H 607.641 2.26989 -4.01015 0
M  V30 6392 H 605.956 2.18736 -3.54321 0
M  V30 6393 H 608.553 4.74837 -2.45834 0
M  V30 6394 H 608.896 4.0674 -0.887047 0
M  V30 6395 H 609.429 3.20794 -2.35237 0
M  V30 6396 H 606.168 3.8992 -5.26918 0
M  V30 6397 H 605.688 4.68371 -3.74685 0
M  V30 6398 H 607.367 4.8095 -4.32777 0
M  V30 6399 N 607.499 1.09233 1.13605 0
M  V30 6400 C 608.462 0.733553 2.17144 0
M  V30 6401 C 609.462 -0.235873 1.59061 0
M  V30 6402 O 610.652 -0.0143167 1.74194 0
M  V30 6403 C 607.784 0.084471 3.40795 0
M  V30 6404 H 608.977 1.65049 2.50397 0
M  V30 6405 H 606.53 0.891264 1.28399 0
M  V30 6406 H 607.265 -0.843795 3.1313 0
M  V30 6407 H 607.05 0.781985 3.84223 0
M  V30 6408 H 608.54 -0.151216 4.17326 0
M  V30 6409 N 608.977 -1.30795 0.87923 0
M  V30 6410 C 609.887 -2.32041 0.345565 0
M  V30 6411 C 610.903 -1.65103 -0.549265 0
M  V30 6412 O 612.079 -1.9645 -0.443763 0
M  V30 6413 C 609.144 -3.43944 -0.436245 0
M  V30 6414 C 608.205 -4.26521 0.48765 0
M  V30 6415 C 607.438 -5.33081 -0.256943 0
M  V30 6416 O 607.661 -5.50762 -1.48381 0
M  V30 6417 O 606.595 -6.00635 0.389985 0
M  V30 6418 H 610.421 -2.79627 1.18501 0
M  V30 6419 H 608.006 -1.3486 0.642885 0
M  V30 6420 H 609.888 -4.12128 -0.879119 0
M  V30 6421 H 608.563 -2.98504 -1.25208 0
M  V30 6422 H 607.47 -3.61057 0.979216 0
M  V30 6423 H 608.803 -4.75551 1.26933 0
M  V30 6424 N 610.455 -0.639598 -1.44038 0
M  V30 6425 C 611.385 0.0469443 -2.33453 0
M  V30 6426 C 612.366 0.82609 -1.48694 0
M  V30 6427 O 613.551 0.790285 -1.77393 0
M  V30 6428 C 610.681 1.02338 -3.3188 0
M  V30 6429 C 609.635 0.355284 -4.26523 0
M  V30 6430 C 608.961 1.44221 -5.14883 0
M  V30 6431 C 610.261 -0.743798 -5.16977 0
M  V30 6432 H 611.955 -0.699735 -2.91108 0
M  V30 6433 H 609.501 -0.337946 -1.39978 0
M  V30 6434 H 611.454 1.51247 -3.93322 0
M  V30 6435 H 610.178 1.80105 -2.72451 0
M  V30 6436 H 608.837 -0.113239 -3.66425 0
M  V30 6437 H 608.485 2.21097 -4.51802 0
M  V30 6438 H 608.185 1.00052 -5.79019 0
M  V30 6439 H 609.709 1.93295 -5.79197 0
M  V30 6440 H 611.123 -0.337444 -5.72306 0
M  V30 6441 H 609.52 -1.10914 -5.89761 0
M  V30 6442 H 610.59 -1.60745 -4.57481 0
M  V30 6443 N 611.933 1.52934 -0.380664 0
M  V30 6444 C 613.158 2.06363 0.207157 0
M  V30 6445 C 613.583 1.25122 1.4045 0
M  V30 6446 O 612.941 0.274062 1.79217 0
M  V30 6447 C 612.989 3.56162 0.563996 0
M  V30 6448 O 612.093 3.77552 1.65917 0
M  V30 6449 H 611.434 0.663468 0.0265859 0
M  V30 6450 H 613.964 1.9719 -0.545635 0
M  V30 6451 H 613.974 3.99453 0.830752 0
M  V30 6452 H 612.649 4.14732 -0.311427 0
M  V30 6453 H 611.226 3.46154 1.3868 0
M  V30 6454 N 613.412 0.11024 1.57214 0
M  V30 6455 C 614.66 -0.548783 1.94506 0
M  V30 6456 C 614.981 -1.67772 0.99386 0
M  V30 6457 O 614.251 -1.9584 0.0485841 0
M  V30 6458 H 612.831 -0.205715 0.718116 0
M  V30 6459 H 615.493 0.177127 1.94093 0
M  V30 6460 H 614.589 -0.949096 2.97319 0
M  V30 6461 N 614.89 -1.56749 -0.16351 0
M  V30 6462 C 615.838 -1.97939 -1.22159 0
M  V30 6463 C 616.832 -0.869288 -1.45395 0
M  V30 6464 O 618.038 -1.05443 -1.45883 0
M  V30 6465 H 614.413 -0.629869 -0.410815 0
M  V30 6466 H 616.384 -2.86115 -0.847381 0
M  V30 6467 C 615.133 -2.36206 -2.55151 0
M  V30 6468 H 614.456 -3.2117 -2.38097 0
M  V30 6469 H 615.896 -2.68863 -3.27854 0
M  V30 6470 C 614.355 -1.20841 -3.14482 0
M  V30 6471 O 614.885 -0.500258 -3.98573 0
M  V30 6472 N 613.091 -0.976943 -2.73686 0
M  V30 6473 H 612.638 -1.55457 -2.05404 0
M  V30 6474 H 612.596 -0.206912 -3.13718 0
M  V30 6475 N 616.368 0.432326 -1.51554 0
M  V30 6476 C 617.784 0.769195 -1.39841 0
M  V30 6477 C 617.984 1.95584 -0.484675 0
M  V30 6478 O 617.04 2.52433 0.0582829 0
M  V30 6479 C 618.353 1.04487 -2.81963 0
M  V30 6480 C 619.901 1.149 -2.91148 0
M  V30 6481 C 620.376 1.45758 -4.34187 0
M  V30 6482 N 621.867 1.52671 -4.37317 0
M  V30 6483 C 622.602 1.78129 -5.4503 0
M  V30 6484 N 622.098 2.01345 -6.62897 0
M  V30 6485 N 623.891 1.79953 -5.32516 0
M  V30 6486 H 616.042 -0.349122 -2.09511 0
M  V30 6487 H 618.305 -0.0938113 -0.943347 0
M  V30 6488 H 618.011 0.24557 -3.50842 0
M  V30 6489 H 617.885 1.97119 -3.21596 0
M  V30 6490 H 620.272 1.93891 -2.22464 0
M  V30 6491 H 620.353 0.201568 -2.55005 0
M  V30 6492 H 619.997 0.672917 -5.03423 0
M  V30 6493 H 619.927 2.41715 -4.67848 0
M  V30 6494 H 622.418 1.36612 -3.52343 0
M  V30 6495 H 622.731 2.20155 -7.40778 0
M  V30 6496 H 621.076 1.98657 -6.66003 0
M  V30 6497 H 624.267 1.61337 -4.39418 0
M  V30 6498 H 624.44 1.99455 -6.1654 0
M  V30 6499 N 617.846 1.41785 0.688094 0
M  V30 6500 C 619.257 1.3701 1.26828 0
M  V30 6501 C 619.608 0.056835 1.96118 0
M  V30 6502 O 618.733 -0.84475 1.99231 0
M  V30 6503 C 619.328 2.48168 2.30648 0
M  V30 6504 C 617.887 2.46766 2.84224 0
M  V30 6505 C 617.034 2.27633 1.58361 0
M  V30 6506 H 619.985 1.51192 0.482351 0
M  V30 6507 H 620.006 2.17655 3.121 0
M  V30 6508 H 619.518 3.43735 1.80188 0
M  V30 6509 H 617.619 1.54978 3.3884 0
M  V30 6510 H 617.732 3.43342 3.34145 0
M  V30 6511 H 616.096 1.75648 1.84445 0
M  V30 6512 H 616.879 3.25238 1.09887 0
M  V30 6513 N 619.324 -0.923095 1.27737 0
M  V30 6514 C 620.254 -2.04124 1.13383 0
M  V30 6515 C 621.235 -1.70066 0.0340658 0
M  V30 6516 O 622.42 -1.93068 0.209383 0
M  V30 6517 C 619.55 -3.3831 0.785097 0
M  V30 6518 C 618.504 -3.86496 1.8386 0
M  V30 6519 C 617.83 -5.1754 1.34373 0
M  V30 6520 C 619.13 -4.09381 3.24353 0
M  V30 6521 H 620.824 -2.1639 2.06919 0
M  V30 6522 H 618.37 -1.03976 0.996243 0
M  V30 6523 H 620.323 -4.16016 0.671485 0
M  V30 6524 H 619.047 -3.2607 -0.185969 0
M  V30 6525 H 617.706 -3.10987 1.9412 0
M  V30 6526 H 617.354 -5.01696 0.361989 0
M  V30 6527 H 617.054 -5.50751 2.04811 0
M  V30 6528 H 618.578 -5.97811 1.24315 0
M  V30 6529 H 619.992 -4.77641 3.17067 0
M  V30 6530 H 618.389 -4.53906 3.92542 0
M  V30 6531 H 619.459 -3.14515 3.69064 0
M  V30 6532 N 620.802 -1.09834 -1.13024 0
M  V30 6533 C 622.03 -0.858902 -1.8823 0
M  V30 6534 C 622.445 0.590164 -1.79339 0
M  V30 6535 O 621.802 1.4065 -1.16292 0
M  V30 6536 C 621.853 -1.29066 -3.37675 0
M  V30 6537 O 621.574 -2.6829 -3.46341 0
M  V30 6538 C 623.075 -1.08421 -4.29837 0
M  V30 6539 H 620.295 -0.308713 -0.595766 0
M  V30 6540 H 622.839 -1.4614 -1.4305 0
M  V30 6541 H 620.994 -0.731961 -3.80422 0
M  V30 6542 H 621.408 -2.86598 -4.39274 0
M  V30 6543 H 622.882 -1.43553 -5.33007 0
M  V30 6544 H 623.359 -0.0223315 -4.39194 0
M  V30 6545 H 623.965 -1.62907 -3.92863 0
M  V30 6546 N 622.28 1.30327 -0.886154 0
M  V30 6547 C 623.526 1.96388 -0.505941 0
M  V30 6548 C 623.859 1.69784 0.942712 0
M  V30 6549 O 623.134 1.00322 1.6663 0
M  V30 6550 C 623.417 3.51488 -0.782826 0
M  V30 6551 C 623.27 3.87603 -2.28219 0
M  V30 6552 C 624.589 4.39331 -0.260128 0
M  V30 6553 H 621.708 0.713327 -0.185292 0
M  V30 6554 H 624.35 1.54178 -1.11036 0
M  V30 6555 H 622.5 3.87572 -0.268399 0
M  V30 6556 H 624.172 3.61537 -2.86512 0
M  V30 6557 H 622.415 3.3563 -2.74837 0
M  V30 6558 H 623.086 4.95806 -2.42653 0
M  V30 6559 H 625.562 4.10162 -0.700444 0
M  V30 6560 H 624.438 5.46769 -0.483179 0
M  V30 6561 H 624.699 4.34072 0.838674 0
M  V30 6562 N 623.758 0.647228 1.43697 0
M  V30 6563 C 625.007 0.155552 2.01099 0
M  V30 6564 C 625.32 -1.23569 1.51624 0
M  V30 6565 O 626.526 -1.82226 2.01261 0
M  V30 6566 C 624.982 0.227296 3.59182 0
M  V30 6567 C 624.59 1.62086 4.17651 0
M  V30 6568 C 626.334 -0.207085 4.23995 0
M  V30 6569 C 624.241 1.64685 5.68008 0
M  V30 6570 H 623.171 0.0543895 0.752036 0
M  V30 6571 H 625.822 0.808386 1.64734 0
M  V30 6572 H 624.204 -0.492937 3.9292 0
M  V30 6573 H 625.378 2.36597 3.95422 0
M  V30 6574 H 623.693 2.0007 3.65186 0
M  V30 6575 H 626.29 -0.207426 5.34298 0
M  V30 6576 H 626.633 -1.23742 3.97484 0
M  V30 6577 H 627.166 0.461193 3.95118 0
M  V30 6578 H 623.905 2.65608 5.99277 0
M  V30 6579 H 623.425 0.944914 5.9231 0
M  V30 6580 H 625.104 1.38792 6.31938 0
M  V30 6581 N 625.236 -1.5273 0.388769 0
M  V30 6582 C 626.169 -2.22861 -0.490752 0
M  V30 6583 C 627.147 -1.22912 -1.06449 0
M  V30 6584 O 628.331 -1.51896 -1.11624 0
M  V30 6585 C 625.458 -2.94141 -1.67925 0
M  V30 6586 C 624.504 -4.08355 -1.23081 0
M  V30 6587 S 625.337 -5.35077 -0.212786 0
M  V30 6588 C 626.493 -6.09879 -1.40708 0
M  V30 6589 H 626.726 -2.97115 0.104787 0
M  V30 6590 H 624.259 -1.53428 0.172956 0
M  V30 6591 H 626.217 -3.35818 -2.36085 0
M  V30 6592 H 624.878 -2.19568 -2.24608 0
M  V30 6593 H 624.071 -4.57328 -2.11818 0
M  V30 6594 H 623.673 -3.68688 -0.628121 0
M  V30 6595 H 625.965 -6.36018 -2.33424 0
M  V30 6596 H 626.908 -7.01586 -0.958271 0
M  V30 6597 H 627.316 -5.40646 -1.62364 0
M  V30 6598 N 626.714 -0.118576 -1.57153 0
M  V30 6599 C 627.664 0.842924 -2.11846 0
M  V30 6600 C 628.648 1.22845 -1.03914 0
M  V30 6601 O 629.84 1.19961 -1.30148 0
M  V30 6602 C 626.969 2.09312 -2.72109 0
M  V30 6603 C 626.055 1.73198 -3.87122 0
M  V30 6604 N 626.446 1.07758 -4.94188 0
M  V30 6605 C 624.744 2.02659 -3.97298 0
M  V30 6606 C 625.445 0.907741 -5.74574 0
M  V30 6607 N 624.421 1.4326 -5.24383 0
M  V30 6608 H 628.223 0.333416 -2.92003 0
M  V30 6609 H 625.737 0.0839073 -1.62183 0
M  V30 6610 H 627.734 2.79162 -3.09635 0
M  V30 6611 H 626.394 2.60807 -1.93416 0
M  V30 6612 H 627.405 0.741613 -5.12563 0
M  V30 6613 H 624.082 2.56204 -3.29645 0
M  V30 6614 H 625.472 0.394112 -6.70743 0
M  V30 6615 N 628.193 1.56834 0.155195 0
M  V30 6616 C 629.421 1.87049 0.884326 0
M  V30 6617 C 629.836 0.705839 1.7511 0
M  V30 6618 O 629.193 -0.324641 1.79589 0
M  V30 6619 C 629.244 3.1644 1.74781 0
M  V30 6620 O 628.965 4.28417 0.915978 0
M  V30 6621 C 630.466 3.60113 2.58522 0
M  V30 6622 H 627.686 0.620196 0.25612 0
M  V30 6623 H 630.23 2.03946 0.150445 0
M  V30 6624 H 628.385 3.01321 2.43484 0
M  V30 6625 H 628.799 5.02353 1.50803 0
M  V30 6626 H 630.273 4.53508 3.14698 0
M  V30 6627 H 630.75 2.85005 3.34169 0
M  V30 6628 H 631.356 3.77898 1.95124 0
M  V30 6629 N 629.671 -0.424282 1.51781 0
M  V30 6630 C 630.92 -1.16961 1.64326 0
M  V30 6631 C 631.233 -1.92035 0.371749 0
M  V30 6632 O 632.439 -2.68873 0.37676 0
M  V30 6633 C 630.895 -2.12782 2.90262 0
M  V30 6634 C 630.503 -1.43295 4.24465 0
M  V30 6635 C 632.247 -2.87667 3.12166 0
M  V30 6636 C 630.154 -2.37676 5.41538 0
M  V30 6637 H 629.084 -0.440293 0.612093 0
M  V30 6638 H 631.735 -0.435431 1.78259 0
M  V30 6639 H 630.117 -2.8969 2.69992 0
M  V30 6640 H 631.291 -0.718564 4.55163 0
M  V30 6641 H 629.606 -0.805118 4.08542 0
M  V30 6642 H 632.203 -3.58395 3.96808 0
M  V30 6643 H 632.546 -3.49758 2.25776 0
M  V30 6644 H 633.079 -2.17863 3.32837 0
M  V30 6645 H 629.818 -1.80255 6.30229 0
M  V30 6646 H 629.338 -3.07132 5.15199 0
M  V30 6647 H 631.017 -2.98529 5.74012 0
M  V30 6648 N 631.149 -1.42148 -0.680565 0
M  V30 6649 C 632.396 -1.4231 -1.44063 0
M  V30 6650 C 632.724 -0.037488 -1.94464 0
M  V30 6651 O 631.979 0.953184 -1.70918 0
M  V30 6652 C 632.278 -2.38945 -2.65782 0
M  V30 6653 C 631.944 -3.85455 -2.33956 0
M  V30 6654 C 630.606 -4.25364 -2.24987 0
M  V30 6655 C 632.958 -4.77895 -2.08004 0
M  V30 6656 C 630.286 -5.55701 -1.88184 0
M  V30 6657 C 632.638 -6.08568 -1.72706 0
M  V30 6658 C 631.302 -6.47482 -1.62244 0
M  V30 6659 H 630.572 -0.520748 -0.527164 0
M  V30 6660 H 633.219 -1.7505 -0.776524 0
M  V30 6661 H 631.524 -1.99511 -3.37198 0
M  V30 6662 H 633.221 -2.36336 -3.23954 0
M  V30 6663 H 629.811 -3.53855 -2.41836 0
M  V30 6664 H 633.995 -4.47854 -2.1387 0
M  V30 6665 H 629.251 -5.84718 -1.78648 0
M  V30 6666 H 633.425 -6.79688 -1.5165 0
M  V30 6667 H 631.052 -7.48387 -1.33496 0
M  V30 6668 N 632.627 0.916307 -1.28225 0
M  V30 6669 C 633.559 2.02303 -1.07732 0
M  V30 6670 C 634.572 1.62773 -0.0298421 0
M  V30 6671 O 635.761 1.76406 -0.272626 0
M  V30 6672 C 632.861 3.33282 -0.614504 0
M  V30 6673 C 632.034 4.01439 -1.73682 0
M  V30 6674 C 631.093 5.10698 -1.26781 0
M  V30 6675 O 630.119 5.34038 -1.96958 0
M  V30 6676 N 631.321 5.80355 -0.129624 0
M  V30 6677 H 634.086 2.20442 -2.03041 0
M  V30 6678 H 631.647 1.08744 -1.19943 0
M  V30 6679 H 633.639 4.03699 -0.284397 0
M  V30 6680 H 632.209 3.11633 0.245664 0
M  V30 6681 H 631.429 3.24604 -2.23665 0
M  V30 6682 H 632.717 4.43721 -2.48976 0
M  V30 6683 H 632.115 5.6386 0.455847 0
M  V30 6684 H 630.672 6.51647 0.141224 0
M  V30 6685 N 634.105 1.10431 1.1244 0
M  V30 6686 C 635.015 0.765502 2.21759 0
M  V30 6687 C 636.031 -0.236966 1.72379 0
M  V30 6688 O 637.207 -0.0757329 2.01258 0
M  V30 6689 C 634.272 0.202316 3.46109 0
M  V30 6690 C 633.333 1.26205 4.1033 0
M  V30 6691 C 632.566 0.725648 5.28744 0
M  V30 6692 O 632.789 -0.447942 5.68638 0
M  V30 6693 O 631.723 1.48555 5.83279 0
M  V30 6694 H 635.549 1.67801 2.53133 0
M  V30 6695 H 633.134 0.879443 1.20773 0
M  V30 6696 H 635.016 -0.107918 4.21262 0
M  V30 6697 H 633.691 -0.683052 3.16411 0
M  V30 6698 H 632.598 1.62514 3.36957 0
M  V30 6699 H 633.931 2.12044 4.44183 0
M  V30 6700 N 635.583 -1.29855 0.893053 0
M  V30 6701 C 636.999 -1.48366 0.588199 0
M  V30 6702 C 637.199 -1.81654 -0.872018 0
M  V30 6703 O 636.255 -1.909 -1.65268 0
M  V30 6704 C 637.568 -2.60136 1.5083 0
M  V30 6705 C 639.116 -2.74014 1.51279 0
M  V30 6706 C 639.591 -3.88905 2.41902 0
M  V30 6707 N 641.082 -3.96228 2.39911 0
M  V30 6708 C 641.817 -4.84458 3.06738 0
M  V30 6709 N 641.313 -5.77426 3.8282 0
M  V30 6710 N 643.106 -4.77894 2.95929 0
M  V30 6711 H 635.257 -1.06522 1.83757 0
M  V30 6712 H 637.52 -0.528495 0.787018 0
M  V30 6713 H 637.226 -2.42383 2.54839 0
M  V30 6714 H 637.1 -3.56793 1.22388 0
M  V30 6715 H 639.487 -2.91167 0.480179 0
M  V30 6716 H 639.568 -1.77952 1.83757 0
M  V30 6717 H 639.212 -3.72508 3.45253 0
M  V30 6718 H 639.142 -4.84322 2.06737 0
M  V30 6719 H 641.633 -3.29728 1.84629 0
M  V30 6720 H 641.946 -6.41529 4.30883 0
M  V30 6721 H 640.291 -5.77332 3.86927 0
M  V30 6722 H 643.482 -4.04248 2.36012 0
M  V30 6723 H 643.655 -5.46444 3.48286 0
M  V30 6724 N 637.061 -0.65484 -1.43351 0
M  V30 6725 C 638.338 -0.0987371 -1.95351 0
M  V30 6726 C 638.718 1.38161 -1.59608 0
M  V30 6727 O 638.066 2.10791 -0.882021 0
M  V30 6728 C 638.276 -0.346684 -3.47274 0
M  V30 6729 C 639.624 -0.25249 -4.23849 0
M  V30 6730 O 640.648 -0.279332 -3.55103 0
M  V30 6731 O 639.507 -0.177584 -5.46211 0
M  V30 6732 H 636.601 0.0086829 -0.826954 0
M  V30 6733 H 639.147 -0.728189 -1.53282 0
M  V30 6734 H 637.919 -1.37296 -3.66423 0
M  V30 6735 H 637.542 0.315757 -3.96344 0
M  V30 6736 N 638.539 1.52521 -0.396863 0
M  V30 6737 C 639.469 2.29582 0.425941 0
M  V30 6738 C 640.45 1.33281 1.05689 0
M  V30 6739 O 641.635 1.62181 1.06823 0
M  V30 6740 C 638.765 3.10821 1.54943 0
M  V30 6741 C 637.719 4.15069 1.04413 0
M  V30 6742 C 637.045 4.84578 2.26028 0
M  V30 6743 C 638.345 5.22191 0.106767 0
M  V30 6744 H 640.039 2.98612 -0.217045 0
M  V30 6745 H 637.585 1.43611 -0.105826 0
M  V30 6746 H 639.538 3.63492 2.13193 0
M  V30 6747 H 638.262 2.39538 2.22011 0
M  V30 6748 H 636.921 3.63389 0.484118 0
M  V30 6749 H 636.569 4.09835 2.91623 0
M  V30 6750 H 636.269 5.55043 1.92876 0
M  V30 6751 H 637.793 5.40056 2.84906 0
M  V30 6752 H 639.207 5.70176 0.597685 0
M  V30 6753 H 637.604 5.99947 -0.135352 0
M  V30 6754 H 638.674 4.77531 -0.842134 0
M  V30 6755 N 640.017 0.126909 1.57088 0
M  V30 6756 C 640.947 -0.816847 2.18746 0
M  V30 6757 C 641.928 -1.27161 1.12979 0
M  V30 6758 O 643.113 -1.33279 1.41246 0
M  V30 6759 C 640.243 -2.06398 2.79315 0
M  V30 6760 C 639.197 -1.74673 3.90735 0
M  V30 6761 C 638.523 -3.06482 4.38147 0
M  V30 6762 C 639.823 -1.0089 5.12463 0
M  V30 6763 H 641.517 -0.303032 2.97863 0
M  V30 6764 H 639.063 -0.144314 1.43275 0
M  V30 6765 H 641.016 -2.72885 3.2111 0
M  V30 6766 H 639.74 -2.60118 1.975 0
M  V30 6767 H 638.399 -1.10572 3.49527 0
M  V30 6768 H 638.047 -3.58152 3.5318 0
M  V30 6769 H 637.747 -2.86025 5.13287 0
M  V30 6770 H 639.271 -3.74073 4.82599 0
M  V30 6771 H 640.685 -1.57546 5.51228 0
M  V30 6772 H 639.082 -0.905006 5.93237 0
M  V30 6773 H 640.152 0.00297335 4.849 0
M  V30 6774 N 641.495 -1.56914 -0.146875 0
M  V30 6775 C 642.442 -1.98275 -1.18134 0
M  V30 6776 C 643.412 -0.850367 -1.42681 0
M  V30 6777 O 644.597 -1.11244 -1.55014 0
M  V30 6778 C 641.737 -2.36861 -2.5098 0
M  V30 6779 C 640.85 -3.63391 -2.33605 0
M  V30 6780 C 639.985 -3.91079 -3.59486 0
M  V30 6781 C 639.024 -5.10879 -3.37149 0
M  V30 6782 N 638.161 -5.34577 -4.55161 0
M  V30 6783 H 643.001 -2.8645 -0.821622 0
M  V30 6784 H 640.538 -1.41718 -0.394248 0
M  V30 6785 H 642.496 -2.57262 -3.28439 0
M  V30 6786 H 641.126 -1.51766 -2.84898 0
M  V30 6787 H 640.178 -3.50766 -1.47199 0
M  V30 6788 H 641.49 -4.51007 -2.13059 0
M  V30 6789 H 640.644 -4.11979 -4.45374 0
M  V30 6790 H 639.383 -3.01885 -3.83036 0
M  V30 6791 H 638.388 -4.89853 -2.49649 0
M  V30 6792 H 639.613 -6.01626 -3.14997 0
M  V30 6793 H 637.559 -4.48337 -4.78884 0
M  V30 6794 H 637.476 -6.16463 -4.37618 0
M  V30 6795 H 638.744 -5.59975 -5.42263 0
M  V30 6796 N 642.974 0.416227 -1.52004 0
M  V30 6797 C 644.202 1.18573 -1.69553 0
M  V30 6798 C 644.617 1.84472 -0.401919 0
M  V30 6799 O 643.974 1.71593 0.621463 0
M  V30 6800 C 644.025 2.25413 -2.82615 0
M  V30 6801 O 643.746 1.62205 -4.06966 0
M  V30 6802 C 645.247 3.15297 -3.11613 0
M  V30 6803 H 642.467 0.356582 -0.56841 0
M  V30 6804 H 645.011 0.490618 -1.98528 0
M  V30 6805 H 643.166 2.90604 -2.56179 0
M  V30 6806 H 643.58 2.3298 -4.69916 0
M  V30 6807 H 645.054 3.86351 -3.94255 0
M  V30 6808 H 645.531 3.77264 -2.24874 0
M  V30 6809 H 646.137 2.55783 -3.39787 0
M  V30 6810 N 644.452 1.42507 0.673017 0
M  V30 6811 C 645.699 1.43072 1.43306 0
M  V30 6812 C 646.027 0.0478004 1.94441 0
M  V30 6813 O 645.282 -0.944106 1.71421 0
M  V30 6814 C 645.581 2.40351 2.64511 0
M  V30 6815 C 645.247 3.8669 2.31908 0
M  V30 6816 C 643.909 4.26551 2.22728 0
M  V30 6817 C 646.261 4.78991 2.05467 0
M  V30 6818 C 643.589 5.56691 1.85234 0
M  V30 6819 C 645.941 6.09476 1.69477 0
M  V30 6820 C 644.605 6.48334 1.58808 0
M  V30 6821 H 643.875 0.523536 0.524395 0
M  V30 6822 H 646.522 1.75459 0.76723 0
M  V30 6823 H 644.827 2.01297 3.36135 0
M  V30 6824 H 646.524 2.38051 3.22696 0
M  V30 6825 H 643.114 3.55132 2.39956 0
M  V30 6826 H 647.298 4.48982 2.11492 0
M  V30 6827 H 642.554 5.85657 1.75545 0
M  V30 6828 H 646.728 6.80482 1.48043 0
M  V30 6829 H 644.355 7.49084 1.29525 0
M  V30 6830 N 645.93 -0.909495 1.28709 0
M  V30 6831 C 646.877 -2.01245 1.13 0
M  V30 6832 C 647.847 -1.6608 0.0259684 0
M  V30 6833 O 649.032 -1.89835 0.191687 0
M  V30 6834 C 646.172 -3.35644 0.802315 0
M  V30 6835 C 645.285 -3.83653 1.98582 0
M  V30 6836 C 644.42 -5.06582 1.59837 0
M  V30 6837 C 643.459 -5.46934 2.74827 0
M  V30 6838 N 642.596 -6.61053 2.36546 0
M  V30 6839 H 647.436 -2.14013 2.0737 0
M  V30 6840 H 644.973 -1.0482 1.03205 0
M  V30 6841 H 646.931 -4.12963 0.593057 0
M  V30 6842 H 645.561 -3.22631 -0.104457 0
M  V30 6843 H 644.613 -3.02454 2.30708 0
M  V30 6844 H 645.925 -4.09515 2.84779 0
M  V30 6845 H 645.079 -5.91457 1.35143 0
M  V30 6846 H 643.818 -4.82537 0.707753 0
M  V30 6847 H 642.823 -4.60599 3.00215 0
M  V30 6848 H 644.048 -5.72965 3.64538 0
M  V30 6849 H 641.994 -6.3863 1.49959 0
M  V30 6850 H 641.911 -6.86662 3.16277 0
M  V30 6851 H 643.179 -7.49221 2.15146 0
M  V30 6852 N 647.408 -1.11026 -1.11852 0
M  V30 6853 C 648.657 -0.851249 -1.82857 0
M  V30 6854 C 648.97 0.62514 -1.85341 0
M  V30 6855 O 650.176 1.00026 -2.52403 0
M  V30 6856 C 648.632 -1.47309 -3.28372 0
M  V30 6857 C 648.24 -2.9832 -3.34229 0
M  V30 6858 C 649.984 -1.29373 -4.04306 0
M  V30 6859 C 647.891 -3.53509 -4.74115 0
M  V30 6860 H 646.821 -0.314794 -0.685143 0
M  V30 6861 H 649.472 -1.33499 -1.25898 0
M  V30 6862 H 647.854 -0.917017 -3.85236 0
M  V30 6863 H 649.028 -3.60295 -2.87271 0
M  V30 6864 H 647.343 -3.15482 -2.71772 0
M  V30 6865 H 649.94 -1.68042 -5.07608 0
M  V30 6866 H 650.283 -0.235879 -4.15631 0
M  V30 6867 H 650.816 -1.8182 -3.53817 0
M  V30 6868 H 647.555 -4.58987 -4.67986 0
M  V30 6869 H 647.075 -2.96305 -5.21501 0
M  V30 6870 H 648.754 -3.51693 -5.43066 0
M  V30 6871 N 648.886 1.2938 -0.899927 0
M  V30 6872 C 650.297 1.77644 -0.574427 0
M  V30 6873 C 650.648 1.73824 0.909928 0
M  V30 6874 O 649.773 1.32429 1.71147 0
M  V30 6875 C 650.368 3.22573 -1.03595 0
M  V30 6876 C 648.927 3.68614 -0.76161 0
M  V30 6877 C 648.074 2.49483 -1.21052 0
M  V30 6878 H 651.025 1.16038 -1.08263 0
M  V30 6879 H 651.046 3.78684 -0.371337 0
M  V30 6880 H 650.558 3.25321 -2.11631 0
M  V30 6881 H 648.659 3.7134 0.306127 0
M  V30 6882 H 648.772 4.59402 -1.35965 0
M  V30 6883 H 647.136 2.46798 -0.629515 0
M  V30 6884 H 647.919 2.54959 -2.29893 0
M  V30 6885 N 650.364 0.662433 1.43002 0
M  V30 6886 C 651.61 0.179857 2.02001 0
M  V30 6887 C 651.943 -1.20625 1.52195 0
M  V30 6888 O 651.218 -1.80726 0.718911 0
M  V30 6889 C 651.501 0.200845 3.59539 0
M  V30 6890 C 651.354 1.62153 4.19555 0
M  V30 6891 C 652.673 -0.457738 4.37713 0
M  V30 6892 H 649.792 0.0668305 0.733964 0
M  V30 6893 H 652.434 0.84487 1.70182 0
M  V30 6894 H 650.584 -0.365411 3.86778 0
M  V30 6895 H 652.256 2.23908 4.03315 0
M  V30 6896 H 650.499 2.16601 3.75854 0
M  V30 6897 H 651.17 1.58799 5.28665 0
M  V30 6898 H 653.646 0.0241495 4.16093 0
M  V30 6899 H 652.522 -0.412363 5.47349 0
M  V30 6900 H 652.783 -1.53336 4.14657 0
M  V30 6901 N 651.842 -1.52309 0.404946 0
M  V30 6902 C 653.119 -1.94237 -0.230544 0
M  V30 6903 C 653.499 -1.34154 -1.6299 0
M  V30 6904 O 652.847 -0.515713 -2.22604 0
M  V30 6905 C 653.057 -3.48166 -0.241106 0
M  V30 6906 C 654.405 -4.22074 -0.462488 0
M  V30 6907 O 655.429 -3.54754 -0.320644 0
M  V30 6908 O 654.288 -5.41443 -0.741708 0
M  V30 6909 H 651.382 -0.813766 -0.147358 0
M  V30 6910 H 653.928 -1.6333 0.460587 0
M  V30 6911 H 652.7 -3.84269 0.738467 0
M  V30 6912 H 652.323 -3.85422 -0.97651 0
M  V30 6913 N 653.32 -0.135238 -1.57019 0
M  V30 6914 C 654.548 0.526066 -2.001 0
M  V30 6915 C 654.963 1.59184 -1.01519 0
M  V30 6916 O 654.32 1.82497 -0.0104258 0
M  V30 6917 C 654.371 1.13744 -3.43139 0
M  V30 6918 O 654.092 0.114259 -4.37951 0
M  V30 6919 C 655.593 1.8805 -4.01438 0
M  V30 6920 H 652.813 0.137962 -0.656664 0
M  V30 6921 H 655.357 -0.226359 -2.03243 0
M  V30 6922 H 653.512 1.84056 -3.40885 0
M  V30 6923 H 653.926 0.56058 -5.21496 0
M  V30 6924 H 655.4 2.26133 -5.03555 0
M  V30 6925 H 655.877 2.76194 -3.41487 0
M  V30 6926 H 656.483 1.22464 -4.07287 0
M  V30 6927 N 654.798 1.5699 0.138552 0
M  V30 6928 C 655.728 2.01933 1.17241 0
M  V30 6929 C 656.709 0.90033 1.44319 0
M  V30 6930 O 657.894 1.16872 1.55095 0
M  V30 6931 C 655.024 2.40711 2.50351 0
M  V30 6932 C 653.978 3.55874 2.37776 0
M  V30 6933 C 653.304 3.80491 3.75674 0
M  V30 6934 C 654.604 4.8826 1.85472 0
M  V30 6935 H 656.298 2.88551 0.798672 0
M  V30 6936 H 653.844 1.3882 0.382743 0
M  V30 6937 H 655.797 2.70754 3.22909 0
M  V30 6938 H 654.521 1.5104 2.89576 0
M  V30 6939 H 653.18 3.2601 1.67669 0
M  V30 6940 H 652.828 2.88057 4.12349 0
M  V30 6941 H 652.528 4.57998 3.68119 0
M  V30 6942 H 654.052 4.12967 4.49767 0
M  V30 6943 H 655.466 5.16965 2.4783 0
M  V30 6944 H 653.863 5.69631 1.88787 0
M  V30 6945 H 654.933 4.78071 0.810935 0
M  V30 6946 N 656.276 -0.40816 1.52223 0
M  V30 6947 C 657.525 -1.15212 1.65557 0
M  V30 6948 C 657.838 -1.9163 0.392096 0
M  V30 6949 O 659.044 -2.68458 0.405256 0
M  V30 6950 C 657.5 -2.09691 2.92502 0
M  V30 6951 C 657.108 -1.38785 4.25961 0
M  V30 6952 C 658.852 -2.8434 3.152 0
M  V30 6953 C 656.759 -2.31919 5.44029 0
M  V30 6954 H 655.689 -0.433776 0.616729 0
M  V30 6955 H 658.34 -0.4165 1.78711 0
M  V30 6956 H 656.722 -2.8681 2.7305 0
M  V30 6957 H 657.896 -0.670248 4.55899 0
M  V30 6958 H 656.211 -0.761741 4.09373 0
M  V30 6959 H 658.808 -3.54166 4.00587 0
M  V30 6960 H 659.151 -3.47344 2.29473 0
M  V30 6961 H 659.684 -2.14321 3.35129 0
M  V30 6962 H 656.423 -1.7356 6.32105 0
M  V30 6963 H 655.943 -3.0165 5.18428 0
M  V30 6964 H 657.622 -2.92424 5.77146 0
M  V30 6965 N 657.755 -1.42862 -0.66545 0
M  V30 6966 C 658.983 -1.47246 -1.45349 0
M  V30 6967 C 659.398 -0.0865944 -1.88601 0
M  V30 6968 O 658.755 0.900652 -1.58728 0
M  V30 6969 C 658.806 -2.40772 -2.6965 0
M  V30 6970 O 658.527 -3.73968 -2.2821 0
M  V30 6971 C 660.028 -2.54272 -3.63126 0
M  V30 6972 H 657.248 -0.500497 -0.446927 0
M  V30 6973 H 659.792 -1.87477 -0.816871 0
M  V30 6974 H 657.947 -2.0377 -3.29479 0
M  V30 6975 H 658.361 -4.24146 -3.08546 0
M  V30 6976 H 659.835 -3.23815 -4.47043 0
M  V30 6977 H 660.312 -1.58364 -4.09656 0
M  V30 6978 H 660.918 -2.92036 -3.09185 0
M  V30 6979 N 659.233 0.902656 -1.29189 0
M  V30 6980 C 660.463 1.68394 -1.19695 0
M  V30 6981 C 660.871 1.87602 0.245384 0
M  V30 6982 O 660.214 1.41084 1.17648 0
M  V30 6983 C 660.276 3.09094 -1.83578 0
M  V30 6984 C 659.94 3.1313 -3.32864 0
M  V30 6985 C 660.937 2.93497 -4.29134 0
M  V30 6986 C 658.622 3.3529 -3.74013 0
M  V30 6987 C 660.616 2.95953 -5.64527 0
M  V30 6988 C 658.303 3.37377 -5.09529 0
M  V30 6989 C 659.301 3.1773 -6.04596 0
M  V30 6990 O 658.989 3.196 -7.37639 0
M  V30 6991 H 658.721 0.532815 -0.416034 0
M  V30 6992 H 661.275 1.1374 -1.71033 0
M  V30 6993 H 659.505 3.65338 -1.26747 0
M  V30 6994 H 661.194 3.69297 -1.68447 0
M  V30 6995 H 661.96 2.76192 -3.98677 0
M  V30 6996 H 657.839 3.49623 -3.00474 0
M  V30 6997 H 661.383 2.80536 -6.38706 0
M  V30 6998 H 657.28 3.54213 -5.39633 0
M  V30 6999 H 658.048 3.35887 -7.46406 0
M  V30 7000 N 660.711 1.11618 1.11262 0
M  V30 7001 C 661.641 0.79846 2.19424 0
M  V30 7002 C 662.622 -0.234003 1.68483 0
M  V30 7003 O 663.807 -0.0970704 1.93957 0
M  V30 7004 C 660.937 0.242892 3.4645 0
M  V30 7005 C 659.891 1.20744 4.10615 0
M  V30 7006 C 659.217 0.512494 5.32238 0
M  V30 7007 C 660.517 2.55884 4.55325 0
M  V30 7008 H 662.211 1.70286 2.46258 0
M  V30 7009 H 659.757 0.820195 1.18359 0
M  V30 7010 H 661.71 0.00840447 4.21399 0
M  V30 7011 H 660.434 -0.696811 3.1908 0
M  V30 7012 H 659.093 1.42759 3.37662 0
M  V30 7013 H 658.741 -0.432075 5.01141 0
M  V30 7014 H 658.441 1.15583 5.7612 0
M  V30 7015 H 659.965 0.286842 6.09926 0
M  V30 7016 H 661.379 2.37946 5.21588 0
M  V30 7017 H 659.776 3.16216 5.10027 0
M  V30 7018 H 660.846 3.14968 3.68678 0
M  V30 7019 N 662.189 -1.289 0.906776 0
M  V30 7020 C 663.122 -2.25737 0.334362 0
M  V30 7021 C 664.1 -1.52745 -0.557474 0
M  V30 7022 O 665.284 -1.81673 -0.502697 0
M  V30 7023 C 662.411 -3.34642 -0.522716 0
M  V30 7024 C 661.457 -4.25424 0.302777 0
M  V30 7025 S 662.29 -5.07629 1.70508 0
M  V30 7026 C 663.446 -6.20031 0.855118 0
M  V30 7027 H 663.679 -2.73941 1.15514 0
M  V30 7028 H 661.212 -1.37233 0.707573 0
M  V30 7029 H 663.17 -3.97845 -1.01141 0
M  V30 7030 H 661.831 -2.85119 -1.31781 0
M  V30 7031 H 661.024 -5.02767 -0.352257 0
M  V30 7032 H 660.626 -3.66908 0.724873 0
M  V30 7033 H 662.918 -6.77451 0.0816418 0
M  V30 7034 H 663.861 -6.89767 1.60087 0
M  V30 7035 H 664.269 -5.63035 0.406375 0
M  V30 7036 N 663.667 -0.670007 -1.42649 0
M  V30 7037 C 664.895 -0.19854 -2.05945 0
M  V30 7038 C 665.31 1.14243 -1.50313 0
M  V30 7039 O 664.667 1.70872 -0.641027 0
M  V30 7040 C 664.718 -0.11966 -3.61302 0
M  V30 7041 O 664.439 -1.40764 -4.1487 0
M  V30 7042 C 665.94 0.375878 -4.41704 0
M  V30 7043 H 663.16 -0.0976894 -0.663851 0
M  V30 7044 H 665.704 -0.915392 -1.82868 0
M  V30 7045 H 663.859 0.547851 -3.83507 0
M  V30 7046 H 664.273 -1.27784 -5.08696 0
M  V30 7047 H 665.747 0.379988 -5.50691 0
M  V30 7048 H 666.224 1.41028 -4.15942 0
M  V30 7049 H 666.83 -0.259727 -4.24506 0
M  V30 7050 N 665.145 1.52092 -0.413018 0
M  V30 7051 C 666.075 2.30021 0.401567 0
M  V30 7052 C 667.056 1.34395 1.04269 0
M  V30 7053 O 668.241 1.63304 1.05097 0
M  V30 7054 C 665.371 3.12447 1.51638 0
M  V30 7055 C 664.325 4.16153 1.00005 0
M  V30 7056 C 663.651 4.86948 2.20875 0
M  V30 7057 C 664.951 5.22275 0.0513757 0
M  V30 7058 H 666.645 2.98365 -0.248704 0
M  V30 7059 H 664.191 1.4349 -0.121052 0
M  V30 7060 H 666.144 3.65733 2.09326 0
M  V30 7061 H 664.868 2.41879 2.19458 0
M  V30 7062 H 663.527 3.63882 0.445549 0
M  V30 7063 H 663.175 4.12905 2.8726 0
M  V30 7064 H 662.875 5.57057 1.86978 0
M  V30 7065 H 664.399 5.43048 2.79162 0
M  V30 7066 H 665.813 5.70778 0.537176 0
M  V30 7067 H 664.21 5.9977 -0.198977 0
M  V30 7068 H 665.28 4.76611 -0.892736 0
M  V30 7069 N 666.623 0.143563 1.56945 0
M  V30 7070 C 667.533 -0.810562 2.20152 0
M  V30 7071 C 668.549 -1.27431 1.1848 0
M  V30 7072 O 669.725 -1.33221 1.51044 0
M  V30 7073 C 666.79 -2.03353 2.80799 0
M  V30 7074 C 665.851 -1.61936 3.97587 0
M  V30 7075 C 665.084 -2.78403 4.55332 0
M  V30 7076 O 665.307 -3.94521 4.11958 0
M  V30 7077 O 664.241 -2.54073 5.45647 0
M  V30 7078 H 668.067 -0.30253 3.02189 0
M  V30 7079 H 665.652 -0.0832925 1.49168 0
M  V30 7080 H 667.534 -2.74932 3.19359 0
M  V30 7081 H 666.209 -2.53116 2.01777 0
M  V30 7082 H 665.116 -0.873904 3.6375 0
M  V30 7083 H 666.449 -1.16892 4.78118 0
M  V30 7084 N 668.101 -1.57061 -0.130224 0
M  V30 7085 C 669.378 -1.75205 -0.869631 0
M  V30 7086 C 669.758 -0.716063 -1.98584 0
M  V30 7087 O 669.106 0.262032 -2.26993 0
M  V30 7088 C 669.316 -3.19835 -1.39666 0
M  V30 7089 C 670.664 -3.82011 -1.85345 0
M  V30 7090 O 671.688 -3.23368 -1.49371 0
M  V30 7091 O 670.547 -4.85064 -2.51744 0
M  V30 7092 H 667.641 -0.716977 -0.412157 0
M  V30 7093 H 670.187 -1.69311 -0.11484 0
M  V30 7094 H 668.959 -3.86745 -0.595288 0
M  V30 7095 H 668.582 -3.30222 -2.21448 0
M  V30 7096 N 669.579 0.400081 -1.52437 0
M  V30 7097 C 670.529 1.48734 -1.72807 0
M  V30 7098 C 671.513 1.50004 -0.582032 0
M  V30 7099 O 672.705 1.55828 -0.839449 0
M  V30 7100 C 669.834 2.86568 -1.89034 0
M  V30 7101 C 668.92 2.8991 -3.09537 0
M  V30 7102 N 669.311 2.62937 -4.32086 0
M  V30 7103 C 667.609 3.21078 -3.09556 0
M  V30 7104 C 668.31 2.73079 -5.13617 0
M  V30 7105 N 667.286 3.06342 -4.49061 0
M  V30 7106 H 671.088 1.26689 -2.65193 0
M  V30 7107 H 668.602 0.607902 -1.50593 0
M  V30 7108 H 670.599 3.64834 -2.01746 0
M  V30 7109 H 669.259 3.09604 -0.978547 0
M  V30 7110 H 670.27 2.37163 -4.60406 0
M  V30 7111 H 666.947 3.49651 -2.28146 0
M  V30 7112 H 668.337 2.55863 -6.21276 0
M  V30 7113 N 671.057 1.43213 0.657864 0
M  V30 7114 C 672.287 1.478 1.44356 0
M  V30 7115 C 672.695 0.0930206 1.88971 0
M  V30 7116 O 672.038 -0.906089 1.59799 0
M  V30 7117 C 672.1 2.35745 2.71412 0
M  V30 7118 C 671.764 3.83359 2.48767 0
M  V30 7119 C 672.761 4.74585 2.12285 0
M  V30 7120 C 670.446 4.27799 2.63235 0
M  V30 7121 C 672.44 6.08247 1.90562 0
M  V30 7122 C 670.127 5.61516 2.41128 0
M  V30 7123 C 671.125 6.51557 2.04847 0
M  V30 7124 O 670.813 7.82802 1.82967 0
M  V30 7125 H 670.545 0.504363 0.450104 0
M  V30 7126 H 673.099 1.88572 0.814241 0
M  V30 7127 H 671.329 1.89852 3.36887 0
M  V30 7128 H 673.018 2.31589 3.33348 0
M  V30 7129 H 673.784 4.41531 2.00687 0
M  V30 7130 H 669.663 3.57993 2.90451 0
M  V30 7131 H 673.207 6.78489 1.62168 0
M  V30 7132 H 669.104 5.94139 2.52327 0
M  V30 7133 H 669.872 7.94332 1.97429 0
M  V30 7134 N 672.536 -0.895792 1.29666 0
M  V30 7135 C 673.486 -1.98736 1.1175 0
M  V30 7136 C 674.47 -1.6086 0.0357834 0
M  V30 7137 O 675.662 -1.75111 0.257926 0
M  V30 7138 C 672.791 -3.33845 0.800156 0
M  V30 7139 C 671.877 -3.78068 1.9216 0
M  V30 7140 N 672.268 -3.94489 3.16563 0
M  V30 7141 C 670.566 -4.07376 1.81552 0
M  V30 7142 C 671.267 -4.31819 3.89753 0
M  V30 7143 N 670.243 -4.41081 3.17724 0
M  V30 7144 H 674.045 -2.09507 2.06117 0
M  V30 7145 H 671.559 -1.08488 1.20848 0
M  V30 7146 H 673.556 -4.11757 0.652841 0
M  V30 7147 H 672.216 -3.24417 -0.135551 0
M  V30 7148 H 673.227 -3.79914 3.51974 0
M  V30 7149 H 669.904 -4.06483 0.952787 0
M  V30 7150 H 671.294 -4.52337 4.96831 0
M  V30 7151 N 674.014 -1.12206 -1.10668 0
M  V30 7152 C 674.977 -0.790867 -2.15123 0
M  V30 7153 C 675.977 0.193618 -1.5963 0
M  V30 7154 O 677.167 -0.0318728 -1.74171 0
M  V30 7155 C 674.299 -0.174797 -3.40452 0
M  V30 7156 H 675.492 -1.7163 -2.45933 0
M  V30 7157 H 673.045 -0.924993 -1.2599 0
M  V30 7158 H 673.78 0.760478 -3.15257 0
M  V30 7159 H 673.565 -0.88358 -3.82015 0
M  V30 7160 H 675.055 0.0405162 -4.1758 0
M  V30 7161 N 675.492 1.28418 -0.913599 0
M  V30 7162 C 676.769 1.89977 -0.465619 0
M  V30 7163 C 677.149 1.82813 1.05559 0
M  V30 7164 O 676.497 1.26397 1.90358 0
M  V30 7165 C 676.707 3.34492 -0.995813 0
M  V30 7166 C 678.055 4.11468 -1.04782 0
M  V30 7167 O 679.079 3.43451 -0.944445 0
M  V30 7168 O 677.938 5.33046 -1.20518 0
M  V30 7169 H 675.032 0.813734 -0.147532 0
M  V30 7170 H 677.578 1.36786 -1.00437 0
M  V30 7171 H 676.35 3.33929 -2.03978 0
M  V30 7172 H 675.973 3.95181 -0.437878 0
M  V30 7173 N 676.97 0.677563 1.42291 0
M  V30 7174 C 678.216 0.201272 2.01799 0
M  V30 7175 C 678.549 -1.19004 1.53465 0
M  V30 7176 O 677.824 -1.79953 0.738039 0
M  V30 7177 C 678.107 0.238968 3.59306 0
M  V30 7178 C 677.96 1.66594 4.17812 0
M  V30 7179 C 679.279 -0.411287 4.38174 0
M  V30 7180 H 676.398 0.0746114 0.733214 0
M  V30 7181 H 679.04 0.862872 1.69276 0
M  V30 7182 H 677.19 -0.324368 3.87144 0
M  V30 7183 H 678.862 2.28173 4.00917 0
M  V30 7184 H 677.105 2.20576 3.73536 0
M  V30 7185 H 677.776 1.64398 5.26951 0
M  V30 7186 H 680.252 0.0682804 4.16044 0
M  V30 7187 H 679.128 -0.354286 5.47755 0
M  V30 7188 H 679.389 -1.4893 4.1626 0
M  V30 7189 N 678.448 -1.51871 0.421078 0
M  V30 7190 C 679.411 -2.25914 -0.386712 0
M  V30 7191 C 680.411 -1.28733 -0.963555 0
M  V30 7192 O 681.601 -1.52579 -0.840556 0
M  V30 7193 C 678.733 -3.03853 -1.54551 0
M  V30 7194 H 679.926 -2.98754 0.261978 0
M  V30 7195 H 677.479 -1.5533 0.173862 0
M  V30 7196 H 678.214 -2.35392 -2.23072 0
M  V30 7197 H 677.999 -3.75215 -1.13824 0
M  V30 7198 H 679.489 -3.59984 -2.11663 0
M  V30 7199 N 679.926 -0.151884 -1.56866 0
M  V30 7200 C 681.156 0.504081 -2.00356 0
M  V30 7201 C 681.564 1.58639 -1.03103 0
M  V30 7202 O 680.907 1.83688 -0.0207931 0
M  V30 7203 C 680.969 1.15975 -3.40279 0
M  V30 7204 C 680.633 0.221453 -4.56463 0
M  V30 7205 C 681.63 -0.552766 -5.16953 0
M  V30 7206 C 679.315 0.122936 -5.0215 0
M  V30 7207 C 681.309 -1.4129 -6.21543 0
M  V30 7208 C 678.996 -0.740801 -6.06593 0
M  V30 7209 C 679.994 -1.50732 -6.6616 0
M  V30 7210 O 679.682 -2.35666 -7.68581 0
M  V30 7211 H 679.414 0.135279 -0.662326 0
M  V30 7212 H 681.968 -0.244916 -2.03935 0
M  V30 7213 H 680.198 1.95649 -3.33554 0
M  V30 7214 H 681.887 1.71594 -3.67846 0
M  V30 7215 H 682.653 -0.486716 -4.82552 0
M  V30 7216 H 678.532 0.70931 -4.5551 0
M  V30 7217 H 682.076 -2.01166 -6.67966 0
M  V30 7218 H 677.973 -0.808125 -6.40421 0
M  V30 7219 H 678.741 -2.28967 -7.85822 0
M  V30 7220 N 681.404 1.57128 0.121893 0
M  V30 7221 C 682.354 1.96556 1.15541 0
M  V30 7222 C 683.338 0.840147 1.37224 0
M  V30 7223 O 684.53 1.10382 1.38365 0
M  V30 7224 C 681.659 2.37097 2.48274 0
M  V30 7225 C 680.745 3.56265 2.30078 0
M  V30 7226 N 681.136 4.72041 1.81688 0
M  V30 7227 C 679.434 3.61841 2.60744 0
M  V30 7228 C 680.135 5.54075 1.77132 0
M  V30 7229 N 679.111 4.96483 2.21371 0
M  V30 7230 H 682.913 2.83531 0.77378 0
M  V30 7231 H 680.427 1.59019 0.329672 0
M  V30 7232 H 682.424 2.6356 3.2302 0
M  V30 7233 H 681.084 1.51486 2.87197 0
M  V30 7234 H 682.095 4.95313 1.51278 0
M  V30 7235 H 678.772 2.8683 3.03373 0
M  V30 7236 H 680.162 6.56939 1.40998 0
M  V30 7237 N 682.882 -0.391992 1.52647 0
M  V30 7238 C 683.83 -1.4991 1.77848 0
M  V30 7239 C 684.824 -1.56587 0.646282 0
M  V30 7240 O 686.03 -1.59789 0.828698 0
M  V30 7241 H 682.405 -0.498883 0.56269 0
M  V30 7242 H 684.376 -1.25847 2.70564 0
M  V30 7243 C 683.125 -2.87081 1.96163 0
M  V30 7244 H 682.448 -2.82692 2.82711 0
M  V30 7245 H 683.888 -3.63792 2.17787 0
M  V30 7246 C 682.347 -3.28822 0.733348 0
M  V30 7247 O 682.877 -4.01598 -0.0906481 0
M  V30 7248 N 681.083 -2.85068 0.564317 0
M  V30 7249 H 680.63 -2.26012 1.23598 0
M  V30 7250 H 680.588 -3.13355 -0.256166 0
M  V30 7251 N 684.36 -1.4356 -0.65026 0
M  V30 7252 C 685.308 -1.49219 -1.78427 0
M  V30 7253 C 686.302 -0.365528 -1.65409 0
M  V30 7254 O 687.508 -0.539649 -1.7172 0
M  V30 7255 H 683.883 -0.467858 -0.588738 0
M  V30 7256 H 685.854 -2.44701 -1.70774 0
M  V30 7257 C 684.603 -1.43519 -3.16698 0
M  V30 7258 H 683.926 -2.2952 -3.27354 0
M  V30 7259 H 685.366 -1.5154 -3.95995 0
M  V30 7260 C 683.825 -0.153197 -3.36552 0
M  V30 7261 O 684.355 0.784317 -3.93969 0
M  V30 7262 N 682.561 -0.0624402 -2.90533 0
M  V30 7263 H 682.108 -0.826172 -2.43992 0
M  V30 7264 H 682.066 0.794616 -3.04193 0
M  V30 7265 N 685.838 0.888903 -1.30139 0
M  V30 7266 C 687.087 1.63507 -1.18103 0
M  V30 7267 C 687.4 1.93808 0.264141 0
M  V30 7268 O 688.606 2.66744 0.505966 0
M  V30 7269 C 687.062 2.94673 -2.0663 0
M  V30 7270 C 686.67 2.71926 -3.56034 0
M  V30 7271 C 688.414 3.72626 -2.03346 0
M  V30 7272 C 686.321 3.98884 -4.3663 0
M  V30 7273 H 685.251 0.613426 -0.438435 0
M  V30 7274 H 687.902 0.984427 -1.54859 0
M  V30 7275 H 686.284 3.61009 -1.62754 0
M  V30 7276 H 687.458 2.14116 -4.08033 0
M  V30 7277 H 685.773 2.07353 -3.61101 0
M  V30 7278 H 688.37 4.66775 -2.60816 0
M  V30 7279 H 688.713 4.03712 -1.016 0
M  V30 7280 H 689.246 3.13147 -2.45324 0
M  V30 7281 H 685.985 3.72959 -5.39056 0
M  V30 7282 H 685.505 4.56214 -3.89396 0
M  V30 7283 H 687.184 4.66938 -4.47859 0
M  V30 7284 N 687.317 1.12792 1.10072 0
M  V30 7285 C 688.267 0.768086 2.14673 0
M  V30 7286 C 689.251 -0.234716 1.59179 0
M  V30 7287 O 690.443 -0.039643 1.76956 0
M  V30 7288 C 687.572 0.228472 3.42539 0
M  V30 7289 C 686.658 1.25979 4.04957 0
M  V30 7290 N 687.049 2.4586 4.42025 0
M  V30 7291 C 685.347 1.10602 4.32069 0
M  V30 7292 C 686.048 3.11747 4.9111 0
M  V30 7293 N 685.024 2.39185 4.88151 0
M  V30 7294 H 688.826 1.68029 2.4113 0
M  V30 7295 H 686.34 1.00925 1.27232 0
M  V30 7296 H 688.337 -0.0475216 4.16873 0
M  V30 7297 H 686.997 -0.678136 3.1754 0
M  V30 7298 H 688.008 2.83215 4.33601 0
M  V30 7299 H 684.685 0.257021 4.16708 0
M  V30 7300 H 686.075 4.13862 5.29309 0
M  V30 7301 N 688.795 -1.27931 0.920396 0
M  V30 7302 C 689.758 -2.25345 0.41858 0
M  V30 7303 C 690.758 -1.54116 -0.458798 0
M  V30 7304 O 691.948 -1.72235 -0.260912 0
M  V30 7305 C 689.08 -3.38556 -0.399104 0
M  V30 7306 H 690.273 -2.71251 1.27918 0
M  V30 7307 H 687.826 -1.39728 0.700406 0
M  V30 7308 H 688.561 -2.98021 -1.27882 0
M  V30 7309 H 688.346 -3.91426 0.229863 0
M  V30 7310 H 689.836 -4.10976 -0.740817 0
M  V30 7311 N 690.273 -0.685099 -1.4193 0
M  V30 7312 C 691.236 -0.0222632 -2.29189 0
M  V30 7313 C 692.236 0.7186 -1.4385 0
M  V30 7314 O 693.426 0.555058 -1.6512 0
M  V30 7315 C 690.558 0.979013 -3.2654 0
M  V30 7316 H 691.751 -0.790424 -2.89296 0
M  V30 7317 H 689.304 -0.448012 -1.49742 0
M  V30 7318 H 690.039 1.77531 -2.71392 0
M  V30 7319 H 689.824 0.451037 -3.89497 0
M  V30 7320 H 691.314 1.44091 -3.91954 0
M  V30 7321 N 691.751 1.51645 -0.429126 0
M  V30 7322 C 693.028 1.94579 0.199614 0
M  V30 7323 C 693.408 1.3673 1.60836 0
M  V30 7324 O 692.756 0.551062 2.21756 0
M  V30 7325 C 692.966 3.48506 0.185685 0
M  V30 7326 C 694.314 4.22756 0.395282 0
M  V30 7327 O 695.338 3.55219 0.264165 0
M  V30 7328 O 694.197 5.42555 0.655475 0
M  V30 7329 H 691.291 0.816007 0.134393 0
M  V30 7330 H 693.837 1.62577 -0.486513 0
M  V30 7331 H 692.609 3.83045 -0.799508 0
M  V30 7332 H 692.232 3.86927 0.91507 0
M  V30 7333 N 693.229 0.160201 1.56784 0
M  V30 7334 C 694.475 -0.48831 1.96833 0
M  V30 7335 C 694.808 -1.63641 1.04571 0
M  V30 7336 O 694.083 -1.94289 0.0906481 0
M  V30 7337 C 694.366 -0.981908 3.46454 0
M  V30 7338 C 694.219 0.165607 4.49495 0
M  V30 7339 C 695.538 -1.85931 3.98896 0
M  V30 7340 H 692.657 -0.176027 0.71567 0
M  V30 7341 H 695.299 0.244093 1.88426 0
M  V30 7342 H 693.449 -1.60602 3.5375 0
M  V30 7343 H 695.121 0.802372 4.54268 0
M  V30 7344 H 693.364 0.822789 4.25926 0
M  V30 7345 H 694.035 -0.221699 5.51555 0
M  V30 7346 H 696.511 -1.33327 3.94161 0
M  V30 7347 H 695.387 -2.17373 5.04024 0
M  V30 7348 H 695.648 -2.80106 3.42042 0
M  V30 7349 N 694.707 -1.5719 -0.113559 0
M  V30 7350 C 695.953 -1.85412 -0.821597 0
M  V30 7351 C 696.286 -0.746722 -1.7927 0
M  V30 7352 O 695.561 0.246971 -1.92926 0
M  V30 7353 C 695.844 -3.24233 -1.56669 0
M  V30 7354 C 695.697 -4.45578 -0.614823 0
M  V30 7355 C 697.016 -3.60697 -2.52161 0
M  V30 7356 H 694.135 -0.674406 -0.29723 0
M  V30 7357 H 696.777 -1.89807 -0.085694 0
M  V30 7358 H 694.927 -3.20617 -2.19401 0
M  V30 7359 H 696.599 -4.613 0.00407137 0
M  V30 7360 H 694.842 -4.33738 0.0732332 0
M  V30 7361 H 695.513 -5.39395 -1.17292 0
M  V30 7362 H 697.989 -3.65139 -1.99532 0
M  V30 7363 H 696.865 -4.58798 -3.01323 0
M  V30 7364 H 697.126 -2.88403 -3.35076 0
M  V30 7365 N 696.185 0.383891 -1.52853 0
M  V30 7366 C 697.117 1.48889 -1.74255 0
M  V30 7367 C 698.13 1.50405 -0.623063 0
M  V30 7368 O 699.319 1.54215 -0.898887 0
M  V30 7369 C 696.419 2.87721 -1.79081 0
M  V30 7370 C 695.592 3.10111 -3.08464 0
M  V30 7371 C 694.651 4.28954 -3.0477 0
M  V30 7372 O 693.677 4.25012 -3.78621 0
M  V30 7373 N 694.879 5.35411 -2.24311 0
M  V30 7374 H 697.644 1.30915 -2.69595 0
M  V30 7375 H 695.205 0.573454 -1.51404 0
M  V30 7376 H 697.197 3.65333 -1.7411 0
M  V30 7377 H 695.767 2.99029 -0.911052 0
M  V30 7378 H 694.987 2.20319 -3.26884 0
M  V30 7379 H 696.275 3.21928 -3.94005 0
M  V30 7380 H 695.673 5.41471 -1.63787 0
M  V30 7381 H 694.23 6.1167 -2.25175 0
M  V30 7382 N 697.663 1.43903 0.642637 0
M  V30 7383 C 698.888 1.49758 1.43483 0
M  V30 7384 C 699.313 0.119911 1.87717 0
M  V30 7385 O 698.671 -0.888558 1.58033 0
M  V30 7386 C 698.719 2.45744 2.63898 0
M  V30 7387 O 697.823 1.95101 3.63331 0
M  V30 7388 H 697.164 0.506138 0.429791 0
M  V30 7389 H 699.694 1.88923 0.785438 0
M  V30 7390 H 699.704 2.63399 3.11584 0
M  V30 7391 H 698.379 3.45818 2.31046 0
M  V30 7392 H 696.956 1.87158 3.22531 0
M  V30 7393 N 699.141 -0.881989 1.30609 0
M  V30 7394 C 700.369 -1.66711 1.22536 0
M  V30 7395 C 700.784 -1.87614 -0.2113 0
M  V30 7396 O 700.141 -1.42576 -1.13923 0
M  V30 7397 C 700.192 -3.04182 1.95335 0
M  V30 7398 O 699.913 -2.8422 3.33393 0
M  V30 7399 C 701.414 -3.98617 1.93956 0
M  V30 7400 H 698.634 -0.520124 0.423925 0
M  V30 7401 H 701.178 -1.10174 1.72285 0
M  V30 7402 H 699.333 -3.57442 1.49378 0
M  V30 7403 H 699.747 -3.71452 3.70302 0
M  V30 7404 H 701.221 -4.92433 2.49426 0
M  V30 7405 H 701.698 -4.29473 0.919198 0
M  V30 7406 H 702.304 -3.51292 2.39738 0
M  V30 7407 N 700.619 -1.13374 -1.09472 0
M  V30 7408 C 701.569 -0.77946 -2.14263 0
M  V30 7409 C 702.553 0.226271 -1.59301 0
M  V30 7410 O 703.745 0.0302581 -1.76974 0
M  V30 7411 C 700.874 -0.246635 -3.42413 0
M  V30 7412 C 699.96 -1.28124 -4.04283 0
M  V30 7413 N 700.351 -2.48201 -4.40715 0
M  V30 7414 C 698.649 -1.12892 -4.31476 0
M  V30 7415 C 699.35 -3.14347 -4.8945 0
M  V30 7416 N 698.326 -2.41771 -4.86876 0
M  V30 7417 H 702.128 -1.69305 -2.40235 0
M  V30 7418 H 699.642 -1.01598 -1.26695 0
M  V30 7419 H 701.639 0.0254131 -4.16892 0
M  V30 7420 H 700.299 0.661287 -3.17895 0
M  V30 7421 H 701.31 -2.85511 -4.32093 0
M  V30 7422 H 697.987 -0.279117 -4.16566 0
M  V30 7423 H 699.377 -4.16663 -5.27107 0
M  V30 7424 N 702.098 1.27442 -0.927168 0
M  V30 7425 C 703.344 1.94679 -0.568164 0
M  V30 7426 C 703.677 1.72697 0.888219 0
M  V30 7427 O 702.952 1.05573 1.63354 0
M  V30 7428 C 703.235 3.4882 -0.894253 0
M  V30 7429 C 703.088 3.80146 -2.40435 0
M  V30 7430 C 704.407 4.38281 -0.399766 0
M  V30 7431 H 701.526 0.707071 -0.207892 0
M  V30 7432 H 704.168 1.50568 -1.15885 0
M  V30 7433 H 702.318 3.86522 -0.391566 0
M  V30 7434 H 703.99 3.52238 -2.97869 0
M  V30 7435 H 702.233 3.26716 -2.85375 0
M  V30 7436 H 702.904 4.87835 -2.58304 0
M  V30 7437 H 705.38 4.07726 -0.83058 0
M  V30 7438 H 704.256 5.44955 -0.656885 0
M  V30 7439 H 704.517 4.36521 0.700153 0
M  V30 7440 N 703.576 0.692616 1.41565 0
M  V30 7441 C 704.506 0.0397325 2.33466 0
M  V30 7442 C 705.487 -0.770334 1.51657 0
M  V30 7443 O 706.672 -0.723903 1.80203 0
M  V30 7444 C 703.802 -0.899495 3.3545 0
M  V30 7445 C 702.756 -0.196738 4.27548 0
M  V30 7446 C 702.082 -1.25012 5.19881 0
M  V30 7447 C 703.382 0.935158 5.1386 0
M  V30 7448 H 705.076 0.807296 2.88311 0
M  V30 7449 H 702.622 0.389665 1.38628 0
M  V30 7450 H 704.575 -1.36545 3.98665 0
M  V30 7451 H 703.299 -1.69869 2.78948 0
M  V30 7452 H 701.958 0.249158 3.65752 0
M  V30 7453 H 701.606 -2.04177 4.59696 0
M  V30 7454 H 701.306 -0.784931 5.82334 0
M  V30 7455 H 702.83 -1.71665 5.85972 0
M  V30 7456 H 704.244 0.549619 5.70659 0
M  V30 7457 H 702.641 1.32726 5.85238 0
M  V30 7458 H 703.711 1.77613 4.512 0
M  V30 7459 N 705.054 -1.51416 0.437162 0
M  V30 7460 C 705.984 -2.30631 -0.364922 0
M  V30 7461 C 706.965 -1.36037 -1.02118 0
M  V30 7462 O 708.15 -1.64956 -1.02485 0
M  V30 7463 C 705.28 -3.1482 -1.46648 0
M  V30 7464 C 704.234 -4.17691 -0.933717 0
M  V30 7465 C 703.56 -4.904 -2.13101 0
M  V30 7466 C 704.86 -5.2229 0.0317201 0
M  V30 7467 H 706.554 -2.97932 0.29614 0
M  V30 7468 H 704.1 -1.4328 0.143865 0
M  V30 7469 H 706.053 -3.69017 -2.03481 0
M  V30 7470 H 704.777 -2.4534 -2.15583 0
M  V30 7471 H 703.436 -3.64545 -0.387602 0
M  V30 7472 H 703.084 -4.17423 -2.80654 0
M  V30 7473 H 702.784 -5.59962 -1.78092 0
M  V30 7474 H 704.308 -5.4742 -2.70487 0
M  V30 7475 H 705.722 -5.7156 -0.446302 0
M  V30 7476 H 704.119 -5.99378 0.29437 0
M  V30 7477 H 705.189 -4.75131 0.968447 0
M  V30 7478 N 706.532 -0.168513 -1.56696 0
M  V30 7479 C 707.757 0.486688 -2.01609 0
M  V30 7480 C 708.182 1.56203 -1.04796 0
M  V30 7481 O 707.54 1.8128 -0.0270596 0
M  V30 7482 C 707.588 1.04451 -3.45141 0
M  V30 7483 O 706.692 2.15862 -3.51393 0
M  V30 7484 H 706.033 0.116831 -0.653641 0
M  V30 7485 H 708.563 -0.271579 -2.0279 0
M  V30 7486 H 708.573 1.36782 -3.84389 0
M  V30 7487 H 707.248 0.257155 -4.15104 0
M  V30 7488 H 705.825 1.84597 -3.24004 0
M  V30 7489 N 708.01 1.57248 0.105221 0
M  V30 7490 C 709.238 1.89768 0.82437 0
M  V30 7491 C 709.653 0.761192 1.72775 0
M  V30 7492 O 709.01 -0.267342 1.80531 0
M  V30 7493 C 709.061 3.2184 1.64625 0
M  V30 7494 O 708.782 4.31115 0.779217 0
M  V30 7495 C 710.283 3.68155 2.46935 0
M  V30 7496 H 707.503 0.628031 0.236259 0
M  V30 7497 H 710.047 2.04321 0.085485 0
M  V30 7498 H 708.202 3.08915 2.33775 0
M  V30 7499 H 708.616 5.06897 1.34745 0
M  V30 7500 H 710.09 4.6329 3.00111 0
M  V30 7501 H 710.567 2.95492 3.24932 0
M  V30 7502 H 711.173 3.83914 1.83002 0
M  V30 7503 N 709.488 -0.375779 1.53054 0
M  V30 7504 C 710.899 -0.95309 1.6054 0
M  V30 7505 C 711.25 -1.90575 0.466446 0
M  V30 7506 O 710.375 -2.12507 -0.408609 0
M  V30 7507 C 710.97 -1.73537 2.90982 0
M  V30 7508 C 709.529 -2.26218 3.00836 0
M  V30 7509 C 708.676 -1.07157 2.55759 0
M  V30 7510 H 711.627 -0.154895 1.57942 0
M  V30 7511 H 711.648 -2.59574 2.78211 0
M  V30 7512 H 711.16 -1.04176 3.73857 0
M  V30 7513 H 709.261 -2.98852 2.22527 0
M  V30 7514 H 709.374 -2.54799 4.05727 0
M  V30 7515 H 707.738 -1.43553 2.10391 0
M  V30 7516 H 708.521 -0.393099 3.41042 0
M  V30 7517 N 710.966 -1.44241 -0.634997 0
M  V30 7518 C 711.929 -1.50457 -1.72903 0
M  V30 7519 C 712.929 -0.387058 -1.56072 0
M  V30 7520 O 714.119 -0.649531 -1.61638 0
M  V30 7521 C 711.251 -1.37477 -3.1195 0
M  V30 7522 H 712.444 -2.47907 -1.68767 0
M  V30 7523 H 709.997 -1.31276 -0.84831 0
M  V30 7524 H 710.732 -0.41106 -3.21684 0
M  V30 7525 H 710.517 -2.18506 -3.25573 0
M  V30 7526 H 712.007 -1.44799 -3.91692 0
M  V30 7527 N 712.444 0.87505 -1.31075 0
M  V30 7528 C 713.374 1.99775 -1.20881 0
M  V30 7529 C 714.355 1.69822 -0.0971612 0
M  V30 7530 O 715.54 1.92158 -0.280895 0
M  V30 7531 C 712.67 3.35163 -0.910118 0
M  V30 7532 C 711.624 3.79406 -1.98078 0
M  V30 7533 C 710.95 5.12197 -1.53488 0
M  V30 7534 C 712.25 3.97061 -3.39323 0
M  V30 7535 H 713.944 2.08562 -2.14808 0
M  V30 7536 H 711.49 1.00207 -1.03415 0
M  V30 7537 H 713.443 4.13237 -0.825423 0
M  V30 7538 H 712.167 3.26536 0.064822 0
M  V30 7539 H 710.826 3.03568 -2.05528 0
M  V30 7540 H 710.474 5.00007 -0.547941 0
M  V30 7541 H 710.174 5.4277 -2.2511 0
M  V30 7542 H 711.698 5.92785 -1.46417 0
M  V30 7543 H 713.112 4.65545 -3.34576 0
M  V30 7544 H 711.509 4.39025 -4.09118 0
M  V30 7545 H 712.579 3.00601 -3.80483 0
M  V30 7546 N 713.922 1.13953 1.08869 0
M  V30 7547 C 714.832 0.835666 2.19212 0
M  V30 7548 C 715.848 -0.182005 1.73045 0
M  V30 7549 O 717.024 -0.0116661 2.01397 0
M  V30 7550 C 714.089 0.312325 3.4529 0
M  V30 7551 C 713.15 1.39196 4.06107 0
M  V30 7552 C 712.383 0.893496 5.26168 0
M  V30 7553 O 712.606 -0.266807 5.69776 0
M  V30 7554 O 711.54 1.67037 5.78258 0
M  V30 7555 H 715.366 1.75769 2.47667 0
M  V30 7556 H 712.951 0.917421 1.17914 0
M  V30 7557 H 714.833 0.0261582 4.21392 0
M  V30 7558 H 713.508 -0.582042 3.18424 0
M  V30 7559 H 712.415 1.73152 3.31616 0
M  V30 7560 H 713.748 2.26068 4.37212 0
M  V30 7561 N 715.4 -1.26948 0.933913 0
M  V30 7562 C 716.363 -2.24889 0.442457 0
M  V30 7563 C 717.363 -1.54594 -0.442426 0
M  V30 7564 O 718.553 -1.72502 -0.242629 0
M  V30 7565 C 715.685 -3.3896 -0.363173 0
M  V30 7566 H 716.878 -2.69879 1.30787 0
M  V30 7567 H 714.431 -1.38978 0.715187 0
M  V30 7568 H 715.166 -2.99361 -1.24714 0
M  V30 7569 H 714.951 -3.9116 0.271366 0
M  V30 7570 H 716.441 -4.11739 -0.697186 0
M  V30 7571 N 716.879 -0.700114 -1.41195 0
M  V30 7572 C 718.125 -0.233351 -2.01453 0
M  V30 7573 C 718.458 1.16548 -1.55339 0
M  V30 7574 O 717.733 1.78756 -0.766575 0
M  V30 7575 C 718.016 -0.2961 -3.58881 0
M  V30 7576 C 717.869 -1.7322 -4.15108 0
M  V30 7577 C 719.188 0.341525 -4.38773 0
M  V30 7578 H 716.307 -0.0862667 -0.731934 0
M  V30 7579 H 718.949 -0.889693 -1.67882 0
M  V30 7580 H 717.099 0.262736 -3.87611 0
M  V30 7581 H 718.771 -2.34523 -3.97236 0
M  V30 7582 H 717.014 -2.2649 -3.69979 0
M  V30 7583 H 717.685 -1.7276 -5.24269 0
M  V30 7584 H 720.161 -0.134461 -4.15883 0
M  V30 7585 H 719.037 0.267098 -5.4825 0
M  V30 7586 H 719.298 1.42289 -4.18577 0
M  V30 7587 N 718.357 1.51182 -0.445186 0
M  V30 7588 C 719.604 2.02152 0.118645 0
M  V30 7589 C 719.932 1.32888 1.42025 0
M  V30 7590 O 719.187 0.435041 1.90803 0
M  V30 7591 C 719.486 3.55408 0.376797 0
M  V30 7592 C 719.152 4.43008 -0.839945 0
M  V30 7593 C 717.814 4.66669 -1.17361 0
M  V30 7594 C 720.166 4.9435 -1.65127 0
M  V30 7595 C 717.494 5.38919 -2.31913 0
M  V30 7596 C 719.846 5.67857 -2.78786 0
M  V30 7597 C 718.51 5.89779 -3.12597 0
M  V30 7598 H 717.78 0.739727 0.0434152 0
M  V30 7599 H 720.427 1.82055 -0.593984 0
M  V30 7600 H 718.732 3.73879 1.1714 0
M  V30 7601 H 720.429 3.92388 0.826602 0
M  V30 7602 H 717.019 4.24793 -0.569958 0
M  V30 7603 H 721.203 4.75947 -1.4067 0
M  V30 7604 H 716.459 5.54105 -2.58413 0
M  V30 7605 H 720.633 6.06628 -3.42017 0
M  V30 7606 H 718.26 6.45542 -4.01471 0
M  V30 7607 N 719.835 0.176821 1.56605 0
M  V30 7608 C 721.063 -0.472828 2.01425 0
M  V30 7609 C 721.478 -1.56436 1.05703 0
M  V30 7610 O 720.835 -1.82405 0.058808 0
M  V30 7611 C 720.886 -1.04607 3.46034 0
M  V30 7612 O 720.607 0.00189608 4.381 0
M  V30 7613 C 722.108 -1.7734 4.06282 0
M  V30 7614 H 719.328 -0.120503 0.660091 0
M  V30 7615 H 721.872 0.280166 2.02572 0
M  V30 7616 H 720.027 -1.74953 3.45645 0
M  V30 7617 H 720.441 -0.422118 5.22799 0
M  V30 7618 H 721.915 -2.12703 5.09374 0
M  V30 7619 H 722.392 -2.67043 3.4869 0
M  V30 7620 H 722.998 -1.11623 4.10391 0
M  V30 7621 N 721.313 -1.57302 -0.09688 0
M  V30 7622 C 722.59 -1.7701 -0.832272 0
M  V30 7623 C 722.97 -0.758025 -1.97021 0
M  V30 7624 O 722.318 0.213824 -2.27497 0
M  V30 7625 C 722.528 -3.22725 -1.32851 0
M  V30 7626 C 723.876 -3.85856 -1.772 0
M  V30 7627 O 724.9 -3.26464 -1.42478 0
M  V30 7628 O 723.759 -4.90295 -2.41398 0
M  V30 7629 H 720.853 -0.725558 -0.396856 0
M  V30 7630 H 723.399 -1.69516 -0.0789005 0
M  V30 7631 H 722.171 -3.87921 -0.51312 0
M  V30 7632 H 721.794 -3.34845 -2.14394 0
M  V30 7633 N 722.791 0.367657 -1.53252 0
M  V30 7634 C 723.721 1.45632 -1.8252 0
M  V30 7635 C 724.702 1.55979 -0.678568 0
M  V30 7636 O 725.887 1.70581 -0.928217 0
M  V30 7637 C 723.017 2.82994 -2.01325 0
M  V30 7638 C 721.971 2.87473 -3.17086 0
M  V30 7639 C 721.297 4.2749 -3.21179 0
M  V30 7640 C 722.597 2.55182 -4.55719 0
M  V30 7641 H 724.291 1.21387 -2.73689 0
M  V30 7642 H 721.837 0.58251 -1.31692 0
M  V30 7643 H 723.79 3.59179 -2.20383 0
M  V30 7644 H 722.514 3.08622 -1.06864 0
M  V30 7645 H 721.173 2.13739 -2.97844 0
M  V30 7646 H 720.821 4.5019 -2.24361 0
M  V30 7647 H 720.521 4.31403 -3.98955 0
M  V30 7648 H 722.045 5.0555 -3.42419 0
M  V30 7649 H 723.459 3.21081 -4.74953 0
M  V30 7650 H 721.856 2.70414 -5.3572 0
M  V30 7651 H 722.926 1.5044 -4.60973 0
M  V30 7652 N 724.269 1.44576 0.627338 0
M  V30 7653 C 725.179 1.54232 1.76776 0
M  V30 7654 C 726.195 0.427782 1.6866 0
M  V30 7655 O 727.371 0.685671 1.89369 0
M  V30 7656 C 724.436 1.48738 3.13174 0
M  V30 7657 C 723.497 2.71074 3.32893 0
M  V30 7658 C 722.73 2.65832 4.62784 0
M  V30 7659 O 722.953 1.72048 5.43834 0
M  V30 7660 O 721.887 3.56742 4.84787 0
M  V30 7661 H 725.713 2.50586 1.71582 0
M  V30 7662 H 723.298 1.26865 0.789028 0
M  V30 7663 H 725.18 1.48211 3.94476 0
M  V30 7664 H 723.855 0.555292 3.18902 0
M  V30 7665 H 722.762 2.77168 2.51254 0
M  V30 7666 H 724.095 3.63342 3.32029 0
M  V30 7667 N 725.747 -0.868086 1.31537 0
M  V30 7668 C 726.996 -1.61607 1.20689 0
M  V30 7669 C 727.309 -1.94204 -0.233275 0
M  V30 7670 O 728.515 -2.67515 -0.463465 0
M  V30 7671 C 726.971 -2.91348 2.11292 0
M  V30 7672 C 726.579 -2.66227 3.60315 0
M  V30 7673 C 728.323 -3.69344 2.09249 0
M  V30 7674 C 726.23 -3.91887 4.42921 0
M  V30 7675 H 725.16 -0.606373 0.448138 0
M  V30 7676 H 727.811 -0.959666 1.56405 0
M  V30 7677 H 726.193 -3.58374 1.68477 0
M  V30 7678 H 727.367 -2.07597 4.11388 0
M  V30 7679 H 725.682 -2.01582 3.64354 0
M  V30 7680 H 728.279 -4.62567 2.68209 0
M  V30 7681 H 728.622 -4.02044 1.0801 0
M  V30 7682 H 729.155 -3.09205 2.50274 0
M  V30 7683 H 725.894 -3.64336 5.44922 0
M  V30 7684 H 725.414 -4.49961 3.96605 0
M  V30 7685 H 727.093 -4.59754 4.55231 0
M  V30 7686 N 727.225 -1.14528 -1.08264 0
M  V30 7687 C 728.155 -0.856356 -2.1723 0
M  V30 7688 C 729.136 0.189251 -1.69044 0
M  V30 7689 O 730.321 0.0456119 -1.94146 0
M  V30 7690 C 727.451 -0.334662 -3.45684 0
M  V30 7691 C 726.405 -1.31588 -4.0727 0
M  V30 7692 C 725.731 -0.653428 -5.30692 0
M  V30 7693 C 727.031 -2.67866 -4.48381 0
M  V30 7694 H 728.725 -1.76755 -2.41657 0
M  V30 7695 H 726.271 -0.851287 -1.16143 0
M  V30 7696 H 728.224 -0.120128 -4.21229 0
M  V30 7697 H 726.948 0.611967 -3.20815 0
M  V30 7698 H 725.607 -1.51661 -3.33758 0
M  V30 7699 H 725.255 0.299054 -5.0211 0
M  V30 7700 H 724.955 -1.30817 -5.72853 0
M  V30 7701 H 726.479 -0.448453 -6.08951 0
M  V30 7702 H 727.893 -2.51692 -5.15096 0
M  V30 7703 H 726.29 -3.29627 -5.01464 0
M  V30 7704 H 727.36 -3.24632 -3.60198 0
M  V30 7705 N 728.703 1.26451 -0.940633 0
M  V30 7706 C 729.666 2.24651 -0.454378 0
M  V30 7707 C 730.666 1.54826 0.434222 0
M  V30 7708 O 731.856 1.72628 0.233477 0
M  V30 7709 C 728.988 3.39148 0.345192 0
M  V30 7710 H 730.181 2.69182 -1.32217 0
M  V30 7711 H 727.734 1.38596 -0.722547 0
M  V30 7712 H 728.469 3.00018 1.23125 0
M  V30 7713 H 728.254 3.9101 -0.292107 0
M  V30 7714 H 729.744 4.12103 0.675341 0
M  V30 7715 N 730.181 0.707592 1.40822 0
M  V30 7716 C 731.144 0.0587224 2.29125 0
M  V30 7717 C 732.144 -0.695624 1.44975 0
M  V30 7718 O 733.334 -0.528718 1.65983 0
M  V30 7719 C 730.466 -0.926939 3.28056 0
M  V30 7720 H 731.659 0.836349 2.88002 0
M  V30 7721 H 729.212 0.471778 1.4901 0
M  V30 7722 H 729.947 -1.7319 2.74182 0
M  V30 7723 H 729.732 -0.389015 3.90165 0
M  V30 7724 H 731.222 -1.37837 3.94196 0
M  V30 7725 N 731.66 -1.50943 0.453197 0
M  V30 7726 C 732.909 -2.01402 -0.10951 0
M  V30 7727 C 733.222 -1.3411 -1.42386 0
M  V30 7728 O 734.428 -1.75626 -2.07045 0
M  V30 7729 C 732.884 -3.5906 -0.245693 0
M  V30 7730 C 732.492 -4.353 1.05916 0
M  V30 7731 C 734.236 -4.17617 -0.761318 0
M  V30 7732 C 732.143 -5.84699 0.887752 0
M  V30 7733 H 731.073 -0.752674 -0.0447013 0
M  V30 7734 H 733.724 -1.73913 0.585375 0
M  V30 7735 H 732.106 -3.83062 -1.00395 0
M  V30 7736 H 733.28 -4.23034 1.82698 0
M  V30 7737 H 731.595 -3.88269 1.50452 0
M  V30 7738 H 734.192 -5.26963 -0.906306 0
M  V30 7739 H 734.535 -3.77824 -1.74799 0
M  V30 7740 H 735.068 -3.97753 -0.0609416 0
M  V30 7741 H 731.807 -6.28933 1.84726 0
M  V30 7742 H 731.327 -5.99587 0.160006 0
M  V30 7743 H 733.006 -6.44682 0.547223 0
M  V30 7744 N 733.138 -0.185124 -1.56509 0
M  V30 7745 C 734.385 0.456258 -1.97293 0
M  V30 7746 C 734.713 1.62314 -1.07165 0
M  V30 7747 O 733.968 1.95398 -0.108621 0
M  V30 7748 C 734.267 0.967977 -3.44042 0
M  V30 7749 C 733.933 -0.084476 -4.50821 0
M  V30 7750 C 732.595 -0.373689 -4.79747 0
M  V30 7751 C 734.947 -0.79812 -5.15053 0
M  V30 7752 C 732.275 -1.3817 -5.70198 0
M  V30 7753 C 734.627 -1.79521 -6.06593 0
M  V30 7754 C 733.291 -2.09172 -6.3388 0
M  V30 7755 H 732.561 0.166957 -0.721946 0
M  V30 7756 H 735.208 -0.279992 -1.89442 0
M  V30 7757 H 733.513 1.78231 -3.48914 0
M  V30 7758 H 735.21 1.47347 -3.72948 0
M  V30 7759 H 731.8 0.15111 -4.28334 0
M  V30 7760 H 735.984 -0.587903 -4.92806 0
M  V30 7761 H 731.24 -1.61745 -5.89617 0
M  V30 7762 H 735.414 -2.35347 -6.55427 0
M  V30 7763 H 733.041 -2.87427 -7.03768 0
M  V30 7764 N 734.616 1.57351 0.0885366 0
M  V30 7765 C 735.579 2.01557 1.09121 0
M  V30 7766 C 736.579 0.910052 1.3257 0
M  V30 7767 O 737.769 1.17537 1.28572 0
M  V30 7768 C 734.901 2.38189 2.43883 0
M  V30 7769 H 736.094 2.91361 0.710562 0
M  V30 7770 H 733.647 1.52694 0.333779 0
M  V30 7771 H 734.382 1.5136 2.86811 0
M  V30 7772 H 734.167 3.18846 2.28209 0
M  V30 7773 H 735.657 2.73025 3.15986 0
M  V30 7774 N 736.094 -0.359525 1.53444 0
M  V30 7775 C 737.319 -1.12644 1.74144 0
M  V30 7776 C 737.744 -1.82082 0.472007 0
M  V30 7777 O 737.102 -1.71962 -0.57436 0
M  V30 7778 C 737.15 -2.12781 2.9113 0
M  V30 7779 O 736.254 -3.19984 2.60162 0
M  V30 7780 H 735.595 -0.326553 0.578152 0
M  V30 7781 H 738.125 -0.414798 2.00351 0
M  V30 7782 H 738.135 -2.56278 3.17467 0
M  V30 7783 H 736.81 -1.61634 3.83207 0
M  V30 7784 H 735.387 -2.81417 2.44661 0
M  V30 7785 N 737.572 -1.44907 -0.619662 0
M  V30 7786 C 738.535 -1.52282 -1.71297 0
M  V30 7787 C 739.535 -0.40359 -1.55653 0
M  V30 7788 O 740.725 -0.666638 -1.6094 0
M  V30 7789 C 737.857 -1.40778 -3.10474 0
M  V30 7790 H 739.05 -2.49683 -1.66128 0
M  V30 7791 H 736.603 -1.32168 -0.834339 0
M  V30 7792 H 737.338 -0.445156 -3.2123 0
M  V30 7793 H 737.123 -2.21947 -3.23237 0
M  V30 7794 H 738.613 -1.48946 -3.90135 0
M  V30 7795 N 739.05 0.861098 -1.31996 0
M  V30 7796 C 740.299 1.60965 -1.21545 0
M  V30 7797 C 740.612 1.94325 0.222972 0
M  V30 7798 O 741.818 2.67757 0.449272 0
M  V30 7799 C 740.274 2.90223 -2.12834 0
M  V30 7800 C 739.882 2.64313 -3.61722 0
M  V30 7801 C 741.626 3.68229 -2.11205 0
M  V30 7802 C 739.533 3.89532 -4.44993 0
M  V30 7803 H 738.463 0.603988 -0.451348 0
M  V30 7804 H 741.114 0.951358 -1.56912 0
M  V30 7805 H 739.496 3.57475 -1.70375 0
M  V30 7806 H 740.67 2.05413 -4.12483 0
M  V30 7807 H 738.985 1.99647 -3.65418 0
M  V30 7808 H 741.582 4.61138 -2.70658 0
M  V30 7809 H 741.925 4.01466 -1.1014 0
M  V30 7810 H 742.458 3.07873 -2.51911 0
M  V30 7811 H 739.197 3.61441 -5.46846 0
M  V30 7812 H 738.717 4.47851 -3.98985 0
M  V30 7813 H 740.396 4.57334 -4.57663 0
M  V30 7814 N 740.528 1.15101 1.07655 0
M  V30 7815 C 741.478 0.813448 2.12995 0
M  V30 7816 C 742.462 -0.200899 1.59641 0
M  V30 7817 O 743.654 -0.00209918 1.77 0
M  V30 7818 C 740.783 0.301078 3.41977 0
M  V30 7819 C 739.869 1.3454 4.02194 0
M  V30 7820 N 740.26 2.55181 4.36711 0
M  V30 7821 C 738.558 1.19742 4.29625 0
M  V30 7822 C 739.259 3.22094 4.84387 0
M  V30 7823 N 738.235 2.49486 4.82968 0
M  V30 7824 H 742.037 1.73105 2.37511 0
M  V30 7825 H 739.551 1.03601 1.25063 0
M  V30 7826 H 741.548 0.040914 4.1688 0
M  V30 7827 H 740.208 -0.610629 3.18907 0
M  V30 7828 H 741.219 2.92349 4.27496 0
M  V30 7829 H 737.896 0.345353 4.16069 0
M  V30 7830 H 739.286 4.24996 5.20411 0
M  V30 7831 N 742.006 -1.2595 0.947325 0
M  V30 7832 C 743.283 -1.88676 0.515824 0
M  V30 7833 C 743.663 -1.85547 -1.00675 0
M  V30 7834 O 743.011 -1.31399 -1.8694 0
M  V30 7835 C 743.221 -3.31734 1.08415 0
M  V30 7836 C 744.569 -4.08545 1.15654 0
M  V30 7837 O 745.593 -3.40826 1.03517 0
M  V30 7838 O 744.452 -5.29663 1.34608 0
M  V30 7839 H 741.546 -0.809537 0.169055 0
M  V30 7840 H 744.092 -1.34075 1.04029 0
M  V30 7841 H 742.864 -3.28404 2.1276 0
M  V30 7842 H 742.487 -3.93882 0.542499 0
M  V30 7843 N 743.484 -0.715051 -1.40445 0
M  V30 7844 C 744.73 -0.254705 -2.01194 0
M  V30 7845 C 745.063 1.14894 -1.56567 0
M  V30 7846 O 744.338 1.77933 -0.785491 0
M  V30 7847 C 744.621 -0.334148 -3.58546 0
M  V30 7848 C 744.474 -1.77613 -4.13248 0
M  V30 7849 C 745.793 0.294968 -4.3911 0
M  V30 7850 H 742.912 -0.094025 -0.730978 0
M  V30 7851 H 745.554 -0.907449 -1.66929 0
M  V30 7852 H 743.704 0.221609 -3.87867 0
M  V30 7853 H 745.376 -2.38723 -3.94727 0
M  V30 7854 H 743.619 -2.30402 -3.67556 0
M  V30 7855 H 744.29 -1.78311 -5.22407 0
M  V30 7856 H 746.766 -0.178563 -4.15717 0
M  V30 7857 H 745.642 0.208934 -5.48502 0
M  V30 7858 H 745.903 1.37841 -4.20062 0
M  V30 7859 N 744.962 1.50701 -0.461195 0
M  V30 7860 C 746.239 1.94958 0.158296 0
M  V30 7861 C 746.619 1.40111 1.57899 0
M  V30 7862 O 745.967 0.597976 2.20537 0
M  V30 7863 C 746.177 3.48821 0.11172 0
M  V30 7864 C 747.525 4.23499 0.30552 0
M  V30 7865 O 748.549 3.557 0.188758 0
M  V30 7866 O 747.408 5.43823 0.540244 0
M  V30 7867 H 744.502 0.818674 0.117054 0
M  V30 7868 H 747.048 1.61508 -0.520888 0
M  V30 7869 H 745.82 3.81263 -0.880577 0
M  V30 7870 H 745.443 3.88781 0.832791 0
M  V30 7871 N 746.441 0.193421 1.56409 0
M  V30 7872 C 747.391 -0.74089 2.15627 0
M  V30 7873 C 748.375 -1.17747 1.09656 0
M  V30 7874 O 749.567 -1.13615 1.35723 0
M  V30 7875 C 746.696 -1.96091 2.81786 0
M  V30 7876 C 745.782 -1.54531 3.94944 0
M  V30 7877 N 746.173 -0.840569 4.98767 0
M  V30 7878 C 744.471 -1.83473 4.06514 0
M  V30 7879 C 745.172 -0.632571 5.7825 0
M  V30 7880 N 744.148 -1.18078 5.30621 0
M  V30 7881 H 747.95 -0.193718 2.93261 0
M  V30 7882 H 745.464 -0.00643211 1.62399 0
M  V30 7883 H 747.461 -2.64071 3.22602 0
M  V30 7884 H 746.121 -2.51282 2.05639 0
M  V30 7885 H 747.132 -0.496218 5.15517 0
M  V30 7886 H 743.809 -2.40184 3.41493 0
M  V30 7887 H 745.199 -0.0736433 6.7186 0
M  V30 7888 N 747.919 -1.57396 -0.0801906 0
M  V30 7889 C 749.33 -1.75642 -0.633002 0
M  V30 7890 C 749.681 -0.817708 -1.78348 0
M  V30 7891 O 748.806 0.000233743 -2.164 0
M  V30 7892 C 749.401 -3.18502 -1.15507 0
M  V30 7893 C 747.96 -3.38121 -1.65381 0
M  V30 7894 C 747.107 -2.71386 -0.569661 0
M  V30 7895 H 750.058 -1.58027 0.145949 0
M  V30 7896 H 750.079 -3.22198 -2.02408 0
M  V30 7897 H 749.591 -3.86799 -0.317515 0
M  V30 7898 H 747.692 -2.74926 -2.51488 0
M  V30 7899 H 747.805 -4.46521 -1.73654 0
M  V30 7900 H 746.169 -2.33702 -1.0127 0
M  V30 7901 H 746.952 -3.42332 0.257561 0
M  V30 7902 N 749.397 0.351382 -1.53633 0
M  V30 7903 C 750.645 1.09034 -1.70165 0
M  V30 7904 C 750.966 1.89413 -0.463422 0
M  V30 7905 O 750.236 1.888 0.522624 0
M  V30 7906 H 748.816 0.405522 -0.627344 0
M  V30 7907 H 751.478 0.394554 -1.90865 0
M  V30 7908 H 750.574 1.77215 -2.56907 0
M  V30 7909 N 750.875 1.45233 0.611969 0
M  V30 7910 C 752.121 1.49242 1.37312 0
M  V30 7911 C 752.454 0.131963 1.93751 0
M  V30 7912 O 751.729 -0.852999 1.74798 0
M  V30 7913 C 752.012 2.56811 2.52428 0
M  V30 7914 C 751.865 4.02284 2.01215 0
M  V30 7915 C 753.184 2.60705 3.54572 0
M  V30 7916 H 750.303 0.54336 0.497925 0
M  V30 7917 H 752.945 1.77019 0.690242 0
M  V30 7918 H 751.095 2.33256 3.10683 0
M  V30 7919 H 752.767 4.37035 1.47643 0
M  V30 7920 H 751.01 4.1315 1.32248 0
M  V30 7921 H 751.681 4.7323 2.84178 0
M  V30 7922 H 754.157 2.81799 3.06151 0
M  V30 7923 H 753.033 3.37841 4.32614 0
M  V30 7924 H 753.294 1.65627 4.09903 0
M  V30 7925 N 752.353 -0.854086 1.3245 0
M  V30 7926 C 753.578 -1.64597 1.26185 0
M  V30 7927 C 754.003 -1.87357 -0.167074 0
M  V30 7928 O 753.361 -1.42675 -1.11864 0
M  V30 7929 C 753.409 -2.98213 2.02734 0
M  V30 7930 O 752.513 -3.88784 1.37554 0
M  V30 7931 H 751.854 -0.50179 0.434859 0
M  V30 7932 H 754.384 -1.06372 1.74775 0
M  V30 7933 H 754.394 -3.4803 2.1293 0
M  V30 7934 H 753.069 -2.80969 3.06642 0
M  V30 7935 H 751.646 -3.4725 1.3591 0
M  V30 7936 N 753.831 -1.1567 -1.07043 0
M  V30 7937 C 754.779 -0.852204 -2.16426 0
M  V30 7938 C 755.773 0.175661 -1.68487 0
M  V30 7939 O 756.979 0.0303874 -1.79974 0
M  V30 7940 H 753.354 -0.257942 -0.706378 0
M  V30 7941 H 755.325 -1.78231 -2.39324 0
M  V30 7942 C 754.074 -0.361362 -3.45817 0
M  V30 7943 H 753.397 -1.14369 -3.83092 0
M  V30 7944 H 754.837 -0.186997 -4.23587 0
M  V30 7945 C 753.296 0.917703 -3.2416 0
M  V30 7946 O 753.826 1.98858 -3.49025 0
M  V30 7947 N 752.032 0.858456 -2.77631 0
M  V30 7948 H 751.579 -0.0131821 -2.57597 0
M  V30 7949 H 751.537 1.71478 -2.6352 0
M  V30 7950 N 755.309 1.25446 -0.953992 0
M  V30 7951 C 756.241 2.25111 -0.431004 0
M  V30 7952 C 757.254 1.56377 0.452764 0
M  V30 7953 O 758.443 1.76579 0.261144 0
M  V30 7954 C 755.543 3.3655 0.39839 0
M  V30 7955 C 754.716 4.34843 -0.472229 0
M  V30 7956 C 753.775 5.25351 0.29886 0
M  V30 7957 O 752.801 5.68396 -0.302522 0
M  V30 7958 N 754.003 5.5824 1.59211 0
M  V30 7959 H 756.768 2.70619 -1.28785 0
M  V30 7960 H 754.329 1.39346 -0.824281 0
M  V30 7961 H 756.321 3.94059 0.921941 0
M  V30 7962 H 754.891 2.90436 1.15609 0
M  V30 7963 H 754.111 3.76222 -1.17689 0
M  V30 7964 H 755.399 4.97497 -1.06648 0
M  V30 7965 H 754.797 5.25172 2.10264 0
M  V30 7966 H 753.354 6.18336 2.06164 0
M  V30 7967 N 756.787 0.722489 1.40064 0
M  V30 7968 C 758.034 0.264979 2.00759 0
M  V30 7969 C 758.362 -1.14395 1.57302 0
M  V30 7970 O 757.617 -1.79165 0.787298 0
M  V30 7971 C 757.916 0.300682 3.56133 0
M  V30 7972 C 757.582 1.66087 4.19197 0
M  V30 7973 C 756.244 2.03319 4.36136 0
M  V30 7974 C 758.596 2.55452 4.54306 0
M  V30 7975 C 755.924 3.29448 4.8547 0
M  V30 7976 C 758.276 3.8094 5.05042 0
M  V30 7977 C 756.94 4.1828 5.2019 0
M  V30 7978 H 756.21 0.0969625 0.734629 0
M  V30 7979 H 758.857 0.926877 1.67575 0
M  V30 7980 H 757.162 -0.44479 3.89267 0
M  V30 7981 H 758.859 -0.0712542 4.00937 0
M  V30 7982 H 755.449 1.36137 4.06405 0
M  V30 7983 H 759.633 2.27961 4.40849 0
M  V30 7984 H 754.889 3.58338 4.95382 0
M  V30 7985 H 759.063 4.50351 5.31184 0
M  V30 7986 H 756.69 5.16081 5.58179 0
M  V30 7987 N 758.265 -1.50454 0.469181 0
M  V30 7988 C 759.195 -2.31353 -0.31592 0
M  V30 7989 C 760.176 -1.38172 -0.992094 0
M  V30 7990 O 761.361 -1.67093 -0.989633 0
M  V30 7991 C 758.491 -3.1786 -1.39937 0
M  V30 7992 C 757.445 -4.19578 -0.844909 0
M  V30 7993 C 756.771 -4.9481 -2.0265 0
M  V30 7994 C 758.071 -5.22106 0.142499 0
M  V30 7995 H 759.765 -2.97237 0.359269 0
M  V30 7996 H 757.311 -1.42942 0.174224 0
M  V30 7997 H 759.264 -3.7325 -1.95607 0
M  V30 7998 H 757.988 -2.49858 -2.1033 0
M  V30 7999 H 756.647 -3.65285 -0.310189 0
M  V30 8000 H 756.295 -4.23282 -2.71737 0
M  V30 8001 H 755.995 -5.63613 -1.66174 0
M  V30 8002 H 757.519 -5.53035 -2.58815 0
M  V30 8003 H 758.933 -5.72378 -0.324966 0
M  V30 8004 H 757.33 -5.98618 0.421441 0
M  V30 8005 H 758.4 -4.7297 1.06901 0
M  V30 8006 N 759.743 -0.201713 -1.56304 0
M  V30 8007 C 760.992 0.435557 -1.96941 0
M  V30 8008 C 761.305 1.62299 -1.09172 0
M  V30 8009 O 762.511 2.32849 -1.3962 0
M  V30 8010 C 760.967 0.826298 -3.50286 0
M  V30 8011 C 760.575 -0.337216 -4.46729 0
M  V30 8012 C 762.319 1.43028 -3.99679 0
M  V30 8013 C 760.226 0.0748539 -5.91353 0
M  V30 8014 H 759.156 0.1665 -0.735387 0
M  V30 8015 H 761.807 -0.294781 -1.81117 0
M  V30 8016 H 760.189 1.61349 -3.61639 0
M  V30 8017 H 761.363 -1.11476 -4.47113 0
M  V30 8018 H 759.678 -0.853126 -4.07567 0
M  V30 8019 H 762.275 1.75115 -5.05212 0
M  V30 8020 H 762.618 2.33911 -3.44371 0
M  V30 8021 H 763.151 0.706924 -3.91468 0
M  V30 8022 H 759.89 -0.799957 -6.506 0
M  V30 8023 H 759.41 0.817122 -5.94208 0
M  V30 8024 H 761.089 0.508389 -6.45 0
M  V30 8025 N 761.222 1.57436 0.0718424 0
M  V30 8026 C 762.17 2.04725 1.10411 0
M  V30 8027 C 763.164 0.952579 1.4008 0
M  V30 8028 O 764.37 1.13769 1.39487 0
M  V30 8029 H 760.745 0.652749 0.373393 0
M  V30 8030 H 762.716 2.90569 0.679126 0
M  V30 8031 C 761.465 2.5068 2.40946 0
M  V30 8032 H 760.788 3.34505 2.18967 0
M  V30 8033 H 762.228 2.87521 3.11621 0
M  V30 8034 C 760.687 1.38971 3.06902 0
M  V30 8035 O 761.217 0.731786 3.94978 0
M  V30 8036 N 759.423 1.13485 2.67525 0
M  V30 8037 H 758.97 1.67168 1.95991 0
M  V30 8038 H 758.928 0.389467 3.11978 0
M  V30 8039 N 762.7 -0.34323 1.53817 0
M  V30 8040 C 763.928 -1.10348 1.75017 0
M  V30 8041 C 764.343 -1.82345 0.489475 0
M  V30 8042 O 763.7 -1.74362 -0.538886 0
M  V30 8043 C 763.751 -2.11672 2.93048 0
M  V30 8044 O 763.472 -1.42603 4.14241 0
M  V30 8045 C 764.973 -3.0007 3.26301 0
M  V30 8046 H 762.193 -0.329056 0.584776 0
M  V30 8047 H 764.737 -0.395339 2.00642 0
M  V30 8048 H 762.892 -2.78051 2.69753 0
M  V30 8049 H 763.306 -2.10294 4.80496 0
M  V30 8050 H 764.78 -3.67101 4.12239 0
M  V30 8051 H 765.257 -3.66105 2.42618 0
M  V30 8052 H 765.863 -2.3928 3.51604 0
M  V30 8053 N 764.178 -1.45556 -0.604258 0
M  V30 8054 C 765.126 -1.5482 -1.7359 0
M  V30 8055 C 766.12 -0.417966 -1.64163 0
M  V30 8056 O 767.326 -0.594007 -1.69916 0
M  V30 8057 H 763.701 -0.486352 -0.573556 0
M  V30 8058 H 765.672 -2.5001 -1.62903 0
M  V30 8059 C 764.421 -1.53521 -3.11972 0
M  V30 8060 H 763.744 -2.39818 -3.19886 0
M  V30 8061 H 765.184 -1.64061 -3.90973 0
M  V30 8062 C 763.643 -0.260191 -3.35894 0
M  V30 8063 O 764.173 0.658582 -3.96265 0
M  V30 8064 N 762.379 -0.154839 -2.90187 0
M  V30 8065 H 761.926 -0.903378 -2.4124 0
M  V30 8066 H 761.884 0.697437 -3.06567 0
M  V30 8067 N 765.656 0.84705 -1.32902 0
M  V30 8068 C 766.881 1.63925 -1.27056 0
M  V30 8069 C 767.306 1.87443 0.157136 0
M  V30 8070 O 766.664 1.43266 1.11106 0
M  V30 8071 C 766.712 2.97134 -2.04313 0
M  V30 8072 O 765.816 3.88049 -1.39614 0
M  V30 8073 H 765.157 0.499477 -0.437514 0
M  V30 8074 H 767.687 1.05443 -1.75336 0
M  V30 8075 H 767.697 3.46896 -2.14772 0
M  V30 8076 H 766.372 2.79339 -3.08128 0
M  V30 8077 H 764.949 3.46525 -1.3775 0
M  V30 8078 N 767.134 1.16236 1.06428 0
M  V30 8079 C 768.044 0.881976 2.1739 0
M  V30 8080 C 769.06 -0.145259 1.73393 0
M  V30 8081 O 770.236 0.0310558 2.01376 0
M  V30 8082 C 767.301 0.385496 3.4455 0
M  V30 8083 C 766.362 1.47779 4.03063 0
M  V30 8084 C 765.595 1.0049 5.24154 0
M  V30 8085 O 765.818 -0.145889 5.70213 0
M  V30 8086 O 764.752 1.79265 5.74585 0
M  V30 8087 H 768.578 1.80983 2.43883 0
M  V30 8088 H 766.163 0.942226 1.15942 0
M  V30 8089 H 768.045 0.115536 4.21242 0
M  V30 8090 H 766.72 -0.514369 3.19587 0
M  V30 8091 H 765.627 1.80147 3.27869 0
M  V30 8092 H 766.96 2.35291 4.32318 0
M  V30 8093 N 768.612 -1.24939 0.960631 0
M  V30 8094 C 769.542 -2.28 0.503815 0
M  V30 8095 C 770.523 -1.63959 -0.452928 0
M  V30 8096 O 771.708 -1.91009 -0.350585 0
M  V30 8097 C 768.838 -3.46643 -0.213535 0
M  V30 8098 C 767.792 -4.22903 0.658535 0
M  V30 8099 C 767.118 -5.34363 -0.189902 0
M  V30 8100 C 768.418 -4.84949 1.93963 0
M  V30 8101 H 770.112 -2.66462 1.36521 0
M  V30 8102 H 767.658 -1.28093 0.657897 0
M  V30 8103 H 769.611 -4.1787 -0.544286 0
M  V30 8104 H 768.335 -3.07187 -1.10923 0
M  V30 8105 H 766.994 -3.53467 0.972455 0
M  V30 8106 H 766.642 -4.91147 -1.08553 0
M  V30 8107 H 766.342 -5.86302 0.390331 0
M  V30 8108 H 767.866 -6.0842 -0.515484 0
M  V30 8109 H 769.28 -5.48288 1.67491 0
M  V30 8110 H 767.677 -5.47091 2.46601 0
M  V30 8111 H 768.747 -4.06799 2.639 0
M  V30 8112 N 770.09 -0.729906 -1.39679 0
M  V30 8113 C 771.053 -0.0951668 -2.29002 0
M  V30 8114 C 772.053 0.672471 -1.46063 0
M  V30 8115 O 773.243 0.502245 -1.66803 0
M  V30 8116 C 770.375 0.874631 -3.29489 0
M  V30 8117 H 771.568 -0.882062 -2.86635 0
M  V30 8118 H 769.121 -0.495424 -1.4824 0
M  V30 8119 H 769.856 1.68807 -2.76902 0
M  V30 8120 H 769.641 0.326893 -3.90735 0
M  V30 8121 H 771.131 1.31548 -3.96339 0
M  V30 8122 N 771.568 1.50203 -0.477153 0
M  V30 8123 C 772.498 2.31517 0.303646 0
M  V30 8124 C 773.479 1.38696 0.984753 0
M  V30 8125 O 774.664 1.67615 0.980758 0
M  V30 8126 C 771.794 3.18598 1.38249 0
M  V30 8127 C 770.748 4.2002 0.822645 0
M  V30 8128 C 770.074 4.95878 2.00024 0
M  V30 8129 C 771.374 5.22023 -0.170185 0
M  V30 8130 H 773.068 2.97042 -0.375027 0
M  V30 8131 H 770.614 1.42848 -0.181802 0
M  V30 8132 H 772.567 3.74282 1.93625 0
M  V30 8133 H 771.291 2.5097 2.09002 0
M  V30 8134 H 769.95 3.65445 0.290813 0
M  V30 8135 H 769.598 4.24717 2.69489 0
M  V30 8136 H 769.298 5.64487 1.63183 0
M  V30 8137 H 770.822 5.54399 2.55878 0
M  V30 8138 H 772.236 5.72543 0.294606 0
M  V30 8139 H 770.633 5.98386 -0.453181 0
M  V30 8140 H 771.703 4.72396 -1.09408 0
M  V30 8141 N 773.046 0.209999 1.56195 0
M  V30 8142 C 773.979 -0.744546 2.15712 0
M  V30 8143 C 774.957 -1.19917 1.09812 0
M  V30 8144 O 776.141 -1.284 1.38006 0
M  V30 8145 C 773.268 -2.00733 2.72807 0
M  V30 8146 C 772.314 -1.69363 3.91431 0
M  V30 8147 S 773.147 -0.828579 5.29051 0
M  V30 8148 C 774.303 -2.10118 5.89577 0
M  V30 8149 H 774.536 -0.238636 2.96341 0
M  V30 8150 H 772.069 -0.00517877 1.54399 0
M  V30 8151 H 774.027 -2.73246 3.06344 0
M  V30 8152 H 772.688 -2.48436 1.92193 0
M  V30 8153 H 771.881 -2.63157 4.29842 0
M  V30 8154 H 771.483 -1.04921 3.58981 0
M  V30 8155 H 773.775 -3.05231 6.04847 0
M  V30 8156 H 774.718 -1.76116 6.85849 0
M  V30 8157 H 775.126 -2.23644 5.18308 0
M  V30 8158 N 774.524 -1.57472 -0.0634922 0
M  V30 8159 C 775.754 -1.91608 -0.772645 0
M  V30 8160 C 776.162 -0.805019 -1.71219 0
M  V30 8161 O 775.505 0.229941 -1.82255 0
M  V30 8162 C 775.567 -3.21281 -1.61304 0
M  V30 8163 C 775.231 -4.49177 -0.841973 0
M  V30 8164 C 776.228 -5.19661 -0.157494 0
M  V30 8165 C 773.913 -4.9578 -0.80669 0
M  V30 8166 C 775.907 -6.35006 0.551948 0
M  V30 8167 C 773.594 -6.11028 -0.0934812 0
M  V30 8168 C 774.592 -6.80493 0.58463 0
M  V30 8169 O 774.28 -7.93542 1.28633 0
M  V30 8170 H 774.012 -0.637685 -0.224352 0
M  V30 8171 H 776.566 -2.05369 -0.0355279 0
M  V30 8172 H 774.796 -3.03752 -2.39315 0
M  V30 8173 H 776.485 -3.41003 -2.20162 0
M  V30 8174 H 777.251 -4.84681 -0.176006 0
M  V30 8175 H 773.13 -4.41579 -1.32397 0
M  V30 8176 H 776.674 -6.89161 1.0818 0
M  V30 8177 H 772.571 -6.45459 -0.0729258 0
M  V30 8178 H 773.339 -8.09708 1.19646 0
M  V30 8179 N 776.003 0.335068 -1.53997 0
M  V30 8180 C 776.951 1.43206 -1.83289 0
M  V30 8181 C 777.945 1.54081 -0.703953 0
M  V30 8182 O 779.151 1.56603 -0.887432 0
M  V30 8183 H 775.526 0.477655 -0.580818 0
M  V30 8184 H 777.497 1.15719 -2.75049 0
M  V30 8185 C 776.246 2.79602 -2.06683 0
M  V30 8186 H 775.569 2.72004 -2.93008 0
M  V30 8187 H 777.009 3.55459 -2.31139 0
M  V30 8188 C 775.468 3.25873 -0.854883 0
M  V30 8189 O 775.998 4.01657 -0.0584648 0
M  V30 8190 N 774.204 2.82777 -0.669729 0
M  V30 8191 H 773.751 2.21269 -1.31901 0
M  V30 8192 H 773.709 3.1409 0.13969 0
M  V30 8193 N 777.481 1.45874 0.596531 0
M  V30 8194 C 778.758 1.40942 1.35627 0
M  V30 8195 C 779.138 0.0857066 2.10926 0
M  V30 8196 O 778.486 -0.932544 2.08605 0
M  V30 8197 C 778.696 2.63027 2.29386 0
M  V30 8198 C 780.044 3.08588 2.91649 0
M  V30 8199 O 781.068 2.63478 2.39704 0
M  V30 8200 O 779.927 3.86902 3.85965 0
M  V30 8201 H 777.021 0.559838 0.608696 0
M  V30 8202 H 779.567 1.5802 0.618698 0
M  V30 8203 H 778.339 3.5094 1.7308 0
M  V30 8204 H 777.962 2.48338 3.10506 0
M  V30 8205 N 778.959 -0.83999 1.33349 0
M  V30 8206 C 780.184 -1.63249 1.27924 0
M  V30 8207 C 780.609 -1.87523 -0.147193 0
M  V30 8208 O 779.967 -1.43853 -1.10345 0
M  V30 8209 C 780.015 -2.96046 2.05886 0
M  V30 8210 O 779.119 -3.87303 1.4167 0
M  V30 8211 H 778.46 -0.49715 0.440157 0
M  V30 8212 H 780.99 -1.04512 1.75893 0
M  V30 8213 H 781 -3.45752 2.16609 0
M  V30 8214 H 779.675 -2.77701 3.09605 0
M  V30 8215 H 778.252 -3.45789 1.39585 0
M  V30 8216 N 780.437 -1.16799 -1.0581 0
M  V30 8217 C 781.662 -0.977402 -1.82925 0
M  V30 8218 C 782.087 0.469514 -1.82146 0
M  V30 8219 O 781.445 1.33576 -1.22585 0
M  V30 8220 C 781.493 -1.51543 -3.27211 0
M  V30 8221 O 780.597 -0.725021 -4.05977 0
M  V30 8222 H 779.938 -0.347474 -0.565825 0
M  V30 8223 H 782.468 -1.55151 -1.33376 0
M  V30 8224 H 782.478 -1.53502 -3.78023 0
M  V30 8225 H 781.153 -2.56872 -3.27093 0
M  V30 8226 H 779.73 -0.77634 -3.64729 0
M  V30 8227 N 781.915 1.24427 -0.967243 0
M  V30 8228 C 783.161 1.92772 -0.629812 0
M  V30 8229 C 783.494 1.75436 0.832827 0
M  V30 8230 O 782.769 1.10716 1.59913 0
M  V30 8231 C 783.052 3.45798 -1.00477 0
M  V30 8232 C 782.905 3.72304 -2.52407 0
M  V30 8233 C 784.224 4.36787 -0.538999 0
M  V30 8234 H 781.343 0.700099 -0.230282 0
M  V30 8235 H 783.985 1.46805 -1.20616 0
M  V30 8236 H 782.135 3.8508 -0.514336 0
M  V30 8237 H 783.807 3.42584 -3.08924 0
M  V30 8238 H 782.05 3.17472 -2.95625 0
M  V30 8239 H 782.721 4.7937 -2.73693 0
M  V30 8240 H 785.197 4.04877 -0.959874 0
M  V30 8241 H 784.073 5.4259 -0.829926 0
M  V30 8242 H 784.334 4.38527 0.560923 0
M  V30 8243 N 783.393 0.737304 1.3929 0
M  V30 8244 C 784.323 0.113988 2.33222 0
M  V30 8245 C 785.304 -0.721695 1.54031 0
M  V30 8246 O 786.489 -0.666206 1.82415 0
M  V30 8247 C 783.619 -0.792319 3.38141 0
M  V30 8248 C 782.573 -0.0606178 4.27957 0
M  V30 8249 C 781.899 -1.08409 5.23595 0
M  V30 8250 C 783.199 1.09817 5.10625 0
M  V30 8251 H 784.893 0.898611 2.85596 0
M  V30 8252 H 782.439 0.433571 1.37318 0
M  V30 8253 H 784.392 -1.23793 4.02807 0
M  V30 8254 H 783.116 -1.60908 2.84211 0
M  V30 8255 H 781.775 0.365393 3.64775 0
M  V30 8256 H 781.423 -1.89449 4.6596 0
M  V30 8257 H 781.123 -0.599269 5.84536 0
M  V30 8258 H 782.647 -1.52936 5.91137 0
M  V30 8259 H 784.061 0.730892 5.68622 0
M  V30 8260 H 782.458 1.51278 5.80719 0
M  V30 8261 H 783.528 1.91878 4.45321 0
M  V30 8262 N 784.871 -1.49948 0.485112 0
M  V30 8263 C 785.781 -2.32587 -0.306697 0
M  V30 8264 C 786.797 -1.43598 -0.982632 0
M  V30 8265 O 787.973 -1.76638 -0.967519 0
M  V30 8266 C 785.038 -3.18638 -1.3664 0
M  V30 8267 C 784.099 -4.23462 -0.705589 0
M  V30 8268 C 783.332 -5.05401 -1.7148 0
M  V30 8269 O 783.555 -4.88618 -2.94293 0
M  V30 8270 O 782.489 -5.88157 -1.27889 0
M  V30 8271 H 786.315 -3.01447 0.369272 0
M  V30 8272 H 783.9 -1.47349 0.246709 0
M  V30 8273 H 785.782 -3.71992 -1.9799 0
M  V30 8274 H 784.457 -2.52491 -2.02559 0
M  V30 8275 H 783.364 -3.74063 -0.0527733 0
M  V30 8276 H 784.697 -4.92119 -0.0891187 0
M  V30 8277 N 786.349 -0.21828 -1.56081 0
M  V30 8278 C 787.297 0.709679 -2.21509 0
M  V30 8279 C 788.291 1.20221 -1.19346 0
M  V30 8280 O 789.497 1.16241 -1.37433 0
M  V30 8281 H 785.872 0.247271 -0.710184 0
M  V30 8282 H 787.843 0.134386 -2.98097 0
M  V30 8283 C 786.592 1.90853 -2.90638 0
M  V30 8284 H 785.915 1.53865 -3.69006 0
M  V30 8285 H 787.355 2.53568 -3.39822 0
M  V30 8286 C 785.814 2.76189 -1.92929 0
M  V30 8287 O 786.344 3.74842 -1.44416 0
M  V30 8288 N 784.55 2.42157 -1.6065 0
M  V30 8289 H 784.097 1.61987 -2.00294 0
M  V30 8290 H 784.055 2.99534 -0.955347 0
M  V30 8291 N 787.827 1.57504 0.0551401 0
M  V30 8292 C 788.777 2.0128 1.071 0
M  V30 8293 C 789.761 0.897592 1.33537 0
M  V30 8294 O 790.953 1.16151 1.33558 0
M  V30 8295 C 788.082 2.47414 2.37994 0
M  V30 8296 C 787.168 3.65703 2.14761 0
M  V30 8297 N 787.559 4.79323 1.61504 0
M  V30 8298 C 785.857 3.72574 2.45162 0
M  V30 8299 C 786.558 5.61089 1.53472 0
M  V30 8300 N 785.534 5.05426 2.00114 0
M  V30 8301 H 789.336 2.86558 0.652829 0
M  V30 8302 H 786.85 1.60274 0.26193 0
M  V30 8303 H 788.847 2.77023 3.11551 0
M  V30 8304 H 787.507 1.6353 2.80514 0
M  V30 8305 H 788.518 5.01284 1.30134 0
M  V30 8306 H 785.195 2.99439 2.90934 0
M  V30 8307 H 786.585 6.62328 1.13008 0
M  V30 8308 N 789.305 -0.326896 1.54172 0
M  V30 8309 C 790.255 -1.40319 1.79707 0
M  V30 8310 C 791.239 -1.47056 0.652938 0
M  V30 8311 O 792.431 -1.51645 0.91284 0
M  V30 8312 C 789.56 -2.77222 2.02491 0
M  V30 8313 C 788.646 -2.74811 3.23016 0
M  V30 8314 N 789.037 -2.42022 4.44138 0
M  V30 8315 C 787.335 -3.05943 3.24522 0
M  V30 8316 C 788.036 -2.48263 5.26061 0
M  V30 8317 N 787.012 -2.84567 4.63166 0
M  V30 8318 H 790.814 -1.13892 2.70935 0
M  V30 8319 H 788.328 -0.53536 1.53322 0
M  V30 8320 H 790.325 -3.54793 2.18923 0
M  V30 8321 H 788.985 -3.04582 1.12515 0
M  V30 8322 H 789.996 -2.14926 4.71197 0
M  V30 8323 H 786.673 -3.38367 2.44569 0
M  V30 8324 H 788.063 -2.2593 6.32776 0
M  V30 8325 N 790.784 -1.46188 -0.588786 0
M  V30 8326 C 791.714 -1.59148 -1.70863 0
M  V30 8327 C 792.695 -0.442083 -1.64255 0
M  V30 8328 O 793.88 -0.667575 -1.82365 0
M  V30 8329 C 791.01 -1.5757 -3.09498 0
M  V30 8330 C 789.964 -2.71418 -3.30932 0
M  V30 8331 C 789.29 -2.549 -4.70032 0
M  V30 8332 C 790.59 -4.1329 -3.19356 0
M  V30 8333 H 792.284 -2.52889 -1.60274 0
M  V30 8334 H 789.83 -1.21707 -0.769638 0
M  V30 8335 H 791.783 -1.65231 -3.87655 0
M  V30 8336 H 790.507 -0.603705 -3.20972 0
M  V30 8337 H 789.166 -2.63216 -2.55172 0
M  V30 8338 H 788.814 -1.55797 -4.78264 0
M  V30 8339 H 788.514 -3.31257 -4.85327 0
M  V30 8340 H 790.038 -2.64443 -5.50366 0
M  V30 8341 H 791.452 -4.22636 -3.87365 0
M  V30 8342 H 789.849 -4.90187 -3.46175 0
M  V30 8343 H 790.919 -4.33874 -2.16522 0
M  V30 8344 N 792.262 0.832906 -1.33792 0
M  V30 8345 C 793.225 1.92471 -1.24449 0
M  V30 8346 C 794.225 1.59981 -0.162085 0
M  V30 8347 O 795.415 1.69208 -0.414029 0
M  V30 8348 C 792.547 3.28278 -0.919044 0
M  V30 8349 H 793.74 2.0218 -2.21502 0
M  V30 8350 H 791.293 1.0257 -1.17936 0
M  V30 8351 H 792.028 3.24263 0.048738 0
M  V30 8352 H 791.813 3.53241 -1.70187 0
M  V30 8353 H 793.303 4.08253 -0.878576 0
M  V30 8354 N 793.74 1.17359 1.05189 0
M  V30 8355 C 794.986 0.963413 1.78455 0
M  V30 8356 C 795.319 -0.506703 1.87473 0
M  V30 8357 O 794.594 -1.37611 1.37453 0
M  V30 8358 C 794.877 1.60519 3.22344 0
M  V30 8359 C 794.73 3.14741 3.21338 0
M  V30 8360 C 796.049 1.3091 4.20179 0
M  V30 8361 H 793.168 0.351412 0.647826 0
M  V30 8362 H 795.81 1.44858 1.22948 0
M  V30 8363 H 793.96 1.19265 3.69741 0
M  V30 8364 H 795.632 3.65053 2.82017 0
M  V30 8365 H 793.875 3.4749 2.59679 0
M  V30 8366 H 794.546 3.54775 4.22894 0
M  V30 8367 H 797.022 1.66635 3.81277 0
M  V30 8368 H 795.898 1.784 5.191 0
M  V30 8369 H 796.159 0.229908 4.41502 0
M  V30 8370 N 795.218 -1.23913 0.973828 0
M  V30 8371 C 796.466 -1.91771 0.637817 0
M  V30 8372 C 796.787 -1.76434 -0.830435 0
M  V30 8373 O 796.057 -1.13965 -1.59339 0
M  V30 8374 H 794.637 -0.709761 0.232912 0
M  V30 8375 H 797.299 -1.50677 1.23622 0
M  V30 8376 H 796.395 -2.99327 0.883731 0
M  V30 8377 N 796.696 -0.74468 -1.38897 0
M  V30 8378 C 797.943 -0.296884 -2.00312 0
M  V30 8379 C 798.271 1.11878 -1.59102 0
M  V30 8380 O 797.526 1.7789 -0.815702 0
M  V30 8381 C 797.825 -0.357302 -3.55609 0
M  V30 8382 C 797.491 -1.72736 -4.16501 0
M  V30 8383 C 796.153 -2.10232 -4.32846 0
M  V30 8384 C 798.505 -2.62647 -4.50184 0
M  V30 8385 C 795.833 -3.3713 -4.80167 0
M  V30 8386 C 798.185 -3.88926 -4.98918 0
M  V30 8387 C 796.849 -4.26503 -5.1347 0
M  V30 8388 H 796.119 -0.108638 -0.732993 0
M  V30 8389 H 798.766 -0.953419 -1.66079 0
M  V30 8390 H 797.071 0.382805 -3.89925 0
M  V30 8391 H 798.768 0.0074596 -4.00999 0
M  V30 8392 H 795.358 -1.42585 -4.04187 0
M  V30 8393 H 799.542 -2.34945 -4.37166 0
M  V30 8394 H 794.798 -3.66174 -4.89619 0
M  V30 8395 H 798.972 -4.58745 -5.23952 0
M  V30 8396 H 796.599 -5.24896 -5.49898 0
M  V30 8397 N 798.174 1.49689 -0.493057 0
M  V30 8398 C 799.121 2.28976 0.28959 0
M  V30 8399 C 800.091 1.35011 0.967536 0
M  V30 8400 O 801.276 1.63964 0.975736 0
M  V30 8401 C 798.416 3.1748 1.35279 0
M  V30 8402 C 797.529 4.26496 0.687418 0
M  V30 8403 C 796.664 5.02226 1.73038 0
M  V30 8404 C 795.703 6.03089 1.04645 0
M  V30 8405 N 794.84 6.72014 2.03325 0
M  V30 8406 H 799.68 2.954 -0.392798 0
M  V30 8407 H 797.217 1.45657 -0.205554 0
M  V30 8408 H 799.175 3.67162 1.98111 0
M  V30 8409 H 797.805 2.53057 2.00405 0
M  V30 8410 H 796.857 3.80362 -0.0540001 0
M  V30 8411 H 798.169 4.98578 0.14864 0
M  V30 8412 H 797.323 5.55737 2.43395 0
M  V30 8413 H 796.062 4.29899 2.303 0
M  V30 8414 H 795.067 5.48817 0.328606 0
M  V30 8415 H 796.292 6.77398 0.480428 0
M  V30 8416 H 794.238 6.02464 2.59564 0
M  V30 8417 H 794.155 7.40046 1.54492 0
M  V30 8418 H 795.423 7.30133 2.72995 0
M  V30 8419 N 799.652 0.226554 1.55963 0
M  V30 8420 C 800.582 -0.676079 2.23498 0
M  V30 8421 C 801.563 -1.19718 1.20837 0
M  V30 8422 O 802.748 -1.24027 1.49436 0
M  V30 8423 C 799.878 -1.88217 2.91876 0
M  V30 8424 C 798.832 -1.4947 4.01052 0
M  V30 8425 C 798.158 -2.77997 4.56751 0
M  V30 8426 C 799.458 -0.680951 5.17842 0
M  V30 8427 H 801.152 -0.112989 2.99187 0
M  V30 8428 H 798.698 -0.0529046 1.43903 0
M  V30 8429 H 800.651 -2.51911 3.37815 0
M  V30 8430 H 799.375 -2.47031 2.13643 0
M  V30 8431 H 798.034 -0.881199 3.55852 0
M  V30 8432 H 797.682 -3.34966 3.75243 0
M  V30 8433 H 797.382 -2.52803 5.30438 0
M  V30 8434 H 798.906 -3.42625 5.05411 0
M  V30 8435 H 800.32 -1.22171 5.60131 0
M  V30 8436 H 798.717 -0.525898 5.97791 0
M  V30 8437 H 799.787 0.311346 4.83899 0
M  V30 8438 N 801.13 -1.57531 -0.0467866 0
M  V30 8439 C 802.06 -2.08425 -1.05268 0
M  V30 8440 C 803.041 -0.982941 -1.38825 0
M  V30 8441 O 804.226 -1.25716 -1.48018 0
M  V30 8442 C 801.356 -2.54897 -2.35891 0
M  V30 8443 C 800.31 -3.69132 -2.16623 0
M  V30 8444 C 799.636 -4.01747 -3.52851 0
M  V30 8445 C 800.936 -4.98243 -1.56689 0
M  V30 8446 H 802.63 -2.92716 -0.62908 0
M  V30 8447 H 800.176 -1.40816 -0.301156 0
M  V30 8448 H 802.129 -2.8912 -3.06574 0
M  V30 8449 H 800.853 -1.67666 -2.80278 0
M  V30 8450 H 799.512 -3.35231 -1.48377 0
M  V30 8451 H 799.16 -3.11608 -3.94853 0
M  V30 8452 H 798.86 -4.78681 -3.4079 0
M  V30 8453 H 800.384 -4.38487 -4.24925 0
M  V30 8454 H 801.798 -5.30535 -2.17268 0
M  V30 8455 H 800.195 -5.79669 -1.55255 0
M  V30 8456 H 801.265 -4.81986 -0.530827 0
M  V30 8457 N 802.608 0.318715 -1.54344 0
M  V30 8458 C 803.54 1.41364 -1.80413 0
M  V30 8459 C 804.553 1.47627 -0.686294 0
M  V30 8460 O 805.742 1.50264 -0.963486 0
M  V30 8461 C 802.842 2.79867 -1.91123 0
M  V30 8462 C 802.015 2.96749 -3.21339 0
M  V30 8463 C 801.074 4.15642 -3.22689 0
M  V30 8464 O 800.1 4.08571 -3.96306 0
M  V30 8465 N 801.302 5.25416 -2.46817 0
M  V30 8466 H 804.067 1.19363 -2.74905 0
M  V30 8467 H 801.628 0.508722 -1.537 0
M  V30 8468 H 803.62 3.57619 -1.89448 0
M  V30 8469 H 802.19 2.94896 -1.03706 0
M  V30 8470 H 801.41 2.06257 -3.35934 0
M  V30 8471 H 802.698 3.04927 -4.07304 0
M  V30 8472 H 802.096 5.34037 -1.86605 0
M  V30 8473 H 800.653 6.01569 -2.50915 0
M  V30 8474 N 804.086 1.46499 0.581025 0
M  V30 8475 C 804.996 1.59778 1.71779 0
M  V30 8476 C 806.012 0.481223 1.67213 0
M  V30 8477 O 807.188 0.74557 1.87091 0
M  V30 8478 C 804.253 1.58626 3.08283 0
M  V30 8479 C 803.314 2.81527 3.241 0
M  V30 8480 C 802.547 2.80421 4.54092 0
M  V30 8481 O 802.77 1.89262 5.38085 0
M  V30 8482 O 801.704 3.71984 4.73193 0
M  V30 8483 H 805.53 2.55918 1.63523 0
M  V30 8484 H 803.115 1.29311 0.748267 0
M  V30 8485 H 804.997 1.60686 3.89561 0
M  V30 8486 H 803.672 0.656467 3.16973 0
M  V30 8487 H 802.579 2.85021 2.42309 0
M  V30 8488 H 803.912 3.73721 3.20302 0
M  V30 8489 N 805.565 -0.825799 1.34232 0
M  V30 8490 C 806.475 -1.9684 1.27638 0
M  V30 8491 C 807.491 -1.73018 0.184569 0
M  V30 8492 O 808.667 -1.97172 0.410525 0
M  V30 8493 C 805.732 -3.31084 1.02879 0
M  V30 8494 C 804.793 -3.67933 2.21188 0
M  V30 8495 C 804.026 -4.95772 1.976 0
M  V30 8496 O 804.249 -5.62721 0.93281 0
M  V30 8497 O 803.183 -5.30431 2.84477 0
M  V30 8498 H 807.009 -2.05346 2.23756 0
M  V30 8499 H 804.594 -0.960772 1.1441 0
M  V30 8500 H 806.476 -4.11492 0.908406 0
M  V30 8501 H 805.151 -3.23552 0.0979821 0
M  V30 8502 H 804.058 -2.87981 2.38784 0
M  V30 8503 H 805.391 -3.80147 3.12648 0
M  V30 8504 N 807.043 -1.17915 -1.04565 0
M  V30 8505 C 807.991 -0.897919 -2.1457 0
M  V30 8506 C 808.985 0.139883 -1.68821 0
M  V30 8507 O 810.191 -0.00779463 -1.79998 0
M  V30 8508 H 806.566 -0.272867 -0.700748 0
M  V30 8509 H 808.537 -1.83268 -2.3549 0
M  V30 8510 C 807.286 -0.434634 -3.44973 0
M  V30 8511 H 806.609 -1.22469 -3.8058 0
M  V30 8512 H 808.049 -0.276804 -4.23095 0
M  V30 8513 C 806.508 0.848738 -3.26034 0
M  V30 8514 O 807.038 1.9141 -3.53164 0
M  V30 8515 N 805.244 0.799373 -2.79389 0
M  V30 8516 H 804.791 -0.0678192 -2.57511 0
M  V30 8517 H 804.749 1.6585 -2.67098 0
M  V30 8518 N 808.521 1.23394 -0.980386 0
M  V30 8519 C 809.761 1.93543 -0.657288 0
M  V30 8520 C 810.125 1.74791 0.794477 0
M  V30 8521 O 811.326 2.39089 1.2284 0
M  V30 8522 C 809.597 3.42025 -1.03701 0
M  V30 8523 S 811.156 4.30871 -0.830379 0
M  V30 8524 H 807.974 0.669012 -0.240717 0
M  V30 8525 H 810.576 1.49478 -1.26002 0
M  V30 8526 H 809.28 3.53183 -2.09022 0
M  V30 8527 H 808.811 3.91091 -0.425559 0
M  V30 8528 H 810.826 4.95377 0.285719 0
M  V30 8529 N 809.999 0.752036 1.385 0
M  V30 8530 C 811.276 0.233075 1.94206 0
M  V30 8531 C 811.656 -1.26838 1.68746 0
M  V30 8532 O 811.004 -2.04214 1.02513 0
M  V30 8533 C 811.214 0.58509 3.44061 0
M  V30 8534 C 812.562 0.543871 4.21102 0
M  V30 8535 O 813.586 0.523291 3.52335 0
M  V30 8536 O 812.445 0.553436 5.4369 0
M  V30 8537 H 809.539 0.0483049 0.825588 0
M  V30 8538 H 812.085 0.832053 1.47902 0
M  V30 8539 H 810.857 1.62212 3.56094 0
M  V30 8540 H 810.48 -0.0419738 3.97578 0
M  V30 8541 N 811.477 -1.49425 0.500989 0
M  V30 8542 C 812.726 -2.01649 -0.04538 0
M  V30 8543 C 813.039 -1.38572 -1.38047 0
M  V30 8544 O 814.245 -1.82124 -2.01353 0
M  V30 8545 C 812.701 -3.5966 -0.131337 0
M  V30 8546 C 812.309 -4.3171 1.19711 0
M  V30 8547 C 814.053 -4.19828 -0.628071 0
M  V30 8548 C 811.96 -5.81579 1.07332 0
M  V30 8549 H 810.89 -0.753715 -0.0207329 0
M  V30 8550 H 813.541 -1.71962 0.640407 0
M  V30 8551 H 811.923 -3.86063 -0.881574 0
M  V30 8552 H 813.097 -4.17008 1.96064 0
M  V30 8553 H 811.412 -3.83286 1.62729 0
M  V30 8554 H 814.009 -5.2958 -0.738198 0
M  V30 8555 H 814.352 -3.83194 -1.6269 0
M  V30 8556 H 814.885 -3.97746 0.0656314 0
M  V30 8557 H 811.624 -6.22738 2.04642 0
M  V30 8558 H 811.144 -5.98774 0.350679 0
M  V30 8559 H 812.823 -6.42614 0.752047 0
M  V30 8560 N 812.955 -0.234822 -1.55841 0
M  V30 8561 C 814.202 0.39326 -1.98645 0
M  V30 8562 C 814.53 1.58823 -1.12274 0
M  V30 8563 O 813.785 1.94954 -0.170731 0
M  V30 8564 C 814.084 0.858032 -3.46947 0
M  V30 8565 C 813.75 -0.227858 -4.50324 0
M  V30 8566 C 812.412 -0.526128 -4.78315 0
M  V30 8567 C 814.764 -0.961576 -5.12253 0
M  V30 8568 C 812.092 -1.5624 -5.65514 0
M  V30 8569 C 814.444 -1.98728 -6.00575 0
M  V30 8570 C 813.108 -2.29233 -6.26904 0
M  V30 8571 H 812.378 0.143904 -0.726892 0
M  V30 8572 H 815.025 -0.34012 -1.88455 0
M  V30 8573 H 813.33 1.67041 -3.54408 0
M  V30 8574 H 815.027 1.35407 -3.77447 0
M  V30 8575 H 811.617 0.0147624 -4.28597 0
M  V30 8576 H 815.801 -0.744388 -4.90686 0
M  V30 8577 H 811.057 -1.80422 -5.84173 0
M  V30 8578 H 815.231 -2.5608 -6.47608 0
M  V30 8579 H 812.858 -3.09671 -6.94268 0
M  V30 8580 N 814.433 1.57553 0.0384317 0
M  V30 8581 C 815.365 2.02726 1.06934 0
M  V30 8582 C 816.378 0.938502 1.33026 0
M  V30 8583 O 817.567 1.21595 1.30678 0
M  V30 8584 C 814.667 2.37958 2.41308 0
M  V30 8585 C 813.84 3.69098 2.34703 0
M  V30 8586 C 812.899 3.91623 3.51451 0
M  V30 8587 O 811.925 4.628 3.31368 0
M  V30 8588 N 813.127 3.36538 4.72993 0
M  V30 8589 H 815.892 2.91781 0.684381 0
M  V30 8590 H 813.453 1.60307 0.226542 0
M  V30 8591 H 815.445 2.50172 3.18113 0
M  V30 8592 H 814.015 1.54621 2.71682 0
M  V30 8593 H 813.235 3.67325 1.43059 0
M  V30 8594 H 814.523 4.55144 2.27424 0
M  V30 8595 H 813.921 2.78828 4.92211 0
M  V30 8596 H 812.478 3.54148 5.47195 0
M  V30 8597 N 815.911 -0.310526 1.54511 0
M  V30 8598 C 816.859 -1.40272 1.85544 0
M  V30 8599 C 817.853 -1.52941 0.728377 0
M  V30 8600 O 819.059 -1.55172 0.912234 0
M  V30 8601 H 815.434 -0.468355 0.588343 0
M  V30 8602 H 817.405 -1.11329 2.76855 0
M  V30 8603 C 816.154 -2.76279 2.11105 0
M  V30 8604 H 815.477 -2.67308 2.97298 0
M  V30 8605 H 816.917 -3.51736 2.36765 0
M  V30 8606 C 815.376 -3.24472 0.906618 0
M  V30 8607 O 815.906 -4.01514 0.122358 0
M  V30 8608 N 814.112 -2.81676 0.714632 0
M  V30 8609 H 813.659 -2.19143 1.35404 0
M  V30 8610 H 813.617 -3.14272 -0.089703 0
M  V30 8611 N 817.389 -1.46805 -0.573248 0
M  V30 8612 C 818.319 -1.60951 -1.69165 0
M  V30 8613 C 819.3 -0.45948 -1.63777 0
M  V30 8614 O 820.485 -0.68688 -1.81647 0
M  V30 8615 C 817.615 -1.60844 -3.07809 0
M  V30 8616 C 816.569 -2.74913 -3.28035 0
M  V30 8617 C 815.895 -2.59871 -4.67302 0
M  V30 8618 C 817.195 -4.16654 -3.14955 0
M  V30 8619 H 818.889 -2.54574 -1.57582 0
M  V30 8620 H 816.435 -1.22516 -0.756686 0
M  V30 8621 H 818.388 -1.69334 -3.85881 0
M  V30 8622 H 817.112 -0.637714 -3.20314 0
M  V30 8623 H 815.771 -2.65908 -2.52366 0
M  V30 8624 H 815.419 -1.60861 -4.76585 0
M  V30 8625 H 815.119 -3.36386 -4.81786 0
M  V30 8626 H 816.643 -2.70265 -5.4753 0
M  V30 8627 H 818.057 -4.26721 -3.82861 0
M  V30 8628 H 816.454 -4.93831 -3.40956 0
M  V30 8629 H 817.524 -4.36146 -2.11908 0
M  V30 8630 N 818.867 0.818669 -1.34668 0
M  V30 8631 C 820.095 1.60674 -1.30351 0
M  V30 8632 C 820.51 1.88408 0.121546 0
M  V30 8633 O 819.867 1.47849 1.06991 0
M  V30 8634 C 819.918 2.94516 -2.09625 0
M  V30 8635 O 819.639 2.6799 -3.46573 0
M  V30 8636 C 821.14 3.8891 -2.12754 0
M  V30 8637 H 818.36 0.499306 -0.448258 0
M  V30 8638 H 820.904 1.01828 -1.77345 0
M  V30 8639 H 819.059 3.49908 -1.66262 0
M  V30 8640 H 819.473 3.53361 -3.87603 0
M  V30 8641 H 820.947 4.79972 -2.72637 0
M  V30 8642 H 821.424 4.24599 -1.12306 0
M  V30 8643 H 822.03 3.39453 -2.56225 0
M  V30 8644 N 820.346 1.18468 1.03938 0
M  V30 8645 C 821.293 0.912859 2.1198 0
M  V30 8646 C 822.263 -0.14824 1.65437 0
M  V30 8647 O 823.448 -0.008331 1.90798 0
M  V30 8648 C 820.588 0.446114 3.42204 0
M  V30 8649 C 819.701 1.57278 4.02353 0
M  V30 8650 C 818.836 1.05863 5.20544 0
M  V30 8651 C 817.875 2.1599 5.72726 0
M  V30 8652 N 817.012 1.65959 6.82204 0
M  V30 8653 H 821.852 1.83798 2.34569 0
M  V30 8654 H 819.389 0.916504 1.15059 0
M  V30 8655 H 821.347 0.15697 4.16905 0
M  V30 8656 H 819.977 -0.442025 3.19759 0
M  V30 8657 H 819.029 1.97737 3.24968 0
M  V30 8658 H 820.341 2.40289 4.37107 0
M  V30 8659 H 819.495 0.724087 6.02364 0
M  V30 8660 H 818.234 0.198116 4.87297 0
M  V30 8661 H 817.239 2.50287 4.89527 0
M  V30 8662 H 818.464 3.02479 6.08016 0
M  V30 8663 H 816.41 0.82199 6.5083 0
M  V30 8664 H 816.327 2.42567 7.16029 0
M  V30 8665 H 817.595 1.35436 7.67644 0
M  V30 8666 N 821.824 -1.22873 0.986916 0
M  V30 8667 C 822.771 -2.2458 0.532215 0
M  V30 8668 C 823.741 -1.60375 -0.432322 0
M  V30 8669 O 824.926 -1.87775 -0.338416 0
M  V30 8670 C 822.066 -3.44761 -0.152864 0
M  V30 8671 C 821.179 -4.23501 0.852704 0
M  V30 8672 C 820.314 -5.31011 0.14176 0
M  V30 8673 C 819.353 -6.01464 1.1361 0
M  V30 8674 N 818.49 -7.00631 0.453871 0
M  V30 8675 H 823.33 -2.62838 1.40428 0
M  V30 8676 H 820.867 -1.29185 0.703543 0
M  V30 8677 H 822.825 -4.1333 -0.566926 0
M  V30 8678 H 821.455 -3.07284 -0.988756 0
M  V30 8679 H 820.507 -3.54286 1.38512 0
M  V30 8680 H 821.819 -4.72097 1.61014 0
M  V30 8681 H 820.973 -6.05805 -0.329337 0
M  V30 8682 H 819.712 -4.83373 -0.648229 0
M  V30 8683 H 818.717 -5.25456 1.61789 0
M  V30 8684 H 819.942 -6.5119 1.92686 0
M  V30 8685 H 817.888 -6.55235 -0.316791 0
M  V30 8686 H 817.805 -7.47204 1.14986 0
M  V30 8687 H 819.073 -7.795 0.00537823 0
M  V30 8688 N 823.302 -0.75937 -1.38099 0
M  V30 8689 C 824.234 -0.0956547 -2.29 0
M  V30 8690 C 825.247 0.677561 -1.4803 0
M  V30 8691 O 826.436 0.517696 -1.70828 0
M  V30 8692 C 823.536 0.88844 -3.27047 0
M  V30 8693 C 822.709 0.171652 -4.37063 0
M  V30 8694 C 821.768 1.06733 -5.15262 0
M  V30 8695 O 820.794 0.535698 -5.66674 0
M  V30 8696 N 821.996 2.39486 -5.28797 0
M  V30 8697 H 824.761 -0.876354 -2.86601 0
M  V30 8698 H 822.322 -0.61065 -1.49942 0
M  V30 8699 H 824.314 1.49079 -3.76241 0
M  V30 8700 H 822.884 1.57018 -2.70304 0
M  V30 8701 H 822.104 -0.611473 -3.89429 0
M  V30 8702 H 823.392 -0.324121 -5.07767 0
M  V30 8703 H 822.79 2.85127 -4.88589 0
M  V30 8704 H 821.347 2.94758 -5.81344 0
M  V30 8705 N 824.78 1.49157 -0.508906 0
M  V30 8706 C 826.196 1.58741 -0.165372 0
M  V30 8707 C 826.396 1.5133 1.33047 0
M  V30 8708 O 825.452 1.39135 2.10707 0
M  V30 8709 C 826.765 2.91217 -0.749194 0
M  V30 8710 C 828.313 3.047 -0.716015 0
M  V30 8711 C 828.788 4.39807 -1.27804 0
M  V30 8712 N 830.279 4.46319 -1.23908 0
M  V30 8713 C 831.014 5.49325 -1.64406 0
M  V30 8714 N 830.51 6.59395 -2.12534 0
M  V30 8715 N 832.303 5.40084 -1.55773 0
M  V30 8716 H 824.454 1.52217 -1.48134 0
M  V30 8717 H 826.717 0.721514 -0.614915 0
M  V30 8718 H 826.423 3.02233 -1.79856 0
M  V30 8719 H 826.297 3.76592 -0.214144 0
M  V30 8720 H 828.684 2.9331 0.324535 0
M  V30 8721 H 828.765 2.2099 -1.2883 0
M  V30 8722 H 828.409 4.5195 -2.31741 0
M  V30 8723 H 828.339 5.2217 -0.681623 0
M  V30 8724 H 830.83 3.67354 -0.886537 0
M  V30 8725 H 831.143 7.34102 -2.41485 0
M  V30 8726 H 829.488 6.60414 -2.16513 0
M  V30 8727 H 832.679 4.52986 -1.17987 0
M  V30 8728 H 832.852 6.20233 -1.87657 0
M  V30 8729 N 826.258 0.243083 1.55714 0
M  V30 8730 C 827.19 -0.690766 2.18543 0
M  V30 8731 C 828.203 -1.14163 1.16064 0
M  V30 8732 O 829.392 -1.06906 1.42946 0
M  V30 8733 C 826.492 -1.95016 2.77168 0
M  V30 8734 C 825.665 -1.65137 4.05029 0
M  V30 8735 C 824.724 -2.75998 4.48009 0
M  V30 8736 O 823.75 -2.43547 5.14464 0
M  V30 8737 N 824.952 -4.05414 4.15476 0
M  V30 8738 H 827.717 -0.153203 2.99308 0
M  V30 8739 H 825.278 0.0628968 1.61778 0
M  V30 8740 H 827.27 -2.68414 3.0288 0
M  V30 8741 H 825.84 -2.39762 2.00582 0
M  V30 8742 H 825.06 -0.752768 3.86946 0
M  V30 8743 H 826.348 -1.42633 4.88399 0
M  V30 8744 H 825.746 -4.34613 3.62116 0
M  V30 8745 H 824.303 -4.75288 4.46032 0
M  V30 8746 N 827.736 -1.57571 -0.0300757 0
M  V30 8747 C 828.961 -1.93879 -0.736601 0
M  V30 8748 C 829.386 -0.842998 -1.68152 0
M  V30 8749 O 828.744 0.20135 -1.80178 0
M  V30 8750 C 828.792 -3.29247 -1.47066 0
M  V30 8751 O 827.896 -3.21426 -2.58378 0
M  V30 8752 H 827.237 -0.633735 -0.198181 0
M  V30 8753 H 829.767 -2.04595 0.0141485 0
M  V30 8754 H 829.777 -3.64113 -1.84081 0
M  V30 8755 H 828.452 -4.08565 -0.77764 0
M  V30 8756 H 827.029 -2.98189 -2.23914 0
M  V30 8757 N 829.214 0.302327 -1.54673 0
M  V30 8758 C 830.144 1.37759 -1.88533 0
M  V30 8759 C 831.125 1.52961 -0.744113 0
M  V30 8760 O 832.31 1.6649 -0.999731 0
M  V30 8761 C 829.44 2.74201 -2.13146 0
M  V30 8762 C 828.394 2.73765 -3.28993 0
M  V30 8763 C 827.72 4.13483 -3.39022 0
M  V30 8764 C 829.02 2.35624 -4.66132 0
M  V30 8765 H 830.714 1.0967 -2.78591 0
M  V30 8766 H 828.26 0.52613 -1.34044 0
M  V30 8767 H 830.213 3.49508 -2.35419 0
M  V30 8768 H 828.937 3.03812 -1.19858 0
M  V30 8769 H 827.596 2.00914 -3.06642 0
M  V30 8770 H 827.244 4.40269 -2.43253 0
M  V30 8771 H 826.944 4.14093 -4.16894 0
M  V30 8772 H 828.468 4.90572 -3.63553 0
M  V30 8773 H 829.882 3.00647 -4.88143 0
M  V30 8774 H 828.279 2.47449 -5.46707 0
M  V30 8775 H 829.349 1.30753 -4.66939 0
M  V30 8776 N 830.692 1.47107 0.565454 0
M  V30 8777 C 832.108 1.32443 0.890566 0
M  V30 8778 C 832.308 0.308735 1.99121 0
M  V30 8779 O 831.364 -0.28265 2.50913 0
M  V30 8780 C 832.677 2.71548 1.2916 0
M  V30 8781 C 834.225 2.7977 1.40349 0
M  V30 8782 C 834.7 4.19497 1.83811 0
M  V30 8783 N 836.191 4.21998 1.90975 0
M  V30 8784 C 836.926 5.2702 2.25916 0
M  V30 8785 N 836.422 6.42353 2.59527 0
M  V30 8786 N 838.215 5.14393 2.26619 0
M  V30 8787 H 830.366 2.11786 -0.161328 0
M  V30 8788 H 832.629 0.947952 -0.00950631 0
M  V30 8789 H 832.335 3.47265 0.556753 0
M  V30 8790 H 832.209 3.02782 2.24951 0
M  V30 8791 H 834.596 2.0433 2.12916 0
M  V30 8792 H 834.677 2.522 0.427655 0
M  V30 8793 H 834.321 4.95439 1.11816 0
M  V30 8794 H 834.251 4.44486 2.82382 0
M  V30 8795 H 836.742 3.38791 1.6742 0
M  V30 8796 H 837.055 7.18252 2.85191 0
M  V30 8797 H 835.4 6.45687 2.57126 0
M  V30 8798 H 838.591 4.2332 1.99794 0
M  V30 8799 H 838.764 5.96349 2.5352 0
M  V30 8800 N 832.17 -0.811516 1.35101 0
M  V30 8801 C 833.117 -1.92308 1.27617 0
M  V30 8802 C 834.087 -1.6543 0.149091 0
M  V30 8803 O 835.272 -1.8789 0.331974 0
M  V30 8804 C 832.412 -3.28768 1.04908 0
M  V30 8805 C 831.525 -3.67865 2.26493 0
M  V30 8806 C 830.66 -4.9333 1.96974 0
M  V30 8807 C 829.699 -5.25041 3.1464 0
M  V30 8808 N 828.836 -6.41685 2.84929 0
M  V30 8809 H 833.676 -1.98041 2.22674 0
M  V30 8810 H 831.213 -0.968755 1.10696 0
M  V30 8811 H 833.171 -4.07426 0.897749 0
M  V30 8812 H 831.801 -3.22517 0.135151 0
M  V30 8813 H 830.853 -2.84507 2.52507 0
M  V30 8814 H 832.165 -3.87263 3.14371 0
M  V30 8815 H 831.319 -5.79803 1.78643 0
M  V30 8816 H 830.058 -4.75958 1.06374 0
M  V30 8817 H 829.063 -4.3706 3.33554 0
M  V30 8818 H 830.288 -5.44346 4.06035 0
M  V30 8819 H 828.234 -6.25747 1.96918 0
M  V30 8820 H 828.151 -6.6131 3.66341 0
M  V30 8821 H 829.419 -7.31198 2.70128 0
M  V30 8822 N 833.648 -1.19017 -1.03309 0
M  V30 8823 C 834.581 -0.867457 -2.1107 0
M  V30 8824 C 835.559 0.173752 -1.61669 0
M  V30 8825 O 836.743 0.0510077 -1.88431 0
M  V30 8826 C 833.87 -0.297459 -3.37391 0
M  V30 8827 C 832.916 -1.31706 -4.05655 0
M  V30 8828 S 833.749 -2.87591 -4.51721 0
M  V30 8829 C 834.905 -2.32122 -5.81266 0
M  V30 8830 H 835.138 -1.78008 -2.38119 0
M  V30 8831 H 832.671 -1.01686 -1.16187 0
M  V30 8832 H 834.629 0.0248889 -4.10492 0
M  V30 8833 H 833.29 0.5934 -3.08444 0
M  V30 8834 H 832.483 -0.867264 -4.96482 0
M  V30 8835 H 832.085 -1.58603 -3.38705 0
M  V30 8836 H 834.377 -1.70855 -6.55603 0
M  V30 8837 H 835.32 -3.2128 -6.31019 0
M  V30 8838 H 835.728 -1.74858 -5.36736 0
M  V30 8839 N 835.127 1.22348 -0.993418 0
M  V30 8840 C 836.373 1.91393 -0.67056 0
M  V30 8841 C 836.706 1.77163 0.795428 0
M  V30 8842 O 835.981 1.14084 1.57528 0
M  V30 8843 C 836.264 3.43589 -1.0779 0
M  V30 8844 C 836.117 3.66867 -2.60248 0
M  V30 8845 C 837.436 4.35545 -0.631527 0
M  V30 8846 H 834.555 0.695057 -0.24508 0
M  V30 8847 H 837.197 1.44213 -1.23703 0
M  V30 8848 H 835.347 3.83903 -0.595902 0
M  V30 8849 H 837.019 3.35954 -3.16121 0
M  V30 8850 H 835.262 3.1113 -3.02293 0
M  V30 8851 H 835.933 4.73457 -2.838 0
M  V30 8852 H 838.409 4.0275 -1.04554 0
M  V30 8853 H 837.285 5.40707 -0.944831 0
M  V30 8854 H 837.546 4.39618 0.467779 0
M  V30 8855 N 836.605 0.766683 1.37694 0
M  V30 8856 C 837.854 0.325425 1.99057 0
M  V30 8857 C 838.167 -1.10275 1.61551 0
M  V30 8858 O 839.373 -1.64513 2.1598 0
M  V30 8859 C 837.829 0.530886 3.55963 0
M  V30 8860 C 837.437 1.96899 4.02411 0
M  V30 8861 C 839.181 0.152997 4.24224 0
M  V30 8862 C 837.088 2.12232 5.52007 0
M  V30 8863 H 836.018 0.117929 0.744721 0
M  V30 8864 H 838.669 0.945091 1.5729 0
M  V30 8865 H 837.051 -0.158162 3.95684 0
M  V30 8866 H 838.225 2.69258 3.73948 0
M  V30 8867 H 836.54 2.303 3.46916 0
M  V30 8868 H 839.137 0.24614 5.34133 0
M  V30 8869 H 839.48 -0.896096 4.06541 0
M  V30 8870 H 840.013 0.794398 3.89787 0
M  V30 8871 H 836.752 3.15442 5.7461 0
M  V30 8872 H 836.272 1.4435 5.82171 0
M  V30 8873 H 837.951 1.9185 6.17902 0
M  V30 8874 N 838.083 -1.48885 0.516809 0
M  V30 8875 C 839.36 -1.95412 -0.0858293 0
M  V30 8876 C 839.74 -1.45875 -1.5259 0
M  V30 8877 O 839.088 -0.679415 -2.18166 0
M  V30 8878 C 839.298 -3.48995 0.0178194 0
M  V30 8879 C 840.646 -4.24342 -0.14813 0
M  V30 8880 O 841.67 -3.56155 -0.0566125 0
M  V30 8881 O 840.529 -5.45454 -0.338035 0
M  V30 8882 H 837.623 -0.822455 -0.0865884 0
M  V30 8883 H 840.169 -1.59464 0.580472 0
M  V30 8884 H 838.941 -3.77732 1.02147 0
M  V30 8885 H 838.564 -3.91604 -0.687924 0
M  V30 8886 N 839.561 -0.251338 -1.55583 0
M  V30 8887 C 840.81 0.372681 -1.98227 0
M  V30 8888 C 841.123 1.58743 -1.1428 0
M  V30 8889 O 842.329 2.28289 -1.46957 0
M  V30 8890 C 840.785 0.714439 -3.52738 0
M  V30 8891 C 840.393 -0.479168 -4.4543 0
M  V30 8892 C 842.137 1.3024 -4.04027 0
M  V30 8893 C 840.044 -0.113318 -5.91291 0
M  V30 8894 H 838.974 0.14302 -0.740312 0
M  V30 8895 H 841.625 -0.352253 -1.80087 0
M  V30 8896 H 840.007 1.49762 -3.66589 0
M  V30 8897 H 841.181 -1.25644 -4.4334 0
M  V30 8898 H 839.496 -0.982359 -4.04646 0
M  V30 8899 H 842.093 1.58953 -5.10527 0
M  V30 8900 H 842.436 2.22837 -3.51638 0
M  V30 8901 H 842.969 0.582024 -3.93519 0
M  V30 8902 H 839.708 -1.00654 -6.47726 0
M  V30 8903 H 839.228 0.627666 -5.96507 0
M  V30 8904 H 840.907 0.30293 -6.4629 0
M  V30 8905 N 841.039 1.57585 0.0217189 0
M  V30 8906 C 842.285 1.89887 0.712099 0
M  V30 8907 C 842.618 0.849971 1.74611 0
M  V30 8908 O 841.893 -0.13407 1.94037 0
M  V30 8909 C 842.176 3.32815 1.37499 0
M  V30 8910 C 842.029 4.48405 0.353993 0
M  V30 8911 C 843.348 3.74786 2.30703 0
M  V30 8912 H 840.467 0.690588 0.257405 0
M  V30 8913 H 843.109 1.89983 -0.0251145 0
M  V30 8914 H 841.259 3.32863 2.00335 0
M  V30 8915 H 842.931 4.60491 -0.273015 0
M  V30 8916 H 841.174 4.32573 -0.32599 0
M  V30 8917 H 841.845 5.45316 0.85644 0
M  V30 8918 H 844.321 3.76151 1.77904 0
M  V30 8919 H 843.197 4.75585 2.74061 0
M  V30 8920 H 843.458 3.07449 3.17691 0
M  V30 8921 N 842.517 -0.29412 1.54831 0
M  V30 8922 C 843.447 -1.36757 1.89261 0
M  V30 8923 C 844.428 -1.52564 0.752214 0
M  V30 8924 O 845.613 -1.65958 1.00855 0
M  V30 8925 C 842.743 -2.73066 2.14597 0
M  V30 8926 C 841.697 -2.72017 3.3044 0
M  V30 8927 C 841.023 -4.11679 3.4121 0
M  V30 8928 C 842.323 -2.33149 4.67375 0
M  V30 8929 H 844.017 -1.08191 2.79169 0
M  V30 8930 H 841.563 -0.519014 1.34321 0
M  V30 8931 H 843.516 -3.48255 2.37269 0
M  V30 8932 H 842.24 -3.03172 1.21467 0
M  V30 8933 H 840.899 -1.99285 3.07703 0
M  V30 8934 H 840.547 -4.38973 2.45584 0
M  V30 8935 H 840.247 -4.11877 4.19084 0
M  V30 8936 H 841.771 -4.88637 3.6615 0
M  V30 8937 H 843.185 -2.98054 4.89731 0
M  V30 8938 H 841.582 -2.44546 5.48012 0
M  V30 8939 H 842.652 -1.28275 4.67626 0
M  V30 8940 N 843.995 -1.47404 -0.557645 0
M  V30 8941 C 844.958 -1.59411 -1.64684 0
M  V30 8942 C 845.958 -0.469244 -1.53801 0
M  V30 8943 O 847.148 -0.734298 -1.57967 0
M  V30 8944 C 844.28 -1.5382 -3.04224 0
M  V30 8945 H 845.473 -2.56504 -1.55389 0
M  V30 8946 H 843.026 -1.35588 -0.777531 0
M  V30 8947 H 843.761 -0.581 -3.19053 0
M  V30 8948 H 843.546 -2.35456 -3.13533 0
M  V30 8949 H 845.036 -1.65358 -3.83466 0
M  V30 8950 N 845.473 0.80434 -1.35529 0
M  V30 8951 C 846.701 1.59283 -1.32048 0
M  V30 8952 C 847.116 1.88527 0.101556 0
M  V30 8953 O 846.473 1.48975 1.05417 0
M  V30 8954 C 846.524 2.92276 -2.12737 0
M  V30 8955 O 846.245 2.64299 -3.49396 0
M  V30 8956 C 847.746 3.86631 -2.16867 0
M  V30 8957 H 844.966 0.494523 -0.453528 0
M  V30 8958 H 847.51 0.999415 -1.78415 0
M  V30 8959 H 845.665 3.48125 -1.69964 0
M  V30 8960 H 846.079 3.4923 -3.91329 0
M  V30 8961 H 847.553 4.77053 -2.77712 0
M  V30 8962 H 848.03 4.23384 -1.16803 0
M  V30 8963 H 848.636 3.36717 -2.59811 0
M  V30 8964 N 846.951 1.19563 1.02676 0
M  V30 8965 C 848.228 0.908857 1.73203 0
M  V30 8966 C 848.608 -0.584928 2.02834 0
M  V30 8967 O 847.956 -1.54372 1.68469 0
M  V30 8968 C 848.166 1.77105 3.00724 0
M  V30 8969 C 849.514 2.00667 3.7419 0
M  V30 8970 O 850.538 1.74274 3.10656 0
M  V30 8971 O 849.397 2.4518 4.88415 0
M  V30 8972 H 846.491 0.338909 0.754367 0
M  V30 8973 H 849.037 1.30387 1.08616 0
M  V30 8974 H 847.809 2.78303 2.7507 0
M  V30 8975 H 847.432 1.37546 3.73051 0
M  V30 8976 N 848.429 -1.21819 0.999893 0
M  V30 8977 C 849.362 -2.22635 0.500887 0
M  V30 8978 C 850.34 -1.56459 -0.442636 0
M  V30 8979 O 851.524 -1.84902 -0.366551 0
M  V30 8980 C 848.651 -3.37598 -0.273046 0
M  V30 8981 C 847.697 -4.22006 0.617511 0
M  V30 8982 S 848.53 -4.93583 2.07693 0
M  V30 8983 C 849.686 -6.1198 1.31269 0
M  V30 8984 H 849.919 -2.64618 1.35516 0
M  V30 8985 H 847.452 -1.31606 0.807419 0
M  V30 8986 H 849.41 -4.04251 -0.713515 0
M  V30 8987 H 848.071 -2.94108 -1.10268 0
M  V30 8988 H 847.264 -5.03995 0.0216543 0
M  V30 8989 H 846.866 -3.6052 0.99504 0
M  V30 8990 H 849.158 -6.74979 0.583933 0
M  V30 8991 H 850.101 -6.75991 2.10811 0
M  V30 8992 H 850.509 -5.5847 0.822901 0
M  V30 8993 N 849.908 -0.773975 -1.37286 0
M  V30 8994 C 851.133 -0.349561 -2.04433 0
M  V30 8995 C 851.558 1.02082 -1.5799 0
M  V30 8996 O 850.916 1.65458 -0.741172 0
M  V30 8997 C 850.964 -0.404292 -3.58326 0
M  V30 8998 O 850.068 0.594447 -4.08093 0
M  V30 8999 H 849.409 -0.150959 -0.646612 0
M  V30 9000 H 851.939 -1.05079 -1.75555 0
M  V30 9001 H 851.949 -0.262378 -4.07155 0
M  V30 9002 H 850.624 -1.40403 -3.91484 0
M  V30 9003 H 849.201 0.415468 -3.70578 0
M  V30 9004 N 851.386 1.48609 -0.524698 0
M  V30 9005 C 852.333 2.29539 0.240956 0
M  V30 9006 C 853.303 1.37033 0.938681 0
M  V30 9007 O 854.488 1.65996 0.940737 0
M  V30 9008 C 851.628 3.20278 1.28514 0
M  V30 9009 C 850.741 4.27858 0.596798 0
M  V30 9010 C 849.876 5.05784 1.62346 0
M  V30 9011 C 848.915 6.05173 0.918287 0
M  V30 9012 N 848.052 6.76176 1.89025 0
M  V30 9013 H 852.892 2.945 -0.455368 0
M  V30 9014 H 850.429 1.45188 -0.236403 0
M  V30 9015 H 852.387 3.71281 1.90279 0
M  V30 9016 H 851.017 2.57251 1.94992 0
M  V30 9017 H 850.069 3.80162 -0.134668 0
M  V30 9018 H 851.381 4.98782 0.0428506 0
M  V30 9019 H 850.535 5.60775 2.31553 0
M  V30 9020 H 849.274 4.34687 2.2113 0
M  V30 9021 H 848.279 5.49391 0.21212 0
M  V30 9022 H 849.504 6.78265 0.336633 0
M  V30 9023 H 847.45 6.07834 2.46726 0
M  V30 9024 H 847.367 7.43157 1.3876 0
M  V30 9025 H 848.635 7.35759 2.57446 0
M  V30 9026 N 852.864 0.259585 1.55447 0
M  V30 9027 C 853.814 -0.648769 2.18575 0
M  V30 9028 C 854.798 -1.1299 1.14552 0
M  V30 9029 O 855.99 -1.07756 1.4042 0
M  V30 9030 C 853.119 -1.83963 2.89849 0
M  V30 9031 C 852.205 -1.37641 4.01143 0
M  V30 9032 N 852.596 -0.628269 5.01883 0
M  V30 9033 C 850.894 -1.66066 4.1393 0
M  V30 9034 C 851.595 -0.386746 5.80413 0
M  V30 9035 N 850.571 -0.954665 5.35151 0
M  V30 9036 H 854.373 -0.0691616 2.93819 0
M  V30 9037 H 851.887 0.0624525 1.6228 0
M  V30 9038 H 853.884 -2.50151 3.33512 0
M  V30 9039 H 852.544 -2.42334 2.16112 0
M  V30 9040 H 853.555 -0.277123 5.17158 0
M  V30 9041 H 850.232 -2.25484 3.51373 0
M  V30 9042 H 851.622 0.211382 6.71567 0
M  V30 9043 N 854.342 -1.57594 -0.0133615 0
M  V30 9044 C 855.275 -2.02991 -1.04259 0
M  V30 9045 C 856.253 -0.917193 -1.34262 0
M  V30 9046 O 857.437 -1.18428 -1.46653 0
M  V30 9047 C 854.564 -2.41624 -2.37351 0
M  V30 9048 C 853.61 -3.63495 -2.231 0
M  V30 9049 S 854.443 -5.1198 -1.5696 0
M  V30 9050 C 855.599 -5.5387 -2.91511 0
M  V30 9051 H 855.832 -2.89973 -0.655985 0
M  V30 9052 H 853.365 -1.52769 -0.223827 0
M  V30 9053 H 855.323 -2.64551 -3.13884 0
M  V30 9054 H 853.984 -1.55065 -2.73155 0
M  V30 9055 H 853.177 -3.88233 -3.21389 0
M  V30 9056 H 852.779 -3.405 -1.54711 0
M  V30 9057 H 855.071 -5.55514 -3.87828 0
M  V30 9058 H 856.014 -6.53988 -2.71488 0
M  V30 9059 H 856.422 -4.81404 -2.94806 0
M  V30 9060 N 855.82 0.285905 -1.54985 0
M  V30 9061 C 856.768 1.37302 -1.87752 0
M  V30 9062 C 857.762 1.51763 -0.752616 0
M  V30 9063 O 858.968 1.53701 -0.936805 0
M  V30 9064 H 855.343 0.458935 -0.59572 0
M  V30 9065 H 857.314 1.0691 -2.78591 0
M  V30 9066 C 856.063 2.72885 -2.15474 0
M  V30 9067 H 855.386 2.62545 -3.01513 0
M  V30 9068 H 856.826 3.47925 -2.42331 0
M  V30 9069 C 855.285 3.22989 -0.958124 0
M  V30 9070 O 855.815 4.01268 -0.186219 0
M  V30 9071 N 854.021 2.80503 -0.759354 0
M  V30 9072 H 853.568 2.16961 -1.38874 0
M  V30 9073 H 853.526 3.14375 0.0396937 0
M  V30 9074 N 857.298 1.47698 0.54982 0
M  V30 9075 C 858.228 1.63622 1.66583 0
M  V30 9076 C 859.209 0.485477 1.63025 0
M  V30 9077 O 860.394 0.715692 1.80531 0
M  V30 9078 C 857.524 1.65721 3.05211 0
M  V30 9079 C 856.478 2.80097 3.2362 0
M  V30 9080 C 855.804 2.67272 4.63109 0
M  V30 9081 C 857.104 4.21612 3.08286 0
M  V30 9082 H 858.798 2.57049 1.53512 0
M  V30 9083 H 856.344 1.23705 0.737099 0
M  V30 9084 H 858.297 1.75451 3.83138 0
M  V30 9085 H 857.021 0.688593 3.19258 0
M  V30 9086 H 855.68 2.69889 2.48104 0
M  V30 9087 H 855.328 1.68422 4.73965 0
M  V30 9088 H 855.028 3.44008 4.76374 0
M  V30 9089 H 856.552 2.78942 5.43161 0
M  V30 9090 H 857.966 4.32758 3.76024 0
M  V30 9091 H 856.363 4.99193 3.33057 0
M  V30 9092 H 857.433 4.39462 2.04942 0
M  V30 9093 N 858.776 -0.797141 1.35954 0
M  V30 9094 C 859.706 -1.92387 1.32323 0
M  V30 9095 C 860.687 -1.68967 0.196007 0
M  V30 9096 O 861.872 -1.90193 0.39245 0
M  V30 9097 C 859.002 -3.29286 1.10398 0
M  V30 9098 C 857.956 -3.67212 2.19862 0
M  V30 9099 C 857.282 -5.02377 1.8309 0
M  V30 9100 C 858.582 -3.76602 3.61896 0
M  V30 9101 H 860.276 -1.95683 2.26602 0
M  V30 9102 H 857.822 -0.94007 1.09081 0
M  V30 9103 H 859.775 -4.07721 1.06495 0
M  V30 9104 H 858.499 -3.26358 0.125668 0
M  V30 9105 H 857.158 -2.91069 2.22878 0
M  V30 9106 H 856.806 -4.95961 0.838527 0
M  V30 9107 H 856.506 -5.28722 2.56372 0
M  V30 9108 H 858.03 -5.8324 1.80729 0
M  V30 9109 H 859.444 -4.45246 3.6115 0
M  V30 9110 H 857.841 -4.14425 4.34018 0
M  V30 9111 H 858.911 -2.77906 3.97361 0
M  V30 9112 N 860.254 -1.20106 -1.0204 0
M  V30 9113 C 861.217 -0.948261 -2.08664 0
M  V30 9114 C 862.217 0.0746753 -1.60627 0
M  V30 9115 O 863.407 -0.160981 -1.73455 0
M  V30 9116 C 860.539 -0.426854 -3.38217 0
M  V30 9117 H 861.732 -1.894 -2.32524 0
M  V30 9118 H 859.285 -1.0159 -1.18782 0
M  V30 9119 H 860.02 0.524532 -3.2003 0
M  V30 9120 H 859.805 -1.16451 -3.74408 0
M  V30 9121 H 861.295 -0.269346 -4.1673 0
M  V30 9122 N 861.732 1.21287 -1.00634 0
M  V30 9123 C 863.009 1.86 -0.605257 0
M  V30 9124 C 863.389 1.90139 0.917072 0
M  V30 9125 O 862.737 1.40169 1.80458 0
M  V30 9126 C 862.947 3.26183 -1.24119 0
M  V30 9127 C 864.295 4.02562 -1.35015 0
M  V30 9128 O 865.319 3.35499 -1.19661 0
M  V30 9129 O 864.178 5.22638 -1.59726 0
M  V30 9130 H 861.272 0.800549 -0.207486 0
M  V30 9131 H 863.818 1.28959 -1.10307 0
M  V30 9132 H 862.59 3.17878 -2.28186 0
M  V30 9133 H 862.213 3.90845 -0.729807 0
M  V30 9134 N 863.21 0.781244 1.36873 0
M  V30 9135 C 864.14 0.188128 2.32741 0
M  V30 9136 C 865.121 -0.672326 1.56249 0
M  V30 9137 O 866.306 -0.607835 1.84442 0
M  V30 9138 C 863.436 -0.684341 3.40491 0
M  V30 9139 C 862.39 0.0755641 4.27933 0
M  V30 9140 C 861.716 -0.916968 5.26779 0
M  V30 9141 C 863.016 1.26006 5.06873 0
M  V30 9142 H 864.71 0.989016 2.82593 0
M  V30 9143 H 862.256 0.477038 1.35869 0
M  V30 9144 H 864.209 -1.10915 4.06541 0
M  V30 9145 H 862.933 -1.51785 2.89187 0
M  V30 9146 H 861.592 0.481258 3.63427 0
M  V30 9147 H 861.24 -1.74528 4.71751 0
M  V30 9148 H 860.94 -0.413 5.86147 0
M  V30 9149 H 862.464 -1.34052 5.95703 0
M  V30 9150 H 863.878 0.911425 5.66009 0
M  V30 9151 H 862.275 1.69676 5.75613 0
M  V30 9152 H 863.345 2.05948 4.38991 0
M  V30 9153 N 864.689 -1.48329 0.532571 0
M  V30 9154 C 865.636 -2.29663 -0.228779 0
M  V30 9155 C 866.606 -1.37529 -0.931401 0
M  V30 9156 O 867.791 -1.66493 -0.931921 0
M  V30 9157 C 864.931 -3.20955 -1.26814 0
M  V30 9158 C 864.044 -4.28168 -0.574099 0
M  V30 9159 C 863.179 -5.06638 -1.59661 0
M  V30 9160 C 862.218 -6.05651 -0.88618 0
M  V30 9161 N 861.355 -6.77169 -1.85436 0
M  V30 9162 H 866.195 -2.94255 0.47098 0
M  V30 9163 H 863.732 -1.45061 0.2441 0
M  V30 9164 H 865.69 -3.72285 -1.88307 0
M  V30 9165 H 864.32 -2.58281 -1.93625 0
M  V30 9166 H 863.372 -3.80085 0.154827 0
M  V30 9167 H 864.684 -4.98797 -0.0163984 0
M  V30 9168 H 863.838 -5.61995 -2.28576 0
M  V30 9169 H 862.577 -4.35854 -2.18821 0
M  V30 9170 H 861.582 -5.49495 -0.182981 0
M  V30 9171 H 862.807 -6.78434 -0.300659 0
M  V30 9172 H 860.753 -6.09134 -2.43499 0
M  V30 9173 H 860.67 -7.43882 -1.34816 0
M  V30 9174 H 861.938 -7.37114 -2.53541 0
M  V30 9175 N 866.167 -0.267825 -1.55308 0
M  V30 9176 C 867.395 0.354587 -2.03839 0
M  V30 9177 C 867.81 1.50007 -1.14644 0
M  V30 9178 O 867.167 1.81752 -0.165055 0
M  V30 9179 C 867.218 0.84254 -3.51544 0
M  V30 9180 O 866.939 -0.257318 -4.37344 0
M  V30 9181 C 868.44 1.53351 -4.15931 0
M  V30 9182 H 865.66 0.0818131 -0.665994 0
M  V30 9183 H 868.204 -0.397795 -2.00594 0
M  V30 9184 H 866.359 1.54503 -3.55257 0
M  V30 9185 H 866.773 0.116593 -5.2437 0
M  V30 9186 H 868.247 1.82643 -5.20908 0
M  V30 9187 H 868.724 2.4626 -3.63666 0
M  V30 9188 H 869.33 0.87506 -4.162 0
M  V30 9189 N 867.645 1.57599 0.00500368 0
M  V30 9190 C 868.578 2.03541 1.03181 0
M  V30 9191 C 869.556 0.924301 1.33774 0
M  V30 9192 O 870.74 1.19204 1.46023 0
M  V30 9193 C 867.867 2.42879 2.36067 0
M  V30 9194 C 866.913 3.64673 2.21169 0
M  V30 9195 S 867.746 5.12805 1.54243 0
M  V30 9196 C 868.902 5.55408 2.88569 0
M  V30 9197 H 869.135 2.90316 0.640598 0
M  V30 9198 H 866.668 1.52886 0.215722 0
M  V30 9199 H 868.626 2.66212 3.12476 0
M  V30 9200 H 867.287 1.56512 2.72329 0
M  V30 9201 H 866.48 3.89932 3.19326 0
M  V30 9202 H 866.082 3.41316 1.52904 0
M  V30 9203 H 868.374 5.57563 3.84876 0
M  V30 9204 H 869.317 6.55418 2.68016 0
M  V30 9205 H 869.725 4.82961 2.92249 0
M  V30 9206 N 869.123 -0.277682 1.55134 0
M  V30 9207 C 870.369 -1.0114 1.7578 0
M  V30 9208 C 870.702 -1.86109 0.554719 0
M  V30 9209 O 869.977 -1.89275 -0.447813 0
M  V30 9210 C 870.26 -1.89789 3.06027 0
M  V30 9211 C 870.113 -1.07844 4.3668 0
M  V30 9212 C 871.432 -2.88577 3.32282 0
M  V30 9213 H 868.551 -0.366277 0.639539 0
M  V30 9214 H 871.193 -0.284155 1.87863 0
M  V30 9215 H 869.343 -2.51796 2.95856 0
M  V30 9216 H 871.015 -0.479432 4.58802 0
M  V30 9217 H 869.258 -0.381764 4.32117 0
M  V30 9218 H 869.929 -1.73179 5.24131 0
M  V30 9219 H 872.405 -2.36702 3.42215 0
M  V30 9220 H 871.281 -3.47749 4.2469 0
M  V30 9221 H 871.542 -3.63458 2.51696 0
M  V30 9222 N 870.601 -1.47988 -0.541979 0
M  V30 9223 C 871.511 -1.64276 -1.67483 0
M  V30 9224 C 872.527 -0.525387 -1.65879 0
M  V30 9225 O 873.703 -0.794912 -1.85049 0
M  V30 9226 C 870.768 -1.66744 -3.03969 0
M  V30 9227 C 869.829 -2.90021 -3.16522 0
M  V30 9228 C 869.062 -2.92362 -4.46498 0
M  V30 9229 O 869.285 -2.03462 -5.32878 0
M  V30 9230 O 868.219 -3.84399 -4.63164 0
M  V30 9231 H 872.045 -2.60164 -1.5668 0
M  V30 9232 H 869.63 -1.31249 -0.71372 0
M  V30 9233 H 871.512 -1.70958 -3.85164 0
M  V30 9234 H 870.187 -0.740277 -3.15122 0
M  V30 9235 H 869.094 -2.91345 -2.34667 0
M  V30 9236 H 870.427 -3.82082 -3.10281 0
M  V30 9237 N 872.079 0.78992 -1.36375 0
M  V30 9238 C 873.307 1.57873 -1.3373 0
M  V30 9239 C 873.722 1.88624 0.0815544 0
M  V30 9240 O 873.079 1.50085 1.03831 0
M  V30 9241 C 873.13 2.90003 -2.15825 0
M  V30 9242 O 872.851 2.60578 -3.5218 0
M  V30 9243 C 874.352 3.84309 -2.20955 0
M  V30 9244 H 871.572 0.489685 -0.458748 0
M  V30 9245 H 874.116 0.980436 -1.79465 0
M  V30 9246 H 872.271 3.46303 -1.73646 0
M  V30 9247 H 872.685 3.4506 -3.95011 0
M  V30 9248 H 874.159 4.74081 -2.82756 0
M  V30 9249 H 874.636 4.22121 -1.21287 0
M  V30 9250 H 875.242 3.33942 -2.63368 0
M  V30 9251 N 873.557 1.20646 1.01402 0
M  V30 9252 C 874.504 0.957618 2.09996 0
M  V30 9253 C 875.474 -0.113115 1.65714 0
M  V30 9254 O 876.659 0.032142 1.90773 0
M  V30 9255 C 873.799 0.5186 3.41181 0
M  V30 9256 C 872.912 1.65777 3.98926 0
M  V30 9257 C 872.047 1.16881 5.18182 0
M  V30 9258 C 871.086 2.2809 5.68015 0
M  V30 9259 N 870.223 1.80392 6.7853 0
M  V30 9260 H 875.063 1.88732 2.30617 0
M  V30 9261 H 872.6 0.940703 1.13089 0
M  V30 9262 H 874.558 0.245367 4.16478 0
M  V30 9263 H 873.188 -0.3741 3.20625 0
M  V30 9264 H 872.24 2.04586 3.207 0
M  V30 9265 H 873.552 2.49507 4.31912 0
M  V30 9266 H 872.706 0.851694 6.00692 0
M  V30 9267 H 871.445 0.301434 4.86768 0
M  V30 9268 H 870.45 2.60614 4.84108 0
M  V30 9269 H 871.675 3.15308 6.01463 0
M  V30 9270 H 869.621 0.959856 6.4894 0
M  V30 9271 H 869.538 2.57701 7.10722 0
M  V30 9272 H 870.806 1.51688 7.64598 0
M  V30 9273 N 875.035 -1.20752 1.01276 0
M  V30 9274 C 875.982 -2.234 0.579732 0
M  V30 9275 C 876.952 -1.61256 -0.398206 0
M  V30 9276 O 878.137 -1.8845 -0.29851 0
M  V30 9277 C 875.277 -3.45008 -0.0797006 0
M  V30 9278 C 874.39 -4.21597 0.942343 0
M  V30 9279 C 873.525 -5.30591 0.254364 0
M  V30 9280 C 872.564 -5.98919 1.26343 0
M  V30 9281 N 871.701 -6.99511 0.602384 0
M  V30 9282 H 876.541 -2.59801 1.45971 0
M  V30 9283 H 874.078 -1.27663 0.730787 0
M  V30 9284 H 876.036 -4.1444 -0.479125 0
M  V30 9285 H 874.666 -3.09312 -0.923354 0
M  V30 9286 H 873.718 -3.51268 1.45996 0
M  V30 9287 H 875.03 -4.68576 1.70992 0
M  V30 9288 H 874.184 -6.06368 -0.200763 0
M  V30 9289 H 872.923 -4.84639 -0.545553 0
M  V30 9290 H 871.928 -5.21906 1.72898 0
M  V30 9291 H 873.153 -6.46957 2.06456 0
M  V30 9292 H 871.099 -6.55759 -0.177734 0
M  V30 9293 H 871.016 -7.44597 1.30809 0
M  V30 9294 H 872.284 -7.79313 0.17072 0
M  V30 9295 N 876.513 -0.788492 -1.36457 0
M  V30 9296 C 877.759 -0.360995 -1.99561 0
M  V30 9297 C 878.092 1.06433 -1.62437 0
M  V30 9298 O 877.367 1.7352 -0.878705 0
M  V30 9299 C 877.65 -0.523735 -3.56271 0
M  V30 9300 C 877.503 -1.99268 -4.03252 0
M  V30 9301 C 878.822 0.0617908 -4.40057 0
M  V30 9302 H 875.941 -0.13264 -0.724966 0
M  V30 9303 H 878.583 -0.994659 -1.61884 0
M  V30 9304 H 876.733 0.0156979 -3.88497 0
M  V30 9305 H 878.405 -2.59311 -3.81518 0
M  V30 9306 H 876.648 -2.49561 -3.54826 0
M  V30 9307 H 877.319 -2.05752 -5.12221 0
M  V30 9308 H 879.795 -0.398674 -4.14186 0
M  V30 9309 H 878.671 -0.0821089 -5.48839 0
M  V30 9310 H 878.932 1.15381 -4.26778 0
M  V30 9311 N 877.991 1.48044 -0.54043 0
M  V30 9312 C 879.219 2.06895 -0.0145153 0
M  V30 9313 C 879.634 1.39552 1.27164 0
M  V30 9314 O 878.991 0.486454 1.75897 0
M  V30 9315 C 879.042 3.60934 0.202278 0
M  V30 9316 O 878.763 4.25749 -1.03293 0
M  V30 9317 C 880.264 4.36607 0.767387 0
M  V30 9318 H 877.484 0.66991 -0.0382368 0
M  V30 9319 H 880.028 1.90288 -0.749057 0
M  V30 9320 H 878.183 3.77111 0.886897 0
M  V30 9321 H 878.597 5.18048 -0.820167 0
M  V30 9322 H 880.071 5.45126 0.86845 0
M  V30 9323 H 880.548 4.01745 1.77477 0
M  V30 9324 H 881.154 4.25133 0.119002 0
M  V30 9325 N 879.47 0.276058 1.55163 0
M  V30 9326 C 880.695 -0.346648 2.04483 0
M  V30 9327 C 881.12 -1.48613 1.15308 0
M  V30 9328 O 880.478 -1.80663 0.151875 0
M  V30 9329 C 880.526 -0.804268 3.51517 0
M  V30 9330 O 879.63 -1.91143 3.65429 0
M  V30 9331 H 878.971 -0.0715251 0.660136 0
M  V30 9332 H 881.501 0.410631 2.00437 0
M  V30 9333 H 881.511 -1.09977 3.92898 0
M  V30 9334 H 880.186 0.0294123 4.1589 0
M  V30 9335 H 878.763 -1.61839 3.3595 0
M  V30 9336 N 880.948 -1.576 0.00335426 0
M  V30 9337 C 882.173 -1.95398 -0.695311 0
M  V30 9338 C 882.598 -0.878476 -1.66326 0
M  V30 9339 O 881.956 0.163086 -1.80565 0
M  V30 9340 C 882.004 -3.32293 -1.40049 0
M  V30 9341 O 881.108 -3.26834 -2.51502 0
M  V30 9342 H 880.449 -0.637796 -0.184694 0
M  V30 9343 H 882.979 -2.04519 0.057543 0
M  V30 9344 H 882.989 -3.67936 -1.76316 0
M  V30 9345 H 881.664 -4.10123 -0.690803 0
M  V30 9346 H 880.241 -3.02872 -2.17539 0
M  V30 9347 N 882.426 0.269451 -1.5528 0
M  V30 9348 C 883.674 0.998604 -1.75705 0
M  V30 9349 C 883.995 1.86691 -0.563175 0
M  V30 9350 O 883.265 1.91305 0.421811 0
M  V30 9351 H 881.845 0.371698 -0.647958 0
M  V30 9352 H 884.507 0.292826 -1.92688 0
M  V30 9353 H 883.603 1.63348 -2.6594 0
M  V30 9354 N 883.904 1.48273 0.534124 0
M  V30 9355 C 885.15 1.56311 1.29208 0
M  V30 9356 C 885.483 0.234481 1.92779 0
M  V30 9357 O 884.758 -0.759143 1.79073 0
M  V30 9358 C 885.041 2.69831 2.3846 0
M  V30 9359 C 884.894 4.12385 1.79608 0
M  V30 9360 C 886.213 2.79133 3.40254 0
M  V30 9361 H 883.332 0.56899 0.468422 0
M  V30 9362 H 885.974 1.80429 0.595438 0
M  V30 9363 H 884.124 2.49397 2.97881 0
M  V30 9364 H 885.796 4.44246 1.24269 0
M  V30 9365 H 884.039 4.19579 1.10162 0
M  V30 9366 H 884.71 4.87629 2.58693 0
M  V30 9367 H 887.186 2.97632 2.90783 0
M  V30 9368 H 886.062 3.60298 4.14097 0
M  V30 9369 H 886.323 1.87122 4.00547 0
M  V30 9370 N 885.382 -0.782676 1.36792 0
M  V30 9371 C 886.312 -1.90973 1.34356 0
M  V30 9372 C 887.293 -1.6875 0.213917 0
M  V30 9373 O 888.478 -1.89766 0.412601 0
M  V30 9374 C 885.608 -3.28097 1.13884 0
M  V30 9375 C 884.562 -3.6486 2.23744 0
M  V30 9376 C 883.888 -5.00406 1.88408 0
M  V30 9377 C 885.188 -3.72742 3.6587 0
M  V30 9378 H 886.882 -1.93268 2.28665 0
M  V30 9379 H 884.428 -0.928447 1.10072 0
M  V30 9380 H 886.381 -4.06569 1.10813 0
M  V30 9381 H 885.105 -3.26206 0.160275 0
M  V30 9382 H 883.764 -2.88689 2.25952 0
M  V30 9383 H 883.412 -4.95044 0.891083 0
M  V30 9384 H 883.112 -5.25973 2.61966 0
M  V30 9385 H 884.636 -5.81291 1.86905 0
M  V30 9386 H 886.05 -4.4139 3.65852 0
M  V30 9387 H 884.447 -4.09798 4.38389 0
M  V30 9388 H 885.517 -2.73676 4.00287 0
M  V30 9389 N 886.86 -1.21182 -1.00761 0
M  V30 9390 C 887.79 -0.992773 -2.11344 0
M  V30 9391 C 888.771 0.0813618 -1.69905 0
M  V30 9392 O 889.956 -0.0779503 -1.94043 0
M  V30 9393 C 887.086 -0.553826 -3.42856 0
M  V30 9394 C 886.04 -1.57223 -3.98077 0
M  V30 9395 C 885.366 -0.989605 -5.25463 0
M  V30 9396 C 886.666 -2.95839 -4.30438 0
M  V30 9397 H 888.36 -1.91766 -2.29927 0
M  V30 9398 H 885.906 -0.923426 -1.10494 0
M  V30 9399 H 887.859 -0.387771 -4.19612 0
M  V30 9400 H 886.583 0.406702 -3.24058 0
M  V30 9401 H 885.242 -1.7258 -3.23437 0
M  V30 9402 H 884.89 -0.0208743 -5.02996 0
M  V30 9403 H 884.59 -1.66984 -5.63374 0
M  V30 9404 H 886.114 -0.834815 -6.04866 0
M  V30 9405 H 887.528 -2.8394 -4.98047 0
M  V30 9406 H 885.925 -3.60851 -4.79486 0
M  V30 9407 H 886.995 -3.46882 -3.38823 0
M  V30 9408 N 888.338 1.20213 -1.01915 0
M  V30 9409 C 889.268 2.25336 -0.612023 0
M  V30 9410 C 890.249 1.65933 0.374186 0
M  V30 9411 O 891.434 1.92464 0.259053 0
M  V30 9412 C 888.564 3.47267 0.047904 0
M  V30 9413 C 887.518 4.1928 -0.859557 0
M  V30 9414 C 886.844 5.3466 -0.0652655 0
M  V30 9415 C 888.144 4.75143 -2.1688 0
M  V30 9416 H 889.838 2.59645 -1.49079 0
M  V30 9417 H 887.384 1.24808 -0.718263 0
M  V30 9418 H 889.337 4.19991 0.344294 0
M  V30 9419 H 888.061 3.12129 0.961404 0
M  V30 9420 H 886.72 3.48425 -1.13999 0
M  V30 9421 H 886.368 4.95767 0.849964 0
M  V30 9422 H 886.068 5.83772 -0.669618 0
M  V30 9423 H 887.592 6.10187 0.224612 0
M  V30 9424 H 889.006 5.39672 -1.9346 0
M  V30 9425 H 887.403 5.34702 -2.72422 0
M  V30 9426 H 888.473 3.93744 -2.83008 0
M  V30 9427 N 889.816 0.795718 1.36037 0
M  V30 9428 C 891.093 0.294743 1.93367 0
M  V30 9429 C 891.473 -1.21406 1.72696 0
M  V30 9430 O 890.821 -2.00849 1.08959 0
M  V30 9431 C 891.031 0.694254 3.42025 0
M  V30 9432 C 892.379 0.677566 4.19159 0
M  V30 9433 O 893.403 0.635119 3.50492 0
M  V30 9434 O 892.262 0.726127 5.41655 0
M  V30 9435 H 889.356 0.0745459 0.823633 0
M  V30 9436 H 891.902 0.878685 1.4518 0
M  V30 9437 H 890.674 1.73458 3.50753 0
M  V30 9438 H 890.297 0.0845338 3.9751 0
M  V30 9439 N 891.294 -1.47756 0.548274 0
M  V30 9440 C 892.242 -2.3158 -0.217584 0
M  V30 9441 C 893.236 -1.42372 -0.917957 0
M  V30 9442 O 894.442 -1.59184 -0.840259 0
M  V30 9443 H 890.817 -0.74671 -0.0890388 0
M  V30 9444 H 892.788 -2.94032 0.508719 0
M  V30 9445 C 891.537 -3.24834 -1.24008 0
M  V30 9446 H 890.86 -3.93435 -0.710572 0
M  V30 9447 H 892.3 -3.86336 -1.74701 0
M  V30 9448 C 890.759 -2.47724 -2.2833 0
M  V30 9449 O 891.289 -2.21522 -3.35098 0
M  V30 9450 N 889.495 -2.08891 -2.02022 0
M  V30 9451 H 889.042 -2.30401 -1.1521 0
M  V30 9452 H 889 -1.57613 -2.7204 0
M  V30 9453 N 892.772 -0.284283 -1.55015 0
M  V30 9454 C 894.002 0.332465 -2.03907 0
M  V30 9455 C 894.41 1.49331 -1.16177 0
M  V30 9456 O 893.753 1.82851 -0.176395 0
M  V30 9457 C 893.815 0.867193 -3.48884 0
M  V30 9458 C 893.479 -0.166198 -4.56698 0
M  V30 9459 C 894.476 -0.988898 -5.10408 0
M  V30 9460 C 892.161 -0.303081 -5.01385 0
M  V30 9461 C 894.155 -1.93458 -6.07333 0
M  V30 9462 C 891.842 -1.25223 -5.98133 0
M  V30 9463 C 892.84 -2.06647 -6.50988 0
M  V30 9464 O 892.528 -2.99955 -7.45843 0
M  V30 9465 H 892.26 0.0786597 -0.671408 0
M  V30 9466 H 894.814 -0.416871 -2.01125 0
M  V30 9467 H 893.044 1.66676 -3.48935 0
M  V30 9468 H 894.733 1.39802 -3.81065 0
M  V30 9469 H 895.499 -0.89393 -4.76691 0
M  V30 9470 H 891.378 0.320711 -4.59883 0
M  V30 9471 H 894.922 -2.57053 -6.48513 0
M  V30 9472 H 890.819 -1.34798 -6.31268 0
M  V30 9473 H 891.587 -2.94742 -7.6359 0
M  V30 9474 N 894.251 1.57596 -0.0117121 0
M  V30 9475 C 895.476 1.95764 0.684938 0
M  V30 9476 C 895.901 0.887285 1.65858 0
M  V30 9477 O 895.259 -0.153508 1.80649 0
M  V30 9478 C 895.307 3.33031 1.38285 0
M  V30 9479 O 894.411 3.28163 2.49765 0
M  V30 9480 H 893.752 0.638767 0.181309 0
M  V30 9481 H 896.282 2.04486 -0.0683883 0
M  V30 9482 H 896.292 3.68866 1.74362 0
M  V30 9483 H 894.967 4.10483 0.669043 0
M  V30 9484 H 893.544 3.04021 2.15929 0
M  V30 9485 N 895.729 -0.261212 1.5542 0
M  V30 9486 C 897.006 -1.01321 1.67312 0
M  V30 9487 C 897.386 -2.0388 0.547356 0
M  V30 9488 O 896.734 -2.24003 -0.451083 0
M  V30 9489 C 896.944 -1.65943 3.07024 0
M  V30 9490 C 898.292 -2.16666 3.65159 0
M  V30 9491 O 899.316 -1.75909 3.09733 0
M  V30 9492 O 898.175 -2.91455 4.62294 0
M  V30 9493 H 895.269 -0.470714 0.679968 0
M  V30 9494 H 897.815 -0.256133 1.67756 0
M  V30 9495 H 896.587 -0.916868 3.80407 0
M  V30 9496 H 896.21 -2.48308 3.1053 0
M  V30 9497 N 897.207 -1.48554 -0.526253 0
M  V30 9498 C 898.623 -1.34757 -0.855138 0
M  V30 9499 C 898.823 -0.36142 -1.98232 0
M  V30 9500 O 897.879 0.216026 -2.51574 0
M  V30 9501 C 899.192 -2.74877 -1.21915 0
M  V30 9502 C 900.74 -2.83393 -1.32882 0
M  V30 9503 C 901.215 -4.24223 -1.72624 0
M  V30 9504 N 902.706 -4.26913 -1.7972 0
M  V30 9505 C 903.441 -5.32824 -2.11863 0
M  V30 9506 N 902.937 -6.49008 -2.42405 0
M  V30 9507 N 904.73 -5.20221 -2.12901 0
M  V30 9508 H 896.881 -2.11284 0.217422 0
M  V30 9509 H 899.144 -0.947367 0.0346362 0
M  V30 9510 H 898.85 -3.48619 -0.464486 0
M  V30 9511 H 898.724 -3.0864 -2.16844 0
M  V30 9512 H 901.111 -2.09904 -2.07424 0
M  V30 9513 H 901.192 -2.53245 -0.360638 0
M  V30 9514 H 900.836 -4.98229 -0.986411 0
M  V30 9515 H 900.766 -4.51817 -2.70498 0
M  V30 9516 H 903.257 -3.4311 -1.58379 0
M  V30 9517 H 903.57 -7.25561 -2.66048 0
M  V30 9518 H 901.915 -6.52277 -2.39917 0
M  V30 9519 H 905.106 -4.28469 -1.885 0
M  V30 9520 H 905.279 -6.02861 -2.37619 0
M  V30 9521 N 898.685 0.775411 -1.37205 0
M  V30 9522 C 899.934 1.52909 -1.31536 0
M  V30 9523 C 900.247 1.9535 0.0989374 0
M  V30 9524 O 901.453 2.70072 0.278079 0
M  V30 9525 C 899.909 2.761 -2.30861 0
M  V30 9526 C 899.517 2.40773 -3.77799 0
M  V30 9527 C 901.261 3.54052 -2.34195 0
M  V30 9528 C 899.168 3.60444 -4.68865 0
M  V30 9529 H 898.098 0.574061 -0.488845 0
M  V30 9530 H 900.749 0.849642 -1.62645 0
M  V30 9531 H 899.131 3.45916 -1.92764 0
M  V30 9532 H 900.305 1.78764 -4.24712 0
M  V30 9533 H 898.62 1.76004 -3.77375 0
M  V30 9534 H 901.217 4.42992 -2.99437 0
M  V30 9535 H 901.56 3.93649 -1.35449 0
M  V30 9536 H 902.093 2.91229 -2.7098 0
M  V30 9537 H 898.832 3.25932 -5.68725 0
M  V30 9538 H 898.352 4.21571 -4.26659 0
M  V30 9539 H 900.031 4.27302 -4.85821 0
M  V30 9540 N 900.163 1.21714 1.00117 0
M  V30 9541 C 901.095 0.937627 2.09144 0
M  V30 9542 C 902.108 -0.0806291 1.626 0
M  V30 9543 O 903.297 0.152348 1.77849 0
M  V30 9544 C 900.397 0.387036 3.36683 0
M  V30 9545 C 899.57 1.46054 4.12295 0
M  V30 9546 C 898.629 0.918505 5.18122 0
M  V30 9547 O 897.655 1.60282 5.46167 0
M  V30 9548 N 898.857 -0.264308 5.79898 0
M  V30 9549 H 901.622 1.87622 2.33705 0
M  V30 9550 H 899.183 1.12291 1.16629 0
M  V30 9551 H 901.175 0.00992825 4.04699 0
M  V30 9552 H 899.745 -0.456467 3.09249 0
M  V30 9553 H 898.965 2.01133 3.39027 0
M  V30 9554 H 900.253 2.18306 4.59587 0
M  V30 9555 H 899.651 -0.837242 5.5947 0
M  V30 9556 H 898.208 -0.582886 6.49188 0
M  V30 9557 N 901.641 -1.19671 1.02551 0
M  V30 9558 C 902.887 -1.89548 0.721069 0
M  V30 9559 C 903.22 -1.79209 -0.748176 0
M  V30 9560 O 902.495 -1.1822 -1.54448 0
M  V30 9561 C 902.778 -3.4061 1.16861 0
M  V30 9562 C 902.631 -3.59838 2.69883 0
M  V30 9563 C 903.95 -4.33718 0.746782 0
M  V30 9564 H 901.069 -0.688315 0.263422 0
M  V30 9565 H 903.711 -1.40883 1.27483 0
M  V30 9566 H 901.861 -3.82188 0.697477 0
M  V30 9567 H 903.533 -3.27454 3.24917 0
M  V30 9568 H 901.776 -3.03005 3.10435 0
M  V30 9569 H 902.447 -4.65766 2.96253 0
M  V30 9570 H 904.923 -3.99837 1.15195 0
M  V30 9571 H 903.799 -5.38012 1.08786 0
M  V30 9572 H 904.06 -4.40704 -0.351057 0
M  V30 9573 N 903.119 -0.802921 -1.35613 0
M  V30 9574 C 904.049 -0.225131 -2.32412 0
M  V30 9575 C 905.03 0.647383 -1.57299 0
M  V30 9576 O 906.215 0.578414 -1.85386 0
M  V30 9577 C 903.345 0.630085 -3.41537 0
M  V30 9578 C 902.299 -0.143635 -4.27759 0
M  V30 9579 C 901.625 0.833046 -5.28171 0
M  V30 9580 C 902.925 -1.34054 -5.04804 0
M  V30 9581 H 904.619 -1.03385 -2.80984 0
M  V30 9582 H 902.165 -0.498593 -1.35093 0
M  V30 9583 H 904.118 1.04433 -4.08254 0
M  V30 9584 H 902.842 1.47165 -2.91565 0
M  V30 9585 H 901.501 -0.539015 -3.62616 0
M  V30 9586 H 901.149 1.67001 -4.74468 0
M  V30 9587 H 900.849 0.319697 -5.8673 0
M  V30 9588 H 902.373 1.24558 -5.97761 0
M  V30 9589 H 903.787 -1.00136 -5.64487 0
M  V30 9590 H 902.184 -1.78812 -5.72841 0
M  V30 9591 H 903.254 -2.12906 -4.35659 0
M  V30 9592 N 904.597 1.47463 -0.556102 0
M  V30 9593 C 905.529 2.28046 0.22968 0
M  V30 9594 C 906.542 1.3694 0.880409 0
M  V30 9595 O 907.731 1.61773 0.754447 0
M  V30 9596 C 904.831 3.11165 1.34273 0
M  V30 9597 C 904.004 4.30225 0.789004 0
M  V30 9598 C 903.063 4.94948 1.78641 0
M  V30 9599 O 902.089 5.53372 1.33297 0
M  V30 9600 N 903.291 4.89543 3.11974 0
M  V30 9601 H 906.056 2.96125 -0.461558 0
M  V30 9602 H 903.617 1.5708 -0.392105 0
M  V30 9603 H 905.609 3.51331 2.00869 0
M  V30 9604 H 904.179 2.45337 1.93722 0
M  V30 9605 H 903.399 3.94163 -0.0536971 0
M  V30 9606 H 904.687 5.07238 0.398378 0
M  V30 9607 H 904.085 4.43275 3.51459 0
M  V30 9608 H 902.642 5.33732 3.74131 0
M  V30 9609 N 906.075 0.2925 1.54862 0
M  V30 9610 C 907.023 -0.603186 2.24643 0
M  V30 9611 C 908.017 -1.1439 1.24946 0
M  V30 9612 O 909.223 -1.09552 1.42823 0
M  V30 9613 H 905.598 -0.213105 0.721173 0
M  V30 9614 H 907.569 0.00799278 2.98399 0
M  V30 9615 C 906.318 -1.76769 2.99413 0
M  V30 9616 H 905.641 -1.36084 3.75927 0
M  V30 9617 H 907.081 -2.37066 3.51533 0
M  V30 9618 C 905.54 -2.66669 2.05886 0
M  V30 9619 O 906.07 -3.67525 1.62136 0
M  V30 9620 N 904.276 -2.34216 1.7202 0
M  V30 9621 H 903.823 -1.52246 2.07795 0
M  V30 9622 H 903.781 -2.94635 1.09717 0
M  V30 9623 N 907.553 -1.57587 0.0200696 0
M  V30 9624 C 908.486 -2.05157 -0.999295 0
M  V30 9625 C 909.464 -0.945466 -1.32286 0
M  V30 9626 O 910.648 -1.21512 -1.44108 0
M  V30 9627 C 907.775 -2.46604 -2.32173 0
M  V30 9628 C 906.821 -3.68146 -2.15339 0
M  V30 9629 S 907.654 -5.15194 -1.46065 0
M  V30 9630 C 908.81 -5.59929 -2.79697 0
M  V30 9631 H 909.043 -2.91299 -0.59433 0
M  V30 9632 H 906.576 -1.53209 -0.191372 0
M  V30 9633 H 908.534 -2.7115 -3.08201 0
M  V30 9634 H 907.195 -1.60825 -2.69804 0
M  V30 9635 H 906.388 -3.94963 -3.13082 0
M  V30 9636 H 905.99 -3.43705 -1.47454 0
M  V30 9637 H 908.282 -5.63615 -3.75957 0
M  V30 9638 H 909.225 -6.59599 -2.57555 0
M  V30 9639 H 909.633 -4.87549 -2.84528 0
M  V30 9640 N 909.032 0.252966 -1.55557 0
M  V30 9641 C 910.278 0.983306 -1.77367 0
M  V30 9642 C 910.611 1.85203 -0.584258 0
M  V30 9643 O 909.886 1.89963 0.417644 0
M  V30 9644 C 910.169 1.84896 -3.09007 0
M  V30 9645 C 910.022 1.00883 -4.38341 0
M  V30 9646 C 911.341 2.83254 -3.36831 0
M  V30 9647 H 908.46 0.356056 -0.645286 0
M  V30 9648 H 911.102 0.254232 -1.88291 0
M  V30 9649 H 909.252 2.47058 -2.99825 0
M  V30 9650 H 910.924 0.40638 -4.59507 0
M  V30 9651 H 909.167 0.31297 -4.3267 0
M  V30 9652 H 909.838 1.64818 -5.2682 0
M  V30 9653 H 912.314 2.31228 -3.45937 0
M  V30 9654 H 911.19 3.40949 -4.30169 0
M  V30 9655 H 911.451 3.59407 -2.57447 0
M  V30 9656 N 910.51 1.48831 0.518367 0
M  V30 9657 C 911.46 1.60614 1.61824 0
M  V30 9658 C 912.444 0.462631 1.54106 0
M  V30 9659 O 913.636 0.714689 1.6193 0
M  V30 9660 C 910.765 1.65984 3.00507 0
M  V30 9661 C 909.851 2.85854 3.13286 0
M  V30 9662 N 910.242 4.1014 2.96005 0
M  V30 9663 C 908.54 2.83429 3.4436 0
M  V30 9664 C 909.241 4.90626 3.12508 0
M  V30 9665 N 908.217 4.2366 3.40607 0
M  V30 9666 H 912.019 2.54443 1.47091 0
M  V30 9667 H 909.533 1.45363 0.724102 0
M  V30 9668 H 911.53 1.72521 3.79529 0
M  V30 9669 H 910.19 0.732792 3.16323 0
M  V30 9670 H 911.201 4.40395 2.72531 0
M  V30 9671 H 907.878 2.0003 3.66462 0
M  V30 9672 H 909.268 5.99302 3.03786 0
M  V30 9673 N 911.988 -0.768124 1.37614 0
M  V30 9674 C 913.228 -1.53979 1.34424 0
M  V30 9675 C 913.592 -1.91874 -0.0696803 0
M  V30 9676 O 914.793 -2.67845 -0.22633 0
M  V30 9677 C 913.064 -2.76845 2.26034 0
M  V30 9678 S 914.623 -3.66871 2.4073 0
M  V30 9679 H 911.441 -0.527108 0.477157 0
M  V30 9680 H 914.043 -0.902945 1.73399 0
M  V30 9681 H 912.747 -2.47091 3.2768 0
M  V30 9682 H 912.278 -3.45486 1.88157 0
M  V30 9683 H 914.293 -4.6899 1.62057 0
M  V30 9684 N 913.466 -1.22244 -0.994698 0
M  V30 9685 C 914.429 -0.992308 -2.06606 0
M  V30 9686 C 915.429 0.0405872 -1.60749 0
M  V30 9687 O 916.619 -0.197737 -1.73074 0
M  V30 9688 C 913.751 -0.498499 -3.37236 0
M  V30 9689 H 914.944 -1.9429 -2.28455 0
M  V30 9690 H 912.497 -1.04087 -1.166 0
M  V30 9691 H 913.232 0.456531 -3.21071 0
M  V30 9692 H 913.017 -1.24367 -3.71854 0
M  V30 9693 H 914.507 -0.35768 -4.16065 0
M  V30 9694 N 914.944 1.19125 -1.03184 0
M  V30 9695 C 916.221 1.84674 -0.644574 0
M  V30 9696 C 916.601 1.92042 0.876534 0
M  V30 9697 O 915.949 1.43965 1.77444 0
M  V30 9698 C 916.159 3.23477 -1.3101 0
M  V30 9699 C 917.507 3.99608 -1.43524 0
M  V30 9700 O 918.531 3.32886 -1.2675 0
M  V30 9701 O 917.39 5.19132 -1.70776 0
M  V30 9702 H 914.484 0.795968 -0.22442 0
M  V30 9703 H 917.03 1.2659 -1.13018 0
M  V30 9704 H 915.802 3.12967 -2.34878 0
M  V30 9705 H 915.425 3.89209 -0.812547 0
M  V30 9706 N 916.422 0.810101 1.35185 0
M  V30 9707 C 917.352 0.237453 2.32289 0
M  V30 9708 C 918.333 -0.639032 1.5764 0
M  V30 9709 O 919.518 -0.568575 1.8569 0
M  V30 9710 C 916.648 -0.611964 3.41866 0
M  V30 9711 C 915.602 0.166318 4.27677 0
M  V30 9712 C 914.928 -0.805024 5.28605 0
M  V30 9713 C 916.228 1.36729 5.04086 0
M  V30 9714 H 917.922 1.04874 2.80432 0
M  V30 9715 H 915.468 0.505751 1.34826 0
M  V30 9716 H 917.421 -1.02267 4.08802 0
M  V30 9717 H 916.145 -1.45617 2.92341 0
M  V30 9718 H 914.804 0.558238 3.62325 0
M  V30 9719 H 914.452 -1.64483 4.75347 0
M  V30 9720 H 914.152 -0.288577 5.86891 0
M  V30 9721 H 915.676 -1.21386 5.98413 0
M  V30 9722 H 917.09 1.03128 5.63948 0
M  V30 9723 H 915.487 1.81848 5.71884 0
M  V30 9724 H 916.557 2.15214 4.34524 0
M  V30 9725 N 917.9 -1.47166 0.563914 0
M  V30 9726 C 919.125 -2.0735 0.0454698 0
M  V30 9727 C 919.55 -1.41281 -1.24182 0
M  V30 9728 O 918.908 -0.490084 -1.7455 0
M  V30 9729 C 918.956 -3.60378 -0.126453 0
M  V30 9730 O 918.06 -3.94934 -1.18746 0
M  V30 9731 H 917.401 -0.661773 0.0543377 0
M  V30 9732 H 919.931 -1.89086 0.781508 0
M  V30 9733 H 919.941 -4.06593 -0.338554 0
M  V30 9734 H 918.616 -4.07862 0.81373 0
M  V30 9735 H 917.193 -3.60455 -0.955318 0
M  V30 9736 N 919.378 -0.300708 -1.54705 0
M  V30 9737 C 920.326 0.591264 -2.2496 0
M  V30 9738 C 921.32 1.13725 -1.2555 0
M  V30 9739 O 922.526 1.08793 -1.43402 0
M  V30 9740 H 918.901 0.209278 -0.722293 0
M  V30 9741 H 920.872 -0.0238175 -2.9839 0
M  V30 9742 C 919.621 1.75179 -3.00346 0
M  V30 9743 H 918.944 1.34089 -3.76643 0
M  V30 9744 H 920.384 2.35198 -3.52786 0
M  V30 9745 C 918.843 2.65574 -2.07298 0
M  V30 9746 O 919.373 3.6666 -1.64083 0
M  V30 9747 N 917.579 2.33301 -1.7326 0
M  V30 9748 H 917.126 1.51142 -2.08599 0
M  V30 9749 H 917.084 2.94049 -1.11278 0
M  V30 9750 N 920.856 1.57574 -0.0284266 0
M  V30 9751 C 922.267 1.79585 0.510502 0
M  V30 9752 C 922.618 0.938625 1.72291 0
M  V30 9753 O 921.743 0.14884 2.15888 0
M  V30 9754 C 922.338 3.25703 0.932912 0
M  V30 9755 C 920.897 3.48711 1.41696 0
M  V30 9756 C 920.044 2.74665 0.381356 0
M  V30 9757 H 922.995 1.56647 -0.254464 0
M  V30 9758 H 923.016 3.35376 1.79731 0
M  V30 9759 H 922.528 3.88067 0.0503036 0
M  V30 9760 H 920.629 2.91597 2.31952 0
M  V30 9761 H 920.742 4.57423 1.42481 0
M  V30 9762 H 919.106 2.40123 0.8493 0
M  V30 9763 H 919.889 3.39745 -0.492775 0
M  V30 9764 N 922.334 -0.244713 1.55689 0
M  V30 9765 C 923.562 -0.989944 1.8168 0
M  V30 9766 C 923.977 -1.78863 0.604449 0
M  V30 9767 O 923.334 -1.77437 -0.426907 0
M  V30 9768 C 923.385 -1.92607 3.05916 0
M  V30 9769 O 923.106 -1.1597 4.22472 0
M  V30 9770 C 924.607 -2.78711 3.44724 0
M  V30 9771 H 921.827 -0.2912 0.604519 0
M  V30 9772 H 924.371 -0.266938 2.0275 0
M  V30 9773 H 922.526 -2.60333 2.8689 0
M  V30 9774 H 922.94 -1.79311 4.92898 0
M  V30 9775 H 924.414 -3.40141 4.34751 0
M  V30 9776 H 924.891 -3.49935 2.6541 0
M  V30 9777 H 925.497 -2.16435 3.66109 0
M  V30 9778 N 923.813 -1.49104 -0.510467 0
M  V30 9779 C 924.76 -1.65074 -1.61305 0
M  V30 9780 C 925.73 -0.492362 -1.58635 0
M  V30 9781 O 926.915 -0.718241 -1.76765 0
M  V30 9782 C 924.055 -1.71457 -2.99493 0
M  V30 9783 C 923.168 -2.98536 -3.12251 0
M  V30 9784 C 922.303 -2.95957 -4.41116 0
M  V30 9785 C 921.342 -4.17655 -4.47471 0
M  V30 9786 N 920.479 -4.13041 -5.67751 0
M  V30 9787 H 925.319 -2.59222 -1.46996 0
M  V30 9788 H 922.856 -1.28535 -0.715346 0
M  V30 9789 H 924.814 -1.7314 -3.79577 0
M  V30 9790 H 923.444 -0.807834 -3.12528 0
M  V30 9791 H 922.496 -3.06509 -2.25292 0
M  V30 9792 H 923.808 -3.88527 -3.12807 0
M  V30 9793 H 922.962 -2.96149 -5.2951 0
M  V30 9794 H 921.701 -2.03728 -4.4311 0
M  V30 9795 H 920.706 -4.17717 -3.57481 0
M  V30 9796 H 921.931 -5.11066 -4.472 0
M  V30 9797 H 919.877 -3.23643 -5.70606 0
M  V30 9798 H 919.794 -4.96757 -5.69884 0
M  V30 9799 H 921.062 -4.17322 -6.58379 0
M  V30 9800 N 925.291 0.760815 -1.38019 0
M  V30 9801 C 926.702 1.33773 -1.30237 0
M  V30 9802 C 927.053 1.96148 0.0451153 0
M  V30 9803 O 926.178 1.94574 0.9471 0
M  V30 9804 C 926.773 2.43227 -2.35851 0
M  V30 9805 C 925.332 2.96659 -2.31669 0
M  V30 9806 C 924.479 1.69972 -2.191 0
M  V30 9807 H 927.43 0.560237 -1.48482 0
M  V30 9808 H 927.451 3.22985 -2.01149 0
M  V30 9809 H 926.963 1.978 -3.33911 0
M  V30 9810 H 925.064 3.46433 -1.37167 0
M  V30 9811 H 925.177 3.51529 -3.25521 0
M  V30 9812 H 923.541 1.9332 -1.65829 0
M  V30 9813 H 924.324 1.26633 -3.19091 0
M  V30 9814 N 926.769 1.22769 0.988202 0
M  V30 9815 C 927.699 1.02627 2.09738 0
M  V30 9816 C 928.68 -0.0543211 1.70013 0
M  V30 9817 O 929.865 0.108811 1.93895 0
M  V30 9818 C 926.995 0.608302 3.41931 0
M  V30 9819 C 925.949 1.63536 3.95525 0
M  V30 9820 C 925.275 1.07308 5.23822 0
M  V30 9821 C 926.575 3.02649 4.25677 0
M  V30 9822 H 928.269 1.954 2.26847 0
M  V30 9823 H 925.815 0.940888 1.09011 0
M  V30 9824 H 927.768 0.454478 4.18942 0
M  V30 9825 H 926.492 -0.355095 3.24664 0
M  V30 9826 H 925.151 1.77704 3.20651 0
M  V30 9827 H 924.799 0.100894 5.02899 0
M  V30 9828 H 924.499 1.75925 5.60646 0
M  V30 9829 H 926.023 0.930938 6.03462 0
M  V30 9830 H 927.437 2.91828 4.93467 0
M  V30 9831 H 925.834 3.68434 4.73684 0
M  V30 9832 H 926.904 3.52228 3.33262 0
M  V30 9833 N 928.247 -1.18576 1.03814 0
M  V30 9834 C 929.179 -2.21607 0.585055 0
M  V30 9835 C 930.192 -1.59125 -0.343963 0
M  V30 9836 O 931.381 -1.77959 -0.138882 0
M  V30 9837 C 928.481 -3.38495 -0.165602 0
M  V30 9838 C 927.654 -4.30557 0.770662 0
M  V30 9839 C 926.713 -5.26161 0.0637534 0
M  V30 9840 O 925.739 -5.64961 0.693359 0
M  V30 9841 N 926.941 -5.67882 -1.20377 0
M  V30 9842 H 929.706 -2.61104 1.47121 0
M  V30 9843 H 927.267 -1.33336 0.918316 0
M  V30 9844 H 929.259 -3.99474 -0.648292 0
M  V30 9845 H 927.829 -2.97711 -0.953268 0
M  V30 9846 H 927.049 -3.67221 1.43326 0
M  V30 9847 H 928.337 -4.88969 1.40667 0
M  V30 9848 H 927.735 -5.38409 -1.73586 0
M  V30 9849 H 926.292 -6.31069 -1.63079 0
M  V30 9850 N 929.725 -0.817259 -1.34754 0
M  V30 9851 C 930.655 -0.249769 -2.3216 0
M  V30 9852 C 931.636 0.630663 -1.57977 0
M  V30 9853 O 932.821 0.558719 -1.85989 0
M  V30 9854 C 929.951 0.593825 -3.42186 0
M  V30 9855 C 928.905 -0.188997 -4.27583 0
M  V30 9856 C 928.231 0.776979 -5.29025 0
M  V30 9857 C 929.531 -1.39401 -5.03354 0
M  V30 9858 H 931.225 -1.06359 -2.79872 0
M  V30 9859 H 928.771 -0.512894 -1.34556 0
M  V30 9860 H 930.724 1.00097 -4.09339 0
M  V30 9861 H 929.448 1.44064 -2.93109 0
M  V30 9862 H 928.107 -0.577445 -3.62024 0
M  V30 9863 H 927.755 1.61959 -4.76212 0
M  V30 9864 H 927.455 0.257448 -5.87036 0
M  V30 9865 H 928.979 1.18211 -5.99048 0
M  V30 9866 H 930.393 -1.06117 -5.63393 0
M  V30 9867 H 928.79 -1.84878 -5.70912 0
M  V30 9868 H 929.86 -2.17515 -4.33377 0
M  V30 9869 N 931.203 1.46865 -0.571711 0
M  V30 9870 C 932.433 2.06518 -0.0583129 0
M  V30 9871 C 932.841 1.4227 1.24723 0
M  V30 9872 O 932.184 0.518293 1.76237 0
M  V30 9873 C 932.246 3.5898 0.193214 0
M  V30 9874 C 931.91 4.45355 -1.02507 0
M  V30 9875 C 932.907 4.82575 -1.93435 0
M  V30 9876 C 930.592 4.86656 -1.24382 0
M  V30 9877 C 932.586 5.59912 -3.04595 0
M  V30 9878 C 930.273 5.63754 -2.35849 0
M  V30 9879 C 931.271 6.00294 -3.25785 0
M  V30 9880 O 930.959 6.75836 -4.35318 0
M  V30 9881 H 930.691 0.674188 -0.0494584 0
M  V30 9882 H 933.245 1.89644 -0.788934 0
M  V30 9883 H 931.475 3.7412 0.978319 0
M  V30 9884 H 933.164 4.006 0.653769 0
M  V30 9885 H 933.93 4.51256 -1.77745 0
M  V30 9886 H 929.809 4.57672 -0.55292 0
M  V30 9887 H 933.353 5.88351 -3.74818 0
M  V30 9888 H 929.25 5.94487 -2.51506 0
M  V30 9889 H 930.018 6.94247 -4.33547 0
M  V30 9890 N 932.681 0.308908 1.54543 0
M  V30 9891 C 934.097 -0.0442273 1.59539 0
M  V30 9892 C 934.297 -1.51743 1.32575 0
M  V30 9893 O 933.353 -2.27134 1.10302 0
M  V30 9894 C 934.666 0.360826 2.98527 0
M  V30 9895 C 936.214 0.310252 3.11459 0
M  V30 9896 C 936.689 0.690246 4.52769 0
M  V30 9897 N 938.18 0.643084 4.58714 0
M  V30 9898 C 938.915 0.909483 5.66141 0
M  V30 9899 N 938.411 1.24226 6.81572 0
M  V30 9900 N 940.204 0.836018 5.55848 0
M  V30 9901 H 932.355 1.26893 1.70329 0
M  V30 9902 H 934.618 0.514986 0.795923 0
M  V30 9903 H 934.324 1.38669 3.23209 0
M  V30 9904 H 934.198 -0.281563 3.76148 0
M  V30 9905 H 936.585 -0.706375 2.86521 0
M  V30 9906 H 936.666 0.987373 2.35976 0
M  V30 9907 H 936.31 1.70472 4.78437 0
M  V30 9908 H 936.24 -0.00903075 5.26599 0
M  V30 9909 H 938.731 0.397138 3.75807 0
M  V30 9910 H 939.044 1.4313 7.5943 0
M  V30 9911 H 937.389 1.28038 6.83104 0
M  V30 9912 H 940.58 0.575637 4.64547 0
M  V30 9913 H 940.753 1.047 6.39486 0
M  V30 9914 N 934.159 -1.57557 0.0367827 0
M  V30 9915 C 935.091 -2.07597 -0.971395 0
M  V30 9916 C 936.104 -1.0009 -1.28397 0
M  V30 9917 O 937.293 -1.27692 -1.24728 0
M  V30 9918 C 934.393 -2.492 -2.2968 0
M  V30 9919 C 933.566 -3.79875 -2.16826 0
M  V30 9920 C 932.625 -4.07946 -3.32366 0
M  V30 9921 O 931.651 -4.78083 -3.0891 0
M  V30 9922 N 932.853 -3.58722 -4.56397 0
M  V30 9923 H 935.618 -2.94714 -0.544389 0
M  V30 9924 H 933.179 -1.61205 -0.1498 0
M  V30 9925 H 935.171 -2.65065 -3.05815 0
M  V30 9926 H 933.741 -1.67407 -2.63995 0
M  V30 9927 H 932.961 -3.73732 -1.2537 0
M  V30 9928 H 934.249 -4.65476 -2.0545 0
M  V30 9929 H 933.647 -3.01994 -4.78347 0
M  V30 9930 H 932.204 -3.79852 -5.29675 0
M  V30 9931 N 935.637 0.236453 -1.55816 0
M  V30 9932 C 936.883 0.960127 -1.79313 0
M  V30 9933 C 937.238 1.8256 -0.607406 0
M  V30 9934 O 936.531 1.87398 0.399046 0
M  V30 9935 C 936.725 1.84549 -3.06066 0
M  V30 9936 C 936.554 1.06721 -4.36853 0
M  V30 9937 C 935.324 0.76811 -4.99428 0
M  V30 9938 C 937.522 0.439715 -5.12417 0
M  V30 9939 N 935.504 -0.0331365 -6.13891 0
M  V30 9940 C 936.875 -0.225616 -6.19589 0
M  V30 9941 C 938.93 0.351237 -4.9666 0
M  V30 9942 C 937.633 -0.970943 -7.12717 0
M  V30 9943 C 939.659 -0.380585 -5.90174 0
M  V30 9944 C 939.021 -1.03451 -6.96762 0
M  V30 9945 H 935.12 0.332095 -0.707981 0
M  V30 9946 H 937.704 0.232311 -1.93309 0
M  V30 9947 H 935.875 2.54525 -2.93379 0
M  V30 9948 H 937.607 2.50552 -3.17814 0
M  V30 9949 H 934.362 1.08248 -4.61063 0
M  V30 9950 H 934.786 -0.422159 -6.75682 0
M  V30 9951 H 939.428 0.842469 -4.14321 0
M  V30 9952 H 937.146 -1.47374 -7.94548 0
M  V30 9953 H 940.732 -0.449851 -5.80058 0
M  V30 9954 H 939.612 -1.59175 -7.67876 0
M  V30 9955 N 937.115 1.49373 0.502552 0
M  V30 9956 C 938.343 1.62488 1.28084 0
M  V30 9957 C 938.758 0.295667 1.86471 0
M  V30 9958 O 938.115 -0.718664 1.67754 0
M  V30 9959 C 938.166 2.69249 2.4122 0
M  V30 9960 O 937.887 3.97014 1.85234 0
M  V30 9961 C 939.388 2.93054 3.32617 0
M  V30 9962 H 936.608 0.547068 0.388533 0
M  V30 9963 H 939.152 1.95394 0.603452 0
M  V30 9964 H 937.307 2.39125 3.04792 0
M  V30 9965 H 937.721 4.55809 2.59496 0
M  V30 9966 H 939.195 3.71493 4.08285 0
M  V30 9967 H 939.672 2.02911 3.89517 0
M  V30 9968 H 940.278 3.24589 2.74813 0
M  V30 9969 N 938.594 -0.753485 1.38421 0
M  V30 9970 C 939.871 -1.50318 1.25155 0
M  V30 9971 C 940.251 -2.10588 -0.147003 0
M  V30 9972 O 939.599 -1.97071 -1.15651 0
M  V30 9973 C 939.809 -2.56946 2.36177 0
M  V30 9974 C 941.157 -3.23846 2.74607 0
M  V30 9975 O 942.181 -2.67251 2.3549 0
M  V30 9976 O 941.04 -4.2621 3.42064 0
M  V30 9977 H 938.134 -0.666624 0.48943 0
M  V30 9978 H 940.68 -0.788887 1.50249 0
M  V30 9979 H 939.452 -2.1066 3.29754 0
M  V30 9980 H 939.075 -3.35956 2.12648 0
M  V30 9981 N 940.072 -1.23292 -0.981677 0
M  V30 9982 C 941.488 -0.995295 -1.24764 0
M  V30 9983 C 941.688 0.304379 -1.99188 0
M  V30 9984 O 940.744 1.02414 -2.30798 0
M  V30 9985 C 942.057 -2.20135 -2.04844 0
M  V30 9986 C 943.605 -2.24612 -2.17988 0
M  V30 9987 C 944.08 -3.448 -3.01458 0
M  V30 9988 N 945.571 -3.45031 -3.09044 0
M  V30 9989 C 946.306 -4.34683 -3.7395 0
M  V30 9990 N 945.802 -5.34569 -4.4069 0
M  V30 9991 N 947.595 -4.22429 -3.70823 0
M  V30 9992 H 939.746 -2.06834 -0.483052 0
M  V30 9993 H 942.009 -0.906929 -0.276014 0
M  V30 9994 H 941.715 -3.14446 -1.57532 0
M  V30 9995 H 941.589 -2.21115 -3.05594 0
M  V30 9996 H 943.976 -1.30841 -2.64508 0
M  V30 9997 H 944.057 -2.27664 -1.16631 0
M  V30 9998 H 943.701 -4.38877 -2.55635 0
M  V30 9999 H 943.631 -3.38988 -4.02982 0
M  V30 10000 H 946.122 -2.72759 -2.61555 0
M  V30 10001 H 946.435 -5.99236 -4.87991 0
M  V30 10002 H 944.78 -5.3847 -4.39403 0
M  V30 10003 H 947.971 -3.43639 -3.17851 0
M  V30 10004 H 948.144 -4.92501 -4.21126 0
M  V30 10005 N 941.55 1.18024 -1.04442 0
M  V30 10006 C 942.799 1.8743 -0.745185 0
M  V30 10007 C 943.112 1.81459 0.730206 0
M  V30 10008 O 944.318 2.46263 1.1431 0
M  V30 10009 C 942.774 3.36266 -1.28271 0
M  V30 10010 C 942.382 3.50757 -2.787 0
M  V30 10011 C 944.126 4.11048 -1.06018 0
M  V30 10012 C 942.033 4.93573 -3.25791 0
M  V30 10013 H 940.963 0.702038 -0.27506 0
M  V30 10014 H 943.614 1.33333 -1.26073 0
M  V30 10015 H 941.996 3.89853 -0.695002 0
M  V30 10016 H 943.17 3.07423 -3.43261 0
M  V30 10017 H 941.485 2.89385 -2.99408 0
M  V30 10018 H 944.082 5.16395 -1.38711 0
M  V30 10019 H 944.425 4.163 0.00241716 0
M  V30 10020 H 944.958 3.63644 -1.61269 0
M  V30 10021 H 941.697 4.93491 -4.31447 0
M  V30 10022 H 941.217 5.37607 -2.65968 0
M  V30 10023 H 942.896 5.62307 -3.20031 0
M  V30 10024 N 943.028 0.824394 1.34319 0
M  V30 10025 C 943.961 0.192544 2.27386 0
M  V30 10026 C 944.939 -0.651901 1.4896 0
M  V30 10027 O 946.123 -0.615321 1.78174 0
M  V30 10028 C 943.25 -0.730958 3.30718 0
M  V30 10029 C 942.296 0.0361484 4.26485 0
M  V30 10030 S 943.129 1.3843 5.17298 0
M  V30 10031 C 944.285 0.465713 6.24165 0
M  V30 10032 H 944.518 0.981573 2.80629 0
M  V30 10033 H 942.051 0.620371 1.41389 0
M  V30 10034 H 944.009 -1.25822 3.90742 0
M  V30 10035 H 942.67 -1.49352 2.7632 0
M  V30 10036 H 941.863 -0.665969 4.99581 0
M  V30 10037 H 941.465 0.494011 3.70723 0
M  V30 10038 H 943.757 -0.342157 6.76635 0
M  V30 10039 H 944.7 1.16639 6.98427 0
M  V30 10040 H 945.108 0.0534895 5.64475 0
M  V30 10041 N 944.506 -1.46559 0.579492 0
M  V30 10042 C 945.416 -2.34066 -0.15816 0
M  V30 10043 C 946.432 -1.49556 -0.88932 0
M  V30 10044 O 947.608 -1.82434 -0.853226 0
M  V30 10045 C 944.673 -3.26683 -1.161 0
M  V30 10046 C 943.734 -4.27092 -0.434855 0
M  V30 10047 C 942.967 -5.15283 -1.38992 0
M  V30 10048 O 943.19 -5.06345 -2.62623 0
M  V30 10049 O 942.124 -5.95099 -0.902253 0
M  V30 10050 H 945.95 -2.98488 0.560234 0
M  V30 10051 H 943.535 -1.45482 0.339918 0
M  V30 10052 H 945.417 -3.8383 -1.73932 0
M  V30 10053 H 944.092 -2.64862 -1.86091 0
M  V30 10054 H 942.999 -3.73641 0.185224 0
M  V30 10055 H 944.332 -4.9169 0.224031 0
M  V30 10056 N 945.984 -0.3171 -1.54377 0
M  V30 10057 C 946.894 0.560867 -2.27797 0
M  V30 10058 C 947.91 1.13473 -1.31908 0
M  V30 10059 O 949.086 1.15608 -1.64914 0
M  V30 10060 C 946.151 1.70886 -3.0166 0
M  V30 10061 C 945.212 1.16745 -4.13121 0
M  V30 10062 C 944.445 2.26073 -4.83453 0
M  V30 10063 O 944.668 3.46292 -4.53252 0
M  V30 10064 O 943.602 1.91856 -5.70504 0
M  V30 10065 H 947.428 -0.035193 -3.0368 0
M  V30 10066 H 945.013 -0.0830062 -1.49169 0
M  V30 10067 H 946.895 2.37736 -3.47936 0
M  V30 10068 H 945.57 2.29122 -2.28658 0
M  V30 10069 H 944.477 0.464224 -3.71209 0
M  V30 10070 H 945.81 0.630307 -4.88147 0
M  V30 10071 N 947.462 1.57535 -0.0451378 0
M  V30 10072 C 948.709 1.92451 0.629987 0
M  V30 10073 C 949.037 0.92298 1.71206 0
M  V30 10074 O 948.292 -0.0656626 1.9559 0
M  V30 10075 C 948.591 3.34065 1.27024 0
M  V30 10076 C 948.257 4.49785 0.316971 0
M  V30 10077 C 946.919 4.81169 0.0546406 0
M  V30 10078 C 949.271 5.20111 -0.336693 0
M  V30 10079 C 946.599 5.8023 -0.86889 0
M  V30 10080 C 948.951 6.2016 -1.24838 0
M  V30 10081 C 947.615 6.49976 -1.51944 0
M  V30 10082 H 946.885 0.704228 0.230529 0
M  V30 10083 H 949.532 1.91182 -0.110328 0
M  V30 10084 H 947.837 3.31672 2.08568 0
M  V30 10085 H 949.534 3.58359 1.79945 0
M  V30 10086 H 946.124 4.2529 0.531614 0
M  V30 10087 H 950.308 4.96082 -0.147105 0
M  V30 10088 H 945.564 6.0167 -1.08643 0
M  V30 10089 H 949.738 6.73767 -1.76098 0
M  V30 10090 H 947.365 7.26551 -2.2367 0
M  V30 10091 N 948.94 -0.228186 1.55939 0
M  V30 10092 C 950.187 -0.953552 1.78644 0
M  V30 10093 C 950.515 -1.84596 0.61275 0
M  V30 10094 O 949.77 -1.91502 -0.403175 0
M  V30 10095 C 950.069 -1.82924 3.0704 0
M  V30 10096 C 949.735 -1.09062 4.37511 0
M  V30 10097 C 948.397 -0.886565 4.72962 0
M  V30 10098 C 950.749 -0.568533 5.1809 0
M  V30 10099 C 948.077 -0.148413 5.86512 0
M  V30 10100 C 950.429 0.156243 6.32407 0
M  V30 10101 C 949.093 0.371612 6.66465 0
M  V30 10102 H 948.363 -0.348929 0.653704 0
M  V30 10103 H 951.01 -0.222211 1.90206 0
M  V30 10104 H 949.315 -2.62823 2.90571 0
M  V30 10105 H 951.012 -2.3925 3.21808 0
M  V30 10106 H 947.602 -1.25963 4.09672 0
M  V30 10107 H 951.786 -0.713673 4.91142 0
M  V30 10108 H 947.042 0.0287418 6.11393 0
M  V30 10109 H 951.216 0.568333 6.94077 0
M  V30 10110 H 948.843 0.945522 7.54297 0
M  V30 10111 N 950.418 -1.49637 -0.494624 0
M  V30 10112 C 951.834 -1.36541 -0.826361 0
M  V30 10113 C 952.034 -0.403386 -1.97421 0
M  V30 10114 O 951.09 0.162614 -2.51976 0
M  V30 10115 C 952.403 -2.77401 -1.16057 0
M  V30 10116 C 953.951 -2.86148 -1.26841 0
M  V30 10117 C 954.426 -4.27789 -1.63587 0
M  V30 10118 N 955.917 -4.3063 -1.70624 0
M  V30 10119 C 956.652 -5.37198 -2.00514 0
M  V30 10120 N 956.148 -6.54004 -2.28584 0
M  V30 10121 N 957.941 -5.2462 -2.01818 0
M  V30 10122 H 950.092 -2.10776 0.26219 0
M  V30 10123 H 952.355 -0.946419 0.0547235 0
M  V30 10124 H 952.061 -3.49526 -0.390434 0
M  V30 10125 H 951.935 -3.1317 -2.10249 0
M  V30 10126 H 954.322 -2.14256 -2.02925 0
M  V30 10127 H 954.403 -2.53953 -0.30684 0
M  V30 10128 H 954.047 -5.00209 -0.880507 0
M  V30 10129 H 953.977 -4.57453 -2.60854 0
M  V30 10130 H 956.468 -3.46393 -1.51065 0
M  V30 10131 H 956.781 -7.31041 -2.50598 0
M  V30 10132 H 955.126 -6.57219 -2.26027 0
M  V30 10133 H 958.317 -4.32371 -1.79369 0
M  V30 10134 H 958.49 -6.07765 -2.24778 0
M  V30 10135 N 951.896 0.746133 -1.38819 0
M  V30 10136 C 952.828 1.86991 -1.3254 0
M  V30 10137 C 953.841 1.61077 -0.236216 0
M  V30 10138 O 955.03 1.71518 -0.494341 0
M  V30 10139 C 952.13 3.22786 -1.03258 0
M  V30 10140 C 951.303 3.76145 -2.23234 0
M  V30 10141 C 950.362 4.90474 -1.90581 0
M  V30 10142 O 949.388 5.04717 -2.63153 0
M  V30 10143 N 950.59 5.74015 -0.86525 0
M  V30 10144 H 953.355 1.92885 -2.2938 0
M  V30 10145 H 950.916 0.926392 -1.32776 0
M  V30 10146 H 952.908 3.96824 -0.794533 0
M  V30 10147 H 951.478 3.12231 -0.151895 0
M  V30 10148 H 950.698 2.93587 -2.63059 0
M  V30 10149 H 951.986 4.08528 -3.03285 0
M  V30 10150 H 951.384 5.65086 -0.263577 0
M  V30 10151 H 949.941 6.48168 -0.687087 0
M  V30 10152 N 953.375 1.23811 0.975125 0
M  V30 10153 C 954.623 1.07124 1.71373 0
M  V30 10154 C 954.944 -0.391864 1.91022 0
M  V30 10155 O 954.214 -1.28041 1.48265 0
M  V30 10156 H 952.794 0.393415 0.635007 0
M  V30 10157 H 955.456 1.55612 1.17349 0
M  V30 10158 H 954.552 1.56338 2.7012 0
M  V30 10159 N 954.853 -1.17469 1.05066 0
M  V30 10160 C 956.13 -1.83625 0.673872 0
M  V30 10161 C 956.51 -1.93412 -0.845871 0
M  V30 10162 O 955.858 -1.4677 -1.75131 0
M  V30 10163 C 956.068 -3.21352 1.36139 0
M  V30 10164 C 957.416 -3.97274 1.49863 0
M  V30 10165 O 958.44 -3.30827 1.3203 0
M  V30 10166 O 957.299 -5.16349 1.79013 0
M  V30 10167 H 954.393 -0.792297 0.237055 0
M  V30 10168 H 956.939 -1.24776 1.15017 0
M  V30 10169 H 955.711 -3.0919 2.39827 0
M  V30 10170 H 955.334 -3.87867 0.874364 0
M  V30 10171 N 956.331 -0.831506 -1.3388 0
M  V30 10172 C 957.747 -0.518349 -1.50948 0
M  V30 10173 C 957.947 0.955807 -1.77388 0
M  V30 10174 O 957.003 1.73993 -1.82983 0
M  V30 10175 C 958.316 -1.38531 -2.66889 0
M  V30 10176 C 959.864 -1.38332 -2.80772 0
M  V30 10177 C 960.339 -2.23497 -3.99766 0
M  V30 10178 N 961.83 -2.21167 -4.06988 0
M  V30 10179 C 962.565 -2.83805 -4.98239 0
M  V30 10180 N 962.061 -3.55468 -5.94655 0
M  V30 10181 N 963.854 -2.73314 -4.91178 0
M  V30 10182 H 956.005 -1.78588 -1.14978 0
M  V30 10183 H 958.268 -0.761508 -0.564633 0
M  V30 10184 H 957.974 -2.43255 -2.54007 0
M  V30 10185 H 957.848 -1.05611 -3.62114 0
M  V30 10186 H 960.235 -0.343832 -2.9309 0
M  V30 10187 H 960.316 -1.75256 -1.86331 0
M  V30 10188 H 959.96 -3.27501 -3.88208 0
M  V30 10189 H 959.89 -1.83919 -4.93438 0
M  V30 10190 H 962.381 -1.69046 -3.37982 0
M  V30 10191 H 962.694 -4.00487 -6.60931 0
M  V30 10192 H 961.039 -3.59575 -5.94753 0
M  V30 10193 H 964.23 -2.16897 -4.14817 0
M  V30 10194 H 964.403 -3.22416 -5.62096 0
M  V30 10195 N 957.809 1.4625 -0.587256 0
M  V30 10196 C 958.719 2.34147 0.145744 0
M  V30 10197 C 959.735 1.50026 0.881376 0
M  V30 10198 O 960.911 1.82884 0.843539 0
M  V30 10199 C 957.976 3.27294 1.14366 0
M  V30 10200 C 957.037 4.27317 0.412199 0
M  V30 10201 C 956.27 5.16013 1.36257 0
M  V30 10202 O 956.493 5.0773 2.59934 0
M  V30 10203 O 955.427 5.95569 0.870681 0
M  V30 10204 H 959.253 2.98187 -0.576055 0
M  V30 10205 H 956.838 1.45299 -0.347628 0
M  V30 10206 H 958.72 3.84747 1.71894 0
M  V30 10207 H 957.395 2.65845 1.84684 0
M  V30 10208 H 956.302 3.73538 -0.205036 0
M  V30 10209 H 957.635 4.91564 -0.250104 0
M  V30 10210 N 959.287 0.325282 1.54207 0
M  V30 10211 C 960.703 -0.0273036 1.59577 0
M  V30 10212 C 960.903 -1.50329 1.34177 0
M  V30 10213 O 959.959 -2.25951 1.12705 0
M  V30 10214 C 961.272 0.392468 2.98128 0
M  V30 10215 C 962.82 0.343269 3.11112 0
M  V30 10216 C 963.295 0.738229 4.52011 0
M  V30 10217 N 964.786 0.691701 4.58006 0
M  V30 10218 C 965.521 0.969479 5.65145 0
M  V30 10219 N 965.017 1.31448 6.80216 0
M  V30 10220 N 966.81 0.894926 5.5493 0
M  V30 10221 H 958.961 1.28692 1.68974 0
M  V30 10222 H 961.224 0.523399 0.790416 0
M  V30 10223 H 960.93 1.42089 3.2172 0
M  V30 10224 H 960.804 -0.241651 3.76425 0
M  V30 10225 H 963.191 -0.675946 2.87254 0
M  V30 10226 H 963.272 1.01235 2.34915 0
M  V30 10227 H 962.916 1.75537 4.76602 0
M  V30 10228 H 962.846 0.0468226 5.26579 0
M  V30 10229 H 965.337 0.436975 3.75365 0
M  V30 10230 H 965.65 1.51177 7.57869 0
M  V30 10231 H 963.995 1.35276 6.81708 0
M  V30 10232 H 967.186 0.624876 4.6391 0
M  V30 10233 H 967.359 1.11476 6.38339 0
M  V30 10234 N 960.765 -1.57509 0.0534917 0
M  V30 10235 C 961.675 -2.15152 -0.935249 0
M  V30 10236 C 962.691 -1.10991 -1.34003 0
M  V30 10237 O 963.867 -1.43171 -1.41648 0
M  V30 10238 C 960.932 -2.68699 -2.19093 0
M  V30 10239 C 959.993 -3.87666 -1.84428 0
M  V30 10240 C 959.226 -4.3865 -3.0401 0
M  V30 10241 O 959.449 -3.887 -4.17455 0
M  V30 10242 O 958.383 -5.30209 -2.84889 0
M  V30 10243 H 962.209 -2.99962 -0.475009 0
M  V30 10244 H 959.794 -1.48446 -0.16854 0
M  V30 10245 H 961.676 -3.03098 -2.92762 0
M  V30 10246 H 960.351 -1.86958 -2.6425 0
M  V30 10247 H 959.258 -3.58151 -1.08068 0
M  V30 10248 H 960.591 -4.70643 -1.44068 0
M  V30 10249 N 962.243 0.219913 -1.56058 0
M  V30 10250 C 963.659 0.569685 -1.49086 0
M  V30 10251 C 963.859 1.87066 -0.748903 0
M  V30 10252 O 962.915 2.50838 -0.289235 0
M  V30 10253 C 964.228 0.647397 -2.93648 0
M  V30 10254 C 965.776 0.737914 -3.04177 0
M  V30 10255 C 966.251 0.846957 -4.50101 0
M  V30 10256 N 967.742 0.911136 -4.5415 0
M  V30 10257 C 968.477 1.01525 -5.64341 0
M  V30 10258 N 967.973 1.0832 -6.8428 0
M  V30 10259 N 969.766 1.05051 -5.52196 0
M  V30 10260 H 961.917 -0.633778 -2.02724 0
M  V30 10261 H 964.18 -0.222583 -0.921499 0
M  V30 10262 H 963.886 -0.238987 -3.50887 0
M  V30 10263 H 963.76 1.51046 -3.45637 0
M  V30 10264 H 966.147 1.61474 -2.47002 0
M  V30 10265 H 966.228 -0.150845 -2.55355 0
M  V30 10266 H 965.872 -0.0254166 -5.07894 0
M  V30 10267 H 965.802 1.75116 -4.96631 0
M  V30 10268 H 968.293 0.868869 -3.67776 0
M  V30 10269 H 968.606 1.16247 -7.64007 0
M  V30 10270 H 966.951 1.05231 -6.86987 0
M  V30 10271 H 970.142 0.994086 -4.57423 0
M  V30 10272 H 970.315 1.12819 -6.38103 0
M  V30 10273 N 963.721 1.49897 0.486681 0
M  V30 10274 C 964.969 1.59789 1.23742 0
M  V30 10275 C 965.29 0.293056 1.92785 0
M  V30 10276 O 964.56 -0.688534 1.83401 0
M  V30 10277 H 963.14 0.588775 0.459731 0
M  V30 10278 H 965.802 1.86597 0.562808 0
M  V30 10279 H 964.898 2.40121 1.9937 0
M  V30 10280 N 965.199 -0.738761 1.39212 0
M  V30 10281 C 966.132 -1.86135 1.32018 0
M  V30 10282 C 967.11 -1.61432 0.194512 0
M  V30 10283 O 968.294 -1.84746 0.374331 0
M  V30 10284 C 965.421 -3.22044 1.04907 0
M  V30 10285 C 964.467 -3.65612 2.19613 0
M  V30 10286 S 965.3 -3.75418 3.81866 0
M  V30 10287 C 966.456 -5.14122 3.56972 0
M  V30 10288 H 966.689 -1.91954 2.27027 0
M  V30 10289 H 964.222 -0.903244 1.25223 0
M  V30 10290 H 966.18 -4.00524 0.899491 0
M  V30 10291 H 964.841 -3.13886 0.115918 0
M  V30 10292 H 964.034 -4.64232 1.96227 0
M  V30 10293 H 963.636 -2.94327 2.30755 0
M  V30 10294 H 965.928 -6.00339 3.14005 0
M  V30 10295 H 966.871 -5.42535 4.55039 0
M  V30 10296 H 967.279 -4.8362 2.91156 0
M  V30 10297 N 966.677 -1.24326 -0.968545 0
M  V30 10298 C 967.587 -1.05194 -2.09694 0
M  V30 10299 C 968.603 0.00701291 -1.73999 0
M  V30 10300 O 969.779 -0.190981 -2.00492 0
M  V30 10301 C 966.844 -0.658075 -3.40397 0
M  V30 10302 C 965.905 -1.79341 -3.90045 0
M  V30 10303 C 965.138 -1.41824 -5.14511 0
M  V30 10304 O 965.361 -0.307693 -5.69569 0
M  V30 10305 O 964.295 -2.24358 -5.58522 0
M  V30 10306 H 968.121 -1.99791 -2.2873 0
M  V30 10307 H 965.706 -1.03138 -1.08088 0
M  V30 10308 H 967.588 -0.449911 -4.18991 0
M  V30 10309 H 966.263 0.258782 -3.22664 0
M  V30 10310 H 965.17 -2.05632 -3.12516 0
M  V30 10311 H 966.503 -2.68901 -4.12254 0
M  V30 10312 N 968.156 1.1691 -1.05688 0
M  V30 10313 C 969.405 1.86629 -0.765022 0
M  V30 10314 C 969.718 1.82223 0.710918 0
M  V30 10315 O 970.924 2.47462 1.11691 0
M  V30 10316 C 969.38 3.34886 -1.3183 0
M  V30 10317 C 968.988 3.47781 -2.82404 0
M  V30 10318 C 970.732 4.099 -1.10372 0
M  V30 10319 C 968.639 4.9009 -3.31008 0
M  V30 10320 H 967.569 0.699082 -0.282491 0
M  V30 10321 H 970.22 1.31989 -1.27481 0
M  V30 10322 H 968.602 3.89094 -0.736312 0
M  V30 10323 H 969.776 3.03765 -3.46502 0
M  V30 10324 H 968.091 2.86193 -3.02461 0
M  V30 10325 H 970.688 5.14894 -1.4418 0
M  V30 10326 H 971.031 4.16279 -0.0417372 0
M  V30 10327 H 971.564 3.61913 -1.65117 0
M  V30 10328 H 968.303 4.88887 -4.36657 0
M  V30 10329 H 967.823 5.34756 -2.71655 0
M  V30 10330 H 969.502 5.58881 -3.25977 0
M  V30 10331 N 969.634 0.838594 1.33437 0
M  V30 10332 C 970.859 0.446701 2.02532 0
M  V30 10333 C 971.284 -0.944275 1.62681 0
M  V30 10334 O 970.642 -1.61733 0.81927 0
M  V30 10335 C 970.69 0.574794 3.55989 0
M  V30 10336 O 969.794 -0.399063 4.10465 0
M  V30 10337 H 969.135 0.181637 0.638674 0
M  V30 10338 H 971.665 1.13335 1.70342 0
M  V30 10339 H 971.675 0.456339 4.0544 0
M  V30 10340 H 970.35 1.58921 3.8434 0
M  V30 10341 H 968.927 -0.238187 3.72139 0
M  V30 10342 N 971.112 -1.45937 0.595003 0
M  V30 10343 C 972.523 -1.85908 0.171779 0
M  V30 10344 C 972.874 -1.497 -1.26824 0
M  V30 10345 O 971.999 -0.917688 -1.95978 0
M  V30 10346 C 972.594 -3.37425 0.304976 0
M  V30 10347 C 971.153 -3.76346 -0.0634635 0
M  V30 10348 C 970.3 -2.69926 0.635255 0
M  V30 10349 H 973.251 -1.36916 0.802471 0
M  V30 10350 H 973.272 -3.77632 -0.466313 0
M  V30 10351 H 972.784 -3.63747 1.35314 0
M  V30 10352 H 970.885 -3.55642 -1.11129 0
M  V30 10353 H 970.998 -4.78021 0.321419 0
M  V30 10354 H 969.362 -2.54592 0.0742054 0
M  V30 10355 H 970.145 -2.99086 1.68531 0
M  V30 10356 N 972.59 -0.333456 -1.54032 0
M  V30 10357 C 973.523 0.570776 -2.20947 0
M  V30 10358 C 974.501 1.10811 -1.18994 0
M  V30 10359 O 975.685 1.17027 -1.47773 0
M  V30 10360 C 972.812 1.7842 -2.87896 0
M  V30 10361 C 971.858 1.37722 -4.03652 0
M  V30 10362 S 972.691 0.405548 -5.33962 0
M  V30 10363 C 973.847 1.62603 -6.0441 0
M  V30 10364 H 974.08 0.0023936 -2.973 0
M  V30 10365 H 971.613 -0.117531 -1.53952 0
M  V30 10366 H 973.571 2.48038 -3.27089 0
M  V30 10367 H 972.232 2.32378 -2.11327 0
M  V30 10368 H 971.425 2.28167 -4.49395 0
M  V30 10369 H 971.027 0.760628 -3.66184 0
M  V30 10370 H 973.319 2.56202 -6.2719 0
M  V30 10371 H 974.262 1.21058 -6.97675 0
M  V30 10372 H 974.67 1.8175 -5.34441 0
M  V30 10373 N 974.068 1.57479 -0.061844 0
M  V30 10374 C 975.308 1.94982 0.613309 0
M  V30 10375 C 975.672 0.940729 1.67375 0
M  V30 10376 O 976.873 1.20307 2.40374 0
M  V30 10377 C 975.144 3.37208 1.18429 0
M  V30 10378 S 976.703 3.96678 1.87596 0
M  V30 10379 H 973.521 0.681969 0.201096 0
M  V30 10380 H 976.123 1.95045 -0.133328 0
M  V30 10381 H 974.827 4.08441 0.400522 0
M  V30 10382 H 974.358 3.40665 1.96751 0
M  V30 10383 H 976.373 3.82772 3.15754 0
M  V30 10384 N 975.546 -0.211634 1.56173 0
M  V30 10385 C 976.823 -0.959467 1.70451 0
M  V30 10386 C 977.203 -2.02036 0.611942 0
M  V30 10387 O 976.551 -2.25325 -0.37959 0
M  V30 10388 C 976.761 -1.56092 3.12148 0
M  V30 10389 C 978.109 -2.04939 3.71867 0
M  V30 10390 O 979.133 -1.65966 3.15172 0
M  V30 10391 O 977.992 -2.766 4.71333 0
M  V30 10392 H 975.086 -0.448844 0.6946 0
M  V30 10393 H 977.632 -0.202633 1.68486 0
M  V30 10394 H 976.404 -0.79538 3.83131 0
M  V30 10395 H 976.027 -2.38303 3.18273 0
M  V30 10396 N 977.024 -1.50153 -0.478725 0
M  V30 10397 C 977.971 -1.68458 -1.57767 0
M  V30 10398 C 978.941 -0.5259 -1.57555 0
M  V30 10399 O 980.126 -0.755574 -1.75202 0
M  V30 10400 C 977.266 -1.77772 -2.95789 0
M  V30 10401 C 976.379 -3.05092 -3.05848 0
M  V30 10402 C 975.514 -3.05247 -4.34739 0
M  V30 10403 C 974.553 -4.27053 -4.38512 0
M  V30 10404 N 973.69 -4.24991 -5.58862 0
M  V30 10405 H 978.53 -2.62282 -1.41464 0
M  V30 10406 H 976.067 -1.30023 -0.687921 0
M  V30 10407 H 978.025 -1.81152 -3.75819 0
M  V30 10408 H 976.655 -0.873944 -3.10744 0
M  V30 10409 H 975.707 -3.11219 -2.1874 0
M  V30 10410 H 977.019 -3.95075 -3.04495 0
M  V30 10411 H 976.173 -3.07314 -5.23109 0
M  V30 10412 H 974.912 -2.13081 -4.38689 0
M  V30 10413 H 973.917 -4.25206 -3.4854 0
M  V30 10414 H 975.142 -5.20437 -4.36259 0
M  V30 10415 H 973.088 -3.35674 -5.63612 0
M  V30 10416 H 973.005 -5.08734 -5.59219 0
M  V30 10417 H 974.273 -4.31193 -6.49379 0
M  V30 10418 N 978.502 0.731368 -1.39602 0
M  V30 10419 C 979.452 1.83662 -1.35101 0
M  V30 10420 C 980.436 1.5923 -0.231241 0
M  V30 10421 O 981.628 1.70671 -0.469072 0
M  V30 10422 C 978.757 3.21629 -1.20041 0
M  V30 10423 C 977.843 3.51878 -2.36733 0
M  V30 10424 N 978.234 3.53041 -3.6221 0
M  V30 10425 C 976.532 3.82259 -2.2977 0
M  V30 10426 C 977.233 3.81188 -4.39398 0
M  V30 10427 N 976.209 3.99145 -3.69031 0
M  V30 10428 H 980.011 1.82871 -2.30077 0
M  V30 10429 H 977.525 0.929777 -1.3315 0
M  V30 10430 H 979.522 4.00754 -1.14899 0
M  V30 10431 H 978.182 3.23656 -0.260184 0
M  V30 10432 H 979.193 3.34266 -3.95584 0
M  V30 10433 H 975.87 3.9187 -1.44029 0
M  V30 10434 H 977.26 3.88525 -5.48177 0
M  V30 10435 N 979.98 1.24838 0.961938 0
M  V30 10436 C 980.928 1.0436 2.07874 0
M  V30 10437 C 981.922 -0.0232531 1.69384 0
M  V30 10438 O 983.128 0.131773 1.79517 0
M  V30 10439 H 979.503 0.320492 0.680286 0
M  V30 10440 H 981.474 1.99055 2.22306 0
M  V30 10441 C 980.223 0.671246 3.41159 0
M  V30 10442 H 979.546 1.48395 3.7124 0
M  V30 10443 H 980.986 0.567608 4.20184 0
M  V30 10444 C 979.445 -0.622124 3.31106 0
M  V30 10445 O 979.975 -1.66627 3.65511 0
M  V30 10446 N 978.181 -0.605009 2.84232 0
M  V30 10447 H 977.728 0.245052 2.56432 0
M  V30 10448 H 977.686 -1.47056 2.77888 0
M  V30 10449 N 981.458 -1.16348 1.06306 0
M  V30 10450 C 982.421 -2.18941 0.678053 0
M  V30 10451 C 983.421 -1.58409 -0.276277 0
M  V30 10452 O 984.611 -1.74101 -0.0586435 0
M  V30 10453 C 981.743 -3.409 -0.00228684 0
M  V30 10454 H 982.936 -2.54516 1.58624 0
M  V30 10455 H 980.489 -1.30625 0.858298 0
M  V30 10456 H 981.224 -3.10881 -0.923212 0
M  V30 10457 H 981.009 -3.86089 0.683949 0
M  V30 10458 H 982.499 -4.16806 -0.257374 0
M  V30 10459 N 982.937 -0.845659 -1.3299 0
M  V30 10460 C 984.162 -0.457435 -2.02293 0
M  V30 10461 C 984.587 0.935634 -1.63179 0
M  V30 10462 O 983.945 1.61297 -0.827835 0
M  V30 10463 C 983.993 -0.593665 -3.5568 0
M  V30 10464 O 983.097 0.37729 -4.10671 0
M  V30 10465 H 982.438 -0.185022 -0.637701 0
M  V30 10466 H 984.968 -1.14237 -1.69738 0
M  V30 10467 H 984.978 -0.477834 -4.05192 0
M  V30 10468 H 983.653 -1.60957 -3.83491 0
M  V30 10469 H 982.23 0.218448 -3.7226 0
M  V30 10470 N 984.415 1.45619 -0.602734 0
M  V30 10471 C 985.661 2.02572 -0.0961759 0
M  V30 10472 C 985.994 1.47076 1.26815 0
M  V30 10473 O 985.269 0.643566 1.83544 0
M  V30 10474 C 985.552 3.60062 -0.0520032 0
M  V30 10475 C 985.405 4.25901 -1.44665 0
M  V30 10476 C 986.724 4.35446 0.638342 0
M  V30 10477 H 983.843 0.736099 -0.0364238 0
M  V30 10478 H 986.485 1.7353 -0.773776 0
M  V30 10479 H 984.635 3.84936 0.525032 0
M  V30 10480 H 986.307 4.12228 -2.0704 0
M  V30 10481 H 984.55 3.84489 -2.00874 0
M  V30 10482 H 985.221 5.34779 -1.36803 0
M  V30 10483 H 987.697 4.15837 0.147926 0
M  V30 10484 H 986.573 5.45176 0.63834 0
M  V30 10485 H 986.834 4.07962 1.70351 0
M  V30 10486 N 985.893 0.34162 1.53853 0
M  V30 10487 C 986.803 -0.524555 2.2866 0
M  V30 10488 C 987.819 -1.1136 1.33697 0
M  V30 10489 O 988.995 -1.1297 1.66732 0
M  V30 10490 C 986.06 -1.66065 3.04341 0
M  V30 10491 C 985.121 -1.10158 4.14926 0
M  V30 10492 C 984.354 -2.18353 4.86988 0
M  V30 10493 O 984.577 -3.39038 4.58704 0
M  V30 10494 O 983.511 -1.82756 5.73484 0
M  V30 10495 H 987.337 0.0835014 3.03585 0
M  V30 10496 H 984.922 0.106727 1.49018 0
M  V30 10497 H 986.804 -2.3217 3.51674 0
M  V30 10498 H 985.479 -2.25456 2.32275 0
M  V30 10499 H 984.386 -0.405109 3.719 0
M  V30 10500 H 985.719 -0.552567 4.89088 0
M  V30 10501 N 987.371 -1.57444 0.0701946 0
M  V30 10502 C 988.318 -2.12631 -0.897599 0
M  V30 10503 C 989.288 -1.03841 -1.29639 0
M  V30 10504 O 990.473 -1.31495 -1.38253 0
M  V30 10505 C 987.613 -2.6911 -2.16041 0
M  V30 10506 C 986.726 -3.9205 -1.8144 0
M  V30 10507 C 985.861 -4.36778 -3.02321 0
M  V30 10508 C 984.9 -5.52371 -2.63729 0
M  V30 10509 N 984.037 -5.92065 -3.77364 0
M  V30 10510 H 988.877 -2.95024 -0.420104 0
M  V30 10511 H 986.414 -1.45792 -0.195716 0
M  V30 10512 H 988.372 -2.99963 -2.89962 0
M  V30 10513 H 987.002 -1.89484 -2.61334 0
M  V30 10514 H 986.054 -3.67669 -0.975896 0
M  V30 10515 H 987.366 -4.76011 -1.49046 0
M  V30 10516 H 986.52 -4.69285 -3.84521 0
M  V30 10517 H 985.259 -3.51668 -3.37907 0
M  V30 10518 H 984.264 -5.19517 -1.7995 0
M  V30 10519 H 985.489 -6.39212 -2.29315 0
M  V30 10520 H 983.435 -5.09904 -4.12715 0
M  V30 10521 H 983.352 -6.70762 -3.48733 0
M  V30 10522 H 984.62 -6.29193 -4.60148 0
M  V30 10523 N 988.849 0.203349 -1.56283 0
M  V30 10524 C 990.074 0.945548 -1.84592 0
M  V30 10525 C 990.499 1.7641 -0.652772 0
M  V30 10526 O 989.857 1.76867 0.398468 0
M  V30 10527 C 989.905 1.82416 -3.11057 0
M  V30 10528 O 989.009 2.92191 -2.9103 0
M  V30 10529 H 988.35 0.266739 -0.608068 0
M  V30 10530 H 990.88 0.211158 -2.03507 0
M  V30 10531 H 990.89 2.23044 -3.41636 0
M  V30 10532 H 989.565 1.22267 -3.97522 0
M  V30 10533 H 988.142 2.55378 -2.71728 0
M  V30 10534 N 990.327 1.50405 0.470755 0
M  V30 10535 C 991.259 1.65447 1.58619 0
M  V30 10536 C 992.272 0.535949 1.53725 0
M  V30 10537 O 993.461 0.80914 1.59107 0
M  V30 10538 C 990.561 1.62318 2.975 0
M  V30 10539 C 989.734 2.90207 3.27259 0
M  V30 10540 C 988.793 2.79717 4.45696 0
M  V30 10541 O 987.819 3.53672 4.45987 0
M  V30 10542 N 989.021 1.93296 5.47373 0
M  V30 10543 H 991.786 2.61659 1.46132 0
M  V30 10544 H 989.347 1.47873 0.659178 0
M  V30 10545 H 991.339 1.52912 3.747 0
M  V30 10546 H 989.909 0.738392 3.03754 0
M  V30 10547 H 989.129 3.13737 2.38669 0
M  V30 10548 H 990.417 3.74931 3.43953 0
M  V30 10549 H 989.815 1.32524 5.49958 0
M  V30 10550 H 988.372 1.89793 6.23556 0
M  V30 10551 N 991.805 -0.723954 1.39988 0
M  V30 10552 C 993.051 -1.48591 1.38017 0
M  V30 10553 C 993.384 -1.94189 -0.0203522 0
M  V30 10554 O 992.659 -1.67572 -0.987422 0
M  V30 10555 C 992.942 -2.71786 2.36229 0
M  V30 10556 C 992.795 -2.32136 3.8527 0
M  V30 10557 C 994.114 -3.73921 2.32102 0
M  V30 10558 H 991.233 -0.538993 0.502648 0
M  V30 10559 H 993.875 -0.826908 1.71062 0
M  V30 10560 H 992.025 -3.28015 2.0818 0
M  V30 10561 H 993.697 -1.81454 4.24113 0
M  V30 10562 H 991.94 -1.64234 4.01509 0
M  V30 10563 H 992.611 -3.20406 4.49493 0
M  V30 10564 H 995.087 -3.27303 2.56928 0
M  V30 10565 H 993.963 -4.5777 3.02882 0
M  V30 10566 H 994.224 -4.21627 1.32979 0
M  V30 10567 N 993.283 -1.25346 -0.955304 0
M  V30 10568 C 994.531 -1.09837 -1.69647 0
M  V30 10569 C 994.852 0.361425 -1.91621 0
M  V30 10570 O 994.122 1.25666 -1.50283 0
M  V30 10571 H 992.702 -0.403467 -0.628668 0
M  V30 10572 H 995.364 -1.57459 -1.14859 0
M  V30 10573 H 994.46 -1.60616 -2.67598 0
M  V30 10574 N 994.761 1.15782 -1.06922 0
M  V30 10575 C 996.008 1.86465 -0.789752 0
M  V30 10576 C 996.336 1.82075 0.684022 0
M  V30 10577 O 995.591 1.23576 1.51748 0
M  V30 10578 C 995.89 3.35284 -1.2377 0
M  V30 10579 C 995.556 3.59871 -2.71668 0
M  V30 10580 C 994.218 3.6629 -3.12066 0
M  V30 10581 C 996.57 3.69929 -3.67154 0
M  V30 10582 C 993.898 3.80275 -4.46775 0
M  V30 10583 C 996.25 3.85436 -5.01619 0
M  V30 10584 C 994.914 3.901 -5.41644 0
M  V30 10585 H 994.184 0.682324 -0.288991 0
M  V30 10586 H 996.831 1.36861 -1.33945 0
M  V30 10587 H 995.136 3.87065 -0.607309 0
M  V30 10588 H 996.833 3.88371 -0.998431 0
M  V30 10589 H 993.423 3.55512 -2.39393 0
M  V30 10590 H 997.607 3.64274 -3.37073 0
M  V30 10591 H 992.863 3.8214 -4.77262 0
M  V30 10592 H 997.037 3.92161 -5.75485 0
M  V30 10593 H 994.664 4.00688 -6.46029 0
M  V30 10594 N 996.239 0.8527 1.3254 0
M  V30 10595 C 997.488 0.45136 1.96585 0
M  V30 10596 C 997.801 -0.997773 1.68237 0
M  V30 10597 O 999.007 -1.50445 2.26006 0
M  V30 10598 C 997.463 0.75619 3.51866 0
M  V30 10599 C 997.071 2.22092 3.89075 0
M  V30 10600 C 998.815 0.422478 4.22392 0
M  V30 10601 C 996.722 2.46908 5.37392 0
M  V30 10602 H 995.652 0.165052 0.735713 0
M  V30 10603 H 998.303 1.04321 1.50962 0
M  V30 10604 H 996.685 0.0937988 3.95889 0
M  V30 10605 H 997.859 2.92494 3.56067 0
M  V30 10606 H 996.174 2.51896 3.31568 0
M  V30 10607 H 998.771 0.58533 5.31487 0
M  V30 10608 H 999.114 -0.635737 4.11417 0
M  V30 10609 H 999.647 1.04068 3.83946 0
M  V30 10610 H 996.386 3.51346 5.53386 0
M  V30 10611 H 995.906 1.81082 5.71812 0
M  V30 10612 H 997.585 2.30758 6.0445 0
M  V30 10613 N 997.718 -1.45297 0.610449 0
M  V30 10614 C 998.995 -1.95562 0.0386189 0
M  V30 10615 C 999.375 -1.55284 -1.43004 0
M  V30 10616 O 998.723 -0.816785 -2.13403 0
M  V30 10617 C 998.933 -3.48176 0.239731 0
M  V30 10618 C 1000.28 -4.24425 0.122035 0
M  V30 10619 O 1001.3 -3.55794 0.170003 0
M  V30 10620 O 1000.16 -5.46499 0.00953695 0
M  V30 10621 H 997.258 -0.826296 -0.0341081 0
M  V30 10622 H 999.804 -1.55449 0.68071 0
M  V30 10623 H 998.576 -3.70471 1.25963 0
M  V30 10624 H 998.199 -3.95186 -0.437486 0
M  V30 10625 N 999.196 -0.349774 -1.5367 0
M  V30 10626 C 1000.43 0.245682 -2.05134 0
M  V30 10627 C 1000.83 1.44269 -1.22406 0
M  V30 10628 O 1000.18 1.81938 -0.25379 0
M  V30 10629 C 1000.24 0.718439 -3.52248 0
M  V30 10630 C 999.903 -0.35975 -4.55582 0
M  V30 10631 C 1000.9 -1.20449 -5.05755 0
M  V30 10632 C 998.585 -0.515463 -4.99648 0
M  V30 10633 C 1000.58 -2.19043 -5.98581 0
M  V30 10634 C 998.266 -1.50479 -5.92283 0
M  V30 10635 C 999.264 -2.34072 -6.41638 0
M  V30 10636 O 998.952 -3.31319 -7.3245 0
M  V30 10637 H 998.684 0.0501122 -0.67414 0
M  V30 10638 H 1001.24 -0.5018 -1.99176 0
M  V30 10639 H 999.468 1.51727 -3.55691 0
M  V30 10640 H 1001.16 1.23513 -3.86651 0
M  V30 10641 H 1001.92 -1.09531 -4.7247 0
M  V30 10642 H 997.802 0.12537 -4.60829 0
M  V30 10643 H 1001.35 -2.84327 -6.37027 0
M  V30 10644 H 997.243 -1.61451 -6.24983 0
M  V30 10645 H 998.011 -3.26863 -7.50402 0
M  V30 10646 N 1000.67 1.57404 -0.0785433 0
M  V30 10647 C 1001.92 1.9292 0.588626 0
M  V30 10648 C 1002.24 0.961106 1.70359 0
M  V30 10649 O 1003.44 1.20934 2.43079 0
M  V30 10650 C 1001.9 3.42729 1.09839 0
M  V30 10651 C 1001.51 4.47998 0.0140773 0
M  V30 10652 C 1003.25 3.87235 1.73924 0
M  V30 10653 C 1001.16 5.88945 0.538269 0
M  V30 10654 H 1000.09 0.720069 0.223645 0
M  V30 10655 H 1002.74 1.8287 -0.15187 0
M  V30 10656 H 1001.12 3.47875 1.89207 0
M  V30 10657 H 1002.29 4.54476 -0.760773 0
M  V30 10658 H 1000.61 4.13001 -0.53095 0
M  V30 10659 H 1003.21 4.89927 2.14186 0
M  V30 10660 H 1003.55 3.24971 2.60191 0
M  V30 10661 H 1004.08 3.84721 1.01168 0
M  V30 10662 H 1000.82 6.5487 -0.287395 0
M  V30 10663 H 1000.34 5.85972 1.28049 0
M  V30 10664 H 1002.02 6.39028 1.01253 0
M  V30 10665 N 1002.15 -0.195058 1.56388 0
M  V30 10666 C 1003.4 -0.9168 1.80894 0
M  V30 10667 C 1003.73 -1.82907 0.652592 0
M  V30 10668 O 1003.01 -1.91382 -0.346853 0
M  V30 10669 C 1003.29 -1.733 3.15657 0
M  V30 10670 C 1003.14 -0.845449 4.41783 0
M  V30 10671 C 1004.46 -2.70557 3.47112 0
M  V30 10672 H 1001.58 -0.331861 0.658056 0
M  V30 10673 H 1004.22 -0.184174 1.89105 0
M  V30 10674 H 1002.37 -2.3576 3.08787 0
M  V30 10675 H 1004.04 -0.235557 4.60698 0
M  V30 10676 H 1002.29 -0.152172 4.33533 0
M  V30 10677 H 1002.96 -1.45152 5.32574 0
M  V30 10678 H 1005.43 -2.1823 3.54281 0
M  V30 10679 H 1004.31 -3.24749 4.42526 0
M  V30 10680 H 1004.57 -3.49605 2.70608 0
M  V30 10681 N 1003.63 -1.50653 -0.462772 0
M  V30 10682 C 1004.58 -1.66509 -1.55752 0
M  V30 10683 C 1005.56 -0.519508 -1.52282 0
M  V30 10684 O 1006.76 -0.774296 -1.59166 0
M  V30 10685 C 1003.88 -1.77023 -2.94139 0
M  V30 10686 C 1002.97 -2.97284 -3.02461 0
M  V30 10687 N 1003.36 -4.20843 -2.80579 0
M  V30 10688 C 1001.66 -2.96014 -3.33604 0
M  V30 10689 C 1002.36 -5.01886 -2.94084 0
M  V30 10690 N 1001.34 -4.3601 -3.24648 0
M  V30 10691 H 1005.14 -2.59727 -1.37546 0
M  V30 10692 H 1002.65 -1.47951 -0.669653 0
M  V30 10693 H 1004.65 -1.86488 -3.72864 0
M  V30 10694 H 1003.31 -0.849688 -3.13385 0
M  V30 10695 H 1004.32 -4.50206 -2.55998 0
M  V30 10696 H 1001 -2.13493 -3.58786 0
M  V30 10697 H 1002.39 -6.10164 -2.81334 0
M  V30 10698 N 1005.11 0.71652 -1.4037 0
M  V30 10699 C 1006.52 1.29562 -1.34427 0
M  V30 10700 C 1006.87 1.96192 -0.0173106 0
M  V30 10701 O 1006 1.97488 0.884719 0
M  V30 10702 C 1006.59 2.35601 -2.4347 0
M  V30 10703 C 1005.15 2.89138 -2.4099 0
M  V30 10704 C 1004.3 1.62915 -2.24397 0
M  V30 10705 H 1007.25 0.512715 -1.5019 0
M  V30 10706 H 1007.27 3.16422 -2.11323 0
M  V30 10707 H 1006.78 1.87077 -3.40035 0
M  V30 10708 H 1004.88 3.41894 -1.4812 0
M  V30 10709 H 1004.99 3.40995 -3.3654 0
M  V30 10710 H 1003.36 1.87947 -1.71896 0
M  V30 10711 H 1004.14 1.16417 -3.22958 0
M  V30 10712 N 1006.59 1.25851 0.948643 0
M  V30 10713 C 1007.52 1.09248 2.06367 0
M  V30 10714 C 1008.5 -0.000205168 1.701 0
M  V30 10715 O 1009.68 0.170442 1.93451 0
M  V30 10716 C 1006.81 0.716777 3.39823 0
M  V30 10717 C 1005.77 1.76036 3.90122 0
M  V30 10718 C 1005.09 1.23918 5.20143 0
M  V30 10719 C 1006.39 3.16039 4.15833 0
M  V30 10720 H 1008.09 2.02518 2.20515 0
M  V30 10721 H 1005.63 0.975093 1.05962 0
M  V30 10722 H 1007.59 0.587531 4.17284 0
M  V30 10723 H 1006.31 -0.251626 3.25629 0
M  V30 10724 H 1004.97 1.87815 3.14835 0
M  V30 10725 H 1004.62 0.260836 5.02323 0
M  V30 10726 H 1004.32 1.93673 5.54765 0
M  V30 10727 H 1005.84 1.12245 6.00194 0
M  V30 10728 H 1007.25 3.0738 4.83933 0
M  V30 10729 H 1005.65 3.83317 4.61723 0
M  V30 10730 H 1006.72 3.62652 3.21887 0
M  V30 10731 N 1008.06 -1.15214 1.07534 0
M  V30 10732 C 1009.31 -1.86548 0.810651 0
M  V30 10733 C 1009.67 -1.80863 -0.656236 0
M  V30 10734 O 1008.96 -1.22216 -1.47559 0
M  V30 10735 C 1009.15 -3.34623 1.25547 0
M  V30 10736 C 1008.98 -3.54725 2.76406 0
M  V30 10737 C 1007.75 -3.70089 3.44038 0
M  V30 10738 C 1009.95 -3.52392 3.74599 0
M  V30 10739 N 1007.93 -3.78262 4.8352 0
M  V30 10740 C 1009.3 -3.66701 4.9993 0
M  V30 10741 C 1011.36 -3.35677 3.6773 0
M  V30 10742 C 1010.06 -3.66023 6.19209 0
M  V30 10743 C 1012.09 -3.36298 4.86475 0
M  V30 10744 C 1011.45 -3.51139 6.1064 0
M  V30 10745 H 1007.55 -0.699691 0.349223 0
M  V30 10746 H 1010.13 -1.3815 1.37196 0
M  V30 10747 H 1008.3 -3.81633 0.721837 0
M  V30 10748 H 1010.03 -3.93677 0.938126 0
M  V30 10749 H 1006.79 -3.70943 2.94446 0
M  V30 10750 H 1007.21 -3.86087 5.56117 0
M  V30 10751 H 1011.86 -3.2312 2.72678 0
M  V30 10752 H 1009.57 -3.77358 7.14581 0
M  V30 10753 H 1013.16 -3.2459 4.82838 0
M  V30 10754 H 1012.04 -3.51555 7.00984 0
M  V30 10755 N 1009.54 -0.859717 -1.32086 0
M  V30 10756 C 1010.45 -0.31108 -2.32528 0
M  V30 10757 C 1011.47 0.573714 -1.6427 0
M  V30 10758 O 1012.64 0.472878 -1.9577 0
M  V30 10759 C 1009.71 0.487256 -3.43259 0
M  V30 10760 C 1008.77 -0.424279 -4.27198 0
M  V30 10761 C 1008 0.336051 -5.32641 0
M  V30 10762 O 1008.23 1.56541 -5.48499 0
M  V30 10763 O 1007.16 -0.300777 -6.01148 0
M  V30 10764 H 1010.99 -1.14336 -2.81355 0
M  V30 10765 H 1008.57 -0.622794 -1.358 0
M  V30 10766 H 1010.45 0.940203 -4.10777 0
M  V30 10767 H 1009.13 1.29626 -2.96612 0
M  V30 10768 H 1008.04 -0.925509 -3.62471 0
M  V30 10769 H 1009.37 -1.1986 -4.77383 0
M  V30 10770 N 1011.02 1.44971 -0.618145 0
M  V30 10771 C 1012.25 2.06527 -0.124165 0
M  V30 10772 C 1012.66 1.46097 1.19588 0
M  V30 10773 O 1012.02 0.57901 1.73071 0
M  V30 10774 C 1012.07 3.61498 0.0106701 0
M  V30 10775 O 1011.79 4.19675 -1.25716 0
M  V30 10776 C 1013.29 4.40061 0.534872 0
M  V30 10777 H 1010.51 0.666941 -0.0736935 0
M  V30 10778 H 1013.06 1.8605 -0.848871 0
M  V30 10779 H 1011.21 3.81282 0.685752 0
M  V30 10780 H 1011.63 5.12972 -1.09362 0
M  V30 10781 H 1013.1 5.48963 0.57827 0
M  V30 10782 H 1013.58 4.10587 1.55931 0
M  V30 10783 H 1014.18 4.25167 -0.10652 0
M  V30 10784 N 1012.5 0.357919 1.53482 0
M  V30 10785 C 1013.74 -0.22712 2.02128 0
M  V30 10786 C 1014.1 -1.47044 1.2408 0
M  V30 10787 O 1013.39 -1.88841 0.323966 0
M  V30 10788 C 1013.59 -0.579617 3.52669 0
M  V30 10789 C 1013.42 0.627992 4.45294 0
M  V30 10790 C 1012.19 1.13772 4.92325 0
M  V30 10791 C 1014.38 1.49087 4.92217 0
M  V30 10792 N 1012.37 2.30615 5.68937 0
M  V30 10793 C 1013.74 2.50604 5.67096 0
M  V30 10794 C 1015.79 1.51464 4.74303 0
M  V30 10795 C 1014.49 3.54346 6.25964 0
M  V30 10796 C 1016.52 2.54095 5.34032 0
M  V30 10797 C 1015.88 3.54337 6.0879 0
M  V30 10798 H 1011.98 -0.0460295 0.780644 0
M  V30 10799 H 1014.57 0.500733 1.88151 0
M  V30 10800 H 1012.74 -1.27656 3.66822 0
M  V30 10801 H 1014.47 -1.14908 3.88044 0
M  V30 10802 H 1011.22 0.703546 4.68345 0
M  V30 10803 H 1011.65 2.8965 6.11909 0
M  V30 10804 H 1016.29 0.753213 4.16037 0
M  V30 10805 H 1014.01 4.31375 6.83331 0
M  V30 10806 H 1017.59 2.56779 5.22069 0
M  V30 10807 H 1016.47 4.32449 6.54184 0
M  V30 10808 N 1013.98 -1.5736 0.0868897 0
M  V30 10809 C 1014.94 -2.12436 -0.860439 0
M  V30 10810 C 1015.94 -1.05175 -1.21634 0
M  V30 10811 O 1017.13 -1.31098 -1.14713 0
M  V30 10812 C 1014.26 -2.63818 -2.159 0
M  V30 10813 H 1015.45 -2.97453 -0.382346 0
M  V30 10814 H 1013.01 -1.55458 -0.162009 0
M  V30 10815 H 1013.74 -1.82298 -2.68212 0
M  V30 10816 H 1013.53 -3.42234 -1.91359 0
M  V30 10817 H 1015.02 -3.06452 -2.83685 0
M  V30 10818 N 1015.45 0.186762 -1.56489 0
M  V30 10819 C 1016.73 0.932229 -1.71956 0
M  V30 10820 C 1017.11 2.01037 -0.644006 0
M  V30 10821 O 1016.46 2.259 0.343694 0
M  V30 10822 C 1016.67 1.51106 -3.14592 0
M  V30 10823 C 1018.02 1.98997 -3.75081 0
M  V30 10824 O 1019.04 1.60931 -3.17773 0
M  V30 10825 O 1017.9 2.69067 -4.75673 0
M  V30 10826 H 1014.99 0.437736 -0.701652 0
M  V30 10827 H 1017.54 0.175803 -1.68787 0
M  V30 10828 H 1016.31 0.734327 -3.84348 0
M  V30 10829 H 1015.94 2.33209 -3.22024 0
M  V30 10830 N 1016.93 1.50896 0.454776 0
M  V30 10831 C 1017.86 1.73885 1.5584 0
M  V30 10832 C 1018.84 0.588172 1.59607 0
M  V30 10833 O 1020.03 0.829054 1.75614 0
M  V30 10834 C 1017.16 1.84796 2.94054 0
M  V30 10835 C 1016.11 3.00111 3.05152 0
M  V30 10836 C 1015.44 2.96183 4.45174 0
M  V30 10837 C 1016.74 4.40365 2.80849 0
M  V30 10838 H 1018.43 2.66292 1.36854 0
M  V30 10839 H 1015.98 1.28142 0.656936 0
M  V30 10840 H 1017.93 1.99462 3.71204 0
M  V30 10841 H 1016.66 0.890235 3.14233 0
M  V30 10842 H 1015.31 2.85121 2.30438 0
M  V30 10843 H 1014.96 1.98224 4.62295 0
M  V30 10844 H 1014.66 3.73608 4.53532 0
M  V30 10845 H 1016.19 3.1292 5.24322 0
M  V30 10846 H 1017.6 4.55795 3.47741 0
M  V30 10847 H 1016 5.19363 3.00636 0
M  V30 10848 H 1017.07 4.51606 1.76579 0
M  V30 10849 N 1018.41 -0.709066 1.40748 0
M  V30 10850 C 1019.66 -1.47119 1.39585 0
M  V30 10851 C 1019.99 -1.942 0.000245323 0
M  V30 10852 O 1019.26 -1.68609 -0.969593 0
M  V30 10853 C 1019.55 -2.69266 2.39099 0
M  V30 10854 C 1019.4 -2.28037 3.8771 0
M  V30 10855 C 1020.72 -3.71438 2.36055 0
M  V30 10856 H 1017.84 -0.533632 0.508336 0
M  V30 10857 H 1020.48 -0.808718 1.7193 0
M  V30 10858 H 1018.63 -3.25788 2.11647 0
M  V30 10859 H 1020.3 -1.76946 4.26014 0
M  V30 10860 H 1018.55 -1.59966 4.03229 0
M  V30 10861 H 1019.22 -3.15621 4.52866 0
M  V30 10862 H 1021.69 -3.24559 2.60385 0
M  V30 10863 H 1020.57 -4.54532 3.07721 0
M  V30 10864 H 1020.83 -4.20193 1.37443 0
M  V30 10865 N 1019.89 -1.26353 -0.941956 0
M  V30 10866 C 1020.84 -1.04513 -2.02635 0
M  V30 10867 C 1021.82 0.0222314 -1.60885 0
M  V30 10868 O 1023.02 -0.194629 -1.75927 0
M  V30 10869 C 1020.14 -0.679282 -3.36512 0
M  V30 10870 C 1019.23 -1.78406 -3.8475 0
M  V30 10871 N 1019.62 -3.02136 -4.05645 0
M  V30 10872 C 1017.92 -1.66748 -4.13656 0
M  V30 10873 C 1018.62 -3.73932 -4.45589 0
M  V30 10874 N 1017.6 -3.01616 -4.52248 0
M  V30 10875 H 1021.4 -1.9843 -2.16801 0
M  V30 10876 H 1018.91 -1.16858 -1.12774 0
M  V30 10877 H 1020.91 -0.503975 -4.13843 0
M  V30 10878 H 1019.57 0.252418 -3.23717 0
M  V30 10879 H 1020.58 -3.38049 -3.92356 0
M  V30 10880 H 1017.26 -0.805627 -4.09653 0
M  V30 10881 H 1018.65 -4.80201 -4.69954 0
M  V30 10882 N 1021.37 1.14642 -1.08144 0
M  V30 10883 C 1022.78 1.6719 -0.830923 0
M  V30 10884 C 1023.13 1.85373 0.642749 0
M  V30 10885 O 1022.25 1.56293 1.49671 0
M  V30 10886 C 1022.85 3.03697 -1.50179 0
M  V30 10887 C 1021.41 3.5329 -1.29858 0
M  V30 10888 C 1020.56 2.28828 -1.5663 0
M  V30 10889 H 1023.51 0.987441 -1.24239 0
M  V30 10890 H 1023.53 3.69023 -0.9275 0
M  V30 10891 H 1023.04 2.90431 -2.57432 0
M  V30 10892 H 1021.14 3.71783 -0.246626 0
M  V30 10893 H 1021.25 4.34231 -2.02436 0
M  V30 10894 H 1019.62 2.34769 -0.987716 0
M  V30 10895 H 1020.4 2.18141 -2.65084 0
M  V30 10896 N 1022.85 0.866709 1.31628 0
M  V30 10897 C 1024.12 0.396828 1.91532 0
M  V30 10898 C 1024.5 -1.12081 1.78889 0
M  V30 10899 O 1023.85 -1.94791 1.19452 0
M  V30 10900 C 1024.06 0.874578 3.37864 0
M  V30 10901 C 1025.41 0.8988 4.14978 0
M  V30 10902 O 1026.43 0.820014 3.46633 0
M  V30 10903 O 1025.29 1.01223 5.37044 0
M  V30 10904 H 1022.39 0.1181 0.818524 0
M  V30 10905 H 1024.93 0.954407 1.40318 0
M  V30 10906 H 1023.7 1.91807 3.41066 0
M  V30 10907 H 1023.33 0.295126 3.96503 0
M  V30 10908 N 1024.32 -1.44642 0.625825 0
M  V30 10909 C 1025.29 -2.29085 -0.072526 0
M  V30 10910 C 1026.29 -1.40755 -0.777467 0
M  V30 10911 O 1027.48 -1.62684 -0.622861 0
M  V30 10912 C 1024.61 -3.22212 -1.1132 0
M  V30 10913 H 1025.8 -2.92317 0.670124 0
M  V30 10914 H 1023.35 -1.51466 0.38571 0
M  V30 10915 H 1024.09 -2.63819 -1.88601 0
M  V30 10916 H 1023.87 -3.87299 -0.611709 0
M  V30 10917 H 1025.36 -3.8566 -1.60175 0
M  V30 10918 N 1025.8 -0.366053 -1.5329 0
M  V30 10919 C 1026.73 0.514916 -2.23341 0
M  V30 10920 C 1027.75 1.04579 -1.24768 0
M  V30 10921 O 1028.94 0.952084 -1.50989 0
M  V30 10922 C 1026.04 1.72374 -2.91788 0
M  V30 10923 C 1025.21 1.32429 -4.16871 0
M  V30 10924 C 1024.27 2.39524 -4.68524 0
M  V30 10925 O 1023.29 2.01895 -5.32191 0
M  V30 10926 N 1024.5 3.71116 -4.46378 0
M  V30 10927 H 1027.26 -0.0851272 -2.99579 0
M  V30 10928 H 1024.82 -0.191255 -1.60766 0
M  V30 10929 H 1026.81 2.43496 -3.23252 0
M  V30 10930 H 1025.38 2.23064 -2.19 0
M  V30 10931 H 1024.6 0.442901 -3.91704 0
M  V30 10932 H 1025.89 1.03372 -4.98188 0
M  V30 10933 H 1025.29 4.04463 -3.95508 0
M  V30 10934 H 1023.85 4.38341 -4.82391 0
M  V30 10935 N 1027.28 1.57312 -0.0952337 0
M  V30 10936 C 1028.56 1.85822 0.610715 0
M  V30 10937 C 1028.94 0.992114 1.86334 0
M  V30 10938 O 1028.28 0.0645669 2.28409 0
M  V30 10939 C 1028.49 3.36492 0.925967 0
M  V30 10940 C 1029.84 4.0455 1.28936 0
M  V30 10941 O 1030.87 3.41374 1.01698 0
M  V30 10942 O 1029.73 5.16024 1.79949 0
M  V30 10943 H 1026.82 0.768454 0.305626 0
M  V30 10944 H 1029.37 1.69217 -0.127941 0
M  V30 10945 H 1028.14 3.91282 0.0373127 0
M  V30 10946 H 1027.76 3.58443 1.7206 0
M  V30 10947 N 1028.76 -0.17846 1.56586 0
M  V30 10948 C 1030.01 -0.894502 1.8078 0
M  V30 10949 C 1030.32 -1.8372 0.67129 0
M  V30 10950 O 1031.53 -2.59509 0.797971 0
M  V30 10951 C 1029.98 -1.64109 3.20306 0
M  V30 10952 C 1029.59 -0.742387 4.41806 0
M  V30 10953 C 1031.33 -2.34578 3.53798 0
M  V30 10954 C 1029.24 -1.4888 5.72354 0
M  V30 10955 H 1028.17 -0.33776 0.674117 0
M  V30 10956 H 1030.82 -0.14752 1.82906 0
M  V30 10957 H 1029.2 -2.43257 3.12477 0
M  V30 10958 H 1030.38 0.011615 4.60799 0
M  V30 10959 H 1028.69 -0.147705 4.16138 0
M  V30 10960 H 1031.29 -2.91004 4.48577 0
M  V30 10961 H 1031.63 -3.09572 2.78336 0
M  V30 10962 H 1032.17 -1.62381 3.63149 0
M  V30 10963 H 1028.9 -0.781325 6.50827 0
M  V30 10964 H 1028.42 -2.21631 5.57351 0
M  V30 10965 H 1030.1 -2.03819 6.14058 0
M  V30 10966 N 1030.24 -1.51135 -0.446768 0
M  V30 10967 C 1031.17 -1.74709 -1.54916 0
M  V30 10968 C 1032.15 -0.596628 -1.59293 0
M  V30 10969 O 1033.33 -0.838356 -1.75172 0
M  V30 10970 C 1030.46 -1.86353 -2.9307 0
M  V30 10971 C 1029.42 -3.01725 -3.03556 0
M  V30 10972 C 1028.74 -2.9854 -4.43597 0
M  V30 10973 C 1030.04 -4.41848 -2.7851 0
M  V30 10974 H 1031.74 -2.67014 -1.3544 0
M  V30 10975 H 1029.28 -1.28489 -0.650131 0
M  V30 10976 H 1031.23 -2.01428 -3.70141 0
M  V30 10977 H 1029.96 -0.906887 -3.13756 0
M  V30 10978 H 1028.62 -2.86339 -2.28922 0
M  V30 10979 H 1028.27 -2.00673 -4.61237 0
M  V30 10980 H 1027.97 -3.76008 -4.51544 0
M  V30 10981 H 1029.49 -3.15696 -5.22655 0
M  V30 10982 H 1030.9 -4.57633 -3.45319 0
M  V30 10983 H 1029.3 -5.2095 -2.97877 0
M  V30 10984 H 1030.37 -4.52536 -1.74182 0
M  V30 10985 N 1031.71 0.701592 -1.41122 0
M  V30 10986 C 1032.99 1.45569 -1.30648 0
M  V30 10987 C 1033.37 2.10988 0.068744 0
M  V30 10988 O 1032.72 2.01228 1.08257 0
M  V30 10989 C 1032.93 2.48003 -2.45551 0
M  V30 10990 C 1034.28 3.13431 -2.86437 0
M  V30 10991 O 1035.3 2.58327 -2.45247 0
M  V30 10992 O 1034.16 4.13221 -3.57646 0
M  V30 10993 H 1031.25 0.648 -0.513834 0
M  V30 10994 H 1033.8 0.73258 -1.53073 0
M  V30 10995 H 1032.57 1.98276 -3.37346 0
M  V30 10996 H 1032.19 3.27832 -2.24971 0
M  V30 10997 N 1033.19 1.2685 0.935242 0
M  V30 10998 C 1034.42 1.15538 1.71635 0
M  V30 10999 C 1034.83 -0.288698 1.8658 0
M  V30 11000 O 1034.19 -1.19721 1.37743 0
M  V30 11001 C 1034.24 1.8259 3.11999 0
M  V30 11002 O 1033.96 3.21355 2.97763 0
M  V30 11003 C 1035.46 1.77307 4.06297 0
M  V30 11004 H 1032.68 0.402055 0.537208 0
M  V30 11005 H 1035.23 1.67582 1.17203 0
M  V30 11006 H 1033.38 1.3447 3.63313 0
M  V30 11007 H 1033.8 3.54626 3.86446 0
M  V30 11008 H 1035.27 2.28851 5.02326 0
M  V30 11009 H 1035.75 0.740823 4.32907 0
M  V30 11010 H 1036.35 2.25007 3.60904 0
M  V30 11011 N 1034.67 -1.14067 1.0875 0
M  V30 11012 C 1035.6 -2.21385 0.74236 0
M  V30 11013 C 1036.58 -1.67833 -0.276805 0
M  V30 11014 O 1037.77 -1.93647 -0.1464 0
M  V30 11015 C 1034.9 -3.46956 0.154644 0
M  V30 11016 C 1033.85 -4.13555 1.10255 0
M  V30 11017 C 1033.18 -5.3337 0.376877 0
M  V30 11018 C 1034.48 -4.6169 2.44213 0
M  V30 11019 H 1036.17 -2.50512 1.63964 0
M  V30 11020 H 1033.72 -1.20408 0.789807 0
M  V30 11021 H 1035.67 -4.21284 -0.0988419 0
M  V30 11022 H 1034.39 -3.17203 -0.777789 0
M  V30 11023 H 1033.05 -3.41186 1.34119 0
M  V30 11024 H 1032.7 -4.99879 -0.559472 0
M  V30 11025 H 1032.4 -5.78875 1.00884 0
M  V30 11026 H 1033.92 -6.10458 0.131527 0
M  V30 11027 H 1035.34 -5.27475 2.24595 0
M  V30 11028 H 1033.74 -5.17909 3.03134 0
M  V30 11029 H 1034.81 -3.76574 3.05483 0
M  V30 11030 N 1036.15 -0.873678 -1.31166 0
M  V30 11031 C 1037.06 -0.335726 -2.32185 0
M  V30 11032 C 1038.07 0.556259 -1.64869 0
M  V30 11033 O 1039.25 0.452087 -1.9626 0
M  V30 11034 C 1036.32 0.450822 -3.43756 0
M  V30 11035 C 1035.38 -0.469565 -4.26724 0
M  V30 11036 C 1034.61 0.279538 -5.32967 0
M  V30 11037 O 1034.83 1.50715 -5.50128 0
M  V30 11038 O 1033.77 -0.36452 -6.00795 0
M  V30 11039 H 1037.59 -1.17314 -2.80127 0
M  V30 11040 H 1035.18 -0.637163 -1.35132 0
M  V30 11041 H 1037.06 0.896582 -4.11752 0
M  V30 11042 H 1035.73 1.26472 -2.9797 0
M  V30 11043 H 1034.64 -0.963902 -3.61469 0
M  V30 11044 H 1035.97 -1.24916 -4.76085 0
M  V30 11045 N 1037.63 1.44308 -0.633487 0
M  V30 11046 C 1038.9 1.95476 -0.0697262 0
M  V30 11047 C 1039.28 1.57539 1.40516 0
M  V30 11048 O 1038.63 0.850632 2.12077 0
M  V30 11049 C 1038.84 3.4775 -0.295093 0
M  V30 11050 C 1040.19 4.24177 -0.189542 0
M  V30 11051 O 1041.21 3.55479 -0.226586 0
M  V30 11052 O 1040.07 5.46415 -0.096479 0
M  V30 11053 H 1037.17 0.826734 0.0209582 0
M  V30 11054 H 1039.71 1.54347 -0.705354 0
M  V30 11055 H 1038.48 3.6842 -1.31841 0
M  V30 11056 H 1038.11 3.95832 0.37456 0
M  V30 11057 N 1039.1 0.374177 1.53094 0
M  V30 11058 C 1040.05 -0.48326 2.27524 0
M  V30 11059 C 1041.05 -1.07606 1.30833 0
M  V30 11060 O 1042.25 -1.01827 1.48429 0
M  V30 11061 H 1038.63 -0.174578 0.731455 0
M  V30 11062 H 1040.6 0.166156 2.97937 0
M  V30 11063 C 1039.35 -1.6065 3.08362 0
M  V30 11064 H 1038.67 -1.15966 3.82612 0
M  V30 11065 H 1040.11 -2.18099 3.63606 0
M  V30 11066 C 1038.57 -2.55381 2.19732 0
M  V30 11067 O 1039.1 -3.58414 1.8139 0
M  V30 11068 N 1037.31 -2.24769 1.84194 0
M  V30 11069 H 1036.85 -1.41018 2.15573 0
M  V30 11070 H 1036.81 -2.88404 1.25181 0
M  V30 11071 N 1040.58 -1.57259 0.103575 0
M  V30 11072 C 1042 -1.57581 -0.253062 0
M  V30 11073 C 1042.2 -1.11531 -1.67819 0
M  V30 11074 O 1041.25 -0.795632 -2.39637 0
M  V30 11075 C 1042.57 -3.00681 -0.0337753 0
M  V30 11076 C 1044.12 -3.12837 -0.10087 0
M  V30 11077 C 1044.59 -4.57911 0.0905295 0
M  V30 11078 N 1046.08 -4.63186 0.0359789 0
M  V30 11079 C 1046.82 -5.73179 0.159199 0
M  V30 11080 N 1046.31 -6.91976 0.337728 0
M  V30 11081 N 1048.11 -5.62011 0.0998662 0
M  V30 11082 H 1040.26 -1.85499 1.0346 0
M  V30 11083 H 1042.52 -0.856584 0.406163 0
M  V30 11084 H 1042.23 -3.38602 0.950858 0
M  V30 11085 H 1042.1 -3.69207 -0.772406 0
M  V30 11086 H 1044.49 -2.74783 -1.07601 0
M  V30 11087 H 1044.57 -2.46886 0.66939 0
M  V30 11088 H 1044.21 -4.9666 1.06258 0
M  V30 11089 H 1044.14 -5.21933 -0.699528 0
M  V30 11090 H 1046.63 -3.7777 -0.099121 0
M  V30 11091 H 1046.95 -7.71641 0.423032 0
M  V30 11092 H 1045.29 -6.93996 0.373504 0
M  V30 11093 H 1048.48 -4.68084 -0.0385356 0
M  V30 11094 H 1048.65 -6.47693 0.199342 0
M  V30 11095 N 1042.06 0.170153 -1.56679 0
M  V30 11096 C 1042.97 1.23057 -1.99735 0
M  V30 11097 C 1043.99 1.48374 -0.908912 0
M  V30 11098 O 1045.16 1.60499 -1.21663 0
M  V30 11099 C 1042.23 2.54944 -2.34956 0
M  V30 11100 C 1041.29 2.3748 -3.57634 0
M  V30 11101 C 1040.52 3.63078 -3.91165 0
M  V30 11102 O 1040.74 4.68304 -3.2565 0
M  V30 11103 O 1039.68 3.57119 -4.8451 0
M  V30 11104 H 1043.5 0.895104 -2.9021 0
M  V30 11105 H 1041.09 0.377109 -1.44562 0
M  V30 11106 H 1042.97 3.32742 -2.58574 0
M  V30 11107 H 1041.65 2.88068 -1.47643 0
M  V30 11108 H 1040.55 1.57709 -3.39232 0
M  V30 11109 H 1041.89 2.0928 -4.45491 0
M  V30 11110 N 1043.54 1.5137 0.438746 0
M  V30 11111 C 1044.78 1.65173 1.18698 0
M  V30 11112 C 1045.14 0.362753 1.88949 0
M  V30 11113 O 1044.43 -0.641351 1.80547 0
M  V30 11114 C 1044.63 2.79221 2.23093 0
M  V30 11115 C 1044.46 4.19085 1.63088 0
M  V30 11116 C 1043.23 4.85042 1.41642 0
M  V30 11117 C 1045.42 5.02225 1.10789 0
M  V30 11118 N 1043.41 6.09024 0.772198 0
M  V30 11119 C 1044.78 6.17197 0.588854 0
M  V30 11120 C 1046.83 4.87764 0.999516 0
M  V30 11121 C 1045.53 7.19295 -0.0279103 0
M  V30 11122 C 1047.56 5.90068 0.396648 0
M  V30 11123 C 1046.92 7.04311 -0.111855 0
M  V30 11124 H 1043.02 0.658316 0.422071 0
M  V30 11125 H 1045.61 1.88593 0.483808 0
M  V30 11126 H 1043.78 2.57468 2.908 0
M  V30 11127 H 1045.51 2.82213 2.90066 0
M  V30 11128 H 1042.26 4.42886 1.67776 0
M  V30 11129 H 1042.69 6.75383 0.467568 0
M  V30 11130 H 1047.33 3.99695 1.37853 0
M  V30 11131 H 1045.05 8.07013 -0.419056 0
M  V30 11132 H 1048.63 5.80948 0.314715 0
M  V30 11133 H 1047.51 7.82118 -0.571021 0
M  V30 11134 N 1045.02 -0.694098 1.41492 0
M  V30 11135 C 1046.25 -1.48071 1.44078 0
M  V30 11136 C 1046.65 -1.89147 0.0448984 0
M  V30 11137 O 1046 -1.57441 -0.946464 0
M  V30 11138 C 1046.06 -2.77324 2.28761 0
M  V30 11139 C 1045.72 -2.58443 3.76904 0
M  V30 11140 C 1046.72 -2.24294 4.69029 0
M  V30 11141 C 1044.41 -2.74037 4.20962 0
M  V30 11142 C 1046.4 -2.0598 6.03201 0
M  V30 11143 C 1044.09 -2.5534 5.55198 0
M  V30 11144 C 1045.08 -2.21362 6.46133 0
M  V30 11145 O 1044.77 -2.02829 7.77892 0
M  V30 11146 H 1044.5 -0.462794 0.492745 0
M  V30 11147 H 1047.06 -0.861968 1.86438 0
M  V30 11148 H 1045.29 -3.4161 1.81217 0
M  V30 11149 H 1046.98 -3.39134 2.23031 0
M  V30 11150 H 1047.74 -2.11859 4.36281 0
M  V30 11151 H 1043.62 -2.99467 3.50486 0
M  V30 11152 H 1047.17 -1.79382 6.74142 0
M  V30 11153 H 1043.06 -2.67366 5.87525 0
M  V30 11154 H 1043.83 -2.17581 7.89051 0
M  V30 11155 N 1046.49 -1.27344 -0.928501 0
M  V30 11156 C 1047.43 -1.05797 -2.03322 0
M  V30 11157 C 1048.44 -0.0143086 -1.62794 0
M  V30 11158 O 1049.63 -0.25578 -1.76658 0
M  V30 11159 C 1046.73 -0.582673 -3.33853 0
M  V30 11160 C 1045.9 -1.69844 -4.03078 0
M  V30 11161 C 1044.96 -1.21902 -5.11885 0
M  V30 11162 O 1043.99 -1.91853 -5.35893 0
M  V30 11163 N 1045.19 -0.0742392 -5.80453 0
M  V30 11164 H 1047.95 -2.00928 -2.22369 0
M  V30 11165 H 1045.51 -1.189 -1.09883 0
M  V30 11166 H 1047.51 -0.245862 -4.03952 0
M  V30 11167 H 1046.08 0.27539 -3.11385 0
M  V30 11168 H 1045.3 -2.20557 -3.26723 0
M  V30 11169 H 1046.58 -2.4473 -4.46077 0
M  V30 11170 H 1045.98 0.509631 -5.634 0
M  V30 11171 H 1044.54 0.203399 -6.51483 0
M  V30 11172 N 1047.97 1.13488 -1.09353 0
M  V30 11173 C 1049.2 1.89133 -0.85108 0
M  V30 11174 C 1049.62 1.78542 0.591976 0
M  V30 11175 O 1048.98 1.13243 1.41583 0
M  V30 11176 C 1049.03 3.36736 -1.29001 0
M  V30 11177 O 1048.13 4.09959 -0.447993 0
M  V30 11178 H 1047.47 0.58809 -0.308296 0
M  V30 11179 H 1050 1.43593 -1.45747 0
M  V30 11180 H 1050.01 3.87564 -1.27508 0
M  V30 11181 H 1048.69 3.43762 -2.34095 0
M  V30 11182 H 1047.27 3.69155 -0.52717 0
M  V30 11183 N 1049.45 0.880621 1.30701 0
M  V30 11184 C 1050.68 0.511682 2.00473 0
M  V30 11185 C 1051.09 -0.898684 1.6604 0
M  V30 11186 O 1050.45 -1.59035 0.895218 0
M  V30 11187 C 1050.5 0.671723 3.55204 0
M  V30 11188 O 1050.22 2.02656 3.8841 0
M  V30 11189 C 1051.72 0.3052 4.42248 0
M  V30 11190 H 1048.94 0.198231 0.64105 0
M  V30 11191 H 1051.49 1.18472 1.66687 0
M  V30 11192 H 1049.64 0.0461066 3.87373 0
M  V30 11193 H 1050.06 2.04202 4.83117 0
M  V30 11194 H 1051.53 0.468095 5.50012 0
M  V30 11195 H 1052.01 -0.756456 4.32637 0
M  V30 11196 H 1052.61 0.906959 4.15517 0
M  V30 11197 N 1050.93 -1.4397 0.641131 0
M  V30 11198 C 1052.18 -2.01163 0.147026 0
M  V30 11199 C 1052.49 -1.51099 -1.24211 0
M  V30 11200 O 1053.7 -2.00487 -1.83078 0
M  V30 11201 C 1052.15 -3.59275 0.212068 0
M  V30 11202 C 1051.76 -4.18334 1.60314 0
M  V30 11203 C 1053.51 -4.23903 -0.225057 0
M  V30 11204 C 1051.41 -5.68701 1.62276 0
M  V30 11205 H 1050.34 -0.75226 0.051201 0
M  V30 11206 H 1052.99 -1.65075 0.801396 0
M  V30 11207 H 1051.38 -3.92708 -0.509589 0
M  V30 11208 H 1052.55 -3.96422 2.34918 0
M  V30 11209 H 1050.86 -3.66031 1.9852 0
M  V30 11210 H 1053.46 -5.34205 -0.230074 0
M  V30 11211 H 1053.8 -3.96956 -1.25426 0
M  V30 11212 H 1054.34 -3.95309 0.44444 0
M  V30 11213 H 1051.08 -6.00397 2.63066 0
M  V30 11214 H 1050.6 -5.92705 0.919797 0
M  V30 11215 H 1052.28 -6.32521 1.36112 0
M  V30 11216 N 1052.41 -0.382291 -1.52893 0
M  V30 11217 C 1053.82 0.0932841 -1.86467 0
M  V30 11218 C 1054.17 1.4675 -1.30226 0
M  V30 11219 O 1053.29 2.07001 -0.63084 0
M  V30 11220 C 1053.89 0.176048 -3.38342 0
M  V30 11221 C 1052.45 0.595904 -3.71653 0
M  V30 11222 C 1051.6 -0.246511 -2.76202 0
M  V30 11223 H 1054.55 -0.600443 -1.46903 0
M  V30 11224 H 1054.57 0.996512 -3.67219 0
M  V30 11225 H 1054.08 -0.824264 -3.79246 0
M  V30 11226 H 1052.18 1.60384 -3.36315 0
M  V30 11227 H 1052.29 0.358919 -4.77754 0
M  V30 11228 H 1050.66 0.287162 -2.53076 0
M  V30 11229 H 1051.44 -1.24467 -3.19942 0
M  V30 11230 N 1053.89 1.57202 -0.111913 0
M  V30 11231 C 1054.82 2.11995 0.871242 0
M  V30 11232 C 1055.83 1.06102 1.23475 0
M  V30 11233 O 1057.02 1.33497 1.18494 0
M  V30 11234 C 1054.12 2.59874 2.17528 0
M  V30 11235 C 1053.29 3.89788 1.98455 0
M  V30 11236 C 1052.35 4.23339 3.12523 0
M  V30 11237 O 1051.38 4.92277 2.85748 0
M  V30 11238 N 1052.58 3.80089 4.38762 0
M  V30 11239 H 1055.34 2.96976 0.403157 0
M  V30 11240 H 1052.91 1.61737 0.0727159 0
M  V30 11241 H 1054.9 2.79354 2.9282 0
M  V30 11242 H 1053.47 1.79812 2.55707 0
M  V30 11243 H 1052.69 3.79288 1.07396 0
M  V30 11244 H 1053.98 4.74748 1.83007 0
M  V30 11245 H 1053.37 3.24473 4.63394 0
M  V30 11246 H 1051.93 4.04691 5.10949 0
M  V30 11247 N 1055.36 -0.161842 1.56767 0
M  V30 11248 C 1056.59 -0.896274 1.87034 0
M  V30 11249 C 1057.01 -1.74617 0.699314 0
M  V30 11250 O 1056.37 -1.77861 -0.351435 0
M  V30 11251 C 1056.42 -1.74105 3.15784 0
M  V30 11252 O 1055.52 -2.84372 2.98674 0
M  V30 11253 H 1054.86 -0.250523 0.614926 0
M  V30 11254 H 1057.39 -0.157127 2.03996 0
M  V30 11255 H 1057.4 -2.13907 3.4743 0
M  V30 11256 H 1056.08 -1.11684 4.00624 0
M  V30 11257 H 1054.66 -2.48084 2.78404 0
M  V30 11258 N 1056.84 -1.516 -0.430713 0
M  V30 11259 C 1058.25 -1.57 -1.01035 0
M  V30 11260 C 1058.6 -0.397439 -1.92132 0
M  V30 11261 O 1057.73 0.484954 -2.10896 0
M  V30 11262 C 1058.32 -2.84536 -1.83915 0
M  V30 11263 C 1056.88 -2.92485 -2.36917 0
M  V30 11264 C 1056.03 -2.5173 -1.16308 0
M  V30 11265 H 1058.98 -1.57281 -0.211734 0
M  V30 11266 H 1059 -2.68672 -2.69435 0
M  V30 11267 H 1058.51 -3.69858 -1.17586 0
M  V30 11268 H 1056.61 -2.11608 -3.0668 0
M  V30 11269 H 1056.73 -3.96277 -2.6926 0
M  V30 11270 H 1055.09 -2.05079 -1.51045 0
M  V30 11271 H 1055.87 -3.39403 -0.515793 0
M  V30 11272 N 1058.32 0.686584 -1.41858 0
M  V30 11273 C 1059.54 1.4802 -1.45275 0
M  V30 11274 C 1059.97 1.87997 -0.0621297 0
M  V30 11275 O 1059.33 1.55226 0.936733 0
M  V30 11276 C 1059.38 2.7133 -2.37513 0
M  V30 11277 O 1058.48 3.69159 -1.83836 0
M  V30 11278 H 1057.82 0.445152 -0.492682 0
M  V30 11279 H 1060.35 0.843161 -1.86419 0
M  V30 11280 H 1060.36 3.19537 -2.53693 0
M  V30 11281 H 1059.04 2.41571 -3.3855 0
M  V30 11282 H 1057.61 3.28134 -1.77151 0
M  V30 11283 N 1059.8 1.27835 0.921735 0
M  V30 11284 C 1061.21 1.13151 1.48505 0
M  V30 11285 C 1061.56 -0.281373 1.94172 0
M  V30 11286 O 1060.68 -1.17487 1.8173 0
M  V30 11287 C 1061.28 2.04792 2.69899 0
M  V30 11288 C 1059.84 1.94196 3.22436 0
M  V30 11289 C 1058.99 1.96999 1.95158 0
M  V30 11290 H 1061.94 1.40641 0.735241 0
M  V30 11291 H 1061.96 1.60724 3.44889 0
M  V30 11292 H 1061.47 3.07615 2.36631 0
M  V30 11293 H 1059.57 0.943805 3.60448 0
M  V30 11294 H 1059.68 2.80744 3.88226 0
M  V30 11295 H 1058.05 1.41301 2.11911 0
M  V30 11296 H 1058.83 3.01487 1.64196 0
M  V30 11297 N 1061.28 -1.12907 1.09954 0
M  V30 11298 C 1062.24 -2.16673 0.747364 0
M  V30 11299 C 1063.24 -1.59208 -0.225741 0
M  V30 11300 O 1064.43 -1.742 -0.00322482 0
M  V30 11301 C 1061.56 -3.40735 0.106169 0
M  V30 11302 H 1062.75 -2.49341 1.6664 0
M  V30 11303 H 1060.31 -1.27828 0.899421 0
M  V30 11304 H 1061.04 -3.13661 -0.82384 0
M  V30 11305 H 1060.83 -3.83717 0.806434 0
M  V30 11306 H 1062.32 -4.17414 -0.12464 0
M  V30 11307 N 1062.75 -0.88754 -1.30232 0
M  V30 11308 C 1064.16 -0.55745 -1.78184 0
M  V30 11309 C 1064.52 0.926474 -1.72948 0
M  V30 11310 O 1063.64 1.72403 -1.3079 0
M  V30 11311 C 1064.24 -1.00512 -3.23547 0
M  V30 11312 C 1062.79 -0.726402 -3.69324 0
M  V30 11313 C 1061.94 -1.18666 -2.50627 0
M  V30 11314 H 1064.89 -1.07151 -1.17066 0
M  V30 11315 H 1064.91 -0.335185 -3.79021 0
M  V30 11316 H 1064.43 -2.08517 -3.27326 0
M  V30 11317 H 1062.53 0.341548 -3.71031 0
M  V30 11318 H 1062.64 -1.31575 -4.60679 0
M  V30 11319 H 1061 -0.605936 -2.47387 0
M  V30 11320 H 1061.79 -2.2745 -2.57141 0
M  V30 11321 N 1064.23 1.43628 -0.648757 0
M  V30 11322 C 1065.51 1.95391 -0.0904551 0
M  V30 11323 C 1065.89 1.59021 1.38837 0
M  V30 11324 O 1065.24 0.873078 2.11163 0
M  V30 11325 C 1065.45 3.47418 -0.33196 0
M  V30 11326 C 1066.8 4.23952 -0.234521 0
M  V30 11327 O 1067.82 3.55218 -0.264276 0
M  V30 11328 O 1066.68 5.46282 -0.154428 0
M  V30 11329 H 1063.77 0.82691 0.0121884 0
M  V30 11330 H 1066.32 1.5359 -0.721685 0
M  V30 11331 H 1065.09 3.67001 -1.35741 0
M  V30 11332 H 1064.71 3.96207 0.332556 0
M  V30 11333 N 1065.71 0.390394 1.52688 0
M  V30 11334 C 1066.99 -0.249068 1.94008 0
M  V30 11335 C 1067.37 -1.64263 1.32593 0
M  V30 11336 O 1066.72 -2.23086 0.494448 0
M  V30 11337 C 1066.93 -0.274318 3.4792 0
M  V30 11338 C 1068.27 -0.502743 4.21613 0
M  V30 11339 O 1069.3 -0.35448 3.54432 0
M  V30 11340 O 1068.16 -0.79334 5.40711 0
M  V30 11341 H 1065.25 -0.155116 0.812323 0
M  V30 11342 H 1067.8 0.44498 1.63762 0
M  V30 11343 H 1066.57 0.701766 3.84956 0
M  V30 11344 H 1066.19 -1.01324 3.84473 0
M  V30 11345 N 1067.19 -1.57141 0.120249 0
M  V30 11346 C 1068.6 -1.82256 -0.404931 0
M  V30 11347 C 1068.95 -1.03748 -1.66526 0
M  V30 11348 O 1068.08 -0.274456 -2.14653 0
M  V30 11349 C 1068.67 -3.30588 -0.741431 0
M  V30 11350 C 1067.23 -3.56379 -1.21124 0
M  V30 11351 C 1066.38 -2.76421 -0.220569 0
M  V30 11352 H 1069.33 -1.54897 0.345361 0
M  V30 11353 H 1069.35 -3.45284 -1.59872 0
M  V30 11354 H 1068.86 -3.87701 0.176036 0
M  V30 11355 H 1066.96 -3.04625 -2.14556 0
M  V30 11356 H 1067.07 -4.64952 -1.1557 0
M  V30 11357 H 1065.44 -2.44666 -0.707857 0
M  V30 11358 H 1066.22 -3.36294 0.690018 0
M  V30 11359 N 1068.67 0.153526 -1.5685 0
M  V30 11360 C 1069.58 1.20932 -2.01029 0
M  V30 11361 C 1070.59 1.47401 -0.924598 0
M  V30 11362 O 1071.77 1.592 -1.23359 0
M  V30 11363 C 1068.83 2.52438 -2.37647 0
M  V30 11364 C 1067.89 2.33673 -3.60132 0
M  V30 11365 C 1067.13 3.58909 -3.94994 0
M  V30 11366 O 1067.35 4.64823 -3.30599 0
M  V30 11367 O 1066.28 3.5196 -4.8827 0
M  V30 11368 H 1070.11 0.864273 -2.91143 0
M  V30 11369 H 1067.7 0.361755 -1.44954 0
M  V30 11370 H 1069.58 3.29981 -2.62088 0
M  V30 11371 H 1068.25 2.86486 -1.5069 0
M  V30 11372 H 1067.16 1.54102 -3.40886 0
M  V30 11373 H 1068.49 2.04544 -4.47686 0
M  V30 11374 N 1070.14 1.51827 0.422667 0
M  V30 11375 C 1071.05 1.77066 1.53899 0
M  V30 11376 C 1072.07 0.655541 1.61179 0
M  V30 11377 O 1073.25 0.939448 1.78147 0
M  V30 11378 C 1070.31 1.90372 2.89758 0
M  V30 11379 C 1069.37 3.14256 2.92475 0
M  V30 11380 C 1068.61 3.26918 4.21853 0
M  V30 11381 O 1068.83 2.45164 5.15025 0
M  V30 11382 O 1067.76 4.19989 4.31153 0
M  V30 11383 H 1071.59 2.71791 1.35511 0
M  V30 11384 H 1069.17 1.36506 0.607165 0
M  V30 11385 H 1071.06 2.01024 3.70361 0
M  V30 11386 H 1069.73 0.988347 3.08242 0
M  V30 11387 H 1068.64 3.09072 2.10773 0
M  V30 11388 H 1069.97 4.0553 2.78937 0
M  V30 11389 N 1071.62 -0.679052 1.4222 0
M  V30 11390 C 1072.87 -1.43627 1.42182 0
M  V30 11391 C 1073.19 -1.94964 0.0377095 0
M  V30 11392 O 1072.46 -1.72788 -0.923098 0
M  V30 11393 H 1071.04 -0.532972 0.523402 0
M  V30 11394 H 1073.7 -0.802649 1.77605 0
M  V30 11395 H 1072.8 -2.29137 2.11902 0
M  V30 11396 N 1073.1 -1.28322 -0.914942 0
M  V30 11397 C 1074.52 -1.06003 -1.19313 0
M  V30 11398 C 1074.72 0.198366 -2.00521 0
M  V30 11399 O 1073.77 0.900364 -2.35902 0
M  V30 11400 C 1075.09 -2.30684 -1.92887 0
M  V30 11401 C 1076.63 -2.35851 -2.05775 0
M  V30 11402 C 1077.11 -3.60295 -2.82757 0
M  V30 11403 N 1078.6 -3.60928 -2.9032 0
M  V30 11404 C 1079.33 -4.53894 -3.50383 0
M  V30 11405 N 1078.83 -5.57178 -4.11734 0
M  V30 11406 N 1080.62 -4.41492 -3.4791 0
M  V30 11407 H 1072.77 -2.09104 -0.372735 0
M  V30 11408 H 1075.04 -0.920285 -0.227552 0
M  V30 11409 H 1074.74 -3.22355 -1.40643 0
M  V30 11410 H 1074.62 -2.37003 -2.93444 0
M  V30 11411 H 1077 -1.44678 -2.57201 0
M  V30 11412 H 1077.09 -2.33526 -1.04399 0
M  V30 11413 H 1076.73 -4.51811 -2.32011 0
M  V30 11414 H 1076.66 -3.59873 -3.84446 0
M  V30 11415 H 1079.15 -2.8624 -2.46729 0
M  V30 11416 H 1079.46 -6.24261 -4.55541 0
M  V30 11417 H 1077.81 -5.61005 -4.10242 0
M  V30 11418 H 1081 -3.60005 -2.99189 0
M  V30 11419 H 1081.17 -5.14132 -3.94427 0
M  V30 11420 N 1074.58 1.12322 -1.10551 0
M  V30 11421 C 1075.51 2.17819 -0.713263 0
M  V30 11422 C 1076.52 1.6086 0.250604 0
M  V30 11423 O 1077.71 1.78466 0.0348909 0
M  V30 11424 C 1074.81 3.38885 -0.0320325 0
M  V30 11425 C 1073.99 4.25332 -1.02038 0
M  V30 11426 C 1073.04 5.24895 -0.370412 0
M  V30 11427 O 1072.07 5.59958 -1.02157 0
M  V30 11428 N 1073.27 5.73934 0.870633 0
M  V30 11429 H 1076.04 2.52083 -1.62094 0
M  V30 11430 H 1073.6 1.27755 -0.994492 0
M  V30 11431 H 1075.59 4.02574 0.414285 0
M  V30 11432 H 1074.16 3.02762 0.778072 0
M  V30 11433 H 1073.38 3.5824 -1.64492 0
M  V30 11434 H 1074.67 4.79936 -1.68936 0
M  V30 11435 H 1074.07 5.47614 1.419 0
M  V30 11436 H 1072.62 6.39504 1.26008 0
M  V30 11437 N 1076.06 0.894434 1.2976 0
M  V30 11438 C 1077.3 0.516646 1.95385 0
M  V30 11439 C 1077.63 -0.939141 1.70895 0
M  V30 11440 O 1076.9 -1.66153 1.03778 0
M  V30 11441 H 1075.48 0.188072 0.722937 0
M  V30 11442 H 1078.14 1.13958 1.58113 0
M  V30 11443 H 1077.23 0.694819 3.04267 0
M  V30 11444 N 1077.53 -1.43282 0.656365 0
M  V30 11445 C 1078.47 -2.29087 -0.0720378 0
M  V30 11446 C 1079.48 -1.4268 -0.783982 0
M  V30 11447 O 1080.67 -1.66585 -0.641213 0
M  V30 11448 C 1077.77 -3.19676 -1.12519 0
M  V30 11449 C 1076.94 -4.34638 -0.490756 0
M  V30 11450 C 1076 -5.06079 -1.44121 0
M  V30 11451 O 1075.03 -5.6124 -0.948595 0
M  V30 11452 N 1076.23 -5.09872 -2.77509 0
M  V30 11453 H 1078.99 -2.92241 0.664456 0
M  V30 11454 H 1076.55 -1.54006 0.499383 0
M  V30 11455 H 1078.55 -3.64334 -1.76189 0
M  V30 11456 H 1077.12 -2.581 -1.76362 0
M  V30 11457 H 1076.34 -3.92857 0.3251 0
M  V30 11458 H 1077.62 -5.08777 -0.0480061 0
M  V30 11459 H 1077.02 -4.66433 -3.20088 0
M  V30 11460 H 1075.58 -5.58237 -3.36474 0
M  V30 11461 N 1079.01 -0.398486 -1.52479 0
M  V30 11462 C 1080.24 0.180557 -2.06111 0
M  V30 11463 C 1080.66 1.39751 -1.26945 0
M  V30 11464 O 1080.01 1.79699 -0.318497 0
M  V30 11465 C 1080.06 0.541573 -3.5742 0
M  V30 11466 O 1079.79 -0.627043 -4.33589 0
M  V30 11467 C 1081.29 1.17549 -4.27431 0
M  V30 11468 H 1078.51 0.0250754 -0.670531 0
M  V30 11469 H 1081.05 -0.566368 -1.96501 0
M  V30 11470 H 1079.21 1.23839 -3.67073 0
M  V30 11471 H 1079.62 -0.328233 -5.23472 0
M  V30 11472 H 1081.09 1.37839 -5.34513 0
M  V30 11473 H 1081.57 2.14553 -3.83228 0
M  V30 11474 H 1082.18 0.51918 -4.22119 0
M  V30 11475 N 1080.49 1.57075 -0.12858 0
M  V30 11476 C 1081.4 2.19369 0.831533 0
M  V30 11477 C 1082.42 1.17258 1.28555 0
M  V30 11478 O 1083.59 1.49766 1.34656 0
M  V30 11479 C 1080.66 2.78846 2.06024 0
M  V30 11480 C 1079.72 3.96024 1.65722 0
M  V30 11481 C 1078.95 4.52655 2.82735 0
M  V30 11482 O 1079.18 4.08175 3.98434 0
M  V30 11483 O 1078.11 5.43198 2.59268 0
M  V30 11484 H 1081.94 3.01887 0.331352 0
M  V30 11485 H 1079.52 1.49081 0.0975226 0
M  V30 11486 H 1081.4 3.16721 2.77967 0
M  V30 11487 H 1080.08 1.99353 2.5503 0
M  V30 11488 H 1078.98 3.62899 0.908574 0
M  V30 11489 H 1080.32 4.76981 1.21449 0
M  V30 11490 N 1081.97 -0.145205 1.5693 0
M  V30 11491 C 1082.92 -1.17923 1.98401 0
M  V30 11492 C 1083.89 -1.42591 0.851885 0
M  V30 11493 O 1085.07 -1.54896 1.11409 0
M  V30 11494 C 1082.21 -2.50727 2.37128 0
M  V30 11495 C 1081.32 -2.33218 3.63639 0
M  V30 11496 C 1080.46 -3.5907 3.91462 0
M  V30 11497 C 1079.5 -3.36605 5.11237 0
M  V30 11498 N 1078.64 -4.54592 5.35061 0
M  V30 11499 H 1083.48 -0.818573 2.86537 0
M  V30 11500 H 1081.01 -0.392739 1.4176 0
M  V30 11501 H 1082.97 -3.28165 2.57611 0
M  V30 11502 H 1081.6 -2.84736 1.52069 0
M  V30 11503 H 1080.65 -1.46826 3.50922 0
M  V30 11504 H 1081.96 -2.12579 4.51234 0
M  V30 11505 H 1081.12 -4.44936 4.12453 0
M  V30 11506 H 1079.86 -3.82715 3.02293 0
M  V30 11507 H 1078.86 -2.49127 4.90118 0
M  V30 11508 H 1080.09 -3.14357 6.01961 0
M  V30 11509 H 1078.03 -4.78406 4.48847 0
M  V30 11510 H 1077.95 -4.36962 6.16928 0
M  V30 11511 H 1079.22 -5.41666 5.60551 0
M  V30 11512 N 1083.45 -1.52049 -0.414609 0
M  V30 11513 C 1084.69 -1.65838 -1.16206 0
M  V30 11514 C 1085.02 -0.385623 -1.90639 0
M  V30 11515 O 1084.28 0.631214 -1.85241 0
M  V30 11516 C 1084.58 -2.82735 -2.18622 0
M  V30 11517 C 1084.24 -4.21163 -1.61037 0
M  V30 11518 C 1082.9 -4.58816 -1.45056 0
M  V30 11519 C 1085.26 -5.0745 -1.18928 0
M  V30 11520 C 1082.58 -5.8044 -0.854761 0
M  V30 11521 C 1084.94 -6.29674 -0.607686 0
M  V30 11522 C 1083.6 -6.66081 -0.434968 0
M  V30 11523 H 1082.87 -0.606845 -0.425229 0
M  V30 11524 H 1085.52 -1.86137 -0.450009 0
M  V30 11525 H 1083.82 -2.56749 -2.95952 0
M  V30 11526 H 1085.52 -2.90601 -2.76319 0
M  V30 11527 H 1082.11 -3.91488 -1.74457 0
M  V30 11528 H 1086.29 -4.78948 -1.30086 0
M  V30 11529 H 1081.55 -6.07276 -0.70891 0
M  V30 11530 H 1085.72 -6.95865 -0.272988 0
M  V30 11531 H 1083.35 -7.60195 0.0288116 0
M  V30 11532 N 1084.93 0.6715 -1.42579 0
M  V30 11533 C 1085.86 1.79703 -1.42266 0
M  V30 11534 C 1086.87 1.59599 -0.321268 0
M  V30 11535 O 1088.06 1.68657 -0.584564 0
M  V30 11536 C 1085.16 3.16859 -1.20224 0
M  V30 11537 C 1084.33 3.63783 -2.42859 0
M  V30 11538 C 1083.39 4.79683 -2.16312 0
M  V30 11539 O 1082.42 4.90058 -2.89537 0
M  V30 11540 N 1083.62 5.68622 -1.16831 0
M  V30 11541 H 1086.38 1.80455 -2.39282 0
M  V30 11542 H 1083.95 0.854708 -1.375 0
M  V30 11543 H 1085.94 3.92054 -1.00376 0
M  V30 11544 H 1084.51 3.10987 -0.317188 0
M  V30 11545 H 1083.73 2.7923 -2.78252 0
M  V30 11546 H 1085.02 3.91877 -3.24514 0
M  V30 11547 H 1084.41 5.62894 -0.562746 0
M  V30 11548 H 1082.97 6.43615 -1.0297 0
M  V30 11549 N 1086.4 1.28806 0.908124 0
M  V30 11550 C 1087.65 1.16287 1.65781 0
M  V30 11551 C 1087.98 -0.287389 1.92365 0
M  V30 11552 O 1087.23 -1.22491 1.52625 0
M  V30 11553 C 1087.53 1.91267 3.01914 0
M  V30 11554 C 1087.2 3.41033 2.9497 0
M  V30 11555 C 1085.86 3.81879 2.92783 0
M  V30 11556 C 1088.21 4.36507 2.848 0
M  V30 11557 C 1085.54 5.16529 2.78235 0
M  V30 11558 C 1087.89 5.71237 2.71792 0
M  V30 11559 C 1086.56 6.11351 2.67967 0
M  V30 11560 H 1085.83 0.425526 0.606637 0
M  V30 11561 H 1088.47 1.59646 1.05762 0
M  V30 11562 H 1086.78 1.40474 3.65752 0
M  V30 11563 H 1088.48 1.78992 3.58835 0
M  V30 11564 H 1085.07 3.08561 2.97469 0
M  V30 11565 H 1089.25 4.05909 2.85573 0
M  V30 11566 H 1084.51 5.4673 2.73672 0
M  V30 11567 H 1088.68 6.44872 2.62892 0
M  V30 11568 H 1086.31 7.15637 2.56451 0
M  V30 11569 N 1087.88 -1.11734 1.11145 0
M  V30 11570 C 1088.79 -2.21267 0.779607 0
M  V30 11571 C 1089.81 -1.72526 -0.225986 0
M  V30 11572 O 1090.98 -2.01302 -0.0629166 0
M  V30 11573 C 1088.05 -3.45973 0.22435 0
M  V30 11574 C 1087.11 -4.09518 1.28816 0
M  V30 11575 C 1086.34 -5.28271 0.7593 0
M  V30 11576 O 1086.57 -5.68912 -0.411725 0
M  V30 11577 O 1085.5 -5.82322 1.52266 0
M  V30 11578 H 1089.33 -2.5206 1.6941 0
M  V30 11579 H 1086.91 -1.20211 0.887115 0
M  V30 11580 H 1088.79 -4.21322 -0.0810921 0
M  V30 11581 H 1087.47 -3.1684 -0.662891 0
M  V30 11582 H 1086.37 -3.35915 1.64657 0
M  V30 11583 H 1087.71 -4.42824 2.14868 0
M  V30 11584 N 1089.36 -0.901303 -1.29284 0
M  V30 11585 C 1090.29 -0.396909 -2.30102 0
M  V30 11586 C 1091.27 0.528919 -1.61668 0
M  V30 11587 O 1092.46 0.439306 -1.89166 0
M  V30 11588 C 1089.59 0.375006 -3.45269 0
M  V30 11589 C 1088.54 -0.46054 -4.25515 0
M  V30 11590 C 1087.87 0.438967 -5.32895 0
M  V30 11591 C 1089.17 -1.7113 -4.93469 0
M  V30 11592 H 1090.86 -1.23943 -2.72541 0
M  V30 11593 H 1088.41 -0.597428 -1.31022 0
M  V30 11594 H 1090.36 0.738622 -4.14876 0
M  V30 11595 H 1089.08 1.25132 -3.01678 0
M  V30 11596 H 1087.74 -0.80651 -3.57618 0
M  V30 11597 H 1087.39 1.31346 -4.85548 0
M  V30 11598 H 1087.09 -0.116406 -5.87485 0
M  V30 11599 H 1088.61 0.79874 -6.05353 0
M  V30 11600 H 1090.03 -1.41732 -5.55504 0
M  V30 11601 H 1088.42 -2.20811 -5.57999 0
M  V30 11602 H 1089.49 -2.44636 -4.18666 0
M  V30 11603 N 1090.84 1.42931 -0.663954 0
M  V30 11604 C 1092.07 2.06028 -0.189808 0
M  V30 11605 C 1092.48 1.49827 1.14879 0
M  V30 11606 O 1091.84 0.633778 1.71142 0
M  V30 11607 C 1091.89 3.61349 -0.104343 0
M  V30 11608 O 1091.61 4.15463 -1.39004 0
M  V30 11609 C 1093.11 4.4154 0.394599 0
M  V30 11610 H 1090.33 0.664259 -0.0948744 0
M  V30 11611 H 1092.87 1.83255 -0.907632 0
M  V30 11612 H 1091.03 3.83271 0.564103 0
M  V30 11613 H 1091.44 5.09233 -1.25626 0
M  V30 11614 H 1092.92 5.50525 0.403329 0
M  V30 11615 H 1093.39 4.1534 1.4279 0
M  V30 11616 H 1094 4.24612 -0.241729 0
M  V30 11617 N 1092.32 0.406567 1.52266 0
M  V30 11618 C 1093.25 -0.411314 2.29849 0
M  V30 11619 C 1094.23 -1.04838 1.33952 0
M  V30 11620 O 1095.41 -1.05788 1.62857 0
M  V30 11621 C 1092.54 -1.52961 3.11802 0
M  V30 11622 C 1091.5 -1.01768 4.15725 0
M  V30 11623 C 1090.82 -2.22938 4.86007 0
M  V30 11624 C 1092.12 -0.073515 5.22248 0
M  V30 11625 H 1093.82 0.236054 2.98468 0
M  V30 11626 H 1091.36 0.114968 1.4354 0
M  V30 11627 H 1093.31 -2.10874 3.64843 0
M  V30 11628 H 1092.04 -2.20482 2.40947 0
M  V30 11629 H 1090.7 -0.46097 3.6369 0
M  V30 11630 H 1090.35 -2.89007 4.11684 0
M  V30 11631 H 1090.05 -1.89338 5.5626 0
M  V30 11632 H 1091.57 -2.81462 5.41859 0
M  V30 11633 H 1092.98 -0.561367 5.70545 0
M  V30 11634 H 1091.38 0.173551 5.99849 0
M  V30 11635 H 1092.45 0.872524 4.76985 0
M  V30 11636 N 1093.79 -1.57004 0.136909 0
M  V30 11637 C 1094.7 -2.19807 -0.819887 0
M  V30 11638 C 1095.72 -1.17939 -1.27932 0
M  V30 11639 O 1096.9 -1.50478 -1.3386 0
M  V30 11640 C 1093.96 -2.79935 -2.04542 0
M  V30 11641 C 1093.02 -3.96897 -1.6362 0
M  V30 11642 C 1092.26 -4.54148 -2.80331 0
M  V30 11643 O 1092.48 -4.10282 -3.96264 0
M  V30 11644 O 1091.41 -5.44565 -2.56384 0
M  V30 11645 H 1095.24 -3.02058 -0.315337 0
M  V30 11646 H 1092.82 -1.49131 -0.0896151 0
M  V30 11647 H 1094.71 -3.18191 -2.76283 0
M  V30 11648 H 1093.38 -2.00703 -2.53969 0
M  V30 11649 H 1092.29 -3.63376 -0.889316 0
M  V30 11650 H 1093.62 -4.77618 -1.18918 0
M  V30 11651 N 1095.27 0.136881 -1.57004 0
M  V30 11652 C 1096.18 1.18793 -2.023 0
M  V30 11653 C 1097.2 1.46412 -0.94018 0
M  V30 11654 O 1098.37 1.57883 -1.2504 0
M  V30 11655 C 1095.44 2.49903 -2.40311 0
M  V30 11656 C 1094.5 2.29841 -3.6259 0
M  V30 11657 C 1093.73 3.54699 -3.98779 0
M  V30 11658 O 1093.96 4.61291 -3.3551 0
M  V30 11659 O 1092.89 3.46761 -4.91976 0
M  V30 11660 H 1096.72 0.833345 -2.92043 0
M  V30 11661 H 1094.3 0.346361 -1.4533 0
M  V30 11662 H 1096.18 3.27183 -2.65574 0
M  V30 11663 H 1094.86 2.84872 -1.5372 0
M  V30 11664 H 1093.77 1.50478 -3.42501 0
M  V30 11665 H 1095.1 1.99784 -4.4983 0
M  V30 11666 N 1096.75 1.52266 0.40654 0
M  V30 11667 C 1098.03 1.57018 1.1664 0
M  V30 11668 C 1098.41 0.352752 2.08132 0
M  V30 11669 O 1097.76 -0.660208 2.18754 0
M  V30 11670 C 1097.97 2.90016 1.94143 0
M  V30 11671 C 1099.31 3.43112 2.50119 0
M  V30 11672 O 1100.34 2.91773 2.0432 0
M  V30 11673 O 1099.2 4.32765 3.33731 0
M  V30 11674 H 1096.29 0.632574 0.532709 0
M  V30 11675 H 1098.84 1.64595 0.413111 0
M  V30 11676 H 1097.61 3.70071 1.27134 0
M  V30 11677 H 1097.23 2.85744 2.76471 0
M  V30 11678 N 1098.23 -0.663929 1.42933 0
M  V30 11679 C 1099.48 -1.42111 1.43697 0
M  V30 11680 C 1099.8 -1.94913 0.0583858 0
M  V30 11681 O 1099.07 -1.73757 -0.904719 0
M  V30 11682 H 1097.65 -0.527391 0.529026 0
M  V30 11683 H 1100.31 -0.783766 1.78446 0
M  V30 11684 H 1099.41 -2.26877 2.1432 0
M  V30 11685 N 1099.71 -1.29285 -0.901281 0
M  V30 11686 C 1100.62 -1.16161 -2.03823 0
M  V30 11687 C 1101.63 -0.0852298 -1.73791 0
M  V30 11688 O 1102.81 -0.29699 -1.99198 0
M  V30 11689 C 1099.87 -0.837586 -3.3643 0
M  V30 11690 C 1098.93 -1.99764 -3.7999 0
M  V30 11691 C 1098.17 -1.68898 -5.0627 0
M  V30 11692 O 1098.39 -0.609177 -5.67138 0
M  V30 11693 O 1097.32 -2.53648 -5.45845 0
M  V30 11694 H 1101.15 -2.11635 -2.17817 0
M  V30 11695 H 1098.74 -1.08722 -1.02468 0
M  V30 11696 H 1100.62 -0.671376 -4.16017 0
M  V30 11697 H 1099.29 0.0873811 -3.23582 0
M  V30 11698 H 1098.2 -2.21908 -3.01177 0
M  V30 11699 H 1099.53 -2.90376 -3.9742 0
M  V30 11700 N 1101.18 1.11143 -1.11736 0
M  V30 11701 C 1102.41 1.87285 -0.891007 0
M  V30 11702 C 1102.83 1.79758 0.553971 0
M  V30 11703 O 1102.19 1.16221 1.39149 0
M  V30 11704 C 1102.24 3.33924 -1.36114 0
M  V30 11705 O 1101.34 4.08917 -0.534851 0
M  V30 11706 H 1100.69 0.581418 -0.320701 0
M  V30 11707 H 1103.22 1.40469 -1.4876 0
M  V30 11708 H 1103.23 3.84772 -1.35701 0
M  V30 11709 H 1101.9 3.38719 -2.41334 0
M  V30 11710 H 1100.48 3.67954 -0.605355 0
M  V30 11711 N 1102.66 0.908147 1.28804 0
M  V30 11712 C 1103.94 0.457561 1.90173 0
M  V30 11713 C 1104.32 -1.06333 1.82364 0
M  V30 11714 O 1103.67 -1.90892 1.25589 0
M  V30 11715 C 1103.88 0.981624 3.34911 0
M  V30 11716 C 1105.23 1.03037 4.11908 0
M  V30 11717 O 1106.25 0.929878 3.43848 0
M  V30 11718 O 1105.11 1.18257 5.33552 0
M  V30 11719 H 1102.2 0.144081 0.814352 0
M  V30 11720 H 1104.75 0.998565 1.37211 0
M  V30 11721 H 1103.52 2.02561 3.34791 0
M  V30 11722 H 1103.14 0.421122 3.95364 0
M  V30 11723 N 1104.14 -1.42577 0.671525 0
M  V30 11724 C 1105.37 -2.05924 0.200731 0
M  V30 11725 C 1105.78 -1.50434 -1.14083 0
M  V30 11726 O 1105.14 -0.642845 -1.70803 0
M  V30 11727 C 1105.19 -3.61289 0.123505 0
M  V30 11728 O 1104.91 -4.1472 1.41205 0
M  V30 11729 C 1106.41 -4.41743 -0.371178 0
M  V30 11730 H 1103.63 -0.663746 0.0983958 0
M  V30 11731 H 1106.18 -1.82771 0.917338 0
M  V30 11732 H 1104.33 -3.83565 -0.543769 0
M  V30 11733 H 1104.75 -5.0856 1.28325 0
M  V30 11734 H 1106.22 -5.50731 -0.374128 0
M  V30 11735 H 1106.7 -4.16092 -1.40585 0
M  V30 11736 H 1107.3 -4.24478 0.264244 0
M  V30 11737 N 1105.62 -0.414636 -1.52048 0
M  V30 11738 C 1106.53 0.414861 -2.30903 0
M  V30 11739 C 1107.54 1.04855 -1.38858 0
M  V30 11740 O 1108.72 1.04886 -1.71933 0
M  V30 11741 C 1105.79 1.51356 -3.11917 0
M  V30 11742 C 1104.85 0.902359 -4.19709 0
M  V30 11743 C 1104.08 1.9487 -4.96852 0
M  V30 11744 O 1104.3 3.16766 -4.74358 0
M  V30 11745 O 1103.24 1.55186 -5.8155 0
M  V30 11746 H 1107.06 -0.228251 -3.02841 0
M  V30 11747 H 1104.65 -0.177704 -1.48339 0
M  V30 11748 H 1106.53 2.15127 -3.62351 0
M  V30 11749 H 1105.2 2.14117 -2.42767 0
M  V30 11750 H 1104.11 0.22721 -3.73409 0
M  V30 11751 H 1105.44 0.318587 -4.91168 0
M  V30 11752 N 1107.1 1.56929 -0.145233 0
M  V30 11753 C 1108.04 2.16671 0.795128 0
M  V30 11754 C 1109.01 1.09908 1.24537 0
M  V30 11755 O 1110.2 1.37941 1.31821 0
M  V30 11756 C 1107.34 2.79111 2.02956 0
M  V30 11757 C 1106.45 4.00261 1.62528 0
M  V30 11758 C 1105.59 4.50705 2.81137 0
M  V30 11759 C 1104.63 5.64324 2.37075 0
M  V30 11760 N 1103.76 6.09395 3.48687 0
M  V30 11761 H 1108.6 2.96692 0.278865 0
M  V30 11762 H 1106.14 1.4656 0.125934 0
M  V30 11763 H 1108.1 3.13456 2.7532 0
M  V30 11764 H 1106.73 2.01737 2.51996 0
M  V30 11765 H 1105.78 3.71906 0.799365 0
M  V30 11766 H 1107.09 4.8258 1.26166 0
M  V30 11767 H 1106.25 4.87096 3.61693 0
M  V30 11768 H 1104.98 3.67389 3.20744 0
M  V30 11769 H 1103.99 5.27511 1.54958 0
M  V30 11770 H 1105.21 6.49425 1.98556 0
M  V30 11771 H 1103.16 5.29014 3.87917 0
M  V30 11772 H 1103.08 6.86636 3.16333 0
M  V30 11773 H 1104.35 6.50431 4.29605 0
M  V30 11774 N 1108.58 -0.128553 1.57075 0
M  V30 11775 C 1109.85 -0.867766 1.75297 0
M  V30 11776 C 1110.23 -1.98508 0.718176 0
M  V30 11777 O 1109.58 -2.2702 -0.259616 0
M  V30 11778 C 1109.79 -1.39326 3.19983 0
M  V30 11779 C 1111.14 -1.84939 3.82208 0
M  V30 11780 O 1112.16 -1.49027 3.23527 0
M  V30 11781 O 1111.02 -2.51227 4.85332 0
M  V30 11782 H 1108.12 -0.411393 0.717415 0
M  V30 11783 H 1110.66 -0.113038 1.69323 0
M  V30 11784 H 1109.43 -0.591172 3.86809 0
M  V30 11785 H 1109.06 -2.21097 3.30457 0
M  V30 11786 N 1110.05 -1.5248 -0.398459 0
M  V30 11787 C 1111.28 -1.71221 -1.17039 0
M  V30 11788 C 1111.7 -0.425515 -1.83224 0
M  V30 11789 O 1111.06 0.617938 -1.70444 0
M  V30 11790 C 1111.11 -2.8562 -2.20121 0
M  V30 11791 O 1110.21 -2.51934 -3.26501 0
M  V30 11792 H 1109.55 -0.569654 -0.34116 0
M  V30 11793 H 1112.08 -1.99231 -0.465652 0
M  V30 11794 H 1112.09 -3.10842 -2.64275 0
M  V30 11795 H 1110.77 -3.78969 -1.71334 0
M  V30 11796 H 1109.35 -2.3742 -2.87552 0
M  V30 11797 N 1111.53 0.65634 -1.43283 0
M  V30 11798 C 1112.78 1.41347 -1.44449 0
M  V30 11799 C 1113.1 1.94879 -0.0687217 0
M  V30 11800 O 1112.37 1.74235 0.895492 0
M  V30 11801 H 1110.95 0.524578 -0.531815 0
M  V30 11802 H 1113.61 0.774292 -1.7886 0
M  V30 11803 H 1112.71 2.25737 -2.15521 0
M  V30 11804 N 1113.01 1.29761 0.894412 0
M  V30 11805 C 1114.23 1.21064 1.68399 0
M  V30 11806 C 1114.66 -0.224608 1.86754 0
M  V30 11807 O 1114.02 -1.16199 1.39167 0
M  V30 11808 C 1114.07 1.93468 3.04306 0
M  V30 11809 O 1113.17 1.25533 3.9283 0
M  V30 11810 H 1112.51 0.419223 0.514925 0
M  V30 11811 H 1115.04 1.71421 1.11696 0
M  V30 11812 H 1115.05 2.02127 3.54413 0
M  V30 11813 H 1113.73 2.97857 2.90265 0
M  V30 11814 H 1112.3 1.25168 3.51266 0
M  V30 11815 N 1114.49 -1.10549 1.12324 0
M  V30 11816 C 1115.42 -2.16657 0.747826 0
M  V30 11817 C 1116.43 -1.61238 -0.224981 0
M  V30 11818 O 1117.62 -1.78499 -0.00649408 0
M  V30 11819 C 1114.72 -3.38791 0.0859421 0
M  V30 11820 C 1113.89 -4.23655 1.08792 0
M  V30 11821 C 1112.95 -5.24239 0.453871 0
M  V30 11822 O 1111.98 -5.58262 1.11052 0
M  V30 11823 N 1113.18 -5.75246 -0.779215 0
M  V30 11824 H 1115.95 -2.49472 1.66084 0
M  V30 11825 H 1113.51 -1.26157 1.01469 0
M  V30 11826 H 1115.5 -4.03182 -0.350186 0
M  V30 11827 H 1114.07 -3.03961 -0.729807 0
M  V30 11828 H 1113.29 -3.55578 1.70171 0
M  V30 11829 H 1114.58 -4.77187 1.76549 0
M  V30 11830 H 1113.98 -5.49802 -1.3317 0
M  V30 11831 H 1112.53 -6.41428 -1.15818 0
M  V30 11832 N 1115.97 -0.914965 -1.28321 0
M  V30 11833 C 1117.21 -0.549562 -1.95212 0
M  V30 11834 C 1117.54 0.904658 -1.71842 0
M  V30 11835 O 1116.82 1.64354 -1.04009 0
M  V30 11836 C 1117.1 -0.860927 -3.49657 0
M  V30 11837 C 1116.96 -2.36797 -3.82423 0
M  V30 11838 C 1118.27 -0.357926 -4.38642 0
M  V30 11839 H 1115.39 -0.201136 -0.709023 0
M  V30 11840 H 1118.04 -1.14443 -1.51667 0
M  V30 11841 H 1116.19 -0.354665 -3.86878 0
M  V30 11842 H 1117.86 -2.94494 -3.55065 0
M  V30 11843 H 1116.1 -2.82245 -3.29424 0
M  V30 11844 H 1116.77 -2.53637 -4.90278 0
M  V30 11845 H 1119.25 -0.791636 -4.085 0
M  V30 11846 H 1118.12 -0.604855 -5.45557 0
M  V30 11847 H 1118.38 0.741775 -4.35833 0
M  V30 11848 N 1117.44 1.42219 -0.679077 0
M  V30 11849 C 1118.35 2.346 -0.00345919 0
M  V30 11850 C 1119.37 1.55327 0.784181 0
M  V30 11851 O 1120.55 1.87878 0.725524 0
M  V30 11852 C 1117.61 3.33905 0.933194 0
M  V30 11853 C 1116.67 4.29073 0.139607 0
M  V30 11854 C 1115.9 5.23634 1.03165 0
M  V30 11855 O 1116.13 5.23234 2.27119 0
M  V30 11856 O 1115.06 5.99901 0.490159 0
M  V30 11857 H 1118.89 2.9392 -0.764525 0
M  V30 11858 H 1116.47 1.42794 -0.439329 0
M  V30 11859 H 1118.35 3.949 1.47077 0
M  V30 11860 H 1117.03 2.77052 1.67404 0
M  V30 11861 H 1115.94 3.71478 -0.442177 0
M  V30 11862 H 1117.27 4.88979 -0.562214 0
M  V30 11863 N 1118.92 0.422693 1.51826 0
M  V30 11864 C 1119.83 -0.40261 2.31119 0
M  V30 11865 C 1120.85 -1.04117 1.39412 0
M  V30 11866 O 1122.02 -1.03973 1.72486 0
M  V30 11867 C 1119.09 -1.49699 3.12716 0
M  V30 11868 C 1118.15 -0.880088 4.20182 0
M  V30 11869 C 1117.38 -1.92232 4.97878 0
M  V30 11870 O 1117.61 -3.14246 4.76031 0
M  V30 11871 O 1116.54 -1.521 5.82365 0
M  V30 11872 H 1120.37 0.244308 3.02716 0
M  V30 11873 H 1117.95 0.185569 1.48243 0
M  V30 11874 H 1119.83 -2.13202 3.63487 0
M  V30 11875 H 1118.51 -2.12826 2.43899 0
M  V30 11876 H 1117.41 -0.207404 3.73525 0
M  V30 11877 H 1118.75 -0.292535 4.9133 0
M  V30 11878 N 1120.4 -1.5685 0.153553 0
M  V30 11879 C 1121.68 -1.8796 -0.541328 0
M  V30 11880 C 1122.06 -1.06059 -1.82523 0
M  V30 11881 O 1121.4 -0.149295 -2.28012 0
M  V30 11882 C 1121.61 -3.39697 -0.800442 0
M  V30 11883 C 1122.96 -4.09057 -1.13832 0
M  V30 11884 O 1123.99 -3.44913 -0.889578 0
M  V30 11885 O 1122.85 -5.22347 -1.60673 0
M  V30 11886 H 1119.94 -0.779268 -0.276895 0
M  V30 11887 H 1122.49 -1.68626 0.190657 0
M  V30 11888 H 1121.26 -3.91151 0.107935 0
M  V30 11889 H 1120.88 -3.64582 -1.58638 0
M  V30 11890 N 1121.88 0.120221 -1.57141 0
M  V30 11891 C 1123.11 0.842441 -1.88972 0
M  V30 11892 C 1123.52 1.73494 -0.744671 0
M  V30 11893 O 1122.88 1.80268 0.284557 0
M  V30 11894 C 1122.93 1.67688 -3.20254 0
M  V30 11895 O 1122.65 0.820319 -4.30351 0
M  V30 11896 C 1124.15 2.50436 -3.65782 0
M  V30 11897 H 1121.37 0.242241 -0.625748 0
M  V30 11898 H 1123.91 0.104978 -2.0423 0
M  V30 11899 H 1122.07 2.36712 -3.0667 0
M  V30 11900 H 1122.48 1.39575 -5.05588 0
M  V30 11901 H 1123.96 3.04518 -4.60405 0
M  V30 11902 H 1124.43 3.27737 -2.92378 0
M  V30 11903 H 1125.04 1.86657 -3.82151 0
M  V30 11904 N 1123.36 1.52689 0.390367 0
M  V30 11905 C 1124.58 1.71839 1.16129 0
M  V30 11906 C 1125.01 0.435226 1.82996 0
M  V30 11907 O 1124.36 -0.60889 1.70769 0
M  V30 11908 C 1124.41 2.86784 2.18603 0
M  V30 11909 O 1123.52 2.53662 3.25161 0
M  V30 11910 H 1122.86 0.571455 0.338135 0
M  V30 11911 H 1125.39 1.99475 0.45508 0
M  V30 11912 H 1125.4 3.12239 2.62622 0
M  V30 11913 H 1124.07 3.79872 1.69322 0
M  V30 11914 H 1122.65 2.38942 2.86289 0
M  V30 11915 N 1124.83 -0.648732 1.43629 0
M  V30 11916 C 1126.07 -1.42032 1.46991 0
M  V30 11917 C 1126.44 -1.91774 0.0931841 0
M  V30 11918 O 1127.64 -2.688 0.00148504 0
M  V30 11919 C 1125.91 -2.56693 2.48684 0
M  V30 11920 S 1127.47 -3.45149 2.70956 0
M  V30 11921 H 1124.29 -0.484772 0.520113 0
M  V30 11922 H 1126.89 -0.75274 1.80427 0
M  V30 11923 H 1125.59 -2.18431 3.47442 0
M  V30 11924 H 1125.12 -3.28296 2.1676 0
M  V30 11925 H 1127.14 -4.53569 2.01221 0
M  V30 11926 N 1126.31 -1.30234 -0.887518 0
M  V30 11927 C 1127.54 -1.21955 -1.67755 0
M  V30 11928 C 1127.96 0.214701 -1.86871 0
M  V30 11929 O 1127.32 1.15459 -1.39782 0
M  V30 11930 C 1127.37 -1.95079 -3.03276 0
M  V30 11931 O 1126.47 -1.27615 -3.92158 0
M  V30 11932 H 1125.81 -0.421948 -0.512695 0
M  V30 11933 H 1128.34 -1.72011 -1.10785 0
M  V30 11934 H 1128.35 -2.04004 -3.53336 0
M  V30 11935 H 1127.03 -2.99392 -2.88682 0
M  V30 11936 H 1125.61 -1.27029 -3.50597 0
M  V30 11937 N 1127.79 1.09952 -1.12909 0
M  V30 11938 C 1129.07 1.78547 -0.798767 0
M  V30 11939 C 1129.45 1.9878 0.710624 0
M  V30 11940 O 1128.8 1.58485 1.64604 0
M  V30 11941 C 1129.01 3.1121 -1.57953 0
M  V30 11942 C 1130.35 3.86006 -1.76874 0
M  V30 11943 O 1131.38 3.20946 -1.54506 0
M  V30 11944 O 1130.24 5.02791 -2.14158 0
M  V30 11945 H 1127.33 0.774084 -0.291072 0
M  V30 11946 H 1129.88 1.16557 -1.2334 0
M  V30 11947 H 1128.65 2.91935 -2.60557 0
M  V30 11948 H 1128.27 3.80922 -1.13948 0
M  V30 11949 N 1129.27 0.921757 1.27833 0
M  V30 11950 C 1130.49 0.574599 1.99281 0
M  V30 11951 C 1130.92 -0.838905 1.68357 0
M  V30 11952 O 1130.28 -1.56196 0.920468 0
M  V30 11953 C 1130.32 0.800027 3.51613 0
M  V30 11954 O 1129.43 -0.137215 4.12172 0
M  V30 11955 H 1128.77 0.221887 0.625829 0
M  V30 11956 H 1131.3 1.23939 1.62789 0
M  V30 11957 H 1131.31 0.71326 4.01717 0
M  V30 11958 H 1129.98 1.83042 3.73455 0
M  V30 11959 H 1128.56 -0.00103872 3.729 0
M  V30 11960 N 1130.75 -1.41857 0.686609 0
M  V30 11961 C 1131.69 -2.30795 0.015643 0
M  V30 11962 C 1132.66 -1.46616 -0.780569 0
M  V30 11963 O 1133.85 -1.75423 -0.750424 0
M  V30 11964 C 1130.99 -3.32577 -0.921229 0
M  V30 11965 C 1130.1 -4.3184 -0.117585 0
M  V30 11966 C 1129.24 -5.20693 -1.05128 0
M  V30 11967 C 1128.28 -6.11629 -0.240018 0
M  V30 11968 N 1127.41 -6.92995 -1.12704 0
M  V30 11969 H 1132.25 -2.87615 0.77985 0
M  V30 11970 H 1129.79 -1.41661 0.396298 0
M  V30 11971 H 1131.75 -3.90129 -1.47836 0
M  V30 11972 H 1130.38 -2.77328 -1.65193 0
M  V30 11973 H 1129.43 -3.7631 0.55634 0
M  V30 11974 H 1130.74 -4.96168 0.511753 0
M  V30 11975 H 1129.9 -5.83035 -1.67795 0
M  V30 11976 H 1128.63 -4.5657 -1.71449 0
M  V30 11977 H 1127.64 -5.48345 0.399779 0
M  V30 11978 H 1128.86 -6.77805 0.419266 0
M  V30 11979 H 1126.81 -6.31489 -1.77644 0
M  V30 11980 H 1126.73 -7.53974 -0.553065 0
M  V30 11981 H 1128 -7.59813 -1.7408 0
M  V30 11982 N 1132.22 -0.430739 -1.51599 0
M  V30 11983 C 1133.45 0.136797 -2.06447 0
M  V30 11984 C 1133.87 1.37027 -1.29881 0
M  V30 11985 O 1133.22 1.78983 -0.356543 0
M  V30 11986 C 1133.28 0.465637 -3.58489 0
M  V30 11987 O 1133 -0.718873 -4.32162 0
M  V30 11988 C 1134.5 1.08456 -4.29828 0
M  V30 11989 H 1131.72 0.0108468 -0.670912 0
M  V30 11990 H 1134.26 -0.607921 -1.95255 0
M  V30 11991 H 1132.42 1.16025 -3.69617 0
M  V30 11992 H 1132.83 -0.439195 -5.22658 0
M  V30 11993 H 1134.3 1.2647 -5.37317 0
M  V30 11994 H 1134.78 2.06376 -3.87693 0
M  V30 11995 H 1135.39 0.429525 -4.23125 0
M  V30 11996 N 1133.7 1.56767 -0.161869 0
M  V30 11997 C 1134.63 2.20511 0.767918 0
M  V30 11998 C 1135.61 1.15783 1.24612 0
M  V30 11999 O 1136.8 1.44179 1.301 0
M  V30 12000 C 1133.93 2.83844 2.00125 0
M  V30 12001 C 1132.88 3.94528 1.65926 0
M  V30 12002 C 1132.21 4.44866 2.96646 0
M  V30 12003 C 1133.51 5.14583 0.894497 0
M  V30 12004 H 1135.2 2.98464 0.236607 0
M  V30 12005 H 1132.75 1.43561 0.112363 0
M  V30 12006 H 1134.7 3.27109 2.65664 0
M  V30 12007 H 1133.43 2.03246 2.55654 0
M  V30 12008 H 1132.08 3.51904 1.02759 0
M  V30 12009 H 1131.73 3.61071 3.50196 0
M  V30 12010 H 1131.43 5.19531 2.74521 0
M  V30 12011 H 1132.96 4.90812 3.6323 0
M  V30 12012 H 1134.37 5.54601 1.45228 0
M  V30 12013 H 1132.77 5.95105 0.772636 0
M  V30 12014 H 1133.84 4.84773 -0.110986 0
M  V30 12015 N 1135.18 -0.111886 1.57202 0
M  V30 12016 C 1136.42 -0.82422 1.87045 0
M  V30 12017 C 1136.78 -1.76713 0.750765 0
M  V30 12018 O 1137.99 -2.52157 0.931154 0
M  V30 12019 C 1136.26 -1.5483 3.22122 0
M  V30 12020 S 1137.82 -2.30123 3.73616 0
M  V30 12021 H 1134.63 -0.274945 0.655687 0
M  V30 12022 H 1137.24 -0.0821899 1.95327 0
M  V30 12023 H 1135.94 -0.847704 4.0155 0
M  V30 12024 H 1135.47 -2.33056 3.16936 0
M  V30 12025 H 1137.49 -3.5597 3.45687 0
M  V30 12026 N 1136.66 -1.52894 -0.382264 0
M  V30 12027 C 1137.89 -1.72152 -1.14766 0
M  V30 12028 C 1138.3 -0.442911 -1.83531 0
M  V30 12029 O 1137.66 0.583085 -1.72935 0
M  V30 12030 C 1137.71 -2.87566 -2.19062 0
M  V30 12031 O 1137.43 -4.10478 -1.53099 0
M  V30 12032 C 1138.93 -3.18559 -3.08277 0
M  V30 12033 H 1136.15 -0.576212 -0.343832 0
M  V30 12034 H 1138.7 -1.99571 -0.446273 0
M  V30 12035 H 1136.85 -2.62589 -2.84826 0
M  V30 12036 H 1137.26 -4.74989 -2.22454 0
M  V30 12037 H 1138.74 -4.02763 -3.77473 0
M  V30 12038 H 1139.22 -2.33222 -3.72161 0
M  V30 12039 H 1139.82 -3.454 -2.48151 0
M  V30 12040 N 1138.14 0.641106 -1.43971 0
M  V30 12041 C 1139.07 1.76645 -1.46046 0
M  V30 12042 C 1140.08 1.58881 -0.355049 0
M  V30 12043 O 1141.27 1.67379 -0.620207 0
M  V30 12044 C 1138.37 3.14237 -1.26918 0
M  V30 12045 C 1137.54 3.5855 -2.50521 0
M  V30 12046 C 1136.6 4.74986 -2.26438 0
M  V30 12047 O 1135.63 4.83807 -2.99866 0
M  V30 12048 N 1136.83 5.66016 -1.28866 0
M  V30 12049 H 1139.6 1.75339 -2.43056 0
M  V30 12050 H 1137.16 0.82535 -1.39282 0
M  V30 12051 H 1139.15 3.89837 -1.0867 0
M  V30 12052 H 1137.72 3.10244 -0.383082 0
M  V30 12053 H 1136.94 2.73265 -2.84112 0
M  V30 12054 H 1138.23 3.84906 -3.32754 0
M  V30 12055 H 1137.63 5.61574 -0.682018 0
M  V30 12056 H 1136.18 6.41286 -1.16599 0
M  V30 12057 N 1139.62 1.30703 0.880598 0
M  V30 12058 C 1140.89 1.1043 1.61445 0
M  V30 12059 C 1141.27 -0.344837 2.08264 0
M  V30 12060 O 1140.62 -1.33711 1.85293 0
M  V30 12061 C 1140.83 2.10908 2.78063 0
M  V30 12062 C 1142.18 2.42861 3.48287 0
M  V30 12063 O 1143.2 2.09252 2.88257 0
M  V30 12064 O 1142.06 3.00369 4.56553 0
M  V30 12065 H 1139.16 0.424419 0.709787 0
M  V30 12066 H 1141.7 1.42144 0.926991 0
M  V30 12067 H 1140.47 3.08431 2.40803 0
M  V30 12068 H 1140.1 1.80036 3.54503 0
M  V30 12069 N 1141.09 -1.09351 1.1349 0
M  V30 12070 C 1142.32 -1.85844 0.92069 0
M  V30 12071 C 1142.74 -1.80616 -0.525303 0
M  V30 12072 O 1142.1 -1.1842 -1.37282 0
M  V30 12073 C 1142.15 -3.31716 1.4141 0
M  V30 12074 O 1141.25 -4.08014 0.599838 0
M  V30 12075 H 1140.59 -0.576242 0.32991 0
M  V30 12076 H 1143.12 -1.38084 1.50976 0
M  V30 12077 H 1143.13 -3.82564 1.41805 0
M  V30 12078 H 1141.81 -3.34837 2.46692 0
M  V30 12079 H 1140.39 -3.66944 0.663816 0
M  V30 12080 N 1142.57 -0.928524 -1.27343 0
M  V30 12081 C 1143.48 -0.433901 -2.30553 0
M  V30 12082 C 1144.5 0.485832 -1.6708 0
M  V30 12083 O 1145.67 0.36844 -1.98001 0
M  V30 12084 C 1142.74 0.304617 -3.45359 0
M  V30 12085 C 1141.8 -0.650131 -4.24349 0
M  V30 12086 C 1141.03 0.0532372 -5.33673 0
M  V30 12087 O 1141.26 1.27246 -5.56026 0
M  V30 12088 O 1140.19 -0.619009 -5.98709 0
M  V30 12089 H 1144.02 -1.2909 -2.74899 0
M  V30 12090 H 1141.6 -0.693903 -1.32308 0
M  V30 12091 H 1143.48 0.721137 -4.15184 0
M  V30 12092 H 1142.16 1.13721 -3.03066 0
M  V30 12093 H 1141.06 -1.11635 -3.57055 0
M  V30 12094 H 1142.4 -1.44996 -4.70358 0
M  V30 12095 N 1144.05 1.41491 -0.694123 0
M  V30 12096 C 1145.27 2.06099 -0.23197 0
M  V30 12097 C 1145.7 1.51888 1.10958 0
M  V30 12098 O 1145.06 0.645247 1.69429 0
M  V30 12099 C 1145.11 3.60053 -0.198522 0
M  V30 12100 O 1144.21 4.04021 0.827067 0
M  V30 12101 H 1143.55 0.654193 -0.113699 0
M  V30 12102 H 1146.08 1.81282 -0.948575 0
M  V30 12103 H 1146.09 4.0799 -0.0288904 0
M  V30 12104 H 1144.77 3.98879 -1.17764 0
M  V30 12105 H 1143.34 3.67593 0.626908 0
M  V30 12106 N 1145.53 0.438773 1.51369 0
M  V30 12107 C 1146.76 -0.125847 2.06517 0
M  V30 12108 C 1147.17 -1.36336 1.30606 0
M  V30 12109 O 1146.53 -1.78792 0.36603 0
M  V30 12110 C 1146.58 -0.446619 3.5873 0
M  V30 12111 O 1146.3 0.741781 4.31775 0
M  V30 12112 C 1147.8 -1.06175 4.30397 0
M  V30 12113 H 1145.02 -0.00728868 0.67096 0
M  V30 12114 H 1147.56 0.618267 1.9493 0
M  V30 12115 H 1145.72 -1.14064 3.70227 0
M  V30 12116 H 1146.13 0.466907 5.22418 0
M  V30 12117 H 1147.61 -1.23619 5.3798 0
M  V30 12118 H 1148.08 -2.04317 3.88782 0
M  V30 12119 H 1148.69 -0.40708 4.23347 0
M  V30 12120 N 1147.01 -1.56678 0.170181 0
M  V30 12121 C 1147.92 -2.21496 -0.773079 0
M  V30 12122 C 1148.93 -1.20626 -1.25401 0
M  V30 12123 O 1150.11 -1.53283 -1.30638 0
M  V30 12124 C 1147.17 -2.8421 -1.98558 0
M  V30 12125 C 1146.23 -4.00278 -1.55164 0
M  V30 12126 C 1145.47 -4.59992 -2.70634 0
M  V30 12127 O 1145.69 -4.18595 -3.87472 0
M  V30 12128 O 1144.62 -5.49881 -2.44775 0
M  V30 12129 H 1148.45 -3.02659 -0.251195 0
M  V30 12130 H 1146.03 -1.49288 -0.0579621 0
M  V30 12131 H 1147.92 -3.2398 -2.69472 0
M  V30 12132 H 1146.59 -2.06045 -2.49654 0
M  V30 12133 H 1145.5 -3.6518 -0.812038 0
M  V30 12134 H 1146.83 -4.80033 -1.0876 0
M  V30 12135 N 1148.48 0.103547 -1.57259 0
M  V30 12136 C 1149.73 0.807231 -1.84842 0
M  V30 12137 C 1150.05 1.80308 -0.758181 0
M  V30 12138 O 1151.25 2.55406 -0.920877 0
M  V30 12139 C 1149.71 1.4864 -3.27771 0
M  V30 12140 C 1149.32 0.53075 -4.44845 0
M  V30 12141 C 1151.06 2.17431 -3.64587 0
M  V30 12142 C 1148.97 1.21403 -5.78805 0
M  V30 12143 H 1147.9 0.305212 -0.689465 0
M  V30 12144 H 1150.55 0.0600855 -1.83402 0
M  V30 12145 H 1148.93 2.28071 -3.23728 0
M  V30 12146 H 1150.1 -0.231455 -4.60218 0
M  V30 12147 H 1148.42 -0.0510078 -4.16369 0
M  V30 12148 H 1151.02 2.6927 -4.6195 0
M  V30 12149 H 1151.36 2.9594 -2.92789 0
M  V30 12150 H 1151.89 1.4487 -3.70483 0
M  V30 12151 H 1148.63 0.469918 -6.53813 0
M  V30 12152 H 1148.15 1.94787 -5.6729 0
M  V30 12153 H 1149.83 1.74289 -6.23083 0
M  V30 12154 N 1149.96 1.53094 0.37415 0
M  V30 12155 C 1151.37 1.60641 0.951381 0
M  V30 12156 C 1151.72 0.468474 1.90525 0
M  V30 12157 O 1150.85 -0.406347 2.12551 0
M  V30 12158 C 1151.44 2.91166 1.73228 0
M  V30 12159 C 1150 3.01077 2.25898 0
M  V30 12160 C 1149.15 2.55873 1.06885 0
M  V30 12161 H 1152.1 1.57959 0.153214 0
M  V30 12162 H 1152.12 2.78487 2.59278 0
M  V30 12163 H 1151.63 3.73968 1.03778 0
M  V30 12164 H 1149.73 2.22844 2.98615 0
M  V30 12165 H 1149.85 4.05998 2.54367 0
M  V30 12166 H 1148.21 2.10544 1.43329 0
M  V30 12167 H 1148.99 3.41084 0.38947 0
M  V30 12168 N 1151.44 -0.633461 1.44309 0
M  V30 12169 C 1152.37 -1.75676 1.53819 0
M  V30 12170 C 1153.35 -1.65537 0.391365 0
M  V30 12171 O 1154.54 -1.84332 0.611181 0
M  V30 12172 C 1151.67 -3.14197 1.47979 0
M  V30 12173 C 1150.62 -3.39122 2.61113 0
M  V30 12174 C 1149.95 -4.77648 2.40325 0
M  V30 12175 C 1151.25 -3.31914 4.03274 0
M  V30 12176 H 1152.94 -1.67974 2.47841 0
M  V30 12177 H 1150.49 -0.8067 1.19283 0
M  V30 12178 H 1152.44 -3.92553 1.53233 0
M  V30 12179 H 1151.16 -3.22677 0.504718 0
M  V30 12180 H 1149.82 -2.63145 2.55245 0
M  V30 12181 H 1149.47 -4.82829 1.41016 0
M  V30 12182 H 1149.17 -4.95284 3.16177 0
M  V30 12183 H 1150.69 -5.58237 2.47394 0
M  V30 12184 H 1152.11 -4.00178 4.10524 0
M  V30 12185 H 1150.5 -3.61085 4.7931 0
M  V30 12186 H 1151.57 -2.29761 4.2701 0
M  V30 12187 N 1152.92 -1.31168 -0.873655 0
M  V30 12188 C 1154.2 -1.11285 -1.60857 0
M  V30 12189 C 1154.58 0.333788 -2.08444 0
M  V30 12190 O 1153.92 1.32726 -1.86 0
M  V30 12191 C 1154.13 -2.12379 -2.7694 0
M  V30 12192 C 1155.48 -2.44704 -3.46994 0
M  V30 12193 O 1156.51 -2.10778 -2.87143 0
M  V30 12194 O 1155.36 -3.02786 -4.54954 0
M  V30 12195 H 1152.46 -0.428177 -0.707526 0
M  V30 12196 H 1155 -1.42634 -0.91944 0
M  V30 12197 H 1153.78 -3.09703 -2.39164 0
M  V30 12198 H 1153.4 -1.81914 -3.53544 0
M  V30 12199 N 1154.4 1.08748 -1.14068 0
M  V30 12200 C 1155.31 2.19123 -0.837998 0
M  V30 12201 C 1156.32 1.73065 0.180164 0
M  V30 12202 O 1157.5 2.01398 0.00952285 0
M  V30 12203 C 1154.56 3.45257 -0.316 0
M  V30 12204 C 1153.62 4.05959 -1.39628 0
M  V30 12205 C 1152.86 5.26072 -0.899095 0
M  V30 12206 O 1153.08 5.69804 0.260744 0
M  V30 12207 O 1152.01 5.7808 -1.67652 0
M  V30 12208 H 1155.84 2.4748 -1.76033 0
M  V30 12209 H 1153.43 1.17816 -0.918675 0
M  V30 12210 H 1155.31 4.21389 -0.0306425 0
M  V30 12211 H 1153.98 3.18486 0.578654 0
M  V30 12212 H 1152.89 3.31432 -1.73505 0
M  V30 12213 H 1154.22 4.36971 -2.26533 0
M  V30 12214 N 1155.87 0.935264 1.26849 0
M  V30 12215 C 1156.81 0.397539 2.25726 0
M  V30 12216 C 1157.82 -0.475928 1.55688 0
M  V30 12217 O 1159.01 -0.287329 1.76172 0
M  V30 12218 C 1156.11 -0.448308 3.35922 0
M  V30 12219 C 1155.28 0.407624 4.35496 0
M  V30 12220 C 1154.34 -0.376815 5.24849 0
M  V30 12221 O 1153.37 0.218109 5.68782 0
M  V30 12222 N 1154.57 -1.67481 5.55815 0
M  V30 12223 H 1157.33 1.24753 2.72501 0
M  V30 12224 H 1154.89 0.803505 1.40554 0
M  V30 12225 H 1156.89 -0.980338 3.92647 0
M  V30 12226 H 1155.46 -1.19908 2.88688 0
M  V30 12227 H 1154.68 1.12091 3.77928 0
M  V30 12228 H 1155.96 0.992512 4.99026 0
M  V30 12229 H 1155.36 -2.18037 5.21993 0
M  V30 12230 H 1153.92 -2.15321 6.15207 0
M  V30 12231 N 1157.35 -1.41121 0.701616 0
M  V30 12232 C 1158.6 -2.01428 0.235495 0
M  V30 12233 C 1158.93 -1.55463 -1.16382 0
M  V30 12234 O 1158.21 -0.768477 -1.78675 0
M  V30 12235 C 1158.49 -3.58849 0.299919 0
M  V30 12236 C 1158.34 -4.14924 1.73661 0
M  V30 12237 C 1159.66 -4.38809 -0.336856 0
M  V30 12238 H 1156.78 -0.731842 0.0870456 0
M  V30 12239 H 1159.42 -1.67787 0.891479 0
M  V30 12240 H 1157.57 -3.87638 -0.258611 0
M  V30 12241 H 1159.24 -3.96987 2.34945 0
M  V30 12242 H 1157.49 -3.69738 2.26884 0
M  V30 12243 H 1158.16 -5.24085 1.73318 0
M  V30 12244 H 1160.63 -4.15868 0.138886 0
M  V30 12245 H 1159.51 -5.48278 -0.261264 0
M  V30 12246 H 1159.77 -4.18728 -1.41843 0
M  V30 12247 N 1158.83 -0.446794 -1.51134 0
M  V30 12248 C 1159.74 0.36579 -2.31731 0
M  V30 12249 C 1160.76 1.01886 -1.41051 0
M  V30 12250 O 1161.93 1.01216 -1.74119 0
M  V30 12251 C 1159 1.44705 -3.15058 0
M  V30 12252 C 1158.06 0.813129 -4.21529 0
M  V30 12253 C 1157.29 1.84287 -5.00873 0
M  V30 12254 O 1157.51 3.06633 -4.8097 0
M  V30 12255 O 1156.45 1.42816 -5.84711 0
M  V30 12256 H 1160.27 -0.292436 -3.02289 0
M  V30 12257 H 1157.86 -0.209129 -1.47929 0
M  V30 12258 H 1159.74 2.07393 -3.66833 0
M  V30 12259 H 1158.42 2.08919 -2.47254 0
M  V30 12260 H 1157.32 0.147953 -3.73807 0
M  V30 12261 H 1158.66 0.214331 -4.91733 0
M  V30 12262 N 1160.31 1.56586 -0.178487 0
M  V30 12263 C 1161.22 2.21903 0.761321 0
M  V30 12264 C 1162.23 1.21289 1.2476 0
M  V30 12265 O 1163.41 1.53974 1.29823 0
M  V30 12266 C 1160.48 2.85259 1.97048 0
M  V30 12267 C 1159.54 4.01095 1.53039 0
M  V30 12268 C 1158.77 4.61421 2.68191 0
M  V30 12269 O 1158.99 4.20644 3.85247 0
M  V30 12270 O 1157.93 5.51171 2.41855 0
M  V30 12271 H 1161.75 3.02788 0.235141 0
M  V30 12272 H 1159.34 1.49316 0.0500442 0
M  V30 12273 H 1161.22 3.25404 2.6775 0
M  V30 12274 H 1159.89 2.07366 2.48558 0
M  V30 12275 H 1158.8 3.65606 0.792661 0
M  V30 12276 H 1160.13 4.80603 1.06213 0
M  V30 12277 N 1161.79 -0.095206 1.57312 0
M  V30 12278 C 1162.7 -1.13388 2.05379 0
M  V30 12279 C 1163.71 -1.43868 0.978668 0
M  V30 12280 O 1164.89 -1.54512 1.29182 0
M  V30 12281 C 1161.95 -2.43444 2.46852 0
M  V30 12282 C 1161.01 -2.20146 3.68557 0
M  V30 12283 C 1160.25 -3.44001 4.08043 0
M  V30 12284 O 1160.47 -4.52233 3.47623 0
M  V30 12285 O 1159.4 -3.33596 5.00997 0
M  V30 12286 H 1163.23 -0.755622 2.9415 0
M  V30 12287 H 1160.82 -0.307707 1.46197 0
M  V30 12288 H 1162.7 -3.20027 2.74155 0
M  V30 12289 H 1161.37 -2.80696 1.61219 0
M  V30 12290 H 1160.28 -1.41345 3.46371 0
M  V30 12291 H 1161.61 -1.87787 4.54969 0
M  V30 12292 N 1163.26 -1.53291 -0.366026 0
M  V30 12293 C 1164.23 -1.79025 -1.43117 0
M  V30 12294 C 1165.23 -0.660676 -1.46601 0
M  V30 12295 O 1166.42 -0.928875 -1.47369 0
M  V30 12296 C 1163.55 -1.91192 -2.82238 0
M  V30 12297 H 1164.74 -2.74154 -1.21572 0
M  V30 12298 H 1162.3 -1.44361 -0.599132 0
M  V30 12299 H 1163.03 -0.98129 -3.09097 0
M  V30 12300 H 1162.82 -2.7335 -2.81109 0
M  V30 12301 H 1164.31 -2.12696 -3.59375 0
M  V30 12302 N 1164.74 0.6258 -1.44643 0
M  V30 12303 C 1165.99 1.3873 -1.47925 0
M  V30 12304 C 1166.32 1.93868 -0.113469 0
M  V30 12305 O 1165.6 1.73976 0.869639 0
M  V30 12306 C 1165.88 2.54867 -2.54391 0
M  V30 12307 C 1165.73 2.05044 -4.00346 0
M  V30 12308 C 1167.05 3.57043 -2.57309 0
M  V30 12309 H 1164.17 0.503087 -0.538584 0
M  V30 12310 H 1166.81 0.707102 -1.76352 0
M  V30 12311 H 1164.96 3.12894 -2.30281 0
M  V30 12312 H 1166.63 1.51807 -4.35606 0
M  V30 12313 H 1164.88 1.36185 -4.11869 0
M  V30 12314 H 1165.55 2.88681 -4.70497 0
M  V30 12315 H 1168.02 3.08826 -2.78865 0
M  V30 12316 H 1166.9 4.35818 -3.33698 0
M  V30 12317 H 1167.16 4.11464 -1.61708 0
M  V30 12318 N 1166.22 1.31629 0.866686 0
M  V30 12319 C 1167.47 1.21263 1.61678 0
M  V30 12320 C 1167.79 -0.228562 1.93656 0
M  V30 12321 O 1167.06 -1.15014 1.58583 0
M  V30 12322 H 1165.64 0.445817 0.59938 0
M  V30 12323 H 1168.3 1.64998 1.03739 0
M  V30 12324 H 1167.4 1.78669 2.55898 0
M  V30 12325 N 1167.7 -1.08142 1.14644 0
M  V30 12326 C 1168.61 -2.18675 0.849607 0
M  V30 12327 C 1169.63 -1.73158 -0.170983 0
M  V30 12328 O 1170.8 -2.014 0.0011579 0
M  V30 12329 C 1167.87 -3.45084 0.334305 0
M  V30 12330 C 1166.93 -4.05213 1.41779 0
M  V30 12331 C 1166.16 -5.25588 0.926981 0
M  V30 12332 O 1166.38 -5.69934 -0.230522 0
M  V30 12333 O 1165.32 -5.77183 1.70715 0
M  V30 12334 H 1169.14 -2.46542 1.77343 0
M  V30 12335 H 1166.73 -1.17328 0.924911 0
M  V30 12336 H 1168.61 -4.21367 0.0529893 0
M  V30 12337 H 1167.29 -3.18788 -0.561755 0
M  V30 12338 H 1166.19 -3.30507 1.7526 0
M  V30 12339 H 1167.53 -4.35764 2.28847 0
M  V30 12340 N 1169.18 -0.941978 -1.26351 0
M  V30 12341 C 1170.09 -0.45833 -2.30079 0
M  V30 12342 C 1171.1 0.468084 -1.67586 0
M  V30 12343 O 1172.28 0.347418 -1.98381 0
M  V30 12344 C 1169.34 0.26797 -3.45663 0
M  V30 12345 C 1168.41 -0.695102 -4.23635 0
M  V30 12346 C 1167.64 -0.003369 -5.337 0
M  V30 12347 O 1167.86 1.21342 -5.57344 0
M  V30 12348 O 1166.8 -0.682476 -5.98018 0
M  V30 12349 H 1170.62 -1.31998 -2.73514 0
M  V30 12350 H 1168.21 -0.707897 -1.31564 0
M  V30 12351 H 1170.09 0.677061 -4.15925 0
M  V30 12352 H 1168.76 1.105 -3.04256 0
M  V30 12353 H 1167.67 -1.15415 -3.55851 0
M  V30 12354 H 1169 -1.49977 -4.68794 0
M  V30 12355 N 1170.66 1.40747 -0.709091 0
M  V30 12356 C 1171.57 2.3454 -0.0532205 0
M  V30 12357 C 1172.58 1.56956 0.751057 0
M  V30 12358 O 1173.76 1.89375 0.685509 0
M  V30 12359 C 1170.82 3.35809 0.862157 0
M  V30 12360 C 1169.88 4.29273 0.0485632 0
M  V30 12361 C 1169.12 5.25705 0.920345 0
M  V30 12362 O 1169.34 5.27933 2.15969 0
M  V30 12363 O 1168.27 6.00806 0.3628 0
M  V30 12364 H 1172.1 2.92232 -0.826698 0
M  V30 12365 H 1169.68 1.4183 -0.469519 0
M  V30 12366 H 1171.57 3.97931 1.38668 0
M  V30 12367 H 1170.24 2.8054 1.61489 0
M  V30 12368 H 1169.15 3.70456 -0.520873 0
M  V30 12369 H 1170.48 4.87676 -0.665807 0
M  V30 12370 N 1172.13 0.454803 1.50895 0
M  V30 12371 C 1173.04 -0.353495 2.31921 0
M  V30 12372 C 1174.06 -1.01136 1.41589 0
M  V30 12373 O 1175.24 -1.00291 1.74653 0
M  V30 12374 C 1172.3 -1.43032 3.15821 0
M  V30 12375 C 1171.36 -0.790763 4.21954 0
M  V30 12376 C 1170.59 -1.81628 5.01843 0
M  V30 12377 O 1170.82 -3.04078 4.8259 0
M  V30 12378 O 1169.75 -1.39713 5.8546 0
M  V30 12379 H 1173.58 0.308463 3.02129 0
M  V30 12380 H 1171.16 0.216971 1.47816 0
M  V30 12381 H 1173.04 -2.05444 3.67927 0
M  V30 12382 H 1171.72 -2.07605 2.48358 0
M  V30 12383 H 1170.63 -0.128127 3.73881 0
M  V30 12384 H 1171.96 -0.188251 4.9184 0
M  V30 12385 N 1173.61 -1.56489 0.186789 0
M  V30 12386 C 1174.84 -2.02163 -0.463126 0
M  V30 12387 C 1175.26 -1.06612 -1.54969 0
M  V30 12388 O 1174.62 -0.0482139 -1.81236 0
M  V30 12389 C 1174.67 -3.46337 -1.00416 0
M  V30 12390 O 1173.77 -3.53889 -2.11747 0
M  V30 12391 H 1173.11 -0.65496 -0.109194 0
M  V30 12392 H 1175.64 -2.02459 0.295227 0
M  V30 12393 H 1175.65 -3.85959 -1.32287 0
M  V30 12394 H 1174.33 -4.15376 -0.208693 0
M  V30 12395 H 1172.9 -3.26136 -1.80803 0
M  V30 12396 N 1175.09 0.086862 -1.5736 0
M  V30 12397 C 1176.02 1.13117 -1.99342 0
M  V30 12398 C 1177.03 1.35849 -0.897151 0
M  V30 12399 O 1178.22 1.34356 -1.17519 0
M  V30 12400 C 1175.32 2.48511 -2.30425 0
M  V30 12401 C 1174.5 2.45942 -3.61706 0
M  V30 12402 C 1173.56 3.63327 -3.80631 0
M  V30 12403 O 1172.58 3.45443 -4.52392 0
M  V30 12404 N 1173.78 4.83118 -3.21835 0
M  V30 12405 H 1176.55 0.773782 -2.89539 0
M  V30 12406 H 1174.11 0.275731 -1.59535 0
M  V30 12407 H 1176.1 3.25656 -2.40272 0
M  V30 12408 H 1174.67 2.76308 -1.46194 0
M  V30 12409 H 1173.89 1.54287 -3.62752 0
M  V30 12410 H 1175.18 2.41313 -4.47935 0
M  V30 12411 H 1174.58 5.00552 -2.6356 0
M  V30 12412 H 1173.13 5.57827 -3.37154 0
M  V30 12413 N 1176.57 1.53483 0.357892 0
M  V30 12414 C 1177.98 1.61641 0.934289 0
M  V30 12415 C 1178.33 0.488655 1.90017 0
M  V30 12416 O 1177.45 -0.38378 2.1297 0
M  V30 12417 C 1178.05 2.92987 1.7013 0
M  V30 12418 C 1176.61 3.03456 2.22692 0
M  V30 12419 C 1175.76 2.56992 1.04165 0
M  V30 12420 H 1178.71 1.58112 0.136452 0
M  V30 12421 H 1178.73 2.81221 2.5631 0
M  V30 12422 H 1178.24 3.75047 0.998056 0
M  V30 12423 H 1176.34 2.25999 2.96235 0
M  V30 12424 H 1176.45 4.08673 2.50046 0
M  V30 12425 H 1174.82 2.12052 1.41088 0
M  V30 12426 H 1175.6 3.41477 0.353272 0
M  V30 12427 N 1178.05 -0.61812 1.44973 0
M  V30 12428 C 1178.96 -1.7579 1.55355 0
M  V30 12429 C 1179.97 -1.68384 0.438512 0
M  V30 12430 O 1181.15 -1.88928 0.697715 0
M  V30 12431 C 1178.21 -3.1222 1.50729 0
M  V30 12432 C 1177.27 -3.3116 2.73188 0
M  V30 12433 C 1176.51 -4.61082 2.68774 0
M  V30 12434 O 1176.73 -5.42728 1.75507 0
M  V30 12435 O 1175.66 -4.82506 3.59821 0
M  V30 12436 H 1179.49 -1.69983 2.51674 0
M  V30 12437 H 1177.07 -0.780934 1.27365 0
M  V30 12438 H 1178.96 -3.93524 1.5072 0
M  V30 12439 H 1177.63 -3.18541 0.575587 0
M  V30 12440 H 1176.54 -2.49485 2.78762 0
M  V30 12441 H 1177.87 -3.29709 3.65449 0
M  V30 12442 N 1179.52 -1.32087 -0.859693 0
M  V30 12443 C 1180.49 -1.20546 -1.94939 0
M  V30 12444 C 1181.49 -0.12982 -1.60275 0
M  V30 12445 O 1182.68 -0.379853 -1.70008 0
M  V30 12446 C 1179.81 -0.852717 -3.30063 0
M  V30 12447 H 1181 -2.17384 -2.06602 0
M  V30 12448 H 1178.55 -1.15846 -1.04926 0
M  V30 12449 H 1179.29 0.114059 -3.24099 0
M  V30 12450 H 1179.07 -1.63035 -3.56598 0
M  V30 12451 H 1180.56 -0.796145 -4.09941 0
M  V30 12452 N 1181 1.07532 -1.15215 0
M  V30 12453 C 1182.24 1.81689 -0.936396 0
M  V30 12454 C 1182.61 1.84622 0.527136 0
M  V30 12455 O 1183.81 2.54632 0.861159 0
M  V30 12456 C 1182.08 3.22919 -1.53161 0
M  V30 12457 S 1183.64 4.13845 -1.4587 0
M  V30 12458 H 1180.45 0.626036 -0.337045 0
M  V30 12459 H 1183.06 1.29191 -1.4673 0
M  V30 12460 H 1181.76 3.18372 -2.58974 0
M  V30 12461 H 1181.29 3.80492 -0.999482 0
M  V30 12462 H 1183.31 4.94152 -0.450317 0
M  V30 12463 N 1182.48 0.948665 1.2585 0
M  V30 12464 C 1183.73 0.601125 1.93686 0
M  V30 12465 C 1184.06 -0.858779 1.7418 0
M  V30 12466 O 1183.33 -1.61539 1.0833 0
M  V30 12467 C 1183.62 0.95333 3.47252 0
M  V30 12468 C 1183.47 2.46853 3.7601 0
M  V30 12469 C 1184.79 0.474098 4.37539 0
M  V30 12470 H 1181.91 0.219864 0.703441 0
M  V30 12471 H 1184.55 1.18424 1.48579 0
M  V30 12472 H 1182.7 0.457114 3.85801 0
M  V30 12473 H 1184.37 3.03804 3.47132 0
M  V30 12474 H 1182.62 2.9088 3.21825 0
M  V30 12475 H 1183.29 2.66547 4.83381 0
M  V30 12476 H 1185.76 0.899664 4.06258 0
M  V30 12477 H 1184.64 0.749287 5.43762 0
M  V30 12478 H 1184.9 -0.625961 4.37646 0
M  V30 12479 N 1183.96 -1.40369 0.716545 0
M  V30 12480 C 1185.21 -2.00101 0.253452 0
M  V30 12481 C 1185.52 -1.57471 -1.16027 0
M  V30 12482 O 1186.73 -2.09909 -1.72193 0
M  V30 12483 C 1185.18 -3.57645 0.402213 0
M  V30 12484 C 1184.79 -4.09248 1.82264 0
M  V30 12485 C 1186.53 -4.245 -3.88526e-05 0
M  V30 12486 C 1184.44 -5.59299 1.92193 0
M  V30 12487 H 1183.37 -0.748488 0.0910047 0
M  V30 12488 H 1186.02 -1.60595 0.887772 0
M  V30 12489 H 1184.4 -3.94857 -0.300706 0
M  V30 12490 H 1185.58 -3.83412 2.55601 0
M  V30 12491 H 1183.89 -3.54993 2.17644 0
M  V30 12492 H 1186.49 -5.34673 0.0534202 0
M  V30 12493 H 1186.83 -4.03046 -1.04208 0
M  V30 12494 H 1187.37 -3.92398 0.65336 0
M  V30 12495 H 1184.11 -5.85608 2.94522 0
M  V30 12496 H 1183.63 -5.86997 1.23268 0
M  V30 12497 H 1185.3 -6.24416 1.6945 0
M  V30 12498 N 1185.44 -0.462799 -1.50652 0
M  V30 12499 C 1186.71 0.156221 -1.94975 0
M  V30 12500 C 1187.09 1.5775 -1.40279 0
M  V30 12501 O 1186.44 2.20473 -0.600323 0
M  V30 12502 C 1186.65 0.108008 -3.48833 0
M  V30 12503 C 1188 0.301013 -4.23532 0
M  V30 12504 O 1189.02 0.184973 -3.55719 0
M  V30 12505 O 1187.88 0.534457 -5.4388 0
M  V30 12506 H 1184.98 0.116182 -0.818798 0
M  V30 12507 H 1187.52 -0.522607 -1.61453 0
M  V30 12508 H 1186.29 -0.884634 -3.81169 0
M  V30 12509 H 1185.92 0.828653 -3.88869 0
M  V30 12510 N 1186.91 1.56388 -0.195085 0
M  V30 12511 C 1188.19 1.89329 0.491303 0
M  V30 12512 C 1188.57 1.10861 1.79647 0
M  V30 12513 O 1187.92 0.209696 2.27536 0
M  V30 12514 C 1188.13 3.417 0.710096 0
M  V30 12515 C 1189.48 4.11931 1.02947 0
M  V30 12516 O 1190.5 3.4715 0.797817 0
M  V30 12517 O 1189.36 5.26423 1.46767 0
M  V30 12518 H 1186.45 0.786335 0.256137 0
M  V30 12519 H 1189 1.68061 -0.235298 0
M  V30 12520 H 1187.77 3.90727 -0.211604 0
M  V30 12521 H 1187.4 3.6866 1.48916 0
M  V30 12522 N 1188.39 -0.0785156 1.57404 0
M  V30 12523 C 1189.81 -0.433143 1.5361 0
M  V30 12524 C 1190.01 -1.79564 0.914283 0
M  V30 12525 O 1189.06 -2.47215 0.513899 0
M  V30 12526 C 1190.38 -0.380387 2.98284 0
M  V30 12527 C 1191.93 -0.461056 3.09586 0
M  V30 12528 C 1192.4 -0.438276 4.55898 0
M  V30 12529 N 1193.89 -0.498548 4.60509 0
M  V30 12530 C 1194.63 -0.503028 5.71189 0
M  V30 12531 N 1194.12 -0.462724 6.91253 0
M  V30 12532 N 1195.92 -0.549083 5.59412 0
M  V30 12533 H 1188.07 0.813724 1.96195 0
M  V30 12534 H 1190.33 0.304644 0.897717 0
M  V30 12535 H 1190.04 0.553932 3.4731 0
M  V30 12536 H 1189.91 -1.19313 3.57833 0
M  V30 12537 H 1192.3 -1.3858 2.60537 0
M  V30 12538 H 1192.38 0.380138 2.5296 0
M  V30 12539 H 1192.02 0.482588 5.05602 0
M  V30 12540 H 1191.95 -1.29691 5.1038 0
M  V30 12541 H 1194.44 -0.534219 3.74105 0
M  V30 12542 H 1194.76 -0.469883 7.7137 0
M  V30 12543 H 1193.1 -0.429515 6.93672 0
M  V30 12544 H 1196.29 -0.578215 4.64515 0
M  V30 12545 H 1196.46 -0.549105 6.45669 0
M  V30 12546 N 1189.87 -1.5367 -0.349747 0
M  V30 12547 C 1191.1 -1.74858 -1.11532 0
M  V30 12548 C 1191.52 -0.483591 -1.81777 0
M  V30 12549 O 1190.88 0.563399 -1.72324 0
M  V30 12550 C 1190.93 -2.92479 -2.10923 0
M  V30 12551 O 1190.03 -2.62194 -3.18321 0
M  V30 12552 H 1189.37 -0.580219 -0.322865 0
M  V30 12553 H 1191.9 -2.00611 -0.402033 0
M  V30 12554 H 1191.91 -3.19093 -2.54252 0
M  V30 12555 H 1190.59 -3.84228 -1.59191 0
M  V30 12556 H 1189.16 -2.46448 -2.79853 0
M  V30 12557 N 1191.35 0.610423 -1.45298 0
M  V30 12558 C 1192.76 1.19234 -1.43667 0
M  V30 12559 C 1193.11 1.95523 -0.162794 0
M  V30 12560 O 1192.24 2.03507 0.735789 0
M  V30 12561 C 1192.83 2.16892 -2.60276 0
M  V30 12562 C 1191.39 2.70465 -2.61774 0
M  V30 12563 C 1190.54 1.45821 -2.35863 0
M  V30 12564 H 1193.49 0.399895 -1.53579 0
M  V30 12565 H 1193.51 2.99875 -2.34212 0
M  V30 12566 H 1193.02 1.61339 -3.52975 0
M  V30 12567 H 1191.12 3.29965 -1.73072 0
M  V30 12568 H 1191.23 3.15092 -3.60907 0
M  V30 12569 H 1189.6 1.74678 -1.85364 0
M  V30 12570 H 1190.38 0.921403 -3.30704 0
M  V30 12571 N 1192.83 1.32541 0.852676 0
M  V30 12572 C 1194.1 1.1383 1.59067 0
M  V30 12573 C 1194.48 -0.300584 2.08949 0
M  V30 12574 O 1193.83 -1.29751 1.88088 0
M  V30 12575 C 1194.04 2.16758 2.73527 0
M  V30 12576 C 1195.39 2.50194 3.43057 0
M  V30 12577 O 1196.41 2.15319 2.83754 0
M  V30 12578 O 1195.27 3.09985 4.50079 0
M  V30 12579 H 1192.37 0.439379 0.700625 0
M  V30 12580 H 1194.91 1.44078 0.896632 0
M  V30 12581 H 1193.68 3.13469 2.34207 0
M  V30 12582 H 1193.31 1.87515 3.50605 0
M  V30 12583 N 1194.3 -1.0692 1.15784 0
M  V30 12584 C 1195.53 -1.8331 0.959422 0
M  V30 12585 C 1195.95 -1.82268 -0.492332 0
M  V30 12586 O 1195.3 -1.23727 -1.34156 0
M  V30 12587 C 1195.36 -3.30202 1.47135 0
M  V30 12588 O 1195.08 -3.31328 2.86624 0
M  V30 12589 C 1196.58 -4.23346 1.31504 0
M  V30 12590 H 1193.8 -0.578202 0.340475 0
M  V30 12591 H 1196.34 -1.34939 1.53661 0
M  V30 12592 H 1194.5 -3.75908 0.936587 0
M  V30 12593 H 1194.91 -4.23135 3.0993 0
M  V30 12594 H 1196.38 -5.24465 1.72163 0
M  V30 12595 H 1196.86 -4.38431 0.259773 0
M  V30 12596 H 1197.47 -3.8348 1.83911 0
M  V30 12597 O 1195.82 -1.08537 -1.19591 0
M  V30 12598 H 1196.51 -0.777393 -1.77416 0
M  V30 END ATOM
M  V30 BEGIN BOND
M  V30 END BOND
M  V30 END CTAB
M  END
$$$$
