drugbank_target|P23141 Liver carboxylesterase 1 (DB00382; DB00454; DB00583; DB00647; DB00907; DB01183; DB01452; DB01599; DB02161; DB02659; DB03056; DB03721; DB04795; DB04838; DB06442; DB07821; DB08224)
 OpenBabel12092120243D

  0  0  0     0  0            999 V3000
M  V30 BEGIN CTAB
M  V30 COUNTS 8825 8941 0 0 0
M  V30 BEGIN ATOM
M  V30 1 H -0.908 1.98254 -0.117106 0
M  V30 2 N 0 1.576 0 0
M  V30 3 C 0.933 2.03868 1.02534 0
M  V30 4 C 1.911 0.928543 1.3348 0
M  V30 5 O 3.095 1.19667 1.45644 0
M  V30 6 C 0.222 2.43627 2.35294 0
M  V30 7 C -0.732 3.65373 2.2001 0
M  V30 8 S 0.101 5.13292 1.52614 0
M  V30 9 C 1.257 5.56322 2.86805 0
M  V30 10 H 1.49 2.90518 0.631377 0
M  V30 11 H -0.977 1.52953 0.210867 0
M  V30 12 H 0.981 2.67203 3.11629 0
M  V30 13 H -0.358 1.57376 2.7183 0
M  V30 14 H -1.165 3.90944 3.18086 0
M  V30 15 H -1.563 3.418 1.51819 0
M  V30 16 H 0.729 5.58782 3.83104 0
M  V30 17 H 1.672 6.56266 2.65933 0
M  V30 18 H 2.08 4.83886 2.90714 0
M  V30 19 N 1.4781 -0.272755 1.55222 0
M  V30 20 C 2.7241 -1.00172 1.77023 0
M  V30 21 C 3.0791 -1.83928 0.564633 0
M  V30 22 O 2.3721 -1.86416 -0.442674 0
M  V30 23 C 2.5661 -1.91642 3.01675 0
M  V30 24 C 2.3951 -1.16888 4.34243 0
M  V30 25 C 1.1651 -0.884464 4.97499 0
M  V30 26 C 3.3631 -0.55919 5.11251 0
M  V30 27 N 1.3451 -0.11015 6.13801 0
M  V30 28 C 2.7161 0.0809469 6.19947 0
M  V30 29 C 4.7711 -0.467058 4.95705 0
M  V30 30 C 3.4741 0.804335 7.14789 0
M  V30 31 C 5.5001 0.242739 5.90902 0
M  V30 32 C 4.8621 0.871613 6.98987 0
M  V30 33 H 0.9611 -0.348529 0.700037 0
M  V30 34 H 3.5451 -0.277365 1.92714 0
M  V30 35 H 1.7161 -2.61303 2.87359 0
M  V30 36 H 3.4481 -2.57901 3.1188 0
M  V30 37 H 0.2031 -1.18979 4.58411 0
M  V30 38 H 0.6271 0.264344 6.76484 0
M  V30 39 H 5.2691 -0.93894 4.12242 0
M  V30 40 H 2.9871 1.2879 7.97771 0
M  V30 41 H 6.5731 0.314347 5.8095 0
M  V30 42 H 5.4531 1.4121 7.71381 0
M  V30 43 N 2.9562 -1.48159 -0.537278 0
M  V30 44 C 3.8862 -1.65029 -1.6519 0
M  V30 45 C 4.8672 -0.499281 -1.62607 0
M  V30 46 O 6.0522 -0.730972 -1.79918 0
M  V30 47 C 3.1822 -1.68303 -3.03795 0
M  V30 48 C 2.1362 -2.8283 -3.21234 0
M  V30 49 C 1.4622 -2.71189 -4.60826 0
M  V30 50 C 2.7622 -4.24211 -3.04701 0
M  V30 51 H 4.4562 -2.58341 -1.51328 0
M  V30 52 H 2.0022 -1.24325 -0.726585 0
M  V30 53 H 3.9552 -1.78693 -3.81637 0
M  V30 54 H 2.6792 -0.715635 -3.18663 0
M  V30 55 H 1.3382 -2.71983 -2.45807 0
M  V30 56 H 0.9862 -1.72435 -4.7252 0
M  V30 57 H 0.6862 -3.48035 -4.7344 0
M  V30 58 H 2.2102 -2.83537 -5.40777 0
M  V30 59 H 3.6242 -4.3593 -3.72341 0
M  V30 60 H 2.0212 -5.01998 -3.28813 0
M  V30 61 H 3.0912 -4.41184 -2.01209 0
M  V30 62 N 4.4343 0.785586 -1.36625 0
M  V30 63 C 5.8503 1.08419 -1.17122 0
M  V30 64 C 6.0503 2.015 0.00208491 0
M  V30 65 O 5.1063 2.43551 0.666278 0
M  V30 66 C 6.4193 1.69498 -2.48377 0
M  V30 67 C 7.9673 1.81821 -2.54775 0
M  V30 68 C 8.4423 2.46315 -3.86126 0
M  V30 69 N 9.9333 2.53779 -3.87492 0
M  V30 70 C 10.6683 3.045 -4.85868 0
M  V30 71 N 10.1643 3.55499 -5.94637 0
M  V30 72 N 11.9573 3.03247 -4.73284 0
M  V30 73 H 4.1083 0.167264 -2.1174 0
M  V30 74 H 6.3713 0.13682 -0.938075 0
M  V30 75 H 6.0773 1.08571 -3.34522 0
M  V30 76 H 5.9513 2.6896 -2.64462 0
M  V30 77 H 8.3383 2.41884 -1.69045 0
M  V30 78 H 8.4193 0.811532 -2.42586 0
M  V30 79 H 8.0633 1.86895 -4.72263 0
M  V30 80 H 7.9933 3.47561 -3.95612 0
M  V30 81 H 10.4843 2.17672 -3.08913 0
M  V30 82 H 10.7973 3.92562 -6.65669 0
M  V30 83 H 9.1423 3.5364 -5.98301 0
M  V30 84 H 12.3333 2.62696 -3.87438 0
M  V30 85 H 12.5063 3.42467 -5.50109 0
M  V30 86 N 5.9124 1.20967 1.01018 0
M  V30 87 C 6.8754 0.965918 2.07853 0
M  V30 88 C 7.8754 -0.0610545 1.60684 0
M  V30 89 O 9.0654 0.175681 1.73312 0
M  V30 90 C 6.1974 0.455513 3.37843 0
M  V30 91 H 7.3904 1.91365 2.3091 0
M  V30 92 H 4.9434 1.02594 1.17916 0
M  V30 93 H 5.6784 -0.497381 3.20463 0
M  V30 94 H 5.4634 1.19622 3.73407 0
M  V30 95 H 6.9534 0.304667 4.16487 0
M  V30 96 N 7.3905 -1.2043 1.01659 0
M  V30 97 C 8.6375 -1.89797 0.705917 0
M  V30 98 C 8.9655 -1.78848 -0.764439 0
M  V30 99 O 8.2205 -1.16694 -1.57102 0
M  V30 100 C 8.5195 -3.40464 1.08714 0
M  V30 101 C 8.1855 -3.71614 2.5537 0
M  V30 102 C 6.8475 -3.79826 2.95441 0
M  V30 103 C 9.1995 -3.85915 3.50313 0
M  V30 104 C 6.5275 -3.99797 4.29394 0
M  V30 105 C 8.8795 -4.07396 4.83954 0
M  V30 106 C 7.5435 -4.13837 5.23732 0
M  V30 107 H 6.8135 -0.694518 0.258313 0
M  V30 108 H 9.4605 -1.42691 1.27717 0
M  V30 109 H 7.7655 -3.89385 0.434309 0
M  V30 110 H 9.4625 -3.92433 0.824461 0
M  V30 111 H 6.0525 -3.65822 2.23321 0
M  V30 112 H 10.2365 -3.78926 3.20513 0
M  V30 113 H 5.4925 -4.03018 4.59768 0
M  V30 114 H 9.6665 -4.17404 5.57447 0
M  V30 115 H 7.2935 -4.29064 6.27541 0
M  V30 116 N 8.8686 -0.792821 -1.36206 0
M  V30 117 C 10.1176 -0.363353 -1.984 0
M  V30 118 C 10.4306 1.07172 -1.63626 0
M  V30 119 O 11.6366 1.60362 -2.19081 0
M  V30 120 C 10.0926 -0.59872 -3.54885 0
M  V30 121 C 9.7006 -2.04543 -3.9858 0
M  V30 122 C 11.4446 -0.233926 -4.23855 0
M  V30 123 C 9.3516 -2.22727 -5.47856 0
M  V30 124 H 8.2816 -0.13212 -0.742334 0
M  V30 125 H 10.9326 -0.974935 -1.55458 0
M  V30 126 H 9.3146 0.0826222 -3.95914 0
M  V30 127 H 10.4886 -2.76345 -3.68741 0
M  V30 128 H 8.8036 -2.36879 -3.42458 0
M  V30 129 H 11.4006 -0.348027 -5.33566 0
M  V30 130 H 11.7436 0.818351 -4.08177 0
M  V30 131 H 12.2766 -0.868639 -3.882 0
M  V30 132 H 9.0156 -3.2635 -5.68486 0
M  V30 133 H 8.5356 -1.55434 -5.7931 0
M  V30 134 H 10.2146 -2.03607 -6.14128 0
M  V30 135 N 10.3467 1.47872 -0.545128 0
M  V30 136 C 11.2767 2.32661 0.197793 0
M  V30 137 C 12.2577 1.43041 0.920504 0
M  V30 138 O 13.4427 1.71912 0.90333 0
M  V30 139 C 10.5727 3.24569 1.23582 0
M  V30 140 C 9.5267 4.23333 0.630323 0
M  V30 141 C 8.8527 5.0448 1.77211 0
M  V30 142 C 10.1527 5.20704 -0.407974 0
M  V30 143 H 11.8467 2.95024 -0.510045 0
M  V30 144 H 9.3927 1.4187 -0.246731 0
M  V30 145 H 11.3457 3.8272 1.76362 0
M  V30 146 H 10.0697 2.60236 1.97344 0
M  V30 147 H 8.7287 3.6639 0.123922 0
M  V30 148 H 8.3767 4.36561 2.49847 0
M  V30 149 H 8.0767 5.71339 1.37281 0
M  V30 150 H 9.6007 5.65487 2.3034 0
M  V30 151 H 11.0147 5.7329 0.033305 0
M  V30 152 H 9.4117 5.95699 -0.725486 0
M  V30 153 H 10.4817 4.66917 -1.30828 0
M  V30 154 N 11.8248 0.280983 1.55075 0
M  V30 155 C 12.7878 -0.590896 2.21452 0
M  V30 156 C 13.7878 -1.07682 1.19421 0
M  V30 157 O 14.9778 -0.97605 1.44288 0
M  V30 158 C 12.1098 -1.81587 2.88511 0
M  V30 159 H 13.3028 -0.0112554 2.99898 0
M  V30 160 H 10.8558 0.0316438 1.56268 0
M  V30 161 H 11.5908 -2.43587 2.14093 0
M  V30 162 H 11.3758 -1.4753 3.63287 0
M  V30 163 H 12.8658 -2.43575 3.39206 0
M  V30 164 N 13.3029 -1.57598 0.00835791 0
M  V30 165 C 14.5309 -1.95214 -0.68549 0
M  V30 166 C 14.9459 -0.883706 -1.66841 0
M  V30 167 O 14.3029 0.136565 -1.81988 0
M  V30 168 C 14.3539 -3.32865 -1.41007 0
M  V30 169 O 14.0749 -4.35609 -0.466552 0
M  V30 170 C 15.5759 -3.84991 -2.19765 0
M  V30 171 H 12.7959 -0.643422 -0.190392 0
M  V30 172 H 15.3399 -2.04406 0.0619607 0
M  V30 173 H 13.4949 -3.24956 -2.10908 0
M  V30 174 H 13.9089 -5.15288 -0.978699 0
M  V30 175 H 15.3829 -4.8371 -2.65948 0
M  V30 176 H 15.8599 -3.18137 -3.02796 0
M  V30 177 H 16.4659 -3.96103 -1.54864 0
M  V30 178 N 14.781 0.264519 -1.55364 0
M  V30 179 C 15.711 1.33121 -1.91836 0
M  V30 180 C 16.692 1.51101 -0.781192 0
M  V30 181 O 17.877 1.64003 -1.04003 0
M  V30 182 C 15.007 2.68921 -2.19769 0
M  V30 183 C 13.961 2.65661 -3.35571 0
M  V30 184 C 13.287 4.05093 -3.49004 0
M  V30 185 C 14.587 2.24187 -4.71739 0
M  V30 186 H 16.281 1.02844 -2.81182 0
M  V30 187 H 13.827 0.493286 -1.35287 0
M  V30 188 H 15.78 3.43663 -2.43872 0
M  V30 189 H 14.504 3.00799 -1.27231 0
M  V30 190 H 13.163 1.93377 -3.1145 0
M  V30 191 H 12.811 4.34206 -2.53917 0
M  V30 192 H 12.511 4.03804 -4.26868 0
M  V30 193 H 14.035 4.81561 -3.75408 0
M  V30 194 H 15.449 2.88654 -4.9533 0
M  V30 195 H 13.846 2.34044 -5.52579 0
M  V30 196 H 14.916 1.19327 -4.69988 0
M  V30 197 N 16.2591 1.48442 0.529413 0
M  V30 198 C 17.4841 1.60406 1.31471 0
M  V30 199 C 17.9091 0.264738 1.86228 0
M  V30 200 O 17.2671 -0.763668 1.64432 0
M  V30 201 C 17.3151 2.65419 2.44101 0
M  V30 202 O 16.4191 2.22618 3.47153 0
M  V30 203 H 15.7601 0.537863 0.389357 0
M  V30 204 H 18.2901 1.94432 0.636965 0
M  V30 205 H 18.3001 2.86709 2.90279 0
M  V30 206 H 16.9751 3.62652 2.03608 0
M  V30 207 H 15.5521 2.11543 3.0709 0
M  V30 208 N 17.7372 -0.778329 1.37039 0
M  V30 209 C 18.7002 -1.87301 1.32102 0
M  V30 210 C 19.7002 -1.59198 0.226405 0
M  V30 211 O 20.8902 -1.67403 0.481861 0
M  V30 212 C 18.0222 -3.24309 1.05055 0
M  V30 213 H 19.2152 -1.93093 2.29467 0
M  V30 214 H 16.7682 -0.977358 1.21973 0
M  V30 215 H 17.5032 -3.24196 0.0819373 0
M  V30 216 H 17.2882 -3.46098 1.84279 0
M  V30 217 H 18.7782 -4.04382 1.04234 0
M  V30 218 N 19.2153 -1.21501 -1.00376 0
M  V30 219 C 20.4403 -1.05977 -1.78279 0
M  V30 220 C 20.8653 0.385994 -1.84097 0
M  V30 221 O 20.2233 1.27849 -1.28547 0
M  V30 222 C 20.2713 -1.66302 -3.19963 0
M  V30 223 O 19.3753 -0.909333 -4.0225 0
M  V30 224 H 18.7163 -0.372906 -0.549397 0
M  V30 225 H 21.2463 -1.6107 -1.26165 0
M  V30 226 H 21.2563 -1.70574 -3.70632 0
M  V30 227 H 19.9313 -2.71515 -3.15043 0
M  V30 228 H 18.5083 -0.941795 -3.60811 0
M  V30 229 N 20.6934 1.19889 -1.02296 0
M  V30 230 C 21.6564 2.21116 -0.603351 0
M  V30 231 C 22.6564 1.5738 0.329884 0
M  V30 232 O 23.8464 1.73802 0.117702 0
M  V30 233 C 20.9784 3.40696 0.117992 0
M  V30 234 H 22.1714 2.59754 -1.49893 0
M  V30 235 H 19.7244 1.33463 -0.813468 0
M  V30 236 H 20.4594 3.07569 1.0282 0
M  V30 237 H 20.2444 3.88188 -0.552511 0
M  V30 238 H 21.7344 4.15692 0.398696 0
M  V30 239 N 22.1715 0.800033 1.35784 0
M  V30 240 C 23.1345 0.211565 2.28221 0
M  V30 241 C 24.1345 -0.59728 1.49296 0
M  V30 242 O 25.3245 -0.416721 1.69142 0
M  V30 243 C 22.4565 -0.705846 3.33513 0
M  V30 244 H 23.6495 1.02677 2.81776 0
M  V30 245 H 21.2025 0.570211 1.45528 0
M  V30 246 H 21.9375 -1.54498 2.85133 0
M  V30 247 H 21.7225 -0.127655 3.91892 0
M  V30 248 H 23.2125 -1.11211 4.02519 0
M  V30 249 N 23.6496 -1.47581 0.552962 0
M  V30 250 C 24.8956 -2.03369 0.0355807 0
M  V30 251 C 25.2506 -1.42016 -1.29805 0
M  V30 252 O 24.5436 -0.564917 -1.83083 0
M  V30 253 C 24.7376 -3.57199 -0.119728 0
M  V30 254 C 24.5666 -4.33468 1.1973 0
M  V30 255 C 23.3366 -4.7353 1.76345 0
M  V30 256 C 25.5346 -4.68866 2.11351 0
M  V30 257 N 23.5166 -5.34426 3.02097 0
M  V30 258 C 24.8876 -5.3002 3.21681 0
M  V30 259 C 26.9426 -4.50795 2.11397 0
M  V30 260 C 25.6456 -5.75011 4.32151 0
M  V30 261 C 27.6716 -4.96782 3.20876 0
M  V30 262 C 27.0336 -5.57981 4.29926 0
M  V30 263 H 23.1326 -0.780058 0.0550806 0
M  V30 264 H 25.7166 -1.80117 0.739315 0
M  V30 265 H 23.8876 -3.80227 -0.792579 0
M  V30 266 H 25.6196 -3.99627 -0.638792 0
M  V30 267 H 22.3746 -4.55352 1.30196 0
M  V30 268 H 22.7986 -5.69421 3.66182 0
M  V30 269 H 27.4406 -4.0284 1.28372 0
M  V30 270 H 25.1586 -6.21959 5.15938 0
M  V30 271 H 28.7446 -4.84573 3.21994 0
M  V30 272 H 27.6246 -5.92918 5.13243 0
M  V30 273 N 25.1277 -0.289203 -1.54924 0
M  V30 274 C 26.3757 0.322879 -1.99504 0
M  V30 275 C 26.6967 1.55313 -1.1791 0
M  V30 276 O 25.9667 1.94001 -0.272097 0
M  V30 277 H 24.5467 0.122291 -0.736922 0
M  V30 278 H 27.2087 -0.397802 -1.90797 0
M  V30 279 H 26.3047 0.603061 -3.06218 0
M  V30 280 N 26.6058 1.57591 -0.0167156 0
M  V30 281 C 27.5558 2.05953 0.978137 0
M  V30 282 C 28.5398 0.957532 1.29306 0
M  V30 283 O 29.7318 1.22119 1.28125 0
M  V30 284 C 26.8608 2.58006 2.26468 0
M  V30 285 C 25.9468 3.75113 1.97867 0
M  V30 286 N 26.3378 4.86187 1.39486 0
M  V30 287 C 24.6358 3.83363 2.27924 0
M  V30 288 C 25.3368 5.67502 1.27735 0
M  V30 289 N 24.3128 5.14023 1.76866 0
M  V30 290 H 28.1148 2.89236 0.521522 0
M  V30 291 H 25.6288 1.61301 0.188596 0
M  V30 292 H 27.6258 2.90937 2.98599 0
M  V30 293 H 26.2858 1.76148 2.72767 0
M  V30 294 H 27.2968 5.06695 1.07147 0
M  V30 295 H 23.9738 3.1239 2.76982 0
M  V30 296 H 25.3638 6.66791 0.826978 0
M  V30 297 N 28.0839 -0.256276 1.55502 0
M  V30 298 C 29.4949 -0.826068 1.67431 0
M  V30 299 C 29.8459 -1.86396 0.612446 0
M  V30 300 O 28.9709 -2.15031 -0.243025 0
M  V30 301 C 29.5659 -1.50512 3.03532 0
M  V30 302 C 28.1249 -2.02273 3.17431 0
M  V30 303 C 27.2719 -0.870548 2.63281 0
M  V30 304 H 30.2229 -0.0322728 1.58667 0
M  V30 305 H 30.2439 -2.37279 2.97454 0
M  V30 306 H 29.7559 -0.749484 3.80794 0
M  V30 307 H 27.8569 -2.80746 2.44974 0
M  V30 308 H 27.9699 -2.22655 4.24219 0
M  V30 309 H 26.3339 -1.26851 2.20864 0
M  V30 310 H 27.1169 -0.128149 3.43061 0
M  V30 311 N 29.562 -1.4872 -0.521534 0
M  V30 312 C 30.787 -1.61101 -1.30618 0
M  V30 313 C 31.212 -0.274611 -1.86085 0
M  V30 314 O 30.57 0.754937 -1.64834 0
M  V30 315 C 30.618 -2.66709 -2.4269 0
M  V30 316 O 29.722 -2.24456 -3.45967 0
M  V30 317 H 29.063 -0.539921 -0.386499 0
M  V30 318 H 31.593 -1.94767 -0.626645 0
M  V30 319 H 31.603 -2.88245 -2.88754 0
M  V30 320 H 30.278 -3.63727 -2.01682 0
M  V30 321 H 28.855 -2.13168 -3.05964 0
M  V30 322 N 31.0401 0.771051 -1.3745 0
M  V30 323 C 32.2651 1.56529 -1.36065 0
M  V30 324 C 32.6901 1.88029 0.0515859 0
M  V30 325 O 32.0481 1.49282 1.02882 0
M  V30 326 C 32.0961 2.85187 -2.20683 0
M  V30 327 O 31.2001 3.79593 -1.61193 0
M  V30 328 H 30.5411 0.47411 -0.464883 0
M  V30 329 H 33.0711 0.954269 -1.80983 0
M  V30 330 H 33.0811 3.34283 -2.33921 0
M  V30 331 H 31.7561 2.61588 -3.23334 0
M  V30 332 H 30.3331 3.38239 -1.56999 0
M  V30 333 N 32.5182 1.22032 0.997298 0
M  V30 334 C 33.9292 1.0397 1.55071 0
M  V30 335 C 34.2802 -0.398192 1.92117 0
M  V30 336 O 33.4052 -1.28254 1.74298 0
M  V30 337 C 34.0002 1.88109 2.81781 0
M  V30 338 C 32.5592 1.74357 3.33581 0
M  V30 339 C 31.7062 1.84846 2.06706 0
M  V30 340 H 34.6572 1.35941 0.818883 0
M  V30 341 H 34.6782 1.39589 3.53971 0
M  V30 342 H 34.1902 2.92754 2.54787 0
M  V30 343 H 32.2912 0.72427 3.65493 0
M  V30 344 H 32.4042 2.56772 4.04481 0
M  V30 345 H 30.7682 1.28238 2.20062 0
M  V30 346 H 31.5512 2.91014 1.82114 0
M  V30 347 N 33.9963 -1.19345 1.0293 0
M  V30 348 C 35.4073 -1.70725 0.755633 0
M  V30 349 C 35.7583 -1.82326 -0.724676 0
M  V30 350 O 34.8833 -1.49471 -1.56484 0
M  V30 351 C 35.4783 -3.10084 1.36503 0
M  V30 352 C 34.0373 -3.58723 1.13994 0
M  V30 353 C 33.1843 -2.35577 1.46283 0
M  V30 354 H 36.1353 -1.0418 1.19718 0
M  V30 355 H 36.1563 -3.72787 0.762217 0
M  V30 356 H 35.6683 -3.01609 2.44241 0
M  V30 357 H 33.7693 -3.72512 0.0807901 0
M  V30 358 H 33.8823 -4.42816 1.82894 0
M  V30 359 H 32.2463 -2.38935 0.88217 0
M  V30 360 H 33.0293 -2.29731 2.55105 0
M  V30 361 N 35.4744 -0.807222 -1.35358 0
M  V30 362 C 36.7204 -0.388463 -1.99045 0
M  V30 363 C 37.0534 1.04184 -1.63888 0
M  V30 364 O 36.3284 1.72292 -0.902535 0
M  V30 365 C 36.6114 -0.572783 -3.55515 0
M  V30 366 C 36.4644 -2.04807 -4.00468 0
M  V30 367 C 37.7834 0.00114064 -4.401 0
M  V30 368 H 34.9024 -0.142619 -0.723069 0
M  V30 369 H 37.5444 -1.01687 -1.60498 0
M  V30 370 H 35.6944 -0.0378425 -3.88482 0
M  V30 371 H 37.3664 -2.64544 -3.77908 0
M  V30 372 H 35.6094 -2.54427 -3.51353 0
M  V30 373 H 36.2804 -2.12792 -5.09337 0
M  V30 374 H 38.7564 -0.455716 -4.13597 0
M  V30 375 H 37.6324 -0.157737 -5.48673 0
M  V30 376 H 37.8934 1.09488 -4.28328 0
M  V30 377 N 36.9525 1.47285 -0.560781 0
M  V30 378 C 38.1985 2.02764 -0.0381184 0
M  V30 379 C 38.5315 1.43384 1.30976 0
M  V30 380 O 37.8065 0.590733 1.85312 0
M  V30 381 C 38.0895 3.60064 0.0511427 0
M  V30 382 C 37.9425 4.2987 -1.32408 0
M  V30 383 C 39.2615 4.33439 0.762795 0
M  V30 384 H 36.3805 0.736841 -0.0153264 0
M  V30 385 H 39.0225 1.75675 -0.723759 0
M  V30 386 H 37.1725 3.83274 0.635065 0
M  V30 387 H 38.8445 4.17989 -1.95148 0
M  V30 388 H 37.0875 3.90085 -1.8978 0
M  V30 389 H 37.7585 5.38478 -1.21431 0
M  V30 390 H 40.2345 4.15243 0.266965 0
M  V30 391 H 39.1105 5.43124 0.794221 0
M  V30 392 H 39.3715 4.02915 1.81966 0
M  V30 393 N 38.4306 0.297415 1.54768 0
M  V30 394 C 39.7076 -0.365847 1.92148 0
M  V30 395 C 40.0876 -1.71975 1.22424 0
M  V30 396 O 39.4356 -2.25666 0.358739 0
M  V30 397 C 39.6456 -0.484056 3.45627 0
M  V30 398 C 40.9936 -0.756594 4.17805 0
M  V30 399 O 42.0176 -0.568007 3.51642 0
M  V30 400 O 40.8766 -1.11863 5.34929 0
M  V30 401 H 37.9706 -0.203919 0.801465 0
M  V30 402 H 40.5166 0.34521 1.66152 0
M  V30 403 H 39.2886 0.467865 3.88493 0
M  V30 404 H 38.9116 -1.24372 3.77647 0
M  V30 405 N 39.9087 -1.5758 0.0250728 0
M  V30 406 C 41.1367 -1.9593 -0.664747 0
M  V30 407 C 41.5517 -0.901352 -1.65895 0
M  V30 408 O 40.9087 0.117255 -1.82123 0
M  V30 409 C 40.9597 -3.34342 -1.37468 0
M  V30 410 O 40.6807 -4.36079 -0.420324 0
M  V30 411 C 42.1817 -3.873 -2.1567 0
M  V30 412 H 39.4017 -0.645405 -0.183557 0
M  V30 413 H 41.9457 -2.04329 0.0836372 0
M  V30 414 H 40.1007 -3.27175 -2.0745 0
M  V30 415 H 40.5147 -5.16297 -0.923991 0
M  V30 416 H 41.9887 -4.86504 -2.60803 0
M  V30 417 H 42.4657 -3.21331 -2.99405 0
M  V30 418 H 43.0717 -3.97723 -1.50654 0
M  V30 419 N 41.3868 0.248026 -1.55636 0
M  V30 420 C 42.6328 0.97767 -1.77678 0
M  V30 421 C 42.9658 1.85016 -0.590135 0
M  V30 422 O 42.2408 1.90095 0.411611 0
M  V30 423 C 42.5238 1.83914 -3.09593 0
M  V30 424 C 42.3768 0.99491 -4.38659 0
M  V30 425 C 43.6958 2.82183 -3.37729 0
M  V30 426 H 40.8148 0.354005 -0.646413 0
M  V30 427 H 43.4568 0.248253 -1.88371 0
M  V30 428 H 41.6068 2.46104 -3.00608 0
M  V30 429 H 43.2788 0.391789 -4.59633 0
M  V30 430 H 41.5218 0.299231 -4.32767 0
M  V30 431 H 42.1928 1.63145 -5.2734 0
M  V30 432 H 44.6688 2.30129 -3.4667 0
M  V30 433 H 43.5448 3.39582 -4.31249 0
M  V30 434 H 43.8058 3.58588 -2.58586 0
M  V30 435 N 42.8649 1.48995 0.513639 0
M  V30 436 C 43.8149 1.61127 1.61314 0
M  V30 437 C 44.7989 0.467521 1.53958 0
M  V30 438 O 45.9909 0.719826 1.61702 0
M  V30 439 C 43.1199 1.66937 2.99978 0
M  V30 440 C 42.2059 2.86847 3.12377 0
M  V30 441 N 42.5969 4.11078 2.94701 0
M  V30 442 C 40.8949 2.84521 3.43459 0
M  V30 443 C 41.5959 4.91615 3.10949 0
M  V30 444 N 40.5719 4.24739 3.3926 0
M  V30 445 H 44.3739 2.54909 1.46282 0
M  V30 446 H 41.8879 1.45593 0.719483 0
M  V30 447 H 43.8849 1.73725 3.78979 0
M  V30 448 H 42.5449 0.742831 3.16089 0
M  V30 449 H 43.5559 4.41258 2.71131 0
M  V30 450 H 40.2329 2.01192 3.65825 0
M  V30 451 H 41.6229 6.00264 3.01882 0
M  V30 452 N 44.343 -0.763751 1.37857 0
M  V30 453 C 45.591 -1.51957 1.33243 0
M  V30 454 C 45.912 -1.94835 -0.0801709 0
M  V30 455 O 45.182 -1.66894 -1.02582 0
M  V30 456 H 43.762 -0.563626 0.49024 0
M  V30 457 H 46.424 -0.908504 1.7243 0
M  V30 458 H 45.52 -2.41523 1.97669 0
M  V30 459 N 45.8211 -1.22559 -0.990812 0
M  V30 460 C 46.7681 -0.997519 -2.0813 0
M  V30 461 C 47.7381 0.0814702 -1.659 0
M  V30 462 O 48.9231 -0.0685424 -1.90677 0
M  V30 463 C 46.0631 -0.583615 -3.40129 0
M  V30 464 C 45.1761 -1.7336 -3.9569 0
M  V30 465 C 44.3111 -1.26748 -5.15857 0
M  V30 466 C 43.3501 -2.38888 -5.63559 0
M  V30 467 N 42.4871 -1.93308 -6.74964 0
M  V30 468 H 47.3271 -1.93099 -2.26973 0
M  V30 469 H 44.8641 -0.962114 -1.11273 0
M  V30 470 H 46.8221 -0.324801 -4.15934 0
M  V30 471 H 45.4521 0.312845 -3.2128 0
M  V30 472 H 44.5041 -2.10669 -3.16738 0
M  V30 473 H 45.8161 -2.57704 -4.27071 0
M  V30 474 H 44.9701 -0.966173 -5.98957 0
M  V30 475 H 43.7091 -0.394272 -4.86104 0
M  V30 476 H 42.7141 -2.69805 -4.79046 0
M  V30 477 H 43.9391 -3.26728 -5.95336 0
M  V30 478 H 41.8851 -1.08352 -6.4699 0
M  V30 479 H 41.8021 -2.71217 -7.05675 0
M  V30 480 H 43.0701 -1.66252 -7.61564 0
M  V30 481 N 47.2992 1.18797 -1.03562 0
M  V30 482 C 48.5452 1.8893 -0.737113 0
M  V30 483 C 48.8782 1.79837 0.732956 0
M  V30 484 O 48.1532 1.19525 1.5344 0
M  V30 485 C 48.4362 3.39607 -1.19745 0
M  V30 486 C 48.2892 3.57537 -2.72924 0
M  V30 487 C 49.6082 4.33069 -0.783526 0
M  V30 488 H 46.7272 0.686057 -0.269249 0
M  V30 489 H 49.3692 1.39797 -1.28673 0
M  V30 490 H 47.5192 3.81583 -0.729855 0
M  V30 491 H 49.1912 3.24688 -3.27682 0
M  V30 492 H 47.4342 3.00363 -3.12993 0
M  V30 493 H 48.1052 4.63238 -3.00191 0
M  V30 494 H 50.5812 3.98846 -1.18581 0
M  V30 495 H 49.4572 5.3707 -1.13343 0
M  V30 496 H 49.7182 4.40986 0.313681 0
M  V30 497 N 48.7773 0.814389 1.34928 0
M  V30 498 C 49.7073 0.244827 2.32213 0
M  V30 499 C 50.6883 -0.634024 1.57842 0
M  V30 500 O 51.8733 -0.562676 1.8587 0
M  V30 501 C 49.0033 -0.601106 3.42058 0
M  V30 502 C 47.9573 0.179896 4.27622 0
M  V30 503 C 47.2833 -0.788237 5.28858 0
M  V30 504 C 48.5833 1.38329 5.03649 0
M  V30 505 H 50.2773 1.05763 2.80097 0
M  V30 506 H 47.8233 0.510029 1.34665 0
M  V30 507 H 49.7763 -1.00968 4.09125 0
M  V30 508 H 48.5003 -1.44688 2.92802 0
M  V30 509 H 47.1593 0.569739 3.62146 0
M  V30 510 H 46.8073 -1.62973 4.75866 0
M  V30 511 H 46.5073 -0.269942 5.8698 0
M  V30 512 H 48.0313 -1.19485 5.98795 0
M  V30 513 H 49.4453 1.04918 5.63618 0
M  V30 514 H 47.8423 1.83662 5.71304 0
M  V30 515 H 48.9123 2.16592 4.33839 0
M  V30 516 N 50.2554 -1.46986 0.568584 0
M  V30 517 C 51.5034 -2.02041 0.0487022 0
M  V30 518 C 51.8244 -1.44408 -1.31039 0
M  V30 519 O 51.0944 -0.623477 -1.85714 0
M  V30 520 H 49.6744 -0.746849 0.015014 0
M  V30 521 H 52.3364 -1.80257 0.741168 0
M  V30 522 H 51.4324 -3.12085 -0.0308961 0
M  V30 523 N 51.7335 -0.305618 -1.54608 0
M  V30 524 C 52.6805 0.568421 -2.23691 0
M  V30 525 C 53.6505 1.12592 -1.22116 0
M  V30 526 O 54.8355 1.16959 -1.50749 0
M  V30 527 C 51.9755 1.7322 -2.98477 0
M  V30 528 C 51.0885 1.20566 -4.14835 0
M  V30 529 C 50.2235 2.33368 -4.77193 0
M  V30 530 C 49.2625 1.7787 -5.85686 0
M  V30 531 N 48.3995 2.84263 -6.4198 0
M  V30 532 H 53.2395 -0.0272867 -2.97988 0
M  V30 533 H 50.7765 -0.0252363 -1.47078 0
M  V30 534 H 52.7345 2.41675 -3.40072 0
M  V30 535 H 51.3645 2.29947 -2.26548 0
M  V30 536 H 50.4165 0.413223 -3.78149 0
M  V30 537 H 51.7285 0.759417 -4.92985 0
M  V30 538 H 50.8825 3.09761 -5.21664 0
M  V30 539 H 49.6215 2.8132 -3.98385 0
M  V30 540 H 48.6265 0.99968 -5.40635 0
M  V30 541 H 49.8515 1.30816 -6.66381 0
M  V30 542 H 47.7975 3.31541 -5.66053 0
M  V30 543 H 47.7145 2.44149 -7.15491 0
M  V30 544 H 48.9825 3.6054 -6.91109 0
M  V30 545 N 53.2116 1.57565 -0.0334293 0
M  V30 546 C 54.4586 1.91978 0.644272 0
M  V30 547 C 54.7866 0.910231 1.71887 0
M  V30 548 O 54.0416 -0.0801961 1.95536 0
M  V30 549 C 54.3406 3.33112 1.29504 0
M  V30 550 C 54.0066 4.49537 0.350388 0
M  V30 551 C 52.6686 4.81115 0.0903974 0
M  V30 552 C 55.0206 5.20347 -0.298032 0
M  V30 553 C 52.3486 5.8086 -0.825746 0
M  V30 554 C 54.7006 6.2107 -1.20226 0
M  V30 555 C 53.3646 6.51088 -1.4711 0
M  V30 556 H 52.6346 0.702496 0.235756 0
M  V30 557 H 55.2816 1.91259 -0.0961176 0
M  V30 558 H 53.5866 3.30113 2.11028 0
M  V30 559 H 55.2836 3.57011 1.82603 0
M  V30 560 H 51.8736 4.24883 0.563205 0
M  V30 561 H 56.0576 4.96178 -0.110234 0
M  V30 562 H 51.3136 6.02461 -1.04169 0
M  V30 563 H 55.4876 6.75057 -1.71086 0
M  V30 564 H 53.1146 7.28193 -2.18264 0
M  V30 565 N 54.6897 -0.239769 1.55765 0
M  V30 566 C 55.9357 -0.968234 1.78194 0
M  V30 567 C 56.2687 -1.84701 0.599938 0
M  V30 568 O 55.5437 -1.9031 -0.401524 0
M  V30 569 C 55.8267 -1.8227 3.10564 0
M  V30 570 C 55.6797 -0.971633 4.3918 0
M  V30 571 C 56.9987 -2.80388 3.39221 0
M  V30 572 H 54.1177 -0.350572 0.648281 0
M  V30 573 H 56.7597 -0.238259 1.885 0
M  V30 574 H 54.9097 -2.44507 3.01908 0
M  V30 575 H 56.5817 -0.367408 4.59835 0
M  V30 576 H 54.8247 -0.276276 4.32919 0
M  V30 577 H 55.4957 -1.60346 5.28198 0
M  V30 578 H 57.9717 -2.28287 3.47885 0
M  V30 579 H 56.8477 -3.3729 4.33044 0
M  V30 580 H 57.1087 -3.57212 2.60484 0
M  V30 581 N 56.1678 -1.49265 -0.50573 0
M  V30 582 C 57.3928 -1.62478 -1.28902 0
M  V30 583 C 57.8178 -0.294332 -1.85783 0
M  V30 584 O 57.1758 0.737412 -1.65626 0
M  V30 585 C 57.2238 -2.69268 -2.39848 0
M  V30 586 O 56.3278 -2.28113 -3.43567 0
M  V30 587 H 55.6688 -0.54399 -0.380751 0
M  V30 588 H 58.1988 -1.95421 -0.605952 0
M  V30 589 H 58.2088 -2.91291 -2.85681 0
M  V30 590 H 56.8838 -3.65846 -1.97812 0
M  V30 591 H 55.4608 -2.16401 -3.03685 0
M  V30 592 N 57.6459 0.756429 -1.3826 0
M  V30 593 C 58.5759 1.88374 -1.37976 0
M  V30 594 C 59.5569 1.68311 -0.246082 0
M  V30 595 O 60.7419 1.88944 -0.44874 0
M  V30 596 C 57.8719 3.25864 -1.20125 0
M  V30 597 C 56.8259 3.60523 -2.30666 0
M  V30 598 C 56.1519 4.9672 -1.97923 0
M  V30 599 C 57.4519 3.65692 -3.72916 0
M  V30 600 H 59.1459 1.88869 -2.32312 0
M  V30 601 H 56.6919 0.907272 -1.11824 0
M  V30 602 H 58.6449 4.0438 -1.18552 0
M  V30 603 H 57.3689 3.25841 -0.222498 0
M  V30 604 H 56.0279 2.84324 -2.3142 0
M  V30 605 H 55.6759 4.93253 -0.985393 0
M  V30 606 H 55.3759 5.20878 -2.71955 0
M  V30 607 H 56.8999 5.77618 -1.97964 0
M  V30 608 H 58.3139 4.34328 -3.74208 0
M  V30 609 H 56.7109 4.01358 -4.4613 0
M  V30 610 H 57.7809 2.65987 -4.05436 0
M  V30 611 N 59.124 1.23083 0.984299 0
M  V30 612 C 60.034 1.02515 2.11016 0
M  V30 613 C 61.05 -0.0291702 1.73976 0
M  V30 614 O 62.226 0.165434 2.00719 0
M  V30 615 C 59.291 0.614673 3.41208 0
M  V30 616 C 58.352 1.74359 3.92297 0
M  V30 617 C 57.585 1.35261 5.16275 0
M  V30 618 O 57.808 0.235136 5.69915 0
M  V30 619 O 56.742 2.17227 5.61334 0
M  V30 620 H 60.568 1.96862 2.31255 0
M  V30 621 H 58.153 1.01753 1.09392 0
M  V30 622 H 60.035 0.396518 4.1953 0
M  V30 623 H 58.71 -0.299851 3.22308 0
M  V30 624 H 57.617 2.01635 3.1511 0
M  V30 625 H 58.95 2.63629 4.15645 0
M  V30 626 N 60.6021 -1.18246 1.0419 0
M  V30 627 C 61.8501 -1.87886 0.744543 0
M  V30 628 C 62.1711 -1.8082 -0.730006 0
M  V30 629 O 61.4411 -1.22736 -1.52685 0
M  V30 630 H 60.0211 -0.695556 0.272417 0
M  V30 631 H 62.6831 -1.43494 1.31892 0
M  V30 632 H 61.7791 -2.9389 1.05049 0
M  V30 633 N 62.0802 -0.821533 -1.34494 0
M  V30 634 C 63.3272 -0.408946 -1.98328 0
M  V30 635 C 63.6552 1.02764 -1.65136 0
M  V30 636 O 62.9102 1.73026 -0.914349 0
M  V30 637 C 63.2092 -0.556512 -3.53041 0
M  V30 638 C 62.8752 -1.95861 -4.0614 0
M  V30 639 C 61.5372 -2.34217 -4.20352 0
M  V30 640 C 63.8892 -2.87523 -4.34718 0
M  V30 641 C 61.2172 -3.63572 -4.6047 0
M  V30 642 C 63.5692 -4.1634 -4.76281 0
M  V30 643 C 62.2332 -4.54675 -4.88699 0
M  V30 644 H 61.5032 -0.149644 -0.725732 0
M  V30 645 H 64.1502 -1.04521 -1.6046 0
M  V30 646 H 62.4552 0.163148 -3.9146 0
M  V30 647 H 64.1522 -0.217826 -4.00408 0
M  V30 648 H 60.7422 -1.65066 -3.95539 0
M  V30 649 H 64.9262 -2.59133 -4.23277 0
M  V30 650 H 60.1822 -3.93101 -4.68275 0
M  V30 651 H 64.3562 -4.87455 -4.97354 0
M  V30 652 H 61.9832 -5.54959 -5.19542 0
M  V30 653 N 63.5583 1.46682 -0.576371 0
M  V30 654 C 64.5213 2.28707 0.150239 0
M  V30 655 C 65.5213 1.38035 0.824794 0
M  V30 656 O 66.7113 1.60476 0.677719 0
M  V30 657 C 63.8433 3.18248 1.22192 0
M  V30 658 H 65.0363 2.94423 -0.570521 0
M  V30 659 H 62.5893 1.52688 -0.334078 0
M  V30 660 H 63.3243 2.57265 1.97447 0
M  V30 661 H 63.1093 3.85 0.742812 0
M  V30 662 H 64.5993 3.80001 1.73172 0
M  V30 663 N 65.0364 0.313813 1.54444 0
M  V30 664 C 65.9684 -0.590425 2.21465 0
M  V30 665 C 66.9814 -1.08753 1.21147 0
M  V30 666 O 68.1704 -1.00278 1.4767 0
M  V30 667 C 65.2704 -1.82179 2.85769 0
M  V30 668 C 64.4434 -1.46502 4.12136 0
M  V30 669 C 63.5024 -2.55288 4.60124 0
M  V30 670 O 62.5284 -2.19842 5.25032 0
M  V30 671 N 63.7304 -3.86053 4.33525 0
M  V30 672 H 66.4954 -0.0166033 2.99695 0
M  V30 673 H 64.0564 0.136578 1.61323 0
M  V30 674 H 66.0484 -2.54328 3.14801 0
M  V30 675 H 64.6184 -2.30369 2.11303 0
M  V30 676 H 63.8384 -0.575595 3.89975 0
M  V30 677 H 65.1264 -1.20221 4.94393 0
M  V30 678 H 64.5244 -4.17654 3.81552 0
M  V30 679 H 63.0814 -4.54461 4.67235 0
M  V30 680 N 66.5145 -1.57545 0.0417849 0
M  V30 681 C 67.9255 -1.80011 -0.495259 0
M  V30 682 C 68.2765 -0.953199 -1.71489 0
M  V30 683 O 67.4015 -0.167138 -2.15754 0
M  V30 684 C 67.9965 -3.26482 -0.905265 0
M  V30 685 C 66.5555 -3.499 -1.38734 0
M  V30 686 C 65.7025 -2.74979 -0.358056 0
M  V30 687 H 68.6535 -1.56425 0.267736 0
M  V30 688 H 68.6745 -3.36887 -1.76882 0
M  V30 689 H 68.1865 -3.88096 -0.017401 0
M  V30 690 H 66.2875 -2.93553 -2.29471 0
M  V30 691 H 66.4005 -4.58615 -1.38598 0
M  V30 692 H 64.7645 -2.40834 -0.828912 0
M  V30 693 H 65.5475 -3.39315 0.521561 0
M  V30 694 N 67.9926 0.231505 -1.5589 0
M  V30 695 C 69.2386 0.95877 -1.78705 0
M  V30 696 C 69.5716 1.8438 -0.609725 0
M  V30 697 O 68.8466 1.90521 0.391426 0
M  V30 698 C 69.1296 1.8062 -3.11526 0
M  V30 699 C 68.9826 0.948328 -4.39689 0
M  V30 700 C 70.3016 2.78585 -3.40703 0
M  V30 701 H 67.4206 0.347129 -0.650131 0
M  V30 702 H 70.0626 0.228259 -1.88624 0
M  V30 703 H 68.2126 2.42902 -3.03201 0
M  V30 704 H 69.8846 0.343016 -4.60023 0
M  V30 705 H 68.1276 0.253314 -4.3306 0
M  V30 706 H 68.7986 1.57543 -5.29041 0
M  V30 707 H 71.2746 2.26439 -3.49091 0
M  V30 708 H 70.1506 3.34988 -4.34826 0
M  V30 709 H 70.4116 3.55825 -2.62375 0
M  V30 710 N 69.4707 1.49531 0.497807 0
M  V30 711 C 70.4337 1.65916 1.58128 0
M  V30 712 C 71.4337 0.530825 1.51786 0
M  V30 713 O 72.6237 0.797342 1.54881 0
M  V30 714 C 69.7557 1.65951 2.9778 0
M  V30 715 H 70.9487 2.62556 1.44929 0
M  V30 716 H 68.5017 1.38611 0.722275 0
M  V30 717 H 69.2367 0.709065 3.16453 0
M  V30 718 H 69.0217 2.47897 3.03792 0
M  V30 719 H 70.5117 1.80673 3.76493 0
M  V30 720 N 70.9488 -0.749086 1.3866 0
M  V30 721 C 72.1978 -1.50371 1.3443 0
M  V30 722 C 72.5108 -1.95503 -0.0616397 0
M  V30 723 O 73.7168 -2.70554 -0.226489 0
M  V30 724 C 72.1728 -2.71644 2.36088 0
M  V30 725 C 71.7808 -2.3352 3.82325 0
M  V30 726 C 73.5248 -3.49518 2.40909 0
M  V30 727 C 71.4318 -3.51431 4.75658 0
M  V30 728 H 70.3618 -0.564628 0.499712 0
M  V30 729 H 73.0128 -0.818449 1.64237 0
M  V30 730 H 71.3948 -3.42175 1.9933 0
M  V30 731 H 72.5688 -1.70627 4.28046 0
M  V30 732 H 70.8838 -1.6877 3.80665 0
M  V30 733 H 73.4808 -4.37197 3.07836 0
M  V30 734 H 73.8238 -3.90992 1.42937 0
M  V30 735 H 74.3568 -2.86005 2.76489 0
M  V30 736 H 71.0958 -3.15019 5.74842 0
M  V30 737 H 70.6158 -4.13352 4.34627 0
M  V30 738 H 72.2948 -4.17953 4.93887 0
M  V30 739 N 72.4269 -1.23603 -0.977757 0
M  V30 740 C 73.6739 -1.06971 -1.71941 0
M  V30 741 C 74.0019 0.393009 -1.90488 0
M  V30 742 O 73.2569 1.30719 -1.4564 0
M  V30 743 C 73.5559 -1.7433 -3.11999 0
M  V30 744 C 73.2219 -3.24252 -3.13323 0
M  V30 745 C 71.8839 -3.65156 -3.13392 0
M  V30 746 C 74.2359 -4.20141 -3.08433 0
M  V30 747 C 71.5639 -5.00403 -3.0629 0
M  V30 748 C 73.9159 -5.55384 -3.02873 0
M  V30 749 C 72.5799 -5.95647 -3.01265 0
M  V30 750 H 71.8499 -0.391433 -0.629175 0
M  V30 751 H 74.4969 -1.53572 -1.14403 0
M  V30 752 H 72.8019 -1.20096 -3.7294 0
M  V30 753 H 74.4989 -1.58936 -3.68158 0
M  V30 754 H 71.0889 -2.91692 -3.14029 0
M  V30 755 H 75.2729 -3.89547 -3.07517 0
M  V30 756 H 70.5289 -5.3081 -3.03399 0
M  V30 757 H 74.7029 -6.29398 -2.98046 0
M  V30 758 H 72.3299 -7.0041 -2.95516 0
M  V30 759 N 73.905 1.17692 -1.04816 0
M  V30 760 C 74.835 2.23777 -0.666791 0
M  V30 761 C 75.816 1.66796 0.33361 0
M  V30 762 O 77.001 1.93039 0.212042 0
M  V30 763 C 74.131 3.47281 -0.0367933 0
M  V30 764 C 73.085 4.17059 -0.961546 0
M  V30 765 C 72.411 5.34342 -0.195626 0
M  V30 766 C 73.711 4.69713 -2.28402 0
M  V30 767 H 75.405 2.55933 -1.55367 0
M  V30 768 H 72.951 1.23019 -0.748484 0
M  V30 769 H 74.904 4.20706 0.241775 0
M  V30 770 H 73.628 3.14381 0.885004 0
M  V30 771 H 72.287 3.45541 -1.22462 0
M  V30 772 H 71.935 4.97692 0.728816 0
M  V30 773 H 71.635 5.81966 -0.811775 0
M  V30 774 H 73.159 6.10553 0.0757473 0
M  V30 775 H 74.573 5.34794 -2.06563 0
M  V30 776 H 72.97 5.279 -2.8538 0
M  V30 777 H 74.04 3.86726 -2.92525 0
M  V30 778 N 75.3831 0.828654 1.34056 0
M  V30 779 C 76.6311 0.41863 1.97717 0
M  V30 780 C 76.9521 -1.02314 1.66002 0
M  V30 781 O 76.2221 -1.71119 0.953683 0
M  V30 782 H 74.8021 0.151809 0.731412 0
M  V30 783 H 77.4641 1.05936 1.63596 0
M  V30 784 H 76.5601 0.542318 3.07352 0
M  V30 785 N 76.8612 -1.46375 0.584142 0
M  V30 786 C 78.1102 -2.01585 0.0679741 0
M  V30 787 C 78.4232 -1.46109 -1.30045 0
M  V30 788 O 79.6292 -1.93148 -1.90804 0
M  V30 789 C 78.0852 -3.5983 0.0709207 0
M  V30 790 C 77.6932 -4.24303 1.43775 0
M  V30 791 C 79.4372 -4.22693 -0.391228 0
M  V30 792 C 77.3442 -5.74631 1.39834 0
M  V30 793 H 76.2742 -0.753689 0.0216421 0
M  V30 794 H 78.9252 -1.68093 0.736001 0
M  V30 795 H 77.3072 -3.90405 -0.663299 0
M  V30 796 H 78.4812 -4.05335 2.19181 0
M  V30 797 H 76.7962 -3.73539 1.84004 0
M  V30 798 H 79.3932 -5.3289 -0.439524 0
M  V30 799 H 79.7362 -3.91728 -1.40906 0
M  V30 800 H 80.2692 -3.96749 0.288974 0
M  V30 801 H 77.0082 -6.10258 2.39303 0
M  V30 802 H 76.5282 -5.95858 0.686505 0
M  V30 803 H 78.2072 -6.37375 1.11187 0
M  V30 804 N 78.3393 -0.321999 -1.54275 0
M  V30 805 C 79.7503 0.166384 -1.85957 0
M  V30 806 C 80.1013 1.51747 -1.24367 0
M  V30 807 O 79.2263 2.09317 -0.549124 0
M  V30 808 C 79.8213 0.308681 -3.37391 0
M  V30 809 C 78.3803 0.741286 -3.69028 0
M  V30 810 C 77.5273 -0.137937 -2.76957 0
M  V30 811 H 80.4783 -0.542335 -1.49146 0
M  V30 812 H 80.4993 1.13984 -3.63026 0
M  V30 813 H 80.0113 -0.674809 -3.82188 0
M  V30 814 H 78.1123 1.73458 -3.29762 0
M  V30 815 H 78.2253 0.546118 -4.75977 0
M  V30 816 H 76.5893 0.386251 -2.51754 0
M  V30 817 H 77.3723 -1.11816 -3.2458 0
M  V30 818 N 79.8174 1.5752 -0.0501392 0
M  V30 819 C 81.0644 1.9265 0.623874 0
M  V30 820 C 81.3924 0.928411 1.70912 0
M  V30 821 O 80.6474 -0.0594525 1.9561 0
M  V30 822 C 80.9464 3.34467 1.25963 0
M  V30 823 C 80.6124 4.49883 0.302689 0
M  V30 824 C 79.2744 4.81184 0.0393636 0
M  V30 825 C 81.6264 5.20002 -0.353205 0
M  V30 826 C 78.9544 5.79951 -0.887308 0
M  V30 827 C 81.3064 6.1976 -1.26806 0
M  V30 828 C 79.9704 6.49491 -1.54007 0
M  V30 829 H 79.2404 0.704957 0.228292 0
M  V30 830 H 81.8874 1.91146 -0.116398 0
M  V30 831 H 80.1924 3.32333 2.07514 0
M  V30 832 H 81.8894 3.58928 1.78806 0
M  V30 833 H 78.4794 4.25457 0.518109 0
M  V30 834 H 82.6634 4.96033 -0.162854 0
M  V30 835 H 77.9194 6.01322 -1.10553 0
M  V30 836 H 82.0934 6.73205 -1.78236 0
M  V30 837 H 79.7204 7.25837 -2.25976 0
M  V30 838 N 81.2955 -0.223234 1.56011 0
M  V30 839 C 82.2585 -1.26014 1.9145 0
M  V30 840 C 83.2585 -1.3989 0.792937 0
M  V30 841 O 84.4485 -1.38184 1.0607 0
M  V30 842 C 81.5805 -2.63422 2.16383 0
M  V30 843 H 82.7735 -0.95796 2.84189 0
M  V30 844 H 80.3265 -0.463576 1.49267 0
M  V30 845 H 81.0615 -2.98741 1.2619 0
M  V30 846 H 80.8465 -2.54728 2.98088 0
M  V30 847 H 82.3365 -3.38249 2.44903 0
M  V30 848 N 82.7736 -1.49793 -0.48987 0
M  V30 849 C 83.7206 -1.67281 -1.59014 0
M  V30 850 C 84.6906 -0.514177 -1.57941 0
M  V30 851 O 85.8756 -0.742533 -1.75759 0
M  V30 852 C 83.0156 -1.75569 -2.97102 0
M  V30 853 C 82.1286 -3.0281 -3.08107 0
M  V30 854 C 81.2636 -3.02008 -4.36995 0
M  V30 855 C 80.3026 -4.23782 -4.41673 0
M  V30 856 N 79.4396 -4.20826 -5.62005 0
M  V30 857 H 84.2796 -2.61224 -1.43409 0
M  V30 858 H 81.8166 -1.29508 -0.697565 0
M  V30 859 H 83.7746 -1.78354 -3.77155 0
M  V30 860 H 82.4046 -0.850827 -3.11385 0
M  V30 861 H 81.4566 -3.09584 -2.21047 0
M  V30 862 H 82.7686 -3.92801 -3.07423 0
M  V30 863 H 81.9226 -3.03418 -5.25378 0
M  V30 864 H 80.6616 -2.09815 -4.4026 0
M  V30 865 H 79.6666 -4.22604 -3.5169 0
M  V30 866 H 80.8916 -5.17181 -4.40115 0
M  V30 867 H 78.8376 -3.31476 -5.66091 0
M  V30 868 H 78.7546 -5.04564 -5.62984 0
M  V30 869 H 80.0226 -4.26355 -6.52565 0
M  V30 870 N 84.2517 0.741722 -1.39055 0
M  V30 871 C 85.6627 1.31966 -1.32068 0
M  V30 872 C 86.0137 1.96192 0.0180797 0
M  V30 873 O 85.1387 1.95861 0.920196 0
M  V30 874 C 85.7337 2.39954 -2.39181 0
M  V30 875 C 84.2927 2.93438 -2.35735 0
M  V30 876 C 83.4397 1.66936 -2.21422 0
M  V30 877 H 86.3907 0.539721 -1.4924 0
M  V30 878 H 86.4117 3.20182 -2.05581 0
M  V30 879 H 85.9237 1.9318 -3.36605 0
M  V30 880 H 84.0247 3.4451 -1.41929 0
M  V30 881 H 84.1377 3.4701 -3.30335 0
M  V30 882 H 82.5017 1.91016 -1.68478 0
M  V30 883 H 83.2847 1.22224 -3.20806 0
M  V30 884 N 85.7298 1.2412 0.971189 0
M  V30 885 C 87.1408 1.07236 1.52831 0
M  V30 886 C 87.4918 -0.357352 1.92918 0
M  V30 887 O 86.6168 -1.24528 1.76979 0
M  V30 888 C 87.2118 1.94043 2.77728 0
M  V30 889 C 85.7708 1.81394 3.29808 0
M  V30 890 C 84.9178 1.89189 2.02738 0
M  V30 891 H 87.8688 1.37648 0.789864 0
M  V30 892 H 87.8898 1.47066 3.5093 0
M  V30 893 H 87.4018 2.98093 2.4852 0
M  V30 894 H 85.5028 0.801634 3.63874 0
M  V30 895 H 85.6158 2.65294 3.98944 0
M  V30 896 H 83.9798 1.32877 2.17292 0
M  V30 897 H 84.7628 2.94812 1.759 0
M  V30 898 N 87.2079 -1.17134 1.05439 0
M  V30 899 C 88.1379 -2.2342 0.678649 0
M  V30 900 C 89.1189 -1.66971 -0.32476 0
M  V30 901 O 90.3039 -1.93149 -0.201802 0
M  V30 902 C 87.4339 -3.47256 0.0552099 0
M  V30 903 C 86.3879 -4.16543 0.98365 0
M  V30 904 C 85.7139 -5.34231 0.223961 0
M  V30 905 C 87.0139 -4.68495 2.3089 0
M  V30 906 H 88.7079 -2.55105 1.56722 0
M  V30 907 H 86.2539 -1.2262 0.754998 0
M  V30 908 H 88.2069 -4.20828 -0.21946 0
M  V30 909 H 86.9309 -3.14846 -0.868319 0
M  V30 910 H 85.5899 -3.44887 1.24293 0
M  V30 911 H 85.2379 -4.98071 -0.702412 0
M  V30 912 H 84.9379 -5.81527 0.842627 0
M  V30 913 H 86.4619 -6.10585 -0.0433671 0
M  V30 914 H 87.8759 -5.33691 2.09396 0
M  V30 915 H 86.2729 -5.26379 2.88176 0
M  V30 916 H 87.3429 -3.85169 2.94572 0
M  V30 917 N 88.686 -0.835752 -1.33615 0
M  V30 918 C 89.934 -0.429109 -1.97492 0
M  V30 919 C 90.255 1.01433 -1.66543 0
M  V30 920 O 89.525 1.70611 -0.962744 0
M  V30 921 H 88.105 -0.155686 -0.730596 0
M  V30 922 H 90.767 -1.06802 -1.63031 0
M  V30 923 H 89.863 -0.55861 -3.0706 0
M  V30 924 N 90.1641 1.46063 -0.591896 0
M  V30 925 C 91.5751 1.85944 -0.167822 0
M  V30 926 C 91.9261 1.49429 1.27143 0
M  V30 927 O 91.0511 0.913515 1.96173 0
M  V30 928 C 91.6461 3.37489 -0.297794 0
M  V30 929 C 90.2051 3.76332 0.0714732 0
M  V30 930 C 89.3521 2.7006 -0.629509 0
M  V30 931 H 92.3031 1.37087 -0.799555 0
M  V30 932 H 92.3241 3.77532 0.474349 0
M  V30 933 H 91.8361 3.64034 -1.3454 0
M  V30 934 H 89.9371 3.55405 1.11886 0
M  V30 935 H 90.0501 4.78088 -0.311245 0
M  V30 936 H 88.4141 2.54607 -0.0687867 0
M  V30 937 H 89.1971 2.99444 -1.67894 0
M  V30 938 N 91.6422 0.330177 1.54103 0
M  V30 939 C 92.5722 -0.525353 2.27513 0
M  V30 940 C 93.5532 -1.11383 1.2856 0
M  V30 941 O 94.7382 -1.13773 1.57383 0
M  V30 942 C 91.8682 -1.6831 3.03791 0
M  V30 943 C 90.8222 -1.2236 4.10137 0
M  V30 944 C 90.1482 -2.46882 4.74293 0
M  V30 945 C 91.4482 -0.333697 5.21233 0
M  V30 946 H 93.1422 0.087013 2.99274 0
M  V30 947 H 90.6882 0.0432893 1.43935 0
M  V30 948 H 92.6412 -2.28795 3.5388 0
M  V30 949 H 91.3652 -2.32216 2.29659 0
M  V30 950 H 90.0242 -0.64165 3.60941 0
M  V30 951 H 89.6722 -3.09165 3.96769 0
M  V30 952 H 89.3722 -2.16825 5.46133 0
M  V30 953 H 90.8962 -3.08117 5.27159 0
M  V30 954 H 92.3102 -0.845013 5.67038 0
M  V30 955 H 90.7072 -0.125612 5.99969 0
M  V30 956 H 91.7772 0.633724 4.80741 0
M  V30 957 N 93.1203 -1.57491 0.0584922 0
M  V30 958 C 94.5363 -1.56792 -0.298091 0
M  V30 959 C 94.7363 -1.06679 -1.70944 0
M  V30 960 O 93.7923 -0.726672 -2.41818 0
M  V30 961 C 95.1053 -3.00461 -0.119879 0
M  V30 962 C 96.6533 -3.1242 -0.190428 0
M  V30 963 C 97.1283 -4.57982 -0.0406567 0
M  V30 964 N 98.6193 -4.63099 -0.0966958 0
M  V30 965 C 99.3543 -5.734 -0.00502943 0
M  V30 966 N 98.8503 -6.9266 0.139402 0
M  V30 967 N 100.643 -5.62067 -0.0611391 0
M  V30 968 H 92.7943 -1.88386 0.98105 0
M  V30 969 H 95.0573 -0.867865 0.381463 0
M  V30 970 H 94.7633 -3.41187 0.85349 0
M  V30 971 H 94.6373 -3.66843 -0.877833 0
M  V30 972 H 97.0243 -2.71589 -1.15427 0
M  V30 973 H 97.1053 -2.48702 0.598405 0
M  V30 974 H 96.7493 -4.995 0.919897 0
M  V30 975 H 96.6793 -5.19715 -0.848727 0
M  V30 976 H 99.1703 -3.77331 -0.207277 0
M  V30 977 H 99.4833 -7.72536 0.201855 0
M  V30 978 H 97.8283 -6.94781 0.174586 0
M  V30 979 H 101.019 -4.67782 -0.172583 0
M  V30 980 H 101.192 -6.47999 0.0137562 0
M  V30 981 N 94.5984 0.214957 -1.56127 0
M  V30 982 C 95.8454 0.938372 -1.79446 0
M  V30 983 C 96.1734 1.8407 -0.628378 0
M  V30 984 O 95.4284 1.91837 0.386925 0
M  V30 985 C 95.7274 1.80314 -3.0858 0
M  V30 986 C 95.3934 1.05349 -4.3842 0
M  V30 987 C 94.0554 0.846435 -4.73697 0
M  V30 988 C 96.4074 0.524588 -5.18553 0
M  V30 989 C 93.7354 0.098683 -5.86617 0
M  V30 990 C 96.0874 -0.209853 -6.32252 0
M  V30 991 C 94.7514 -0.428102 -6.66126 0
M  V30 992 H 94.0214 0.343375 -0.656639 0
M  V30 993 H 96.6684 0.206077 -1.90388 0
M  V30 994 H 94.9734 2.6035 -2.92789 0
M  V30 995 H 96.6704 2.36513 -3.23825 0
M  V30 996 H 93.2604 1.22486 -4.10725 0
M  V30 997 H 97.4444 0.672008 -4.91729 0
M  V30 998 H 92.7004 -0.0805753 -6.11347 0
M  V30 999 H 96.8744 -0.627157 -6.9357 0
M  V30 1000 H 94.5014 -1.00944 -7.53468 0
M  V30 1001 N 96.0765 1.50051 0.48192 0
M  V30 1002 C 97.3045 1.64237 1.25832 0
M  V30 1003 C 97.7195 0.321336 1.86045 0
M  V30 1004 O 97.0765 -0.695478 1.68729 0
M  V30 1005 C 97.1275 2.72548 2.37487 0
M  V30 1006 O 96.8485 3.99529 1.79745 0
M  V30 1007 C 98.3495 2.9761 3.28547 0
M  V30 1008 H 95.5695 0.55237 0.380957 0
M  V30 1009 H 98.1135 1.96207 0.576467 0
M  V30 1010 H 96.2685 2.43303 3.01467 0
M  V30 1011 H 96.6825 4.59342 2.5319 0
M  V30 1012 H 98.1565 3.77084 4.03127 0
M  V30 1013 H 98.6335 2.0826 3.86684 0
M  V30 1014 H 99.2395 3.28345 2.70314 0
M  V30 1015 N 97.5546 -0.734337 1.39446 0
M  V30 1016 C 98.9656 -1.31264 1.32766 0
M  V30 1017 C 99.3166 -1.96198 -0.00767497 0
M  V30 1018 O 98.4416 -1.96346 -0.909796 0
M  V30 1019 C 99.0366 -2.38682 2.4045 0
M  V30 1020 C 97.5956 -2.92184 2.37288 0
M  V30 1021 C 96.7426 -1.6576 2.22304 0
M  V30 1022 H 99.6936 -0.531799 1.49525 0
M  V30 1023 H 99.7146 -3.19087 2.07276 0
M  V30 1024 H 99.2266 -1.91392 3.37625 0
M  V30 1025 H 97.3276 -3.43752 1.43754 0
M  V30 1026 H 97.4406 -3.45253 3.3217 0
M  V30 1027 H 95.8046 -1.9012 1.69489 0
M  V30 1028 H 96.5876 -1.20521 3.21449 0
M  V30 1029 N 99.0327 -1.24633 -0.964593 0
M  V30 1030 C 100.444 -1.08045 -1.5226 0
M  V30 1031 C 100.795 0.347116 -1.93105 0
M  V30 1032 O 99.9197 1.23588 -1.77637 0
M  V30 1033 C 100.515 -1.95514 -2.76695 0
M  V30 1034 C 99.0737 -1.8314 -3.28841 0
M  V30 1035 C 98.2207 -1.90262 -2.01732 0
M  V30 1036 H 101.172 -1.38064 -0.782553 0
M  V30 1037 H 101.193 -1.48925 -3.50145 0
M  V30 1038 H 100.705 -2.99407 -2.46936 0
M  V30 1039 H 98.8057 -0.82092 -3.63444 0
M  V30 1040 H 98.9187 -2.67406 -3.97531 0
M  V30 1041 H 97.2827 -1.34027 -2.16584 0
M  V30 1042 H 98.0657 -2.9574 -1.74334 0
M  V30 1043 N 100.511 1.16574 -1.06058 0
M  V30 1044 C 101.443 2.2045 -0.627239 0
M  V30 1045 C 102.456 1.59752 0.313534 0
M  V30 1046 O 103.645 1.78192 0.104896 0
M  V30 1047 C 100.745 3.3875 0.100974 0
M  V30 1048 C 99.9178 4.29008 -0.852687 0
M  V30 1049 C 98.9768 5.25944 -0.164152 0
M  V30 1050 O 98.0028 5.63535 -0.801047 0
M  V30 1051 N 99.2048 5.70075 1.09518 0
M  V30 1052 H 101.97 2.58249 -1.52077 0
M  V30 1053 H 99.5308 1.3156 -0.943594 0
M  V30 1054 H 101.523 4.00638 0.57194 0
M  V30 1055 H 100.093 2.99476 0.89628 0
M  V30 1056 H 99.3128 3.64419 -1.50308 0
M  V30 1057 H 100.601 4.86195 -1.49972 0
M  V30 1058 H 99.9988 5.41624 1.6328 0
M  V30 1059 H 98.5558 6.34067 1.51006 0
M  V30 1060 N 101.989 0.842826 1.3317 0
M  V30 1061 C 103.4 0.496651 1.79973 0
M  V30 1062 C 103.751 -0.984641 1.69703 0
M  V30 1063 O 102.876 -1.76743 1.24863 0
M  V30 1064 C 103.471 0.894727 3.26772 0
M  V30 1065 C 102.03 0.600629 3.71577 0
M  V30 1066 C 101.177 1.10091 2.5451 0
M  V30 1067 H 104.128 1.03116 1.20635 0
M  V30 1068 H 104.149 0.206347 3.7994 0
M  V30 1069 H 103.661 1.97287 3.34215 0
M  V30 1070 H 101.762 -0.467284 3.69658 0
M  V30 1071 H 101.875 1.15863 4.64879 0
M  V30 1072 H 100.239 0.52162 2.49301 0
M  V30 1073 H 101.022 2.18591 2.64713 0
M  V30 1074 N 103.467 -1.45747 0.599634 0
M  V30 1075 C 104.43 -2.28917 -0.113835 0
M  V30 1076 C 105.43 -1.3933 -0.802729 0
M  V30 1077 O 106.62 -1.61534 -0.652103 0
M  V30 1078 C 103.752 -3.20152 -1.17114 0
M  V30 1079 H 104.945 -2.93478 0.617289 0
M  V30 1080 H 102.498 -1.52137 0.358327 0
M  V30 1081 H 103.233 -2.60374 -1.93329 0
M  V30 1082 H 103.018 -3.86133 -0.681468 0
M  V30 1083 H 104.508 -3.82708 -1.67105 0
M  V30 1084 N 104.945 -0.338344 -1.53925 0
M  V30 1085 C 105.855 0.529421 -2.28548 0
M  V30 1086 C 106.871 1.11645 -1.3346 0
M  V30 1087 O 108.047 1.13325 -1.66492 0
M  V30 1088 C 105.112 1.66713 -3.03987 0
M  V30 1089 C 104.173 1.11041 -4.14691 0
M  V30 1090 C 103.406 2.19389 -4.86522 0
M  V30 1091 O 103.629 3.40013 -4.57982 0
M  V30 1092 O 102.563 1.83976 -5.73094 0
M  V30 1093 H 106.389 -0.0770399 -3.03602 0
M  V30 1094 H 103.974 -0.103555 -1.49041 0
M  V30 1095 H 105.856 2.32918 -3.5118 0
M  V30 1096 H 104.531 2.25949 -2.31794 0
M  V30 1097 H 103.438 0.413024 -3.71813 0
M  V30 1098 H 104.771 0.562975 -4.8897 0
M  V30 1099 N 106.423 1.57458 -0.0668435 0
M  V30 1100 C 107.834 1.80776 0.466558 0
M  V30 1101 C 108.185 0.980361 1.69951 0
M  V30 1102 O 107.31 0.201441 2.1546 0
M  V30 1103 C 107.905 3.27881 0.85321 0
M  V30 1104 C 106.464 3.52062 1.3315 0
M  V30 1105 C 105.611 2.75513 0.314264 0
M  V30 1106 H 108.562 1.5598 -0.292588 0
M  V30 1107 H 108.583 3.39659 1.715 0
M  V30 1108 H 108.095 3.88075 -0.0443439 0
M  V30 1109 H 106.196 2.97167 2.24772 0
M  V30 1110 H 106.309 4.60762 1.31285 0
M  V30 1111 H 104.673 2.42123 0.790492 0
M  V30 1112 H 105.456 3.38442 -0.575477 0
M  V30 1113 N 107.901 -0.206675 1.56239 0
M  V30 1114 C 109.147 -0.925733 1.81113 0
M  V30 1115 C 109.502 -1.81368 0.642135 0
M  V30 1116 O 108.795 -1.88126 -0.363211 0
M  V30 1117 C 108.989 -1.78675 3.09532 0
M  V30 1118 C 108.818 -0.98365 4.3881 0
M  V30 1119 C 107.588 -0.672661 5.00803 0
M  V30 1120 C 109.786 -0.341847 5.13163 0
M  V30 1121 N 107.768 0.150283 6.13716 0
M  V30 1122 C 109.139 0.343815 6.19046 0
M  V30 1123 C 111.194 -0.256392 4.97239 0
M  V30 1124 C 109.897 1.10678 7.10734 0
M  V30 1125 C 111.923 0.493142 5.8934 0
M  V30 1126 C 111.285 1.16729 6.94661 0
M  V30 1127 H 107.384 -0.318524 0.714189 0
M  V30 1128 H 109.968 -0.195378 1.93717 0
M  V30 1129 H 108.139 -2.4888 2.98183 0
M  V30 1130 H 109.871 -2.44441 3.22538 0
M  V30 1131 H 106.626 -0.994294 4.63045 0
M  V30 1132 H 107.05 0.551026 6.74754 0
M  V30 1133 H 111.692 -0.763249 4.15854 0
M  V30 1134 H 109.41 1.6251 7.91591 0
M  V30 1135 H 112.996 0.560465 5.79094 0
M  V30 1136 H 111.876 1.738 7.64698 0
M  V30 1137 N 109.379 -1.50304 -0.473955 0
M  V30 1138 C 110.604 -1.65175 -1.25427 0
M  V30 1139 C 111.029 -0.333673 -1.85117 0
M  V30 1140 O 110.387 0.702114 -1.67153 0
M  V30 1141 C 110.435 -2.74295 -2.34082 0
M  V30 1142 O 109.539 -2.35349 -3.38651 0
M  V30 1143 H 108.88 -0.551944 -0.369126 0
M  V30 1144 H 111.41 -1.96662 -0.564364 0
M  V30 1145 H 111.42 -2.97285 -2.79438 0
M  V30 1146 H 110.095 -3.69959 -1.90008 0
M  V30 1147 H 108.672 -2.22794 -2.99027 0
M  V30 1148 N 110.857 0.726932 -1.39834 0
M  V30 1149 C 112.104 1.48664 -1.37496 0
M  V30 1150 C 112.432 1.94482 0.0264678 0
M  V30 1151 O 111.687 1.67692 1.00886 0
M  V30 1152 C 111.986 2.73495 -2.30077 0
M  V30 1153 C 111.652 2.46502 -3.77555 0
M  V30 1154 C 110.314 2.3885 -4.17737 0
M  V30 1155 C 112.666 2.23604 -4.70798 0
M  V30 1156 C 109.994 2.06352 -5.49214 0
M  V30 1157 C 112.346 1.92622 -6.02561 0
M  V30 1158 C 111.01 1.83444 -6.41798 0
M  V30 1159 H 110.28 0.544001 -0.503135 0
M  V30 1160 H 112.927 0.833657 -1.72402 0
M  V30 1161 H 111.232 3.43575 -1.88317 0
M  V30 1162 H 112.929 3.31549 -2.25558 0
M  V30 1163 H 109.519 2.5334 -3.45712 0
M  V30 1164 H 113.703 2.28479 -4.40581 0
M  V30 1165 H 108.959 1.97776 -5.78528 0
M  V30 1166 H 113.133 1.73914 -6.74334 0
M  V30 1167 H 110.76 1.58029 -7.43593 0
M  V30 1168 N 112.336 1.25143 0.95797 0
M  V30 1169 C 113.582 1.09855 1.70469 0
M  V30 1170 C 113.915 -0.360187 1.90831 0
M  V30 1171 O 113.19 -1.26568 1.47685 0
M  V30 1172 C 113.473 1.8497 3.08963 0
M  V30 1173 C 113.326 3.38652 2.96032 0
M  V30 1174 C 114.645 1.63016 4.08795 0
M  V30 1175 H 111.764 0.400465 0.618706 0
M  V30 1176 H 114.406 1.53933 1.11376 0
M  V30 1177 H 112.556 1.47505 3.59409 0
M  V30 1178 H 114.228 3.85772 2.52938 0
M  V30 1179 H 112.471 3.66534 2.32025 0
M  V30 1180 H 113.142 3.8642 3.94187 0
M  V30 1181 H 115.618 1.95625 3.67247 0
M  V30 1182 H 114.494 2.18015 5.03747 0
M  V30 1183 H 114.755 0.570692 4.38401 0
M  V30 1184 N 113.814 -1.1601 1.06675 0
M  V30 1185 C 114.761 -2.20525 0.680967 0
M  V30 1186 C 115.731 -1.62904 -0.324283 0
M  V30 1187 O 116.916 -1.89615 -0.212294 0
M  V30 1188 C 114.056 -3.45013 0.0776551 0
M  V30 1189 C 113.169 -4.16863 1.13355 0
M  V30 1190 C 112.304 -5.2888 0.49597 0
M  V30 1191 C 111.343 -5.92537 1.53513 0
M  V30 1192 N 110.48 -6.96038 0.920631 0
M  V30 1193 H 115.32 -2.52876 1.57663 0
M  V30 1194 H 112.857 -1.24199 0.788223 0
M  V30 1195 H 114.815 -4.16193 -0.289704 0
M  V30 1196 H 113.445 -3.132 -0.781393 0
M  V30 1197 H 112.497 -3.44248 1.61857 0
M  V30 1198 H 113.809 -4.60294 1.92174 0
M  V30 1199 H 112.963 -6.06653 0.0758604 0
M  V30 1200 H 111.702 -4.86622 -0.324062 0
M  V30 1201 H 110.707 -5.13482 1.9651 0
M  V30 1202 H 111.932 -6.36873 2.35733 0
M  V30 1203 H 109.878 -6.55888 0.12138 0
M  V30 1204 H 109.795 -7.3786 1.64616 0
M  V30 1205 H 111.063 -7.77725 0.525795 0
M  V30 1206 N 115.292 -0.849877 -1.32721 0
M  V30 1207 C 116.24 -0.279745 -2.30912 0
M  V30 1208 C 117.234 0.594278 -1.58634 0
M  V30 1209 O 118.44 0.482613 -1.73409 0
M  V30 1210 H 114.815 -0.0717521 -0.748569 0
M  V30 1211 H 116.786 -1.12222 -2.76494 0
M  V30 1212 C 115.535 0.521108 -3.43773 0
M  V30 1213 H 114.858 -0.142141 -3.99547 0
M  V30 1214 H 116.298 0.885693 -4.14646 0
M  V30 1215 C 114.757 1.70442 -2.90605 0
M  V30 1216 O 115.287 2.8034 -2.87702 0
M  V30 1217 N 113.493 1.52991 -2.47067 0
M  V30 1218 H 113.04 0.635914 -2.49628 0
M  V30 1219 H 112.998 2.32311 -2.11847 0
M  V30 1220 N 116.77 1.45427 -0.607355 0
M  V30 1221 C 117.733 2.28974 0.101693 0
M  V30 1222 C 118.733 1.39754 0.795329 0
M  V30 1223 O 119.923 1.61878 0.643527 0
M  V30 1224 C 117.055 3.20768 1.15414 0
M  V30 1225 H 118.248 2.93147 -0.632844 0
M  V30 1226 H 115.801 1.51945 -0.366391 0
M  V30 1227 H 116.536 2.61395 1.91945 0
M  V30 1228 H 116.321 3.86489 0.66098 0
M  V30 1229 H 117.811 3.83589 1.65073 0
M  V30 1230 N 118.248 0.346503 1.53744 0
M  V30 1231 C 119.476 -0.25041 2.05379 0
M  V30 1232 C 119.891 -1.43979 1.22129 0
M  V30 1233 O 119.248 -1.80677 0.257321 0
M  V30 1234 C 119.299 -0.662575 3.55376 0
M  V30 1235 O 119.02 0.479515 4.35468 0
M  V30 1236 C 120.521 -1.31989 4.23195 0
M  V30 1237 H 117.741 -0.0478198 0.669294 0
M  V30 1238 H 120.285 0.499346 1.9831 0
M  V30 1239 H 118.44 -1.36227 3.62658 0
M  V30 1240 H 118.854 0.15037 5.24284 0
M  V30 1241 H 120.328 -1.55902 5.29527 0
M  V30 1242 H 120.805 -2.27436 3.75725 0
M  V30 1243 H 121.411 -0.662154 4.20114 0
M  V30 1244 N 119.726 -1.57421 0.075193 0
M  V30 1245 C 120.951 -1.98364 -0.605515 0
M  V30 1246 C 121.376 -0.953383 -1.62149 0
M  V30 1247 O 120.734 0.0806053 -1.81121 0
M  V30 1248 C 120.782 -3.38332 -1.24756 0
M  V30 1249 O 119.886 -3.37959 -2.36342 0
M  V30 1250 H 119.227 -0.645553 -0.155428 0
M  V30 1251 H 121.757 -2.04044 0.150714 0
M  V30 1252 H 121.767 -3.75591 -1.5936 0
M  V30 1253 H 120.442 -4.12846 -0.503129 0
M  V30 1254 H 119.019 -3.12474 -2.03506 0
M  V30 1255 N 121.204 0.198386 -1.56346 0
M  V30 1256 C 122.434 0.934215 -1.84271 0
M  V30 1257 C 122.842 1.77496 -0.655125 0
M  V30 1258 O 122.185 1.7961 0.385488 0
M  V30 1259 C 122.247 1.88278 -3.06254 0
M  V30 1260 C 121.911 1.22431 -4.40295 0
M  V30 1261 C 122.908 0.602839 -5.16393 0
M  V30 1262 C 120.593 1.22915 -4.87029 0
M  V30 1263 C 122.587 -0.0050083 -6.374 0
M  V30 1264 C 120.274 0.617465 -6.07973 0
M  V30 1265 C 121.272 0.00146341 -6.83 0
M  V30 1266 O 120.96 -0.600642 -8.01653 0
M  V30 1267 H 120.692 0.278245 -0.616081 0
M  V30 1268 H 123.246 0.211626 -2.04307 0
M  V30 1269 H 121.476 2.64498 -2.82095 0
M  V30 1270 H 123.165 2.48612 -3.20853 0
M  V30 1271 H 123.931 0.591265 -4.81382 0
M  V30 1272 H 119.81 1.69801 -4.28589 0
M  V30 1273 H 123.354 -0.48643 -6.95902 0
M  V30 1274 H 119.251 0.62653 -6.42452 0
M  V30 1275 H 120.019 -0.497225 -8.16988 0
M  V30 1276 N 122.682 1.50554 0.465978 0
M  V30 1277 C 124.093 1.54599 1.04671 0
M  V30 1278 C 124.444 0.352488 1.93008 0
M  V30 1279 O 123.569 -0.534044 2.09707 0
M  V30 1280 C 124.164 2.80166 1.90505 0
M  V30 1281 C 122.723 2.86876 2.43678 0
M  V30 1282 C 121.87 2.48947 1.22151 0
M  V30 1283 H 124.821 1.56744 0.248384 0
M  V30 1284 H 124.842 2.62311 2.75633 0
M  V30 1285 H 124.354 3.67013 1.26186 0
M  V30 1286 H 122.455 2.04393 3.11536 0
M  V30 1287 H 122.568 3.89885 2.78436 0
M  V30 1288 H 120.932 2.01498 1.5579 0
M  V30 1289 H 121.715 3.38107 0.594866 0
M  V30 1290 N 124.16 -0.719506 1.40217 0
M  V30 1291 C 125.571 -1.29848 1.34151 0
M  V30 1292 C 125.922 -1.96196 0.0131349 0
M  V30 1293 O 125.047 -1.973 -0.88892 0
M  V30 1294 C 125.642 -2.36118 2.42968 0
M  V30 1295 C 124.201 -2.8965 2.40374 0
M  V30 1296 C 123.348 -1.63393 2.24049 0
M  V30 1297 H 126.299 -0.51591 1.5008 0
M  V30 1298 H 126.32 -3.16871 2.10649 0
M  V30 1299 H 125.832 -1.878 3.39636 0
M  V30 1300 H 123.933 -3.42208 1.47392 0
M  V30 1301 H 124.046 -3.4171 3.35814 0
M  V30 1302 H 122.41 -1.88312 1.71495 0
M  V30 1303 H 123.193 -1.17104 3.2271 0
M  V30 1304 N 125.638 -1.25649 -0.95132 0
M  V30 1305 C 126.571 -1.00644 -2.04807 0
M  V30 1306 C 127.549 0.0654271 -1.62468 0
M  V30 1307 O 128.733 -0.074911 -1.88351 0
M  V30 1308 C 125.86 -0.522052 -3.34653 0
M  V30 1309 C 124.906 -1.58495 -3.95957 0
M  V30 1310 S 125.739 -3.17108 -4.31512 0
M  V30 1311 C 126.895 -2.70412 -5.64471 0
M  V30 1312 H 127.128 -1.93508 -2.25703 0
M  V30 1313 H 124.661 -1.09216 -1.09139 0
M  V30 1314 H 126.619 -0.24923 -4.09743 0
M  V30 1315 H 125.28 0.386146 -3.11717 0
M  V30 1316 H 124.473 -1.1968 -4.89584 0
M  V30 1317 H 124.075 -1.80862 -3.2736 0
M  V30 1318 H 126.367 -2.14245 -6.42733 0
M  V30 1319 H 127.31 -3.62693 -6.08161 0
M  V30 1320 H 127.718 -2.10302 -5.23864 0
M  V30 1321 N 127.117 1.15442 -1.07289 0
M  V30 1322 C 128.357 1.8788 -0.805012 0
M  V30 1323 C 128.721 1.80413 0.656907 0
M  V30 1324 O 129.922 2.47874 1.0398 0
M  V30 1325 C 128.193 3.3298 -1.29843 0
M  V30 1326 S 129.752 4.23158 -1.16114 0
M  V30 1327 H 126.57 0.64839 -0.291739 0
M  V30 1328 H 129.172 1.39285 -1.37186 0
M  V30 1329 H 127.876 3.35958 -2.35712 0
M  V30 1330 H 127.407 3.86629 -0.726767 0
M  V30 1331 H 129.422 4.96103 -0.0982778 0
M  V30 1332 N 128.595 0.856903 1.32268 0
M  V30 1333 C 129.823 0.475439 2.01363 0
M  V30 1334 C 130.238 -0.928486 1.64392 0
M  V30 1335 O 129.595 -1.60624 0.866387 0
M  V30 1336 C 129.646 0.607545 3.56358 0
M  V30 1337 O 129.367 1.95617 3.92002 0
M  V30 1338 C 130.868 0.225382 4.42727 0
M  V30 1339 H 128.088 0.186636 0.644521 0
M  V30 1340 H 130.632 1.15446 1.68797 0
M  V30 1341 H 128.787 -0.0237719 3.87393 0
M  V30 1342 H 129.201 1.95455 4.86721 0
M  V30 1343 H 130.675 0.368813 5.50767 0
M  V30 1344 H 131.152 -0.834369 4.31202 0
M  V30 1345 H 131.758 0.831864 4.17085 0
M  V30 1346 N 130.073 -1.45103 0.615059 0
M  V30 1347 C 131.005 -2.28786 -0.13762 0
M  V30 1348 C 132.018 -1.40376 -0.824525 0
M  V30 1349 O 133.207 -1.64681 -0.688662 0
M  V30 1350 C 130.307 -3.16322 -1.21628 0
M  V30 1351 C 129.48 -4.33054 -0.615039 0
M  V30 1352 C 128.539 -5.01743 -1.58556 0
M  V30 1353 O 127.565 -5.58293 -1.10895 0
M  V30 1354 N 128.767 -5.01714 -2.91998 0
M  V30 1355 H 131.532 -2.94025 0.580483 0
M  V30 1356 H 129.093 -1.55373 0.45507 0
M  V30 1357 H 131.085 -3.59139 -1.86552 0
M  V30 1358 H 129.655 -2.52943 -1.83681 0
M  V30 1359 H 128.875 -3.93627 0.21245 0
M  V30 1360 H 130.163 -5.08431 -0.193704 0
M  V30 1361 H 129.561 -4.57075 -3.33316 0
M  V30 1362 H 128.118 -5.48371 -3.52325 0
M  V30 1363 N 131.551 -0.354651 -1.53558 0
M  V30 1364 C 132.828 0.294281 -1.93374 0
M  V30 1365 C 133.208 1.67313 -1.28723 0
M  V30 1366 O 132.556 2.24179 -0.442247 0
M  V30 1367 C 132.766 0.355445 -3.47185 0
M  V30 1368 C 134.114 0.601007 -4.20325 0
M  V30 1369 O 135.138 0.437106 -3.53508 0
M  V30 1370 O 133.997 0.919322 -5.38712 0
M  V30 1371 H 131.091 0.174033 -0.808481 0
M  V30 1372 H 133.637 -0.406638 -1.64756 0
M  V30 1373 H 132.409 -0.611729 -3.86489 0
M  V30 1374 H 132.032 1.1027 -3.82003 0
M  V30 1375 N 133.029 1.57378 -0.0835403 0
M  V30 1376 C 134.44 1.81261 0.447358 0
M  V30 1377 C 134.791 0.998331 1.68902 0
M  V30 1378 O 133.916 0.224282 2.15235 0
M  V30 1379 C 134.511 3.28767 0.818386 0
M  V30 1380 C 133.07 3.53455 1.29409 0
M  V30 1381 C 132.217 2.75831 0.285024 0
M  V30 1382 H 135.168 1.5566 -0.309115 0
M  V30 1383 H 135.189 3.41459 1.67887 0
M  V30 1384 H 134.701 3.88006 -0.0855019 0
M  V30 1385 H 132.802 2.99534 2.21608 0
M  V30 1386 H 132.915 4.62128 1.2639 0
M  V30 1387 H 131.279 2.42947 0.764767 0
M  V30 1388 H 132.062 3.37813 -0.611341 0
M  V30 1389 N 134.507 -0.190092 1.56449 0
M  V30 1390 C 135.454 -1.23557 1.94942 0
M  V30 1391 C 136.424 -1.44972 0.810696 0
M  V30 1392 O 137.609 -1.58023 1.06927 0
M  V30 1393 C 134.749 -2.57416 2.2985 0
M  V30 1394 C 133.862 -2.43537 3.5681 0
M  V30 1395 C 132.997 -3.70134 3.81017 0
M  V30 1396 C 132.036 -3.51109 5.01387 0
M  V30 1397 N 131.173 -4.6973 5.21822 0
M  V30 1398 H 136.013 -0.900304 2.84075 0
M  V30 1399 H 133.55 -0.43318 1.40577 0
M  V30 1400 H 135.508 -3.35409 2.48106 0
M  V30 1401 H 134.138 -2.88975 1.43852 0
M  V30 1402 H 133.19 -1.56816 3.46573 0
M  V30 1403 H 134.502 -2.25415 4.4496 0
M  V30 1404 H 133.656 -4.56566 3.9954 0
M  V30 1405 H 132.395 -3.91215 2.91207 0
M  V30 1406 H 131.4 -2.63063 4.82782 0
M  V30 1407 H 132.625 -3.31468 5.9271 0
M  V30 1408 H 130.571 -4.91065 4.34961 0
M  V30 1409 H 130.488 -4.54452 6.0416 0
M  V30 1410 H 131.756 -5.57499 5.44808 0
M  V30 1411 N 135.985 -1.50799 -0.457987 0
M  V30 1412 C 136.948 -1.7005 -1.53674 0
M  V30 1413 C 137.948 -0.570881 -1.50325 0
M  V30 1414 O 139.138 -0.838126 -1.52712 0
M  V30 1415 C 136.27 -1.73788 -2.93276 0
M  V30 1416 H 137.463 -2.66306 -1.37917 0
M  V30 1417 H 135.016 -1.40477 -0.685271 0
M  V30 1418 H 135.751 -0.792717 -3.14462 0
M  V30 1419 H 135.536 -2.55864 -2.97113 0
M  V30 1420 H 137.026 -1.90591 -3.71571 0
M  V30 1421 N 137.463 0.71206 -1.40597 0
M  V30 1422 C 138.711 1.46907 -1.38791 0
M  V30 1423 C 139.032 1.94998 0.00780391 0
M  V30 1424 O 138.302 1.70587 0.963174 0
M  V30 1425 H 136.882 0.545043 -0.51082 0
M  V30 1426 H 139.544 0.843882 -1.75683 0
M  V30 1427 H 138.64 2.34021 -2.06496 0
M  V30 1428 N 138.941 1.26152 0.944643 0
M  V30 1429 C 139.873 1.03199 2.04652 0
M  V30 1430 C 140.886 -0.00642356 1.62799 0
M  V30 1431 O 142.075 0.233263 1.76969 0
M  V30 1432 C 139.175 0.540111 3.34568 0
M  V30 1433 C 138.348 1.64697 4.05208 0
M  V30 1434 C 137.407 1.15374 5.13396 0
M  V30 1435 O 136.433 1.85013 5.38293 0
M  V30 1436 N 137.635 0.00031529 5.805 0
M  V30 1437 H 140.4 1.9808 2.2491 0
M  V30 1438 H 137.961 1.17491 1.11389 0
M  V30 1439 H 139.953 0.194401 4.04233 0
M  V30 1440 H 138.523 -0.315021 3.11009 0
M  V30 1441 H 137.743 2.16379 3.29506 0
M  V30 1442 H 139.031 2.3903 4.49157 0
M  V30 1443 H 138.429 -0.581336 5.62705 0
M  V30 1444 H 136.986 -0.286346 6.51171 0
M  V30 1445 N 140.419 -1.14872 1.07899 0
M  V30 1446 C 141.349 -2.2193 0.725887 0
M  V30 1447 C 142.33 -1.67622 -0.28927 0
M  V30 1448 O 143.515 -1.93533 -0.160787 0
M  V30 1449 C 140.645 -3.47061 0.128856 0
M  V30 1450 C 139.599 -4.14363 1.07178 0
M  V30 1451 C 138.925 -5.33636 0.337229 0
M  V30 1452 C 140.225 -4.63492 2.40775 0
M  V30 1453 H 141.919 -2.51724 1.62097 0
M  V30 1454 H 139.465 -1.20991 0.780838 0
M  V30 1455 H 141.418 -4.21199 -0.130147 0
M  V30 1456 H 140.142 -3.16617 -0.80134 0
M  V30 1457 H 138.801 -3.42173 1.3158 0
M  V30 1458 H 138.449 -4.99449 -0.596606 0
M  V30 1459 H 138.149 -5.79609 0.965788 0
M  V30 1460 H 139.673 -6.10539 0.0861567 0
M  V30 1461 H 141.087 -5.2913 2.20669 0
M  V30 1462 H 139.484 -5.20148 2.99276 0
M  V30 1463 H 140.554 -3.78834 3.02676 0
M  V30 1464 N 141.898 -0.863906 -1.31812 0
M  V30 1465 C 142.828 -0.330843 -2.31144 0
M  V30 1466 C 143.809 0.575005 -1.60087 0
M  V30 1467 O 144.994 0.493304 -1.8783 0
M  V30 1468 C 142.124 0.47374 -3.44054 0
M  V30 1469 C 141.078 -0.338481 -4.26659 0
M  V30 1470 C 140.404 0.591412 -5.31419 0
M  V30 1471 C 141.704 -1.56926 -4.98168 0
M  V30 1472 H 143.398 -1.16086 -2.75979 0
M  V30 1473 H 140.944 -0.559657 -1.32679 0
M  V30 1474 H 142.897 0.857143 -4.12591 0
M  V30 1475 H 141.621 1.33721 -2.9797 0
M  V30 1476 H 140.28 -0.703754 -3.59782 0
M  V30 1477 H 139.928 1.45199 -4.81587 0
M  V30 1478 H 139.628 0.0519022 -5.87577 0
M  V30 1479 H 141.152 0.97179 -6.02817 0
M  V30 1480 H 142.566 -1.25764 -5.59336 0
M  V30 1481 H 140.963 -2.04739 -5.64094 0
M  V30 1482 H 142.033 -2.32544 -4.25501 0
M  V30 1483 N 143.376 1.44774 -0.622745 0
M  V30 1484 C 144.601 2.06999 -0.128968 0
M  V30 1485 C 145.026 1.4617 1.1839 0
M  V30 1486 O 144.384 0.560007 1.72434 0
M  V30 1487 C 144.432 3.60595 -0.0188351 0
M  V30 1488 O 143.536 3.99398 1.02739 0
M  V30 1489 H 142.877 0.659047 -0.0809544 0
M  V30 1490 H 145.407 1.85784 -0.85705 0
M  V30 1491 H 145.417 4.07627 0.174476 0
M  V30 1492 H 144.092 4.04252 -0.977384 0
M  V30 1493 H 142.669 3.64011 0.809326 0
M  V30 1494 N 144.854 0.36279 1.53368 0
M  V30 1495 C 145.764 -0.492994 2.29362 0
M  V30 1496 C 146.78 -1.09507 1.35219 0
M  V30 1497 O 147.956 -1.10662 1.68273 0
M  V30 1498 C 145.021 -1.61855 3.066 0
M  V30 1499 C 144.082 -1.04429 4.16405 0
M  V30 1500 C 143.315 -2.11621 4.89951 0
M  V30 1501 O 143.538 -3.32684 4.63333 0
M  V30 1502 O 142.472 -1.74835 5.75948 0
M  V30 1503 H 146.298 0.125331 3.03441 0
M  V30 1504 H 143.883 0.127253 1.48857 0
M  V30 1505 H 145.765 -2.27302 3.54841 0
M  V30 1506 H 144.44 -2.22233 2.3536 0
M  V30 1507 H 143.347 -0.353819 3.72423 0
M  V30 1508 H 144.68 -0.485113 4.89804 0
M  V30 1509 N 146.332 -1.57332 0.0918853 0
M  V30 1510 C 147.262 -2.16872 -0.865371 0
M  V30 1511 C 148.243 -1.10118 -1.29646 0
M  V30 1512 O 149.428 -1.38242 -1.36392 0
M  V30 1513 C 146.558 -2.74649 -2.12569 0
M  V30 1514 C 145.512 -3.86747 -1.83333 0
M  V30 1515 C 144.838 -4.31212 -3.16166 0
M  V30 1516 C 146.138 -5.10089 -1.1228 0
M  V30 1517 H 147.832 -2.97114 -0.369307 0
M  V30 1518 H 145.378 -1.42918 -0.176194 0
M  V30 1519 H 147.331 -3.14952 -2.7997 0
M  V30 1520 H 146.055 -1.91657 -2.64452 0
M  V30 1521 H 144.714 -3.46978 -1.18331 0
M  V30 1522 H 144.362 -3.45115 -3.6593 0
M  V30 1523 H 144.062 -5.06788 -2.97388 0
M  V30 1524 H 145.586 -4.74146 -3.84731 0
M  V30 1525 H 147 -5.47582 -1.69785 0
M  V30 1526 H 145.397 -5.91073 -1.03693 0
M  V30 1527 H 146.467 -4.84786 -0.105041 0
M  V30 1528 N 147.81 0.181792 -1.56548 0
M  V30 1529 C 149.057 0.900097 -1.81396 0
M  V30 1530 C 149.385 1.82695 -0.667281 0
M  V30 1531 O 148.64 1.92614 0.346146 0
M  V30 1532 C 148.939 1.73728 -3.12335 0
M  V30 1533 C 148.605 0.960255 -4.40556 0
M  V30 1534 C 147.267 0.745766 -4.75386 0
M  V30 1535 C 149.619 0.414477 -5.19549 0
M  V30 1536 C 146.947 -0.0257694 -5.86694 0
M  V30 1537 C 149.299 -0.343916 -6.31664 0
M  V30 1538 C 147.963 -0.569301 -6.65068 0
M  V30 1539 H 147.233 0.329369 -0.663775 0
M  V30 1540 H 149.88 0.165647 -1.90782 0
M  V30 1541 H 148.185 2.54081 -2.98245 0
M  V30 1542 H 149.882 2.29591 -3.28769 0
M  V30 1543 H 146.472 1.13746 -4.13231 0
M  V30 1544 H 150.656 0.567554 -4.93044 0
M  V30 1545 H 145.912 -0.210233 -6.11038 0
M  V30 1546 H 150.086 -0.774133 -6.92084 0
M  V30 1547 H 147.713 -1.16903 -7.51158 0
M  V30 1548 N 149.288 1.51039 0.449983 0
M  V30 1549 C 150.516 1.66869 1.2232 0
M  V30 1550 C 150.931 0.360727 1.85322 0
M  V30 1551 O 150.288 -0.659531 1.70166 0
M  V30 1552 C 150.339 2.77524 2.31652 0
M  V30 1553 O 150.06 4.03252 1.7123 0
M  V30 1554 C 151.561 3.04512 3.2216 0
M  V30 1555 H 148.781 0.560326 0.369155 0
M  V30 1556 H 151.325 1.97385 0.534719 0
M  V30 1557 H 149.48 2.49642 2.96239 0
M  V30 1558 H 149.894 4.64609 2.43389 0
M  V30 1559 H 151.368 3.85551 3.95038 0
M  V30 1560 H 151.845 2.16415 3.8218 0
M  V30 1561 H 152.451 3.34005 2.63288 0
M  V30 1562 N 150.766 -0.704594 1.40972 0
M  V30 1563 C 151.714 -1.83994 1.42299 0
M  V30 1564 C 152.708 -1.66684 0.302111 0
M  V30 1565 O 153.914 -1.73655 0.473697 0
M  V30 1566 H 150.289 -0.606171 0.44504 0
M  V30 1567 H 152.26 -1.79992 2.38003 0
M  V30 1568 C 151.009 -3.21946 1.31323 0
M  V30 1569 H 150.332 -3.35878 2.16855 0
M  V30 1570 H 151.772 -4.01491 1.36311 0
M  V30 1571 C 150.231 -3.36891 0.0245977 0
M  V30 1572 O 150.761 -3.90687 -0.934153 0
M  V30 1573 N 148.967 -2.90559 -0.0485243 0
M  V30 1574 H 148.514 -2.46968 0.732419 0
M  V30 1575 H 148.472 -3.00937 -0.910171 0
M  V30 1576 N 152.244 -1.26651 -0.937939 0
M  V30 1577 C 153.66 -1.03834 -1.21205 0
M  V30 1578 C 153.86 0.234502 -2.00131 0
M  V30 1579 O 152.916 0.942767 -2.3424 0
M  V30 1580 C 154.229 -2.27167 -1.97017 0
M  V30 1581 C 155.777 -2.32101 -2.09996 0
M  V30 1582 C 156.252 -3.55136 -2.8921 0
M  V30 1583 N 157.743 -3.55632 -2.96783 0
M  V30 1584 C 158.478 -4.475 -3.58512 0
M  V30 1585 N 157.974 -5.4966 -4.21717 0
M  V30 1586 N 159.767 -4.35145 -3.55816 0
M  V30 1587 H 151.918 -2.08398 -0.410391 0
M  V30 1588 H 154.181 -0.916031 -0.244114 0
M  V30 1589 H 153.887 -3.19765 -1.46434 0
M  V30 1590 H 153.761 -2.31672 -2.97671 0
M  V30 1591 H 156.148 -1.40015 -2.59769 0
M  V30 1592 H 156.229 -2.31605 -1.08594 0
M  V30 1593 H 155.873 -4.47553 -2.40123 0
M  V30 1594 H 155.803 -3.5288 -3.90875 0
M  V30 1595 H 158.294 -2.81743 -2.51852 0
M  V30 1596 H 158.607 -6.15943 -4.66727 0
M  V30 1597 H 156.952 -5.53514 -4.20294 0
M  V30 1598 H 160.143 -3.5455 -3.05634 0
M  V30 1599 H 160.316 -5.06934 -4.03636 0
M  V30 1600 N 153.722 1.14298 -1.08507 0
M  V30 1601 C 154.669 2.19414 -0.715965 0
M  V30 1602 C 155.639 1.63399 0.298326 0
M  V30 1603 O 156.824 1.89929 0.182101 0
M  V30 1604 C 153.964 3.44845 -0.132534 0
M  V30 1605 C 153.077 4.15007 -1.19973 0
M  V30 1606 C 152.212 5.28024 -0.580048 0
M  V30 1607 C 151.251 5.9002 -1.62921 0
M  V30 1608 N 150.388 6.94485 -1.03125 0
M  V30 1609 H 155.228 2.50336 -1.61666 0
M  V30 1610 H 152.765 1.2293 -0.807882 0
M  V30 1611 H 154.723 4.16601 0.223454 0
M  V30 1612 H 153.353 3.14403 0.731467 0
M  V30 1613 H 152.405 3.41629 -1.67313 0
M  V30 1614 H 153.717 4.57178 -1.99473 0
M  V30 1615 H 152.871 6.06455 -0.172364 0
M  V30 1616 H 151.61 4.87076 0.246603 0
M  V30 1617 H 150.615 5.10291 -2.04654 0
M  V30 1618 H 151.84 6.33042 -2.45835 0
M  V30 1619 H 149.786 6.55612 -0.225711 0
M  V30 1620 H 149.703 7.35148 -1.76334 0
M  V30 1621 H 150.971 7.7679 -0.649458 0
M  V30 1622 N 155.201 0.870884 1.31352 0
M  V30 1623 C 156.111 0.330783 2.32256 0
M  V30 1624 C 157.127 -0.559767 1.6475 0
M  V30 1625 O 158.303 -0.456263 1.96164 0
M  V30 1626 C 155.368 -0.458137 3.4366 0
M  V30 1627 C 154.429 0.460482 4.26823 0
M  V30 1628 C 153.662 -0.290881 5.32907 0
M  V30 1629 O 153.885 -1.51885 5.49806 0
M  V30 1630 O 152.819 0.351732 6.00871 0
M  V30 1631 H 156.645 1.16718 2.80376 0
M  V30 1632 H 154.23 0.634285 1.35267 0
M  V30 1633 H 156.112 -0.905343 4.1156 0
M  V30 1634 H 154.787 -1.27106 2.97701 0
M  V30 1635 H 153.694 0.956207 3.61673 0
M  V30 1636 H 155.027 1.23903 4.7635 0
M  V30 1637 N 156.679 -1.44442 0.630414 0
M  V30 1638 C 157.627 -2.32437 -0.0871428 0
M  V30 1639 C 158.621 -1.47304 -0.836525 0
M  V30 1640 O 159.827 -1.63653 -0.749506 0
M  V30 1641 H 156.202 -0.750533 -0.0469495 0
M  V30 1642 H 158.173 -2.90709 0.673096 0
M  V30 1643 C 156.922 -3.31288 -1.05563 0
M  V30 1644 H 156.245 -3.96805 -0.488426 0
M  V30 1645 H 157.685 -3.9554 -1.52721 0
M  V30 1646 C 156.144 -2.6016 -2.14052 0
M  V30 1647 O 156.674 -2.39997 -3.22124 0
M  V30 1648 N 154.88 -2.19911 -1.89967 0
M  V30 1649 H 154.427 -2.36509 -1.02085 0
M  V30 1650 H 154.385 -1.72646 -2.62756 0
M  V30 1651 N 158.157 -0.370918 -1.53173 0
M  V30 1652 C 159.406 0.218249 -2.00516 0
M  V30 1653 C 159.719 1.49429 -1.26215 0
M  V30 1654 O 160.925 2.16239 -1.64174 0
M  V30 1655 C 159.381 0.43948 -3.57207 0
M  V30 1656 C 158.989 -0.822244 -4.4039 0
M  V30 1657 C 160.733 0.986012 -4.1289 0
M  V30 1658 C 158.64 -0.570304 -5.88644 0
M  V30 1659 H 157.57 0.0853333 -0.749156 0
M  V30 1660 H 160.221 -0.490483 -1.76823 0
M  V30 1661 H 158.603 1.20961 -3.77074 0
M  V30 1662 H 159.777 -1.59557 -4.32294 0
M  V30 1663 H 158.092 -1.29238 -3.95836 0
M  V30 1664 H 160.689 1.18991 -5.21292 0
M  V30 1665 H 161.032 1.94972 -3.6782 0
M  V30 1666 H 161.565 0.27592 -3.96842 0
M  V30 1667 H 158.304 -1.50449 -6.38001 0
M  V30 1668 H 157.824 0.164427 -5.99575 0
M  V30 1669 H 159.503 -0.19784 -6.46697 0
M  V30 1670 N 159.635 1.57281 -0.100228 0
M  V30 1671 C 161.046 1.81725 0.428107 0
M  V30 1672 C 161.397 1.01619 1.67833 0
M  V30 1673 O 160.522 0.247098 2.14985 0
M  V30 1674 C 161.117 3.29617 0.78347 0
M  V30 1675 C 159.676 3.54808 1.25653 0
M  V30 1676 C 158.823 2.76118 0.255752 0
M  V30 1677 H 161.774 1.55324 -0.325608 0
M  V30 1678 H 161.795 3.4322 1.64256 0
M  V30 1679 H 161.307 3.87893 -0.12665 0
M  V30 1680 H 159.408 3.01868 2.18418 0
M  V30 1681 H 159.521 4.63443 1.21482 0
M  V30 1682 H 157.885 2.43745 0.738956 0
M  V30 1683 H 158.668 3.37145 -0.647136 0
M  V30 1684 N 161.113 -0.173488 1.56642 0
M  V30 1685 C 162.043 -1.2171 1.99271 0
M  V30 1686 C 163.024 -1.46289 0.867959 0
M  V30 1687 O 164.209 -1.5766 1.13388 0
M  V30 1688 C 161.339 -2.55651 2.35074 0
M  V30 1689 C 160.293 -2.45645 3.50489 0
M  V30 1690 C 159.619 -3.84056 3.72028 0
M  V30 1691 C 160.919 -1.96302 4.84007 0
M  V30 1692 H 162.613 -0.86275 2.867 0
M  V30 1693 H 160.159 -0.413571 1.37933 0
M  V30 1694 H 162.112 -3.2886 2.63494 0
M  V30 1695 H 160.836 -2.92869 1.44552 0
M  V30 1696 H 159.495 -1.7489 3.22194 0
M  V30 1697 H 159.143 -4.18664 2.788 0
M  V30 1698 H 158.843 -3.7823 4.49684 0
M  V30 1699 H 160.367 -4.58854 4.02846 0
M  V30 1700 H 161.781 -2.59284 5.11317 0
M  V30 1701 H 160.178 -2.01429 5.65284 0
M  V30 1702 H 161.248 -0.917226 4.76146 0
M  V30 1703 N 162.591 -1.51276 -0.441967 0
M  V30 1704 C 163.538 -1.72256 -1.53612 0
M  V30 1705 C 164.508 -0.564164 -1.56225 0
M  V30 1706 O 165.693 -0.798074 -1.73307 0
M  V30 1707 C 162.833 -1.84932 -2.91366 0
M  V30 1708 C 161.946 -3.12459 -2.98317 0
M  V30 1709 C 161.081 -3.15758 -4.27166 0
M  V30 1710 C 160.12 -4.37619 -4.27967 0
M  V30 1711 N 159.257 -4.38493 -5.48333 0
M  V30 1712 H 164.097 -2.65654 -1.35026 0
M  V30 1713 H 161.634 -1.31662 -0.656009 0
M  V30 1714 H 163.592 -1.90263 -3.7129 0
M  V30 1715 H 162.222 -0.949461 -3.08521 0
M  V30 1716 H 161.274 -3.1646 -2.11086 0
M  V30 1717 H 162.586 -4.02382 -2.94771 0
M  V30 1718 H 161.74 -3.19979 -5.15459 0
M  V30 1719 H 160.479 -2.23715 -4.33362 0
M  V30 1720 H 159.484 -4.33579 -3.38067 0
M  V30 1721 H 160.709 -5.30921 -4.23438 0
M  V30 1722 H 158.655 -3.49318 -5.55259 0
M  V30 1723 H 158.572 -5.22219 -5.46647 0
M  V30 1724 H 159.84 -4.469 -6.38671 0
M  V30 1725 N 164.069 0.697108 -1.41344 0
M  V30 1726 C 164.999 1.82353 -1.45841 0
M  V30 1727 C 165.98 1.67115 -0.317247 0
M  V30 1728 O 167.165 1.86871 -0.528474 0
M  V30 1729 C 164.295 3.20476 -1.33838 0
M  V30 1730 C 163.249 3.50415 -2.4575 0
M  V30 1731 C 162.575 4.87878 -2.18813 0
M  V30 1732 C 163.875 3.49546 -3.88091 0
M  V30 1733 H 165.569 1.78846 -2.40113 0
M  V30 1734 H 163.115 0.859028 -1.15571 0
M  V30 1735 H 165.068 3.98988 -1.35596 0
M  V30 1736 H 163.792 3.24604 -0.360498 0
M  V30 1737 H 162.451 2.74253 -2.43271 0
M  V30 1738 H 162.099 4.8863 -1.19371 0
M  V30 1739 H 161.799 5.08875 -2.93803 0
M  V30 1740 H 163.323 5.68702 -2.22284 0
M  V30 1741 H 164.737 4.18066 -3.92293 0
M  V30 1742 H 163.134 3.82075 -4.62751 0
M  V30 1743 H 164.204 2.48552 -4.16353 0
M  V30 1744 N 165.547 1.27147 0.931209 0
M  V30 1745 C 166.772 1.16191 1.71797 0
M  V30 1746 C 167.197 -0.278004 1.86034 0
M  V30 1747 O 166.555 -1.20137 1.35782 0
M  V30 1748 C 166.603 1.84673 3.09723 0
M  V30 1749 O 165.707 1.14231 3.96264 0
M  V30 1750 H 165.048 0.404303 0.526721 0
M  V30 1751 H 167.578 1.68152 1.1656 0
M  V30 1752 H 167.588 1.91893 3.60057 0
M  V30 1753 H 166.263 2.89421 2.98677 0
M  V30 1754 H 164.84 1.15056 3.54706 0
M  V30 1755 N 167.025 -1.13721 1.09112 0
M  V30 1756 C 167.935 -2.22638 0.73957 0
M  V30 1757 C 168.951 -1.72091 -0.257068 0
M  V30 1758 O 170.127 -2.01155 -0.0992154 0
M  V30 1759 C 167.192 -3.46322 0.16191 0
M  V30 1760 C 166.253 -4.11775 1.21408 0
M  V30 1761 C 165.486 -5.29555 0.663891 0
M  V30 1762 O 165.709 -5.68077 -0.514274 0
M  V30 1763 O 164.643 -5.84973 1.41738 0
M  V30 1764 H 168.469 -2.55074 1.64836 0
M  V30 1765 H 166.054 -1.21791 0.865289 0
M  V30 1766 H 167.936 -4.21107 -0.157073 0
M  V30 1767 H 166.611 -3.15593 -0.719932 0
M  V30 1768 H 165.518 -3.3883 1.58571 0
M  V30 1769 H 166.851 -4.46627 2.06845 0
M  V30 1770 N 168.503 -0.877838 -1.30888 0
M  V30 1771 C 169.78 -0.413052 -1.91189 0
M  V30 1772 C 170.16 1.1056 -1.79832 0
M  V30 1773 O 169.508 1.93771 -1.21099 0
M  V30 1774 C 169.718 -0.903191 -3.3711 0
M  V30 1775 C 171.066 -0.93395 -4.14201 0
M  V30 1776 O 172.09 -0.849373 -3.45925 0
M  V30 1777 O 170.949 -1.05772 -5.36167 0
M  V30 1778 H 168.043 -0.125035 -0.817493 0
M  V30 1779 H 170.589 -0.966269 -1.39504 0
M  V30 1780 H 169.361 -1.94692 -3.39427 0
M  V30 1781 H 168.984 -0.328732 -3.96239 0
M  V30 1782 N 169.982 1.44106 -0.638065 0
M  V30 1783 C 171.222 2.03858 -0.148733 0
M  V30 1784 C 171.586 1.49153 1.20903 0
M  V30 1785 O 172.787 2.00452 1.79088 0
M  V30 1786 C 171.058 3.57117 -0.142314 0
M  V30 1787 S 172.617 4.37897 0.281385 0
M  V30 1788 H 169.435 0.708069 -0.0644912 0
M  V30 1789 H 172.037 1.7639 -0.843009 0
M  V30 1790 H 170.741 3.94436 -1.13349 0
M  V30 1791 H 170.272 3.89205 0.572988 0
M  V30 1792 H 172.287 4.72218 1.52395 0
M  V30 1793 N 171.46 0.379036 1.52974 0
M  V30 1794 C 172.39 -0.452706 2.29069 0
M  V30 1795 C 173.371 -1.07237 1.32039 0
M  V30 1796 O 174.556 -1.08708 1.60923 0
M  V30 1797 C 171.686 -1.5856 3.08992 0
M  V30 1798 C 170.64 -1.0925 4.13822 0
M  V30 1799 C 169.966 -2.31668 4.81907 0
M  V30 1800 C 171.266 -0.167702 5.22031 0
M  V30 1801 H 172.96 0.182181 2.98845 0
M  V30 1802 H 170.506 0.0890592 1.43724 0
M  V30 1803 H 172.459 -2.1742 3.6098 0
M  V30 1804 H 171.183 -2.24792 2.36931 0
M  V30 1805 H 169.842 -0.526494 3.628 0
M  V30 1806 H 169.49 -2.96386 4.06404 0
M  V30 1807 H 169.19 -1.9934 5.52754 0
M  V30 1808 H 170.714 -2.91189 5.36695 0
M  V30 1809 H 172.128 -0.664186 5.6944 0
M  V30 1810 H 170.525 0.0653265 6.00064 0
M  V30 1811 H 171.595 0.786347 4.78482 0
M  V30 1812 N 172.938 -1.57226 0.108567 0
M  V30 1813 C 174.168 -1.9889 -0.559142 0
M  V30 1814 C 174.576 -0.986889 -1.61422 0
M  V30 1815 O 173.919 0.0298705 -1.83676 0
M  V30 1816 C 173.981 -3.36952 -1.25315 0
M  V30 1817 C 173.645 -4.55679 -0.347248 0
M  V30 1818 C 174.642 -5.18281 0.409996 0
M  V30 1819 C 172.327 -5.0162 -0.261367 0
M  V30 1820 C 174.321 -6.25203 1.24096 0
M  V30 1821 C 172.008 -6.08405 0.573238 0
M  V30 1822 C 173.006 -6.70063 1.32304 0
M  V30 1823 O 172.694 -7.74788 2.14381 0
M  V30 1824 H 172.426 -0.658343 -0.153492 0
M  V30 1825 H 174.98 -2.04532 0.188584 0
M  V30 1826 H 173.21 -3.28032 -2.04773 0
M  V30 1827 H 174.899 -3.62974 -1.81673 0
M  V30 1828 H 175.665 -4.8371 0.353457 0
M  V30 1829 H 171.544 -4.53381 -0.834656 0
M  V30 1830 H 175.088 -6.73259 1.82669 0
M  V30 1831 H 170.985 -6.42406 0.631208 0
M  V30 1832 H 171.753 -7.91837 2.07209 0
M  V30 1833 N 174.416 0.165178 -1.56732 0
M  V30 1834 C 175.346 1.20651 -1.99914 0
M  V30 1835 C 176.327 1.45827 -0.875705 0
M  V30 1836 O 177.512 1.57057 -1.14223 0
M  V30 1837 C 174.642 2.54401 -2.36427 0
M  V30 1838 C 173.596 2.43782 -3.51787 0
M  V30 1839 C 172.922 3.82078 -3.7406 0
M  V30 1840 C 174.222 1.93732 -4.85041 0
M  V30 1841 H 175.916 0.847534 -2.87154 0
M  V30 1842 H 173.462 0.40625 -1.38151 0
M  V30 1843 H 175.415 3.27458 -2.65234 0
M  V30 1844 H 174.139 2.92098 -1.46103 0
M  V30 1845 H 172.798 1.73178 -3.23117 0
M  V30 1846 H 172.446 4.17179 -2.81017 0
M  V30 1847 H 172.146 3.7584 -4.51684 0
M  V30 1848 H 173.67 4.56712 -4.05274 0
M  V30 1849 H 175.084 2.56569 -5.12684 0
M  V30 1850 H 173.481 1.98428 -5.66345 0
M  V30 1851 H 174.551 0.891962 -4.76626 0
M  V30 1852 N 175.894 1.51508 0.433938 0
M  V30 1853 C 176.842 1.73646 1.54757 0
M  V30 1854 C 177.836 0.602854 1.5831 0
M  V30 1855 O 179.042 0.784318 1.62014 0
M  V30 1856 H 175.417 0.548718 0.51421 0
M  V30 1857 H 177.388 2.66991 1.33261 0
M  V30 1858 C 176.137 1.88172 2.92381 0
M  V30 1859 H 175.46 2.74808 2.90381 0
M  V30 1860 H 176.9 2.07672 3.6966 0
M  V30 1861 C 175.359 0.64239 3.30719 0
M  V30 1862 O 175.889 -0.201362 4.01195 0
M  V30 1863 N 174.095 0.485489 2.86516 0
M  V30 1864 H 173.642 1.17318 2.29334 0
M  V30 1865 H 173.6 -0.342482 3.12529 0
M  V30 1866 N 177.372 -0.689602 1.41712 0
M  V30 1867 C 178.621 -1.44534 1.40686 0
M  V30 1868 C 178.934 -1.95588 0.0213352 0
M  V30 1869 O 180.14 -2.71271 -0.111534 0
M  V30 1870 C 178.596 -2.61387 2.47396 0
M  V30 1871 C 178.204 -2.17094 3.91885 0
M  V30 1872 C 179.948 -3.38986 2.55517 0
M  V30 1873 C 177.855 -3.3094 4.90135 0
M  V30 1874 H 176.785 -0.542925 0.52321 0
M  V30 1875 H 179.436 -0.748054 1.6756 0
M  V30 1876 H 177.818 -3.33412 2.13664 0
M  V30 1877 H 178.992 -1.52318 4.34897 0
M  V30 1878 H 177.307 -1.52473 3.8748 0
M  V30 1879 H 179.904 -4.23747 3.26102 0
M  V30 1880 H 180.247 -3.84578 1.59391 0
M  V30 1881 H 180.78 -2.74021 2.8837 0
M  V30 1882 H 177.519 -2.90355 5.87685 0
M  V30 1883 H 177.039 -3.94546 4.51767 0
M  V30 1884 H 178.718 -3.9663 5.11169 0
M  V30 1885 N 178.85 -1.27639 -0.924453 0
M  V30 1886 C 180.08 -1.16819 -1.70402 0
M  V30 1887 C 180.488 0.277191 -1.87158 0
M  V30 1888 O 179.831 1.20025 -1.39067 0
M  V30 1889 C 179.893 -1.78305 -3.12166 0
M  V30 1890 C 179.557 -3.27502 -3.18734 0
M  V30 1891 C 180.554 -4.2409 -3.00738 0
M  V30 1892 C 178.239 -3.68269 -3.4159 0
M  V30 1893 C 180.233 -5.59422 -3.05492 0
M  V30 1894 C 177.92 -5.0373 -3.45977 0
M  V30 1895 C 178.918 -5.99116 -3.27946 0
M  V30 1896 O 178.606 -7.32108 -3.32074 0
M  V30 1897 H 178.338 -0.406931 -0.539799 0
M  V30 1898 H 180.892 -1.69078 -1.16626 0
M  V30 1899 H 179.122 -1.20528 -3.67437 0
M  V30 1900 H 180.811 -1.62154 -3.72103 0
M  V30 1901 H 181.577 -3.93931 -2.82919 0
M  V30 1902 H 177.456 -2.94496 -3.54673 0
M  V30 1903 H 181 -6.33852 -2.91337 0
M  V30 1904 H 176.897 -5.33543 -3.63321 0
M  V30 1905 H 177.665 -7.40598 -3.48507 0
M  V30 1906 N 180.328 1.1314 -1.09713 0
M  V30 1907 C 181.556 1.88321 -0.856898 0
M  V30 1908 C 181.971 1.79276 0.592073 0
M  V30 1909 O 181.328 1.16142 1.40774 0
M  V30 1910 C 181.379 3.37812 -1.28706 0
M  V30 1911 O 181.1 3.46627 -2.67921 0
M  V30 1912 C 182.601 4.29952 -1.07964 0
M  V30 1913 H 179.821 0.596094 -0.308079 0
M  V30 1914 H 182.365 1.43205 -1.45988 0
M  V30 1915 H 180.52 3.805 -0.727912 0
M  V30 1916 H 180.934 4.39579 -2.8613 0
M  V30 1917 H 182.408 5.33159 -1.42986 0
M  V30 1918 H 182.885 4.39196 -0.0176577 0
M  V30 1919 H 183.491 3.93036 -1.62489 0
M  V30 1920 N 181.806 0.884767 1.30421 0
M  V30 1921 C 183.217 0.553656 1.78302 0
M  V30 1922 C 183.568 -0.930153 1.7275 0
M  V30 1923 O 182.693 -1.72681 1.30423 0
M  V30 1924 C 183.288 0.998234 3.2376 0
M  V30 1925 C 181.847 0.71854 3.69478 0
M  V30 1926 C 180.994 1.18132 2.50879 0
M  V30 1927 H 183.945 1.06901 1.17294 0
M  V30 1928 H 183.966 0.327118 3.79091 0
M  V30 1929 H 183.478 2.0782 3.27769 0
M  V30 1930 H 181.579 -0.349444 3.70958 0
M  V30 1931 H 181.692 1.30595 4.60958 0
M  V30 1932 H 180.056 0.600669 2.47516 0
M  V30 1933 H 180.839 2.26902 2.57624 0
M  V30 1934 N 183.284 -1.43765 0.645699 0
M  V30 1935 C 184.247 -2.29163 -0.0409488 0
M  V30 1936 C 185.247 -1.41813 -0.757996 0
M  V30 1937 O 186.437 -1.63527 -0.600382 0
M  V30 1938 C 183.569 -3.23716 -1.06869 0
M  V30 1939 H 184.762 -2.91366 0.710345 0
M  V30 1940 H 182.315 -1.5092 0.406547 0
M  V30 1941 H 183.05 -2.66393 -1.84947 0
M  V30 1942 H 182.835 -3.88105 -0.558277 0
M  V30 1943 H 184.325 -3.87831 -1.54845 0
M  V30 1944 N 184.763 -0.387143 -1.52771 0
M  V30 1945 C 186.04 0.253197 -1.93954 0
M  V30 1946 C 186.42 1.64545 -1.32243 0
M  V30 1947 O 185.768 2.23191 -0.489699 0
M  V30 1948 C 185.978 0.281722 -3.47861 0
M  V30 1949 C 187.326 0.511715 -4.21505 0
M  V30 1950 O 188.35 0.362023 -3.54356 0
M  V30 1951 O 187.209 0.804847 -5.40541 0
M  V30 1952 H 184.303 0.156845 -0.811991 0
M  V30 1953 H 186.849 -0.441494 -1.63856 0
M  V30 1954 H 185.621 -0.693571 -3.85104 0
M  V30 1955 H 185.244 1.02142 -3.84256 0
M  V30 1956 N 186.241 1.57166 -0.116904 0
M  V30 1957 C 187.171 2.18222 0.830759 0
M  V30 1958 C 188.152 1.12167 1.27877 0
M  V30 1959 O 189.337 1.40394 1.34176 0
M  V30 1960 C 186.467 2.77996 2.08172 0
M  V30 1961 C 185.421 3.89614 1.77157 0
M  V30 1962 C 184.747 4.36187 3.09265 0
M  V30 1963 C 186.047 5.1181 1.04151 0
M  V30 1964 H 187.741 2.97664 0.321992 0
M  V30 1965 H 185.287 1.4318 0.153434 0
M  V30 1966 H 187.24 3.19366 2.74924 0
M  V30 1967 H 185.964 1.9584 2.6137 0
M  V30 1968 H 184.623 3.48816 1.12796 0
M  V30 1969 H 184.271 3.50893 3.60393 0
M  V30 1970 H 183.971 5.11455 2.89288 0
M  V30 1971 H 185.495 4.80207 3.77139 0
M  V30 1972 H 186.909 5.50214 1.61052 0
M  V30 1973 H 185.306 5.92648 0.942762 0
M  V30 1974 H 186.376 4.84892 0.0279022 0
M  V30 1975 N 187.719 -0.156864 1.56817 0
M  V30 1976 C 188.947 -0.886316 1.86955 0
M  V30 1977 C 189.362 -1.75185 0.703975 0
M  V30 1978 O 188.719 -1.79555 -0.326552 0
M  V30 1979 C 188.77 -1.75117 3.16253 0
M  V30 1980 O 188.491 -0.920537 4.2832 0
M  V30 1981 C 189.992 -2.58905 3.59837 0
M  V30 1982 H 187.212 -0.25678 0.619923 0
M  V30 1983 H 189.756 -0.152615 2.0393 0
M  V30 1984 H 187.911 -2.43805 3.01062 0
M  V30 1985 H 188.325 -1.51337 5.02192 0
M  V30 1986 H 189.799 -3.1518 4.53172 0
M  V30 1987 H 190.276 -3.34472 2.84649 0
M  V30 1988 H 190.882 -1.95526 3.7769 0
M  V30 1989 N 189.197 -1.51736 -0.425897 0
M  V30 1990 C 190.144 -1.73875 -1.51776 0
M  V30 1991 C 191.114 -0.580702 -1.55618 0
M  V30 1992 O 192.299 -0.81641 -1.72451 0
M  V30 1993 C 189.439 -1.88012 -2.89388 0
M  V30 1994 C 188.552 -3.15606 -2.94986 0
M  V30 1995 C 187.687 -3.20271 -4.23793 0
M  V30 1996 C 186.726 -4.42134 -4.23302 0
M  V30 1997 N 185.863 -4.44284 -5.43651 0
M  V30 1998 H 190.703 -2.67071 -1.32201 0
M  V30 1999 H 188.24 -1.32351 -0.642008 0
M  V30 2000 H 190.198 -1.9419 -3.69251 0
M  V30 2001 H 188.828 -0.98213 -3.07496 0
M  V30 2002 H 187.88 -3.18681 -2.07717 0
M  V30 2003 H 189.192 -4.05486 -2.90486 0
M  V30 2004 H 188.346 -3.25428 -5.12036 0
M  V30 2005 H 187.085 -2.28299 -4.30965 0
M  V30 2006 H 186.09 -4.3714 -3.3345 0
M  V30 2007 H 187.315 -5.35382 -4.17783 0
M  V30 2008 H 185.261 -3.55188 -5.51523 0
M  V30 2009 H 185.178 -5.27988 -5.41078 0
M  V30 2010 H 186.446 -4.53649 -6.33895 0
M  V30 2011 N 190.675 0.682077 -1.42076 0
M  V30 2012 C 191.622 1.79578 -1.44984 0
M  V30 2013 C 192.592 1.6332 -0.302614 0
M  V30 2014 O 193.777 1.83978 -0.505633 0
M  V30 2015 C 190.917 3.1756 -1.35091 0
M  V30 2016 C 190.03 3.45156 -2.59791 0
M  V30 2017 C 189.165 4.72826 -2.42093 0
M  V30 2018 C 188.204 4.93433 -3.62202 0
M  V30 2019 N 187.341 6.12338 -3.43491 0
M  V30 2020 H 192.181 1.76427 -2.40161 0
M  V30 2021 H 189.718 0.861376 -1.19242 0
M  V30 2022 H 191.676 3.97287 -1.27354 0
M  V30 2023 H 190.306 3.19854 -0.435133 0
M  V30 2024 H 189.358 2.59736 -2.77923 0
M  V30 2025 H 190.67 3.5628 -3.49094 0
M  V30 2026 H 189.824 5.60631 -2.319 0
M  V30 2027 H 188.563 4.63973 -1.50268 0
M  V30 2028 H 187.568 4.04073 -3.72834 0
M  V30 2029 H 188.793 5.04136 -4.54998 0
M  V30 2030 H 186.739 6.04672 -2.54377 0
M  V30 2031 H 186.656 6.2429 -4.26377 0
M  V30 2032 H 187.924 7.02841 -3.37097 0
M  V30 2033 N 192.153 1.28127 0.917671 0
M  V30 2034 C 193.101 1.11569 2.04096 0
M  V30 2035 C 194.095 0.0360242 1.69362 0
M  V30 2036 O 195.301 0.194501 1.78946 0
M  V30 2037 H 191.676 0.344097 0.668656 0
M  V30 2038 H 193.647 2.06711 2.15205 0
M  V30 2039 C 192.396 0.790197 3.38602 0
M  V30 2040 H 191.719 1.61293 3.6582 0
M  V30 2041 H 193.159 0.714271 4.1794 0
M  V30 2042 C 191.618 -0.505897 3.3308 0
M  V30 2043 O 192.148 -1.53736 3.71117 0
M  V30 2044 N 190.354 -0.505193 2.86175 0
M  V30 2045 H 189.901 0.334621 2.55417 0
M  V30 2046 H 189.859 -1.37243 2.82863 0
M  V30 2047 N 193.631 -1.12557 1.10312 0
M  V30 2048 C 195.047 -1.36036 0.834649 0
M  V30 2049 C 195.247 -1.93946 -0.546539 0
M  V30 2050 O 194.303 -2.16484 -1.29966 0
M  V30 2051 C 195.616 -2.30312 1.9333 0
M  V30 2052 C 197.164 -2.43906 1.9616 0
M  V30 2053 C 197.639 -3.41496 3.05195 0
M  V30 2054 N 199.13 -3.49053 3.04494 0
M  V30 2055 C 199.865 -4.24471 3.85502 0
M  V30 2056 N 199.361 -5.02966 4.76442 0
M  V30 2057 N 201.154 -4.19864 3.73725 0
M  V30 2058 H 193.305 -0.733246 1.99342 0
M  V30 2059 H 195.568 -0.385234 0.866198 0
M  V30 2060 H 195.274 -1.94933 2.92735 0
M  V30 2061 H 195.148 -3.30421 1.81939 0
M  V30 2062 H 197.535 -2.78567 0.973886 0
M  V30 2063 H 197.616 -1.4369 2.11629 0
M  V30 2064 H 197.26 -3.07565 4.04186 0
M  V30 2065 H 197.19 -4.41539 2.86968 0
M  V30 2066 H 199.681 -2.93053 2.38596 0
M  V30 2067 H 199.994 -5.57846 5.34815 0
M  V30 2068 H 198.339 -5.02167 4.80472 0
M  V30 2069 H 201.53 -3.57623 3.02032 0
M  V30 2070 H 201.703 -4.78386 4.37093 0
M  V30 2071 N 195.109 -0.891671 -1.2995 0
M  V30 2072 C 196.039 -0.379797 -2.30391 0
M  V30 2073 C 197.02 0.540919 -1.6127 0
M  V30 2074 O 198.205 0.453352 -1.88834 0
M  V30 2075 C 195.335 0.400654 -3.44981 0
M  V30 2076 C 194.289 -0.428905 -4.25846 0
M  V30 2077 C 193.615 0.478557 -5.32554 0
M  V30 2078 C 194.915 -1.67458 -4.94727 0
M  V30 2079 H 196.609 -1.21914 -2.73454 0
M  V30 2080 H 194.155 -0.587675 -1.31462 0
M  V30 2081 H 196.108 0.769434 -4.14316 0
M  V30 2082 H 194.832 1.27371 -3.0074 0
M  V30 2083 H 193.491 -0.779911 -3.58208 0
M  V30 2084 H 193.139 1.34951 -4.84559 0
M  V30 2085 H 192.839 -0.0727433 -5.87555 0
M  V30 2086 H 194.363 0.843705 -6.04743 0
M  V30 2087 H 195.777 -1.376 -5.56542 0
M  V30 2088 H 194.174 -2.16659 -5.59624 0
M  V30 2089 H 195.244 -2.41518 -4.20473 0
M  V30 2090 N 196.587 1.43421 -0.653314 0
M  V30 2091 C 197.998 1.85065 -0.246537 0
M  V30 2092 C 198.349 1.54688 1.2069 0
M  V30 2093 O 197.474 0.995896 1.92122 0
M  V30 2094 C 198.069 3.35922 -0.440666 0
M  V30 2095 C 196.628 3.76297 -0.0882064 0
M  V30 2096 C 195.775 2.67147 -0.743484 0
M  V30 2097 H 198.726 1.33572 -0.856979 0
M  V30 2098 H 198.747 3.79204 0.313798 0
M  V30 2099 H 198.259 3.58 -1.49858 0
M  V30 2100 H 196.36 3.5983 0.96711 0
M  V30 2101 H 196.473 4.76338 -0.513738 0
M  V30 2102 H 194.837 2.54086 -0.176712 0
M  V30 2103 H 195.62 2.92053 -1.80443 0
M  V30 2104 N 198.065 0.39524 1.52563 0
M  V30 2105 C 199.311 -0.185318 2.01952 0
M  V30 2106 C 199.644 -1.45964 1.28095 0
M  V30 2107 O 198.919 -1.90689 0.38315 0
M  V30 2108 C 199.202 -0.447193 3.57312 0
M  V30 2109 C 199.055 0.842828 4.41833 0
M  V30 2110 C 200.374 -1.23529 4.22408 0
M  V30 2111 H 197.493 -0.0658788 0.73405 0
M  V30 2112 H 200.135 0.525975 1.82575 0
M  V30 2113 H 198.285 -1.05312 3.73954 0
M  V30 2114 H 199.957 1.4795 4.36931 0
M  V30 2115 H 198.2 1.45686 4.08605 0
M  V30 2116 H 198.871 0.614165 5.48573 0
M  V30 2117 H 201.347 -0.722445 4.0978 0
M  V30 2118 H 200.223 -1.38727 5.3108 0
M  V30 2119 H 200.484 -2.25213 3.80436 0
M  V30 2120 N 199.544 -1.57102 0.125237 0
M  V30 2121 C 200.477 -2.11371 -0.860094 0
M  V30 2122 C 201.455 -1.03168 -1.25679 0
M  V30 2123 O 202.639 -1.30862 -1.35674 0
M  V30 2124 C 199.766 -2.61555 -2.1519 0
M  V30 2125 C 198.812 -3.81701 -1.9028 0
M  V30 2126 S 199.645 -5.23797 -1.11343 0
M  V30 2127 C 200.801 -5.77353 -2.41689 0
M  V30 2128 H 201.034 -2.94617 -0.39852 0
M  V30 2129 H 198.567 -1.54145 -0.0886555 0
M  V30 2130 H 200.525 -2.91122 -2.89411 0
M  V30 2131 H 199.186 -1.78479 -2.58465 0
M  V30 2132 H 198.379 -4.14985 -2.86014 0
M  V30 2133 H 197.981 -3.52783 -1.24178 0
M  V30 2134 H 200.273 -5.87458 -3.37489 0
M  V30 2135 H 201.216 -6.75323 -2.12942 0
M  V30 2136 H 201.624 -5.05457 -2.51342 0
M  V30 2137 N 201.022 0.148545 -1.56898 0
M  V30 2138 C 202.268 0.862694 -1.83536 0
M  V30 2139 C 202.601 1.80889 -0.706604 0
M  V30 2140 O 201.876 1.92328 0.289885 0
M  V30 2141 C 202.159 1.63853 -3.20662 0
M  V30 2142 C 202.012 0.713925 -4.44098 0
M  V30 2143 C 203.331 2.60133 -3.54991 0
M  V30 2144 H 200.45 0.312179 -0.667618 0
M  V30 2145 H 203.092 0.127953 -1.89569 0
M  V30 2146 H 201.242 2.26489 -3.1565 0
M  V30 2147 H 202.914 0.098686 -4.61194 0
M  V30 2148 H 201.157 0.0234019 -4.33794 0
M  V30 2149 H 201.828 1.29278 -5.36648 0
M  V30 2150 H 204.304 2.07616 -3.60603 0
M  V30 2151 H 203.18 3.11468 -4.51972 0
M  V30 2152 H 203.441 3.41417 -2.80868 0
M  V30 2153 N 202.5 1.5196 0.417844 0
M  V30 2154 C 203.746 1.66793 1.16411 0
M  V30 2155 C 204.101 0.388758 1.88432 0
M  V30 2156 O 203.394 -0.616409 1.81414 0
M  V30 2157 C 203.588 2.82269 2.19223 0
M  V30 2158 C 203.417 4.21293 1.57297 0
M  V30 2159 C 202.187 4.86948 1.34944 0
M  V30 2160 C 204.385 5.03704 1.03858 0
M  V30 2161 N 202.367 6.1003 0.688195 0
M  V30 2162 C 203.738 6.1795 0.503742 0
M  V30 2163 C 205.793 4.89095 0.932203 0
M  V30 2164 C 204.496 7.19188 -0.127034 0
M  V30 2165 C 206.522 5.90559 0.315293 0
M  V30 2166 C 205.884 7.0409 -0.208906 0
M  V30 2167 H 201.983 0.66407 0.412959 0
M  V30 2168 H 204.567 1.89242 0.457772 0
M  V30 2169 H 202.738 2.61451 2.87225 0
M  V30 2170 H 204.47 2.86183 2.86149 0
M  V30 2171 H 201.225 4.45156 1.61657 0
M  V30 2172 H 201.649 6.75964 0.374449 0
M  V30 2173 H 206.291 4.01557 1.32332 0
M  V30 2174 H 204.009 8.06359 -0.530231 0
M  V30 2175 H 207.595 5.81327 0.234625 0
M  V30 2176 H 206.475 7.81257 -0.67875 0
M  V30 2177 N 203.978 -0.674533 1.42435 0
M  V30 2178 C 205.227 -1.43034 1.42212 0
M  V30 2179 C 205.54 -1.95555 0.0420788 0
M  V30 2180 O 206.746 -2.71374 -0.0827558 0
M  V30 2181 C 205.202 -2.58748 2.50155 0
M  V30 2182 C 204.81 -2.12925 3.94166 0
M  V30 2183 C 206.554 -3.36257 2.59098 0
M  V30 2184 C 204.461 -3.25723 4.93618 0
M  V30 2185 H 203.391 -0.537345 0.528939 0
M  V30 2186 H 206.042 -0.73024 1.68344 0
M  V30 2187 H 204.424 -3.31128 2.17188 0
M  V30 2188 H 205.598 -1.47697 4.36488 0
M  V30 2189 H 203.913 -1.48354 3.89076 0
M  V30 2190 H 206.51 -4.20264 3.30578 0
M  V30 2191 H 206.853 -3.82866 1.63461 0
M  V30 2192 H 207.386 -2.70947 2.9126 0
M  V30 2193 H 204.125 -2.84105 5.90732 0
M  V30 2194 H 203.645 -3.89732 4.55926 0
M  V30 2195 H 205.324 -3.91186 5.15347 0
M  V30 2196 N 205.456 -1.28612 -0.910864 0
M  V30 2197 C 206.406 -1.09423 -2.00026 0
M  V30 2198 C 207.39 -0.0170079 -1.60891 0
M  V30 2199 O 208.582 -0.237472 -1.754 0
M  V30 2200 C 205.711 -0.76114 -3.34756 0
M  V30 2201 C 204.797 -1.87735 -3.80285 0
M  V30 2202 N 205.188 -3.11938 -3.98156 0
M  V30 2203 C 203.486 -1.76786 -4.09467 0
M  V30 2204 C 204.187 -3.84687 -4.36338 0
M  V30 2205 N 203.163 -3.12555 -4.44759 0
M  V30 2206 H 206.965 -2.03658 -2.11898 0
M  V30 2207 H 204.479 -1.19573 -1.09891 0
M  V30 2208 H 206.476 -0.604743 -4.12491 0
M  V30 2209 H 205.136 0.173403 -3.24237 0
M  V30 2210 H 206.147 -3.47516 -3.83996 0
M  V30 2211 H 202.824 -0.905284 -4.07567 0
M  V30 2212 H 204.214 -4.91518 -4.58104 0
M  V30 2213 N 206.934 1.1197 -1.10907 0
M  V30 2214 C 208.182 1.83225 -0.852819 0
M  V30 2215 C 208.503 1.84769 0.623341 0
M  V30 2216 O 207.773 1.3143 1.45269 0
M  V30 2217 H 206.353 0.67849 -0.312507 0
M  V30 2218 H 209.015 1.3556 -1.40033 0
M  V30 2219 H 208.111 2.87265 -1.22005 0
M  V30 2220 N 208.412 0.89855 1.29475 0
M  V30 2221 C 209.66 0.522847 1.9522 0
M  V30 2222 C 209.981 -0.93371 1.71192 0
M  V30 2223 O 209.251 -1.65823 1.04305 0
M  V30 2224 H 207.831 0.190366 0.722336 0
M  V30 2225 H 210.493 1.14459 1.5775 0
M  V30 2226 H 209.589 0.704476 3.04045 0
M  V30 2227 N 209.89 -1.43072 0.660911 0
M  V30 2228 C 211.138 -2.01323 0.177094 0
M  V30 2229 C 211.459 -1.5245 -1.2159 0
M  V30 2230 O 210.729 -0.740322 -1.81373 0
M  V30 2231 H 209.309 -0.744382 0.0624804 0
M  V30 2232 H 211.971 -1.75179 0.854305 0
M  V30 2233 H 211.067 -3.11649 0.167641 0
M  V30 2234 N 211.368 -0.403325 -1.52352 0
M  V30 2235 C 212.298 0.416205 -2.29761 0
M  V30 2236 C 213.279 1.05123 -1.33728 0
M  V30 2237 O 214.464 1.06134 -1.62632 0
M  V30 2238 C 211.594 1.53624 -3.11475 0
M  V30 2239 C 210.548 1.02653 -4.15507 0
M  V30 2240 C 209.874 2.23971 -4.85532 0
M  V30 2241 C 211.174 0.08463 -5.22231 0
M  V30 2242 H 212.868 -0.229701 -2.98518 0
M  V30 2243 H 210.414 -0.111913 -1.43564 0
M  V30 2244 H 212.367 2.1165 -3.64393 0
M  V30 2245 H 211.091 2.20994 -2.40477 0
M  V30 2246 H 209.75 0.46871 -3.63591 0
M  V30 2247 H 209.398 2.89883 -4.11068 0
M  V30 2248 H 209.098 1.90521 -5.55856 0
M  V30 2249 H 210.622 2.82614 -5.41259 0
M  V30 2250 H 212.036 0.573509 -5.70424 0
M  V30 2251 H 210.433 -0.160783 -5.99885 0
M  V30 2252 H 211.503 -0.86237 -4.7717 0
M  V30 2253 N 212.846 1.57033 -0.133567 0
M  V30 2254 C 213.779 2.11824 0.848872 0
M  V30 2255 C 214.757 1.03833 1.2513 0
M  V30 2256 O 215.941 1.31579 1.34978 0
M  V30 2257 C 213.068 2.62692 2.138 0
M  V30 2258 C 212.114 3.82705 1.88253 0
M  V30 2259 S 212.947 5.2438 1.08563 0
M  V30 2260 C 214.103 5.78627 2.38624 0
M  V30 2261 H 214.336 2.94824 0.38289 0
M  V30 2262 H 211.869 1.5419 0.0804796 0
M  V30 2263 H 213.827 2.92652 2.87863 0
M  V30 2264 H 212.488 1.79847 2.57515 0
M  V30 2265 H 211.681 4.16496 2.83809 0
M  V30 2266 H 211.283 3.53437 1.22305 0
M  V30 2267 H 213.575 5.8924 3.34369 0
M  V30 2268 H 214.518 6.76443 2.09358 0
M  V30 2269 H 214.926 5.06783 2.48658 0
M  V30 2270 N 214.325 -0.140222 1.56975 0
M  V30 2271 C 215.571 -0.852949 1.83991 0
M  V30 2272 C 215.904 -1.80512 0.716187 0
M  V30 2273 O 215.179 -1.92479 -0.279681 0
M  V30 2274 C 215.462 -1.6215 3.21527 0
M  V30 2275 C 215.315 -0.690363 4.4447 0
M  V30 2276 C 216.634 -2.58247 3.56366 0
M  V30 2277 H 213.753 -0.308634 0.669264 0
M  V30 2278 H 216.395 -0.117898 1.89634 0
M  V30 2279 H 214.545 -2.24812 3.16847 0
M  V30 2280 H 216.217 -0.0742264 4.6124 0
M  V30 2281 H 214.46 -0.000396433 4.338 0
M  V30 2282 H 215.131 -1.2643 5.37326 0
M  V30 2283 H 217.607 -2.05701 3.61699 0
M  V30 2284 H 216.483 -3.09067 4.53617 0
M  V30 2285 H 216.744 -3.39923 2.82674 0
M  V30 2286 N 215.803 -1.52179 -0.40978 0
M  V30 2287 C 217.051 -1.65878 -1.15451 0
M  V30 2288 C 217.372 -0.390771 -1.91044 0
M  V30 2289 O 216.642 0.594323 -1.86667 0
M  V30 2290 H 215.222 -0.611405 -0.429177 0
M  V30 2291 H 217.884 -1.89219 -0.467134 0
M  V30 2292 H 216.98 -2.49954 -1.86894 0
M  V30 2293 N 217.281 0.66697 -1.42791 0
M  V30 2294 C 218.244 1.76211 -1.46568 0
M  V30 2295 C 219.244 1.56896 -0.352196 0
M  V30 2296 O 220.434 1.63044 -0.613364 0
M  V30 2297 C 217.566 3.14935 -1.30494 0
M  V30 2298 H 218.759 1.74247 -2.44086 0
M  V30 2299 H 216.312 0.877342 -1.29354 0
M  V30 2300 H 217.047 3.2252 -0.339301 0
M  V30 2301 H 216.832 3.30359 -2.11199 0
M  V30 2302 H 218.322 3.94821 -1.36038 0
M  V30 2303 N 218.759 1.29093 0.90403 0
M  V30 2304 C 219.722 1.1386 1.98919 0
M  V30 2305 C 220.722 0.0753457 1.60623 0
M  V30 2306 O 221.912 0.321931 1.71199 0
M  V30 2307 C 219.044 0.740198 3.32767 0
M  V30 2308 H 220.237 2.10246 2.13861 0
M  V30 2309 H 217.79 1.12218 1.08797 0
M  V30 2310 H 218.525 -0.223997 3.23525 0
M  V30 2311 H 218.31 1.50838 3.61926 0
M  V30 2312 H 219.8 0.656546 4.12407 0
M  V30 2313 N 220.237 -1.11381 1.11499 0
M  V30 2314 C 221.462 -1.87475 0.887019 0
M  V30 2315 C 221.887 -1.79639 -0.557796 0
M  V30 2316 O 221.245 -1.15924 -1.39396 0
M  V30 2317 C 221.293 -3.34213 1.35403 0
M  V30 2318 O 220.397 -4.0903 0.526146 0
M  V30 2319 H 219.738 -0.582099 0.319463 0
M  V30 2320 H 222.268 -1.40785 1.48461 0
M  V30 2321 H 222.278 -3.8506 1.34881 0
M  V30 2322 H 220.953 -3.39232 2.40612 0
M  V30 2323 H 219.53 -3.68082 0.597522 0
M  V30 2324 N 221.715 -0.905404 -1.28997 0
M  V30 2325 C 222.943 -0.549846 -1.9946 0
M  V30 2326 C 223.358 0.866834 -1.67724 0
M  V30 2327 O 222.715 1.57298 -0.925404 0
M  V30 2328 C 222.766 -0.739387 -3.53858 0
M  V30 2329 O 222.487 -2.10031 -3.84472 0
M  V30 2330 C 223.988 -0.389541 -4.41585 0
M  V30 2331 H 221.208 -0.210429 -0.637151 0
M  V30 2332 H 223.752 -1.21632 -1.64396 0
M  V30 2333 H 221.907 -0.120023 -3.87214 0
M  V30 2334 H 222.321 -2.13385 -4.79132 0
M  V30 2335 H 223.795 -0.572972 -5.49018 0
M  V30 2336 H 224.272 0.673756 -4.34001 0
M  V30 2337 H 224.878 -0.986089 -4.1371 0
M  V30 2338 N 223.193 1.4272 -0.668489 0
M  V30 2339 C 224.423 2.05668 -0.196063 0
M  V30 2340 C 224.831 1.5028 1.14946 0
M  V30 2341 O 224.174 0.6348 1.72383 0
M  V30 2342 C 224.236 3.59469 -0.0468879 0
M  V30 2343 C 223.9 4.37518 -1.32012 0
M  V30 2344 C 224.897 4.68584 -2.25222 0
M  V30 2345 C 222.582 4.77266 -1.56596 0
M  V30 2346 C 224.576 5.38326 -3.41297 0
M  V30 2347 C 222.263 5.4675 -2.72962 0
M  V30 2348 C 223.261 5.77204 -3.65137 0
M  V30 2349 O 222.949 6.45264 -4.79468 0
M  V30 2350 H 222.681 0.669382 -0.0943599 0
M  V30 2351 H 225.235 1.83954 -0.913788 0
M  V30 2352 H 223.465 3.79817 0.726357 0
M  V30 2353 H 225.154 4.04071 0.384852 0
M  V30 2354 H 225.92 4.38382 -2.07477 0
M  V30 2355 H 221.799 4.52959 -0.857249 0
M  V30 2356 H 225.343 5.62014 -4.13263 0
M  V30 2357 H 221.24 5.76369 -2.90635 0
M  V30 2358 H 222.008 6.63753 -4.78931 0
M  V30 2359 N 224.671 0.411399 1.52136 0
M  V30 2360 C 225.948 -0.222308 1.94333 0
M  V30 2361 C 226.328 -1.6242 1.34844 0
M  V30 2362 O 225.676 -2.22384 0.525145 0
M  V30 2363 C 225.886 -0.226345 3.48265 0
M  V30 2364 C 227.234 -0.444592 4.22266 0
M  V30 2365 O 228.258 -0.305602 3.54887 0
M  V30 2366 O 227.117 -0.718749 5.41753 0
M  V30 2367 H 224.211 -0.143907 0.814383 0
M  V30 2368 H 226.757 0.467506 1.63133 0
M  V30 2369 H 225.529 0.75475 3.83952 0
M  V30 2370 H 225.152 -0.960163 3.85832 0
M  V30 2371 N 226.149 -1.5696 0.141893 0
M  V30 2372 C 227.397 -1.95573 -0.509484 0
M  V30 2373 C 227.718 -1.02746 -1.65736 0
M  V30 2374 O 226.988 -0.0880311 -1.95702 0
M  V30 2375 H 225.568 -0.722115 -0.191205 0
M  V30 2376 H 228.23 -1.93697 0.216196 0
M  V30 2377 H 227.326 -2.99171 -0.889 0
M  V30 2378 N 227.627 0.131896 -1.57047 0
M  V30 2379 C 228.557 1.16384 -2.02428 0
M  V30 2380 C 229.538 1.43936 -0.90644 0
M  V30 2381 O 230.723 1.54599 -1.17528 0
M  V30 2382 C 227.853 2.49328 -2.4177 0
M  V30 2383 C 226.807 2.36266 -3.56879 0
M  V30 2384 C 226.133 3.74057 -3.8208 0
M  V30 2385 C 227.433 1.834 -4.89042 0
M  V30 2386 H 229.127 0.786433 -2.88887 0
M  V30 2387 H 226.673 0.376855 -1.38981 0
M  V30 2388 H 228.626 3.21759 -2.7212 0
M  V30 2389 H 227.35 2.88934 -1.52266 0
M  V30 2390 H 226.009 1.66286 -3.26718 0
M  V30 2391 H 225.657 4.11125 -2.89803 0
M  V30 2392 H 225.357 3.66174 -4.59554 0
M  V30 2393 H 226.881 4.48012 -4.1487 0
M  V30 2394 H 228.295 2.45636 -5.18011 0
M  V30 2395 H 226.692 1.8637 -5.70426 0
M  V30 2396 H 227.762 0.790662 -4.7841 0
M  V30 2397 N 229.106 1.52395 0.401703 0
M  V30 2398 C 230.069 1.75636 1.47257 0
M  V30 2399 C 231.069 0.62628 1.48103 0
M  V30 2400 O 232.259 0.894227 1.49497 0
M  V30 2401 C 229.391 1.84553 2.86624 0
M  V30 2402 H 230.584 2.71241 1.27938 0
M  V30 2403 H 228.137 1.42923 0.632662 0
M  V30 2404 H 228.872 0.908882 3.11303 0
M  V30 2405 H 228.657 2.66715 2.87412 0
M  V30 2406 H 230.147 2.04251 3.64241 0
M  V30 2407 N 230.584 -0.659388 1.43143 0
M  V30 2408 C 231.514 -1.78422 1.50625 0
M  V30 2409 C 232.495 -1.66216 0.361443 0
M  V30 2410 O 233.68 -1.85404 0.577834 0
M  V30 2411 C 230.81 -3.16815 1.42287 0
M  V30 2412 C 229.764 -3.43777 2.54954 0
M  V30 2413 C 229.09 -4.81905 2.31671 0
M  V30 2414 C 230.39 -3.39134 3.97222 0
M  V30 2415 H 232.084 -1.72417 2.44771 0
M  V30 2416 H 229.63 -0.828084 1.17808 0
M  V30 2417 H 231.583 -3.95253 1.46127 0
M  V30 2418 H 230.307 -3.23534 0.446435 0
M  V30 2419 H 228.966 -2.67707 2.50457 0
M  V30 2420 H 228.614 -4.85294 1.32284 0
M  V30 2421 H 228.314 -5.00906 3.07192 0
M  V30 2422 H 229.838 -5.62609 2.37284 0
M  V30 2423 H 231.252 -4.07518 4.03239 0
M  V30 2424 H 229.649 -3.69671 4.72719 0
M  V30 2425 H 230.719 -2.37426 4.22797 0
M  V30 2426 N 232.062 -1.29571 -0.897171 0
M  V30 2427 C 233.025 -1.14913 -1.98312 0
M  V30 2428 C 234.025 -0.0838629 -1.60581 0
M  V30 2429 O 235.215 -0.331006 -1.71026 0
M  V30 2430 C 232.347 -0.757835 -3.3237 0
M  V30 2431 H 233.54 -2.11377 -2.12743 0
M  V30 2432 H 231.093 -1.12793 -1.08201 0
M  V30 2433 H 231.828 0.206837 -3.2364 0
M  V30 2434 H 231.613 -1.52755 -3.61121 0
M  V30 2435 H 233.103 -0.678408 -4.12053 0
M  V30 2436 N 233.54 1.10788 -1.12088 0
M  V30 2437 C 234.503 2.15207 -0.788577 0
M  V30 2438 C 235.503 1.59609 0.195317 0
M  V30 2439 O 236.693 1.74174 -0.0300193 0
M  V30 2440 C 233.825 3.4047 -0.171174 0
M  V30 2441 H 235.018 2.46116 -1.71368 0
M  V30 2442 H 232.571 1.26089 -0.923652 0
M  V30 2443 H 233.306 3.15176 0.763832 0
M  V30 2444 H 233.091 3.82109 -0.879514 0
M  V30 2445 H 234.581 4.17576 0.04496 0
M  V30 2446 N 235.018 0.912232 1.28515 0
M  V30 2447 C 235.968 0.370649 2.24967 0
M  V30 2448 C 236.952 -0.516375 1.52389 0
M  V30 2449 O 238.144 -0.356345 1.73376 0
M  V30 2450 C 235.273 -0.389526 3.41083 0
M  V30 2451 C 234.359 0.51313 4.20984 0
M  V30 2452 N 234.75 1.62604 4.78951 0
M  V30 2453 C 233.048 0.313235 4.44899 0
M  V30 2454 C 233.749 2.18619 5.39055 0
M  V30 2455 N 232.725 1.47765 5.23132 0
M  V30 2456 H 236.527 1.22061 2.67354 0
M  V30 2457 H 234.041 0.764712 1.43269 0
M  V30 2458 H 236.038 -0.794353 4.09262 0
M  V30 2459 H 234.698 -1.2366 3.0023 0
M  V30 2460 H 235.709 2.00864 4.77362 0
M  V30 2461 H 232.386 -0.494452 4.14562 0
M  V30 2462 H 233.776 3.12228 5.94948 0
M  V30 2463 N 236.496 -1.42363 0.676048 0
M  V30 2464 C 237.406 -2.346 -0.00153389 0
M  V30 2465 C 238.422 -1.5516 -0.787485 0
M  V30 2466 O 239.598 -1.87723 -0.729521 0
M  V30 2467 C 236.663 -3.33705 -0.940298 0
M  V30 2468 C 235.724 -4.29042 -0.148739 0
M  V30 2469 C 234.957 -5.23413 -1.04279 0
M  V30 2470 O 235.18 -5.22749 -2.28232 0
M  V30 2471 O 234.114 -5.99795 -0.502925 0
M  V30 2472 H 237.94 -2.94082 0.758268 0
M  V30 2473 H 235.525 -1.42888 0.436289 0
M  V30 2474 H 237.407 -3.94586 -1.47917 0
M  V30 2475 H 236.082 -2.76695 -1.67993 0
M  V30 2476 H 234.989 -3.71571 0.43427 0
M  V30 2477 H 236.322 -4.89097 0.551805 0
M  V30 2478 N 237.974 -0.419461 -1.51915 0
M  V30 2479 C 238.922 0.415502 -2.28859 0
M  V30 2480 C 239.916 1.03674 -1.3397 0
M  V30 2481 O 241.122 0.973757 -1.51387 0
M  V30 2482 H 237.497 0.152786 -0.736315 0
M  V30 2483 H 239.468 -0.254531 -2.97312 0
M  V30 2484 C 238.217 1.51425 -3.12995 0
M  V30 2485 H 237.54 1.04556 -3.85886 0
M  V30 2486 H 238.98 2.07208 -3.6992 0
M  V30 2487 C 237.439 2.48745 -2.27217 0
M  V30 2488 O 237.969 3.52871 -1.9195 0
M  V30 2489 N 236.175 2.19202 -1.90785 0
M  V30 2490 H 235.722 1.34556 -2.19664 0
M  V30 2491 H 235.68 2.84561 -1.33687 0
M  V30 2492 N 239.452 1.56882 -0.150215 0
M  V30 2493 C 240.698 1.96518 0.500834 0
M  V30 2494 C 241.031 1.03527 1.64304 0
M  V30 2495 O 240.306 0.0782751 1.94342 0
M  V30 2496 C 240.589 3.45822 1.00395 0
M  V30 2497 C 240.442 4.49591 -0.136983 0
M  V30 2498 C 241.761 3.97704 1.88467 0
M  V30 2499 H 238.88 0.714535 0.18058 0
M  V30 2500 H 241.522 1.88577 -0.232091 0
M  V30 2501 H 239.672 3.5272 1.62851 0
M  V30 2502 H 241.344 4.5477 -0.77343 0
M  V30 2503 H 239.587 4.26441 -0.795652 0
M  V30 2504 H 240.258 5.51402 0.256815 0
M  V30 2505 H 242.734 3.93304 1.35834 0
M  V30 2506 H 241.61 5.0263 2.20578 0
M  V30 2507 H 241.871 3.40252 2.82279 0
M  V30 2508 N 240.93 -0.123565 1.57115 0
M  V30 2509 C 242.176 -0.833386 1.84885 0
M  V30 2510 C 242.509 -1.79742 0.735292 0
M  V30 2511 O 241.784 -1.92764 -0.25925 0
M  V30 2512 C 242.067 -1.5873 3.23228 0
M  V30 2513 C 241.92 -0.643183 4.45178 0
M  V30 2514 C 243.239 -2.54453 3.59085 0
M  V30 2515 H 240.358 -0.301518 0.6725 0
M  V30 2516 H 243 -0.097778 1.89748 0
M  V30 2517 H 241.15 -2.21438 3.19214 0
M  V30 2518 H 242.822 -0.0253015 4.61293 0
M  V30 2519 H 241.065 0.0456139 4.33776 0
M  V30 2520 H 241.736 -1.20724 5.38637 0
M  V30 2521 H 244.212 -2.01853 3.63861 0
M  V30 2522 H 243.088 -3.04238 4.5687 0
M  V30 2523 H 243.349 -3.36906 2.86264 0
M  V30 2524 N 242.408 -1.52605 -0.393616 0
M  V30 2525 C 243.654 -1.67672 -1.14079 0
M  V30 2526 C 243.987 -0.413121 -1.89755 0
M  V30 2527 O 243.262 0.588952 -1.85369 0
M  V30 2528 C 243.545 -2.9088 -2.12276 0
M  V30 2529 C 243.398 -4.27329 -1.40394 0
M  V30 2530 C 244.717 -3.09628 -3.12759 0
M  V30 2531 H 241.836 -0.610168 -0.413356 0
M  V30 2532 H 244.478 -1.85193 -0.424696 0
M  V30 2533 H 242.628 -2.76073 -2.73342 0
M  V30 2534 H 244.3 -4.53894 -0.82327 0
M  V30 2535 H 242.543 -4.2802 -0.705801 0
M  V30 2536 H 243.214 -5.09615 -2.12123 0
M  V30 2537 H 245.69 -3.23436 -2.61779 0
M  V30 2538 H 244.566 -3.97322 -3.78717 0
M  V30 2539 H 244.827 -2.23637 -3.81365 0
M  V30 2540 N 243.887 0.651787 -1.4349 0
M  V30 2541 C 245.133 1.41376 -1.45398 0
M  V30 2542 C 245.466 1.94041 -0.0784823 0
M  V30 2543 O 244.741 1.72379 0.900878 0
M  V30 2544 C 245.024 2.59414 -2.49752 0
M  V30 2545 C 244.877 2.12232 -3.96582 0
M  V30 2546 C 246.196 3.61626 -2.50827 0
M  V30 2547 H 243.315 0.512719 -0.529422 0
M  V30 2548 H 245.957 0.738796 -1.75048 0
M  V30 2549 H 244.107 3.16997 -2.246 0
M  V30 2550 H 245.779 1.59639 -4.32797 0
M  V30 2551 H 244.022 1.43592 -4.09346 0
M  V30 2552 H 244.693 2.9712 -4.65214 0
M  V30 2553 H 247.169 3.13805 -2.7325 0
M  V30 2554 H 246.045 4.41766 -3.25783 0
M  V30 2555 H 246.306 4.14314 -1.5426 0
M  V30 2556 N 245.365 1.30045 0.890287 0
M  V30 2557 C 246.593 1.21472 1.67487 0
M  V30 2558 C 247.008 -0.223241 1.87476 0
M  V30 2559 O 246.365 -1.14828 1.41847 0
M  V30 2560 C 246.416 1.93394 3.05419 0
M  V30 2561 O 246.137 3.31576 2.86337 0
M  V30 2562 C 247.638 1.91414 3.99844 0
M  V30 2563 H 244.858 0.420604 0.522813 0
M  V30 2564 H 247.402 1.7158 1.11268 0
M  V30 2565 H 245.557 1.47099 3.58386 0
M  V30 2566 H 245.971 3.67929 3.73802 0
M  V30 2567 H 247.445 2.46285 4.94012 0
M  V30 2568 H 247.922 0.891833 4.3005 0
M  V30 2569 H 248.528 2.37496 3.52811 0
M  V30 2570 N 246.843 -1.10192 1.12674 0
M  V30 2571 C 248.092 -1.81573 0.8783 0
M  V30 2572 C 248.405 -1.86249 -0.597557 0
M  V30 2573 O 249.611 -2.5386 -0.962681 0
M  V30 2574 C 248.067 -3.26149 1.52167 0
M  V30 2575 C 247.675 -3.29763 3.03249 0
M  V30 2576 C 249.419 -4.0234 1.3536 0
M  V30 2577 C 247.326 -4.68815 3.60508 0
M  V30 2578 H 246.256 -0.680394 0.324931 0
M  V30 2579 H 248.907 -1.23902 1.35353 0
M  V30 2580 H 247.289 -3.83832 0.974104 0
M  V30 2581 H 248.463 -2.8189 3.6452 0
M  V30 2582 H 246.778 -2.67059 3.19481 0
M  V30 2583 H 249.375 -5.05058 1.75559 0
M  V30 2584 H 249.718 -4.15235 0.297554 0
M  V30 2585 H 250.251 -3.51079 1.87052 0
M  V30 2586 H 246.99 -4.61121 4.65884 0
M  V30 2587 H 246.51 -5.17045 3.04014 0
M  V30 2588 H 248.189 -5.37785 3.59717 0
M  V30 2589 N 248.321 -0.919034 -1.28029 0
M  V30 2590 C 249.253 -0.368762 -2.26214 0
M  V30 2591 C 250.266 0.495716 -1.55069 0
M  V30 2592 O 251.455 0.30974 -1.75792 0
M  V30 2593 C 248.555 0.491049 -3.35324 0
M  V30 2594 C 247.728 -0.352133 -4.3598 0
M  V30 2595 C 246.787 0.443622 -5.24327 0
M  V30 2596 O 245.813 -0.14566 -5.69014 0
M  V30 2597 N 247.015 1.74545 -5.53637 0
M  V30 2598 H 249.78 -1.21273 -2.74068 0
M  V30 2599 H 247.341 -0.785541 -1.41566 0
M  V30 2600 H 249.333 1.03026 -3.91366 0
M  V30 2601 H 247.903 1.23574 -2.87138 0
M  V30 2602 H 247.123 -1.07269 -3.79324 0
M  V30 2603 H 248.411 -0.928883 -5.00249 0
M  V30 2604 H 247.809 2.24666 -5.19174 0
M  V30 2605 H 246.366 2.23138 -6.12416 0
M  V30 2606 N 249.799 1.42003 -0.683588 0
M  V30 2607 C 251.029 2.05448 -0.217866 0
M  V30 2608 C 251.437 1.51491 1.13346 0
M  V30 2609 O 250.78 0.653048 1.717 0
M  V30 2610 C 250.842 3.59399 -0.0850118 0
M  V30 2611 C 250.506 4.36093 -1.36645 0
M  V30 2612 C 251.503 4.66169 -2.30179 0
M  V30 2613 C 249.188 4.75578 -1.61649 0
M  V30 2614 C 251.182 5.34676 -3.46988 0
M  V30 2615 C 248.869 5.43824 -2.78745 0
M  V30 2616 C 249.867 5.73299 -3.71238 0
M  V30 2617 O 249.555 6.40142 -4.86285 0
M  V30 2618 H 249.287 0.668344 -0.101454 0
M  V30 2619 H 251.841 1.82974 -0.933248 0
M  V30 2620 H 250.071 3.80566 0.686031 0
M  V30 2621 H 251.76 4.04457 0.341973 0
M  V30 2622 H 252.526 4.36156 -2.12115 0
M  V30 2623 H 248.405 4.52025 -0.905243 0
M  V30 2624 H 251.949 5.57599 -4.19201 0
M  V30 2625 H 247.846 5.73254 -2.96732 0
M  V30 2626 H 248.614 6.58636 -4.85944 0
M  V30 2627 N 251.277 0.427512 1.51691 0
M  V30 2628 C 252.693 0.0792977 1.59403 0
M  V30 2629 C 252.893 -1.41035 1.43914 0
M  V30 2630 O 251.949 -2.17922 1.27539 0
M  V30 2631 C 253.262 0.590636 2.94842 0
M  V30 2632 C 254.81 0.550215 3.08126 0
M  V30 2633 C 255.285 1.03836 4.46074 0
M  V30 2634 N 256.776 0.995943 4.52366 0
M  V30 2635 C 257.511 1.34463 5.57411 0
M  V30 2636 N 257.007 1.76569 6.69922 0
M  V30 2637 N 258.8 1.26343 5.47717 0
M  V30 2638 H 250.951 1.39687 1.60004 0
M  V30 2639 H 253.214 0.575003 0.753708 0
M  V30 2640 H 252.92 1.63251 3.11516 0
M  V30 2641 H 252.794 0.0102061 3.77199 0
M  V30 2642 H 255.181 -0.482654 2.91126 0
M  V30 2643 H 255.262 1.16693 2.27632 0
M  V30 2644 H 254.906 2.06965 4.63819 0
M  V30 2645 H 254.836 0.398286 5.25092 0
M  V30 2646 H 257.327 0.68661 3.7161 0
M  V30 2647 H 257.64 2.01438 7.46085 0
M  V30 2648 H 255.985 1.80488 6.71155 0
M  V30 2649 H 259.176 0.933209 4.58703 0
M  V30 2650 H 259.349 1.53846 6.29472 0
M  V30 2651 N 252.755 -1.56801 0.158532 0
M  V30 2652 C 253.685 -2.20347 -0.772609 0
M  V30 2653 C 254.666 -1.15518 -1.24859 0
M  V30 2654 O 255.851 -1.43902 -1.30406 0
M  V30 2655 C 252.981 -2.83417 -2.00729 0
M  V30 2656 C 251.935 -3.94174 -1.66765 0
M  V30 2657 C 251.261 -4.44233 -2.97592 0
M  V30 2658 C 252.561 -5.14392 -0.905447 0
M  V30 2659 H 254.255 -2.98413 -0.242959 0
M  V30 2660 H 251.801 -1.43537 -0.115419 0
M  V30 2661 H 253.754 -3.26543 -2.6636 0
M  V30 2662 H 252.478 -2.02701 -2.56086 0
M  V30 2663 H 251.137 -3.51684 -1.03508 0
M  V30 2664 H 250.785 -3.60325 -3.50963 0
M  V30 2665 H 250.485 -5.18945 -2.75626 0
M  V30 2666 H 252.009 -4.90037 -3.64274 0
M  V30 2667 H 253.423 -5.5429 -1.46408 0
M  V30 2668 H 251.82 -5.9494 -0.7853 0
M  V30 2669 H 252.89 -4.84795 0.100668 0
M  V30 2670 N 254.233 0.115231 -1.57178 0
M  V30 2671 C 255.481 0.820727 -1.84685 0
M  V30 2672 C 255.802 1.80237 -0.744279 0
M  V30 2673 O 255.072 1.94529 0.231375 0
M  V30 2674 H 253.652 0.306084 -0.681411 0
M  V30 2675 H 256.314 0.101656 -1.94635 0
M  V30 2676 H 255.41 1.36366 -2.80733 0
M  V30 2677 N 255.711 1.52812 0.385517 0
M  V30 2678 C 256.96 1.67249 1.12741 0
M  V30 2679 C 257.273 0.4205 1.91027 0
M  V30 2680 O 258.479 0.445064 2.67827 0
M  V30 2681 C 256.935 2.95583 2.05326 0
M  V30 2682 C 256.543 4.27974 1.32447 0
M  V30 2683 C 258.287 3.19386 2.7963 0
M  V30 2684 C 256.194 5.47412 2.23818 0
M  V30 2685 H 255.124 0.6231 0.424573 0
M  V30 2686 H 257.775 1.79309 0.389924 0
M  V30 2687 H 256.157 2.77277 2.82725 0
M  V30 2688 H 257.331 4.56844 0.602495 0
M  V30 2689 H 255.646 4.10459 0.700885 0
M  V30 2690 H 258.243 4.05801 3.48181 0
M  V30 2691 H 258.586 2.34604 3.43899 0
M  V30 2692 H 259.119 3.38274 2.09322 0
M  V30 2693 H 255.858 6.34612 1.64157 0
M  V30 2694 H 255.378 5.22849 2.93921 0
M  V30 2695 H 257.057 5.81423 2.83824 0
M  V30 2696 N 257.189 -0.644168 1.43834 0
M  V30 2697 C 258.435 -1.40431 1.47141 0
M  V30 2698 C 258.79 -1.92153 0.0975577 0
M  V30 2699 O 258.083 -1.69924 -0.885232 0
M  V30 2700 C 258.277 -2.59615 2.45631 0
M  V30 2701 C 258.106 -2.1956 3.92458 0
M  V30 2702 C 256.876 -2.07456 4.60749 0
M  V30 2703 C 259.074 -1.79281 4.8204 0
M  V30 2704 N 257.056 -1.60827 5.92459 0
M  V30 2705 C 258.427 -1.43801 6.03093 0
M  V30 2706 C 260.482 -1.66545 4.6922 0
M  V30 2707 C 259.185 -0.968599 7.12749 0
M  V30 2708 C 261.211 -1.21008 5.78888 0
M  V30 2709 C 260.573 -0.864711 6.99072 0
M  V30 2710 H 256.672 -0.509182 0.593513 0
M  V30 2711 H 259.256 -0.740351 1.80075 0
M  V30 2712 H 257.427 -3.23658 2.1471 0
M  V30 2713 H 259.159 -3.26357 2.39318 0
M  V30 2714 H 255.914 -2.275 4.1538 0
M  V30 2715 H 256.338 -1.39848 6.62398 0
M  V30 2716 H 260.98 -1.91883 3.7675 0
M  V30 2717 H 258.698 -0.702715 8.05039 0
M  V30 2718 H 262.284 -1.11631 5.7099 0
M  V30 2719 H 261.164 -0.517736 7.82489 0
M  V30 2720 N 258.668 -1.30515 -0.883378 0
M  V30 2721 C 259.916 -1.19194 -1.63209 0
M  V30 2722 C 260.237 0.253205 -1.93349 0
M  V30 2723 O 259.507 1.17025 -1.57105 0
M  V30 2724 H 258.087 -0.438148 -0.605009 0
M  V30 2725 H 260.749 -1.63663 -1.05832 0
M  V30 2726 H 259.845 -1.75396 -2.58153 0
M  V30 2727 N 260.146 1.09593 -1.13257 0
M  V30 2728 C 261.393 1.81734 -0.893257 0
M  V30 2729 C 261.721 1.8563 0.580656 0
M  V30 2730 O 260.976 1.31906 1.44566 0
M  V30 2731 C 261.275 3.27802 -1.42411 0
M  V30 2732 C 260.941 3.44041 -2.91456 0
M  V30 2733 C 259.603 3.48181 -3.3215 0
M  V30 2734 C 261.955 3.48719 -3.87356 0
M  V30 2735 C 259.283 3.54575 -4.67433 0
M  V30 2736 C 261.635 3.56648 -5.2248 0
M  V30 2737 C 260.299 3.59055 -5.62704 0
M  V30 2738 H 259.569 0.665011 -0.326866 0
M  V30 2739 H 262.216 1.2912 -1.41422 0
M  V30 2740 H 260.521 3.83042 -0.823795 0
M  V30 2741 H 262.218 3.82149 -1.21503 0
M  V30 2742 H 258.808 3.41502 -2.58987 0
M  V30 2743 H 262.992 3.44763 -3.57004 0
M  V30 2744 H 258.248 3.54725 -4.97976 0
M  V30 2745 H 262.422 3.59212 -5.96607 0
M  V30 2746 H 260.049 3.63763 -6.67518 0
M  V30 2747 N 261.624 0.925811 1.2754 0
M  V30 2748 C 262.871 0.565255 1.94451 0
M  V30 2749 C 263.199 -0.89316 1.7278 0
M  V30 2750 O 262.454 -1.65213 1.04895 0
M  V30 2751 C 262.753 0.835296 3.47502 0
M  V30 2752 C 262.419 2.27515 3.89291 0
M  V30 2753 C 261.081 2.66879 4.00411 0
M  V30 2754 C 263.433 3.21158 4.10496 0
M  V30 2755 C 260.761 3.99014 4.30122 0
M  V30 2756 C 263.113 4.52871 4.4169 0
M  V30 2757 C 261.777 4.92072 4.51023 0
M  V30 2758 H 261.047 0.206841 0.711546 0
M  V30 2759 H 263.694 1.16942 1.51647 0
M  V30 2760 H 261.999 0.148442 3.91519 0
M  V30 2761 H 263.696 0.535322 3.97411 0
M  V30 2762 H 260.286 1.95976 3.81171 0
M  V30 2763 H 264.47 2.9195 4.01346 0
M  V30 2764 H 259.726 4.2907 4.35556 0
M  V30 2765 H 263.9 5.25436 4.57045 0
M  V30 2766 H 261.527 5.9449 4.738 0
M  V30 2767 N 263.102 -1.41638 0.69111 0
M  V30 2768 C 264.327 -2.06148 0.227583 0
M  V30 2769 C 264.752 -1.51652 -1.11281 0
M  V30 2770 O 264.11 -0.64164 -1.69566 0
M  V30 2771 C 264.158 -3.60095 0.190858 0
M  V30 2772 O 263.262 -4.03845 -0.835664 0
M  V30 2773 H 262.603 -0.654434 0.112306 0
M  V30 2774 H 265.133 -1.81484 0.944714 0
M  V30 2775 H 265.143 -4.07995 0.020207 0
M  V30 2776 H 263.818 -3.99129 1.16915 0
M  V30 2777 H 262.395 -3.67458 -0.63473 0
M  V30 2778 N 264.58 -0.43555 -1.51462 0
M  V30 2779 C 265.808 0.130242 -2.0649 0
M  V30 2780 C 266.223 1.36614 -1.30315 0
M  V30 2781 O 265.58 1.78869 -0.362223 0
M  V30 2782 C 265.631 0.454253 -3.58635 0
M  V30 2783 O 265.352 -0.73259 -4.31931 0
M  V30 2784 C 266.853 1.07091 -4.3017 0
M  V30 2785 H 264.073 0.00871669 -0.670943 0
M  V30 2786 H 266.617 -0.614117 -1.95061 0
M  V30 2787 H 264.772 1.14851 -3.69984 0
M  V30 2788 H 265.186 -0.455787 -5.22516 0
M  V30 2789 H 266.66 1.24764 -5.37716 0
M  V30 2790 H 267.137 2.05144 -3.88346 0
M  V30 2791 H 267.743 0.416089 -4.2326 0
M  V30 2792 N 266.058 1.56714 -0.166846 0
M  V30 2793 C 267.306 1.96358 0.478305 0
M  V30 2794 C 267.627 1.0537 1.6408 0
M  V30 2795 O 266.897 0.119154 1.95537 0
M  V30 2796 H 265.477 0.725065 0.179692 0
M  V30 2797 H 268.139 1.93329 -0.246985 0
M  V30 2798 H 267.235 3.00547 0.841292 0
M  V30 2799 N 267.536 -0.106894 1.57237 0
M  V30 2800 C 268.813 -0.843526 1.76477 0
M  V30 2801 C 269.193 -1.97499 0.745464 0
M  V30 2802 O 268.541 -2.27357 -0.228306 0
M  V30 2803 C 268.751 -1.34903 3.21873 0
M  V30 2804 C 270.099 -1.79654 3.8472 0
M  V30 2805 O 271.123 -1.44554 3.2555 0
M  V30 2806 O 269.982 -2.44515 4.88748 0
M  V30 2807 H 267.076 -0.401468 0.723016 0
M  V30 2808 H 269.622 -0.0896927 1.69463 0
M  V30 2809 H 268.394 -0.53781 3.87586 0
M  V30 2810 H 268.017 -2.16522 3.33473 0
M  V30 2811 N 269.014 -1.53014 -0.377408 0
M  V30 2812 C 269.924 -1.81557 -1.48574 0
M  V30 2813 C 270.94 -0.703102 -1.59162 0
M  V30 2814 O 272.116 -0.99192 -1.75279 0
M  V30 2815 C 269.181 -1.9889 -2.83978 0
M  V30 2816 C 268.242 -3.22801 -2.83016 0
M  V30 2817 C 267.475 -3.39298 -4.11962 0
M  V30 2818 O 267.698 -2.60345 -5.0752 0
M  V30 2819 O 266.632 -4.32604 -4.18494 0
M  V30 2820 H 270.458 -2.75695 -1.27382 0
M  V30 2821 H 268.043 -1.38248 -0.566373 0
M  V30 2822 H 269.925 -2.11931 -3.6423 0
M  V30 2823 H 268.6 -1.07942 -3.05172 0
M  V30 2824 H 267.507 -3.15193 -2.01505 0
M  V30 2825 H 268.84 -4.13632 -2.66775 0
M  V30 2826 N 270.492 0.636531 -1.44174 0
M  V30 2827 C 271.442 1.74233 -1.47061 0
M  V30 2828 C 272.426 1.57331 -0.337034 0
M  V30 2829 O 273.618 1.67159 -0.581973 0
M  V30 2830 C 270.747 3.12897 -1.41246 0
M  V30 2831 C 269.833 3.35288 -2.59698 0
M  V30 2832 N 270.224 3.2807 -3.84972 0
M  V30 2833 C 268.522 3.66065 -2.54778 0
M  V30 2834 C 269.223 3.51001 -4.63867 0
M  V30 2835 N 268.199 3.73616 -3.94857 0
M  V30 2836 H 272.001 1.67103 -2.41773 0
M  V30 2837 H 269.515 0.838806 -1.3906 0
M  V30 2838 H 271.512 3.92189 -1.41398 0
M  V30 2839 H 270.172 3.21197 -0.47569 0
M  V30 2840 H 271.183 3.07109 -4.17019 0
M  V30 2841 H 267.86 3.81379 -1.6987 0
M  V30 2842 H 269.25 3.51059 -5.72894 0
M  V30 2843 N 271.97 1.30982 0.876444 0
M  V30 2844 C 273.195 1.23373 1.66715 0
M  V30 2845 C 273.62 -0.19885 1.87046 0
M  V30 2846 O 272.978 -1.1427 1.40756 0
M  V30 2847 C 273.026 1.97644 3.01611 0
M  V30 2848 O 272.13 1.30935 3.91062 0
M  V30 2849 H 271.471 0.426279 0.509099 0
M  V30 2850 H 274.001 1.72944 1.09323 0
M  V30 2851 H 274.011 2.06992 3.51594 0
M  V30 2852 H 272.686 3.01829 2.86133 0
M  V30 2853 H 271.263 1.29996 3.49507 0
M  V30 2854 N 273.449 -1.08991 1.13837 0
M  V30 2855 C 274.865 -1.33312 0.877506 0
M  V30 2856 C 275.065 -1.95587 -0.48456 0
M  V30 2857 O 274.121 -2.20509 -1.23013 0
M  V30 2858 C 275.434 -2.24045 2.0056 0
M  V30 2859 C 276.982 -2.37542 2.03821 0
M  V30 2860 C 277.457 -3.31614 3.15905 0
M  V30 2861 N 278.948 -3.39189 3.15445 0
M  V30 2862 C 279.683 -4.11992 3.98811 0
M  V30 2863 N 279.179 -4.87553 4.92203 0
M  V30 2864 N 280.972 -4.07762 3.86894 0
M  V30 2865 H 273.123 -0.669456 2.01574 0
M  V30 2866 H 275.386 -0.357482 0.878015 0
M  V30 2867 H 275.092 -1.85521 2.98789 0
M  V30 2868 H 274.966 -3.24466 1.92359 0
M  V30 2869 H 277.353 -2.75327 1.06202 0
M  V30 2870 H 277.434 -1.36884 2.16093 0
M  V30 2871 H 277.078 -2.94551 4.13766 0
M  V30 2872 H 277.008 -4.32186 3.0087 0
M  V30 2873 H 279.499 -2.85314 2.47799 0
M  V30 2874 H 279.812 -5.40549 5.52292 0
M  V30 2875 H 278.157 -4.86627 4.96205 0
M  V30 2876 H 281.348 -3.47833 3.13257 0
M  V30 2877 H 281.521 -4.64238 4.52092 0
M  V30 2878 N 274.927 -0.932562 -1.27047 0
M  V30 2879 C 276.175 -0.574422 -1.93765 0
M  V30 2880 C 276.496 0.887993 -1.73608 0
M  V30 2881 O 275.766 1.62999 -1.08665 0
M  V30 2882 H 274.346 -0.209451 -0.717035 0
M  V30 2883 H 277.008 -1.18601 -1.5466 0
M  V30 2884 H 276.104 -0.784841 -3.02071 0
M  V30 2885 N 276.405 1.4127 -0.698611 0
M  V30 2886 C 277.353 2.32588 -0.023855 0
M  V30 2887 C 278.347 1.51128 0.765292 0
M  V30 2888 O 279.553 1.67043 0.670571 0
M  V30 2889 H 275.928 0.751918 0.0110871 0
M  V30 2890 H 277.899 2.87167 -0.811031 0
M  V30 2891 C 276.648 3.35947 0.896369 0
M  V30 2892 H 275.971 3.98684 0.298548 0
M  V30 2893 H 277.411 4.02376 1.33676 0
M  V30 2894 C 275.87 2.70076 2.01396 0
M  V30 2895 O 276.4 2.55093 3.10307 0
M  V30 2896 N 274.606 2.28724 1.79259 0
M  V30 2897 H 274.153 2.4111 0.906841 0
M  V30 2898 H 274.111 1.84986 2.54219 0
M  V30 2899 N 277.883 0.443576 1.51229 0
M  V30 2900 C 279.129 -0.11321 2.03085 0
M  V30 2901 C 279.484 -1.39841 1.32145 0
M  V30 2902 O 278.777 -1.86723 0.429542 0
M  V30 2903 C 278.971 -0.380579 3.55368 0
M  V30 2904 C 278.8 0.877157 4.41062 0
M  V30 2905 C 277.57 1.4125 4.85156 0
M  V30 2906 C 279.768 1.76503 4.83064 0
M  V30 2907 N 277.75 2.62213 5.55083 0
M  V30 2908 C 279.121 2.82067 5.52122 0
M  V30 2909 C 281.176 1.7787 4.65045 0
M  V30 2910 C 279.879 3.88952 6.05069 0
M  V30 2911 C 281.905 2.83694 5.18914 0
M  V30 2912 C 281.267 3.87978 5.87922 0
M  V30 2913 H 277.366 -0.00210178 0.781997 0
M  V30 2914 H 279.95 0.605641 1.85041 0
M  V30 2915 H 278.121 -1.06847 3.73414 0
M  V30 2916 H 279.853 -0.929274 3.93887 0
M  V30 2917 H 276.608 0.965542 4.63653 0
M  V30 2918 H 277.032 3.23568 5.9467 0
M  V30 2919 H 281.674 0.985744 4.11148 0
M  V30 2920 H 279.392 4.69082 6.58018 0
M  V30 2921 H 282.978 2.85702 5.06819 0
M  V30 2922 H 281.858 4.68517 6.28857 0
M  V30 2923 N 279.361 -1.56624 0.175154 0
M  V30 2924 C 280.609 -1.96609 -0.467885 0
M  V30 2925 C 280.93 -1.06238 -1.63519 0
M  V30 2926 O 280.2 -0.129523 -1.95471 0
M  V30 2927 H 278.78 -0.726008 -0.175845 0
M  V30 2928 H 281.442 -1.93195 0.257234 0
M  V30 2929 H 280.538 -3.00989 -0.825342 0
M  V30 2930 N 280.839 0.0985539 -1.57292 0
M  V30 2931 C 281.789 1.1261 -1.9825 0
M  V30 2932 C 282.773 1.35961 -0.860426 0
M  V30 2933 O 283.965 1.36711 -1.12424 0
M  V30 2934 C 281.094 2.44727 -2.40757 0
M  V30 2935 C 280.18 2.24764 -3.59642 0
M  V30 2936 N 280.571 1.74661 -4.74687 0
M  V30 2937 C 278.869 2.55344 -3.65672 0
M  V30 2938 C 279.57 1.68887 -5.56644 0
M  V30 2939 N 278.546 2.13976 -4.99715 0
M  V30 2940 H 282.348 0.731604 -2.84648 0
M  V30 2941 H 279.862 0.306029 -1.59491 0
M  V30 2942 H 281.859 3.19072 -2.68326 0
M  V30 2943 H 280.519 2.84917 -1.55733 0
M  V30 2944 H 281.53 1.43908 -4.97505 0
M  V30 2945 H 278.207 2.99081 -2.91302 0
M  V30 2946 H 279.597 1.3123 -6.5896 0
M  V30 2947 N 282.317 1.53212 0.369288 0
M  V30 2948 C 283.247 1.82365 1.45826 0
M  V30 2949 C 284.228 0.676907 1.56051 0
M  V30 2950 O 285.413 0.926401 1.70679 0
M  V30 2951 C 282.543 2.01023 2.83208 0
M  V30 2952 C 281.497 3.1678 2.8781 0
M  V30 2953 C 280.823 3.20724 4.27832 0
M  V30 2954 C 282.123 4.55447 2.55667 0
M  V30 2955 H 283.817 2.73559 1.21678 0
M  V30 2956 H 281.363 1.3163 0.583911 0
M  V30 2957 H 283.316 2.20001 3.59413 0
M  V30 2958 H 282.04 1.06536 3.08736 0
M  V30 2959 H 280.699 2.97616 2.14056 0
M  V30 2960 H 280.347 2.23882 4.50429 0
M  V30 2961 H 280.047 3.98496 4.31827 0
M  V30 2962 H 281.571 3.41881 5.05915 0
M  V30 2963 H 282.985 4.74611 3.21586 0
M  V30 2964 H 281.382 5.35432 2.70984 0
M  V30 2965 H 282.452 4.60812 1.5093 0
M  V30 2966 N 283.795 -0.628877 1.44509 0
M  V30 2967 C 285.072 -1.38733 1.37886 0
M  V30 2968 C 285.452 -2.11065 0.0387008 0
M  V30 2969 O 284.8 -2.06476 -0.97878 0
M  V30 2970 C 285.01 -2.35188 2.57852 0
M  V30 2971 C 286.358 -2.9845 3.02014 0
M  V30 2972 O 287.382 -2.45513 2.58073 0
M  V30 2973 O 286.241 -3.94487 3.78209 0
M  V30 2974 H 283.335 -0.621015 0.54614 0
M  V30 2975 H 285.881 -0.653744 1.56602 0
M  V30 2976 H 284.653 -1.80855 3.46998 0
M  V30 2977 H 284.276 -3.1596 2.4136 0
M  V30 2978 N 285.273 -1.31445 -0.869486 0
M  V30 2979 C 286.205 -1.14955 -1.98287 0
M  V30 2980 C 287.218 -0.0885037 -1.62559 0
M  V30 2981 O 288.407 -0.336044 -1.75308 0
M  V30 2982 C 285.507 -0.734255 -3.3085 0
M  V30 2983 C 284.68 -1.88042 -3.94917 0
M  V30 2984 C 283.739 -1.4511 -5.05796 0
M  V30 2985 O 282.765 -2.16082 -5.2659 0
M  V30 2986 N 283.967 -0.338763 -5.79511 0
M  V30 2987 H 286.732 -2.10856 -2.12979 0
M  V30 2988 H 284.293 -1.23786 -1.04349 0
M  V30 2989 H 286.285 -0.42975 -4.02412 0
M  V30 2990 H 284.855 0.133158 -3.12316 0
M  V30 2991 H 284.075 -2.35222 -3.1633 0
M  V30 2992 H 285.363 -2.6481 -4.34457 0
M  V30 2993 H 284.761 0.252274 -5.65137 0
M  V30 2994 H 283.318 -0.0937925 -6.51733 0
M  V30 2995 N 286.751 1.08385 -1.14413 0
M  V30 2996 C 287.997 1.81044 -0.913834 0
M  V30 2997 C 288.33 1.86004 0.558209 0
M  V30 2998 O 287.605 1.33606 1.4135 0
M  V30 2999 C 287.888 3.26648 -1.51569 0
M  V30 3000 C 287.741 3.29895 -3.0576 0
M  V30 3001 C 289.06 4.23629 -1.19273 0
M  V30 3002 H 286.179 0.65727 -0.333414 0
M  V30 3003 H 288.821 1.26896 -1.41412 0
M  V30 3004 H 286.971 3.72889 -1.09023 0
M  V30 3005 H 288.643 2.91977 -3.57137 0
M  V30 3006 H 286.886 2.69163 -3.40197 0
M  V30 3007 H 287.557 4.32516 -3.42977 0
M  V30 3008 H 290.033 3.85727 -1.56057 0
M  V30 3009 H 288.909 5.23822 -1.64017 0
M  V30 3010 H 289.17 4.41968 -0.108068 0
M  V30 3011 N 288.23 0.939286 1.26551 0
M  V30 3012 C 289.193 0.451987 2.24699 0
M  V30 3013 C 290.193 -0.435869 1.5478 0
M  V30 3014 O 291.383 -0.235314 1.72603 0
M  V30 3015 C 288.515 -0.348801 3.39111 0
M  V30 3016 H 289.708 1.3193 2.69322 0
M  V30 3017 H 287.261 0.721072 1.38673 0
M  V30 3018 H 287.996 -1.23444 2.99887 0
M  V30 3019 H 287.781 0.287945 3.91041 0
M  V30 3020 H 289.271 -0.679726 4.12031 0
M  V30 3021 N 289.708 -1.40897 0.706093 0
M  V30 3022 C 290.671 -2.29131 0.0562841 0
M  V30 3023 C 291.671 -1.44901 -0.697166 0
M  V30 3024 O 292.861 -1.65926 -0.530484 0
M  V30 3025 C 289.993 -3.27957 -0.93043 0
M  V30 3026 H 291.186 -2.88091 0.833284 0
M  V30 3027 H 288.739 -1.4906 0.470192 0
M  V30 3028 H 289.474 -2.73997 -1.73482 0
M  V30 3029 H 289.259 -3.90124 -0.393166 0
M  V30 3030 H 290.749 -3.94049 -1.38256 0
M  V30 3031 N 291.186 -0.45159 -1.50991 0
M  V30 3032 C 292.116 0.342898 -2.30969 0
M  V30 3033 C 293.097 1.00815 -1.37005 0
M  V30 3034 O 294.282 1.00907 -1.65926 0
M  V30 3035 C 291.412 1.43637 -3.16205 0
M  V30 3036 C 290.366 0.893818 -4.18563 0
M  V30 3037 C 289.692 2.08411 -4.92411 0
M  V30 3038 C 290.992 -0.0815568 -5.22236 0
M  V30 3039 H 292.686 -0.324556 -2.97636 0
M  V30 3040 H 290.232 -0.157531 -1.43136 0
M  V30 3041 H 292.185 1.9995 -3.70942 0
M  V30 3042 H 290.909 2.13232 -2.47386 0
M  V30 3043 H 289.568 0.352798 -3.64898 0
M  V30 3044 H 289.216 2.76658 -4.20082 0
M  V30 3045 H 288.916 1.72741 -5.61636 0
M  V30 3046 H 290.44 2.65251 -5.49976 0
M  V30 3047 H 291.854 0.391742 -5.7196 0
M  V30 3048 H 290.251 -0.351551 -5.99069 0
M  V30 3049 H 291.321 -1.01374 -4.74185 0
M  V30 3050 N 292.664 1.56529 -0.183458 0
M  V30 3051 C 294.08 1.58664 0.172554 0
M  V30 3052 C 294.28 1.19925 1.61926 0
M  V30 3053 O 293.336 0.916534 2.35278 0
M  V30 3054 C 294.649 3.00463 -0.119262 0
M  V30 3055 C 296.197 3.12945 -0.0584396 0
M  V30 3056 C 296.672 4.56857 -0.323408 0
M  V30 3057 N 298.163 4.62403 -0.271612 0
M  V30 3058 C 298.898 5.71626 -0.450639 0
M  V30 3059 N 298.394 6.89362 -0.689384 0
M  V30 3060 N 300.187 5.60775 -0.385701 0
M  V30 3061 H 292.338 1.79994 -1.12765 0
M  V30 3062 H 294.601 0.834808 -0.449222 0
M  V30 3063 H 294.307 3.33326 -1.12192 0
M  V30 3064 H 294.181 3.72659 0.583544 0
M  V30 3065 H 296.568 2.79902 0.934805 0
M  V30 3066 H 296.649 2.4316 -0.794144 0
M  V30 3067 H 296.293 4.9061 -1.31392 0
M  V30 3068 H 296.223 5.24816 0.43305 0
M  V30 3069 H 298.714 3.77785 -0.0932256 0
M  V30 3070 H 299.027 7.68489 -0.815113 0
M  V30 3071 H 297.372 6.91196 -0.726142 0
M  V30 3072 H 300.563 4.67674 -0.199687 0
M  V30 3073 H 300.736 6.4584 -0.528646 0
M  V30 3074 N 294.142 -0.090211 1.57342 0
M  V30 3075 C 295.388 -0.788838 1.8748 0
M  V30 3076 C 295.743 -1.76105 0.7749 0
M  V30 3077 O 295.036 -1.90302 -0.222663 0
M  V30 3078 C 295.23 -1.55222 3.21933 0
M  V30 3079 C 295.059 -0.655441 4.44898 0
M  V30 3080 C 293.829 -0.299325 5.04413 0
M  V30 3081 C 296.027 0.0397458 5.14285 0
M  V30 3082 N 294.009 0.605108 6.10911 0
M  V30 3083 C 295.38 0.802061 6.1479 0
M  V30 3084 C 297.435 0.113154 4.97771 0
M  V30 3085 C 296.138 1.63093 7.00566 0
M  V30 3086 C 298.164 0.928942 5.84059 0
M  V30 3087 C 297.526 1.67936 6.84088 0
M  V30 3088 H 293.625 -0.26467 0.735849 0
M  V30 3089 H 296.209 -0.0511453 1.94633 0
M  V30 3090 H 294.38 -2.26076 3.15823 0
M  V30 3091 H 296.112 -2.19843 3.39781 0
M  V30 3092 H 292.867 -0.648079 4.69145 0
M  V30 3093 H 293.291 1.05002 6.68808 0
M  V30 3094 H 297.933 -0.452676 4.2037 0
M  V30 3095 H 295.651 2.20781 7.77355 0
M  V30 3096 H 299.237 0.988478 5.73341 0
M  V30 3097 H 298.117 2.30044 7.49699 0
M  V30 3098 N 295.62 -1.53406 -0.361157 0
M  V30 3099 C 296.866 -1.70054 -1.10496 0
M  V30 3100 C 297.199 -0.453278 -1.88836 0
M  V30 3101 O 296.474 0.5495 -1.86576 0
M  V30 3102 C 296.757 -2.95317 -2.06058 0
M  V30 3103 C 296.61 -4.3021 -1.31298 0
M  V30 3104 C 297.929 -3.16193 -3.06121 0
M  V30 3105 H 295.048 -0.618799 -0.400321 0
M  V30 3106 H 297.69 -1.86052 -0.385318 0
M  V30 3107 H 295.84 -2.81809 -2.67425 0
M  V30 3108 H 297.512 -4.55538 -0.726807 0
M  V30 3109 H 295.755 -4.29421 -0.614853 0
M  V30 3110 H 296.426 -5.14 -2.01265 0
M  V30 3111 H 298.902 -3.28916 -2.5486 0
M  V30 3112 H 297.778 -4.05266 -3.70204 0
M  V30 3113 H 298.039 -2.31676 -3.76535 0
M  V30 3114 N 297.098 0.621204 -1.44841 0
M  V30 3115 C 298.03 1.74615 -1.48466 0
M  V30 3116 C 299.043 1.58377 -0.37691 0
M  V30 3117 O 300.232 1.66508 -0.643215 0
M  V30 3118 C 297.332 3.12459 -1.31236 0
M  V30 3119 C 296.505 3.55064 -2.55438 0
M  V30 3120 C 295.564 4.71821 -2.32963 0
M  V30 3121 O 294.59 4.79628 -3.06505 0
M  V30 3122 N 295.792 5.64186 -1.36654 0
M  V30 3123 H 298.557 1.71973 -2.45449 0
M  V30 3124 H 296.118 0.806077 -1.40407 0
M  V30 3125 H 298.11 3.88302 -1.14032 0
M  V30 3126 H 296.68 3.09686 -0.4258 0
M  V30 3127 H 295.9 2.69324 -2.87851 0
M  V30 3128 H 297.188 3.80284 -3.38026 0
M  V30 3129 H 296.586 5.6058 -0.759344 0
M  V30 3130 H 295.143 6.39618 -1.25425 0
M  V30 3131 N 298.576 1.31904 0.862503 0
M  V30 3132 C 299.853 1.12644 1.59908 0
M  V30 3133 C 300.233 -0.316104 2.0872 0
M  V30 3134 O 299.581 -1.31145 1.87118 0
M  V30 3135 C 299.791 2.1472 2.7513 0
M  V30 3136 C 301.139 2.47637 3.44907 0
M  V30 3137 O 302.163 2.13205 2.85346 0
M  V30 3138 O 301.022 3.06632 4.52371 0
M  V30 3139 H 298.116 0.43416 0.703871 0
M  V30 3140 H 300.662 1.43408 0.907314 0
M  V30 3141 H 299.434 3.1172 2.3653 0
M  V30 3142 H 299.057 1.84905 3.51989 0
M  V30 3143 N 300.054 -1.07777 1.14986 0
M  V30 3144 C 301.002 -2.16964 0.838406 0
M  V30 3145 C 301.996 -1.68372 -0.186386 0
M  V30 3146 O 303.202 -1.79951 -0.0418465 0
M  V30 3147 H 299.577 -0.708006 0.253439 0
M  V30 3148 H 301.548 -2.40454 1.76704 0
M  V30 3149 C 300.297 -3.4604 0.339335 0
M  V30 3150 H 299.62 -3.83813 1.11927 0
M  V30 3151 H 301.06 -4.23698 0.160021 0
M  V30 3152 C 299.519 -3.23569 -0.938325 0
M  V30 3153 O 300.049 -3.47752 -2.01077 0
M  V30 3154 N 298.255 -2.77079 -0.876117 0
M  V30 3155 H 297.802 -2.576 -0.00322037 0
M  V30 3156 H 297.76 -2.62422 -1.73153 0
M  V30 3157 N 301.532 -0.945985 -1.26051 0
M  V30 3158 C 302.781 -0.591836 -1.92822 0
M  V30 3159 C 303.094 0.873956 -1.7499 0
M  V30 3160 O 304.3 1.33769 -2.36259 0
M  V30 3161 C 302.756 -1.00776 -3.45503 0
M  V30 3162 C 302.364 -2.4955 -3.7206 0
M  V30 3163 C 304.108 -0.725735 -4.1825 0
M  V30 3164 C 302.015 -2.84988 -5.18205 0
M  V30 3165 H 300.945 -0.217635 -0.721908 0
M  V30 3166 H 303.596 -1.14927 -1.43052 0
M  V30 3167 H 301.978 -0.378812 -3.94184 0
M  V30 3168 H 303.152 -3.1739 -3.34066 0
M  V30 3169 H 301.467 -2.75133 -3.12555 0
M  V30 3170 H 304.064 -0.966771 -5.25887 0
M  V30 3171 H 304.407 0.337639 -4.14929 0
M  V30 3172 H 304.94 -1.31463 -3.7545 0
M  V30 3173 H 301.679 -3.90307 -5.26631 0
M  V30 3174 H 301.199 -2.21813 -5.57278 0
M  V30 3175 H 302.878 -2.73712 -5.86252 0
M  V30 3176 N 303.011 1.40521 -0.713556 0
M  V30 3177 C 303.974 2.29098 -0.0684347 0
M  V30 3178 C 304.974 1.45268 0.689472 0
M  V30 3179 O 306.164 1.66205 0.521677 0
M  V30 3180 C 303.296 3.28446 0.913024 0
M  V30 3181 H 304.489 2.87645 -0.84855 0
M  V30 3182 H 302.042 1.48809 -0.47809 0
M  V30 3183 H 302.777 2.74913 1.72027 0
M  V30 3184 H 302.562 3.90327 0.372472 0
M  V30 3185 H 304.052 3.94777 1.36165 0
M  V30 3186 N 304.489 0.459591 1.5075 0
M  V30 3187 C 305.714 -0.0996819 2.0716 0
M  V30 3188 C 306.139 -1.33761 1.32249 0
M  V30 3189 O 305.497 -1.77551 0.366786 0
M  V30 3190 C 305.545 -0.378226 3.58611 0
M  V30 3191 O 304.649 -1.46081 3.85661 0
M  V30 3192 H 303.99 0.00791392 0.663953 0
M  V30 3193 H 306.52 0.647329 1.9409 0
M  V30 3194 H 306.53 -0.622135 4.03229 0
M  V30 3195 H 305.205 0.526439 4.12555 0
M  V30 3196 H 303.782 -1.20511 3.5289 0
M  V30 3197 N 305.967 -1.56429 0.191757 0
M  V30 3198 C 307.214 -1.97485 -0.447891 0
M  V30 3199 C 307.542 -1.07852 -1.61859 0
M  V30 3200 O 306.797 -0.116903 -1.95351 0
M  V30 3201 C 307.096 -3.44449 -0.953384 0
M  V30 3202 C 306.762 -4.50781 0.103586 0
M  V30 3203 C 305.424 -4.79584 0.394023 0
M  V30 3204 C 307.776 -5.1471 0.819946 0
M  V30 3205 C 305.104 -5.69607 1.40585 0
M  V30 3206 C 307.456 -6.05827 1.8209 0
M  V30 3207 C 306.12 -6.32987 2.11857 0
M  V30 3208 H 305.39 -0.722648 -0.163895 0
M  V30 3209 H 308.037 -1.89322 0.28802 0
M  V30 3210 H 306.342 -3.49666 -1.76751 0
M  V30 3211 H 308.039 -3.73569 -1.45765 0
M  V30 3212 H 304.629 -4.28394 -0.132951 0
M  V30 3213 H 308.813 -4.92552 0.608789 0
M  V30 3214 H 304.069 -5.88926 1.64243 0
M  V30 3215 H 308.243 -6.54424 2.38123 0
M  V30 3216 H 305.87 -7.02544 2.90407 0
M  V30 3217 N 307.445 0.0818655 -1.57387 0
M  V30 3218 C 308.693 0.781368 -1.86384 0
M  V30 3219 C 309.014 1.78618 -0.782342 0
M  V30 3220 O 308.284 1.94976 0.190061 0
M  V30 3221 H 306.864 0.291562 -0.687751 0
M  V30 3222 H 309.526 0.060348 -1.94807 0
M  V30 3223 H 308.622 1.3038 -2.83562 0
M  V30 3224 N 308.923 1.53595 0.353017 0
M  V30 3225 C 310.171 1.70049 1.09215 0
M  V30 3226 C 310.492 0.461406 1.89463 0
M  V30 3227 O 309.762 -0.524633 1.88744 0
M  V30 3228 H 308.342 0.626912 0.40619 0
M  V30 3229 H 311.004 1.90822 0.396585 0
M  V30 3230 H 310.1 2.56718 1.77488 0
M  V30 3231 N 310.401 -0.613514 1.45168 0
M  V30 3232 C 311.349 -1.74572 1.53712 0
M  V30 3233 C 312.343 -1.64426 0.407505 0
M  V30 3234 O 313.549 -1.70291 0.583176 0
M  V30 3235 H 309.924 -0.576641 0.48269 0
M  V30 3236 H 311.895 -1.64492 2.48968 0
M  V30 3237 C 310.644 -3.12943 1.51532 0
M  V30 3238 H 309.967 -3.21407 2.37776 0
M  V30 3239 H 311.407 -3.9201 1.61569 0
M  V30 3240 C 309.866 -3.36053 0.238798 0
M  V30 3241 O 310.396 -3.95837 -0.6838 0
M  V30 3242 N 308.602 -2.9028 0.136359 0
M  V30 3243 H 308.149 -2.41811 0.887999 0
M  V30 3244 H 308.107 -3.06116 -0.716944 0
M  V30 3245 N 311.879 -1.3236 -0.855495 0
M  V30 3246 C 313.29 -1.2056 -1.42556 0
M  V30 3247 C 313.641 0.182209 -1.95352 0
M  V30 3248 O 312.766 1.08088 -1.87472 0
M  V30 3249 C 313.361 -2.1826 -2.59129 0
M  V30 3250 C 311.92 -2.10351 -3.12137 0
M  V30 3251 C 311.067 -2.06674 -1.84882 0
M  V30 3252 H 314.018 -1.442 -0.662727 0
M  V30 3253 H 314.039 -1.78064 -3.36264 0
M  V30 3254 H 313.551 -3.19257 -2.20673 0
M  V30 3255 H 311.652 -1.12599 -3.55179 0
M  V30 3256 H 311.765 -3.00135 -3.73438 0
M  V30 3257 H 310.129 -1.51901 -2.04446 0
M  V30 3258 H 310.912 -3.09451 -1.48643 0
M  V30 3259 N 313.357 1.07166 -1.15556 0
M  V30 3260 C 314.605 1.79443 -0.929764 0
M  V30 3261 C 314.926 1.87246 0.544414 0
M  V30 3262 O 314.196 1.37473 1.39564 0
M  V30 3263 H 312.776 0.664625 -0.341003 0
M  V30 3264 H 315.438 1.29499 -1.45657 0
M  V30 3265 H 314.534 2.81832 -1.34079 0
M  V30 3266 N 314.835 0.952656 1.25548 0
M  V30 3267 C 316.06 0.623025 1.97821 0
M  V30 3268 C 316.485 -0.7976 1.70352 0
M  V30 3269 O 315.843 -1.53905 0.958283 0
M  V30 3270 C 315.891 0.885532 3.49558 0
M  V30 3271 O 314.995 -0.0366641 4.12384 0
M  V30 3272 H 314.336 0.237082 0.620232 0
M  V30 3273 H 316.866 1.27871 1.59719 0
M  V30 3274 H 316.876 0.811009 3.99858 0
M  V30 3275 H 315.551 1.92094 3.6888 0
M  V30 3276 H 314.128 0.0898954 3.72792 0
M  V30 3277 N 316.313 -1.40141 0.720998 0
M  V30 3278 C 317.559 -2.01084 0.263231 0
M  V30 3279 C 317.892 -1.57052 -1.14229 0
M  V30 3280 O 317.167 -0.793027 -1.77599 0
M  V30 3281 C 317.45 -3.58401 0.349344 0
M  V30 3282 C 317.303 -4.12491 1.79363 0
M  V30 3283 C 318.622 -4.39231 -0.276351 0
M  V30 3284 H 315.741 -0.730572 0.0971228 0
M  V30 3285 H 318.383 -1.66543 0.914518 0
M  V30 3286 H 316.533 -3.87958 -0.205165 0
M  V30 3287 H 318.205 -3.93711 2.40394 0
M  V30 3288 H 316.448 -3.66576 2.31958 0
M  V30 3289 H 317.119 -5.21646 1.80524 0
M  V30 3290 H 319.595 -4.15637 0.196184 0
M  V30 3291 H 318.471 -5.48586 -0.185681 0
M  V30 3292 H 318.732 -4.20643 -1.36059 0
M  V30 3293 N 317.792 -0.46758 -1.50504 0
M  V30 3294 C 319.02 0.0864133 -2.06719 0
M  V30 3295 C 319.435 1.33819 -1.33184 0
M  V30 3296 O 318.792 1.78061 -0.400083 0
M  V30 3297 C 318.843 0.378079 -3.59517 0
M  V30 3298 O 318.564 -0.824044 -4.3028 0
M  V30 3299 C 320.065 0.979426 -4.32345 0
M  V30 3300 H 317.285 -0.00551697 -0.670977 0
M  V30 3301 H 319.829 -0.655354 -1.93715 0
M  V30 3302 H 317.984 1.06977 -3.72337 0
M  V30 3303 H 318.398 -0.566518 -5.21432 0
M  V30 3304 H 319.872 1.1333 -5.40241 0
M  V30 3305 H 320.349 1.9686 -3.9261 0
M  V30 3306 H 320.955 0.326216 -4.24047 0
M  V30 3307 N 319.27 1.56325 -0.20005 0
M  V30 3308 C 320.519 1.96895 0.437652 0
M  V30 3309 C 320.832 1.08999 1.62415 0
M  V30 3310 O 322.038 1.39372 2.32997 0
M  V30 3311 C 320.494 3.50198 0.830025 0
M  V30 3312 C 320.102 4.46765 -0.332461 0
M  V30 3313 C 321.846 3.99526 1.43453 0
M  V30 3314 C 319.753 5.91344 0.0811468 0
M  V30 3315 H 318.683 0.735209 0.167282 0
M  V30 3316 H 321.334 1.81148 -0.292853 0
M  V30 3317 H 319.716 3.61467 1.61734 0
M  V30 3318 H 320.89 4.47231 -1.11 0
M  V30 3319 H 319.205 4.07657 -0.848789 0
M  V30 3320 H 321.802 5.05025 1.75652 0
M  V30 3321 H 322.145 3.44122 2.34277 0
M  V30 3322 H 322.678 3.91393 0.71109 0
M  V30 3323 H 319.417 6.50685 -0.793033 0
M  V30 3324 H 318.937 5.94121 0.823445 0
M  V30 3325 H 320.616 6.44945 0.515252 0
M  V30 3326 N 320.748 -0.0735177 1.57428 0
M  V30 3327 C 321.995 -0.772999 1.87166 0
M  V30 3328 C 322.323 -1.77665 0.791551 0
M  V30 3329 O 321.578 -1.94541 -0.212636 0
M  V30 3330 C 321.877 -1.51799 3.23561 0
M  V30 3331 C 321.543 -0.654484 4.46125 0
M  V30 3332 C 320.205 -0.416511 4.79394 0
M  V30 3333 C 322.557 -0.0555862 5.2117 0
M  V30 3334 C 319.885 0.429869 5.85123 0
M  V30 3335 C 322.237 0.778239 6.27795 0
M  V30 3336 C 320.901 1.0261 6.59566 0
M  V30 3337 H 320.171 -0.282861 0.684888 0
M  V30 3338 H 322.818 -0.0338272 1.9147 0
M  V30 3339 H 321.123 -2.32932 3.1504 0
M  V30 3340 H 322.82 -2.06397 3.43804 0
M  V30 3341 H 319.41 -0.850091 4.20085 0
M  V30 3342 H 323.594 -0.226558 4.95783 0
M  V30 3343 H 318.85 0.630665 6.08139 0
M  V30 3344 H 323.024 1.24906 6.85107 0
M  V30 3345 H 320.651 1.68371 7.4132 0
M  V30 3346 N 322.226 -1.5378 -0.344866 0
M  V30 3347 C 323.474 -1.70625 -1.08311 0
M  V30 3348 C 323.795 -0.471447 -1.89215 0
M  V30 3349 O 323.065 0.514616 -1.8902 0
M  V30 3350 H 321.645 -0.629058 -0.402859 0
M  V30 3351 H 324.307 -1.9103 -0.386459 0
M  V30 3352 H 323.403 -2.57656 -1.76124 0
M  V30 3353 N 323.704 0.605807 -1.45491 0
M  V30 3354 C 324.614 1.74466 -1.56839 0
M  V30 3355 C 325.63 1.68006 -0.452772 0
M  V30 3356 O 326.806 1.8833 -0.713708 0
M  V30 3357 C 323.871 3.10931 -1.53371 0
M  V30 3358 C 322.932 3.28832 -2.75986 0
M  V30 3359 C 322.165 4.58787 -2.72673 0
M  V30 3360 O 322.388 5.4122 -1.80102 0
M  V30 3361 O 321.322 4.79438 -3.63899 0
M  V30 3362 H 325.148 1.67843 -2.53106 0
M  V30 3363 H 322.733 0.770108 -1.28022 0
M  V30 3364 H 324.615 3.92233 -1.54051 0
M  V30 3365 H 323.29 3.18042 -0.602572 0
M  V30 3366 H 322.197 2.47112 -2.80867 0
M  V30 3367 H 323.53 3.26599 -3.68231 0
M  V30 3368 N 325.182 1.32811 0.848464 0
M  V30 3369 C 326.407 1.26882 1.6406 0
M  V30 3370 C 326.832 -0.15913 1.87426 0
M  V30 3371 O 326.19 -1.11258 1.43148 0
M  V30 3372 C 326.238 2.03997 2.97351 0
M  V30 3373 O 325.342 1.39201 3.88197 0
M  V30 3374 H 324.683 0.436982 0.499943 0
M  V30 3375 H 327.213 1.75224 1.0563 0
M  V30 3376 H 327.223 2.14403 3.47124 0
M  V30 3377 H 325.898 3.0783 2.79666 0
M  V30 3378 H 324.475 1.37381 3.46671 0
M  V30 3379 N 326.66 -1.06551 1.16123 0
M  V30 3380 C 327.623 -2.12132 0.867906 0
M  V30 3381 C 328.623 -1.60224 -0.135944 0
M  V30 3382 O 329.813 -1.73943 0.0946422 0
M  V30 3383 C 326.945 -3.396 0.297419 0
M  V30 3384 H 328.138 -2.39586 1.80385 0
M  V30 3385 H 325.691 -1.22574 0.969812 0
M  V30 3386 H 326.426 -3.17794 -0.64633 0
M  V30 3387 H 326.211 -3.78581 1.02073 0
M  V30 3388 H 327.701 -4.17455 0.110052 0
M  V30 3389 N 328.138 -0.959301 -1.25041 0
M  V30 3390 C 329.386 -0.615393 -1.92503 0
M  V30 3391 C 329.707 0.850969 -1.75452 0
M  V30 3392 O 328.977 1.60658 -1.12098 0
M  V30 3393 H 327.557 -0.224613 -0.712431 0
M  V30 3394 H 330.219 -1.21855 -1.5211 0
M  V30 3395 H 329.315 -0.848738 -3.00338 0
M  V30 3396 N 329.616 1.39756 -0.72842 0
M  V30 3397 C 330.864 2.00248 -0.272946 0
M  V30 3398 C 331.185 1.58077 1.14178 0
M  V30 3399 O 330.455 0.826014 1.77634 0
M  V30 3400 H 329.035 0.740554 -0.0979247 0
M  V30 3401 H 331.697 1.70903 -0.936912 0
M  V30 3402 H 330.793 3.10495 -0.316142 0
M  V30 3403 N 331.094 0.475555 1.50254 0
M  V30 3404 C 332.004 -0.321501 2.32387 0
M  V30 3405 C 333.02 -0.991755 1.42969 0
M  V30 3406 O 334.196 -0.978747 1.76018 0
M  V30 3407 C 331.261 -1.38667 3.17762 0
M  V30 3408 C 330.322 -0.732538 4.23004 0
M  V30 3409 C 329.555 -1.74695 5.04299 0
M  V30 3410 O 329.778 -2.97399 4.86734 0
M  V30 3411 O 328.712 -1.31631 5.8733 0
M  V30 3412 H 332.538 0.350071 3.01676 0
M  V30 3413 H 330.123 0.237321 1.47503 0
M  V30 3414 H 332.005 -2.00354 3.70724 0
M  V30 3415 H 330.68 -2.04163 2.51196 0
M  V30 3416 H 329.587 -0.0765902 3.74022 0
M  V30 3417 H 330.92 -0.120452 4.92053 0
M  V30 3418 N 332.573 -1.56217 0.208337 0
M  V30 3419 C 333.798 -2.02782 -0.435222 0
M  V30 3420 C 334.223 -1.08738 -1.53485 0
M  V30 3421 O 333.581 -0.0731855 -1.81152 0
M  V30 3422 C 333.629 -3.47687 -0.956335 0
M  V30 3423 O 332.733 -3.56773 -2.06849 0
M  V30 3424 H 332.074 -0.656403 -0.100158 0
M  V30 3425 H 334.604 -2.02033 0.3231 0
M  V30 3426 H 334.614 -3.87745 -1.26955 0
M  V30 3427 H 333.289 -4.15624 -0.15143 0
M  V30 3428 H 331.866 -3.28597 -1.76292 0
M  V30 3429 N 334.051 0.0651679 -1.57465 0
M  V30 3430 C 335.297 0.764193 -1.87851 0
M  V30 3431 C 335.63 1.76889 -0.801495 0
M  V30 3432 O 334.905 1.93594 0.187528 0
M  V30 3433 C 335.188 1.46625 -3.28897 0
M  V30 3434 C 335.041 0.477515 -4.47258 0
M  V30 3435 C 336.36 2.4095 -3.68281 0
M  V30 3436 H 333.479 0.276351 -0.683227 0
M  V30 3437 H 336.121 0.0272868 -1.8998 0
M  V30 3438 H 334.271 2.09438 -3.27212 0
M  V30 3439 H 335.943 -0.145922 -4.61069 0
M  V30 3440 H 334.186 -0.206576 -4.33308 0
M  V30 3441 H 334.857 1.0065 -5.42746 0
M  V30 3442 H 337.333 1.88209 -3.71102 0
M  V30 3443 H 336.209 2.87072 -4.67847 0
M  V30 3444 H 336.47 3.26049 -2.98571 0
M  V30 3445 N 335.529 1.53961 0.336706 0
M  V30 3446 C 336.754 1.75797 1.10046 0
M  V30 3447 C 337.179 0.498985 1.81361 0
M  V30 3448 O 336.537 -0.548769 1.72795 0
M  V30 3449 C 336.585 2.94257 2.08436 0
M  V30 3450 O 335.689 2.64883 3.16087 0
M  V30 3451 H 335.03 0.582936 0.317934 0
M  V30 3452 H 337.56 2.00945 0.38501 0
M  V30 3453 H 337.57 3.21237 2.51537 0
M  V30 3454 H 336.245 3.85564 1.55927 0
M  V30 3455 H 334.822 2.48812 2.77753 0
M  V30 3456 N 337.007 -0.598083 1.45811 0
M  V30 3457 C 338.253 -1.35882 1.50545 0
M  V30 3458 C 338.586 -1.93616 0.150445 0
M  V30 3459 O 337.861 -1.75604 -0.83628 0
M  V30 3460 C 338.144 -2.49966 2.59208 0
M  V30 3461 C 337.997 -1.97367 4.04186 0
M  V30 3462 C 339.316 -3.52068 2.64076 0
M  V30 3463 H 336.435 -0.492717 0.548087 0
M  V30 3464 H 339.077 -0.673319 1.77669 0
M  V30 3465 H 337.227 -3.08443 2.3621 0
M  V30 3466 H 338.899 -1.43466 4.38423 0
M  V30 3467 H 337.142 -1.283 4.14393 0
M  V30 3468 H 337.813 -2.79649 4.75921 0
M  V30 3469 H 340.289 -3.03448 2.84708 0
M  V30 3470 H 339.165 -4.2937 3.41954 0
M  V30 3471 H 339.426 -4.08304 1.69531 0
M  V30 3472 N 338.485 -1.33259 -0.841409 0
M  V30 3473 C 339.415 -1.25926 -1.96634 0
M  V30 3474 C 340.396 -0.140349 -1.6952 0
M  V30 3475 O 341.581 -0.329707 -1.91381 0
M  V30 3476 C 338.711 -0.99512 -3.32738 0
M  V30 3477 C 337.665 -2.0767 -3.74242 0
M  V30 3478 C 336.991 -1.66474 -5.08125 0
M  V30 3479 C 338.291 -3.49318 -3.88297 0
M  V30 3480 H 339.985 -2.20046 -2.03027 0
M  V30 3481 H 337.531 -1.05931 -0.975425 0
M  V30 3482 H 339.484 -0.930323 -4.11002 0
M  V30 3483 H 338.208 -0.0183004 -3.26595 0
M  V30 3484 H 336.867 -2.13187 -2.98239 0
M  V30 3485 H 336.515 -0.675012 -4.9845 0
M  V30 3486 H 336.215 -2.3885 -5.36865 0
M  V30 3487 H 337.739 -1.61455 -5.88867 0
M  V30 3488 H 339.153 -3.46316 -4.56879 0
M  V30 3489 H 337.55 -4.20158 -4.28471 0
M  V30 3490 H 338.62 -3.8801 -2.9082 0
M  V30 3491 N 339.963 1.05934 -1.16686 0
M  V30 3492 C 341.209 1.79065 -0.95203 0
M  V30 3493 C 341.542 1.87147 0.518629 0
M  V30 3494 O 340.817 1.36574 1.38484 0
M  V30 3495 C 341.1 3.23359 -1.58464 0
M  V30 3496 C 340.953 3.23336 -3.12689 0
M  V30 3497 C 342.272 4.21004 -1.28232 0
M  V30 3498 H 339.391 0.65005 -0.34728 0
M  V30 3499 H 342.033 1.23868 -1.44072 0
M  V30 3500 H 340.183 3.70493 -1.16908 0
M  V30 3501 H 341.855 2.84336 -3.6325 0
M  V30 3502 H 340.098 2.61886 -3.4583 0
M  V30 3503 H 340.769 4.25144 -3.52075 0
M  V30 3504 H 343.245 3.8233 -1.64203 0
M  V30 3505 H 342.121 5.20225 -1.75092 0
M  V30 3506 H 342.382 4.41639 -0.201791 0
M  V30 3507 N 341.441 0.965919 1.2453 0
M  V30 3508 C 342.371 0.513476 2.27784 0
M  V30 3509 C 343.352 -0.445974 1.6415 0
M  V30 3510 O 344.537 -0.342485 1.91156 0
M  V30 3511 C 341.667 -0.198839 3.4673 0
M  V30 3512 C 340.621 0.676456 4.2262 0
M  V30 3513 C 339.947 -0.167248 5.34438 0
M  V30 3514 C 341.247 1.96017 4.84123 0
M  V30 3515 H 342.941 1.3765 2.65881 0
M  V30 3516 H 340.487 0.663321 1.27813 0
M  V30 3517 H 342.44 -0.526567 4.18097 0
M  V30 3518 H 341.164 -1.0962 3.07654 0
M  V30 3519 H 339.823 0.98743 3.53052 0
M  V30 3520 H 339.471 -1.0647 4.91603 0
M  V30 3521 H 339.171 0.415181 5.86131 0
M  V30 3522 H 340.695 -0.489688 6.08633 0
M  V30 3523 H 342.109 1.69814 5.47573 0
M  V30 3524 H 340.506 2.48918 5.4604 0
M  V30 3525 H 341.576 2.65622 4.05676 0
M  V30 3526 N 342.919 -1.39368 0.735821 0
M  V30 3527 C 344.144 -2.05319 0.293052 0
M  V30 3528 C 344.569 -1.55115 -1.064 0
M  V30 3529 O 343.927 -0.695261 -1.67439 0
M  V30 3530 C 343.975 -3.59305 0.305323 0
M  V30 3531 O 343.079 -4.06299 -0.706761 0
M  V30 3532 H 342.42 -0.650529 0.13307 0
M  V30 3533 H 344.95 -1.78386 1.00197 0
M  V30 3534 H 344.96 -4.07724 0.149997 0
M  V30 3535 H 343.635 -3.95207 1.29553 0
M  V30 3536 H 342.212 -3.69292 -0.517504 0
M  V30 3537 N 344.397 -0.483516 -1.5 0
M  V30 3538 C 345.808 -0.0314176 -1.86674 0
M  V30 3539 C 346.159 1.37728 -1.39733 0
M  V30 3540 O 345.284 2.02327 -0.767635 0
M  V30 3541 C 345.879 -0.0502376 -3.38763 0
M  V30 3542 C 344.438 0.346442 -3.74802 0
M  V30 3543 C 343.585 -0.430366 -2.7394 0
M  V30 3544 H 346.536 -0.697182 -1.42566 0
M  V30 3545 H 346.557 0.749116 -3.73053 0
M  V30 3546 H 346.069 -1.07563 -3.72897 0
M  V30 3547 H 344.17 1.37572 -3.46273 0
M  V30 3548 H 344.283 0.0391486 -4.79084 0
M  V30 3549 H 342.647 0.117557 -2.54429 0
M  V30 3550 H 343.43 -1.4555 -3.10918 0
M  V30 3551 N 345.875 1.56104 -0.216619 0
M  V30 3552 C 346.805 2.23063 0.690296 0
M  V30 3553 C 347.786 1.20072 1.20485 0
M  V30 3554 O 348.971 1.48643 1.24976 0
M  V30 3555 C 346.101 2.90672 1.90072 0
M  V30 3556 C 345.055 4.00092 1.5202 0
M  V30 3557 C 344.381 4.54972 2.80899 0
M  V30 3558 C 345.681 5.17398 0.71391 0
M  V30 3559 H 347.375 2.99109 0.132038 0
M  V30 3560 H 344.921 1.43866 0.0620664 0
M  V30 3561 H 346.874 3.36204 2.54057 0
M  V30 3562 H 345.598 2.12066 2.48386 0
M  V30 3563 H 344.257 3.55283 0.903839 0
M  V30 3564 H 343.905 3.73102 3.37348 0
M  V30 3565 H 343.605 5.28817 2.56176 0
M  V30 3566 H 345.129 5.0322 3.45836 0
M  V30 3567 H 346.543 5.59342 1.25735 0
M  V30 3568 H 344.94 5.97444 0.563951 0
M  V30 3569 H 346.01 4.84088 -0.280527 0
M  V30 3570 N 347.353 -0.0568162 1.57498 0
M  V30 3571 C 348.316 -1.05038 2.03715 0
M  V30 3572 C 349.316 -1.30709 0.936577 0
M  V30 3573 O 350.506 -1.26178 1.20103 0
M  V30 3574 C 347.638 -2.39034 2.43055 0
M  V30 3575 H 348.831 -0.651715 2.92733 0
M  V30 3576 H 346.384 -0.302947 1.53336 0
M  V30 3577 H 347.119 -2.83703 1.57108 0
M  V30 3578 H 346.904 -2.21739 3.2338 0
M  V30 3579 H 348.394 -3.10421 2.79336 0
M  V30 3580 N 348.832 -1.54138 -0.328536 0
M  V30 3581 C 349.779 -1.83176 -1.40411 0
M  V30 3582 C 350.749 -0.678494 -1.5161 0
M  V30 3583 O 351.934 -0.92443 -1.6691 0
M  V30 3584 C 349.074 -2.06035 -2.76846 0
M  V30 3585 C 348.187 -3.33727 -2.74318 0
M  V30 3586 C 347.322 -3.46574 -4.02567 0
M  V30 3587 C 346.361 -4.68159 -3.94327 0
M  V30 3588 N 345.498 -4.77959 -5.14296 0
M  V30 3589 H 350.338 -2.74938 -1.14948 0
M  V30 3590 H 347.875 -1.36166 -0.556538 0
M  V30 3591 H 349.833 -2.1728 -3.56153 0
M  V30 3592 H 348.463 -1.1757 -3.00628 0
M  V30 3593 H 347.515 -3.31246 -1.8703 0
M  V30 3594 H 348.827 -4.23139 -2.64111 0
M  V30 3595 H 347.981 -3.57333 -4.90304 0
M  V30 3596 H 346.72 -2.55245 -4.15574 0
M  V30 3597 H 345.725 -4.57461 -3.04974 0
M  V30 3598 H 346.95 -5.60868 -3.82889 0
M  V30 3599 H 344.896 -3.89544 -5.27818 0
M  V30 3600 H 344.813 -5.6133 -5.06404 0
M  V30 3601 H 346.081 -4.93044 -6.03761 0
M  V30 3602 N 350.31 0.590341 -1.46126 0
M  V30 3603 C 351.258 1.72105 -1.5647 0
M  V30 3604 C 352.252 1.63756 -0.433612 0
M  V30 3605 O 353.458 1.69342 -0.610194 0
M  V30 3606 H 349.833 0.568889 -0.491802 0
M  V30 3607 H 351.804 1.6051 -2.51553 0
M  V30 3608 C 350.553 3.10493 -1.56491 0
M  V30 3609 H 349.876 3.17583 -2.4286 0
M  V30 3610 H 351.316 3.8939 -1.67785 0
M  V30 3611 C 349.775 3.3563 -0.292231 0
M  V30 3612 O 350.305 3.96875 0.620739 0
M  V30 3613 N 348.511 2.90026 -0.182523 0
M  V30 3614 H 348.058 2.40367 -0.926356 0
M  V30 3615 H 348.016 3.07218 0.668152 0
M  V30 3616 N 351.788 1.33704 0.83433 0
M  V30 3617 C 352.718 1.26967 1.95963 0
M  V30 3618 C 353.699 0.149337 1.69443 0
M  V30 3619 O 354.884 0.339852 1.91203 0
M  V30 3620 C 352.014 1.01275 3.32206 0
M  V30 3621 C 350.968 2.09652 3.73136 0
M  V30 3622 C 350.294 1.69166 5.07235 0
M  V30 3623 C 351.594 3.51372 3.86439 0
M  V30 3624 H 353.288 2.2112 2.01857 0
M  V30 3625 H 350.834 1.06447 0.969793 0
M  V30 3626 H 352.787 0.952106 4.10503 0
M  V30 3627 H 351.511 0.0356203 3.26581 0
M  V30 3628 H 350.17 2.14766 2.97104 0
M  V30 3629 H 349.818 0.701437 4.98085 0
M  V30 3630 H 349.518 2.41694 5.35591 0
M  V30 3631 H 351.042 1.64576 5.88003 0
M  V30 3632 H 352.456 3.48734 4.55036 0
M  V30 3633 H 350.853 4.22425 4.26236 0
M  V30 3634 H 351.923 3.89546 2.88759 0
M  V30 3635 N 353.266 -1.05314 1.17247 0
M  V30 3636 C 354.513 -1.78293 0.960091 0
M  V30 3637 C 354.841 -1.87658 -0.51136 0
M  V30 3638 O 354.096 -1.3718 -1.39571 0
M  V30 3639 C 354.395 -3.2229 1.54479 0
M  V30 3640 C 354.061 -3.32987 3.04024 0
M  V30 3641 C 352.723 -3.35613 3.44844 0
M  V30 3642 C 355.075 -3.34102 4.00031 0
M  V30 3643 C 352.403 -3.36982 4.8027 0
M  V30 3644 C 354.755 -3.3701 5.35357 0
M  V30 3645 C 353.419 -3.37923 5.75642 0
M  V30 3646 H 352.689 -0.652422 0.351322 0
M  V30 3647 H 355.336 -1.23782 1.46117 0
M  V30 3648 H 353.641 -3.7972 0.965391 0
M  V30 3649 H 355.338 -3.77376 1.35603 0
M  V30 3650 H 351.928 -3.31655 2.71483 0
M  V30 3651 H 356.112 -3.31276 3.69554 0
M  V30 3652 H 351.368 -3.35999 5.10798 0
M  V30 3653 H 355.542 -3.36822 6.09528 0
M  V30 3654 H 353.169 -3.38738 6.80559 0
M  V30 3655 N 354.744 -0.972509 -1.24016 0
M  V30 3656 C 355.694 -0.477561 -2.22942 0
M  V30 3657 C 356.678 0.44308 -1.54679 0
M  V30 3658 O 357.87 0.273219 -1.74879 0
M  V30 3659 C 354.999 0.226348 -3.42553 0
M  V30 3660 C 354.085 -0.713403 -4.18057 0
M  V30 3661 N 354.476 -1.8527 -4.70647 0
M  V30 3662 C 352.774 -0.525145 -4.42898 0
M  V30 3663 C 353.475 -2.44089 -5.28011 0
M  V30 3664 N 352.451 -1.72556 -5.15486 0
M  V30 3665 H 356.253 -1.34678 -2.61226 0
M  V30 3666 H 353.767 -0.832196 -1.39457 0
M  V30 3667 H 355.764 0.598184 -4.12586 0
M  V30 3668 H 354.424 1.09195 -3.05788 0
M  V30 3669 H 355.435 -2.2341 -4.67235 0
M  V30 3670 H 352.112 0.296096 -4.16449 0
M  V30 3671 H 353.502 -3.40259 -5.79374 0
M  V30 3672 N 356.222 1.38976 -0.743202 0
M  V30 3673 C 357.638 1.53984 -0.419664 0
M  V30 3674 C 357.838 1.70837 1.0685 0
M  V30 3675 O 356.894 1.7135 1.8546 0
M  V30 3676 C 358.207 2.75287 -1.20985 0
M  V30 3677 C 359.755 2.89129 -1.19889 0
M  V30 3678 C 360.23 4.13381 -1.97181 0
M  V30 3679 N 361.721 4.20437 -1.94389 0
M  V30 3680 C 362.456 5.15547 -2.50996 0
M  V30 3681 N 361.952 6.16395 -3.16274 0
M  V30 3682 N 363.745 5.07822 -2.40984 0
M  V30 3683 H 355.896 1.26285 -1.7078 0
M  V30 3684 H 358.159 0.612689 -0.723406 0
M  V30 3685 H 357.865 2.69204 -2.26323 0
M  V30 3686 H 357.739 3.68184 -0.819759 0
M  V30 3687 H 360.126 2.947 -0.153606 0
M  V30 3688 H 360.207 1.97272 -1.62841 0
M  V30 3689 H 359.851 4.08572 -3.01714 0
M  V30 3690 H 359.781 5.04298 -1.51629 0
M  V30 3691 H 362.272 3.48205 -1.46839 0
M  V30 3692 H 362.585 6.85443 -3.56915 0
M  V30 3693 H 360.93 6.16758 -3.20367 0
M  V30 3694 H 364.121 4.27973 -1.89622 0
M  V30 3695 H 364.294 5.81767 -2.85397 0
M  V30 3696 N 357.7 0.491464 1.49741 0
M  V30 3697 C 358.663 -0.280906 2.27472 0
M  V30 3698 C 359.663 -0.902454 1.33088 0
M  V30 3699 O 360.853 -0.768465 1.56334 0
M  V30 3700 C 357.985 -1.40209 3.10732 0
M  V30 3701 H 359.178 0.401056 2.97206 0
M  V30 3702 H 356.731 0.246131 1.5435 0
M  V30 3703 H 357.466 -2.11849 2.45541 0
M  V30 3704 H 357.251 -0.961969 3.80117 0
M  V30 3705 H 358.741 -1.9464 3.69466 0
M  V30 3706 N 359.178 -1.55987 0.224894 0
M  V30 3707 C 360.427 -1.97566 -0.406273 0
M  V30 3708 C 360.74 -1.11569 -1.6066 0
M  V30 3709 O 361.946 -1.43062 -2.3075 0
M  V30 3710 C 360.402 -3.51474 -0.774207 0
M  V30 3711 C 360.01 -4.46179 0.403496 0
M  V30 3712 C 361.754 -4.01758 -1.37079 0
M  V30 3713 C 359.661 -5.91399 0.0129412 0
M  V30 3714 H 358.591 -0.737777 -0.155565 0
M  V30 3715 H 361.242 -1.80659 0.321635 0
M  V30 3716 H 359.624 -3.63994 -1.55963 0
M  V30 3717 H 360.798 -4.45409 1.18101 0
M  V30 3718 H 359.113 -4.06255 0.913536 0
M  V30 3719 H 361.71 -5.07756 -1.67596 0
M  V30 3720 H 362.053 -3.47805 -2.28773 0
M  V30 3721 H 362.586 -3.92475 -0.648733 0
M  V30 3722 H 359.325 -6.49341 0.896451 0
M  V30 3723 H 358.845 -5.95356 -0.728821 0
M  V30 3724 H 360.524 -6.45683 -0.412582 0
M  V30 3725 N 360.656 0.0484629 -1.57525 0
M  V30 3726 C 361.881 0.759177 -1.93006 0
M  V30 3727 C 362.306 1.69125 -0.823317 0
M  V30 3728 O 361.664 1.79931 0.222364 0
M  V30 3729 C 361.712 1.50899 -3.27509 0
M  V30 3730 O 360.816 2.62112 -3.18388 0
M  V30 3731 H 360.157 0.205564 -0.631379 0
M  V30 3732 H 362.687 0.00972959 -2.04598 0
M  V30 3733 H 362.697 1.88317 -3.6194 0
M  V30 3734 H 361.372 0.825269 -4.0763 0
M  V30 3735 H 359.949 2.27379 -2.95556 0
M  V30 3736 N 362.134 1.5431 0.320358 0
M  V30 3737 C 363.044 1.86946 1.41734 0
M  V30 3738 C 364.06 0.761689 1.56443 0
M  V30 3739 O 365.236 1.05629 1.71477 0
M  V30 3740 C 362.301 2.09293 2.76401 0
M  V30 3741 C 361.362 3.33082 2.70841 0
M  V30 3742 C 360.595 3.54353 3.99086 0
M  V30 3743 O 360.818 2.79002 4.97508 0
M  V30 3744 O 359.752 4.47838 4.0215 0
M  V30 3745 H 363.578 2.80232 1.17062 0
M  V30 3746 H 361.163 1.40255 0.514673 0
M  V30 3747 H 363.045 2.25303 3.56113 0
M  V30 3748 H 361.72 1.19194 3.00956 0
M  V30 3749 H 360.627 3.22454 1.89668 0
M  V30 3750 H 361.96 4.23249 2.5124 0
M  V30 3751 N 363.613 -0.582584 1.46437 0
M  V30 3752 C 364.838 -1.37168 1.55563 0
M  V30 3753 C 365.263 -1.87061 0.19743 0
M  V30 3754 O 364.621 -1.61572 -0.822451 0
M  V30 3755 C 364.669 -2.53511 2.56446 0
M  V30 3756 O 363.773 -3.54953 2.09958 0
M  V30 3757 H 363.114 -0.408494 0.523477 0
M  V30 3758 H 365.644 -0.706646 1.9201 0
M  V30 3759 H 365.654 -3.00426 2.76058 0
M  V30 3760 H 364.329 -2.16549 3.55076 0
M  V30 3761 H 362.906 -3.14516 2.00334 0
M  V30 3762 N 365.091 -1.34144 -0.827227 0
M  V30 3763 C 366.339 -1.26009 -1.58007 0
M  V30 3764 C 366.66 0.170971 -1.94249 0
M  V30 3765 O 365.93 1.10256 -1.61927 0
M  V30 3766 H 364.51 -0.463414 -0.585881 0
M  V30 3767 H 367.172 -1.68005 -0.987951 0
M  V30 3768 H 366.268 -1.86187 -2.50481 0
M  V30 3769 N 366.569 1.04691 -1.17803 0
M  V30 3770 C 367.815 1.78045 -0.970969 0
M  V30 3771 C 368.148 1.87686 0.498751 0
M  V30 3772 O 367.423 1.38035 1.37027 0
M  V30 3773 C 367.706 3.2166 -1.61884 0
M  V30 3774 C 367.559 3.20001 -3.161 0
M  V30 3775 C 368.878 4.1962 -1.3269 0
M  V30 3776 H 365.997 0.64633 -0.354155 0
M  V30 3777 H 368.639 1.22333 -1.45378 0
M  V30 3778 H 366.789 3.69232 -1.20831 0
M  V30 3779 H 368.461 2.80467 -3.66246 0
M  V30 3780 H 366.704 2.58203 -3.48588 0
M  V30 3781 H 367.375 4.21386 -3.56564 0
M  V30 3782 H 369.851 3.80567 -1.68249 0
M  V30 3783 H 368.727 5.18339 -1.80599 0
M  V30 3784 H 368.988 4.414 -0.248622 0
M  V30 3785 N 368.047 0.979072 1.23499 0
M  V30 3786 C 369.01 0.523244 2.23147 0
M  V30 3787 C 370.01 -0.386406 1.56088 0
M  V30 3788 O 371.2 -0.180283 1.73265 0
M  V30 3789 C 368.332 -0.240739 3.40049 0
M  V30 3790 H 369.525 1.40432 2.64989 0
M  V30 3791 H 367.078 0.764824 1.36309 0
M  V30 3792 H 367.813 -1.13841 3.03662 0
M  V30 3793 H 367.598 0.412207 3.89927 0
M  V30 3794 H 369.088 -0.548297 4.13985 0
M  V30 3795 N 369.525 -1.3858 0.750561 0
M  V30 3796 C 370.455 -2.33102 0.136237 0
M  V30 3797 C 371.436 -1.54713 -0.706965 0
M  V30 3798 O 372.621 -1.83043 -0.648769 0
M  V30 3799 C 369.751 -3.38882 -0.760017 0
M  V30 3800 C 368.705 -4.27995 -0.0197785 0
M  V30 3801 C 368.031 -5.24605 -1.03408 0
M  V30 3802 C 369.331 -5.09554 1.14684 0
M  V30 3803 H 371.025 -2.84726 0.925822 0
M  V30 3804 H 368.571 -1.36898 0.446654 0
M  V30 3805 H 370.524 -4.0397 -1.19943 0
M  V30 3806 H 369.248 -2.85734 -1.58189 0
M  V30 3807 H 367.907 -3.64409 0.400184 0
M  V30 3808 H 367.555 -4.67746 -1.84994 0
M  V30 3809 H 367.255 -5.85081 -0.543464 0
M  V30 3810 H 368.779 -5.9257 -1.47288 0
M  V30 3811 H 370.193 -5.67899 0.785118 0
M  V30 3812 H 368.59 -5.7925 1.56812 0
M  V30 3813 H 369.66 -4.4347 1.96118 0
M  V30 3814 N 371.003 -0.499398 -1.49478 0
M  V30 3815 C 372.231 0.0425456 -2.06856 0
M  V30 3816 C 372.646 1.30964 -1.35992 0
M  V30 3817 O 372.003 1.77172 -0.437762 0
M  V30 3818 C 372.054 0.301735 -3.60239 0
M  V30 3819 O 371.775 -0.915127 -4.28436 0
M  V30 3820 C 373.276 0.887499 -4.34325 0
M  V30 3821 H 370.496 -0.0197482 -0.670709 0
M  V30 3822 H 373.04 -0.696297 -1.92281 0
M  V30 3823 H 371.195 0.990556 -3.74522 0
M  V30 3824 H 371.609 -0.676993 -5.20113 0
M  V30 3825 H 373.083 1.01845 -5.42523 0
M  V30 3826 H 373.56 1.88488 -3.96698 0
M  V30 3827 H 374.166 0.236196 -4.24644 0
M  V30 3828 N 372.481 1.55866 -0.233164 0
M  V30 3829 C 373.706 2.03449 0.402906 0
M  V30 3830 C 374.131 1.11166 1.51736 0
M  V30 3831 O 373.489 0.101996 1.81013 0
M  V30 3832 C 373.537 3.49165 0.9009 0
M  V30 3833 O 372.641 3.60019 2.01147 0
M  V30 3834 H 371.982 0.657913 0.0897025 0
M  V30 3835 H 374.512 2.01493 -0.355201 0
M  V30 3836 H 374.522 3.89716 1.2077 0
M  V30 3837 H 373.197 4.15813 0.0852889 0
M  V30 3838 H 371.774 3.3136 1.71042 0
M  V30 3839 N 373.959 -0.0401083 1.57549 0
M  V30 3840 C 375.205 -0.734211 1.89043 0
M  V30 3841 C 375.538 -1.75591 0.829535 0
M  V30 3842 O 374.813 -1.93868 -0.156706 0
M  V30 3843 C 375.096 -1.41374 3.31188 0
M  V30 3844 C 374.949 -0.406299 4.47961 0
M  V30 3845 C 376.268 -2.35061 3.72068 0
M  V30 3846 H 373.387 -0.265447 0.687537 0
M  V30 3847 H 376.029 0.00294087 1.9 0
M  V30 3848 H 374.179 -2.04206 3.30503 0
M  V30 3849 H 375.851 0.219255 4.60779 0
M  V30 3850 H 374.094 0.275485 4.32924 0
M  V30 3851 H 374.765 -0.920022 5.44279 0
M  V30 3852 H 377.241 -1.82282 3.74049 0
M  V30 3853 H 376.117 -2.79593 4.72355 0
M  V30 3854 H 376.378 -3.21258 3.0372 0
M  V30 3855 N 375.437 -1.54477 -0.31217 0
M  V30 3856 C 376.367 -1.87652 -1.38957 0
M  V30 3857 C 377.348 -0.734358 -1.53431 0
M  V30 3858 O 378.533 -0.98911 -1.67123 0
M  V30 3859 C 375.663 -2.11396 -2.75552 0
M  V30 3860 C 374.617 -3.27243 -2.75855 0
M  V30 3861 C 373.943 -3.36382 -4.15633 0
M  V30 3862 C 375.243 -4.64622 -2.38587 0
M  V30 3863 H 376.937 -2.77887 -1.11442 0
M  V30 3864 H 374.483 -1.33707 -0.534655 0
M  V30 3865 H 376.436 -2.33189 -3.51 0
M  V30 3866 H 375.16 -1.17921 -3.04569 0
M  V30 3867 H 373.819 -3.05356 -2.02863 0
M  V30 3868 H 373.467 -2.40445 -4.41809 0
M  V30 3869 H 373.167 -4.14249 -4.1674 0
M  V30 3870 H 374.691 -3.60422 -4.92877 0
M  V30 3871 H 376.105 -4.86219 -3.03749 0
M  V30 3872 H 374.502 -5.45121 -2.50925 0
M  V30 3873 H 375.572 -4.66097 -1.33723 0
M  V30 3874 N 376.915 0.57481 -1.46744 0
M  V30 3875 C 378.161 1.3347 -1.52688 0
M  V30 3876 C 378.494 1.93353 -0.181229 0
M  V30 3877 O 377.769 1.76912 0.808237 0
M  V30 3878 C 378.052 2.45811 -2.63152 0
M  V30 3879 C 377.905 1.90912 -4.07275 0
M  V30 3880 C 379.224 3.47822 -2.69644 0
M  V30 3881 H 376.343 0.483935 -0.555856 0
M  V30 3882 H 378.985 0.644968 -1.78718 0
M  V30 3883 H 377.135 3.04646 -2.41088 0
M  V30 3884 H 378.807 1.36473 -4.4065 0
M  V30 3885 H 377.05 1.21691 -4.16382 0
M  V30 3886 H 377.721 2.72042 -4.80309 0
M  V30 3887 H 380.197 2.9888 -2.895 0
M  V30 3888 H 379.073 4.23876 -3.48742 0
M  V30 3889 H 379.334 4.05555 -1.76005 0
M  V30 3890 N 378.394 1.34581 0.820102 0
M  V30 3891 C 379.341 1.2639 1.93117 0
M  V30 3892 C 380.311 0.138554 1.65521 0
M  V30 3893 O 381.496 0.320004 1.88097 0
M  V30 3894 C 378.636 1.02812 3.29429 0
M  V30 3895 C 377.749 2.24146 3.693 0
M  V30 3896 C 376.884 1.93829 4.94574 0
M  V30 3897 C 375.923 3.1129 5.27034 0
M  V30 3898 N 375.06 2.80838 6.43486 0
M  V30 3899 H 379.9 2.21408 1.99455 0
M  V30 3900 H 377.437 1.10077 0.975784 0
M  V30 3901 H 379.395 0.871788 4.0799 0
M  V30 3902 H 378.025 0.114612 3.22596 0
M  V30 3903 H 377.077 2.50691 2.86109 0
M  V30 3904 H 378.389 3.11899 3.89257 0
M  V30 3905 H 377.543 1.74948 5.80929 0
M  V30 3906 H 376.282 1.03341 4.76626 0
M  V30 3907 H 375.287 3.30764 4.39175 0
M  V30 3908 H 376.512 4.02561 5.4692 0
M  V30 3909 H 374.458 1.92929 6.26988 0
M  V30 3910 H 374.375 3.62123 6.63629 0
M  V30 3911 H 375.643 2.65467 7.32903 0
M  V30 3912 N 379.872 -1.04064 1.18357 0
M  V30 3913 C 380.819 -2.12077 0.910603 0
M  V30 3914 C 381.789 -1.65421 -0.15 0
M  V30 3915 O 382.974 -1.90797 -0.0103614 0
M  V30 3916 C 380.114 -3.42252 0.442472 0
M  V30 3917 C 379.227 -4.0252 1.5685 0
M  V30 3918 C 378.362 -5.20657 1.05309 0
M  V30 3919 C 377.401 -5.72955 2.1538 0
M  V30 3920 N 376.538 -6.8238 1.65233 0
M  V30 3921 H 381.378 -2.34764 1.83548 0
M  V30 3922 H 378.915 -1.15157 0.915279 0
M  V30 3923 H 380.873 -4.16921 0.152534 0
M  V30 3924 H 379.503 -3.19712 -0.445428 0
M  V30 3925 H 378.555 -3.25178 1.97391 0
M  V30 3926 H 379.867 -4.37362 2.39824 0
M  V30 3927 H 379.021 -6.0244 0.717677 0
M  V30 3928 H 377.76 -4.87318 0.19293 0
M  V30 3929 H 376.765 -4.89793 2.49766 0
M  V30 3930 H 377.99 -6.08337 3.01832 0
M  V30 3931 H 375.936 -6.50917 0.815064 0
M  V30 3932 H 375.853 -7.16286 2.41805 0
M  V30 3933 H 377.121 -7.67788 1.34619 0
M  V30 3934 N 381.35 -0.985608 -1.22978 0
M  V30 3935 C 382.598 -0.656087 -1.91154 0
M  V30 3936 C 382.919 0.813561 -1.77218 0
M  V30 3937 O 382.189 1.58244 -1.1548 0
M  V30 3938 H 380.769 -0.239674 -0.707506 0
M  V30 3939 H 383.431 -1.25054 -1.49491 0
M  V30 3940 H 382.527 -0.912253 -2.9847 0
M  V30 3941 N 382.828 1.3818 -0.7579 0
M  V30 3942 C 384.105 1.94106 -0.241306 0
M  V30 3943 C 384.485 1.69282 1.26122 0
M  V30 3944 O 383.833 1.03378 2.03777 0
M  V30 3945 C 384.043 3.43809 -0.59967 0
M  V30 3946 C 385.391 4.20868 -0.561717 0
M  V30 3947 O 386.415 3.5211 -0.538222 0
M  V30 3948 O 385.274 5.43451 -0.576478 0
M  V30 3949 H 382.368 0.825376 -0.0518042 0
M  V30 3950 H 384.914 1.47548 -0.838315 0
M  V30 3951 H 383.686 3.55403 -1.6372 0
M  V30 3952 H 383.309 3.97592 0.0251197 0
M  V30 3953 N 384.306 0.507319 1.49211 0
M  V30 3954 C 385.552 -0.0350047 2.0277 0
M  V30 3955 C 385.885 -1.3606 1.38569 0
M  V30 3956 O 385.16 -1.87321 0.523542 0
M  V30 3957 C 385.443 -0.180916 3.59645 0
M  V30 3958 C 385.296 1.16825 4.34364 0
M  V30 3959 C 386.615 -0.918558 4.30407 0
M  V30 3960 H 383.734 -0.0112473 0.736914 0
M  V30 3961 H 386.376 0.659956 1.7817 0
M  V30 3962 H 384.526 -0.772826 3.80736 0
M  V30 3963 H 386.198 1.79952 4.24753 0
M  V30 3964 H 384.441 1.75594 3.96673 0
M  V30 3965 H 385.112 1.01939 5.42506 0
M  V30 3966 H 387.588 -0.41649 4.1401 0
M  V30 3967 H 386.464 -0.989505 5.39907 0
M  V30 3968 H 386.725 -1.96373 3.96093 0
M  V30 3969 N 385.784 -1.5574 0.241426 0
M  V30 3970 C 386.731 -2.21149 -0.660432 0
M  V30 3971 C 387.701 -1.17356 -1.17545 0
M  V30 3972 O 388.886 -1.45784 -1.23093 0
M  V30 3973 C 386.026 -2.91059 -1.85414 0
M  V30 3974 C 385.139 -4.09495 -1.37616 0
M  V30 3975 C 384.274 -4.67135 -2.529 0
M  V30 3976 C 383.313 -5.77831 -2.01936 0
M  V30 3977 N 382.45 -6.29677 -3.10566 0
M  V30 3978 H 387.29 -2.97845 -0.095955 0
M  V30 3979 H 384.827 -1.47057 -0.0356024 0
M  V30 3980 H 386.785 -3.29788 -2.5553 0
M  V30 3981 H 385.415 -2.16846 -2.39118 0
M  V30 3982 H 384.467 -3.76117 -0.569235 0
M  V30 3983 H 385.779 -4.89423 -0.962618 0
M  V30 3984 H 384.933 -5.08409 -3.31067 0
M  V30 3985 H 383.672 -3.86411 -2.97553 0
M  V30 3986 H 382.677 -5.36039 -1.22238 0
M  V30 3987 H 383.902 -6.60402 -1.58259 0
M  V30 3988 H 381.848 -5.5186 -3.54664 0
M  V30 3989 H 381.765 -7.04783 -2.73526 0
M  V30 3990 H 383.033 -6.75609 -3.88809 0
M  V30 3991 N 387.262 0.0317525 -1.57568 0
M  V30 3992 C 388.673 0.578692 -1.77505 0
M  V30 3993 C 389.024 1.75749 -0.872164 0
M  V30 3994 O 388.149 2.16298 -0.0663106 0
M  V30 3995 C 388.744 1.05658 -3.21904 0
M  V30 3996 C 387.303 1.54906 -3.43047 0
M  V30 3997 C 386.45 0.485939 -2.73009 0
M  V30 3998 H 389.401 -0.194475 -1.57504 0
M  V30 3999 H 389.422 1.92404 -3.28269 0
M  V30 4000 H 388.934 0.198422 -3.87592 0
M  V30 4001 H 387.035 2.42915 -2.82529 0
M  V30 4002 H 387.148 1.59841 -4.5165 0
M  V30 4003 H 385.512 0.940354 -2.36705 0
M  V30 4004 H 386.295 -0.362709 -3.41379 0
M  V30 4005 N 388.74 1.54641 0.303973 0
M  V30 4006 C 389.67 1.88386 1.3796 0
M  V30 4007 C 390.651 0.742485 1.5304 0
M  V30 4008 O 391.836 0.997959 1.66597 0
M  V30 4009 C 388.966 2.12854 2.74427 0
M  V30 4010 C 387.92 3.28702 2.74115 0
M  V30 4011 C 387.246 3.38582 4.13844 0
M  V30 4012 C 388.546 4.65881 2.3612 0
M  V30 4013 H 390.24 2.78474 1.09966 0
M  V30 4014 H 387.786 1.33988 0.527556 0
M  V30 4015 H 389.739 2.35047 3.49758 0
M  V30 4016 H 388.463 1.19535 3.03939 0
M  V30 4017 H 387.122 3.06428 2.0124 0
M  V30 4018 H 386.77 2.42784 4.40528 0
M  V30 4019 H 386.47 4.16453 4.14537 0
M  V30 4020 H 387.994 3.63031 4.90959 0
M  V30 4021 H 389.408 4.87823 3.01167 0
M  V30 4022 H 387.805 5.46444 2.48031 0
M  V30 4023 H 388.875 4.66799 1.3125 0
M  V30 4024 N 390.218 -0.567019 1.47046 0
M  V30 4025 C 391.181 -1.65696 1.58359 0
M  V30 4026 C 392.181 -1.54097 0.459441 0
M  V30 4027 O 393.371 -1.58432 0.724225 0
M  V30 4028 C 390.503 -3.05197 1.51879 0
M  V30 4029 H 391.696 -1.57019 2.5551 0
M  V30 4030 H 389.249 -0.786148 1.3509 0
M  V30 4031 H 389.984 -3.19417 0.560673 0
M  V30 4032 H 389.769 -3.15025 2.33455 0
M  V30 4033 H 391.259 -3.84511 1.62913 0
M  V30 4034 N 391.696 -1.35014 -0.812953 0
M  V30 4035 C 392.606 -1.2951 -1.95613 0
M  V30 4036 C 393.622 -0.20107 -1.72834 0
M  V30 4037 O 394.798 -0.42932 -1.96771 0
M  V30 4038 C 391.863 -1.06033 -3.30088 0
M  V30 4039 C 390.924 -2.24688 -3.65805 0
M  V30 4040 C 390.157 -2.02322 -4.93864 0
M  V30 4041 O 390.38 -0.986464 -5.61805 0
M  V30 4042 O 389.314 -2.89525 -5.27692 0
M  V30 4043 H 393.14 -2.25705 -2.03202 0
M  V30 4044 H 390.725 -1.15321 -0.949811 0
M  V30 4045 H 392.607 -0.94763 -4.10607 0
M  V30 4046 H 391.282 -0.128852 -3.23443 0
M  V30 4047 H 390.189 -2.41521 -2.85689 0
M  V30 4048 H 391.522 -3.16261 -3.77147 0
M  V30 4049 N 393.175 1.03435 -1.18907 0
M  V30 4050 C 394.107 2.1165 -0.879595 0
M  V30 4051 C 395.12 1.62316 0.125439 0
M  V30 4052 O 396.309 1.78201 -0.103245 0
M  V30 4053 C 393.409 3.37622 -0.294042 0
M  V30 4054 C 392.582 4.16166 -1.34629 0
M  V30 4055 C 391.641 5.20457 -0.775274 0
M  V30 4056 O 390.667 5.50379 -1.4516 0
M  V30 4057 N 391.869 5.78949 0.424126 0
M  V30 4058 H 394.634 2.38791 -1.81105 0
M  V30 4059 H 392.195 1.19681 -1.09032 0
M  V30 4060 H 394.187 4.04572 0.101679 0
M  V30 4061 H 392.757 3.07873 0.541575 0
M  V30 4062 H 391.977 3.44444 -1.91707 0
M  V30 4063 H 393.265 4.65432 -2.05549 0
M  V30 4064 H 392.663 5.56948 0.991209 0
M  V30 4065 H 391.22 6.47334 0.761691 0
M  V30 4066 N 394.653 0.992116 1.22453 0
M  V30 4067 C 395.902 0.662992 1.90492 0
M  V30 4068 C 396.215 -0.808407 1.78113 0
M  V30 4069 O 397.421 -1.24908 2.41061 0
M  V30 4070 C 395.877 1.1353 3.41524 0
M  V30 4071 C 395.485 2.63187 3.62542 0
M  V30 4072 C 397.229 0.880465 4.15269 0
M  V30 4073 C 395.136 3.04024 5.0727 0
M  V30 4074 H 394.066 0.244278 0.713333 0
M  V30 4075 H 396.717 1.20157 1.38688 0
M  V30 4076 H 395.099 0.52485 3.92506 0
M  V30 4077 H 396.273 3.2957 3.22056 0
M  V30 4078 H 394.588 2.86543 3.02129 0
M  V30 4079 H 397.185 1.16128 5.21937 0
M  V30 4080 H 397.528 -0.183408 4.15896 0
M  V30 4081 H 398.061 1.45307 3.70312 0
M  V30 4082 H 394.8 4.09584 5.11782 0
M  V30 4083 H 394.32 2.42343 5.48662 0
M  V30 4084 H 395.999 2.95282 5.75689 0
M  V30 4085 N 396.131 -1.37776 0.765217 0
M  V30 4086 C 397.094 -2.28686 0.153416 0
M  V30 4087 C 398.094 -1.47727 -0.635081 0
M  V30 4088 O 399.284 -1.68027 -0.459632 0
M  V30 4089 C 396.416 -3.31608 -0.790495 0
M  V30 4090 H 397.609 -2.84297 0.954723 0
M  V30 4091 H 395.162 -1.46932 0.53299 0
M  V30 4092 H 395.897 -2.81109 -1.61705 0
M  V30 4093 H 395.682 -3.9144 -0.227348 0
M  V30 4094 H 397.172 -3.99559 -1.21419 0
M  V30 4095 N 397.609 -0.515225 -1.4894 0
M  V30 4096 C 398.858 0.0261361 -2.01683 0
M  V30 4097 C 399.171 1.36719 -1.39883 0
M  V30 4098 O 400.377 1.99606 -1.84037 0
M  V30 4099 C 398.833 0.0970111 -3.59769 0
M  V30 4100 C 398.441 -1.23825 -4.30548 0
M  V30 4101 C 400.185 0.587981 -4.20408 0
M  V30 4102 C 398.092 -1.12877 -5.80528 0
M  V30 4103 H 397.022 0.0135398 -0.753878 0
M  V30 4104 H 399.673 -0.656787 -1.71343 0
M  V30 4105 H 398.055 0.844694 -3.86886 0
M  V30 4106 H 399.229 -2.00034 -4.15118 0
M  V30 4107 H 397.544 -1.66379 -3.81716 0
M  V30 4108 H 400.141 0.68763 -5.3026 0
M  V30 4109 H 400.484 1.59026 -3.84729 0
M  V30 4110 H 401.017 -0.103582 -3.97665 0
M  V30 4111 H 397.756 -2.10575 -6.20756 0
M  V30 4112 H 397.276 -0.407799 -5.98412 0
M  V30 4113 H 398.955 -0.813332 -6.41868 0
M  V30 4114 N 399.087 1.5561 -0.249682 0
M  V30 4115 C 400.315 2.03411 0.378352 0
M  V30 4116 C 400.73 1.12886 1.51335 0
M  V30 4117 O 400.087 0.143833 1.81932 0
M  V30 4118 C 400.138 3.50537 0.88351 0
M  V30 4119 O 399.859 4.37614 -0.20626 0
M  V30 4120 C 401.36 4.14113 1.58195 0
M  V30 4121 H 398.58 0.664994 0.08958 0
M  V30 4122 H 401.124 2.01044 -0.374357 0
M  V30 4123 H 399.279 3.5343 1.58639 0
M  V30 4124 H 399.693 5.24199 0.177782 0
M  V30 4125 H 401.167 5.18741 1.8871 0
M  V30 4126 H 401.644 3.60767 2.50487 0
M  V30 4127 H 402.25 4.15151 0.923573 0
M  V30 4128 N 400.565 -0.0233959 1.57583 0
M  V30 4129 C 401.528 -1.00693 2.05897 0
M  V30 4130 C 402.528 -1.28693 0.964092 0
M  V30 4131 O 403.718 -1.23602 1.22753 0
M  V30 4132 C 400.85 -2.33825 2.4807 0
M  V30 4133 H 402.043 -0.589476 2.9405 0
M  V30 4134 H 399.596 -0.270354 1.53944 0
M  V30 4135 H 400.331 -2.80307 1.6309 0
M  V30 4136 H 400.116 -2.1483 3.2801 0
M  V30 4137 H 401.606 -3.04426 2.85857 0
M  V30 4138 N 402.043 -1.548 -0.295768 0
M  V30 4139 C 403.291 -1.73985 -1.02828 0
M  V30 4140 C 403.612 -0.531406 -1.87619 0
M  V30 4141 O 402.882 0.454221 -1.90561 0
M  V30 4142 H 401.462 -0.641556 -0.382642 0
M  V30 4143 H 404.124 -1.92163 -0.325489 0
M  V30 4144 H 403.22 -2.63129 -1.67838 0
M  V30 4145 N 403.521 0.559213 -1.47345 0
M  V30 4146 C 404.761 1.32728 -1.55444 0
M  V30 4147 C 405.125 1.90838 -0.210895 0
M  V30 4148 O 406.326 2.68282 -0.166719 0
M  V30 4149 C 404.597 2.4092 -2.63993 0
M  V30 4150 S 406.156 3.2784 -2.91661 0
M  V30 4151 H 402.974 0.451883 -0.548929 0
M  V30 4152 H 405.576 0.640404 -1.84714 0
M  V30 4153 H 404.28 1.9666 -3.60212 0
M  V30 4154 H 403.811 3.14351 -2.36531 0
M  V30 4155 H 405.826 4.40341 -2.28722 0
M  V30 4156 N 404.999 1.35443 0.805782 0
M  V30 4157 C 405.946 1.28431 1.91766 0
M  V30 4158 C 406.916 0.156102 1.65365 0
M  V30 4159 O 408.101 0.339936 1.87747 0
M  V30 4160 C 405.241 1.06301 3.2832 0
M  V30 4161 C 404.354 2.2805 3.66902 0
M  V30 4162 C 403.489 1.99064 4.92491 0
M  V30 4163 C 402.528 3.16863 5.23703 0
M  V30 4164 N 401.665 2.87647 6.40471 0
M  V30 4165 H 406.505 2.23511 1.97096 0
M  V30 4166 H 404.042 1.11105 0.964054 0
M  V30 4167 H 406 0.915012 4.07042 0
M  V30 4168 H 404.63 0.148822 3.22457 0
M  V30 4169 H 403.682 2.53711 2.83434 0
M  V30 4170 H 404.994 3.1601 3.85927 0
M  V30 4171 H 404.148 1.81099 5.7904 0
M  V30 4172 H 402.887 1.0839 4.75503 0
M  V30 4173 H 401.892 3.35404 4.35642 0
M  V30 4174 H 403.117 4.08339 5.4262 0
M  V30 4175 H 401.063 1.99568 6.24907 0
M  V30 4176 H 400.98 3.69141 6.59751 0
M  V30 4177 H 402.248 2.73226 7.30047 0
M  V30 4178 N 406.477 -1.02803 1.19454 0
M  V30 4179 C 407.705 -1.79841 1.02297 0
M  V30 4180 C 408.12 -1.83879 -0.428259 0
M  V30 4181 O 407.477 -1.28345 -1.29745 0
M  V30 4182 C 407.528 -3.24852 1.58598 0
M  V30 4183 O 407.249 -3.21097 2.98041 0
M  V30 4184 C 408.75 -4.18485 1.46236 0
M  V30 4185 H 405.97 -0.565936 0.360496 0
M  V30 4186 H 408.514 -1.2948 1.58288 0
M  V30 4187 H 406.669 -3.72401 1.06753 0
M  V30 4188 H 407.083 -4.12033 3.24545 0
M  V30 4189 H 408.557 -5.18121 1.90407 0
M  V30 4190 H 409.034 -4.37254 0.41301 0
M  V30 4191 H 409.64 -3.76811 1.97215 0
M  V30 4192 N 407.956 -0.998596 -1.21925 0
M  V30 4193 C 409.184 -0.696286 -1.94832 0
M  V30 4194 C 409.599 0.740032 -1.73692 0
M  V30 4195 O 408.956 1.5 -1.03953 0
M  V30 4196 C 409.007 -0.999833 -3.47398 0
M  V30 4197 O 408.728 -2.37972 -3.67833 0
M  V30 4198 C 410.229 -0.716025 -4.37479 0
M  V30 4199 H 407.449 -0.257111 -0.619786 0
M  V30 4200 H 409.993 -1.33491 -1.54921 0
M  V30 4201 H 408.148 -0.406918 -3.85257 0
M  V30 4202 H 408.562 -2.48338 -4.61983 0
M  V30 4203 H 410.036 -0.978642 -5.43256 0
M  V30 4204 H 410.513 0.349968 -4.37803 0
M  V30 4205 H 411.119 -1.29025 -4.05256 0
M  V30 4206 N 409.434 1.37368 -0.772513 0
M  V30 4207 C 410.662 2.03942 -0.348588 0
M  V30 4208 C 411.077 1.58264 1.02947 0
M  V30 4209 O 410.434 0.764246 1.65727 0
M  V30 4210 C 410.485 3.5946 -0.38351 0
M  V30 4211 O 410.206 4.03468 -1.70721 0
M  V30 4212 C 411.707 4.4327 0.0519152 0
M  V30 4213 H 408.927 0.654931 -0.145966 0
M  V30 4214 H 411.471 1.75686 -1.04665 0
M  V30 4215 H 409.626 3.86486 0.265978 0
M  V30 4216 H 410.04 4.97991 -1.64636 0
M  V30 4217 H 411.514 5.51995 -0.0236733 0
M  V30 4218 H 411.991 4.2514 1.10238 0
M  V30 4219 H 412.597 4.21471 -0.569415 0
M  V30 4220 N 410.912 0.523116 1.48665 0
M  V30 4221 C 412.137 -0.0117284 2.07397 0
M  V30 4222 C 412.562 -1.28031 1.37803 0
M  V30 4223 O 411.92 -1.75836 0.441762 0
M  V30 4224 C 411.968 -0.225786 3.59892 0
M  V30 4225 O 411.072 -1.29592 3.91509 0
M  V30 4226 H 410.413 0.0360673 0.66302 0
M  V30 4227 H 412.943 0.729066 1.9117 0
M  V30 4228 H 412.953 -0.450552 4.05505 0
M  V30 4229 H 411.628 0.700944 4.09951 0
M  V30 4230 H 410.205 -1.05436 3.57684 0
M  V30 4231 N 412.39 -1.55475 0.257931 0
M  V30 4232 C 413.353 -2.20551 -0.623706 0
M  V30 4233 C 414.353 -1.17809 -1.09443 0
M  V30 4234 O 415.543 -1.42823 -0.997362 0
M  V30 4235 C 412.675 -2.85784 -1.8585 0
M  V30 4236 H 413.868 -2.99848 -0.0557743 0
M  V30 4237 H 411.421 -1.56298 0.0084422 0
M  V30 4238 H 412.156 -2.10453 -2.46739 0
M  V30 4239 H 411.941 -3.61057 -1.52907 0
M  V30 4240 H 413.431 -3.35553 -2.48584 0
M  V30 4241 N 413.868 0.0150385 -1.57593 0
M  V30 4242 C 415.114 0.704043 -1.90187 0
M  V30 4243 C 415.447 1.74249 -0.857366 0
M  V30 4244 O 414.722 1.94092 0.125843 0
M  V30 4245 C 415.005 1.36087 -3.33395 0
M  V30 4246 C 414.858 0.334981 -4.48551 0
M  V30 4247 C 416.177 2.29112 -3.7576 0
M  V30 4248 H 413.296 0.254475 -0.691673 0
M  V30 4249 H 415.938 -0.0331678 -1.89971 0
M  V30 4250 H 414.088 1.98922 -3.3371 0
M  V30 4251 H 415.76 -0.292534 -4.60372 0
M  V30 4252 H 414.003 -0.344325 -4.32431 0
M  V30 4253 H 414.674 0.833316 -5.45674 0
M  V30 4254 H 417.15 1.76308 -3.76902 0
M  V30 4255 H 416.026 2.72043 -4.76743 0
M  V30 4256 H 416.287 3.16385 -3.08793 0
M  V30 4257 N 415.346 1.54954 0.287554 0
M  V30 4258 C 416.279 1.81737 1.3801 0
M  V30 4259 C 417.257 0.669412 1.48181 0
M  V30 4260 O 418.441 0.910839 1.65033 0
M  V30 4261 C 415.568 1.96606 2.75796 0
M  V30 4262 C 414.614 3.19098 2.82982 0
M  V30 4263 S 415.447 4.7683 2.43707 0
M  V30 4264 C 416.603 4.94653 3.83496 0
M  V30 4265 H 416.836 2.74122 1.15085 0
M  V30 4266 H 414.369 1.46538 0.486403 0
M  V30 4267 H 416.327 2.05858 3.55152 0
M  V30 4268 H 414.988 1.05136 2.95982 0
M  V30 4269 H 414.181 3.26344 3.84077 0
M  V30 4270 H 413.783 3.08361 2.11635 0
M  V30 4271 H 416.075 4.79502 4.78628 0
M  V30 4272 H 417.018 5.96728 3.8121 0
M  V30 4273 H 417.426 4.2272 3.74123 0
M  V30 4274 N 416.824 -0.551391 1.4764 0
M  V30 4275 C 418.07 -1.31024 1.54792 0
M  V30 4276 C 418.403 -1.9304 0.211967 0
M  V30 4277 O 417.678 -1.78175 -0.77999 0
M  V30 4278 C 417.961 -2.41593 2.67029 0
M  V30 4279 C 417.814 -1.84408 4.10261 0
M  V30 4280 C 419.133 -3.43488 2.75143 0
M  V30 4281 H 416.252 -0.475031 0.563485 0
M  V30 4282 H 418.894 -0.616454 1.79722 0
M  V30 4283 H 417.044 -3.00772 2.45904 0
M  V30 4284 H 418.716 -1.29445 4.42766 0
M  V30 4285 H 416.959 -1.15051 4.18265 0
M  V30 4286 H 417.63 -2.64367 4.84576 0
M  V30 4287 H 420.106 -2.94236 2.94218 0
M  V30 4288 H 418.982 -4.18274 3.55441 0
M  V30 4289 H 419.243 -4.02703 1.82435 0
M  V30 4290 N 418.302 -1.35869 -0.798587 0
M  V30 4291 C 419.252 -1.25982 -1.90033 0
M  V30 4292 C 420.236 -0.153303 -1.60168 0
M  V30 4293 O 421.428 -0.38527 -1.72756 0
M  V30 4294 C 418.557 -1.04211 -3.27101 0
M  V30 4295 C 417.643 -2.19289 -3.63006 0
M  V30 4296 N 418.034 -3.44559 -3.70287 0
M  V30 4297 C 416.332 -2.10852 -3.93011 0
M  V30 4298 C 417.033 -4.20283 -4.02166 0
M  V30 4299 N 416.009 -3.49124 -4.16669 0
M  V30 4300 H 419.811 -2.20883 -1.93876 0
M  V30 4301 H 417.325 -1.28457 -0.993614 0
M  V30 4302 H 419.322 -0.952155 -4.05881 0
M  V30 4303 H 417.982 -0.102013 -3.2454 0
M  V30 4304 H 418.993 -3.7881 -3.53162 0
M  V30 4305 H 415.67 -1.24744 -3.98428 0
M  V30 4306 H 417.06 -5.28575 -4.14799 0
M  V30 4307 N 419.78 1.02168 -1.19998 0
M  V30 4308 C 421.02 1.77232 -1.01825 0
M  V30 4309 C 421.384 1.86833 0.442428 0
M  V30 4310 O 422.585 2.58293 0.744189 0
M  V30 4311 C 420.856 3.15601 -1.67722 0
M  V30 4312 S 422.415 4.06765 -1.64584 0
M  V30 4313 H 419.233 0.610021 -0.365233 0
M  V30 4314 H 421.835 1.22368 -1.52467 0
M  V30 4315 H 420.539 3.06235 -2.73218 0
M  V30 4316 H 420.07 3.7554 -1.17189 0
M  V30 4317 H 422.085 4.91586 -0.67511 0
M  V30 4318 N 421.258 1.00505 1.21394 0
M  V30 4319 C 422.188 0.585684 2.26035 0
M  V30 4320 C 423.169 -0.393525 1.65485 0
M  V30 4321 O 424.354 -0.281497 1.92149 0
M  V30 4322 C 421.484 -0.0884283 3.47187 0
M  V30 4323 C 420.438 0.810567 4.20254 0
M  V30 4324 C 419.764 0.00286382 5.347 0
M  V30 4325 C 421.064 2.1132 4.77641 0
M  V30 4326 H 422.758 1.46039 2.61368 0
M  V30 4327 H 420.304 0.703648 1.25638 0
M  V30 4328 H 422.257 -0.393286 4.19561 0
M  V30 4329 H 420.981 -0.997766 3.10986 0
M  V30 4330 H 419.64 1.09925 3.49731 0
M  V30 4331 H 419.288 -0.907765 4.94741 0
M  V30 4332 H 418.988 0.601444 5.84514 0
M  V30 4333 H 420.512 -0.295808 6.09883 0
M  V30 4334 H 421.926 1.87148 5.41893 0
M  V30 4335 H 420.323 2.66164 5.37845 0
M  V30 4336 H 421.393 2.78393 3.9702 0
M  V30 4337 N 422.737 -1.36956 0.779787 0
M  V30 4338 C 424.153 -1.52817 0.460342 0
M  V30 4339 C 424.353 -1.7361 -1.02283 0
M  V30 4340 O 423.409 -1.76207 -1.80852 0
M  V30 4341 C 424.722 -2.71983 1.28241 0
M  V30 4342 C 426.27 -2.85849 1.27512 0
M  V30 4343 C 426.745 -4.08008 2.08072 0
M  V30 4344 N 428.236 -4.15135 2.05467 0
M  V30 4345 C 428.971 -5.08711 2.64577 0
M  V30 4346 N 428.467 -6.07792 3.32506 0
M  V30 4347 N 430.26 -5.01254 2.54363 0
M  V30 4348 H 422.411 -1.21713 1.74068 0
M  V30 4349 H 424.674 -0.593294 0.739396 0
M  V30 4350 H 424.38 -2.63109 2.33381 0
M  V30 4351 H 424.254 -3.65882 0.917088 0
M  V30 4352 H 426.641 -2.94189 0.231686 0
M  V30 4353 H 426.722 -1.92886 1.68014 0
M  V30 4354 H 426.366 -4.00429 3.12441 0
M  V30 4355 H 426.296 -5.001 1.64947 0
M  V30 4356 H 428.787 -3.44189 1.5602 0
M  V30 4357 H 429.1 -6.75739 3.74963 0
M  V30 4358 H 427.445 -6.08047 3.36606 0
M  V30 4359 H 430.636 -4.22795 2.00902 0
M  V30 4360 H 430.809 -5.73995 3.00722 0
M  V30 4361 N 424.215 -0.530993 -1.48385 0
M  V30 4362 C 425.147 0.268353 -2.27624 0
M  V30 4363 C 426.16 0.903525 -1.35426 0
M  V30 4364 O 427.349 0.781796 -1.60469 0
M  V30 4365 C 424.449 1.39535 -3.08842 0
M  V30 4366 C 423.622 0.861913 -4.28824 0
M  V30 4367 C 422.681 1.87016 -4.91845 0
M  V30 4368 O 421.707 1.4267 -5.5103 0
M  V30 4369 N 422.909 3.20238 -4.84178 0
M  V30 4370 H 425.674 -0.41123 -2.96865 0
M  V30 4371 H 423.235 -0.365387 -1.57723 0
M  V30 4372 H 425.227 2.06803 -3.47871 0
M  V30 4373 H 423.797 1.97859 -2.42014 0
M  V30 4374 H 423.017 0.0132126 -3.94198 0
M  V30 4375 H 424.305 0.484415 -5.06489 0
M  V30 4376 H 423.703 3.58932 -4.37246 0
M  V30 4377 H 422.26 3.83136 -5.27305 0
M  V30 4378 N 425.693 1.55336 -0.266172 0
M  V30 4379 C 426.64 2.22172 0.625165 0
M  V30 4380 C 427.61 1.19211 1.15663 0
M  V30 4381 O 428.795 1.47723 1.20758 0
M  V30 4382 C 425.935 2.93972 1.8076 0
M  V30 4383 C 425.048 4.11632 1.31084 0
M  V30 4384 C 424.183 4.71099 2.45436 0
M  V30 4385 C 423.222 5.8097 1.92718 0
M  V30 4386 N 422.359 6.34538 3.00509 0
M  V30 4387 H 427.199 2.9796 0.0485582 0
M  V30 4388 H 424.736 1.47095 0.0122024 0
M  V30 4389 H 426.694 3.33811 2.50251 0
M  V30 4390 H 425.324 2.20623 2.35638 0
M  V30 4391 H 424.376 3.76975 0.509326 0
M  V30 4392 H 425.688 4.90893 0.884633 0
M  V30 4393 H 424.842 5.13612 3.22936 0
M  V30 4394 H 423.581 3.91096 2.91368 0
M  V30 4395 H 422.586 5.37916 1.13695 0
M  V30 4396 H 423.811 6.62836 1.47733 0
M  V30 4397 H 421.757 5.57433 3.45839 0
M  V30 4398 H 421.674 7.09046 2.62279 0
M  V30 4399 H 422.942 6.81709 3.78011 0
M  V30 4400 N 427.171 -0.0066808 1.57599 0
M  V30 4401 C 428.399 -0.704087 1.94551 0
M  V30 4402 C 428.814 -1.67677 0.867746 0
M  V30 4403 O 428.171 -1.8185 -0.153925 0
M  V30 4404 C 428.222 -1.44177 3.31505 0
M  V30 4405 O 427.943 -0.508097 4.35144 0
M  V30 4406 C 429.444 -2.23429 3.82876 0
M  V30 4407 H 426.664 -0.196523 0.641576 0
M  V30 4408 H 429.208 0.042453 2.04456 0
M  V30 4409 H 427.363 -2.13999 3.22929 0
M  V30 4410 H 427.777 -1.02782 5.14331 0
M  V30 4411 H 429.251 -2.70552 4.8115 0
M  V30 4412 H 429.728 -3.05818 3.15233 0
M  V30 4413 H 430.334 -1.58636 3.94607 0
M  V30 4414 N 428.649 -1.55105 -0.279332 0
M  V30 4415 C 429.559 -1.90638 -1.36727 0
M  V30 4416 C 430.575 -0.802899 -1.54368 0
M  V30 4417 O 431.751 -1.10138 -1.68616 0
M  V30 4418 C 428.816 -2.16547 -2.70755 0
M  V30 4419 C 427.877 -3.40146 -2.61915 0
M  V30 4420 C 427.11 -3.6481 -3.8955 0
M  V30 4421 O 427.333 -2.92095 -4.89935 0
M  V30 4422 O 426.267 -4.58343 -3.90135 0
M  V30 4423 H 430.093 -2.83237 -1.09591 0
M  V30 4424 H 427.678 -1.4157 -0.477306 0
M  V30 4425 H 429.56 -2.34665 -3.50014 0
M  V30 4426 H 428.235 -1.27131 -2.9769 0
M  V30 4427 H 427.142 -3.2737 -1.81052 0
M  V30 4428 H 428.475 -4.29761 -2.3993 0
M  V30 4429 N 430.127 0.543554 -1.4793 0
M  V30 4430 C 431.037 1.67657 -1.64098 0
M  V30 4431 C 432.053 1.65934 -0.523622 0
M  V30 4432 O 433.229 1.85133 -0.792943 0
M  V30 4433 C 430.294 3.04146 -1.66421 0
M  V30 4434 C 429.355 3.16831 -2.89684 0
M  V30 4435 C 428.588 4.46809 -2.91886 0
M  V30 4436 O 428.811 5.33095 -2.02895 0
M  V30 4437 O 427.745 4.63573 -3.83906 0
M  V30 4438 H 431.571 1.56957 -2.59997 0
M  V30 4439 H 429.156 0.715116 -1.31173 0
M  V30 4440 H 431.038 3.85346 -1.70548 0
M  V30 4441 H 429.713 3.152 -0.736923 0
M  V30 4442 H 428.62 2.34977 -2.91095 0
M  V30 4443 H 429.953 3.10687 -3.81752 0
M  V30 4444 N 431.605 1.3629 0.791371 0
M  V30 4445 C 432.515 1.32606 1.93527 0
M  V30 4446 C 433.531 0.228541 1.72493 0
M  V30 4447 O 434.707 0.460571 1.96063 0
M  V30 4448 C 431.772 1.11271 3.28359 0
M  V30 4449 C 430.833 2.3048 3.62185 0
M  V30 4450 C 430.066 2.10154 4.90583 0
M  V30 4451 O 430.289 1.07572 5.60165 0
M  V30 4452 O 429.223 2.97884 5.23019 0
M  V30 4453 H 433.049 2.28909 1.99585 0
M  V30 4454 H 430.634 1.16818 0.931344 0
M  V30 4455 H 432.516 1.01283 4.09047 0
M  V30 4456 H 431.191 0.180292 3.23198 0
M  V30 4457 H 430.098 2.46036 2.81811 0
M  V30 4458 H 431.431 3.22221 3.72068 0
M  V30 4459 N 433.083 -1.0153 1.20538 0
M  V30 4460 C 434.013 -2.11972 0.979295 0
M  V30 4461 C 434.994 -1.6985 -0.0921787 0
M  V30 4462 O 436.179 -1.94089 0.0655932 0
M  V30 4463 C 433.309 -3.43201 0.531984 0
M  V30 4464 C 432.263 -3.9907 1.54685 0
M  V30 4465 C 431.589 -5.26082 0.956127 0
M  V30 4466 C 432.889 -4.32313 2.93092 0
M  V30 4467 H 434.583 -2.31143 1.90298 0
M  V30 4468 H 432.129 -1.11079 0.916372 0
M  V30 4469 H 434.082 -4.1985 0.361044 0
M  V30 4470 H 432.806 -3.23792 -0.427327 0
M  V30 4471 H 431.465 -3.2453 1.70517 0
M  V30 4472 H 431.113 -5.02999 -0.0111538 0
M  V30 4473 H 430.813 -5.64426 1.63393 0
M  V30 4474 H 432.337 -6.05386 0.796284 0
M  V30 4475 H 433.751 -4.99845 2.80763 0
M  V30 4476 H 432.148 -4.81774 3.57791 0
M  V30 4477 H 433.218 -3.41025 3.44717 0
M  V30 4478 N 434.561 -1.01147 -1.20859 0
M  V30 4479 C 435.491 -0.597663 -2.25722 0
M  V30 4480 C 436.472 0.384744 -1.65692 0
M  V30 4481 O 437.657 0.271303 -1.92296 0
M  V30 4482 C 434.787 0.0700149 -3.47229 0
M  V30 4483 C 433.741 -0.832843 -4.19819 0
M  V30 4484 C 433.067 -0.0312202 -5.34691 0
M  V30 4485 C 434.367 -2.1385 -4.76514 0
M  V30 4486 H 436.061 -1.47423 -2.60589 0
M  V30 4487 H 433.607 -0.710301 -1.25263 0
M  V30 4488 H 435.56 0.37103 -4.19763 0
M  V30 4489 H 434.284 0.981259 -3.11511 0
M  V30 4490 H 432.943 -1.11778 -3.49144 0
M  V30 4491 H 432.591 0.881515 -4.95215 0
M  V30 4492 H 432.291 -0.632434 -5.84187 0
M  V30 4493 H 433.815 0.26346 -6.10031 0
M  V30 4494 H 435.229 -1.9002 -5.40893 0
M  V30 4495 H 433.626 -2.69012 -5.36426 0
M  V30 4496 H 434.696 -2.80495 -3.95538 0
M  V30 4497 N 436.039 1.36541 -0.78704 0
M  V30 4498 C 436.949 2.3387 -0.184896 0
M  V30 4499 C 437.965 1.60927 0.661697 0
M  V30 4500 O 439.141 1.92927 0.57804 0
M  V30 4501 C 436.206 3.40122 0.672145 0
M  V30 4502 C 435.267 4.28867 -0.19267 0
M  V30 4503 C 434.5 5.30045 0.623561 0
M  V30 4504 O 434.723 5.39232 1.8597 0
M  V30 4505 O 433.657 6.01895 0.0247068 0
M  V30 4506 H 437.483 2.87126 -0.989562 0
M  V30 4507 H 435.068 1.38969 -0.548455 0
M  V30 4508 H 436.95 4.05093 1.16094 0
M  V30 4509 H 435.625 2.89169 1.45474 0
M  V30 4510 H 434.532 3.66945 -0.728166 0
M  V30 4511 H 435.865 4.83165 -0.938722 0
M  V30 4512 N 437.518 0.538854 1.48102 0
M  V30 4513 C 438.746 0.0123136 2.06896 0
M  V30 4514 C 439.161 -1.27312 1.39417 0
M  V30 4515 O 438.518 -1.75949 0.484582 0
M  V30 4516 C 438.569 -0.206118 3.60912 0
M  V30 4517 O 438.29 1.0284 4.25859 0
M  V30 4518 C 439.791 -0.772033 4.36526 0
M  V30 4519 H 437.011 0.0375239 0.66995 0
M  V30 4520 H 439.555 0.747032 1.90367 0
M  V30 4521 H 437.71 -0.89091 3.77017 0
M  V30 4522 H 438.124 0.814654 5.18135 0
M  V30 4523 H 439.598 -0.874251 5.45033 0
M  V30 4524 H 440.075 -1.77904 4.01555 0
M  V30 4525 H 440.681 -0.123526 4.25121 0
M  V30 4526 N 438.996 -1.55193 0.274407 0
M  V30 4527 C 440.224 -2.03987 -0.345943 0
M  V30 4528 C 440.639 -1.15279 -1.4952 0
M  V30 4529 O 439.996 -0.172759 -1.8168 0
M  V30 4530 C 440.047 -3.51898 -0.827631 0
M  V30 4531 O 439.768 -4.37231 0.275855 0
M  V30 4532 C 441.269 -4.16577 -1.51587 0
M  V30 4533 H 438.489 -0.666335 -0.0789892 0
M  V30 4534 H 441.033 -2.00423 0.406294 0
M  V30 4535 H 439.188 -3.55909 -1.52996 0
M  V30 4536 H 439.602 -5.24415 -0.0943638 0
M  V30 4537 H 441.076 -5.21678 -1.80433 0
M  V30 4538 H 441.553 -3.64707 -2.44716 0
M  V30 4539 H 442.159 -4.16568 -0.857409 0
M  V30 4540 N 440.474 -0.00167713 -1.576 0
M  V30 4541 C 441.404 0.988091 -2.11563 0
M  V30 4542 C 442.385 1.35736 -1.02517 0
M  V30 4543 O 443.57 1.44082 -1.30208 0
M  V30 4544 C 440.7 2.27941 -2.62031 0
M  V30 4545 C 439.654 2.0517 -3.75619 0
M  V30 4546 C 438.98 3.4033 -4.12407 0
M  V30 4547 C 440.28 1.41294 -5.02825 0
M  V30 4548 H 441.974 0.538771 -2.94513 0
M  V30 4549 H 439.52 0.257712 -1.41675 0
M  V30 4550 H 441.473 2.97539 -2.9841 0
M  V30 4551 H 440.197 2.74989 -1.76205 0
M  V30 4552 H 438.856 1.37998 -3.39635 0
M  V30 4553 H 438.504 3.85085 -3.23603 0
M  V30 4554 H 438.204 3.25909 -4.88935 0
M  V30 4555 H 439.728 4.1124 -4.51347 0
M  V30 4556 H 441.142 2.00851 -5.36965 0
M  V30 4557 H 439.539 1.37356 -5.84169 0
M  V30 4558 H 440.609 0.382362 -4.8339 0
M  V30 4559 N 441.952 1.55251 0.271103 0
M  V30 4560 C 442.899 1.88261 1.33516 0
M  V30 4561 C 443.869 0.734296 1.48988 0
M  V30 4562 O 445.054 0.985741 1.63364 0
M  V30 4563 C 442.194 2.16168 2.69008 0
M  V30 4564 C 441.307 3.43678 2.61743 0
M  V30 4565 C 440.442 3.61276 3.89427 0
M  V30 4566 C 439.481 4.82472 3.7668 0
M  V30 4567 N 438.618 4.96717 4.96202 0
M  V30 4568 H 443.458 2.79015 1.04665 0
M  V30 4569 H 440.995 1.38137 0.505618 0
M  V30 4570 H 442.953 2.30349 3.47844 0
M  V30 4571 H 441.583 1.28646 2.96057 0
M  V30 4572 H 440.635 3.37959 1.74607 0
M  V30 4573 H 441.947 4.3265 2.48224 0
M  V30 4574 H 441.101 3.75284 4.76704 0
M  V30 4575 H 439.84 2.70492 4.05814 0
M  V30 4576 H 438.845 4.68465 2.87786 0
M  V30 4577 H 440.07 5.74692 3.61809 0
M  V30 4578 H 438.016 4.08865 5.12997 0
M  V30 4579 H 437.933 5.79738 4.85222 0
M  V30 4580 H 439.201 5.15113 5.85046 0
M  V30 4581 N 443.43 -0.535701 1.48216 0
M  V30 4582 C 444.363 -1.65726 1.56876 0
M  V30 4583 C 445.341 -1.57094 0.419542 0
M  V30 4584 O 446.525 -1.77648 0.630352 0
M  V30 4585 C 443.652 -3.04096 1.49142 0
M  V30 4586 C 442.698 -3.31105 2.68834 0
M  V30 4587 S 443.531 -3.18001 4.30854 0
M  V30 4588 C 444.687 -4.58828 4.25709 0
M  V30 4589 H 444.92 -1.58129 2.51759 0
M  V30 4590 H 442.453 -0.718218 1.36678 0
M  V30 4591 H 444.411 -3.839 1.45366 0
M  V30 4592 H 443.072 -3.09139 0.556067 0
M  V30 4593 H 442.265 -4.32033 2.59545 0
M  V30 4594 H 441.867 -2.58961 2.69843 0
M  V30 4595 H 444.159 -5.5023 3.95289 0
M  V30 4596 H 445.102 -4.73172 5.26796 0
M  V30 4597 H 445.51 -4.37883 3.56257 0
M  V30 4598 N 444.908 -1.36708 -0.784132 0
M  V30 4599 C 445.855 -1.31466 -1.89698 0
M  V30 4600 C 446.825 -0.18239 -1.65096 0
M  V30 4601 O 448.01 -0.369762 -1.87183 0
M  V30 4602 C 445.15 -1.1151 -3.26588 0
M  V30 4603 C 444.263 -2.33859 -3.63227 0
M  V30 4604 C 443.398 -2.06873 -4.89262 0
M  V30 4605 C 442.437 -3.25154 -5.18595 0
M  V30 4606 N 441.574 -2.978 -6.35814 0
M  V30 4607 H 446.414 -2.26619 -1.93515 0
M  V30 4608 H 443.951 -1.12625 -0.946256 0
M  V30 4609 H 445.909 -0.979653 -4.05535 0
M  V30 4610 H 444.539 -0.200103 -3.22179 0
M  V30 4611 H 443.591 -2.58188 -2.79362 0
M  V30 4612 H 444.903 -3.22109 -3.8085 0
M  V30 4613 H 444.057 -1.90289 -5.76086 0
M  V30 4614 H 442.796 -1.15942 -4.73718 0
M  V30 4615 H 441.801 -3.42292 -4.30251 0
M  V30 4616 H 443.026 -4.1692 -5.36055 0
M  V30 4617 H 440.972 -2.09485 -6.21653 0
M  V30 4618 H 440.889 -3.7959 -6.53794 0
M  V30 4619 H 442.157 -2.84805 -7.25607 0
M  V30 4620 N 446.386 1.0089 -1.21074 0
M  V30 4621 C 447.633 1.74607 -1.0256 0
M  V30 4622 C 447.961 1.89426 0.44136 0
M  V30 4623 O 447.216 1.42266 1.34384 0
M  V30 4624 C 447.515 3.16335 -1.66334 0
M  V30 4625 C 447.181 3.21474 -3.16173 0
M  V30 4626 C 445.843 3.22583 -3.57062 0
M  V30 4627 C 448.195 3.19025 -4.12156 0
M  V30 4628 C 445.523 3.18925 -4.92446 0
M  V30 4629 C 447.875 3.16909 -5.47496 0
M  V30 4630 C 446.539 3.16326 -5.87787 0
M  V30 4631 H 445.809 0.638933 -0.375294 0
M  V30 4632 H 448.456 1.18274 -1.50611 0
M  V30 4633 H 446.761 3.75876 -1.10566 0
M  V30 4634 H 448.458 3.72083 -1.49516 0
M  V30 4635 H 445.048 3.2135 -2.83605 0
M  V30 4636 H 449.232 3.17332 -3.81595 0
M  V30 4637 H 444.488 3.16809 -5.22917 0
M  V30 4638 H 448.662 3.13968 -6.21609 0
M  V30 4639 H 446.289 3.13246 -6.92662 0
M  V30 4640 N 447.864 1.01787 1.20321 0
M  V30 4641 C 448.794 0.609625 2.25401 0
M  V30 4642 C 449.775 -0.375951 1.65893 0
M  V30 4643 O 450.96 -0.261101 1.92437 0
M  V30 4644 C 448.09 -0.0515995 3.47262 0
M  V30 4645 C 447.044 0.855095 4.19371 0
M  V30 4646 C 446.37 0.0595757 5.34667 0
M  V30 4647 C 447.67 2.16374 4.75373 0
M  V30 4648 H 449.364 1.48803 2.59804 0
M  V30 4649 H 446.91 0.716934 1.24884 0
M  V30 4650 H 448.863 -0.348764 4.19954 0
M  V30 4651 H 447.587 -0.964726 3.12027 0
M  V30 4652 H 446.246 1.13628 3.48546 0
M  V30 4653 H 445.894 -0.85524 4.95676 0
M  V30 4654 H 445.594 0.663406 5.83843 0
M  V30 4655 H 447.118 -0.231105 6.10162 0
M  V30 4656 H 448.532 1.92885 5.39878 0
M  V30 4657 H 446.929 2.71853 5.34991 0
M  V30 4658 H 447.999 2.82589 3.94045 0
M  V30 4659 N 449.342 -1.36122 0.79427 0
M  V30 4660 C 450.567 -2.03891 0.379871 0
M  V30 4661 C 450.992 -1.59488 -0.997251 0
M  V30 4662 O 450.35 -0.765652 -1.64339 0
M  V30 4663 C 450.398 -3.57687 0.457442 0
M  V30 4664 O 449.502 -4.08931 -0.5338 0
M  V30 4665 H 448.843 -0.6443 0.160541 0
M  V30 4666 H 451.373 -1.73976 1.07673 0
M  V30 4667 H 451.383 -4.06721 0.322792 0
M  V30 4668 H 450.058 -3.89357 1.46199 0
M  V30 4669 H 448.635 -3.71154 -0.360409 0
M  V30 4670 N 450.82 -0.546701 -1.47814 0
M  V30 4671 C 451.75 0.195317 -2.32682 0
M  V30 4672 C 452.731 0.918981 -1.43139 0
M  V30 4673 O 453.916 0.901501 -1.72008 0
M  V30 4674 C 451.046 1.23237 -3.247 0
M  V30 4675 C 450 0.625818 -4.234 0
M  V30 4676 C 449.326 1.76674 -5.04669 0
M  V30 4677 C 450.626 -0.413515 -5.2066 0
M  V30 4678 H 452.32 -0.513184 -2.94969 0
M  V30 4679 H 449.866 -0.248241 -1.41844 0
M  V30 4680 H 451.819 1.75955 -3.82907 0
M  V30 4681 H 450.543 1.97067 -2.60446 0
M  V30 4682 H 449.202 0.120023 -3.66403 0
M  V30 4683 H 448.85 2.49383 -4.36826 0
M  V30 4684 H 448.55 1.36673 -5.71484 0
M  V30 4685 H 450.074 2.29738 -5.65732 0
M  V30 4686 H 451.488 0.0272042 -5.73294 0
M  V30 4687 H 449.885 -0.731825 -5.95621 0
M  V30 4688 H 450.955 -1.31325 -4.66778 0
M  V30 4689 N 452.299 1.55045 -0.282633 0
M  V30 4690 C 453.576 1.9179 0.384166 0
M  V30 4691 C 453.956 1.20778 1.73136 0
M  V30 4692 O 453.304 0.33719 2.25998 0
M  V30 4693 C 453.514 3.45149 0.517014 0
M  V30 4694 C 454.862 4.17064 0.796427 0
M  V30 4695 O 455.886 3.51084 0.601535 0
M  V30 4696 O 454.745 5.33837 1.16962 0
M  V30 4697 H 451.839 0.799483 0.211558 0
M  V30 4698 H 454.385 1.66474 -0.32934 0
M  V30 4699 H 453.157 3.88922 -0.430772 0
M  V30 4700 H 452.78 3.76443 1.2797 0
M  V30 4701 N 453.777 0.010035 1.57597 0
M  V30 4702 C 454.707 -0.976857 2.12084 0
M  V30 4703 C 455.688 -1.35191 1.03235 0
M  V30 4704 O 456.873 -1.43389 1.3097 0
M  V30 4705 C 454.003 -2.26548 2.63236 0
M  V30 4706 C 452.957 -2.03175 3.76701 0
M  V30 4707 C 452.283 -3.38138 4.14206 0
M  V30 4708 C 453.583 -1.38625 5.03568 0
M  V30 4709 H 455.277 -0.523145 2.94794 0
M  V30 4710 H 452.823 -0.250195 1.4181 0
M  V30 4711 H 454.776 -2.95952 2.99984 0
M  V30 4712 H 453.5 -2.74051 1.77661 0
M  V30 4713 H 452.159 -1.36195 3.40362 0
M  V30 4714 H 451.807 -3.83363 3.25641 0
M  V30 4715 H 451.507 -3.23312 4.90656 0
M  V30 4716 H 453.031 -4.08841 4.53521 0
M  V30 4717 H 454.445 -1.98 5.38023 0
M  V30 4718 H 452.842 -1.34256 5.84889 0
M  V30 4719 H 453.912 -0.356722 4.83586 0
M  V30 4720 N 455.255 -1.55392 -0.262866 0
M  V30 4721 C 456.187 -1.85392 -1.34768 0
M  V30 4722 C 457.2 -0.739069 -1.45057 0
M  V30 4723 O 458.389 -1.01703 -1.46693 0
M  V30 4724 C 455.489 -2.01088 -2.72795 0
M  V30 4725 C 454.662 -3.31828 -2.84972 0
M  V30 4726 C 453.721 -3.37464 -4.03738 0
M  V30 4727 O 452.747 -4.10778 -3.94018 0
M  V30 4728 N 453.949 -2.65599 -5.16176 0
M  V30 4729 H 456.714 -2.79029 -1.09375 0
M  V30 4730 H 454.275 -1.55434 -0.452981 0
M  V30 4731 H 456.267 -2.02217 -3.50557 0
M  V30 4732 H 454.837 -1.1427 -2.90966 0
M  V30 4733 H 454.057 -3.43152 -1.94012 0
M  V30 4734 H 455.345 -4.18032 -2.90045 0
M  V30 4735 H 454.743 -2.05736 -5.26962 0
M  V30 4736 H 453.3 -2.72439 -5.92132 0
M  V30 4737 N 456.733 0.527833 -1.48498 0
M  V30 4738 C 457.981 1.28101 -1.56316 0
M  V30 4739 C 458.302 1.9352 -0.239781 0
M  V30 4740 O 457.572 1.81433 0.738849 0
M  V30 4741 H 456.152 0.475793 -0.575873 0
M  V30 4742 H 458.814 0.614052 -1.84974 0
M  V30 4743 H 457.91 2.05916 -2.34532 0
M  V30 4744 N 458.211 1.37122 0.776871 0
M  V30 4745 C 459.488 1.22586 1.52421 0
M  V30 4746 C 459.868 -0.182726 2.10308 0
M  V30 4747 O 459.216 -1.18979 1.9508 0
M  V30 4748 C 459.426 2.31782 2.60918 0
M  V30 4749 C 460.774 2.69071 3.2846 0
M  V30 4750 O 461.798 2.3092 2.71209 0
M  V30 4751 O 460.657 3.3478 4.31954 0
M  V30 4752 H 457.751 0.478045 0.674835 0
M  V30 4753 H 460.297 1.48888 0.814275 0
M  V30 4754 H 459.069 3.26131 2.16227 0
M  V30 4755 H 458.692 2.06916 3.39517 0
M  V30 4756 N 459.689 -1.00246 1.21608 0
M  V30 4757 C 461.1 -1.55511 1.03312 0
M  V30 4758 C 461.451 -1.91946 -0.406332 0
M  V30 4759 O 460.576 -1.73753 -1.28992 0
M  V30 4760 C 461.171 -2.82576 1.86913 0
M  V30 4761 C 459.73 -3.34318 1.72941 0
M  V30 4762 C 458.877 -2.07487 1.83968 0
M  V30 4763 H 461.828 -0.824638 1.35593 0
M  V30 4764 H 461.849 -3.54559 1.38087 0
M  V30 4765 H 461.361 -2.56026 2.91672 0
M  V30 4766 H 459.462 -3.65797 0.70877 0
M  V30 4767 H 459.575 -4.05566 2.55055 0
M  V30 4768 H 457.939 -2.20603 1.27304 0
M  V30 4769 H 458.722 -1.83346 2.9024 0
M  V30 4770 N 461.167 -1.02423 -1.1978 0
M  V30 4771 C 462.583 -0.740459 -1.41384 0
M  V30 4772 C 462.783 0.676827 -1.89793 0
M  V30 4773 O 461.839 1.4435 -2.0717 0
M  V30 4774 C 463.152 -1.77264 -2.42895 0
M  V30 4775 C 464.7 -1.79165 -2.56649 0
M  V30 4776 C 465.175 -2.8133 -3.6141 0
M  V30 4777 N 466.666 -2.80118 -3.68901 0
M  V30 4778 C 467.401 -3.55824 -4.49641 0
M  V30 4779 N 466.897 -4.41231 -5.34123 0
M  V30 4780 N 468.69 -3.44387 -4.44246 0
M  V30 4781 H 460.841 -1.9391 -0.866764 0
M  V30 4782 H 463.104 -0.838074 -0.443098 0
M  V30 4783 H 462.81 -2.7884 -2.14339 0
M  V30 4784 H 462.684 -1.59108 -3.42001 0
M  V30 4785 H 465.071 -0.782702 -2.84531 0
M  V30 4786 H 465.152 -2.01396 -1.57713 0
M  V30 4787 H 464.796 -3.82394 -3.34271 0
M  V30 4788 H 464.726 -2.56359 -4.59986 0
M  V30 4789 H 467.217 -2.1817 -3.08562 0
M  V30 4790 H 467.53 -4.95747 -5.92836 0
M  V30 4791 H 465.875 -4.45306 -5.33599 0
M  V30 4792 H 469.066 -2.7708 -3.77285 0
M  V30 4793 H 469.239 -4.0364 -5.06931 0
M  V30 4794 N 462.645 1.35699 -0.801477 0
M  V30 4795 C 463.555 2.33661 -0.209691 0
M  V30 4796 C 464.571 1.6162 0.644591 0
M  V30 4797 O 465.747 1.93529 0.557545 0
M  V30 4798 C 462.812 3.40816 0.636033 0
M  V30 4799 C 461.873 4.28639 -0.238147 0
M  V30 4800 C 461.106 5.30676 0.567307 0
M  V30 4801 O 461.329 5.41174 1.8024 0
M  V30 4802 O 460.263 6.01887 -0.0391336 0
M  V30 4803 H 464.089 2.8606 -1.01996 0
M  V30 4804 H 461.674 1.38379 -0.563164 0
M  V30 4805 H 463.556 4.06301 1.11791 0
M  V30 4806 H 462.231 2.90696 1.42399 0
M  V30 4807 H 461.138 3.66152 -0.767044 0
M  V30 4808 H 462.471 4.82143 -0.989915 0
M  V30 4809 N 464.123 0.554532 1.47522 0
M  V30 4810 C 465.348 0.0322661 2.07375 0
M  V30 4811 C 465.773 -1.25079 1.40488 0
M  V30 4812 O 465.131 -1.74859 0.47896 0
M  V30 4813 C 465.179 -0.149397 3.6029 0
M  V30 4814 O 464.283 -1.21259 3.9417 0
M  V30 4815 H 463.624 0.0501228 0.662106 0
M  V30 4816 H 466.154 0.769452 1.8958 0
M  V30 4817 H 466.164 -0.364437 4.06369 0
M  V30 4818 H 464.839 0.787743 4.08372 0
M  V30 4819 H 463.416 -0.97825 3.5984 0
M  V30 4820 N 465.601 -1.54893 0.290851 0
M  V30 4821 C 466.533 -2.20564 -0.623236 0
M  V30 4822 C 467.546 -1.19519 -1.1054 0
M  V30 4823 O 468.735 -1.46165 -1.02459 0
M  V30 4824 C 465.835 -2.83033 -1.86401 0
M  V30 4825 C 465.008 -4.09916 -1.52604 0
M  V30 4826 C 464.067 -4.56284 -2.62091 0
M  V30 4827 O 463.093 -5.2171 -2.27612 0
M  V30 4828 N 464.295 -4.27746 -3.92446 0
M  V30 4829 H 467.06 -2.99638 -0.0610915 0
M  V30 4830 H 464.621 -1.61508 0.112615 0
M  V30 4831 H 466.613 -3.1099 -2.58973 0
M  V30 4832 H 465.183 -2.0786 -2.33481 0
M  V30 4833 H 464.403 -3.89078 -0.633424 0
M  V30 4834 H 465.691 -4.92554 -1.27547 0
M  V30 4835 H 465.089 -3.7531 -4.23272 0
M  V30 4836 H 463.646 -4.60437 -4.61347 0
M  V30 4837 N 467.08 -0.0183926 -1.57589 0
M  V30 4838 C 468.491 0.521927 -1.79256 0
M  V30 4839 C 468.842 1.72885 -0.927636 0
M  V30 4840 O 467.967 2.15978 -0.135091 0
M  V30 4841 C 468.562 0.953632 -3.25102 0
M  V30 4842 C 467.121 1.43913 -3.47801 0
M  V30 4843 C 466.268 0.398837 -2.74417 0
M  V30 4844 H 469.219 -0.244485 -1.56805 0
M  V30 4845 H 469.24 1.81863 -3.34224 0
M  V30 4846 H 468.752 0.0750123 -3.88028 0
M  V30 4847 H 466.853 2.33804 -2.90115 0
M  V30 4848 H 466.966 1.45391 -4.56507 0
M  V30 4849 H 465.33 0.864572 -2.39577 0
M  V30 4850 H 466.113 -0.471132 -3.40052 0
M  V30 4851 N 468.558 1.5553 0.254621 0
M  V30 4852 C 469.488 1.9268 1.31897 0
M  V30 4853 C 470.469 0.790797 1.506 0
M  V30 4854 O 471.654 1.05045 1.63337 0
M  V30 4855 C 468.784 2.21477 2.67517 0
M  V30 4856 C 467.738 3.37256 2.63519 0
M  V30 4857 C 467.064 3.51576 4.02862 0
M  V30 4858 C 468.364 4.73157 2.21179 0
M  V30 4859 H 470.058 2.81832 1.01051 0
M  V30 4860 H 467.604 1.35599 0.484662 0
M  V30 4861 H 469.557 2.46055 3.42104 0
M  V30 4862 H 468.281 1.29144 2.99982 0
M  V30 4863 H 466.94 3.12675 1.9139 0
M  V30 4864 H 466.588 2.56676 4.32581 0
M  V30 4865 H 466.288 4.2943 4.01078 0
M  V30 4866 H 467.812 3.78467 4.79161 0
M  V30 4867 H 469.226 4.97158 2.85494 0
M  V30 4868 H 467.623 5.54058 2.30521 0
M  V30 4869 H 468.693 4.70739 1.16332 0
M  V30 4870 N 470.036 -0.519951 1.48776 0
M  V30 4871 C 470.966 -1.63253 1.66945 0
M  V30 4872 C 471.947 -1.62014 0.518224 0
M  V30 4873 O 473.132 -1.79053 0.751919 0
M  V30 4874 C 470.262 -3.0181 1.71836 0
M  V30 4875 C 469.216 -3.17911 2.8656 0
M  V30 4876 C 468.542 -4.5763 2.76548 0
M  V30 4877 C 469.842 -2.99729 4.27738 0
M  V30 4878 H 471.536 -1.48302 2.6009 0
M  V30 4879 H 469.082 -0.712026 1.25165 0
M  V30 4880 H 471.035 -3.79525 1.83135 0
M  V30 4881 H 469.759 -3.17806 0.752775 0
M  V30 4882 H 468.418 -2.42616 2.74833 0
M  V30 4883 H 468.066 -4.70476 1.77937 0
M  V30 4884 H 467.766 -4.69346 3.53536 0
M  V30 4885 H 469.29 -5.37431 2.89828 0
M  V30 4886 H 470.704 -3.67228 4.40246 0
M  V30 4887 H 469.101 -3.22932 5.05801 0
M  V30 4888 H 470.171 -1.96047 4.43502 0
M  V30 4889 N 471.514 -1.37532 -0.769588 0
M  V30 4890 C 472.762 -1.32597 -1.5252 0
M  V30 4891 C 473.083 0.0884294 -1.94799 0
M  V30 4892 O 472.353 1.03289 -1.66458 0
M  V30 4893 H 470.933 -0.487846 -0.565699 0
M  V30 4894 H 473.595 -1.72044 -0.915806 0
M  V30 4895 H 472.691 -1.96643 -2.42359 0
M  V30 4896 N 472.992 0.995999 -1.22138 0
M  V30 4897 C 474.22 1.77066 -1.07029 0
M  V30 4898 C 474.635 1.8495 0.379357 0
M  V30 4899 O 473.992 1.3174 1.26297 0
M  V30 4900 C 474.043 3.20533 -1.67155 0
M  V30 4901 O 473.764 3.13082 -3.06449 0
M  V30 4902 C 475.265 4.14461 -1.5728 0
M  V30 4903 H 472.485 0.556179 -0.375374 0
M  V30 4904 H 475.029 1.25238 -1.61666 0
M  V30 4905 H 473.184 3.6944 -1.16589 0
M  V30 4906 H 473.598 4.03283 -3.35355 0
M  V30 4907 H 475.072 5.1289 -2.04078 0
M  V30 4908 H 475.549 4.36005 -0.528795 0
M  V30 4909 H 476.155 3.71449 -2.07136 0
M  V30 4910 N 474.47 1.03057 1.19235 0
M  V30 4911 C 475.716 0.729098 1.89241 0
M  V30 4912 C 476.049 -0.740573 1.79525 0
M  V30 4913 O 475.324 -1.53946 1.18874 0
M  V30 4914 C 475.607 1.18304 3.40112 0
M  V30 4915 C 475.46 2.71406 3.5869 0
M  V30 4916 C 476.779 0.765161 4.33397 0
M  V30 4917 H 473.898 0.266338 0.687192 0
M  V30 4918 H 476.54 1.28079 1.40341 0
M  V30 4919 H 474.69 0.713672 3.81889 0
M  V30 4920 H 476.362 3.26303 3.26074 0
M  V30 4921 H 474.605 3.11717 3.01687 0
M  V30 4922 H 475.276 2.98225 4.64506 0
M  V30 4923 H 477.752 1.16889 3.99345 0
M  V30 4924 H 476.628 1.11065 5.37546 0
M  V30 4925 H 476.889 -0.332372 4.40849 0
M  V30 4926 N 475.948 -1.35272 0.808662 0
M  V30 4927 C 477.197 -1.97963 0.386483 0
M  V30 4928 C 477.51 -1.64866 -1.05255 0
M  V30 4929 O 478.716 -2.20937 -1.57794 0
M  V30 4930 C 477.172 -3.54162 0.640096 0
M  V30 4931 C 476.78 -3.96166 2.0918 0
M  V30 4932 C 478.524 -4.23553 0.283376 0
M  V30 4933 C 476.431 -5.4522 2.29106 0
M  V30 4934 H 475.361 -0.740742 0.140774 0
M  V30 4935 H 478.012 -1.5431 0.993012 0
M  V30 4936 H 476.394 -3.95983 -0.0364117 0
M  V30 4937 H 477.568 -3.65491 2.80629 0
M  V30 4938 H 475.883 -3.3967 2.40859 0
M  V30 4939 H 478.48 -5.33124 0.410273 0
M  V30 4940 H 478.823 -4.09105 -0.770659 0
M  V30 4941 H 479.356 -3.8716 0.913884 0
M  V30 4942 H 476.095 -5.64638 3.32962 0
M  V30 4943 H 475.615 -5.77457 1.62184 0
M  V30 4944 H 477.294 -6.1171 2.1076 0
M  V30 4945 N 477.426 -0.562348 -1.47226 0
M  V30 4946 C 478.703 0.0256985 -1.95583 0
M  V30 4947 C 479.083 1.48032 -1.50498 0
M  V30 4948 O 478.431 2.15973 -0.746181 0
M  V30 4949 C 478.641 -0.125129 -3.48776 0
M  V30 4950 C 479.989 0.0175728 -4.24596 0
M  V30 4951 O 481.013 -0.0529341 -3.56161 0
M  V30 4952 O 479.872 0.170145 -5.46235 0
M  V30 4953 H 476.966 0.0612565 -0.824728 0
M  V30 4954 H 479.512 -0.629233 -1.57603 0
M  V30 4955 H 478.284 -1.13715 -3.74412 0
M  V30 4956 H 477.907 0.567178 -3.93534 0
M  V30 4957 N 478.904 1.54736 -0.299062 0
M  V30 4958 C 480.152 1.99706 0.31017 0
M  V30 4959 C 480.473 1.18896 1.54559 0
M  V30 4960 O 479.743 0.284445 1.93824 0
M  V30 4961 H 478.323 0.737686 0.117596 0
M  V30 4962 H 480.985 1.9054 -0.409943 0
M  V30 4963 H 480.081 3.06596 0.58355 0
M  V30 4964 N 480.382 0.0267497 1.57577 0
M  V30 4965 C 481.315 -0.99059 2.05579 0
M  V30 4966 C 482.293 -1.31884 0.951065 0
M  V30 4967 O 483.477 -1.43592 1.22121 0
M  V30 4968 C 480.604 -2.31125 2.47586 0
M  V30 4969 C 479.65 -2.13777 3.69055 0
M  V30 4970 S 480.483 -1.4388 5.15809 0
M  V30 4971 C 481.639 -2.77321 5.6111 0
M  V30 4972 H 481.872 -0.581976 2.91548 0
M  V30 4973 H 479.405 -0.184876 1.53289 0
M  V30 4974 H 481.363 -3.07049 2.72454 0
M  V30 4975 H 480.024 -2.6912 1.61967 0
M  V30 4976 H 479.217 -3.11405 3.96287 0
M  V30 4977 H 478.819 -1.45996 3.44327 0
M  V30 4978 H 481.111 -3.73565 5.65204 0
M  V30 4979 H 482.054 -2.54756 6.60685 0
M  V30 4980 H 482.462 -2.82459 4.88751 0
M  V30 4981 N 481.861 -1.55662 -0.24637 0
M  V30 4982 C 482.791 -1.93377 -1.30873 0
M  V30 4983 C 483.772 -0.798773 -1.50179 0
M  V30 4984 O 484.957 -1.0591 -1.62778 0
M  V30 4985 C 482.087 -2.22893 -2.66338 0
M  V30 4986 C 481.041 -3.38649 -2.61727 0
M  V30 4987 C 480.367 -3.53708 -4.00992 0
M  V30 4988 C 481.667 -4.74323 -2.18666 0
M  V30 4989 H 483.361 -2.82363 -0.995552 0
M  V30 4990 H 480.907 -1.35854 -0.477464 0
M  V30 4991 H 482.86 -2.47866 -3.40794 0
M  V30 4992 H 481.584 -1.30733 -2.99293 0
M  V30 4993 H 480.243 -3.13685 -1.89729 0
M  V30 4994 H 479.891 -2.58967 -4.31214 0
M  V30 4995 H 479.591 -4.31551 -3.98795 0
M  V30 4996 H 481.115 -3.81003 -4.77147 0
M  V30 4997 H 482.529 -4.98665 -2.82854 0
M  V30 4998 H 480.926 -5.55273 -2.27579 0
M  V30 4999 H 481.996 -4.71349 -1.13834 0
M  V30 5000 N 483.339 0.512053 -1.4905 0
M  V30 5001 C 484.269 1.62365 -1.67809 0
M  V30 5002 C 485.25 1.61737 -0.526809 0
M  V30 5003 O 486.435 1.78651 -0.761404 0
M  V30 5004 C 483.565 3.00895 -1.73435 0
M  V30 5005 C 482.519 3.16387 -2.88242 0
M  V30 5006 C 481.845 4.56157 -2.78971 0
M  V30 5007 C 483.145 2.97457 -4.29321 0
M  V30 5008 H 484.839 1.46921 -2.60873 0
M  V30 5009 H 482.385 0.705379 -1.2554 0
M  V30 5010 H 484.338 3.78549 -1.85145 0
M  V30 5011 H 483.062 3.17403 -0.769619 0
M  V30 5012 H 481.721 2.41155 -2.76116 0
M  V30 5013 H 481.369 4.69525 -1.8043 0
M  V30 5014 H 481.069 4.67465 -3.5602 0
M  V30 5015 H 482.593 5.35886 -2.92675 0
M  V30 5016 H 484.007 3.64888 -4.42187 0
M  V30 5017 H 482.404 3.20245 -5.07507 0
M  V30 5018 H 483.474 1.93692 -4.44535 0
M  V30 5019 N 484.817 1.37938 0.762283 0
M  V30 5020 C 485.747 1.37176 1.88958 0
M  V30 5021 C 486.728 0.238945 1.68413 0
M  V30 5022 O 487.913 0.440726 1.89133 0
M  V30 5023 C 485.043 1.18742 3.2637 0
M  V30 5024 C 483.997 2.29136 3.61498 0
M  V30 5025 C 483.323 1.95816 4.97554 0
M  V30 5026 C 484.623 3.71363 3.6727 0
M  V30 5027 H 486.317 2.31509 1.89853 0
M  V30 5028 H 483.863 1.11438 0.912005 0
M  V30 5029 H 485.816 1.16837 4.04879 0
M  V30 5030 H 484.54 0.208683 3.25933 0
M  V30 5031 H 483.199 2.30213 2.85303 0
M  V30 5032 H 482.847 0.964475 4.93667 0
M  V30 5033 H 482.547 2.69745 5.22026 0
M  V30 5034 H 484.071 1.95513 5.78452 0
M  V30 5035 H 485.485 3.72364 4.35911 0
M  V30 5036 H 483.882 4.44425 4.03245 0
M  V30 5037 H 484.952 4.04305 2.67704 0
M  V30 5038 N 486.295 -0.989507 1.22664 0
M  V30 5039 C 487.242 -2.08024 0.999733 0
M  V30 5040 C 488.212 -1.65909 -0.0797047 0
M  V30 5041 O 489.397 -1.90669 0.0705715 0
M  V30 5042 C 486.537 -3.40067 0.587234 0
M  V30 5043 C 485.65 -3.95505 1.73781 0
M  V30 5044 C 484.785 -5.15722 1.27297 0
M  V30 5045 C 483.824 -5.63305 2.39488 0
M  V30 5046 N 482.961 -6.74758 1.94026 0
M  V30 5047 H 487.801 -2.26768 1.9334 0
M  V30 5048 H 485.338 -1.11171 0.963297 0
M  V30 5049 H 487.296 -4.15899 0.329227 0
M  V30 5050 H 485.926 -3.21314 -0.309426 0
M  V30 5051 H 484.978 -3.16513 2.11006 0
M  V30 5052 H 486.29 -4.26797 2.58158 0
M  V30 5053 H 485.444 -5.98854 0.972546 0
M  V30 5054 H 484.183 -4.86061 0.399445 0
M  V30 5055 H 483.188 -4.78759 2.70315 0
M  V30 5056 H 484.413 -5.94988 3.27362 0
M  V30 5057 H 482.359 -6.46874 1.09041 0
M  V30 5058 H 482.276 -7.05386 2.71968 0
M  V30 5059 H 483.544 -7.61387 1.67062 0
M  V30 5060 N 487.773 -1.03688 -1.18687 0
M  V30 5061 C 489.001 -0.757918 -1.92518 0
M  V30 5062 C 489.416 0.684398 -1.75959 0
M  V30 5063 O 488.773 1.46617 -1.08673 0
M  V30 5064 C 488.824 -1.10985 -3.44042 0
M  V30 5065 O 488.545 -2.49554 -3.60076 0
M  V30 5066 C 490.046 -0.854844 -4.3498 0
M  V30 5067 H 487.266 -0.276699 -0.611293 0
M  V30 5068 H 489.81 -1.38352 -1.50595 0
M  V30 5069 H 487.965 -0.529279 -3.83767 0
M  V30 5070 H 488.379 -2.6291 -4.53849 0
M  V30 5071 H 489.853 -1.15098 -5.39867 0
M  V30 5072 H 490.33 0.210507 -4.38695 0
M  V30 5073 H 490.936 -1.41853 -4.00946 0
M  V30 5074 N 489.251 1.34841 -0.815825 0
M  V30 5075 C 490.662 1.80937 -0.46029 0
M  V30 5076 C 491.013 1.67685 1.01863 0
M  V30 5077 O 490.138 1.21277 1.79223 0
M  V30 5078 C 490.733 3.28509 -0.828708 0
M  V30 5079 C 489.292 3.72712 -0.525644 0
M  V30 5080 C 488.439 2.56676 -1.04941 0
M  V30 5081 H 491.39 1.22688 -1.00664 0
M  V30 5082 H 491.411 3.80279 -0.129757 0
M  V30 5083 H 490.923 3.38122 -1.90513 0
M  V30 5084 H 489.024 3.68642 0.541666 0
M  V30 5085 H 489.137 4.67119 -1.06474 0
M  V30 5086 H 487.501 2.50302 -0.471286 0
M  V30 5087 H 488.284 2.69063 -2.13214 0
M  V30 5088 N 490.729 0.570148 1.46925 0
M  V30 5089 C 491.639 -0.173061 2.33961 0
M  V30 5090 C 492.655 -0.898825 1.48987 0
M  V30 5091 O 493.831 -0.864825 1.81887 0
M  V30 5092 C 490.896 -1.18177 3.25937 0
M  V30 5093 C 489.957 -0.462041 4.26806 0
M  V30 5094 C 489.19 -1.4227 5.14388 0
M  V30 5095 O 489.413 -2.65842 5.04662 0
M  V30 5096 O 488.347 -0.940127 5.94513 0
M  V30 5097 H 492.173 0.541216 2.98839 0
M  V30 5098 H 489.758 0.330647 1.45695 0
M  V30 5099 H 491.64 -1.76372 3.82715 0
M  V30 5100 H 490.315 -1.87774 2.63671 0
M  V30 5101 H 489.222 0.161429 3.73752 0
M  V30 5102 H 490.555 0.192719 4.91823 0
M  V30 5103 N 492.207 -1.54576 0.307264 0
M  V30 5104 C 493.117 -2.27435 -0.57536 0
M  V30 5105 C 494.133 -1.31183 -1.14311 0
M  V30 5106 O 495.309 -1.64175 -1.16656 0
M  V30 5107 C 492.374 -3.00566 -1.72803 0
M  V30 5108 C 491.435 -4.12369 -1.19373 0
M  V30 5109 C 490.668 -4.82003 -2.29147 0
M  V30 5110 O 490.891 -4.51038 -3.49171 0
M  V30 5111 O 489.825 -5.69271 -1.95485 0
M  V30 5112 H 493.651 -3.03696 0.0158558 0
M  V30 5113 H 491.236 -1.49219 0.0735064 0
M  V30 5114 H 493.118 -3.46416 -2.39946 0
M  V30 5115 H 491.793 -2.27195 -2.30574 0
M  V30 5116 H 490.7 -3.70905 -0.487851 0
M  V30 5117 H 492.033 -4.87736 -0.661376 0
M  V30 5118 N 493.685 -0.035106 -1.57561 0
M  V30 5119 C 494.615 0.942993 -2.13612 0
M  V30 5120 C 495.596 1.33531 -1.05373 0
M  V30 5121 O 496.781 1.41287 -1.33235 0
M  V30 5122 C 493.911 2.22332 -2.66807 0
M  V30 5123 C 492.865 1.97156 -3.79886 0
M  V30 5124 C 492.191 3.31506 -4.19533 0
M  V30 5125 C 493.491 1.30596 -5.05709 0
M  V30 5126 H 495.185 0.476179 -2.95589 0
M  V30 5127 H 492.731 0.227602 -1.4219 0
M  V30 5128 H 494.684 2.91142 -3.04654 0
M  V30 5129 H 493.408 2.7119 -1.81999 0
M  V30 5130 H 492.067 1.30763 -3.42486 0
M  V30 5131 H 491.715 3.78134 -3.31698 0
M  V30 5132 H 491.415 3.15465 -4.95738 0
M  V30 5133 H 492.939 4.01574 -4.59968 0
M  V30 5134 H 494.353 1.89416 -5.41105 0
M  V30 5135 H 492.75 1.24934 -5.86951 0
M  V30 5136 H 493.82 0.279742 -4.84092 0
M  V30 5137 N 495.163 1.55791 0.238111 0
M  V30 5138 C 496.095 1.87513 1.31802 0
M  V30 5139 C 497.108 0.762053 1.43863 0
M  V30 5140 O 498.297 1.04024 1.45056 0
M  V30 5141 C 495.397 2.05402 2.69561 0
M  V30 5142 C 494.57 3.3632 2.79656 0
M  V30 5143 C 493.629 3.43844 3.98319 0
M  V30 5144 O 492.655 4.16994 3.87433 0
M  V30 5145 N 493.857 2.73777 5.11885 0
M  V30 5146 H 496.622 2.80734 1.04922 0
M  V30 5147 H 494.183 1.56135 0.428196 0
M  V30 5148 H 496.175 2.07769 3.47296 0
M  V30 5149 H 494.745 1.18884 2.89111 0
M  V30 5150 H 493.965 3.46195 1.88528 0
M  V30 5151 H 495.253 4.22594 2.83358 0
M  V30 5152 H 494.651 2.14094 5.23622 0
M  V30 5153 H 493.208 2.81825 5.87723 0
M  V30 5154 N 496.642 -0.504142 1.49319 0
M  V30 5155 C 497.605 -1.5883 1.65244 0
M  V30 5156 C 498.605 -1.52009 0.524386 0
M  V30 5157 O 499.795 -1.55218 0.79077 0
M  V30 5158 C 496.927 -2.98481 1.64687 0
M  V30 5159 H 498.12 -1.4604 2.61939 0
M  V30 5160 H 495.673 -0.728144 1.38303 0
M  V30 5161 H 496.408 -3.16751 0.695644 0
M  V30 5162 H 496.193 -3.0484 2.46607 0
M  V30 5163 H 497.683 -3.77256 1.79075 0
M  V30 5164 N 498.12 -1.38341 -0.754957 0
M  V30 5165 C 499.03 -1.3769 -1.89944 0
M  V30 5166 C 500.046 -0.274194 -1.71826 0
M  V30 5167 O 501.222 -0.512391 -1.94773 0
M  V30 5168 C 498.287 -1.19938 -3.25293 0
M  V30 5169 C 497.348 -2.40001 -3.55946 0
M  V30 5170 C 496.581 -2.23087 -4.84838 0
M  V30 5171 O 496.804 -1.22386 -5.57116 0
M  V30 5172 O 495.738 -3.11646 -5.14937 0
M  V30 5173 H 499.564 -2.3412 -1.93446 0
M  V30 5174 H 497.149 -1.19246 -0.900044 0
M  V30 5175 H 499.031 -1.12093 -4.06218 0
M  V30 5176 H 497.706 -0.265919 -3.22606 0
M  V30 5177 H 496.613 -2.53421 -2.75188 0
M  V30 5178 H 497.946 -3.31973 -3.63394 0
M  V30 5179 N 499.598 0.982988 -1.23187 0
M  V30 5180 C 501.014 1.2487 -0.993967 0
M  V30 5181 C 501.214 1.99155 0.306498 0
M  V30 5182 O 500.27 2.30688 1.0266 0
M  V30 5183 C 501.583 2.05078 -2.19917 0
M  V30 5184 C 503.131 2.18227 -2.2438 0
M  V30 5185 C 503.606 3.01825 -3.44479 0
M  V30 5186 N 505.097 3.09411 -3.44702 0
M  V30 5187 C 505.832 3.74412 -4.34285 0
M  V30 5188 N 505.328 4.41259 -5.341 0
M  V30 5189 N 507.121 3.71273 -4.22035 0
M  V30 5190 H 499.272 0.485253 -2.06783 0
M  V30 5191 H 501.535 0.276979 -0.906635 0
M  V30 5192 H 501.241 1.57867 -3.14279 0
M  V30 5193 H 501.115 3.05829 -2.2079 0
M  V30 5194 H 503.502 2.64648 -1.30559 0
M  V30 5195 H 503.583 1.16873 -2.2754 0
M  V30 5196 H 503.227 2.56102 -4.38605 0
M  V30 5197 H 503.157 4.03342 -3.38559 0
M  V30 5198 H 505.648 2.61845 -2.7248 0
M  V30 5199 H 505.961 4.88629 -5.98717 0
M  V30 5200 H 504.306 4.39975 -5.38002 0
M  V30 5201 H 507.497 3.18217 -3.43301 0
M  V30 5202 H 507.67 4.21649 -4.92053 0
M  V30 5203 N 501.076 1.04316 1.18135 0
M  V30 5204 C 502.024 0.630175 2.23901 0
M  V30 5205 C 503.018 -0.344254 1.65865 0
M  V30 5206 O 504.224 -0.211273 1.78756 0
M  V30 5207 H 500.599 0.185578 0.728742 0
M  V30 5208 H 502.57 1.53253 2.56039 0
M  V30 5209 C 501.319 0.011666 3.47698 0
M  V30 5210 H 500.642 0.752526 3.92654 0
M  V30 5211 H 502.082 -0.240046 4.2332 0
M  V30 5212 C 500.541 -1.23913 3.13285 0
M  V30 5213 O 501.071 -2.32959 3.27251 0
M  V30 5214 N 499.277 -1.13338 2.67587 0
M  V30 5215 H 498.824 -0.246006 2.56423 0
M  V30 5216 H 498.782 -1.97116 2.44934 0
M  V30 5217 N 502.554 -1.34406 0.822964 0
M  V30 5218 C 503.801 -1.98284 0.411057 0
M  V30 5219 C 504.129 -1.65245 -1.02588 0
M  V30 5220 O 503.384 -0.91619 -1.72929 0
M  V30 5221 C 503.683 -3.52981 0.560268 0
M  V30 5222 C 503.349 -4.05931 1.96293 0
M  V30 5223 C 502.011 -4.20103 2.34664 0
M  V30 5224 C 504.363 -4.34412 2.87985 0
M  V30 5225 C 501.691 -4.60082 3.64062 0
M  V30 5226 C 504.043 -4.75838 4.16847 0
M  V30 5227 C 502.707 -4.88215 4.55195 0
M  V30 5228 H 501.977 -0.725573 0.150416 0
M  V30 5229 H 504.624 -1.60349 1.04692 0
M  V30 5230 H 502.929 -3.91477 -0.158982 0
M  V30 5231 H 504.626 -4.00385 0.222087 0
M  V30 5232 H 501.216 -3.95363 1.65487 0
M  V30 5233 H 505.4 -4.23001 2.59584 0
M  V30 5234 H 500.656 -4.67856 3.93599 0
M  V30 5235 H 504.83 -4.96834 4.87984 0
M  V30 5236 H 502.457 -5.18952 5.55512 0
M  V30 5237 N 504.032 -0.577932 -1.46621 0
M  V30 5238 C 504.982 0.178869 -2.27297 0
M  V30 5239 C 505.966 0.866279 -1.35589 0
M  V30 5240 O 507.158 0.761163 -1.59798 0
M  V30 5241 C 504.287 1.19499 -3.2183 0
M  V30 5242 C 503.373 0.50994 -4.21023 0
M  V30 5243 N 503.764 -0.43177 -5.03954 0
M  V30 5244 C 502.062 0.761287 -4.39455 0
M  V30 5245 C 502.763 -0.831693 -5.75724 0
M  V30 5246 N 501.739 -0.181897 -5.43296 0
M  V30 5247 H 505.541 -0.544859 -2.88805 0
M  V30 5248 H 503.055 -0.399373 -1.57413 0
M  V30 5249 H 505.052 1.75131 -3.78332 0
M  V30 5250 H 503.712 1.91959 -2.61881 0
M  V30 5251 H 504.723 -0.807045 -5.11573 0
M  V30 5252 H 501.4 1.47282 -3.90659 0
M  V30 5253 H 502.79 -1.6067 -6.52407 0
M  V30 5254 N 505.51 1.54411 -0.315457 0
M  V30 5255 C 506.738 2.04833 0.291738 0
M  V30 5256 C 507.153 1.19203 1.46411 0
M  V30 5257 O 506.51 0.220867 1.81159 0
M  V30 5258 C 506.561 3.53969 0.73404 0
M  V30 5259 O 506.282 4.36346 -0.391682 0
M  V30 5260 C 507.783 4.2045 1.40489 0
M  V30 5261 H 505.003 0.668195 0.0612947 0
M  V30 5262 H 507.547 1.99276 -0.45929 0
M  V30 5263 H 505.702 3.5984 1.43506 0
M  V30 5264 H 506.116 5.24481 -0.0447088 0
M  V30 5265 H 507.59 5.26278 1.66539 0
M  V30 5266 H 508.067 3.71067 2.3496 0
M  V30 5267 H 508.673 4.18694 0.746662 0
M  V30 5268 N 506.988 0.0434614 1.5754 0
M  V30 5269 C 508.234 -0.632971 1.92669 0
M  V30 5270 C 508.567 -1.70947 0.921446 0
M  V30 5271 O 507.842 -1.94426 -0.0537202 0
M  V30 5272 C 508.125 -1.23619 3.38216 0
M  V30 5273 C 507.978 -0.168274 4.49485 0
M  V30 5274 C 509.297 -2.15008 3.84005 0
M  V30 5275 H 506.416 -0.228629 0.700641 0
M  V30 5276 H 509.058 0.103651 1.89717 0
M  V30 5277 H 507.208 -1.864 3.40863 0
M  V30 5278 H 508.88 0.463196 4.58969 0
M  V30 5279 H 507.123 0.504581 4.30855 0
M  V30 5280 H 507.794 -0.630218 5.48391 0
M  V30 5281 H 510.27 -1.62198 3.83185 0
M  V30 5282 H 509.146 -2.54161 4.86511 0
M  V30 5283 H 509.407 -3.04707 3.20322 0
M  V30 5284 N 508.466 -1.55915 -0.229846 0
M  V30 5285 C 509.877 -1.68809 -0.797531 0
M  V30 5286 C 510.228 -0.643995 -1.8533 0
M  V30 5287 O 509.353 0.206492 -2.15413 0
M  V30 5288 C 509.948 -3.06043 -1.45338 0
M  V30 5289 C 508.507 -3.20819 -1.96856 0
M  V30 5290 C 507.654 -2.6472 -0.825736 0
M  V30 5291 H 510.605 -1.58699 -0.00533733 0
M  V30 5292 H 510.626 -3.01438 -2.32196 0
M  V30 5293 H 510.138 -3.82012 -0.684743 0
M  V30 5294 H 508.239 -2.49704 -2.76548 0
M  V30 5295 H 508.352 -4.27937 -2.15423 0
M  V30 5296 H 506.716 -2.22985 -1.23084 0
M  V30 5297 H 507.499 -3.43229 -0.0699019 0
M  V30 5298 N 509.944 0.496216 -1.49584 0
M  V30 5299 C 511.174 1.27209 -1.62793 0
M  V30 5300 C 511.582 1.86799 -0.300476 0
M  V30 5301 O 510.925 1.68802 0.724674 0
M  V30 5302 C 510.987 2.43812 -2.64189 0
M  V30 5303 C 510.651 2.05055 -4.08414 0
M  V30 5304 C 511.648 1.58752 -4.9507 0
M  V30 5305 C 509.333 2.14543 -4.54177 0
M  V30 5306 C 511.327 1.22448 -6.25528 0
M  V30 5307 C 509.014 1.77851 -5.84647 0
M  V30 5308 C 510.012 1.31878 -6.70147 0
M  V30 5309 O 509.7 0.956834 -7.98185 0
M  V30 5310 H 509.432 0.391848 -0.550846 0
M  V30 5311 H 511.986 0.601712 -1.96389 0
M  V30 5312 H 510.216 3.13941 -2.25783 0
M  V30 5313 H 511.905 3.05829 -2.66877 0
M  V30 5314 H 512.671 1.50863 -4.60939 0
M  V30 5315 H 508.55 2.49277 -3.87791 0
M  V30 5316 H 512.094 0.864933 -6.92217 0
M  V30 5317 H 507.991 1.8539 -6.18305 0
M  V30 5318 H 508.759 1.08789 -8.11238 0
M  V30 5319 N 511.423 1.38739 0.74761 0
M  V30 5320 C 512.356 1.3083 1.86972 0
M  V30 5321 C 513.334 0.184229 1.61553 0
M  V30 5322 O 514.518 0.36256 1.8498 0
M  V30 5323 C 511.645 1.02854 3.22705 0
M  V30 5324 C 510.691 2.17281 3.67003 0
M  V30 5325 S 511.524 3.79468 3.77842 0
M  V30 5326 C 512.68 3.53692 5.16385 0
M  V30 5327 H 512.913 2.258 1.93395 0
M  V30 5328 H 510.446 1.24646 0.911199 0
M  V30 5329 H 512.404 0.87397 4.01089 0
M  V30 5330 H 511.065 0.0959295 3.13953 0
M  V30 5331 H 510.258 1.93267 4.65472 0
M  V30 5332 H 509.86 2.28876 2.9579 0
M  V30 5333 H 512.152 3.10176 6.02327 0
M  V30 5334 H 513.095 4.51576 5.45422 0
M  V30 5335 H 513.503 2.8807 4.85464 0
M  V30 5336 N 512.901 -0.976442 1.23707 0
M  V30 5337 C 514.147 -1.72081 1.07312 0
M  V30 5338 C 514.48 -1.90275 -0.388476 0
M  V30 5339 O 513.755 -1.4579 -1.28746 0
M  V30 5340 C 514.038 -3.11675 1.80363 0
M  V30 5341 C 513.891 -3.01027 3.3422 0
M  V30 5342 C 515.21 -4.1117 1.5693 0
M  V30 5343 H 512.329 -0.624583 0.391236 0
M  V30 5344 H 514.971 -1.13649 1.52263 0
M  V30 5345 H 513.121 -3.61559 1.42153 0
M  V30 5346 H 514.793 -2.58637 3.81975 0
M  V30 5347 H 513.036 -2.3744 3.63049 0
M  V30 5348 H 513.707 -3.9988 3.80525 0
M  V30 5349 H 516.183 -3.7011 1.90151 0
M  V30 5350 H 515.059 -5.06928 2.10513 0
M  V30 5351 H 515.32 -4.392 0.505548 0
M  V30 5352 N 514.379 -1.04941 -1.1758 0
M  V30 5353 C 515.627 -0.756492 -1.87408 0
M  V30 5354 C 515.948 0.718478 -1.81281 0
M  V30 5355 O 515.218 1.519 -1.23706 0
M  V30 5356 H 513.798 -0.276841 -0.693807 0
M  V30 5357 H 516.46 -1.32803 -1.42652 0
M  V30 5358 H 515.556 -1.06918 -2.93215 0
M  V30 5359 N 515.857 1.33968 -0.830081 0
M  V30 5360 C 517.106 1.97323 -0.417928 0
M  V30 5361 C 517.419 1.6652 1.02618 0
M  V30 5362 O 518.625 2.2342 1.54259 0
M  V30 5363 C 517.081 3.53099 -0.696359 0
M  V30 5364 C 516.689 3.92788 -2.15457 0
M  V30 5365 C 518.433 4.23049 -0.350724 0
M  V30 5366 C 516.34 5.41506 -2.37751 0
M  V30 5367 H 515.27 0.738409 -0.152541 0
M  V30 5368 H 517.921 1.52711 -1.01744 0
M  V30 5369 H 516.303 3.95991 -0.0265904 0
M  V30 5370 H 517.477 3.6098 -2.86408 0
M  V30 5371 H 515.792 3.35795 -2.46232 0
M  V30 5372 H 518.389 5.32403 -0.495036 0
M  V30 5373 H 518.732 4.10279 0.705476 0
M  V30 5374 H 519.265 3.85657 -0.975362 0
M  V30 5375 H 516.004 5.5927 -3.41903 0
M  V30 5376 H 515.524 5.74804 -1.7135 0
M  V30 5377 H 517.203 6.0828 -2.20465 0
M  V30 5378 N 517.335 0.585699 1.46312 0
M  V30 5379 C 518.283 -0.158577 2.32059 0
M  V30 5380 C 519.277 -0.881427 1.44662 0
M  V30 5381 O 520.483 -0.799476 1.61271 0
M  V30 5382 H 516.858 -0.0700066 0.748734 0
M  V30 5383 H 518.829 0.583383 2.92642 0
M  V30 5384 C 517.578 -1.15701 3.27885 0
M  V30 5385 H 516.901 -0.610215 3.95116 0
M  V30 5386 H 518.341 -1.64812 3.90657 0
M  V30 5387 C 516.8 -2.21951 2.53455 0
M  V30 5388 O 517.33 -3.29352 2.29978 0
M  V30 5389 N 515.536 -1.9664 2.13965 0
M  V30 5390 H 515.083 -1.09309 2.33258 0
M  V30 5391 H 515.041 -2.6794 1.64485 0
M  V30 5392 N 518.813 -1.54241 0.323641 0
M  V30 5393 C 519.76 -2.24339 -0.542277 0
M  V30 5394 C 520.73 -1.23421 -1.11159 0
M  V30 5395 O 521.915 -1.52104 -1.15192 0
M  V30 5396 C 519.055 -3.00479 -1.69725 0
M  V30 5397 C 518.168 -4.16214 -1.15716 0
M  V30 5398 C 517.303 -4.79884 -2.27783 0
M  V30 5399 C 516.342 -5.87722 -1.71023 0
M  V30 5400 N 515.479 -6.45254 -2.76752 0
M  V30 5401 H 520.319 -2.97935 0.0620613 0
M  V30 5402 H 517.856 -1.47039 0.0423993 0
M  V30 5403 H 519.814 -3.42869 -2.3769 0
M  V30 5404 H 518.444 -2.29217 -2.27288 0
M  V30 5405 H 517.496 -3.78605 -0.369063 0
M  V30 5406 H 518.808 -4.93838 -0.701832 0
M  V30 5407 H 517.962 -5.25243 -3.03651 0
M  V30 5408 H 516.701 -4.01641 -2.76652 0
M  V30 5409 H 515.706 -5.41765 -0.936518 0
M  V30 5410 H 516.931 -6.67863 -1.2303 0
M  V30 5411 H 514.877 -5.69884 -3.24912 0
M  V30 5412 H 514.794 -7.18292 -2.35782 0
M  V30 5413 H 516.062 -6.95269 -3.5245 0
M  V30 5414 N 520.291 -0.0518155 -1.57515 0
M  V30 5415 C 521.223 0.951542 -2.08515 0
M  V30 5416 C 522.236 1.27436 -1.01311 0
M  V30 5417 O 523.425 1.23504 -1.28876 0
M  V30 5418 C 520.525 2.27291 -2.5138 0
M  V30 5419 C 519.698 2.13191 -3.81927 0
M  V30 5420 C 518.757 3.28458 -4.11098 0
M  V30 5421 O 517.783 3.04334 -4.81009 0
M  V30 5422 N 518.985 4.52954 -3.63061 0
M  V30 5423 H 521.75 0.516242 -2.9522 0
M  V30 5424 H 519.311 0.13441 -1.61341 0
M  V30 5425 H 521.303 3.03272 -2.67971 0
M  V30 5426 H 519.873 2.62386 -1.69919 0
M  V30 5427 H 519.093 1.21798 -3.74912 0
M  V30 5428 H 520.381 2.00999 -4.67415 0
M  V30 5429 H 519.779 4.75444 -3.06545 0
M  V30 5430 H 518.336 5.26026 -3.84889 0
M  V30 5431 N 521.769 1.56035 0.221574 0
M  V30 5432 C 522.679 1.95581 1.29558 0
M  V30 5433 C 523.695 0.859639 1.51282 0
M  V30 5434 O 524.871 1.16321 1.64413 0
M  V30 5435 C 521.936 2.26447 2.62531 0
M  V30 5436 C 520.997 3.49632 2.4911 0
M  V30 5437 C 520.23 3.79017 3.75742 0
M  V30 5438 O 520.453 3.10077 4.78757 0
M  V30 5439 O 519.387 4.72507 3.72855 0
M  V30 5440 H 523.213 2.8711 0.990035 0
M  V30 5441 H 520.798 1.43244 0.424434 0
M  V30 5442 H 522.68 2.47494 3.41064 0
M  V30 5443 H 521.355 1.38092 2.92766 0
M  V30 5444 H 520.262 3.33864 1.68777 0
M  V30 5445 H 521.595 4.3837 2.23814 0
M  V30 5446 N 523.247 -0.488276 1.49845 0
M  V30 5447 C 524.494 -1.24157 1.59973 0
M  V30 5448 C 524.822 -1.92293 0.292182 0
M  V30 5449 O 524.077 -1.81942 -0.720813 0
M  V30 5450 C 524.376 -2.32152 2.71735 0
M  V30 5451 C 524.042 -1.81387 4.12807 0
M  V30 5452 C 522.704 -1.67262 4.51195 0
M  V30 5453 C 525.056 -1.43537 5.01045 0
M  V30 5454 C 522.384 -1.13685 5.7558 0
M  V30 5455 C 524.736 -0.914081 6.25961 0
M  V30 5456 C 523.4 -0.759327 6.63167 0
M  V30 5457 H 522.67 -0.454322 0.585383 0
M  V30 5458 H 525.317 -0.540261 1.83721 0
M  V30 5459 H 523.622 -3.08122 2.42008 0
M  V30 5460 H 525.319 -2.90164 2.76778 0
M  V30 5461 H 521.909 -1.93344 3.82513 0
M  V30 5462 H 526.093 -1.53292 4.72033 0
M  V30 5463 H 521.349 -1.00426 6.03096 0
M  V30 5464 H 525.523 -0.612066 6.93705 0
M  V30 5465 H 523.15 -0.342002 7.5943 0
M  V30 5466 N 524.725 -1.39134 -0.740242 0
M  V30 5467 C 525.973 -1.35803 -1.49673 0
M  V30 5468 C 526.294 0.0470897 -1.94943 0
M  V30 5469 O 525.564 0.997347 -1.68611 0
M  V30 5470 H 524.144 -0.499736 -0.555224 0
M  V30 5471 H 526.806 -1.73947 -0.879107 0
M  V30 5472 H 525.902 -2.0174 -2.38133 0
M  V30 5473 N 526.204 0.969867 -1.24223 0
M  V30 5474 C 527.45 1.71582 -1.09231 0
M  V30 5475 C 527.805 1.88898 0.365432 0
M  V30 5476 O 527.098 1.43781 1.2664 0
M  V30 5477 C 527.292 3.10883 -1.76314 0
M  V30 5478 C 527.121 3.07155 -3.2846 0
M  V30 5479 C 525.891 3.11757 -3.97663 0
M  V30 5480 C 528.089 2.895 -4.25082 0
M  V30 5481 N 526.071 2.98025 -5.36707 0
M  V30 5482 C 527.442 2.84041 -5.51109 0
M  V30 5483 C 529.497 2.74064 -4.15684 0
M  V30 5484 C 528.2 2.64725 -6.68815 0
M  V30 5485 C 530.226 2.56115 -5.33066 0
M  V30 5486 C 529.588 2.51363 -6.58024 0
M  V30 5487 H 525.687 0.636496 -0.454309 0
M  V30 5488 H 528.271 1.15004 -1.57106 0
M  V30 5489 H 526.442 3.65657 -1.30955 0
M  V30 5490 H 528.174 3.74171 -1.54201 0
M  V30 5491 H 524.929 3.20352 -3.48814 0
M  V30 5492 H 525.353 2.94405 -6.09635 0
M  V30 5493 H 529.995 2.76521 -3.19837 0
M  V30 5494 H 527.713 2.61011 -7.64787 0
M  V30 5495 H 531.299 2.45119 -5.27644 0
M  V30 5496 H 530.179 2.37651 -7.47323 0
M  V30 5497 N 527.682 1.05563 1.17022 0
M  V30 5498 C 528.612 0.681026 2.23348 0
M  V30 5499 C 529.593 -0.322983 1.67005 0
M  V30 5500 O 530.778 -0.199746 1.9317 0
M  V30 5501 C 527.908 0.0589053 3.4725 0
M  V30 5502 C 526.862 0.988082 4.16438 0
M  V30 5503 C 526.188 0.229646 5.34207 0
M  V30 5504 C 527.488 2.31388 4.68249 0
M  V30 5505 H 529.182 1.56993 2.54938 0
M  V30 5506 H 526.728 0.756302 1.2254 0
M  V30 5507 H 528.681 -0.214982 4.20851 0
M  V30 5508 H 527.405 -0.864968 3.14938 0
M  V30 5509 H 526.064 1.24659 3.44754 0
M  V30 5510 H 525.712 -0.697111 4.98146 0
M  V30 5511 H 525.412 0.848815 5.81437 0
M  V30 5512 H 526.936 -0.0368694 6.10589 0
M  V30 5513 H 528.35 2.09964 5.33468 0
M  V30 5514 H 526.747 2.88736 5.26072 0
M  V30 5515 H 527.817 2.94982 3.84855 0
M  V30 5516 N 529.16 -1.33526 0.837174 0
M  V30 5517 C 530.409 -1.97098 0.428387 0
M  V30 5518 C 530.722 -1.67062 -1.01734 0
M  V30 5519 O 531.928 -2.24235 -1.53072 0
M  V30 5520 C 530.384 -3.52725 0.715075 0
M  V30 5521 C 529.992 -3.9164 2.17537 0
M  V30 5522 C 531.736 -4.22857 0.373154 0
M  V30 5523 C 529.643 -5.40237 2.40619 0
M  V30 5524 H 528.573 -0.737589 0.156455 0
M  V30 5525 H 531.224 -1.52169 1.02552 0
M  V30 5526 H 529.606 -3.95971 0.0475904 0
M  V30 5527 H 530.78 -3.59456 2.88319 0
M  V30 5528 H 529.095 -3.34485 2.4801 0
M  V30 5529 H 531.692 -5.32133 0.523264 0
M  V30 5530 H 532.035 -4.10647 -0.683708 0
M  V30 5531 H 532.568 -3.85135 0.995801 0
M  V30 5532 H 529.307 -5.57449 3.44864 0
M  V30 5533 H 528.827 -5.73887 1.74396 0
M  V30 5534 H 530.506 -6.07102 2.23688 0
M  V30 5535 N 530.638 -0.59345 -1.46 0
M  V30 5536 C 532.049 -0.169801 -1.85926 0
M  V30 5537 C 532.4 1.26984 -1.49565 0
M  V30 5538 O 531.525 1.96076 -0.915602 0
M  V30 5539 C 532.12 -0.301385 -3.37457 0
M  V30 5540 C 530.679 0.0674684 -3.7634 0
M  V30 5541 C 529.826 -0.632383 -2.69993 0
M  V30 5542 H 532.777 -0.801014 -1.37002 0
M  V30 5543 H 532.798 0.470331 -3.77582 0
M  V30 5544 H 532.31 -1.34927 -3.63891 0
M  V30 5545 H 530.411 1.11507 -3.55523 0
M  V30 5546 H 530.524 -0.316332 -4.78055 0
M  V30 5547 H 528.888 -0.0714961 -2.546 0
M  V30 5548 H 529.671 -1.68212 -2.99265 0
M  V30 5549 N 532.116 1.54067 -0.331816 0
M  V30 5550 C 533.049 2.20886 0.573127 0
M  V30 5551 C 534.027 1.18876 1.10938 0
M  V30 5552 O 535.211 1.47649 1.17184 0
M  V30 5553 C 532.338 2.87706 1.78726 0
M  V30 5554 C 531.384 4.03505 1.38152 0
M  V30 5555 S 532.217 5.33919 0.41123 0
M  V30 5556 C 533.373 6.04236 1.63246 0
M  V30 5557 H 533.606 2.97299 0.00555737 0
M  V30 5558 H 531.139 1.53964 -0.115893 0
M  V30 5559 H 533.097 3.26825 2.48386 0
M  V30 5560 H 531.758 2.1108 2.32603 0
M  V30 5561 H 530.951 4.49152 2.28645 0
M  V30 5562 H 530.553 3.66102 0.764524 0
M  V30 5563 H 532.845 6.26917 2.56869 0
M  V30 5564 H 533.788 6.97546 1.218 0
M  V30 5565 H 534.196 5.34247 1.82318 0
M  V30 5566 N 533.594 0.0601682 1.57485 0
M  V30 5567 C 534.526 -0.94047 2.09016 0
M  V30 5568 C 535.539 -1.26897 1.01985 0
M  V30 5569 O 536.728 -1.22819 1.29529 0
M  V30 5570 C 533.828 -2.25955 2.52582 0
M  V30 5571 C 533.001 -2.11163 3.83052 0
M  V30 5572 C 532.06 -3.26273 4.12835 0
M  V30 5573 O 531.086 -3.01779 4.82616 0
M  V30 5574 N 532.288 -4.51022 3.65458 0
M  V30 5575 H 535.053 -0.500578 2.9549 0
M  V30 5576 H 532.614 -0.125852 1.6141 0
M  V30 5577 H 534.606 -3.01846 2.69575 0
M  V30 5578 H 533.176 -2.61481 1.71308 0
M  V30 5579 H 532.396 -1.19808 3.75552 0
M  V30 5580 H 533.684 -1.98517 4.68475 0
M  V30 5581 H 533.082 -4.73811 3.09062 0
M  V30 5582 H 531.639 -5.23978 3.87673 0
M  V30 5583 N 535.072 -1.5615 -0.213296 0
M  V30 5584 C 536.002 -1.96109 -1.26742 0
M  V30 5585 C 536.983 -0.830448 -1.48451 0
M  V30 5586 O 538.168 -1.09339 -1.60495 0
M  V30 5587 C 535.298 -2.28492 -2.61551 0
M  V30 5588 C 534.252 -3.44124 -2.54485 0
M  V30 5589 C 533.578 -3.62134 -3.93399 0
M  V30 5590 C 534.878 -4.78855 -2.08556 0
M  V30 5591 H 536.572 -2.84412 -0.935434 0
M  V30 5592 H 534.118 -1.36836 -0.44854 0
M  V30 5593 H 536.071 -2.55039 -3.3546 0
M  V30 5594 H 534.795 -1.37052 -2.96453 0
M  V30 5595 H 533.454 -3.17639 -1.83033 0
M  V30 5596 H 533.102 -2.68055 -4.25623 0
M  V30 5597 H 532.802 -4.39913 -3.89551 0
M  V30 5598 H 534.326 -3.91038 -4.68958 0
M  V30 5599 H 535.74 -5.04552 -2.72213 0
M  V30 5600 H 534.137 -5.59975 -2.1575 0
M  V30 5601 H 535.207 -4.73657 -1.03811 0
M  V30 5602 N 536.55 0.480323 -1.50102 0
M  V30 5603 C 537.483 1.59789 -1.62919 0
M  V30 5604 C 538.461 1.55429 -0.477557 0
M  V30 5605 O 539.645 1.75186 -0.695851 0
M  V30 5606 C 536.772 2.98351 -1.60325 0
M  V30 5607 C 535.818 3.20899 -2.80938 0
M  V30 5608 S 536.651 3.01791 -4.4236 0
M  V30 5609 C 537.807 4.42712 -4.42444 0
M  V30 5610 H 538.04 1.48676 -2.57454 0
M  V30 5611 H 535.573 0.666996 -1.3925 0
M  V30 5612 H 537.531 3.7824 -1.59514 0
M  V30 5613 H 536.192 3.06862 -0.670419 0
M  V30 5614 H 535.385 4.22102 -2.75401 0
M  V30 5615 H 534.987 2.48768 -2.79268 0
M  V30 5616 H 537.279 5.3518 -4.15438 0
M  V30 5617 H 538.222 4.53294 -5.43995 0
M  V30 5618 H 538.63 4.24359 -3.72263 0
M  V30 5619 N 538.028 1.39524 0.732853 0
M  V30 5620 C 539.253 1.40329 1.52717 0
M  V30 5621 C 539.678 0.000286574 1.881 0
M  V30 5622 O 539.036 -0.987262 1.52062 0
M  V30 5623 C 539.084 2.28464 2.78992 0
M  V30 5624 O 538.188 1.716 3.75003 0
M  V30 5625 H 537.529 0.47778 0.461109 0
M  V30 5626 H 540.059 1.83546 0.903996 0
M  V30 5627 H 540.069 2.43051 3.27705 0
M  V30 5628 H 538.744 3.30425 2.52572 0
M  V30 5629 H 537.321 1.66267 3.33781 0
M  V30 5630 N 539.506 -0.963266 1.24736 0
M  V30 5631 C 540.736 -1.73913 1.11524 0
M  V30 5632 C 541.144 -1.86218 -0.334612 0
M  V30 5633 O 540.487 -1.3531 -1.24245 0
M  V30 5634 C 540.549 -3.17501 1.68622 0
M  V30 5635 C 540.213 -3.28655 3.17546 0
M  V30 5636 C 541.21 -3.13637 4.14642 0
M  V30 5637 C 538.895 -3.52753 3.5759 0
M  V30 5638 C 540.889 -3.2255 5.49764 0
M  V30 5639 C 538.576 -3.61303 4.92852 0
M  V30 5640 C 539.574 -3.46214 5.88748 0
M  V30 5641 O 539.262 -3.5443 7.2155 0
M  V30 5642 H 538.994 -0.552057 0.390139 0
M  V30 5643 H 541.548 -1.2177 1.65412 0
M  V30 5644 H 539.778 -3.70969 1.09172 0
M  V30 5645 H 541.467 -3.76914 1.50635 0
M  V30 5646 H 542.233 -2.94899 3.85045 0
M  V30 5647 H 538.112 -3.63561 2.83451 0
M  V30 5648 H 541.656 -3.1069 6.24594 0
M  V30 5649 H 537.553 -3.79556 5.22118 0
M  V30 5650 H 538.321 -3.71116 7.29531 0
M  V30 5651 N 540.985 -1.06182 -1.16461 0
M  V30 5652 C 542.396 -0.802426 -1.68576 0
M  V30 5653 C 542.747 0.67412 -1.84255 0
M  V30 5654 O 541.872 1.52303 -1.5373 0
M  V30 5655 C 542.467 -1.45002 -3.06202 0
M  V30 5656 C 541.026 -1.23843 -3.55443 0
M  V30 5657 C 540.173 -1.52724 -2.31454 0
M  V30 5658 H 543.124 -1.22545 -1.00839 0
M  V30 5659 H 543.145 -0.864731 -3.70544 0
M  V30 5660 H 542.657 -2.52466 -2.94759 0
M  V30 5661 H 540.758 -0.183487 -3.72148 0
M  V30 5662 H 540.871 -1.95036 -4.37604 0
M  V30 5663 H 539.235 -0.947726 -2.36411 0
M  V30 5664 H 540.018 -2.61343 -2.22609 0
M  V30 5665 N 542.463 1.3308 -0.844243 0
M  V30 5666 C 543.393 2.3161 -0.296493 0
M  V30 5667 C 544.374 1.59215 0.598707 0
M  V30 5668 O 545.559 1.87077 0.521134 0
M  V30 5669 C 542.689 3.43313 0.524762 0
M  V30 5670 C 541.643 4.27115 -0.275106 0
M  V30 5671 C 540.969 5.30483 0.670236 0
M  V30 5672 C 542.269 5.00443 -1.49514 0
M  V30 5673 H 543.963 2.77672 -1.11976 0
M  V30 5674 H 541.509 1.33496 -0.539899 0
M  V30 5675 H 543.462 4.11273 0.918298 0
M  V30 5676 H 542.186 2.95952 1.3813 0
M  V30 5677 H 540.845 3.60787 -0.650267 0
M  V30 5678 H 540.493 4.79379 1.52332 0
M  V30 5679 H 540.193 5.87435 0.139123 0
M  V30 5680 H 541.717 6.01308 1.06117 0
M  V30 5681 H 543.131 5.61141 -1.17447 0
M  V30 5682 H 541.528 5.67071 -1.96343 0
M  V30 5683 H 542.598 4.28906 -2.26202 0
M  V30 5684 N 543.941 0.601185 1.45683 0
M  V30 5685 C 545.166 0.0982245 2.07167 0
M  V30 5686 C 545.591 -1.20546 1.44396 0
M  V30 5687 O 544.949 -1.73247 0.534347 0
M  V30 5688 C 544.997 -0.0346976 3.60583 0
M  V30 5689 O 544.101 -1.08657 3.97828 0
M  V30 5690 H 543.442 0.0711618 0.660176 0
M  V30 5691 H 545.972 0.829376 1.87036 0
M  V30 5692 H 545.982 -0.234969 4.07323 0
M  V30 5693 H 544.657 0.917265 4.05659 0
M  V30 5694 H 543.234 -0.863275 3.6277 0
M  V30 5695 N 545.419 -1.53889 0.339982 0
M  V30 5696 C 546.329 -2.28604 -0.526988 0
M  V30 5697 C 547.345 -1.33578 -1.11503 0
M  V30 5698 O 548.521 -1.66612 -1.13148 0
M  V30 5699 C 545.586 -3.04164 -1.66389 0
M  V30 5700 C 544.647 -4.14809 -1.10599 0
M  V30 5701 C 543.88 -4.86756 -2.18871 0
M  V30 5702 O 544.103 -4.58343 -3.39526 0
M  V30 5703 O 543.037 -5.73289 -1.83366 0
M  V30 5704 H 546.863 -3.03594 0.0802707 0
M  V30 5705 H 544.448 -1.4903 0.105141 0
M  V30 5706 H 546.33 -3.51427 -2.32544 0
M  V30 5707 H 545.005 -2.32035 -2.25703 0
M  V30 5708 H 543.912 -3.71857 -0.409067 0
M  V30 5709 H 545.245 -4.89029 -0.557771 0
M  V30 5710 N 546.897 -0.0685191 -1.57451 0
M  V30 5711 C 548.145 0.60016 -1.92983 0
M  V30 5712 C 548.466 1.70348 -0.949028 0
M  V30 5713 O 547.736 1.959 0.00335647 0
M  V30 5714 H 546.316 0.224682 -0.712409 0
M  V30 5715 H 548.978 -0.125605 -1.94495 0
M  V30 5716 H 548.074 1.02759 -2.94698 0
M  V30 5717 N 548.375 1.56261 0.205012 0
M  V30 5718 C 549.307 1.90266 1.27795 0
M  V30 5719 C 550.32 0.792397 1.42214 0
M  V30 5720 O 551.509 1.07077 1.42817 0
M  V30 5721 C 548.609 2.11074 2.65143 0
M  V30 5722 C 547.782 3.42176 2.7246 0
M  V30 5723 C 546.841 3.52216 3.90936 0
M  V30 5724 O 545.867 4.25119 3.78501 0
M  V30 5725 N 547.069 2.84573 5.05963 0
M  V30 5726 H 549.834 2.82896 0.989434 0
M  V30 5727 H 547.395 1.57008 0.394981 0
M  V30 5728 H 549.387 2.15089 3.4281 0
M  V30 5729 H 547.957 1.2499 2.86524 0
M  V30 5730 H 547.177 3.50116 1.81142 0
M  V30 5731 H 548.465 4.28509 2.74331 0
M  V30 5732 H 547.863 2.25152 5.18963 0
M  V30 5733 H 546.42 2.94228 5.81613 0
M  V30 5734 N 549.853 -0.472356 1.50355 0
M  V30 5735 C 550.783 -1.57859 1.72055 0
M  V30 5736 C 551.764 -1.60283 0.569505 0
M  V30 5737 O 552.949 -1.7657 0.808503 0
M  V30 5738 C 550.079 -2.96191 1.81351 0
M  V30 5739 C 549.033 -3.08633 2.96529 0
M  V30 5740 C 548.359 -4.486 2.90968 0
M  V30 5741 C 549.659 -2.85969 4.37057 0
M  V30 5742 H 551.353 -1.39953 2.64676 0
M  V30 5743 H 548.899 -0.671846 1.27367 0
M  V30 5744 H 550.852 -3.73507 1.95117 0
M  V30 5745 H 549.576 -3.15251 0.853502 0
M  V30 5746 H 548.235 -2.33749 2.82413 0
M  V30 5747 H 547.883 -4.64577 1.92815 0
M  V30 5748 H 547.583 -4.57861 3.68289 0
M  V30 5749 H 549.107 -5.27938 3.0678 0
M  V30 5750 H 550.521 -3.53036 4.51706 0
M  V30 5751 H 548.918 -3.06677 5.15819 0
M  V30 5752 H 549.988 -1.81838 4.49514 0
M  V30 5753 N 551.331 -1.39911 -0.725443 0
M  V30 5754 C 552.608 -1.28158 -1.47766 0
M  V30 5755 C 552.988 0.104545 -2.10841 0
M  V30 5756 O 552.336 1.11657 -1.99361 0
M  V30 5757 C 552.546 -2.41306 -2.52135 0
M  V30 5758 C 553.894 -2.81076 -3.18247 0
M  V30 5759 O 554.918 -2.40827 -2.62452 0
M  V30 5760 O 553.777 -3.50581 -4.19231 0
M  V30 5761 H 550.871 -0.502761 -0.656628 0
M  V30 5762 H 553.417 -1.51808 -0.758456 0
M  V30 5763 H 552.189 -3.33932 -2.03974 0
M  V30 5764 H 551.812 -2.19374 -3.31603 0
M  V30 5765 N 552.809 0.956637 -1.25245 0
M  V30 5766 C 553.741 2.05628 -1.01242 0
M  V30 5767 C 554.754 1.62785 0.0219579 0
M  V30 5768 O 555.943 1.77184 -0.216365 0
M  V30 5769 C 553.043 3.35069 -0.508161 0
M  V30 5770 C 552.216 4.06761 -1.60823 0
M  V30 5771 C 551.275 5.14473 -1.1047 0
M  V30 5772 O 550.301 5.40033 -1.79868 0
M  V30 5773 N 551.503 5.80474 0.0550773 0
M  V30 5774 H 554.268 2.2679 -1.95925 0
M  V30 5775 H 551.829 1.12505 -1.16423 0
M  V30 5776 H 553.821 4.044 -0.155819 0
M  V30 5777 H 552.391 3.10694 0.344683 0
M  V30 5778 H 551.611 3.31555 -2.13224 0
M  V30 5779 H 552.899 4.51418 -2.34733 0
M  V30 5780 H 552.297 5.62125 0.635004 0
M  V30 5781 H 550.854 6.50868 0.348469 0
M  V30 5782 N 554.287 1.06798 1.15896 0
M  V30 5783 C 555.234 0.683314 2.20453 0
M  V30 5784 C 556.204 -0.32255 1.62938 0
M  V30 5785 O 557.389 -0.210276 1.89638 0
M  V30 5786 C 554.529 0.0813266 3.45004 0
M  V30 5787 C 553.642 1.13799 4.16742 0
M  V30 5788 C 552.777 0.501598 5.28826 0
M  V30 5789 C 551.816 1.54144 5.92373 0
M  V30 5790 N 550.953 0.928038 6.9594 0
M  V30 5791 H 555.793 1.57932 2.52708 0
M  V30 5792 H 553.33 0.789544 1.24115 0
M  V30 5793 H 555.288 -0.285274 4.16224 0
M  V30 5794 H 553.918 -0.77806 3.13283 0
M  V30 5795 H 552.97 1.62223 3.44075 0
M  V30 5796 H 554.282 1.92664 4.60089 0
M  V30 5797 H 553.436 0.0823162 6.06644 0
M  V30 5798 H 552.175 -0.318883 4.86656 0
M  V30 5799 H 551.18 1.97056 5.13273 0
M  V30 5800 H 552.405 2.3641 6.36621 0
M  V30 5801 H 550.351 0.12836 6.55874 0
M  V30 5802 H 550.268 1.65401 7.37685 0
M  V30 5803 H 551.536 0.534071 7.77668 0
M  V30 5804 N 555.766 -1.3263 0.851289 0
M  V30 5805 C 556.994 -2.01563 0.466899 0
M  V30 5806 C 557.409 -1.63996 -0.935447 0
M  V30 5807 O 556.766 -0.85957 -1.6099 0
M  V30 5808 C 556.817 -3.56613 0.592433 0
M  V30 5809 O 556.538 -3.92828 1.93954 0
M  V30 5810 C 558.039 -4.42818 0.206612 0
M  V30 5811 H 555.259 -0.645307 0.183902 0
M  V30 5812 H 557.803 -1.69285 1.1473 0
M  V30 5813 H 555.958 -3.87379 -0.0401936 0
M  V30 5814 H 556.372 -4.87545 1.9339 0
M  V30 5815 H 557.846 -5.50918 0.345462 0
M  V30 5816 H 558.323 -4.30844 -0.85264 0
M  V30 5817 H 558.929 -4.17434 0.814176 0
M  V30 5818 N 557.244 -0.608902 -1.45362 0
M  V30 5819 C 558.207 0.0992563 -2.28985 0
M  V30 5820 C 559.207 0.793841 -1.39838 0
M  V30 5821 O 560.397 0.641804 -1.61946 0
M  V30 5822 C 557.529 1.15073 -3.20891 0
M  V30 5823 H 558.722 -0.635964 -2.93079 0
M  V30 5824 H 556.275 -0.368007 -1.51906 0
M  V30 5825 H 557.01 1.91667 -2.616 0
M  V30 5826 H 556.795 0.656867 -3.86559 0
M  V30 5827 H 558.285 1.64665 -3.83765 0
M  V30 5828 N 558.722 1.53707 -0.348139 0
M  V30 5829 C 559.655 2.21481 0.549667 0
M  V30 5830 C 560.633 1.20046 1.09671 0
M  V30 5831 O 561.817 1.48883 1.15612 0
M  V30 5832 C 558.944 2.89585 1.75664 0
M  V30 5833 C 557.99 4.04948 1.33864 0
M  V30 5834 S 558.823 5.34325 0.354577 0
M  V30 5835 C 559.979 6.05934 1.56828 0
M  V30 5836 H 560.212 2.97289 -0.0259755 0
M  V30 5837 H 557.745 1.53833 -0.132216 0
M  V30 5838 H 559.703 3.29441 2.44906 0
M  V30 5839 H 558.364 2.13535 2.30351 0
M  V30 5840 H 557.557 4.51552 2.23868 0
M  V30 5841 H 557.159 3.66893 0.725651 0
M  V30 5842 H 559.451 6.29606 2.50205 0
M  V30 5843 H 560.394 6.98799 1.14395 0
M  V30 5844 H 560.802 5.36151 1.76642 0
M  V30 5845 N 560.2 0.0768682 1.57412 0
M  V30 5846 C 561.425 -0.603404 1.98428 0
M  V30 5847 C 561.85 -1.62047 0.955108 0
M  V30 5848 O 561.208 -1.81129 -0.0786778 0
M  V30 5849 C 561.256 -1.24396 3.38464 0
M  V30 5850 O 560.36 -2.35982 3.3821 0
M  V30 5851 H 559.701 -0.154741 0.645718 0
M  V30 5852 H 562.231 0.152885 2.04028 0
M  V30 5853 H 562.241 -1.5896 3.7576 0
M  V30 5854 H 560.916 -0.498735 4.12899 0
M  V30 5855 H 559.493 -2.03173 3.1269 0
M  V30 5856 N 561.678 -1.56367 -0.196722 0
M  V30 5857 C 562.608 -1.97442 -1.24655 0
M  V30 5858 C 563.589 -0.846147 -1.47561 0
M  V30 5859 O 564.774 -1.11035 -1.59326 0
M  V30 5860 C 561.904 -2.31253 -2.59112 0
M  V30 5861 C 560.858 -3.46804 -2.50821 0
M  V30 5862 C 560.184 -3.66286 -3.89536 0
M  V30 5863 C 561.484 -4.8104 -2.03465 0
M  V30 5864 H 563.178 -2.85388 -0.905216 0
M  V30 5865 H 560.724 -1.37304 -0.434002 0
M  V30 5866 H 562.677 -2.58583 -3.32736 0
M  V30 5867 H 561.401 -1.40188 -2.94983 0
M  V30 5868 H 560.06 -3.19563 -1.79653 0
M  V30 5869 H 559.708 -2.72555 -4.22756 0
M  V30 5870 H 559.408 -4.4402 -3.84864 0
M  V30 5871 H 560.932 -3.9599 -4.64784 0
M  V30 5872 H 562.346 -5.07411 -2.66846 0
M  V30 5873 H 560.743 -5.62232 -2.09798 0
M  V30 5874 H 561.813 -4.74732 -0.98781 0
M  V30 5875 N 563.156 0.464375 -1.50603 0
M  V30 5876 C 564.086 1.56944 -1.72889 0
M  V30 5877 C 565.067 1.59979 -0.577997 0
M  V30 5878 O 566.252 1.76138 -0.817855 0
M  V30 5879 C 563.382 2.95225 -1.8292 0
M  V30 5880 C 562.336 3.07056 -2.98162 0
M  V30 5881 C 561.662 4.47051 -2.93343 0
M  V30 5882 C 562.962 2.83648 -4.38567 0
M  V30 5883 H 564.656 1.38547 -2.65415 0
M  V30 5884 H 562.202 0.665082 -1.27721 0
M  V30 5885 H 564.155 3.72467 -1.97095 0
M  V30 5886 H 562.879 3.14793 -0.870209 0
M  V30 5887 H 561.538 2.32248 -2.83648 0
M  V30 5888 H 561.186 4.63547 -1.95276 0
M  V30 5889 H 560.886 4.55902 -3.70712 0
M  V30 5890 H 562.41 5.26304 -3.09575 0
M  V30 5891 H 563.824 3.50636 -4.53572 0
M  V30 5892 H 562.221 3.03937 -5.17438 0
M  V30 5893 H 563.291 1.79451 -4.50472 0
M  V30 5894 N 564.634 1.40294 0.718013 0
M  V30 5895 C 565.88 1.39648 1.47885 0
M  V30 5896 C 566.235 -0.0023879 1.924 0
M  V30 5897 O 565.528 -0.972304 1.65096 0
M  V30 5898 C 565.722 2.31814 2.72024 0
M  V30 5899 C 565.551 3.80523 2.3965 0
M  V30 5900 C 564.321 4.49351 2.3111 0
M  V30 5901 C 566.519 4.72077 2.04079 0
M  V30 5902 N 564.501 5.83305 1.91385 0
M  V30 5903 C 565.872 5.94809 1.74935 0
M  V30 5904 C 567.927 4.59935 1.90694 0
M  V30 5905 C 566.63 7.06755 1.33753 0
M  V30 5906 C 568.656 5.7182 1.50915 0
M  V30 5907 C 568.018 6.93637 1.22668 0
M  V30 5908 H 564.117 0.566263 0.539324 0
M  V30 5909 H 566.701 1.75986 0.832891 0
M  V30 5910 H 564.872 1.97607 3.34374 0
M  V30 5911 H 566.604 2.22042 3.38348 0
M  V30 5912 H 563.359 4.03002 2.4877 0
M  V30 5913 H 563.783 6.54239 1.74068 0
M  V30 5914 H 568.425 3.66274 2.11194 0
M  V30 5915 H 566.143 8.00302 1.11995 0
M  V30 5916 H 569.729 5.64421 1.4114 0
M  V30 5917 H 568.609 7.78743 0.923502 0
M  V30 5918 N 566.112 -0.949982 1.2575 0
M  V30 5919 C 567.059 -2.04738 1.06541 0
M  V30 5920 C 568.029 -1.66078 -0.0268818 0
M  V30 5921 O 569.214 -1.90348 0.131196 0
M  V30 5922 C 566.354 -3.38027 0.695127 0
M  V30 5923 C 565.467 -3.89776 1.86276 0
M  V30 5924 C 564.602 -5.11411 1.4364 0
M  V30 5925 C 563.641 -5.554 2.57287 0
M  V30 5926 N 562.778 -6.68244 2.15395 0
M  V30 5927 H 567.618 -2.20502 2.00457 0
M  V30 5928 H 565.155 -1.0805 0.998178 0
M  V30 5929 H 567.113 -4.14641 0.461375 0
M  V30 5930 H 565.743 -3.22135 -0.207046 0
M  V30 5931 H 564.795 -3.0964 2.20969 0
M  V30 5932 H 566.107 -4.18368 2.71606 0
M  V30 5933 H 565.261 -5.95457 1.16257 0
M  V30 5934 H 564 -4.84545 0.553879 0
M  V30 5935 H 563.005 -4.69916 2.85409 0
M  V30 5936 H 564.23 -5.84272 3.46125 0
M  V30 5937 H 562.176 -6.43078 1.29565 0
M  V30 5938 H 562.093 -6.96377 2.94272 0
M  V30 5939 H 563.361 -7.55687 1.91201 0
M  V30 5940 N 567.59 -1.07411 -1.15328 0
M  V30 5941 C 568.815 -0.818856 -1.90551 0
M  V30 5942 C 569.24 0.622194 -1.77512 0
M  V30 5943 O 568.598 1.43484 -1.10824 0
M  V30 5944 C 568.646 -1.23267 -3.38877 0
M  V30 5945 O 567.75 -0.378345 -4.10661 0
M  V30 5946 H 567.091 -0.29827 -0.593238 0
M  V30 5947 H 569.621 -1.43289 -1.46046 0
M  V30 5948 H 569.631 -1.20912 -3.89672 0
M  V30 5949 H 568.306 -2.28226 -3.47686 0
M  V30 5950 H 566.883 -0.464437 -3.69996 0
M  V30 5951 N 569.068 1.32177 -0.85831 0
M  V30 5952 C 570.298 2.01021 -0.476889 0
M  V30 5953 C 570.706 1.64653 0.931995 0
M  V30 5954 O 570.049 0.865713 1.62022 0
M  V30 5955 C 570.111 3.55413 -0.540528 0
M  V30 5956 C 569.775 4.1522 -1.90895 0
M  V30 5957 C 570.772 4.3318 -2.87491 0
M  V30 5958 C 568.457 4.51212 -2.20709 0
M  V30 5959 C 570.451 4.86306 -4.1205 0
M  V30 5960 C 568.138 5.04042 -3.45521 0
M  V30 5961 C 569.136 5.21538 -4.41007 0
M  V30 5962 O 568.824 5.73238 -5.63608 0
M  V30 5963 H 568.556 0.650059 -0.18547 0
M  V30 5964 H 571.11 1.69648 -1.15796 0
M  V30 5965 H 569.34 3.86196 0.19741 0
M  V30 5966 H 571.029 4.05526 -0.174191 0
M  V30 5967 H 571.795 4.05704 -2.65762 0
M  V30 5968 H 567.674 4.36878 -1.4717 0
M  V30 5969 H 571.218 4.99877 -4.86589 0
M  V30 5970 H 567.115 5.30952 -3.67098 0
M  V30 5971 H 567.883 5.91625 -5.65617 0
M  V30 5972 N 570.547 0.616602 1.45037 0
M  V30 5973 C 571.958 0.199359 1.85633 0
M  V30 5974 C 572.309 -1.24588 1.51566 0
M  V30 5975 O 571.434 -1.94594 0.94668 0
M  V30 5976 C 572.029 0.355033 3.36935 0
M  V30 5977 C 570.588 -0.00758748 3.76399 0
M  V30 5978 C 569.735 0.675256 2.68953 0
M  V30 5979 H 572.686 0.822708 1.3571 0
M  V30 5980 H 572.707 -0.410201 3.78282 0
M  V30 5981 H 572.219 1.40699 3.61698 0
M  V30 5982 H 570.32 -1.05837 3.57252 0
M  V30 5983 H 570.433 0.392346 4.77491 0
M  V30 5984 H 568.797 0.111992 2.54454 0
M  V30 5985 H 569.58 1.72952 2.96551 0
M  V30 5986 N 572.025 -1.5352 0.356285 0
M  V30 5987 C 572.955 -2.28372 -0.486661 0
M  V30 5988 C 573.936 -1.30432 -1.09185 0
M  V30 5989 O 575.121 -1.59291 -1.11085 0
M  V30 5990 C 572.251 -3.06604 -1.63129 0
M  V30 5991 C 571.205 -4.12154 -1.15381 0
M  V30 5992 C 570.531 -4.78415 -2.38796 0
M  V30 5993 C 571.831 -5.21724 -0.245179 0
M  V30 5994 H 573.525 -2.99083 0.137797 0
M  V30 5995 H 571.071 -1.43841 0.0677134 0
M  V30 5996 H 573.024 -3.57712 -2.22755 0
M  V30 5997 H 571.748 -2.33568 -2.28284 0
M  V30 5998 H 570.407 -3.61978 -0.580294 0
M  V30 5999 H 570.055 -4.01959 -3.02387 0
M  V30 6000 H 569.755 -5.49734 -2.07524 0
M  V30 6001 H 571.279 -5.32313 -2.99125 0
M  V30 6002 H 572.693 -5.68391 -0.748646 0
M  V30 6003 H 571.09 -6.00095 -0.0237608 0
M  V30 6004 H 572.16 -4.79596 0.715229 0
M  V30 6005 N 573.503 -0.0852151 -1.57369 0
M  V30 6006 C 574.749 0.581666 -1.94279 0
M  V30 6007 C 575.082 1.68444 -0.966446 0
M  V30 6008 O 574.357 1.945 0.00215277 0
M  V30 6009 C 574.64 1.14609 -3.41375 0
M  V30 6010 C 574.493 0.0490414 -4.49773 0
M  V30 6011 C 575.812 2.04751 -3.8957 0
M  V30 6012 H 572.931 0.209972 -0.706456 0
M  V30 6013 H 575.573 -0.153915 -1.89376 0
M  V30 6014 H 573.723 1.77297 -3.45685 0
M  V30 6015 H 575.395 -0.584721 -4.57579 0
M  V30 6016 H 573.638 -0.618638 -4.29366 0
M  V30 6017 H 574.309 0.484601 -5.49869 0
M  V30 6018 H 576.785 1.51981 -3.87351 0
M  V30 6019 H 575.661 2.41173 -4.93079 0
M  V30 6020 H 575.922 2.96107 -3.28288 0
M  V30 6021 N 574.981 1.5647 0.188427 0
M  V30 6022 C 576.221 1.82803 0.914469 0
M  V30 6023 C 576.585 0.663681 1.80165 0
M  V30 6024 O 577.786 0.807059 2.56398 0
M  V30 6025 C 576.057 3.14187 1.70357 0
M  V30 6026 S 577.616 3.61947 2.48072 0
M  V30 6027 H 574.434 0.641497 0.306599 0
M  V30 6028 H 577.036 1.94694 0.177361 0
M  V30 6029 H 575.74 3.96937 1.04255 0
M  V30 6030 H 575.271 3.05192 2.48237 0
M  V30 6031 H 577.286 3.27913 3.72407 0
M  V30 6032 N 576.459 -0.456382 1.50847 0
M  V30 6033 C 577.708 -1.2042 1.61808 0
M  V30 6034 C 578.021 -1.9278 0.330932 0
M  V30 6035 O 579.227 -2.69612 0.319643 0
M  V30 6036 C 577.683 -2.18891 2.85683 0
M  V30 6037 C 577.291 -1.52267 4.2133 0
M  V30 6038 C 579.035 -2.94224 3.05994 0
M  V30 6039 C 576.942 -2.4911 5.36375 0
M  V30 6040 H 575.872 -0.453177 0.602616 0
M  V30 6041 H 578.523 -0.473144 1.77295 0
M  V30 6042 H 576.905 -2.95351 2.63787 0
M  V30 6043 H 578.079 -0.814949 4.53536 0
M  V30 6044 H 576.394 -0.891594 4.06743 0
M  V30 6045 H 578.991 -3.66732 3.89117 0
M  V30 6046 H 579.334 -3.54469 2.18306 0
M  V30 6047 H 579.867 -2.24874 3.28141 0
M  V30 6048 H 576.606 -1.93582 6.26264 0
M  V30 6049 H 576.126 -3.17991 5.08569 0
M  V30 6050 H 577.805 -3.10637 5.67551 0
M  V30 6051 N 577.937 -1.40673 -0.710563 0
M  V30 6052 C 578.9 -1.4108 -1.80635 0
M  V30 6053 C 579.9 -0.303783 -1.57904 0
M  V30 6054 O 581.09 -0.562937 -1.64853 0
M  V30 6055 C 578.222 -1.20748 -3.18799 0
M  V30 6056 H 579.415 -2.38612 -1.81671 0
M  V30 6057 H 576.968 -1.26595 -0.916704 0
M  V30 6058 H 577.703 -0.239964 -3.23411 0
M  V30 6059 H 577.488 -2.00941 -3.36698 0
M  V30 6060 H 578.978 -1.23833 -3.98817 0
M  V30 6061 N 579.415 0.9433 -1.26252 0
M  V30 6062 C 580.362 2.0417 -1.07625 0
M  V30 6063 C 581.332 1.6609 0.0180738 0
M  V30 6064 O 582.517 1.90276 -0.141289 0
M  V30 6065 C 579.657 3.37653 -0.713043 0
M  V30 6066 C 578.77 3.88783 -1.8834 0
M  V30 6067 C 577.905 5.10642 -1.4635 0
M  V30 6068 C 576.944 5.54028 -2.60229 0
M  V30 6069 N 576.081 6.67092 -2.18936 0
M  V30 6070 H 580.921 2.19436 -2.01623 0
M  V30 6071 H 578.458 1.07519 -1.00389 0
M  V30 6072 H 580.416 4.14391 -0.483358 0
M  V30 6073 H 579.046 3.22241 0.18996 0
M  V30 6074 H 578.098 3.08464 -2.22608 0
M  V30 6075 H 579.41 4.16922 -2.73821 0
M  V30 6076 H 578.564 5.94832 -1.19414 0
M  V30 6077 H 577.303 4.84244 -0.579568 0
M  V30 6078 H 576.308 4.68396 -2.87898 0
M  V30 6079 H 577.533 5.82429 -3.49219 0
M  V30 6080 H 575.479 6.42381 -1.32974 0
M  V30 6081 H 575.396 6.94806 -2.97961 0
M  V30 6082 H 576.664 7.54662 -1.95206 0
M  V30 6083 N 580.893 1.08022 1.14757 0
M  V30 6084 C 581.803 0.718292 2.23333 0
M  V30 6085 C 582.819 -0.273477 1.71837 0
M  V30 6086 O 583.995 -0.118406 2.01052 0
M  V30 6087 C 581.06 0.128855 3.4646 0
M  V30 6088 C 580.121 1.17473 4.12915 0
M  V30 6089 C 579.354 0.61333 5.30164 0
M  V30 6090 O 579.577 -0.568458 5.6756 0
M  V30 6091 O 578.511 1.3615 5.86299 0
M  V30 6092 H 582.337 1.62394 2.56636 0
M  V30 6093 H 579.922 0.853628 1.22611 0
M  V30 6094 H 581.804 -0.197249 4.20938 0
M  V30 6095 H 580.479 -0.750014 3.14891 0
M  V30 6096 H 579.386 1.5533 3.40328 0
M  V30 6097 H 580.719 2.02574 4.48581 0
M  V30 6098 N 582.371 -1.3172 0.865308 0
M  V30 6099 C 583.301 -2.31109 0.333302 0
M  V30 6100 C 584.282 -1.60148 -0.573301 0
M  V30 6101 O 585.467 -1.87882 -0.491305 0
M  V30 6102 C 582.597 -3.44104 -0.470078 0
M  V30 6103 C 581.551 -4.26623 0.343021 0
M  V30 6104 C 580.877 -5.31482 -0.585756 0
M  V30 6105 C 582.177 -4.98001 1.57456 0
M  V30 6106 H 583.871 -2.75855 1.1638 0
M  V30 6107 H 581.417 -1.3262 0.561069 0
M  V30 6108 H 583.37 -4.12682 -0.852752 0
M  V30 6109 H 582.094 -2.98112 -1.33404 0
M  V30 6110 H 580.753 -3.59707 0.707583 0
M  V30 6111 H 580.401 -4.81741 -1.44686 0
M  V30 6112 H 580.101 -5.87582 -0.0456494 0
M  V30 6113 H 581.625 -6.0292 -0.965375 0
M  V30 6114 H 583.039 -5.59201 1.26359 0
M  V30 6115 H 581.436 -5.63876 2.05339 0
M  V30 6116 H 582.506 -4.25253 2.32997 0
M  V30 6117 N 583.85 -0.624285 -1.44708 0
M  V30 6118 C 585.099 -0.123539 -2.01321 0
M  V30 6119 C 585.412 1.25966 -1.49639 0
M  V30 6120 O 586.618 1.85405 -1.98336 0
M  V30 6121 C 585.074 -0.170124 -3.59498 0
M  V30 6122 C 584.682 -1.55421 -4.20176 0
M  V30 6123 C 586.426 0.274513 -4.23611 0
M  V30 6124 C 584.332 -1.55628 -5.70556 0
M  V30 6125 H 583.263 -0.0424183 -0.752806 0
M  V30 6126 H 585.913 -0.782076 -1.65999 0
M  V30 6127 H 584.296 0.555385 -3.92086 0
M  V30 6128 H 585.47 -2.30276 -3.99136 0
M  V30 6129 H 583.784 -1.94235 -3.68323 0
M  V30 6130 H 586.382 0.292402 -5.339 0
M  V30 6131 H 586.725 1.3005 -3.95465 0
M  V30 6132 H 587.258 -0.398275 -3.95801 0
M  V30 6133 H 583.997 -2.56041 -6.03426 0
M  V30 6134 H 583.517 -0.850563 -5.93739 0
M  V30 6135 H 585.196 -1.28721 -6.34066 0
M  V30 6136 N 585.328 1.53329 -0.364422 0
M  V30 6137 C 586.739 1.86345 0.115039 0
M  V30 6138 C 587.09 1.28505 1.4826 0
M  V30 6139 O 586.215 0.606639 2.07723 0
M  V30 6140 C 586.81 3.38114 0.215522 0
M  V30 6141 C 585.369 3.70932 0.639237 0
M  V30 6142 C 584.516 2.76471 -0.214261 0
M  V30 6143 H 587.467 1.47593 -0.583258 0
M  V30 6144 H 587.488 3.66031 1.0393 0
M  V30 6145 H 587 3.80182 -0.779948 0
M  V30 6146 H 585.101 3.3442 1.64298 0
M  V30 6147 H 585.214 4.77302 0.41465 0
M  V30 6148 H 583.578 2.52724 0.316678 0
M  V30 6149 H 584.361 3.21373 -1.20725 0
M  V30 6150 N 586.806 0.0935595 1.57322 0
M  V30 6151 C 587.716 -0.880192 2.17462 0
M  V30 6152 C 588.732 -1.31135 1.14366 0
M  V30 6153 O 589.908 -1.37958 1.46729 0
M  V30 6154 C 586.973 -2.12184 2.74188 0
M  V30 6155 C 586.034 -1.74503 3.92234 0
M  V30 6156 C 585.267 -2.92748 4.46245 0
M  V30 6157 O 585.49 -4.07427 3.99198 0
M  V30 6158 O 584.424 -2.71303 5.37288 0
M  V30 6159 H 588.25 -0.398516 3.01074 0
M  V30 6160 H 585.835 -0.130707 1.48827 0
M  V30 6161 H 587.717 -2.84953 3.10451 0
M  V30 6162 H 586.392 -2.59407 1.93623 0
M  V30 6163 H 585.299 -0.989186 3.60785 0
M  V30 6164 H 586.632 -1.32044 4.74157 0
M  V30 6165 N 588.284 -1.56567 -0.180126 0
M  V30 6166 C 589.247 -1.94852 -1.20686 0
M  V30 6167 C 590.247 -0.831212 -1.3765 0
M  V30 6168 O 591.437 -1.09841 -1.35206 0
M  V30 6169 C 588.569 -2.23565 -2.57355 0
M  V30 6170 H 589.762 -2.86722 -0.879225 0
M  V30 6171 H 587.315 -1.50489 -0.422237 0
M  V30 6172 H 588.05 -1.34381 -2.95148 0
M  V30 6173 H 587.835 -3.04999 -2.46411 0
M  V30 6174 H 589.325 -2.54137 -3.31367 0
M  V30 6175 N 589.762 0.448376 -1.51087 0
M  V30 6176 C 590.99 1.22143 -1.66999 0
M  V30 6177 C 591.405 1.85283 -0.362699 0
M  V30 6178 O 590.762 1.70236 0.65772 0
M  V30 6179 C 590.813 2.31357 -2.7777 0
M  V30 6180 O 590.534 1.70801 -4.03434 0
M  V30 6181 C 592.035 3.21836 -3.04855 0
M  V30 6182 H 589.255 0.368558 -0.560719 0
M  V30 6183 H 591.799 0.532618 -1.97442 0
M  V30 6184 H 589.954 2.95973 -2.49958 0
M  V30 6185 H 590.368 2.42895 -4.64868 0
M  V30 6186 H 591.842 3.94627 -3.85971 0
M  V30 6187 H 592.319 3.81949 -2.16821 0
M  V30 6188 H 592.925 2.62933 -3.34285 0
M  V30 6189 N 591.24 1.41047 0.703093 0
M  V30 6190 C 592.15 1.44645 1.84703 0
M  V30 6191 C 593.166 0.337778 1.7069 0
M  V30 6192 O 594.342 0.584327 1.92737 0
M  V30 6193 C 591.407 1.31928 3.20618 0
M  V30 6194 C 590.468 2.53047 3.46794 0
M  V30 6195 C 589.701 2.40927 4.76224 0
M  V30 6196 O 589.924 1.42978 5.5219 0
M  V30 6197 O 588.858 3.30543 5.03016 0
M  V30 6198 H 592.684 2.41139 1.84624 0
M  V30 6199 H 590.269 1.22504 0.855167 0
M  V30 6200 H 592.151 1.27092 4.01778 0
M  V30 6201 H 590.826 0.385469 3.21397 0
M  V30 6202 H 589.733 2.6346 2.65593 0
M  V30 6203 H 591.066 3.45231 3.50822 0
M  V30 6204 N 592.718 -0.936591 1.26751 0
M  V30 6205 C 593.665 -2.03597 1.08706 0
M  V30 6206 C 594.635 -1.66097 -0.00926542 0
M  V30 6207 O 595.82 -1.90199 0.151377 0
M  V30 6208 C 592.96 -3.3727 0.73094 0
M  V30 6209 C 592.073 -3.87778 1.90399 0
M  V30 6210 C 591.208 -5.09859 1.49056 0
M  V30 6211 C 590.247 -5.5264 2.63164 0
M  V30 6212 N 589.384 -6.65921 2.22471 0
M  V30 6213 H 594.224 -2.18364 2.02784 0
M  V30 6214 H 591.761 -1.06985 1.00958 0
M  V30 6215 H 593.719 -4.14128 0.505328 0
M  V30 6216 H 592.349 -3.22337 -0.172868 0
M  V30 6217 H 591.401 -3.07279 2.2424 0
M  V30 6218 H 592.713 -4.15464 2.76028 0
M  V30 6219 H 591.867 -5.9419 1.22567 0
M  V30 6220 H 590.606 -4.8393 0.60524 0
M  V30 6221 H 589.611 -4.66863 2.90377 0
M  V30 6222 H 590.836 -5.80568 3.52303 0
M  V30 6223 H 588.782 -6.41667 1.36379 0
M  V30 6224 H 588.699 -6.93216 3.01641 0
M  V30 6225 H 589.967 -7.53616 1.99205 0
M  V30 6226 N 594.196 -1.08629 -1.14182 0
M  V30 6227 C 595.426 -0.837673 -1.88856 0
M  V30 6228 C 595.834 0.614024 -1.78959 0
M  V30 6229 O 595.177 1.43384 -1.14833 0
M  V30 6230 C 595.239 -1.18355 -3.39459 0
M  V30 6231 C 594.903 -2.63848 -3.73139 0
M  V30 6232 C 595.9 -3.62099 -3.73069 0
M  V30 6233 C 593.585 -2.99761 -4.03049 0
M  V30 6234 C 595.579 -4.94292 -4.02435 0
M  V30 6235 C 593.266 -4.32147 -4.32078 0
M  V30 6236 C 594.264 -5.29223 -4.31755 0
M  V30 6237 O 593.952 -6.59229 -4.60079 0
M  V30 6238 H 593.684 -0.301609 -0.604986 0
M  V30 6239 H 596.238 -1.44961 -1.45518 0
M  V30 6240 H 594.468 -0.514628 -3.8326 0
M  V30 6241 H 596.157 -0.915391 -3.95443 0
M  V30 6242 H 596.923 -3.35698 -3.50046 0
M  V30 6243 H 592.802 -2.2484 -4.02453 0
M  V30 6244 H 596.346 -5.70055 -4.02098 0
M  V30 6245 H 592.243 -4.58296 -4.54571 0
M  V30 6246 H 593.011 -6.64578 -4.77785 0
M  V30 6247 N 595.674 1.31259 -0.872281 0
M  V30 6248 C 596.604 2.30929 -0.345554 0
M  V30 6249 C 597.585 1.60449 0.5648 0
M  V30 6250 O 598.77 1.8814 0.481335 0
M  V30 6251 C 595.9 3.44348 0.451823 0
M  V30 6252 C 594.854 4.26435 -0.365641 0
M  V30 6253 C 594.18 5.31785 0.557562 0
M  V30 6254 C 595.48 4.97159 -1.60095 0
M  V30 6255 H 597.174 2.75234 -1.17841 0
M  V30 6256 H 594.72 1.3232 -0.568094 0
M  V30 6257 H 596.673 4.13128 0.830854 0
M  V30 6258 H 595.397 2.98816 1.31821 0
M  V30 6259 H 594.056 3.59326 -0.726649 0
M  V30 6260 H 593.704 4.82502 1.4213 0
M  V30 6261 H 593.404 5.87598 0.0144878 0
M  V30 6262 H 594.928 6.03424 0.933387 0
M  V30 6263 H 596.342 5.58523 -1.29323 0
M  V30 6264 H 594.739 5.62779 -2.08327 0
M  V30 6265 H 595.809 4.24012 -2.35249 0
M  V30 6266 N 597.152 0.631951 1.44375 0
M  V30 6267 C 598.4 0.136497 2.01639 0
M  V30 6268 C 598.721 -1.24637 1.49969 0
M  V30 6269 O 597.991 -1.82827 0.70363 0
M  V30 6270 H 596.571 0.0474703 0.74549 0
M  V30 6271 H 599.233 0.818837 1.76865 0
M  V30 6272 H 598.329 0.104817 3.11924 0
M  V30 6273 N 598.631 -1.53133 0.372548 0
M  V30 6274 C 599.879 -2.00958 -0.214534 0
M  V30 6275 C 600.2 -1.26135 -1.48711 0
M  V30 6276 O 599.47 -0.376597 -1.92246 0
M  V30 6277 H 598.05 -0.742456 -0.0822664 0
M  V30 6278 H 600.712 -1.88367 0.500385 0
M  V30 6279 H 599.808 -3.09031 -0.436605 0
M  V30 6280 N 600.109 -0.101901 -1.5727 0
M  V30 6281 C 601.337 0.568392 -1.98939 0
M  V30 6282 C 601.752 1.61301 -0.981194 0
M  V30 6283 O 601.109 1.82478 0.0282869 0
M  V30 6284 C 601.16 1.20997 -3.40649 0
M  V30 6285 O 600.881 0.207129 -4.3761 0
M  V30 6286 C 602.382 1.96523 -3.97358 0
M  V30 6287 H 599.602 0.15186 -0.65359 0
M  V30 6288 H 602.146 -0.183198 -2.03678 0
M  V30 6289 H 600.301 1.91245 -3.36904 0
M  V30 6290 H 600.715 0.671071 -5.20189 0
M  V30 6291 H 602.189 2.36764 -4.98645 0
M  V30 6292 H 602.666 2.83376 -3.35552 0
M  V30 6293 H 603.272 1.31076 -4.04598 0
M  V30 6294 N 601.587 1.56661 0.17182 0
M  V30 6295 C 602.864 1.72838 0.915778 0
M  V30 6296 C 603.244 0.66316 2.00413 0
M  V30 6297 O 602.592 -0.322123 2.26218 0
M  V30 6298 C 602.802 3.16019 1.48097 0
M  V30 6299 C 604.15 3.76962 1.95408 0
M  V30 6300 O 605.174 3.19294 1.57892 0
M  V30 6301 O 604.033 4.78219 2.64516 0
M  V30 6302 H 601.127 0.705797 0.431021 0
M  V30 6303 H 603.673 1.68947 0.159689 0
M  V30 6304 H 602.445 3.85031 0.697618 0
M  V30 6305 H 602.068 3.24234 2.30126 0
M  V30 6306 N 603.065 -0.440357 1.51323 0
M  V30 6307 C 604.342 -1.20109 1.5438 0
M  V30 6308 C 604.722 -2.08866 0.306303 0
M  V30 6309 O 604.07 -2.1723 -0.708773 0
M  V30 6310 C 604.28 -2.00555 2.8562 0
M  V30 6311 C 605.628 -2.577 3.37455 0
M  V30 6312 O 606.652 -2.10769 2.8715 0
M  V30 6313 O 605.511 -3.43289 4.25224 0
M  V30 6314 H 602.605 -0.546668 0.620551 0
M  V30 6315 H 605.151 -0.449672 1.63634 0
M  V30 6316 H 603.923 -1.35346 3.67147 0
M  V30 6317 H 603.546 -2.82768 2.79514 0
M  V30 6318 N 604.543 -1.41418 -0.695603 0
M  V30 6319 C 605.771 -1.4413 -1.48439 0
M  V30 6320 C 606.186 -0.0465698 -1.88743 0
M  V30 6321 O 605.543 0.934117 -1.56782 0
M  V30 6322 C 605.594 -2.34998 -2.74696 0
M  V30 6323 O 605.315 -3.69043 -2.36091 0
M  V30 6324 C 606.816 -2.46513 -3.68438 0
M  V30 6325 H 604.036 -0.490905 -0.457442 0
M  V30 6326 H 606.58 -1.85702 -0.856454 0
M  V30 6327 H 604.735 -1.96735 -3.33728 0
M  V30 6328 H 605.149 -4.17505 -3.17474 0
M  V30 6329 H 606.623 -3.1426 -4.53811 0
M  V30 6330 H 607.1 -1.49638 -4.12922 0
M  V30 6331 H 607.706 -2.85412 -3.1531 0
M  V30 6332 N 606.021 0.929856 -1.27246 0
M  V30 6333 C 607.267 1.6798 -1.13625 0
M  V30 6334 C 607.6 1.91586 0.317589 0
M  V30 6335 O 606.875 1.50467 1.23247 0
M  V30 6336 C 607.158 3.04766 -1.91806 0
M  V30 6337 C 607.011 2.88415 -3.45162 0
M  V30 6338 C 608.33 4.05063 -1.72082 0
M  V30 6339 H 605.449 0.609632 -0.414147 0
M  V30 6340 H 608.091 1.0792 -1.56376 0
M  V30 6341 H 606.241 3.56034 -1.55474 0
M  V30 6342 H 607.913 2.44282 -3.91311 0
M  V30 6343 H 606.156 2.23802 -3.71611 0
M  V30 6344 H 606.827 3.85482 -3.95105 0
M  V30 6345 H 609.303 3.62798 -2.03757 0
M  V30 6346 H 608.179 4.98765 -2.29182 0
M  V30 6347 H 608.44 4.37021 -0.668206 0
M  V30 6348 N 607.499 1.09233 1.13605 0
M  V30 6349 C 608.446 0.729921 2.18954 0
M  V30 6350 C 609.416 -0.287916 1.63586 0
M  V30 6351 O 610.601 -0.170003 1.90041 0
M  V30 6352 C 607.741 0.154489 3.44754 0
M  V30 6353 C 606.854 1.22613 4.14234 0
M  V30 6354 C 605.989 0.613657 5.27644 0
M  V30 6355 C 605.028 1.66674 5.8897 0
M  V30 6356 N 604.165 1.07545 6.93814 0
M  V30 6357 H 609.005 1.63257 2.49302 0
M  V30 6358 H 606.542 0.815693 1.22413 0
M  V30 6359 H 608.5 -0.196923 4.16735 0
M  V30 6360 H 607.13 -0.711433 3.14863 0
M  V30 6361 H 606.182 1.69485 3.40557 0
M  V30 6362 H 607.494 2.0238 4.55899 0
M  V30 6363 H 606.648 0.210976 6.06333 0
M  V30 6364 H 605.387 -0.215584 4.87223 0
M  V30 6365 H 604.392 2.07899 5.08978 0
M  V30 6366 H 605.617 2.49861 6.31464 0
M  V30 6367 H 603.563 0.267451 6.55455 0
M  V30 6368 H 603.48 1.81011 7.3401 0
M  V30 6369 H 604.748 0.698906 7.7636 0
M  V30 6370 N 608.977 -1.30795 0.87923 0
M  V30 6371 C 609.924 -2.28282 0.339968 0
M  V30 6372 C 610.894 -1.56134 -0.566685 0
M  V30 6373 O 612.079 -1.84231 -0.496338 0
M  V30 6374 C 609.219 -3.42225 -0.444501 0
M  V30 6375 C 608.332 -4.29204 0.490717 0
M  V30 6376 C 607.467 -5.30302 -0.308784 0
M  V30 6377 C 606.506 -6.08929 0.622272 0
M  V30 6378 N 605.643 -7.01957 -0.14155 0
M  V30 6379 H 610.483 -2.73794 1.17647 0
M  V30 6380 H 608.02 -1.34682 0.591527 0
M  V30 6381 H 609.978 -4.07038 -0.915186 0
M  V30 6382 H 608.608 -2.97799 -1.24562 0
M  V30 6383 H 607.66 -3.6475 1.07988 0
M  V30 6384 H 608.972 -4.84045 1.20425 0
M  V30 6385 H 608.126 -6.00835 -0.841575 0
M  V30 6386 H 606.865 -4.7614 -1.05556 0
M  V30 6387 H 605.87 -5.37278 1.16674 0
M  V30 6388 H 607.095 -6.65178 1.36804 0
M  V30 6389 H 605.041 -6.50192 -0.870966 0
M  V30 6390 H 604.958 -7.54261 0.51246 0
M  V30 6391 H 606.226 -7.76741 -0.655271 0
M  V30 6392 N 610.455 -0.639598 -1.44038 0
M  V30 6393 C 611.402 0.0602458 -2.30721 0
M  V30 6394 C 612.372 0.828352 -1.43971 0
M  V30 6395 O 613.557 0.807693 -1.72861 0
M  V30 6396 C 610.697 1.03008 -3.29368 0
M  V30 6397 C 609.81 0.259502 -4.3122 0
M  V30 6398 C 608.945 1.22191 -5.16955 0
M  V30 6399 C 607.984 0.440978 -6.10509 0
M  V30 6400 N 607.121 1.35428 -6.88915 0
M  V30 6401 H 611.961 -0.684867 -2.90023 0
M  V30 6402 H 609.498 -0.349509 -1.42888 0
M  V30 6403 H 611.456 1.60583 -3.85057 0
M  V30 6404 H 610.086 1.74222 -2.71747 0
M  V30 6405 H 609.138 -0.432317 -3.77935 0
M  V30 6406 H 610.45 -0.348347 -4.97582 0
M  V30 6407 H 609.604 1.86873 -5.77203 0
M  V30 6408 H 608.343 1.86367 -4.50687 0
M  V30 6409 H 607.348 -0.219279 -5.49363 0
M  V30 6410 H 608.573 -0.196192 -6.78817 0
M  V30 6411 H 606.519 1.9831 -6.25307 0
M  V30 6412 H 606.436 0.800657 -7.51748 0
M  V30 6413 H 607.704 1.98967 -7.53679 0
M  V30 6414 N 611.933 1.52934 -0.380664 0
M  V30 6415 C 613.21 1.93845 0.261417 0
M  V30 6416 C 613.59 1.31544 1.65104 0
M  V30 6417 O 612.938 0.480234 2.23397 0
M  V30 6418 C 613.148 3.47739 0.296466 0
M  V30 6419 C 614.496 4.21284 0.529578 0
M  V30 6420 O 615.52 3.54199 0.377041 0
M  V30 6421 O 614.379 5.40195 0.827753 0
M  V30 6422 H 611.473 0.811318 0.160285 0
M  V30 6423 H 614.019 1.64042 -0.434544 0
M  V30 6424 H 612.791 3.85395 -0.67724 0
M  V30 6425 H 612.414 3.8382 1.0377 0
M  V30 6426 N 613.412 0.11024 1.57214 0
M  V30 6427 C 614.342 -0.840002 2.17867 0
M  V30 6428 C 615.323 -1.28352 1.11624 0
M  V30 6429 O 616.508 -1.3477 1.39824 0
M  V30 6430 C 613.638 -2.09349 2.77111 0
M  V30 6431 C 612.592 -1.78807 3.8886 0
M  V30 6432 C 611.918 -3.11112 4.34872 0
M  V30 6433 C 613.218 -1.0632 5.11364 0
M  V30 6434 H 614.912 -0.334608 2.97524 0
M  V30 6435 H 612.458 -0.159502 1.43114 0
M  V30 6436 H 614.411 -2.76275 3.18198 0
M  V30 6437 H 613.135 -2.62198 1.9473 0
M  V30 6438 H 611.794 -1.14273 3.48335 0
M  V30 6439 H 611.442 -3.61877 3.49362 0
M  V30 6440 H 611.142 -2.91453 5.10224 0
M  V30 6441 H 612.666 -3.79171 4.78604 0
M  V30 6442 H 614.08 -1.63383 5.49526 0
M  V30 6443 H 612.477 -0.967876 5.92243 0
M  V30 6444 H 613.547 -0.0484569 4.84876 0
M  V30 6445 N 614.89 -1.56749 -0.16351 0
M  V30 6446 C 616.137 -1.82434 -0.878866 0
M  V30 6447 C 616.465 -0.688557 -1.81904 0
M  V30 6448 O 615.72 0.323644 -1.93005 0
M  V30 6449 C 616.019 -3.14342 -1.70071 0
M  V30 6450 C 615.685 -4.41647 -0.908775 0
M  V30 6451 C 614.347 -4.76224 -0.690236 0
M  V30 6452 C 616.699 -5.19998 -0.353815 0
M  V30 6453 C 614.027 -5.86624 0.0942374 0
M  V30 6454 C 616.379 -6.3122 0.41761 0
M  V30 6455 C 615.043 -6.64358 0.646879 0
M  V30 6456 H 614.313 -0.667574 -0.3216 0
M  V30 6457 H 616.96 -1.90963 -0.14337 0
M  V30 6458 H 615.265 -3.0119 -2.50583 0
M  V30 6459 H 616.962 -3.31426 -2.25738 0
M  V30 6460 H 613.552 -4.1453 -1.08916 0
M  V30 6461 H 617.736 -4.93673 -0.509975 0
M  V30 6462 H 612.992 -6.10751 0.281529 0
M  V30 6463 H 617.166 -6.91133 0.854849 0
M  V30 6464 H 614.793 -7.49742 1.25662 0
M  V30 6465 N 616.368 0.432326 -1.51554 0
M  V30 6466 C 617.298 1.53242 -1.76179 0
M  V30 6467 C 618.279 1.58717 -0.611801 0
M  V30 6468 O 619.464 1.74364 -0.855033 0
M  V30 6469 C 616.594 2.91278 -1.89141 0
M  V30 6470 C 615.548 3.00663 -3.04608 0
M  V30 6471 C 614.874 4.40728 -3.02759 0
M  V30 6472 C 616.174 2.74281 -4.44485 0
M  V30 6473 H 617.868 1.32886 -2.68294 0
M  V30 6474 H 615.414 0.637841 -1.29103 0
M  V30 6475 H 617.367 3.68203 -2.04951 0
M  V30 6476 H 616.091 3.12877 -0.936785 0
M  V30 6477 H 614.75 2.26179 -2.88511 0
M  V30 6478 H 614.398 4.59301 -2.05065 0
M  V30 6479 H 614.098 4.47936 -3.80299 0
M  V30 6480 H 615.622 5.19619 -3.20669 0
M  V30 6481 H 617.036 3.40936 -4.60907 0
M  V30 6482 H 615.433 2.92893 -5.23769 0
M  V30 6483 H 616.503 1.69856 -4.54177 0
M  V30 6484 N 617.846 1.41785 0.688094 0
M  V30 6485 C 619.123 1.32031 1.44316 0
M  V30 6486 C 619.503 -0.0486079 2.11044 0
M  V30 6487 O 618.851 -1.06332 2.02252 0
M  V30 6488 C 619.061 2.47906 2.45649 0
M  V30 6489 C 620.409 2.89415 3.10683 0
M  V30 6490 O 621.433 2.477 2.55975 0
M  V30 6491 O 620.292 3.61573 4.09789 0
M  V30 6492 H 617.386 0.519994 0.643067 0
M  V30 6493 H 619.932 1.53765 0.71794 0
M  V30 6494 H 618.704 3.39222 1.95048 0
M  V30 6495 H 618.327 2.28089 3.25671 0
M  V30 6496 N 619.324 -0.923095 1.27737 0
M  V30 6497 C 620.254 -2.04124 1.13383 0
M  V30 6498 C 621.235 -1.70066 0.0340658 0
M  V30 6499 O 622.42 -1.93068 0.209383 0
M  V30 6500 C 619.55 -3.3831 0.785097 0
M  V30 6501 C 618.504 -3.86496 1.8386 0
M  V30 6502 C 617.83 -5.1754 1.34373 0
M  V30 6503 C 619.13 -4.09381 3.24353 0
M  V30 6504 H 620.824 -2.1639 2.06919 0
M  V30 6505 H 618.37 -1.03976 0.996243 0
M  V30 6506 H 620.323 -4.16016 0.671485 0
M  V30 6507 H 619.047 -3.2607 -0.185969 0
M  V30 6508 H 617.706 -3.10987 1.9412 0
M  V30 6509 H 617.354 -5.01696 0.361989 0
M  V30 6510 H 617.054 -5.50751 2.04811 0
M  V30 6511 H 618.578 -5.97811 1.24315 0
M  V30 6512 H 619.992 -4.77641 3.17067 0
M  V30 6513 H 618.389 -4.53906 3.92542 0
M  V30 6514 H 619.459 -3.14515 3.69064 0
M  V30 6515 N 620.802 -1.09834 -1.13024 0
M  V30 6516 C 622.051 -0.831806 -1.83749 0
M  V30 6517 C 622.364 0.644763 -1.84668 0
M  V30 6518 O 623.57 1.02697 -2.51327 0
M  V30 6519 C 622.026 -1.43817 -3.29916 0
M  V30 6520 C 621.634 -2.94759 -3.37374 0
M  V30 6521 C 623.378 -1.25077 -4.05655 0
M  V30 6522 C 621.285 -3.48461 -4.77838 0
M  V30 6523 H 620.215 -0.30751 -0.688443 0
M  V30 6524 H 622.866 -1.32156 -1.27307 0
M  V30 6525 H 621.248 -0.876106 -3.86187 0
M  V30 6526 H 622.422 -3.57228 -2.91076 0
M  V30 6527 H 620.737 -3.12581 -2.75103 0
M  V30 6528 H 623.334 -1.62649 -5.09362 0
M  V30 6529 H 623.677 -0.191782 -4.15858 0
M  V30 6530 H 624.21 -1.78057 -3.55725 0
M  V30 6531 H 620.949 -4.53998 -4.72828 0
M  V30 6532 H 620.469 -2.90757 -5.24615 0
M  V30 6533 H 622.148 -3.45914 -5.46766 0
M  V30 6534 N 622.28 1.30327 -0.886154 0
M  V30 6535 C 623.243 2.26376 -0.358687 0
M  V30 6536 C 624.243 1.52845 0.499498 0
M  V30 6537 O 625.433 1.71483 0.306485 0
M  V30 6538 C 622.565 3.37379 0.488726 0
M  V30 6539 H 623.758 2.74547 -1.20681 0
M  V30 6540 H 621.311 1.41536 -0.663113 0
M  V30 6541 H 622.046 2.94526 1.35739 0
M  V30 6542 H 621.831 3.91897 -0.126003 0
M  V30 6543 H 623.321 4.08868 0.84952 0
M  V30 6544 N 623.758 0.647228 1.43697 0
M  V30 6545 C 625.035 0.0883758 1.954 0
M  V30 6546 C 625.415 -1.39006 1.58873 0
M  V30 6547 O 624.763 -2.11255 0.87083 0
M  V30 6548 C 624.973 0.328263 3.47453 0
M  V30 6549 C 626.321 0.230009 4.23977 0
M  V30 6550 O 627.345 0.260496 3.55246 0
M  V30 6551 O 626.204 0.148615 5.46298 0
M  V30 6552 H 623.298 -0.0130683 0.826897 0
M  V30 6553 H 625.844 0.72005 1.53666 0
M  V30 6554 H 624.616 1.3535 3.67146 0
M  V30 6555 H 624.239 -0.336772 3.96171 0
M  V30 6556 N 625.236 -1.5273 0.388769 0
M  V30 6557 C 626.482 -2.01871 -0.193877 0
M  V30 6558 C 626.815 -1.27475 -1.46505 0
M  V30 6559 O 626.09 -0.375063 -1.90849 0
M  V30 6560 C 626.373 -3.5712 -0.462336 0
M  V30 6561 C 626.226 -4.42186 0.824091 0
M  V30 6562 C 627.545 -4.21881 -1.25319 0
M  V30 6563 H 624.664 -0.733764 -0.0689899 0
M  V30 6564 H 627.306 -1.82796 0.518231 0
M  V30 6565 H 625.456 -3.73504 -1.06896 0
M  V30 6566 H 627.128 -4.37554 1.46096 0
M  V30 6567 H 625.371 -4.09219 1.43952 0
M  V30 6568 H 626.042 -5.48828 0.590905 0
M  V30 6569 H 628.518 -4.0947 -0.73981 0
M  V30 6570 H 627.394 -5.30487 -1.40977 0
M  V30 6571 H 627.655 -3.79478 -2.26824 0
M  V30 6572 N 626.714 -0.118576 -1.57153 0
M  V30 6573 C 627.647 0.869046 -2.11004 0
M  V30 6574 C 628.625 1.26115 -1.02634 0
M  V30 6575 O 629.809 1.36228 -1.30285 0
M  V30 6576 C 626.936 2.16297 -2.6064 0
M  V30 6577 C 625.982 1.91896 -3.80891 0
M  V30 6578 S 626.815 1.13562 -5.2332 0
M  V30 6579 C 627.971 2.44135 -5.76324 0
M  V30 6580 H 628.204 0.411005 -2.94445 0
M  V30 6581 H 625.737 0.0951891 -1.54106 0
M  V30 6582 H 627.695 2.90642 -2.89892 0
M  V30 6583 H 626.356 2.59219 -1.77382 0
M  V30 6584 H 625.549 2.8777 -4.13768 0
M  V30 6585 H 625.151 1.25672 -3.52253 0
M  V30 6586 H 627.443 3.39976 -5.86022 0
M  V30 6587 H 628.386 2.15803 -6.74414 0
M  V30 6588 H 628.794 2.53483 -5.04387 0
M  V30 6589 N 628.193 1.56834 0.155195 0
M  V30 6590 C 629.44 1.82898 0.869179 0
M  V30 6591 C 629.768 0.698194 1.81537 0
M  V30 6592 O 629.023 -0.313404 1.93174 0
M  V30 6593 C 629.322 3.15239 1.68402 0
M  V30 6594 C 628.988 4.42123 0.885341 0
M  V30 6595 C 627.65 4.76583 0.664971 0
M  V30 6596 C 630.002 5.20178 0.326234 0
M  V30 6597 C 627.33 5.86566 -0.125346 0
M  V30 6598 C 629.682 6.3099 -0.45108 0
M  V30 6599 C 628.346 6.64006 -0.682102 0
M  V30 6600 H 627.616 0.66927 0.318055 0
M  V30 6601 H 630.263 1.91036 0.133241 0
M  V30 6602 H 628.568 3.02515 2.48982 0
M  V30 6603 H 630.265 3.32618 2.23978 0
M  V30 6604 H 626.855 4.15102 1.06716 0
M  V30 6605 H 631.039 4.93936 0.483787 0
M  V30 6606 H 626.295 6.10594 -0.313915 0
M  V30 6607 H 630.469 6.9067 -0.89149 0
M  V30 6608 H 628.096 7.49065 -1.29636 0
M  V30 6609 N 629.671 -0.424282 1.51781 0
M  V30 6610 C 630.919 -1.17028 1.64769 0
M  V30 6611 C 631.24 -1.91409 0.372523 0
M  V30 6612 O 630.51 -1.86091 -0.612108 0
M  V30 6613 H 629.09 -0.434992 0.607282 0
M  V30 6614 H 631.752 -0.485169 1.88765 0
M  V30 6615 H 630.848 -1.8927 2.4816 0
M  V30 6616 N 631.149 -1.42148 -0.680565 0
M  V30 6617 C 632.395 -1.42521 -1.44277 0
M  V30 6618 C 632.728 -0.0393718 -1.9416 0
M  V30 6619 O 632.003 0.935425 -1.70529 0
M  V30 6620 C 632.286 -2.44475 -2.64394 0
M  V30 6621 C 632.139 -3.92226 -2.20179 0
M  V30 6622 C 633.458 -2.43491 -3.66606 0
M  V30 6623 H 630.577 -0.518985 -0.523282 0
M  V30 6624 H 633.219 -1.73524 -0.773914 0
M  V30 6625 H 631.369 -2.18168 -3.21458 0
M  V30 6626 H 633.041 -4.29493 -1.68327 0
M  V30 6627 H 631.284 -4.0637 -1.5181 0
M  V30 6628 H 631.955 -4.59133 -3.06433 0
M  V30 6629 H 634.431 -2.66872 -3.19247 0
M  V30 6630 H 633.307 -3.16816 -4.4824 0
M  V30 6631 H 633.568 -1.45881 -4.17338 0
M  V30 6632 N 632.627 0.916307 -1.28225 0
M  V30 6633 C 634.038 1.48024 -1.13779 0
M  V30 6634 C 634.389 1.94289 0.273139 0
M  V30 6635 O 633.514 1.82226 1.16716 0
M  V30 6636 C 634.109 2.69029 -2.05935 0
M  V30 6637 C 632.668 3.2161 -1.95561 0
M  V30 6638 C 631.815 1.94321 -1.97825 0
M  V30 6639 H 634.766 0.729272 -1.40951 0
M  V30 6640 H 634.787 3.44204 -1.62184 0
M  V30 6641 H 634.299 2.35325 -3.08616 0
M  V30 6642 H 632.4 3.60045 -0.959076 0
M  V30 6643 H 632.513 3.87032 -2.82388 0
M  V30 6644 H 630.877 2.1131 -1.42198 0
M  V30 6645 H 631.66 1.62917 -3.0218 0
M  V30 6646 N 634.105 1.10431 1.1244 0
M  V30 6647 C 635.33 0.869089 1.88313 0
M  V30 6648 C 635.755 -0.574912 1.79099 0
M  V30 6649 O 635.113 -1.40496 1.14589 0
M  V30 6650 C 635.161 1.32208 3.3549 0
M  V30 6651 O 634.265 0.487092 4.09513 0
M  V30 6652 H 633.606 0.313894 0.585121 0
M  V30 6653 H 636.136 1.47111 1.42195 0
M  V30 6654 H 636.146 1.31201 3.86329 0
M  V30 6655 H 634.821 2.37364 3.41513 0
M  V30 6656 H 633.398 0.562372 3.68635 0
M  V30 6657 N 635.583 -1.29855 0.893053 0
M  V30 6658 C 636.829 -1.96116 0.516349 0
M  V30 6659 C 637.162 -1.70281 -0.933695 0
M  V30 6660 O 636.437 -1.01205 -1.66096 0
M  V30 6661 C 636.72 -3.51068 0.801455 0
M  V30 6662 C 636.573 -3.86387 2.30272 0
M  V30 6663 C 637.892 -4.39186 0.283423 0
M  V30 6664 H 635.011 -0.712335 0.189072 0
M  V30 6665 H 637.653 -1.53587 1.11852 0
M  V30 6666 H 635.803 -3.87424 0.288949 0
M  V30 6667 H 637.475 -3.60012 2.88425 0
M  V30 6668 H 635.718 -3.34167 2.76613 0
M  V30 6669 H 636.389 -4.94512 2.45279 0
M  V30 6670 H 638.865 -4.09785 0.722187 0
M  V30 6671 H 637.741 -5.46505 0.512169 0
M  V30 6672 H 638.002 -4.34511 -0.815643 0
M  V30 6673 N 637.061 -0.65484 -1.43351 0
M  V30 6674 C 638.31 -0.166215 -2.01014 0
M  V30 6675 C 638.623 1.22764 -1.52278 0
M  V30 6676 O 639.829 1.81156 -2.02224 0
M  V30 6677 C 638.285 -0.246341 -3.59056 0
M  V30 6678 C 637.893 -1.64299 -4.16785 0
M  V30 6679 C 639.637 0.184597 -4.24098 0
M  V30 6680 C 637.544 -1.67695 -5.67126 0
M  V30 6681 H 636.474 -0.0583769 -0.751737 0
M  V30 6682 H 639.125 -0.817111 -1.64303 0
M  V30 6683 H 637.507 0.472092 -3.93176 0
M  V30 6684 H 638.681 -2.3869 -3.94162 0
M  V30 6685 H 636.996 -2.02004 -3.6412 0
M  V30 6686 H 639.593 0.179088 -5.344 0
M  V30 6687 H 639.936 1.21632 -3.98135 0
M  V30 6688 H 640.469 -0.482141 -3.94867 0
M  V30 6689 H 637.208 -2.68783 -5.9786 0
M  V30 6690 H 636.728 -0.976313 -5.91801 0
M  V30 6691 H 638.407 -1.42142 -6.31193 0
M  V30 6692 N 638.539 1.52521 -0.396863 0
M  V30 6693 C 639.785 2.01971 0.183169 0
M  V30 6694 C 640.118 1.2825 1.45827 0
M  V30 6695 O 639.393 0.385179 1.90648 0
M  V30 6696 C 639.676 3.5736 0.443391 0
M  V30 6697 C 639.529 4.41743 -0.84753 0
M  V30 6698 C 640.848 4.22539 1.2308 0
M  V30 6699 H 637.967 0.734119 0.0650976 0
M  V30 6700 H 640.609 1.82519 -0.527918 0
M  V30 6701 H 638.759 3.74066 1.04914 0
M  V30 6702 H 640.431 4.36773 -1.48414 0
M  V30 6703 H 638.674 4.0845 -1.4612 0
M  V30 6704 H 639.345 5.48507 -0.620003 0
M  V30 6705 H 641.821 4.09857 0.718084 0
M  V30 6706 H 640.697 5.31227 1.38162 0
M  V30 6707 H 640.958 3.80675 2.24808 0
M  V30 6708 N 640.017 0.126909 1.57088 0
M  V30 6709 C 640.98 -0.806097 2.14557 0
M  V30 6710 C 641.98 -1.18918 1.08236 0
M  V30 6711 O 643.17 -1.11339 1.33975 0
M  V30 6712 C 640.302 -2.09116 2.69227 0
M  V30 6713 H 641.495 -0.306522 2.98329 0
M  V30 6714 H 639.048 -0.122393 1.5582 0
M  V30 6715 H 639.783 -2.63486 1.89065 0
M  V30 6716 H 639.568 -1.82588 3.46993 0
M  V30 6717 H 641.058 -2.75794 3.13572 0
M  V30 6718 N 641.495 -1.56914 -0.146875 0
M  V30 6719 C 642.911 -1.51582 -0.499518 0
M  V30 6720 C 643.111 -0.83535 -1.83369 0
M  V30 6721 O 642.167 -0.405932 -2.49216 0
M  V30 6722 C 643.48 -2.96349 -0.509711 0
M  V30 6723 C 645.028 -3.07288 -0.595217 0
M  V30 6724 C 645.503 -4.53562 -0.636071 0
M  V30 6725 N 646.994 -4.57906 -0.69829 0
M  V30 6726 C 647.729 -5.68462 -0.750886 0
M  V30 6727 N 647.225 -6.88588 -0.76282 0
M  V30 6728 N 649.018 -5.56496 -0.791777 0
M  V30 6729 H 641.169 -1.99547 0.727656 0
M  V30 6730 H 643.432 -0.910113 0.265327 0
M  V30 6731 H 643.138 -3.4939 0.402409 0
M  V30 6732 H 643.012 -3.52307 -1.34758 0
M  V30 6733 H 645.399 -2.54266 -1.49776 0
M  V30 6734 H 645.48 -2.54373 0.2698 0
M  V30 6735 H 645.124 -5.07222 0.262313 0
M  V30 6736 H 645.054 -5.04259 -1.51758 0
M  V30 6737 H 647.545 -3.71429 -0.696362 0
M  V30 6738 H 647.858 -7.68598 -0.804804 0
M  V30 6739 H 646.203 -6.91148 -0.730694 0
M  V30 6740 H 649.394 -4.61562 -0.779624 0
M  V30 6741 H 649.567 -6.42671 -0.829301 0
M  V30 6742 N 642.974 0.416227 -1.52004 0
M  V30 6743 C 643.922 1.5272 -1.7544 0
M  V30 6744 C 644.916 1.57596 -0.621289 0
M  V30 6745 O 646.122 1.61087 -0.803172 0
M  V30 6746 H 642.497 0.507772 -0.554682 0
M  V30 6747 H 644.468 1.30136 -2.68528 0
M  V30 6748 C 643.217 2.90165 -1.91571 0
M  V30 6749 H 642.54 2.87154 -2.78178 0
M  V30 6750 H 643.98 3.67211 -2.11972 0
M  V30 6751 C 642.439 3.29947 -0.680942 0
M  V30 6752 O 642.969 4.01403 0.154527 0
M  V30 6753 N 641.175 2.8593 -0.518894 0
M  V30 6754 H 640.722 2.2795 -1.19986 0
M  V30 6755 H 640.68 3.12907 0.305985 0
M  V30 6756 N 644.452 1.42507 0.673017 0
M  V30 6757 C 645.402 1.4258 1.77919 0
M  V30 6758 C 646.386 0.296885 1.58137 0
M  V30 6759 O 647.578 0.539243 1.68586 0
M  V30 6760 C 644.707 1.33238 3.1639 0
M  V30 6761 C 643.793 2.51081 3.41788 0
M  V30 6762 N 644.184 3.76498 3.37761 0
M  V30 6763 C 642.482 2.4538 3.72431 0
M  V30 6764 C 643.183 4.54784 3.62693 0
M  V30 6765 N 642.159 3.8522 3.83544 0
M  V30 6766 H 645.961 2.37442 1.73201 0
M  V30 6767 H 643.475 1.36881 0.873924 0
M  V30 6768 H 645.472 1.31372 3.9566 0
M  V30 6769 H 644.132 0.393794 3.22303 0
M  V30 6770 H 645.143 4.09068 3.17622 0
M  V30 6771 H 641.82 1.60109 3.85579 0
M  V30 6772 H 643.21 5.63774 3.65525 0
M  V30 6773 N 645.93 -0.909495 1.28709 0
M  V30 6774 C 647.346 -1.18862 1.06508 0
M  V30 6775 C 647.546 -2.00604 -0.189864 0
M  V30 6776 O 646.602 -2.36281 -0.890355 0
M  V30 6777 C 647.915 -1.91908 2.31499 0
M  V30 6778 C 649.463 -2.04773 2.36721 0
M  V30 6779 C 649.938 -2.81228 3.6149 0
M  V30 6780 N 651.429 -2.88787 3.62155 0
M  V30 6781 C 652.164 -3.48455 4.55375 0
M  V30 6782 N 651.66 -4.09369 5.58918 0
M  V30 6783 N 653.453 -3.46035 4.42963 0
M  V30 6784 H 645.604 -0.363867 2.0926 0
M  V30 6785 H 647.867 -0.223649 0.921241 0
M  V30 6786 H 647.573 -1.39275 3.22948 0
M  V30 6787 H 647.447 -2.92436 2.38245 0
M  V30 6788 H 649.834 -2.56585 1.45767 0
M  V30 6789 H 649.915 -1.03408 2.33967 0
M  V30 6790 H 649.559 -2.30094 4.5279 0
M  V30 6791 H 649.489 -3.82917 3.61499 0
M  V30 6792 H 651.98 -2.45514 2.87283 0
M  V30 6793 H 652.293 -4.52891 6.26187 0
M  V30 6794 H 650.638 -4.0786 5.62739 0
M  V30 6795 H 653.829 -2.9766 3.6127 0
M  V30 6796 H 654.002 -3.92244 5.15799 0
M  V30 6797 N 647.408 -1.11026 -1.11852 0
M  V30 6798 C 648.685 -0.768347 -1.79877 0
M  V30 6799 C 649.065 0.744261 -1.97545 0
M  V30 6800 O 648.413 1.67271 -1.55669 0
M  V30 6801 C 648.623 -1.52648 -3.13846 0
M  V30 6802 C 649.971 -1.70297 -3.88953 0
M  V30 6803 O 650.995 -1.49037 -3.23522 0
M  V30 6804 O 649.854 -2.05593 -5.06353 0
M  V30 6805 H 646.948 -0.277891 -0.778913 0
M  V30 6806 H 649.494 -1.21343 -1.18633 0
M  V30 6807 H 648.266 -2.55564 -2.96315 0
M  V30 6808 H 647.889 -1.07466 -3.82801 0
M  V30 6809 N 648.886 1.2938 -0.899927 0
M  V30 6810 C 649.849 2.25983 -0.382677 0
M  V30 6811 C 650.849 1.53366 0.483259 0
M  V30 6812 O 652.039 1.71798 0.28828 0
M  V30 6813 C 649.171 3.37878 0.452915 0
M  V30 6814 H 650.364 2.73252 -1.23586 0
M  V30 6815 H 647.917 1.40825 -0.678088 0
M  V30 6816 H 648.652 2.95949 1.32608 0
M  V30 6817 H 648.437 3.91742 -0.167562 0
M  V30 6818 H 649.927 4.09746 0.806107 0
M  V30 6819 N 650.364 0.662433 1.43002 0
M  V30 6820 C 651.612 0.179237 2.01304 0
M  V30 6821 C 651.933 -1.21428 1.52579 0
M  V30 6822 O 651.203 -1.81294 0.742252 0
M  V30 6823 H 649.783 0.0632725 0.744316 0
M  V30 6824 H 652.445 0.856169 1.75088 0
M  V30 6825 H 651.541 0.170957 3.11631 0
M  V30 6826 N 651.842 -1.52309 0.404946 0
M  V30 6827 C 652.805 -2.25491 -0.410651 0
M  V30 6828 C 653.805 -1.27704 -0.977154 0
M  V30 6829 O 654.995 -1.51679 -0.856691 0
M  V30 6830 C 652.127 -3.02197 -1.57765 0
M  V30 6831 H 653.32 -2.99015 0.230277 0
M  V30 6832 H 650.873 -1.55506 0.157377 0
M  V30 6833 H 651.608 -2.33013 -2.25556 0
M  V30 6834 H 651.393 -3.73987 -1.17797 0
M  V30 6835 H 652.883 -3.57719 -2.15469 0
M  V30 6836 N 653.32 -0.135238 -1.57019 0
M  V30 6837 C 654.731 0.387521 -1.82634 0
M  V30 6838 C 655.082 1.65528 -1.05332 0
M  V30 6839 O 654.207 2.14381 -0.294926 0
M  V30 6840 C 654.802 0.709852 -3.3128 0
M  V30 6841 C 653.361 1.17718 -3.57518 0
M  V30 6842 C 652.508 0.194183 -2.76619 0
M  V30 6843 H 655.459 -0.360126 -1.5456 0
M  V30 6844 H 655.48 1.5657 -3.46794 0
M  V30 6845 H 654.992 -0.213024 -3.87515 0
M  V30 6846 H 653.093 2.1164 -3.06658 0
M  V30 6847 H 653.206 1.11128 -4.66034 0
M  V30 6848 H 651.57 0.684478 -2.4533 0
M  V30 6849 H 652.353 -0.722076 -3.3562 0
M  V30 6850 N 654.798 1.5699 0.138552 0
M  V30 6851 C 656.026 1.87976 0.864437 0
M  V30 6852 C 656.441 0.724372 1.74351 0
M  V30 6853 O 655.798 -0.305575 1.79924 0
M  V30 6854 C 655.849 3.18276 1.71414 0
M  V30 6855 O 655.57 4.29365 0.870487 0
M  V30 6856 C 657.071 3.62834 2.54688 0
M  V30 6857 H 654.291 0.622878 0.249528 0
M  V30 6858 H 656.835 2.04094 0.128805 0
M  V30 6859 H 654.99 3.03886 2.40274 0
M  V30 6860 H 655.404 5.03924 1.45466 0
M  V30 6861 H 656.878 4.5682 3.0987 0
M  V30 6862 H 657.355 2.88533 3.31127 0
M  V30 6863 H 657.961 3.79946 1.91105 0
M  V30 6864 N 656.276 -0.40816 1.52223 0
M  V30 6865 C 657.506 -1.17501 1.69932 0
M  V30 6866 C 657.914 -1.84729 0.408874 0
M  V30 6867 O 657.257 -1.7274 -0.625025 0
M  V30 6868 C 657.319 -2.27994 2.77955 0
M  V30 6869 C 656.983 -1.80894 4.19674 0
M  V30 6870 C 657.98 -1.29618 5.03483 0
M  V30 6871 C 655.665 -1.87698 4.65913 0
M  V30 6872 C 657.659 -0.857695 6.31603 0
M  V30 6873 C 655.346 -1.43461 5.94022 0
M  V30 6874 C 656.344 -0.925822 6.76696 0
M  V30 6875 O 656.032 -0.489841 8.02406 0
M  V30 6876 H 655.764 -0.359065 0.572755 0
M  V30 6877 H 658.318 -0.486188 1.99563 0
M  V30 6878 H 656.548 -3.00243 2.43703 0
M  V30 6879 H 658.237 -2.89749 2.84254 0
M  V30 6880 H 659.003 -1.23733 4.68951 0
M  V30 6881 H 654.882 -2.26244 4.01665 0
M  V30 6882 H 658.426 -0.459879 6.96083 0
M  V30 6883 H 654.323 -1.49026 6.28062 0
M  V30 6884 H 655.091 -0.613062 8.16201 0
M  V30 6885 N 657.755 -1.42862 -0.66545 0
M  V30 6886 C 658.688 -1.41509 -1.79026 0
M  V30 6887 C 659.666 -0.278106 -1.60204 0
M  V30 6888 O 660.85 -0.469792 -1.82552 0
M  V30 6889 C 657.977 -1.21494 -3.1616 0
M  V30 6890 C 657.023 -2.38308 -3.53711 0
M  V30 6891 S 657.856 -4.00852 -3.55075 0
M  V30 6892 C 659.012 -3.83197 -4.94885 0
M  V30 6893 H 659.245 -2.36691 -1.79902 0
M  V30 6894 H 656.778 -1.29746 -0.836977 0
M  V30 6895 H 658.736 -1.10633 -3.95311 0
M  V30 6896 H 657.397 -0.27881 -3.1286 0
M  V30 6897 H 656.59 -2.20076 -4.53412 0
M  V30 6898 H 656.192 -2.45732 -2.81943 0
M  V30 6899 H 658.484 -3.44765 -5.83218 0
M  V30 6900 H 659.427 -4.82607 -5.18166 0
M  V30 6901 H 659.835 -3.15884 -4.67843 0
M  V30 6902 N 659.233 0.902656 -1.29189 0
M  V30 6903 C 660.463 1.68394 -1.19695 0
M  V30 6904 C 660.871 1.87602 0.245384 0
M  V30 6905 O 660.214 1.41084 1.17648 0
M  V30 6906 C 660.276 3.09094 -1.83578 0
M  V30 6907 C 659.94 3.1313 -3.32864 0
M  V30 6908 C 660.937 2.93497 -4.29134 0
M  V30 6909 C 658.622 3.3529 -3.74013 0
M  V30 6910 C 660.616 2.95953 -5.64527 0
M  V30 6911 C 658.303 3.37377 -5.09529 0
M  V30 6912 C 659.301 3.1773 -6.04596 0
M  V30 6913 O 658.989 3.196 -7.37639 0
M  V30 6914 H 658.721 0.532815 -0.416034 0
M  V30 6915 H 661.275 1.1374 -1.71033 0
M  V30 6916 H 659.505 3.65338 -1.26747 0
M  V30 6917 H 661.194 3.69297 -1.68447 0
M  V30 6918 H 661.96 2.76192 -3.98677 0
M  V30 6919 H 657.839 3.49623 -3.00474 0
M  V30 6920 H 661.383 2.80536 -6.38706 0
M  V30 6921 H 657.28 3.54213 -5.39633 0
M  V30 6922 H 658.048 3.35887 -7.46406 0
M  V30 6923 N 660.711 1.11618 1.11262 0
M  V30 6924 C 661.621 0.78898 2.20935 0
M  V30 6925 C 662.637 -0.21867 1.7262 0
M  V30 6926 O 663.813 -0.0543826 2.01327 0
M  V30 6927 C 660.878 0.239014 3.45875 0
M  V30 6928 C 659.939 1.3055 4.08968 0
M  V30 6929 C 659.172 0.781687 5.27944 0
M  V30 6930 O 659.395 -0.387605 5.69082 0
M  V30 6931 O 658.329 1.54734 5.81671 0
M  V30 6932 H 662.155 1.70477 2.51339 0
M  V30 6933 H 659.74 0.892203 1.19834 0
M  V30 6934 H 661.622 -0.0632312 4.21353 0
M  V30 6935 H 660.297 -0.649454 3.17118 0
M  V30 6936 H 659.204 1.66079 3.35214 0
M  V30 6937 H 660.537 2.16743 4.41909 0
M  V30 6938 N 662.189 -1.289 0.906776 0
M  V30 6939 C 663.436 -1.95269 0.536326 0
M  V30 6940 C 663.764 -1.71435 -0.918711 0
M  V30 6941 O 663.019 -1.02431 -1.66752 0
M  V30 6942 C 663.318 -3.48704 0.783617 0
M  V30 6943 C 662.984 -3.92626 2.21711 0
M  V30 6944 C 661.646 -4.04329 2.60906 0
M  V30 6945 C 663.998 -4.15218 3.15029 0
M  V30 6946 C 661.326 -4.35998 3.92584 0
M  V30 6947 C 663.678 -4.48365 4.46264 0
M  V30 6948 C 662.342 -4.58278 4.85322 0
M  V30 6949 H 661.612 -0.714538 0.196256 0
M  V30 6950 H 664.259 -1.53366 1.14678 0
M  V30 6951 H 662.564 -3.91696 0.0903048 0
M  V30 6952 H 664.261 -3.98162 0.476267 0
M  V30 6953 H 660.851 -3.84038 1.90296 0
M  V30 6954 H 665.035 -4.05636 2.8596 0
M  V30 6955 H 660.291 -4.41878 4.22557 0
M  V30 6956 H 664.465 -4.64795 5.18593 0
M  V30 6957 H 662.092 -4.82573 5.87391 0
M  V30 6958 N 663.667 -0.670007 -1.42649 0
M  V30 6959 C 664.599 0.0501746 -2.29145 0
M  V30 6960 C 665.612 0.770331 -1.43422 0
M  V30 6961 O 666.801 0.625288 -1.6719 0
M  V30 6962 C 663.901 1.09463 -3.20735 0
M  V30 6963 C 663.074 0.44926 -4.35087 0
M  V30 6964 C 662.133 1.39285 -5.07431 0
M  V30 6965 O 661.159 0.894997 -5.6212 0
M  V30 6966 N 662.361 2.72631 -5.12496 0
M  V30 6967 H 665.126 -0.692312 -2.91594 0
M  V30 6968 H 662.687 -0.514056 -1.53522 0
M  V30 6969 H 664.679 1.72705 -3.65999 0
M  V30 6970 H 663.249 1.73891 -2.59771 0
M  V30 6971 H 662.469 -0.362573 -3.92529 0
M  V30 6972 H 663.757 -0.000544776 -5.088 0
M  V30 6973 H 663.155 3.15623 -4.69467 0
M  V30 6974 H 661.712 3.31132 -5.61422 0
M  V30 6975 N 665.145 1.52092 -0.413018 0
M  V30 6976 C 666.375 2.05974 0.160648 0
M  V30 6977 C 666.783 1.28267 1.39084 0
M  V30 6978 O 666.126 0.328805 1.80733 0
M  V30 6979 C 666.188 3.54918 0.572169 0
M  V30 6980 C 665.852 4.53705 -0.547826 0
M  V30 6981 C 666.849 5.00342 -1.41259 0
M  V30 6982 C 664.534 4.97089 -0.721627 0
M  V30 6983 C 666.528 5.89011 -2.43607 0
M  V30 6984 C 664.215 5.85554 -1.74841 0
M  V30 6985 C 665.213 6.3141 -2.60403 0
M  V30 6986 O 664.901 7.18123 -3.61323 0
M  V30 6987 H 664.633 0.675636 0.0221936 0
M  V30 6988 H 667.187 1.96931 -0.58373 0
M  V30 6989 H 665.417 3.61661 1.36889 0
M  V30 6990 H 667.106 3.91428 1.0742 0
M  V30 6991 H 667.872 4.67537 -1.28974 0
M  V30 6992 H 663.751 4.60954 -0.0652911 0
M  V30 6993 H 667.295 6.24725 -3.10425 0
M  V30 6994 H 663.192 6.17773 -1.87156 0
M  V30 6995 H 663.96 7.36244 -3.57613 0
M  V30 6996 N 666.623 0.143563 1.56945 0
M  V30 6997 C 668.039 -0.212877 1.58174 0
M  V30 6998 C 668.239 -1.64926 1.15766 0
M  V30 6999 O 667.295 -2.37535 0.856361 0
M  V30 7000 C 668.608 0.0427573 3.0067 0
M  V30 7001 C 670.156 -0.0212221 3.12993 0
M  V30 7002 C 670.631 0.207036 4.57532 0
M  V30 7003 N 672.122 0.153845 4.62944 0
M  V30 7004 C 672.857 0.305018 5.72588 0
M  V30 7005 N 672.353 0.513722 6.90893 0
M  V30 7006 N 674.146 0.242862 5.61575 0
M  V30 7007 H 666.297 1.08148 1.82805 0
M  V30 7008 H 668.56 0.427831 0.84597 0
M  V30 7009 H 668.266 1.03672 3.36073 0
M  V30 7010 H 668.14 -0.678195 3.71053 0
M  V30 7011 H 670.527 -1.00574 2.77433 0
M  V30 7012 H 670.608 0.732004 2.45103 0
M  V30 7013 H 670.252 1.18863 4.93795 0
M  V30 7014 H 670.182 -0.566473 5.23544 0
M  V30 7015 H 672.673 -0.00294866 3.779 0
M  V30 7016 H 672.986 0.619273 7.70315 0
M  V30 7017 H 671.331 0.550001 6.9282 0
M  V30 7018 H 674.522 0.0806015 4.68031 0
M  V30 7019 H 674.695 0.364112 6.46976 0
M  V30 7020 N 668.101 -1.57061 -0.130224 0
M  V30 7021 C 669.512 -1.73539 -0.68856 0
M  V30 7022 C 669.863 -0.760554 -1.80859 0
M  V30 7023 O 668.988 0.0690796 -2.1629 0
M  V30 7024 C 669.583 -3.14666 -1.25581 0
M  V30 7025 C 668.142 -3.32689 -1.76055 0
M  V30 7026 C 667.289 -2.69436 -0.655712 0
M  V30 7027 H 670.24 -1.58412 0.0956002 0
M  V30 7028 H 670.261 -3.15595 -2.12556 0
M  V30 7029 H 669.773 -3.85593 -0.440412 0
M  V30 7030 H 667.874 -2.66786 -2.60108 0
M  V30 7031 H 667.987 -4.4077 -1.87772 0
M  V30 7032 H 666.351 -2.30362 -1.08654 0
M  V30 7033 H 667.134 -3.42979 0.14852 0
M  V30 7034 N 669.579 0.400081 -1.52437 0
M  V30 7035 C 670.804 1.17221 -1.71096 0
M  V30 7036 C 671.229 1.83269 -0.423565 0
M  V30 7037 O 670.587 1.70378 0.619751 0
M  V30 7038 C 670.635 2.20425 -2.85386 0
M  V30 7039 O 669.739 3.26769 -2.51586 0
M  V30 7040 H 669.08 0.341766 -0.569291 0
M  V30 7041 H 671.61 0.467772 -1.99181 0
M  V30 7042 H 671.62 2.64605 -3.10561 0
M  V30 7043 H 670.295 1.71737 -3.78786 0
M  V30 7044 H 668.872 2.87804 -2.37114 0
M  V30 7045 N 671.057 1.43213 0.657864 0
M  V30 7046 C 672.304 1.44584 1.41781 0
M  V30 7047 C 672.632 0.0684208 1.9438 0
M  V30 7048 O 671.887 -0.925872 1.72413 0
M  V30 7049 C 672.186 2.43143 2.61947 0
M  V30 7050 C 671.852 3.89128 2.27794 0
M  V30 7051 C 670.514 4.28889 2.18191 0
M  V30 7052 C 672.866 4.81144 2.00375 0
M  V30 7053 C 670.194 5.58625 1.79319 0
M  V30 7054 C 672.546 6.11239 1.63003 0
M  V30 7055 C 671.21 6.49981 1.51922 0
M  V30 7056 H 670.48 0.529069 0.518813 0
M  V30 7057 H 673.127 1.76263 0.748577 0
M  V30 7058 H 671.432 2.04851 3.33981 0
M  V30 7059 H 673.129 2.4146 3.20153 0
M  V30 7060 H 669.719 3.57657 2.36176 0
M  V30 7061 H 673.903 4.512 2.06718 0
M  V30 7062 H 669.159 5.87486 1.69323 0
M  V30 7063 H 673.333 6.82014 1.40817 0
M  V30 7064 H 670.96 7.50416 1.21572 0
M  V30 7065 N 672.536 -0.895792 1.29666 0
M  V30 7066 C 673.761 -1.68528 1.20885 0
M  V30 7067 C 674.186 -1.8673 -0.226595 0
M  V30 7068 O 673.544 -1.39044 -1.16347 0
M  V30 7069 C 673.592 -3.04512 1.93144 0
M  V30 7070 O 672.696 -3.92963 1.25115 0
M  V30 7071 H 672.037 -0.515371 0.418675 0
M  V30 7072 H 674.567 -1.11878 1.71302 0
M  V30 7073 H 674.577 -3.54628 2.0175 0
M  V30 7074 H 673.252 -2.90582 2.97548 0
M  V30 7075 H 671.829 -3.51399 1.24794 0
M  V30 7076 N 674.014 -1.12206 -1.10668 0
M  V30 7077 C 675.239 -0.898938 -1.86906 0
M  V30 7078 C 675.664 0.546346 -1.79991 0
M  V30 7079 O 675.022 1.38655 -1.1681 0
M  V30 7080 C 675.07 -1.37529 -3.33344 0
M  V30 7081 O 674.174 -0.55218 -4.08687 0
M  V30 7082 H 673.515 -0.323163 -0.580053 0
M  V30 7083 H 676.045 -1.49355 -1.39837 0
M  V30 7084 H 676.055 -1.3733 -3.84193 0
M  V30 7085 H 674.73 -2.42767 -3.37693 0
M  V30 7086 H 673.307 -0.620947 -3.67694 0
M  V30 7087 N 675.492 1.28418 -0.913599 0
M  V30 7088 C 676.769 1.89977 -0.465619 0
M  V30 7089 C 677.149 1.82813 1.05559 0
M  V30 7090 O 676.497 1.26397 1.90358 0
M  V30 7091 C 676.707 3.34492 -0.995813 0
M  V30 7092 C 678.055 4.11468 -1.04782 0
M  V30 7093 O 679.079 3.43451 -0.944445 0
M  V30 7094 O 677.938 5.33046 -1.20518 0
M  V30 7095 H 675.032 0.813734 -0.147532 0
M  V30 7096 H 677.578 1.36786 -1.00437 0
M  V30 7097 H 676.35 3.33929 -2.03978 0
M  V30 7098 H 675.973 3.95181 -0.437878 0
M  V30 7099 N 676.97 0.677563 1.42291 0
M  V30 7100 C 677.903 -0.0492638 2.28147 0
M  V30 7101 C 678.881 -0.805936 1.41221 0
M  V30 7102 O 680.065 -0.80049 1.70659 0
M  V30 7103 C 677.192 -1.07697 3.21122 0
M  V30 7104 C 676.238 -0.41556 4.24471 0
M  V30 7105 S 677.071 0.828876 5.29046 0
M  V30 7106 C 678.227 -0.197687 6.25588 0
M  V30 7107 H 678.46 0.678965 2.89443 0
M  V30 7108 H 675.993 0.467201 1.47162 0
M  V30 7109 H 677.951 -1.66482 3.75225 0
M  V30 7110 H 676.612 -1.77766 2.58956 0
M  V30 7111 H 675.805 -1.19112 4.89723 0
M  V30 7112 H 675.407 0.0987632 3.7387 0
M  V30 7113 H 677.699 -1.05656 6.69211 0
M  V30 7114 H 678.642 0.420437 7.06851 0
M  V30 7115 H 679.05 -0.544401 5.61869 0
M  V30 7116 N 678.448 -1.51871 0.421078 0
M  V30 7117 C 679.395 -2.27334 -0.398508 0
M  V30 7118 C 680.365 -1.30241 -1.03085 0
M  V30 7119 O 681.55 -1.59121 -1.05285 0
M  V30 7120 C 678.69 -3.10664 -1.50272 0
M  V30 7121 C 677.803 -4.2273 -0.890122 0
M  V30 7122 C 676.938 -4.93399 -1.96803 0
M  V30 7123 C 675.977 -5.97409 -1.333 0
M  V30 7124 N 675.114 -6.61548 -2.35156 0
M  V30 7125 H 679.954 -2.96938 0.251411 0
M  V30 7126 H 677.491 -1.46472 0.135825 0
M  V30 7127 H 679.449 -3.57292 -2.15403 0
M  V30 7128 H 678.079 -2.43207 -2.1225 0
M  V30 7129 H 677.131 -3.80186 -0.127537 0
M  V30 7130 H 678.443 -4.97302 -0.386349 0
M  V30 7131 H 677.597 -5.43491 -2.69633 0
M  V30 7132 H 676.336 -4.18421 -2.50549 0
M  V30 7133 H 675.341 -5.46624 -0.59008 0
M  V30 7134 H 676.566 -6.74335 -0.803076 0
M  V30 7135 H 674.512 -5.89394 -2.88012 0
M  V30 7136 H 674.429 -7.31832 -1.89624 0
M  V30 7137 H 675.697 -7.16276 -3.0752 0
M  V30 7138 N 679.926 -0.151884 -1.56866 0
M  V30 7139 C 681.337 0.368128 -1.83035 0
M  V30 7140 C 681.688 1.64402 -1.07082 0
M  V30 7141 O 680.813 2.14056 -0.317647 0
M  V30 7142 C 681.408 0.674676 -3.32014 0
M  V30 7143 C 679.967 1.13919 -3.58747 0
M  V30 7144 C 679.114 0.164833 -2.7681 0
M  V30 7145 H 682.065 -0.376499 -1.54169 0
M  V30 7146 H 682.086 1.52883 -3.48435 0
M  V30 7147 H 681.598 -0.254113 -3.87267 0
M  V30 7148 H 679.699 2.08375 -3.08886 0
M  V30 7149 H 679.812 1.06179 -4.67186 0
M  V30 7150 H 678.176 0.658419 -2.46043 0
M  V30 7151 H 678.959 -0.757633 -3.34836 0
M  V30 7152 N 681.404 1.57128 0.121893 0
M  V30 7153 C 682.351 2.0013 1.14964 0
M  V30 7154 C 683.321 0.872959 1.4131 0
M  V30 7155 O 684.506 1.13696 1.53225 0
M  V30 7156 C 681.646 2.40824 2.4718 0
M  V30 7157 C 680.759 3.67061 2.27794 0
M  V30 7158 C 679.894 3.96749 3.53219 0
M  V30 7159 C 678.933 5.16178 3.28978 0
M  V30 7160 N 678.07 5.41751 4.46599 0
M  V30 7161 H 682.91 2.8772 0.775947 0
M  V30 7162 H 680.447 1.42328 0.371652 0
M  V30 7163 H 682.405 2.62454 3.24305 0
M  V30 7164 H 681.035 1.56279 2.82448 0
M  V30 7165 H 680.087 3.53063 1.416 0
M  V30 7166 H 681.399 4.5434 2.05857 0
M  V30 7167 H 680.553 4.19012 4.38764 0
M  V30 7168 H 679.292 3.07941 3.78185 0
M  V30 7169 H 678.297 4.93762 2.41824 0
M  V30 7170 H 679.522 6.06561 3.05386 0
M  V30 7171 H 677.468 4.55899 4.71691 0
M  V30 7172 H 677.385 6.23347 4.27756 0
M  V30 7173 H 678.653 5.68531 5.33285 0
M  V30 7174 N 682.882 -0.391992 1.52647 0
M  V30 7175 C 684.11 -1.1586 1.71418 0
M  V30 7176 C 684.525 -1.8381 0.431216 0
M  V30 7177 O 683.882 -1.7256 -0.594085 0
M  V30 7178 C 683.933 -2.20888 2.86165 0
M  V30 7179 O 683.654 -1.5571 4.09495 0
M  V30 7180 C 685.155 -3.103 3.1659 0
M  V30 7181 H 682.375 -0.347494 0.574011 0
M  V30 7182 H 684.919 -0.458972 1.99283 0
M  V30 7183 H 683.074 -2.86492 2.6077 0
M  V30 7184 H 683.488 -2.25474 4.73563 0
M  V30 7185 H 684.962 -3.8003 4.00351 0
M  V30 7186 H 685.439 -3.73639 2.30848 0
M  V30 7187 H 686.045 -2.50345 3.43813 0
M  V30 7188 N 684.36 -1.4356 -0.65026 0
M  V30 7189 C 685.606 -1.45549 -1.41221 0
M  V30 7190 C 685.939 -0.0805472 -1.94033 0
M  V30 7191 O 685.214 0.899043 -1.72475 0
M  V30 7192 C 685.497 -2.50028 -2.59148 0
M  V30 7193 C 685.35 -3.96808 -2.1181 0
M  V30 7194 C 686.669 -2.51212 -3.61359 0
M  V30 7195 H 683.788 -0.529967 -0.512156 0
M  V30 7196 H 686.43 -1.75127 -0.736933 0
M  V30 7197 H 684.58 -2.24937 -3.16758 0
M  V30 7198 H 686.252 -4.32966 -1.59178 0
M  V30 7199 H 684.495 -4.09498 -1.43156 0
M  V30 7200 H 685.166 -4.6553 -2.96625 0
M  V30 7201 H 687.642 -2.73583 -3.13515 0
M  V30 7202 H 686.518 -3.26252 -4.41419 0
M  V30 7203 H 686.779 -1.54701 -4.1415 0
M  V30 7204 N 685.838 0.888903 -1.30139 0
M  V30 7205 C 687.087 1.63507 -1.18103 0
M  V30 7206 C 687.4 1.93808 0.264141 0
M  V30 7207 O 688.606 2.66744 0.505966 0
M  V30 7208 C 687.062 2.94673 -2.0663 0
M  V30 7209 C 686.67 2.71926 -3.56034 0
M  V30 7210 C 688.414 3.72626 -2.03346 0
M  V30 7211 C 686.321 3.98884 -4.3663 0
M  V30 7212 H 685.251 0.613426 -0.438435 0
M  V30 7213 H 687.902 0.984427 -1.54859 0
M  V30 7214 H 686.284 3.61009 -1.62754 0
M  V30 7215 H 687.458 2.14116 -4.08033 0
M  V30 7216 H 685.773 2.07353 -3.61101 0
M  V30 7217 H 688.37 4.66775 -2.60816 0
M  V30 7218 H 688.713 4.03712 -1.016 0
M  V30 7219 H 689.246 3.13147 -2.45324 0
M  V30 7220 H 685.985 3.72959 -5.39056 0
M  V30 7221 H 685.505 4.56214 -3.89396 0
M  V30 7222 H 687.184 4.66938 -4.47859 0
M  V30 7223 N 687.317 1.12792 1.10072 0
M  V30 7224 C 688.565 0.883796 1.81751 0
M  V30 7225 C 688.886 -0.591891 1.858 0
M  V30 7226 O 688.156 -1.43017 1.33876 0
M  V30 7227 H 686.736 0.323978 0.673088 0
M  V30 7228 H 689.398 1.42314 1.33164 0
M  V30 7229 H 688.494 1.26863 2.85153 0
M  V30 7230 N 688.795 -1.27931 0.920396 0
M  V30 7231 C 690.072 -1.89728 0.475687 0
M  V30 7232 C 690.452 -1.8337 -1.04588 0
M  V30 7233 O 689.8 -1.27404 -1.89685 0
M  V30 7234 C 690.01 -3.33959 1.01354 0
M  V30 7235 C 691.358 -4.10907 1.06963 0
M  V30 7236 O 692.382 -3.42945 0.962646 0
M  V30 7237 O 691.241 -5.32399 1.23343 0
M  V30 7238 H 688.335 -0.81294 0.151845 0
M  V30 7239 H 690.881 -1.36252 1.01161 0
M  V30 7240 H 689.653 -3.32843 2.05746 0
M  V30 7241 H 689.276 -3.94944 0.458829 0
M  V30 7242 N 690.273 -0.685099 -1.4193 0
M  V30 7243 C 691.223 0.00977295 -2.27998 0
M  V30 7244 C 692.207 0.763315 -1.41641 0
M  V30 7245 O 693.399 0.640532 -1.65004 0
M  V30 7246 C 690.528 0.952972 -3.29808 0
M  V30 7247 C 689.614 0.196231 -4.23646 0
M  V30 7248 N 690.005 -0.804401 -4.99363 0
M  V30 7249 C 688.303 0.433213 -4.43891 0
M  V30 7250 C 689.004 -1.25646 -5.67968 0
M  V30 7251 N 687.98 -0.5844 -5.4045 0
M  V30 7252 H 691.782 -0.757586 -2.83968 0
M  V30 7253 H 689.296 -0.515037 -1.54017 0
M  V30 7254 H 691.293 1.46585 -3.9028 0
M  V30 7255 H 689.953 1.72004 -2.75399 0
M  V30 7256 H 690.964 -1.18429 -5.04177 0
M  V30 7257 H 687.641 1.17899 -4.00507 0
M  V30 7258 H 689.031 -2.08622 -6.38691 0
M  V30 7259 N 691.751 1.51645 -0.429126 0
M  V30 7260 C 692.999 2.01616 0.139802 0
M  V30 7261 C 693.32 1.31568 1.43927 0
M  V30 7262 O 692.59 0.447688 1.90716 0
M  V30 7263 H 691.17 0.744998 0.054654 0
M  V30 7264 H 693.832 1.8638 -0.569952 0
M  V30 7265 H 692.928 3.10439 0.321609 0
M  V30 7266 N 693.229 0.160201 1.56784 0
M  V30 7267 C 694.506 -0.533355 1.88188 0
M  V30 7268 C 694.886 -1.82072 1.06831 0
M  V30 7269 O 694.234 -2.27946 0.158959 0
M  V30 7270 C 694.444 -0.786034 3.40033 0
M  V30 7271 C 695.792 -1.12097 4.09536 0
M  V30 7272 O 696.816 -0.874949 3.45287 0
M  V30 7273 O 695.675 -1.58457 5.23023 0
M  V30 7274 H 692.769 -0.273589 0.780434 0
M  V30 7275 H 695.315 0.197803 1.68543 0
M  V30 7276 H 694.087 0.124515 3.91102 0
M  V30 7277 H 693.71 -1.57091 3.65251 0
M  V30 7278 N 694.707 -1.5719 -0.113559 0
M  V30 7279 C 695.617 -2.04041 -1.15777 0
M  V30 7280 C 696.633 -0.961812 -1.45001 0
M  V30 7281 O 697.809 -1.2737 -1.56009 0
M  V30 7282 C 694.874 -2.43994 -2.46308 0
M  V30 7283 C 693.935 -3.65962 -2.24433 0
M  V30 7284 C 693.168 -4.04 -3.4874 0
M  V30 7285 O 693.391 -3.42321 -4.56259 0
M  V30 7286 O 692.325 -4.97069 -3.3942 0
M  V30 7287 H 696.151 -2.93248 -0.789899 0
M  V30 7288 H 693.736 -1.45828 -0.324748 0
M  V30 7289 H 695.618 -2.70401 -3.23204 0
M  V30 7290 H 694.293 -1.57932 -2.82558 0
M  V30 7291 H 693.2 -3.44697 -1.45377 0
M  V30 7292 H 694.533 -4.52746 -1.93084 0
M  V30 7293 N 696.185 0.383891 -1.52853 0
M  V30 7294 C 697.115 1.47559 -1.80965 0
M  V30 7295 C 698.096 1.5669 -0.661986 0
M  V30 7296 O 699.281 1.71556 -0.910072 0
M  V30 7297 C 696.411 2.85114 -1.98312 0
M  V30 7298 C 695.365 2.9082 -3.14019 0
M  V30 7299 C 694.691 4.30873 -3.16627 0
M  V30 7300 C 695.991 2.60001 -4.52986 0
M  V30 7301 H 697.685 1.24283 -2.72386 0
M  V30 7302 H 695.231 0.596445 -1.31067 0
M  V30 7303 H 697.184 3.61496 -2.16561 0
M  V30 7304 H 695.908 3.09738 -1.03585 0
M  V30 7305 H 694.567 2.16886 -2.9556 0
M  V30 7306 H 694.215 4.52545 -2.19573 0
M  V30 7307 H 693.915 4.3561 -3.94357 0
M  V30 7308 H 695.439 5.09154 -3.37038 0
M  V30 7309 H 696.853 3.261 -4.71521 0
M  V30 7310 H 695.25 2.76081 -5.32822 0
M  V30 7311 H 696.32 1.5532 -4.59351 0
M  V30 7312 N 697.663 1.43903 0.642637 0
M  V30 7313 C 698.91 1.46079 1.40239 0
M  V30 7314 C 699.238 0.0890335 1.94296 0
M  V30 7315 O 698.493 -0.907533 1.73385 0
M  V30 7316 C 698.792 2.45907 2.59354 0
M  V30 7317 C 698.458 3.91522 2.23654 0
M  V30 7318 C 697.12 4.31179 2.1363 0
M  V30 7319 C 699.472 4.83242 1.95261 0
M  V30 7320 C 696.8 5.60495 1.73384 0
M  V30 7321 C 699.152 6.12933 1.56511 0
M  V30 7322 C 697.816 6.51556 1.4502 0
M  V30 7323 H 697.086 0.534542 0.513172 0
M  V30 7324 H 699.733 1.77047 0.72984 0
M  V30 7325 H 698.038 2.08381 3.3179 0
M  V30 7326 H 699.735 2.44842 3.17574 0
M  V30 7327 H 696.325 3.60142 2.32369 0
M  V30 7328 H 700.509 4.53367 2.0192 0
M  V30 7329 H 695.765 5.89249 1.63082 0
M  V30 7330 H 699.939 6.83469 1.33576 0
M  V30 7331 H 697.566 7.51663 1.13606 0
M  V30 7332 N 699.141 -0.881989 1.30609 0
M  V30 7333 C 700.366 -1.67236 1.22665 0
M  V30 7334 C 700.791 -1.8696 -0.206777 0
M  V30 7335 O 700.149 -1.4027 -1.14865 0
M  V30 7336 C 700.197 -3.02446 1.96363 0
M  V30 7337 O 699.301 -3.91614 1.29276 0
M  V30 7338 H 698.642 -0.510902 0.424117 0
M  V30 7339 H 701.172 -1.10055 1.72479 0
M  V30 7340 H 701.182 -3.52468 2.055 0
M  V30 7341 H 699.857 -2.8741 3.00613 0
M  V30 7342 H 698.434 -3.50055 1.28514 0
M  V30 7343 N 700.619 -1.13374 -1.09472 0
M  V30 7344 C 701.865 -0.896516 -1.81908 0
M  V30 7345 C 702.198 0.575933 -1.85463 0
M  V30 7346 O 701.473 1.42618 -1.32251 0
M  V30 7347 C 701.756 -1.48445 -3.28079 0
M  V30 7348 C 701.609 -3.02598 -3.32798 0
M  V30 7349 C 702.928 -1.15226 -4.24748 0
M  V30 7350 H 700.047 -0.327127 -0.660422 0
M  V30 7351 H 702.689 -1.40195 -1.2824 0
M  V30 7352 H 700.839 -1.0546 -3.73912 0
M  V30 7353 H 702.511 -3.54335 -2.95372 0
M  V30 7354 H 700.754 -3.37613 -2.72397 0
M  V30 7355 H 701.425 -3.38835 -4.3577 0
M  V30 7356 H 703.901 -1.52369 -3.87199 0
M  V30 7357 H 702.777 -1.59012 -5.25363 0
M  V30 7358 H 703.038 -0.0658891 -4.42051 0
M  V30 7359 N 702.098 1.27442 -0.927168 0
M  V30 7360 C 703.345 1.94391 -0.567324 0
M  V30 7361 C 703.673 1.72875 0.891321 0
M  V30 7362 O 702.928 1.05071 1.65102 0
M  V30 7363 C 703.227 3.47413 -0.838994 0
M  V30 7364 C 702.893 3.89049 -2.2793 0
M  V30 7365 C 701.555 4.00127 -2.67305 0
M  V30 7366 C 703.907 4.10154 -3.21595 0
M  V30 7367 C 701.235 4.29697 -3.99471 0
M  V30 7368 C 703.587 4.41208 -4.53341 0
M  V30 7369 C 702.251 4.50499 -4.92551 0
M  V30 7370 H 701.521 0.711325 -0.207598 0
M  V30 7371 H 704.168 1.51523 -1.17103 0
M  V30 7372 H 702.473 3.91503 -0.152609 0
M  V30 7373 H 704.17 3.97354 -0.53955 0
M  V30 7374 H 700.76 3.80962 -1.96381 0
M  V30 7375 H 704.944 4.01036 -2.92377 0
M  V30 7376 H 700.2 4.35099 -4.29533 0
M  V30 7377 H 704.374 4.56486 -5.25922 0
M  V30 7378 H 702.001 4.73167 -5.94994 0
M  V30 7379 N 703.576 0.692616 1.41565 0
M  V30 7380 C 704.824 0.221896 2.00878 0
M  V30 7381 C 705.145 -1.18164 1.5512 0
M  V30 7382 O 704.415 -1.79679 0.78054 0
M  V30 7383 H 702.995 0.0790463 0.742806 0
M  V30 7384 H 705.657 0.893115 1.73232 0
M  V30 7385 H 704.753 0.23702 3.11199 0
M  V30 7386 N 705.054 -1.51416 0.437162 0
M  V30 7387 C 706.017 -2.26312 -0.362729 0
M  V30 7388 C 707.017 -1.29748 -0.949847 0
M  V30 7389 O 708.207 -1.53462 -0.824325 0
M  V30 7390 C 705.339 -3.05475 -1.5132 0
M  V30 7391 H 706.532 -2.98459 0.29365 0
M  V30 7392 H 704.085 -1.55137 0.190327 0
M  V30 7393 H 704.82 -2.37744 -2.20563 0
M  V30 7394 H 704.605 -3.76401 -1.09838 0
M  V30 7395 H 706.095 -3.62209 -2.07833 0
M  V30 7396 N 706.532 -0.168513 -1.56696 0
M  V30 7397 C 707.943 0.348694 -1.83415 0
M  V30 7398 C 708.294 1.63257 -1.0882 0
M  V30 7399 O 707.419 2.13707 -0.340333 0
M  V30 7400 C 708.014 0.639423 -3.32711 0
M  V30 7401 C 706.573 1.10108 -3.59935 0
M  V30 7402 C 705.72 0.135464 -2.76969 0
M  V30 7403 H 708.671 -0.392829 -1.53761 0
M  V30 7404 H 708.692 1.49179 -3.50037 0
M  V30 7405 H 708.204 -0.295173 -3.86976 0
M  V30 7406 H 706.305 2.05088 -3.11079 0
M  V30 7407 H 706.418 1.01218 -4.68286 0
M  V30 7408 H 704.782 0.632286 -2.46727 0
M  V30 7409 H 705.565 -0.793104 -3.34013 0
M  V30 7410 N 708.01 1.57248 0.105221 0
M  V30 7411 C 709.257 1.8557 0.810552 0
M  V30 7412 C 709.585 0.755595 1.79223 0
M  V30 7413 O 708.84 -0.251788 1.94073 0
M  V30 7414 C 709.139 3.20437 1.58287 0
M  V30 7415 C 708.805 4.44716 0.744235 0
M  V30 7416 C 707.467 4.78458 0.513013 0
M  V30 7417 C 709.819 5.20953 0.160578 0
M  V30 7418 C 707.147 5.8587 -0.311894 0
M  V30 7419 C 709.499 6.29235 -0.651596 0
M  V30 7420 C 708.163 6.615 -0.893005 0
M  V30 7421 H 707.433 0.67905 0.296602 0
M  V30 7422 H 710.08 1.91363 0.0723968 0
M  V30 7423 H 708.385 3.10283 2.39232 0
M  V30 7424 H 710.082 3.39576 2.13282 0
M  V30 7425 H 706.672 4.18287 0.934555 0
M  V30 7426 H 710.856 4.95226 0.3264 0
M  V30 7427 H 706.112 6.09286 -0.508012 0
M  V30 7428 H 710.286 6.87484 -1.11077 0
M  V30 7429 H 707.913 7.44562 -1.53401 0
M  V30 7430 N 709.488 -0.375779 1.53054 0
M  V30 7431 C 710.418 -1.46598 1.81745 0
M  V30 7432 C 711.399 -1.56337 0.670286 0
M  V30 7433 O 712.584 -1.71071 0.919158 0
M  V30 7434 C 709.714 -2.84058 1.99821 0
M  V30 7435 C 708.668 -2.8915 3.15557 0
M  V30 7436 C 707.994 -4.29187 3.18908 0
M  V30 7437 C 709.294 -2.57595 4.54359 0
M  V30 7438 H 710.988 -1.22837 2.73041 0
M  V30 7439 H 708.534 -0.589485 1.31381 0
M  V30 7440 H 710.487 -3.60342 2.18475 0
M  V30 7441 H 709.211 -3.09184 1.05226 0
M  V30 7442 H 707.87 -2.15316 2.96706 0
M  V30 7443 H 707.518 -4.51374 2.2197 0
M  V30 7444 H 707.218 -4.33512 3.96662 0
M  V30 7445 H 708.742 -5.07359 3.39734 0
M  V30 7446 H 710.156 -3.23595 4.73243 0
M  V30 7447 H 708.553 -2.73252 5.34279 0
M  V30 7448 H 709.623 -1.52882 4.60169 0
M  V30 7449 N 710.966 -1.44241 -0.634997 0
M  V30 7450 C 711.913 -1.5081 -1.74714 0
M  V30 7451 C 712.883 -0.356147 -1.62237 0
M  V30 7452 O 714.068 -0.565848 -1.82216 0
M  V30 7453 C 711.208 -1.45458 -3.12947 0
M  V30 7454 C 710.321 -2.70998 -3.36428 0
M  V30 7455 C 709.456 -2.57507 -4.64611 0
M  V30 7456 C 708.495 -3.78229 -4.81258 0
M  V30 7457 N 707.632 -3.63438 -6.00714 0
M  V30 7458 H 712.472 -2.45832 -1.68436 0
M  V30 7459 H 710.009 -1.2201 -0.821706 0
M  V30 7460 H 711.967 -1.40347 -3.92885 0
M  V30 7461 H 710.597 -0.540058 -3.1825 0
M  V30 7462 H 709.649 -2.86312 -2.50458 0
M  V30 7463 H 710.961 -3.60619 -3.44609 0
M  V30 7464 H 710.115 -2.50207 -5.52703 0
M  V30 7465 H 708.854 -1.65441 -4.58782 0
M  V30 7466 H 707.859 -3.85918 -3.91596 0
M  V30 7467 H 709.084 -4.71327 -4.88904 0
M  V30 7468 H 707.03 -2.7412 -5.95982 0
M  V30 7469 H 706.947 -4.46672 -6.09934 0
M  V30 7470 H 708.215 -3.60022 -6.91378 0
M  V30 7471 N 712.444 0.87505 -1.31075 0
M  V30 7472 C 713.354 2.01441 -1.20244 0
M  V30 7473 C 714.37 1.73584 -0.120227 0
M  V30 7474 O 715.546 1.98559 -0.337063 0
M  V30 7475 C 712.611 3.34675 -0.905199 0
M  V30 7476 C 711.672 3.75889 -2.0738 0
M  V30 7477 C 710.905 5.02764 -1.79064 0
M  V30 7478 O 711.128 5.65795 -0.723318 0
M  V30 7479 O 710.062 5.40623 -2.64594 0
M  V30 7480 H 713.888 2.13509 -2.1598 0
M  V30 7481 H 711.473 1.00257 -1.10765 0
M  V30 7482 H 713.355 4.1458 -0.755057 0
M  V30 7483 H 712.03 3.23692 0.0221695 0
M  V30 7484 H 710.937 2.96645 -2.27931 0
M  V30 7485 H 712.27 3.91489 -2.98324 0
M  V30 7486 N 713.922 1.13953 1.08869 0
M  V30 7487 C 715.17 0.903023 1.80803 0
M  V30 7488 C 715.491 -0.572151 1.86417 0
M  V30 7489 O 714.761 -1.41589 1.35386 0
M  V30 7490 H 713.341 0.331099 0.669614 0
M  V30 7491 H 716.003 1.43719 1.31647 0
M  V30 7492 H 715.099 1.29881 2.83791 0
M  V30 7493 N 715.4 -1.26948 0.933913 0
M  V30 7494 C 716.363 -2.24889 0.442457 0
M  V30 7495 C 717.363 -1.54594 -0.442426 0
M  V30 7496 O 718.553 -1.72502 -0.242629 0
M  V30 7497 C 715.685 -3.3896 -0.363173 0
M  V30 7498 H 716.878 -2.69879 1.30787 0
M  V30 7499 H 714.431 -1.38978 0.715187 0
M  V30 7500 H 715.166 -2.99361 -1.24714 0
M  V30 7501 H 714.951 -3.9116 0.271366 0
M  V30 7502 H 716.441 -4.11739 -0.697186 0
M  V30 7503 N 716.879 -0.700114 -1.41195 0
M  V30 7504 C 718.104 -0.240704 -2.05998 0
M  V30 7505 C 718.529 1.10313 -1.52357 0
M  V30 7506 O 717.887 1.69154 -0.652424 0
M  V30 7507 C 717.935 -0.213783 -3.59966 0
M  V30 7508 O 717.039 0.809933 -4.04368 0
M  V30 7509 H 716.38 -0.116471 -0.653705 0
M  V30 7510 H 718.91 -0.956251 -1.80878 0
M  V30 7511 H 718.92 -0.0461852 -4.07974 0
M  V30 7512 H 717.595 -1.19454 -3.98376 0
M  V30 7513 H 716.172 0.611319 -3.67855 0
M  V30 7514 N 718.357 1.51182 -0.445186 0
M  V30 7515 C 719.267 2.31692 0.368255 0
M  V30 7516 C 720.283 1.40942 1.02036 0
M  V30 7517 O 721.459 1.74011 1.01401 0
M  V30 7518 C 718.524 3.14903 1.45041 0
M  V30 7519 C 717.585 4.21442 0.817615 0
M  V30 7520 C 716.818 5.00677 1.8482 0
M  V30 7521 O 717.041 4.80644 3.07145 0
M  V30 7522 O 715.975 5.84559 1.43438 0
M  V30 7523 H 719.801 3.0232 -0.289219 0
M  V30 7524 H 717.386 1.47951 -0.207555 0
M  V30 7525 H 719.268 3.66612 2.07783 0
M  V30 7526 H 717.943 2.47031 2.09182 0
M  V30 7527 H 716.85 3.73791 0.151931 0
M  V30 7528 H 718.183 4.9171 0.219564 0
M  V30 7529 N 719.835 0.176821 1.56605 0
M  V30 7530 C 720.745 -0.763682 2.21822 0
M  V30 7531 C 721.761 -1.24889 1.21156 0
M  V30 7532 O 722.937 -1.29987 1.53836 0
M  V30 7533 C 720.002 -1.97352 2.8505 0
M  V30 7534 C 719.063 -1.53466 4.00932 0
M  V30 7535 C 718.296 -2.68682 4.61135 0
M  V30 7536 O 718.519 -3.85694 4.20234 0
M  V30 7537 O 717.453 -2.42442 5.50913 0
M  V30 7538 H 721.279 -0.238363 3.02763 0
M  V30 7539 H 718.864 -0.0516331 1.49311 0
M  V30 7540 H 720.746 -2.68096 3.25119 0
M  V30 7541 H 719.421 -2.48779 2.07101 0
M  V30 7542 H 718.328 -0.796551 3.65521 0
M  V30 7543 H 719.661 -1.06724 4.8049 0
M  V30 7544 N 721.313 -1.57302 -0.09688 0
M  V30 7545 C 722.223 -2.05258 -1.13606 0
M  V30 7546 C 723.239 -0.977137 -1.43972 0
M  V30 7547 O 724.415 -1.29018 -1.54649 0
M  V30 7548 C 721.48 -2.46593 -2.43706 0
M  V30 7549 C 720.541 -3.68322 -2.20538 0
M  V30 7550 C 719.774 -4.07676 -3.44435 0
M  V30 7551 O 719.997 -3.47141 -4.52603 0
M  V30 7552 O 718.931 -5.00641 -3.34129 0
M  V30 7553 H 722.757 -2.94069 -0.758752 0
M  V30 7554 H 720.342 -1.46164 -0.309263 0
M  V30 7555 H 722.224 -2.73814 -3.20318 0
M  V30 7556 H 720.899 -1.6092 -2.80867 0
M  V30 7557 H 719.806 -3.4622 -1.41713 0
M  V30 7558 H 721.139 -4.54769 -1.88271 0
M  V30 7559 N 722.791 0.367657 -1.53252 0
M  V30 7560 C 724.04 1.10782 -1.68554 0
M  V30 7561 C 724.353 1.90523 -0.442765 0
M  V30 7562 O 725.559 2.6729 -0.47629 0
M  V30 7563 C 724.015 2.01863 -2.97959 0
M  V30 7564 C 723.623 1.27443 -4.29491 0
M  V30 7565 C 725.367 2.75883 -3.22628 0
M  V30 7566 C 723.274 2.17414 -5.49987 0
M  V30 7567 H 722.204 0.417272 -0.628013 0
M  V30 7568 H 724.855 0.368971 -1.79752 0
M  V30 7569 H 723.237 2.7947 -2.80558 0
M  V30 7570 H 724.411 0.549138 -4.57516 0
M  V30 7571 H 722.726 0.652935 -4.11249 0
M  V30 7572 H 725.323 3.43421 -4.09837 0
M  V30 7573 H 725.666 3.41138 -2.38601 0
M  V30 7574 H 726.199 2.0536 -3.40693 0
M  V30 7575 H 722.938 1.5674 -6.36485 0
M  V30 7576 H 722.458 2.87799 -5.26243 0
M  V30 7577 H 724.137 2.77019 -5.84696 0
M  V30 7578 N 724.269 1.44576 0.627338 0
M  V30 7579 C 725.685 1.28546 0.945938 0
M  V30 7580 C 725.885 0.224003 2.00251 0
M  V30 7581 O 724.941 -0.388817 2.49488 0
M  V30 7582 C 726.254 2.65825 1.40561 0
M  V30 7583 C 727.802 2.73566 1.52088 0
M  V30 7584 C 728.277 4.11323 2.01438 0
M  V30 7585 N 729.768 4.13519 2.08702 0
M  V30 7586 C 730.503 5.16964 2.48065 0
M  V30 7587 N 729.999 6.30768 2.86538 0
M  V30 7588 N 731.792 5.04319 2.48232 0
M  V30 7589 H 723.943 2.1228 -0.0713567 0
M  V30 7590 H 726.206 0.947503 0.0307081 0
M  V30 7591 H 725.912 3.44591 0.703539 0
M  V30 7592 H 725.786 2.92969 2.37591 0
M  V30 7593 H 728.173 1.95116 2.21391 0
M  V30 7594 H 728.254 2.50159 0.534237 0
M  V30 7595 H 727.898 4.9025 1.32729 0
M  V30 7596 H 727.828 4.32109 3.0098 0
M  V30 7597 H 730.319 3.31385 1.81638 0
M  V30 7598 H 730.632 7.0551 3.15398 0
M  V30 7599 H 728.977 6.342 2.84281 0
M  V30 7600 H 732.168 4.14465 2.17569 0
M  V30 7601 H 732.341 5.85059 2.78585 0
M  V30 7602 N 725.747 -0.868086 1.31537 0
M  V30 7603 C 726.677 -1.99131 1.21939 0
M  V30 7604 C 727.658 -1.69768 0.106166 0
M  V30 7605 O 728.843 -1.92006 0.291081 0
M  V30 7606 C 725.973 -3.34676 0.927879 0
M  V30 7607 C 724.927 -3.7835 2.00088 0
M  V30 7608 C 724.253 -5.11375 1.56203 0
M  V30 7609 C 725.553 -3.95256 3.41424 0
M  V30 7610 H 727.247 -2.07419 2.15911 0
M  V30 7611 H 724.793 -0.996569 1.03945 0
M  V30 7612 H 726.746 -4.12793 0.847327 0
M  V30 7613 H 725.47 -3.26565 -0.0475042 0
M  V30 7614 H 724.129 -3.02474 2.07135 0
M  V30 7615 H 723.777 -4.99709 0.57445 0
M  V30 7616 H 723.477 -5.41568 2.27985 0
M  V30 7617 H 725.001 -5.92001 1.49558 0
M  V30 7618 H 726.415 -4.63764 3.3704 0
M  V30 7619 H 724.812 -4.36849 4.1144 0
M  V30 7620 H 725.882 -2.98579 3.82072 0
M  V30 7621 N 727.225 -1.14528 -1.08264 0
M  V30 7622 C 728.45 -0.938381 -1.84957 0
M  V30 7623 C 728.875 0.508044 -1.81109 0
M  V30 7624 O 728.233 1.36146 -1.19724 0
M  V30 7625 C 728.281 -1.44568 -3.30352 0
M  V30 7626 O 727.385 -0.638745 -4.07423 0
M  V30 7627 H 726.726 -0.335394 -0.573068 0
M  V30 7628 H 729.256 -1.52287 -1.36637 0
M  V30 7629 H 729.266 -1.45449 -3.81194 0
M  V30 7630 H 727.941 -2.49876 -3.32468 0
M  V30 7631 H 726.518 -0.698801 -3.66294 0
M  V30 7632 N 728.703 1.26451 -0.940633 0
M  V30 7633 C 729.65 2.264 -0.448497 0
M  V30 7634 C 730.62 1.5866 0.491546 0
M  V30 7635 O 731.805 1.86389 0.407874 0
M  V30 7636 C 728.945 3.43956 0.280715 0
M  V30 7637 C 728.058 4.26374 -0.694937 0
M  V30 7638 C 727.193 5.31171 0.0554186 0
M  V30 7639 C 726.232 6.05266 -0.912091 0
M  V30 7640 N 725.369 7.01833 -0.193524 0
M  V30 7641 H 730.209 2.67869 -1.30576 0
M  V30 7642 H 727.746 1.31707 -0.655112 0
M  V30 7643 H 729.704 4.10941 0.71994 0
M  V30 7644 H 728.334 3.03403 1.10212 0
M  V30 7645 H 727.386 3.59183 -1.25267 0
M  V30 7646 H 728.698 4.77748 -1.43382 0
M  V30 7647 H 727.852 6.04166 0.553951 0
M  V30 7648 H 726.591 4.80634 0.827183 0
M  V30 7649 H 725.596 5.31099 -1.42175 0
M  V30 7650 H 726.821 6.57893 -1.68385 0
M  V30 7651 H 724.767 6.53607 0.559758 0
M  V30 7652 H 724.684 7.50957 -0.871744 0
M  V30 7653 H 725.952 7.78983 0.283932 0
M  V30 7654 N 730.181 0.707592 1.40822 0
M  V30 7655 C 731.114 -0.000859377 2.282 0
M  V30 7656 C 732.092 -0.7758 1.42899 0
M  V30 7657 O 733.276 -0.76411 1.72318 0
M  V30 7658 C 730.403 -1.00861 3.23334 0
M  V30 7659 C 729.449 -0.32543 4.25257 0
M  V30 7660 S 730.282 0.940908 5.27169 0
M  V30 7661 C 731.438 -0.0649459 6.25866 0
M  V30 7662 H 731.671 0.740207 2.87938 0
M  V30 7663 H 729.204 0.498311 1.46138 0
M  V30 7664 H 731.162 -1.58485 3.78672 0
M  V30 7665 H 729.823 -1.72233 2.62668 0
M  V30 7666 H 729.016 -1.08697 4.92139 0
M  V30 7667 H 728.618 0.178044 3.73576 0
M  V30 7668 H 730.91 -0.914377 6.71301 0
M  V30 7669 H 731.853 0.570276 7.058 0
M  V30 7670 H 732.261 -0.425098 5.62897 0
M  V30 7671 N 731.66 -1.50943 0.453197 0
M  V30 7672 C 732.906 -2.02512 -0.108082 0
M  V30 7673 C 733.239 -1.33574 -1.40967 0
M  V30 7674 O 732.514 -0.455671 -1.89087 0
M  V30 7675 C 732.797 -3.58759 -0.310453 0
M  V30 7676 C 732.65 -4.38293 1.0109 0
M  V30 7677 C 733.969 -4.26816 -1.07313 0
M  V30 7678 H 731.088 -0.73603 -0.0378064 0
M  V30 7679 H 733.73 -1.80433 0.595295 0
M  V30 7680 H 731.88 -3.77702 -0.909582 0
M  V30 7681 H 733.552 -4.30964 1.64523 0
M  V30 7682 H 731.795 -4.02745 1.61179 0
M  V30 7683 H 732.466 -5.45828 0.82315 0
M  V30 7684 H 734.942 -4.1224 -0.565473 0
M  V30 7685 H 733.818 -5.35989 -1.1835 0
M  V30 7686 H 734.079 -3.88757 -2.10525 0
M  V30 7687 N 733.138 -0.185124 -1.56509 0
M  V30 7688 C 734.071 0.77877 -2.145 0
M  V30 7689 C 735.049 1.21649 -1.07891 0
M  V30 7690 O 736.233 1.30579 -1.35946 0
M  V30 7691 C 733.36 2.05048 -2.69579 0
M  V30 7692 C 732.406 1.75569 -3.88687 0
M  V30 7693 S 733.239 0.912642 -5.27666 0
M  V30 7694 C 734.395 2.19471 -5.8616 0
M  V30 7695 H 734.628 0.285751 -2.95924 0
M  V30 7696 H 732.161 0.0297417 -1.54371 0
M  V30 7697 H 734.119 2.78085 -3.01958 0
M  V30 7698 H 732.78 2.51462 -1.88216 0
M  V30 7699 H 731.973 2.69962 -4.25601 0
M  V30 7700 H 731.575 1.10619 -3.57267 0
M  V30 7701 H 733.867 3.14815 -5.99915 0
M  V30 7702 H 734.81 1.87005 -6.8296 0
M  V30 7703 H 735.218 2.31862 -5.14685 0
M  V30 7704 N 734.616 1.57351 0.0885366 0
M  V30 7705 C 735.563 2.02523 1.10693 0
M  V30 7706 C 736.533 0.902736 1.39427 0
M  V30 7707 O 737.718 1.16921 1.50779 0
M  V30 7708 C 734.858 2.46013 2.42016 0
M  V30 7709 C 733.971 3.7181 2.19957 0
M  V30 7710 C 733.106 4.04152 3.44724 0
M  V30 7711 C 732.145 5.2304 3.17956 0
M  V30 7712 N 731.282 5.51102 4.35007 0
M  V30 7713 H 736.122 2.89302 0.714742 0
M  V30 7714 H 733.659 1.43084 0.341378 0
M  V30 7715 H 735.617 2.69274 3.18665 0
M  V30 7716 H 734.247 1.62235 2.79069 0
M  V30 7717 H 733.299 3.55987 1.34079 0
M  V30 7718 H 734.611 4.58604 1.96173 0
M  V30 7719 H 733.765 4.28225 4.29777 0
M  V30 7720 H 732.504 3.15893 3.71568 0
M  V30 7721 H 731.509 4.98781 2.31296 0
M  V30 7722 H 732.734 6.12902 2.92451 0
M  V30 7723 H 730.68 4.65802 4.61914 0
M  V30 7724 H 730.597 6.3228 4.14437 0
M  V30 7725 H 731.865 5.79714 5.21106 0
M  V30 7726 N 736.094 -0.359525 1.53444 0
M  V30 7727 C 737.341 -1.10152 1.6992 0
M  V30 7728 C 737.669 -1.89125 0.4541 0
M  V30 7729 O 736.924 -1.87396 -0.564023 0
M  V30 7730 C 737.223 -2.08287 2.90433 0
M  V30 7731 C 736.889 -1.45749 4.26694 0
M  V30 7732 C 735.551 -1.28421 4.63747 0
M  V30 7733 C 737.903 -1.00557 5.11408 0
M  V30 7734 C 735.231 -0.644951 5.83144 0
M  V30 7735 C 737.583 -0.380288 6.31456 0
M  V30 7736 C 736.247 -0.194557 6.67216 0
M  V30 7737 H 735.517 -0.403076 0.621781 0
M  V30 7738 H 738.164 -0.382612 1.87639 0
M  V30 7739 H 736.469 -2.86503 2.67251 0
M  V30 7740 H 738.166 -2.65662 3.00374 0
M  V30 7741 H 734.756 -1.6023 3.97523 0
M  V30 7742 H 738.94 -1.12735 4.83326 0
M  V30 7743 H 734.196 -0.48952 6.09437 0
M  V30 7744 H 738.37 -0.0219455 6.96397 0
M  V30 7745 H 735.997 0.30285 7.59597 0
M  V30 7746 N 737.572 -1.44907 -0.619662 0
M  V30 7747 C 738.818 -1.49504 -1.37914 0
M  V30 7748 C 739.173 -0.130158 -1.91959 0
M  V30 7749 O 738.466 0.856263 -1.71402 0
M  V30 7750 C 738.66 -2.50002 -2.55409 0
M  V30 7751 C 738.489 -3.96128 -2.12867 0
M  V30 7752 C 737.259 -4.64204 -1.99606 0
M  V30 7753 C 739.457 -4.85014 -1.71074 0
M  V30 7754 N 737.439 -5.95104 -1.50748 0
M  V30 7755 C 738.81 -6.05447 -1.33544 0
M  V30 7756 C 740.865 -4.71979 -1.58557 0
M  V30 7757 C 739.568 -7.1429 -0.847484 0
M  V30 7758 C 741.594 -5.80858 -1.11165 0
M  V30 7759 C 740.956 -7.00439 -0.745932 0
M  V30 7760 H 737.055 -0.60207 -0.499034 0
M  V30 7761 H 739.639 -1.81305 -0.70968 0
M  V30 7762 H 737.81 -2.20172 -3.19967 0
M  V30 7763 H 739.542 -2.44823 -3.22248 0
M  V30 7764 H 736.297 -4.19182 -2.20417 0
M  V30 7765 H 736.721 -6.64676 -1.28585 0
M  V30 7766 H 741.363 -3.79953 -1.85461 0
M  V30 7767 H 739.081 -8.06116 -0.565974 0
M  V30 7768 H 742.667 -5.72803 -1.01923 0
M  V30 7769 H 741.547 -7.83255 -0.384848 0
M  V30 7770 N 739.05 0.861098 -1.31996 0
M  V30 7771 C 740.013 1.95068 -1.20338 0
M  V30 7772 C 741.013 1.60289 -0.128114 0
M  V30 7773 O 742.203 1.70048 -0.378044 0
M  V30 7774 C 739.335 3.30153 -0.849205 0
M  V30 7775 H 740.528 2.06833 -2.17164 0
M  V30 7776 H 738.081 1.05049 -1.15734 0
M  V30 7777 H 738.816 3.24087 0.117508 0
M  V30 7778 H 738.601 3.56771 -1.62655 0
M  V30 7779 H 740.091 4.10025 -0.791782 0
M  V30 7780 N 740.528 1.15101 1.07655 0
M  V30 7781 C 741.476 0.840714 2.16875 0
M  V30 7782 C 742.47 -0.184594 1.68391 0
M  V30 7783 O 743.676 -0.0399315 1.79956 0
M  V30 7784 H 740.051 0.254192 0.707736 0
M  V30 7785 H 742.022 1.76959 2.40266 0
M  V30 7786 C 740.771 0.343018 3.46004 0
M  V30 7787 H 740.094 1.12335 3.83694 0
M  V30 7788 H 741.534 0.16453 4.23681 0
M  V30 7789 C 739.993 -0.934881 3.23669 0
M  V30 7790 O 740.523 -2.00706 3.47965 0
M  V30 7791 N 738.729 -0.873167 2.77172 0
M  V30 7792 H 738.276 -0.000479072 2.576 0
M  V30 7793 H 738.234 -1.72873 2.62607 0
M  V30 7794 N 742.006 -1.2595 0.947325 0
M  V30 7795 C 743.253 -1.93463 0.598178 0
M  V30 7796 C 743.581 -1.74271 -0.863705 0
M  V30 7797 O 742.836 -1.07684 -1.63409 0
M  V30 7798 C 743.135 -3.46034 0.894158 0
M  V30 7799 C 742.801 -3.85373 2.3409 0
M  V30 7800 C 741.463 -3.95823 2.73637 0
M  V30 7801 C 743.815 -4.04986 3.2808 0
M  V30 7802 C 741.143 -4.23288 4.06257 0
M  V30 7803 C 743.495 -4.3394 4.60303 0
M  V30 7804 C 742.159 -4.42606 4.99656 0
M  V30 7805 H 741.429 -0.707933 0.218889 0
M  V30 7806 H 744.076 -1.4964 1.19499 0
M  V30 7807 H 742.381 -3.9121 0.214874 0
M  V30 7808 H 744.078 -3.96445 0.602698 0
M  V30 7809 H 740.668 -3.7779 2.02417 0
M  V30 7810 H 744.852 -3.96333 2.9872 0
M  V30 7811 H 740.108 -4.28211 4.36401 0
M  V30 7812 H 744.282 -4.48061 5.33118 0
M  V30 7813 H 741.909 -4.63641 6.02446 0
M  V30 7814 N 743.484 -0.715051 -1.40445 0
M  V30 7815 C 744.447 -0.0708726 -2.2909 0
M  V30 7816 C 745.447 0.687926 -1.45342 0
M  V30 7817 O 746.637 0.519908 -1.66261 0
M  V30 7818 C 743.769 0.909528 -3.28543 0
M  V30 7819 H 744.962 -0.851611 -2.87555 0
M  V30 7820 H 742.515 -0.479674 -1.48758 0
M  V30 7821 H 743.25 1.71734 -2.75096 0
M  V30 7822 H 743.035 0.368318 -3.90366 0
M  V30 7823 H 744.525 1.35744 -3.94922 0
M  V30 7824 N 744.962 1.50701 -0.461195 0
M  V30 7825 C 746.378 1.59187 -0.114786 0
M  V30 7826 C 746.578 1.4702 1.37794 0
M  V30 7827 O 745.634 1.32361 2.15027 0
M  V30 7828 C 746.947 2.93453 -0.656167 0
M  V30 7829 C 748.495 3.06824 -0.618715 0
M  V30 7830 C 748.97 4.4365 -1.13747 0
M  V30 7831 N 750.461 4.50035 -1.09646 0
M  V30 7832 C 751.196 5.54278 -1.46846 0
M  V30 7833 N 750.692 6.65822 -1.91448 0
M  V30 7834 N 752.485 5.44767 -1.38512 0
M  V30 7835 H 744.636 1.56853 -1.43216 0
M  V30 7836 H 746.899 0.740712 -0.59165 0
M  V30 7837 H 746.605 3.07802 -1.7015 0
M  V30 7838 H 746.479 3.77082 -0.0942261 0
M  V30 7839 H 748.866 2.92129 0.417685 0
M  V30 7840 H 748.947 2.24976 -1.21734 0
M  V30 7841 H 748.591 4.59093 -2.17245 0
M  V30 7842 H 748.521 5.24074 -0.515153 0
M  V30 7843 H 751.012 3.69988 -0.769217 0
M  V30 7844 H 751.325 7.41413 -2.18007 0
M  V30 7845 H 749.67 6.66968 -1.95393 0
M  V30 7846 H 752.861 4.56511 -1.03516 0
M  V30 7847 H 753.034 6.25889 -1.6783 0
M  V30 7848 N 746.441 0.193421 1.56409 0
M  V30 7849 C 747.389 -0.744829 2.20352 0
M  V30 7850 C 748.383 -1.22104 1.17418 0
M  V30 7851 O 749.589 -1.18413 1.35567 0
M  V30 7852 H 745.964 -0.258538 0.70616 0
M  V30 7853 H 747.935 -0.181794 2.97846 0
M  V30 7854 C 746.684 -1.95453 2.87565 0
M  V30 7855 H 746.007 -1.59716 3.66512 0
M  V30 7856 H 747.447 -2.58942 3.35745 0
M  V30 7857 C 745.906 -2.79223 1.8851 0
M  V30 7858 O 746.436 -3.77093 1.38434 0
M  V30 7859 N 744.642 -2.44682 1.56777 0
M  V30 7860 H 744.189 -1.65153 1.97692 0
M  V30 7861 H 744.147 -3.01016 0.907573 0
M  V30 7862 N 747.919 -1.57396 -0.0801906 0
M  V30 7863 C 749.167 -1.86467 -0.779384 0
M  V30 7864 C 749.488 -0.784243 -1.78535 0
M  V30 7865 O 748.758 0.187986 -1.94996 0
M  V30 7866 H 747.338 -0.68806 -0.29083 0
M  V30 7867 H 750 -1.94813 -0.0582749 0
M  V30 7868 H 749.096 -2.83701 -1.30078 0
M  V30 7869 N 749.397 0.351382 -1.53633 0
M  V30 7870 C 750.345 1.45142 -1.8176 0
M  V30 7871 C 751.339 1.54819 -0.687571 0
M  V30 7872 O 752.545 1.57536 -0.870772 0
M  V30 7873 H 748.92 0.483789 -0.575719 0
M  V30 7874 H 750.891 1.1863 -2.73806 0
M  V30 7875 C 749.64 2.81779 -2.03706 0
M  V30 7876 H 748.963 2.75097 -2.90107 0
M  V30 7877 H 750.403 3.5789 -2.27356 0
M  V30 7878 C 748.862 3.26762 -0.820271 0
M  V30 7879 O 749.392 4.01697 -0.0158603 0
M  V30 7880 N 747.598 2.83472 -0.639699 0
M  V30 7881 H 747.145 2.22655 -1.29547 0
M  V30 7882 H 747.103 3.13924 0.172995 0
M  V30 7883 N 750.875 1.45233 0.611969 0
M  V30 7884 C 752.286 1.4354 1.19387 0
M  V30 7885 C 752.637 0.160713 1.95541 0
M  V30 7886 O 751.762 -0.737954 2.03429 0
M  V30 7887 C 752.357 2.60045 2.17169 0
M  V30 7888 C 750.916 2.61486 2.70744 0
M  V30 7889 C 750.063 2.35708 1.46072 0
M  V30 7890 H 753.014 1.53536 0.401529 0
M  V30 7891 H 753.035 2.33893 3.00124 0
M  V30 7892 H 752.547 3.52803 1.61714 0
M  V30 7893 H 750.648 1.72721 3.30149 0
M  V30 7894 H 750.761 3.60572 3.15476 0
M  V30 7895 H 749.125 1.85178 1.74875 0
M  V30 7896 H 749.908 3.30606 0.924922 0
M  V30 7897 N 752.353 -0.854086 1.3245 0
M  V30 7898 C 753.301 -1.98411 1.21391 0
M  V30 7899 C 754.295 -1.68984 0.118586 0
M  V30 7900 O 755.501 -1.77784 0.281549 0
M  V30 7901 H 751.876 -0.651077 0.376301 0
M  V30 7902 H 753.847 -2.04867 2.16961 0
M  V30 7903 C 752.596 -3.34345 0.954407 0
M  V30 7904 H 751.919 -3.57518 1.78944 0
M  V30 7905 H 753.359 -4.13959 0.917269 0
M  V30 7906 C 751.818 -3.35151 -0.342838 0
M  V30 7907 O 752.348 -3.78174 -1.35452 0
M  V30 7908 N 750.554 -2.88298 -0.365012 0
M  V30 7909 H 750.101 -2.53481 0.4588 0
M  V30 7910 H 750.059 -2.8922 -1.23284 0
M  V30 7911 N 753.831 -1.1567 -1.07043 0
M  V30 7912 C 755.079 -0.931673 -1.79344 0
M  V30 7913 C 755.4 0.542421 -1.87304 0
M  V30 7914 O 754.67 1.39418 -1.37621 0
M  V30 7915 H 753.25 -0.34171 -0.664262 0
M  V30 7916 H 755.912 -1.45795 -1.29344 0
M  V30 7917 H 755.008 -1.34379 -2.81689 0
M  V30 7918 N 755.309 1.25446 -0.953992 0
M  V30 7919 C 756.219 2.29632 -0.480264 0
M  V30 7920 C 757.235 1.68025 0.452071 0
M  V30 7921 O 758.411 1.98703 0.328472 0
M  V30 7922 C 755.476 3.45903 0.234974 0
M  V30 7923 C 754.537 4.22953 -0.735495 0
M  V30 7924 C 753.77 5.33672 -0.0542957 0
M  V30 7925 O 753.993 5.58477 1.16018 0
M  V30 7926 O 752.927 5.9734 -0.739509 0
M  V30 7927 H 756.753 2.72242 -1.34602 0
M  V30 7928 H 754.338 1.30883 -0.720419 0
M  V30 7929 H 756.22 4.16552 0.637341 0
M  V30 7930 H 754.895 3.05296 1.07592 0
M  V30 7931 H 753.802 3.54734 -1.18806 0
M  V30 7932 H 755.135 4.67341 -1.54444 0
M  V30 7933 N 756.787 0.722489 1.40064 0
M  V30 7934 C 758.035 0.264455 2.00362 0
M  V30 7935 C 758.356 -1.14847 1.57592 0
M  V30 7936 O 757.626 -1.77982 0.818477 0
M  V30 7937 H 756.206 0.0947846 0.740962 0
M  V30 7938 H 758.868 0.929659 1.71299 0
M  V30 7939 H 757.964 0.302977 3.10626 0
M  V30 7940 N 758.265 -1.50454 0.469181 0
M  V30 7941 C 759.195 -2.31353 -0.31592 0
M  V30 7942 C 760.176 -1.38172 -0.992094 0
M  V30 7943 O 761.361 -1.67093 -0.989633 0
M  V30 7944 C 758.491 -3.1786 -1.39937 0
M  V30 7945 C 757.445 -4.19578 -0.844909 0
M  V30 7946 C 756.771 -4.9481 -2.0265 0
M  V30 7947 C 758.071 -5.22106 0.142499 0
M  V30 7948 H 759.765 -2.97237 0.359269 0
M  V30 7949 H 757.311 -1.42942 0.174224 0
M  V30 7950 H 759.264 -3.7325 -1.95607 0
M  V30 7951 H 757.988 -2.49858 -2.1033 0
M  V30 7952 H 756.647 -3.65285 -0.310189 0
M  V30 7953 H 756.295 -4.23282 -2.71737 0
M  V30 7954 H 755.995 -5.63613 -1.66174 0
M  V30 7955 H 757.519 -5.53035 -2.58815 0
M  V30 7956 H 758.933 -5.72378 -0.324966 0
M  V30 7957 H 757.33 -5.98618 0.421441 0
M  V30 7958 H 758.4 -4.7297 1.06901 0
M  V30 7959 N 759.743 -0.201713 -1.56304 0
M  V30 7960 C 761.154 0.309711 -1.84113 0
M  V30 7961 C 761.505 1.60912 -1.12258 0
M  V30 7962 O 760.63 2.12937 -0.385587 0
M  V30 7963 C 761.225 0.568706 -3.33993 0
M  V30 7964 C 759.784 1.02448 -3.6219 0
M  V30 7965 C 758.931 0.0766842 -2.77194 0
M  V30 7966 H 761.882 -0.425356 -1.52893 0
M  V30 7967 H 761.903 1.41721 -3.53122 0
M  V30 7968 H 761.415 -0.37719 -3.86263 0
M  V30 7969 H 759.516 1.98443 -3.15359 0
M  V30 7970 H 759.629 0.912619 -4.70328 0
M  V30 7971 H 757.993 0.579809 -2.48013 0
M  V30 7972 H 758.776 -0.863774 -3.32256 0
M  V30 7973 N 761.222 1.57436 0.0718424 0
M  V30 7974 C 762.172 2.00132 1.09229 0
M  V30 7975 C 763.156 0.883379 1.34481 0
M  V30 7976 O 764.348 1.14728 1.34783 0
M  V30 7977 C 761.477 2.44876 2.40605 0
M  V30 7978 C 760.563 3.63405 2.18627 0
M  V30 7979 N 760.954 4.77583 1.66579 0
M  V30 7980 C 759.252 3.69953 2.491 0
M  V30 7981 C 759.953 5.5943 1.59415 0
M  V30 7982 N 758.929 5.03275 2.05464 0
M  V30 7983 H 762.731 2.85849 0.683185 0
M  V30 7984 H 760.245 1.59987 0.278914 0
M  V30 7985 H 762.242 2.73703 3.14471 0
M  V30 7986 H 760.902 1.60546 2.82232 0
M  V30 7987 H 761.913 4.99875 1.35443 0
M  V30 7988 H 758.59 2.96336 2.94094 0
M  V30 7989 H 759.98 6.61093 1.20026 0
M  V30 7990 N 762.7 -0.34323 1.53817 0
M  V30 7991 C 763.946 -1.08137 1.72273 0
M  V30 7992 C 764.301 -1.86311 0.480201 0
M  V30 7993 O 763.594 -1.84204 -0.527192 0
M  V30 7994 C 763.788 -2.05195 2.92626 0
M  V30 7995 C 763.617 -1.36561 4.28464 0
M  V30 7996 C 762.387 -1.11033 4.9295 0
M  V30 7997 C 764.585 -0.791663 5.0817 0
M  V30 7998 N 762.567 -0.389839 6.12661 0
M  V30 7999 C 763.938 -0.201742 6.19672 0
M  V30 8000 C 765.993 -0.692541 4.9306 0
M  V30 8001 C 764.696 0.477661 7.17712 0
M  V30 8002 C 766.722 -0.0268775 5.91394 0
M  V30 8003 C 766.084 0.552072 7.02233 0
M  V30 8004 H 762.183 -0.380078 0.683421 0
M  V30 8005 H 764.767 -0.364925 1.9125 0
M  V30 8006 H 762.938 -2.74131 2.75149 0
M  V30 8007 H 764.67 -2.7185 2.99799 0
M  V30 8008 H 761.425 -1.39752 4.52511 0
M  V30 8009 H 761.849 -0.0443076 6.76986 0
M  V30 8010 H 766.491 -1.12589 4.07534 0
M  V30 8011 H 764.209 0.922895 8.02813 0
M  V30 8012 H 767.795 0.0491921 5.81779 0
M  V30 8013 H 766.675 1.05899 7.77017 0
M  V30 8014 N 764.178 -1.45556 -0.604258 0
M  V30 8015 C 765.589 -1.44171 -1.18624 0
M  V30 8016 C 765.94 -0.171081 -1.95453 0
M  V30 8017 O 765.065 0.727156 -2.03817 0
M  V30 8018 C 765.66 -2.61193 -2.15786 0
M  V30 8019 C 764.219 -2.62918 -2.69353 0
M  V30 8020 C 763.366 -2.36479 -1.4482 0
M  V30 8021 H 766.317 -1.53747 -0.393381 0
M  V30 8022 H 766.338 -2.35481 -2.98879 0
M  V30 8023 H 765.85 -3.53656 -1.59841 0
M  V30 8024 H 763.951 -1.7447 -3.29228 0
M  V30 8025 H 764.064 -3.6224 -3.13559 0
M  V30 8026 H 762.428 -1.86103 -1.73891 0
M  V30 8027 H 763.211 -3.31091 -0.907376 0
M  V30 8028 N 765.656 0.84705 -1.32902 0
M  V30 8029 C 766.566 1.98845 -1.2449 0
M  V30 8030 C 767.582 1.7329 -0.15702 0
M  V30 8031 O 768.758 1.978 -0.379104 0
M  V30 8032 C 765.823 3.32679 -0.975985 0
M  V30 8033 C 764.884 3.71405 -2.15306 0
M  V30 8034 C 764.117 4.98853 -1.89688 0
M  V30 8035 O 764.34 5.64134 -0.843168 0
M  V30 8036 O 763.274 5.34889 -2.76002 0
M  V30 8037 H 767.1 2.0888 -2.2046 0
M  V30 8038 H 764.685 0.978852 -1.12867 0
M  V30 8039 H 766.567 4.12885 -0.842826 0
M  V30 8040 H 765.242 3.23667 -0.0464954 0
M  V30 8041 H 764.149 2.91743 -2.34172 0
M  V30 8042 H 765.482 3.85073 -3.06561 0
M  V30 8043 N 767.134 1.16236 1.06428 0
M  V30 8044 C 768.364 0.965782 1.82637 0
M  V30 8045 C 768.772 -0.489284 1.82764 0
M  V30 8046 O 768.115 -1.35133 1.24438 0
M  V30 8047 C 768.177 1.41458 3.30499 0
M  V30 8048 C 767.841 2.88926 3.54077 0
M  V30 8049 C 768.838 3.86939 3.47238 0
M  V30 8050 C 766.523 3.26814 3.81442 0
M  V30 8051 C 768.517 5.20841 3.67428 0
M  V30 8052 C 766.204 4.60886 4.01282 0
M  V30 8053 C 767.202 5.57708 3.94272 0
M  V30 8054 O 766.89 6.89357 4.13573 0
M  V30 8055 H 766.622 0.342569 0.582772 0
M  V30 8056 H 769.176 1.54641 1.35187 0
M  V30 8057 H 767.406 0.777426 3.78805 0
M  V30 8058 H 769.095 1.18563 3.88198 0
M  V30 8059 H 769.861 3.59014 3.26089 0
M  V30 8060 H 765.74 2.5203 3.86008 0
M  V30 8061 H 769.284 5.96401 3.61873 0
M  V30 8062 H 765.181 4.88522 4.21921 0
M  V30 8063 H 765.949 6.95913 4.30869 0
M  V30 8064 N 768.612 -1.24939 0.960631 0
M  V30 8065 C 769.56 -2.27659 0.47686 0
M  V30 8066 C 770.554 -1.63148 -0.455961 0
M  V30 8067 O 771.76 -1.76911 -0.332029 0
M  V30 8068 H 768.135 -0.739651 0.135723 0
M  V30 8069 H 770.106 -2.65844 1.35534 0
M  V30 8070 C 768.855 -3.46976 -0.224191 0
M  V30 8071 H 768.178 -3.96854 0.484471 0
M  V30 8072 H 769.618 -4.20717 -0.526615 0
M  V30 8073 C 768.077 -3.04159 -1.44876 0
M  V30 8074 O 768.607 -3.10697 -2.54618 0
M  V30 8075 N 766.813 -2.59284 -1.31226 0
M  V30 8076 H 766.36 -2.54164 -0.419361 0
M  V30 8077 H 766.318 -2.31 -2.13275 0
M  V30 8078 N 770.09 -0.729906 -1.39679 0
M  V30 8079 C 771.022 -0.0470588 -2.29152 0
M  V30 8080 C 772.035 0.708808 -1.4656 0
M  V30 8081 O 773.224 0.553815 -1.69691 0
M  V30 8082 C 770.324 0.957612 -3.25089 0
M  V30 8083 C 769.497 0.264321 -4.36601 0
M  V30 8084 C 768.556 1.17638 -5.12882 0
M  V30 8085 O 767.582 0.655777 -5.6541 0
M  V30 8086 N 768.784 2.50649 -5.23598 0
M  V30 8087 H 771.549 -0.815364 -2.88395 0
M  V30 8088 H 769.11 -0.578707 -1.51204 0
M  V30 8089 H 771.102 1.57026 -3.72995 0
M  V30 8090 H 769.672 1.62716 -2.66912 0
M  V30 8091 H 768.892 -0.528732 -3.90638 0
M  V30 8092 H 770.18 -0.216344 -5.0834 0
M  V30 8093 H 769.578 2.95427 -4.82431 0
M  V30 8094 H 768.135 3.07022 -5.74961 0
M  V30 8095 N 771.568 1.50203 -0.477153 0
M  V30 8096 C 772.515 2.28656 0.31386 0
M  V30 8097 C 773.485 1.33977 0.981802 0
M  V30 8098 O 774.67 1.62919 0.993072 0
M  V30 8099 C 771.81 3.16027 1.38639 0
M  V30 8100 C 770.923 4.25743 0.732615 0
M  V30 8101 C 770.058 5.00363 1.78355 0
M  V30 8102 C 769.097 6.01945 1.11035 0
M  V30 8103 N 768.234 6.6982 2.10441 0
M  V30 8104 H 773.074 2.958 -0.361445 0
M  V30 8105 H 770.611 1.45867 -0.190093 0
M  V30 8106 H 772.569 3.6504 2.01994 0
M  V30 8107 H 771.199 2.50917 2.03077 0
M  V30 8108 H 770.251 3.80398 -0.0136546 0
M  V30 8109 H 771.563 4.98393 0.201513 0
M  V30 8110 H 770.717 5.53124 2.49276 0
M  V30 8111 H 769.456 4.27432 2.34847 0
M  V30 8112 H 768.461 5.48438 0.386797 0
M  V30 8113 H 769.686 6.76851 0.552248 0
M  V30 8114 H 767.632 5.99677 2.65939 0
M  V30 8115 H 767.549 7.38366 1.62332 0
M  V30 8116 H 768.817 7.27196 2.80724 0
M  V30 8117 N 773.046 0.209999 1.56195 0
M  V30 8118 C 773.956 -0.716459 2.23392 0
M  V30 8119 C 774.972 -1.22291 1.23778 0
M  V30 8120 O 776.148 -1.26694 1.56558 0
M  V30 8121 C 773.213 -1.91261 2.89172 0
M  V30 8122 C 772.274 -1.44927 4.04097 0
M  V30 8123 C 771.507 -2.5884 4.66731 0
M  V30 8124 O 771.73 -3.76693 4.2832 0
M  V30 8125 O 770.664 -2.30701 5.55932 0
M  V30 8126 H 774.49 -0.174089 3.03201 0
M  V30 8127 H 772.075 -0.0199505 1.49387 0
M  V30 8128 H 773.957 -2.6114 3.30733 0
M  V30 8129 H 772.632 -2.4433 2.12331 0
M  V30 8130 H 771.539 -0.718839 3.67129 0
M  V30 8131 H 772.872 -0.965084 4.82646 0
M  V30 8132 N 774.524 -1.57472 -0.0634922 0
M  V30 8133 C 775.772 -1.87283 -0.759563 0
M  V30 8134 C 776.093 -0.803135 -1.77693 0
M  V30 8135 O 775.363 0.167293 -1.95184 0
M  V30 8136 H 773.943 -0.691106 -0.283516 0
M  V30 8137 H 776.605 -1.94864 -0.0376091 0
M  V30 8138 H 775.701 -2.85064 -1.27062 0
M  V30 8139 N 776.003 0.335068 -1.53997 0
M  V30 8140 C 777.233 1.0926 -1.75345 0
M  V30 8141 C 777.641 1.82568 -0.496545 0
M  V30 8142 O 776.984 1.75525 0.541897 0
M  V30 8143 C 777.046 2.14473 -2.88516 0
M  V30 8144 C 776.71 1.60665 -4.27827 0
M  V30 8145 C 777.707 1.05448 -5.09094 0
M  V30 8146 C 775.392 1.65255 -4.74337 0
M  V30 8147 C 777.386 0.555372 -6.34976 0
M  V30 8148 C 775.073 1.14956 -6.0019 0
M  V30 8149 C 776.071 0.601907 -6.80343 0
M  V30 8150 O 775.759 0.106445 -8.0383 0
M  V30 8151 H 775.491 0.331329 -0.589234 0
M  V30 8152 H 778.045 0.39042 -2.01655 0
M  V30 8153 H 776.275 2.88274 -2.5775 0
M  V30 8154 H 777.964 2.75857 -2.97755 0
M  V30 8155 H 778.73 1.01218 -4.74321 0
M  V30 8156 H 774.609 2.06822 -4.12002 0
M  V30 8157 H 778.153 0.127245 -6.97484 0
M  V30 8158 H 774.05 1.18891 -6.34457 0
M  V30 8159 H 774.818 0.222944 -8.18196 0
M  V30 8160 N 777.481 1.45874 0.596531 0
M  V30 8161 C 778.411 1.5824 1.71705 0
M  V30 8162 C 779.392 0.433366 1.64487 0
M  V30 8163 O 780.577 0.657895 1.82717 0
M  V30 8164 C 777.707 1.55927 3.10329 0
M  V30 8165 C 776.661 2.69659 3.32367 0
M  V30 8166 C 775.987 2.52403 4.71377 0
M  V30 8167 C 777.287 4.11591 3.21544 0
M  V30 8168 H 778.981 2.52035 1.61613 0
M  V30 8169 H 776.527 1.21297 0.776082 0
M  V30 8170 H 778.48 1.63173 3.88526 0
M  V30 8171 H 777.204 0.586674 3.21288 0
M  V30 8172 H 775.863 2.61859 2.56564 0
M  V30 8173 H 775.511 1.53258 4.79083 0
M  V30 8174 H 775.211 3.28679 4.87077 0
M  V30 8175 H 776.735 2.6152 5.5176 0
M  V30 8176 H 778.149 4.20576 3.89601 0
M  V30 8177 H 776.546 4.88344 3.4877 0
M  V30 8178 H 777.616 4.32719 2.1882 0
M  V30 8179 N 778.959 -0.83999 1.33349 0
M  V30 8180 C 779.891 -1.95678 1.19344 0
M  V30 8181 C 780.904 -1.62322 0.124692 0
M  V30 8182 O 782.093 -1.74516 0.375012 0
M  V30 8183 C 779.193 -3.29133 0.807771 0
M  V30 8184 C 778.366 -3.9063 1.96792 0
M  V30 8185 C 777.425 -5.02438 1.56341 0
M  V30 8186 O 776.451 -5.21646 2.27759 0
M  V30 8187 N 777.653 -5.78612 0.467767 0
M  V30 8188 H 780.418 -2.08229 2.15548 0
M  V30 8189 H 777.979 -1.01566 1.26079 0
M  V30 8190 H 779.971 -4.01355 0.519282 0
M  V30 8191 H 778.541 -3.12535 -0.063555 0
M  V30 8192 H 777.761 -3.11011 2.4221 0
M  V30 8193 H 779.049 -4.2845 2.74422 0
M  V30 8194 H 778.447 -5.65559 -0.126324 0
M  V30 8195 H 777.004 -6.51362 0.238945 0
M  V30 8196 N 780.437 -1.16799 -1.0581 0
M  V30 8197 C 781.686 -0.94698 -1.78088 0
M  V30 8198 C 781.999 0.526016 -1.88394 0
M  V30 8199 O 783.205 0.865061 -2.5735 0
M  V30 8200 C 781.661 -1.64508 -3.20102 0
M  V30 8201 C 781.269 -3.15618 -3.17946 0
M  V30 8202 C 783.013 -1.50622 -3.96879 0
M  V30 8203 C 780.92 -3.78144 -4.5471 0
M  V30 8204 H 779.85 -0.35067 -0.667493 0
M  V30 8205 H 782.501 -1.39985 -1.18645 0
M  V30 8206 H 780.883 -1.11993 -3.79834 0
M  V30 8207 H 782.057 -3.75016 -2.67768 0
M  V30 8208 H 780.372 -3.29444 -2.54667 0
M  V30 8209 H 782.969 -1.94713 -4.97987 0
M  V30 8210 H 783.312 -0.455864 -4.13797 0
M  V30 8211 H 783.845 -2.00319 -3.43682 0
M  V30 8212 H 780.584 -4.83149 -4.42998 0
M  V30 8213 H 780.104 -3.23532 -5.05062 0
M  V30 8214 H 781.783 -3.79986 -5.2366 0
M  V30 8215 N 781.915 1.24427 -0.967243 0
M  V30 8216 C 783.163 1.92107 -0.627638 0
M  V30 8217 C 783.484 1.75991 0.83978 0
M  V30 8218 O 782.754 1.13118 1.59941 0
M  V30 8219 H 781.334 0.710986 -0.229145 0
M  V30 8220 H 783.996 1.51331 -1.22821 0
M  V30 8221 H 783.092 2.99791 -0.867844 0
M  V30 8222 N 783.393 0.737304 1.3929 0
M  V30 8223 C 784.356 0.10731 2.28949 0
M  V30 8224 C 785.356 -0.664716 1.46418 0
M  V30 8225 O 786.546 -0.493392 1.67067 0
M  V30 8226 C 783.678 -0.857145 3.29948 0
M  V30 8227 H 784.871 0.89725 2.86163 0
M  V30 8228 H 782.424 0.503279 1.47976 0
M  V30 8229 H 783.159 -1.67336 2.77794 0
M  V30 8230 H 782.944 -0.306167 3.90903 0
M  V30 8231 H 784.434 -1.29444 3.97031 0
M  V30 8232 N 784.871 -1.49948 0.485112 0
M  V30 8233 C 785.819 -2.30449 -0.315609 0
M  V30 8234 C 786.813 -1.38351 -0.977516 0
M  V30 8235 O 788.019 -1.55477 -0.907019 0
M  V30 8236 H 784.394 -0.742262 -0.120629 0
M  V30 8237 H 786.365 -2.95925 0.383552 0
M  V30 8238 C 785.114 -3.19283 -1.37673 0
M  V30 8239 H 784.437 -3.90067 -0.876801 0
M  V30 8240 H 785.877 -3.78579 -1.90929 0
M  V30 8241 C 784.336 -2.37817 -2.38631 0
M  V30 8242 O 784.866 -2.0711 -3.44192 0
M  V30 8243 N 783.072 -2.00135 -2.107 0
M  V30 8244 H 782.619 -2.25307 -1.24878 0
M  V30 8245 H 782.577 -1.45933 -2.7848 0
M  V30 8246 N 786.349 -0.21828 -1.56081 0
M  V30 8247 C 787.577 0.419258 -2.02608 0
M  V30 8248 C 787.992 1.53578 -1.09814 0
M  V30 8249 O 787.349 1.82185 -0.107149 0
M  V30 8250 C 787.4 0.953955 -3.48686 0
M  V30 8251 O 787.121 -0.11805 -4.37941 0
M  V30 8252 C 788.622 1.66506 -4.10841 0
M  V30 8253 H 785.842 0.10296 -0.663054 0
M  V30 8254 H 788.386 -0.333776 -2.01758 0
M  V30 8255 H 786.541 1.65727 -3.50162 0
M  V30 8256 H 786.955 0.283359 -5.23734 0
M  V30 8257 H 788.429 1.99123 -5.14834 0
M  V30 8258 H 788.906 2.57705 -3.55647 0
M  V30 8259 H 789.512 1.00703 -4.13206 0
M  V30 8260 N 787.827 1.57504 0.0551401 0
M  V30 8261 C 788.759 2.0158 1.09078 0
M  V30 8262 C 789.772 0.92434 1.34014 0
M  V30 8263 O 790.961 1.20202 1.31961 0
M  V30 8264 C 788.061 2.35385 2.43818 0
M  V30 8265 C 787.234 3.66588 2.38605 0
M  V30 8266 C 786.293 3.87874 3.55585 0
M  V30 8267 O 785.319 4.59259 3.36258 0
M  V30 8268 N 786.521 3.31503 4.76536 0
M  V30 8269 H 789.286 2.91039 0.71529 0
M  V30 8270 H 786.847 1.60058 0.243532 0
M  V30 8271 H 788.839 2.46784 3.20749 0
M  V30 8272 H 787.409 1.51731 2.73307 0
M  V30 8273 H 786.629 3.65787 1.46947 0
M  V30 8274 H 787.917 4.52706 2.32239 0
M  V30 8275 H 787.315 2.73592 4.9514 0
M  V30 8276 H 785.872 3.48324 5.50921 0
M  V30 8277 N 789.305 -0.326896 1.54172 0
M  V30 8278 C 790.268 -1.38515 1.8261 0
M  V30 8279 C 791.268 -1.44872 0.697771 0
M  V30 8280 O 792.458 -1.44957 0.966078 0
M  V30 8281 C 789.59 -2.77281 1.98313 0
M  V30 8282 H 790.783 -1.14556 2.77159 0
M  V30 8283 H 788.336 -0.562199 1.45839 0
M  V30 8284 H 789.071 -3.065 1.05964 0
M  V30 8285 H 788.856 -2.74061 2.80416 0
M  V30 8286 H 790.346 -3.53845 2.21773 0
M  V30 8287 N 790.784 -1.46188 -0.588786 0
M  V30 8288 C 791.747 -1.55882 -1.68029 0
M  V30 8289 C 792.747 -0.436515 -1.54762 0
M  V30 8290 O 793.937 -0.700626 -1.59489 0
M  V30 8291 C 791.069 -1.47332 -3.07418 0
M  V30 8292 H 792.262 -2.5315 -1.60795 0
M  V30 8293 H 789.815 -1.33908 -0.806116 0
M  V30 8294 H 790.55 -0.513193 -3.20214 0
M  V30 8295 H 790.335 -2.28753 -3.18456 0
M  V30 8296 H 791.825 -1.57187 -3.86887 0
M  V30 8297 N 792.262 0.832906 -1.33792 0
M  V30 8298 C 793.194 1.95042 -1.2038 0
M  V30 8299 C 794.207 1.62253 -0.133299 0
M  V30 8300 O 795.396 1.74315 -0.384261 0
M  V30 8301 C 792.496 3.287 -0.825215 0
M  V30 8302 C 791.669 3.89581 -1.98861 0
M  V30 8303 C 790.728 5.01602 -1.59003 0
M  V30 8304 O 789.754 5.20431 -2.30522 0
M  V30 8305 N 790.956 5.78356 -0.498446 0
M  V30 8306 H 793.721 2.07083 -2.16649 0
M  V30 8307 H 791.282 1.00896 -1.26616 0
M  V30 8308 H 793.274 4.01074 -0.540559 0
M  V30 8309 H 791.844 3.12565 0.0469796 0
M  V30 8310 H 791.064 3.09723 -2.43856 0
M  V30 8311 H 792.352 4.26989 -2.76691 0
M  V30 8312 H 791.75 5.65618 0.0963297 0
M  V30 8313 H 790.307 6.51226 -0.273485 0
M  V30 8314 N 793.74 1.17359 1.05189 0
M  V30 8315 C 794.687 0.890325 2.12936 0
M  V30 8316 C 795.657 -0.165779 1.65271 0
M  V30 8317 O 796.842 -0.0285672 1.90779 0
M  V30 8318 C 793.982 0.409793 3.42658 0
M  V30 8319 C 793.095 1.53002 4.03998 0
M  V30 8320 C 792.23 1.00336 5.21638 0
M  V30 8321 C 791.269 2.09903 5.74984 0
M  V30 8322 N 790.406 1.58714 6.83926 0
M  V30 8323 H 795.246 1.81299 2.36505 0
M  V30 8324 H 792.783 0.904249 1.16025 0
M  V30 8325 H 794.741 0.112743 4.17048 0
M  V30 8326 H 793.371 -0.475915 3.19272 0
M  V30 8327 H 792.423 1.9428 3.27047 0
M  V30 8328 H 793.735 2.3564 4.39631 0
M  V30 8329 H 792.889 0.660158 6.03098 0
M  V30 8330 H 791.628 0.14642 4.8748 0
M  V30 8331 H 790.633 2.45081 4.92154 0
M  V30 8332 H 791.858 2.96013 6.1119 0
M  V30 8333 H 789.804 0.752915 6.51665 0
M  V30 8334 H 789.721 2.34959 7.18561 0
M  V30 8335 H 790.989 1.27287 7.69037 0
M  V30 8336 N 795.218 -1.23913 0.973828 0
M  V30 8337 C 796.148 -2.27453 0.527969 0
M  V30 8338 C 797.129 -1.6443 -0.435513 0
M  V30 8339 O 798.314 -1.9137 -0.330306 0
M  V30 8340 C 795.444 -3.4685 -0.176757 0
M  V30 8341 C 794.398 -4.22181 0.703352 0
M  V30 8342 C 793.724 -5.34534 -0.133215 0
M  V30 8343 C 795.024 -4.82865 1.99096 0
M  V30 8344 H 796.718 -2.65 1.3934 0
M  V30 8345 H 794.264 -1.27388 0.671446 0
M  V30 8346 H 796.217 -4.18424 -0.499934 0
M  V30 8347 H 794.941 -3.08346 -1.07659 0
M  V30 8348 H 793.6 -3.52416 1.00989 0
M  V30 8349 H 793.248 -4.92271 -1.03338 0
M  V30 8350 H 792.948 -5.85855 0.452494 0
M  V30 8351 H 794.472 -6.08933 -0.450924 0
M  V30 8352 H 795.886 -5.46481 1.73297 0
M  V30 8353 H 794.283 -5.44444 2.52389 0
M  V30 8354 H 795.353 -4.03977 2.68199 0
M  V30 8355 N 796.696 -0.74468 -1.38897 0
M  V30 8356 C 797.643 -0.111064 -2.30533 0
M  V30 8357 C 798.613 0.719276 -1.49719 0
M  V30 8358 O 799.798 0.677244 -1.78376 0
M  V30 8359 C 796.938 0.78292 -3.36102 0
M  V30 8360 C 796.051 -0.0610817 -4.31957 0
M  V30 8361 C 795.186 0.835075 -5.24595 0
M  V30 8362 C 794.225 -0.0130974 -6.12099 0
M  V30 8363 N 793.362 0.839525 -6.97063 0
M  V30 8364 H 798.202 -0.898113 -2.84144 0
M  V30 8365 H 795.739 -0.454537 -1.39901 0
M  V30 8366 H 797.697 1.31578 -3.95908 0
M  V30 8367 H 796.327 1.53585 -2.83922 0
M  V30 8368 H 795.379 -0.711469 -3.73687 0
M  V30 8369 H 796.691 -0.716482 -4.93627 0
M  V30 8370 H 795.845 1.43542 -5.89475 0
M  V30 8371 H 794.584 1.52423 -4.63269 0
M  V30 8372 H 793.589 -0.626179 -5.46223 0
M  V30 8373 H 794.814 -0.699181 -6.75491 0
M  V30 8374 H 792.76 1.5138 -6.38295 0
M  V30 8375 H 792.677 0.240823 -7.55616 0
M  V30 8376 H 793.945 1.42513 -7.66362 0
M  V30 8377 N 798.174 1.49689 -0.493057 0
M  V30 8378 C 799.451 1.9525 0.116907 0
M  V30 8379 C 799.831 1.43429 1.54892 0
M  V30 8380 O 799.179 0.644621 2.19219 0
M  V30 8381 C 799.389 3.4898 0.037705 0
M  V30 8382 C 800.737 4.24052 0.215621 0
M  V30 8383 O 801.761 3.5602 0.113266 0
M  V30 8384 O 800.62 5.44847 0.42477 0
M  V30 8385 H 797.714 0.820973 0.099662 0
M  V30 8386 H 800.26 1.60367 -0.555029 0
M  V30 8387 H 799.032 3.79309 -0.961251 0
M  V30 8388 H 798.655 3.9046 0.750137 0
M  V30 8389 N 799.652 0.226554 1.55963 0
M  V30 8390 C 800.599 -0.681504 2.20509 0
M  V30 8391 C 801.569 -1.1866 1.16229 0
M  V30 8392 O 802.754 -1.24478 1.44602 0
M  V30 8393 C 799.894 -1.88183 2.89277 0
M  V30 8394 C 799.007 -1.41517 4.08163 0
M  V30 8395 C 798.142 -2.57346 4.647 0
M  V30 8396 C 797.181 -2.07441 5.75877 0
M  V30 8397 N 796.318 -3.16561 6.26685 0
M  V30 8398 H 801.158 -0.124372 2.9774 0
M  V30 8399 H 798.695 -0.0496333 1.47016 0
M  V30 8400 H 800.653 -2.58666 3.27335 0
M  V30 8401 H 799.283 -2.41177 2.14555 0
M  V30 8402 H 798.335 -0.605099 3.75557 0
M  V30 8403 H 799.647 -1.00928 4.88482 0
M  V30 8404 H 798.801 -3.35903 5.05227 0
M  V30 8405 H 797.54 -3.01227 3.83554 0
M  V30 8406 H 796.545 -1.27347 5.34848 0
M  V30 8407 H 797.77 -1.64554 6.58862 0
M  V30 8408 H 795.716 -3.59914 5.48451 0
M  V30 8409 H 795.633 -2.80239 7.02141 0
M  V30 8410 H 796.901 -3.95238 6.71868 0
M  V30 8411 N 801.13 -1.57531 -0.0467866 0
M  V30 8412 C 802.04 -2.08768 -1.07018 0
M  V30 8413 C 803.056 -1.02245 -1.40791 0
M  V30 8414 O 804.232 -1.33873 -1.50466 0
M  V30 8415 C 801.297 -2.54221 -2.35738 0
M  V30 8416 C 800.358 -3.75152 -2.08709 0
M  V30 8417 C 799.591 -4.18428 -3.31291 0
M  V30 8418 O 799.814 -3.61365 -4.4133 0
M  V30 8419 O 798.748 -5.11018 -3.18032 0
M  V30 8420 H 802.574 -2.96334 -0.664812 0
M  V30 8421 H 800.159 -1.47074 -0.262605 0
M  V30 8422 H 802.041 -2.83866 -3.11445 0
M  V30 8423 H 800.716 -1.69774 -2.75605 0
M  V30 8424 H 799.623 -3.50553 -1.30627 0
M  V30 8425 H 800.956 -4.60528 -1.73708 0
M  V30 8426 N 802.608 0.318715 -1.54344 0
M  V30 8427 C 803.854 1.05765 -1.73037 0
M  V30 8428 C 804.187 1.87514 -0.505181 0
M  V30 8429 O 803.462 1.88021 0.497838 0
M  V30 8430 C 803.745 1.97836 -3.00887 0
M  V30 8431 C 803.598 1.19384 -4.33668 0
M  V30 8432 C 804.917 2.97285 -3.24514 0
M  V30 8433 H 802.036 0.383104 -0.629603 0
M  V30 8434 H 804.678 0.333864 -1.87044 0
M  V30 8435 H 802.828 2.59552 -2.89076 0
M  V30 8436 H 804.5 0.600906 -4.57369 0
M  V30 8437 H 802.743 0.496198 -4.30953 0
M  V30 8438 H 803.414 1.87014 -5.19355 0
M  V30 8439 H 805.89 2.45693 -3.35819 0
M  V30 8440 H 804.766 3.58887 -4.15321 0
M  V30 8441 H 805.027 3.70003 -2.41971 0
M  V30 8442 N 804.086 1.46499 0.581025 0
M  V30 8443 C 805.049 1.5677 1.672 0
M  V30 8444 C 806.049 0.444716 1.54528 0
M  V30 8445 O 807.239 0.709074 1.59116 0
M  V30 8446 C 804.371 1.4896 3.06633 0
M  V30 8447 H 805.564 2.54 1.5945 0
M  V30 8448 H 803.117 1.34334 0.799003 0
M  V30 8449 H 803.852 0.530168 3.19937 0
M  V30 8450 H 803.637 2.30439 3.17239 0
M  V30 8451 H 805.127 1.59237 3.86048 0
M  V30 8452 N 805.565 -0.825799 1.34232 0
M  V30 8453 C 806.812 -1.58185 1.26427 0
M  V30 8454 C 807.14 -1.93786 -0.166533 0
M  V30 8455 O 806.395 -1.59986 -1.12707 0
M  V30 8456 C 806.694 -2.89362 2.09772 0
M  V30 8457 C 806.36 -2.73066 3.58812 0
M  V30 8458 C 805.022 -2.68329 3.99441 0
M  V30 8459 C 807.374 -2.56946 4.53462 0
M  V30 8460 C 804.702 -2.4539 5.32917 0
M  V30 8461 C 807.054 -2.35538 5.87115 0
M  V30 8462 C 805.718 -2.29212 6.26912 0
M  V30 8463 H 804.988 -0.57884 0.462629 0
M  V30 8464 H 807.635 -0.955714 1.65947 0
M  V30 8465 H 805.94 -3.56251 1.63071 0
M  V30 8466 H 807.637 -3.4694 2.01081 0
M  V30 8467 H 804.227 -2.77591 3.26559 0
M  V30 8468 H 808.411 -2.59631 4.22972 0
M  V30 8469 H 803.667 -2.38947 5.62774 0
M  V30 8470 H 807.841 -2.22051 6.6005 0
M  V30 8471 H 805.468 -2.11197 7.30274 0
M  V30 8472 N 807.043 -1.17915 -1.04565 0
M  V30 8473 C 808.289 -0.982872 -1.78076 0
M  V30 8474 C 808.644 0.482843 -1.86243 0
M  V30 8475 O 807.937 1.35383 -1.3558 0
M  V30 8476 C 808.131 -1.56528 -3.213 0
M  V30 8477 C 807.96 -3.0861 -3.27093 0
M  V30 8478 C 806.73 -3.77389 -3.36014 0
M  V30 8479 C 808.928 -4.06146 -3.15515 0
M  V30 8480 N 806.91 -5.1702 -3.31004 0
M  V30 8481 C 808.281 -5.32268 -3.17948 0
M  V30 8482 C 810.336 -3.97732 -2.99522 0
M  V30 8483 C 809.039 -6.50951 -3.06031 0
M  V30 8484 C 811.065 -5.16007 -2.88948 0
M  V30 8485 C 810.427 -6.41018 -2.9202 0
M  V30 8486 H 806.526 -0.413617 -0.66366 0
M  V30 8487 H 809.11 -1.49607 -1.24603 0
M  V30 8488 H 807.281 -1.07833 -3.73131 0
M  V30 8489 H 809.013 -1.30501 -3.83082 0
M  V30 8490 H 805.768 -3.28098 -3.41538 0
M  V30 8491 H 806.192 -5.90031 -3.31952 0
M  V30 8492 H 810.834 -3.01919 -2.95981 0
M  V30 8493 H 808.552 -7.46968 -3.08326 0
M  V30 8494 H 812.138 -5.11283 -2.77635 0
M  V30 8495 H 811.018 -7.30999 -2.83919 0
M  V30 8496 N 808.521 1.23394 -0.980386 0
M  V30 8497 C 809.749 1.95844 -0.667286 0
M  V30 8498 C 810.164 1.72574 0.765735 0
M  V30 8499 O 809.521 1.01715 1.51526 0
M  V30 8500 C 809.572 3.48844 -0.948151 0
M  V30 8501 O 809.293 3.71325 -2.32485 0
M  V30 8502 C 810.794 4.38494 -0.651002 0
M  V30 8503 H 808.014 0.623535 -0.247882 0
M  V30 8504 H 810.558 1.56885 -1.31176 0
M  V30 8505 H 808.713 3.85819 -0.349681 0
M  V30 8506 H 809.127 4.65619 -2.41452 0
M  V30 8507 H 810.601 5.44648 -0.897887 0
M  V30 8508 H 811.078 4.37236 0.414922 0
M  V30 8509 H 811.684 4.07127 -1.22995 0
M  V30 8510 N 809.999 0.752036 1.385 0
M  V30 8511 C 810.947 0.112634 2.32327 0
M  V30 8512 C 811.941 -0.707037 1.53939 0
M  V30 8513 O 813.147 -0.606309 1.69481 0
M  V30 8514 H 809.522 0.0176275 0.751793 0
M  V30 8515 H 811.493 0.920074 2.83861 0
M  V30 8516 C 810.242 -0.767458 3.39124 0
M  V30 8517 H 809.565 -0.146122 3.99533 0
M  V30 8518 H 811.005 -1.18216 4.07187 0
M  V30 8519 C 809.464 -1.90938 2.77568 0
M  V30 8520 O 809.994 -3.00342 2.66754 0
M  V30 8521 N 808.2 -1.70396 2.35401 0
M  V30 8522 H 807.747 -0.81413 2.44397 0
M  V30 8523 H 807.705 -2.46972 1.94557 0
M  V30 8524 N 811.477 -1.49425 0.500989 0
M  V30 8525 C 812.407 -2.31971 -0.266775 0
M  V30 8526 C 813.388 -1.40245 -0.962563 0
M  V30 8527 O 814.573 -1.69154 -0.953968 0
M  V30 8528 C 811.703 -3.20757 -1.33163 0
M  V30 8529 C 810.657 -4.21275 -0.75572 0
M  V30 8530 C 809.983 -4.98997 -1.92109 0
M  V30 8531 C 811.283 -5.21686 0.253213 0
M  V30 8532 H 812.977 -2.96408 0.422237 0
M  V30 8533 H 810.523 -1.4254 0.204505 0
M  V30 8534 H 812.476 -3.77315 -1.87646 0
M  V30 8535 H 811.2 -2.54263 -2.04983 0
M  V30 8536 H 809.859 -3.65861 -0.232637 0
M  V30 8537 H 809.507 -4.28951 -2.62698 0
M  V30 8538 H 809.207 -5.67011 -1.54182 0
M  V30 8539 H 810.731 -5.584 -2.47026 0
M  V30 8540 H 812.145 -5.72939 -0.203483 0
M  V30 8541 H 810.542 -5.9759 0.548322 0
M  V30 8542 H 811.612 -4.70596 1.16909 0
M  V30 8543 N 812.955 -0.234822 -1.55841 0
M  V30 8544 C 814.202 0.39326 -1.98645 0
M  V30 8545 C 814.53 1.58823 -1.12274 0
M  V30 8546 O 813.785 1.94954 -0.170731 0
M  V30 8547 C 814.084 0.858032 -3.46947 0
M  V30 8548 C 813.75 -0.227858 -4.50324 0
M  V30 8549 C 812.412 -0.526128 -4.78315 0
M  V30 8550 C 814.764 -0.961576 -5.12253 0
M  V30 8551 C 812.092 -1.5624 -5.65514 0
M  V30 8552 C 814.444 -1.98728 -6.00575 0
M  V30 8553 C 813.108 -2.29233 -6.26904 0
M  V30 8554 H 812.378 0.143904 -0.726892 0
M  V30 8555 H 815.025 -0.34012 -1.88455 0
M  V30 8556 H 813.33 1.67041 -3.54408 0
M  V30 8557 H 815.027 1.35407 -3.77447 0
M  V30 8558 H 811.617 0.0147624 -4.28597 0
M  V30 8559 H 815.801 -0.744388 -4.90686 0
M  V30 8560 H 811.057 -1.80422 -5.84173 0
M  V30 8561 H 815.231 -2.5608 -6.47608 0
M  V30 8562 H 812.858 -3.09671 -6.94268 0
M  V30 8563 N 814.433 1.57553 0.0384317 0
M  V30 8564 C 815.396 2.04927 1.02653 0
M  V30 8565 C 816.396 0.951768 1.29607 0
M  V30 8566 O 817.586 1.21568 1.24768 0
M  V30 8567 C 814.718 2.45828 2.36181 0
M  V30 8568 H 815.911 2.93474 0.617508 0
M  V30 8569 H 813.464 1.53679 0.285031 0
M  V30 8570 H 814.199 1.60408 2.8185 0
M  V30 8571 H 813.984 3.25945 2.1795 0
M  V30 8572 H 815.474 2.82939 3.0714 0
M  V30 8573 N 815.911 -0.310526 1.54511 0
M  V30 8574 C 816.858 -1.38264 1.84802 0
M  V30 8575 C 817.828 -1.50808 0.696141 0
M  V30 8576 O 819.013 -1.6582 0.943846 0
M  V30 8577 C 816.153 -2.74422 2.09252 0
M  V30 8578 C 815.266 -2.70405 3.36906 0
M  V30 8579 C 814.401 -3.98495 3.51248 0
M  V30 8580 C 813.44 -3.88836 4.72729 0
M  V30 8581 N 812.577 -5.08683 4.83928 0
M  V30 8582 H 817.417 -1.11732 2.76261 0
M  V30 8583 H 814.954 -0.540609 1.36806 0
M  V30 8584 H 816.912 -3.53593 2.21422 0
M  V30 8585 H 815.542 -2.99235 1.2107 0
M  V30 8586 H 814.594 -1.83151 3.33406 0
M  V30 8587 H 815.906 -2.59155 4.26193 0
M  V30 8588 H 815.06 -4.861 3.63031 0
M  V30 8589 H 813.799 -4.12567 2.60077 0
M  V30 8590 H 812.804 -2.99615 4.60989 0
M  V30 8591 H 814.029 -3.76318 5.65298 0
M  V30 8592 H 811.975 -5.23236 3.95677 0
M  V30 8593 H 811.892 -4.99819 5.67201 0
M  V30 8594 H 813.16 -5.97966 5.00057 0
M  V30 8595 N 817.389 -1.46805 -0.573248 0
M  V30 8596 C 818.336 -1.58084 -1.68161 0
M  V30 8597 C 819.306 -0.424636 -1.6058 0
M  V30 8598 O 820.491 -0.642623 -1.79652 0
M  V30 8599 C 817.631 -1.58601 -3.06496 0
M  V30 8600 C 816.744 -2.85023 -3.24632 0
M  V30 8601 C 815.879 -2.76981 -4.53271 0
M  V30 8602 C 814.918 -3.983 -4.64783 0
M  V30 8603 N 814.055 -3.88589 -5.84759 0
M  V30 8604 H 818.895 -2.52755 -1.57858 0
M  V30 8605 H 816.432 -1.25385 -0.769218 0
M  V30 8606 H 818.39 -1.56885 -3.86579 0
M  V30 8607 H 817.02 -0.674553 -3.15673 0
M  V30 8608 H 816.072 -2.96678 -2.38089 0
M  V30 8609 H 817.384 -3.7491 -3.29004 0
M  V30 8610 H 816.538 -2.73424 -5.41594 0
M  V30 8611 H 815.277 -1.84751 -4.51352 0
M  V30 8612 H 814.282 -4.02179 -3.74876 0
M  V30 8613 H 815.507 -4.91639 -4.68474 0
M  V30 8614 H 813.453 -2.99151 -5.83819 0
M  V30 8615 H 813.37 -4.7214 -5.90441 0
M  V30 8616 H 814.638 -3.89022 -6.75486 0
M  V30 8617 N 818.867 0.818669 -1.34668 0
M  V30 8618 C 819.83 1.9114 -1.26483 0
M  V30 8619 C 820.83 1.598 -0.179044 0
M  V30 8620 O 822.02 1.6876 -0.431952 0
M  V30 8621 C 819.152 3.27285 -0.95381 0
M  V30 8622 H 820.345 1.9982 -2.23634 0
M  V30 8623 H 817.898 1.01314 -1.19018 0
M  V30 8624 H 818.633 3.24297 0.0143428 0
M  V30 8625 H 818.418 3.51416 -1.73924 0
M  V30 8626 H 819.908 4.07299 -0.921827 0
M  V30 8627 N 820.346 1.18468 1.03938 0
M  V30 8628 C 821.592 0.982286 1.77423 0
M  V30 8629 C 821.925 -0.48679 1.88 0
M  V30 8630 O 821.2 -1.36146 1.38905 0
M  V30 8631 C 821.483 1.63929 3.20623 0
M  V30 8632 C 821.336 3.18132 3.17982 0
M  V30 8633 C 822.655 1.3536 4.18767 0
M  V30 8634 H 819.774 0.358264 0.644062 0
M  V30 8635 H 822.416 1.46154 1.21405 0
M  V30 8636 H 820.566 1.2318 3.68455 0
M  V30 8637 H 822.238 3.68024 2.78129 0
M  V30 8638 H 820.481 3.50225 2.55978 0
M  V30 8639 H 821.152 3.5924 4.19107 0
M  V30 8640 H 823.628 1.70669 3.79488 0
M  V30 8641 H 822.504 1.83896 5.17178 0
M  V30 8642 H 822.765 0.276722 4.41233 0
M  V30 8643 N 821.824 -1.22873 0.986916 0
M  V30 8644 C 822.734 -2.28277 0.540978 0
M  V30 8645 C 823.75 -1.69164 -0.407363 0
M  V30 8646 O 824.926 -1.99504 -0.275674 0
M  V30 8647 C 821.991 -3.46404 -0.143181 0
M  V30 8648 C 821.052 -4.20854 0.847375 0
M  V30 8649 C 820.285 -5.33341 0.19577 0
M  V30 8650 O 820.508 -5.61356 -1.0117 0
M  V30 8651 O 819.442 -5.95169 0.897623 0
M  V30 8652 H 823.268 -2.68578 1.41773 0
M  V30 8653 H 820.853 -1.28927 0.754867 0
M  V30 8654 H 822.735 -4.18096 -0.526676 0
M  V30 8655 H 821.41 -3.08041 -0.994593 0
M  V30 8656 H 820.317 -3.51459 1.28169 0
M  V30 8657 H 821.65 -4.63082 1.6678 0
M  V30 8658 N 823.302 -0.75937 -1.38099 0
M  V30 8659 C 824.249 -0.135508 -2.30402 0
M  V30 8660 C 825.219 0.703356 -1.50473 0
M  V30 8661 O 826.404 0.658287 -1.79084 0
M  V30 8662 C 823.544 0.747228 -3.36913 0
M  V30 8663 C 822.657 -0.106893 -4.31868 0
M  V30 8664 C 821.792 0.779388 -5.25451 0
M  V30 8665 C 820.831 -0.0780179 -6.1205 0
M  V30 8666 N 819.968 0.765545 -6.97914 0
M  V30 8667 H 824.808 -0.9282 -2.83176 0
M  V30 8668 H 822.345 -0.46935 -1.39411 0
M  V30 8669 H 824.303 1.27371 -3.97281 0
M  V30 8670 H 822.933 1.50565 -2.85535 0
M  V30 8671 H 821.985 -0.751063 -3.72912 0
M  V30 8672 H 823.297 -0.768798 -4.9284 0
M  V30 8673 H 822.451 1.37282 -5.90964 0
M  V30 8674 H 821.19 1.47501 -4.6486 0
M  V30 8675 H 820.195 -0.684078 -5.45528 0
M  V30 8676 H 821.42 -0.770786 -6.74712 0
M  V30 8677 H 819.366 1.44601 -6.39864 0
M  V30 8678 H 819.283 0.160666 -7.55829 0
M  V30 8679 H 820.551 1.34377 -7.6783 0
M  V30 8680 N 824.78 1.49157 -0.508906 0
M  V30 8681 C 826.191 1.86593 -0.0630975 0
M  V30 8682 C 826.542 1.42051 1.35337 0
M  V30 8683 O 825.667 0.801866 2.00995 0
M  V30 8684 C 826.262 3.38629 -0.107729 0
M  V30 8685 C 824.821 3.75336 0.282776 0
M  V30 8686 C 823.968 2.7317 -0.4768 0
M  V30 8687 H 826.919 1.41362 -0.72128 0
M  V30 8688 H 826.94 3.74271 0.685689 0
M  V30 8689 H 826.452 3.71017 -1.13876 0
M  V30 8690 H 824.553 3.48558 1.31675 0
M  V30 8691 H 824.666 4.79081 -0.0421728 0
M  V30 8692 H 823.03 2.54591 0.0743552 0
M  V30 8693 H 823.813 3.08403 -1.50807 0
M  V30 8694 N 826.258 0.243083 1.55714 0
M  V30 8695 C 827.669 -0.260788 1.8487 0
M  V30 8696 C 828.02 -1.57879 1.16485 0
M  V30 8697 O 827.145 -2.1184 0.441908 0
M  V30 8698 C 827.74 -0.479954 3.35383 0
M  V30 8699 C 826.299 -0.928096 3.64778 0
M  V30 8700 C 825.446 -0.00316416 2.773 0
M  V30 8701 H 828.397 0.465743 1.51712 0
M  V30 8702 H 828.418 -1.32308 3.56756 0
M  V30 8703 H 827.93 0.479468 3.85127 0
M  V30 8704 H 826.031 -1.90012 3.20509 0
M  V30 8705 H 826.144 -0.7876 4.72582 0
M  V30 8706 H 824.508 -0.513849 2.49463 0
M  V30 8707 H 825.291 0.951562 3.29849 0
M  V30 8708 N 827.736 -1.57571 -0.0300757 0
M  V30 8709 C 828.668 -2.0329 -1.05857 0
M  V30 8710 C 829.681 -0.945543 -1.32527 0
M  V30 8711 O 830.87 -1.22287 -1.30032 0
M  V30 8712 C 827.97 -2.39234 -2.40042 0
M  V30 8713 C 827.143 -3.70337 -2.32743 0
M  V30 8714 C 826.202 -3.93482 -3.49369 0
M  V30 8715 O 825.228 -4.64551 -3.28909 0
M  V30 8716 N 826.43 -3.39042 -4.71201 0
M  V30 8717 H 829.195 -2.9214 -0.668897 0
M  V30 8718 H 826.756 -1.60425 -0.218038 0
M  V30 8719 H 828.748 -2.51856 -3.16782 0
M  V30 8720 H 827.318 -1.5606 -2.70858 0
M  V30 8721 H 826.538 -3.68079 -1.41109 0
M  V30 8722 H 827.826 -4.56343 -2.25007 0
M  V30 8723 H 827.224 -2.81434 -4.90725 0
M  V30 8724 H 825.781 -3.57045 -5.45309 0
M  V30 8725 N 829.214 0.302327 -1.54673 0
M  V30 8726 C 830.442 1.05669 -1.77881 0
M  V30 8727 C 830.857 1.80983 -0.537648 0
M  V30 8728 O 830.214 1.7573 0.492467 0
M  V30 8729 C 830.265 2.03828 -2.98557 0
M  V30 8730 O 829.986 1.3157 -4.17877 0
M  V30 8731 C 831.487 2.91314 -3.34143 0
M  V30 8732 H 828.707 0.313436 -0.593295 0
M  V30 8733 H 831.251 0.342003 -2.0162 0
M  V30 8734 H 829.406 2.70801 -2.7703 0
M  V30 8735 H 829.82 1.97481 -4.85903 0
M  V30 8736 H 831.294 3.56042 -4.21827 0
M  V30 8737 H 831.771 3.59544 -2.52239 0
M  V30 8738 H 832.377 2.29874 -3.57824 0
M  V30 8739 N 830.692 1.47107 0.565454 0
M  V30 8740 C 831.602 1.61591 1.70075 0
M  V30 8741 C 832.618 0.498931 1.66693 0
M  V30 8742 O 833.794 0.765372 1.8629 0
M  V30 8743 C 830.859 1.61887 3.06583 0
M  V30 8744 C 829.92 2.84949 3.21096 0
M  V30 8745 C 829.153 2.85221 4.51093 0
M  V30 8746 O 829.376 1.94959 5.36048 0
M  V30 8747 O 828.31 3.76982 4.69221 0
M  V30 8748 H 832.136 2.57638 1.60799 0
M  V30 8749 H 829.721 1.30097 0.73451 0
M  V30 8750 H 831.603 1.64809 3.87835 0
M  V30 8751 H 830.278 0.69005 3.16259 0
M  V30 8752 H 829.185 2.87575 2.39273 0
M  V30 8753 H 830.518 3.77098 3.1632 0
M  V30 8754 N 832.17 -0.811516 1.35101 0
M  V30 8755 C 833.12 -1.91227 1.24163 0
M  V30 8756 C 834.104 -1.60307 0.138012 0
M  V30 8757 O 835.296 -1.73116 0.368767 0
M  V30 8758 C 832.425 -3.2808 1.01085 0
M  V30 8759 C 831.511 -3.65082 2.15815 0
M  V30 8760 N 831.902 -3.73558 3.4101 0
M  V30 8761 C 830.2 -3.95005 2.07092 0
M  V30 8762 C 830.901 -4.06158 4.16426 0
M  V30 8763 N 829.877 -4.19982 3.45132 0
M  V30 8764 H 833.679 -1.95975 2.19023 0
M  V30 8765 H 831.193 -1.00583 1.27503 0
M  V30 8766 H 833.19 -4.06771 0.913382 0
M  V30 8767 H 831.85 -3.24622 0.0710406 0
M  V30 8768 H 832.861 -3.56761 3.75423 0
M  V30 8769 H 829.538 -3.99601 1.20937 0
M  V30 8770 H 830.928 -4.19824 5.24592 0
M  V30 8771 N 833.648 -1.19017 -1.03309 0
M  V30 8772 C 834.897 -0.984542 -1.76039 0
M  V30 8773 C 835.21 0.485937 -1.89468 0
M  V30 8774 O 836.416 0.810278 -2.59127 0
M  V30 8775 C 834.872 -1.71261 -3.1654 0
M  V30 8776 C 834.48 -3.22291 -3.11179 0
M  V30 8777 C 836.224 -1.59007 -3.93595 0
M  V30 8778 C 834.131 -3.87704 -4.46587 0
M  V30 8779 H 833.061 -0.364749 -0.659905 0
M  V30 8780 H 835.712 -1.4247 -1.15649 0
M  V30 8781 H 834.094 -1.20025 -3.77373 0
M  V30 8782 H 835.268 -3.80611 -2.59753 0
M  V30 8783 H 833.583 -3.34772 -2.47622 0
M  V30 8784 H 836.18 -2.05232 -4.93745 0
M  V30 8785 H 836.523 -0.543534 -4.12736 0
M  V30 8786 H 837.056 -2.07564 -3.39355 0
M  V30 8787 H 833.795 -4.92437 -4.3265 0
M  V30 8788 H 833.315 -3.34172 -4.98085 0
M  V30 8789 H 834.994 -3.91008 -5.15482 0
M  V30 8790 N 835.127 1.22348 -0.993418 0
M  V30 8791 C 836.037 2.27987 -0.553076 0
M  V30 8792 C 837.053 1.69378 0.398386 0
M  V30 8793 O 838.229 1.99648 0.26509 0
M  V30 8794 C 835.294 3.46475 0.124809 0
M  V30 8795 C 834.355 4.20399 -0.869682 0
M  V30 8796 C 833.588 5.33229 -0.224052 0
M  V30 8797 O 833.811 5.61885 0.981915 0
M  V30 8798 O 832.745 5.94685 -0.929174 0
M  V30 8799 H 836.571 2.67822 -1.43195 0
M  V30 8800 H 834.156 1.28525 -0.761694 0
M  V30 8801 H 836.038 4.18369 0.504496 0
M  V30 8802 H 834.713 3.08565 0.978243 0
M  V30 8803 H 833.62 3.50774 -1.30031 0
M  V30 8804 H 834.953 4.62191 -1.69233 0
M  V30 8805 N 836.605 0.766683 1.37694 0
M  V30 8806 C 837.535 0.163432 2.32927 0
M  V30 8807 C 838.516 -0.688861 1.55527 0
M  V30 8808 O 839.701 -0.627363 1.83787 0
M  V30 8809 C 836.831 -0.720416 3.39746 0
M  V30 8810 C 835.785 0.0301718 4.27989 0
M  V30 8811 C 835.111 -0.972788 5.25776 0
M  V30 8812 C 836.411 1.20623 5.0818 0
M  V30 8813 H 838.105 0.958988 2.83626 0
M  V30 8814 H 835.651 0.462601 1.36367 0
M  V30 8815 H 837.604 -1.15221 4.05342 0
M  V30 8816 H 836.328 -1.54844 2.8756 0
M  V30 8817 H 834.987 0.442685 3.63917 0
M  V30 8818 H 834.635 -1.79522 4.69873 0
M  V30 8819 H 834.335 -0.475145 5.85676 0
M  V30 8820 H 835.859 -1.40362 5.94248 0
M  V30 8821 H 837.273 0.851341 5.66944 0
M  V30 8822 H 835.67 1.63561 5.7738 0
M  V30 8823 H 836.74 2.01281 4.41151 0
M  V30 8824 O 838.122 -1.47474 0.658306 0
M  V30 8825 H 838.813 -1.92811 0.185369 0
M  V30 END ATOM
M  V30 BEGIN BOND
M  V30 END BOND
M  V30 END CTAB
M  END
$$$$
