drugbank_target|P07947 Tyrosine-protein kinase Yes (DB01254; DB12010)
 OpenBabel12092119413D

  0  0  0     0  0            999 V3000
M  V30 BEGIN CTAB
M  V30 COUNTS 8501 8607 0 0 0
M  V30 BEGIN ATOM
M  V30 1 H -0.908 1.98254 -0.117106 0
M  V30 2 N 0 1.576 0 0
M  V30 3 C 0.933 2.03868 1.02534 0
M  V30 4 C 1.911 0.928543 1.3348 0
M  V30 5 O 3.095 1.19667 1.45644 0
M  V30 6 C 0.222 2.43627 2.35294 0
M  V30 7 C -0.732 3.65373 2.2001 0
M  V30 8 S 0.101 5.13292 1.52614 0
M  V30 9 C 1.257 5.56322 2.86805 0
M  V30 10 H 1.49 2.90518 0.631377 0
M  V30 11 H -0.977 1.52953 0.210867 0
M  V30 12 H 0.981 2.67203 3.11629 0
M  V30 13 H -0.358 1.57376 2.7183 0
M  V30 14 H -1.165 3.90944 3.18086 0
M  V30 15 H -1.563 3.418 1.51819 0
M  V30 16 H 0.729 5.58782 3.83104 0
M  V30 17 H 1.672 6.56266 2.65933 0
M  V30 18 H 2.08 4.83886 2.90714 0
M  V30 19 N 1.4781 -0.272755 1.55222 0
M  V30 20 C 2.7261 -1.00234 1.75492 0
M  V30 21 C 3.0471 -1.8681 0.5592 0
M  V30 22 O 2.3171 -1.91215 -0.425882 0
M  V30 23 H 0.8971 -0.373076 0.647166 0
M  V30 24 H 3.5591 -0.296926 1.92625 0
M  V30 25 H 2.6551 -1.63913 2.65592 0
M  V30 26 N 2.9562 -1.48159 -0.537278 0
M  V30 27 C 4.1962 -1.57397 -1.30405 0
M  V30 28 C 4.5602 -0.239202 -1.90504 0
M  V30 29 O 5.7612 -0.206528 -2.68005 0
M  V30 30 C 4.0322 -2.6754 -2.36974 0
M  V30 31 S 5.5912 -2.96496 -3.23475 0
M  V30 32 H 2.4092 -0.555577 -0.443684 0
M  V30 33 H 5.0112 -1.85644 -0.612912 0
M  V30 34 H 3.7152 -3.63092 -1.91291 0
M  V30 35 H 3.2462 -2.41172 -3.10805 0
M  V30 36 H 5.2612 -2.35234 -4.36897 0
M  V30 37 N 4.4343 0.785586 -1.36625 0
M  V30 38 C 5.6833 1.53883 -1.30396 0
M  V30 39 C 5.9963 1.95271 0.113452 0
M  V30 40 O 7.2023 2.69858 0.298142 0
M  V30 41 C 5.6583 2.77808 -2.28802 0
M  V30 42 C 5.2663 2.43574 -3.75999 0
M  V30 43 C 7.0103 3.55783 -2.31558 0
M  V30 44 C 4.9173 3.63919 -4.66173 0
M  V30 45 H 3.8473 0.577678 -0.484566 0
M  V30 46 H 6.4983 0.861705 -1.62009 0
M  V30 47 H 4.8803 3.47339 -1.90188 0
M  V30 48 H 6.0543 1.81916 -4.23371 0
M  V30 49 H 4.3693 1.78803 -3.76056 0
M  V30 50 H 6.9663 4.45205 -2.96137 0
M  V30 51 H 7.3093 3.94644 -1.3252 0
M  V30 52 H 7.8423 2.93235 -2.68809 0
M  V30 53 H 4.5813 3.3015 -5.66287 0
M  V30 54 H 4.1013 4.2473 -4.23515 0
M  V30 55 H 5.7803 4.30901 -4.82632 0
M  V30 56 N 5.9124 1.20967 1.01018 0
M  V30 57 C 6.8594 0.964281 2.09691 0
M  V30 58 C 7.8294 -0.107853 1.65749 0
M  V30 59 O 9.0144 0.0381987 1.90762 0
M  V30 60 C 6.1544 0.52943 3.41015 0
M  V30 61 C 5.2674 1.67043 3.98398 0
M  V30 62 C 4.4024 1.18525 5.17808 0
M  V30 63 C 3.4414 2.29892 5.67288 0
M  V30 64 N 2.5784 1.82546 6.77954 0
M  V30 65 H 7.4184 1.89463 2.30017 0
M  V30 66 H 4.9554 0.944289 1.1279 0
M  V30 67 H 6.9134 0.258588 4.16398 0
M  V30 68 H 5.5434 -0.363919 3.20742 0
M  V30 69 H 4.5954 2.05603 3.20049 0
M  V30 70 H 5.9074 2.50877 4.31117 0
M  V30 71 H 5.0614 0.870762 6.00419 0
M  V30 72 H 3.8004 0.316887 4.86669 0
M  V30 73 H 2.8054 2.6215 4.83278 0
M  V30 74 H 4.0304 3.17216 6.00459 0
M  V30 75 H 1.9764 0.980454 6.48632 0
M  V30 76 H 1.8934 2.59956 7.09901 0
M  V30 77 H 3.1614 1.54115 7.64113 0
M  V30 78 N 7.3905 -1.2043 1.01659 0
M  V30 79 C 8.6155 -1.94318 0.724942 0
M  V30 80 C 9.0405 -1.74266 -0.708034 0
M  V30 81 O 8.3985 -1.03694 -1.48719 0
M  V30 82 C 8.4465 -3.44486 1.06591 0
M  V30 83 O 7.5505 -4.12017 0.177599 0
M  V30 84 H 6.8915 -0.60708 0.26898 0
M  V30 85 H 9.4215 -1.52861 1.35995 0
M  V30 86 H 9.4315 -3.95106 1.01762 0
M  V30 87 H 8.1065 -3.58404 2.10997 0
M  V30 88 H 6.6835 -3.71821 0.283421 0
M  V30 89 N 8.8686 -0.792821 -1.36206 0
M  V30 90 C 9.8156 -0.191653 -2.30003 0
M  V30 91 C 10.7856 0.666453 -1.52143 0
M  V30 92 O 11.9706 0.61442 -1.80636 0
M  V30 93 C 9.1106 0.664848 -3.38635 0
M  V30 94 C 8.2236 -0.212175 -4.31479 0
M  V30 95 C 7.3586 0.651022 -5.27196 0
M  V30 96 C 6.3976 -0.227247 -6.11678 0
M  V30 97 N 5.5346 0.595127 -6.99573 0
M  V30 98 H 10.3746 -0.996978 -2.80828 0
M  V30 99 H 7.9116 -0.503206 -1.38225 0
M  V30 100 H 9.8696 1.17645 -4.00269 0
M  V30 101 H 8.4996 1.43557 -2.89122 0
M  V30 102 H 7.5516 -0.841777 -3.70969 0
M  V30 103 H 8.8636 -0.888751 -4.90818 0
M  V30 104 H 8.0176 1.2283 -5.94136 0
M  V30 105 H 6.7566 1.36121 -4.68319 0
M  V30 106 H 5.7616 -0.816904 -5.43697 0
M  V30 107 H 6.9866 -0.93509 -6.72631 0
M  V30 108 H 4.9326 1.28955 -6.432 0
M  V30 109 H 4.8496 -0.0236952 -7.55996 0
M  V30 110 H 6.1176 1.15613 -7.70879 0
M  V30 111 N 10.3467 1.47872 -0.545128 0
M  V30 112 C 11.2567 2.33633 0.212746 0
M  V30 113 C 12.2727 1.4744 0.923983 0
M  V30 114 O 13.4487 1.80393 0.895572 0
M  V30 115 C 10.5137 3.23884 1.23693 0
M  V30 116 C 9.5747 4.25961 0.534417 0
M  V30 117 C 8.8077 5.11899 1.5098 0
M  V30 118 O 9.0307 5.00077 2.7437 0
M  V30 119 O 7.9647 5.92831 1.0409 0
M  V30 120 H 11.7907 2.99714 -0.490416 0
M  V30 121 H 9.3757 1.46235 -0.305871 0
M  V30 122 H 11.2577 3.79666 1.82843 0
M  V30 123 H 9.9327 2.60446 1.92222 0
M  V30 124 H 8.8397 3.73972 -0.0979679 0
M  V30 125 H 10.1727 4.92079 -0.109213 0
M  V30 126 N 11.8248 0.280983 1.55075 0
M  V30 127 C 12.7728 -0.619864 2.24188 0
M  V30 128 C 13.7668 -1.15315 1.24092 0
M  V30 129 O 14.9728 -1.1061 1.42005 0
M  V30 130 H 11.3478 -0.218459 0.719569 0
M  V30 131 H 13.3188 -0.0141831 2.98397 0
M  V30 132 C 12.0678 -1.7899 2.98091 0
M  V30 133 H 11.3908 -1.38874 3.74905 0
M  V30 134 H 12.8308 -2.39672 3.49762 0
M  V30 135 C 11.2898 -2.68192 2.03899 0
M  V30 136 O 11.8198 -3.6872 1.594 0
M  V30 137 N 10.0258 -2.35488 1.70275 0
M  V30 138 H 9.5728 -1.53787 2.06658 0
M  V30 139 H 9.5308 -2.95442 1.07524 0
M  V30 140 N 13.3029 -1.57598 0.00835791 0
M  V30 141 C 14.2499 -2.08945 -0.980346 0
M  V30 142 C 15.2199 -0.986738 -1.33614 0
M  V30 143 O 16.4049 -1.25968 -1.43306 0
M  V30 144 C 13.5449 -2.60425 -2.26435 0
M  V30 145 C 12.6579 -3.84628 -1.96685 0
M  V30 146 C 11.7929 -4.24579 -3.19228 0
M  V30 147 C 10.8319 -5.41596 -2.85202 0
M  V30 148 N 9.9689 -5.768 -4.00307 0
M  V30 149 H 14.8089 -2.93148 -0.535551 0
M  V30 150 H 12.3459 -1.44912 -0.252776 0
M  V30 151 H 14.3039 -2.88354 -3.01509 0
M  V30 152 H 12.9339 -1.79083 -2.68568 0
M  V30 153 H 11.9859 -3.63556 -1.11942 0
M  V30 154 H 13.2979 -4.69796 -1.67611 0
M  V30 155 H 12.4519 -4.53834 -4.02641 0
M  V30 156 H 11.1909 -3.38137 -3.51447 0
M  V30 157 H 10.1959 -5.12056 -2.00198 0
M  V30 158 H 11.4209 -6.29721 -2.54222 0
M  V30 159 H 9.3669 -4.93316 -4.32407 0
M  V30 160 H 9.2839 -6.5656 -3.74786 0
M  V30 161 H 10.5519 -6.10652 -4.84484 0
M  V30 162 N 14.781 0.264519 -1.55364 0
M  V30 163 C 16.006 1.01726 -1.80739 0
M  V30 164 C 16.431 1.78836 -0.583044 0
M  V30 165 O 15.789 1.75167 0.467566 0
M  V30 166 C 15.837 1.94482 -3.03659 0
M  V30 167 O 14.941 3.03386 -2.7934 0
M  V30 168 H 14.282 0.290395 -0.597132 0
M  V30 169 H 16.812 0.290854 -2.02522 0
M  V30 170 H 16.822 2.36278 -3.32621 0
M  V30 171 H 15.497 1.37772 -3.92418 0
M  V30 172 H 14.074 2.65844 -2.61498 0
M  V30 173 N 16.2591 1.48442 0.529413 0
M  V30 174 C 17.6701 1.5002 1.11134 0
M  V30 175 C 18.0211 0.27031 1.94329 0
M  V30 176 O 17.1461 -0.622507 2.07253 0
M  V30 177 C 17.7411 2.71834 2.02217 0
M  V30 178 C 16.3001 2.76283 2.55627 0
M  V30 179 C 15.4471 2.43542 1.326 0
M  V30 180 H 18.3981 1.5555 0.314641 0
M  V30 181 H 18.4191 2.50384 2.8651 0
M  V30 182 H 17.9311 3.61331 1.41639 0
M  V30 183 H 16.0321 1.90995 3.19924 0
M  V30 184 H 16.1451 3.77725 2.94721 0
M  V30 185 H 14.5091 1.94709 1.64196 0
M  V30 186 H 15.2921 3.3528 0.737734 0
M  V30 187 N 17.7372 -0.778329 1.37039 0
M  V30 188 C 18.7002 -1.87301 1.32102 0
M  V30 189 C 19.7002 -1.59198 0.226405 0
M  V30 190 O 20.8902 -1.67403 0.481861 0
M  V30 191 C 18.0222 -3.24309 1.05055 0
M  V30 192 H 19.2152 -1.93093 2.29467 0
M  V30 193 H 16.7682 -0.977358 1.21973 0
M  V30 194 H 17.5032 -3.24196 0.0819373 0
M  V30 195 H 17.2882 -3.46098 1.84279 0
M  V30 196 H 18.7782 -4.04382 1.04234 0
M  V30 197 N 19.2153 -1.21501 -1.00376 0
M  V30 198 C 20.4643 -1.02718 -1.73586 0
M  V30 199 C 20.7773 0.439589 -1.90596 0
M  V30 200 O 21.9833 0.746848 -2.61026 0
M  V30 201 C 20.4393 -1.78929 -3.1227 0
M  V30 202 C 20.0473 -3.29783 -3.03228 0
M  V30 203 C 21.7913 -1.68557 -3.89601 0
M  V30 204 C 19.6983 -3.98479 -4.36999 0
M  V30 205 H 18.6283 -0.380733 -0.650814 0
M  V30 206 H 21.2793 -1.45248 -1.1214 0
M  V30 207 H 19.6613 -1.29192 -3.74333 0
M  V30 208 H 20.8353 -3.86832 -2.50395 0
M  V30 209 H 19.1503 -3.40711 -2.39385 0
M  V30 210 H 21.7473 -2.17211 -4.88593 0
M  V30 211 H 22.0903 -0.644021 -4.11288 0
M  V30 212 H 22.6233 -2.15778 -3.34193 0
M  V30 213 H 19.3623 -5.02841 -4.20513 0
M  V30 214 H 18.8823 -3.46219 -4.89788 0
M  V30 215 H 20.5613 -4.03462 -5.05794 0
M  V30 216 N 20.6934 1.19889 -1.02296 0
M  V30 217 C 21.6404 2.22901 -0.598651 0
M  V30 218 C 22.6104 1.61588 0.384521 0
M  V30 219 O 23.7954 1.88697 0.282522 0
M  V30 220 C 20.9354 3.45063 0.0504476 0
M  V30 221 C 20.0484 4.20783 -0.978053 0
M  V30 222 C 19.1834 5.30356 -0.299338 0
M  V30 223 C 18.2224 5.97826 -1.31416 0
M  V30 224 N 17.3594 6.98975 -0.661667 0
M  V30 225 H 22.1994 2.58554 -1.48169 0
M  V30 226 H 19.7364 1.27039 -0.741584 0
M  V30 227 H 21.6944 4.14831 0.443971 0
M  V30 228 H 20.3244 3.10084 0.897097 0
M  V30 229 H 19.3764 3.50018 -1.48969 0
M  V30 230 H 20.6884 4.67109 -1.74958 0
M  V30 231 H 19.8424 6.06516 0.149347 0
M  V30 232 H 18.5814 4.85084 0.504445 0
M  V30 233 H 17.5864 5.20422 -1.77317 0
M  V30 234 H 18.8114 6.45183 -2.11933 0
M  V30 235 H 16.7574 6.55886 0.122132 0
M  V30 236 H 16.6744 7.43461 -1.37117 0
M  V30 237 H 17.9424 7.7914 -0.236785 0
M  V30 238 N 22.1715 0.800033 1.35784 0
M  V30 239 C 23.4015 0.389041 2.02904 0
M  V30 240 C 23.8095 -1.0027 1.60445 0
M  V30 241 O 23.1525 -1.65633 0.794453 0
M  V30 242 C 23.2145 0.385495 3.57427 0
M  V30 243 C 22.8785 1.72662 4.23127 0
M  V30 244 C 23.8755 2.68385 4.4527 0
M  V30 245 C 21.5605 2.00883 4.60381 0
M  V30 246 C 23.5545 3.90517 5.03761 0
M  V30 247 C 21.2415 3.2328 5.18588 0
M  V30 248 C 22.2395 4.17915 5.40218 0
M  V30 249 O 21.9275 5.38153 5.97199 0
M  V30 250 H 21.6595 0.157032 0.657508 0
M  V30 251 H 24.2135 1.08311 1.74522 0
M  V30 252 H 22.4435 -0.365128 3.84972 0
M  V30 253 H 24.1325 -0.00228296 4.059 0
M  V30 254 H 24.8985 2.47872 4.16874 0
M  V30 255 H 20.7775 1.28037 4.42863 0
M  V30 256 H 24.3215 4.64395 5.2056 0
M  V30 257 H 20.2185 3.43667 5.4641 0
M  V30 258 H 20.9865 5.3936 6.15656 0
M  V30 259 N 23.6496 -1.47581 0.552962 0
M  V30 260 C 25.0656 -1.5818 0.212424 0
M  V30 261 C 25.2656 -1.55213 -1.28496 0
M  V30 262 O 24.3216 -1.45329 -2.06484 0
M  V30 263 C 25.6346 -2.88865 0.835318 0
M  V30 264 C 27.1826 -3.0244 0.806156 0
M  V30 265 C 27.6576 -4.35819 1.40804 0
M  V30 266 N 29.1486 -4.42444 1.37103 0
M  V30 267 C 29.8836 -5.44202 1.80641 0
M  V30 268 N 29.3796 -6.52795 2.32015 0
M  V30 269 N 31.1726 -5.35222 1.71738 0
M  V30 270 H 23.3236 -1.47753 1.52587 0
M  V30 271 H 25.5866 -0.702941 0.636064 0
M  V30 272 H 25.2926 -2.9676 1.88749 0
M  V30 273 H 25.1666 -3.7579 0.325848 0
M  V30 274 H 27.5536 -2.94144 -0.237317 0
M  V30 275 H 27.6346 -2.17068 1.35334 0
M  V30 276 H 27.2786 -4.44871 2.45056 0
M  V30 277 H 27.2086 -5.19916 0.836338 0
M  V30 278 H 29.6996 -3.6456 0.995202 0
M  V30 279 H 30.0126 -7.26609 2.63171 0
M  V30 280 H 28.3576 -6.53696 2.36023 0
M  V30 281 H 31.5486 -4.49284 1.31382 0
M  V30 282 H 31.7216 -6.14389 2.05987 0
M  V30 283 N 25.1277 -0.289203 -1.54924 0
M  V30 284 C 26.5387 0.205791 -1.85562 0
M  V30 285 C 26.8897 1.54351 -1.2112 0
M  V30 286 O 26.0147 2.10435 -0.504601 0
M  V30 287 C 26.6097 0.380177 -3.3666 0
M  V30 288 C 25.1687 0.819395 -3.67373 0
M  V30 289 C 24.3157 -0.079159 -2.77187 0
M  V30 290 H 27.2667 -0.510577 -1.50262 0
M  V30 291 H 27.2877 1.21659 -3.60526 0
M  V30 292 H 26.7997 -0.593589 -3.83534 0
M  V30 293 H 24.9007 1.80413 -3.26009 0
M  V30 294 H 25.0137 0.646957 -4.74712 0
M  V30 295 H 23.3777 0.439565 -2.50878 0
M  V30 296 H 24.1607 -1.04906 -3.26878 0
M  V30 297 N 26.6058 1.57591 -0.0167156 0
M  V30 298 C 27.5158 2.1291 0.98521 0
M  V30 299 C 28.5318 1.07834 1.36557 0
M  V30 300 O 29.7078 1.39826 1.44951 0
M  V30 301 C 26.7728 2.63512 2.25305 0
M  V30 302 C 25.8338 3.83256 1.93426 0
M  V30 303 C 25.0668 4.31435 3.14165 0
M  V30 304 O 25.2898 3.78851 4.26413 0
M  V30 305 O 24.2238 5.23416 2.97186 0
M  V30 306 H 28.0498 2.98772 0.544888 0
M  V30 307 H 25.6348 1.48012 0.203141 0
M  V30 308 H 27.5168 2.96183 2.99756 0
M  V30 309 H 26.1918 1.8074 2.68542 0
M  V30 310 H 25.0988 3.55531 1.16398 0
M  V30 311 H 26.4318 4.67153 1.55013 0
M  V30 312 N 28.0839 -0.256276 1.55502 0
M  V30 313 C 29.0319 -1.33694 1.90338 0
M  V30 314 C 30.0259 -1.50299 0.781441 0
M  V30 315 O 31.2319 -1.51885 0.965966 0
M  V30 316 H 27.6069 -0.447483 0.60437 0
M  V30 317 H 29.5779 -1.01574 2.8058 0
M  V30 318 C 28.3269 -2.68724 2.20642 0
M  V30 319 H 27.6499 -2.56743 3.06469 0
M  V30 320 H 29.0899 -3.43237 2.48926 0
M  V30 321 C 27.5489 -3.21101 1.01959 0
M  V30 322 O 28.0789 -4.0084 0.262762 0
M  V30 323 N 26.2849 -2.79003 0.812746 0
M  V30 324 H 25.8319 -2.14271 1.42989 0
M  V30 325 H 25.7899 -3.14393 0.0203076 0
M  V30 326 N 29.562 -1.4872 -0.521534 0
M  V30 327 C 30.79 -1.60843 -1.30142 0
M  V30 328 C 31.205 -0.271897 -1.86832 0
M  V30 329 O 30.562 0.739969 -1.66825 0
M  V30 330 C 30.613 -2.66155 -2.4463 0
M  V30 331 O 30.334 -3.94623 -1.90275 0
M  V30 332 C 31.835 -2.88795 -3.36322 0
M  V30 333 H 29.055 -0.542075 -0.395468 0
M  V30 334 H 31.599 -1.94609 -0.628285 0
M  V30 335 H 29.754 -2.35224 -3.07812 0
M  V30 336 H 30.168 -4.52468 -2.65279 0
M  V30 337 H 31.642 -3.66264 -4.12983 0
M  V30 338 H 32.119 -1.97934 -3.9207 0
M  V30 339 H 32.725 -3.21063 -2.78924 0
M  V30 340 N 31.0401 0.771051 -1.3745 0
M  V30 341 C 32.4511 1.34737 -1.29239 0
M  V30 342 C 32.8021 1.96109 0.0596908 0
M  V30 343 O 31.9271 1.93865 0.961534 0
M  V30 344 C 32.5221 2.44973 -2.34037 0
M  V30 345 C 31.0811 2.98372 -2.29458 0
M  V30 346 C 30.2281 1.71595 -2.17831 0
M  V30 347 H 33.1791 0.571256 -1.48062 0
M  V30 348 H 33.2001 3.24471 -1.98744 0
M  V30 349 H 32.7121 2.00276 -3.32432 0
M  V30 350 H 30.8131 3.47443 -1.34589 0
M  V30 351 H 30.9261 3.53939 -3.229 0
M  V30 352 H 29.2901 1.94547 -1.64388 0
M  V30 353 H 30.0731 1.29001 -3.18141 0
M  V30 354 N 32.5182 1.22032 0.997298 0
M  V30 355 C 33.4282 1.00271 2.12092 0
M  V30 356 C 34.4442 -0.047621 1.73935 0
M  V30 357 O 35.6202 0.144136 2.00884 0
M  V30 358 C 32.6852 0.578449 3.4184 0
M  V30 359 C 31.7462 1.70189 3.94125 0
M  V30 360 C 30.9792 1.29778 5.17681 0
M  V30 361 O 31.2022 0.174676 5.70132 0
M  V30 362 O 30.1362 2.11261 5.63607 0
M  V30 363 H 33.9622 1.94398 2.3333 0
M  V30 364 H 31.5472 1.00587 1.10465 0
M  V30 365 H 33.4292 0.351998 4.19927 0
M  V30 366 H 32.1042 -0.334019 3.21972 0
M  V30 367 H 31.0112 1.98282 3.1723 0
M  V30 368 H 32.3442 2.59206 4.18417 0
M  V30 369 N 33.9963 -1.19345 1.0293 0
M  V30 370 C 35.4073 -1.70725 0.755633 0
M  V30 371 C 35.7583 -1.82326 -0.724676 0
M  V30 372 O 34.8833 -1.49471 -1.56484 0
M  V30 373 C 35.4783 -3.10084 1.36503 0
M  V30 374 C 34.0373 -3.58723 1.13994 0
M  V30 375 C 33.1843 -2.35577 1.46283 0
M  V30 376 H 36.1353 -1.0418 1.19718 0
M  V30 377 H 36.1563 -3.72787 0.762217 0
M  V30 378 H 35.6683 -3.01609 2.44241 0
M  V30 379 H 33.7693 -3.72512 0.0807901 0
M  V30 380 H 33.8823 -4.42816 1.82894 0
M  V30 381 H 32.2463 -2.38935 0.88217 0
M  V30 382 H 33.0293 -2.29731 2.55105 0
M  V30 383 N 35.4744 -0.807222 -1.35358 0
M  V30 384 C 36.7204 -0.388463 -1.99045 0
M  V30 385 C 37.0534 1.04184 -1.63888 0
M  V30 386 O 36.3284 1.72292 -0.902535 0
M  V30 387 C 36.6114 -0.572783 -3.55515 0
M  V30 388 C 36.4644 -2.04807 -4.00468 0
M  V30 389 C 37.7834 0.00114064 -4.401 0
M  V30 390 H 34.9024 -0.142619 -0.723069 0
M  V30 391 H 37.5444 -1.01687 -1.60498 0
M  V30 392 H 35.6944 -0.0378425 -3.88482 0
M  V30 393 H 37.3664 -2.64544 -3.77908 0
M  V30 394 H 35.6094 -2.54427 -3.51353 0
M  V30 395 H 36.2804 -2.12792 -5.09337 0
M  V30 396 H 38.7564 -0.455716 -4.13597 0
M  V30 397 H 37.6324 -0.157737 -5.48673 0
M  V30 398 H 37.8934 1.09488 -4.28328 0
M  V30 399 N 36.9525 1.47285 -0.560781 0
M  V30 400 C 38.1775 2.07359 -0.0410566 0
M  V30 401 C 38.6025 1.41017 1.24483 0
M  V30 402 O 37.9605 0.486368 1.74654 0
M  V30 403 C 38.0085 3.6035 0.134123 0
M  V30 404 O 37.1125 3.94681 1.19587 0
M  V30 405 H 36.4535 0.661887 -0.0529291 0
M  V30 406 H 38.9835 1.89252 -0.777482 0
M  V30 407 H 38.9935 4.0652 0.347207 0
M  V30 408 H 37.6685 4.08034 -0.805047 0
M  V30 409 H 36.2455 3.60251 0.962987 0
M  V30 410 N 38.4306 0.297415 1.54768 0
M  V30 411 C 39.6586 -0.315623 2.04478 0
M  V30 412 C 40.0736 -1.47792 1.17486 0
M  V30 413 O 39.4306 -1.81404 0.19971 0
M  V30 414 C 39.4816 -0.7753 3.53088 0
M  V30 415 O 39.2026 0.340732 4.36773 0
M  V30 416 C 40.7036 -1.45386 4.18781 0
M  V30 417 H 37.9236 -0.0690887 0.667434 0
M  V30 418 H 40.4676 0.436003 1.99798 0
M  V30 419 H 38.6226 -1.47696 3.58141 0
M  V30 420 H 39.0366 -0.0165035 5.24497 0
M  V30 421 H 40.5106 -1.72669 5.24299 0
M  V30 422 H 40.9876 -2.39275 3.68299 0
M  V30 423 H 41.5936 -0.795475 4.17795 0
M  V30 424 N 39.9087 -1.5758 0.0250728 0
M  V30 425 C 41.1337 -1.96337 -0.668317 0
M  V30 426 C 41.5587 -0.901314 -1.651 0
M  V30 427 O 40.9167 0.138187 -1.80773 0
M  V30 428 C 40.9647 -3.34191 -1.35457 0
M  V30 429 O 40.0687 -3.30269 -2.46974 0
M  V30 430 H 39.4097 -0.640281 -0.175887 0
M  V30 431 H 41.9397 -2.0442 0.0857224 0
M  V30 432 H 41.9497 -3.70331 -1.71228 0
M  V30 433 H 40.6247 -4.11036 -0.634218 0
M  V30 434 H 39.2017 -3.05841 -2.13344 0
M  V30 435 N 41.3868 0.248026 -1.55636 0
M  V30 436 C 42.6328 0.97767 -1.77678 0
M  V30 437 C 42.9658 1.85016 -0.590135 0
M  V30 438 O 42.2408 1.90095 0.411611 0
M  V30 439 C 42.5238 1.83914 -3.09593 0
M  V30 440 C 42.3768 0.99491 -4.38659 0
M  V30 441 C 43.6958 2.82183 -3.37729 0
M  V30 442 H 40.8148 0.354005 -0.646413 0
M  V30 443 H 43.4568 0.248253 -1.88371 0
M  V30 444 H 41.6068 2.46104 -3.00608 0
M  V30 445 H 43.2788 0.391789 -4.59633 0
M  V30 446 H 41.5218 0.299231 -4.32767 0
M  V30 447 H 42.1928 1.63145 -5.2734 0
M  V30 448 H 44.6688 2.30129 -3.4667 0
M  V30 449 H 43.5448 3.39582 -4.31249 0
M  V30 450 H 43.8058 3.58588 -2.58586 0
M  V30 451 N 42.8649 1.48995 0.513639 0
M  V30 452 C 44.0899 1.61792 1.29762 0
M  V30 453 C 44.5149 0.284475 1.85936 0
M  V30 454 O 43.8729 -0.746185 1.65232 0
M  V30 455 C 43.9209 2.67993 2.41272 0
M  V30 456 O 43.0249 2.26287 3.44772 0
M  V30 457 H 42.3659 0.541963 0.38363 0
M  V30 458 H 44.8959 1.95097 0.616307 0
M  V30 459 H 44.9059 2.89772 2.87221 0
M  V30 460 H 43.5809 3.64791 1.9975 0
M  V30 461 H 42.1579 2.14788 3.04829 0
M  V30 462 N 44.343 -0.763751 1.37857 0
M  V30 463 C 45.293 -1.86765 1.30777 0
M  V30 464 C 46.277 -1.59726 0.194015 0
M  V30 465 O 47.469 -1.7172 0.42911 0
M  V30 466 C 44.598 -3.24343 1.12502 0
M  V30 467 C 43.684 -3.57307 2.28456 0
M  V30 468 N 44.075 -3.61398 3.53871 0
M  V30 469 C 42.373 -3.87517 2.20786 0
M  V30 470 C 43.074 -3.91339 4.30382 0
M  V30 471 N 42.05 -4.07649 3.59615 0
M  V30 472 H 45.852 -1.88191 2.25746 0
M  V30 473 H 43.366 -0.9606 1.30944 0
M  V30 474 H 45.363 -4.03327 1.05514 0
M  V30 475 H 44.023 -3.24175 0.184574 0
M  V30 476 H 45.034 -3.43407 3.87675 0
M  V30 477 H 41.711 -3.95125 1.34844 0
M  V30 478 H 43.101 -4.01213 5.3896 0
M  V30 479 N 45.8211 -1.22559 -0.990812 0
M  V30 480 C 47.0511 -1.07623 -1.76355 0
M  V30 481 C 47.4591 0.37601 -1.85426 0
M  V30 482 O 46.8021 1.27228 -1.32509 0
M  V30 483 C 46.8641 -1.61507 -3.21179 0
M  V30 484 C 46.5281 -3.10146 -3.35646 0
M  V30 485 C 47.5251 -4.07553 -3.22796 0
M  V30 486 C 45.2101 -3.49644 -3.60631 0
M  V30 487 C 47.2041 -5.42442 -3.34716 0
M  V30 488 C 44.8911 -4.84682 -3.72192 0
M  V30 489 C 45.8891 -5.8089 -3.59243 0
M  V30 490 O 45.5771 -7.13476 -3.70415 0
M  V30 491 H 45.3091 -0.377745 -0.560611 0
M  V30 492 H 47.8631 -1.62658 -1.25425 0
M  V30 493 H 46.0931 -1.00881 -3.73309 0
M  V30 494 H 47.7821 -1.42202 -3.80175 0
M  V30 495 H 48.5481 -3.78381 -3.03403 0
M  V30 496 H 44.4271 -2.75282 -3.69785 0
M  V30 497 H 47.9711 -6.17518 -3.24526 0
M  V30 498 H 43.8681 -5.13534 -3.91092 0
M  V30 499 H 44.6361 -7.21083 -3.87275 0
M  V30 500 N 47.2992 1.18797 -1.03562 0
M  V30 501 C 48.5472 1.88278 -0.734569 0
M  V30 502 C 48.8682 1.8043 0.739586 0
M  V30 503 O 48.1382 1.21925 1.53333 0
M  V30 504 H 46.7182 0.696991 -0.268725 0
M  V30 505 H 49.3802 1.44192 -1.31129 0
M  V30 506 H 48.4762 2.94443 -1.03489 0
M  V30 507 N 48.7773 0.814389 1.34928 0
M  V30 508 C 49.7403 0.235759 2.27984 0
M  V30 509 C 50.7403 -0.581412 1.49921 0
M  V30 510 O 51.9303 -0.398758 1.69575 0
M  V30 511 C 49.0623 -0.670433 3.34242 0
M  V30 512 H 50.2553 1.05659 2.80671 0
M  V30 513 H 47.8083 0.585614 1.44915 0
M  V30 514 H 48.5433 -1.51466 2.86755 0
M  V30 515 H 48.3283 -0.0860822 3.92005 0
M  V30 516 H 49.8183 -1.06935 4.03676 0
M  V30 517 N 50.2554 -1.46986 0.568584 0
M  V30 518 C 51.1654 -2.33942 -0.17555 0
M  V30 519 C 52.1814 -1.48891 -0.90041 0
M  V30 520 O 53.3574 -1.81794 -0.86676 0
M  V30 521 C 50.4224 -3.25811 -1.18524 0
M  V30 522 C 49.4834 -4.26757 -0.466582 0
M  V30 523 C 48.7164 -5.14236 -1.42817 0
M  V30 524 O 48.9394 -5.04379 -2.66379 0
M  V30 525 O 47.8734 -5.94412 -0.946453 0
M  V30 526 H 51.6994 -2.98896 0.538036 0
M  V30 527 H 49.2844 -1.4573 0.329097 0
M  V30 528 H 51.1664 -3.82527 -1.76779 0
M  V30 529 H 49.8414 -2.63471 -1.88055 0
M  V30 530 H 48.7484 -3.73769 0.157451 0
M  V30 531 H 50.0814 -4.91843 0.187485 0
M  V30 532 N 51.7335 -0.305618 -1.54608 0
M  V30 533 C 53.1445 0.186098 -1.8577 0
M  V30 534 C 53.4955 1.53058 -1.22751 0
M  V30 535 O 52.6205 2.09888 -0.526893 0
M  V30 536 C 53.2155 0.344449 -3.37044 0
M  V30 537 C 51.7745 0.780384 -3.68221 0
M  V30 538 C 50.9215 -0.108554 -2.77087 0
M  V30 539 H 53.8725 -0.526485 -1.49712 0
M  V30 540 H 53.8935 1.17828 -3.61796 0
M  V30 541 H 53.4055 -0.634235 -3.82883 0
M  V30 542 H 51.5065 1.76945 -3.27904 0
M  V30 543 H 51.6195 0.596572 -4.75371 0
M  V30 544 H 49.9835 0.412931 -2.5133 0
M  V30 545 H 50.7665 -1.08368 -3.25747 0
M  V30 546 N 53.2116 1.57565 -0.0334293 0
M  V30 547 C 54.4396 1.9628 0.654347 0
M  V30 548 C 54.8546 0.910138 1.65414 0
M  V30 549 O 54.2116 -0.107595 1.82183 0
M  V30 550 C 54.2626 3.35067 1.35693 0
M  V30 551 O 53.9836 4.36296 0.397191 0
M  V30 552 C 55.4846 3.88439 2.13613 0
M  V30 553 H 52.7046 0.646369 0.180132 0
M  V30 554 H 55.2486 2.04282 -0.0944721 0
M  V30 555 H 53.4036 3.2827 2.05712 0
M  V30 556 H 53.8176 5.1678 0.896597 0
M  V30 557 H 55.2916 4.8788 2.58219 0
M  V30 558 H 55.7686 3.22914 2.97696 0
M  V30 559 H 56.3746 3.98516 1.48543 0
M  V30 560 N 54.6897 -0.239769 1.55765 0
M  V30 561 C 55.9177 -0.98417 1.81994 0
M  V30 562 C 56.3327 -1.7867 0.610124 0
M  V30 563 O 55.6897 -1.77571 -0.421271 0
M  V30 564 C 55.7407 -1.91635 3.06526 0
M  V30 565 O 55.4617 -1.14629 4.22838 0
M  V30 566 C 56.9627 -2.77616 3.45607 0
M  V30 567 H 54.1827 -0.28928 0.605441 0
M  V30 568 H 56.7267 -0.260499 2.02834 0
M  V30 569 H 54.8817 -2.5942 2.87715 0
M  V30 570 H 55.2957 -1.77745 4.93464 0
M  V30 571 H 56.7697 -3.38759 4.35828 0
M  V30 572 H 57.2467 -3.4909 2.6652 0
M  V30 573 H 57.8527 -2.15271 3.66795 0
M  V30 574 N 56.1678 -1.49265 -0.50573 0
M  V30 575 C 57.4138 -1.58748 -1.26202 0
M  V30 576 C 57.7468 -0.271227 -1.92297 0
M  V30 577 O 57.0218 0.724831 -1.80489 0
M  V30 578 C 57.3048 -2.74332 -2.33268 0
M  V30 579 C 57.1578 -4.15737 -1.71705 0
M  V30 580 C 58.4768 -2.85576 -3.34865 0
M  V30 581 H 55.5958 -0.577826 -0.457478 0
M  V30 582 H 58.2378 -1.81532 -0.560897 0
M  V30 583 H 56.3878 -2.55036 -2.93068 0
M  V30 584 H 58.0598 -4.46537 -1.15769 0
M  V30 585 H 56.3028 -4.21605 -1.02135 0
M  V30 586 H 56.9738 -4.92477 -2.49341 0
M  V30 587 H 59.4498 -3.03127 -2.8505 0
M  V30 588 H 58.3258 -3.68135 -4.07146 0
M  V30 589 H 58.5868 -1.94732 -3.96903 0
M  V30 590 N 57.6459 0.756429 -1.3826 0
M  V30 591 C 58.8709 1.55077 -1.37717 0
M  V30 592 C 59.2959 1.88073 0.03164 0
M  V30 593 O 58.6539 1.50364 1.01293 0
M  V30 594 C 58.7019 2.8283 -2.23695 0
M  V30 595 O 57.8059 3.77862 -1.6521 0
M  V30 596 H 57.1469 0.469152 -0.469885 0
M  V30 597 H 59.6769 0.935019 -1.81985 0
M  V30 598 H 59.6869 3.31783 -2.37453 0
M  V30 599 H 58.3619 2.58144 -3.2609 0
M  V30 600 H 56.9389 3.36555 -1.60578 0
M  V30 601 N 59.124 1.23083 0.984299 0
M  V30 602 C 60.535 1.05609 1.5396 0
M  V30 603 C 60.886 -0.377793 1.92528 0
M  V30 604 O 60.011 -1.26398 1.75649 0
M  V30 605 C 60.606 1.91087 2.7977 0
M  V30 606 C 59.165 1.77885 3.31713 0
M  V30 607 C 58.312 1.87028 2.04733 0
M  V30 608 H 61.263 1.36802 0.804419 0
M  V30 609 H 61.284 1.43336 3.5247 0
M  V30 610 H 60.796 2.9544 2.51668 0
M  V30 611 H 58.897 0.762995 3.64704 0
M  V30 612 H 59.01 2.61047 4.01735 0
M  V30 613 H 57.374 1.30565 2.18689 0
M  V30 614 H 58.157 2.92929 1.79017 0
M  V30 615 N 60.6021 -1.18246 1.0419 0
M  V30 616 C 61.8421 -1.89948 0.754916 0
M  V30 617 C 62.2061 -1.78608 -0.70451 0
M  V30 618 O 63.4071 -2.4503 -1.10516 0
M  V30 619 C 61.6781 -3.36305 1.20969 0
M  V30 620 S 63.2371 -4.26088 1.04854 0
M  V30 621 H 60.0551 -0.655897 0.274446 0
M  V30 622 H 62.6571 -1.42873 1.33445 0
M  V30 623 H 61.3611 -3.42089 2.26722 0
M  V30 624 H 60.8921 -3.8842 0.624004 0
M  V30 625 H 62.9071 -4.96189 -0.0332896 0
M  V30 626 N 62.0802 -0.821533 -1.34494 0
M  V30 627 C 63.4912 -0.467956 -1.8074 0
M  V30 628 C 63.8422 1.01151 -1.68116 0
M  V30 629 O 62.9672 1.78707 -1.22036 0
M  V30 630 C 63.5622 -0.842627 -3.28154 0
M  V30 631 C 62.1212 -0.541439 -3.72485 0
M  V30 632 C 61.2682 -1.06028 -2.56229 0
M  V30 633 H 64.2192 -1.01183 -1.22261 0
M  V30 634 H 64.2402 -0.145876 -3.8022 0
M  V30 635 H 63.7522 -1.91945 -3.37311 0
M  V30 636 H 61.8532 0.526034 -3.68868 0
M  V30 637 H 61.9662 -1.08453 -4.66663 0
M  V30 638 H 60.3302 -0.481892 -2.501 0
M  V30 639 H 61.1132 -2.14352 -2.68157 0
M  V30 640 N 63.5583 1.46682 -0.576371 0
M  V30 641 C 64.7833 2.07304 -0.0630475 0
M  V30 642 C 65.2083 1.42329 1.2298 0
M  V30 643 O 64.5663 0.504865 1.74129 0
M  V30 644 C 64.6143 3.60472 0.095895 0
M  V30 645 O 63.7183 3.95927 1.15394 0
M  V30 646 H 63.0593 0.661288 -0.0599463 0
M  V30 647 H 65.5893 1.88417 -0.797511 0
M  V30 648 H 65.5993 4.06865 0.304071 0
M  V30 649 H 64.2743 4.07157 -0.84828 0
M  V30 650 H 62.8513 3.61252 0.924724 0
M  V30 651 N 65.0364 0.313813 1.54444 0
M  V30 652 C 66.2614 -0.296681 2.05267 0
M  V30 653 C 66.6864 -1.45757 1.18897 0
M  V30 654 O 66.0444 -1.80239 0.195886 0
M  V30 655 C 66.0924 -0.71831 3.53373 0
M  V30 656 O 65.1964 -1.82175 3.69981 0
M  V30 657 H 64.5374 -0.0554061 0.661684 0
M  V30 658 H 67.0674 0.459387 1.99376 0
M  V30 659 H 67.0774 -1.00364 3.95463 0
M  V30 660 H 65.7524 0.130821 4.15694 0
M  V30 661 H 64.3294 -1.53598 3.39797 0
M  V30 662 N 66.5145 -1.57545 0.0417849 0
M  V30 663 C 67.7395 -1.97035 -0.647455 0
M  V30 664 C 68.1645 -0.918775 -1.64135 0
M  V30 665 O 67.5225 0.119006 -1.80909 0
M  V30 666 C 67.5705 -3.35609 -1.31905 0
M  V30 667 O 66.6745 -3.3287 -2.43457 0
M  V30 668 H 66.0155 -0.64211 -0.169086 0
M  V30 669 H 68.5455 -2.04318 0.107399 0
M  V30 670 H 68.5555 -3.72126 -1.67291 0
M  V30 671 H 67.2305 -4.11685 -0.590586 0
M  V30 672 H 65.8075 -3.08087 -2.10088 0
M  V30 673 N 67.9926 0.231505 -1.5589 0
M  V30 674 C 68.9556 1.27028 -1.90779 0
M  V30 675 C 69.9556 1.40308 -0.785507 0
M  V30 676 O 71.1456 1.38744 -1.05336 0
M  V30 677 C 68.2776 2.64566 -2.14983 0
M  V30 678 H 69.4706 0.973017 -2.83677 0
M  V30 679 H 67.0236 0.471486 -1.49019 0
M  V30 680 H 67.7586 2.99406 -1.24604 0
M  V30 681 H 67.5436 2.56305 -2.96732 0
M  V30 682 H 69.0336 3.39543 -2.43105 0
M  V30 683 N 69.4707 1.49531 0.497807 0
M  V30 684 C 70.4177 1.66436 1.59899 0
M  V30 685 C 71.3877 0.505793 1.58212 0
M  V30 686 O 72.5727 0.733202 1.7615 0
M  V30 687 C 69.7127 1.7399 2.98029 0
M  V30 688 C 68.8257 3.01172 3.09708 0
M  V30 689 C 67.9607 2.99686 4.38591 0
M  V30 690 C 66.9997 4.21434 4.43914 0
M  V30 691 N 66.1367 4.1784 5.64229 0
M  V30 692 H 70.9767 2.60459 1.44793 0
M  V30 693 H 68.5137 1.29137 0.704423 0
M  V30 694 H 70.4717 1.76352 3.78095 0
M  V30 695 H 69.1017 0.834301 3.11832 0
M  V30 696 H 68.1537 3.08408 2.22685 0
M  V30 697 H 69.4657 3.91165 3.09502 0
M  V30 698 H 68.6197 3.00628 5.2698 0
M  V30 699 H 67.3587 2.07477 4.41367 0
M  V30 700 H 66.3637 4.20733 3.53926 0
M  V30 701 H 67.5887 5.14839 4.42851 0
M  V30 702 H 65.5347 3.28469 5.67841 0
M  V30 703 H 65.4517 5.01571 5.65652 0
M  V30 704 H 66.7197 4.22889 6.54817 0
M  V30 705 N 70.9488 -0.749086 1.3866 0
M  V30 706 C 72.1968 -1.50535 1.34847 0
M  V30 707 C 72.5178 -1.94909 -0.0595016 0
M  V30 708 O 71.7878 -1.67973 -1.00806 0
M  V30 709 H 70.3678 -0.558395 0.49619 0
M  V30 710 H 73.0298 -0.890165 1.73384 0
M  V30 711 H 72.1258 -2.39413 2.00219 0
M  V30 712 N 72.4269 -1.23603 -0.977757 0
M  V30 713 C 73.6549 -1.09646 -1.75458 0
M  V30 714 C 74.0699 0.351859 -1.85492 0
M  V30 715 O 73.4269 1.24327 -1.336 0
M  V30 716 C 73.4779 -1.71895 -3.18016 0
M  V30 717 O 73.1989 -3.11063 -3.08498 0
M  V30 718 C 74.6999 -1.63415 -4.12081 0
M  V30 719 H 71.9199 -0.38359 -0.550545 0
M  V30 720 H 74.4639 -1.63507 -1.22824 0
M  V30 721 H 72.6189 -1.22061 -3.67668 0
M  V30 722 H 73.0329 -3.41305 -3.9826 0
M  V30 723 H 74.5069 -2.11669 -5.09804 0
M  V30 724 H 74.9839 -0.593462 -4.35172 0
M  V30 725 H 75.5899 -2.12628 -3.68334 0
M  V30 726 N 73.905 1.17692 -1.04816 0
M  V30 727 C 74.868 2.19787 -0.650117 0
M  V30 728 C 75.868 1.58044 0.296427 0
M  V30 729 O 77.058 1.74012 0.0808097 0
M  V30 730 C 74.19 3.40869 0.0456987 0
M  V30 731 H 75.383 2.56516 -1.5537 0
M  V30 732 H 72.936 1.31708 -0.841594 0
M  V30 733 H 73.671 3.09681 0.962726 0
M  V30 734 H 73.456 3.86928 -0.634727 0
M  V30 735 H 74.946 4.16445 0.310432 0
M  V30 736 N 75.3831 0.828654 1.34056 0
M  V30 737 C 76.6291 0.42008 1.98402 0
M  V30 738 C 76.9621 -1.01564 1.65525 0
M  V30 739 O 76.2371 -1.70834 0.929831 0
M  V30 740 C 76.5201 0.62927 3.54559 0
M  V30 741 C 76.3731 2.11152 3.97159 0
M  V30 742 C 77.6921 0.0688756 4.40046 0
M  V30 743 H 74.8111 0.154104 0.720709 0
M  V30 744 H 77.4531 1.04228 1.5886 0
M  V30 745 H 75.6031 0.0996418 3.88372 0
M  V30 746 H 77.2751 2.70522 3.73651 0
M  V30 747 H 75.5181 2.59985 3.47261 0
M  V30 748 H 76.1891 2.20868 5.05887 0
M  V30 749 H 78.6651 0.521458 4.1282 0
M  V30 750 H 77.5411 0.245006 5.48353 0
M  V30 751 H 77.8021 -1.0266 4.30015 0
M  V30 752 N 76.8612 -1.46375 0.584142 0
M  V30 753 C 77.8092 -2.32042 -0.161047 0
M  V30 754 C 78.8032 -1.44569 -0.882966 0
M  V30 755 O 80.0092 -1.61186 -0.801191 0
M  V30 756 H 76.3842 -0.748659 -0.0708033 0
M  V30 757 H 78.3552 -2.92704 0.580269 0
M  V30 758 C 77.1042 -3.27762 -1.1605 0
M  V30 759 H 76.4272 -3.95051 -0.614419 0
M  V30 760 H 77.8672 -3.90481 -1.65228 0
M  V30 761 C 76.3262 -2.53218 -2.22221 0
M  V30 762 O 76.8562 -2.29628 -3.29597 0
M  V30 763 N 75.0622 -2.13756 -1.96868 0
M  V30 764 H 74.6092 -2.33142 -1.09557 0
M  V30 765 H 74.5672 -1.642 -2.68115 0
M  V30 766 N 78.3393 -0.321999 -1.54275 0
M  V30 767 C 79.5863 0.281044 -2.0054 0
M  V30 768 C 79.9143 1.52265 -1.21019 0
M  V30 769 O 79.1693 1.93687 -0.279982 0
M  V30 770 C 79.4683 0.661769 -3.5122 0
M  V30 771 C 79.1343 -0.480482 -4.48333 0
M  V30 772 C 77.7963 -0.794005 -4.74604 0
M  V30 773 C 80.1483 -1.24783 -5.06042 0
M  V30 774 C 77.4763 -1.87763 -5.55844 0
M  V30 775 C 79.8283 -2.32153 -5.88462 0
M  V30 776 C 78.4923 -2.64089 -6.13036 0
M  V30 777 H 77.7623 0.102841 -0.733829 0
M  V30 778 H 80.4093 -0.445453 -1.86247 0
M  V30 779 H 78.7143 1.46867 -3.63232 0
M  V30 780 H 80.4113 1.13989 -3.84457 0
M  V30 781 H 77.0013 -0.226039 -4.28004 0
M  V30 782 H 81.1853 -1.01887 -4.85729 0
M  V30 783 H 76.4413 -2.12954 -5.73115 0
M  V30 784 H 80.6153 -2.92057 -6.32199 0
M  V30 785 H 78.2423 -3.48185 -6.75775 0
M  V30 786 N 79.8174 1.5752 -0.0501392 0
M  V30 787 C 81.0424 1.97376 0.636997 0
M  V30 788 C 81.4674 0.927466 1.63645 0
M  V30 789 O 80.8254 -0.10941 1.8097 0
M  V30 790 C 80.8734 3.36304 1.30123 0
M  V30 791 O 79.9774 3.34156 2.41689 0
M  V30 792 H 79.3184 0.642998 0.165679 0
M  V30 793 H 81.8484 2.04258 -0.118233 0
M  V30 794 H 81.8584 3.73008 1.65315 0
M  V30 795 H 80.5334 4.11993 0.568746 0
M  V30 796 H 79.1104 3.09196 2.08451 0
M  V30 797 N 81.2955 -0.223234 1.56011 0
M  V30 798 C 82.5205 -0.968978 1.83373 0
M  V30 799 C 82.9455 -1.77227 0.630254 0
M  V30 800 O 82.3035 -1.76345 -0.420959 0
M  V30 801 C 82.3515 -1.86363 3.08709 0
M  V30 802 O 81.4555 -2.95873 2.87285 0
M  V30 803 H 80.7965 -0.274461 0.604622 0
M  V30 804 H 83.3265 -0.237056 2.03222 0
M  V30 805 H 83.3365 -2.27376 3.38768 0
M  V30 806 H 82.0115 -1.27319 3.95933 0
M  V30 807 H 80.5885 -2.58818 2.68454 0
M  V30 808 N 82.7736 -1.49793 -0.48987 0
M  V30 809 C 83.7036 -1.70201 -1.59856 0
M  V30 810 C 84.6846 -0.55076 -1.60937 0
M  V30 811 O 85.8696 -0.787841 -1.77501 0
M  V30 812 C 82.9996 -1.77882 -2.98287 0
M  V30 813 C 81.9536 -2.92907 -3.12073 0
M  V30 814 C 81.2796 -2.85712 -4.51965 0
M  V30 815 C 82.5796 -4.3369 -2.91051 0
M  V30 816 H 84.2736 -2.63025 -1.43032 0
M  V30 817 H 81.8196 -1.26574 -0.686664 0
M  V30 818 H 83.7726 -1.90744 -3.75759 0
M  V30 819 H 82.4966 -0.816653 -3.16225 0
M  V30 820 H 81.1556 -2.79665 -2.37029 0
M  V30 821 H 80.8036 -1.8738 -4.66795 0
M  V30 822 H 80.5036 -3.62921 -4.62128 0
M  V30 823 H 82.0276 -3.00598 -5.31482 0
M  V30 824 H 83.4416 -4.47555 -3.58284 0
M  V30 825 H 81.8386 -5.12205 -3.12675 0
M  V30 826 H 82.9086 -4.47362 -1.87071 0
M  V30 827 N 84.2517 0.741722 -1.39055 0
M  V30 828 C 85.4767 1.53607 -1.39354 0
M  V30 829 C 85.9017 1.88096 0.0116905 0
M  V30 830 O 85.2597 1.5143 0.996924 0
M  V30 831 C 85.3077 2.80441 -2.26682 0
M  V30 832 O 84.4117 3.76088 -1.69208 0
M  V30 833 H 83.7527 0.464142 -0.474835 0
M  V30 834 H 86.2827 0.915665 -1.82967 0
M  V30 835 H 86.2927 3.29246 -2.40959 0
M  V30 836 H 84.9677 2.5467 -3.2881 0
M  V30 837 H 83.5447 3.34833 -1.64138 0
M  V30 838 N 85.7298 1.2412 0.971189 0
M  V30 839 C 86.6628 0.97373 2.06382 0
M  V30 840 C 87.6408 -0.0912662 1.62344 0
M  V30 841 O 88.8248 0.0449365 1.88446 0
M  V30 842 C 85.9518 0.468746 3.35441 0
M  V30 843 C 84.9978 1.52176 3.98428 0
M  V30 844 S 85.8308 3.10203 4.36503 0
M  V30 845 C 86.9868 2.61398 5.68702 0
M  V30 846 H 87.2198 1.89893 2.28753 0
M  V30 847 H 84.7528 1.07466 1.10862 0
M  V30 848 H 86.7108 0.184012 4.10087 0
M  V30 849 H 85.3718 -0.435688 3.11064 0
M  V30 850 H 84.5648 1.11876 4.91426 0
M  V30 851 H 84.1668 1.75632 3.30196 0
M  V30 852 H 86.4588 2.03992 6.4606 0
M  V30 853 H 87.4018 3.52972 6.13854 0
M  V30 854 H 87.8098 2.01941 5.27143 0
M  V30 855 N 87.2079 -1.17134 1.05439 0
M  V30 856 C 88.4359 -1.91372 0.786414 0
M  V30 857 C 88.8509 -1.76955 -0.658202 0
M  V30 858 O 88.2079 -1.10838 -1.44987 0
M  V30 859 C 88.2589 -3.42356 1.1608 0
M  V30 860 O 87.9799 -3.56332 2.54871 0
M  V30 861 C 89.4809 -4.33663 0.919322 0
M  V30 862 H 86.7009 -0.607118 0.285743 0
M  V30 863 H 89.2449 -1.48525 1.40572 0
M  V30 864 H 87.3999 -3.82939 0.586191 0
M  V30 865 H 87.8139 -4.49896 2.69618 0
M  V30 866 H 89.2879 -5.38099 1.231 0
M  V30 867 H 89.7649 -4.38959 -0.145359 0
M  V30 868 H 90.3709 -3.98796 1.47789 0
M  V30 869 N 88.686 -0.835752 -1.33615 0
M  V30 870 C 90.097 -0.487099 -1.80234 0
M  V30 871 C 90.448 0.993627 -1.69179 0
M  V30 872 O 89.573 1.77403 -1.23924 0
M  V30 873 C 90.168 -0.877385 -3.27242 0
M  V30 874 C 88.727 -0.580915 -3.7189 0
M  V30 875 C 87.874 -1.0874 -2.5509 0
M  V30 876 H 90.825 -1.02474 -1.2118 0
M  V30 877 H 90.846 -0.186195 -3.80044 0
M  V30 878 H 90.358 -1.95512 -3.35256 0
M  V30 879 H 88.459 0.486881 -3.69405 0
M  V30 880 H 88.572 -1.13396 -4.65487 0
M  V30 881 H 86.936 -0.508392 -2.49575 0
M  V30 882 H 87.719 -2.17184 -2.65868 0
M  V30 883 N 90.1641 1.46063 -0.591896 0
M  V30 884 C 91.4111 2.02338 -0.0809991 0
M  V30 885 C 91.7391 1.46228 1.28249 0
M  V30 886 O 90.9941 0.620818 1.85592 0
M  V30 887 C 91.2931 3.57391 0.0249813 0
M  V30 888 C 90.9591 4.32583 -1.27211 0
M  V30 889 C 89.6211 4.52844 -1.62745 0
M  V30 890 C 91.9731 4.75687 -2.13005 0
M  V30 891 C 89.3011 5.13462 -2.83855 0
M  V30 892 C 91.6531 5.37644 -3.3335 0
M  V30 893 C 90.3171 5.5613 -3.69155 0
M  V30 894 H 89.5871 0.740407 -0.0296397 0
M  V30 895 H 92.2341 1.75321 -0.770374 0
M  V30 896 H 90.5391 3.83597 0.797537 0
M  V30 897 H 92.2361 3.98621 0.436184 0
M  V30 898 H 88.8261 4.17116 -0.985499 0
M  V30 899 H 93.0101 4.59782 -1.86855 0
M  V30 900 H 88.2661 5.25965 -3.11722 0
M  V30 901 H 92.4401 5.7 -4.00092 0
M  V30 902 H 90.0671 6.0287 -4.63089 0
M  V30 903 N 91.6422 0.330177 1.54103 0
M  V30 904 C 92.8902 -0.269871 2.0029 0
M  V30 905 C 93.2112 -1.52133 1.21986 0
M  V30 906 O 92.4812 -1.93212 0.323438 0
M  V30 907 H 91.0612 -0.10271 0.739905 0
M  V30 908 H 93.7232 0.448249 1.89675 0
M  V30 909 H 92.8192 -0.52166 3.07709 0
M  V30 910 N 93.1203 -1.57491 0.0584922 0
M  V30 911 C 94.3683 -1.92597 -0.612436 0
M  V30 912 C 94.6893 -0.938162 -1.70949 0
M  V30 913 O 93.9593 0.0158301 -1.95894 0
M  V30 914 H 92.5393 -0.710964 -0.229214 0
M  V30 915 H 95.2013 -1.94571 0.113218 0
M  V30 916 H 94.2973 -2.94038 -1.04633 0
M  V30 917 N 94.5984 0.214957 -1.56127 0
M  V30 918 C 95.8234 0.95924 -1.83884 0
M  V30 919 C 96.2484 1.7689 -0.639644 0
M  V30 920 O 95.6064 1.76566 0.411601 0
M  V30 921 C 95.6544 1.84723 -3.09693 0
M  V30 922 O 94.7584 2.94346 -2.8885 0
M  V30 923 H 94.0994 0.27125 -0.606069 0
M  V30 924 H 96.6294 0.226276 -2.03345 0
M  V30 925 H 96.6394 2.25576 -3.39969 0
M  V30 926 H 95.3144 1.25218 -3.96602 0
M  V30 927 H 93.8914 2.57391 -2.69823 0
M  V30 928 N 96.0765 1.50051 0.48192 0
M  V30 929 C 97.3015 1.64508 1.26301 0
M  V30 930 C 97.7265 0.323851 1.85291 0
M  V30 931 O 97.0845 -0.710969 1.66778 0
M  V30 932 C 97.1325 2.7305 2.35533 0
M  V30 933 O 96.2365 2.3355 3.39895 0
M  V30 934 H 95.5775 0.549978 0.372048 0
M  V30 935 H 98.1075 1.9636 0.574786 0
M  V30 936 H 98.1175 2.95799 2.8101 0
M  V30 937 H 96.7925 3.68946 1.91967 0
M  V30 938 H 95.3695 2.21205 3.00204 0
M  V30 939 N 97.5546 -0.734337 1.39446 0
M  V30 940 C 98.8026 -1.49096 1.36436 0
M  V30 941 C 99.1236 -1.94961 -0.0388255 0
M  V30 942 O 98.3936 -1.69033 -0.990191 0
M  V30 943 H 96.9736 -0.5531 0.502085 0
M  V30 944 H 99.6356 -0.871725 1.74319 0
M  V30 945 H 98.7316 -2.37276 2.02747 0
M  V30 946 N 99.0327 -1.24633 -0.964593 0
M  V30 947 C 100.279 -1.08949 -1.71049 0
M  V30 948 C 100.612 0.370302 -1.90637 0
M  V30 949 O 99.8867 1.27349 -1.47011 0
M  V30 950 C 100.17 -1.83329 -3.0994 0
M  V30 951 C 100.023 -3.37077 -2.97824 0
M  V30 952 C 101.342 -1.60846 -4.09654 0
M  V30 953 H 98.4607 -0.397178 -0.620821 0
M  V30 954 H 101.103 -1.5334 -1.12191 0
M  V30 955 H 99.2527 -1.45597 -3.60186 0
M  V30 956 H 100.925 -3.84425 -2.5498 0
M  V30 957 H 99.1677 -3.65298 -2.33965 0
M  V30 958 H 99.8387 -3.84324 -3.96231 0
M  V30 959 H 102.315 -1.93674 -3.68279 0
M  V30 960 H 101.191 -2.1534 -5.04896 0
M  V30 961 H 101.452 -0.547434 -4.38698 0
M  V30 962 N 100.511 1.16574 -1.06058 0
M  V30 963 C 101.739 1.90952 -0.796552 0
M  V30 964 C 102.154 1.77302 0.648808 0
M  V30 965 O 101.511 1.11605 1.44397 0
M  V30 966 C 101.562 3.41736 -1.17894 0
M  V30 967 O 101.283 3.54975 -2.56758 0
M  V30 968 C 102.784 4.33169 -0.942308 0
M  V30 969 H 100.004 0.605594 -0.288959 0
M  V30 970 H 102.548 1.47777 -1.41358 0
M  V30 971 H 100.703 3.82623 -0.606491 0
M  V30 972 H 101.117 4.4846 -2.72 0
M  V30 973 H 102.591 5.37439 -1.25952 0
M  V30 974 H 103.068 4.3903 0.122078 0
M  V30 975 H 103.674 3.98007 -1.49902 0
M  V30 976 N 101.989 0.842826 1.3317 0
M  V30 977 C 103.4 0.496651 1.79973 0
M  V30 978 C 103.751 -0.984641 1.69703 0
M  V30 979 O 102.876 -1.76743 1.24863 0
M  V30 980 C 103.471 0.894727 3.26772 0
M  V30 981 C 102.03 0.600629 3.71577 0
M  V30 982 C 101.177 1.10091 2.5451 0
M  V30 983 H 104.128 1.03116 1.20635 0
M  V30 984 H 104.149 0.206347 3.7994 0
M  V30 985 H 103.661 1.97287 3.34215 0
M  V30 986 H 101.762 -0.467284 3.69658 0
M  V30 987 H 101.875 1.15863 4.64879 0
M  V30 988 H 100.239 0.52162 2.49301 0
M  V30 989 H 101.022 2.18591 2.64713 0
M  V30 990 N 103.467 -1.45747 0.599634 0
M  V30 991 C 104.714 -2.02292 0.0917284 0
M  V30 992 C 105.042 -1.46906 -1.27472 0
M  V30 993 O 104.297 -0.630652 -1.8526 0
M  V30 994 C 104.596 -3.57399 -0.00602758 0
M  V30 995 C 104.262 -4.31902 1.29503 0
M  V30 996 C 102.924 -4.51974 1.65144 0
M  V30 997 C 105.276 -4.74551 2.15525 0
M  V30 998 C 102.604 -5.11949 2.86574 0
M  V30 999 C 104.956 -5.35868 3.36196 0
M  V30 1000 C 103.62 -5.54165 3.72099 0
M  V30 1001 H 102.89 -0.740239 0.0335658 0
M  V30 1002 H 105.537 -1.7491 0.779661 0
M  V30 1003 H 103.842 -3.84014 -0.777183 0
M  V30 1004 H 105.539 -3.98846 -0.415038 0
M  V30 1005 H 102.129 -4.16588 1.00761 0
M  V30 1006 H 106.313 -4.58784 1.8929 0
M  V30 1007 H 101.569 -5.24305 3.14507 0
M  V30 1008 H 105.743 -5.6787 4.03109 0
M  V30 1009 H 103.37 -6.00406 4.6628 0
M  V30 1010 N 104.945 -0.338344 -1.53925 0
M  V30 1011 C 106.193 0.259245 -2.0043 0
M  V30 1012 C 106.514 1.51484 -1.22791 0
M  V30 1013 O 105.784 1.93037 -0.33368 0
M  V30 1014 H 104.364 0.0987845 -0.740439 0
M  V30 1015 H 107.026 -0.458302 -1.89435 0
M  V30 1016 H 106.122 0.505334 -3.07982 0
M  V30 1017 N 106.423 1.57458 -0.0668435 0
M  V30 1018 C 107.671 1.92919 0.602214 0
M  V30 1019 C 107.992 0.947215 1.70449 0
M  V30 1020 O 107.262 -0.00544117 1.95899 0
M  V30 1021 H 105.842 0.71217 0.22544 0
M  V30 1022 H 108.504 1.94508 -0.123535 0
M  V30 1023 H 107.6 2.94589 1.03073 0
M  V30 1024 N 107.901 -0.206675 1.56239 0
M  V30 1025 C 108.864 -1.23976 1.92776 0
M  V30 1026 C 109.864 -1.39041 0.807729 0
M  V30 1027 O 111.054 -1.37051 1.0753 0
M  V30 1028 C 108.186 -2.61112 2.19165 0
M  V30 1029 H 109.379 -0.927764 2.85189 0
M  V30 1030 H 106.932 -0.447718 1.4975 0
M  V30 1031 H 107.667 -2.97386 1.29352 0
M  V30 1032 H 107.452 -2.51552 3.00772 0
M  V30 1033 H 108.942 -3.35633 2.48476 0
M  V30 1034 N 109.379 -1.50304 -0.473955 0
M  V30 1035 C 110.604 -1.65175 -1.25427 0
M  V30 1036 C 111.029 -0.333673 -1.85117 0
M  V30 1037 O 110.387 0.702114 -1.67153 0
M  V30 1038 C 110.435 -2.74295 -2.34082 0
M  V30 1039 O 109.539 -2.35349 -3.38651 0
M  V30 1040 H 108.88 -0.551944 -0.369126 0
M  V30 1041 H 111.41 -1.96662 -0.564364 0
M  V30 1042 H 111.42 -2.97285 -2.79438 0
M  V30 1043 H 110.095 -3.69959 -1.90008 0
M  V30 1044 H 108.672 -2.22794 -2.99027 0
M  V30 1045 N 110.857 0.726932 -1.39834 0
M  V30 1046 C 112.082 1.52121 -1.40976 0
M  V30 1047 C 112.507 1.88098 -0.00826029 0
M  V30 1048 O 111.865 1.52479 0.980807 0
M  V30 1049 C 111.913 2.78021 -2.29644 0
M  V30 1050 O 111.017 3.74272 -1.73188 0
M  V30 1051 H 110.358 0.45908 -0.479731 0
M  V30 1052 H 112.888 0.896207 -1.83927 0
M  V30 1053 H 112.898 3.26671 -2.44438 0
M  V30 1054 H 111.573 2.51169 -3.31492 0
M  V30 1055 H 110.15 3.33073 -1.6768 0
M  V30 1056 N 112.336 1.25143 0.95797 0
M  V30 1057 C 113.561 1.12521 1.74223 0
M  V30 1058 C 113.986 -0.317402 1.85403 0
M  V30 1059 O 113.344 -1.2299 1.33204 0
M  V30 1060 C 113.392 1.78062 3.1357 0
M  V30 1061 O 112.496 1.058 3.98598 0
M  V30 1062 H 111.837 0.39304 0.535178 0
M  V30 1063 H 114.367 1.65641 1.201 0
M  V30 1064 H 114.377 1.84213 3.64046 0
M  V30 1065 H 113.052 2.83021 3.04749 0
M  V30 1066 H 111.629 1.07506 3.57067 0
M  V30 1067 N 113.814 -1.1601 1.06675 0
M  V30 1068 C 115.061 -1.86633 0.785781 0
M  V30 1069 C 115.389 -1.81929 -0.687896 0
M  V30 1070 O 114.644 -1.23253 -1.52011 0
M  V30 1071 C 114.943 -3.35547 1.23057 0
M  V30 1072 C 114.609 -3.60448 2.70902 0
M  V30 1073 C 113.271 -3.66954 3.11285 0
M  V30 1074 C 115.623 -3.7071 3.66365 0
M  V30 1075 C 112.951 -3.81225 4.45965 0
M  V30 1076 C 115.303 -3.86503 5.00797 0
M  V30 1077 C 113.967 -3.91252 5.40813 0
M  V30 1078 H 113.237 -0.682937 0.287538 0
M  V30 1079 H 115.884 -1.37146 1.33654 0
M  V30 1080 H 114.189 -3.87193 0.59907 0
M  V30 1081 H 115.886 -3.88583 0.990163 0
M  V30 1082 H 112.476 -3.56021 2.38636 0
M  V30 1083 H 116.66 -3.64991 3.36296 0
M  V30 1084 H 111.916 -3.83155 4.76447 0
M  V30 1085 H 116.09 -3.93385 5.74649 0
M  V30 1086 H 113.717 -4.02062 6.45174 0
M  V30 1087 N 115.292 -0.849877 -1.32721 0
M  V30 1088 C 116.517 -0.463856 -2.02146 0
M  V30 1089 C 116.942 0.930449 -1.63476 0
M  V30 1090 O 116.3 1.61033 -0.832952 0
M  V30 1091 C 116.348 -0.604955 -3.55489 0
M  V30 1092 O 115.452 0.36425 -4.10788 0
M  V30 1093 H 114.793 -0.187046 -0.637111 0
M  V30 1094 H 117.323 -1.14775 -1.69375 0
M  V30 1095 H 117.333 -0.490696 -4.05038 0
M  V30 1096 H 116.008 -1.62174 -3.82978 0
M  V30 1097 H 114.585 0.206628 -3.72327 0
M  V30 1098 N 116.77 1.45427 -0.607355 0
M  V30 1099 C 118.016 2.0254 -0.102607 0
M  V30 1100 C 118.349 1.47478 1.26348 0
M  V30 1101 O 117.624 0.64939 1.83339 0
M  V30 1102 C 117.907 3.60044 -0.0634347 0
M  V30 1103 C 117.76 4.2544 -1.46017 0
M  V30 1104 C 119.079 4.35646 0.624514 0
M  V30 1105 H 116.198 0.73598 -0.0387607 0
M  V30 1106 H 118.84 1.73284 -0.779282 0
M  V30 1107 H 116.99 3.85101 0.512808 0
M  V30 1108 H 118.662 4.11569 -2.08347 0
M  V30 1109 H 116.905 3.83849 -2.02094 0
M  V30 1110 H 117.576 5.34342 -1.385 0
M  V30 1111 H 120.052 4.15882 0.134723 0
M  V30 1112 H 118.928 5.45376 0.621028 0
M  V30 1113 H 119.189 4.08501 1.69055 0
M  V30 1114 N 118.248 0.346503 1.53744 0
M  V30 1115 C 119.494 -0.249473 2.0126 0
M  V30 1116 C 119.827 -1.49965 1.23386 0
M  V30 1117 O 119.102 -1.91811 0.32229 0
M  V30 1118 C 119.385 -0.560643 3.55709 0
M  V30 1119 C 119.238 0.701836 4.44291 0
M  V30 1120 C 120.557 -1.36905 4.18264 0
M  V30 1121 H 117.676 -0.0891987 0.731582 0
M  V30 1122 H 120.318 0.467624 1.84156 0
M  V30 1123 H 118.468 -1.17156 3.70414 0
M  V30 1124 H 120.14 1.33974 4.41417 0
M  V30 1125 H 118.383 1.32612 4.13033 0
M  V30 1126 H 119.054 0.43933 5.50249 0
M  V30 1127 H 121.53 -0.852448 4.07275 0
M  V30 1128 H 120.406 -1.55553 5.26398 0
M  V30 1129 H 120.667 -2.37203 3.73078 0
M  V30 1130 N 119.726 -1.57421 0.075193 0
M  V30 1131 C 121.137 -1.81021 -0.456964 0
M  V30 1132 C 121.488 -0.98936 -1.69429 0
M  V30 1133 O 120.613 -0.212865 -2.15351 0
M  V30 1134 C 121.208 -3.28329 -0.83581 0
M  V30 1135 C 119.767 -3.52764 -1.31281 0
M  V30 1136 C 118.914 -2.75676 -0.299648 0
M  V30 1137 H 121.865 -1.55822 0.300856 0
M  V30 1138 H 121.886 -3.40564 -1.69696 0
M  V30 1139 H 121.398 -3.88046 0.0649238 0
M  V30 1140 H 119.499 -2.98355 -2.23193 0
M  V30 1141 H 119.612 -4.61451 -1.28839 0
M  V30 1142 H 117.976 -2.42538 -0.777641 0
M  V30 1143 H 118.759 -3.38132 0.593417 0
M  V30 1144 N 121.204 0.198386 -1.56346 0
M  V30 1145 C 122.429 0.939682 -1.84891 0
M  V30 1146 C 122.854 1.76202 -0.658369 0
M  V30 1147 O 122.212 1.76993 0.392851 0
M  V30 1148 C 122.26 1.81428 -3.11635 0
M  V30 1149 O 121.364 2.91265 -2.91956 0
M  V30 1150 H 120.705 0.264807 -0.608912 0
M  V30 1151 H 123.235 0.204695 -2.03573 0
M  V30 1152 H 123.245 2.21958 -3.42343 0
M  V30 1153 H 121.92 1.21004 -3.97908 0
M  V30 1154 H 120.497 2.54514 -2.72538 0
M  V30 1155 N 122.682 1.50554 0.465978 0
M  V30 1156 C 123.907 1.65838 1.24549 0
M  V30 1157 C 124.332 0.343486 1.84937 0
M  V30 1158 O 123.69 -0.69324 1.67523 0
M  V30 1159 C 123.738 2.75533 2.32624 0
M  V30 1160 O 122.842 2.37142 3.37398 0
M  V30 1161 H 122.183 0.553893 0.366194 0
M  V30 1162 H 124.713 1.96959 0.553927 0
M  V30 1163 H 124.723 2.98763 2.77857 0
M  V30 1164 H 123.398 3.70962 1.88043 0
M  V30 1165 H 121.975 2.24377 2.97841 0
M  V30 1166 N 124.16 -0.719506 1.40217 0
M  V30 1167 C 125.39 -1.50646 1.41384 0
M  V30 1168 C 125.798 -1.89197 0.0107743 0
M  V30 1169 O 125.141 -1.55709 -0.974708 0
M  V30 1170 C 125.203 -2.81405 2.23722 0
M  V30 1171 C 124.867 -2.65199 3.72181 0
M  V30 1172 C 125.864 -2.32717 4.64907 0
M  V30 1173 C 123.549 -2.81586 4.1595 0
M  V30 1174 C 125.543 -2.16827 5.99387 0
M  V30 1175 C 123.23 -2.65313 5.50502 0
M  V30 1176 C 124.228 -2.32981 6.42035 0
M  V30 1177 O 123.916 -2.16827 7.74107 0
M  V30 1178 H 123.648 -0.471606 0.484318 0
M  V30 1179 H 126.202 -0.895456 1.84853 0
M  V30 1180 H 124.432 -3.44823 1.75026 0
M  V30 1181 H 126.121 -3.43102 2.16878 0
M  V30 1182 H 126.887 -2.19694 4.32388 0
M  V30 1183 H 122.766 -3.0574 3.45027 0
M  V30 1184 H 126.31 -1.91513 6.70797 0
M  V30 1185 H 122.207 -2.7792 5.82607 0
M  V30 1186 H 122.975 -2.31778 7.84998 0
M  V30 1187 N 125.638 -1.25649 -0.95132 0
M  V30 1188 C 127.049 -1.09654 -1.51106 0
M  V30 1189 C 127.4 0.326615 -1.93462 0
M  V30 1190 O 126.525 1.21697 -1.78938 0
M  V30 1191 C 127.12 -1.98437 -2.74605 0
M  V30 1192 C 125.679 -1.86618 -3.2688 0
M  V30 1193 C 124.826 -1.9239 -1.99703 0
M  V30 1194 H 127.777 -1.38887 -0.767865 0
M  V30 1195 H 127.798 -1.5263 -3.48546 0
M  V30 1196 H 127.31 -3.02009 -2.43746 0
M  V30 1197 H 125.411 -0.859421 -3.62553 0
M  V30 1198 H 125.524 -2.71607 -3.94673 0
M  V30 1199 H 123.888 -1.36317 -2.15151 0
M  V30 1200 H 124.671 -2.97573 -1.71188 0
M  V30 1201 N 127.117 1.15442 -1.07289 0
M  V30 1202 C 128.08 2.18358 -0.696591 0
M  V30 1203 C 129.08 1.58637 0.262837 0
M  V30 1204 O 130.27 1.74145 0.0438809 0
M  V30 1205 C 127.402 3.4089 -0.0266151 0
M  V30 1206 H 128.595 2.53162 -1.60776 0
M  V30 1207 H 126.148 1.29893 -0.869342 0
M  V30 1208 H 126.883 3.11653 0.896822 0
M  V30 1209 H 126.668 3.85495 -0.716657 0
M  V30 1210 H 128.158 4.17009 0.222028 0
M  V30 1211 N 128.595 0.856903 1.32268 0
M  V30 1212 C 129.843 0.460474 1.96784 0
M  V30 1213 C 130.164 -0.987701 1.68135 0
M  V30 1214 O 129.434 -1.69058 0.989765 0
M  V30 1215 H 128.014 0.167289 0.728027 0
M  V30 1216 H 130.676 1.09383 1.61312 0
M  V30 1217 H 129.772 0.60739 3.06133 0
M  V30 1218 N 130.073 -1.45103 0.615059 0
M  V30 1219 C 131.003 -2.33339 -0.0865619 0
M  V30 1220 C 131.984 -1.4727 -0.851209 0
M  V30 1221 O 133.169 -1.76026 -0.820281 0
M  V30 1222 C 130.299 -3.30095 -1.07956 0
M  V30 1223 C 129.253 -4.25858 -0.427628 0
M  V30 1224 C 128.579 -5.12361 -1.5294 0
M  V30 1225 C 129.879 -5.18165 0.655944 0
M  V30 1226 H 131.573 -2.92254 0.650224 0
M  V30 1227 H 129.119 -1.40532 0.314138 0
M  V30 1228 H 131.072 -3.90698 -1.57901 0
M  V30 1229 H 129.796 -2.69355 -1.84703 0
M  V30 1230 H 128.455 -3.66564 0.0510292 0
M  V30 1231 H 128.103 -4.47984 -2.28734 0
M  V30 1232 H 127.803 -5.77238 -1.09865 0
M  V30 1233 H 129.327 -5.75833 -2.03098 0
M  V30 1234 H 130.741 -5.72796 0.240257 0
M  V30 1235 H 129.138 -5.91559 1.00888 0
M  V30 1236 H 130.208 -4.60144 1.52957 0
M  V30 1237 N 131.551 -0.354651 -1.53558 0
M  V30 1238 C 132.779 0.239515 -2.05509 0
M  V30 1239 C 133.194 1.4333 -1.2289 0
M  V30 1240 O 132.551 1.80538 -0.266899 0
M  V30 1241 C 132.602 0.643719 -3.55723 0
M  V30 1242 O 132.323 -0.502602 -4.35207 0
M  V30 1243 C 133.824 1.29743 -4.23889 0
M  V30 1244 H 131.044 0.0442697 -0.669538 0
M  V30 1245 H 133.588 -0.509856 -1.98042 0
M  V30 1246 H 131.743 1.34302 -3.63376 0
M  V30 1247 H 132.157 -0.178172 -5.24197 0
M  V30 1248 H 133.631 1.53091 -5.30346 0
M  V30 1249 H 134.108 2.25441 -3.76926 0
M  V30 1250 H 134.714 0.639865 -4.20459 0
M  V30 1251 N 133.029 1.57378 -0.0835403 0
M  V30 1252 C 134.277 1.93547 0.581718 0
M  V30 1253 C 134.598 0.96524 1.69435 0
M  V30 1254 O 133.868 0.0153369 1.95894 0
M  V30 1255 H 132.448 0.714521 0.217874 0
M  V30 1256 H 135.11 1.94366 -0.144158 0
M  V30 1257 H 134.206 2.95665 0.999423 0
M  V30 1258 N 134.507 -0.190092 1.56449 0
M  V30 1259 C 135.755 -0.907908 1.80559 0
M  V30 1260 C 136.076 -1.83583 0.657438 0
M  V30 1261 O 135.346 -1.93203 -0.323924 0
M  V30 1262 H 133.926 -0.338247 0.666032 0
M  V30 1263 H 136.588 -0.194403 1.93928 0
M  V30 1264 H 135.684 -1.49604 2.73907 0
M  V30 1265 N 135.985 -1.50799 -0.457987 0
M  V30 1266 C 137.231 -1.62683 -1.21088 0
M  V30 1267 C 137.564 -0.332268 -1.91336 0
M  V30 1268 O 136.839 0.667043 -1.82704 0
M  V30 1269 C 137.122 -2.81615 -2.24422 0
M  V30 1270 C 136.975 -4.20989 -1.58392 0
M  V30 1271 C 138.294 -2.96085 -3.2561 0
M  V30 1272 H 135.413 -0.592087 -0.438864 0
M  V30 1273 H 138.055 -1.83225 -0.50286 0
M  V30 1274 H 136.205 -2.64231 -2.84806 0
M  V30 1275 H 137.877 -4.49994 -1.01504 0
M  V30 1276 H 136.12 -4.24641 -0.886704 0
M  V30 1277 H 136.791 -5.0016 -2.33547 0
M  V30 1278 H 139.267 -3.12042 -2.75262 0
M  V30 1279 H 138.143 -3.80902 -3.95228 0
M  V30 1280 H 138.404 -2.0726 -3.90507 0
M  V30 1281 N 137.463 0.71206 -1.40597 0
M  V30 1282 C 138.691 1.50111 -1.42388 0
M  V30 1283 C 139.106 1.88784 -0.0245395 0
M  V30 1284 O 138.463 1.55681 0.952351 0
M  V30 1285 C 138.514 2.7742 -2.31776 0
M  V30 1286 O 138.235 2.40382 -3.66262 0
M  V30 1287 C 139.736 3.7129 -2.42196 0
M  V30 1288 H 136.956 0.46314 -0.485533 0
M  V30 1289 H 139.5 0.878068 -1.8469 0
M  V30 1290 H 137.655 3.36001 -1.92827 0
M  V30 1291 H 138.069 3.22324 -4.13772 0
M  V30 1292 H 139.543 4.57448 -3.08943 0
M  V30 1293 H 140.02 4.14641 -1.44809 0
M  V30 1294 H 140.626 3.18619 -2.81712 0
M  V30 1295 N 138.941 1.26152 0.944643 0
M  V30 1296 C 140.19 1.10883 1.68487 0
M  V30 1297 C 140.503 -0.348153 1.92477 0
M  V30 1298 O 141.709 -0.621459 2.64292 0
M  V30 1299 C 140.165 1.93624 3.03377 0
M  V30 1300 C 139.773 3.43875 2.87148 0
M  V30 1301 C 141.517 1.86954 3.81115 0
M  V30 1302 C 139.424 4.18875 4.1749 0
M  V30 1303 H 138.354 0.41135 0.631907 0
M  V30 1304 H 141.005 1.50433 1.05082 0
M  V30 1305 H 139.387 1.46904 3.67743 0
M  V30 1306 H 140.561 3.98338 2.31653 0
M  V30 1307 H 138.876 3.51744 2.22856 0
M  V30 1308 H 141.473 2.40275 4.77673 0
M  V30 1309 H 141.816 0.839518 4.07747 0
M  V30 1310 H 142.349 2.31477 3.23517 0
M  V30 1311 H 139.088 5.22332 3.96043 0
M  V30 1312 H 138.608 3.69193 4.72712 0
M  V30 1313 H 140.287 4.27134 4.85968 0
M  V30 1314 N 140.419 -1.14872 1.07899 0
M  V30 1315 C 141.666 -1.85789 0.805532 0
M  V30 1316 C 141.994 -1.82649 -0.668561 0
M  V30 1317 O 141.249 -1.24858 -1.50695 0
M  V30 1318 C 141.548 -3.34223 1.26609 0
M  V30 1319 C 141.214 -3.57555 2.74709 0
M  V30 1320 C 139.876 -3.63631 3.1516 0
M  V30 1321 C 142.228 -3.66803 3.70277 0
M  V30 1322 C 139.556 -3.76473 4.49983 0
M  V30 1323 C 141.908 -3.8117 5.04869 0
M  V30 1324 C 140.572 -3.85494 5.44932 0
M  V30 1325 H 139.842 -0.679849 0.294765 0
M  V30 1326 H 142.489 -1.3572 1.35101 0
M  V30 1327 H 140.794 -3.86536 0.640103 0
M  V30 1328 H 142.491 -3.87511 1.03132 0
M  V30 1329 H 139.081 -3.5347 2.42398 0
M  V30 1330 H 143.265 -3.61404 3.40149 0
M  V30 1331 H 138.521 -3.7808 4.80484 0
M  V30 1332 H 142.695 -3.87268 5.78789 0
M  V30 1333 H 140.322 -3.95197 6.49403 0
M  V30 1334 N 141.898 -0.863906 -1.31812 0
M  V30 1335 C 143.144 -0.472535 -1.97218 0
M  V30 1336 C 143.477 0.971394 -1.68159 0
M  V30 1337 O 142.752 1.68309 -0.974798 0
M  V30 1338 C 143.035 -0.723054 -3.52766 0
M  V30 1339 C 142.888 -2.21608 -3.91421 0
M  V30 1340 C 144.207 -0.185522 -4.39709 0
M  V30 1341 H 141.326 -0.173158 -0.71637 0
M  V30 1342 H 143.968 -1.08403 -1.56041 0
M  V30 1343 H 142.118 -0.202577 -3.87971 0
M  V30 1344 H 143.79 -2.80334 -3.66347 0
M  V30 1345 H 142.033 -2.691 -3.40246 0
M  V30 1346 H 142.704 -2.34203 -4.99853 0
M  V30 1347 H 145.18 -0.630726 -4.11292 0
M  V30 1348 H 144.056 -0.390306 -5.47511 0
M  V30 1349 H 144.317 0.912229 -4.32586 0
M  V30 1350 N 143.376 1.44774 -0.622745 0
M  V30 1351 C 144.339 2.29069 0.0774015 0
M  V30 1352 C 145.339 1.4059 0.780461 0
M  V30 1353 O 146.529 1.62551 0.626322 0
M  V30 1354 C 143.661 3.21974 1.12006 0
M  V30 1355 H 144.854 2.92459 -0.663901 0
M  V30 1356 H 142.407 1.51548 -0.382486 0
M  V30 1357 H 143.142 2.63417 1.89162 0
M  V30 1358 H 142.927 3.87168 0.619951 0
M  V30 1359 H 144.417 3.85318 1.60995 0
M  V30 1360 N 144.854 0.36279 1.53368 0
M  V30 1361 C 145.784 -0.476976 2.28576 0
M  V30 1362 C 146.765 -1.08631 1.30894 0
M  V30 1363 O 147.95 -1.10409 1.59761 0
M  V30 1364 C 145.08 -1.61828 3.07293 0
M  V30 1365 C 144.034 -1.13633 4.1264 0
M  V30 1366 C 143.36 -2.36766 4.79423 0
M  V30 1367 C 144.66 -0.223061 5.21823 0
M  V30 1368 H 146.354 0.150474 2.99022 0
M  V30 1369 H 143.9 0.0738103 1.43811 0
M  V30 1370 H 145.853 -2.21237 3.58653 0
M  V30 1371 H 144.577 -2.27292 2.34533 0
M  V30 1372 H 143.236 -0.564945 3.62221 0
M  V30 1373 H 142.884 -3.0068 4.03238 0
M  V30 1374 H 142.584 -2.05192 5.50609 0
M  V30 1375 H 144.108 -2.96865 5.33576 0
M  V30 1376 H 145.522 -0.724545 5.68703 0
M  V30 1377 H 143.919 0.001678 6.001 0
M  V30 1378 H 144.989 0.735553 4.79289 0
M  V30 1379 N 146.332 -1.57332 0.0918853 0
M  V30 1380 C 147.562 -1.98286 -0.580205 0
M  V30 1381 C 147.97 -0.969713 -1.6246 0
M  V30 1382 O 147.313 0.0493501 -1.83634 0
M  V30 1383 C 147.375 -3.35603 -1.28882 0
M  V30 1384 C 147.039 -4.55285 -0.395559 0
M  V30 1385 C 148.036 -5.18687 0.355002 0
M  V30 1386 C 145.721 -5.01314 -0.314556 0
M  V30 1387 C 147.715 -6.26484 1.17458 0
M  V30 1388 C 145.402 -6.08979 0.508677 0
M  V30 1389 C 146.4 -6.71429 1.2519 0
M  V30 1390 O 146.088 -7.77018 2.06151 0
M  V30 1391 H 145.82 -0.656678 -0.160466 0
M  V30 1392 H 148.374 -2.04721 0.16688 0
M  V30 1393 H 146.604 -3.25842 -2.08241 0
M  V30 1394 H 148.293 -3.61026 -1.85512 0
M  V30 1395 H 149.059 -4.84058 0.302134 0
M  V30 1396 H 144.938 -4.5247 -0.882697 0
M  V30 1397 H 148.482 -6.75159 1.75518 0
M  V30 1398 H 144.379 -6.4304 0.563037 0
M  V30 1399 H 145.147 -7.93991 1.98799 0
M  V30 1400 N 147.81 0.181792 -1.56548 0
M  V30 1401 C 149.087 0.926765 -1.72251 0
M  V30 1402 C 149.467 2.00831 -0.650386 0
M  V30 1403 O 148.815 2.26008 0.336521 0
M  V30 1404 C 149.025 1.50106 -3.1507 0
M  V30 1405 C 150.373 1.97805 -3.75711 0
M  V30 1406 O 151.397 1.59922 -3.18282 0
M  V30 1407 O 150.256 2.67555 -4.76525 0
M  V30 1408 H 147.35 0.435506 -0.703039 0
M  V30 1409 H 149.896 0.170443 -1.68842 0
M  V30 1410 H 148.668 0.72212 -3.84579 0
M  V30 1411 H 148.291 2.32186 -3.22763 0
M  V30 1412 N 149.288 1.51039 0.449983 0
M  V30 1413 C 150.518 1.66627 1.22143 0
M  V30 1414 C 150.926 0.357776 1.85786 0
M  V30 1415 O 150.269 -0.672424 1.70951 0
M  V30 1416 C 150.331 2.71562 2.35573 0
M  V30 1417 C 149.995 4.14526 1.92399 0
M  V30 1418 C 150.992 4.99717 1.43453 0
M  V30 1419 C 148.677 4.60559 2.00475 0
M  V30 1420 C 150.671 6.28998 1.03155 0
M  V30 1421 C 148.358 5.8984 1.59788 0
M  V30 1422 C 149.356 6.73886 1.11208 0
M  V30 1423 O 149.044 8.0075 0.710935 0
M  V30 1424 H 148.776 0.562635 0.374724 0
M  V30 1425 H 151.33 1.98146 0.541036 0
M  V30 1426 H 149.56 2.3533 3.06849 0
M  V30 1427 H 151.249 2.76156 2.97478 0
M  V30 1428 H 152.015 4.65361 1.36618 0
M  V30 1429 H 147.894 3.95273 2.37235 0
M  V30 1430 H 151.438 6.9455 0.651663 0
M  V30 1431 H 147.335 6.23713 1.66289 0
M  V30 1432 H 148.103 8.142 0.837913 0
M  V30 1433 N 150.766 -0.704594 1.40972 0
M  V30 1434 C 151.676 -1.84856 1.44448 0
M  V30 1435 C 152.692 -1.70726 0.335961 0
M  V30 1436 O 153.868 -1.92799 0.582276 0
M  V30 1437 C 150.933 -3.20758 1.31587 0
M  V30 1438 C 149.994 -3.47063 2.52677 0
M  V30 1439 C 149.227 -4.76481 2.4042 0
M  V30 1440 O 149.45 -5.52341 1.42391 0
M  V30 1441 O 148.384 -5.03367 3.30007 0
M  V30 1442 H 152.21 -1.8488 2.40942 0
M  V30 1443 H 149.795 -0.85647 1.22413 0
M  V30 1444 H 151.677 -4.01913 1.26665 0
M  V30 1445 H 150.352 -3.21438 0.382049 0
M  V30 1446 H 149.259 -2.65873 2.63177 0
M  V30 1447 H 150.592 -3.5119 3.44858 0
M  V30 1448 N 152.244 -1.26651 -0.937939 0
M  V30 1449 C 153.207 -1.08546 -2.01867 0
M  V30 1450 C 154.207 -0.0327327 -1.60767 0
M  V30 1451 O 155.397 -0.276427 -1.71993 0
M  V30 1452 C 152.529 -0.651711 -3.34613 0
M  V30 1453 H 153.722 -2.04502 -2.1936 0
M  V30 1454 H 151.275 -1.09294 -1.11734 0
M  V30 1455 H 152.01 0.309696 -3.22818 0
M  V30 1456 H 151.795 -1.41189 -3.65798 0
M  V30 1457 H 153.285 -0.546973 -4.14002 0
M  V30 1458 N 153.722 1.14298 -1.08507 0
M  V30 1459 C 155.138 1.37347 -0.812901 0
M  V30 1460 C 155.338 1.93052 0.577325 0
M  V30 1461 O 154.394 2.14389 1.33393 0
M  V30 1462 C 155.707 2.33359 -1.89642 0
M  V30 1463 C 157.255 2.46996 -1.92255 0
M  V30 1464 C 157.73 3.46309 -2.99724 0
M  V30 1465 N 159.221 3.53853 -2.98902 0
M  V30 1466 C 159.956 4.3055 -3.787 0
M  V30 1467 N 159.452 5.10482 -4.6838 0
M  V30 1468 N 161.245 4.25757 -3.66998 0
M  V30 1469 H 153.396 0.764867 -1.9815 0
M  V30 1470 H 155.659 0.398966 -0.859959 0
M  V30 1471 H 155.365 1.99565 -2.89597 0
M  V30 1472 H 155.239 3.33274 -1.76659 0
M  V30 1473 H 157.626 2.80081 -0.929445 0
M  V30 1474 H 157.707 1.47039 -2.09316 0
M  V30 1475 H 157.351 3.13957 -3.99241 0
M  V30 1476 H 157.281 4.46049 -2.79907 0
M  V30 1477 H 159.772 2.96812 -2.33904 0
M  V30 1478 H 160.085 5.66284 -5.25873 0
M  V30 1479 H 158.43 5.09747 -4.72422 0
M  V30 1480 H 161.621 3.62383 -2.96304 0
M  V30 1481 H 161.794 4.85279 -4.29427 0
M  V30 1482 N 155.201 0.870884 1.31352 0
M  V30 1483 C 156.429 0.49677 2.00848 0
M  V30 1484 C 156.844 -0.910998 1.65367 0
M  V30 1485 O 156.201 -1.59696 0.883374 0
M  V30 1486 C 156.252 0.645308 3.55694 0
M  V30 1487 O 155.973 1.99764 3.89905 0
M  V30 1488 C 157.474 0.272326 4.42463 0
M  V30 1489 H 154.694 0.193462 0.642506 0
M  V30 1490 H 157.238 1.1723 1.67563 0
M  V30 1491 H 155.393 0.0173176 3.87396 0
M  V30 1492 H 155.807 2.00607 4.84621 0
M  V30 1493 H 157.281 0.427208 5.50344 0
M  V30 1494 H 157.758 -0.788587 4.32062 0
M  V30 1495 H 158.364 0.876054 4.1618 0
M  V30 1496 N 156.679 -1.44442 0.630414 0
M  V30 1497 C 157.907 -2.06414 0.141671 0
M  V30 1498 C 158.322 -1.47105 -1.18345 0
M  V30 1499 O 157.679 -0.593662 -1.72574 0
M  V30 1500 C 157.73 -3.61494 0.0199784 0
M  V30 1501 O 157.451 -4.18594 1.29269 0
M  V30 1502 C 158.952 -4.40499 -0.497544 0
M  V30 1503 H 156.172 -0.666292 0.0793452 0
M  V30 1504 H 158.716 -1.85323 0.864614 0
M  V30 1505 H 156.871 -3.8185 -0.653402 0
M  V30 1506 H 157.285 -5.12026 1.13707 0
M  V30 1507 H 158.759 -5.49433 -0.531708 0
M  V30 1508 H 159.236 -4.11895 -1.52445 0
M  V30 1509 H 159.842 -4.25061 0.142562 0
M  V30 1510 N 158.157 -0.370918 -1.53173 0
M  V30 1511 C 159.067 0.480823 -2.2962 0
M  V30 1512 C 160.083 1.08789 -1.35798 0
M  V30 1513 O 161.259 1.09768 -1.68858 0
M  V30 1514 C 158.324 1.60227 -3.07454 0
M  V30 1515 C 157.385 1.0222 -4.16953 0
M  V30 1516 C 156.618 2.0902 -4.91066 0
M  V30 1517 O 156.841 3.30222 -4.65091 0
M  V30 1518 O 155.775 1.71778 -5.76867 0
M  V30 1519 H 159.601 -0.141421 -3.03371 0
M  V30 1520 H 157.186 -0.135146 -1.48787 0
M  V30 1521 H 159.068 2.25417 -3.56041 0
M  V30 1522 H 157.743 2.20982 -2.36535 0
M  V30 1523 H 156.65 0.334064 -3.72605 0
M  V30 1524 H 157.983 0.459131 -4.90054 0
M  V30 1525 N 159.635 1.57281 -0.100228 0
M  V30 1526 C 160.912 1.86014 0.604812 0
M  V30 1527 C 161.292 0.998025 1.86018 0
M  V30 1528 O 160.64 0.0718184 2.28387 0
M  V30 1529 C 160.85 3.36784 0.915278 0
M  V30 1530 C 162.198 4.04957 1.27651 0
M  V30 1531 O 163.222 3.41695 1.00613 0
M  V30 1532 O 162.081 5.16593 1.7831 0
M  V30 1533 H 159.175 0.76942 0.303185 0
M  V30 1534 H 161.721 1.69176 -0.133313 0
M  V30 1535 H 160.493 3.91292 0.0248896 0
M  V30 1536 H 160.116 3.58987 1.70921 0
M  V30 1537 N 161.113 -0.173488 1.56642 0
M  V30 1538 C 162.043 -1.2171 1.99271 0
M  V30 1539 C 163.024 -1.46289 0.867959 0
M  V30 1540 O 164.209 -1.5766 1.13388 0
M  V30 1541 C 161.339 -2.55651 2.35074 0
M  V30 1542 C 160.293 -2.45645 3.50489 0
M  V30 1543 C 159.619 -3.84056 3.72028 0
M  V30 1544 C 160.919 -1.96302 4.84007 0
M  V30 1545 H 162.613 -0.86275 2.867 0
M  V30 1546 H 160.159 -0.413571 1.37933 0
M  V30 1547 H 162.112 -3.2886 2.63494 0
M  V30 1548 H 160.836 -2.92869 1.44552 0
M  V30 1549 H 159.495 -1.7489 3.22194 0
M  V30 1550 H 159.143 -4.18664 2.788 0
M  V30 1551 H 158.843 -3.7823 4.49684 0
M  V30 1552 H 160.367 -4.58854 4.02846 0
M  V30 1553 H 161.781 -2.59284 5.11317 0
M  V30 1554 H 160.178 -2.01429 5.65284 0
M  V30 1555 H 161.248 -0.917226 4.76146 0
M  V30 1556 N 162.591 -1.51276 -0.441967 0
M  V30 1557 C 163.816 -1.67799 -1.21895 0
M  V30 1558 C 164.241 -0.372864 -1.84367 0
M  V30 1559 O 163.599 0.666501 -1.68604 0
M  V30 1560 C 163.647 -2.79199 -2.28211 0
M  V30 1561 O 162.751 -2.42479 -3.33583 0
M  V30 1562 H 162.092 -0.559649 -0.357336 0
M  V30 1563 H 164.622 -1.97815 -0.522522 0
M  V30 1564 H 164.632 -3.03146 -2.73069 0
M  V30 1565 H 163.307 -3.73906 -1.82118 0
M  V30 1566 H 161.884 -2.29087 -2.94234 0
M  V30 1567 N 164.069 0.697108 -1.41344 0
M  V30 1568 C 165.316 1.45714 -1.40619 0
M  V30 1569 C 165.644 1.94494 -0.0147907 0
M  V30 1570 O 164.899 1.69794 0.973066 0
M  V30 1571 C 165.198 2.68553 -2.35826 0
M  V30 1572 C 164.864 2.38438 -3.82698 0
M  V30 1573 C 163.526 2.29936 -4.22709 0
M  V30 1574 C 165.878 2.13567 -4.75435 0
M  V30 1575 C 163.206 1.94656 -5.53467 0
M  V30 1576 C 165.558 1.79797 -6.06511 0
M  V30 1577 C 164.222 1.69789 -6.45545 0
M  V30 1578 H 163.492 0.533206 -0.51456 0
M  V30 1579 H 166.139 0.796901 -1.74131 0
M  V30 1580 H 164.444 3.39503 -1.95563 0
M  V30 1581 H 166.141 3.2669 -2.32539 0
M  V30 1582 H 162.731 2.4595 -3.51008 0
M  V30 1583 H 166.915 2.19082 -4.45328 0
M  V30 1584 H 162.171 1.8546 -5.82593 0
M  V30 1585 H 166.345 1.59572 -6.77872 0
M  V30 1586 H 163.972 1.4222 -7.46778 0
M  V30 1587 N 165.547 1.27147 0.931209 0
M  V30 1588 C 166.494 1.09568 2.03134 0
M  V30 1589 C 167.464 -0.00222433 1.661 0
M  V30 1590 O 168.649 0.159439 1.90133 0
M  V30 1591 C 165.789 0.745231 3.36957 0
M  V30 1592 C 164.902 1.92041 3.86968 0
M  V30 1593 C 164.037 1.51216 5.09222 0
M  V30 1594 C 163.076 2.65504 5.5152 0
M  V30 1595 N 162.213 2.25291 6.64972 0
M  V30 1596 H 167.053 2.03708 2.17502 0
M  V30 1597 H 164.59 1.01411 1.06556 0
M  V30 1598 H 166.548 0.522878 4.1391 0
M  V30 1599 H 165.178 -0.159202 3.22407 0
M  V30 1600 H 164.23 2.25541 3.06326 0
M  V30 1601 H 165.542 2.77787 4.1429 0
M  V30 1602 H 164.696 1.25084 5.93666 0
M  V30 1603 H 163.435 0.625749 4.83669 0
M  V30 1604 H 162.44 2.92354 4.65628 0
M  V30 1605 H 163.665 3.54761 5.7907 0
M  V30 1606 H 161.611 1.39098 6.41083 0
M  V30 1607 H 161.528 3.04577 6.91931 0
M  V30 1608 H 162.796 2.02398 7.52765 0
M  V30 1609 N 167.025 -1.13721 1.09112 0
M  V30 1610 C 167.972 -2.19031 0.727591 0
M  V30 1611 C 168.942 -1.63555 -0.289656 0
M  V30 1612 O 170.127 -1.90023 -0.172026 0
M  V30 1613 C 167.267 -3.4477 0.15082 0
M  V30 1614 C 166.38 -4.14365 1.22172 0
M  V30 1615 C 165.515 -5.27709 0.608042 0
M  V30 1616 C 164.554 -5.89147 1.66047 0
M  V30 1617 N 163.691 -6.93929 1.06806 0
M  V30 1618 H 168.531 -2.49475 1.62991 0
M  V30 1619 H 166.068 -1.22499 0.81439 0
M  V30 1620 H 168.026 -4.16714 -0.201358 0
M  V30 1621 H 166.656 -3.14787 -0.714783 0
M  V30 1622 H 165.708 -3.40737 1.69122 0
M  V30 1623 H 167.02 -4.56114 2.01895 0
M  V30 1624 H 166.174 -6.06355 0.204523 0
M  V30 1625 H 164.913 -4.872 -0.220769 0
M  V30 1626 H 163.918 -5.09198 2.07357 0
M  V30 1627 H 165.143 -6.31729 2.49189 0
M  V30 1628 H 163.089 -6.55483 0.260476 0
M  V30 1629 H 163.006 -7.34202 1.8023 0
M  V30 1630 H 164.274 -7.76434 0.690644 0
M  V30 1631 N 168.503 -0.877838 -1.30888 0
M  V30 1632 C 169.751 -0.491723 -1.96027 0
M  V30 1633 C 170.072 0.960827 -1.69685 0
M  V30 1634 O 169.342 1.67462 -1.01654 0
M  V30 1635 H 167.922 -0.17885 -0.725273 0
M  V30 1636 H 170.584 -1.11935 -1.59551 0
M  V30 1637 H 169.68 -0.656016 -3.05128 0
M  V30 1638 N 169.982 1.44106 -0.638065 0
M  V30 1639 C 170.892 2.34513 0.0637334 0
M  V30 1640 C 171.908 1.53018 0.828346 0
M  V30 1641 O 173.084 1.85723 0.779036 0
M  V30 1642 C 170.149 3.31095 1.02844 0
M  V30 1643 C 169.21 4.28497 0.26244 0
M  V30 1644 C 168.443 5.20465 1.1812 0
M  V30 1645 O 168.666 5.16514 2.42011 0
M  V30 1646 O 167.6 5.98251 0.661774 0
M  V30 1647 H 171.426 2.95989 -0.68003 0
M  V30 1648 H 169.011 1.43994 -0.398252 0
M  V30 1649 H 170.893 3.90526 1.58327 0
M  V30 1650 H 169.568 2.72144 1.7527 0
M  V30 1651 H 168.475 3.72592 -0.335602 0
M  V30 1652 H 169.808 4.90388 -0.421936 0
M  V30 1653 N 171.46 0.379036 1.52974 0
M  V30 1654 C 172.876 0.0285448 1.59574 0
M  V30 1655 C 173.076 -1.45542 1.39355 0
M  V30 1656 O 172.132 -2.2187 1.20541 0
M  V30 1657 C 173.445 0.496535 2.96572 0
M  V30 1658 C 174.993 0.451909 3.0972 0
M  V30 1659 C 175.468 0.895924 4.49152 0
M  V30 1660 N 176.959 0.851522 4.55306 0
M  V30 1661 C 177.694 1.16661 5.61407 0
M  V30 1662 N 177.19 1.55166 6.752 0
M  V30 1663 N 178.983 1.08853 5.51459 0
M  V30 1664 H 171.134 1.34525 1.64367 0
M  V30 1665 H 173.397 0.550733 0.771619 0
M  V30 1666 H 173.103 1.53258 3.16552 0
M  V30 1667 H 172.977 -0.109802 3.7704 0
M  V30 1668 H 175.364 -0.575029 2.89443 0
M  V30 1669 H 175.445 1.09392 2.3123 0
M  V30 1670 H 175.089 1.92104 4.70168 0
M  V30 1671 H 175.019 0.23103 5.26093 0
M  V30 1672 H 177.51 0.568038 3.73606 0
M  V30 1673 H 177.823 1.776 7.52116 0
M  V30 1674 H 176.168 1.59044 6.76557 0
M  V30 1675 H 179.359 0.786803 4.6144 0
M  V30 1676 H 179.532 1.33742 6.34048 0
M  V30 1677 N 172.938 -1.57226 0.108567 0
M  V30 1678 C 174.185 -1.94833 -0.551943 0
M  V30 1679 C 174.513 -0.991204 -1.67348 0
M  V30 1680 O 173.768 -0.0131878 -1.95696 0
M  V30 1681 C 174.067 -3.38911 -1.13463 0
M  V30 1682 C 173.733 -4.50696 -0.135509 0
M  V30 1683 C 172.395 -4.80998 0.139252 0
M  V30 1684 C 174.747 -5.18333 0.545957 0
M  V30 1685 C 172.075 -5.76259 1.10194 0
M  V30 1686 C 174.427 -6.14627 1.49721 0
M  V30 1687 C 173.091 -6.43327 1.78006 0
M  V30 1688 H 172.361 -0.712944 -0.20197 0
M  V30 1689 H 175.008 -1.90582 0.18726 0
M  V30 1690 H 173.313 -3.39805 -1.95037 0
M  V30 1691 H 175.01 -3.65317 -1.65362 0
M  V30 1692 H 171.6 -4.27087 -0.359846 0
M  V30 1693 H 175.784 -4.95087 0.346842 0
M  V30 1694 H 171.04 -5.96804 1.32795 0
M  V30 1695 H 175.214 -6.66126 2.03099 0
M  V30 1696 H 172.841 -7.1695 2.52759 0
M  V30 1697 N 174.416 0.165178 -1.56732 0
M  V30 1698 C 175.348 1.22911 -1.93457 0
M  V30 1699 C 176.361 1.40152 -0.828333 0
M  V30 1700 O 177.55 1.40046 -1.10677 0
M  V30 1701 C 174.65 2.59686 -2.17753 0
M  V30 1702 C 173.823 2.63663 -3.48999 0
M  V30 1703 C 172.882 3.81845 -3.62051 0
M  V30 1704 O 171.908 3.67559 -4.34613 0
M  V30 1705 N 173.11 4.98557 -2.97357 0
M  V30 1706 H 175.875 0.917118 -2.85323 0
M  V30 1707 H 173.436 0.354895 -1.57962 0
M  V30 1708 H 175.428 3.37225 -2.23743 0
M  V30 1709 H 173.998 2.83251 -1.32242 0
M  V30 1710 H 173.218 1.72173 -3.54612 0
M  V30 1711 H 174.506 2.63336 -4.35352 0
M  V30 1712 H 173.904 5.13065 -2.38287 0
M  V30 1713 H 172.461 5.73936 -3.08934 0
M  V30 1714 N 175.894 1.51508 0.433938 0
M  V30 1715 C 177.143 1.63578 1.18005 0
M  V30 1716 C 177.456 0.359514 1.92268 0
M  V30 1717 O 178.662 0.359632 2.69108 0
M  V30 1718 C 177.118 2.88901 2.14626 0
M  V30 1719 C 176.726 4.23544 1.45995 0
M  V30 1720 C 178.47 3.10328 2.89649 0
M  V30 1721 C 176.377 5.40014 2.4112 0
M  V30 1722 H 175.307 0.609277 0.444182 0
M  V30 1723 H 177.958 1.77978 0.446773 0
M  V30 1724 H 176.34 2.68142 2.91403 0
M  V30 1725 H 177.514 4.54696 0.747532 0
M  V30 1726 H 175.829 4.08021 0.831115 0
M  V30 1727 H 178.426 3.94518 3.60915 0
M  V30 1728 H 178.769 2.23544 3.51189 0
M  V30 1729 H 179.302 3.31443 2.19978 0
M  V30 1730 H 176.041 6.29068 1.84264 0
M  V30 1731 H 175.561 5.13233 3.10406 0
M  V30 1732 H 177.24 5.72099 3.02177 0
M  V30 1733 N 177.372 -0.689602 1.41712 0
M  V30 1734 C 178.621 -1.44534 1.40686 0
M  V30 1735 C 178.934 -1.95588 0.0213352 0
M  V30 1736 O 180.14 -2.71271 -0.111534 0
M  V30 1737 C 178.596 -2.61387 2.47396 0
M  V30 1738 C 178.204 -2.17094 3.91885 0
M  V30 1739 C 179.948 -3.38986 2.55517 0
M  V30 1740 C 177.855 -3.3094 4.90135 0
M  V30 1741 H 176.785 -0.542925 0.52321 0
M  V30 1742 H 179.436 -0.748054 1.6756 0
M  V30 1743 H 177.818 -3.33412 2.13664 0
M  V30 1744 H 178.992 -1.52318 4.34897 0
M  V30 1745 H 177.307 -1.52473 3.8748 0
M  V30 1746 H 179.904 -4.23747 3.26102 0
M  V30 1747 H 180.247 -3.84578 1.59391 0
M  V30 1748 H 180.78 -2.74021 2.8837 0
M  V30 1749 H 177.519 -2.90355 5.87685 0
M  V30 1750 H 177.039 -3.94546 4.51767 0
M  V30 1751 H 178.718 -3.9663 5.11169 0
M  V30 1752 N 178.85 -1.27639 -0.924453 0
M  V30 1753 C 179.798 -1.10485 -2.04685 0
M  V30 1754 C 180.792 -0.0270421 -1.69378 0
M  V30 1755 O 181.998 -0.185008 -1.79047 0
M  V30 1756 H 178.373 -0.340546 -0.670472 0
M  V30 1757 H 180.344 -2.05566 -2.16298 0
M  V30 1758 C 179.093 -0.772229 -3.39016 0
M  V30 1759 H 178.416 -1.59351 -3.66671 0
M  V30 1760 H 179.856 -0.692097 -4.18313 0
M  V30 1761 C 178.315 0.523554 -3.32807 0
M  V30 1762 O 178.845 1.55702 -3.70297 0
M  V30 1763 N 177.051 0.520363 -2.85903 0
M  V30 1764 H 176.598 -0.32107 -2.55591 0
M  V30 1765 H 176.556 1.38742 -2.82131 0
M  V30 1766 N 180.328 1.1314 -1.09713 0
M  V30 1767 C 181.276 2.20717 -0.733934 0
M  V30 1768 C 182.27 1.6729 0.266506 0
M  V30 1769 O 183.476 1.79547 0.127656 0
M  V30 1770 H 179.851 0.719292 -0.21937 0
M  V30 1771 H 181.822 2.48611 -1.6503 0
M  V30 1772 C 180.571 3.47265 -0.173849 0
M  V30 1773 H 179.894 3.88716 -0.934873 0
M  V30 1774 H 181.334 4.23979 0.0423126 0
M  V30 1775 C 179.793 3.18724 1.09164 0
M  V30 1776 O 180.323 3.37762 2.17439 0
M  V30 1777 N 178.529 2.72583 1.00732 0
M  V30 1778 H 178.076 2.57291 0.126121 0
M  V30 1779 H 178.034 2.53862 1.85476 0
M  V30 1780 N 181.806 0.884767 1.30421 0
M  V30 1781 C 183.034 0.518044 2.0031 0
M  V30 1782 C 183.449 -0.893408 1.66324 0
M  V30 1783 O 182.806 -1.5875 0.900262 0
M  V30 1784 C 182.857 0.682997 3.54989 0
M  V30 1785 O 182.578 2.03888 3.87764 0
M  V30 1786 C 184.079 0.31924 4.42149 0
M  V30 1787 H 181.299 0.200265 0.640418 0
M  V30 1788 H 183.843 1.19001 1.6631 0
M  V30 1789 H 181.998 0.0584052 3.87356 0
M  V30 1790 H 182.412 2.05735 4.82466 0
M  V30 1791 H 183.886 0.485555 5.4986 0
M  V30 1792 H 184.363 -0.742717 4.32875 0
M  V30 1793 H 184.969 0.920147 4.15227 0
M  V30 1794 N 183.284 -1.43765 0.645699 0
M  V30 1795 C 184.194 -2.34544 -0.0512957 0
M  V30 1796 C 185.21 -1.53455 -0.82022 0
M  V30 1797 O 186.386 -1.86133 -0.769176 0
M  V30 1798 C 183.451 -3.31636 -1.01087 0
M  V30 1799 C 182.512 -4.2863 -0.239712 0
M  V30 1800 C 181.745 -5.21084 -1.15358 0
M  V30 1801 O 181.968 -5.1779 -2.39269 0
M  V30 1802 O 180.902 -5.98593 -0.630038 0
M  V30 1803 H 184.728 -2.95624 0.695718 0
M  V30 1804 H 182.313 -1.43781 0.405882 0
M  V30 1805 H 184.195 -3.9136 -1.56254 0
M  V30 1806 H 182.87 -2.73069 -1.73824 0
M  V30 1807 H 181.777 -3.72408 0.355356 0
M  V30 1808 H 183.11 -4.90157 0.447936 0
M  V30 1809 N 184.763 -0.387143 -1.52771 0
M  V30 1810 C 186.011 0.195349 -2.01154 0
M  V30 1811 C 186.332 1.475 -1.27549 0
M  V30 1812 O 185.602 1.91878 -0.394924 0
M  V30 1813 H 184.182 0.075178 -0.743207 0
M  V30 1814 H 186.844 -0.518337 -1.87881 0
M  V30 1815 H 185.94 0.407096 -3.09434 0
M  V30 1816 N 186.241 1.57166 -0.116904 0
M  V30 1817 C 187.518 1.86645 0.585049 0
M  V30 1818 C 187.898 1.0177 1.84949 0
M  V30 1819 O 187.246 0.0960379 2.28298 0
M  V30 1820 C 187.456 3.37736 0.879507 0
M  V30 1821 C 188.804 4.06289 1.23348 0
M  V30 1822 O 189.828 3.42743 0.969836 0
M  V30 1823 O 188.687 5.18455 1.7282 0
M  V30 1824 H 185.781 0.772593 0.295007 0
M  V30 1825 H 188.327 1.69025 -0.151249 0
M  V30 1826 H 187.099 3.91296 -0.0166136 0
M  V30 1827 H 186.722 3.6078 1.67103 0
M  V30 1828 N 187.719 -0.156864 1.56817 0
M  V30 1829 C 188.965 -0.867645 1.83966 0
M  V30 1830 C 189.32 -1.79233 0.699511 0
M  V30 1831 O 188.613 -1.89186 -0.303176 0
M  V30 1832 C 188.807 -1.68737 3.1506 0
M  V30 1833 C 188.636 -0.843548 4.41718 0
M  V30 1834 C 187.406 -0.512994 5.02689 0
M  V30 1835 C 189.604 -0.178416 5.1399 0
M  V30 1836 N 187.586 0.345456 6.12927 0
M  V30 1837 C 188.957 0.540586 6.17639 0
M  V30 1838 C 191.012 -0.0980696 4.97803 0
M  V30 1839 C 189.715 1.33233 7.06853 0
M  V30 1840 C 191.741 0.680387 5.87473 0
M  V30 1841 C 191.103 1.3877 6.90596 0
M  V30 1842 H 187.202 -0.295642 0.723961 0
M  V30 1843 H 189.786 -0.13365 1.94241 0
M  V30 1844 H 187.957 -2.39268 3.0595 0
M  V30 1845 H 189.689 -2.34056 3.30151 0
M  V30 1846 H 186.444 -0.846476 4.65974 0
M  V30 1847 H 186.868 0.765415 6.72659 0
M  V30 1848 H 191.51 -0.630562 4.18071 0
M  V30 1849 H 189.228 1.87612 7.8602 0
M  V30 1850 H 192.814 0.744415 5.77018 0
M  V30 1851 H 191.694 1.9804 7.58782 0
M  V30 1852 N 189.197 -1.51736 -0.425897 0
M  V30 1853 C 190.443 -1.66174 -1.17294 0
M  V30 1854 C 190.798 -0.37876 -1.88635 0
M  V30 1855 O 190.091 0.626021 -1.81084 0
M  V30 1856 C 190.285 -2.81103 -2.20717 0
M  V30 1857 C 190.114 -4.20453 -1.59529 0
M  V30 1858 C 188.884 -4.86225 -1.37525 0
M  V30 1859 C 191.082 -5.03146 -1.06528 0
M  V30 1860 N 189.064 -6.09657 -0.720537 0
M  V30 1861 C 190.435 -6.17674 -0.536506 0
M  V30 1862 C 192.49 -4.88594 -0.958127 0
M  V30 1863 C 191.193 -7.19245 0.0888917 0
M  V30 1864 C 193.219 -5.90383 -0.346608 0
M  V30 1865 C 192.581 -7.04191 0.171564 0
M  V30 1866 H 188.68 -0.661871 -0.416475 0
M  V30 1867 H 191.264 -1.88997 -0.467801 0
M  V30 1868 H 189.435 -2.59924 -2.88607 0
M  V30 1869 H 191.167 -2.84662 -2.87663 0
M  V30 1870 H 187.922 -4.44293 -1.64015 0
M  V30 1871 H 188.346 -6.75756 -0.410292 0
M  V30 1872 H 192.988 -4.0085 -1.34459 0
M  V30 1873 H 190.706 -8.06628 0.48746 0
M  V30 1874 H 194.292 -5.81194 -0.265451 0
M  V30 1875 H 193.172 -7.81606 0.637309 0
M  V30 1876 N 190.675 0.682077 -1.42076 0
M  V30 1877 C 191.585 1.82535 -1.47371 0
M  V30 1878 C 192.601 1.7017 -0.363079 0
M  V30 1879 O 193.777 1.91848 -0.612875 0
M  V30 1880 C 190.842 3.18624 -1.36674 0
M  V30 1881 C 189.903 3.42999 -2.58167 0
M  V30 1882 C 189.136 4.72595 -2.4797 0
M  V30 1883 O 189.359 5.50006 -1.5116 0
M  V30 1884 O 188.293 4.98054 -3.37974 0
M  V30 1885 H 192.119 1.81023 -2.43853 0
M  V30 1886 H 189.704 0.836887 -1.2376 0
M  V30 1887 H 191.586 3.99847 -1.33043 0
M  V30 1888 H 190.261 3.20789 -0.433138 0
M  V30 1889 H 189.168 2.61653 -2.67373 0
M  V30 1890 H 190.501 3.45659 -3.50401 0
M  V30 1891 N 192.153 1.28127 0.917671 0
M  V30 1892 C 193.116 1.11744 2.00115 0
M  V30 1893 C 194.116 0.0583052 1.60694 0
M  V30 1894 O 195.306 0.303755 1.71531 0
M  V30 1895 C 192.438 0.704862 3.33533 0
M  V30 1896 H 193.631 2.07966 2.16079 0
M  V30 1897 H 191.184 1.11058 1.09981 0
M  V30 1898 H 191.919 -0.258299 3.2327 0
M  V30 1899 H 191.704 1.4699 3.63505 0
M  V30 1900 H 193.194 0.612768 4.1308 0
M  V30 1901 N 193.631 -1.12557 1.10312 0
M  V30 1902 C 195.047 -1.36036 0.834649 0
M  V30 1903 C 195.247 -1.93946 -0.546539 0
M  V30 1904 O 194.303 -2.16484 -1.29966 0
M  V30 1905 C 195.616 -2.30312 1.9333 0
M  V30 1906 C 197.164 -2.43906 1.9616 0
M  V30 1907 C 197.639 -3.41496 3.05195 0
M  V30 1908 N 199.13 -3.49053 3.04494 0
M  V30 1909 C 199.865 -4.24471 3.85502 0
M  V30 1910 N 199.361 -5.02966 4.76442 0
M  V30 1911 N 201.154 -4.19864 3.73725 0
M  V30 1912 H 193.305 -0.733246 1.99342 0
M  V30 1913 H 195.568 -0.385234 0.866198 0
M  V30 1914 H 195.274 -1.94933 2.92735 0
M  V30 1915 H 195.148 -3.30421 1.81939 0
M  V30 1916 H 197.535 -2.78567 0.973886 0
M  V30 1917 H 197.616 -1.4369 2.11629 0
M  V30 1918 H 197.26 -3.07565 4.04186 0
M  V30 1919 H 197.19 -4.41539 2.86968 0
M  V30 1920 H 199.681 -2.93053 2.38596 0
M  V30 1921 H 199.994 -5.57846 5.34815 0
M  V30 1922 H 198.339 -5.02167 4.80472 0
M  V30 1923 H 201.53 -3.57623 3.02032 0
M  V30 1924 H 201.703 -4.78386 4.37093 0
M  V30 1925 N 195.109 -0.891671 -1.2995 0
M  V30 1926 C 196.334 -0.527932 -2.00568 0
M  V30 1927 C 196.759 0.877969 -1.66353 0
M  V30 1928 O 196.117 1.58301 -0.883762 0
M  V30 1929 C 196.165 -0.717745 -3.53385 0
M  V30 1930 O 195.269 0.233376 -4.11739 0
M  V30 1931 H 194.61 -0.20722 -0.630837 0
M  V30 1932 H 197.14 -1.20105 -1.65638 0
M  V30 1933 H 197.15 -0.619307 -4.03272 0
M  V30 1934 H 195.825 -1.74276 -3.77625 0
M  V30 1935 H 194.402 0.0880706 -3.72796 0
M  V30 1936 N 196.587 1.43421 -0.653314 0
M  V30 1937 C 197.836 2.01032 -0.164076 0
M  V30 1938 C 198.149 1.52147 1.22926 0
M  V30 1939 O 199.355 2.02031 1.81371 0
M  V30 1940 C 197.811 3.59082 -0.24252 0
M  V30 1941 C 197.419 4.1696 -1.63855 0
M  V30 1942 C 199.163 4.24079 0.18911 0
M  V30 1943 C 197.07 5.67304 -1.67092 0
M  V30 1944 H 196 0.751798 -0.0575769 0
M  V30 1945 H 198.651 1.6439 -0.815362 0
M  V30 1946 H 197.033 3.93125 0.476276 0
M  V30 1947 H 198.207 3.94416 -2.38271 0
M  V30 1948 H 196.522 3.64335 -2.01616 0
M  V30 1949 H 199.119 5.34381 0.184775 0
M  V30 1950 H 199.462 3.98005 1.22056 0
M  V30 1951 H 199.995 3.94918 -0.477938 0
M  V30 1952 H 196.734 5.98145 -2.68146 0
M  V30 1953 H 196.254 5.91904 -0.970014 0
M  V30 1954 H 197.933 6.31344 -1.4147 0
M  V30 1955 N 198.065 0.39524 1.52563 0
M  V30 1956 C 199.028 -0.425001 2.25225 0
M  V30 1957 C 200.028 -0.985266 1.27079 0
M  V30 1958 O 201.218 -0.866332 1.5113 0
M  V30 1959 C 198.35 -1.59686 3.01186 0
M  V30 1960 H 199.543 0.211233 2.99155 0
M  V30 1961 H 197.096 0.147472 1.55603 0
M  V30 1962 H 197.831 -2.27035 2.31572 0
M  V30 1963 H 197.616 -1.20176 3.73229 0
M  V30 1964 H 199.106 -2.17743 3.5634 0
M  V30 1965 N 199.544 -1.57102 0.125237 0
M  V30 1966 C 200.772 -1.99761 -0.538797 0
M  V30 1967 C 201.187 -1.00503 -1.59827 0
M  V30 1968 O 200.544 0.00119474 -1.825 0
M  V30 1969 C 200.595 -3.42408 -1.15927 0
M  V30 1970 O 200.316 -4.37869 -0.142143 0
M  V30 1971 C 201.817 -4.00232 -1.90602 0
M  V30 1972 H 199.037 -0.655772 -0.14214 0
M  V30 1973 H 201.581 -2.03383 0.213413 0
M  V30 1974 H 199.736 -3.39706 -1.86223 0
M  V30 1975 H 200.15 -5.21128 -0.593775 0
M  V30 1976 H 201.624 -5.02105 -2.29335 0
M  V30 1977 H 202.101 -3.39721 -2.78363 0
M  V30 1978 H 202.707 -4.06499 -1.25055 0
M  V30 1979 N 201.022 0.148545 -1.56898 0
M  V30 1980 C 202.27 0.859717 -1.82902 0
M  V30 1981 C 202.591 1.81775 -0.70588 0
M  V30 1982 O 201.861 1.93994 0.272586 0
M  V30 1983 H 200.441 0.320469 -0.674766 0
M  V30 1984 H 203.103 0.142918 -1.94375 0
M  V30 1985 H 202.199 1.4229 -2.77777 0
M  V30 1986 N 202.5 1.5196 0.417844 0
M  V30 1987 C 203.447 1.74678 1.50852 0
M  V30 1988 C 204.417 0.588947 1.55308 0
M  V30 1989 O 205.602 0.825544 1.72016 0
M  V30 1990 C 202.742 1.89544 2.88387 0
M  V30 1991 C 201.855 3.17166 2.93309 0
M  V30 1992 C 200.99 3.22513 4.22088 0
M  V30 1993 C 200.029 4.44372 4.20951 0
M  V30 1994 N 199.166 4.47161 5.41287 0
M  V30 1995 H 204.006 2.67768 1.30783 0
M  V30 1996 H 201.543 1.32689 0.63498 0
M  V30 1997 H 203.501 1.96146 3.68216 0
M  V30 1998 H 202.131 0.998424 3.06971 0
M  V30 1999 H 201.183 3.19778 2.06024 0
M  V30 2000 H 202.495 4.07021 2.88332 0
M  V30 2001 H 201.649 3.28139 5.10303 0
M  V30 2002 H 200.388 2.30581 4.29748 0
M  V30 2003 H 199.393 4.38902 3.31127 0
M  V30 2004 H 200.618 5.3759 4.14938 0
M  V30 2005 H 198.564 3.58108 5.49632 0
M  V30 2006 H 198.481 5.3085 5.3827 0
M  V30 2007 H 199.749 4.57005 6.3148 0
M  V30 2008 N 203.978 -0.674533 1.42435 0
M  V30 2009 C 204.926 -1.80934 1.46169 0
M  V30 2010 C 205.92 -1.66006 0.3374 0
M  V30 2011 O 207.126 -1.72611 0.510425 0
M  V30 2012 H 203.501 -0.596594 0.457798 0
M  V30 2013 H 205.472 -1.74903 2.41767 0
M  V30 2014 C 204.221 -3.19088 1.38123 0
M  V30 2015 H 203.544 -3.31203 2.23931 0
M  V30 2016 H 204.984 -3.9851 1.44797 0
M  V30 2017 C 203.443 -3.36763 0.0960517 0
M  V30 2018 O 203.973 -3.92581 -0.851073 0
M  V30 2019 N 202.179 -2.90597 0.0131186 0
M  V30 2020 H 201.726 -2.45359 0.784639 0
M  V30 2021 H 201.684 -3.028 -0.846133 0
M  V30 2022 N 205.456 -1.28612 -0.910864 0
M  V30 2023 C 206.704 -1.15705 -1.65701 0
M  V30 2024 C 207.025 0.29416 -1.92769 0
M  V30 2025 O 206.295 1.20331 -1.54588 0
M  V30 2026 H 204.875 -0.425216 -0.614167 0
M  V30 2027 H 207.537 -1.61381 -1.0928 0
M  V30 2028 H 206.633 -1.6988 -2.61815 0
M  V30 2029 N 206.934 1.1197 -1.10907 0
M  V30 2030 C 208.164 1.8713 -0.875553 0
M  V30 2031 C 208.572 1.8016 0.577843 0
M  V30 2032 O 207.915 1.17699 1.41042 0
M  V30 2033 C 207.977 3.37005 -1.2517 0
M  V30 2034 C 207.641 3.67748 -2.71313 0
M  V30 2035 C 208.638 3.65698 -3.69542 0
M  V30 2036 C 206.323 3.96928 -3.07821 0
M  V30 2037 C 208.317 3.92395 -5.023 0
M  V30 2038 C 206.004 4.23284 -4.40765 0
M  V30 2039 C 207.002 4.21005 -5.37814 0
M  V30 2040 O 206.69 4.46704 -6.68364 0
M  V30 2041 H 206.422 0.598786 -0.313737 0
M  V30 2042 H 208.976 1.42568 -1.47863 0
M  V30 2043 H 207.206 3.82146 -0.591741 0
M  V30 2044 H 208.895 3.93519 -0.994877 0
M  V30 2045 H 209.661 3.43211 -3.42682 0
M  V30 2046 H 205.54 3.97841 -2.32902 0
M  V30 2047 H 209.084 3.90531 -5.78041 0
M  V30 2048 H 204.981 4.45246 -4.67361 0
M  V30 2049 H 205.749 4.64299 -6.74069 0
M  V30 2050 N 208.412 0.89855 1.29475 0
M  V30 2051 C 209.661 0.519863 1.94885 0
M  V30 2052 C 209.974 -0.9383 1.71625 0
M  V30 2053 O 211.18 -1.42445 2.31131 0
M  V30 2054 C 209.636 0.878836 3.49005 0
M  V30 2055 C 209.244 2.35569 3.81066 0
M  V30 2056 C 210.988 0.570004 4.20656 0
M  V30 2057 C 208.895 2.65558 5.28425 0
M  V30 2058 H 207.825 0.190692 0.729488 0
M  V30 2059 H 210.476 1.09539 1.47219 0
M  V30 2060 H 208.858 0.232253 3.95318 0
M  V30 2061 H 210.032 3.04773 3.45616 0
M  V30 2062 H 208.347 2.63343 3.22552 0
M  V30 2063 H 210.944 0.770925 5.29113 0
M  V30 2064 H 211.287 -0.491404 4.1339 0
M  V30 2065 H 211.82 1.17438 3.8007 0
M  V30 2066 H 208.559 3.70493 5.40754 0
M  V30 2067 H 208.079 2.00977 5.65127 0
M  V30 2068 H 209.758 2.51765 5.96006 0
M  V30 2069 N 209.89 -1.43072 0.660911 0
M  V30 2070 C 211.301 -1.84932 0.256348 0
M  V30 2071 C 211.652 -1.55325 -1.19868 0
M  V30 2072 O 210.777 -1.00607 -1.91591 0
M  V30 2073 C 211.372 -3.35684 0.458475 0
M  V30 2074 C 209.931 -3.76245 0.108161 0
M  V30 2075 C 209.078 -2.66749 0.757641 0
M  V30 2076 H 212.029 -1.33116 0.864051 0
M  V30 2077 H 212.05 -3.79365 -0.293683 0
M  V30 2078 H 211.562 -3.572 1.51755 0
M  V30 2079 H 209.663 -3.60338 -0.948014 0
M  V30 2080 H 209.776 -4.76058 0.538992 0
M  V30 2081 H 208.14 -2.53989 0.190185 0
M  V30 2082 H 208.923 -2.91092 1.81989 0
M  V30 2083 N 211.368 -0.403325 -1.52352 0
M  V30 2084 C 212.593 0.176499 -2.06648 0
M  V30 2085 C 213.018 1.38577 -1.27193 0
M  V30 2086 O 212.376 1.7879 -0.300637 0
M  V30 2087 C 212.424 0.511061 -3.5696 0
M  V30 2088 O 211.528 1.60294 -3.79973 0
M  V30 2089 H 210.869 0.0167337 -0.663789 0
M  V30 2090 H 213.399 -0.574848 -1.96359 0
M  V30 2091 H 213.409 0.771362 -4.00642 0
M  V30 2092 H 212.084 -0.37296 -4.14224 0
M  V30 2093 H 210.661 1.33526 -3.48174 0
M  V30 2094 N 212.846 1.57033 -0.133567 0
M  V30 2095 C 213.794 2.17348 0.828412 0
M  V30 2096 C 214.788 1.12671 1.26498 0
M  V30 2097 O 215.994 1.30947 1.23502 0
M  V30 2098 H 212.369 0.695775 0.285309 0
M  V30 2099 H 214.34 2.96935 0.295372 0
M  V30 2100 C 213.089 2.79893 2.06289 0
M  V30 2101 H 212.412 3.60147 1.73592 0
M  V30 2102 H 213.852 3.25615 2.71572 0
M  V30 2103 C 212.311 1.77713 2.86216 0
M  V30 2104 O 212.841 1.23937 3.82103 0
M  V30 2105 N 211.047 1.47321 2.50489 0
M  V30 2106 H 210.594 1.91243 1.7258 0
M  V30 2107 H 210.552 0.79199 3.04261 0
M  V30 2108 N 214.325 -0.140222 1.56975 0
M  V30 2109 C 215.555 -0.865181 1.87612 0
M  V30 2110 C 215.963 -1.74942 0.72055 0
M  V30 2111 O 215.306 -1.80917 -0.318561 0
M  V30 2112 C 215.368 -1.76782 3.13031 0
M  V30 2113 C 215.032 -1.06005 4.44536 0
M  V30 2114 C 216.029 -0.410768 5.18275 0
M  V30 2115 C 213.714 -1.04754 4.91255 0
M  V30 2116 C 215.708 0.241572 6.36942 0
M  V30 2117 C 213.395 -0.391394 6.09845 0
M  V30 2118 C 214.393 0.252029 6.82535 0
M  V30 2119 O 214.081 0.897757 7.98871 0
M  V30 2120 H 213.813 -0.255188 0.625983 0
M  V30 2121 H 216.367 -0.135653 2.04952 0
M  V30 2122 H 214.597 -2.53846 2.91718 0
M  V30 2123 H 216.286 -2.36533 3.29859 0
M  V30 2124 H 217.052 -0.412195 4.83245 0
M  V30 2125 H 212.931 -1.53777 4.34596 0
M  V30 2126 H 216.475 0.744375 6.93617 0
M  V30 2127 H 212.372 -0.387656 6.44335 0
M  V30 2128 H 213.14 0.800102 8.1458 0
M  V30 2129 N 215.803 -1.52179 -0.40978 0
M  V30 2130 C 217.049 -1.66453 -1.15851 0
M  V30 2131 C 217.382 -0.392972 -1.90182 0
M  V30 2132 O 216.657 0.608579 -1.84734 0
M  V30 2133 C 216.94 -2.88612 -2.15349 0
M  V30 2134 C 216.793 -4.25815 -1.44918 0
M  V30 2135 C 218.112 -3.06294 -3.16026 0
M  V30 2136 H 215.231 -0.60575 -0.419805 0
M  V30 2137 H 217.873 -1.84732 -0.444314 0
M  V30 2138 H 216.023 -2.73158 -2.76255 0
M  V30 2139 H 217.695 -4.52995 -0.871365 0
M  V30 2140 H 215.938 -4.27247 -0.751159 0
M  V30 2141 H 216.609 -5.07337 -2.17516 0
M  V30 2142 H 219.085 -3.20641 -2.65195 0
M  V30 2143 H 217.961 -3.93283 -3.8291 0
M  V30 2144 H 218.222 -2.19579 -3.83715 0
M  V30 2145 N 217.281 0.66697 -1.42791 0
M  V30 2146 C 218.244 1.76211 -1.46568 0
M  V30 2147 C 219.244 1.56896 -0.352196 0
M  V30 2148 O 220.434 1.63044 -0.613364 0
M  V30 2149 C 217.566 3.14935 -1.30494 0
M  V30 2150 H 218.759 1.74247 -2.44086 0
M  V30 2151 H 216.312 0.877342 -1.29354 0
M  V30 2152 H 217.047 3.2252 -0.339301 0
M  V30 2153 H 216.832 3.30359 -2.11199 0
M  V30 2154 H 218.322 3.94821 -1.36038 0
M  V30 2155 N 218.759 1.29093 0.90403 0
M  V30 2156 C 220.17 1.15186 1.46932 0
M  V30 2157 C 220.521 -0.254587 1.94541 0
M  V30 2158 O 219.646 -1.14972 1.83332 0
M  V30 2159 C 220.241 2.08492 2.67051 0
M  V30 2160 C 218.8 1.98621 3.19729 0
M  V30 2161 C 217.947 1.9967 1.92425 0
M  V30 2162 H 220.898 1.41641 0.715789 0
M  V30 2163 H 220.919 1.65461 3.42641 0
M  V30 2164 H 220.431 3.10847 2.3237 0
M  V30 2165 H 218.532 0.993389 3.59114 0
M  V30 2166 H 218.645 2.86068 3.8432 0
M  V30 2167 H 217.009 1.44208 2.09943 0
M  V30 2168 H 217.792 3.03721 1.60026 0
M  V30 2169 N 220.237 -1.11381 1.11499 0
M  V30 2170 C 221.2 -2.15622 0.777153 0
M  V30 2171 C 222.2 -1.59504 -0.203779 0
M  V30 2172 O 223.39 -1.74188 0.020782 0
M  V30 2173 C 220.522 -3.40556 0.153116 0
M  V30 2174 H 221.715 -2.47021 1.70061 0
M  V30 2175 H 219.268 -1.26577 0.916952 0
M  V30 2176 H 220.003 -3.14767 -0.780536 0
M  V30 2177 H 219.788 -3.8257 0.859238 0
M  V30 2178 H 221.278 -4.17546 -0.0671044 0
M  V30 2179 N 221.715 -0.905404 -1.28997 0
M  V30 2180 C 222.992 -0.453513 -1.9027 0
M  V30 2181 C 223.372 1.06721 -1.82137 0
M  V30 2182 O 222.72 1.91159 -1.25182 0
M  V30 2183 C 222.93 -0.974494 -3.35119 0
M  V30 2184 C 224.278 -1.0216 -4.12127 0
M  V30 2185 O 225.302 -0.922557 -3.44046 0
M  V30 2186 O 224.161 -1.17121 -5.33802 0
M  V30 2187 H 221.255 -0.142347 -0.814657 0
M  V30 2188 H 223.801 -0.995642 -1.37423 0
M  V30 2189 H 222.573 -2.01848 -3.35221 0
M  V30 2190 H 222.196 -0.412706 -3.95452 0
M  V30 2191 N 223.193 1.4272 -0.668489 0
M  V30 2192 C 224.418 2.06484 -0.194758 0
M  V30 2193 C 224.843 1.49862 1.13679 0
M  V30 2194 O 224.201 0.614582 1.70565 0
M  V30 2195 C 224.249 3.60353 -0.133546 0
M  V30 2196 O 223.353 4.02464 0.899806 0
M  V30 2197 H 222.694 0.656137 -0.10188 0
M  V30 2198 H 225.224 1.82964 -0.915722 0
M  V30 2199 H 225.234 4.07976 0.0447041 0
M  V30 2200 H 223.909 4.00938 -1.1055 0
M  V30 2201 H 222.486 3.66402 0.693109 0
M  V30 2202 N 224.671 0.411399 1.52136 0
M  V30 2203 C 225.92 -0.165009 2.01024 0
M  V30 2204 C 226.233 -1.4603 1.30133 0
M  V30 2205 O 227.439 -2.1181 1.69849 0
M  V30 2206 C 225.895 -0.344618 3.58246 0
M  V30 2207 C 225.503 0.938716 4.38055 0
M  V30 2208 C 227.247 -0.876195 4.15359 0
M  V30 2209 C 225.154 0.726172 5.86925 0
M  V30 2210 H 224.084 -0.0654407 0.751155 0
M  V30 2211 H 226.735 0.537192 1.75461 0
M  V30 2212 H 225.117 -1.10921 3.80148 0
M  V30 2213 H 226.291 1.70963 4.27912 0
M  V30 2214 H 224.606 1.39688 3.92271 0
M  V30 2215 H 227.203 -1.05128 5.24263 0
M  V30 2216 H 227.546 -1.85152 3.7286 0
M  V30 2217 H 228.079 -0.170607 3.97434 0
M  V30 2218 H 224.818 1.67312 6.33788 0
M  V30 2219 H 224.338 -0.00540283 5.998 0
M  V30 2220 H 226.017 0.369231 6.45946 0
M  V30 2221 N 226.149 -1.5696 0.141893 0
M  V30 2222 C 227.081 -2.13619 -0.830627 0
M  V30 2223 C 228.094 -1.08439 -1.21428 0
M  V30 2224 O 229.283 -1.35734 -1.15925 0
M  V30 2225 C 226.383 -2.63978 -2.12529 0
M  V30 2226 C 225.556 -3.93504 -1.9098 0
M  V30 2227 C 224.615 -4.29225 -3.04388 0
M  V30 2228 O 223.641 -4.97641 -2.76302 0
M  V30 2229 N 224.843 -3.88393 -4.31429 0
M  V30 2230 H 227.608 -2.97691 -0.34641 0
M  V30 2231 H 225.169 -1.61846 -0.0418375 0
M  V30 2232 H 227.161 -2.84891 -2.87436 0
M  V30 2233 H 225.731 -1.84659 -2.52229 0
M  V30 2234 H 224.951 -3.81269 -1.00139 0
M  V30 2235 H 226.239 -4.78154 -1.73914 0
M  V30 2236 H 225.637 -3.33257 -4.57117 0
M  V30 2237 H 224.194 -4.14368 -5.03133 0
M  V30 2238 N 227.627 0.131896 -1.57047 0
M  V30 2239 C 228.59 1.14638 -1.98471 0
M  V30 2240 C 229.59 1.35029 -0.873148 0
M  V30 2241 O 230.78 1.31764 -1.13946 0
M  V30 2242 C 227.912 2.50358 -2.31373 0
M  V30 2243 H 229.105 0.79064 -2.8929 0
M  V30 2244 H 226.658 0.375761 -1.51716 0
M  V30 2245 H 227.393 2.90876 -1.43393 0
M  V30 2246 H 227.178 2.36915 -3.12432 0
M  V30 2247 H 228.668 3.23395 -2.64207 0
M  V30 2248 N 229.106 1.52395 0.401703 0
M  V30 2249 C 230.016 1.7917 1.51444 0
M  V30 2250 C 231.032 0.677691 1.6026 0
M  V30 2251 O 232.208 0.963909 1.76835 0
M  V30 2252 C 229.273 1.94347 2.87107 0
M  V30 2253 C 228.334 3.18257 2.88116 0
M  V30 2254 C 227.567 3.32701 4.17308 0
M  V30 2255 O 227.79 2.52238 5.11598 0
M  V30 2256 O 226.724 4.25891 4.25324 0
M  V30 2257 H 230.55 2.73633 1.31752 0
M  V30 2258 H 228.135 1.3733 0.588296 0
M  V30 2259 H 230.017 2.06109 3.67555 0
M  V30 2260 H 228.692 1.03073 3.06851 0
M  V30 2261 H 227.599 3.11947 2.06494 0
M  V30 2262 H 228.932 4.09336 2.73322 0
M  V30 2263 N 230.584 -0.659388 1.43143 0
M  V30 2264 C 231.494 -1.80167 1.50256 0
M  V30 2265 C 232.51 -1.69571 0.390106 0
M  V30 2266 O 233.686 -1.90849 0.643319 0
M  V30 2267 C 230.751 -3.16409 1.41725 0
M  V30 2268 C 229.812 -3.38848 2.63591 0
M  V30 2269 C 229.045 -4.68591 2.55458 0
M  V30 2270 O 229.268 -5.47532 1.59891 0
M  V30 2271 O 228.202 -4.92614 3.45854 0
M  V30 2272 H 232.028 -1.77121 2.46702 0
M  V30 2273 H 229.613 -0.817092 1.25076 0
M  V30 2274 H 231.495 -3.9768 1.39387 0
M  V30 2275 H 230.17 -3.20059 0.484118 0
M  V30 2276 H 229.077 -2.57366 2.71502 0
M  V30 2277 H 230.41 -3.4004 3.55856 0
M  V30 2278 N 232.062 -1.29571 -0.897171 0
M  V30 2279 C 233.308 -1.18873 -1.65048 0
M  V30 2280 C 233.663 0.256707 -1.9068 0
M  V30 2281 O 232.956 1.18202 -1.50794 0
M  V30 2282 C 233.15 -1.9382 -3.00281 0
M  V30 2283 C 232.979 -3.45503 -2.8785 0
M  V30 2284 C 231.749 -4.14856 -2.88483 0
M  V30 2285 C 233.947 -4.40956 -2.64693 0
M  V30 2286 N 231.929 -5.52886 -2.66815 0
M  V30 2287 C 233.3 -5.66464 -2.5203 0
M  V30 2288 C 235.355 -4.3069 -2.49821 0
M  V30 2289 C 234.058 -6.82871 -2.26008 0
M  V30 2290 C 236.084 -5.46852 -2.25182 0
M  V30 2291 C 235.446 -6.71333 -2.13286 0
M  V30 2292 H 231.545 -0.489998 -0.609447 0
M  V30 2293 H 234.129 -1.63431 -1.05822 0
M  V30 2294 H 232.3 -1.51671 -3.57562 0
M  V30 2295 H 234.032 -1.75366 -3.64731 0
M  V30 2296 H 230.787 -3.66579 -2.99861 0
M  V30 2297 H 231.211 -6.25487 -2.59027 0
M  V30 2298 H 235.853 -3.35141 -2.5776 0
M  V30 2299 H 233.571 -7.78473 -2.16806 0
M  V30 2300 H 237.157 -5.40809 -2.14515 0
M  V30 2301 H 236.037 -7.59701 -1.94485 0
M  V30 2302 N 233.54 1.10788 -1.12088 0
M  V30 2303 C 234.77 1.86191 -0.895351 0
M  V30 2304 C 235.178 1.80763 0.558702 0
M  V30 2305 O 234.521 1.19188 1.39785 0
M  V30 2306 C 234.583 3.35659 -1.28737 0
M  V30 2307 C 234.247 3.64849 -2.75198 0
M  V30 2308 C 235.244 3.61757 -3.734 0
M  V30 2309 C 232.929 3.93641 -3.12013 0
M  V30 2310 C 234.923 3.87045 -5.06434 0
M  V30 2311 C 232.61 4.18585 -4.4523 0
M  V30 2312 C 233.608 4.15277 -5.42249 0
M  V30 2313 O 233.296 4.3959 -6.73065 0
M  V30 2314 H 233.028 0.595425 -0.32007 0
M  V30 2315 H 235.582 1.40992 -1.49367 0
M  V30 2316 H 233.812 3.81497 -0.63224 0
M  V30 2317 H 235.501 3.92441 -1.03656 0
M  V30 2318 H 236.267 3.39557 -3.46303 0
M  V30 2319 H 232.146 3.95348 -2.37109 0
M  V30 2320 H 235.69 3.84378 -5.82151 0
M  V30 2321 H 231.587 4.40264 -4.72057 0
M  V30 2322 H 232.355 4.57123 -6.78956 0
M  V30 2323 N 235.018 0.912232 1.28515 0
M  V30 2324 C 236.265 0.544599 1.95039 0
M  V30 2325 C 236.593 -0.911435 1.71823 0
M  V30 2326 O 235.848 -1.66317 1.03137 0
M  V30 2327 C 236.147 0.798392 3.48368 0
M  V30 2328 C 235.813 2.23374 3.91682 0
M  V30 2329 C 234.475 2.62617 4.03219 0
M  V30 2330 C 236.827 3.16786 4.13879 0
M  V30 2331 C 234.155 3.94429 4.3433 0
M  V30 2332 C 236.507 4.48161 4.46469 0
M  V30 2333 C 235.171 4.8726 4.56217 0
M  V30 2334 H 234.441 0.199283 0.7137 0
M  V30 2335 H 237.088 1.15327 1.52879 0
M  V30 2336 H 235.393 0.106908 3.91654 0
M  V30 2337 H 237.09 0.493141 3.97956 0
M  V30 2338 H 233.68 1.91922 3.83228 0
M  V30 2339 H 237.864 2.87677 4.0442 0
M  V30 2340 H 233.12 4.24426 4.40082 0
M  V30 2341 H 237.294 5.20559 4.62592 0
M  V30 2342 H 234.921 5.89431 4.80078 0
M  V30 2343 N 236.496 -1.42363 0.676048 0
M  V30 2344 C 237.744 -2.01123 0.198437 0
M  V30 2345 C 238.065 -1.53731 -1.19966 0
M  V30 2346 O 237.335 -0.759518 -1.80577 0
M  V30 2347 H 235.915 -0.743678 0.0703721 0
M  V30 2348 H 238.577 -1.74263 0.872837 0
M  V30 2349 H 237.673 -3.11454 0.200686 0
M  V30 2350 N 237.974 -0.419461 -1.51915 0
M  V30 2351 C 238.921 0.400927 -2.27291 0
M  V30 2352 C 239.891 1.03224 -1.30131 0
M  V30 2353 O 241.076 1.05455 -1.59009 0
M  V30 2354 C 238.216 1.50603 -3.10504 0
M  V30 2355 C 237.329 0.89462 -4.22635 0
M  V30 2356 C 236.464 1.97328 -4.93189 0
M  V30 2357 C 235.503 1.33935 -5.97267 0
M  V30 2358 N 234.64 2.3586 -6.61298 0
M  V30 2359 H 239.48 -0.248251 -2.96964 0
M  V30 2360 H 237.017 -0.134266 -1.46486 0
M  V30 2361 H 238.975 2.15783 -3.57062 0
M  V30 2362 H 237.605 2.12509 -2.42981 0
M  V30 2363 H 236.657 0.131583 -3.80172 0
M  V30 2364 H 237.969 0.391641 -4.9726 0
M  V30 2365 H 237.123 2.70211 -5.43204 0
M  V30 2366 H 235.862 2.50994 -4.18155 0
M  V30 2367 H 234.867 0.595896 -5.46561 0
M  V30 2368 H 236.092 0.810252 -6.74249 0
M  V30 2369 H 234.038 2.88639 -5.89087 0
M  V30 2370 H 233.955 1.90403 -7.3163 0
M  V30 2371 H 235.223 3.08282 -7.15949 0
M  V30 2372 N 239.452 1.56882 -0.150215 0
M  V30 2373 C 240.385 2.12712 0.826358 0
M  V30 2374 C 241.363 1.05154 1.24022 0
M  V30 2375 O 242.547 1.33004 1.33575 0
M  V30 2376 C 239.674 2.64945 2.11002 0
M  V30 2377 C 238.72 3.8468 1.84183 0
M  V30 2378 S 239.553 5.25502 1.02995 0
M  V30 2379 C 240.709 5.81125 2.32474 0
M  V30 2380 H 240.942 2.95214 0.351598 0
M  V30 2381 H 238.475 1.54267 0.0641211 0
M  V30 2382 H 240.433 2.95689 2.84742 0
M  V30 2383 H 239.094 1.82568 2.55593 0
M  V30 2384 H 238.287 4.19482 2.79375 0
M  V30 2385 H 237.889 3.54714 1.1855 0
M  V30 2386 H 240.181 5.92753 3.281 0
M  V30 2387 H 241.124 6.78625 2.02171 0
M  V30 2388 H 241.532 5.09392 2.43269 0
M  V30 2389 N 240.93 -0.123565 1.57115 0
M  V30 2390 C 242.178 -0.83051 1.84247 0
M  V30 2391 C 242.499 -1.80629 0.73471 0
M  V30 2392 O 241.769 -1.94403 -0.241688 0
M  V30 2393 H 240.349 -0.309694 0.679778 0
M  V30 2394 H 243.011 -0.111976 1.94578 0
M  V30 2395 H 242.107 -1.37852 2.80006 0
M  V30 2396 N 242.408 -1.52605 -0.393616 0
M  V30 2397 C 243.824 -1.41753 -0.733357 0
M  V30 2398 C 244.024 -0.534293 -1.94287 0
M  V30 2399 O 243.08 -0.0059787 -2.52499 0
M  V30 2400 C 244.393 -2.84531 -0.972772 0
M  V30 2401 C 245.941 -2.93978 -1.07453 0
M  V30 2402 C 246.416 -4.37756 -1.3466 0
M  V30 2403 N 247.907 -4.4106 -1.41492 0
M  V30 2404 C 248.642 -5.49387 -1.642 0
M  V30 2405 N 248.138 -6.67806 -1.8441 0
M  V30 2406 N 249.931 -5.36923 -1.66342 0
M  V30 2407 H 242.082 -2.08555 0.402328 0
M  V30 2408 H 244.345 -0.940654 0.117789 0
M  V30 2409 H 244.051 -3.51353 -0.156204 0
M  V30 2410 H 243.925 -3.26508 -1.88871 0
M  V30 2411 H 246.312 -2.27326 -1.88167 0
M  V30 2412 H 246.393 -2.55435 -0.136605 0
M  V30 2413 H 246.037 -5.04972 -0.544581 0
M  V30 2414 H 245.967 -4.73848 -2.2973 0
M  V30 2415 H 248.458 -3.55705 -1.27601 0
M  V30 2416 H 248.771 -7.46141 -2.01231 0
M  V30 2417 H 247.116 -6.70843 -1.81644 0
M  V30 2418 H 250.307 -4.43381 -1.50102 0
M  V30 2419 H 250.48 -6.21416 -1.837 0
M  V30 2420 N 243.887 0.651787 -1.4349 0
M  V30 2421 C 244.834 1.76462 -1.4876 0
M  V30 2422 C 245.804 1.62641 -0.337189 0
M  V30 2423 O 246.989 1.82864 -0.544544 0
M  V30 2424 C 244.129 3.14623 -1.41796 0
M  V30 2425 C 243.242 3.39568 -2.67053 0
M  V30 2426 C 242.377 4.67585 -2.52068 0
M  V30 2427 C 241.416 4.85639 -3.72587 0
M  V30 2428 N 240.553 6.04915 -3.56402 0
M  V30 2429 H 245.393 1.71293 -2.43849 0
M  V30 2430 H 242.93 0.835889 -1.21043 0
M  V30 2431 H 244.888 3.94496 -1.35753 0
M  V30 2432 H 243.518 3.18859 -0.50288 0
M  V30 2433 H 242.57 2.53783 -2.8337 0
M  V30 2434 H 243.882 3.48795 -3.56572 0
M  V30 2435 H 243.036 5.55586 -2.4374 0
M  V30 2436 H 241.775 4.60681 -1.60075 0
M  V30 2437 H 240.78 3.96073 -3.81321 0
M  V30 2438 H 242.005 4.94372 -4.65589 0
M  V30 2439 H 239.951 5.9914 -2.67146 0
M  V30 2440 H 239.868 6.15106 -4.39524 0
M  V30 2441 H 241.136 6.95533 -3.51929 0
M  V30 2442 N 245.365 1.30045 0.890287 0
M  V30 2443 C 246.642 1.09227 1.62262 0
M  V30 2444 C 247.022 -0.360305 2.08002 0
M  V30 2445 O 246.37 -1.35084 1.84295 0
M  V30 2446 C 246.58 2.08835 2.79623 0
M  V30 2447 C 247.928 2.40266 3.50082 0
M  V30 2448 O 248.952 2.07104 2.89804 0
M  V30 2449 O 247.811 2.96967 4.58773 0
M  V30 2450 H 244.905 0.419132 0.712922 0
M  V30 2451 H 247.451 1.41451 0.937529 0
M  V30 2452 H 246.223 3.06633 2.43089 0
M  V30 2453 H 245.846 1.77397 3.55832 0
M  V30 2454 N 246.843 -1.10192 1.12674 0
M  V30 2455 C 247.806 -2.14786 0.799979 0
M  V30 2456 C 248.806 -1.59711 -0.18685 0
M  V30 2457 O 249.996 -1.74156 0.0392558 0
M  V30 2458 C 247.128 -3.40374 0.189228 0
M  V30 2459 H 248.321 -2.45203 1.72671 0
M  V30 2460 H 245.874 -1.25597 0.930326 0
M  V30 2461 H 246.609 -3.15577 -0.747107 0
M  V30 2462 H 246.394 -3.81637 0.899766 0
M  V30 2463 H 247.884 -4.17594 -0.0228143 0
M  V30 2464 N 248.321 -0.919034 -1.28029 0
M  V30 2465 C 249.231 -0.416756 -2.30869 0
M  V30 2466 C 250.247 0.498235 -1.66714 0
M  V30 2467 O 251.423 0.383144 -1.97722 0
M  V30 2468 C 248.488 0.330274 -3.45123 0
M  V30 2469 C 247.549 -0.618578 -4.2482 0
M  V30 2470 C 246.782 0.0928959 -5.33619 0
M  V30 2471 O 247.005 1.31375 -5.55065 0
M  V30 2472 O 245.939 -0.574499 -5.99152 0
M  V30 2473 H 249.765 -1.27043 -2.75851 0
M  V30 2474 H 247.35 -0.684052 -1.3282 0
M  V30 2475 H 249.232 0.751972 -4.14636 0
M  V30 2476 H 247.907 1.1597 -3.02213 0
M  V30 2477 H 246.814 -1.08978 -3.57875 0
M  V30 2478 H 248.147 -1.41497 -4.71423 0
M  V30 2479 N 249.799 1.42003 -0.683588 0
M  V30 2480 C 251.215 1.55625 -0.353976 0
M  V30 2481 C 251.415 1.66151 1.14 0
M  V30 2482 O 250.471 1.63329 1.92561 0
M  V30 2483 C 251.784 2.80171 -1.092 0
M  V30 2484 C 253.332 2.93954 -1.07518 0
M  V30 2485 C 253.807 4.21372 -1.79471 0
M  V30 2486 N 255.298 4.28303 -1.76381 0
M  V30 2487 C 256.033 5.25729 -2.28904 0
M  V30 2488 N 255.529 6.29254 -2.89846 0
M  V30 2489 N 257.322 5.17586 -2.19228 0
M  V30 2490 H 249.473 1.33415 -1.6527 0
M  V30 2491 H 251.736 0.64282 -0.696769 0
M  V30 2492 H 251.442 2.78561 -2.14701 0
M  V30 2493 H 251.316 3.7133 -0.662862 0
M  V30 2494 H 253.703 2.95086 -0.028475 0
M  V30 2495 H 253.784 2.04002 -1.54328 0
M  V30 2496 H 253.428 4.21001 -2.84114 0
M  V30 2497 H 253.358 5.10275 -1.30104 0
M  V30 2498 H 255.849 3.54119 -1.31939 0
M  V30 2499 H 256.162 6.99964 -3.27522 0
M  V30 2500 H 254.507 6.29791 -2.93919 0
M  V30 2501 H 257.698 4.35631 -1.71299 0
M  V30 2502 H 257.871 5.93348 -2.60466 0
M  V30 2503 N 251.277 0.427512 1.51691 0
M  V30 2504 C 252.207 -0.3796 2.30394 0
M  V30 2505 C 253.188 -1.02982 1.35384 0
M  V30 2506 O 254.373 -1.03534 1.643 0
M  V30 2507 C 251.503 -1.48649 3.1388 0
M  V30 2508 C 250.457 -0.960294 4.17088 0
M  V30 2509 C 249.783 -2.16219 4.89033 0
M  V30 2510 C 251.083 -0.00153679 5.223 0
M  V30 2511 H 252.777 0.277164 2.98114 0
M  V30 2512 H 250.323 0.134739 1.43368 0
M  V30 2513 H 252.276 -2.05826 3.67714 0
M  V30 2514 H 251 -2.1714 2.43962 0
M  V30 2515 H 249.659 -0.410806 3.64291 0
M  V30 2516 H 249.307 -2.83307 4.15628 0
M  V30 2517 H 249.007 -1.81654 5.58816 0
M  V30 2518 H 250.531 -2.73968 5.45687 0
M  V30 2519 H 251.945 -0.482687 5.71264 0
M  V30 2520 H 250.342 0.256199 5.99553 0
M  V30 2521 H 251.412 0.938174 4.75738 0
M  V30 2522 N 252.755 -1.56801 0.158532 0
M  V30 2523 C 253.685 -2.20347 -0.772609 0
M  V30 2524 C 254.666 -1.15518 -1.24859 0
M  V30 2525 O 255.851 -1.43902 -1.30406 0
M  V30 2526 C 252.981 -2.83417 -2.00729 0
M  V30 2527 C 251.935 -3.94174 -1.66765 0
M  V30 2528 C 251.261 -4.44233 -2.97592 0
M  V30 2529 C 252.561 -5.14392 -0.905447 0
M  V30 2530 H 254.255 -2.98413 -0.242959 0
M  V30 2531 H 251.801 -1.43537 -0.115419 0
M  V30 2532 H 253.754 -3.26543 -2.6636 0
M  V30 2533 H 252.478 -2.02701 -2.56086 0
M  V30 2534 H 251.137 -3.51684 -1.03508 0
M  V30 2535 H 250.785 -3.60325 -3.50963 0
M  V30 2536 H 250.485 -5.18945 -2.75626 0
M  V30 2537 H 252.009 -4.90037 -3.64274 0
M  V30 2538 H 253.423 -5.5429 -1.46408 0
M  V30 2539 H 251.82 -5.9494 -0.7853 0
M  V30 2540 H 252.89 -4.84795 0.100668 0
M  V30 2541 N 254.233 0.115231 -1.57178 0
M  V30 2542 C 255.163 1.1423 -2.03651 0
M  V30 2543 C 256.144 1.42967 -0.921655 0
M  V30 2544 O 257.329 1.53343 -1.19162 0
M  V30 2545 C 254.459 2.4675 -2.44401 0
M  V30 2546 C 253.413 2.32467 -3.59365 0
M  V30 2547 C 252.739 3.69984 -3.86026 0
M  V30 2548 C 254.039 1.78203 -4.90959 0
M  V30 2549 H 255.733 0.755749 -2.89705 0
M  V30 2550 H 253.279 0.362093 -1.39373 0
M  V30 2551 H 255.232 3.18854 -2.75517 0
M  V30 2552 H 253.956 2.87302 -1.55322 0
M  V30 2553 H 252.615 1.62811 -3.28463 0
M  V30 2554 H 252.263 4.08028 -2.94147 0
M  V30 2555 H 251.963 3.61279 -4.63412 0
M  V30 2556 H 253.487 4.43587 -4.19599 0
M  V30 2557 H 254.901 2.40128 -5.20587 0
M  V30 2558 H 253.298 1.8031 -5.72371 0
M  V30 2559 H 254.368 0.739876 -4.79222 0
M  V30 2560 N 255.711 1.52812 0.385517 0
M  V30 2561 C 256.659 1.78482 1.49155 0
M  V30 2562 C 257.653 0.652914 1.56312 0
M  V30 2563 O 258.859 0.835464 1.59436 0
M  V30 2564 H 255.234 0.5648 0.496493 0
M  V30 2565 H 257.205 2.71095 1.24699 0
M  V30 2566 C 255.954 1.97378 2.86247 0
M  V30 2567 H 255.277 2.83907 2.81491 0
M  V30 2568 H 256.717 2.19327 3.62866 0
M  V30 2569 C 255.176 0.74728 3.28508 0
M  V30 2570 O 255.706 -0.0736232 4.01633 0
M  V30 2571 N 253.912 0.576396 2.84826 0
M  V30 2572 H 253.459 1.24555 2.25486 0
M  V30 2573 H 253.417 -0.24288 3.1346 0
M  V30 2574 N 257.189 -0.644168 1.43834 0
M  V30 2575 C 258.6 -1.22554 1.40845 0
M  V30 2576 C 258.951 -1.9585 0.117115 0
M  V30 2577 O 258.076 -2.01734 -0.783086 0
M  V30 2578 C 258.671 -2.22907 2.55143 0
M  V30 2579 C 257.23 -2.76501 2.5539 0
M  V30 2580 C 256.377 -1.51287 2.32396 0
M  V30 2581 H 259.328 -0.43563 1.52604 0
M  V30 2582 H 259.349 -3.05259 2.2715 0
M  V30 2583 H 258.861 -1.69533 3.49114 0
M  V30 2584 H 256.962 -3.33914 1.65324 0
M  V30 2585 H 257.075 -3.23429 3.53455 0
M  V30 2586 H 255.439 -1.78957 1.81236 0
M  V30 2587 H 256.222 -0.998336 3.28463 0
M  V30 2588 N 258.668 -1.30515 -0.883378 0
M  V30 2589 C 259.916 -1.19194 -1.63209 0
M  V30 2590 C 260.237 0.253205 -1.93349 0
M  V30 2591 O 259.507 1.17025 -1.57105 0
M  V30 2592 H 258.087 -0.438148 -0.605009 0
M  V30 2593 H 260.749 -1.63663 -1.05832 0
M  V30 2594 H 259.845 -1.75396 -2.58153 0
M  V30 2595 N 260.146 1.09593 -1.13257 0
M  V30 2596 C 261.094 2.18271 -0.803783 0
M  V30 2597 C 262.088 1.68054 0.213148 0
M  V30 2598 O 263.294 1.79862 0.0704699 0
M  V30 2599 H 259.669 0.711949 -0.242143 0
M  V30 2600 H 261.64 2.43235 -1.72856 0
M  V30 2601 C 260.389 3.46536 -0.28424 0
M  V30 2602 H 259.712 3.85545 -1.05807 0
M  V30 2603 H 261.152 4.23899 -0.0925945 0
M  V30 2604 C 259.611 3.22036 0.989684 0
M  V30 2605 O 260.141 3.44509 2.06584 0
M  V30 2606 N 258.347 2.7565 0.920086 0
M  V30 2607 H 257.894 2.57562 0.0442019 0
M  V30 2608 H 257.852 2.59635 1.77306 0
M  V30 2609 N 261.624 0.925811 1.2754 0
M  V30 2610 C 262.556 0.380753 2.26015 0
M  V30 2611 C 263.569 -0.487485 1.5533 0
M  V30 2612 O 264.758 -0.300413 1.75954 0
M  V30 2613 C 261.858 -0.473259 3.35579 0
M  V30 2614 C 261.031 0.375249 4.35787 0
M  V30 2615 C 260.09 -0.415809 5.24555 0
M  V30 2616 O 259.116 0.175834 5.68928 0
M  V30 2617 N 260.318 -1.71607 5.54555 0
M  V30 2618 H 263.083 1.22725 2.73421 0
M  V30 2619 H 260.644 0.793037 1.41147 0
M  V30 2620 H 262.636 -1.00949 3.91907 0
M  V30 2621 H 261.206 -1.2205 2.87789 0
M  V30 2622 H 260.426 1.09279 3.7875 0
M  V30 2623 H 261.714 0.955399 4.99749 0
M  V30 2624 H 261.112 -2.2191 5.20358 0
M  V30 2625 H 259.669 -2.19887 6.1359 0
M  V30 2626 N 263.102 -1.41638 0.69111 0
M  V30 2627 C 264.518 -1.55435 0.362224 0
M  V30 2628 C 264.718 -1.66754 -1.13117 0
M  V30 2629 O 263.774 -1.64348 -1.91692 0
M  V30 2630 C 265.087 -2.79588 1.10684 0
M  V30 2631 C 266.635 -2.9338 1.09075 0
M  V30 2632 C 267.11 -4.20414 1.81703 0
M  V30 2633 N 268.601 -4.27362 1.7865 0
M  V30 2634 C 269.336 -5.24507 2.31689 0
M  V30 2635 N 268.832 -6.27708 2.93179 0
M  V30 2636 N 270.625 -5.16416 2.2197 0
M  V30 2637 H 262.776 -1.32536 1.65976 0
M  V30 2638 H 265.039 -0.639115 0.700168 0
M  V30 2639 H 264.745 -2.77419 2.16175 0
M  V30 2640 H 264.619 -3.70973 0.682545 0
M  V30 2641 H 267.006 -2.95067 0.0441238 0
M  V30 2642 H 267.087 -2.0318 1.55407 0
M  V30 2643 H 266.731 -4.19488 2.86343 0
M  V30 2644 H 266.661 -5.09578 1.32808 0
M  V30 2645 H 269.152 -3.53415 1.33815 0
M  V30 2646 H 269.465 -6.98217 3.31229 0
M  V30 2647 H 267.81 -6.28223 2.97255 0
M  V30 2648 H 271.001 -4.34716 1.73607 0
M  V30 2649 H 271.174 -5.91958 2.63609 0
M  V30 2650 N 264.58 -0.43555 -1.51462 0
M  V30 2651 C 265.828 0.131254 -2.01673 0
M  V30 2652 C 266.149 1.43368 -1.32177 0
M  V30 2653 O 265.419 1.90524 -0.455769 0
M  V30 2654 H 263.999 0.0514954 -0.745223 0
M  V30 2655 H 266.661 -0.577847 -1.86137 0
M  V30 2656 H 265.757 0.308446 -3.10572 0
M  V30 2657 N 266.058 1.56714 -0.166846 0
M  V30 2658 C 267.307 1.95922 0.479318 0
M  V30 2659 C 267.62 1.05529 1.6469 0
M  V30 2660 O 268.826 1.34399 2.35901 0
M  V30 2661 C 267.282 3.48359 0.90412 0
M  V30 2662 C 266.89 4.47369 -0.237621 0
M  V30 2663 C 268.634 3.96394 1.51896 0
M  V30 2664 C 266.541 5.91039 0.206561 0
M  V30 2665 H 265.471 0.731495 0.18284 0
M  V30 2666 H 268.122 1.81728 -0.254363 0
M  V30 2667 H 266.504 3.57955 1.69365 0
M  V30 2668 H 267.678 4.49485 -1.01489 0
M  V30 2669 H 265.993 4.09366 -0.762128 0
M  V30 2670 H 268.59 5.01186 1.86325 0
M  V30 2671 H 268.933 3.39075 2.41524 0
M  V30 2672 H 269.466 3.89796 0.79395 0
M  V30 2673 H 266.205 6.52221 -0.654834 0
M  V30 2674 H 265.725 5.9224 0.949282 0
M  V30 2675 H 267.404 6.43707 0.651939 0
M  V30 2676 N 267.536 -0.106894 1.57237 0
M  V30 2677 C 268.783 -0.812526 1.85484 0
M  V30 2678 C 269.111 -1.79304 0.753687 0
M  V30 2679 O 268.366 -1.94047 -0.253853 0
M  V30 2680 C 268.665 -1.58628 3.20268 0
M  V30 2681 C 268.331 -0.748967 4.44636 0
M  V30 2682 C 266.993 -0.518104 4.78403 0
M  V30 2683 C 269.345 -0.166122 5.20935 0
M  V30 2684 C 266.673 0.305659 5.85903 0
M  V30 2685 C 269.025 0.644899 6.29304 0
M  V30 2686 C 267.689 0.885965 6.61594 0
M  V30 2687 H 266.959 -0.297324 0.678734 0
M  V30 2688 H 269.606 -0.0744332 1.91355 0
M  V30 2689 H 267.911 -2.39562 3.10028 0
M  V30 2690 H 269.608 -2.13643 3.39349 0
M  V30 2691 H 266.198 -0.939006 4.18187 0
M  V30 2692 H 270.382 -0.33167 4.95191 0
M  V30 2693 H 265.638 0.501528 6.0934 0
M  V30 2694 H 269.812 1.10345 6.87602 0
M  V30 2695 H 267.439 1.52609 7.44725 0
M  V30 2696 N 269.014 -1.53014 -0.377408 0
M  V30 2697 C 269.944 -1.81589 -1.46791 0
M  V30 2698 C 270.925 -0.668622 -1.56408 0
M  V30 2699 O 272.11 -0.917337 -1.71168 0
M  V30 2700 C 269.24 -1.99519 -2.8427 0
M  V30 2701 C 268.194 -3.15249 -2.89486 0
M  V30 2702 C 267.52 -3.18451 -4.29527 0
M  V30 2703 C 268.82 -4.54084 -2.58079 0
M  V30 2704 H 270.514 -2.7291 -1.23127 0
M  V30 2705 H 268.06 -1.31319 -0.590883 0
M  V30 2706 H 270.013 -2.18092 -3.60575 0
M  V30 2707 H 268.737 -1.04897 -3.09296 0
M  V30 2708 H 267.396 -2.96477 -2.15631 0
M  V30 2709 H 267.044 -2.2149 -4.5161 0
M  V30 2710 H 266.744 -3.962 -4.33934 0
M  V30 2711 H 268.268 -3.39193 -5.07721 0
M  V30 2712 H 269.682 -4.72899 -3.24098 0
M  V30 2713 H 268.079 -5.33987 -2.7382 0
M  V30 2714 H 269.149 -4.60006 -1.53372 0
M  V30 2715 N 270.492 0.636531 -1.44174 0
M  V30 2716 C 271.738 1.39826 -1.4689 0
M  V30 2717 C 272.071 1.93947 -0.0990585 0
M  V30 2718 O 271.346 1.73325 0.882544 0
M  V30 2719 C 271.629 2.56751 -2.5249 0
M  V30 2720 C 271.482 2.08014 -3.98811 0
M  V30 2721 C 272.801 3.58946 -2.54649 0
M  V30 2722 H 269.92 0.507075 -0.53483 0
M  V30 2723 H 272.562 0.720188 -1.75822 0
M  V30 2724 H 270.712 3.14597 -2.2795 0
M  V30 2725 H 272.384 1.5504 -4.34466 0
M  V30 2726 H 270.627 1.39242 -4.10846 0
M  V30 2727 H 271.298 2.92169 -4.68339 0
M  V30 2728 H 273.774 3.1089 -2.76563 0
M  V30 2729 H 272.65 4.38286 -3.3045 0
M  V30 2730 H 272.911 4.12655 -1.58646 0
M  V30 2731 N 271.97 1.30982 0.876444 0
M  V30 2732 C 273.386 1.09498 1.16113 0
M  V30 2733 C 273.586 -0.13875 2.01022 0
M  V30 2734 O 272.642 -0.829935 2.38471 0
M  V30 2735 C 273.955 2.36308 1.85954 0
M  V30 2736 C 275.503 2.41856 1.98683 0
M  V30 2737 C 275.978 3.6853 2.71937 0
M  V30 2738 N 277.469 3.69387 2.79477 0
M  V30 2739 C 278.204 4.64096 3.36753 0
M  V30 2740 N 277.7 5.69155 3.95012 0
M  V30 2741 N 279.493 4.51626 3.3465 0
M  V30 2742 H 271.644 2.10118 0.310494 0
M  V30 2743 H 273.907 0.926634 0.200131 0
M  V30 2744 H 273.613 3.26388 1.31011 0
M  V30 2745 H 273.487 2.4561 2.86278 0
M  V30 2746 H 275.874 1.52249 2.52793 0
M  V30 2747 H 275.955 2.36523 0.9742 0
M  V30 2748 H 275.599 4.58499 2.18496 0
M  V30 2749 H 275.529 3.71127 3.73593 0
M  V30 2750 H 278.02 2.93438 2.38123 0
M  V30 2751 H 278.333 6.3751 4.36808 0
M  V30 2752 H 276.678 5.72937 3.93406 0
M  V30 2753 H 279.869 3.68728 2.8837 0
M  V30 2754 H 280.042 5.25614 3.7899 0
M  V30 2755 N 273.449 -1.08991 1.13837 0
M  V30 2756 C 274.359 -2.19301 0.833333 0
M  V30 2757 C 275.375 -1.73026 -0.183847 0
M  V30 2758 O 276.551 -2.01395 -0.0138092 0
M  V30 2759 C 273.616 -3.45323 0.308651 0
M  V30 2760 C 272.677 -4.06255 1.38764 0
M  V30 2761 C 271.91 -5.26262 0.887896 0
M  V30 2762 O 272.133 -5.69747 -0.27287 0
M  V30 2763 O 271.067 -5.78435 1.66421 0
M  V30 2764 H 274.893 -2.47854 1.75506 0
M  V30 2765 H 272.478 -1.18012 0.916166 0
M  V30 2766 H 274.36 -4.21394 0.0216739 0
M  V30 2767 H 273.035 -3.18362 -0.585431 0
M  V30 2768 H 271.942 -3.318 1.72799 0
M  V30 2769 H 273.275 -4.37452 2.25602 0
M  V30 2770 N 274.927 -0.932562 -1.27047 0
M  V30 2771 C 276.152 -0.591474 -1.98787 0
M  V30 2772 C 276.577 0.824601 -1.69062 0
M  V30 2773 O 275.935 1.5541 -0.933677 0
M  V30 2774 C 275.983 -0.829808 -3.50922 0
M  V30 2775 O 275.087 0.102266 -4.12273 0
M  V30 2776 H 274.428 -0.227185 -0.623926 0
M  V30 2777 H 276.958 -1.25314 -1.61733 0
M  V30 2778 H 276.968 -0.747292 -4.01098 0
M  V30 2779 H 275.643 -1.86201 -3.7189 0
M  V30 2780 H 274.22 -0.0305761 -3.72887 0
M  V30 2781 N 276.405 1.4127 -0.698611 0
M  V30 2782 C 277.315 2.34573 -0.0357891 0
M  V30 2783 C 278.331 1.56393 0.762701 0
M  V30 2784 O 279.507 1.8886 0.699564 0
M  V30 2785 C 276.572 3.35159 0.887089 0
M  V30 2786 C 275.633 4.29225 0.0804634 0
M  V30 2787 C 274.866 5.25006 0.959387 0
M  V30 2788 O 275.089 5.26314 2.19886 0
M  V30 2789 O 274.023 6.00519 0.407439 0
M  V30 2790 H 277.849 2.92838 -0.804957 0
M  V30 2791 H 275.434 1.42175 -0.458966 0
M  V30 2792 H 277.316 3.9689 1.41621 0
M  V30 2793 H 275.991 2.79333 1.6357 0
M  V30 2794 H 274.898 3.70833 -0.493328 0
M  V30 2795 H 276.231 4.88157 -0.629547 0
M  V30 2796 N 277.883 0.443576 1.51229 0
M  V30 2797 C 279.111 -0.11929 2.06556 0
M  V30 2798 C 279.526 -1.35921 1.31038 0
M  V30 2799 O 278.883 -1.78675 0.371704 0
M  V30 2800 C 278.934 -0.435228 3.5887 0
M  V30 2801 O 278.655 0.755486 4.31537 0
M  V30 2802 C 280.156 -1.04808 4.30732 0
M  V30 2803 H 277.376 -0.0051584 0.67098 0
M  V30 2804 H 279.92 0.624453 1.94733 0
M  V30 2805 H 278.075 -1.12887 3.70588 0
M  V30 2806 H 278.489 0.483491 5.22267 0
M  V30 2807 H 279.963 -1.2191 5.3837 0
M  V30 2808 H 280.44 -2.03081 3.89429 0
M  V30 2809 H 281.046 -0.393637 4.23474 0
M  V30 2810 N 279.361 -1.56624 0.175154 0
M  V30 2811 C 280.589 -2.01374 -0.474971 0
M  V30 2812 C 281.004 -1.05537 -1.56548 0
M  V30 2813 O 280.361 -0.0568668 -1.82411 0
M  V30 2814 C 280.412 -3.45923 -1.04975 0
M  V30 2815 O 280.133 -4.381 -0.00276605 0
M  V30 2816 C 281.634 -4.06093 -1.77773 0
M  V30 2817 H 278.854 -0.659962 -0.121206 0
M  V30 2818 H 281.398 -2.02601 0.27801 0
M  V30 2819 H 279.553 -3.45458 -1.75321 0
M  V30 2820 H 279.967 -5.22753 -0.427681 0
M  V30 2821 H 281.441 -5.09147 -2.13245 0
M  V30 2822 H 281.918 -3.48405 -2.67414 0
M  V30 2823 H 282.524 -4.10272 -1.12059 0
M  V30 2824 N 280.839 0.0985539 -1.57292 0
M  V30 2825 C 281.786 1.11981 -2.01814 0
M  V30 2826 C 282.756 1.39999 -0.89384 0
M  V30 2827 O 283.941 1.5152 -1.15958 0
M  V30 2828 C 281.081 2.43577 -2.44467 0
M  V30 2829 C 280.194 2.2232 -3.70402 0
M  V30 2830 C 279.329 3.4729 -4.01949 0
M  V30 2831 C 278.368 3.2128 -5.21005 0
M  V30 2832 N 277.505 4.38507 -5.48321 0
M  V30 2833 H 282.345 0.733149 -2.88841 0
M  V30 2834 H 279.882 0.350482 -1.42864 0
M  V30 2835 H 281.84 3.20373 -2.6724 0
M  V30 2836 H 280.47 2.80097 -1.60455 0
M  V30 2837 H 279.522 1.36343 -3.55126 0
M  V30 2838 H 280.834 1.99089 -4.57345 0
M  V30 2839 H 279.988 4.32495 -4.25479 0
M  V30 2840 H 278.727 3.73572 -3.13521 0
M  V30 2841 H 277.732 2.34468 -4.97298 0
M  V30 2842 H 278.957 2.96348 -6.11028 0
M  V30 2843 H 276.903 4.64871 -4.62851 0
M  V30 2844 H 276.82 4.18455 -6.29628 0
M  V30 2845 H 278.088 5.24787 -5.76385 0
M  V30 2846 N 282.317 1.53212 0.369288 0
M  V30 2847 C 283.565 1.68881 1.11012 0
M  V30 2848 C 283.886 0.441285 1.89941 0
M  V30 2849 O 283.156 -0.544623 1.88177 0
M  V30 2850 H 281.736 0.622569 0.412816 0
M  V30 2851 H 284.398 1.90391 0.416802 0
M  V30 2852 H 283.494 2.54822 1.80201 0
M  V30 2853 N 283.795 -0.628877 1.44509 0
M  V30 2854 C 284.758 -1.72263 1.51188 0
M  V30 2855 C 285.758 -1.55907 0.39367 0
M  V30 2856 O 286.948 -1.61361 0.656377 0
M  V30 2857 C 284.08 -3.11365 1.38798 0
M  V30 2858 H 285.273 -1.67714 2.4862 0
M  V30 2859 H 282.826 -0.842737 1.31634 0
M  V30 2860 H 283.561 -3.21507 0.424693 0
M  V30 2861 H 283.346 -3.24644 2.19884 0
M  V30 2862 H 284.836 -3.91075 1.46458 0
M  V30 2863 N 285.273 -1.31445 -0.869486 0
M  V30 2864 C 286.503 -1.23942 -1.65294 0
M  V30 2865 C 286.911 0.197561 -1.88166 0
M  V30 2866 O 286.254 1.14019 -1.44033 0
M  V30 2867 C 286.316 -1.91385 -3.04322 0
M  V30 2868 C 285.98 -3.40726 -3.04557 0
M  V30 2869 C 286.977 -4.36464 -2.82481 0
M  V30 2870 C 284.662 -3.82425 -3.25663 0
M  V30 2871 C 286.656 -5.71876 -2.8149 0
M  V30 2872 C 284.343 -5.1795 -3.243 0
M  V30 2873 C 285.341 -6.12486 -3.02241 0
M  V30 2874 O 285.029 -7.45534 -3.00724 0
M  V30 2875 H 284.761 -0.429459 -0.522054 0
M  V30 2876 H 287.315 -1.73873 -1.0935 0
M  V30 2877 H 285.545 -1.36004 -3.61994 0
M  V30 2878 H 287.234 -1.77791 -3.64891 0
M  V30 2879 H 288 -4.05576 -2.65956 0
M  V30 2880 H 283.879 -3.09274 -3.41863 0
M  V30 2881 H 287.423 -6.45638 -2.64191 0
M  V30 2882 H 283.32 -5.48473 -3.40365 0
M  V30 2883 H 284.088 -7.54713 -3.16782 0
M  V30 2884 N 286.751 1.08385 -1.14413 0
M  V30 2885 C 287.976 1.85057 -0.936413 0
M  V30 2886 C 288.401 1.81055 0.509971 0
M  V30 2887 O 287.759 1.1958 1.36273 0
M  V30 2888 C 287.807 3.30505 -1.44217 0
M  V30 2889 O 286.911 4.07491 -0.634409 0
M  V30 2890 H 286.252 0.573425 -0.334784 0
M  V30 2891 H 288.782 1.36799 -1.52142 0
M  V30 2892 H 288.792 3.81348 -1.45043 0
M  V30 2893 H 287.467 3.32734 -2.49522 0
M  V30 2894 H 286.044 3.66368 -0.694902 0
M  V30 2895 N 288.23 0.939286 1.26551 0
M  V30 2896 C 289.16 0.465044 2.28822 0
M  V30 2897 C 290.141 -0.480692 1.63167 0
M  V30 2898 O 291.326 -0.382955 1.90387 0
M  V30 2899 C 288.456 -0.27234 3.46231 0
M  V30 2900 C 287.41 0.58666 4.2396 0
M  V30 2901 C 286.736 -0.280573 5.33963 0
M  V30 2902 C 288.036 1.85704 4.88171 0
M  V30 2903 H 289.73 1.31979 2.68741 0
M  V30 2904 H 287.276 0.636061 1.29191 0
M  V30 2905 H 289.229 -0.615133 4.16886 0
M  V30 2906 H 287.953 -1.16121 3.0526 0
M  V30 2907 H 286.612 0.91232 3.55067 0
M  V30 2908 H 286.26 -1.16874 4.89234 0
M  V30 2909 H 285.96 0.29076 5.8688 0
M  V30 2910 H 287.484 -0.618678 6.07458 0
M  V30 2911 H 288.898 1.58161 5.51052 0
M  V30 2912 H 287.295 2.37279 5.51197 0
M  V30 2913 H 288.365 2.56957 4.11219 0
M  V30 2914 N 289.708 -1.40897 0.706093 0
M  V30 2915 C 290.933 -2.05895 0.249435 0
M  V30 2916 C 291.358 -1.52823 -1.09666 0
M  V30 2917 O 290.716 -0.659589 -1.68876 0
M  V30 2918 C 290.764 -3.59872 0.22904 0
M  V30 2919 O 289.868 -4.04708 -0.792784 0
M  V30 2920 H 289.209 -0.653206 0.119241 0
M  V30 2921 H 291.739 -1.80471 0.96391 0
M  V30 2922 H 291.749 -4.07951 0.0634791 0
M  V30 2923 H 290.424 -3.97866 1.21141 0
M  V30 2924 H 289.001 -3.68111 -0.59572 0
M  V30 2925 N 291.186 -0.45159 -1.50991 0
M  V30 2926 C 292.435 0.111653 -2.01391 0
M  V30 2927 C 292.748 1.42529 -1.33959 0
M  V30 2928 O 293.954 2.07232 -1.75405 0
M  V30 2929 C 292.41 0.249514 -3.59034 0
M  V30 2930 C 292.018 -1.05453 -4.35412 0
M  V30 2931 C 293.762 0.765762 -4.17536 0
M  V30 2932 C 291.669 -0.881529 -5.84793 0
M  V30 2933 H 290.599 0.0455022 -0.752626 0
M  V30 2934 H 293.25 -0.583524 -1.73975 0
M  V30 2935 H 291.632 1.00803 -3.82955 0
M  V30 2936 H 292.806 -1.82248 -4.23229 0
M  V30 2937 H 291.121 -1.50039 -3.88429 0
M  V30 2938 H 293.718 0.911913 -5.26866 0
M  V30 2939 H 294.061 1.75201 -3.77638 0
M  V30 2940 H 294.594 0.0651744 -3.97747 0
M  V30 2941 H 291.333 -1.84057 -6.29129 0
M  V30 2942 H 290.853 -0.153625 -5.99603 0
M  V30 2943 H 292.532 -0.540363 -6.4474 0
M  V30 2944 N 292.664 1.56529 -0.183458 0
M  V30 2945 C 294.08 1.58664 0.172554 0
M  V30 2946 C 294.28 1.19925 1.61926 0
M  V30 2947 O 293.336 0.916534 2.35278 0
M  V30 2948 C 294.649 3.00463 -0.119262 0
M  V30 2949 C 296.197 3.12945 -0.0584396 0
M  V30 2950 C 296.672 4.56857 -0.323408 0
M  V30 2951 N 298.163 4.62403 -0.271612 0
M  V30 2952 C 298.898 5.71626 -0.450639 0
M  V30 2953 N 298.394 6.89362 -0.689384 0
M  V30 2954 N 300.187 5.60775 -0.385701 0
M  V30 2955 H 292.338 1.79994 -1.12765 0
M  V30 2956 H 294.601 0.834808 -0.449222 0
M  V30 2957 H 294.307 3.33326 -1.12192 0
M  V30 2958 H 294.181 3.72659 0.583544 0
M  V30 2959 H 296.568 2.79902 0.934805 0
M  V30 2960 H 296.649 2.4316 -0.794144 0
M  V30 2961 H 296.293 4.9061 -1.31392 0
M  V30 2962 H 296.223 5.24816 0.43305 0
M  V30 2963 H 298.714 3.77785 -0.0932256 0
M  V30 2964 H 299.027 7.68489 -0.815113 0
M  V30 2965 H 297.372 6.91196 -0.726142 0
M  V30 2966 H 300.563 4.67674 -0.199687 0
M  V30 2967 H 300.736 6.4584 -0.528646 0
M  V30 2968 N 294.142 -0.090211 1.57342 0
M  V30 2969 C 295.419 -0.824761 1.77361 0
M  V30 2970 C 295.799 -1.96698 0.76637 0
M  V30 2971 O 295.147 -2.27586 -0.204179 0
M  V30 2972 C 295.357 -1.31481 3.23286 0
M  V30 2973 C 296.705 -1.75563 3.86604 0
M  V30 2974 O 297.729 -1.41093 3.27065 0
M  V30 2975 O 296.588 -2.39317 4.91314 0
M  V30 2976 H 293.682 -0.393776 0.727234 0
M  V30 2977 H 296.228 -0.0717138 1.69548 0
M  V30 2978 H 295 -0.496671 3.88135 0
M  V30 2979 H 294.623 -2.12973 3.35751 0
M  V30 2980 N 295.62 -1.53406 -0.361157 0
M  V30 2981 C 296.866 -1.70999 -1.1014 0
M  V30 2982 C 297.221 -0.458425 -1.86859 0
M  V30 2983 O 296.514 0.548654 -1.83577 0
M  V30 2984 C 296.708 -2.90211 -2.08596 0
M  V30 2985 C 296.537 -4.26841 -1.41553 0
M  V30 2986 C 295.307 -4.91621 -1.16778 0
M  V30 2987 C 297.505 -5.07212 -0.850915 0
M  V30 2988 N 295.487 -6.12164 -0.461312 0
M  V30 2989 C 296.858 -6.19394 -0.274046 0
M  V30 2990 C 298.913 -4.92218 -0.750036 0
M  V30 2991 C 297.616 -7.18221 0.393868 0
M  V30 2992 C 299.642 -5.91322 -0.095894 0
M  V30 2993 C 299.004 -7.0283 0.470081 0
M  V30 2994 H 295.103 -0.678939 -0.388028 0
M  V30 2995 H 297.687 -1.90811 -0.38722 0
M  V30 2996 H 295.858 -2.71931 -2.77323 0
M  V30 2997 H 297.59 -2.96606 -2.7533 0
M  V30 2998 H 294.345 -4.50849 -1.45024 0
M  V30 2999 H 294.769 -6.76888 -0.123312 0
M  V30 3000 H 299.411 -4.06192 -1.17337 0
M  V30 3001 H 297.129 -8.03835 0.82914 0
M  V30 3002 H 300.715 -5.81797 -0.0187075 0
M  V30 3003 H 299.595 -7.782 0.968241 0
M  V30 3004 N 297.098 0.621204 -1.44841 0
M  V30 3005 C 298.375 1.38 -1.38619 0
M  V30 3006 C 298.755 2.11041 -0.0498935 0
M  V30 3007 O 298.103 2.06992 0.967816 0
M  V30 3008 C 298.313 2.33817 -2.59096 0
M  V30 3009 C 299.661 2.96844 -3.03593 0
M  V30 3010 O 300.685 2.44141 -2.59371 0
M  V30 3011 O 299.544 3.92476 -3.80296 0
M  V30 3012 H 296.638 0.61811 -0.549426 0
M  V30 3013 H 299.184 0.645429 -1.56947 0
M  V30 3014 H 297.956 1.79012 -3.47952 0
M  V30 3015 H 297.579 3.14676 -2.43032 0
M  V30 3016 N 298.576 1.31904 0.862503 0
M  V30 3017 C 299.486 1.22161 2.00285 0
M  V30 3018 C 300.502 0.136785 1.73462 0
M  V30 3019 O 301.678 0.355994 1.98229 0
M  V30 3020 C 298.743 0.937093 3.33796 0
M  V30 3021 C 297.804 2.10957 3.73893 0
M  V30 3022 C 297.037 1.83853 5.01033 0
M  V30 3023 O 297.26 0.777274 5.65079 0
M  V30 3024 O 296.194 2.69741 5.38074 0
M  V30 3025 H 300.02 2.18008 2.11439 0
M  V30 3026 H 297.605 1.11716 0.991957 0
M  V30 3027 H 299.487 0.794583 4.13841 0
M  V30 3028 H 298.162 0.00871894 3.23699 0
M  V30 3029 H 297.069 2.30752 2.94456 0
M  V30 3030 H 298.402 3.02046 3.88625 0
M  V30 3031 N 300.054 -1.07777 1.14986 0
M  V30 3032 C 301.303 -1.79669 0.916617 0
M  V30 3033 C 301.616 -1.87474 -0.557917 0
M  V30 3034 O 302.822 -2.55845 -0.908617 0
M  V30 3035 C 301.278 -3.22848 1.59051 0
M  V30 3036 C 300.886 -3.23257 3.10176 0
M  V30 3037 C 302.63 -3.99379 1.43864 0
M  V30 3038 C 300.537 -4.61063 3.70372 0
M  V30 3039 H 299.467 -0.673349 0.33929 0
M  V30 3040 H 302.118 -1.21003 1.37951 0
M  V30 3041 H 300.5 -3.8168 1.0553 0
M  V30 3042 H 301.674 -2.74095 3.70417 0
M  V30 3043 H 299.989 -2.60222 3.25074 0
M  V30 3044 H 302.586 -5.0122 1.86232 0
M  V30 3045 H 302.929 -4.14511 0.385564 0
M  V30 3046 H 303.462 -3.47032 1.94457 0
M  V30 3047 H 300.201 -4.51135 4.7556 0
M  V30 3048 H 299.721 -5.1048 3.14913 0
M  V30 3049 H 301.4 -5.30034 3.71043 0
M  V30 3050 N 301.532 -0.945985 -1.26051 0
M  V30 3051 C 302.948 -0.649045 -1.45807 0
M  V30 3052 C 303.148 0.796158 -1.85104 0
M  V30 3053 O 302.204 1.57233 -1.97571 0
M  V30 3054 C 303.517 -1.61458 -2.53677 0
M  V30 3055 C 305.065 -1.62481 -2.67524 0
M  V30 3056 C 305.54 -2.57776 -3.7857 0
M  V30 3057 N 307.031 -2.5609 -3.85969 0
M  V30 3058 C 307.766 -3.26508 -4.7136 0
M  V30 3059 N 307.262 -4.0637 -5.61102 0
M  V30 3060 N 309.055 -3.15437 -4.65248 0
M  V30 3061 H 301.206 -1.88005 -0.988328 0
M  V30 3062 H 303.469 -0.808198 -0.4955 0
M  V30 3063 H 303.175 -2.64644 -2.31638 0
M  V30 3064 H 303.049 -1.37036 -3.51427 0
M  V30 3065 H 305.436 -0.600167 -2.88933 0
M  V30 3066 H 305.517 -1.90958 -1.70202 0
M  V30 3067 H 305.161 -3.60361 -3.57913 0
M  V30 3068 H 305.091 -2.26587 -4.75359 0
M  V30 3069 H 307.582 -1.98105 -3.21812 0
M  V30 3070 H 307.895 -4.57042 -6.23164 0
M  V30 3071 H 306.24 -4.10469 -5.60839 0
M  V30 3072 H 309.431 -2.52525 -3.94143 0
M  V30 3073 H 309.604 -3.70584 -5.31575 0
M  V30 3074 N 303.011 1.40521 -0.713556 0
M  V30 3075 C 304.259 2.00527 -0.251692 0
M  V30 3076 C 304.58 1.56857 1.15848 0
M  V30 3077 O 303.85 0.807127 1.785 0
M  V30 3078 H 302.43 0.741551 -0.0900646 0
M  V30 3079 H 305.092 1.71887 -0.918733 0
M  V30 3080 H 304.188 3.10813 -0.283192 0
M  V30 3081 N 304.489 0.459591 1.5075 0
M  V30 3082 C 305.766 -0.160371 1.94941 0
M  V30 3083 C 306.146 -1.58048 1.39943 0
M  V30 3084 O 305.494 -2.206 0.595629 0
M  V30 3085 C 305.704 -0.115432 3.48809 0
M  V30 3086 C 307.052 -0.310026 4.23467 0
M  V30 3087 O 308.076 -0.192543 3.55679 0
M  V30 3088 O 306.935 -0.546031 5.43765 0
M  V30 3089 H 304.029 -0.117925 0.818549 0
M  V30 3090 H 306.575 0.519169 1.61563 0
M  V30 3091 H 305.347 0.87652 3.81357 0
M  V30 3092 H 304.97 -0.836928 3.88692 0
M  V30 3093 N 305.967 -1.56429 0.191757 0
M  V30 3094 C 306.915 -2.20273 -0.747174 0
M  V30 3095 C 307.909 -1.17288 -1.22229 0
M  V30 3096 O 309.115 -1.35441 -1.18557 0
M  V30 3097 H 305.49 -0.705885 -0.259289 0
M  V30 3098 H 307.461 -2.97826 -0.184963 0
M  V30 3099 C 306.21 -2.87356 -1.95759 0
M  V30 3100 H 305.533 -3.66341 -1.60106 0
M  V30 3101 H 306.973 -3.3547 -2.59299 0
M  V30 3102 C 305.432 -1.88213 -2.79423 0
M  V30 3103 O 305.962 -1.38033 -3.7724 0
M  V30 3104 N 304.168 -1.56516 -2.44849 0
M  V30 3105 H 303.715 -1.97516 -1.65364 0
M  V30 3106 H 303.673 -0.904369 -3.01112 0
M  V30 3107 N 307.445 0.0818655 -1.57387 0
M  V30 3108 C 308.691 0.784074 -1.8703 0
M  V30 3109 C 309.024 1.77729 -0.782689 0
M  V30 3110 O 308.299 1.93384 0.208051 0
M  V30 3111 C 308.582 1.50105 -3.27323 0
M  V30 3112 C 308.435 0.524925 -4.46727 0
M  V30 3113 C 309.754 2.44843 -3.65705 0
M  V30 3114 H 306.873 0.283582 -0.680257 0
M  V30 3115 H 309.515 0.0474352 -1.89941 0
M  V30 3116 H 307.665 2.12897 -3.24972 0
M  V30 3117 H 309.337 -0.0970111 -4.61198 0
M  V30 3118 H 307.58 -0.160606 -4.33503 0
M  V30 3119 H 308.251 1.064 -5.41648 0
M  V30 3120 H 310.727 1.92135 -3.69085 0
M  V30 3121 H 309.603 2.92018 -4.64776 0
M  V30 3122 H 309.864 3.29197 -2.95096 0
M  V30 3123 N 308.923 1.53595 0.353017 0
M  V30 3124 C 309.87 1.80919 1.43308 0
M  V30 3125 C 310.84 0.654288 1.5267 0
M  V30 3126 O 312.025 0.897759 1.6836 0
M  V30 3127 C 309.165 2.01605 2.80089 0
M  V30 3128 C 308.278 3.29321 2.79593 0
M  V30 3129 C 307.413 3.40125 4.0803 0
M  V30 3130 C 306.452 4.61826 4.01725 0
M  V30 3131 N 305.589 4.69716 5.21834 0
M  V30 3132 H 310.429 2.73074 1.19308 0
M  V30 3133 H 307.966 1.35263 0.578131 0
M  V30 3134 H 309.924 2.11586 3.59565 0
M  V30 3135 H 308.554 1.12772 3.0246 0
M  V30 3136 H 307.606 3.28229 1.92276 0
M  V30 3137 H 308.918 4.18884 2.70809 0
M  V30 3138 H 308.072 3.49488 4.95927 0
M  V30 3139 H 306.811 2.48601 4.19582 0
M  V30 3140 H 305.816 4.52552 3.12213 0
M  V30 3141 H 307.041 5.54705 3.91764 0
M  V30 3142 H 304.987 3.81097 5.33948 0
M  V30 3143 H 304.904 5.53202 5.1527 0
M  V30 3144 H 306.172 4.83376 6.11529 0
M  V30 3145 N 310.401 -0.613514 1.45168 0
M  V30 3146 C 311.351 -1.71871 1.49815 0
M  V30 3147 C 312.335 -1.56774 0.362021 0
M  V30 3148 O 313.527 -1.66212 0.608493 0
M  V30 3149 C 310.656 -3.1061 1.46207 0
M  V30 3150 C 309.742 -3.31114 2.64999 0
M  V30 3151 N 310.133 -3.21904 3.90143 0
M  V30 3152 C 308.431 -3.61966 2.6057 0
M  V30 3153 C 309.132 -3.43577 4.69393 0
M  V30 3154 N 308.108 -3.67287 4.00751 0
M  V30 3155 H 311.91 -1.63235 2.444 0
M  V30 3156 H 309.424 -0.816577 1.40377 0
M  V30 3157 H 311.421 -3.8989 1.4762 0
M  V30 3158 H 310.081 -3.20399 0.52673 0
M  V30 3159 H 311.092 -3.00436 4.21852 0
M  V30 3160 H 307.769 -3.78629 1.75916 0
M  V30 3161 H 309.159 -3.41901 5.78406 0
M  V30 3162 N 311.879 -1.3236 -0.855495 0
M  V30 3163 C 313.109 -1.25688 -1.6397 0
M  V30 3164 C 313.517 0.177592 -1.88365 0
M  V30 3165 O 312.86 1.12485 -1.45234 0
M  V30 3166 C 312.922 -1.94602 -3.02275 0
M  V30 3167 C 312.586 -3.43937 -3.00926 0
M  V30 3168 C 313.583 -4.39435 -2.77835 0
M  V30 3169 C 311.268 -3.85858 -3.21588 0
M  V30 3170 C 313.262 -5.74829 -2.75409 0
M  V30 3171 C 310.949 -5.21361 -3.18789 0
M  V30 3172 C 311.947 -6.15658 -2.95727 0
M  V30 3173 O 311.635 -7.48681 -2.928 0
M  V30 3174 H 311.367 -0.434972 -0.51747 0
M  V30 3175 H 313.921 -1.75023 -1.075 0
M  V30 3176 H 312.151 -1.39836 -3.60531 0
M  V30 3177 H 313.84 -1.81651 -3.62985 0
M  V30 3178 H 314.606 -4.08374 -2.6164 0
M  V30 3179 H 310.485 -3.12883 -3.38564 0
M  V30 3180 H 314.029 -6.48404 -2.57328 0
M  V30 3181 H 309.926 -5.52052 -3.34528 0
M  V30 3182 H 310.694 -7.5803 -3.0876 0
M  V30 3183 N 313.357 1.07166 -1.15556 0
M  V30 3184 C 314.304 2.14417 -0.854055 0
M  V30 3185 C 315.274 1.64965 0.193806 0
M  V30 3186 O 316.459 1.90703 0.0609443 0
M  V30 3187 C 313.599 3.43304 -0.351574 0
M  V30 3188 C 312.712 4.06537 -1.46123 0
M  V30 3189 C 311.847 5.23266 -0.914677 0
M  V30 3190 C 310.886 5.78464 -2.00114 0
M  V30 3191 N 310.023 6.86521 -1.47083 0
M  V30 3192 H 314.863 2.39548 -1.77259 0
M  V30 3193 H 312.4 1.17543 -0.884425 0
M  V30 3194 H 314.358 4.17179 -0.0419409 0
M  V30 3195 H 312.988 3.18419 0.530037 0
M  V30 3196 H 312.04 3.30297 -1.88701 0
M  V30 3197 H 313.352 4.43567 -2.28144 0
M  V30 3198 H 312.506 6.04131 -0.557698 0
M  V30 3199 H 311.245 4.87658 -0.0636583 0
M  V30 3200 H 310.25 4.96243 -2.36692 0
M  V30 3201 H 311.475 6.16126 -2.85597 0
M  V30 3202 H 309.421 6.52849 -0.642198 0
M  V30 3203 H 309.338 7.22446 -2.22729 0
M  V30 3204 H 310.606 7.71087 -1.14215 0
M  V30 3205 N 314.835 0.952656 1.25548 0
M  V30 3206 C 316.084 0.602053 1.92505 0
M  V30 3207 C 316.397 -0.864663 1.75451 0
M  V30 3208 O 317.603 -1.32514 2.36965 0
M  V30 3209 C 316.059 1.02607 3.44963 0
M  V30 3210 C 315.667 2.51519 3.70732 0
M  V30 3211 C 317.411 0.747905 4.1786 0
M  V30 3212 C 315.318 2.87732 5.16686 0
M  V30 3213 H 314.248 0.22146 0.720744 0
M  V30 3214 H 316.899 1.15684 1.42441 0
M  V30 3215 H 315.281 0.399712 3.93978 0
M  V30 3216 H 316.455 3.19157 3.32378 0
M  V30 3217 H 314.77 2.76786 3.11092 0
M  V30 3218 H 317.367 0.994647 5.25367 0
M  V30 3219 H 317.71 -0.315629 4.15102 0
M  V30 3220 H 318.243 1.33452 3.74747 0
M  V30 3221 H 314.982 3.93095 5.24554 0
M  V30 3222 H 314.502 2.24765 5.56094 0
M  V30 3223 H 316.181 2.76817 5.84792 0
M  V30 3224 N 316.313 -1.40141 0.720998 0
M  V30 3225 C 317.729 -1.54632 0.395113 0
M  V30 3226 C 317.929 -1.69115 -1.09555 0
M  V30 3227 O 316.985 -1.68377 -1.88163 0
M  V30 3228 C 318.298 -2.77177 1.1659 0
M  V30 3229 C 319.846 -2.91 1.15274 0
M  V30 3230 C 320.321 -4.16465 1.90579 0
M  V30 3231 N 321.812 -4.23476 1.87675 0
M  V30 3232 C 322.547 -5.19475 2.42762 0
M  V30 3233 N 322.043 -6.21348 3.06428 0
M  V30 3234 N 323.836 -5.11592 2.32874 0
M  V30 3235 H 315.987 -1.28986 1.68749 0
M  V30 3236 H 318.25 -0.62412 0.713567 0
M  V30 3237 H 317.956 -2.72771 2.22011 0
M  V30 3238 H 317.83 -3.69442 0.76108 0
M  V30 3239 H 320.217 -2.94907 0.106702 0
M  V30 3240 H 320.298 -1.99838 1.59682 0
M  V30 3241 H 319.942 -4.1332 2.95176 0
M  V30 3242 H 319.872 -5.06646 1.43587 0
M  V30 3243 H 322.363 -3.50497 1.41281 0
M  V30 3244 H 322.676 -6.91034 3.45965 0
M  V30 3245 H 321.021 -6.21777 3.10514 0
M  V30 3246 H 324.212 -4.30936 1.82789 0
M  V30 3247 H 324.385 -5.86233 2.76106 0
M  V30 3248 N 317.792 -0.46758 -1.50504 0
M  V30 3249 C 318.739 0.328413 -2.28452 0
M  V30 3250 C 319.709 0.990313 -1.33349 0
M  V30 3251 O 320.894 1.00343 -1.62284 0
M  V30 3252 C 318.034 1.40648 -3.15138 0
M  V30 3253 C 317.147 0.759709 -4.25267 0
M  V30 3254 C 316.282 1.81537 -4.99217 0
M  V30 3255 C 315.321 1.14866 -6.01226 0
M  V30 3256 N 314.458 2.14702 -6.68467 0
M  V30 3257 H 319.298 -0.342603 -2.96024 0
M  V30 3258 H 316.835 -0.180801 -1.45985 0
M  V30 3259 H 318.793 2.04315 -3.63746 0
M  V30 3260 H 317.423 2.04671 -2.49619 0
M  V30 3261 H 316.475 0.0105671 -3.80399 0
M  V30 3262 H 317.787 0.233243 -4.98254 0
M  V30 3263 H 316.941 2.52793 -5.51526 0
M  V30 3264 H 315.68 2.37564 -4.25928 0
M  V30 3265 H 314.685 0.42171 -5.4818 0
M  V30 3266 H 315.91 0.595334 -6.76485 0
M  V30 3267 H 313.856 2.69752 -5.97972 0
M  V30 3268 H 313.773 1.6703 -7.37317 0
M  V30 3269 H 315.041 2.85348 -7.25394 0
M  V30 3270 N 319.27 1.56325 -0.20005 0
M  V30 3271 C 320.2 2.22318 0.713916 0
M  V30 3272 C 321.181 1.18788 1.21752 0
M  V30 3273 O 322.366 1.47309 1.26545 0
M  V30 3274 C 319.496 2.88639 1.93144 0
M  V30 3275 C 318.45 3.98457 1.56255 0
M  V30 3276 C 317.776 4.51967 2.85709 0
M  V30 3277 C 319.076 5.16612 0.768747 0
M  V30 3278 H 320.77 2.98952 0.163755 0
M  V30 3279 H 318.316 1.43792 0.0773219 0
M  V30 3280 H 320.269 3.33491 2.57608 0
M  V30 3281 H 318.993 2.09419 2.50621 0
M  V30 3282 H 317.652 3.54305 0.941471 0
M  V30 3283 H 317.3 3.69503 3.41287 0
M  V30 3284 H 317 5.26071 2.6177 0
M  V30 3285 H 318.524 4.99523 3.51154 0
M  V30 3286 H 319.938 5.57977 1.3166 0
M  V30 3287 H 318.335 5.96812 0.627286 0
M  V30 3288 H 319.405 4.84358 -0.229168 0
M  V30 3289 N 320.748 -0.0735177 1.57428 0
M  V30 3290 C 322.025 -0.805903 1.78226 0
M  V30 3291 C 322.405 -1.95874 0.787189 0
M  V30 3292 O 321.753 -2.2779 -0.180029 0
M  V30 3293 C 321.963 -1.28045 3.24662 0
M  V30 3294 C 323.311 -1.71453 3.88444 0
M  V30 3295 O 324.335 -1.37616 3.28543 0
M  V30 3296 O 323.194 -2.34093 4.93825 0
M  V30 3297 H 320.288 -0.386041 0.73137 0
M  V30 3298 H 322.834 -0.0537269 1.69615 0
M  V30 3299 H 321.606 -0.455476 3.8864 0
M  V30 3300 H 321.229 -2.094 3.37991 0
M  V30 3301 N 322.226 -1.5378 -0.344866 0
M  V30 3302 C 323.174 -1.82373 -1.4437 0
M  V30 3303 C 324.168 -0.694128 -1.54526 0
M  V30 3304 O 325.374 -0.877442 -1.57165 0
M  V30 3305 H 321.749 -0.577765 -0.481344 0
M  V30 3306 H 323.72 -2.74306 -1.17468 0
M  V30 3307 C 322.469 -2.04898 -2.80913 0
M  V30 3308 H 321.792 -2.9127 -2.73865 0
M  V30 3309 H 323.232 -2.28871 -3.56923 0
M  V30 3310 C 321.691 -0.834116 -3.26411 0
M  V30 3311 O 322.221 -0.0328885 -4.01687 0
M  V30 3312 N 320.427 -0.65171 -2.83198 0
M  V30 3313 H 319.974 -1.30489 -2.22104 0
M  V30 3314 H 319.932 0.159686 -3.13994 0
M  V30 3315 N 323.704 0.605807 -1.45491 0
M  V30 3316 C 324.952 1.36207 -1.49305 0
M  V30 3317 C 325.273 1.94519 -0.136863 0
M  V30 3318 O 324.543 1.77261 0.833983 0
M  V30 3319 H 323.123 0.50565 -0.549843 0
M  V30 3320 H 325.785 0.711239 -1.81459 0
M  V30 3321 H 324.881 2.18058 -2.23287 0
M  V30 3322 N 325.182 1.32811 0.848464 0
M  V30 3323 C 326.43 1.23479 1.59991 0
M  V30 3324 C 326.751 -0.201853 1.93952 0
M  V30 3325 O 326.021 -1.12818 1.60153 0
M  V30 3326 H 324.601 0.454034 0.593179 0
M  V30 3327 H 327.263 1.66412 1.01455 0
M  V30 3328 H 326.359 1.82178 2.53412 0
M  V30 3329 N 326.66 -1.06551 1.16123 0
M  V30 3330 C 327.89 -1.8274 0.963838 0
M  V30 3331 C 328.298 -1.82712 -0.491228 0
M  V30 3332 O 327.641 -1.24294 -1.35265 0
M  V30 3333 C 327.703 -3.3065 1.41106 0
M  V30 3334 C 327.367 -3.54384 2.88549 0
M  V30 3335 C 328.364 -3.4765 3.86569 0
M  V30 3336 C 326.049 -3.81789 3.26408 0
M  V30 3337 C 328.043 -3.67982 5.2045 0
M  V30 3338 C 325.73 -4.01772 4.60459 0
M  V30 3339 C 326.728 -3.94866 5.57288 0
M  V30 3340 O 326.416 -4.14306 6.88916 0
M  V30 3341 H 326.148 -0.583136 0.341948 0
M  V30 3342 H 328.702 -1.35351 1.54497 0
M  V30 3343 H 326.932 -3.78887 0.773394 0
M  V30 3344 H 328.621 -3.88324 1.1815 0
M  V30 3345 H 329.387 -3.2647 3.58667 0
M  V30 3346 H 325.266 -3.86276 2.51619 0
M  V30 3347 H 328.81 -3.62507 5.96015 0
M  V30 3348 H 324.707 -4.2244 4.88072 0
M  V30 3349 H 325.475 -4.31609 6.95454 0
M  V30 3350 N 328.138 -0.959301 -1.25041 0
M  V30 3351 C 329.368 -0.63303 -1.96663 0
M  V30 3352 C 329.776 0.800031 -1.71453 0
M  V30 3353 O 329.119 1.54736 -0.99008 0
M  V30 3354 C 329.181 -0.817523 -3.50081 0
M  V30 3355 C 328.845 -2.22863 -3.98975 0
M  V30 3356 C 329.842 -3.20569 -4.09306 0
M  V30 3357 C 327.527 -2.55407 -4.32519 0
M  V30 3358 C 329.521 -4.4891 -4.52503 0
M  V30 3359 C 327.208 -3.83976 -4.754 0
M  V30 3360 C 328.206 -4.8054 -4.85356 0
M  V30 3361 O 327.894 -6.06817 -5.27284 0
M  V30 3362 H 327.626 -0.235866 -0.633516 0
M  V30 3363 H 330.18 -1.2874 -1.60047 0
M  V30 3364 H 328.41 -0.105992 -3.86555 0
M  V30 3365 H 330.099 -0.491604 -4.02912 0
M  V30 3366 H 330.865 -2.96753 -3.83618 0
M  V30 3367 H 326.744 -1.8097 -4.23994 0
M  V30 3368 H 330.288 -5.24283 -4.60188 0
M  V30 3369 H 326.185 -4.07596 -5.00535 0
M  V30 3370 H 326.953 -6.10262 -5.45457 0
M  V30 3371 N 329.616 1.39756 -0.72842 0
M  V30 3372 C 330.865 1.99879 -0.270407 0
M  V30 3373 C 331.178 1.58449 1.14688 0
M  V30 3374 O 332.384 2.11362 1.70407 0
M  V30 3375 C 330.84 3.57292 -0.43252 0
M  V30 3376 C 330.448 4.07688 -1.85727 0
M  V30 3377 C 332.192 4.24485 -0.0359507 0
M  V30 3378 C 330.099 5.5765 -1.96928 0
M  V30 3379 H 329.029 0.747689 -0.0973472 0
M  V30 3380 H 331.68 1.59837 -0.901355 0
M  V30 3381 H 330.062 3.95097 0.267219 0
M  V30 3382 H 331.236 3.81231 -2.58843 0
M  V30 3383 H 329.551 3.53135 -2.20646 0
M  V30 3384 H 332.148 5.34609 -0.0987484 0
M  V30 3385 H 332.491 4.03915 1.00787 0
M  V30 3386 H 333.024 3.9183 -0.686604 0
M  V30 3387 H 329.763 5.8309 -2.99476 0
M  V30 3388 H 329.283 5.8593 -1.28241 0
M  V30 3389 H 330.962 6.22957 -1.74737 0
M  V30 3390 N 331.094 0.475555 1.50254 0
M  V30 3391 C 332.322 -0.0754493 2.06762 0
M  V30 3392 C 332.737 -1.33111 1.33891 0
M  V30 3393 O 332.094 -1.77846 0.40952 0
M  V30 3394 C 332.145 -0.359008 3.59713 0
M  V30 3395 O 331.866 0.846851 4.29837 0
M  V30 3396 C 333.367 -0.956484 4.32858 0
M  V30 3397 H 330.587 0.00907525 0.670939 0
M  V30 3398 H 333.131 0.665618 1.93364 0
M  V30 3399 H 331.286 -1.05001 3.72899 0
M  V30 3400 H 331.7 0.594162 5.21124 0
M  V30 3401 H 333.174 -1.10463 5.40834 0
M  V30 3402 H 333.651 -1.94775 3.93649 0
M  V30 3403 H 334.257 -0.303723 4.24214 0
M  V30 3404 N 332.573 -1.56217 0.208337 0
M  V30 3405 C 333.801 -2.02337 -0.43215 0
M  V30 3406 C 334.216 -1.08834 -1.54275 0
M  V30 3407 O 333.573 -0.0955462 -1.8225 0
M  V30 3408 C 333.624 -3.48072 -0.976138 0
M  V30 3409 O 333.345 -4.38007 0.0901621 0
M  V30 3410 C 334.846 -4.09773 -1.69119 0
M  V30 3411 H 332.066 -0.662385 -0.10718 0
M  V30 3412 H 334.61 -2.01966 0.320923 0
M  V30 3413 H 332.765 -3.49099 -1.67954 0
M  V30 3414 H 333.179 -5.23543 -0.316701 0
M  V30 3415 H 334.653 -5.13556 -2.02397 0
M  V30 3416 H 335.13 -3.53999 -2.59964 0
M  V30 3417 H 335.736 -4.12556 -1.03332 0
M  V30 3418 N 334.051 0.0651679 -1.57465 0
M  V30 3419 C 335.467 0.420105 -1.53972 0
M  V30 3420 C 335.667 1.78782 -0.929474 0
M  V30 3421 O 334.723 2.46771 -0.534839 0
M  V30 3422 C 336.036 0.355084 -2.98596 0
M  V30 3423 C 337.584 0.434792 -3.09965 0
M  V30 3424 C 338.059 0.399609 -4.56253 0
M  V30 3425 N 339.55 0.459488 -4.60915 0
M  V30 3426 C 340.285 0.454584 -5.71595 0
M  V30 3427 N 339.781 0.404102 -6.9162 0
M  V30 3428 N 341.574 0.501635 -5.59857 0
M  V30 3429 H 333.725 -0.830328 -1.95498 0
M  V30 3430 H 335.988 -0.312244 -0.895102 0
M  V30 3431 H 335.694 -0.583357 -3.46828 0
M  V30 3432 H 335.568 1.16275 -3.58831 0
M  V30 3433 H 337.955 1.36366 -2.61703 0
M  V30 3434 H 338.036 -0.40157 -2.52628 0
M  V30 3435 H 337.68 -0.525436 -5.05175 0
M  V30 3436 H 337.61 1.25359 -5.11461 0
M  V30 3437 H 340.101 0.502482 -3.74544 0
M  V30 3438 H 340.414 0.404468 -7.71741 0
M  V30 3439 H 338.759 0.37069 -6.94011 0
M  V30 3440 H 341.95 0.538812 -4.64989 0
M  V30 3441 H 342.123 0.494345 -6.46112 0
M  V30 3442 N 335.529 1.53961 0.336706 0
M  V30 3443 C 336.492 1.81724 1.39675 0
M  V30 3444 C 337.492 0.688532 1.45313 0
M  V30 3445 O 338.682 0.956829 1.45569 0
M  V30 3446 C 335.814 1.96543 2.78538 0
M  V30 3447 H 337.007 2.76424 1.16318 0
M  V30 3448 H 334.56 1.45478 0.571474 0
M  V30 3449 H 335.295 1.0401 3.07168 0
M  V30 3450 H 335.08 2.78665 2.75841 0
M  V30 3451 H 336.57 2.19516 3.5525 0
M  V30 3452 N 337.007 -0.598083 1.45811 0
M  V30 3453 C 337.939 -1.72231 1.51225 0
M  V30 3454 C 338.952 -1.57757 0.402059 0
M  V30 3455 O 340.141 -1.65464 0.669624 0
M  V30 3456 C 337.241 -3.10331 1.3619 0
M  V30 3457 C 336.414 -3.50955 2.61054 0
M  V30 3458 C 335.473 -4.68055 2.40439 0
M  V30 3459 O 334.499 -4.74691 3.14097 0
M  V30 3460 N 335.701 -5.61941 1.45612 0
M  V30 3461 H 338.466 -1.68046 2.48154 0
M  V30 3462 H 336.027 -0.783637 1.41671 0
M  V30 3463 H 338.019 -3.86439 1.20195 0
M  V30 3464 H 336.589 -3.0897 0.475015 0
M  V30 3465 H 335.809 -2.64711 2.92099 0
M  V30 3466 H 337.097 -3.74858 3.44034 0
M  V30 3467 H 336.495 -5.59301 0.848431 0
M  V30 3468 H 335.052 -6.37542 1.35585 0
M  V30 3469 N 338.485 -1.33259 -0.841409 0
M  V30 3470 C 339.732 -1.24572 -1.5965 0
M  V30 3471 C 340.06 0.189137 -1.93578 0
M  V30 3472 O 339.315 1.14566 -1.5866 0
M  V30 3473 C 339.614 -2.06381 -2.9179 0
M  V30 3474 C 339.28 -3.556 -2.77235 0
M  V30 3475 C 337.942 -3.96282 -2.72973 0
M  V30 3476 C 340.294 -4.50433 -2.62221 0
M  V30 3477 C 337.622 -5.30017 -2.51592 0
M  V30 3478 C 339.974 -5.84327 -2.42374 0
M  V30 3479 C 338.638 -6.24194 -2.36512 0
M  V30 3480 H 337.908 -0.455842 -0.5842 0
M  V30 3481 H 340.555 -1.6482 -0.975016 0
M  V30 3482 H 338.86 -1.58903 -3.5813 0
M  V30 3483 H 340.557 -1.97019 -3.49263 0
M  V30 3484 H 337.147 -3.23298 -2.81384 0
M  V30 3485 H 341.331 -4.19914 -2.64549 0
M  V30 3486 H 336.587 -5.59947 -2.45499 0
M  V30 3487 H 340.761 -6.57414 -2.29739 0
M  V30 3488 H 338.388 -7.27759 -2.19706 0
M  V30 3489 N 339.963 1.05934 -1.16686 0
M  V30 3490 C 341.24 1.75643 -0.860747 0
M  V30 3491 C 341.62 2.01144 0.640641 0
M  V30 3492 O 340.968 1.64147 1.58959 0
M  V30 3493 C 341.178 3.05493 -1.68745 0
M  V30 3494 C 342.526 3.79581 -1.90271 0
M  V30 3495 O 343.55 3.15344 -1.65641 0
M  V30 3496 O 342.409 4.9499 -2.31618 0
M  V30 3497 H 339.503 0.763426 -0.317977 0
M  V30 3498 H 342.049 1.1217 -1.27342 0
M  V30 3499 H 340.821 2.8264 -2.70611 0
M  V30 3500 H 340.444 3.76702 -1.27206 0
M  V30 3501 N 341.441 0.965919 1.2453 0
M  V30 3502 C 342.669 0.644385 1.96609 0
M  V30 3503 C 343.084 -0.785823 1.71669 0
M  V30 3504 O 342.441 -1.52703 0.999399 0
M  V30 3505 C 342.492 0.907375 3.49927 0
M  V30 3506 O 342.213 2.28136 3.74013 0
M  V30 3507 C 343.714 0.599784 4.39224 0
M  V30 3508 H 340.934 0.240588 0.626385 0
M  V30 3509 H 343.478 1.29337 1.58405 0
M  V30 3510 H 341.633 0.304631 3.862 0
M  V30 3511 H 342.047 2.36002 4.68405 0
M  V30 3512 H 343.521 0.834263 5.45659 0
M  V30 3513 H 343.998 -0.465921 4.36722 0
M  V30 3514 H 344.604 1.18235 4.08535 0
M  V30 3515 N 342.919 -1.39368 0.735821 0
M  V30 3516 C 343.849 -2.33234 0.111506 0
M  V30 3517 C 344.83 -1.53954 -0.723334 0
M  V30 3518 O 346.015 -1.82344 -0.668147 0
M  V30 3519 C 343.145 -3.38057 -0.795917 0
M  V30 3520 C 342.099 -4.2795 -0.065172 0
M  V30 3521 C 341.425 -5.23479 -1.08967 0
M  V30 3522 C 342.725 -5.10741 1.09273 0
M  V30 3523 H 344.419 -2.85692 0.895571 0
M  V30 3524 H 341.965 -1.37364 0.432109 0
M  V30 3525 H 343.918 -4.02675 -1.24221 0
M  V30 3526 H 342.642 -2.8404 -1.61211 0
M  V30 3527 H 341.301 -3.64813 0.361511 0
M  V30 3528 H 340.949 -4.65758 -1.89944 0
M  V30 3529 H 340.649 -5.84472 -0.605489 0
M  V30 3530 H 342.173 -5.90974 -1.53565 0
M  V30 3531 H 343.587 -5.68699 0.724841 0
M  V30 3532 H 341.984 -5.8088 1.50659 0
M  V30 3533 H 343.054 -4.45525 1.91404 0
M  V30 3534 N 344.397 -0.483516 -1.5 0
M  V30 3535 C 345.329 0.340634 -2.26655 0
M  V30 3536 C 346.342 0.946152 -1.32483 0
M  V30 3537 O 347.531 0.832453 -1.579 0
M  V30 3538 C 344.631 1.4929 -3.04246 0
M  V30 3539 C 343.804 0.997903 -4.25865 0
M  V30 3540 C 342.863 2.02569 -4.85646 0
M  V30 3541 O 341.889 1.60128 -5.46212 0
M  V30 3542 N 343.091 3.3548 -4.73744 0
M  V30 3543 H 345.856 -0.316577 -2.98023 0
M  V30 3544 H 343.417 -0.315024 -1.58806 0
M  V30 3545 H 345.409 2.17766 -3.41116 0
M  V30 3546 H 343.979 2.05458 -2.35597 0
M  V30 3547 H 343.199 0.138617 -3.93956 0
M  V30 3548 H 344.487 0.645305 -5.04691 0
M  V30 3549 H 343.885 3.72661 -4.25605 0
M  V30 3550 H 342.442 3.99718 -5.14848 0
M  V30 3551 N 345.875 1.56104 -0.216619 0
M  V30 3552 C 346.822 2.2007 0.695531 0
M  V30 3553 C 347.792 1.15471 1.19397 0
M  V30 3554 O 348.977 1.43807 1.25396 0
M  V30 3555 C 346.117 2.88073 1.90021 0
M  V30 3556 C 345.23 4.07253 1.44113 0
M  V30 3557 C 344.365 4.63052 2.603 0
M  V30 3558 C 343.404 5.74545 2.11103 0
M  V30 3559 N 342.541 6.24656 3.20545 0
M  V30 3560 H 347.381 2.97655 0.143327 0
M  V30 3561 H 344.918 1.46982 0.0589934 0
M  V30 3562 H 346.876 3.25681 2.60745 0
M  V30 3563 H 345.506 2.13015 2.42538 0
M  V30 3564 H 344.558 3.75164 0.628999 0
M  V30 3565 H 345.87 4.8783 1.04036 0
M  V30 3566 H 345.024 5.03078 3.39113 0
M  V30 3567 H 343.763 3.81628 3.03663 0
M  V30 3568 H 342.768 5.34027 1.3075 0
M  V30 3569 H 343.993 6.57801 1.68746 0
M  V30 3570 H 341.939 5.46148 3.63399 0
M  V30 3571 H 341.856 7.00343 2.84704 0
M  V30 3572 H 343.124 6.69338 3.99508 0
M  V30 3573 N 347.353 -0.0568162 1.57498 0
M  V30 3574 C 348.283 -1.06593 2.0775 0
M  V30 3575 C 349.264 -1.39448 0.974082 0
M  V30 3576 O 350.449 -1.48815 1.24771 0
M  V30 3577 C 347.579 -2.37509 2.5339 0
M  V30 3578 C 346.533 -2.1897 3.67745 0
M  V30 3579 C 345.859 -3.55402 3.99492 0
M  V30 3580 C 347.159 -1.59859 4.97235 0
M  V30 3581 H 348.853 -0.647706 2.9231 0
M  V30 3582 H 346.399 -0.310116 1.40621 0
M  V30 3583 H 348.352 -3.08409 2.87162 0
M  V30 3584 H 347.076 -2.8134 1.65878 0
M  V30 3585 H 345.735 -1.50508 3.3428 0
M  V30 3586 H 345.383 -3.9683 3.09088 0
M  V30 3587 H 345.083 -3.43831 4.76502 0
M  V30 3588 H 346.607 -4.27708 4.35773 0
M  V30 3589 H 348.021 -2.20642 5.29141 0
M  V30 3590 H 346.418 -1.58942 5.78669 0
M  V30 3591 H 347.488 -0.561506 4.81638 0
M  V30 3592 N 348.832 -1.54138 -0.328536 0
M  V30 3593 C 350.078 -1.7236 -1.06865 0
M  V30 3594 C 350.411 -0.493231 -1.87832 0
M  V30 3595 O 349.686 0.5098 -1.877 0
M  V30 3596 C 349.969 -2.99621 -1.99747 0
M  V30 3597 C 349.822 -4.32899 -1.22143 0
M  V30 3598 C 351.141 -3.22615 -2.99345 0
M  V30 3599 H 348.26 -0.627151 -0.387105 0
M  V30 3600 H 350.902 -1.86827 -0.345767 0
M  V30 3601 H 349.052 -2.87418 -2.61387 0
M  V30 3602 H 350.724 -4.56978 -0.630017 0
M  V30 3603 H 348.967 -4.30628 -0.523628 0
M  V30 3604 H 349.638 -5.18154 -1.90318 0
M  V30 3605 H 352.114 -3.34248 -2.47826 0
M  V30 3606 H 350.99 -4.13027 -3.61524 0
M  V30 3607 H 351.251 -2.3961 -3.71536 0
M  V30 3608 N 350.31 0.590341 -1.46126 0
M  V30 3609 C 351.257 1.69994 -1.56111 0
M  V30 3610 C 352.227 1.61065 -0.405867 0
M  V30 3611 O 353.412 1.8039 -0.621613 0
M  V30 3612 C 350.552 3.08326 -1.55013 0
M  V30 3613 C 349.665 3.27936 -2.81215 0
M  V30 3614 C 348.8 4.56473 -2.71673 0
M  V30 3615 C 347.839 4.694 -3.92849 0
M  V30 3616 N 346.976 5.89254 -3.81738 0
M  V30 3617 H 351.816 1.60797 -2.50895 0
M  V30 3618 H 349.353 0.783799 -1.24479 0
M  V30 3619 H 351.311 3.88383 -1.52362 0
M  V30 3620 H 349.941 3.16439 -0.637667 0
M  V30 3621 H 348.993 2.41536 -2.93879 0
M  V30 3622 H 350.305 3.33357 -3.71045 0
M  V30 3623 H 349.459 5.44748 -2.67085 0
M  V30 3624 H 348.198 4.53477 -1.7947 0
M  V30 3625 H 347.203 3.79544 -3.97777 0
M  V30 3626 H 348.428 4.7418 -4.86138 0
M  V30 3627 H 346.374 5.87271 -2.92317 0
M  V30 3628 H 346.291 5.95911 -4.65217 0
M  V30 3629 H 347.559 6.79981 -3.81112 0
M  V30 3630 N 351.788 1.33704 0.83433 0
M  V30 3631 C 352.738 1.20899 1.93306 0
M  V30 3632 C 353.722 0.110783 1.60518 0
M  V30 3633 O 354.914 0.339331 1.73717 0
M  V30 3634 C 352.043 0.955018 3.29749 0
M  V30 3635 C 351.129 2.09587 3.68692 0
M  V30 3636 N 351.52 3.34621 3.79292 0
M  V30 3637 C 349.818 2.00358 3.98463 0
M  V30 3638 C 350.519 4.09472 4.13167 0
M  V30 3639 N 349.495 3.37954 4.25779 0
M  V30 3640 H 353.297 2.15665 1.99664 0
M  V30 3641 H 350.811 1.25777 1.02732 0
M  V30 3642 H 352.808 0.844208 4.08263 0
M  V30 3643 H 351.468 0.0159317 3.24696 0
M  V30 3644 H 352.479 3.69313 3.63082 0
M  V30 3645 H 349.156 1.14137 4.01596 0
M  V30 3646 H 350.546 5.17391 4.28668 0
M  V30 3647 N 353.266 -1.05314 1.17247 0
M  V30 3648 C 354.496 -1.81707 0.983166 0
M  V30 3649 C 354.904 -1.83222 -0.471822 0
M  V30 3650 O 354.247 -1.25721 -1.3394 0
M  V30 3651 C 354.309 -3.29134 1.44606 0
M  V30 3652 C 353.973 -3.51304 2.92292 0
M  V30 3653 C 354.97 -3.4353 3.90235 0
M  V30 3654 C 352.655 -3.78306 3.30439 0
M  V30 3655 C 354.649 -3.62442 5.24323 0
M  V30 3656 C 352.336 -3.96866 4.64694 0
M  V30 3657 C 353.334 -3.88933 5.61445 0
M  V30 3658 O 353.022 -4.06976 6.93272 0
M  V30 3659 H 352.754 -0.579476 0.348114 0
M  V30 3660 H 355.308 -1.33705 1.55924 0
M  V30 3661 H 353.538 -3.78046 0.813537 0
M  V30 3662 H 355.227 -3.87049 1.22262 0
M  V30 3663 H 355.993 -3.22648 3.62109 0
M  V30 3664 H 351.872 -3.83585 2.55702 0
M  V30 3665 H 355.416 -3.56165 5.99827 0
M  V30 3666 H 351.313 -4.1724 4.92525 0
M  V30 3667 H 352.081 -4.24209 6.99992 0
M  V30 3668 N 354.744 -0.972509 -1.24016 0
M  V30 3669 C 355.972 -0.654803 -1.96265 0
M  V30 3670 C 356.387 0.776708 -1.72083 0
M  V30 3671 O 355.744 1.52171 -1.00748 0
M  V30 3672 C 355.795 -0.92592 -3.49441 0
M  V30 3673 O 355.516 -2.30116 -3.72798 0
M  V30 3674 C 357.017 -0.623068 -4.38899 0
M  V30 3675 H 354.237 -0.243907 -0.6251 0
M  V30 3676 H 356.781 -1.30175 -1.57717 0
M  V30 3677 H 354.936 -0.325108 -3.86033 0
M  V30 3678 H 355.35 -2.38483 -4.67147 0
M  V30 3679 H 356.824 -0.863189 -5.45209 0
M  V30 3680 H 357.301 0.442754 -4.36963 0
M  V30 3681 H 357.907 -1.204 -4.07902 0
M  V30 3682 N 356.222 1.38976 -0.743202 0
M  V30 3683 C 357.132 2.3434 -0.110399 0
M  V30 3684 C 358.148 1.58741 0.712559 0
M  V30 3685 O 359.324 1.9099 0.639125 0
M  V30 3686 C 356.389 3.37812 0.780012 0
M  V30 3687 C 355.45 4.29263 -0.0561319 0
M  V30 3688 C 354.683 5.27793 0.791875 0
M  V30 3689 O 354.906 5.33043 2.03031 0
M  V30 3690 O 353.84 6.01512 0.216183 0
M  V30 3691 H 357.666 2.90129 -0.897714 0
M  V30 3692 H 355.251 1.40643 -0.503966 0
M  V30 3693 H 357.133 4.01194 1.28923 0
M  V30 3694 H 355.808 2.84395 1.546 0
M  V30 3695 H 354.715 3.69076 -0.611056 0
M  V30 3696 H 356.048 4.85907 -0.784531 0
M  V30 3697 N 357.7 0.491464 1.49741 0
M  V30 3698 C 358.65 -0.311086 2.25868 0
M  V30 3699 C 359.634 -0.943857 1.30308 0
M  V30 3700 O 360.826 -0.853035 1.55088 0
M  V30 3701 C 357.955 -1.38059 3.14316 0
M  V30 3702 C 357.041 -0.754541 4.17334 0
M  V30 3703 N 357.432 0.137216 5.05614 0
M  V30 3704 C 355.73 -1.01621 4.34269 0
M  V30 3705 C 356.431 0.494614 5.79593 0
M  V30 3706 N 355.407 -0.135169 5.43432 0
M  V30 3707 H 359.209 0.37555 2.91491 0
M  V30 3708 H 356.723 0.306917 1.59473 0
M  V30 3709 H 358.72 -1.96891 3.67477 0
M  V30 3710 H 357.38 -2.06901 2.50244 0
M  V30 3711 H 358.391 0.50741 5.15408 0
M  V30 3712 H 355.068 -1.69808 3.81407 0
M  V30 3713 H 356.458 1.2236 6.60665 0
M  V30 3714 N 359.178 -1.55987 0.224894 0
M  V30 3715 C 360.141 -2.19178 -0.670348 0
M  V30 3716 C 361.141 -1.15461 -1.11917 0
M  V30 3717 O 362.331 -1.40675 -1.02743 0
M  V30 3718 C 359.463 -2.81777 -1.9187 0
M  V30 3719 H 360.656 -2.99662 -0.119364 0
M  V30 3720 H 358.209 -1.5628 -0.0247128 0
M  V30 3721 H 358.944 -2.05172 -2.51147 0
M  V30 3722 H 358.729 -3.57732 -1.60531 0
M  V30 3723 H 360.219 -3.30205 -2.55645 0
M  V30 3724 N 360.656 0.0484629 -1.57525 0
M  V30 3725 C 361.933 0.777447 -1.79486 0
M  V30 3726 C 362.313 1.94597 -0.818251 0
M  V30 3727 O 361.661 2.28047 0.143767 0
M  V30 3728 C 361.871 1.22864 -3.26658 0
M  V30 3729 C 363.219 1.65251 -3.91123 0
M  V30 3730 O 364.243 1.32372 -3.3069 0
M  V30 3731 O 363.102 2.26207 -4.97486 0
M  V30 3732 H 360.196 0.374357 -0.737419 0
M  V30 3733 H 362.742 0.0267359 -1.69679 0
M  V30 3734 H 361.514 0.393589 -3.89316 0
M  V30 3735 H 361.137 2.03996 -3.41279 0
M  V30 3736 N 362.134 1.5431 0.320358 0
M  V30 3737 C 363.382 1.72327 1.05583 0
M  V30 3738 C 363.703 0.50149 1.88441 0
M  V30 3739 O 362.973 -0.48448 1.89815 0
M  V30 3740 H 361.553 0.635387 0.3928 0
M  V30 3741 H 364.215 1.91621 0.356019 0
M  V30 3742 H 363.311 2.60426 1.72003 0
M  V30 3743 N 363.613 -0.582584 1.46437 0
M  V30 3744 C 364.543 -1.70187 1.59871 0
M  V30 3745 C 365.524 -1.64066 0.449042 0
M  V30 3746 O 366.709 -1.82081 0.6753 0
M  V30 3747 C 363.839 -3.08827 1.58881 0
M  V30 3748 C 362.793 -3.29779 2.72819 0
M  V30 3749 C 362.119 -4.68947 2.5689 0
M  V30 3750 C 363.419 -3.17601 4.1464 0
M  V30 3751 H 365.113 -1.592 2.53566 0
M  V30 3752 H 362.659 -0.764472 1.22032 0
M  V30 3753 H 364.612 -3.86951 1.66873 0
M  V30 3754 H 363.336 -3.20713 0.617306 0
M  V30 3755 H 361.995 -2.54054 2.64296 0
M  V30 3756 H 361.643 -4.77599 1.57823 0
M  V30 3757 H 361.343 -4.83919 3.33312 0
M  V30 3758 H 362.867 -5.4924 2.66773 0
M  V30 3759 H 364.281 -3.8557 4.24274 0
M  V30 3760 H 362.678 -3.44094 4.9165 0
M  V30 3761 H 363.748 -2.14681 4.34788 0
M  V30 3762 N 365.091 -1.34144 -0.827227 0
M  V30 3763 C 366.331 -1.27603 -1.59677 0
M  V30 3764 C 366.695 0.153035 -1.91389 0
M  V30 3765 O 367.896 0.342566 -2.66608 0
M  V30 3766 C 366.167 -2.13784 -2.86411 0
M  V30 3767 S 367.726 -2.24552 -3.76991 0
M  V30 3768 H 364.544 -0.453789 -0.547354 0
M  V30 3769 H 367.146 -1.69309 -0.977479 0
M  V30 3770 H 365.85 -3.16627 -2.61104 0
M  V30 3771 H 365.381 -1.72959 -3.5334 0
M  V30 3772 H 367.396 -1.41514 -4.75593 0
M  V30 3773 N 366.569 1.04691 -1.17803 0
M  V30 3774 C 367.519 2.10856 -0.867391 0
M  V30 3775 C 368.503 1.601 0.160206 0
M  V30 3776 O 369.695 1.76948 -0.042947 0
M  V30 3777 C 366.824 3.411 -0.388012 0
M  V30 3778 C 365.91 3.9864 -1.44732 0
M  V30 3779 N 366.301 4.30075 -2.66212 0
M  V30 3780 C 364.599 4.26439 -1.30637 0
M  V30 3781 C 365.3 4.76033 -3.34317 0
M  V30 3782 N 364.276 4.76462 -2.61696 0
M  V30 3783 H 368.078 2.33029 -1.79094 0
M  V30 3784 H 365.592 1.22386 -1.0675 0
M  V30 3785 H 367.589 4.16641 -0.146994 0
M  V30 3786 H 366.249 3.20357 0.529271 0
M  V30 3787 H 367.26 4.19917 -3.03134 0
M  V30 3788 H 363.937 4.15056 -0.451129 0
M  V30 3789 H 365.327 5.09427 -4.38103 0
M  V30 3790 N 368.047 0.979072 1.23499 0
M  V30 3791 C 368.994 0.517904 2.24914 0
M  V30 3792 C 369.964 -0.442525 1.60097 0
M  V30 3793 O 371.149 -0.350365 1.87556 0
M  V30 3794 C 368.289 -0.174813 3.44657 0
M  V30 3795 C 367.402 0.825721 4.24035 0
M  V30 3796 C 366.537 0.107946 5.3109 0
M  V30 3797 C 365.576 1.09778 6.02175 0
M  V30 3798 N 364.713 0.40925 7.00906 0
M  V30 3799 H 369.553 1.38751 2.63727 0
M  V30 3800 H 367.09 0.695303 1.2963 0
M  V30 3801 H 369.048 -0.593233 4.12961 0
M  V30 3802 H 367.678 -1.0083 3.06648 0
M  V30 3803 H 366.73 1.36253 3.55161 0
M  V30 3804 H 368.042 1.58005 4.73113 0
M  V30 3805 H 367.196 -0.367904 6.05583 0
M  V30 3806 H 365.935 -0.678994 4.8295 0
M  V30 3807 H 364.94 1.5844 5.26476 0
M  V30 3808 H 366.165 1.88536 6.52404 0
M  V30 3809 H 364.111 -0.358506 6.5502 0
M  V30 3810 H 364.028 1.10226 7.47921 0
M  V30 3811 H 365.296 -0.0442557 7.79487 0
M  V30 3812 N 369.525 -1.3858 0.750561 0
M  V30 3813 C 370.455 -2.33102 0.136237 0
M  V30 3814 C 371.436 -1.54713 -0.706965 0
M  V30 3815 O 372.621 -1.83043 -0.648769 0
M  V30 3816 C 369.751 -3.38882 -0.760017 0
M  V30 3817 C 368.705 -4.27995 -0.0197785 0
M  V30 3818 C 368.031 -5.24605 -1.03408 0
M  V30 3819 C 369.331 -5.09554 1.14684 0
M  V30 3820 H 371.025 -2.84726 0.925822 0
M  V30 3821 H 368.571 -1.36898 0.446654 0
M  V30 3822 H 370.524 -4.0397 -1.19943 0
M  V30 3823 H 369.248 -2.85734 -1.58189 0
M  V30 3824 H 367.907 -3.64409 0.400184 0
M  V30 3825 H 367.555 -4.67746 -1.84994 0
M  V30 3826 H 367.255 -5.85081 -0.543464 0
M  V30 3827 H 368.779 -5.9257 -1.47288 0
M  V30 3828 H 370.193 -5.67899 0.785118 0
M  V30 3829 H 368.59 -5.7925 1.56812 0
M  V30 3830 H 369.66 -4.4347 1.96118 0
M  V30 3831 N 371.003 -0.499398 -1.49478 0
M  V30 3832 C 372.231 0.0425456 -2.06856 0
M  V30 3833 C 372.646 1.30964 -1.35992 0
M  V30 3834 O 372.003 1.77172 -0.437762 0
M  V30 3835 C 372.054 0.301735 -3.60239 0
M  V30 3836 O 371.775 -0.915127 -4.28436 0
M  V30 3837 C 373.276 0.887499 -4.34325 0
M  V30 3838 H 370.496 -0.0197482 -0.670709 0
M  V30 3839 H 373.04 -0.696297 -1.92281 0
M  V30 3840 H 371.195 0.990556 -3.74522 0
M  V30 3841 H 371.609 -0.676993 -5.20113 0
M  V30 3842 H 373.083 1.01845 -5.42523 0
M  V30 3843 H 373.56 1.88488 -3.96698 0
M  V30 3844 H 374.166 0.236196 -4.24644 0
M  V30 3845 N 372.481 1.55866 -0.233164 0
M  V30 3846 C 373.709 2.02998 0.399905 0
M  V30 3847 C 374.124 1.11274 1.52524 0
M  V30 3848 O 373.481 0.124528 1.82075 0
M  V30 3849 C 373.532 3.4958 0.920639 0
M  V30 3850 O 373.253 4.37808 -0.159834 0
M  V30 3851 C 374.754 4.12411 1.62578 0
M  V30 3852 H 371.974 0.664006 0.0966281 0
M  V30 3853 H 374.518 2.0143 -0.353013 0
M  V30 3854 H 372.673 3.51727 1.62379 0
M  V30 3855 H 373.087 5.23981 0.23337 0
M  V30 3856 H 374.561 5.16711 1.94201 0
M  V30 3857 H 375.038 3.5809 2.54299 0
M  V30 3858 H 375.644 4.14148 0.967553 0
M  V30 3859 N 373.959 -0.0401083 1.57549 0
M  V30 3860 C 375.205 -0.734211 1.89043 0
M  V30 3861 C 375.538 -1.75591 0.829535 0
M  V30 3862 O 374.813 -1.93868 -0.156706 0
M  V30 3863 C 375.096 -1.41374 3.31188 0
M  V30 3864 C 374.949 -0.406299 4.47961 0
M  V30 3865 C 376.268 -2.35061 3.72068 0
M  V30 3866 H 373.387 -0.265447 0.687537 0
M  V30 3867 H 376.029 0.00294087 1.9 0
M  V30 3868 H 374.179 -2.04206 3.30503 0
M  V30 3869 H 375.851 0.219255 4.60779 0
M  V30 3870 H 374.094 0.275485 4.32924 0
M  V30 3871 H 374.765 -0.920022 5.44279 0
M  V30 3872 H 377.241 -1.82282 3.74049 0
M  V30 3873 H 376.117 -2.79593 4.72355 0
M  V30 3874 H 376.378 -3.21258 3.0372 0
M  V30 3875 N 375.437 -1.54477 -0.31217 0
M  V30 3876 C 376.677 -1.74958 -1.05684 0
M  V30 3877 C 377.041 -0.518414 -1.84869 0
M  V30 3878 O 378.242 -0.600759 -2.62001 0
M  V30 3879 C 376.513 -2.99656 -1.94785 0
M  V30 3880 S 378.072 -3.4109 -2.76049 0
M  V30 3881 H 374.89 -0.615104 -0.356606 0
M  V30 3882 H 377.492 -1.92669 -0.331514 0
M  V30 3883 H 376.196 -3.87397 -1.35468 0
M  V30 3884 H 375.727 -2.845 -2.71704 0
M  V30 3885 H 377.742 -2.97283 -3.97287 0
M  V30 3886 N 376.915 0.57481 -1.46744 0
M  V30 3887 C 378.326 1.15695 -1.46532 0
M  V30 3888 C 378.677 1.95068 -0.210425 0
M  V30 3889 O 377.802 2.05241 0.685944 0
M  V30 3890 C 378.397 2.1048 -2.65487 0
M  V30 3891 C 376.956 2.64002 -2.68291 0
M  V30 3892 C 376.103 1.40026 -2.39349 0
M  V30 3893 H 379.054 0.362325 -1.54509 0
M  V30 3894 H 379.075 2.94074 -2.41455 0
M  V30 3895 H 378.587 1.52683 -3.56805 0
M  V30 3896 H 376.688 3.25646 -1.81067 0
M  V30 3897 H 376.801 3.06197 -3.68483 0
M  V30 3898 H 375.165 1.70106 -1.89568 0
M  V30 3899 H 375.948 0.840485 -3.32852 0
M  V30 3900 N 378.394 1.34581 0.820102 0
M  V30 3901 C 379.622 1.3018 1.60813 0
M  V30 3902 C 380.037 -0.123551 1.88395 0
M  V30 3903 O 379.394 -1.07148 1.47735 0
M  V30 3904 C 379.445 2.09312 2.94739 0
M  V30 3905 O 379.166 3.46288 2.68358 0
M  V30 3906 C 380.667 2.1234 3.89136 0
M  V30 3907 H 377.887 0.447726 0.499782 0
M  V30 3908 H 380.431 1.77237 1.02017 0
M  V30 3909 H 378.586 1.65889 3.50085 0
M  V30 3910 H 379 3.87227 3.53774 0
M  V30 3911 H 380.474 2.72126 4.80262 0
M  V30 3912 H 380.951 1.11854 4.24718 0
M  V30 3913 H 381.557 2.55864 3.39726 0
M  V30 3914 N 379.872 -1.04064 1.18357 0
M  V30 3915 C 381.118 -1.77528 0.980397 0
M  V30 3916 C 381.451 -1.87948 -0.48879 0
M  V30 3917 O 380.726 -1.3876 -1.36293 0
M  V30 3918 C 381.009 -3.20797 1.63588 0
M  V30 3919 C 380.862 -3.1832 3.17793 0
M  V30 3920 C 382.181 -4.18911 1.34914 0
M  V30 3921 H 379.3 -0.644443 0.357578 0
M  V30 3922 H 381.942 -1.2156 1.46024 0
M  V30 3923 H 380.092 -3.68586 1.22788 0
M  V30 3924 H 381.764 -2.78521 3.67728 0
M  V30 3925 H 380.007 -2.56351 3.49952 0
M  V30 3926 H 380.678 -4.19489 3.58794 0
M  V30 3927 H 383.154 -3.7967 1.70265 0
M  V30 3928 H 382.03 -5.17374 1.83346 0
M  V30 3929 H 382.291 -4.41262 0.272027 0
M  V30 3930 N 381.35 -0.985608 -1.22978 0
M  V30 3931 C 382.297 -0.529825 -2.24636 0
M  V30 3932 C 383.267 0.434028 -1.60329 0
M  V30 3933 O 384.452 0.340414 -1.87739 0
M  V30 3934 C 381.592 0.156533 -3.44745 0
M  V30 3935 C 380.705 -0.848197 -4.23591 0
M  V30 3936 C 379.84 -0.136109 -5.31026 0
M  V30 3937 C 378.879 -1.1297 -6.01585 0
M  V30 3938 N 378.016 -0.446415 -7.00679 0
M  V30 3939 H 382.856 -1.40148 -2.62988 0
M  V30 3940 H 380.393 -0.702168 -1.29259 0
M  V30 3941 H 382.351 0.571324 -4.1327 0
M  V30 3942 H 380.981 0.992025 -3.07179 0
M  V30 3943 H 380.033 -1.38135 -3.54433 0
M  V30 3944 H 381.345 -1.60512 -4.72268 0
M  V30 3945 H 380.499 0.335784 -6.0577 0
M  V30 3946 H 379.238 0.653373 -4.83304 0
M  V30 3947 H 378.243 -1.6123 -5.25628 0
M  V30 3948 H 379.468 -1.91993 -6.51395 0
M  V30 3949 H 377.414 0.323763 -6.55201 0
M  V30 3950 H 377.331 -1.1419 -7.47326 0
M  V30 3951 H 378.599 0.00291697 -7.795 0
M  V30 3952 N 382.828 1.3818 -0.7579 0
M  V30 3953 C 384.239 1.82726 -0.383134 0
M  V30 3954 C 384.59 1.63214 1.08884 0
M  V30 3955 O 383.715 1.13566 1.84205 0
M  V30 3956 C 384.31 3.31728 -0.688631 0
M  V30 3957 C 382.869 3.74606 -0.367091 0
M  V30 3958 C 382.016 2.60896 -0.939599 0
M  V30 3959 H 384.967 1.26847 -0.953699 0
M  V30 3960 H 384.988 3.80487 0.0316492 0
M  V30 3961 H 384.5 3.45898 -1.76001 0
M  V30 3962 H 382.601 3.66013 0.697532 0
M  V30 3963 H 382.714 4.71215 -0.865658 0
M  V30 3964 H 381.078 2.52075 -0.3647 0
M  V30 3965 H 381.861 2.77864 -2.0161 0
M  V30 3966 N 384.306 0.507319 1.49211 0
M  V30 3967 C 385.238 -0.304532 2.27168 0
M  V30 3968 C 386.251 -0.924956 1.33972 0
M  V30 3969 O 387.44 -0.807227 1.59205 0
M  V30 3970 C 384.54 -1.44431 3.06583 0
M  V30 3971 C 383.713 -0.930026 4.27398 0
M  V30 3972 C 382.772 -1.94817 4.88807 0
M  V30 3973 O 381.798 -1.51418 5.4869 0
M  V30 3974 N 383 -3.279 4.79022 0
M  V30 3975 H 385.765 0.36395 2.97482 0
M  V30 3976 H 383.326 0.340249 1.58284 0
M  V30 3977 H 385.318 -2.12311 3.44537 0
M  V30 3978 H 383.888 -2.01684 2.38835 0
M  V30 3979 H 383.108 -0.0759244 3.94127 0
M  V30 3980 H 384.396 -0.564932 5.05654 0
M  V30 3981 H 383.794 -3.65843 4.3148 0
M  V30 3982 H 382.351 -3.91476 5.21142 0
M  V30 3983 N 385.784 -1.5574 0.241426 0
M  V30 3984 C 387.012 -2.03208 -0.389134 0
M  V30 3985 C 387.427 -1.12082 -1.51931 0
M  V30 3986 O 386.784 -0.134183 -1.82006 0
M  V30 3987 C 386.835 -3.50064 -0.902087 0
M  V30 3988 O 386.556 -4.37717 0.18305 0
M  V30 3989 C 388.057 -4.13268 -1.60389 0
M  V30 3990 H 385.277 -0.664509 -0.0931053 0
M  V30 3991 H 387.821 -2.0124 0.36369 0
M  V30 3992 H 385.976 -3.52583 -1.60511 0
M  V30 3993 H 386.39 -5.24097 -0.205579 0
M  V30 3994 H 387.864 -5.17733 -1.91458 0
M  V30 3995 H 388.341 -3.59434 -2.52397 0
M  V30 3996 H 388.947 -4.14655 -0.945576 0
M  V30 3997 N 387.262 0.0317525 -1.57568 0
M  V30 3998 C 388.194 1.06073 -2.03178 0
M  V30 3999 C 389.207 1.32627 -0.944132 0
M  V30 4000 O 390.396 1.30162 -1.22148 0
M  V30 4001 C 387.496 2.40297 -2.38978 0
M  V30 4002 C 386.669 2.33137 -3.70089 0
M  V30 4003 C 385.728 3.49787 -3.9311 0
M  V30 4004 O 384.754 3.29403 -4.64201 0
M  V30 4005 N 385.956 4.71562 -3.38541 0
M  V30 4006 H 388.721 0.672006 -2.92069 0
M  V30 4007 H 386.282 0.219745 -1.60402 0
M  V30 4008 H 388.274 3.1705 -2.51518 0
M  V30 4009 H 386.844 2.71024 -1.55771 0
M  V30 4010 H 386.064 1.415 -3.67928 0
M  V30 4011 H 387.352 2.25493 -4.56104 0
M  V30 4012 H 386.75 4.91024 -2.80912 0
M  V30 4013 H 385.307 5.45689 -3.56464 0
M  V30 4014 N 388.74 1.54641 0.303973 0
M  V30 4015 C 389.988 1.73437 1.0375 0
M  V30 4016 C 390.309 0.521449 1.87899 0
M  V30 4017 O 389.579 -0.46432 1.90318 0
M  V30 4018 H 388.159 0.639518 0.386039 0
M  V30 4019 H 390.821 1.91988 0.335675 0
M  V30 4020 H 389.917 2.62235 1.69231 0
M  V30 4021 N 390.218 -0.567019 1.47046 0
M  V30 4022 C 391.148 -1.68482 1.61667 0
M  V30 4023 C 392.129 -1.6358 0.466418 0
M  V30 4024 O 393.314 -1.81354 0.694574 0
M  V30 4025 C 390.444 -3.07124 1.62148 0
M  V30 4026 C 389.398 -3.26867 2.76301 0
M  V30 4027 C 388.724 -4.66196 2.61849 0
M  V30 4028 C 390.024 -3.13186 4.17986 0
M  V30 4029 H 391.718 -1.56502 2.5524 0
M  V30 4030 H 389.264 -0.751486 1.22836 0
M  V30 4031 H 391.217 -3.8516 1.70968 0
M  V30 4032 H 389.941 -3.2004 0.651287 0
M  V30 4033 H 388.6 -2.51237 2.66975 0
M  V30 4034 H 388.248 -4.75898 1.62879 0
M  V30 4035 H 387.948 -4.80356 3.38425 0
M  V30 4036 H 389.472 -5.46379 2.72584 0
M  V30 4037 H 390.886 -3.81049 4.2834 0
M  V30 4038 H 389.283 -3.3886 4.95272 0
M  V30 4039 H 390.353 -2.10057 4.3704 0
M  V30 4040 N 391.696 -1.35014 -0.812953 0
M  V30 4041 C 392.659 -1.27292 -1.90602 0
M  V30 4042 C 393.659 -0.185817 -1.59723 0
M  V30 4043 O 394.849 -0.439102 -1.68575 0
M  V30 4044 C 391.981 -0.967676 -3.26877 0
M  V30 4045 H 393.174 -2.24479 -1.9887 0
M  V30 4046 H 390.727 -1.19446 -1.00808 0
M  V30 4047 H 391.462 0.0005954 -3.243 0
M  V30 4048 H 391.247 -1.75412 -3.50675 0
M  V30 4049 H 392.737 -0.939085 -4.06904 0
M  V30 4050 N 393.175 1.03435 -1.18907 0
M  V30 4051 C 394.122 2.11591 -0.921837 0
M  V30 4052 C 395.092 1.65499 0.141226 0
M  V30 4053 O 396.277 1.908 0.000242829 0
M  V30 4054 C 393.417 3.42012 -0.460616 0
M  V30 4055 C 392.53 4.01682 -1.58982 0
M  V30 4056 C 391.665 5.20091 -1.08069 0
M  V30 4057 C 390.704 5.71805 -2.18416 0
M  V30 4058 N 389.841 6.81494 -1.68849 0
M  V30 4059 H 394.681 2.33787 -1.8479 0
M  V30 4060 H 392.218 1.1467 -0.921373 0
M  V30 4061 H 394.176 4.16834 -0.174642 0
M  V30 4062 H 392.806 3.19944 0.428467 0
M  V30 4063 H 391.858 3.24127 -1.99113 0
M  V30 4064 H 393.17 4.36084 -2.4214 0
M  V30 4065 H 392.324 6.02051 -0.749615 0
M  V30 4066 H 391.063 4.87209 -0.218771 0
M  V30 4067 H 390.068 4.88461 -2.5236 0
M  V30 4068 H 391.293 6.06728 -3.05054 0
M  V30 4069 H 389.239 6.50475 -0.849572 0
M  V30 4070 H 389.156 7.14994 -2.45601 0
M  V30 4071 H 390.424 7.67063 -1.38689 0
M  V30 4072 N 394.653 0.992116 1.22453 0
M  V30 4073 C 395.93 0.583508 1.86694 0
M  V30 4074 C 396.31 -0.9392 1.89056 0
M  V30 4075 O 395.658 -1.82081 1.38053 0
M  V30 4076 C 395.868 1.20304 3.2761 0
M  V30 4077 C 397.216 1.30308 4.0411 0
M  V30 4078 O 398.24 1.15737 3.36873 0
M  V30 4079 O 397.099 1.53615 5.24466 0
M  V30 4080 H 394.193 0.198129 0.802916 0
M  V30 4081 H 396.739 1.08794 1.30238 0
M  V30 4082 H 395.511 2.24461 3.2052 0
M  V30 4083 H 395.134 0.684144 3.9167 0
M  V30 4084 N 396.131 -1.37776 0.765217 0
M  V30 4085 C 397.094 -2.28686 0.153416 0
M  V30 4086 C 398.094 -1.47727 -0.635081 0
M  V30 4087 O 399.284 -1.68027 -0.459632 0
M  V30 4088 C 396.416 -3.31608 -0.790495 0
M  V30 4089 H 397.609 -2.84297 0.954723 0
M  V30 4090 H 395.162 -1.46932 0.53299 0
M  V30 4091 H 395.897 -2.81109 -1.61705 0
M  V30 4092 H 395.682 -3.9144 -0.227348 0
M  V30 4093 H 397.172 -3.99559 -1.21419 0
M  V30 4094 N 397.609 -0.515225 -1.4894 0
M  V30 4095 C 398.855 0.016187 -2.03394 0
M  V30 4096 C 399.21 1.33377 -1.38666 0
M  V30 4097 O 398.503 1.84461 -0.518141 0
M  V30 4098 C 398.697 0.210595 -3.56779 0
M  V30 4099 C 398.526 -1.08659 -4.36375 0
M  V30 4100 C 397.296 -1.64237 -4.77864 0
M  V30 4101 C 399.494 -1.9935 -4.74093 0
M  V30 4102 N 397.476 -2.88398 -5.41941 0
M  V30 4103 C 398.847 -3.08088 -5.38035 0
M  V30 4104 C 400.902 -1.99856 -4.56029 0
M  V30 4105 C 399.605 -4.17377 -5.85823 0
M  V30 4106 C 401.631 -3.08129 -5.04787 0
M  V30 4107 C 400.993 -4.15586 -5.68742 0
M  V30 4108 H 397.092 -0.0352107 -0.781207 0
M  V30 4109 H 399.676 -0.693237 -1.8194 0
M  V30 4110 H 397.847 0.889088 -3.78087 0
M  V30 4111 H 399.579 0.740287 -3.97872 0
M  V30 4112 H 396.334 -1.18566 -4.58518 0
M  V30 4113 H 396.758 -3.51572 -5.78555 0
M  V30 4114 H 401.4 -1.18079 -4.05977 0
M  V30 4115 H 399.118 -4.99943 -6.34888 0
M  V30 4116 H 402.704 -3.09557 -4.92611 0
M  V30 4117 H 401.584 -4.97987 -6.05787 0
M  V30 4118 N 399.087 1.5561 -0.249682 0
M  V30 4119 C 399.997 2.25143 0.659375 0
M  V30 4120 C 401.013 1.2685 1.19101 0
M  V30 4121 O 402.189 1.59732 1.22669 0
M  V30 4122 C 399.254 2.93945 1.8384 0
M  V30 4123 C 398.315 4.07655 1.34596 0
M  V30 4124 C 397.548 4.73167 2.46878 0
M  V30 4125 O 397.771 4.37768 3.65671 0
M  V30 4126 O 396.705 5.61623 2.16478 0
M  V30 4127 H 400.531 3.03545 0.0968698 0
M  V30 4128 H 398.116 1.49389 -0.018074 0
M  V30 4129 H 399.998 3.37271 2.52638 0
M  V30 4130 H 398.673 2.18481 2.38847 0
M  V30 4131 H 397.58 3.68839 0.625174 0
M  V30 4132 H 398.913 4.84946 0.841941 0
M  V30 4133 N 400.565 -0.0233959 1.57583 0
M  V30 4134 C 401.814 -0.712133 1.8871 0
M  V30 4135 C 402.127 -1.76217 0.848944 0
M  V30 4136 O 403.333 -2.50389 1.04964 0
M  V30 4137 C 401.789 -1.3177 3.3491 0
M  V30 4138 C 401.397 -0.303715 4.46969 0
M  V30 4139 C 403.141 -1.98598 3.75179 0
M  V30 4140 C 401.048 -0.917945 5.84233 0
M  V30 4141 H 399.978 -0.269735 0.704101 0
M  V30 4142 H 402.629 0.0333114 1.8347 0
M  V30 4143 H 401.011 -2.11304 3.34913 0
M  V30 4144 H 402.185 0.465325 4.58445 0
M  V30 4145 H 400.5 0.2628 4.1557 0
M  V30 4146 H 403.097 -2.45416 4.75053 0
M  V30 4147 H 403.44 -2.80659 3.07468 0
M  V30 4148 H 403.973 -1.25831 3.77374 0
M  V30 4149 H 400.712 -0.136633 6.55358 0
M  V30 4150 H 400.232 -1.65669 5.76467 0
M  V30 4151 H 401.911 -1.4236 6.31144 0
M  V30 4152 N 402.043 -1.548 -0.295768 0
M  V30 4153 C 403.454 -1.65274 -0.868411 0
M  V30 4154 C 403.805 -0.56481 -1.87894 0
M  V30 4155 O 402.93 0.29767 -2.14343 0
M  V30 4156 C 403.525 -2.99603 -1.58188 0
M  V30 4157 C 402.084 -3.12181 -2.10286 0
M  V30 4158 C 401.231 -2.6098 -0.93727 0
M  V30 4159 H 404.182 -1.58534 -0.0726422 0
M  V30 4160 H 404.203 -2.91319 -2.44772 0
M  V30 4161 H 403.715 -3.78764 -0.846151 0
M  V30 4162 H 401.816 -2.3775 -2.8689 0
M  V30 4163 H 401.929 -4.18415 -2.33379 0
M  V30 4164 H 400.293 -2.17564 -1.32431 0
M  V30 4165 H 401.076 -3.42623 -0.215414 0
M  V30 4166 N 403.521 0.559213 -1.47345 0
M  V30 4167 C 404.937 0.884943 -1.32819 0
M  V30 4168 C 405.137 1.98988 -0.317173 0
M  V30 4169 O 404.193 2.51031 0.272011 0
M  V30 4170 C 405.506 1.28007 -2.72093 0
M  V30 4171 C 407.054 1.39161 -2.80363 0
M  V30 4172 C 407.529 1.82031 -4.20272 0
M  V30 4173 N 409.02 1.89185 -4.22804 0
M  V30 4174 C 409.755 2.2368 -5.27973 0
M  V30 4175 N 409.251 2.56802 -6.43447 0
M  V30 4176 N 411.044 2.24436 -5.15349 0
M  V30 4177 H 403.195 -0.170304 -2.11716 0
M  V30 4178 H 405.458 -0.0135247 -0.947904 0
M  V30 4179 H 405.164 0.542027 -3.47498 0
M  V30 4180 H 405.038 2.23665 -3.03733 0
M  V30 4181 H 407.425 2.12048 -2.05231 0
M  V30 4182 H 407.506 0.41696 -2.52379 0
M  V30 4183 H 407.15 1.09715 -4.95908 0
M  V30 4184 H 407.08 2.80495 -4.45679 0
M  V30 4185 H 409.571 1.65982 -3.39497 0
M  V30 4186 H 409.884 2.82144 -7.19454 0
M  V30 4187 H 408.229 2.54387 -6.46771 0
M  V30 4188 H 411.42 1.97998 -4.24163 0
M  V30 4189 H 411.593 2.50989 -5.97418 0
M  V30 4190 N 404.999 1.35443 0.805782 0
M  V30 4191 C 405.909 1.30546 1.94923 0
M  V30 4192 C 406.925 0.210233 1.72725 0
M  V30 4193 O 408.101 0.43975 1.9654 0
M  V30 4194 C 405.166 1.07782 3.29521 0
M  V30 4195 C 404.227 2.26625 3.64609 0
M  V30 4196 C 403.46 2.04938 4.92784 0
M  V30 4197 O 403.683 1.01624 5.61274 0
M  V30 4198 O 402.617 2.9232 5.26149 0
M  V30 4199 H 406.443 2.26779 2.02002 0
M  V30 4200 H 404.028 1.15823 0.943682 0
M  V30 4201 H 405.91 0.969392 4.10098 0
M  V30 4202 H 404.585 0.146003 3.23371 0
M  V30 4203 H 403.492 2.43033 2.84404 0
M  V30 4204 H 404.825 3.18257 3.75464 0
M  V30 4205 N 406.477 -1.02803 1.19454 0
M  V30 4206 C 407.702 -1.80378 1.02364 0
M  V30 4207 C 408.127 -1.83282 -0.423007 0
M  V30 4208 O 407.485 -1.25945 -1.30413 0
M  V30 4209 C 407.533 -3.23248 1.59821 0
M  V30 4210 O 406.637 -4.04 0.828105 0
M  V30 4211 H 405.978 -0.556799 0.361761 0
M  V30 4212 H 408.508 -1.29385 1.58495 0
M  V30 4213 H 408.518 -3.73994 1.63073 0
M  V30 4214 H 407.193 -3.2045 2.65113 0
M  V30 4215 H 405.77 -3.62635 0.86891 0
M  V30 4216 N 407.956 -0.998596 -1.21925 0
M  V30 4217 C 408.886 -0.573688 -2.26343 0
M  V30 4218 C 409.867 0.402296 -1.65274 0
M  V30 4219 O 411.052 0.291683 -1.91997 0
M  V30 4220 C 408.182 0.106839 -3.47136 0
M  V30 4221 C 407.136 -0.788269 -4.20678 0
M  V30 4222 C 406.462 0.0254927 -5.34694 0
M  V30 4223 C 407.762 -2.08784 -4.78755 0
M  V30 4224 H 409.456 -1.44651 -2.62138 0
M  V30 4225 H 407.002 -0.696975 -1.26009 0
M  V30 4226 H 408.955 0.415531 -4.19346 0
M  V30 4227 H 407.679 1.01424 -3.10452 0
M  V30 4228 H 406.338 -1.08069 -3.50309 0
M  V30 4229 H 405.986 0.933989 -4.94253 0
M  V30 4230 H 405.686 -0.570437 -5.84825 0
M  V30 4231 H 407.21 0.328147 -6.09718 0
M  V30 4232 H 408.624 -1.84272 -5.42878 0
M  V30 4233 H 407.021 -2.63307 -5.39249 0
M  V30 4234 H 408.091 -2.76284 -3.98491 0
M  V30 4235 N 409.434 1.37368 -0.772513 0
M  V30 4236 C 410.85 1.53059 -0.452231 0
M  V30 4237 C 411.05 1.73065 1.03203 0
M  V30 4238 O 410.106 1.75245 1.81784 0
M  V30 4239 C 411.419 2.72659 -1.26797 0
M  V30 4240 C 412.967 2.86521 -1.25995 0
M  V30 4241 C 413.442 4.09105 -2.05905 0
M  V30 4242 N 414.933 4.16219 -2.03263 0
M  V30 4243 C 415.668 5.10107 -2.61875 0
M  V30 4244 N 415.164 6.09547 -3.29278 0
M  V30 4245 N 416.957 5.02596 -2.51701 0
M  V30 4246 H 409.108 1.22634 -1.7342 0
M  V30 4247 H 411.371 0.597206 -0.736239 0
M  V30 4248 H 411.077 2.64343 -2.31982 0
M  V30 4249 H 410.951 3.66363 -0.897672 0
M  V30 4250 H 413.338 2.94308 -0.216081 0
M  V30 4251 H 413.419 1.93774 -1.66989 0
M  V30 4252 H 413.063 4.0208 -3.10313 0
M  V30 4253 H 412.993 5.00968 -1.62292 0
M  V30 4254 H 415.484 3.45012 -1.54192 0
M  V30 4255 H 415.797 6.77718 -3.71374 0
M  V30 4256 H 414.142 6.09824 -3.33377 0
M  V30 4257 H 417.333 4.23855 -1.98657 0
M  V30 4258 H 417.506 5.75582 -2.97673 0
M  V30 4259 N 410.912 0.523116 1.48665 0
M  V30 4260 C 411.842 -0.23231 2.32342 0
M  V30 4261 C 412.823 -0.941637 1.41659 0
M  V30 4262 O 414.008 -0.928751 1.70552 0
M  V30 4263 C 411.138 -1.28387 3.22698 0
M  V30 4264 C 410.092 -0.693098 4.22351 0
M  V30 4265 C 409.418 -1.8468 5.01794 0
M  V30 4266 C 410.718 0.33063 5.21252 0
M  V30 4267 H 412.412 0.466192 2.95748 0
M  V30 4268 H 409.958 0.225643 1.42221 0
M  V30 4269 H 411.911 -1.82024 3.80059 0
M  V30 4270 H 410.635 -2.01186 2.57278 0
M  V30 4271 H 409.294 -0.178299 3.66166 0
M  V30 4272 H 408.942 -2.56301 4.32804 0
M  V30 4273 H 408.642 -1.45747 5.69238 0
M  V30 4274 H 410.166 -2.38709 5.62006 0
M  V30 4275 H 411.58 -0.118407 5.73178 0
M  V30 4276 H 409.977 0.636974 5.9671 0
M  V30 4277 H 411.047 1.23883 4.68808 0
M  V30 4278 N 412.39 -1.55475 0.257931 0
M  V30 4279 C 413.3 -2.2549 -0.647425 0
M  V30 4280 C 414.316 -1.2748 -1.18427 0
M  V30 4281 O 415.492 -1.6038 -1.2182 0
M  V30 4282 C 412.557 -2.94916 -1.82278 0
M  V30 4283 C 411.618 -4.08363 -1.32432 0
M  V30 4284 C 410.851 -4.74469 -2.44366 0
M  V30 4285 O 411.074 -4.39701 -3.63344 0
M  V30 4286 O 410.008 -5.62763 -2.13497 0
M  V30 4287 H 413.834 -3.03593 -0.0807707 0
M  V30 4288 H 411.419 -1.49377 0.0259962 0
M  V30 4289 H 413.301 -3.38606 -2.50846 0
M  V30 4290 H 411.976 -2.19744 -2.37685 0
M  V30 4291 H 410.883 -3.69166 -0.605605 0
M  V30 4292 H 412.216 -4.85385 -0.816211 0
M  V30 4293 N 413.868 0.0150385 -1.57593 0
M  V30 4294 C 415.114 0.704043 -1.90187 0
M  V30 4295 C 415.447 1.74249 -0.857366 0
M  V30 4296 O 414.722 1.94092 0.125843 0
M  V30 4297 C 415.005 1.36087 -3.33395 0
M  V30 4298 C 414.858 0.334981 -4.48551 0
M  V30 4299 C 416.177 2.29112 -3.7576 0
M  V30 4300 H 413.296 0.254475 -0.691673 0
M  V30 4301 H 415.938 -0.0331678 -1.89971 0
M  V30 4302 H 414.088 1.98922 -3.3371 0
M  V30 4303 H 415.76 -0.292534 -4.60372 0
M  V30 4304 H 414.003 -0.344325 -4.32431 0
M  V30 4305 H 414.674 0.833316 -5.45674 0
M  V30 4306 H 417.15 1.76308 -3.76902 0
M  V30 4307 H 416.026 2.72043 -4.76743 0
M  V30 4308 H 416.287 3.16385 -3.08793 0
M  V30 4309 N 415.346 1.54954 0.287554 0
M  V30 4310 C 416.293 1.86834 1.35505 0
M  V30 4311 C 417.263 0.718452 1.49758 0
M  V30 4312 O 418.448 0.968358 1.644 0
M  V30 4313 C 415.588 2.13303 2.71286 0
M  V30 4314 C 414.701 3.40883 2.65373 0
M  V30 4315 C 413.836 3.57125 3.93236 0
M  V30 4316 C 412.875 4.78449 3.81776 0
M  V30 4317 N 412.012 4.91426 5.01443 0
M  V30 4318 H 416.852 2.77889 1.07619 0
M  V30 4319 H 414.389 1.37593 0.520241 0
M  V30 4320 H 416.347 2.26646 3.50267 0
M  V30 4321 H 414.977 1.25499 2.97405 0
M  V30 4322 H 414.029 3.36088 1.78182 0
M  V30 4323 H 415.341 4.29993 2.52799 0
M  V30 4324 H 414.495 3.70207 4.80658 0
M  V30 4325 H 413.234 2.66173 4.0866 0
M  V30 4326 H 412.239 4.65386 2.92738 0
M  V30 4327 H 413.464 5.70822 3.67884 0
M  V30 4328 H 411.41 4.03401 5.17304 0
M  V30 4329 H 411.327 5.74559 4.91343 0
M  V30 4330 H 412.595 5.08879 5.90477 0
M  V30 4331 N 416.824 -0.551391 1.4764 0
M  V30 4332 C 417.754 -1.66757 1.63445 0
M  V30 4333 C 418.735 -1.63077 0.483742 0
M  V30 4334 O 419.92 -1.80607 0.71377 0
M  V30 4335 C 417.05 -3.05387 1.65396 0
M  V30 4336 C 416.004 -3.23918 2.79752 0
M  V30 4337 C 415.33 -4.63393 2.66779 0
M  V30 4338 C 416.63 -3.08735 4.21284 0
M  V30 4339 H 418.324 -1.53786 2.56886 0
M  V30 4340 H 415.87 -0.738415 1.23626 0
M  V30 4341 H 417.823 -3.83325 1.75043 0
M  V30 4342 H 416.547 -3.19332 0.685195 0
M  V30 4343 H 415.206 -2.48391 2.69625 0
M  V30 4344 H 414.854 -4.74144 1.67918 0
M  V30 4345 H 414.554 -4.7674 3.43501 0
M  V30 4346 H 416.078 -5.43458 2.78364 0
M  V30 4347 H 417.492 -3.76484 4.32357 0
M  V30 4348 H 415.889 -3.33588 4.98838 0
M  V30 4349 H 416.959 -2.0541 4.39243 0
M  V30 4350 N 418.302 -1.35869 -0.798587 0
M  V30 4351 C 419.55 -1.29332 -1.55298 0
M  V30 4352 C 419.871 0.129729 -1.94568 0
M  V30 4353 O 419.141 1.06796 -1.6423 0
M  V30 4354 H 417.721 -0.475737 -0.57592 0
M  V30 4355 H 420.383 -1.70062 -0.952093 0
M  V30 4356 H 419.479 -1.91458 -2.46476 0
M  V30 4357 N 419.78 1.02168 -1.19998 0
M  V30 4358 C 420.712 2.10705 -0.901994 0
M  V30 4359 C 421.725 1.6244 0.108216 0
M  V30 4360 O 422.914 1.78082 -0.12214 0
M  V30 4361 C 420.014 3.37291 -0.329834 0
M  V30 4362 C 419.187 4.14714 -1.39035 0
M  V30 4363 C 418.246 5.19606 -0.830432 0
M  V30 4364 O 417.272 5.48809 -1.50989 0
M  V30 4365 N 418.474 5.79366 0.362696 0
M  V30 4366 H 421.239 2.36856 -1.83628 0
M  V30 4367 H 418.8 1.18518 -1.10296 0
M  V30 4368 H 420.792 4.04657 0.0587633 0
M  V30 4369 H 419.362 3.0843 0.508891 0
M  V30 4370 H 418.582 3.42392 -1.9535 0
M  V30 4371 H 419.87 4.63226 -2.10474 0
M  V30 4372 H 419.268 5.57968 0.932081 0
M  V30 4373 H 417.825 6.48106 0.69299 0
M  V30 4374 N 421.258 1.00505 1.21394 0
M  V30 4375 C 422.506 0.686415 1.90086 0
M  V30 4376 C 422.827 -0.785264 1.7849 0
M  V30 4377 O 422.097 -1.56387 1.17983 0
M  V30 4378 H 420.677 0.2509 0.703604 0
M  V30 4379 H 423.339 1.27417 1.47482 0
M  V30 4380 H 422.435 0.959621 2.96981 0
M  V30 4381 N 422.737 -1.36956 0.779787 0
M  V30 4382 C 423.977 -2.01328 0.353043 0
M  V30 4383 C 424.341 -1.60558 -1.05286 0
M  V30 4384 O 425.542 -2.1745 -1.58016 0
M  V30 4385 C 423.813 -3.53874 0.500822 0
M  V30 4386 S 425.372 -4.38506 0.16053 0
M  V30 4387 H 422.19 -0.69799 0.13539 0
M  V30 4388 H 424.792 -1.67016 1.01617 0
M  V30 4389 H 423.496 -3.81034 1.52451 0
M  V30 4390 H 423.027 -3.92994 -0.178574 0
M  V30 4391 H 425.042 -4.85153 -1.04121 0
M  V30 4392 N 424.215 -0.530993 -1.48385 0
M  V30 4393 C 425.462 0.0027373 -2.025 0
M  V30 4394 C 425.79 1.34186 -1.40799 0
M  V30 4395 O 425.045 1.88 -0.543544 0
M  V30 4396 C 425.344 0.172742 -3.56982 0
M  V30 4397 C 425.01 -1.09215 -4.37473 0
M  V30 4398 C 423.672 -1.43881 -4.59186 0
M  V30 4399 C 426.024 -1.93153 -4.84088 0
M  V30 4400 C 423.352 -2.62381 -5.2476 0
M  V30 4401 C 425.704 -3.10833 -5.50968 0
M  V30 4402 C 424.368 -3.45843 -5.70919 0
M  V30 4403 H 423.638 0.00100165 -0.740999 0
M  V30 4404 H 426.285 -0.697219 -1.78357 0
M  V30 4405 H 424.59 0.955473 -3.79971 0
M  V30 4406 H 426.287 0.600642 -3.96476 0
M  V30 4407 H 422.877 -0.812177 -4.20834 0
M  V30 4408 H 427.061 -1.67683 -4.67115 0
M  V30 4409 H 422.317 -2.89707 -5.38405 0
M  V30 4410 H 426.491 -3.7618 -5.86056 0
M  V30 4411 H 424.118 -4.37764 -6.21503 0
M  V30 4412 N 425.693 1.55336 -0.266172 0
M  V30 4413 C 426.941 1.99003 0.35246 0
M  V30 4414 C 427.262 1.15591 1.57047 0
M  V30 4415 O 426.532 0.243268 1.94384 0
M  V30 4416 H 425.112 0.735025 0.133217 0
M  V30 4417 H 427.774 1.91367 -0.369434 0
M  V30 4418 H 426.87 3.05289 0.648453 0
M  V30 4419 N 427.171 -0.0066808 1.57599 0
M  V30 4420 C 428.081 -1.01671 2.11424 0
M  V30 4421 C 429.097 -1.38143 1.05795 0
M  V30 4422 O 430.273 -1.47011 1.37658 0
M  V30 4423 C 427.338 -2.29192 2.60139 0
M  V30 4424 C 426.399 -1.99094 3.80342 0
M  V30 4425 C 425.632 -3.20535 4.26724 0
M  V30 4426 O 425.855 -4.3199 3.72479 0
M  V30 4427 O 424.789 -3.04924 5.18946 0
M  V30 4428 H 428.615 -0.589181 2.9793 0
M  V30 4429 H 426.2 -0.225091 1.47695 0
M  V30 4430 H 428.082 -3.0412 2.917 0
M  V30 4431 H 426.757 -2.71195 1.76733 0
M  V30 4432 H 425.664 -1.21663 3.53764 0
M  V30 4433 H 426.997 -1.61931 4.648 0
M  V30 4434 N 428.649 -1.55105 -0.279332 0
M  V30 4435 C 429.895 -1.75672 -1.01327 0
M  V30 4436 C 430.228 -0.552739 -1.86168 0
M  V30 4437 O 429.503 0.449827 -1.89227 0
M  V30 4438 C 429.786 -3.05825 -1.90114 0
M  V30 4439 C 429.639 -4.36565 -1.08309 0
M  V30 4440 C 430.958 -3.31975 -2.8893 0
M  V30 4441 H 428.077 -0.639149 -0.366957 0
M  V30 4442 H 430.719 -1.87833 -0.286154 0
M  V30 4443 H 428.869 -2.95588 -2.52111 0
M  V30 4444 H 430.541 -4.58751 -0.484314 0
M  V30 4445 H 428.784 -4.32076 -0.386362 0
M  V30 4446 H 429.455 -5.23946 -1.73737 0
M  V30 4447 H 431.931 -3.41963 -2.37067 0
M  V30 4448 H 430.807 -4.2432 -3.48201 0
M  V30 4449 H 431.068 -2.51309 -3.63725 0
M  V30 4450 N 430.127 0.543554 -1.4793 0
M  V30 4451 C 431.373 1.29961 -1.56466 0
M  V30 4452 C 431.728 1.91024 -0.229696 0
M  V30 4453 O 431.021 1.75619 0.766072 0
M  V30 4454 C 431.215 2.42078 -2.62932 0
M  V30 4455 C 431.044 1.92003 -4.06651 0
M  V30 4456 C 429.814 1.75223 -4.73946 0
M  V30 4457 C 432.012 1.45648 -4.93245 0
M  V30 4458 N 429.994 1.19632 -6.02131 0
M  V30 4459 C 431.365 1.01914 -6.11566 0
M  V30 4460 C 433.42 1.33826 -4.79578 0
M  V30 4461 C 432.123 0.475301 -7.17728 0
M  V30 4462 C 434.149 0.808427 -5.85848 0
M  V30 4463 C 433.511 0.381081 -7.03368 0
M  V30 4464 H 429.61 0.467086 -0.62718 0
M  V30 4465 H 432.194 0.614543 -1.84747 0
M  V30 4466 H 430.365 3.08098 -2.36496 0
M  V30 4467 H 432.097 3.09096 -2.61231 0
M  V30 4468 H 428.852 1.98345 -4.30065 0
M  V30 4469 H 429.276 0.93885 -6.70458 0
M  V30 4470 H 433.918 1.65474 -3.89074 0
M  V30 4471 H 431.636 0.146472 -8.07967 0
M  V30 4472 H 435.222 0.720315 -5.77324 0
M  V30 4473 H 434.102 -0.0225344 -7.84197 0
M  V30 4474 N 431.605 1.3629 0.791371 0
M  V30 4475 C 432.538 1.24816 1.9104 0
M  V30 4476 C 433.516 0.132739 1.62057 0
M  V30 4477 O 434.7 0.303527 1.8604 0
M  V30 4478 C 431.827 0.925355 3.25814 0
M  V30 4479 C 430.873 2.05495 3.7373 0
M  V30 4480 S 431.706 3.67255 3.89723 0
M  V30 4481 C 432.862 3.37084 5.27376 0
M  V30 4482 H 433.095 2.19533 2.00481 0
M  V30 4483 H 430.628 1.21684 0.950393 0
M  V30 4484 H 432.586 0.745924 4.03666 0
M  V30 4485 H 431.247 -0.00400098 3.141 0
M  V30 4486 H 430.44 1.7836 4.71385 0
M  V30 4487 H 430.042 2.1935 3.02922 0
M  V30 4488 H 432.334 2.90856 6.1189 0
M  V30 4489 H 433.277 4.33995 5.59512 0
M  V30 4490 H 433.685 2.7248 4.94383 0
M  V30 4491 N 433.083 -1.0153 1.20538 0
M  V30 4492 C 434.331 -1.74803 1.01432 0
M  V30 4493 C 434.652 -1.8963 -0.454456 0
M  V30 4494 O 433.922 -1.43975 -1.32846 0
M  V30 4495 H 432.502 -0.647598 0.372324 0
M  V30 4496 H 435.164 -1.22402 1.5167 0
M  V30 4497 H 434.26 -2.75114 1.47373 0
M  V30 4498 N 434.561 -1.01147 -1.20859 0
M  V30 4499 C 435.789 -0.716911 -1.94082 0
M  V30 4500 C 436.204 0.721568 -1.74467 0
M  V30 4501 O 435.561 1.48889 -1.05539 0
M  V30 4502 C 435.612 -1.03662 -3.46318 0
M  V30 4503 O 435.333 -2.4186 -3.65288 0
M  V30 4504 C 436.834 -0.762386 -4.36695 0
M  V30 4505 H 434.054 -0.26367 -0.617024 0
M  V30 4506 H 436.598 -1.35127 -1.53496 0
M  V30 4507 H 434.753 -0.447757 -3.84804 0
M  V30 4508 H 435.167 -2.53224 -4.59323 0
M  V30 4509 H 436.641 -1.03621 -5.42187 0
M  V30 4510 H 437.118 0.303514 -4.3815 0
M  V30 4511 H 437.724 -1.33316 -4.03865 0
M  V30 4512 N 436.039 1.36541 -0.78704 0
M  V30 4513 C 437.285 2.00044 -0.367938 0
M  V30 4514 C 437.64 1.61345 1.04812 0
M  V30 4515 O 436.933 0.856936 1.71368 0
M  V30 4516 C 437.127 3.54343 -0.466485 0
M  V30 4517 C 436.956 4.08029 -1.89058 0
M  V30 4518 C 435.726 4.38284 -2.51466 0
M  V30 4519 C 437.924 4.27954 -2.85236 0
M  V30 4520 N 435.906 4.77778 -3.85488 0
M  V30 4521 C 437.277 4.70227 -4.04088 0
M  V30 4522 C 439.332 4.10119 -2.82324 0
M  V30 4523 C 438.035 4.96532 -5.20432 0
M  V30 4524 C 440.061 4.37569 -3.97854 0
M  V30 4525 C 439.423 4.80095 -5.15449 0
M  V30 4526 H 435.522 0.760525 -0.182004 0
M  V30 4527 H 438.106 1.65589 -1.02413 0
M  V30 4528 H 436.277 3.88072 0.159606 0
M  V30 4529 H 438.009 4.04693 -0.0238577 0
M  V30 4530 H 434.764 4.27905 -2.02965 0
M  V30 4531 H 435.188 5.01813 -4.54437 0
M  V30 4532 H 439.83 3.76399 -1.92571 0
M  V30 4533 H 437.548 5.29134 -6.10773 0
M  V30 4534 H 441.134 4.25341 -3.96958 0
M  V30 4535 H 440.014 5.00925 -6.0336 0
M  V30 4536 N 437.518 0.538854 1.48102 0
M  V30 4537 C 438.466 -0.232325 2.31437 0
M  V30 4538 C 439.46 -0.927004 1.41785 0
M  V30 4539 O 440.666 -0.850378 1.58646 0
M  V30 4540 H 437.041 -0.0937916 0.746128 0
M  V30 4541 H 439.012 0.489986 2.9435 0
M  V30 4542 C 437.761 -1.26074 3.24038 0
M  V30 4543 H 437.084 -0.735609 3.92974 0
M  V30 4544 H 438.524 -1.77157 3.85216 0
M  V30 4545 C 436.983 -2.29902 2.46265 0
M  V30 4546 O 437.513 -3.36502 2.19384 0
M  V30 4547 N 435.719 -2.03348 2.07601 0
M  V30 4548 H 435.266 -1.16675 2.29662 0
M  V30 4549 H 435.224 -2.73038 1.55877 0
M  V30 4550 N 438.996 -1.55193 0.274407 0
M  V30 4551 C 440.244 -1.99187 -0.341902 0
M  V30 4552 C 440.565 -1.16422 -1.56431 0
M  V30 4553 O 439.835 -0.253573 -1.94252 0
M  V30 4554 H 438.415 -0.735721 -0.129317 0
M  V30 4555 H 441.077 -1.91168 0.379578 0
M  V30 4556 H 440.173 -3.05629 -0.632253 0
M  V30 4557 N 440.474 -0.00167713 -1.576 0
M  V30 4558 C 441.702 0.693759 -1.94922 0
M  V30 4559 C 442.117 1.67215 -0.876626 0
M  V30 4560 O 441.474 1.81929 0.144279 0
M  V30 4561 C 441.525 1.42416 -3.32265 0
M  V30 4562 O 441.246 0.485014 -4.35407 0
M  V30 4563 C 442.747 2.21395 -3.84056 0
M  V30 4564 H 439.967 0.193118 -0.642609 0
M  V30 4565 H 442.511 -0.0532952 -2.04431 0
M  V30 4566 H 440.666 2.12284 -3.24059 0
M  V30 4567 H 441.08 1.00053 -5.14868 0
M  V30 4568 H 442.554 2.67996 -4.82578 0
M  V30 4569 H 443.031 3.04142 -3.16851 0
M  V30 4570 H 443.637 1.56542 -3.95443 0
M  V30 4571 N 441.952 1.55251 0.271103 0
M  V30 4572 C 443.18 1.79974 1.02064 0
M  V30 4573 C 443.595 0.574003 1.79863 0
M  V30 4574 O 442.952 -0.456962 1.76686 0
M  V30 4575 C 443.003 3.02603 1.97772 0
M  V30 4576 O 442.724 4.20443 1.23124 0
M  V30 4577 C 444.225 3.39944 2.84522 0
M  V30 4578 H 441.445 0.599489 0.301419 0
M  V30 4579 H 443.989 2.02268 0.301313 0
M  V30 4580 H 442.144 2.8243 2.65165 0
M  V30 4581 H 442.558 4.89783 1.87651 0
M  V30 4582 H 444.032 4.28915 3.47471 0
M  V30 4583 H 444.509 2.59432 3.54389 0
M  V30 4584 H 445.115 3.62383 2.22618 0
M  V30 4585 N 443.43 -0.535701 1.48216 0
M  V30 4586 C 444.377 -1.64083 1.62312 0
M  V30 4587 C 445.347 -1.59448 0.465365 0
M  V30 4588 O 446.532 -1.77959 0.688135 0
M  V30 4589 C 443.672 -3.0236 1.66349 0
M  V30 4590 C 442.785 -3.17273 2.93193 0
M  V30 4591 C 441.92 -4.46075 2.88427 0
M  V30 4592 C 440.959 -4.54496 4.1 0
M  V30 4593 N 440.096 -5.7468 4.03345 0
M  V30 4594 H 444.936 -1.51374 2.5669 0
M  V30 4595 H 442.473 -0.737059 1.27302 0
M  V30 4596 H 444.431 -3.82461 1.66672 0
M  V30 4597 H 443.061 -3.13854 0.754672 0
M  V30 4598 H 442.113 -2.30462 3.02641 0
M  V30 4599 H 443.425 -3.19357 3.83162 0
M  V30 4600 H 442.579 -5.3446 2.87119 0
M  V30 4601 H 441.318 -4.46504 1.96177 0
M  V30 4602 H 440.323 -3.64519 4.11589 0
M  V30 4603 H 441.548 -4.5581 5.03402 0
M  V30 4604 H 439.494 -5.76017 3.13912 0
M  V30 4605 H 439.411 -5.78234 4.87013 0
M  V30 4606 H 440.679 -6.65367 4.06087 0
M  V30 4607 N 444.908 -1.36708 -0.784132 0
M  V30 4608 C 446.154 -1.31426 -1.54451 0
M  V30 4609 C 446.487 0.10476 -1.93917 0
M  V30 4610 O 445.762 1.05934 -1.6312 0
M  V30 4611 C 446.045 -2.24189 -2.818 0
M  V30 4612 C 445.898 -3.74813 -2.48667 0
M  V30 4613 C 447.217 -2.15626 -3.83658 0
M  V30 4614 H 444.336 -0.478739 -0.560337 0
M  V30 4615 H 446.978 -1.67305 -0.900498 0
M  V30 4616 H 445.128 -1.93722 -3.36755 0
M  V30 4617 H 446.8 -4.15823 -1.99722 0
M  V30 4618 H 445.043 -3.93989 -1.81535 0
M  V30 4619 H 445.714 -4.35138 -3.39646 0
M  V30 4620 H 448.19 -2.42456 -3.38163 0
M  V30 4621 H 447.066 -2.82694 -4.70506 0
M  V30 4622 H 447.327 -1.14522 -4.27009 0
M  V30 4623 N 446.386 1.0089 -1.21074 0
M  V30 4624 C 447.349 2.0775 -0.968129 0
M  V30 4625 C 448.349 1.6069 0.0593445 0
M  V30 4626 O 449.539 1.73293 -0.177525 0
M  V30 4627 C 446.671 3.37794 -0.459108 0
M  V30 4628 H 447.864 2.30707 -1.9161 0
M  V30 4629 H 445.417 1.17807 -1.02719 0
M  V30 4630 H 446.152 3.20516 0.49397 0
M  V30 4631 H 445.937 3.7328 -1.20019 0
M  V30 4632 H 447.427 4.16454 -0.309099 0
M  V30 4633 N 447.864 1.01787 1.20321 0
M  V30 4634 C 449.113 0.703249 1.89043 0
M  V30 4635 C 449.426 -0.770445 1.79787 0
M  V30 4636 O 450.632 -1.19767 2.43656 0
M  V30 4637 C 449.088 1.20749 3.3904 0
M  V30 4638 C 448.696 2.70817 3.56878 0
M  V30 4639 C 450.44 0.968352 4.13308 0
M  V30 4640 C 448.347 3.14716 5.00708 0
M  V30 4641 H 447.277 0.259354 0.707991 0
M  V30 4642 H 449.928 1.23072 1.36108 0
M  V30 4643 H 448.31 0.607989 3.91305 0
M  V30 4644 H 449.484 3.36327 3.14993 0
M  V30 4645 H 447.799 2.92888 2.95983 0
M  V30 4646 H 450.396 1.27173 5.19356 0
M  V30 4647 H 450.739 -0.095149 4.16191 0
M  V30 4648 H 451.272 1.53129 3.67146 0
M  V30 4649 H 448.011 4.20347 5.02979 0
M  V30 4650 H 447.531 2.53927 5.43398 0
M  V30 4651 H 449.21 3.07426 5.69296 0
M  V30 4652 N 449.342 -1.36122 0.79427 0
M  V30 4653 C 450.289 -2.29982 0.194101 0
M  V30 4654 C 451.259 -1.52214 -0.664833 0
M  V30 4655 O 452.444 -1.80702 -0.612498 0
M  V30 4656 C 449.584 -3.38706 -0.661244 0
M  V30 4657 C 448.697 -4.31456 0.216766 0
M  V30 4658 C 447.832 -5.27265 -0.645411 0
M  V30 4659 C 446.871 -6.11653 0.233756 0
M  V30 4660 N 446.008 -6.99636 -0.587682 0
M  V30 4661 H 450.848 -2.80722 0.999965 0
M  V30 4662 H 448.385 -1.38172 0.504677 0
M  V30 4663 H 450.343 -4.00394 -1.17219 0
M  V30 4664 H 448.973 -2.89274 -1.43249 0
M  V30 4665 H 448.025 -3.7088 0.845724 0
M  V30 4666 H 449.337 -4.90724 0.893973 0
M  V30 4667 H 448.491 -5.94266 -1.22198 0
M  V30 4668 H 447.23 -4.68463 -1.35623 0
M  V30 4669 H 446.235 -5.4361 0.82269 0
M  V30 4670 H 447.46 -6.72531 0.942247 0
M  V30 4671 H 445.406 -6.43337 -1.2827 0
M  V30 4672 H 445.323 -7.55993 0.0317402 0
M  V30 4673 H 446.591 -7.71001 -1.14792 0
M  V30 4674 N 450.82 -0.546701 -1.47814 0
M  V30 4675 C 452.048 -0.0232857 -2.06887 0
M  V30 4676 C 452.463 1.26571 -1.4009 0
M  V30 4677 O 451.82 1.7569 -0.493906 0
M  V30 4678 C 451.871 0.186975 -3.61016 0
M  V30 4679 O 451.592 -1.05097 -4.25307 0
M  V30 4680 C 453.093 0.748872 -4.36929 0
M  V30 4681 H 450.313 -0.0410763 -0.669742 0
M  V30 4682 H 452.857 -0.757117 -1.89968 0
M  V30 4683 H 451.012 0.870903 -3.77484 0
M  V30 4684 H 451.426 -0.842121 -5.17695 0
M  V30 4685 H 452.9 0.845334 -5.45489 0
M  V30 4686 H 453.377 1.75772 -4.02493 0
M  V30 4687 H 453.983 0.100979 -4.2518 0
M  V30 4688 N 452.299 1.55045 -0.282633 0
M  V30 4689 C 453.229 2.2579 0.595066 0
M  V30 4690 C 454.21 1.25074 1.15284 0
M  V30 4691 O 455.395 1.5381 1.18559 0
M  V30 4692 C 452.525 2.98472 1.77572 0
M  V30 4693 C 451.479 4.0618 1.34914 0
M  V30 4694 C 450.805 4.66477 2.6135 0
M  V30 4695 C 452.105 5.1996 0.493821 0
M  V30 4696 H 453.799 2.994 0.00505653 0
M  V30 4697 H 451.345 1.44 0.000992001 0
M  V30 4698 H 453.298 3.46677 2.39568 0
M  V30 4699 H 452.022 2.2241 2.39168 0
M  V30 4700 H 450.681 3.58797 0.752338 0
M  V30 4701 H 450.329 3.87074 3.2122 0
M  V30 4702 H 450.029 5.39207 2.33516 0
M  V30 4703 H 451.553 5.17435 3.24181 0
M  V30 4704 H 452.967 5.64172 1.01898 0
M  V30 4705 H 451.364 5.99299 0.310047 0
M  V30 4706 H 452.434 4.82462 -0.485593 0
M  V30 4707 N 453.777 0.010035 1.57597 0
M  V30 4708 C 454.724 -0.978122 2.09049 0
M  V30 4709 C 455.694 -1.33509 0.988159 0
M  V30 4710 O 456.879 -1.43172 1.26121 0
M  V30 4711 C 454.019 -2.26158 2.60666 0
M  V30 4712 C 453.132 -1.96275 3.84838 0
M  V30 4713 C 452.267 -3.18776 4.24918 0
M  V30 4714 C 451.306 -2.84625 5.41899 0
M  V30 4715 N 450.443 -3.99693 5.77226 0
M  V30 4716 H 455.283 -0.532431 2.93205 0
M  V30 4717 H 452.82 -0.251234 1.44939 0
M  V30 4718 H 454.778 -3.01202 2.88675 0
M  V30 4719 H 453.408 -2.68378 1.79369 0
M  V30 4720 H 452.46 -1.11555 3.63675 0
M  V30 4721 H 453.772 -1.67111 4.69974 0
M  V30 4722 H 452.926 -4.02157 4.54262 0
M  V30 4723 H 451.665 -3.51087 3.38511 0
M  V30 4724 H 450.67 -1.99653 5.12268 0
M  V30 4725 H 451.895 -2.53551 6.29991 0
M  V30 4726 H 449.841 -4.31882 4.93776 0
M  V30 4727 H 449.758 -3.74087 6.56959 0
M  V30 4728 H 451.026 -4.83834 6.11167 0
M  V30 4729 N 455.255 -1.55392 -0.262866 0
M  V30 4730 C 456.666 -1.67079 -0.833158 0
M  V30 4731 C 457.017 -0.604539 -1.86654 0
M  V30 4732 O 456.142 0.252138 -2.14926 0
M  V30 4733 C 456.737 -3.02891 -1.51797 0
M  V30 4734 C 455.296 -3.16571 -2.03617 0
M  V30 4735 C 454.443 -2.62909 -0.881701 0
M  V30 4736 H 457.394 -1.58652 -0.0389986 0
M  V30 4737 H 457.415 -2.96445 -2.38538 0
M  V30 4738 H 456.927 -3.80473 -0.765619 0
M  V30 4739 H 455.028 -2.43782 -2.81782 0
M  V30 4740 H 455.141 -4.23271 -2.24452 0
M  V30 4741 H 453.505 -2.20324 -1.27786 0
M  V30 4742 H 454.288 -3.43003 -0.14269 0
M  V30 4743 N 456.733 0.527833 -1.48498 0
M  V30 4744 C 457.981 1.28101 -1.56316 0
M  V30 4745 C 458.302 1.9352 -0.239781 0
M  V30 4746 O 457.572 1.81433 0.738849 0
M  V30 4747 H 456.152 0.475793 -0.575873 0
M  V30 4748 H 458.814 0.614052 -1.84974 0
M  V30 4749 H 457.91 2.05916 -2.34532 0
M  V30 4750 N 458.211 1.37122 0.776871 0
M  V30 4751 C 459.439 1.3523 1.5659 0
M  V30 4752 C 459.854 -0.0635518 1.88693 0
M  V30 4753 O 459.211 -1.02394 1.51069 0
M  V30 4754 C 459.262 2.18583 2.8793 0
M  V30 4755 O 458.983 3.5465 2.57206 0
M  V30 4756 C 460.484 2.24612 3.82183 0
M  V30 4757 H 457.704 0.4634 0.485285 0
M  V30 4758 H 460.248 1.80392 0.963266 0
M  V30 4759 H 458.403 1.76943 3.4463 0
M  V30 4760 H 458.817 3.98286 3.41275 0
M  V30 4761 H 460.291 2.87267 4.71361 0
M  V30 4762 H 460.768 1.25309 4.20944 0
M  V30 4763 H 461.374 2.66543 3.31414 0
M  V30 4764 N 459.689 -1.00246 1.21608 0
M  V30 4765 C 460.622 -2.08794 0.920892 0
M  V30 4766 C 461.6 -1.62059 -0.132552 0
M  V30 4767 O 462.784 -1.885 -0.0030366 0
M  V30 4768 C 459.911 -3.36525 0.383226 0
M  V30 4769 C 458.957 -4.02172 1.41987 0
M  V30 4770 S 459.79 -4.44256 2.98994 0
M  V30 4771 C 460.946 -5.7517 2.4684 0
M  V30 4772 H 461.179 -2.33511 1.8401 0
M  V30 4773 H 458.712 -1.13562 1.04609 0
M  V30 4774 H 460.67 -4.10423 0.0795871 0
M  V30 4775 H 459.331 -3.09854 -0.514711 0
M  V30 4776 H 458.524 -4.94114 0.993335 0
M  V30 4777 H 458.126 -3.34559 1.67171 0
M  V30 4778 H 460.418 -6.51042 1.87484 0
M  V30 4779 H 461.361 -6.22638 3.37235 0
M  V30 4780 H 461.769 -5.32112 1.88461 0
M  V30 4781 N 461.167 -1.02423 -1.1978 0
M  V30 4782 C 462.1 -0.545641 -2.21581 0
M  V30 4783 C 463.078 0.411024 -1.57319 0
M  V30 4784 O 464.262 0.329223 -1.85603 0
M  V30 4785 C 461.389 0.204973 -3.38079 0
M  V30 4786 C 460.435 -0.70241 -4.20676 0
M  V30 4787 S 461.268 -2.17595 -4.89298 0
M  V30 4788 C 462.424 -1.43572 -6.09211 0
M  V30 4789 H 462.657 -1.4082 -2.61834 0
M  V30 4790 H 460.19 -0.833771 -1.29952 0
M  V30 4791 H 462.148 0.631924 -4.05607 0
M  V30 4792 H 460.809 1.0432 -2.9627 0
M  V30 4793 H 460.002 -0.123193 -5.03849 0
M  V30 4794 H 459.604 -1.06747 -3.58442 0
M  V30 4795 H 461.896 -0.719806 -6.73665 0
M  V30 4796 H 462.839 -2.24388 -6.71607 0
M  V30 4797 H 463.247 -0.935252 -5.56699 0
M  V30 4798 N 462.645 1.35699 -0.801477 0
M  V30 4799 C 464.056 1.81415 -0.441073 0
M  V30 4800 C 464.407 1.66595 1.03636 0
M  V30 4801 O 463.532 1.19369 1.80499 0
M  V30 4802 C 464.127 3.29369 -0.793819 0
M  V30 4803 C 462.686 3.73248 -0.486083 0
M  V30 4804 C 461.833 2.57775 -1.02213 0
M  V30 4805 H 464.784 1.23749 -0.993572 0
M  V30 4806 H 464.805 3.80395 -0.0894158 0
M  V30 4807 H 464.317 3.40123 -1.86917 0
M  V30 4808 H 462.418 3.68046 0.580735 0
M  V30 4809 H 462.531 4.68222 -1.01513 0
M  V30 4810 H 460.895 2.50788 -0.444712 0
M  V30 4811 H 461.678 2.71309 -2.10348 0
M  V30 4812 N 464.123 0.554532 1.47522 0
M  V30 4813 C 465.033 -0.197865 2.33764 0
M  V30 4814 C 466.049 -0.914576 1.48025 0
M  V30 4815 O 467.225 -0.884067 1.80959 0
M  V30 4816 C 464.29 -1.21628 3.24665 0
M  V30 4817 C 463.351 -0.507283 4.26292 0
M  V30 4818 C 462.584 -1.47718 5.1285 0
M  V30 4819 O 462.807 -2.7118 5.01814 0
M  V30 4820 O 461.741 -1.00313 5.93482 0
M  V30 4821 H 465.567 0.50949 2.99396 0
M  V30 4822 H 463.152 0.315176 1.46038 0
M  V30 4823 H 465.034 -1.80421 3.80823 0
M  V30 4824 H 463.709 -1.9056 2.61665 0
M  V30 4825 H 462.616 0.121778 3.73902 0
M  V30 4826 H 463.949 0.140544 4.91999 0
M  V30 4827 N 465.601 -1.54893 0.290851 0
M  V30 4828 C 466.564 -2.21824 -0.576784 0
M  V30 4829 C 467.564 -1.20104 -1.06919 0
M  V30 4830 O 468.754 -1.44906 -0.966843 0
M  V30 4831 C 465.886 -2.89662 -1.79747 0
M  V30 4832 H 467.079 -2.99899 0.00784051 0
M  V30 4833 H 464.632 -1.56245 0.0415934 0
M  V30 4834 H 465.367 -2.15639 -2.42219 0
M  V30 4835 H 465.152 -3.64219 -1.45214 0
M  V30 4836 H 466.642 -3.4075 -2.4141 0
M  V30 4837 N 467.08 -0.0183926 -1.57589 0
M  V30 4838 C 468.327 0.662562 -1.91354 0
M  V30 4839 C 468.655 1.72747 -0.893788 0
M  V30 4840 O 467.91 1.9545 0.0988509 0
M  V30 4841 C 468.209 1.32676 -3.31861 0
M  V30 4842 C 467.875 0.393267 -4.49182 0
M  V30 4843 C 466.537 0.136302 -4.81007 0
M  V30 4844 C 468.889 -0.248366 -5.20608 0
M  V30 4845 C 466.217 -0.770282 -5.81621 0
M  V30 4846 C 468.569 -1.14294 -6.22189 0
M  V30 4847 C 467.233 -1.4089 -6.52462 0
M  V30 4848 H 466.503 0.242448 -0.700214 0
M  V30 4849 H 469.15 -0.0778629 -1.91342 0
M  V30 4850 H 467.455 2.14168 -3.28084 0
M  V30 4851 H 469.152 1.86001 -3.55253 0
M  V30 4852 H 465.742 0.603723 -4.24327 0
M  V30 4853 H 469.926 -0.062883 -4.9626 0
M  V30 4854 H 465.182 -0.984154 -6.03427 0
M  V30 4855 H 469.356 -1.64637 -6.76659 0
M  V30 4856 H 466.983 -2.11306 -7.30242 0
M  V30 4857 N 468.558 1.5553 0.254621 0
M  V30 4858 C 469.488 1.9268 1.31897 0
M  V30 4859 C 470.469 0.790797 1.506 0
M  V30 4860 O 471.654 1.05045 1.63337 0
M  V30 4861 C 468.784 2.21477 2.67517 0
M  V30 4862 C 467.738 3.37256 2.63519 0
M  V30 4863 C 467.064 3.51576 4.02862 0
M  V30 4864 C 468.364 4.73157 2.21179 0
M  V30 4865 H 470.058 2.81832 1.01051 0
M  V30 4866 H 467.604 1.35599 0.484662 0
M  V30 4867 H 469.557 2.46055 3.42104 0
M  V30 4868 H 468.281 1.29144 2.99982 0
M  V30 4869 H 466.94 3.12675 1.9139 0
M  V30 4870 H 466.588 2.56676 4.32581 0
M  V30 4871 H 466.288 4.2943 4.01078 0
M  V30 4872 H 467.812 3.78467 4.79161 0
M  V30 4873 H 469.226 4.97158 2.85494 0
M  V30 4874 H 467.623 5.54058 2.30521 0
M  V30 4875 H 468.693 4.70739 1.16332 0
M  V30 4876 N 470.036 -0.519951 1.48776 0
M  V30 4877 C 470.968 -1.63973 1.60142 0
M  V30 4878 C 471.981 -1.55404 0.485117 0
M  V30 4879 O 473.17 -1.61682 0.756391 0
M  V30 4880 C 470.27 -3.02676 1.52449 0
M  V30 4881 C 469.443 -3.36624 2.79291 0
M  V30 4882 C 468.502 -4.54652 2.64912 0
M  V30 4883 O 467.528 -4.57374 3.38818 0
M  V30 4884 N 468.73 -5.53432 1.75195 0
M  V30 4885 H 471.495 -1.54656 2.56713 0
M  V30 4886 H 469.056 -0.707439 1.45626 0
M  V30 4887 H 471.048 -3.79525 1.4051 0
M  V30 4888 H 469.618 -3.06018 0.638125 0
M  V30 4889 H 468.838 -2.48855 3.0572 0
M  V30 4890 H 470.126 -3.56094 3.6342 0
M  V30 4891 H 469.524 -5.54018 1.14371 0
M  V30 4892 H 468.081 -6.29459 1.69189 0
M  V30 4893 N 471.514 -1.37532 -0.769588 0
M  V30 4894 C 472.424 -1.35668 -1.91393 0
M  V30 4895 C 473.44 -0.255954 -1.72107 0
M  V30 4896 O 474.616 -0.491704 -1.95305 0
M  V30 4897 C 471.681 -1.16481 -3.26547 0
M  V30 4898 C 470.742 -2.36212 -3.58472 0
M  V30 4899 C 469.975 -2.17932 -4.87177 0
M  V30 4900 O 470.198 -1.1647 -5.58382 0
M  V30 4901 O 469.132 -3.06167 -5.18214 0
M  V30 4902 H 472.958 -2.32055 -1.95918 0
M  V30 4903 H 470.543 -1.18284 -0.912641 0
M  V30 4904 H 472.425 -1.07778 -4.07384 0
M  V30 4905 H 471.1 -0.231687 -3.2287 0
M  V30 4906 H 470.007 -2.50488 -2.77861 0
M  V30 4907 H 471.34 -3.281 -3.66894 0
M  V30 4908 N 472.992 0.995999 -1.22138 0
M  V30 4909 C 473.955 2.06711 -0.990109 0
M  V30 4910 C 474.955 1.60744 0.0422978 0
M  V30 4911 O 476.145 1.73095 -0.195895 0
M  V30 4912 C 473.277 3.37288 -0.49491 0
M  V30 4913 H 474.47 2.28661 -1.94047 0
M  V30 4914 H 472.023 1.16711 -1.03963 0
M  V30 4915 H 472.758 3.21022 0.459948 0
M  V30 4916 H 472.543 3.71986 -1.23971 0
M  V30 4917 H 474.033 4.16103 -0.353253 0
M  V30 4918 N 474.47 1.03057 1.19235 0
M  V30 4919 C 475.402 0.570932 2.21975 0
M  V30 4920 C 476.415 -0.354088 1.58903 0
M  V30 4921 O 477.604 -0.150211 1.77867 0
M  V30 4922 C 474.704 -0.187152 3.38383 0
M  V30 4923 C 473.877 0.743231 4.31039 0
M  V30 4924 C 472.936 0.0302493 5.26191 0
M  V30 4925 O 471.962 0.657371 5.65391 0
M  V30 4926 N 473.164 -1.23991 5.67104 0
M  V30 4927 H 475.929 1.45456 2.62036 0
M  V30 4928 H 473.49 0.909807 1.33918 0
M  V30 4929 H 475.482 -0.673715 3.99053 0
M  V30 4930 H 474.052 -0.972205 2.97098 0
M  V30 4931 H 473.272 1.40985 3.68126 0
M  V30 4932 H 474.56 1.3755 4.89854 0
M  V30 4933 H 473.958 -1.77011 5.37293 0
M  V30 4934 H 472.515 -1.67093 6.30018 0
M  V30 4935 N 475.948 -1.35272 0.808662 0
M  V30 4936 C 477.197 -1.97963 0.386483 0
M  V30 4937 C 477.51 -1.64866 -1.05255 0
M  V30 4938 O 478.716 -2.20937 -1.57794 0
M  V30 4939 C 477.172 -3.54162 0.640096 0
M  V30 4940 C 476.78 -3.96166 2.0918 0
M  V30 4941 C 478.524 -4.23553 0.283376 0
M  V30 4942 C 476.431 -5.4522 2.29106 0
M  V30 4943 H 475.361 -0.740742 0.140774 0
M  V30 4944 H 478.012 -1.5431 0.993012 0
M  V30 4945 H 476.394 -3.95983 -0.0364117 0
M  V30 4946 H 477.568 -3.65491 2.80629 0
M  V30 4947 H 475.883 -3.3967 2.40859 0
M  V30 4948 H 478.48 -5.33124 0.410273 0
M  V30 4949 H 478.823 -4.09105 -0.770659 0
M  V30 4950 H 479.356 -3.8716 0.913884 0
M  V30 4951 H 476.095 -5.64638 3.32962 0
M  V30 4952 H 475.615 -5.77457 1.62184 0
M  V30 4953 H 477.294 -6.1171 2.1076 0
M  V30 4954 N 477.426 -0.562348 -1.47226 0
M  V30 4955 C 478.359 0.230405 -2.27034 0
M  V30 4956 C 479.337 0.915609 -1.3437 0
M  V30 4957 O 480.521 0.933573 -1.63758 0
M  V30 4958 C 477.648 1.32874 -3.11548 0
M  V30 4959 C 476.694 0.751552 -4.19826 0
M  V30 4960 S 477.527 -0.405848 -5.3396 0
M  V30 4961 C 478.683 0.694186 -6.22038 0
M  V30 4962 H 478.916 -0.446811 -2.93923 0
M  V30 4963 H 476.449 -0.348781 -1.50409 0
M  V30 4964 H 478.407 1.95773 -3.60809 0
M  V30 4965 H 477.068 1.97782 -2.44011 0
M  V30 4966 H 476.261 1.57651 -4.78709 0
M  V30 4967 H 475.863 0.198645 -3.73472 0
M  V30 4968 H 478.155 1.58501 -6.58698 0
M  V30 4969 H 479.098 0.142592 -7.07956 0
M  V30 4970 H 479.506 0.989169 -5.55766 0
M  V30 4971 N 478.904 1.54736 -0.299062 0
M  V30 4972 C 479.851 2.23448 0.577899 0
M  V30 4973 C 480.821 1.21637 1.13109 0
M  V30 4974 O 482.006 1.50252 1.17597 0
M  V30 4975 C 479.146 2.9774 1.74484 0
M  V30 4976 C 478.259 4.1432 1.22323 0
M  V30 4977 C 477.394 4.76199 2.35388 0
M  V30 4978 C 476.433 5.84927 1.80351 0
M  V30 4979 N 475.57 6.4077 2.86982 0
M  V30 4980 H 480.41 2.97996 -0.0146545 0
M  V30 4981 H 477.947 1.47088 -0.0190013 0
M  V30 4982 H 479.905 3.39045 2.43114 0
M  V30 4983 H 478.535 2.25572 2.30905 0
M  V30 4984 H 477.587 3.7797 0.429249 0
M  V30 4985 H 478.899 4.92659 0.780309 0
M  V30 4986 H 478.053 5.20346 3.11969 0
M  V30 4987 H 476.792 3.97188 2.83006 0
M  V30 4988 H 475.797 5.40207 1.02259 0
M  V30 4989 H 477.022 6.65821 1.3364 0
M  V30 4990 H 474.968 5.64643 3.33938 0
M  V30 4991 H 474.885 7.1445 2.4718 0
M  V30 4992 H 476.153 6.89574 3.63466 0
M  V30 4993 N 480.382 0.0267497 1.57577 0
M  V30 4994 C 481.329 -0.955894 2.10075 0
M  V30 4995 C 482.299 -1.32453 1.00226 0
M  V30 4996 O 483.484 -1.41826 1.27632 0
M  V30 4997 C 480.624 -2.2338 2.6305 0
M  V30 4998 C 479.737 -1.92183 3.86898 0
M  V30 4999 C 478.872 -3.14251 4.28275 0
M  V30 5000 C 477.911 -2.78862 5.44888 0
M  V30 5001 N 477.048 -3.93548 5.81433 0
M  V30 5002 H 481.888 -0.501303 2.93753 0
M  V30 5003 H 479.425 -0.235847 1.45197 0
M  V30 5004 H 481.383 -2.98124 2.91853 0
M  V30 5005 H 480.013 -2.6646 1.82205 0
M  V30 5006 H 479.065 -1.07692 3.64838 0
M  V30 5007 H 480.377 -1.62117 4.7172 0
M  V30 5008 H 479.531 -3.97317 4.58502 0
M  V30 5009 H 478.27 -3.47476 3.42215 0
M  V30 5010 H 477.275 -1.94208 5.14357 0
M  V30 5011 H 478.5 -2.46855 6.32645 0
M  V30 5012 H 476.446 -4.2662 4.98328 0
M  V30 5013 H 476.363 -3.67098 6.6089 0
M  V30 5014 H 477.631 -4.77325 6.16264 0
M  V30 5015 N 481.861 -1.55662 -0.24637 0
M  V30 5016 C 482.791 -1.93377 -1.30873 0
M  V30 5017 C 483.772 -0.798773 -1.50179 0
M  V30 5018 O 484.957 -1.0591 -1.62778 0
M  V30 5019 C 482.087 -2.22893 -2.66338 0
M  V30 5020 C 481.041 -3.38649 -2.61727 0
M  V30 5021 C 480.367 -3.53708 -4.00992 0
M  V30 5022 C 481.667 -4.74323 -2.18666 0
M  V30 5023 H 483.361 -2.82363 -0.995552 0
M  V30 5024 H 480.907 -1.35854 -0.477464 0
M  V30 5025 H 482.86 -2.47866 -3.40794 0
M  V30 5026 H 481.584 -1.30733 -2.99293 0
M  V30 5027 H 480.243 -3.13685 -1.89729 0
M  V30 5028 H 479.891 -2.58967 -4.31214 0
M  V30 5029 H 479.591 -4.31551 -3.98795 0
M  V30 5030 H 481.115 -3.81003 -4.77147 0
M  V30 5031 H 482.529 -4.98665 -2.82854 0
M  V30 5032 H 480.926 -5.55273 -2.27579 0
M  V30 5033 H 481.996 -4.71349 -1.13834 0
M  V30 5034 N 483.339 0.512053 -1.4905 0
M  V30 5035 C 484.755 0.84224 -1.35567 0
M  V30 5036 C 484.955 1.97878 -0.380319 0
M  V30 5037 O 484.011 2.51769 0.19201 0
M  V30 5038 C 485.324 1.19286 -2.76028 0
M  V30 5039 C 486.872 1.30171 -2.84648 0
M  V30 5040 C 487.347 1.68568 -4.25851 0
M  V30 5041 N 488.838 1.75638 -4.28609 0
M  V30 5042 C 489.573 2.06769 -5.34821 0
M  V30 5043 N 489.069 2.36201 -6.51292 0
M  V30 5044 N 490.862 2.07927 -5.22229 0
M  V30 5045 H 483.013 -0.237574 -2.11067 0
M  V30 5046 H 485.276 -0.0436747 -0.946993 0
M  V30 5047 H 484.982 0.431199 -3.49047 0
M  V30 5048 H 484.856 2.13889 -3.10695 0
M  V30 5049 H 487.243 2.05411 -2.11873 0
M  V30 5050 H 487.324 0.336457 -2.53578 0
M  V30 5051 H 486.968 0.938824 -4.99148 0
M  V30 5052 H 486.898 2.66174 -4.54377 0
M  V30 5053 H 489.389 1.55097 -3.44606 0
M  V30 5054 H 489.702 2.59112 -7.28066 0
M  V30 5055 H 488.047 2.33681 -6.54536 0
M  V30 5056 H 491.238 1.84403 -4.30248 0
M  V30 5057 H 491.411 2.31856 -6.05101 0
M  V30 5058 N 484.817 1.37938 0.762283 0
M  V30 5059 C 485.767 1.30976 1.86626 0
M  V30 5060 C 486.751 0.195714 1.59705 0
M  V30 5061 O 487.943 0.430937 1.71674 0
M  V30 5062 C 485.072 1.12847 3.24223 0
M  V30 5063 C 484.158 2.28836 3.57064 0
M  V30 5064 N 484.549 3.54256 3.61022 0
M  V30 5065 C 482.847 2.21198 3.87282 0
M  V30 5066 C 483.548 4.30798 3.90881 0
M  V30 5067 N 482.524 3.60049 4.07266 0
M  V30 5068 H 486.326 2.25946 1.87951 0
M  V30 5069 H 483.84 1.31046 0.959206 0
M  V30 5070 H 485.837 1.05943 4.03214 0
M  V30 5071 H 484.497 0.188024 3.24155 0
M  V30 5072 H 485.508 3.8804 3.42995 0
M  V30 5073 H 482.185 1.35264 3.94981 0
M  V30 5074 H 483.575 5.39386 4.00639 0
M  V30 5075 N 486.295 -0.989507 1.22664 0
M  V30 5076 C 487.572 -1.70326 0.961688 0
M  V30 5077 C 487.952 -2.04537 -0.522279 0
M  V30 5078 O 487.3 -1.73136 -1.49118 0
M  V30 5079 C 487.51 -2.95135 1.86269 0
M  V30 5080 C 488.858 -3.67842 2.12078 0
M  V30 5081 O 489.882 -3.0515 1.83745 0
M  V30 5082 O 488.741 -4.80644 2.60083 0
M  V30 5083 H 485.835 -0.743589 0.361946 0
M  V30 5084 H 488.381 -1.04555 1.33665 0
M  V30 5085 H 487.153 -2.66382 2.8663 0
M  V30 5086 H 486.776 -3.68645 1.48952 0
M  V30 5087 N 487.773 -1.03688 -1.18687 0
M  V30 5088 C 488.72 -0.624624 -2.22187 0
M  V30 5089 C 489.69 0.365636 -1.62026 0
M  V30 5090 O 490.875 0.260481 -1.89014 0
M  V30 5091 C 488.015 0.0101738 -3.45099 0
M  V30 5092 C 487.128 -1.02709 -4.19613 0
M  V30 5093 C 486.263 -0.361213 -5.2997 0
M  V30 5094 C 485.302 -1.38384 -5.96252 0
M  V30 5095 N 484.439 -0.743196 -6.98155 0
M  V30 5096 H 489.279 -1.51176 -2.56807 0
M  V30 5097 H 486.816 -0.75636 -1.26165 0
M  V30 5098 H 488.774 0.395528 -4.15321 0
M  V30 5099 H 487.404 0.860848 -3.1111 0
M  V30 5100 H 486.456 -1.53043 -3.48256 0
M  V30 5101 H 487.768 -1.80398 -4.65036 0
M  V30 5102 H 486.922 0.0785537 -6.06649 0
M  V30 5103 H 485.661 0.447799 -4.8564 0
M  V30 5104 H 484.666 -1.83378 -5.18317 0
M  V30 5105 H 485.891 -2.19448 -6.42666 0
M  V30 5106 H 483.837 0.0455789 -6.55984 0
M  V30 5107 H 483.754 -1.45784 -7.41811 0
M  V30 5108 H 485.022 -0.327698 -7.78811 0
M  V30 5109 N 489.251 1.34841 -0.815825 0
M  V30 5110 C 490.181 2.32187 -0.247298 0
M  V30 5111 C 491.162 1.5791 0.632344 0
M  V30 5112 O 492.347 1.8593 0.560698 0
M  V30 5113 C 489.477 3.42122 0.597466 0
M  V30 5114 C 488.431 4.27602 -0.184446 0
M  V30 5115 C 487.757 5.28942 0.782609 0
M  V30 5116 C 489.057 5.03502 -1.38865 0
M  V30 5117 H 490.751 2.79985 -1.06061 0
M  V30 5118 H 488.297 1.34611 -0.511461 0
M  V30 5119 H 490.25 4.09232 1.00533 0
M  V30 5120 H 488.974 2.92956 1.44376 0
M  V30 5121 H 487.633 3.62085 -0.573592 0
M  V30 5122 H 487.281 4.7604 1.62466 0
M  V30 5123 H 486.981 5.87008 0.263695 0
M  V30 5124 H 488.505 5.98922 1.18848 0
M  V30 5125 H 489.919 5.63506 -1.05518 0
M  V30 5126 H 488.316 5.71108 -1.8427 0
M  V30 5127 H 489.386 4.33608 -2.17054 0
M  V30 5128 N 490.729 0.570148 1.46925 0
M  V30 5129 C 491.975 0.0510284 2.02736 0
M  V30 5130 C 492.308 -1.3006 1.44215 0
M  V30 5131 O 491.583 -1.84932 0.602521 0
M  V30 5132 C 491.866 -0.028215 3.60089 0
M  V30 5133 C 491.719 1.35142 4.29018 0
M  V30 5134 C 493.038 -0.735181 4.33916 0
M  V30 5135 H 490.157 0.0200178 0.736728 0
M  V30 5136 H 492.799 0.73493 1.75211 0
M  V30 5137 H 490.949 -0.610648 3.83671 0
M  V30 5138 H 492.621 1.97806 4.16738 0
M  V30 5139 H 490.864 1.9226 3.88868 0
M  V30 5140 H 491.535 1.24857 5.37694 0
M  V30 5141 H 494.011 -0.240519 4.15404 0
M  V30 5142 H 492.887 -0.759622 5.43618 0
M  V30 5143 H 493.148 -1.79397 4.04066 0
M  V30 5144 N 492.207 -1.54576 0.307264 0
M  V30 5145 C 493.618 -1.8579 -0.184121 0
M  V30 5146 C 493.969 -1.22914 -1.52927 0
M  V30 5147 O 493.094 -0.529126 -2.09831 0
M  V30 5148 C 493.689 -3.37081 -0.340862 0
M  V30 5149 C 492.248 -3.68304 -0.776465 0
M  V30 5150 C 491.395 -2.77076 0.111503 0
M  V30 5151 H 494.346 -1.49656 0.528078 0
M  V30 5152 H 494.367 -3.61922 -1.17443 0
M  V30 5153 H 493.879 -3.82815 0.638309 0
M  V30 5154 H 491.98 -3.28092 -1.76596 0
M  V30 5155 H 492.093 -4.75434 -0.591512 0
M  V30 5156 H 490.457 -2.51374 -0.410256 0
M  V30 5157 H 491.24 -3.25632 1.08714 0
M  V30 5158 N 493.685 -0.035106 -1.57561 0
M  V30 5159 C 494.615 0.942993 -2.13612 0
M  V30 5160 C 495.596 1.33531 -1.05373 0
M  V30 5161 O 496.781 1.41287 -1.33235 0
M  V30 5162 C 493.911 2.22332 -2.66807 0
M  V30 5163 C 492.865 1.97156 -3.79886 0
M  V30 5164 C 492.191 3.31506 -4.19533 0
M  V30 5165 C 493.491 1.30596 -5.05709 0
M  V30 5166 H 495.185 0.476179 -2.95589 0
M  V30 5167 H 492.731 0.227602 -1.4219 0
M  V30 5168 H 494.684 2.91142 -3.04654 0
M  V30 5169 H 493.408 2.7119 -1.81999 0
M  V30 5170 H 492.067 1.30763 -3.42486 0
M  V30 5171 H 491.715 3.78134 -3.31698 0
M  V30 5172 H 491.415 3.15465 -4.95738 0
M  V30 5173 H 492.939 4.01574 -4.59968 0
M  V30 5174 H 494.353 1.89416 -5.41105 0
M  V30 5175 H 492.75 1.24934 -5.86951 0
M  V30 5176 H 493.82 0.279742 -4.84092 0
M  V30 5177 N 495.163 1.55791 0.238111 0
M  V30 5178 C 496.393 1.81834 0.980809 0
M  V30 5179 C 496.801 0.609741 1.79106 0
M  V30 5180 O 496.144 -0.431073 1.78571 0
M  V30 5181 C 496.206 3.01363 1.96011 0
M  V30 5182 C 495.87 4.37037 1.33597 0
M  V30 5183 C 496.867 5.14692 0.734063 0
M  V30 5184 C 494.552 4.83743 1.3527 0
M  V30 5185 C 496.546 6.37206 0.157208 0
M  V30 5186 C 494.233 6.06204 0.77199 0
M  V30 5187 C 495.231 6.82775 0.175282 0
M  V30 5188 O 494.919 8.02922 -0.396432 0
M  V30 5189 H 494.651 0.6088 0.293834 0
M  V30 5190 H 497.205 2.03702 0.263552 0
M  V30 5191 H 495.435 2.75273 2.71591 0
M  V30 5192 H 497.124 3.14422 2.56697 0
M  V30 5193 H 497.89 4.79722 0.713582 0
M  V30 5194 H 493.769 4.24129 1.80653 0
M  V30 5195 H 497.313 6.96915 -0.30917 0
M  V30 5196 H 493.21 6.4065 0.789828 0
M  V30 5197 H 493.978 8.17989 -0.289145 0
M  V30 5198 N 496.642 -0.504142 1.49319 0
M  V30 5199 C 497.605 -1.5883 1.65244 0
M  V30 5200 C 498.605 -1.52009 0.524386 0
M  V30 5201 O 499.795 -1.55218 0.79077 0
M  V30 5202 C 496.927 -2.98481 1.64687 0
M  V30 5203 H 498.12 -1.4604 2.61939 0
M  V30 5204 H 495.673 -0.728144 1.38303 0
M  V30 5205 H 496.408 -3.16751 0.695644 0
M  V30 5206 H 496.193 -3.0484 2.46607 0
M  V30 5207 H 497.683 -3.77256 1.79075 0
M  V30 5208 N 498.12 -1.38341 -0.754957 0
M  V30 5209 C 499.366 -1.34672 -1.51628 0
M  V30 5210 C 499.699 0.0636036 -1.94096 0
M  V30 5211 O 498.974 1.0245 -1.6533 0
M  V30 5212 C 499.257 -2.30116 -2.76981 0
M  V30 5213 C 499.11 -3.80003 -2.4066 0
M  V30 5214 C 500.429 -2.23715 -3.78998 0
M  V30 5215 H 497.548 -0.490517 -0.550056 0
M  V30 5216 H 500.19 -1.69178 -0.864807 0
M  V30 5217 H 498.34 -2.00821 -3.3257 0
M  V30 5218 H 500.012 -4.19966 -1.90856 0
M  V30 5219 H 498.255 -3.97751 -1.73137 0
M  V30 5220 H 498.926 -4.42244 -3.30339 0
M  V30 5221 H 501.402 -2.49574 -3.32945 0
M  V30 5222 H 500.278 -2.9261 -4.64403 0
M  V30 5223 H 500.539 -1.23554 -4.24484 0
M  V30 5224 N 499.598 0.982988 -1.23187 0
M  V30 5225 C 500.844 1.72648 -1.06398 0
M  V30 5226 C 501.177 1.90066 0.398561 0
M  V30 5227 O 500.452 1.45105 1.29518 0
M  V30 5228 C 500.735 3.12627 -1.78707 0
M  V30 5229 C 500.588 3.02795 -3.32618 0
M  V30 5230 C 501.907 4.11997 -1.54747 0
M  V30 5231 H 499.026 0.626649 -0.387918 0
M  V30 5232 H 501.668 1.14455 -1.51658 0
M  V30 5233 H 499.818 3.62308 -1.40234 0
M  V30 5234 H 501.49 2.60659 -3.80598 0
M  V30 5235 H 499.733 2.39362 -3.61785 0
M  V30 5236 H 500.404 4.01893 -3.78399 0
M  V30 5237 H 502.88 3.71114 -1.88186 0
M  V30 5238 H 501.756 5.08037 -2.07821 0
M  V30 5239 H 502.017 4.39462 -0.482249 0
M  V30 5240 N 501.076 1.04316 1.18135 0
M  V30 5241 C 502.301 0.768047 1.92655 0
M  V30 5242 C 502.726 -0.66904 1.758 0
M  V30 5243 O 502.084 -1.46372 1.06981 0
M  V30 5244 C 502.132 1.14239 3.42026 0
M  V30 5245 O 501.236 0.269333 4.1152 0
M  V30 5246 H 500.577 0.282436 0.600937 0
M  V30 5247 H 503.107 1.39367 1.49793 0
M  V30 5248 H 503.117 1.10538 3.92741 0
M  V30 5249 H 501.792 2.18928 3.53615 0
M  V30 5250 H 500.369 0.366175 3.71098 0
M  V30 5251 N 502.554 -1.34406 0.822964 0
M  V30 5252 C 503.464 -2.33298 0.246838 0
M  V30 5253 C 504.48 -1.62625 -0.618797 0
M  V30 5254 O 505.656 -1.94391 -0.526685 0
M  V30 5255 C 502.721 -3.41785 -0.581731 0
M  V30 5256 C 501.782 -4.28206 0.306309 0
M  V30 5257 C 501.015 -5.31512 -0.48281 0
M  V30 5258 O 501.238 -5.43973 -1.71607 0
M  V30 5259 O 500.172 -6.01749 0.134884 0
M  V30 5260 H 503.998 -2.84401 1.06534 0
M  V30 5261 H 501.583 -1.37466 0.585108 0
M  V30 5262 H 503.465 -4.08028 -1.05313 0
M  V30 5263 H 502.14 -2.92925 -1.37756 0
M  V30 5264 H 501.047 -3.64885 0.825199 0
M  V30 5265 H 502.38 -4.80507 1.06649 0
M  V30 5266 N 504.032 -0.577932 -1.46621 0
M  V30 5267 C 504.942 0.160651 -2.34049 0
M  V30 5268 C 505.958 0.890911 -1.49462 0
M  V30 5269 O 507.134 0.855166 -1.82343 0
M  V30 5270 C 504.199 1.16447 -3.26559 0
M  V30 5271 C 503.26 0.4394 -4.27045 0
M  V30 5272 C 502.493 1.3954 -5.15135 0
M  V30 5273 O 502.716 2.63162 -5.06065 0
M  V30 5274 O 501.65 0.908585 -5.95003 0
M  V30 5275 H 505.476 -0.557057 -2.98547 0
M  V30 5276 H 503.061 -0.338369 -1.45518 0
M  V30 5277 H 504.943 1.7434 -3.83645 0
M  V30 5278 H 503.618 1.86373 -2.64663 0
M  V30 5279 H 502.525 -0.181247 -3.73661 0
M  V30 5280 H 503.858 -0.218799 -4.91713 0
M  V30 5281 N 505.51 1.54411 -0.315457 0
M  V30 5282 C 506.921 1.85885 0.174265 0
M  V30 5283 C 507.272 1.23723 1.52273 0
M  V30 5284 O 506.397 0.540246 2.09548 0
M  V30 5285 C 506.992 3.37257 0.322981 0
M  V30 5286 C 505.551 3.68711 0.756922 0
M  V30 5287 C 504.698 2.77013 -0.126195 0
M  V30 5288 H 507.649 1.49374 -0.536007 0
M  V30 5289 H 507.67 3.62539 1.15522 0
M  V30 5290 H 507.182 3.82471 -0.658602 0
M  V30 5291 H 505.283 3.29024 1.74854 0
M  V30 5292 H 505.396 4.75741 0.566291 0
M  V30 5293 H 503.76 2.51588 0.39692 0
M  V30 5294 H 504.543 3.25051 -1.1044 0
M  V30 5295 N 506.988 0.0434614 1.5754 0
M  V30 5296 C 508.237 -0.631454 1.91561 0
M  V30 5297 C 508.55 -1.72457 0.92292 0
M  V30 5298 O 509.756 -2.45712 1.15489 0
M  V30 5299 C 508.212 -1.17447 3.40197 0
M  V30 5300 C 507.82 -0.113867 4.47855 0
M  V30 5301 C 509.564 -1.82507 3.83264 0
M  V30 5302 C 507.471 -0.669326 5.876 0
M  V30 5303 H 506.401 -0.239629 0.714908 0
M  V30 5304 H 509.052 0.111097 1.83163 0
M  V30 5305 H 507.434 -1.96909 3.43574 0
M  V30 5306 H 508.608 0.659348 4.56058 0
M  V30 5307 H 506.923 0.438821 4.14081 0
M  V30 5308 H 509.52 -2.25047 4.85034 0
M  V30 5309 H 509.863 -2.67365 3.19095 0
M  V30 5310 H 510.396 -1.09712 3.82372 0
M  V30 5311 H 507.135 0.141449 6.55347 0
M  V30 5312 H 506.655 -1.4107 5.82974 0
M  V30 5313 H 508.334 -1.15463 6.36614 0
M  V30 5314 N 508.466 -1.55915 -0.229846 0
M  V30 5315 C 509.696 -1.82352 -0.971152 0
M  V30 5316 C 510.104 -0.619231 -1.7878 0
M  V30 5317 O 509.447 0.421597 -1.78797 0
M  V30 5318 C 509.509 -3.02399 -1.9441 0
M  V30 5319 C 509.173 -4.37739 -1.31277 0
M  V30 5320 C 510.17 -5.15074 -0.706757 0
M  V30 5321 C 507.855 -4.84454 -1.32702 0
M  V30 5322 C 509.849 -6.37281 -0.123413 0
M  V30 5323 C 507.536 -6.06605 -0.739831 0
M  V30 5324 C 508.534 -6.82858 -0.139071 0
M  V30 5325 O 508.222 -8.027 0.439007 0
M  V30 5326 H 507.954 -0.61035 -0.290601 0
M  V30 5327 H 510.508 -2.03839 -0.252746 0
M  V30 5328 H 508.738 -2.76709 -2.70128 0
M  V30 5329 H 510.427 -3.15779 -2.55026 0
M  V30 5330 H 511.193 -4.80093 -0.688131 0
M  V30 5331 H 507.072 -4.25081 -1.78402 0
M  V30 5332 H 510.616 -6.96741 0.346124 0
M  V30 5333 H 506.513 -6.4106 -0.755841 0
M  V30 5334 H 507.281 -8.17824 0.332521 0
M  V30 5335 N 509.944 0.496216 -1.49584 0
M  V30 5336 C 511.193 1.24668 -1.58558 0
M  V30 5337 C 511.506 1.9359 -0.279703 0
M  V30 5338 O 512.712 2.70365 -0.248048 0
M  V30 5339 C 511.168 2.26388 -2.79779 0
M  V30 5340 C 510.776 1.63384 -4.17145 0
M  V30 5341 C 512.52 3.02233 -2.98086 0
M  V30 5342 C 510.427 2.63243 -5.29582 0
M  V30 5343 H 509.357 0.468995 -0.590389 0
M  V30 5344 H 512.008 0.519985 -1.75978 0
M  V30 5345 H 510.39 3.02241 -2.55863 0
M  V30 5346 H 511.564 0.93491 -4.51216 0
M  V30 5347 H 509.879 0.999121 -4.04236 0
M  V30 5348 H 512.476 3.76919 -3.79257 0
M  V30 5349 H 512.819 3.60132 -2.08831 0
M  V30 5350 H 513.352 2.33495 -3.22063 0
M  V30 5351 H 510.091 2.10119 -6.20911 0
M  V30 5352 H 509.611 3.31363 -4.99959 0
M  V30 5353 H 511.29 3.25575 -5.59115 0
M  V30 5354 N 511.423 1.38739 0.74761 0
M  V30 5355 C 512.669 1.35475 1.50912 0
M  V30 5356 C 513.002 -0.0533093 1.94127 0
M  V30 5357 O 512.277 -1.01572 1.65871 0
M  V30 5358 C 512.56 2.31582 2.75757 0
M  V30 5359 C 512.413 3.81274 2.38642 0
M  V30 5360 C 513.732 2.25722 3.77806 0
M  V30 5361 H 510.851 0.493427 0.547447 0
M  V30 5362 H 513.493 1.69634 0.855823 0
M  V30 5363 H 511.643 2.02582 3.31501 0
M  V30 5364 H 513.315 4.20972 1.88626 0
M  V30 5365 H 511.558 3.98664 1.71025 0
M  V30 5366 H 512.229 4.4399 3.27989 0
M  V30 5367 H 514.705 2.51336 3.31616 0
M  V30 5368 H 513.581 2.95069 4.62845 0
M  V30 5369 H 513.842 1.25803 4.23823 0
M  V30 5370 N 512.901 -0.976442 1.23707 0
M  V30 5371 C 514.129 -1.75341 1.09833 0
M  V30 5372 C 514.544 -1.8553 -0.349885 0
M  V30 5373 O 513.901 -1.33732 -1.24185 0
M  V30 5374 C 513.952 -3.17833 1.72233 0
M  V30 5375 O 513.673 -3.08167 3.11391 0
M  V30 5376 C 515.174 -4.11906 1.63853 0
M  V30 5377 H 512.394 -0.550137 0.384175 0
M  V30 5378 H 514.938 -1.2265 1.63638 0
M  V30 5379 H 513.093 -3.67538 1.22452 0
M  V30 5380 H 513.507 -3.97897 3.41729 0
M  V30 5381 H 514.981 -5.09579 2.12211 0
M  V30 5382 H 515.458 -4.35109 0.598092 0
M  V30 5383 H 516.064 -3.68107 2.13019 0
M  V30 5384 N 514.379 -1.04941 -1.1758 0
M  V30 5385 C 515.289 -0.658826 -2.25159 0
M  V30 5386 C 516.305 0.318941 -1.71052 0
M  V30 5387 O 517.481 0.171669 -2.00667 0
M  V30 5388 C 514.546 -0.0369522 -3.4668 0
M  V30 5389 C 513.607 -1.06484 -4.15884 0
M  V30 5390 C 512.84 -0.472551 -5.31604 0
M  V30 5391 O 513.063 0.718736 -5.65854 0
M  V30 5392 O 511.997 -1.20557 -5.89703 0
M  V30 5393 H 515.823 -1.55533 -2.60851 0
M  V30 5394 H 513.408 -0.820819 -1.24832 0
M  V30 5395 H 515.29 0.308784 -4.20267 0
M  V30 5396 H 513.965 0.833238 -3.12792 0
M  V30 5397 H 512.872 -1.46253 -3.44327 0
M  V30 5398 H 514.205 -1.9061 -4.53794 0
M  V30 5399 N 515.857 1.33968 -0.830081 0
M  V30 5400 C 517.104 1.98063 -0.421566 0
M  V30 5401 C 517.432 1.65787 1.0171 0
M  V30 5402 O 516.687 0.925348 1.72441 0
M  V30 5403 C 516.986 3.52679 -0.57898 0
M  V30 5404 C 516.652 4.04884 -1.98443 0
M  V30 5405 C 515.314 4.18852 -2.36888 0
M  V30 5406 C 517.666 4.32879 -2.90285 0
M  V30 5407 C 514.994 4.58145 -3.66497 0
M  V30 5408 C 517.346 4.7362 -4.19364 0
M  V30 5409 C 516.01 4.85794 -4.57778 0
M  V30 5410 H 515.28 0.724765 -0.154262 0
M  V30 5411 H 517.927 1.59792 -1.05541 0
M  V30 5412 H 516.232 3.91556 0.138219 0
M  V30 5413 H 517.929 4.00261 -0.243317 0
M  V30 5414 H 514.519 3.9448 -1.67581 0
M  V30 5415 H 518.703 4.21619 -2.61823 0
M  V30 5416 H 513.959 4.65762 -3.96075 0
M  V30 5417 H 518.133 4.9424 -4.90612 0
M  V30 5418 H 515.76 5.15998 -5.58256 0
M  V30 5419 N 517.335 0.585699 1.46312 0
M  V30 5420 C 518.268 -0.194257 2.27372 0
M  V30 5421 C 519.246 -0.894116 1.3581 0
M  V30 5422 O 520.43 -0.907402 1.65222 0
M  V30 5423 C 517.557 -1.27901 3.13622 0
M  V30 5424 C 516.603 -0.684666 4.20969 0
M  V30 5425 S 517.436 0.490745 5.33247 0
M  V30 5426 C 518.592 -0.595137 6.23064 0
M  V30 5427 H 518.825 0.493515 2.93175 0
M  V30 5428 H 516.358 0.372666 1.49835 0
M  V30 5429 H 518.316 -1.90008 3.63878 0
M  V30 5430 H 516.977 -1.93875 2.47126 0
M  V30 5431 H 516.17 -1.50015 4.81156 0
M  V30 5432 H 515.772 -0.139204 3.73741 0
M  V30 5433 H 518.064 -1.48002 6.61137 0
M  V30 5434 H 519.007 -0.0299446 7.08094 0
M  V30 5435 H 519.415 -0.900627 5.57269 0
M  V30 5436 N 518.813 -1.54241 0.323641 0
M  V30 5437 C 520.038 -2.05452 -0.283605 0
M  V30 5438 C 520.463 -1.19823 -1.44997 0
M  V30 5439 O 519.821 -0.207358 -1.8011 0
M  V30 5440 C 519.869 -3.53823 -0.695795 0
M  V30 5441 O 518.973 -3.71134 -1.79815 0
M  V30 5442 H 518.314 -0.662024 -0.0511917 0
M  V30 5443 H 520.844 -1.99079 0.472073 0
M  V30 5444 H 520.854 -3.96094 -0.978434 0
M  V30 5445 H 519.529 -4.15602 0.157287 0
M  V30 5446 H 518.106 -3.40768 -1.51431 0
M  V30 5447 N 520.291 -0.0518155 -1.57515 0
M  V30 5448 C 521.238 0.922352 -2.11569 0
M  V30 5449 C 522.208 1.30842 -1.02321 0
M  V30 5450 O 523.393 1.39778 -1.29872 0
M  V30 5451 C 520.533 2.19167 -2.6657 0
M  V30 5452 C 519.646 1.86003 -3.89906 0
M  V30 5453 C 518.781 3.07398 -4.33221 0
M  V30 5454 C 517.82 2.70158 -5.49255 0
M  V30 5455 N 516.957 3.84248 -5.8762 0
M  V30 5456 H 521.797 0.454506 -2.94514 0
M  V30 5457 H 519.334 0.212718 -1.45554 0
M  V30 5458 H 521.292 2.93443 -2.96559 0
M  V30 5459 H 519.922 2.63528 -1.86421 0
M  V30 5460 H 518.974 1.01874 -3.66505 0
M  V30 5461 H 520.286 1.54592 -4.74239 0
M  V30 5462 H 519.44 3.89972 -4.64765 0
M  V30 5463 H 518.179 3.41988 -3.477 0
M  V30 5464 H 517.184 1.86001 -5.17382 0
M  V30 5465 H 518.409 2.36759 -6.36492 0
M  V30 5466 H 516.355 4.18638 -5.05053 0
M  V30 5467 H 516.272 3.56538 -6.66646 0
M  V30 5468 H 517.54 4.6746 -6.2378 0
M  V30 5469 N 521.769 1.56035 0.221574 0
M  V30 5470 C 523.017 1.78693 0.944102 0
M  V30 5471 C 523.338 0.620317 1.8487 0
M  V30 5472 O 522.608 -0.362784 1.92512 0
M  V30 5473 H 521.188 0.659082 0.351597 0
M  V30 5474 H 523.85 1.93497 0.233435 0
M  V30 5475 H 522.946 2.70837 1.55093 0
M  V30 5476 N 523.247 -0.488276 1.49845 0
M  V30 5477 C 524.472 -1.26997 1.63971 0
M  V30 5478 C 524.897 -1.85427 0.315994 0
M  V30 5479 O 524.255 -1.66475 -0.718032 0
M  V30 5480 C 524.303 -2.36689 2.72049 0
M  V30 5481 O 523.407 -3.40882 2.32107 0
M  V30 5482 H 522.748 -0.374376 0.548396 0
M  V30 5483 H 525.278 -0.583104 1.96115 0
M  V30 5484 H 525.288 -2.82262 2.94605 0
M  V30 5485 H 523.963 -1.93529 3.68129 0
M  V30 5486 H 522.54 -3.01139 2.19931 0
M  V30 5487 N 524.725 -1.39134 -0.740242 0
M  V30 5488 C 525.655 -1.40165 -1.86751 0
M  V30 5489 C 526.636 -0.265708 -1.68012 0
M  V30 5490 O 527.821 -0.47076 -1.88408 0
M  V30 5491 C 524.951 -1.2392 -3.2444 0
M  V30 5492 C 523.905 -2.34858 -3.57807 0
M  V30 5493 C 523.231 -2.03707 -4.94376 0
M  V30 5494 C 524.531 -3.77159 -3.61315 0
M  V30 5495 H 526.225 -2.345 -1.86145 0
M  V30 5496 H 523.771 -1.12875 -0.89416 0
M  V30 5497 H 525.724 -1.23263 -4.02969 0
M  V30 5498 H 524.448 -0.26051 -3.25559 0
M  V30 5499 H 523.107 -2.34723 -2.81604 0
M  V30 5500 H 522.755 -1.04289 -4.9207 0
M  V30 5501 H 522.455 -2.78016 -5.17669 0
M  V30 5502 H 523.979 -2.04691 -5.75268 0
M  V30 5503 H 525.393 -3.79252 -4.29931 0
M  V30 5504 H 523.79 -4.50784 -3.96124 0
M  V30 5505 H 524.86 -4.08513 -2.61238 0
M  V30 5506 N 526.204 0.969867 -1.24223 0
M  V30 5507 C 527.134 2.08191 -1.05729 0
M  V30 5508 C 528.115 1.70075 0.0290765 0
M  V30 5509 O 529.3 1.93712 -0.137583 0
M  V30 5510 C 526.43 3.40991 -0.658995 0
M  V30 5511 C 525.384 3.93054 -1.69389 0
M  V30 5512 C 524.71 5.22171 -1.15072 0
M  V30 5513 C 526.01 4.21137 -3.08935 0
M  V30 5514 H 527.704 2.23921 -1.98746 0
M  V30 5515 H 525.25 1.07602 -0.956967 0
M  V30 5516 H 527.203 4.18221 -0.51662 0
M  V30 5517 H 525.927 3.25155 0.30686 0
M  V30 5518 H 524.586 3.17977 -1.82444 0
M  V30 5519 H 524.234 5.02694 -0.175539 0
M  V30 5520 H 523.934 5.57973 -1.84229 0
M  V30 5521 H 525.458 6.02013 -1.02042 0
M  V30 5522 H 526.872 4.8908 -2.99121 0
M  V30 5523 H 525.269 4.68163 -3.75425 0
M  V30 5524 H 526.339 3.27996 -3.57137 0
M  V30 5525 N 527.682 1.05563 1.17022 0
M  V30 5526 C 528.959 0.68165 1.83338 0
M  V30 5527 C 529.339 -0.837665 1.93769 0
M  V30 5528 O 528.687 -1.74507 1.47511 0
M  V30 5529 C 528.897 1.375 3.20772 0
M  V30 5530 C 530.245 1.51545 3.96635 0
M  V30 5531 O 531.269 1.33431 3.30264 0
M  V30 5532 O 530.128 1.812 5.15586 0
M  V30 5533 H 527.222 0.240412 0.791285 0
M  V30 5534 H 529.768 1.15545 1.24288 0
M  V30 5535 H 528.54 2.41135 3.08171 0
M  V30 5536 H 528.163 0.890798 3.87493 0
M  V30 5537 N 529.16 -1.33526 0.837174 0
M  V30 5538 C 530.407 -1.97837 0.432064 0
M  V30 5539 C 530.735 -1.66324 -1.00829 0
M  V30 5540 O 529.99 -0.93448 -1.71948 0
M  V30 5541 C 530.289 -3.52367 0.597675 0
M  V30 5542 C 529.955 -4.03826 2.00587 0
M  V30 5543 C 528.617 -4.1759 2.39106 0
M  V30 5544 C 530.969 -4.31333 2.92576 0
M  V30 5545 C 528.297 -4.56195 3.68921 0
M  V30 5546 C 530.649 -4.7139 4.2187 0
M  V30 5547 C 529.313 -4.8336 4.60347 0
M  V30 5548 H 528.583 -0.723937 0.158104 0
M  V30 5549 H 531.23 -1.5923 1.06387 0
M  V30 5550 H 529.535 -3.91624 -0.117452 0
M  V30 5551 H 531.232 -4.00126 0.26454 0
M  V30 5552 H 527.822 -3.93586 1.69671 0
M  V30 5553 H 532.006 -4.20224 2.64056 0
M  V30 5554 H 527.262 -4.63655 3.9854 0
M  V30 5555 H 531.436 -4.91631 4.93226 0
M  V30 5556 H 529.063 -5.1303 5.60985 0
M  V30 5557 N 530.638 -0.59345 -1.46 0
M  V30 5558 C 531.568 0.121192 -2.33185 0
M  V30 5559 C 532.549 0.872977 -1.4599 0
M  V30 5560 O 533.734 0.846321 -1.74789 0
M  V30 5561 C 530.864 1.12844 -3.28456 0
M  V30 5562 C 529.818 0.4908 -4.25177 0
M  V30 5563 C 529.144 1.60529 -5.10034 0
M  V30 5564 C 530.444 -0.578949 -5.19081 0
M  V30 5565 H 532.138 -0.606767 -2.93187 0
M  V30 5566 H 529.684 -0.293242 -1.40983 0
M  V30 5567 H 531.637 1.63684 -3.88311 0
M  V30 5568 H 530.361 1.88681 -2.66584 0
M  V30 5569 H 529.02 0.00339328 -3.666 0
M  V30 5570 H 528.668 2.35359 -4.44539 0
M  V30 5571 H 528.368 1.18422 -5.75543 0
M  V30 5572 H 529.892 2.11623 -5.72755 0
M  V30 5573 H 531.306 -0.155199 -5.7309 0
M  V30 5574 H 529.703 -0.920947 -5.92991 0
M  V30 5575 H 530.773 -1.46109 -4.62364 0
M  V30 5576 N 532.116 1.54067 -0.331816 0
M  V30 5577 C 533.063 2.24623 0.530372 0
M  V30 5578 C 534.033 1.24009 1.10503 0
M  V30 5579 O 535.218 1.52712 1.14384 0
M  V30 5580 C 532.358 3.01374 1.68129 0
M  V30 5581 C 531.471 4.16821 1.13507 0
M  V30 5582 C 530.606 4.81085 2.25234 0
M  V30 5583 C 529.645 5.88621 1.67903 0
M  V30 5584 N 528.782 6.46713 2.73326 0
M  V30 5585 H 533.622 2.97898 -0.0778607 0
M  V30 5586 H 531.159 1.47014 -0.0501965 0
M  V30 5587 H 533.117 3.44125 2.35868 0
M  V30 5588 H 531.747 2.30419 2.26069 0
M  V30 5589 H 530.799 3.78796 0.348979 0
M  V30 5590 H 532.111 4.94203 0.675633 0
M  V30 5591 H 531.265 5.26846 3.00862 0
M  V30 5592 H 530.004 4.03102 2.74518 0
M  V30 5593 H 529.009 5.42254 0.907773 0
M  V30 5594 H 530.234 6.68506 1.19487 0
M  V30 5595 H 528.18 5.71599 3.21886 0
M  V30 5596 H 528.097 7.19532 2.3197 0
M  V30 5597 H 529.365 6.97129 3.48758 0
M  V30 5598 N 533.594 0.0601682 1.57485 0
M  V30 5599 C 534.504 -0.926121 2.15546 0
M  V30 5600 C 535.52 -1.33532 1.11558 0
M  V30 5601 O 536.696 -1.4104 1.4377 0
M  V30 5602 C 533.761 -2.17952 2.69625 0
M  V30 5603 C 532.822 -1.82783 3.88444 0
M  V30 5604 C 532.055 -3.02148 4.39935 0
M  V30 5605 O 532.278 -4.15803 3.90466 0
M  V30 5606 O 531.212 -2.82639 5.31412 0
M  V30 5607 H 535.038 -0.462289 3.00161 0
M  V30 5608 H 532.623 -0.162246 1.48516 0
M  V30 5609 H 534.505 -2.91474 3.04337 0
M  V30 5610 H 533.18 -2.63456 1.88077 0
M  V30 5611 H 532.087 -1.06549 3.58606 0
M  V30 5612 H 533.42 -1.42072 4.7125 0
M  V30 5613 N 535.072 -1.5615 -0.213296 0
M  V30 5614 C 536.32 -1.79191 -0.934612 0
M  V30 5615 C 536.641 -0.630112 -1.84539 0
M  V30 5616 O 535.911 0.35257 -1.92701 0
M  V30 5617 H 534.491 -0.660937 -0.348097 0
M  V30 5618 H 537.153 -1.93618 -0.22317 0
M  V30 5619 H 536.249 -2.71656 -1.53654 0
M  V30 5620 N 536.55 0.480323 -1.50102 0
M  V30 5621 C 537.827 1.24159 -1.51142 0
M  V30 5622 C 538.207 2.09605 -0.250818 0
M  V30 5623 O 537.555 2.15274 0.766118 0
M  V30 5624 C 537.765 2.08057 -2.80202 0
M  V30 5625 C 539.113 2.66556 -3.30504 0
M  V30 5626 O 540.137 2.18308 -2.81461 0
M  V30 5627 O 538.996 3.54442 -4.15973 0
M  V30 5628 H 536.09 0.562928 -0.605839 0
M  V30 5629 H 538.636 0.492899 -1.62384 0
M  V30 5630 H 537.408 1.45032 -3.6343 0
M  V30 5631 H 537.031 2.90079 -2.71919 0
M  V30 5632 N 538.028 1.39524 0.732853 0
M  V30 5633 C 539.276 1.36594 1.48951 0
M  V30 5634 C 539.597 -0.0367507 1.94965 0
M  V30 5635 O 538.867 -0.988391 1.69138 0
M  V30 5636 H 537.447 0.502673 0.552566 0
M  V30 5637 H 540.109 1.74411 0.869869 0
M  V30 5638 H 539.205 2.03 2.3706 0
M  V30 5639 N 539.506 -0.963266 1.24736 0
M  V30 5640 C 540.453 -2.05857 1.04363 0
M  V30 5641 C 541.423 -1.6604 -0.0444951 0
M  V30 5642 O 542.608 -1.90477 0.110999 0
M  V30 5643 C 539.748 -3.38745 0.659235 0
M  V30 5644 C 538.861 -3.9173 1.82131 0
M  V30 5645 C 537.996 -5.12906 1.38208 0
M  V30 5646 C 537.035 -5.58098 2.51382 0
M  V30 5647 N 536.172 -6.7049 2.08295 0
M  V30 5648 H 541.012 -2.22616 1.98107 0
M  V30 5649 H 538.549 -1.09103 0.986661 0
M  V30 5650 H 540.507 -4.15107 0.417371 0
M  V30 5651 H 539.137 -3.21898 -0.241201 0
M  V30 5652 H 538.189 -3.11966 2.17672 0
M  V30 5653 H 539.501 -4.21225 2.67153 0
M  V30 5654 H 538.655 -5.96657 1.09935 0
M  V30 5655 H 537.394 -4.85105 0.502456 0
M  V30 5656 H 536.399 -4.72917 2.80409 0
M  V30 5657 H 537.624 -5.87911 3.39909 0
M  V30 5658 H 535.57 -6.44416 1.22737 0
M  V30 5659 H 535.487 -6.99458 2.86869 0
M  V30 5660 H 536.755 -7.57672 1.83175 0
M  V30 5661 N 540.985 -1.06182 -1.16461 0
M  V30 5662 C 542.215 -0.797425 -1.9059 0
M  V30 5663 C 542.623 0.651845 -1.77616 0
M  V30 5664 O 541.966 1.45788 -1.11766 0
M  V30 5665 C 542.028 -1.11128 -3.41893 0
M  V30 5666 C 541.692 -2.55874 -3.78652 0
M  V30 5667 C 542.689 -3.54104 -3.80665 0
M  V30 5668 C 540.374 -2.91144 -4.09317 0
M  V30 5669 C 542.368 -4.85645 -4.12829 0
M  V30 5670 C 540.055 -4.22885 -4.41148 0
M  V30 5671 C 541.053 -5.19945 -4.42883 0
M  V30 5672 O 540.741 -6.49322 -4.73959 0
M  V30 5673 H 540.473 -0.288709 -0.611247 0
M  V30 5674 H 543.027 -1.41841 -1.4856 0
M  V30 5675 H 541.257 -0.433217 -3.84266 0
M  V30 5676 H 542.946 -0.831306 -3.97296 0
M  V30 5677 H 543.712 -3.28197 -3.57088 0
M  V30 5678 H 539.591 -2.16252 -4.07131 0
M  V30 5679 H 543.135 -5.61398 -4.14099 0
M  V30 5680 H 539.032 -4.48551 -4.6419 0
M  V30 5681 H 539.8 -6.54294 -4.91774 0
M  V30 5682 N 542.463 1.3308 -0.844243 0
M  V30 5683 C 543.393 2.3161 -0.296493 0
M  V30 5684 C 544.374 1.59215 0.598707 0
M  V30 5685 O 545.559 1.87077 0.521134 0
M  V30 5686 C 542.689 3.43313 0.524762 0
M  V30 5687 C 541.643 4.27115 -0.275106 0
M  V30 5688 C 540.969 5.30483 0.670236 0
M  V30 5689 C 542.269 5.00443 -1.49514 0
M  V30 5690 H 543.963 2.77672 -1.11976 0
M  V30 5691 H 541.509 1.33496 -0.539899 0
M  V30 5692 H 543.462 4.11273 0.918298 0
M  V30 5693 H 542.186 2.95952 1.3813 0
M  V30 5694 H 540.845 3.60787 -0.650267 0
M  V30 5695 H 540.493 4.79379 1.52332 0
M  V30 5696 H 540.193 5.87435 0.139123 0
M  V30 5697 H 541.717 6.01308 1.06117 0
M  V30 5698 H 543.131 5.61141 -1.17447 0
M  V30 5699 H 541.528 5.67071 -1.96343 0
M  V30 5700 H 542.598 4.28906 -2.26202 0
M  V30 5701 N 543.941 0.601185 1.45683 0
M  V30 5702 C 544.888 -0.121396 2.30481 0
M  V30 5703 C 545.858 -0.866232 1.41724 0
M  V30 5704 O 547.043 -0.85324 1.70659 0
M  V30 5705 C 544.183 -1.11704 3.26521 0
M  V30 5706 C 543.296 -0.373741 4.3038 0
M  V30 5707 C 542.431 -1.35854 5.13534 0
M  V30 5708 C 541.47 -0.602689 6.09126 0
M  V30 5709 N 540.607 -1.53645 6.85082 0
M  V30 5710 H 545.447 0.607732 2.91737 0
M  V30 5711 H 542.984 0.311502 1.43764 0
M  V30 5712 H 544.942 -1.70735 3.80664 0
M  V30 5713 H 543.572 -1.81366 2.67032 0
M  V30 5714 H 542.624 0.331962 3.78949 0
M  V30 5715 H 543.936 0.2163 4.98331 0
M  V30 5716 H 543.09 -2.02111 5.72046 0
M  V30 5717 H 541.829 -1.98251 4.45587 0
M  V30 5718 H 540.834 0.0735482 5.49751 0
M  V30 5719 H 542.059 0.0161467 6.79098 0
M  V30 5720 H 540.005 -2.14819 6.1983 0
M  V30 5721 H 539.922 -0.999688 7.49361 0
M  V30 5722 H 541.19 -2.1888 7.48139 0
M  V30 5723 N 545.419 -1.53889 0.339982 0
M  V30 5724 C 546.349 -2.27843 -0.510856 0
M  V30 5725 C 547.33 -1.29267 -1.10563 0
M  V30 5726 O 548.515 -1.58104 -1.12768 0
M  V30 5727 C 545.645 -3.04857 -1.66372 0
M  V30 5728 C 544.599 -4.10907 -1.19746 0
M  V30 5729 C 543.925 -4.75855 -2.43857 0
M  V30 5730 C 545.225 -5.21435 -0.300501 0
M  V30 5731 H 546.919 -2.99212 0.106067 0
M  V30 5732 H 544.465 -1.43904 0.0524533 0
M  V30 5733 H 546.418 -3.5533 -2.26537 0
M  V30 5734 H 545.142 -2.31133 -2.30749 0
M  V30 5735 H 543.801 -3.61342 -0.618654 0
M  V30 5736 H 543.449 -3.9873 -3.06633 0
M  V30 5737 H 543.149 -5.47502 -2.13343 0
M  V30 5738 H 544.673 -5.2911 -3.04754 0
M  V30 5739 H 546.087 -5.67565 -0.80889 0
M  V30 5740 H 544.484 -6.00036 -0.0874076 0
M  V30 5741 H 545.554 -4.80328 0.664321 0
M  V30 5742 N 546.897 -0.0685191 -1.57451 0
M  V30 5743 C 548.308 0.464634 -1.80826 0
M  V30 5744 C 548.659 1.69847 -0.982169 0
M  V30 5745 O 547.784 2.15439 -0.203734 0
M  V30 5746 C 548.379 0.849721 -3.27971 0
M  V30 5747 C 546.938 1.32776 -3.52204 0
M  V30 5748 C 546.085 0.311332 -2.75547 0
M  V30 5749 H 549.036 -0.294248 -1.55948 0
M  V30 5750 H 549.057 1.71138 -3.39841 0
M  V30 5751 H 548.569 -0.0484736 -3.8807 0
M  V30 5752 H 546.67 2.24456 -2.97406 0
M  V30 5753 H 546.783 1.30794 -4.60901 0
M  V30 5754 H 545.147 0.787915 -2.42206 0
M  V30 5755 H 545.93 -0.579078 -3.38381 0
M  V30 5756 N 548.375 1.56261 0.205012 0
M  V30 5757 C 549.307 1.90266 1.27795 0
M  V30 5758 C 550.32 0.792397 1.42214 0
M  V30 5759 O 551.509 1.07077 1.42817 0
M  V30 5760 C 548.609 2.11074 2.65143 0
M  V30 5761 C 547.782 3.42176 2.7246 0
M  V30 5762 C 546.841 3.52216 3.90936 0
M  V30 5763 O 545.867 4.25119 3.78501 0
M  V30 5764 N 547.069 2.84573 5.05963 0
M  V30 5765 H 549.834 2.82896 0.989434 0
M  V30 5766 H 547.395 1.57008 0.394981 0
M  V30 5767 H 549.387 2.15089 3.4281 0
M  V30 5768 H 547.957 1.2499 2.86524 0
M  V30 5769 H 547.177 3.50116 1.81142 0
M  V30 5770 H 548.465 4.28509 2.74331 0
M  V30 5771 H 547.863 2.25152 5.18963 0
M  V30 5772 H 546.42 2.94228 5.81613 0
M  V30 5773 N 549.853 -0.472356 1.50355 0
M  V30 5774 C 550.783 -1.57859 1.72055 0
M  V30 5775 C 551.764 -1.60283 0.569505 0
M  V30 5776 O 552.949 -1.7657 0.808503 0
M  V30 5777 C 550.079 -2.96191 1.81351 0
M  V30 5778 C 549.033 -3.08633 2.96529 0
M  V30 5779 C 548.359 -4.486 2.90968 0
M  V30 5780 C 549.659 -2.85969 4.37057 0
M  V30 5781 H 551.353 -1.39953 2.64676 0
M  V30 5782 H 548.899 -0.671846 1.27367 0
M  V30 5783 H 550.852 -3.73507 1.95117 0
M  V30 5784 H 549.576 -3.15251 0.853502 0
M  V30 5785 H 548.235 -2.33749 2.82413 0
M  V30 5786 H 547.883 -4.64577 1.92815 0
M  V30 5787 H 547.583 -4.57861 3.68289 0
M  V30 5788 H 549.107 -5.27938 3.0678 0
M  V30 5789 H 550.521 -3.53036 4.51706 0
M  V30 5790 H 548.918 -3.06677 5.15819 0
M  V30 5791 H 549.988 -1.81838 4.49514 0
M  V30 5792 N 551.331 -1.39911 -0.725443 0
M  V30 5793 C 552.577 -1.37858 -1.48738 0
M  V30 5794 C 552.91 0.0224187 -1.94187 0
M  V30 5795 O 552.185 0.989204 -1.67466 0
M  V30 5796 C 552.468 -2.3594 -2.72038 0
M  V30 5797 C 552.321 -3.85023 -2.32546 0
M  V30 5798 C 553.64 -2.31704 -3.74167 0
M  V30 5799 H 550.759 -0.502074 -0.539528 0
M  V30 5800 H 553.401 -1.70974 -0.828728 0
M  V30 5801 H 551.551 -2.0783 -3.28236 0
M  V30 5802 H 553.223 -4.2392 -1.81905 0
M  V30 5803 H 551.466 -4.01334 -1.64661 0
M  V30 5804 H 552.137 -4.49152 -3.20884 0
M  V30 5805 H 554.613 -2.5658 -3.27576 0
M  V30 5806 H 553.489 -3.02395 -4.58092 0
M  V30 5807 H 553.75 -1.3253 -4.21768 0
M  V30 5808 N 552.809 0.956637 -1.25245 0
M  V30 5809 C 554.086 1.67716 -1.00651 0
M  V30 5810 C 554.466 2.0585 0.467866 0
M  V30 5811 O 553.814 1.77029 1.44475 0
M  V30 5812 C 554.024 2.90093 -1.94028 0
M  V30 5813 C 555.372 3.6209 -2.21756 0
M  V30 5814 O 556.396 3.00171 -1.9177 0
M  V30 5815 O 555.255 4.7358 -2.72735 0
M  V30 5816 H 552.349 0.733731 -0.381533 0
M  V30 5817 H 554.895 1.00974 -1.3639 0
M  V30 5818 H 553.667 2.58689 -2.93591 0
M  V30 5819 H 553.29 3.64566 -1.58674 0
M  V30 5820 N 554.287 1.06798 1.15896 0
M  V30 5821 C 555.22 0.627503 2.19403 0
M  V30 5822 C 556.198 -0.352352 1.58736 0
M  V30 5823 O 557.382 -0.260111 1.86697 0
M  V30 5824 C 554.509 -0.079356 3.38607 0
M  V30 5825 C 553.555 0.858057 4.17779 0
M  V30 5826 S 554.388 2.35605 4.80885 0
M  V30 5827 C 555.544 1.66083 6.03463 0
M  V30 5828 H 555.777 1.50441 2.56427 0
M  V30 5829 H 553.31 0.881427 1.26768 0
M  V30 5830 H 555.268 -0.48095 4.07673 0
M  V30 5831 H 553.929 -0.932524 2.99938 0
M  V30 5832 H 553.122 0.310108 5.03045 0
M  V30 5833 H 552.724 1.19977 3.54234 0
M  V30 5834 H 555.016 0.969337 6.7053 0
M  V30 5835 H 555.959 2.49159 6.62816 0
M  V30 5836 H 556.367 1.14122 5.52844 0
M  V30 5837 N 555.766 -1.3263 0.851289 0
M  V30 5838 C 556.729 -2.27247 0.298541 0
M  V30 5839 C 557.729 -1.51467 -0.539847 0
M  V30 5840 O 558.919 -1.7061 -0.351843 0
M  V30 5841 C 556.051 -3.35964 -0.578004 0
M  V30 5842 H 557.244 -2.7765 1.13359 0
M  V30 5843 H 554.797 -1.43245 0.625354 0
M  V30 5844 H 555.532 -2.90823 -1.435 0
M  V30 5845 H 555.317 -3.92094 0.0220539 0
M  V30 5846 H 556.807 -4.06472 -0.957626 0
M  V30 5847 N 557.244 -0.608902 -1.45362 0
M  V30 5848 C 558.207 0.0992563 -2.28985 0
M  V30 5849 C 559.207 0.793841 -1.39838 0
M  V30 5850 O 560.397 0.641804 -1.61946 0
M  V30 5851 C 557.529 1.15073 -3.20891 0
M  V30 5852 H 558.722 -0.635964 -2.93079 0
M  V30 5853 H 556.275 -0.368007 -1.51906 0
M  V30 5854 H 557.01 1.91667 -2.616 0
M  V30 5855 H 556.795 0.656867 -3.86559 0
M  V30 5856 H 558.285 1.64665 -3.83765 0
M  V30 5857 N 558.722 1.53707 -0.348139 0
M  V30 5858 C 559.654 2.22725 0.540946 0
M  V30 5859 C 560.667 1.2354 1.06027 0
M  V30 5860 O 561.856 1.49867 0.96964 0
M  V30 5861 C 558.956 2.89756 1.75768 0
M  V30 5862 C 558.129 4.15297 1.37285 0
M  V30 5863 C 557.188 4.65697 2.44976 0
M  V30 5864 O 556.214 5.29798 2.08092 0
M  V30 5865 N 557.416 4.42017 3.763 0
M  V30 5866 H 560.181 2.99658 -0.0501592 0
M  V30 5867 H 557.742 1.60979 -0.17248 0
M  V30 5868 H 559.734 3.20388 2.47252 0
M  V30 5869 H 558.304 2.16382 2.25605 0
M  V30 5870 H 557.524 3.9116 0.488584 0
M  V30 5871 H 558.812 4.96948 1.09179 0
M  V30 5872 H 558.21 3.9076 4.09051 0
M  V30 5873 H 556.767 4.77242 4.4394 0
M  V30 5874 N 560.2 0.0768682 1.57412 0
M  V30 5875 C 561.449 -0.590679 1.92857 0
M  V30 5876 C 561.762 -1.70461 0.959293 0
M  V30 5877 O 562.968 -2.43207 1.20675 0
M  V30 5878 C 561.424 -1.10204 3.42612 0
M  V30 5879 C 561.032 -0.0188447 4.47996 0
M  V30 5880 C 562.776 -1.74336 3.87049 0
M  V30 5881 C 560.683 -0.544536 5.88888 0
M  V30 5882 H 559.613 -0.224411 0.71983 0
M  V30 5883 H 562.264 0.149924 1.82887 0
M  V30 5884 H 560.646 -1.89577 3.47673 0
M  V30 5885 H 561.82 0.755936 4.54557 0
M  V30 5886 H 560.135 0.526555 4.13057 0
M  V30 5887 H 562.732 -2.14708 4.89699 0
M  V30 5888 H 563.075 -2.60537 3.24694 0
M  V30 5889 H 563.608 -1.01577 3.84613 0
M  V30 5890 H 560.347 0.280426 6.549 0
M  V30 5891 H 559.867 -1.28673 5.85836 0
M  V30 5892 H 561.546 -1.01933 6.3892 0
M  V30 5893 N 561.678 -1.56367 -0.196722 0
M  V30 5894 C 562.641 -1.93561 -1.22746 0
M  V30 5895 C 563.641 -0.816566 -1.38524 0
M  V30 5896 O 564.831 -1.084 -1.36363 0
M  V30 5897 C 561.963 -2.20823 -2.59712 0
M  V30 5898 H 563.156 -2.85774 -0.909586 0
M  V30 5899 H 560.709 -1.50032 -0.438174 0
M  V30 5900 H 561.444 -1.31243 -2.96557 0
M  V30 5901 H 561.229 -3.02368 -2.49632 0
M  V30 5902 H 562.719 -2.50608 -3.34044 0
M  V30 5903 N 563.156 0.464375 -1.50603 0
M  V30 5904 C 564.433 1.22549 -1.5245 0
M  V30 5905 C 564.813 2.09327 -0.273035 0
M  V30 5906 O 564.161 2.16074 0.743242 0
M  V30 5907 C 564.371 2.05074 -2.82393 0
M  V30 5908 C 565.719 2.63036 -3.33313 0
M  V30 5909 O 566.743 2.1531 -2.8376 0
M  V30 5910 O 565.602 3.5001 -4.19709 0
M  V30 5911 H 562.696 0.556471 -0.611775 0
M  V30 5912 H 565.242 0.475648 -1.62898 0
M  V30 5913 H 564.014 1.41169 -3.64948 0
M  V30 5914 H 563.637 2.87179 -2.7498 0
M  V30 5915 N 564.634 1.40294 0.718013 0
M  V30 5916 C 565.882 1.38167 1.47494 0
M  V30 5917 C 566.203 -0.01607 1.94993 0
M  V30 5918 O 565.473 -0.970396 1.70177 0
M  V30 5919 H 564.053 0.508505 0.547203 0
M  V30 5920 H 566.715 1.75324 0.851322 0
M  V30 5921 H 565.811 2.05503 2.34894 0
M  V30 5922 N 566.112 -0.949982 1.2575 0
M  V30 5923 C 567.045 -2.047 1.00862 0
M  V30 5924 C 568.023 -1.62475 -0.0636982 0
M  V30 5925 O 569.207 -1.88343 0.0769153 0
M  V30 5926 C 566.334 -3.34597 0.525613 0
M  V30 5927 C 565.38 -3.95788 1.58916 0
M  V30 5928 S 566.213 -4.31175 3.17567 0
M  V30 5929 C 567.369 -5.64183 2.71013 0
M  V30 5930 H 567.602 -2.25497 1.93749 0
M  V30 5931 H 565.135 -1.09022 1.09332 0
M  V30 5932 H 567.093 -4.09716 0.25359 0
M  V30 5933 H 565.754 -3.11758 -0.382828 0
M  V30 5934 H 564.947 -4.89457 1.20201 0
M  V30 5935 H 564.549 -3.27168 1.81211 0
M  V30 5936 H 566.841 -6.42504 2.14928 0
M  V30 5937 H 567.784 -6.07774 3.6334 0
M  V30 5938 H 568.192 -5.2364 2.1086 0
M  V30 5939 N 567.59 -1.07411 -1.15328 0
M  V30 5940 C 568.553 -0.698914 -2.18284 0
M  V30 5941 C 569.553 0.261149 -1.58665 0
M  V30 5942 O 570.743 0.0420277 -1.74149 0
M  V30 5943 C 567.875 -0.0302427 -3.40887 0
M  V30 5944 H 569.068 -1.61045 -2.52991 0
M  V30 5945 H 566.621 -0.870724 -1.298 0
M  V30 5946 H 567.356 0.893505 -3.11748 0
M  V30 5947 H 567.141 -0.720759 -3.85419 0
M  V30 5948 H 568.631 0.21759 -4.17033 0
M  V30 5949 N 569.068 1.32177 -0.85831 0
M  V30 5950 C 570.298 2.01021 -0.476889 0
M  V30 5951 C 570.706 1.64653 0.931995 0
M  V30 5952 O 570.049 0.865713 1.62022 0
M  V30 5953 C 570.111 3.55413 -0.540528 0
M  V30 5954 C 569.775 4.1522 -1.90895 0
M  V30 5955 C 570.772 4.3318 -2.87491 0
M  V30 5956 C 568.457 4.51212 -2.20709 0
M  V30 5957 C 570.451 4.86306 -4.1205 0
M  V30 5958 C 568.138 5.04042 -3.45521 0
M  V30 5959 C 569.136 5.21538 -4.41007 0
M  V30 5960 O 568.824 5.73238 -5.63608 0
M  V30 5961 H 568.556 0.650059 -0.18547 0
M  V30 5962 H 571.11 1.69648 -1.15796 0
M  V30 5963 H 569.34 3.86196 0.19741 0
M  V30 5964 H 571.029 4.05526 -0.174191 0
M  V30 5965 H 571.795 4.05704 -2.65762 0
M  V30 5966 H 567.674 4.36878 -1.4717 0
M  V30 5967 H 571.218 4.99877 -4.86589 0
M  V30 5968 H 567.115 5.30952 -3.67098 0
M  V30 5969 H 567.883 5.91625 -5.65617 0
M  V30 5970 N 570.547 0.616602 1.45037 0
M  V30 5971 C 571.796 0.112861 2.01384 0
M  V30 5972 C 572.109 -1.26758 1.48969 0
M  V30 5973 O 573.315 -1.86454 1.9735 0
M  V30 5974 C 571.771 0.151057 3.59583 0
M  V30 5975 C 571.379 1.53191 4.20995 0
M  V30 5976 C 573.123 -0.296974 4.2346 0
M  V30 5977 C 571.03 1.526 5.71373 0
M  V30 5978 H 569.96 0.0384254 0.75302 0
M  V30 5979 H 572.611 0.773262 1.66412 0
M  V30 5980 H 570.993 -0.57617 3.91786 0
M  V30 5981 H 572.167 2.28156 4.00352 0
M  V30 5982 H 570.482 1.92279 3.69348 0
M  V30 5983 H 573.079 -0.320712 5.33737 0
M  V30 5984 H 573.422 -1.32145 3.9477 0
M  V30 5985 H 573.955 0.377279 3.96007 0
M  V30 5986 H 570.694 2.52837 6.04776 0
M  V30 5987 H 570.214 0.819064 5.94181 0
M  V30 5988 H 571.893 1.25357 6.3474 0
M  V30 5989 N 572.025 -1.5352 0.356285 0
M  V30 5990 C 572.935 -2.29151 -0.502712 0
M  V30 5991 C 573.951 -1.34753 -1.1008 0
M  V30 5992 O 575.127 -1.67803 -1.11374 0
M  V30 5993 C 572.192 -3.05911 -1.63154 0
M  V30 5994 C 571.253 -4.15958 -1.06194 0
M  V30 5995 C 570.486 -4.8905 -2.13696 0
M  V30 5996 O 570.709 -4.61919 -3.34645 0
M  V30 5997 O 569.643 -5.75202 -1.77275 0
M  V30 5998 H 573.469 -3.03492 0.112466 0
M  V30 5999 H 571.054 -1.4891 0.120942 0
M  V30 6000 H 572.936 -3.53874 -2.28804 0
M  V30 6001 H 571.611 -2.34415 -2.23229 0
M  V30 6002 H 570.518 -3.7227 -0.369603 0
M  V30 6003 H 571.851 -4.89593 -0.505872 0
M  V30 6004 N 573.503 -0.0852151 -1.57369 0
M  V30 6005 C 574.919 0.271436 -1.57275 0
M  V30 6006 C 575.119 1.69109 -1.09565 0
M  V30 6007 O 574.175 2.40549 -0.767611 0
M  V30 6008 C 575.488 0.0688638 -3.00621 0
M  V30 6009 C 577.036 0.137373 -3.12698 0
M  V30 6010 C 577.511 -0.0370832 -4.57985 0
M  V30 6011 N 579.002 0.0180794 -4.63196 0
M  V30 6012 C 579.737 -0.0922953 -5.73326 0
M  V30 6013 N 579.233 -0.256948 -6.92323 0
M  V30 6014 N 581.026 -0.0342702 -5.6209 0
M  V30 6015 H 573.177 -1.01288 -1.86693 0
M  V30 6016 H 575.44 -0.396138 -0.861266 0
M  V30 6017 H 575.146 -0.911277 -3.39689 0
M  V30 6018 H 575.02 0.815442 -3.6828 0
M  V30 6019 H 577.407 1.10801 -2.73509 0
M  V30 6020 H 577.488 -0.640532 -2.47651 0
M  V30 6021 H 577.132 -1.00455 -4.97867 0
M  V30 6022 H 577.062 0.760392 -5.21081 0
M  V30 6023 H 579.553 0.143202 -3.77629 0
M  V30 6024 H 579.866 -0.332949 -7.72082 0
M  V30 6025 H 578.211 -0.292487 -6.94384 0
M  V30 6026 H 581.402 0.0931605 -4.68007 0
M  V30 6027 H 581.575 -0.12374 -6.47882 0
M  V30 6028 N 574.981 1.5647 0.188427 0
M  V30 6029 C 575.914 1.90146 1.26173 0
M  V30 6030 C 576.892 0.762294 1.43624 0
M  V30 6031 O 578.076 1.01395 1.58907 0
M  V30 6032 C 575.203 2.13748 2.62735 0
M  V30 6033 C 574.249 3.36448 2.62116 0
M  V30 6034 S 575.082 4.91364 2.12889 0
M  V30 6035 C 576.238 5.18041 3.51261 0
M  V30 6036 H 576.471 2.80886 0.974192 0
M  V30 6037 H 574.004 1.49335 0.392226 0
M  V30 6038 H 575.962 2.28028 3.41341 0
M  V30 6039 H 574.623 1.23747 2.88696 0
M  V30 6040 H 573.816 3.50109 3.62546 0
M  V30 6041 H 573.418 3.21196 1.91596 0
M  V30 6042 H 575.71 5.0897 4.47164 0
M  V30 6043 H 576.653 6.19764 3.42489 0
M  V30 6044 H 577.061 4.45657 3.46482 0
M  V30 6045 N 576.459 -0.456382 1.50847 0
M  V30 6046 C 577.407 -1.57318 1.71329 0
M  V30 6047 C 578.401 -1.59187 0.579287 0
M  V30 6048 O 579.607 -1.6316 0.76018 0
M  V30 6049 H 575.982 -0.5223 0.541024 0
M  V30 6050 H 577.953 -1.3721 2.64983 0
M  V30 6051 C 576.702 -2.95142 1.83811 0
M  V30 6052 H 576.025 -2.94428 2.70467 0
M  V30 6053 H 577.465 -3.72702 2.02161 0
M  V30 6054 C 575.924 -3.31636 0.593224 0
M  V30 6055 O 576.454 -4.00852 -0.260898 0
M  V30 6056 N 574.66 -2.87205 0.442902 0
M  V30 6057 H 574.207 -2.31051 1.13901 0
M  V30 6058 H 574.165 -3.11986 -0.38884 0
M  V30 6059 N 577.937 -1.40673 -0.710563 0
M  V30 6060 C 579.167 -1.4234 -1.49742 0
M  V30 6061 C 579.575 -0.022821 -1.89186 0
M  V30 6062 O 578.918 0.964773 -1.56326 0
M  V30 6063 C 578.98 -2.25509 -2.79975 0
M  V30 6064 C 578.644 -3.73862 -2.62824 0
M  V30 6065 C 579.641 -4.66379 -2.29752 0
M  V30 6066 C 577.326 -4.17735 -2.78932 0
M  V30 6067 C 579.32 -6.00756 -2.13006 0
M  V30 6068 C 577.007 -5.5218 -2.61802 0
M  V30 6069 C 578.005 -6.43505 -2.28888 0
M  V30 6070 O 577.693 -7.75472 -2.11894 0
M  V30 6071 H 577.425 -0.487311 -0.468513 0
M  V30 6072 H 579.979 -1.8542 -0.883668 0
M  V30 6073 H 578.209 -1.77218 -3.43701 0
M  V30 6074 H 579.898 -2.19058 -3.41714 0
M  V30 6075 H 580.664 -4.33778 -2.16936 0
M  V30 6076 H 576.543 -3.46967 -3.03537 0
M  V30 6077 H 580.087 -6.72003 -1.87237 0
M  V30 6078 H 575.984 -5.84365 -2.74204 0
M  V30 6079 H 576.752 -7.86458 -2.26775 0
M  V30 6080 N 579.415 0.9433 -1.26252 0
M  V30 6081 C 580.664 1.68369 -1.11062 0
M  V30 6082 C 580.977 1.92514 0.346104 0
M  V30 6083 O 582.183 2.64358 0.618646 0
M  V30 6084 C 580.639 3.03171 -1.93946 0
M  V30 6085 C 580.247 2.86782 -3.4418 0
M  V30 6086 C 581.991 3.80916 -1.87359 0
M  V30 6087 C 579.898 4.17044 -4.19319 0
M  V30 6088 H 578.828 0.631469 -0.412023 0
M  V30 6089 H 581.479 1.04922 -1.50544 0
M  V30 6090 H 579.861 3.67587 -1.47296 0
M  V30 6091 H 581.035 2.31229 -3.98585 0
M  V30 6092 H 579.35 2.22482 -3.51981 0
M  V30 6093 H 581.947 4.77417 -2.40784 0
M  V30 6094 H 582.29 4.07658 -0.843857 0
M  V30 6095 H 582.823 3.2327 -2.31821 0
M  V30 6096 H 579.562 3.95487 -5.22753 0
M  V30 6097 H 579.082 4.72319 -3.69696 0
M  V30 6098 H 580.761 4.85513 -4.27651 0
M  V30 6099 N 580.893 1.08022 1.14757 0
M  V30 6100 C 581.843 0.676345 2.17737 0
M  V30 6101 C 582.827 -0.302018 1.5804 0
M  V30 6102 O 584.019 -0.11466 1.76628 0
M  V30 6103 C 581.148 0.082984 3.432 0
M  V30 6104 C 580.234 1.0869 4.09936 0
M  V30 6105 N 580.625 2.26891 4.52055 0
M  V30 6106 C 578.923 0.921768 4.36371 0
M  V30 6107 C 579.624 2.90636 5.0389 0
M  V30 6108 N 578.6 2.18266 4.97856 0
M  V30 6109 H 582.402 1.5765 2.4804 0
M  V30 6110 H 579.916 0.954374 1.31398 0
M  V30 6111 H 581.913 -0.224289 4.16296 0
M  V30 6112 H 580.573 -0.812206 3.14378 0
M  V30 6113 H 581.584 2.6457 4.45223 0
M  V30 6114 H 578.261 0.0800499 4.17423 0
M  V30 6115 H 579.651 3.9104 5.46386 0
M  V30 6116 N 582.371 -1.3172 0.865308 0
M  V30 6117 C 583.787 -1.4958 0.556596 0
M  V30 6118 C 583.987 -1.79763 -0.910353 0
M  V30 6119 O 583.043 -1.87351 -1.6928 0
M  V30 6120 C 584.356 -2.63277 1.45279 0
M  V30 6121 C 585.904 -2.77161 1.45433 0
M  V30 6122 C 586.379 -3.93949 2.33598 0
M  V30 6123 N 587.87 -4.01228 2.31453 0
M  V30 6124 C 588.605 -4.90855 2.96393 0
M  V30 6125 N 588.101 -5.85416 3.70486 0
M  V30 6126 N 589.894 -4.84063 2.85726 0
M  V30 6127 H 582.045 -1.10396 1.81456 0
M  V30 6128 H 584.308 -0.54507 0.775631 0
M  V30 6129 H 584.014 -2.47734 2.49641 0
M  V30 6130 H 583.888 -3.59309 1.14792 0
M  V30 6131 H 586.275 -2.9212 0.41831 0
M  V30 6132 H 586.356 -1.8181 1.79941 0
M  V30 6133 H 586 -3.79748 3.37274 0
M  V30 6134 H 585.93 -4.88598 1.96417 0
M  V30 6135 H 588.421 -3.3357 1.77593 0
M  V30 6136 H 588.734 -6.50525 4.17178 0
M  V30 6137 H 587.079 -5.85409 3.74594 0
M  V30 6138 H 590.27 -4.09163 2.27384 0
M  V30 6139 H 590.443 -5.53708 3.36617 0
M  V30 6140 N 583.85 -0.624285 -1.44708 0
M  V30 6141 C 585.127 -0.0572781 -1.95516 0
M  V30 6142 C 585.507 1.41516 -1.56641 0
M  V30 6143 O 584.855 2.12614 -0.837111 0
M  V30 6144 C 585.065 -0.272944 -3.47931 0
M  V30 6145 C 586.413 -0.162529 -4.24289 0
M  V30 6146 O 587.437 -0.203946 -3.55616 0
M  V30 6147 O 586.296 -0.0616847 -5.46465 0
M  V30 6148 H 583.389 0.0262219 -0.826584 0
M  V30 6149 H 585.936 -0.695512 -1.54793 0
M  V30 6150 H 584.707 -1.29492 -3.69253 0
M  V30 6151 H 584.331 0.399756 -3.95585 0
M  V30 6152 N 585.328 1.53329 -0.364422 0
M  V30 6153 C 586.258 2.28627 0.474543 0
M  V30 6154 C 587.239 1.31009 1.08492 0
M  V30 6155 O 588.424 1.59878 1.10239 0
M  V30 6156 C 585.554 3.07465 1.61501 0
M  V30 6157 C 584.508 4.1276 1.13194 0
M  V30 6158 C 583.834 4.79674 2.36255 0
M  V30 6159 C 585.134 5.21847 0.217507 0
M  V30 6160 H 586.828 2.99005 -0.153656 0
M  V30 6161 H 584.374 1.43803 -0.0753406 0
M  V30 6162 H 586.327 3.58889 2.20855 0
M  V30 6163 H 585.051 2.34775 2.27042 0
M  V30 6164 H 583.71 3.62281 0.56109 0
M  V30 6165 H 583.358 4.03557 3.00251 0
M  V30 6166 H 583.058 5.50827 2.04606 0
M  V30 6167 H 584.582 5.33892 2.96297 0
M  V30 6168 H 585.996 5.6878 0.718493 0
M  V30 6169 H 584.393 6.00099 -0.00806408 0
M  V30 6170 H 585.463 4.7921 -0.740653 0
M  V30 6171 N 586.806 0.0935595 1.57322 0
M  V30 6172 C 588.222 -0.263091 1.57417 0
M  V30 6173 C 588.422 -1.68526 1.1046 0
M  V30 6174 O 587.478 -2.40139 0.780357 0
M  V30 6175 C 588.791 -0.0529201 3.00653 0
M  V30 6176 C 590.339 -0.120788 3.12767 0
M  V30 6177 C 590.814 0.0613707 4.57959 0
M  V30 6178 N 592.305 0.00648534 4.632 0
M  V30 6179 C 593.04 0.122699 5.73269 0
M  V30 6180 N 592.536 0.29366 6.92177 0
M  V30 6181 N 594.329 0.0640787 5.62063 0
M  V30 6182 H 586.48 1.02277 1.86154 0
M  V30 6183 H 588.743 0.4007 0.859153 0
M  V30 6184 H 588.449 0.929279 3.39201 0
M  V30 6185 H 588.323 -0.795899 3.68708 0
M  V30 6186 H 590.71 -1.09349 2.74093 0
M  V30 6187 H 590.791 0.653656 2.47307 0
M  V30 6188 H 590.435 1.03093 4.97327 0
M  V30 6189 H 590.365 -0.732748 5.21477 0
M  V30 6190 H 592.856 -0.123173 3.77699 0
M  V30 6191 H 593.169 0.37389 7.71895 0
M  V30 6192 H 591.514 0.329307 6.94219 0
M  V30 6193 H 594.705 -0.0683396 4.6805 0
M  V30 6194 H 594.878 0.158097 6.47807 0
M  V30 6195 N 588.284 -1.56567 -0.180126 0
M  V30 6196 C 589.247 -1.94852 -1.20686 0
M  V30 6197 C 590.247 -0.831212 -1.3765 0
M  V30 6198 O 591.437 -1.09841 -1.35206 0
M  V30 6199 C 588.569 -2.23565 -2.57355 0
M  V30 6200 H 589.762 -2.86722 -0.879225 0
M  V30 6201 H 587.315 -1.50489 -0.422237 0
M  V30 6202 H 588.05 -1.34381 -2.95148 0
M  V30 6203 H 587.835 -3.04999 -2.46411 0
M  V30 6204 H 589.325 -2.54137 -3.31367 0
M  V30 6205 N 589.762 0.448376 -1.51087 0
M  V30 6206 C 590.725 1.52588 -1.71025 0
M  V30 6207 C 591.725 1.49958 -0.580442 0
M  V30 6208 O 592.915 1.52176 -0.847833 0
M  V30 6209 C 590.047 2.92163 -1.75652 0
M  V30 6210 H 591.24 1.36218 -2.67179 0
M  V30 6211 H 588.793 0.676313 -1.4091 0
M  V30 6212 H 589.528 3.13951 -0.812724 0
M  V30 6213 H 589.313 2.95478 -2.57751 0
M  V30 6214 H 590.803 3.70349 -1.92953 0
M  V30 6215 N 591.24 1.41047 0.703093 0
M  V30 6216 C 592.188 1.42494 1.83843 0
M  V30 6217 C 593.182 0.303885 1.66652 0
M  V30 6218 O 594.388 0.475544 1.73605 0
M  V30 6219 H 590.763 0.445685 0.605697 0
M  V30 6220 H 592.734 2.38194 1.79739 0
M  V30 6221 C 591.483 1.31666 3.21807 0
M  V30 6222 H 590.806 2.17212 3.35647 0
M  V30 6223 H 592.246 1.36738 4.01346 0
M  V30 6224 C 590.705 0.0281828 3.36888 0
M  V30 6225 O 591.235 -0.929995 3.90786 0
M  V30 6226 N 589.441 -0.0454322 2.90564 0
M  V30 6227 H 588.988 0.735046 2.4689 0
M  V30 6228 H 588.946 -0.906968 3.01034 0
M  V30 6229 N 592.718 -0.936591 1.26751 0
M  V30 6230 C 593.967 -1.67778 1.11953 0
M  V30 6231 C 594.28 -1.92694 -0.33589 0
M  V30 6232 O 595.486 -2.64682 -0.604618 0
M  V30 6233 C 593.942 -3.02138 1.95551 0
M  V30 6234 C 593.55 -2.84953 3.45696 0
M  V30 6235 C 595.294 -3.79917 1.89377 0
M  V30 6236 C 593.201 -4.14814 4.21525 0
M  V30 6237 H 592.131 -0.629275 0.415366 0
M  V30 6238 H 594.782 -1.04122 1.51099 0
M  V30 6239 H 593.164 -3.668 1.49243 0
M  V30 6240 H 594.338 -2.29112 3.99805 0
M  V30 6241 H 592.653 -2.20612 3.53156 0
M  V30 6242 H 595.25 -4.76134 2.43312 0
M  V30 6243 H 595.593 -4.07204 0.865464 0
M  V30 6244 H 596.126 -3.22037 2.33532 0
M  V30 6245 H 592.865 -3.92709 5.24843 0
M  V30 6246 H 592.385 -4.70352 3.72195 0
M  V30 6247 H 594.064 -4.83239 4.3022 0
M  V30 6248 N 594.196 -1.08629 -1.14182 0
M  V30 6249 C 595.126 -0.740003 -2.21464 0
M  V30 6250 C 596.107 0.278591 -1.67803 0
M  V30 6251 O 597.292 0.148461 -1.93632 0
M  V30 6252 C 594.422 -0.150952 -3.46972 0
M  V30 6253 C 593.376 -1.09815 -4.13672 0
M  V30 6254 C 592.702 -0.3712 -5.3341 0
M  V30 6255 C 594.002 -2.43722 -4.61949 0
M  V30 6256 H 595.696 -1.63697 -2.50686 0
M  V30 6257 H 593.242 -0.788526 -1.20492 0
M  V30 6258 H 595.195 0.103325 -4.21273 0
M  V30 6259 H 593.919 0.781164 -3.1712 0
M  V30 6260 H 592.578 -1.33756 -3.41328 0
M  V30 6261 H 592.226 0.564792 -4.99819 0
M  V30 6262 H 591.926 -1.00267 -5.78982 0
M  V30 6263 H 593.45 -0.12503 -6.10472 0
M  V30 6264 H 594.864 -2.24034 -5.27714 0
M  V30 6265 H 593.261 -3.02582 -5.18232 0
M  V30 6266 H 594.331 -3.05082 -3.76899 0
M  V30 6267 N 595.674 1.31259 -0.872281 0
M  V30 6268 C 596.92 1.96913 -0.485083 0
M  V30 6269 C 597.253 1.68774 0.960667 0
M  V30 6270 O 596.528 0.985495 1.67685 0
M  V30 6271 C 596.811 3.52299 -0.745502 0
M  V30 6272 C 596.664 3.90002 -2.24095 0
M  V30 6273 C 597.983 4.39582 -0.213516 0
M  V30 6274 H 595.102 0.715252 -0.177716 0
M  V30 6275 H 597.744 1.55347 -1.09395 0
M  V30 6276 H 595.894 3.87835 -0.227276 0
M  V30 6277 H 597.566 3.64555 -2.82661 0
M  V30 6278 H 595.809 3.38526 -2.71261 0
M  V30 6279 H 596.48 4.98352 -2.37381 0
M  V30 6280 H 598.956 4.10882 -0.656902 0
M  V30 6281 H 597.832 5.47251 -0.42516 0
M  V30 6282 H 598.093 4.33158 0.884666 0
M  V30 6283 N 597.152 0.631951 1.44375 0
M  V30 6284 C 598.4 0.136497 2.01639 0
M  V30 6285 C 598.721 -1.24637 1.49969 0
M  V30 6286 O 597.991 -1.82827 0.70363 0
M  V30 6287 H 596.571 0.0474703 0.74549 0
M  V30 6288 H 599.233 0.818837 1.76865 0
M  V30 6289 H 598.329 0.104817 3.11924 0
M  V30 6290 N 598.631 -1.53133 0.372548 0
M  V30 6291 C 599.541 -2.29671 -0.478379 0
M  V30 6292 C 600.557 -1.35913 -1.08644 0
M  V30 6293 O 601.733 -1.68975 -1.09588 0
M  V30 6294 C 598.798 -3.07625 -1.599 0
M  V30 6295 C 597.859 -4.17061 -1.01776 0
M  V30 6296 C 597.092 -4.91289 -2.08497 0
M  V30 6297 O 597.315 -4.65442 -3.29727 0
M  V30 6298 O 596.249 -5.7705 -1.71164 0
M  V30 6299 H 600.075 -3.03355 0.144649 0
M  V30 6300 H 597.66 -1.48773 0.136729 0
M  V30 6301 H 599.542 -3.56281 -2.25038 0
M  V30 6302 H 598.217 -2.3677 -2.2073 0
M  V30 6303 H 597.124 -3.72641 -0.330098 0
M  V30 6304 H 598.457 -4.90102 -0.453915 0
M  V30 6305 N 600.109 -0.101901 -1.5727 0
M  V30 6306 C 601.057 0.872034 -2.15635 0
M  V30 6307 C 602.051 1.28742 -1.10099 0
M  V30 6308 O 603.257 1.26116 -1.28432 0
M  V30 6309 H 599.632 0.299269 -0.689886 0
M  V30 6310 H 601.603 0.355137 -2.96279 0
M  V30 6311 C 600.352 2.11886 -2.7568 0
M  V30 6312 H 599.675 1.80813 -3.56576 0
M  V30 6313 H 601.115 2.78077 -3.20077 0
M  V30 6314 C 599.574 2.89739 -1.7191 0
M  V30 6315 O 600.104 3.84522 -1.16213 0
M  V30 6316 N 598.31 2.53407 -1.42245 0
M  V30 6317 H 597.857 1.76398 -1.87727 0
M  V30 6318 H 597.815 3.05795 -0.730529 0
M  V30 6319 N 601.587 1.56661 0.17182 0
M  V30 6320 C 602.517 1.99401 1.21498 0
M  V30 6321 C 603.498 0.869516 1.46197 0
M  V30 6322 O 604.683 1.13556 1.57539 0
M  V30 6323 C 601.813 2.35346 2.55401 0
M  V30 6324 C 600.767 3.5075 2.45272 0
M  V30 6325 C 600.093 3.72437 3.8366 0
M  V30 6326 C 601.393 4.84216 1.95787 0
M  V30 6327 H 603.087 2.86792 0.859699 0
M  V30 6328 H 600.633 1.37977 0.412103 0
M  V30 6329 H 602.586 2.63843 3.2858 0
M  V30 6330 H 601.31 1.44864 2.92715 0
M  V30 6331 H 599.969 3.2238 1.74547 0
M  V30 6332 H 599.617 2.79246 4.18367 0
M  V30 6333 H 599.317 4.50087 3.77751 0
M  V30 6334 H 600.841 4.03334 4.58426 0
M  V30 6335 H 602.255 5.11592 2.5874 0
M  V30 6336 H 600.652 5.65498 2.00827 0
M  V30 6337 H 601.722 4.76243 0.912159 0
M  V30 6338 N 603.065 -0.440357 1.51323 0
M  V30 6339 C 604.311 -1.19181 1.64085 0
M  V30 6340 C 604.644 -1.90936 0.354575 0
M  V30 6341 O 603.919 -1.8347 -0.645675 0
M  V30 6342 C 604.202 -2.2112 2.84215 0
M  V30 6343 C 604.055 -1.53468 4.22809 0
M  V30 6344 C 605.374 -3.22133 2.99864 0
M  V30 6345 H 602.493 -0.431924 0.597169 0
M  V30 6346 H 605.135 -0.481443 1.83799 0
M  V30 6347 H 603.285 -2.81703 2.67537 0
M  V30 6348 H 604.957 -0.962455 4.51148 0
M  V30 6349 H 603.2 -0.837086 4.25647 0
M  V30 6350 H 603.871 -2.27694 5.02852 0
M  V30 6351 H 606.347 -2.71601 3.15233 0
M  V30 6352 H 605.223 -3.90756 3.85488 0
M  V30 6353 H 605.484 -3.88061 2.11804 0
M  V30 6354 N 604.543 -1.41418 -0.695603 0
M  V30 6355 C 605.783 -1.42241 -1.46788 0
M  V30 6356 C 606.147 -0.0300827 -1.91976 0
M  V30 6357 O 607.348 0.0868914 -2.6866 0
M  V30 6358 C 605.619 -2.4011 -2.6473 0
M  V30 6359 S 607.178 -2.59462 -3.53871 0
M  V30 6360 H 603.996 -0.503893 -0.50161 0
M  V30 6361 H 606.598 -1.77855 -0.811654 0
M  V30 6362 H 605.302 -3.40073 -2.29736 0
M  V30 6363 H 604.833 -2.05849 -3.35246 0
M  V30 6364 H 606.848 -1.862 -4.59939 0
M  V30 6365 N 606.021 0.929856 -1.27246 0
M  V30 6366 C 606.968 2.03017 -1.09785 0
M  V30 6367 C 607.938 1.661 0.000456744 0
M  V30 6368 O 609.123 1.90116 -0.161462 0
M  V30 6369 C 606.263 3.36878 -0.748816 0
M  V30 6370 C 605.376 3.86763 -1.92453 0
M  V30 6371 C 604.511 5.09061 -1.51758 0
M  V30 6372 C 603.55 5.51237 -2.66091 0
M  V30 6373 N 602.687 6.64732 -2.25999 0
M  V30 6374 H 607.527 2.17285 -2.03939 0
M  V30 6375 H 605.064 1.06448 -1.01524 0
M  V30 6376 H 607.022 4.13855 -0.527283 0
M  V30 6377 H 605.652 3.22424 0.155771 0
M  V30 6378 H 604.704 3.06086 -2.25867 0
M  V30 6379 H 606.016 4.13994 -2.78227 0
M  V30 6380 H 605.17 5.93532 -1.25716 0
M  V30 6381 H 603.909 4.83602 -0.630896 0
M  V30 6382 H 602.914 4.65316 -2.92849 0
M  V30 6383 H 604.139 5.78692 -3.55377 0
M  V30 6384 H 602.085 6.40935 -1.3978 0
M  V30 6385 H 602.002 6.91607 -3.05313 0
M  V30 6386 H 603.27 7.52549 -2.03199 0
M  V30 6387 N 607.499 1.09233 1.13605 0
M  V30 6388 C 608.748 0.82205 1.84188 0
M  V30 6389 C 609.061 -0.654548 1.84323 0
M  V30 6390 O 610.267 -1.04029 2.50779 0
M  V30 6391 C 608.723 1.42066 3.30674 0
M  V30 6392 C 608.331 2.92965 3.38933 0
M  V30 6393 C 610.075 1.22924 4.06313 0
M  V30 6394 C 607.982 3.45922 4.79679 0
M  V30 6395 H 606.912 0.303854 0.690064 0
M  V30 6396 H 609.563 1.31479 1.28006 0
M  V30 6397 H 607.945 0.855613 3.86646 0
M  V30 6398 H 609.119 3.55679 2.92966 0
M  V30 6399 H 607.434 3.11118 2.76757 0
M  V30 6400 H 610.031 1.59945 5.10217 0
M  V30 6401 H 610.374 0.169726 4.15954 0
M  V30 6402 H 610.907 1.76168 3.56665 0
M  V30 6403 H 607.646 4.51484 4.75229 0
M  V30 6404 H 607.166 2.87971 5.26149 0
M  V30 6405 H 608.845 3.43009 5.48592 0
M  V30 6406 N 608.977 -1.30795 0.87923 0
M  V30 6407 C 609.94 -2.26563 0.346676 0
M  V30 6408 C 610.94 -1.52578 -0.507597 0
M  V30 6409 O 612.13 -1.71318 -0.315575 0
M  V30 6410 C 609.262 -3.37115 -0.506611 0
M  V30 6411 H 610.455 -2.75183 1.19223 0
M  V30 6412 H 608.008 -1.41886 0.655598 0
M  V30 6413 H 608.743 -2.93802 -1.37299 0
M  V30 6414 H 608.528 -3.91959 0.105218 0
M  V30 6415 H 610.018 -4.08412 -0.871192 0
M  V30 6416 N 610.455 -0.639598 -1.44038 0
M  V30 6417 C 611.732 -0.078012 -1.95444 0
M  V30 6418 C 612.112 1.39847 -1.58133 0
M  V30 6419 O 611.46 2.11714 -0.859614 0
M  V30 6420 C 611.67 -0.309832 -3.47622 0
M  V30 6421 C 613.018 -0.207521 -4.24093 0
M  V30 6422 O 614.042 -0.241653 -3.55379 0
M  V30 6423 O 612.901 -0.119641 -5.46369 0
M  V30 6424 H 609.995 0.0174534 -0.826816 0
M  V30 6425 H 612.541 -0.711891 -1.54046 0
M  V30 6426 H 611.313 -1.33401 -3.67858 0
M  V30 6427 H 610.936 0.357777 -3.95987 0
M  V30 6428 N 611.933 1.52934 -0.380664 0
M  V30 6429 C 613.18 2.01467 0.204278 0
M  V30 6430 C 613.508 1.26744 1.47533 0
M  V30 6431 O 612.763 0.353723 1.92477 0
M  V30 6432 C 613.062 3.5349 0.527199 0
M  V30 6433 C 612.728 4.46171 -0.651295 0
M  V30 6434 C 611.39 4.71227 -0.974619 0
M  V30 6435 C 613.742 5.00909 -1.44012 0
M  V30 6436 C 611.07 5.4827 -2.08847 0
M  V30 6437 C 613.422 5.7917 -2.5445 0
M  V30 6438 C 612.086 6.02507 -2.87301 0
M  V30 6439 H 611.356 0.73722 0.0747504 0
M  V30 6440 H 614.003 1.84411 -0.516234 0
M  V30 6441 H 612.308 3.68574 1.32892 0
M  V30 6442 H 614.005 3.88529 0.992283 0
M  V30 6443 H 610.595 4.26829 -0.389276 0
M  V30 6444 H 614.779 4.81485 -1.20357 0
M  V30 6445 H 610.035 5.64567 -2.34679 0
M  V30 6446 H 614.209 6.20588 -3.1598 0
M  V30 6447 H 611.836 6.61989 -3.7373 0
M  V30 6448 N 613.412 0.11024 1.57214 0
M  V30 6449 C 614.66 -0.548783 1.94506 0
M  V30 6450 C 614.981 -1.67772 0.99386 0
M  V30 6451 O 614.251 -1.9584 0.0485841 0
M  V30 6452 H 612.831 -0.205715 0.718116 0
M  V30 6453 H 615.493 0.177127 1.94093 0
M  V30 6454 H 614.589 -0.949096 2.97319 0
M  V30 6455 N 614.89 -1.56749 -0.16351 0
M  V30 6456 C 615.82 -2.00042 -1.20438 0
M  V30 6457 C 616.801 -0.877256 -1.45733 0
M  V30 6458 O 617.986 -1.1439 -1.56935 0
M  V30 6459 C 615.116 -2.36697 -2.54149 0
M  V30 6460 C 614.07 -3.52046 -2.43408 0
M  V30 6461 C 613.396 -3.74466 -3.81679 0
M  V30 6462 C 614.696 -4.85247 -1.93216 0
M  V30 6463 H 616.39 -2.87244 -0.844477 0
M  V30 6464 H 613.936 -1.38194 -0.40478 0
M  V30 6465 H 615.889 -2.65582 -3.27176 0
M  V30 6466 H 614.613 -1.46414 -2.91943 0
M  V30 6467 H 613.272 -3.23301 -1.72834 0
M  V30 6468 H 612.92 -2.81461 -4.1688 0
M  V30 6469 H 612.62 -4.52084 -3.75359 0
M  V30 6470 H 614.144 -4.0576 -4.5628 0
M  V30 6471 H 615.558 -5.12957 -2.56023 0
M  V30 6472 H 613.955 -5.66556 -1.97825 0
M  V30 6473 H 615.025 -4.7672 -0.88689 0
M  V30 6474 N 616.368 0.432326 -1.51554 0
M  V30 6475 C 617.331 1.50765 -1.72634 0
M  V30 6476 C 618.331 1.49334 -0.596314 0
M  V30 6477 O 619.521 1.51268 -0.863925 0
M  V30 6478 C 616.653 2.90284 -1.7874 0
M  V30 6479 H 617.846 1.33377 -2.68609 0
M  V30 6480 H 615.399 0.661329 -1.4162 0
M  V30 6481 H 616.134 3.13071 -0.845977 0
M  V30 6482 H 615.919 2.92727 -2.6087 0
M  V30 6483 H 617.409 3.68282 -1.96871 0
M  V30 6484 N 617.846 1.41785 0.688094 0
M  V30 6485 C 619.262 1.24419 0.999608 0
M  V30 6486 C 619.462 0.138868 2.01021 0
M  V30 6487 O 618.518 -0.494283 2.47615 0
M  V30 6488 C 619.831 2.59625 1.51709 0
M  V30 6489 C 621.379 2.66869 1.63554 0
M  V30 6490 C 621.854 4.0241 2.18702 0
M  V30 6491 N 623.345 4.04295 2.26053 0
M  V30 6492 C 624.08 5.05977 2.69768 0
M  V30 6493 N 623.576 6.18047 3.13033 0
M  V30 6494 N 625.369 4.93336 2.69398 0
M  V30 6495 H 617.52 2.12392 0.0187427 0
M  V30 6496 H 619.783 0.945347 0.0708673 0
M  V30 6497 H 619.489 3.41297 0.849059 0
M  V30 6498 H 619.363 2.82628 2.49803 0
M  V30 6499 H 621.75 1.8555 2.29467 0
M  V30 6500 H 621.831 2.47668 0.639857 0
M  V30 6501 H 621.475 4.8418 1.53402 0
M  V30 6502 H 621.405 4.18955 3.19037 0
M  V30 6503 H 623.896 3.23383 1.9553 0
M  V30 6504 H 624.209 6.91498 3.45038 0
M  V30 6505 H 622.554 6.21572 3.10923 0
M  V30 6506 H 625.745 4.04865 2.34952 0
M  V30 6507 H 625.918 5.72717 3.03148 0
M  V30 6508 N 619.324 -0.923095 1.27737 0
M  V30 6509 C 620.254 -2.04124 1.13383 0
M  V30 6510 C 621.235 -1.70066 0.0340658 0
M  V30 6511 O 622.42 -1.93068 0.209383 0
M  V30 6512 C 619.55 -3.3831 0.785097 0
M  V30 6513 C 618.504 -3.86496 1.8386 0
M  V30 6514 C 617.83 -5.1754 1.34373 0
M  V30 6515 C 619.13 -4.09381 3.24353 0
M  V30 6516 H 620.824 -2.1639 2.06919 0
M  V30 6517 H 618.37 -1.03976 0.996243 0
M  V30 6518 H 620.323 -4.16016 0.671485 0
M  V30 6519 H 619.047 -3.2607 -0.185969 0
M  V30 6520 H 617.706 -3.10987 1.9412 0
M  V30 6521 H 617.354 -5.01696 0.361989 0
M  V30 6522 H 617.054 -5.50751 2.04811 0
M  V30 6523 H 618.578 -5.97811 1.24315 0
M  V30 6524 H 619.992 -4.77641 3.17067 0
M  V30 6525 H 618.389 -4.53906 3.92542 0
M  V30 6526 H 619.459 -3.14515 3.69064 0
M  V30 6527 N 620.802 -1.09834 -1.13024 0
M  V30 6528 C 622.051 -0.831806 -1.83749 0
M  V30 6529 C 622.364 0.644763 -1.84668 0
M  V30 6530 O 623.57 1.02697 -2.51327 0
M  V30 6531 C 622.026 -1.43817 -3.29916 0
M  V30 6532 C 621.634 -2.94759 -3.37374 0
M  V30 6533 C 623.378 -1.25077 -4.05655 0
M  V30 6534 C 621.285 -3.48461 -4.77838 0
M  V30 6535 H 620.215 -0.30751 -0.688443 0
M  V30 6536 H 622.866 -1.32156 -1.27307 0
M  V30 6537 H 621.248 -0.876106 -3.86187 0
M  V30 6538 H 622.422 -3.57228 -2.91076 0
M  V30 6539 H 620.737 -3.12581 -2.75103 0
M  V30 6540 H 623.334 -1.62649 -5.09362 0
M  V30 6541 H 623.677 -0.191782 -4.15858 0
M  V30 6542 H 624.21 -1.78057 -3.55725 0
M  V30 6543 H 620.949 -4.53998 -4.72828 0
M  V30 6544 H 620.469 -2.90757 -5.24615 0
M  V30 6545 H 622.148 -3.45914 -5.46766 0
M  V30 6546 N 622.28 1.30327 -0.886154 0
M  V30 6547 C 623.19 2.31854 -0.357866 0
M  V30 6548 C 624.206 1.65392 0.540502 0
M  V30 6549 O 625.382 1.96683 0.433339 0
M  V30 6550 C 622.447 3.44171 0.417999 0
M  V30 6551 C 621.508 4.26257 -0.510263 0
M  V30 6552 C 620.741 5.3321 0.228669 0
M  V30 6553 O 620.964 5.51542 1.45458 0
M  V30 6554 O 619.898 6.0042 -0.421832 0
M  V30 6555 H 623.724 2.78995 -1.19982 0
M  V30 6556 H 621.309 1.34518 -0.650028 0
M  V30 6557 H 623.191 4.12588 0.857251 0
M  V30 6558 H 621.866 2.99164 1.23623 0
M  V30 6559 H 620.773 3.60533 -0.99835 0
M  V30 6560 H 622.106 4.74871 -1.29454 0
M  V30 6561 N 623.758 0.647228 1.43697 0
M  V30 6562 C 625.035 0.0883758 1.954 0
M  V30 6563 C 625.415 -1.39006 1.58873 0
M  V30 6564 O 624.763 -2.11255 0.87083 0
M  V30 6565 C 624.973 0.328263 3.47453 0
M  V30 6566 C 626.321 0.230009 4.23977 0
M  V30 6567 O 627.345 0.260496 3.55246 0
M  V30 6568 O 626.204 0.148615 5.46298 0
M  V30 6569 H 623.298 -0.0130683 0.826897 0
M  V30 6570 H 625.844 0.72005 1.53666 0
M  V30 6571 H 624.616 1.3535 3.67146 0
M  V30 6572 H 624.239 -0.336772 3.96171 0
M  V30 6573 N 625.236 -1.5273 0.388769 0
M  V30 6574 C 626.184 -2.27975 -0.461527 0
M  V30 6575 C 627.178 -1.31854 -1.06352 0
M  V30 6576 O 628.384 -1.49394 -1.00406 0
M  V30 6577 H 624.759 -0.733088 -0.16759 0
M  V30 6578 H 626.73 -2.97765 0.194579 0
M  V30 6579 C 625.479 -3.09881 -1.577 0
M  V30 6580 H 624.802 -3.83701 -1.12309 0
M  V30 6581 H 626.242 -3.6567 -2.14619 0
M  V30 6582 C 624.701 -2.22159 -2.53272 0
M  V30 6583 O 625.231 -1.84802 -3.56667 0
M  V30 6584 N 623.437 -1.8633 -2.23001 0
M  V30 6585 H 622.984 -2.16909 -1.38954 0
M  V30 6586 H 622.942 -1.27927 -2.87197 0
M  V30 6587 N 626.714 -0.118576 -1.57153 0
M  V30 6588 C 627.624 0.845484 -2.18835 0
M  V30 6589 C 628.64 1.29299 -1.16438 0
M  V30 6590 O 629.816 1.35607 -1.48905 0
M  V30 6591 C 626.881 2.07795 -2.77529 0
M  V30 6592 C 625.942 1.6824 -3.9496 0
M  V30 6593 C 625.175 2.85612 -4.50845 0
M  V30 6594 O 625.398 4.01025 -4.05629 0
M  V30 6595 O 624.332 2.62721 -5.41536 0
M  V30 6596 H 628.158 0.350568 -3.0167 0
M  V30 6597 H 625.743 0.107013 -1.49016 0
M  V30 6598 H 627.625 2.79978 -3.14945 0
M  V30 6599 H 626.3 2.56294 -1.97725 0
M  V30 6600 H 625.207 0.931663 -3.62313 0
M  V30 6601 H 626.54 1.24484 -4.76198 0
M  V30 6602 N 628.193 1.56834 0.155195 0
M  V30 6603 C 629.423 1.86778 0.883044 0
M  V30 6604 C 629.831 0.703824 1.75622 0
M  V30 6605 O 629.174 -0.33581 1.80605 0
M  V30 6606 C 629.236 3.1133 1.79761 0
M  V30 6607 C 628.9 4.43504 1.10242 0
M  V30 6608 C 629.897 5.17859 0.460204 0
M  V30 6609 C 627.582 4.90233 1.09437 0
M  V30 6610 C 629.576 6.37144 -0.180782 0
M  V30 6611 C 627.263 6.09444 0.449569 0
M  V30 6612 C 628.261 6.82744 -0.186888 0
M  V30 6613 O 627.949 7.99692 -0.821486 0
M  V30 6614 H 627.681 0.62352 0.261149 0
M  V30 6615 H 630.235 2.04813 0.155204 0
M  V30 6616 H 628.465 2.89282 2.56618 0
M  V30 6617 H 630.154 3.27587 2.39669 0
M  V30 6618 H 630.92 4.8283 0.458289 0
M  V30 6619 H 626.799 4.33109 1.57917 0
M  V30 6620 H 630.343 6.94296 -0.678154 0
M  V30 6621 H 626.24 6.43936 0.449123 0
M  V30 6622 H 627.008 8.15306 -0.722337 0
M  V30 6623 N 629.671 -0.424282 1.51781 0
M  V30 6624 C 630.899 -1.1947 1.68921 0
M  V30 6625 C 631.314 -1.84683 0.39213 0
M  V30 6626 O 630.671 -1.71261 -0.630554 0
M  V30 6627 C 630.722 -2.26909 2.81416 0
M  V30 6628 O 630.443 -1.64361 4.061 0
M  V30 6629 C 631.944 -3.16945 3.09937 0
M  V30 6630 H 629.164 -0.359591 0.566511 0
M  V30 6631 H 631.708 -0.501139 1.98265 0
M  V30 6632 H 629.863 -2.91959 2.54635 0
M  V30 6633 H 630.277 -2.35468 4.68674 0
M  V30 6634 H 631.751 -3.88437 3.922 0
M  V30 6635 H 632.228 -3.78451 2.22871 0
M  V30 6636 H 632.834 -2.57581 3.38426 0
M  V30 6637 N 631.149 -1.42148 -0.680565 0
M  V30 6638 C 632.112 -1.4488 -1.77602 0
M  V30 6639 C 633.112 -0.337209 -1.57224 0
M  V30 6640 O 634.302 -0.597778 -1.63622 0
M  V30 6641 C 631.434 -1.27483 -3.16166 0
M  V30 6642 H 632.627 -2.42412 -1.76568 0
M  V30 6643 H 630.18 -1.28511 -0.889645 0
M  V30 6644 H 630.915 -0.30851 -3.22829 0
M  V30 6645 H 630.7 -2.08037 -3.3236 0
M  V30 6646 H 632.19 -1.32265 -3.96101 0
M  V30 6647 N 632.627 0.916307 -1.28225 0
M  V30 6648 C 634.043 1.19425 -1.05876 0
M  V30 6649 C 634.243 2.005 0.2005 0
M  V30 6650 O 633.299 2.35806 0.902873 0
M  V30 6651 C 634.612 1.93133 -2.30478 0
M  V30 6652 C 636.16 2.06026 -2.35632 0
M  V30 6653 C 636.635 2.83141 -3.59994 0
M  V30 6654 N 638.126 2.90704 -3.60618 0
M  V30 6655 C 638.861 3.50865 -4.53521 0
M  V30 6656 N 638.357 4.12327 -5.56739 0
M  V30 6657 N 640.15 3.48379 -4.41122 0
M  V30 6658 H 632.301 0.37496 -2.09064 0
M  V30 6659 H 634.564 0.228531 -0.920042 0
M  V30 6660 H 634.27 1.40985 -3.22205 0
M  V30 6661 H 634.144 2.93696 -2.36691 0
M  V30 6662 H 636.531 2.57355 -1.44404 0
M  V30 6663 H 636.612 1.04647 -2.33415 0
M  V30 6664 H 636.256 2.32492 -4.51564 0
M  V30 6665 H 636.186 3.84829 -3.59464 0
M  V30 6666 H 638.677 2.47034 -2.85977 0
M  V30 6667 H 638.99 4.56205 -6.23776 0
M  V30 6668 H 637.335 4.10839 -5.60568 0
M  V30 6669 H 640.526 2.99572 -3.59686 0
M  V30 6670 H 640.699 3.94974 -5.13712 0
M  V30 6671 N 634.105 1.10431 1.1244 0
M  V30 6672 C 635.037 0.710945 2.17895 0
M  V30 6673 C 636.05 -0.252315 1.60833 0
M  V30 6674 O 637.239 -0.03679 1.78462 0
M  V30 6675 C 634.339 0.0284262 3.38888 0
M  V30 6676 C 633.512 1.01585 4.2544 0
M  V30 6677 C 632.571 0.364826 5.24934 0
M  V30 6678 O 631.597 1.01561 5.60066 0
M  V30 6679 N 632.799 -0.87674 5.73841 0
M  V30 6680 H 635.564 1.61826 2.52255 0
M  V30 6681 H 633.125 0.993132 1.27861 0
M  V30 6682 H 635.117 -0.418568 4.0253 0
M  V30 6683 H 633.687 -0.781294 3.02679 0
M  V30 6684 H 632.907 1.64111 3.58415 0
M  V30 6685 H 634.195 1.68425 4.80115 0
M  V30 6686 H 633.593 -1.42483 5.47462 0
M  V30 6687 H 632.15 -1.26688 6.39369 0
M  V30 6688 N 635.583 -1.29855 0.893053 0
M  V30 6689 C 636.831 -1.9544 0.514566 0
M  V30 6690 C 637.152 -1.70795 -0.940959 0
M  V30 6691 O 636.422 -1.03601 -1.66264 0
M  V30 6692 H 635.002 -0.723137 0.187302 0
M  V30 6693 H 637.664 -1.58234 1.13789 0
M  V30 6694 H 636.76 -3.04341 0.691581 0
M  V30 6695 N 637.061 -0.65484 -1.43351 0
M  V30 6696 C 638.024 0.0263562 -2.29185 0
M  V30 6697 C 639.024 0.748951 -1.42293 0
M  V30 6698 O 640.214 0.589957 -1.63906 0
M  V30 6699 C 637.346 1.04806 -3.2439 0
M  V30 6700 H 638.539 -0.728883 -2.90908 0
M  V30 6701 H 636.092 -0.416149 -1.50658 0
M  V30 6702 H 636.827 1.83247 -2.67565 0
M  V30 6703 H 636.612 0.533554 -3.88453 0
M  V30 6704 H 638.102 1.52372 -3.88809 0
M  V30 6705 N 638.539 1.52521 -0.396863 0
M  V30 6706 C 639.486 2.26671 0.434624 0
M  V30 6707 C 640.456 1.28584 1.05144 0
M  V30 6708 O 641.641 1.57426 1.07804 0
M  V30 6709 C 638.781 3.08234 1.55196 0
M  V30 6710 C 637.894 4.21261 0.957262 0
M  V30 6711 C 637.029 4.90205 2.04627 0
M  V30 6712 C 636.068 5.95213 1.42787 0
M  V30 6713 N 635.205 6.57723 2.45651 0
M  V30 6714 H 640.045 2.973 -0.204139 0
M  V30 6715 H 637.582 1.46669 -0.112505 0
M  V30 6716 H 639.54 3.53819 2.2106 0
M  V30 6717 H 638.17 2.398 2.16092 0
M  V30 6718 H 637.222 3.79935 0.188005 0
M  V30 6719 H 638.534 4.96624 0.465416 0
M  V30 6720 H 637.688 5.39133 2.78246 0
M  V30 6721 H 636.427 4.14383 2.57174 0
M  V30 6722 H 635.432 5.45616 0.676968 0
M  V30 6723 H 636.657 6.72972 0.910255 0
M  V30 6724 H 634.603 5.84737 2.97353 0
M  V30 6725 H 634.52 7.28723 2.01243 0
M  V30 6726 H 635.788 7.11293 3.18876 0
M  V30 6727 N 640.017 0.126909 1.57088 0
M  V30 6728 C 641.264 -0.529168 1.95464 0
M  V30 6729 C 641.592 -1.6618 1.01067 0
M  V30 6730 O 640.847 -1.95667 0.0360254 0
M  V30 6731 C 641.146 -1.095 3.40212 0
M  V30 6732 C 640.812 -0.0829015 4.50824 0
M  V30 6733 C 639.474 0.195377 4.80803 0
M  V30 6734 C 641.826 0.606411 5.1766 0
M  V30 6735 C 639.154 1.16912 5.74933 0
M  V30 6736 C 641.506 1.56884 6.12838 0
M  V30 6737 C 640.17 1.85502 6.41206 0
M  V30 6738 H 639.44 -0.193636 0.715252 0
M  V30 6739 H 642.087 0.209489 1.90351 0
M  V30 6740 H 640.392 -1.91058 3.42059 0
M  V30 6741 H 642.089 -1.61087 3.67222 0
M  V30 6742 H 638.679 -0.309979 4.27478 0
M  V30 6743 H 642.863 0.404597 4.94648 0
M  V30 6744 H 638.119 1.3975 5.95214 0
M  V30 6745 H 642.293 2.10859 6.6371 0
M  V30 6746 H 639.92 2.61109 7.13951 0
M  V30 6747 N 641.495 -1.56914 -0.146875 0
M  V30 6748 C 642.906 -1.72799 -0.706928 0
M  V30 6749 C 643.257 -0.741329 -1.81656 0
M  V30 6750 O 642.382 0.0920162 -2.16204 0
M  V30 6751 C 642.977 -3.13317 -1.28911 0
M  V30 6752 C 641.536 -3.30803 -1.79573 0
M  V30 6753 C 640.683 -2.68725 -0.684252 0
M  V30 6754 H 643.634 -1.58504 0.0787931 0
M  V30 6755 H 643.655 -3.13323 -2.15891 0
M  V30 6756 H 643.167 -3.85104 -0.481284 0
M  V30 6757 H 641.268 -2.64012 -2.62923 0
M  V30 6758 H 641.381 -4.38754 -1.92436 0
M  V30 6759 H 639.745 -2.29196 -1.11091 0
M  V30 6760 H 640.528 -3.43117 0.112134 0
M  V30 6761 N 642.974 0.416227 -1.52004 0
M  V30 6762 C 644.223 1.16088 -1.64944 0
M  V30 6763 C 644.536 1.91835 -0.381928 0
M  V30 6764 O 645.742 2.6867 -0.391013 0
M  V30 6765 C 644.198 2.1124 -2.91386 0
M  V30 6766 C 643.806 1.41042 -4.25219 0
M  V30 6767 C 645.55 2.86008 -3.13688 0
M  V30 6768 C 643.457 2.34801 -5.42791 0
M  V30 6769 H 642.387 0.437041 -0.61442 0
M  V30 6770 H 645.038 0.425971 -1.78487 0
M  V30 6771 H 643.42 2.88254 -2.71525 0
M  V30 6772 H 644.594 0.694416 -4.55538 0
M  V30 6773 H 642.909 0.78344 -4.08964 0
M  V30 6774 H 645.506 3.56286 -3.98703 0
M  V30 6775 H 645.849 3.48556 -2.27628 0
M  V30 6776 H 646.382 2.16095 -3.33988 0
M  V30 6777 H 643.121 1.7691 -6.31176 0
M  V30 6778 H 642.641 3.04395 -5.16821 0
M  V30 6779 H 644.32 2.9548 -5.75587 0
M  V30 6780 N 644.452 1.42507 0.673017 0
M  V30 6781 C 645.399 1.46124 1.78651 0
M  V30 6782 C 646.369 0.313007 1.63124 0
M  V30 6783 O 647.554 0.517337 1.83653 0
M  V30 6784 C 644.694 1.3711 3.16694 0
M  V30 6785 C 643.807 2.61983 3.43495 0
M  V30 6786 C 642.942 2.45098 4.71275 0
M  V30 6787 C 641.981 3.65336 4.91117 0
M  V30 6788 N 641.118 3.47383 6.10139 0
M  V30 6789 H 645.958 2.4128 1.74895 0
M  V30 6790 H 643.495 1.19788 0.853766 0
M  V30 6791 H 645.453 1.29881 3.96468 0
M  V30 6792 H 644.083 0.45549 3.1957 0
M  V30 6793 H 643.135 2.79571 2.57961 0
M  V30 6794 H 644.447 3.51355 3.5405 0
M  V30 6795 H 643.601 2.35466 5.59143 0
M  V30 6796 H 642.34 1.53219 4.63007 0
M  V30 6797 H 641.345 3.754 4.0169 0
M  V30 6798 H 642.57 4.58199 5.01229 0
M  V30 6799 H 640.516 2.58222 6.0304 0
M  V30 6800 H 640.433 4.30344 6.21563 0
M  V30 6801 H 641.701 3.41565 7.00681 0
M  V30 6802 N 645.93 -0.909495 1.28709 0
M  V30 6803 C 647.176 -1.66175 1.17293 0
M  V30 6804 C 647.531 -1.90426 -0.274891 0
M  V30 6805 O 646.824 -1.49659 -1.19635 0
M  V30 6806 C 647.018 -3.02117 1.90945 0
M  V30 6807 C 646.847 -2.91134 3.42741 0
M  V30 6808 C 645.617 -2.92429 4.12085 0
M  V30 6809 C 647.815 -2.68889 4.3841 0
M  V30 6810 N 645.797 -2.72078 5.50315 0
M  V30 6811 C 647.168 -2.57423 5.64033 0
M  V30 6812 C 649.223 -2.53919 4.28287 0
M  V30 6813 C 647.926 -2.32513 6.80683 0
M  V30 6814 C 649.952 -2.3039 5.44678 0
M  V30 6815 C 649.314 -2.19682 6.69268 0
M  V30 6816 H 645.413 -0.614095 0.48416 0
M  V30 6817 H 647.997 -1.07377 1.62414 0
M  V30 6818 H 646.168 -3.58993 1.48252 0
M  V30 6819 H 647.9 -3.66388 1.71878 0
M  V30 6820 H 644.655 -3.03345 3.63701 0
M  V30 6821 H 645.079 -2.64983 6.22987 0
M  V30 6822 H 649.721 -2.60946 3.32666 0
M  V30 6823 H 647.439 -2.24225 7.76369 0
M  V30 6824 H 651.025 -2.19665 5.38738 0
M  V30 6825 H 649.905 -2.01725 7.5781 0
M  V30 6826 N 647.408 -1.11026 -1.11852 0
M  V30 6827 C 648.636 -0.878818 -1.87308 0
M  V30 6828 C 649.051 0.57111 -1.79955 0
M  V30 6829 O 648.408 1.39409 -1.17777 0
M  V30 6830 C 648.459 -1.3264 -3.36287 0
M  V30 6831 O 648.18 -2.71948 -3.43476 0
M  V30 6832 C 649.681 -1.12974 -4.28663 0
M  V30 6833 H 646.901 -0.315015 -0.592458 0
M  V30 6834 H 649.445 -1.47649 -1.41492 0
M  V30 6835 H 647.6 -0.772269 -3.79625 0
M  V30 6836 H 648.014 -2.91241 -4.3621 0
M  V30 6837 H 649.488 -1.49198 -5.31454 0
M  V30 6838 H 649.965 -0.0689127 -4.39146 0
M  V30 6839 H 650.571 -1.67064 -3.91113 0
M  V30 6840 N 648.886 1.2938 -0.899927 0
M  V30 6841 C 649.849 2.25983 -0.382677 0
M  V30 6842 C 650.849 1.53366 0.483259 0
M  V30 6843 O 652.039 1.71798 0.28828 0
M  V30 6844 C 649.171 3.37878 0.452915 0
M  V30 6845 H 650.364 2.73252 -1.23586 0
M  V30 6846 H 647.917 1.40825 -0.678088 0
M  V30 6847 H 648.652 2.95949 1.32608 0
M  V30 6848 H 648.437 3.91742 -0.167562 0
M  V30 6849 H 649.927 4.09746 0.806107 0
M  V30 6850 N 650.364 0.662433 1.43002 0
M  V30 6851 C 651.775 0.258315 1.84904 0
M  V30 6852 C 652.126 -1.19703 1.55453 0
M  V30 6853 O 651.251 -1.91484 1.00811 0
M  V30 6854 C 651.846 0.462047 3.35635 0
M  V30 6855 C 650.405 0.112165 3.76233 0
M  V30 6856 C 649.552 0.760479 2.66668 0
M  V30 6857 H 652.503 0.865467 1.33024 0
M  V30 6858 H 652.524 -0.289646 3.79396 0
M  V30 6859 H 652.036 1.52135 3.57039 0
M  V30 6860 H 650.137 -0.944179 3.60439 0
M  V30 6861 H 650.25 0.544058 4.76001 0
M  V30 6862 H 648.614 0.192887 2.53969 0
M  V30 6863 H 649.397 1.82299 2.90898 0
M  V30 6864 N 651.842 -1.52309 0.404946 0
M  V30 6865 C 652.752 -2.30634 -0.429555 0
M  V30 6866 C 653.768 -1.38187 -1.05737 0
M  V30 6867 O 654.944 -1.71261 -1.05979 0
M  V30 6868 C 652.009 -3.10947 -1.53339 0
M  V30 6869 C 651.07 -4.19126 -0.929065 0
M  V30 6870 C 650.303 -4.95601 -1.9803 0
M  V30 6871 O 650.526 -4.72331 -3.1978 0
M  V30 6872 O 649.46 -5.80551 -1.58886 0
M  V30 6873 H 653.286 -3.0298 0.208963 0
M  V30 6874 H 650.871 -1.4845 0.168255 0
M  V30 6875 H 652.753 -3.60974 -2.1743 0
M  V30 6876 H 651.428 -2.41399 -2.15658 0
M  V30 6877 H 650.335 -3.73257 -0.250982 0
M  V30 6878 H 651.668 -4.90955 -0.349855 0
M  V30 6879 N 653.32 -0.135238 -1.57019 0
M  V30 6880 C 654.283 0.794707 -2.14981 0
M  V30 6881 C 655.283 1.18342 -1.08866 0
M  V30 6882 O 656.473 1.10627 -1.34563 0
M  V30 6883 C 653.605 2.07685 -2.70333 0
M  V30 6884 H 654.798 0.290696 -2.98488 0
M  V30 6885 H 652.351 0.114128 -1.55883 0
M  V30 6886 H 653.086 2.6248 -1.9046 0
M  V30 6887 H 652.871 1.80745 -3.47957 0
M  V30 6888 H 654.361 2.74127 -3.1503 0
M  V30 6889 N 654.798 1.5699 0.138552 0
M  V30 6890 C 655.761 1.97984 1.15478 0
M  V30 6891 C 656.761 0.867416 1.35398 0
M  V30 6892 O 657.951 1.13387 1.32246 0
M  V30 6893 C 655.083 2.3031 2.51337 0
M  V30 6894 H 656.276 2.88953 0.802896 0
M  V30 6895 H 653.829 1.51555 0.382189 0
M  V30 6896 H 654.564 1.42159 2.91481 0
M  V30 6897 H 654.349 3.11425 2.38237 0
M  V30 6898 H 655.839 2.62834 3.24512 0
M  V30 6899 N 656.276 -0.40816 1.52223 0
M  V30 6900 C 657.206 -1.5042 1.78595 0
M  V30 6901 C 658.187 -1.57723 0.636974 0
M  V30 6902 O 659.372 -1.72982 0.882664 0
M  V30 6903 C 656.502 -2.88232 1.93751 0
M  V30 6904 C 655.456 -2.95779 3.09352 0
M  V30 6905 C 654.782 -4.35855 3.09732 0
M  V30 6906 C 656.082 -2.67175 4.48793 0
M  V30 6907 H 657.776 -1.28601 2.70374 0
M  V30 6908 H 655.322 -0.617221 1.30101 0
M  V30 6909 H 657.275 -3.64895 2.10783 0
M  V30 6910 H 655.999 -3.11347 0.986443 0
M  V30 6911 H 654.658 -2.21561 2.92072 0
M  V30 6912 H 654.306 -4.55981 2.12346 0
M  V30 6913 H 654.006 -4.41829 3.87377 0
M  V30 6914 H 655.53 -5.14451 3.28895 0
M  V30 6915 H 656.944 -3.3356 4.66273 0
M  V30 6916 H 655.341 -2.84523 5.28362 0
M  V30 6917 H 656.411 -1.62609 4.56822 0
M  V30 6918 N 657.755 -1.42862 -0.66545 0
M  V30 6919 C 658.985 -1.47032 -1.45138 0
M  V30 6920 C 659.393 -0.0829977 -1.89018 0
M  V30 6921 O 658.736 0.914551 -1.59316 0
M  V30 6922 C 658.798 -2.34302 -2.72659 0
M  V30 6923 C 658.462 -3.82034 -2.50796 0
M  V30 6924 C 659.459 -4.73453 -2.14799 0
M  V30 6925 C 657.144 -4.26397 -2.655 0
M  V30 6926 C 659.138 -6.07228 -1.93785 0
M  V30 6927 C 656.825 -5.6023 -2.44103 0
M  V30 6928 C 657.823 -6.50462 -2.08299 0
M  V30 6929 O 657.511 -7.8182 -1.87116 0
M  V30 6930 H 657.243 -0.501969 -0.452772 0
M  V30 6931 H 659.797 -1.88137 -0.82423 0
M  V30 6932 H 658.027 -1.88063 -3.37889 0
M  V30 6933 H 659.716 -2.29818 -3.34572 0
M  V30 6934 H 660.482 -4.4046 -2.03026 0
M  V30 6935 H 656.361 -3.56448 -2.92345 0
M  V30 6936 H 659.905 -6.7762 -1.65763 0
M  V30 6937 H 655.802 -5.92793 -2.55475 0
M  V30 6938 H 656.57 -7.93274 -2.01639 0
M  V30 6939 N 659.233 0.902656 -1.29189 0
M  V30 6940 C 660.481 1.6496 -1.16758 0
M  V30 6941 C 660.802 1.92952 0.28188 0
M  V30 6942 O 660.072 1.55351 1.19344 0
M  V30 6943 H 658.652 0.611447 -0.429118 0
M  V30 6944 H 661.314 1.0825 -1.62074 0
M  V30 6945 H 660.41 2.60728 -1.71544 0
M  V30 6946 N 660.711 1.11618 1.11262 0
M  V30 6947 C 662.127 0.850468 1.35053 0
M  V30 6948 C 662.327 -0.523868 1.94571 0
M  V30 6949 O 661.383 -1.2743 2.17986 0
M  V30 6950 C 662.696 1.96005 2.28041 0
M  V30 6951 C 664.244 1.98993 2.416 0
M  V30 6952 C 664.719 3.0916 3.37911 0
M  V30 6953 N 666.21 3.08547 3.45475 0
M  V30 6954 C 666.945 3.9043 4.19943 0
M  V30 6955 N 666.441 4.8228 4.97371 0
M  V30 6956 N 668.234 3.786 4.15474 0
M  V30 6957 H 660.385 2.00184 0.709932 0
M  V30 6958 H 662.648 0.870635 0.375099 0
M  V30 6959 H 662.354 2.9499 1.91503 0
M  V30 6960 H 662.228 1.85782 3.28275 0
M  V30 6961 H 664.615 1.00633 2.77411 0
M  V30 6962 H 664.696 2.13292 1.4121 0
M  V30 6963 H 664.34 4.07748 3.02827 0
M  V30 6964 H 664.27 2.92102 4.3816 0
M  V30 6965 H 666.761 2.42 2.90249 0
M  V30 6966 H 667.074 5.41289 5.51567 0
M  V30 6967 H 665.419 4.863 4.96525 0
M  V30 6968 H 668.61 3.06185 3.54074 0
M  V30 6969 H 668.783 4.42647 4.73253 0
M  V30 6970 N 662.189 -1.289 0.906776 0
M  V30 6971 C 663.436 -1.95269 0.536326 0
M  V30 6972 C 663.764 -1.71435 -0.918711 0
M  V30 6973 O 663.019 -1.02431 -1.66752 0
M  V30 6974 C 663.318 -3.48704 0.783617 0
M  V30 6975 C 662.984 -3.92626 2.21711 0
M  V30 6976 C 661.646 -4.04329 2.60906 0
M  V30 6977 C 663.998 -4.15218 3.15029 0
M  V30 6978 C 661.326 -4.35998 3.92584 0
M  V30 6979 C 663.678 -4.48365 4.46264 0
M  V30 6980 C 662.342 -4.58278 4.85322 0
M  V30 6981 H 661.612 -0.714538 0.196256 0
M  V30 6982 H 664.259 -1.53366 1.14678 0
M  V30 6983 H 662.564 -3.91696 0.0903048 0
M  V30 6984 H 664.261 -3.98162 0.476267 0
M  V30 6985 H 660.851 -3.84038 1.90296 0
M  V30 6986 H 665.035 -4.05636 2.8596 0
M  V30 6987 H 660.291 -4.41878 4.22557 0
M  V30 6988 H 664.465 -4.64795 5.18593 0
M  V30 6989 H 662.092 -4.82573 5.87391 0
M  V30 6990 N 663.667 -0.670007 -1.42649 0
M  V30 6991 C 664.895 -0.19854 -2.05945 0
M  V30 6992 C 665.31 1.14243 -1.50313 0
M  V30 6993 O 664.667 1.70872 -0.641027 0
M  V30 6994 C 664.718 -0.11966 -3.61302 0
M  V30 6995 O 664.439 -1.40764 -4.1487 0
M  V30 6996 C 665.94 0.375878 -4.41704 0
M  V30 6997 H 663.16 -0.0976894 -0.663851 0
M  V30 6998 H 665.704 -0.915392 -1.82868 0
M  V30 6999 H 663.859 0.547851 -3.83507 0
M  V30 7000 H 664.273 -1.27784 -5.08696 0
M  V30 7001 H 665.747 0.379988 -5.50691 0
M  V30 7002 H 666.224 1.41028 -4.15942 0
M  V30 7003 H 666.83 -0.259727 -4.24506 0
M  V30 7004 N 665.145 1.52092 -0.413018 0
M  V30 7005 C 666.394 2.01041 0.16287 0
M  V30 7006 C 666.707 1.30288 1.45892 0
M  V30 7007 O 667.913 1.70075 2.11629 0
M  V30 7008 C 666.369 3.58283 0.340806 0
M  V30 7009 C 665.977 4.37955 -0.943377 0
M  V30 7010 C 667.721 4.15452 0.871774 0
M  V30 7011 C 665.628 5.86847 -0.732417 0
M  V30 7012 H 664.558 0.751224 0.0646414 0
M  V30 7013 H 667.209 1.75404 -0.539059 0
M  V30 7014 H 665.591 3.80266 1.10516 0
M  V30 7015 H 666.765 4.2773 -1.71418 0
M  V30 7016 H 665.08 3.92122 -1.40105 0
M  V30 7017 H 667.677 5.24375 1.0457 0
M  V30 7018 H 668.02 3.73057 1.84755 0
M  V30 7019 H 668.553 3.97452 0.166377 0
M  V30 7020 H 665.292 6.33609 -1.67986 0
M  V30 7021 H 664.812 5.998 -0.000980058 0
M  V30 7022 H 666.491 6.45906 -0.376105 0
M  V30 7023 N 666.623 0.143563 1.56945 0
M  V30 7024 C 667.57 -0.797433 2.16586 0
M  V30 7025 C 668.54 -1.24654 1.09775 0
M  V30 7026 O 669.725 -1.31968 1.37801 0
M  V30 7027 C 666.865 -2.03253 2.78895 0
M  V30 7028 C 665.978 -1.62954 4.00087 0
M  V30 7029 C 665.113 -2.81617 4.50406 0
M  V30 7030 C 664.152 -2.37675 5.64072 0
M  V30 7031 N 663.289 -3.49335 6.09023 0
M  V30 7032 H 668.129 -0.282023 2.96662 0
M  V30 7033 H 665.666 -0.127494 1.46546 0
M  V30 7034 H 667.624 -2.75653 3.13163 0
M  V30 7035 H 666.254 -2.52211 2.01469 0
M  V30 7036 H 665.306 -0.803322 3.71821 0
M  V30 7037 H 666.618 -1.26679 4.82446 0
M  V30 7038 H 665.772 -3.62212 4.86711 0
M  V30 7039 H 664.511 -3.21134 3.67048 0
M  V30 7040 H 663.516 -1.55519 5.27346 0
M  V30 7041 H 664.741 -1.99247 6.49213 0
M  V30 7042 H 662.687 -3.8848 5.28601 0
M  V30 7043 H 662.604 -3.17064 6.86299 0
M  V30 7044 H 663.872 -4.30297 6.49973 0
M  V30 7045 N 668.101 -1.57061 -0.130224 0
M  V30 7046 C 669.326 -1.88802 -0.858409 0
M  V30 7047 C 669.751 -0.734353 -1.73173 0
M  V30 7048 O 669.109 0.315529 -1.78533 0
M  V30 7049 C 669.157 -3.19228 -1.67708 0
M  V30 7050 O 668.261 -3.04343 -2.78297 0
M  V30 7051 H 667.602 -0.619849 -0.238083 0
M  V30 7052 H 670.132 -2.04271 -0.115995 0
M  V30 7053 H 670.142 -3.51669 -2.06864 0
M  V30 7054 H 668.817 -4.02793 -1.0359 0
M  V30 7055 H 667.394 -2.83346 -2.42425 0
M  V30 7056 N 669.579 0.400081 -1.52437 0
M  V30 7057 C 670.856 1.15973 -1.57511 0
M  V30 7058 C 671.236 2.0798 -0.361572 0
M  V30 7059 O 670.584 2.19032 0.650929 0
M  V30 7060 C 670.794 1.92912 -2.90837 0
M  V30 7061 C 672.142 2.48662 -3.44169 0
M  V30 7062 O 673.166 2.03081 -2.92637 0
M  V30 7063 O 672.025 3.31894 -4.34176 0
M  V30 7064 H 669.119 0.530023 -0.634827 0
M  V30 7065 H 671.665 0.40613 -1.64769 0
M  V30 7066 H 670.437 1.25564 -3.70607 0
M  V30 7067 H 670.06 2.75257 -2.86913 0
M  V30 7068 N 671.057 1.43213 0.657864 0
M  V30 7069 C 672.303 1.44798 1.41991 0
M  V30 7070 C 672.636 0.070256 1.94073 0
M  V30 7071 O 671.911 -0.908177 1.71995 0
M  V30 7072 C 672.194 2.4865 2.60471 0
M  V30 7073 C 672.047 3.95679 2.13911 0
M  V30 7074 C 673.366 2.49292 3.62686 0
M  V30 7075 H 670.485 0.527244 0.514959 0
M  V30 7076 H 673.127 1.74733 0.74621 0
M  V30 7077 H 671.277 2.23254 3.17946 0
M  V30 7078 H 672.949 4.32116 1.61472 0
M  V30 7079 H 671.192 4.08733 1.45325 0
M  V30 7080 H 671.863 4.6395 2.99089 0
M  V30 7081 H 674.339 2.71917 3.14961 0
M  V30 7082 H 673.215 3.23907 4.43143 0
M  V30 7083 H 673.476 1.52502 4.14964 0
M  V30 7084 N 672.536 -0.895792 1.29666 0
M  V30 7085 C 673.782 -1.64921 1.19049 0
M  V30 7086 C 674.137 -1.90707 -0.254678 0
M  V30 7087 O 673.43 -1.5092 -1.18041 0
M  V30 7088 C 673.624 -3.00075 1.94139 0
M  V30 7089 C 673.453 -2.87482 3.4581 0
M  V30 7090 C 672.223 -2.88041 4.15163 0
M  V30 7091 C 674.421 -2.64224 4.41237 0
M  V30 7092 N 672.403 -2.66226 5.5317 0
M  V30 7093 C 673.774 -2.51427 5.66732 0
M  V30 7094 C 675.829 -2.49362 4.30956 0
M  V30 7095 C 674.532 -2.25281 6.83111 0
M  V30 7096 C 676.558 -2.246 5.47091 0
M  V30 7097 C 675.92 -2.12571 6.7156 0
M  V30 7098 H 672.019 -0.608926 0.490646 0
M  V30 7099 H 674.603 -1.05648 1.63544 0
M  V30 7100 H 672.774 -3.574 1.52052 0
M  V30 7101 H 674.506 -3.64544 1.75754 0
M  V30 7102 H 671.261 -2.99471 3.66898 0
M  V30 7103 H 671.685 -2.58361 6.25762 0
M  V30 7104 H 676.327 -2.57403 3.35415 0
M  V30 7105 H 674.045 -2.15978 7.78704 0
M  V30 7106 H 677.631 -2.13939 5.41037 0
M  V30 7107 H 676.511 -1.93676 7.59907 0
M  V30 7108 N 674.014 -1.12206 -1.10668 0
M  V30 7109 C 675.239 -0.898938 -1.86906 0
M  V30 7110 C 675.664 0.546346 -1.79991 0
M  V30 7111 O 675.022 1.38655 -1.1681 0
M  V30 7112 C 675.07 -1.37529 -3.33344 0
M  V30 7113 O 674.174 -0.55218 -4.08687 0
M  V30 7114 H 673.515 -0.323163 -0.580053 0
M  V30 7115 H 676.045 -1.49355 -1.39837 0
M  V30 7116 H 676.055 -1.3733 -3.84193 0
M  V30 7117 H 674.73 -2.42767 -3.37693 0
M  V30 7118 H 673.307 -0.620947 -3.67694 0
M  V30 7119 N 675.492 1.28418 -0.913599 0
M  V30 7120 C 676.739 1.94981 -0.546674 0
M  V30 7121 C 677.067 1.7192 0.909606 0
M  V30 7122 O 676.322 1.03314 1.66207 0
M  V30 7123 C 676.621 3.48283 -0.802099 0
M  V30 7124 C 676.287 3.91444 -2.2379 0
M  V30 7125 C 674.949 4.02939 -2.63046 0
M  V30 7126 C 677.301 4.13542 -3.17227 0
M  V30 7127 C 674.629 4.3391 -3.94891 0
M  V30 7128 C 676.981 4.45992 -4.48636 0
M  V30 7129 C 675.645 4.55698 -4.87746 0
M  V30 7130 H 674.915 0.713487 -0.200042 0
M  V30 7131 H 677.562 1.52756 -1.15489 0
M  V30 7132 H 675.867 3.91643 -0.111076 0
M  V30 7133 H 677.564 3.97903 -0.497375 0
M  V30 7134 H 674.154 3.83024 -1.9233 0
M  V30 7135 H 678.338 4.04114 -2.88107 0
M  V30 7136 H 673.594 4.39631 -4.24894 0
M  V30 7137 H 677.768 4.62038 -5.21051 0
M  V30 7138 H 675.395 4.79451 -5.89942 0
M  V30 7139 N 676.97 0.677563 1.42291 0
M  V30 7140 C 678.218 0.200578 2.01102 0
M  V30 7141 C 678.539 -1.19803 1.53858 0
M  V30 7142 O 677.809 -1.80496 0.761439 0
M  V30 7143 H 676.389 0.0711634 0.743603 0
M  V30 7144 H 679.051 0.874691 1.7417 0
M  V30 7145 H 678.147 0.204 3.11433 0
M  V30 7146 N 678.448 -1.51871 0.421078 0
M  V30 7147 C 679.697 -2.01125 -0.152206 0
M  V30 7148 C 680.01 -1.3106 -1.45199 0
M  V30 7149 O 681.216 -1.71195 -2.10724 0
M  V30 7150 C 679.672 -3.58458 -0.3218 0
M  V30 7151 C 679.28 -4.37448 0.96659 0
M  V30 7152 C 681.024 -4.15908 -0.84973 0
M  V30 7153 C 678.931 -5.86451 0.763529 0
M  V30 7154 H 677.861 -0.751556 -0.0606565 0
M  V30 7155 H 680.512 -1.75115 0.548354 0
M  V30 7156 H 678.894 -3.80847 -1.08498 0
M  V30 7157 H 680.068 -4.26814 1.73684 0
M  V30 7158 H 678.383 -3.91373 1.42183 0
M  V30 7159 H 680.98 -5.24922 -1.01788 0
M  V30 7160 H 681.323 -3.74031 -1.82774 0
M  V30 7161 H 681.856 -3.97535 -0.145297 0
M  V30 7162 H 678.595 -6.3271 1.71344 0
M  V30 7163 H 678.115 -5.99791 0.0327889 0
M  V30 7164 H 679.794 -6.45697 0.410354 0
M  V30 7165 N 679.926 -0.151884 -1.56866 0
M  V30 7166 C 680.856 0.781943 -2.20018 0
M  V30 7167 C 681.837 1.25347 -1.14987 0
M  V30 7168 O 683.022 1.31015 -1.43348 0
M  V30 7169 C 680.152 2.01928 -2.82564 0
M  V30 7170 C 679.106 1.68434 -3.93464 0
M  V30 7171 C 678.432 2.99472 -4.42968 0
M  V30 7172 C 679.732 0.927244 -5.14003 0
M  V30 7173 H 681.426 0.255607 -2.98307 0
M  V30 7174 H 678.972 0.121502 -1.43486 0
M  V30 7175 H 680.925 2.67741 -3.25411 0
M  V30 7176 H 679.649 2.56943 -2.01614 0
M  V30 7177 H 678.308 1.04998 -3.51242 0
M  V30 7178 H 677.956 3.52488 -3.58834 0
M  V30 7179 H 677.656 2.77823 -5.17772 0
M  V30 7180 H 679.18 3.66348 -4.88489 0
M  V30 7181 H 680.594 1.48756 -5.53665 0
M  V30 7182 H 678.991 0.810513 -5.94601 0
M  V30 7183 H 680.061 -0.0801163 -4.84834 0
M  V30 7184 N 681.404 1.57128 0.121893 0
M  V30 7185 C 682.336 1.96773 1.17529 0
M  V30 7186 C 683.349 0.866668 1.37814 0
M  V30 7187 O 684.538 1.14497 1.3694 0
M  V30 7188 C 681.638 2.24832 2.53582 0
M  V30 7189 C 680.811 3.56138 2.53939 0
M  V30 7190 C 679.87 3.72443 3.71716 0
M  V30 7191 O 678.896 4.44584 3.55434 0
M  V30 7192 N 680.098 3.10993 4.90167 0
M  V30 7193 H 682.863 2.87743 0.838086 0
M  V30 7194 H 680.424 1.58881 0.311199 0
M  V30 7195 H 682.416 2.32958 3.30927 0
M  V30 7196 H 680.986 1.40002 2.79496 0
M  V30 7197 H 680.206 3.59226 1.62329 0
M  V30 7198 H 681.494 4.42448 2.51231 0
M  V30 7199 H 680.892 2.52345 5.06299 0
M  V30 7200 H 679.449 3.24644 5.65198 0
M  V30 7201 N 682.882 -0.391992 1.52647 0
M  V30 7202 C 684.11 -1.1586 1.71418 0
M  V30 7203 C 684.525 -1.8381 0.431216 0
M  V30 7204 O 683.882 -1.7256 -0.594085 0
M  V30 7205 C 683.933 -2.20888 2.86165 0
M  V30 7206 O 683.654 -1.5571 4.09495 0
M  V30 7207 C 685.155 -3.103 3.1659 0
M  V30 7208 H 682.375 -0.347494 0.574011 0
M  V30 7209 H 684.919 -0.458972 1.99283 0
M  V30 7210 H 683.074 -2.86492 2.6077 0
M  V30 7211 H 683.488 -2.25474 4.73563 0
M  V30 7212 H 684.962 -3.8003 4.00351 0
M  V30 7213 H 685.439 -3.73639 2.30848 0
M  V30 7214 H 686.045 -2.50345 3.43813 0
M  V30 7215 N 684.36 -1.4356 -0.65026 0
M  V30 7216 C 685.27 -1.514 -1.79207 0
M  V30 7217 C 686.286 -0.400895 -1.69319 0
M  V30 7218 O 687.462 -0.655458 -1.90436 0
M  V30 7219 C 684.527 -1.43737 -3.155 0
M  V30 7220 C 683.588 -2.65743 -3.37163 0
M  V30 7221 C 682.821 -2.58436 -4.66954 0
M  V30 7222 O 683.044 -1.63374 -5.46503 0
M  V30 7223 O 681.978 -3.48984 -4.90402 0
M  V30 7224 H 685.804 -2.47825 -1.75547 0
M  V30 7225 H 683.389 -1.25594 -0.809111 0
M  V30 7226 H 685.271 -1.41916 -3.96784 0
M  V30 7227 H 683.946 -0.504488 -3.19745 0
M  V30 7228 H 682.853 -2.73136 -2.55632 0
M  V30 7229 H 684.186 -3.58014 -3.37768 0
M  V30 7230 N 685.838 0.888903 -1.30139 0
M  V30 7231 C 686.768 2.01046 -1.18755 0
M  V30 7232 C 687.749 1.69916 -0.0791438 0
M  V30 7233 O 688.934 1.92445 -0.260498 0
M  V30 7234 C 686.064 3.36109 -0.874518 0
M  V30 7235 C 685.018 3.81486 -1.94043 0
M  V30 7236 C 684.344 5.13796 -1.48047 0
M  V30 7237 C 685.644 4.00637 -3.35093 0
M  V30 7238 H 687.338 2.10828 -2.12584 0
M  V30 7239 H 684.884 1.01298 -1.02346 0
M  V30 7240 H 686.837 4.14089 -0.781548 0
M  V30 7241 H 685.561 3.26449 0.0994519 0
M  V30 7242 H 684.22 3.05731 -2.02297 0
M  V30 7243 H 683.868 5.0056 -0.494878 0
M  V30 7244 H 683.568 5.45127 -2.19341 0
M  V30 7245 H 685.092 5.94305 -1.40121 0
M  V30 7246 H 686.506 4.69067 -3.2962 0
M  V30 7247 H 684.903 4.43339 -4.04438 0
M  V30 7248 H 685.973 3.0462 -3.77273 0
M  V30 7249 N 687.317 1.12792 1.10072 0
M  V30 7250 C 688.563 0.886857 1.82381 0
M  V30 7251 C 688.896 -0.58576 1.85155 0
M  V30 7252 O 688.171 -1.43317 1.31493 0
M  V30 7253 C 688.454 1.46703 3.28862 0
M  V30 7254 C 688.307 3.00829 3.34398 0
M  V30 7255 C 689.626 1.12971 4.25353 0
M  V30 7256 H 686.745 0.32362 0.662148 0
M  V30 7257 H 689.387 1.39513 1.28982 0
M  V30 7258 H 687.537 1.03476 3.74466 0
M  V30 7259 H 689.209 3.52764 2.97247 0
M  V30 7260 H 687.452 3.36164 2.74183 0
M  V30 7261 H 688.123 3.36519 4.3756 0
M  V30 7262 H 690.599 1.50313 3.88001 0
M  V30 7263 H 689.475 1.56223 5.26199 0
M  V30 7264 H 689.736 0.0424452 4.4208 0
M  V30 7265 N 688.795 -1.27931 0.920396 0
M  V30 7266 C 690.023 -1.98805 0.573087 0
M  V30 7267 C 690.438 -1.68724 -0.847201 0
M  V30 7268 O 689.795 -0.943699 -1.56207 0
M  V30 7269 C 689.846 -3.52971 0.780633 0
M  V30 7270 O 689.567 -3.81994 2.14504 0
M  V30 7271 C 691.068 -4.411 0.44105 0
M  V30 7272 H 688.288 -0.634651 0.21785 0
M  V30 7273 H 690.832 -1.62965 1.23542 0
M  V30 7274 H 688.987 -3.87048 0.165204 0
M  V30 7275 H 689.401 -4.76609 2.18962 0
M  V30 7276 H 690.875 -5.48312 0.637006 0
M  V30 7277 H 691.352 -4.34758 -0.62306 0
M  V30 7278 H 691.958 -4.12532 1.0343 0
M  V30 7279 N 690.273 -0.685099 -1.4193 0
M  V30 7280 C 691.22 -0.0131869 -2.30796 0
M  V30 7281 C 692.19 0.782129 -1.46533 0
M  V30 7282 O 693.375 0.75229 -1.75343 0
M  V30 7283 C 690.515 0.924768 -3.32479 0
M  V30 7284 C 689.628 0.122181 -4.31827 0
M  V30 7285 C 688.763 1.05682 -5.20581 0
M  V30 7286 C 687.802 0.246526 -6.11603 0
M  V30 7287 N 686.939 1.13442 -6.92875 0
M  V30 7288 H 691.779 -0.776789 -2.87698 0
M  V30 7289 H 689.316 -0.394791 -1.41703 0
M  V30 7290 H 691.274 1.48251 -3.89971 0
M  V30 7291 H 689.904 1.65488 -2.77152 0
M  V30 7292 H 688.956 -0.552335 -3.76369 0
M  V30 7293 H 690.268 -0.506473 -4.96222 0
M  V30 7294 H 689.422 1.68415 -5.82856 0
M  V30 7295 H 688.161 1.71935 -4.56388 0
M  V30 7296 H 687.166 -0.393944 -5.48387 0
M  V30 7297 H 688.391 -0.412053 -6.77849 0
M  V30 7298 H 686.337 1.78316 -6.313 0
M  V30 7299 H 686.254 0.561089 -7.53915 0
M  V30 7300 H 687.522 1.74889 -7.59628 0
M  V30 7301 N 691.751 1.51645 -0.429126 0
M  V30 7302 C 692.999 2.01616 0.139802 0
M  V30 7303 C 693.32 1.31568 1.43927 0
M  V30 7304 O 692.59 0.447688 1.90716 0
M  V30 7305 H 691.17 0.744998 0.054654 0
M  V30 7306 H 693.832 1.8638 -0.569952 0
M  V30 7307 H 692.928 3.10439 0.321609 0
M  V30 7308 N 693.229 0.160201 1.56784 0
M  V30 7309 C 694.645 -0.196089 1.58391 0
M  V30 7310 C 694.845 -1.63689 1.17508 0
M  V30 7311 O 693.901 -2.36613 0.881506 0
M  V30 7312 C 695.214 0.0746449 3.00607 0
M  V30 7313 C 696.762 0.0119762 3.12998 0
M  V30 7314 C 697.237 0.255551 4.57286 0
M  V30 7315 N 698.728 0.202938 4.62755 0
M  V30 7316 C 699.463 0.365731 5.72232 0
M  V30 7317 N 698.959 0.586972 6.90309 0
M  V30 7318 N 700.752 0.302411 5.61286 0
M  V30 7319 H 692.903 1.1008 1.81648 0
M  V30 7320 H 695.166 0.436779 0.841384 0
M  V30 7321 H 694.872 1.07231 3.34954 0
M  V30 7322 H 694.746 -0.638802 3.71751 0
M  V30 7323 H 697.133 -0.976254 2.78484 0
M  V30 7324 H 697.214 0.75796 2.44313 0
M  V30 7325 H 696.858 1.24094 4.92507 0
M  V30 7326 H 696.788 -0.510912 5.24116 0
M  V30 7327 H 699.279 0.0371328 3.77882 0
M  V30 7328 H 699.592 0.700941 7.69615 0
M  V30 7329 H 697.937 0.623453 6.92198 0
M  V30 7330 H 701.128 0.130238 4.67919 0
M  V30 7331 H 701.301 0.432712 6.46554 0
M  V30 7332 N 694.707 -1.5719 -0.113559 0
M  V30 7333 C 695.953 -1.85412 -0.821597 0
M  V30 7334 C 696.286 -0.746722 -1.7927 0
M  V30 7335 O 695.561 0.246971 -1.92926 0
M  V30 7336 C 695.844 -3.24233 -1.56669 0
M  V30 7337 C 695.697 -4.45578 -0.614823 0
M  V30 7338 C 697.016 -3.60697 -2.52161 0
M  V30 7339 H 694.135 -0.674406 -0.29723 0
M  V30 7340 H 696.777 -1.89807 -0.085694 0
M  V30 7341 H 694.927 -3.20617 -2.19401 0
M  V30 7342 H 696.599 -4.613 0.00407137 0
M  V30 7343 H 694.842 -4.33738 0.0732332 0
M  V30 7344 H 695.513 -5.39395 -1.17292 0
M  V30 7345 H 697.989 -3.65139 -1.99532 0
M  V30 7346 H 696.865 -4.58798 -3.01323 0
M  V30 7347 H 697.126 -2.88403 -3.35076 0
M  V30 7348 N 696.185 0.383891 -1.52853 0
M  V30 7349 C 697.596 0.961591 -1.60032 0
M  V30 7350 C 697.947 1.90819 -0.456333 0
M  V30 7351 O 697.072 2.12288 0.419873 0
M  V30 7352 C 697.667 1.75078 -2.90057 0
M  V30 7353 C 696.226 2.2781 -2.99632 0
M  V30 7354 C 695.373 1.08512 -2.55187 0
M  V30 7355 H 698.324 0.163269 -1.57858 0
M  V30 7356 H 698.345 2.61046 -2.7683 0
M  V30 7357 H 697.857 1.06157 -3.73299 0
M  V30 7358 H 695.958 3.00028 -2.20939 0
M  V30 7359 H 696.071 2.56947 -4.0437 0
M  V30 7360 H 694.435 1.44667 -2.09627 0
M  V30 7361 H 695.218 0.41118 -3.40829 0
M  V30 7362 N 697.663 1.43903 0.642637 0
M  V30 7363 C 698.893 1.49323 1.4278 0
M  V30 7364 C 699.301 0.113058 1.88862 0
M  V30 7365 O 698.644 -0.889089 1.60751 0
M  V30 7366 C 698.706 2.3861 2.68897 0
M  V30 7367 C 698.37 3.85976 2.44687 0
M  V30 7368 C 699.367 4.7681 2.07239 0
M  V30 7369 C 697.052 4.30567 2.58683 0
M  V30 7370 C 699.046 6.10234 1.841 0
M  V30 7371 C 696.733 5.64042 2.35159 0
M  V30 7372 C 697.731 6.53693 1.97925 0
M  V30 7373 O 697.419 7.84698 1.74654 0
M  V30 7374 H 697.151 0.509109 0.444729 0
M  V30 7375 H 699.705 1.89425 0.794195 0
M  V30 7376 H 697.935 1.93415 3.34855 0
M  V30 7377 H 699.624 2.35112 3.30873 0
M  V30 7378 H 700.39 4.43635 1.95993 0
M  V30 7379 H 696.269 3.61054 2.86637 0
M  V30 7380 H 699.813 6.80171 1.54962 0
M  V30 7381 H 695.71 5.96782 2.46011 0
M  V30 7382 H 696.478 7.96382 1.88993 0
M  V30 7383 N 699.141 -0.881989 1.30609 0
M  V30 7384 C 700.552 -1.44956 1.17664 0
M  V30 7385 C 700.903 -1.94945 -0.221531 0
M  V30 7386 O 700.028 -1.85257 -1.11844 0
M  V30 7387 C 700.623 -2.63474 2.12995 0
M  V30 7388 C 699.182 -3.16312 2.04019 0
M  V30 7389 C 698.329 -1.89008 2.02907 0
M  V30 7390 H 701.28 -0.691645 1.42835 0
M  V30 7391 H 701.301 -3.39783 1.71253 0
M  V30 7392 H 700.813 -2.2706 3.14746 0
M  V30 7393 H 698.914 -3.57376 1.0542 0
M  V30 7394 H 699.027 -3.79409 2.9255 0
M  V30 7395 H 697.391 -2.07465 1.47751 0
M  V30 7396 H 698.174 -1.54848 3.06394 0
M  V30 7397 N 700.619 -1.13374 -1.09472 0
M  V30 7398 C 701.867 -0.893422 -1.8128 0
M  V30 7399 C 702.188 0.582029 -1.86111 0
M  V30 7400 O 701.458 1.42305 -1.34633 0
M  V30 7401 H 700.038 -0.327543 -0.67136 0
M  V30 7402 H 702.7 -1.43018 -1.32408 0
M  V30 7403 H 701.796 -1.28374 -2.84476 0
M  V30 7404 N 702.098 1.27442 -0.927168 0
M  V30 7405 C 703.031 2.25177 -0.370232 0
M  V30 7406 C 704.009 1.53612 0.533103 0
M  V30 7407 O 705.193 1.8245 0.47373 0
M  V30 7408 C 702.32 3.35431 0.469411 0
M  V30 7409 C 701.366 4.24888 -0.370419 0
M  V30 7410 S 702.199 5.04852 -1.78562 0
M  V30 7411 C 703.355 6.18592 -0.953651 0
M  V30 7412 H 703.588 2.72069 -1.19858 0
M  V30 7413 H 701.121 1.36089 -0.729316 0
M  V30 7414 H 703.079 3.99404 0.947992 0
M  V30 7415 H 701.74 2.87179 1.27228 0
M  V30 7416 H 700.933 5.03264 0.272226 0
M  V30 7417 H 700.535 3.65709 -0.783153 0
M  V30 7418 H 702.827 6.77235 -0.189408 0
M  V30 7419 H 703.77 6.87132 -1.7104 0
M  V30 7420 H 704.178 5.62318 -0.495897 0
M  V30 7421 N 703.576 0.692616 1.41565 0
M  V30 7422 C 704.822 0.222664 2.01574 0
M  V30 7423 C 705.155 -1.1737 1.54719 0
M  V30 7424 O 704.43 -1.79161 0.757084 0
M  V30 7425 C 704.713 0.277064 3.59033 0
M  V30 7426 C 704.566 1.71016 4.16021 0
M  V30 7427 C 705.885 -0.36479 4.38586 0
M  V30 7428 H 703.004 0.0823839 0.732381 0
M  V30 7429 H 705.646 0.880778 1.68352 0
M  V30 7430 H 703.796 -0.283288 3.87466 0
M  V30 7431 H 705.468 2.32413 3.98475 0
M  V30 7432 H 703.711 2.24525 3.71175 0
M  V30 7433 H 704.382 1.69978 5.25178 0
M  V30 7434 H 706.858 0.112404 4.15948 0
M  V30 7435 H 705.734 -0.296169 5.481 0
M  V30 7436 H 705.995 -1.44506 4.17816 0
M  V30 7437 N 705.054 -1.51416 0.437162 0
M  V30 7438 C 706.002 -2.29328 -0.388765 0
M  V30 7439 C 706.996 -1.35171 -1.02104 0
M  V30 7440 O 708.202 -1.52513 -0.956024 0
M  V30 7441 H 704.577 -0.738048 -0.144183 0
M  V30 7442 H 706.548 -2.96995 0.289212 0
M  V30 7443 C 705.297 -3.14741 -1.47761 0
M  V30 7444 H 704.62 -3.8708 -1.00045 0
M  V30 7445 H 706.06 -3.72313 -2.02877 0
M  V30 7446 C 704.519 -2.30105 -2.46076 0
M  V30 7447 O 705.049 -1.96055 -3.50607 0
M  V30 7448 N 703.255 -1.93331 -2.1696 0
M  V30 7449 H 702.802 -2.2122 -1.31983 0
M  V30 7450 H 702.76 -1.36999 -2.82982 0
M  V30 7451 N 706.532 -0.168513 -1.56696 0
M  V30 7452 C 707.948 0.187686 -1.58493 0
M  V30 7453 C 708.148 1.63063 -1.18375 0
M  V30 7454 O 707.204 2.36142 -0.894042 0
M  V30 7455 C 708.517 -0.0905858 -3.00564 0
M  V30 7456 C 710.065 -0.028575 -3.12987 0
M  V30 7457 C 710.54 -0.279799 -4.57145 0
M  V30 7458 N 712.031 -0.227476 -4.62641 0
M  V30 7459 C 712.766 -0.396073 -5.7203 0
M  V30 7460 N 712.262 -0.623572 -6.89988 0
M  V30 7461 N 714.055 -0.332173 -5.61118 0
M  V30 7462 H 706.206 -1.11042 -1.81062 0
M  V30 7463 H 708.469 -0.441235 -0.839056 0
M  V30 7464 H 708.175 -1.09006 -3.34381 0
M  V30 7465 H 708.049 0.619078 -3.72085 0
M  V30 7466 H 710.436 0.961471 -2.78998 0
M  V30 7467 H 710.517 -0.770905 -2.43907 0
M  V30 7468 H 710.161 -1.26704 -4.91842 0
M  V30 7469 H 710.091 0.48311 -5.24379 0
M  V30 7470 H 712.582 -0.0571723 -3.77857 0
M  V30 7471 H 712.895 -0.741745 -7.69232 0
M  V30 7472 H 711.24 -0.660153 -6.91858 0
M  V30 7473 H 714.431 -0.155051 -4.67843 0
M  V30 7474 H 714.604 -0.466994 -6.46315 0
M  V30 7475 N 708.01 1.57248 0.105221 0
M  V30 7476 C 708.92 2.04653 1.14693 0
M  V30 7477 C 709.936 0.969488 1.44489 0
M  V30 7478 O 711.112 1.28196 1.55331 0
M  V30 7479 C 708.177 2.45297 2.45011 0
M  V30 7480 C 707.238 3.67148 2.22489 0
M  V30 7481 C 706.471 4.05844 3.46592 0
M  V30 7482 O 706.694 3.44736 4.54437 0
M  V30 7483 O 705.628 4.98862 3.36779 0
M  V30 7484 H 709.454 2.93663 0.774336 0
M  V30 7485 H 707.039 1.45998 0.31701 0
M  V30 7486 H 708.921 2.72112 3.21766 0
M  V30 7487 H 707.596 1.59429 2.81717 0
M  V30 7488 H 706.503 3.45463 1.43547 0
M  V30 7489 H 707.836 4.53764 1.9068 0
M  V30 7490 N 709.488 -0.375779 1.53054 0
M  V30 7491 C 710.734 -1.12114 1.68992 0
M  V30 7492 C 711.067 -1.8926 0.435238 0
M  V30 7493 O 710.342 -1.86044 -0.567278 0
M  V30 7494 C 710.625 -2.08867 2.93337 0
M  V30 7495 C 710.478 -1.35397 4.28938 0
M  V30 7496 C 711.797 -3.09124 3.13257 0
M  V30 7497 H 708.916 -0.406207 0.614951 0
M  V30 7498 H 711.558 -0.403054 1.85676 0
M  V30 7499 H 709.708 -2.70102 2.79244 0
M  V30 7500 H 711.38 -0.770242 4.54824 0
M  V30 7501 H 709.623 -0.655801 4.28814 0
M  V30 7502 H 710.294 -2.06161 5.12056 0
M  V30 7503 H 712.77 -2.57987 3.26469 0
M  V30 7504 H 711.646 -3.74054 4.01715 0
M  V30 7505 H 711.907 -3.78729 2.28072 0
M  V30 7506 N 710.966 -1.44241 -0.634997 0
M  V30 7507 C 711.896 -1.53632 -1.7584 0
M  V30 7508 C 712.877 -0.389603 -1.65578 0
M  V30 7509 O 714.062 -0.609219 -1.84397 0
M  V30 7510 C 711.192 -1.47644 -3.14354 0
M  V30 7511 C 710.146 -2.60752 -3.394 0
M  V30 7512 C 709.472 -2.39817 -4.77904 0
M  V30 7513 C 710.772 -4.02921 -3.32343 0
M  V30 7514 H 712.466 -2.47662 -1.68238 0
M  V30 7515 H 710.012 -1.19197 -0.807969 0
M  V30 7516 H 711.965 -1.52815 -3.92716 0
M  V30 7517 H 710.689 -0.501284 -3.2273 0
M  V30 7518 H 709.348 -2.54965 -2.63417 0
M  V30 7519 H 708.996 -1.40502 -4.82978 0
M  V30 7520 H 708.696 -3.15649 -4.9562 0
M  V30 7521 H 710.22 -2.46799 -5.585 0
M  V30 7522 H 711.634 -4.10098 -4.00615 0
M  V30 7523 H 710.031 -4.78925 -3.61595 0
M  V30 7524 H 711.101 -4.26766 -2.30215 0
M  V30 7525 N 712.444 0.87505 -1.31075 0
M  V30 7526 C 713.354 2.01441 -1.20244 0
M  V30 7527 C 714.37 1.73584 -0.120227 0
M  V30 7528 O 715.546 1.98559 -0.337063 0
M  V30 7529 C 712.611 3.34675 -0.905199 0
M  V30 7530 C 711.672 3.75889 -2.0738 0
M  V30 7531 C 710.905 5.02764 -1.79064 0
M  V30 7532 O 711.128 5.65795 -0.723318 0
M  V30 7533 O 710.062 5.40623 -2.64594 0
M  V30 7534 H 713.888 2.13509 -2.1598 0
M  V30 7535 H 711.473 1.00257 -1.10765 0
M  V30 7536 H 713.355 4.1458 -0.755057 0
M  V30 7537 H 712.03 3.23692 0.0221695 0
M  V30 7538 H 710.937 2.96645 -2.27931 0
M  V30 7539 H 712.27 3.91489 -2.98324 0
M  V30 7540 N 713.922 1.13953 1.08869 0
M  V30 7541 C 714.854 0.779906 2.15523 0
M  V30 7542 C 715.867 -0.20102 1.61554 0
M  V30 7543 O 717.056 0.0200049 1.78489 0
M  V30 7544 C 714.156 0.136226 3.38626 0
M  V30 7545 C 713.329 1.15069 4.21993 0
M  V30 7546 C 712.388 0.531645 5.23507 0
M  V30 7547 O 711.414 1.19327 5.56552 0
M  V30 7548 N 712.616 -0.693734 5.7634 0
M  V30 7549 H 715.381 1.69769 2.46979 0
M  V30 7550 H 712.942 1.03331 1.24637 0
M  V30 7551 H 714.934 -0.290295 4.03658 0
M  V30 7552 H 713.504 -0.684603 3.05011 0
M  V30 7553 H 712.724 1.75431 3.53012 0
M  V30 7554 H 714.012 1.83614 4.74514 0
M  V30 7555 H 713.41 -1.24994 5.51718 0
M  V30 7556 H 711.967 -1.06283 6.43076 0
M  V30 7557 N 715.4 -1.26948 0.933913 0
M  V30 7558 C 716.646 -1.94374 0.57848 0
M  V30 7559 C 716.979 -1.73166 -0.879048 0
M  V30 7560 O 716.254 -1.06438 -1.62792 0
M  V30 7561 C 716.537 -3.4834 0.912739 0
M  V30 7562 C 716.39 -3.78866 2.42448 0
M  V30 7563 C 717.709 -4.38062 0.423003 0
M  V30 7564 H 714.828 -0.705959 0.211639 0
M  V30 7565 H 717.47 -1.49951 1.16682 0
M  V30 7566 H 715.62 -3.86309 0.412058 0
M  V30 7567 H 717.292 -3.50654 2.99733 0
M  V30 7568 H 715.535 -3.25198 2.87104 0
M  V30 7569 H 716.206 -4.86458 2.60887 0
M  V30 7570 H 718.682 -4.0728 0.852191 0
M  V30 7571 H 717.558 -5.44599 0.685776 0
M  V30 7572 H 717.819 -4.36886 -0.676994 0
M  V30 7573 N 716.879 -0.700114 -1.41195 0
M  V30 7574 C 717.789 -0.0382854 -2.34569 0
M  V30 7575 C 718.805 0.761036 -1.56474 0
M  V30 7576 O 719.981 0.697553 -1.88934 0
M  V30 7577 C 717.046 0.883522 -3.35253 0
M  V30 7578 C 716.107 0.0758957 -4.29233 0
M  V30 7579 C 715.34 0.9538 -5.25108 0
M  V30 7580 O 715.563 2.19326 -5.26547 0
M  V30 7581 O 714.497 0.401049 -6.00562 0
M  V30 7582 H 718.323 -0.808073 -2.92752 0
M  V30 7583 H 715.908 -0.460479 -1.42127 0
M  V30 7584 H 717.79 1.41199 -3.9704 0
M  V30 7585 H 716.465 1.63272 -2.79506 0
M  V30 7586 H 715.372 -0.497274 -3.7078 0
M  V30 7587 H 716.705 -0.634741 -4.8809 0
M  V30 7588 N 718.357 1.51182 -0.445186 0
M  V30 7589 C 719.773 1.59299 -0.0978954 0
M  V30 7590 C 719.973 1.4555 1.39346 0
M  V30 7591 O 719.029 1.30073 2.16419 0
M  V30 7592 C 720.342 2.94133 -0.625005 0
M  V30 7593 C 721.89 3.07463 -0.586137 0
M  V30 7594 C 722.365 4.44832 -1.09035 0
M  V30 7595 N 723.856 4.51173 -1.04867 0
M  V30 7596 C 724.591 5.55804 -1.40959 0
M  V30 7597 N 724.087 6.67816 -1.84375 0
M  V30 7598 N 725.88 5.46205 -1.32726 0
M  V30 7599 H 718.031 1.58363 -1.41544 0
M  V30 7600 H 720.294 0.746946 -0.58376 0
M  V30 7601 H 720 3.09589 -1.66876 0
M  V30 7602 H 719.874 3.77161 -0.0542262 0
M  V30 7603 H 722.261 2.9167 0.448646 0
M  V30 7604 H 722.342 2.26255 -1.19341 0
M  V30 7605 H 721.986 4.61372 -2.12364 0
M  V30 7606 H 721.916 5.24591 -0.459539 0
M  V30 7607 H 724.407 3.70783 -0.729932 0
M  V30 7608 H 724.72 7.43683 -2.10131 0
M  V30 7609 H 723.065 6.69003 -1.88308 0
M  V30 7610 H 726.256 4.57583 -0.986678 0
M  V30 7611 H 726.429 6.27634 -1.61182 0
M  V30 7612 N 719.835 0.176821 1.56605 0
M  V30 7613 C 721.083 -0.465793 1.96659 0
M  V30 7614 C 721.404 -1.63406 1.06412 0
M  V30 7615 O 720.674 -1.95457 0.131603 0
M  V30 7616 H 719.254 -0.175072 0.726195 0
M  V30 7617 H 721.916 0.25929 1.93168 0
M  V30 7618 H 721.012 -0.822138 3.01077 0
M  V30 7619 N 721.313 -1.57302 -0.09688 0
M  V30 7620 C 722.543 -1.89926 -0.813114 0
M  V30 7621 C 722.951 -0.76852 -1.72888 0
M  V30 7622 O 722.294 0.268549 -1.81726 0
M  V30 7623 C 722.356 -3.17787 -1.68082 0
M  V30 7624 C 722.02 -4.4729 -0.937061 0
M  V30 7625 C 723.017 -5.1921 -0.267687 0
M  V30 7626 C 720.702 -4.93957 -0.911671 0
M  V30 7627 C 722.696 -6.36034 0.417129 0
M  V30 7628 C 720.383 -6.10693 -0.223068 0
M  V30 7629 C 721.381 -6.8158 0.440155 0
M  V30 7630 O 721.069 -7.96092 1.11772 0
M  V30 7631 H 720.801 -0.632783 -0.237828 0
M  V30 7632 H 723.355 -2.05248 -0.0790818 0
M  V30 7633 H 721.585 -2.98607 -2.45705 0
M  V30 7634 H 723.274 -3.36257 -2.27346 0
M  V30 7635 H 724.04 -4.84198 -0.278774 0
M  V30 7636 H 719.919 -4.38671 -1.41734 0
M  V30 7637 H 723.463 -6.91301 0.93537 0
M  V30 7638 H 719.36 -6.45159 -0.209821 0
M  V30 7639 H 720.128 -8.12064 1.02443 0
M  V30 7640 N 722.791 0.367657 -1.53252 0
M  V30 7641 C 724.207 0.709191 -1.42978 0
M  V30 7642 C 724.407 1.93352 -0.567193 0
M  V30 7643 O 723.463 2.52453 -0.0488349 0
M  V30 7644 C 724.776 0.924338 -2.86141 0
M  V30 7645 C 726.324 1.02448 -2.95759 0
M  V30 7646 C 726.799 1.27211 -4.39979 0
M  V30 7647 N 728.29 1.33986 -4.43398 0
M  V30 7648 C 729.025 1.54852 -5.52095 0
M  V30 7649 N 728.521 1.73049 -6.7084 0
M  V30 7650 N 730.314 1.57205 -5.39669 0
M  V30 7651 H 722.465 -0.437669 -2.07842 0
M  V30 7652 H 724.728 -0.133737 -0.938519 0
M  V30 7653 H 724.434 0.0965455 -3.51567 0
M  V30 7654 H 724.308 1.83302 -3.29667 0
M  V30 7655 H 726.695 1.84282 -2.30487 0
M  V30 7656 H 726.776 0.0932301 -2.5563 0
M  V30 7657 H 726.42 0.458792 -5.05824 0
M  V30 7658 H 726.35 2.21654 -4.77679 0
M  V30 7659 H 728.841 1.21545 -3.5782 0
M  V30 7660 H 729.154 1.88538 -7.49449 0
M  V30 7661 H 727.499 1.70231 -6.7383 0
M  V30 7662 H 730.69 1.42555 -4.45865 0
M  V30 7663 H 730.863 1.73126 -6.24445 0
M  V30 7664 N 724.269 1.44576 0.627338 0
M  V30 7665 C 725.202 1.46206 1.75212 0
M  V30 7666 C 726.18 0.320483 1.5941 0
M  V30 7667 O 727.364 0.518028 1.81242 0
M  V30 7668 C 724.491 1.29834 3.12827 0
M  V30 7669 C 723.537 2.47603 3.47268 0
M  V30 7670 S 724.37 4.10125 3.44322 0
M  V30 7671 C 725.526 3.96183 4.84551 0
M  V30 7672 H 725.759 2.41378 1.73563 0
M  V30 7673 H 723.292 1.3192 0.802283 0
M  V30 7674 H 725.25 1.21075 3.92239 0
M  V30 7675 H 723.911 0.361662 3.12011 0
M  V30 7676 H 723.104 2.3202 4.47418 0
M  V30 7677 H 722.706 2.53121 2.75329 0
M  V30 7678 H 724.998 3.60107 5.73872 0
M  V30 7679 H 725.941 4.96176 5.05188 0
M  V30 7680 H 726.349 3.28177 4.59304 0
M  V30 7681 N 725.747 -0.868086 1.31537 0
M  V30 7682 C 727.158 -1.437 1.19195 0
M  V30 7683 C 727.509 -1.95169 -0.200842 0
M  V30 7684 O 726.634 -1.86432 -1.09872 0
M  V30 7685 C 727.229 -2.612 2.15778 0
M  V30 7686 C 725.788 -3.1413 2.07363 0
M  V30 7687 C 724.935 -1.86845 2.049 0
M  V30 7688 H 727.886 -0.676457 1.43561 0
M  V30 7689 H 727.907 -3.37948 1.74847 0
M  V30 7690 H 727.419 -2.23709 3.17137 0
M  V30 7691 H 725.52 -3.56238 1.09204 0
M  V30 7692 H 725.633 -3.76285 2.96557 0
M  V30 7693 H 723.997 -2.05886 1.49943 0
M  V30 7694 H 724.78 -1.51589 3.08019 0
M  V30 7695 N 727.225 -1.14528 -1.08264 0
M  V30 7696 C 728.465 -0.924808 -1.82282 0
M  V30 7697 C 728.829 0.538881 -1.84283 0
M  V30 7698 O 730.03 0.877355 -2.54079 0
M  V30 7699 C 728.301 -1.51102 -3.23887 0
M  V30 7700 S 729.86 -1.43232 -4.14765 0
M  V30 7701 H 726.678 -0.333052 -0.62817 0
M  V30 7702 H 729.28 -1.45905 -1.30123 0
M  V30 7703 H 727.984 -2.56942 -3.20014 0
M  V30 7704 H 727.515 -0.975234 -3.8112 0
M  V30 7705 H 729.53 -0.418843 -4.94429 0
M  V30 7706 N 728.703 1.26451 -0.940633 0
M  V30 7707 C 730.114 1.75726 -0.630653 0
M  V30 7708 C 730.465 1.76631 0.854167 0
M  V30 7709 O 729.59 1.37807 1.66848 0
M  V30 7710 C 730.185 3.19114 -1.13805 0
M  V30 7711 C 728.744 3.66005 -0.878497 0
M  V30 7712 C 727.891 2.45505 -1.28928 0
M  V30 7713 H 730.842 1.12535 -1.119 0
M  V30 7714 H 730.863 3.77311 -0.491625 0
M  V30 7715 H 730.375 3.18424 -2.21874 0
M  V30 7716 H 728.476 3.72126 0.187833 0
M  V30 7717 H 728.589 4.54844 -1.50512 0
M  V30 7718 H 726.953 2.4467 -0.707713 0
M  V30 7719 H 727.736 2.47516 -2.37888 0
M  V30 7720 N 730.181 0.707592 1.40822 0
M  V30 7721 C 731.113 0.0105968 2.29198 0
M  V30 7722 C 732.126 -0.732035 1.45414 0
M  V30 7723 O 733.315 -0.580741 1.68789 0
M  V30 7724 C 730.415 -1.00921 3.23525 0
M  V30 7725 C 729.588 -0.333747 4.36125 0
M  V30 7726 C 728.647 -1.25783 5.10945 0
M  V30 7727 O 727.673 -0.745646 5.64295 0
M  V30 7728 N 728.875 -2.58947 5.19545 0
M  V30 7729 H 731.64 0.76938 2.89656 0
M  V30 7730 H 729.201 0.554579 1.52105 0
M  V30 7731 H 731.193 -1.6294 3.70449 0
M  V30 7732 H 729.763 -1.66942 2.6429 0
M  V30 7733 H 728.983 0.466518 3.9143 0
M  V30 7734 H 730.271 0.135444 5.0862 0
M  V30 7735 H 729.669 -3.03065 4.7767 0
M  V30 7736 H 728.226 -3.16131 5.70004 0
M  V30 7737 N 731.66 -1.50943 0.453197 0
M  V30 7738 C 732.908 -2.01813 -0.107709 0
M  V30 7739 C 733.229 -1.33841 -1.41816 0
M  V30 7740 O 732.499 -0.477973 -1.8998 0
M  V30 7741 H 731.079 -0.745773 -0.0427948 0
M  V30 7742 H 733.741 -1.8545 0.599531 0
M  V30 7743 H 732.837 -3.10911 -0.27218 0
M  V30 7744 N 733.138 -0.185124 -1.56509 0
M  V30 7745 C 734.378 0.458547 -1.9919 0
M  V30 7746 C 734.742 1.59484 -1.06906 0
M  V30 7747 O 735.943 2.30201 -1.38783 0
M  V30 7748 C 734.214 0.916263 -3.45455 0
M  V30 7749 S 735.773 1.55918 -4.10165 0
M  V30 7750 H 732.591 0.147008 -0.695636 0
M  V30 7751 H 735.193 -0.285841 -1.93399 0
M  V30 7752 H 733.897 0.0790543 -4.10324 0
M  V30 7753 H 733.428 1.69436 -3.55042 0
M  V30 7754 H 735.443 2.84771 -4.0635 0
M  V30 7755 N 734.616 1.57351 0.0885366 0
M  V30 7756 C 736.027 1.75303 0.642308 0
M  V30 7757 C 736.378 0.808238 1.78779 0
M  V30 7758 O 735.503 -0.01171 2.16397 0
M  V30 7759 C 736.098 3.17885 1.17194 0
M  V30 7760 C 734.657 3.37239 1.67172 0
M  V30 7761 C 733.804 2.7108 0.584045 0
M  V30 7762 H 736.755 1.58103 -0.137567 0
M  V30 7763 H 736.776 3.2112 2.04114 0
M  V30 7764 H 736.288 3.86625 0.338024 0
M  V30 7765 H 734.389 2.73588 2.52943 0
M  V30 7766 H 734.502 4.45594 1.76019 0
M  V30 7767 H 732.866 2.33161 1.02508 0
M  V30 7768 H 733.649 3.42464 -0.239403 0
M  V30 7769 N 736.094 -0.359525 1.53444 0
M  V30 7770 C 737.004 -1.46445 1.83278 0
M  V30 7771 C 738.02 -1.5833 0.721629 0
M  V30 7772 O 739.196 -1.7411 1.01231 0
M  V30 7773 C 736.261 -2.81638 2.02191 0
M  V30 7774 C 735.322 -2.7923 3.26082 0
M  V30 7775 C 734.555 -4.07974 3.44082 0
M  V30 7776 O 734.778 -5.04447 2.66251 0
M  V30 7777 O 733.712 -4.13417 4.37458 0
M  V30 7778 H 737.538 -1.24156 2.77162 0
M  V30 7779 H 735.123 -0.550201 1.389 0
M  V30 7780 H 737.005 -3.61732 2.16167 0
M  V30 7781 H 735.68 -3.03892 1.11496 0
M  V30 7782 H 734.587 -1.97813 3.17523 0
M  V30 7783 H 735.92 -2.6193 4.16718 0
M  V30 7784 N 737.572 -1.44907 -0.619662 0
M  V30 7785 C 738.797 -1.52021 -1.41083 0
M  V30 7786 C 739.222 -0.14976 -1.87503 0
M  V30 7787 O 738.58 0.863303 -1.59426 0
M  V30 7788 C 738.628 -2.49911 -2.59955 0
M  V30 7789 O 737.732 -2.00857 -3.60181 0
M  V30 7790 H 737.073 -0.512912 -0.421684 0
M  V30 7791 H 739.603 -1.90149 -0.755282 0
M  V30 7792 H 739.613 -2.68323 -3.07354 0
M  V30 7793 H 738.288 -3.4945 -2.25516 0
M  V30 7794 H 736.865 -1.92265 -3.19513 0
M  V30 7795 N 739.05 0.861098 -1.31996 0
M  V30 7796 C 739.98 1.98482 -1.22993 0
M  V30 7797 C 740.961 1.6971 -0.115168 0
M  V30 7798 O 742.146 1.91849 -0.30126 0
M  V30 7799 C 739.276 3.34179 -0.945615 0
M  V30 7800 C 738.23 3.77284 -2.02091 0
M  V30 7801 C 737.556 5.1054 -1.58912 0
M  V30 7802 C 738.856 3.93439 -3.43515 0
M  V30 7803 H 740.55 2.06271 -2.17008 0
M  V30 7804 H 738.096 0.991043 -1.04472 0
M  V30 7805 H 740.049 4.12338 -0.869206 0
M  V30 7806 H 738.773 3.26586 0.0301849 0
M  V30 7807 H 737.432 3.01371 -2.08737 0
M  V30 7808 H 737.08 4.99397 -0.600942 0
M  V30 7809 H 736.78 5.40352 -2.30854 0
M  V30 7810 H 738.304 5.91199 -1.52696 0
M  V30 7811 H 739.718 4.6197 -3.39495 0
M  V30 7812 H 738.115 4.34661 -4.13751 0
M  V30 7813 H 739.185 2.96548 -3.8365 0
M  V30 7814 N 740.528 1.15101 1.07655 0
M  V30 7815 C 741.478 0.813448 2.12995 0
M  V30 7816 C 742.462 -0.200899 1.59641 0
M  V30 7817 O 743.654 -0.00209918 1.77 0
M  V30 7818 C 740.783 0.301078 3.41977 0
M  V30 7819 C 739.869 1.3454 4.02194 0
M  V30 7820 N 740.26 2.55181 4.36711 0
M  V30 7821 C 738.558 1.19742 4.29625 0
M  V30 7822 C 739.259 3.22094 4.84387 0
M  V30 7823 N 738.235 2.49486 4.82968 0
M  V30 7824 H 742.037 1.73105 2.37511 0
M  V30 7825 H 739.551 1.03601 1.25063 0
M  V30 7826 H 741.548 0.040914 4.1688 0
M  V30 7827 H 740.208 -0.610629 3.18907 0
M  V30 7828 H 741.219 2.92349 4.27496 0
M  V30 7829 H 737.896 0.345353 4.16069 0
M  V30 7830 H 739.286 4.24996 5.20411 0
M  V30 7831 N 742.006 -1.2595 0.947325 0
M  V30 7832 C 742.916 -2.29883 0.468079 0
M  V30 7833 C 743.932 -1.67783 -0.460975 0
M  V30 7834 O 745.108 -1.98526 -0.339006 0
M  V30 7835 C 742.173 -3.45773 -0.253315 0
M  V30 7836 C 741.234 -4.23337 0.713054 0
M  V30 7837 C 740.467 -5.33694 0.025993 0
M  V30 7838 O 740.69 -5.57853 -1.18978 0
M  V30 7839 O 739.624 -5.97724 0.70782 0
M  V30 7840 H 743.45 -2.72952 1.33156 0
M  V30 7841 H 741.035 -1.31263 0.713468 0
M  V30 7842 H 742.917 -4.16209 -0.659423 0
M  V30 7843 H 741.592 -3.04721 -1.09209 0
M  V30 7844 H 740.499 -3.55359 1.16923 0
M  V30 7845 H 741.832 -4.68154 1.51963 0
M  V30 7846 N 743.484 -0.715051 -1.40445 0
M  V30 7847 C 744.414 -0.0768699 -2.33373 0
M  V30 7848 C 745.395 0.746109 -1.52863 0
M  V30 7849 O 746.58 0.695142 -1.81332 0
M  V30 7850 C 743.71 0.846014 -3.36838 0
M  V30 7851 C 742.664 0.128694 -4.27806 0
M  V30 7852 C 741.99 1.16726 -5.21804 0
M  V30 7853 C 743.29 -1.01679 -5.12307 0
M  V30 7854 H 744.984 -0.853061 -2.8699 0
M  V30 7855 H 742.53 -0.41167 -1.3799 0
M  V30 7856 H 744.483 1.30185 -4.00786 0
M  V30 7857 H 743.207 1.6541 -2.81615 0
M  V30 7858 H 741.866 -0.307314 -3.6531 0
M  V30 7859 H 741.514 1.96838 -4.62887 0
M  V30 7860 H 741.214 0.692188 -5.83509 0
M  V30 7861 H 742.738 1.62321 -5.88629 0
M  V30 7862 H 744.152 -0.640337 -5.69713 0
M  V30 7863 H 742.549 -1.4202 -5.83053 0
M  V30 7864 H 743.619 -1.84769 -4.48317 0
M  V30 7865 N 744.962 1.50701 -0.461195 0
M  V30 7866 C 745.895 2.24948 0.383863 0
M  V30 7867 C 746.873 1.27851 1.00464 0
M  V30 7868 O 748.057 1.57049 1.04249 0
M  V30 7869 C 745.184 3.01818 1.537 0
M  V30 7870 C 744.23 4.13762 1.03457 0
M  V30 7871 S 745.063 5.35483 -0.0427485 0
M  V30 7872 C 746.219 6.15898 1.11449 0
M  V30 7873 H 746.452 2.96277 -0.246425 0
M  V30 7874 H 743.985 1.52428 -0.245961 0
M  V30 7875 H 745.943 3.467 2.19794 0
M  V30 7876 H 744.604 2.30034 2.13877 0
M  V30 7877 H 743.797 4.66914 1.89757 0
M  V30 7878 H 743.399 3.71265 0.4515 0
M  V30 7879 H 745.691 6.46431 2.02813 0
M  V30 7880 H 746.634 7.05359 0.622444 0
M  V30 7881 H 747.042 5.47777 1.36385 0
M  V30 7882 N 746.441 0.193421 1.56409 0
M  V30 7883 C 747.389 -0.744829 2.20352 0
M  V30 7884 C 748.383 -1.22104 1.17418 0
M  V30 7885 O 749.589 -1.18413 1.35567 0
M  V30 7886 H 745.964 -0.258538 0.70616 0
M  V30 7887 H 747.935 -0.181794 2.97846 0
M  V30 7888 C 746.684 -1.95453 2.87565 0
M  V30 7889 H 746.007 -1.59716 3.66512 0
M  V30 7890 H 747.447 -2.58942 3.35745 0
M  V30 7891 C 745.906 -2.79223 1.8851 0
M  V30 7892 O 746.436 -3.77093 1.38434 0
M  V30 7893 N 744.642 -2.44682 1.56777 0
M  V30 7894 H 744.189 -1.65153 1.97692 0
M  V30 7895 H 744.147 -3.01016 0.907573 0
M  V30 7896 N 747.919 -1.57396 -0.0801906 0
M  V30 7897 C 748.849 -2.06145 -1.09665 0
M  V30 7898 C 749.83 -0.953273 -1.40878 0
M  V30 7899 O 751.015 -1.22548 -1.50651 0
M  V30 7900 C 748.145 -2.49836 -2.41245 0
M  V30 7901 C 747.099 -3.64454 -2.24405 0
M  V30 7902 C 746.425 -3.94172 -3.61293 0
M  V30 7903 C 747.725 -4.94807 -1.67223 0
M  V30 7904 H 749.419 -2.91316 -0.691028 0
M  V30 7905 H 746.965 -1.40145 -0.330957 0
M  V30 7906 H 748.918 -2.82552 -3.12638 0
M  V30 7907 H 747.642 -1.61683 -2.83771 0
M  V30 7908 H 746.301 -3.32008 -1.55454 0
M  V30 7909 H 745.949 -3.03163 -4.01374 0
M  V30 7910 H 745.649 -4.71345 -3.50867 0
M  V30 7911 H 747.173 -4.29376 -4.3413 0
M  V30 7912 H 748.587 -5.25807 -2.28472 0
M  V30 7913 H 746.984 -5.76245 -1.67515 0
M  V30 7914 H 748.054 -4.80751 -0.632944 0
M  V30 7915 N 749.397 0.351382 -1.53633 0
M  V30 7916 C 750.637 1.10102 -1.72212 0
M  V30 7917 C 751.001 1.86128 -0.471198 0
M  V30 7918 O 752.202 2.63445 -0.533887 0
M  V30 7919 C 750.473 2.02348 -2.94602 0
M  V30 7920 S 752.032 2.84641 -3.33954 0
M  V30 7921 H 748.85 0.372145 -0.60583 0
M  V30 7922 H 751.452 0.38044 -1.91763 0
M  V30 7923 H 750.156 1.45283 -3.83824 0
M  V30 7924 H 749.687 2.78856 -2.77493 0
M  V30 7925 H 751.702 4.04724 -2.87076 0
M  V30 7926 N 750.875 1.45233 0.611969 0
M  V30 7927 C 752.121 1.50233 1.37119 0
M  V30 7928 C 752.476 0.140336 1.91888 0
M  V30 7929 O 751.769 -0.847161 1.71854 0
M  V30 7930 C 751.963 2.51353 2.54079 0
M  V30 7931 C 751.792 3.97251 2.10764 0
M  V30 7932 C 750.562 4.65256 1.97141 0
M  V30 7933 C 752.76 4.85914 1.68499 0
M  V30 7934 N 750.742 5.95895 1.4759 0
M  V30 7935 C 752.113 6.06147 1.30331 0
M  V30 7936 C 754.168 4.72813 1.56051 0
M  V30 7937 C 752.871 7.14729 0.809591 0
M  V30 7938 C 754.897 5.8144 1.08083 0
M  V30 7939 C 754.259 7.00825 0.708775 0
M  V30 7940 H 750.358 0.604708 0.495835 0
M  V30 7941 H 752.942 1.81679 0.700055 0
M  V30 7942 H 751.113 2.21866 3.18795 0
M  V30 7943 H 752.845 2.46528 3.20945 0
M  V30 7944 H 749.6 4.20345 2.18191 0
M  V30 7945 H 750.024 6.65349 1.25059 0
M  V30 7946 H 754.666 3.80931 1.83443 0
M  V30 7947 H 752.384 8.06404 0.523215 0
M  V30 7948 H 755.97 5.73335 0.988842 0
M  V30 7949 H 754.85 7.83448 0.343305 0
M  V30 7950 N 752.353 -0.854086 1.3245 0
M  V30 7951 C 753.3 -1.96271 1.21434 0
M  V30 7952 C 754.27 -1.6582 0.0963851 0
M  V30 7953 O 755.455 -1.88851 0.27203 0
M  V30 7954 C 752.595 -3.31939 0.943952 0
M  V30 7955 C 751.708 -3.74885 2.14675 0
M  V30 7956 C 750.843 -4.99347 1.81179 0
M  V30 7957 C 749.882 -5.34785 2.97777 0
M  V30 7958 N 749.019 -6.50425 2.6437 0
M  V30 7959 H 753.859 -2.05025 2.16261 0
M  V30 7960 H 751.396 -1.00348 1.07558 0
M  V30 7961 H 753.354 -4.10076 0.767675 0
M  V30 7962 H 751.984 -3.22784 0.0324763 0
M  V30 7963 H 751.036 -2.92396 2.43328 0
M  V30 7964 H 752.348 -3.97068 3.01891 0
M  V30 7965 H 751.502 -5.85193 1.60107 0
M  V30 7966 H 750.241 -4.79101 0.911777 0
M  V30 7967 H 749.246 -4.47451 3.1948 0
M  V30 7968 H 750.471 -5.56988 3.88511 0
M  V30 7969 H 748.417 -6.31695 1.7691 0
M  V30 7970 H 748.334 -6.7263 3.45116 0
M  V30 7971 H 749.602 -7.39422 2.46729 0
M  V30 7972 N 753.831 -1.1567 -1.07043 0
M  V30 7973 C 754.778 -0.856336 -2.14326 0
M  V30 7974 C 755.748 0.192051 -1.64986 0
M  V30 7975 O 756.933 0.0589148 -1.90709 0
M  V30 7976 C 754.073 -0.355227 -3.43267 0
M  V30 7977 C 753.186 -1.46555 -4.06381 0
M  V30 7978 C 752.321 -0.920245 -5.23168 0
M  V30 7979 C 751.36 -2.00729 -5.78251 0
M  V30 7980 N 750.497 -1.47813 -6.86364 0
M  V30 7981 H 755.337 -1.77514 -2.39359 0
M  V30 7982 H 752.874 -0.885676 -1.17449 0
M  V30 7983 H 754.832 -0.0463804 -4.17174 0
M  V30 7984 H 753.462 0.526649 -3.18475 0
M  V30 7985 H 752.514 -1.89052 -3.30096 0
M  V30 7986 H 753.826 -2.28616 -4.43324 0
M  V30 7987 H 752.98 -0.564127 -6.04072 0
M  V30 7988 H 751.719 -0.0688477 -4.87651 0
M  V30 7989 H 750.724 -2.3722 -4.95991 0
M  V30 7990 H 751.949 -2.86252 -6.15822 0
M  V30 7991 H 749.895 -0.649145 -6.5278 0
M  V30 7992 H 749.812 -2.23498 -7.22208 0
M  V30 7993 H 751.08 -1.15036 -7.70965 0
M  V30 7994 N 755.309 1.25446 -0.953992 0
M  V30 7995 C 756.586 1.884 -0.525823 0
M  V30 7996 C 756.966 1.86079 0.996891 0
M  V30 7997 O 756.314 1.32389 1.8624 0
M  V30 7998 C 756.524 3.31154 -1.10172 0
M  V30 7999 C 757.872 4.07926 -1.17819 0
M  V30 8000 O 758.896 3.40273 -1.05323 0
M  V30 8001 O 757.755 5.28942 -1.37415 0
M  V30 8002 H 754.849 0.808629 -0.173345 0
M  V30 8003 H 757.395 1.33522 -1.04738 0
M  V30 8004 H 756.167 3.27271 -2.14499 0
M  V30 8005 H 755.79 3.93588 -0.56338 0
M  V30 8006 N 756.787 0.722489 1.40064 0
M  V30 8007 C 758.198 0.336507 1.83642 0
M  V30 8008 C 758.549 -1.13002 1.6039 0
M  V30 8009 O 757.674 -1.87036 1.08842 0
M  V30 8010 C 758.269 0.603985 3.33373 0
M  V30 8011 C 756.828 0.271637 3.75419 0
M  V30 8012 C 755.975 0.872898 2.63203 0
M  V30 8013 H 758.926 0.921108 1.29233 0
M  V30 8014 H 758.947 -0.128471 3.80283 0
M  V30 8015 H 758.459 1.67141 3.50265 0
M  V30 8016 H 756.56 -0.790455 3.64119 0
M  V30 8017 H 756.673 0.745457 4.73265 0
M  V30 8018 H 755.037 0.300431 2.52922 0
M  V30 8019 H 755.82 1.94473 2.82905 0
M  V30 8020 N 758.265 -1.50454 0.469181 0
M  V30 8021 C 759.542 -1.9504 -0.147955 0
M  V30 8022 C 759.922 -1.40946 -1.57154 0
M  V30 8023 O 759.27 -0.609663 -2.20217 0
M  V30 8024 C 759.48 -3.48875 -0.0932198 0
M  V30 8025 C 760.828 -4.23655 -0.283056 0
M  V30 8026 O 761.852 -3.55795 -0.169892 0
M  V30 8027 O 760.711 -5.44102 -0.511396 0
M  V30 8028 H 757.805 -0.819283 -0.11271 0
M  V30 8029 H 760.351 -1.6123 0.529446 0
M  V30 8030 H 759.123 -3.80791 0.900784 0
M  V30 8031 H 758.746 -3.89217 -0.812161 0
M  V30 8032 N 759.743 -0.201713 -1.56304 0
M  V30 8033 C 760.653 0.728296 -2.23009 0
M  V30 8034 C 761.669 1.22945 -1.23128 0
M  V30 8035 O 762.845 1.27523 -1.55884 0
M  V30 8036 C 759.91 1.92792 -2.88153 0
M  V30 8037 C 758.971 1.47068 -4.03323 0
M  V30 8038 C 758.204 2.61312 -4.65351 0
M  V30 8039 O 758.427 3.7896 -4.26317 0
M  V30 8040 O 757.361 2.33646 -5.54701 0
M  V30 8041 H 761.187 0.190166 -3.03104 0
M  V30 8042 H 758.772 0.0278725 -1.49374 0
M  V30 8043 H 760.654 2.6289 -3.29343 0
M  V30 8044 H 759.329 2.45452 -2.11033 0
M  V30 8045 H 758.236 0.738299 -3.66742 0
M  V30 8046 H 759.569 0.990666 -4.82127 0
M  V30 8047 N 761.222 1.57436 0.0718424 0
M  V30 8048 C 762.638 1.53792 0.426628 0
M  V30 8049 C 762.838 0.921887 1.79174 0
M  V30 8050 O 761.894 0.524374 2.46995 0
M  V30 8051 C 763.207 2.98443 0.367739 0
M  V30 8052 C 764.755 3.09778 0.447928 0
M  V30 8053 C 765.23 4.5608 0.418946 0
M  V30 8054 N 766.721 4.60716 0.479022 0
M  V30 8055 C 767.456 5.71397 0.47881 0
M  V30 8056 N 766.952 6.91443 0.433417 0
M  V30 8057 N 768.745 5.59639 0.525364 0
M  V30 8058 H 760.896 1.95848 -0.822033 0
M  V30 8059 H 763.159 0.896418 -0.308447 0
M  V30 8060 H 762.865 3.47072 -0.56865 0
M  V30 8061 H 762.739 3.58335 1.17795 0
M  V30 8062 H 765.126 2.61122 1.37474 0
M  V30 8063 H 765.207 2.52796 -0.390857 0
M  V30 8064 H 764.851 5.05393 -0.504016 0
M  V30 8065 H 764.781 5.10925 1.27526 0
M  V30 8066 H 767.272 3.74328 0.518355 0
M  V30 8067 H 767.585 7.71562 0.43718 0
M  V30 8068 H 765.93 6.93847 0.400106 0
M  V30 8069 H 769.121 4.64756 0.558519 0
M  V30 8070 H 769.294 6.45896 0.52173 0
M  V30 8071 N 762.7 -0.34323 1.53817 0
M  V30 8072 C 764.111 -0.918823 1.62525 0
M  V30 8073 C 764.462 -1.89542 0.506765 0
M  V30 8074 O 763.587 -2.13326 -0.363441 0
M  V30 8075 C 764.182 -1.67326 2.94597 0
M  V30 8076 C 762.741 -2.19786 3.05567 0
M  V30 8077 C 761.888 -1.01708 2.57974 0
M  V30 8078 H 764.839 -0.121358 1.58235 0
M  V30 8079 H 764.86 -2.53615 2.83654 0
M  V30 8080 H 764.372 -0.962223 3.75983 0
M  V30 8081 H 762.473 -2.94065 2.28816 0
M  V30 8082 H 762.586 -2.46135 4.1104 0
M  V30 8083 H 760.95 -1.39058 2.13389 0
M  V30 8084 H 761.733 -0.320671 3.41799 0
M  V30 8085 N 764.178 -1.45556 -0.604258 0
M  V30 8086 C 765.406 -1.53278 -1.38973 0
M  V30 8087 C 765.821 -0.166509 -1.88064 0
M  V30 8088 O 765.178 0.832519 -1.62405 0
M  V30 8089 C 765.229 -2.51992 -2.59195 0
M  V30 8090 O 764.95 -3.8331 -2.12143 0
M  V30 8091 C 766.451 -2.69445 -3.52015 0
M  V30 8092 H 763.671 -0.519003 -0.425297 0
M  V30 8093 H 766.215 -1.90773 -0.736621 0
M  V30 8094 H 764.37 -2.17561 -3.2054 0
M  V30 8095 H 764.784 -4.3685 -2.90279 0
M  V30 8096 H 766.258 -3.42485 -4.32907 0
M  V30 8097 H 766.735 -1.75596 -4.0257 0
M  V30 8098 H 767.341 -3.04886 -2.9652 0
M  V30 8099 N 765.656 0.84705 -1.32902 0
M  V30 8100 C 766.903 1.60176 -1.23894 0
M  V30 8101 C 767.231 1.93496 0.197341 0
M  V30 8102 O 766.486 1.58173 1.15238 0
M  V30 8103 C 766.785 2.92663 -2.05142 0
M  V30 8104 C 766.451 2.7874 -3.54422 0
M  V30 8105 C 765.113 2.7465 -3.95121 0
M  V30 8106 C 767.465 2.64128 -4.49317 0
M  V30 8107 C 764.793 2.53837 -5.28946 0
M  V30 8108 C 767.145 2.44849 -5.83294 0
M  V30 8109 C 765.809 2.39156 -6.23186 0
M  V30 8110 H 765.079 0.586127 -0.453361 0
M  V30 8111 H 767.726 0.981994 -1.64405 0
M  V30 8112 H 766.031 3.588 -1.57383 0
M  V30 8113 H 767.728 3.50095 -1.95537 0
M  V30 8114 H 764.318 2.82751 -3.22102 0
M  V30 8115 H 768.502 2.66327 -4.18788 0
M  V30 8116 H 763.758 2.4787 -5.58901 0
M  V30 8117 H 767.932 2.32524 -6.56434 0
M  V30 8118 H 765.559 2.22789 -7.26821 0
M  V30 8119 N 767.134 1.16236 1.06428 0
M  V30 8120 C 768.044 0.881976 2.1739 0
M  V30 8121 C 769.06 -0.145259 1.73393 0
M  V30 8122 O 770.236 0.0310558 2.01376 0
M  V30 8123 C 767.301 0.385496 3.4455 0
M  V30 8124 C 766.362 1.47779 4.03063 0
M  V30 8125 C 765.595 1.0049 5.24154 0
M  V30 8126 O 765.818 -0.145889 5.70213 0
M  V30 8127 O 764.752 1.79265 5.74585 0
M  V30 8128 H 768.578 1.80983 2.43883 0
M  V30 8129 H 766.163 0.942226 1.15942 0
M  V30 8130 H 768.045 0.115536 4.21242 0
M  V30 8131 H 766.72 -0.514369 3.19587 0
M  V30 8132 H 765.627 1.80147 3.27869 0
M  V30 8133 H 766.96 2.35291 4.32318 0
M  V30 8134 N 768.612 -1.24939 0.960631 0
M  V30 8135 C 769.842 -1.96595 0.635123 0
M  V30 8136 C 770.25 -1.71538 -0.798206 0
M  V30 8137 O 769.593 -0.991727 -1.5463 0
M  V30 8138 C 769.655 -3.49994 0.821248 0
M  V30 8139 C 769.319 -3.98738 2.23287 0
M  V30 8140 C 770.316 -4.08965 3.21004 0
M  V30 8141 C 768.001 -4.32247 2.55867 0
M  V30 8142 C 769.995 -4.52025 4.49391 0
M  V30 8143 C 767.682 -4.74991 3.84482 0
M  V30 8144 C 768.68 -4.84844 4.81056 0
M  V30 8145 O 768.368 -5.26638 6.07378 0
M  V30 8146 H 768.1 -0.633265 0.23654 0
M  V30 8147 H 770.654 -1.5991 1.28911 0
M  V30 8148 H 768.884 -3.86543 0.110105 0
M  V30 8149 H 770.573 -4.02859 0.495892 0
M  V30 8150 H 771.339 -3.83302 2.97161 0
M  V30 8151 H 767.218 -4.23801 1.81421 0
M  V30 8152 H 770.762 -4.5963 5.24773 0
M  V30 8153 H 766.659 -5.00101 4.08129 0
M  V30 8154 H 767.427 -5.44807 6.10842 0
M  V30 8155 N 770.09 -0.729906 -1.39679 0
M  V30 8156 C 771.339 -0.272534 -1.9985 0
M  V30 8157 C 771.652 1.14519 -1.58571 0
M  V30 8158 O 772.858 1.70182 -2.11543 0
M  V30 8159 C 771.314 -0.436322 -3.57245 0
M  V30 8160 C 770.922 -1.86161 -4.0749 0
M  V30 8161 C 772.666 -0.0404679 -4.24481 0
M  V30 8162 C 770.573 -1.97522 -5.5744 0
M  V30 8163 H 769.503 -0.0981428 -0.747585 0
M  V30 8164 H 772.154 -0.903056 -1.59741 0
M  V30 8165 H 770.536 0.263015 -3.95126 0
M  V30 8166 H 771.71 -2.59248 -3.80955 0
M  V30 8167 H 770.025 -2.21021 -3.529 0
M  V30 8168 H 772.622 -0.104437 -5.34598 0
M  V30 8169 H 772.965 1.00357 -4.04023 0
M  V30 8170 H 773.498 -0.690774 -3.91757 0
M  V30 8171 H 770.237 -3.00096 -5.82771 0
M  V30 8172 H 769.757 -1.28864 -5.85794 0
M  V30 8173 H 771.436 -1.754 -6.22771 0
M  V30 8174 N 771.568 1.50203 -0.477153 0
M  V30 8175 C 772.5 2.26508 0.350239 0
M  V30 8176 C 773.513 1.32081 0.95176 0
M  V30 8177 O 774.702 1.57546 0.839139 0
M  V30 8178 C 771.802 3.0361 1.50579 0
M  V30 8179 C 770.975 4.25438 1.01595 0
M  V30 8180 C 770.034 4.84783 2.04626 0
M  V30 8181 O 769.06 5.45528 1.62442 0
M  V30 8182 N 770.262 4.72318 3.37485 0
M  V30 8183 H 773.027 2.98155 -0.30394 0
M  V30 8184 H 770.588 1.58938 -0.308289 0
M  V30 8185 H 772.58 3.4019 2.1921 0
M  V30 8186 H 771.15 2.34724 2.06455 0
M  V30 8187 H 770.37 3.93894 0.155316 0
M  V30 8188 H 771.658 5.04413 0.666694 0
M  V30 8189 H 771.056 4.24022 3.74462 0
M  V30 8190 H 769.613 5.13149 4.01897 0
M  V30 8191 N 773.046 0.209999 1.56195 0
M  V30 8192 C 774.271 -0.433064 2.02828 0
M  V30 8193 C 774.696 -1.5337 1.08901 0
M  V30 8194 O 774.054 -1.81144 0.0751132 0
M  V30 8195 C 774.102 -0.952635 3.47789 0
M  V30 8196 O 773.206 -2.0647 3.56993 0
M  V30 8197 H 772.547 -0.0994594 0.656509 0
M  V30 8198 H 775.077 0.32525 2.01998 0
M  V30 8199 H 775.087 -1.26542 3.8788 0
M  V30 8200 H 773.762 -0.147007 4.1564 0
M  V30 8201 H 772.339 -1.75942 3.28784 0
M  V30 8202 N 774.524 -1.57472 -0.0634922 0
M  V30 8203 C 775.771 -1.87654 -0.761066 0
M  V30 8204 C 776.099 -0.802847 -1.77157 0
M  V30 8205 O 775.354 0.200244 -1.94673 0
M  V30 8206 C 775.653 -3.24521 -1.49736 0
M  V30 8207 C 775.319 -4.46532 -0.626065 0
M  V30 8208 C 773.981 -4.7965 -0.385978 0
M  V30 8209 C 776.333 -5.21195 -0.0224001 0
M  V30 8210 C 773.661 -5.84837 0.467118 0
M  V30 8211 C 776.013 -6.27286 0.818198 0
M  V30 8212 C 774.677 -6.58899 1.06808 0
M  V30 8213 H 773.947 -0.686675 -0.278494 0
M  V30 8214 H 776.594 -1.91488 -0.0216348 0
M  V30 8215 H 774.899 -3.16516 -2.30921 0
M  V30 8216 H 776.596 -3.45111 -2.04204 0
M  V30 8217 H 773.186 -4.20618 -0.823325 0
M  V30 8218 H 777.37 -4.95917 -0.194985 0
M  V30 8219 H 772.626 -6.07725 0.669375 0
M  V30 8220 H 776.8 -6.84298 1.29265 0
M  V30 8221 H 774.427 -7.40233 1.73088 0
M  V30 8222 N 776.003 0.335068 -1.53997 0
M  V30 8223 C 776.933 1.41727 -1.85568 0
M  V30 8224 C 777.914 1.54505 -0.7115 0
M  V30 8225 O 779.099 1.68573 -0.964191 0
M  V30 8226 C 776.229 2.7866 -2.07282 0
M  V30 8227 C 775.183 2.80682 -3.23112 0
M  V30 8228 C 774.509 4.20581 -3.30175 0
M  V30 8229 C 775.809 2.45458 -4.61029 0
M  V30 8230 H 777.503 1.15555 -2.76202 0
M  V30 8231 H 775.049 0.554445 -1.32898 0
M  V30 8232 H 777.002 3.54423 -2.27952 0
M  V30 8233 H 775.726 3.06286 -1.13387 0
M  V30 8234 H 774.385 2.07373 -3.02311 0
M  V30 8235 H 774.033 4.4533 -2.33859 0
M  V30 8236 H 773.733 4.22843 -4.08016 0
M  V30 8237 H 775.257 4.98174 -3.53066 0
M  V30 8238 H 776.671 3.10934 -4.81656 0
M  V30 8239 H 775.068 2.5899 -5.41336 0
M  V30 8240 H 776.138 1.40628 -4.6406 0
M  V30 8241 N 777.481 1.45874 0.596531 0
M  V30 8242 C 778.391 1.57947 1.73464 0
M  V30 8243 C 779.407 0.463461 1.67714 0
M  V30 8244 O 780.583 0.725685 1.87872 0
M  V30 8245 C 777.648 1.55348 3.09948 0
M  V30 8246 C 776.709 2.78074 3.27068 0
M  V30 8247 C 775.942 2.75589 4.57041 0
M  V30 8248 O 776.165 1.83545 5.40063 0
M  V30 8249 O 775.099 3.66945 4.77111 0
M  V30 8250 H 778.925 2.54169 1.66228 0
M  V30 8251 H 776.51 1.2851 0.76194 0
M  V30 8252 H 778.392 1.56545 3.91244 0
M  V30 8253 H 777.067 0.622811 3.17652 0
M  V30 8254 H 775.974 2.82435 2.45319 0
M  V30 8255 H 777.307 3.70303 3.24248 0
M  V30 8256 N 778.959 -0.83999 1.33349 0
M  V30 8257 C 780.236 -1.57973 1.15342 0
M  V30 8258 C 780.616 -2.09226 -0.280632 0
M  V30 8259 O 779.964 -1.89317 -1.2795 0
M  V30 8260 C 780.174 -2.71446 2.19359 0
M  V30 8261 C 781.522 -3.40654 2.53456 0
M  V30 8262 O 782.546 -2.81686 2.18017 0
M  V30 8263 O 781.405 -4.47101 3.14266 0
M  V30 8264 H 778.499 -0.6964 0.446044 0
M  V30 8265 H 781.045 -0.882843 1.44927 0
M  V30 8266 H 779.817 -2.31205 3.1569 0
M  V30 8267 H 779.44 -3.488 1.90852 0
M  V30 8268 N 780.437 -1.16799 -1.0581 0
M  V30 8269 C 781.667 -0.975454 -1.82122 0
M  V30 8270 C 782.075 0.479584 -1.83021 0
M  V30 8271 O 781.418 1.34471 -1.25153 0
M  V30 8272 C 781.48 -1.43209 -3.29744 0
M  V30 8273 C 781.144 -2.908 -3.5254 0
M  V30 8274 C 782.141 -3.88775 -3.45181 0
M  V30 8275 C 779.826 -3.28832 -3.79703 0
M  V30 8276 C 781.82 -5.22782 -3.64661 0
M  V30 8277 C 779.507 -4.63007 -3.98832 0
M  V30 8278 C 780.505 -5.59791 -3.91309 0
M  V30 8279 O 780.193 -6.9154 -4.09911 0
M  V30 8280 H 779.925 -0.345655 -0.580947 0
M  V30 8281 H 782.479 -1.55355 -1.34365 0
M  V30 8282 H 780.709 -0.797504 -3.78387 0
M  V30 8283 H 782.398 -1.2062 -3.87564 0
M  V30 8284 H 783.164 -3.60738 -3.2418 0
M  V30 8285 H 779.043 -2.54073 -3.84666 0
M  V30 8286 H 782.587 -5.98312 -3.58705 0
M  V30 8287 H 778.484 -4.90752 -4.19324 0
M  V30 8288 H 779.252 -6.98188 -4.27172 0
M  V30 8289 N 781.915 1.24427 -0.967243 0
M  V30 8290 C 783.162 1.92487 -0.62888 0
M  V30 8291 C 783.49 1.75623 0.835871 0
M  V30 8292 O 782.745 1.1027 1.61675 0
M  V30 8293 C 783.044 3.44568 -0.949096 0
M  V30 8294 C 782.71 3.816 -2.40192 0
M  V30 8295 C 781.372 3.9142 -2.799 0
M  V30 8296 C 783.724 3.99715 -3.34481 0
M  V30 8297 C 781.052 4.16771 -4.12939 0
M  V30 8298 C 783.404 4.26562 -4.67148 0
M  V30 8299 C 782.068 4.34601 -5.06634 0
M  V30 8300 H 781.338 0.704361 -0.230124 0
M  V30 8301 H 783.985 1.4772 -1.21864 0
M  V30 8302 H 782.29 3.90819 -0.277085 0
M  V30 8303 H 783.987 3.95436 -0.665692 0
M  V30 8304 H 780.577 3.74522 -2.08402 0
M  V30 8305 H 784.761 3.91531 -3.04987 0
M  V30 8306 H 780.017 4.21214 -4.43158 0
M  V30 8307 H 784.191 4.39523 -5.40178 0
M  V30 8308 H 781.818 4.53998 -6.09746 0
M  V30 8309 N 783.393 0.737304 1.3929 0
M  V30 8310 C 784.621 0.296573 2.04763 0
M  V30 8311 C 785.036 -1.06941 1.55592 0
M  V30 8312 O 784.393 -1.67619 0.721822 0
M  V30 8313 C 784.444 0.291906 3.6032 0
M  V30 8314 O 784.165 1.60397 4.07682 0
M  V30 8315 C 785.666 -0.164708 4.42994 0
M  V30 8316 H 782.886 0.129251 0.658434 0
M  V30 8317 H 785.43 1.0016 1.78293 0
M  V30 8318 H 783.585 -0.364251 3.85684 0
M  V30 8319 H 783.999 1.51909 5.0202 0
M  V30 8320 H 785.473 -0.116814 5.51876 0
M  V30 8321 H 785.95 -1.21022 4.22197 0
M  V30 8322 H 786.556 0.461968 4.22784 0
M  V30 8323 N 784.871 -1.49948 0.485112 0
M  V30 8324 C 785.834 -2.27351 -0.290546 0
M  V30 8325 C 786.834 -1.32704 -0.908087 0
M  V30 8326 O 788.024 -1.56007 -0.775085 0
M  V30 8327 C 785.156 -3.10135 -1.41524 0
M  V30 8328 H 786.349 -2.97374 0.388454 0
M  V30 8329 H 783.902 -1.54453 0.239586 0
M  V30 8330 H 784.637 -2.44641 -2.12888 0
M  V30 8331 H 784.422 -3.79705 -0.978074 0
M  V30 8332 H 785.912 -3.68638 -1.96204 0
M  V30 8333 N 786.349 -0.21828 -1.56081 0
M  V30 8334 C 787.577 0.419258 -2.02608 0
M  V30 8335 C 787.992 1.53578 -1.09814 0
M  V30 8336 O 787.349 1.82185 -0.107149 0
M  V30 8337 C 787.4 0.953955 -3.48686 0
M  V30 8338 O 787.121 -0.11805 -4.37941 0
M  V30 8339 C 788.622 1.66506 -4.10841 0
M  V30 8340 H 785.842 0.10296 -0.663054 0
M  V30 8341 H 788.386 -0.333776 -2.01758 0
M  V30 8342 H 786.541 1.65727 -3.50162 0
M  V30 8343 H 786.955 0.283359 -5.23734 0
M  V30 8344 H 788.429 1.99123 -5.14834 0
M  V30 8345 H 788.906 2.57705 -3.55647 0
M  V30 8346 H 789.512 1.00703 -4.13206 0
M  V30 8347 N 787.827 1.57504 0.0551401 0
M  V30 8348 C 788.737 2.08198 1.08124 0
M  V30 8349 C 789.753 1.01496 1.41331 0
M  V30 8350 O 790.929 1.33073 1.51174 0
M  V30 8351 C 787.994 2.52968 2.37083 0
M  V30 8352 C 787.055 3.7404 2.10696 0
M  V30 8353 C 786.288 4.16665 3.33505 0
M  V30 8354 O 786.511 3.59019 4.4324 0
M  V30 8355 O 785.445 5.09324 3.20737 0
M  V30 8356 H 789.271 2.95977 0.680518 0
M  V30 8357 H 786.856 1.46933 0.270401 0
M  V30 8358 H 788.738 2.82211 3.12946 0
M  V30 8359 H 787.413 1.6831 2.76502 0
M  V30 8360 H 786.32 3.49855 1.32484 0
M  V30 8361 H 787.653 4.59601 1.76148 0
M  V30 8362 N 789.305 -0.326896 1.54172 0
M  V30 8363 C 790.716 -0.901533 1.63491 0
M  V30 8364 C 791.067 -1.88994 0.52684 0
M  V30 8365 O 790.192 -2.137 -0.340794 0
M  V30 8366 C 790.787 -1.64192 2.96355 0
M  V30 8367 C 789.346 -2.16533 3.07881 0
M  V30 8368 C 788.493 -0.98966 2.59039 0
M  V30 8369 H 791.444 -0.104568 1.58355 0
M  V30 8370 H 791.465 -2.50592 2.86328 0
M  V30 8371 H 790.977 -0.922291 3.76982 0
M  V30 8372 H 789.078 -2.91622 2.31922 0
M  V30 8373 H 789.191 -2.41762 4.13628 0
M  V30 8374 H 787.555 -1.36787 2.14852 0
M  V30 8375 H 788.338 -0.284401 3.4212 0
M  V30 8376 N 790.784 -1.46188 -0.588786 0
M  V30 8377 C 791.716 -1.52319 -1.71265 0
M  V30 8378 C 792.729 -0.412096 -1.57498 0
M  V30 8379 O 793.918 -0.680146 -1.65034 0
M  V30 8380 C 791.018 -1.38164 -3.09458 0
M  V30 8381 C 790.191 -2.63284 -3.49286 0
M  V30 8382 C 789.25 -2.43415 -4.66514 0
M  V30 8383 O 788.276 -3.17113 -4.72682 0
M  V30 8384 N 789.478 -1.49187 -5.61002 0
M  V30 8385 H 792.243 -2.49219 -1.66463 0
M  V30 8386 H 789.804 -1.42167 -0.774601 0
M  V30 8387 H 791.796 -1.22653 -3.85666 0
M  V30 8388 H 790.366 -0.494678 -3.08661 0
M  V30 8389 H 789.586 -2.93779 -2.62845 0
M  V30 8390 H 790.874 -3.46413 -3.7266 0
M  V30 8391 H 790.272 -0.884027 -5.5875 0
M  V30 8392 H 788.829 -1.39642 -6.36666 0
M  V30 8393 N 792.262 0.832906 -1.33792 0
M  V30 8394 C 793.492 1.61813 -1.28453 0
M  V30 8395 C 793.9 1.88639 0.145595 0
M  V30 8396 O 793.243 1.47122 1.10004 0
M  V30 8397 C 793.305 2.98929 -1.99704 0
M  V30 8398 C 792.969 2.95045 -3.48995 0
M  V30 8399 C 793.966 2.70337 -4.44088 0
M  V30 8400 C 791.651 3.14993 -3.91261 0
M  V30 8401 C 793.645 2.65612 -5.79421 0
M  V30 8402 C 791.332 3.09893 -5.26697 0
M  V30 8403 C 792.33 2.85235 -6.20588 0
M  V30 8404 O 792.018 2.8005 -7.53543 0
M  V30 8405 H 791.75 0.510013 -0.443693 0
M  V30 8406 H 794.304 1.04514 -1.76822 0
M  V30 8407 H 792.534 3.58106 -1.45935 0
M  V30 8408 H 794.223 3.59849 -1.87786 0
M  V30 8409 H 794.989 2.54671 -4.12756 0
M  V30 8410 H 790.868 3.33204 -3.18584 0
M  V30 8411 H 794.412 2.46285 -6.52679 0
M  V30 8412 H 790.309 3.2511 -5.5765 0
M  V30 8413 H 791.077 2.95849 -7.63162 0
M  V30 8414 N 793.74 1.17359 1.05189 0
M  V30 8415 C 794.672 0.848078 2.12933 0
M  V30 8416 C 795.685 -0.149521 1.62112 0
M  V30 8417 O 796.874 0.0767797 1.78335 0
M  V30 8418 C 793.974 0.243889 3.38021 0
M  V30 8419 C 793.147 1.28436 4.18118 0
M  V30 8420 C 792.206 0.697926 5.21551 0
M  V30 8421 O 791.232 1.36973 5.52473 0
M  V30 8422 N 792.434 -0.510024 5.78255 0
M  V30 8423 H 795.199 1.7754 2.41453 0
M  V30 8424 H 792.76 1.07244 1.21286 0
M  V30 8425 H 794.752 -0.161727 4.04377 0
M  V30 8426 H 793.322 -0.58722 3.07035 0
M  V30 8427 H 792.542 1.86573 3.47252 0
M  V30 8428 H 793.83 1.98617 4.68432 0
M  V30 8429 H 793.228 -1.07378 5.55416 0
M  V30 8430 H 791.785 -0.857705 6.46132 0
M  V30 8431 N 795.218 -1.23913 0.973828 0
M  V30 8432 C 796.629 -1.73992 0.677021 0
M  V30 8433 C 796.98 -1.78833 -0.807036 0
M  V30 8434 O 796.105 -1.42183 -1.63135 0
M  V30 8435 C 796.7 -3.15985 1.22226 0
M  V30 8436 C 795.259 -3.63547 0.975228 0
M  V30 8437 C 794.406 -2.42001 1.35392 0
M  V30 8438 H 797.357 -1.09529 1.14844 0
M  V30 8439 H 797.378 -3.75875 0.591489 0
M  V30 8440 H 796.89 -3.12429 2.30238 0
M  V30 8441 H 794.991 -3.72493 -0.0891047 0
M  V30 8442 H 795.104 -4.50693 1.62518 0
M  V30 8443 H 793.468 -2.42708 0.772334 0
M  V30 8444 H 794.251 -2.41122 2.44367 0
M  V30 8445 N 796.696 -0.74468 -1.38897 0
M  V30 8446 C 797.944 -0.296298 -1.99916 0
M  V30 8447 C 798.265 1.12325 -1.59399 0
M  V30 8448 O 797.535 1.76658 -0.846689 0
M  V30 8449 H 796.115 -0.106561 -0.73936 0
M  V30 8450 H 798.777 -0.956793 -1.69798 0
M  V30 8451 H 797.873 -0.352356 -3.10105 0
M  V30 8452 N 798.174 1.49689 -0.493057 0
M  V30 8453 C 799.084 2.32746 0.294358 0
M  V30 8454 C 800.1 1.44117 0.975003 0
M  V30 8455 O 801.276 1.77149 0.958138 0
M  V30 8456 C 798.341 3.19358 1.34949 0
M  V30 8457 C 797.402 4.2383 0.683122 0
M  V30 8458 C 796.635 5.06303 1.68798 0
M  V30 8459 O 796.858 4.90172 2.91698 0
M  V30 8460 O 795.792 5.88826 1.24768 0
M  V30 8461 H 799.618 3.01247 -0.385254 0
M  V30 8462 H 797.203 1.47216 -0.254519 0
M  V30 8463 H 799.085 3.73037 1.96014 0
M  V30 8464 H 797.76 2.53561 2.01217 0
M  V30 8465 H 796.667 3.74086 0.0329351 0
M  V30 8466 H 798 4.9216 0.0630192 0
M  V30 8467 N 799.652 0.226554 1.55963 0
M  V30 8468 C 800.6 -0.697922 2.21882 0
M  V30 8469 C 801.594 -1.19586 1.19981 0
M  V30 8470 O 802.8 -1.15511 1.38048 0
M  V30 8471 H 799.175 -0.243501 0.711485 0
M  V30 8472 H 801.146 -0.118576 2.98164 0
M  V30 8473 C 799.895 -1.89309 2.91646 0
M  V30 8474 H 799.218 -1.51906 3.69817 0
M  V30 8475 H 800.658 -2.51762 3.41162 0
M  V30 8476 C 799.117 -2.75162 1.94391 0
M  V30 8477 O 799.647 -3.74071 1.46402 0
M  V30 8478 N 797.853 -2.41302 1.61932 0
M  V30 8479 H 797.4 -1.60923 2.01151 0
M  V30 8480 H 797.358 -2.99023 0.971219 0
M  V30 8481 N 801.13 -1.57531 -0.0467866 0
M  V30 8482 C 802.06 -2.08425 -1.05268 0
M  V30 8483 C 803.041 -0.982941 -1.38825 0
M  V30 8484 O 804.226 -1.25716 -1.48018 0
M  V30 8485 C 801.356 -2.54897 -2.35891 0
M  V30 8486 C 800.31 -3.69132 -2.16623 0
M  V30 8487 C 799.636 -4.01747 -3.52851 0
M  V30 8488 C 800.936 -4.98243 -1.56689 0
M  V30 8489 H 802.63 -2.92716 -0.62908 0
M  V30 8490 H 800.176 -1.40816 -0.301156 0
M  V30 8491 H 802.129 -2.8912 -3.06574 0
M  V30 8492 H 800.853 -1.67666 -2.80278 0
M  V30 8493 H 799.512 -3.35231 -1.48377 0
M  V30 8494 H 799.16 -3.11608 -3.94853 0
M  V30 8495 H 798.86 -4.78681 -3.4079 0
M  V30 8496 H 800.384 -4.38487 -4.24925 0
M  V30 8497 H 801.798 -5.30535 -2.17268 0
M  V30 8498 H 800.195 -5.79669 -1.55255 0
M  V30 8499 H 801.265 -4.81986 -0.530827 0
M  V30 8500 O 802.647 0.18996 -1.60379 0
M  V30 8501 H 803.338 0.828364 -1.75094 0
M  V30 END ATOM
M  V30 BEGIN BOND
M  V30 END BOND
M  V30 END CTAB
M  END
$$$$
