drugbank_target|Q71U36 Tubulin alpha-1A chain (DB00518; DB00570; DB00643; DB01873; DB03010; DB05147; DB07574; DB11638; DB12695; DB15534)
 OpenBabel12092119523D

  0  0  0     0  0            999 V3000
M  V30 BEGIN CTAB
M  V30 COUNTS 6933 7012 0 0 0
M  V30 BEGIN ATOM
M  V30 1 H -0.908 1.98254 -0.117106 0
M  V30 2 N 0 1.576 0 0
M  V30 3 C 0.933 2.03868 1.02534 0
M  V30 4 C 1.911 0.928543 1.3348 0
M  V30 5 O 3.095 1.19667 1.45644 0
M  V30 6 C 0.222 2.43627 2.35294 0
M  V30 7 C -0.732 3.65373 2.2001 0
M  V30 8 S 0.101 5.13292 1.52614 0
M  V30 9 C 1.257 5.56322 2.86805 0
M  V30 10 H 1.49 2.90518 0.631377 0
M  V30 11 H -0.977 1.52953 0.210867 0
M  V30 12 H 0.981 2.67203 3.11629 0
M  V30 13 H -0.358 1.57376 2.7183 0
M  V30 14 H -1.165 3.90944 3.18086 0
M  V30 15 H -1.563 3.418 1.51819 0
M  V30 16 H 0.729 5.58782 3.83104 0
M  V30 17 H 1.672 6.56266 2.65933 0
M  V30 18 H 2.08 4.83886 2.90714 0
M  V30 19 N 1.4781 -0.272755 1.55222 0
M  V30 20 C 2.8941 -0.619959 1.47067 0
M  V30 21 C 3.0941 -1.895 0.684978 0
M  V30 22 O 2.1501 -2.51675 0.203931 0
M  V30 23 C 3.4631 -0.746693 2.91282 0
M  V30 24 C 5.0111 -0.840731 3.01497 0
M  V30 25 C 5.4861 -0.99924 4.46967 0
M  V30 26 N 6.9771 -1.06476 4.50796 0
M  V30 27 C 7.7121 -1.20621 5.6057 0
M  V30 28 N 7.2081 -1.31483 6.80209 0
M  V30 29 N 9.0011 -1.23733 5.48312 0
M  V30 30 H 1.1521 0.564606 2.04758 0
M  V30 31 H 3.4151 0.191177 0.928523 0
M  V30 32 H 3.1211 0.119753 3.51496 0
M  V30 33 H 2.9951 -1.6269 3.40311 0
M  V30 34 H 5.3821 -1.69764 2.41379 0
M  V30 35 H 5.4631 0.0640874 2.5572 0
M  V30 36 H 5.1071 -0.146984 5.07687 0
M  V30 37 H 5.0371 -1.91871 4.90401 0
M  V30 38 H 7.5281 -0.993196 3.64615 0
M  V30 39 H 7.8411 -1.42111 7.59621 0
M  V30 40 H 6.1861 -1.28487 6.8302 0
M  V30 41 H 9.3771 -1.14877 4.53785 0
M  V30 42 H 9.5501 -1.34412 6.33906 0
M  V30 43 N 2.9562 -1.48159 -0.537278 0
M  V30 44 C 3.8662 -1.64807 -1.6696 0
M  V30 45 C 4.8822 -0.530651 -1.65711 0
M  V30 46 O 6.0582 -0.800784 -1.84796 0
M  V30 47 C 3.1232 -1.67708 -3.03438 0
M  V30 48 C 2.1842 -2.91025 -3.156 0
M  V30 49 C 1.4172 -2.93778 -4.45567 0
M  V30 50 O 1.6402 -2.05153 -5.3223 0
M  V30 51 O 0.5742 -3.85868 -4.61941 0
M  V30 52 H 4.4002 -2.6066 -1.55853 0
M  V30 53 H 1.9852 -1.31475 -0.709549 0
M  V30 54 H 3.8672 -1.7218 -3.84619 0
M  V30 55 H 2.5422 -0.750278 -3.14885 0
M  V30 56 H 1.4492 -2.92089 -2.33741 0
M  V30 57 H 2.7822 -3.83065 -3.09066 0
M  V30 58 N 4.4343 0.785586 -1.36625 0
M  V30 59 C 5.6743 1.55678 -1.32453 0
M  V30 60 C 6.0383 1.91769 0.0941089 0
M  V30 61 O 7.2393 2.67536 0.26042 0
M  V30 62 C 5.5103 2.79701 -2.22491 0
M  V30 63 S 7.0693 3.69907 -2.36038 0
M  V30 64 H 3.8873 0.533141 -0.470405 0
M  V30 65 H 6.4893 0.924953 -1.72235 0
M  V30 66 H 5.1933 2.51244 -3.24507 0
M  V30 67 H 4.7243 3.47854 -1.83742 0
M  V30 68 H 6.7393 4.71016 -1.56072 0
M  V30 69 N 5.9124 1.20967 1.01018 0
M  V30 70 C 7.1614 1.01796 1.74128 0
M  V30 71 C 7.4744 -0.449691 1.90361 0
M  V30 72 O 8.6804 -0.76068 2.60626 0
M  V30 73 C 7.1364 1.7727 3.13215 0
M  V30 74 C 6.7444 3.28171 3.04972 0
M  V30 75 C 8.4884 1.66489 3.90489 0
M  V30 76 C 6.3954 3.96156 4.39107 0
M  V30 77 H 5.3254 0.377276 0.652824 0
M  V30 78 H 7.9764 1.44651 1.12909 0
M  V30 79 H 6.3584 1.27205 3.75013 0
M  V30 80 H 7.5324 3.85499 2.52443 0
M  V30 81 H 5.8474 3.39437 2.41188 0
M  V30 82 H 8.4444 2.14617 4.89738 0
M  V30 83 H 8.7874 0.6222 4.11624 0
M  V30 84 H 9.3204 2.14003 3.35332 0
M  V30 85 H 6.0594 5.00604 4.23174 0
M  V30 86 H 5.5794 3.43617 4.91617 0
M  V30 87 H 7.2584 4.00774 5.07926 0
M  V30 88 N 7.3905 -1.2043 1.01659 0
M  V30 89 C 8.6155 -1.94318 0.724942 0
M  V30 90 C 9.0405 -1.74266 -0.708034 0
M  V30 91 O 8.3985 -1.03694 -1.48719 0
M  V30 92 C 8.4465 -3.44486 1.06591 0
M  V30 93 O 7.5505 -4.12017 0.177599 0
M  V30 94 H 6.8915 -0.60708 0.26898 0
M  V30 95 H 9.4215 -1.52861 1.35995 0
M  V30 96 H 9.4315 -3.95106 1.01762 0
M  V30 97 H 8.1065 -3.58404 2.10997 0
M  V30 98 H 6.6835 -3.71821 0.283421 0
M  V30 99 N 8.8686 -0.792821 -1.36206 0
M  V30 100 C 10.1176 -0.363353 -1.984 0
M  V30 101 C 10.4306 1.07172 -1.63626 0
M  V30 102 O 11.6366 1.60362 -2.19081 0
M  V30 103 C 10.0926 -0.59872 -3.54885 0
M  V30 104 C 9.7006 -2.04543 -3.9858 0
M  V30 105 C 11.4446 -0.233926 -4.23855 0
M  V30 106 C 9.3516 -2.22727 -5.47856 0
M  V30 107 H 8.2816 -0.13212 -0.742334 0
M  V30 108 H 10.9326 -0.974935 -1.55458 0
M  V30 109 H 9.3146 0.0826222 -3.95914 0
M  V30 110 H 10.4886 -2.76345 -3.68741 0
M  V30 111 H 8.8036 -2.36879 -3.42458 0
M  V30 112 H 11.4006 -0.348027 -5.33566 0
M  V30 113 H 11.7436 0.818351 -4.08177 0
M  V30 114 H 12.2766 -0.868639 -3.882 0
M  V30 115 H 9.0156 -3.2635 -5.68486 0
M  V30 116 H 8.5356 -1.55434 -5.7931 0
M  V30 117 H 10.2146 -2.03607 -6.14128 0
M  V30 118 N 10.3467 1.47872 -0.545128 0
M  V30 119 C 11.2967 2.26842 0.229456 0
M  V30 120 C 12.2807 1.33626 0.896267 0
M  V30 121 O 13.4727 1.58063 0.79657 0
M  V30 122 C 10.6017 3.19089 1.26638 0
M  V30 123 C 9.6877 4.19783 0.603598 0
M  V30 124 N 10.0787 5.0479 -0.319405 0
M  V30 125 C 8.3767 4.3765 0.858989 0
M  V30 126 C 9.0777 5.77433 -0.703241 0
M  V30 127 N 8.0537 5.43566 -0.0608309 0
M  V30 128 H 11.8557 2.89947 -0.480391 0
M  V30 129 H 9.3697 1.58263 -0.364209 0
M  V30 130 H 11.3667 3.74337 1.83515 0
M  V30 131 H 10.0267 2.5754 1.97745 0
M  V30 132 H 11.0377 5.13244 -0.692889 0
M  V30 133 H 7.7147 3.87281 1.55948 0
M  V30 134 H 9.1047 6.55824 -1.46098 0
M  V30 135 N 11.8248 0.280983 1.55075 0
M  V30 136 C 13.0708 -0.33461 2.00021 0
M  V30 137 C 13.4038 -1.55063 1.16915 0
M  V30 138 O 12.6788 -1.93006 0.240646 0
M  V30 139 C 12.9618 -0.711007 3.53011 0
M  V30 140 C 12.8148 0.512766 4.46868 0
M  V30 141 C 14.1338 -1.54522 4.12081 0
M  V30 142 H 11.2528 -0.120147 0.727141 0
M  V30 143 H 13.8948 0.389097 1.85973 0
M  V30 144 H 12.0448 -1.32761 3.65112 0
M  V30 145 H 13.7168 1.15131 4.46702 0
M  V30 146 H 11.9598 1.14975 4.18286 0
M  V30 147 H 12.6308 0.205556 5.51617 0
M  V30 148 H 15.1068 -1.02442 4.03293 0
M  V30 149 H 13.9828 -1.77739 5.19327 0
M  V30 150 H 14.2438 -2.52813 3.62682 0
M  V30 151 N 13.3029 -1.57598 0.00835791 0
M  V30 152 C 14.5509 -1.90551 -0.6734 0
M  V30 153 C 14.8719 -0.883301 -1.73847 0
M  V30 154 O 14.1419 0.0781442 -1.95744 0
M  V30 155 H 12.7219 -0.703312 -0.251717 0
M  V30 156 H 15.3839 -1.94833 0.0512592 0
M  V30 157 H 14.4799 -2.9056 -1.13935 0
M  V30 158 N 14.781 0.264519 -1.55364 0
M  V30 159 C 15.713 1.34965 -1.85248 0
M  V30 160 C 16.726 1.45136 -0.737525 0
M  V30 161 O 17.915 1.46801 -1.01547 0
M  V30 162 C 15.015 2.73008 -2.00797 0
M  V30 163 C 14.188 2.85324 -3.31525 0
M  V30 164 C 13.247 4.04097 -3.37034 0
M  V30 165 O 12.273 3.94455 -4.10358 0
M  V30 166 N 13.475 5.16458 -2.65049 0
M  V30 167 H 16.24 1.09672 -2.78913 0
M  V30 168 H 13.801 0.454635 -1.55386 0
M  V30 169 H 15.793 3.50772 -2.01844 0
M  V30 170 H 14.363 2.91087 -1.1396 0
M  V30 171 H 13.583 1.94377 -3.42945 0
M  V30 172 H 14.871 2.9049 -4.17724 0
M  V30 173 H 14.269 5.27181 -2.05175 0
M  V30 174 H 12.826 5.92422 -2.71809 0
M  V30 175 N 16.2591 1.48442 0.529413 0
M  V30 176 C 17.2221 1.62524 1.61612 0
M  V30 177 C 18.2221 0.498509 1.52877 0
M  V30 178 O 19.4121 0.76431 1.56537 0
M  V30 179 C 16.5441 1.59597 3.01233 0
M  V30 180 H 17.7371 2.59423 1.50465 0
M  V30 181 H 15.2901 1.37047 0.751514 0
M  V30 182 H 16.0251 0.641781 3.17886 0
M  V30 183 H 15.8101 2.41397 3.08982 0
M  V30 184 H 17.3001 1.72646 3.80241 0
M  V30 185 N 17.7372 -0.778329 1.37039 0
M  V30 186 C 18.9852 -1.53361 1.31623 0
M  V30 187 C 19.3062 -1.94739 -0.100831 0
M  V30 188 O 18.5762 -1.65797 -1.04347 0
M  V30 189 H 17.1562 -0.568794 0.484234 0
M  V30 190 H 19.8182 -0.926742 1.71457 0
M  V30 191 H 18.9142 -2.43606 1.95096 0
M  V30 192 N 19.2153 -1.21501 -1.00376 0
M  V30 193 C 20.4613 -1.03452 -1.74429 0
M  V30 194 C 20.7943 0.430764 -1.89362 0
M  V30 195 O 20.0693 1.31962 -1.42886 0
M  V30 196 C 20.3523 -1.73375 -3.15615 0
M  V30 197 C 20.2053 -3.27431 -3.08397 0
M  V30 198 C 21.5243 -1.47732 -4.14564 0
M  V30 199 H 18.6433 -0.377226 -0.633143 0
M  V30 200 H 21.2853 -1.49693 -1.17013 0
M  V30 201 H 19.4353 -1.34064 -3.64636 0
M  V30 202 H 21.1073 -3.76119 -2.67081 0
M  V30 203 H 19.3503 -3.5767 -2.45468 0
M  V30 204 H 20.0213 -3.71524 -4.08258 0
M  V30 205 H 22.4973 -1.8186 -3.74254 0
M  V30 206 H 21.3733 -1.99169 -5.11491 0
M  V30 207 H 21.6343 -0.407589 -4.40217 0
M  V30 208 N 20.6934 1.19889 -1.02296 0
M  V30 209 C 21.6254 2.22334 -0.556787 0
M  V30 210 C 22.6384 1.58674 0.364199 0
M  V30 211 O 23.8274 1.77768 0.161533 0
M  V30 212 C 20.9274 3.38257 0.208694 0
M  V30 213 C 20.1004 4.31504 -0.71577 0
M  V30 214 C 19.1594 5.262 0.00325597 0
M  V30 215 O 18.1854 5.65798 -0.621357 0
M  V30 216 N 19.3874 5.66303 1.27599 0
M  V30 217 H 22.1524 2.62957 -1.43784 0
M  V30 218 H 19.7134 1.34495 -0.901261 0
M  V30 219 H 21.7054 3.98616 0.699111 0
M  V30 220 H 20.2754 2.96472 0.991102 0
M  V30 221 H 19.4954 3.69016 -1.38638 0
M  V30 222 H 20.7834 4.9072 -1.34428 0
M  V30 223 H 20.1814 5.36155 1.80429 0
M  V30 224 H 18.7384 6.28942 1.71102 0
M  V30 225 N 22.1715 0.800033 1.35784 0
M  V30 226 C 23.4205 0.37387 1.98205 0
M  V30 227 C 23.7335 -1.06302 1.64193 0
M  V30 228 O 24.9395 -1.59198 2.19928 0
M  V30 229 C 23.3955 0.617532 3.54562 0
M  V30 230 C 23.0035 2.06654 3.9749 0
M  V30 231 C 24.7475 0.256401 4.23725 0
M  V30 232 C 22.6545 2.2563 5.46667 0
M  V30 233 H 21.5845 0.136055 0.741623 0
M  V30 234 H 24.2355 0.983166 1.54939 0
M  V30 235 H 22.6175 -0.0616248 3.95952 0
M  V30 236 H 23.7915 2.78296 3.67271 0
M  V30 237 H 22.1065 2.38691 3.41197 0
M  V30 238 H 24.7035 0.376318 5.33374 0
M  V30 239 H 25.0465 -0.796692 4.08606 0
M  V30 240 H 25.5795 0.889214 3.87734 0
M  V30 241 H 22.3185 3.2936 5.66747 0
M  V30 242 H 21.8385 1.58504 5.78478 0
M  V30 243 H 23.5175 2.06861 6.1304 0
M  V30 244 N 23.6496 -1.47581 0.552962 0
M  V30 245 C 24.8976 -2.02082 0.0272703 0
M  V30 246 C 25.2186 -1.4301 -1.32563 0
M  V30 247 O 24.4886 -0.603745 -1.86365 0
M  V30 248 H 23.0686 -0.746966 0.00709182 0
M  V30 249 H 25.7306 -1.81033 0.722008 0
M  V30 250 H 24.8266 -3.12034 -0.0639951 0
M  V30 251 N 25.1277 -0.289203 -1.54924 0
M  V30 252 C 26.0757 0.607966 -2.24514 0
M  V30 253 C 27.0697 1.14655 -1.24702 0
M  V30 254 O 28.2757 1.09856 -1.4259 0
M  V30 255 H 24.6507 0.21464 -0.720718 0
M  V30 256 H 26.6217 -0.00164182 -2.984 0
M  V30 257 C 25.3707 1.77406 -2.99036 0
M  V30 258 H 24.6937 1.36884 -3.75637 0
M  V30 259 H 26.1337 2.37814 -3.51028 0
M  V30 260 C 24.5927 2.67107 -2.05318 0
M  V30 261 O 25.1227 3.6787 -1.61353 0
M  V30 262 N 23.3287 2.34582 -1.71521 0
M  V30 263 H 22.8757 1.52688 -2.07471 0
M  V30 264 H 22.8337 2.94867 -1.0909 0
M  V30 265 N 26.6058 1.57591 -0.0167156 0
M  V30 266 C 27.5688 2.08393 0.954204 0
M  V30 267 C 28.5688 0.996531 1.26198 0
M  V30 268 O 29.7588 1.25858 1.20438 0
M  V30 269 C 26.8908 2.5394 2.27436 0
M  V30 270 H 28.0838 2.95455 0.514451 0
M  V30 271 H 25.6368 1.54582 0.231089 0
M  V30 272 H 26.3718 1.70171 2.76066 0
M  V30 273 H 26.1568 3.33371 2.06412 0
M  V30 274 H 27.6468 2.93512 2.97053 0
M  V30 275 N 28.0839 -0.256276 1.55502 0
M  V30 276 C 29.3239 -0.993081 1.78654 0
M  V30 277 C 29.6879 -1.8288 0.584724 0
M  V30 278 O 30.8889 -2.59665 0.694822 0
M  V30 279 C 29.1599 -1.83856 3.06483 0
M  V30 280 S 30.7189 -2.63573 3.5082 0
M  V30 281 H 27.5369 -0.334199 0.62756 0
M  V30 282 H 30.1389 -0.26184 1.93739 0
M  V30 283 H 28.8429 -1.21414 3.92029 0
M  V30 284 H 28.3739 -2.61271 2.94111 0
M  V30 285 H 30.3889 -3.86312 3.11412 0
M  V30 286 N 29.562 -1.4872 -0.521534 0
M  V30 287 C 30.808 -1.58378 -1.27624 0
M  V30 288 C 31.163 -0.258028 -1.90662 0
M  V30 289 O 30.456 0.739917 -1.76736 0
M  V30 290 C 30.65 -2.66497 -2.38148 0
M  V30 291 C 30.479 -4.09456 -1.85945 0
M  V30 292 C 29.249 -4.76495 -1.68168 0
M  V30 293 C 31.447 -4.95353 -1.3831 0
M  V30 294 N 29.429 -6.0384 -1.1068 0
M  V30 295 C 30.8 -6.13012 -0.928238 0
M  V30 296 C 32.855 -4.81512 -1.26692 0
M  V30 297 C 31.558 -7.18354 -0.368701 0
M  V30 298 C 33.584 -5.86984 -0.721368 0
M  V30 299 C 32.946 -7.03857 -0.276623 0
M  V30 300 H 29.045 -0.634045 -0.457724 0
M  V30 301 H 31.629 -1.85639 -0.587049 0
M  V30 302 H 29.8 -2.41043 -3.04553 0
M  V30 303 H 31.532 -2.65791 -3.05184 0
M  V30 304 H 28.287 -4.32962 -1.91939 0
M  V30 305 H 28.711 -6.71778 -0.839217 0
M  V30 306 H 33.353 -3.91487 -1.5968 0
M  V30 307 H 31.071 -8.08096 -0.0265122 0
M  V30 308 H 34.657 -5.78329 -0.634531 0
M  V30 309 H 33.537 -7.84077 0.138947 0
M  V30 310 N 31.0401 0.771051 -1.3745 0
M  V30 311 C 31.9501 1.91538 -1.35464 0
M  V30 312 C 32.9661 1.72134 -0.254123 0
M  V30 313 O 34.1421 1.95358 -0.489626 0
M  V30 314 C 31.2071 3.26671 -1.16134 0
M  V30 315 C 30.2681 3.58723 -2.35831 0
M  V30 316 C 29.5011 4.87409 -2.17413 0
M  V30 317 O 29.7241 5.58506 -1.15876 0
M  V30 318 O 28.6581 5.18539 -3.05615 0
M  V30 319 H 32.4841 1.96165 -2.31847 0
M  V30 320 H 30.0691 0.9139 -1.18187 0
M  V30 321 H 31.9511 4.07499 -1.07345 0
M  V30 322 H 30.6261 3.22894 -0.228251 0
M  V30 323 H 29.5331 2.78127 -2.50192 0
M  V30 324 H 30.8661 3.67243 -3.27709 0
M  V30 325 N 32.5182 1.22032 0.997298 0
M  V30 326 C 33.4482 1.01065 2.10495 0
M  V30 327 C 34.4292 -0.0669542 1.69968 0
M  V30 328 O 35.6142 0.0943987 1.9397 0
M  V30 329 C 32.7442 0.582874 3.42374 0
M  V30 330 C 31.6982 1.60592 3.96729 0
M  V30 331 C 31.0242 1.03412 5.24605 0
M  V30 332 C 32.3242 2.99478 4.27914 0
M  V30 333 H 34.0182 1.93708 2.28292 0
M  V30 334 H 31.5642 0.932761 1.09707 0
M  V30 335 H 33.5172 0.423332 4.19268 0
M  V30 336 H 32.2412 -0.379213 3.24391 0
M  V30 337 H 30.9002 1.75316 3.21963 0
M  V30 338 H 30.5482 0.063518 5.0296 0
M  V30 339 H 30.2482 1.71754 5.61938 0
M  V30 340 H 31.7722 0.886066 6.04137 0
M  V30 341 H 33.1862 2.88153 4.95622 0
M  V30 342 H 31.5832 3.64903 4.76409 0
M  V30 343 H 32.6532 3.49742 3.3587 0
M  V30 344 N 33.9963 -1.19345 1.0293 0
M  V30 345 C 35.2263 -1.92717 0.744563 0
M  V30 346 C 35.6343 -1.75751 -0.700579 0
M  V30 347 O 34.9773 -1.07703 -1.48815 0
M  V30 348 C 35.0393 -3.44828 1.01657 0
M  V30 349 C 34.7033 -3.85564 2.45335 0
M  V30 350 C 35.7003 -3.90286 3.43472 0
M  V30 351 C 33.3853 -4.1719 2.79746 0
M  V30 352 C 35.3793 -4.26065 4.74075 0
M  V30 353 C 33.0663 -4.52642 4.10559 0
M  V30 354 C 34.0643 -4.57054 5.07534 0
M  V30 355 O 33.7523 -4.91685 6.36004 0
M  V30 356 H 33.4843 -0.618977 0.271742 0
M  V30 357 H 36.0383 -1.52415 1.37691 0
M  V30 358 H 34.2683 -3.85314 0.327084 0
M  V30 359 H 35.9573 -3.99437 0.721427 0
M  V30 360 H 36.7233 -3.66002 3.18225 0
M  V30 361 H 32.6023 -4.1294 2.04943 0
M  V30 362 H 36.1463 -4.29423 5.49765 0
M  V30 363 H 32.0433 -4.76383 4.35579 0
M  V30 364 H 32.8113 -5.09631 6.40483 0
M  V30 365 N 35.4744 -0.807222 -1.35358 0
M  V30 366 C 36.7144 -0.393534 -2.00576 0
M  V30 367 C 37.0784 1.0203 -1.62647 0
M  V30 368 O 38.2794 1.53603 -2.20589 0
M  V30 369 C 36.5504 -0.572017 -3.52793 0
M  V30 370 S 38.1094 -0.248845 -4.38094 0
M  V30 371 H 34.9274 -0.149425 -0.695121 0
M  V30 372 H 37.5294 -1.04961 -1.64935 0
M  V30 373 H 36.2334 -1.60097 -3.77885 0
M  V30 374 H 35.7644 0.099359 -3.93275 0
M  V30 375 H 37.7794 0.943253 -4.87152 0
M  V30 376 N 36.9525 1.47285 -0.560781 0
M  V30 377 C 37.8825 2.32857 0.173105 0
M  V30 378 C 38.8635 1.44009 0.905281 0
M  V30 379 O 40.0485 1.7286 0.885046 0
M  V30 380 C 37.1785 3.25861 1.20133 0
M  V30 381 C 36.1325 4.23978 0.585388 0
M  V30 382 C 35.4585 5.06332 1.7185 0
M  V30 383 C 36.7585 5.20242 -0.463178 0
M  V30 384 H 38.4525 2.94466 -0.541307 0
M  V30 385 H 35.9985 1.41601 -0.261764 0
M  V30 386 H 37.9515 3.84569 1.72293 0
M  V30 387 H 36.6755 2.62315 1.94573 0
M  V30 388 H 35.3345 3.66501 0.085054 0
M  V30 389 H 34.9825 4.39186 2.45203 0
M  V30 390 H 34.6825 5.72762 1.31213 0
M  V30 391 H 36.2065 5.67899 2.24329 0
M  V30 392 H 37.6205 5.73293 -0.027502 0
M  V30 393 H 36.0175 5.94896 -0.788627 0
M  V30 394 H 37.0875 4.65504 -1.35773 0
M  V30 395 N 38.4306 0.297415 1.54768 0
M  V30 396 C 39.3406 -0.58983 2.27064 0
M  V30 397 C 40.3566 -1.15144 1.30453 0
M  V30 398 O 41.5326 -1.17699 1.63428 0
M  V30 399 C 38.5976 -1.74714 2.9946 0
M  V30 400 C 37.6586 -1.21997 4.11601 0
M  V30 401 C 36.8916 -2.32212 4.80535 0
M  V30 402 O 37.1146 -3.52036 4.48806 0
M  V30 403 O 36.0486 -1.99106 5.68014 0
M  V30 404 H 39.8746 -0.00348199 3.037 0
M  V30 405 H 37.4596 0.0640035 1.49263 0
M  V30 406 H 39.3416 -2.42147 3.44881 0
M  V30 407 H 38.0166 -2.32016 2.25722 0
M  V30 408 H 36.9236 -0.511458 3.70587 0
M  V30 409 H 38.2566 -0.692419 4.87305 0
M  V30 410 N 39.9087 -1.5758 0.0250728 0
M  V30 411 C 40.8587 -2.06468 -0.967201 0
M  V30 412 C 41.8427 -0.964376 -1.28797 0
M  V30 413 O 43.0347 -1.22797 -1.27475 0
M  V30 414 C 40.1637 -2.59203 -2.25097 0
M  V30 415 C 39.2497 -3.76157 -1.95874 0
M  V30 416 N 39.6407 -4.86919 -1.36905 0
M  V30 417 C 37.9387 -3.84566 -2.25887 0
M  V30 418 C 38.6397 -5.68172 -1.24724 0
M  V30 419 N 37.6157 -5.14953 -1.74138 0
M  V30 420 H 41.4177 -2.89508 -0.506176 0
M  V30 421 H 38.9317 -1.61399 -0.18004 0
M  V30 422 H 40.9287 -2.92517 -2.97052 0
M  V30 423 H 39.5887 -1.77592 -2.71829 0
M  V30 424 H 40.5997 -5.07256 -1.04459 0
M  V30 425 H 37.2767 -3.13854 -2.75321 0
M  V30 426 H 38.6667 -6.67221 -0.791605 0
M  V30 427 N 41.3868 0.248026 -1.55636 0
M  V30 428 C 42.6348 0.974295 -1.77065 0
M  V30 429 C 42.9558 1.85897 -0.588849 0
M  V30 430 O 42.2258 1.91868 0.395407 0
M  V30 431 H 40.8058 0.362733 -0.653019 0
M  V30 432 H 43.4678 0.266244 -1.93073 0
M  V30 433 H 42.5638 1.59667 -2.68166 0
M  V30 434 N 42.8649 1.48995 0.513639 0
M  V30 435 C 44.1139 1.57093 1.2651 0
M  V30 436 C 44.4269 0.257091 1.93903 0
M  V30 437 O 45.6329 0.216478 2.70636 0
M  V30 438 C 44.0889 2.77118 2.29638 0
M  V30 439 C 43.6969 4.15209 1.68241 0
M  V30 440 C 45.4409 2.94538 3.05692 0
M  V30 441 C 43.3479 5.26474 2.69406 0
M  V30 442 H 42.2779 0.584876 0.475854 0
M  V30 443 H 44.9289 1.7536 0.540487 0
M  V30 444 H 43.3109 2.52319 3.05207 0
M  V30 445 H 44.4849 4.50094 0.987505 0
M  V30 446 H 42.7999 4.03042 1.04623 0
M  V30 447 H 45.3969 3.74832 3.8132 0
M  V30 448 H 45.7399 2.04614 3.62545 0
M  V30 449 H 46.2729 3.19316 2.37238 0
M  V30 450 H 43.0119 6.18417 2.17351 0
M  V30 451 H 42.5319 4.96058 3.37175 0
M  V30 452 H 44.2109 5.55277 3.32078 0
M  V30 453 N 44.343 -0.763751 1.37857 0
M  V30 454 C 45.275 -1.88664 1.30148 0
M  V30 455 C 46.288 -1.61365 0.215685 0
M  V30 456 O 47.477 -1.72134 0.472459 0
M  V30 457 C 44.577 -3.24075 0.991396 0
M  V30 458 C 43.75 -3.78958 2.18426 0
M  V30 459 C 42.809 -4.92862 1.8432 0
M  V30 460 O 41.835 -5.08027 2.56704 0
M  V30 461 N 43.037 -5.75071 0.792081 0
M  V30 462 H 45.802 -1.95791 2.26905 0
M  V30 463 H 43.363 -0.943226 1.31586 0
M  V30 464 H 45.355 -3.97804 0.743935 0
M  V30 465 H 43.925 -3.12399 0.112122 0
M  V30 466 H 43.145 -2.96913 2.59299 0
M  V30 467 H 44.433 -4.12357 2.98058 0
M  V30 468 H 43.831 -5.65375 0.191595 0
M  V30 469 H 42.388 -6.48991 0.60449 0
M  V30 470 N 45.8211 -1.22559 -0.990812 0
M  V30 471 C 47.2321 -1.04791 -1.54518 0
M  V30 472 C 47.5831 0.387998 -1.92325 0
M  V30 473 O 46.7081 1.27328 -1.74976 0
M  V30 474 C 47.3031 -1.896 -2.80779 0
M  V30 475 C 45.8621 -1.76124 -3.32652 0
M  V30 476 C 45.0091 -1.8594 -2.05722 0
M  V30 477 H 47.9601 -1.36374 -0.811662 0
M  V30 478 H 47.9811 -1.41464 -3.53225 0
M  V30 479 H 47.4931 -2.94101 -2.53231 0
M  V30 480 H 45.5941 -0.743643 -3.65104 0
M  V30 481 H 45.7071 -2.58913 -4.03114 0
M  V30 482 H 44.0711 -1.29403 -2.19379 0
M  V30 483 H 44.8541 -2.91976 -1.80568 0
M  V30 484 N 47.2992 1.18797 -1.03562 0
M  V30 485 C 48.5762 1.84469 -0.650434 0
M  V30 486 C 48.9562 1.92319 0.870433 0
M  V30 487 O 48.3042 1.44528 1.76986 0
M  V30 488 C 48.5142 3.2306 -1.32036 0
M  V30 489 C 49.8622 3.9915 -1.44792 0
M  V30 490 O 50.8862 3.32481 -1.27806 0
M  V30 491 O 49.7452 5.18587 -1.72423 0
M  V30 492 H 46.8392 0.795251 -0.226946 0
M  V30 493 H 49.3852 1.26231 -1.13419 0
M  V30 494 H 48.1572 3.1222 -2.3587 0
M  V30 495 H 47.7802 3.88949 -0.8249 0
M  V30 496 N 48.7773 0.814389 1.34928 0
M  V30 497 C 50.0253 0.397636 1.9815 0
M  V30 498 C 50.3463 -1.04069 1.64908 0
M  V30 499 O 49.6163 -1.72121 0.93548 0
M  V30 500 H 48.1963 0.144043 0.732981 0
M  V30 501 H 50.8583 1.04195 1.6471 0
M  V30 502 H 49.9543 0.509688 3.0791 0
M  V30 503 N 50.2554 -1.46986 0.568584 0
M  V30 504 C 51.1874 -2.28233 -0.210337 0
M  V30 505 C 52.2004 -1.37682 -0.868767 0
M  V30 506 O 53.3894 -1.62406 -0.740705 0
M  V30 507 C 50.4894 -3.12293 -1.3163 0
M  V30 508 C 49.6624 -4.30878 -0.7525 0
M  V30 509 C 48.7214 -4.96445 -1.74439 0
M  V30 510 O 47.7474 -5.54482 -1.286 0
M  V30 511 N 48.9494 -4.92171 -3.07812 0
M  V30 512 H 51.7144 -2.95723 0.486648 0
M  V30 513 H 49.2754 -1.56742 0.405409 0
M  V30 514 H 51.2674 -3.53022 -1.97883 0
M  V30 515 H 49.8374 -2.46971 -1.91636 0
M  V30 516 H 49.0574 -3.94104 0.0871128 0
M  V30 517 H 50.3454 -5.07558 -0.35536 0
M  V30 518 H 49.7434 -4.46239 -3.47688 0
M  V30 519 H 48.3004 -5.36884 -3.69592 0
M  V30 520 N 51.7335 -0.305618 -1.54608 0
M  V30 521 C 52.6665 0.610536 -2.19881 0
M  V30 522 C 53.6445 1.1294 -1.16976 0
M  V30 523 O 54.8285 1.19673 -1.45638 0
M  V30 524 C 51.9555 1.83583 -2.84631 0
M  V30 525 C 51.0015 1.4498 -4.01102 0
M  V30 526 S 51.8345 0.501793 -5.33144 0
M  V30 527 C 52.9905 1.73478 -6.01379 0
M  V30 528 H 53.2235 0.0560177 -2.97247 0
M  V30 529 H 50.7565 -0.0897434 -1.54139 0
M  V30 530 H 52.7145 2.53898 -3.22562 0
M  V30 531 H 51.3755 2.36152 -2.07102 0
M  V30 532 H 50.5685 2.36236 -4.45206 0
M  V30 533 H 50.1705 0.826553 -3.64752 0
M  V30 534 H 52.4625 2.67473 -6.22467 0
M  V30 535 H 53.4055 1.33622 -6.95378 0
M  V30 536 H 53.8135 1.9136 -5.31076 0
M  V30 537 N 53.2116 1.57565 -0.0334293 0
M  V30 538 C 54.6226 1.79746 0.504798 0
M  V30 539 C 54.9736 0.944091 1.71992 0
M  V30 540 O 54.0986 0.155694 2.15839 0
M  V30 541 C 54.6936 3.25997 0.922567 0
M  V30 542 C 53.2526 3.49159 1.40588 0
M  V30 543 C 52.3996 2.74785 0.372633 0
M  V30 544 H 55.3506 1.56565 -0.259436 0
M  V30 545 H 55.3716 3.35945 1.78666 0
M  V30 546 H 54.8836 3.88081 0.0379825 0
M  V30 547 H 52.9846 2.92332 2.31025 0
M  V30 548 H 53.0976 4.57873 1.41028 0
M  V30 549 H 51.4616 2.40391 0.841672 0
M  V30 550 H 52.2446 3.39587 -0.503559 0
M  V30 551 N 54.6897 -0.239769 1.55765 0
M  V30 552 C 55.9147 -0.988373 1.82335 0
M  V30 553 C 56.3397 -1.77886 0.611421 0
M  V30 554 O 55.6977 -1.75889 -0.439639 0
M  V30 555 C 55.7457 -1.89627 3.06715 0
M  V30 556 O 54.8497 -2.98904 2.84131 0
M  V30 557 H 54.1907 -0.280858 0.601677 0
M  V30 558 H 56.7207 -0.258597 2.02959 0
M  V30 559 H 56.7307 -2.30957 3.36338 0
M  V30 560 H 55.4057 -1.31511 3.9456 0
M  V30 561 H 53.9827 -2.61651 2.65694 0
M  V30 562 N 56.1678 -1.49265 -0.50573 0
M  V30 563 C 57.4448 -1.49012 -1.26707 0
M  V30 564 C 57.8248 -0.215205 -2.1 0
M  V30 565 O 57.1728 0.802547 -2.13943 0
M  V30 566 C 57.3828 -2.7663 -2.12783 0
M  V30 567 C 58.7308 -3.25932 -2.72127 0
M  V30 568 O 59.7548 -2.77715 -2.23054 0
M  V30 569 O 58.6138 -4.09897 -3.61451 0
M  V30 570 H 55.7078 -0.596197 -0.57313 0
M  V30 571 H 58.2538 -1.61524 -0.52039 0
M  V30 572 H 57.0258 -3.60916 -1.5118 0
M  V30 573 H 56.6488 -2.66956 -2.94653 0
M  V30 574 N 57.6459 0.756429 -1.3826 0
M  V30 575 C 58.5929 1.87011 -1.35261 0
M  V30 576 C 59.5629 1.64695 -0.215616 0
M  V30 577 O 60.7479 1.864 -0.407399 0
M  V30 578 C 57.8879 3.24275 -1.18068 0
M  V30 579 C 57.0009 3.58442 -2.41129 0
M  V30 580 C 56.1359 4.84994 -2.16689 0
M  V30 581 C 55.1749 5.11939 -3.35537 0
M  V30 582 N 54.3119 6.29685 -3.10549 0
M  V30 583 H 59.1519 1.8891 -2.30472 0
M  V30 584 H 56.6889 0.923373 -1.14509 0
M  V30 585 H 58.6469 4.03479 -1.06116 0
M  V30 586 H 57.2769 3.21711 -0.264973 0
M  V30 587 H 56.3289 2.74103 -2.63764 0
M  V30 588 H 57.6409 3.74283 -3.29717 0
M  V30 589 H 56.7949 5.72135 -2.01857 0
M  V30 590 H 55.5339 4.71286 -1.25462 0
M  V30 591 H 54.5389 4.23268 -3.50891 0
M  V30 592 H 55.7639 5.27546 -4.27635 0
M  V30 593 H 53.7099 6.17306 -2.21967 0
M  V30 594 H 53.6269 6.46014 -3.92686 0
M  V30 595 H 54.8949 7.19722 -2.99367 0
M  V30 596 N 59.124 1.23083 0.984299 0
M  V30 597 C 60.352 1.08714 1.76037 0
M  V30 598 C 60.767 -0.361691 1.85303 0
M  V30 599 O 60.124 -1.25034 1.32939 0
M  V30 600 C 60.175 1.70206 3.18923 0
M  V30 601 O 59.896 3.09423 3.10144 0
M  V30 602 C 61.397 1.61227 4.12941 0
M  V30 603 H 58.617 0.380664 0.552572 0
M  V30 604 H 61.161 1.62853 1.23689 0
M  V30 605 H 59.316 1.20109 3.6831 0
M  V30 606 H 59.73 3.39188 4.00065 0
M  V30 607 H 61.204 2.08962 5.10919 0
M  V30 608 H 61.681 0.570375 4.35481 0
M  V30 609 H 62.287 2.10671 3.69456 0
M  V30 610 N 60.6021 -1.18246 1.0419 0
M  V30 611 C 61.8511 -1.87588 0.741194 0
M  V30 612 C 62.1641 -1.81303 -0.734066 0
M  V30 613 O 63.3701 -2.46019 -1.14834 0
M  V30 614 C 61.8261 -3.36538 1.27555 0
M  V30 615 C 61.4341 -3.51349 2.77953 0
M  V30 616 C 63.1781 -4.11273 1.05143 0
M  V30 617 C 61.0851 -4.94265 3.2474 0
M  V30 618 H 60.0151 -0.702622 0.273565 0
M  V30 619 H 62.6661 -1.33601 1.25789 0
M  V30 620 H 61.0481 -3.9 0.686703 0
M  V30 621 H 62.2221 -3.08153 3.42605 0
M  V30 622 H 60.5371 -2.90022 2.98791 0
M  V30 623 H 63.1341 -5.16689 1.37611 0
M  V30 624 H 63.4771 -4.16298 -0.0112774 0
M  V30 625 H 64.0101 -3.63987 1.60495 0
M  V30 626 H 60.7491 -4.94408 4.30396 0
M  V30 627 H 60.2691 -5.38172 2.64823 0
M  V30 628 H 61.9481 -5.62987 3.18834 0
M  V30 629 N 62.0802 -0.821533 -1.34494 0
M  V30 630 C 63.3282 -0.408139 -1.97936 0
M  V30 631 C 63.6492 1.03193 -1.65457 0
M  V30 632 O 62.9192 1.71622 -0.944595 0
M  V30 633 H 61.4992 -0.147928 -0.732206 0
M  V30 634 H 64.1612 -1.05067 -1.64155 0
M  V30 635 H 63.2572 -0.52601 -3.07635 0
M  V30 636 N 63.5583 1.46682 -0.576371 0
M  V30 637 C 64.8063 2.02013 -0.0594163 0
M  V30 638 C 65.1273 1.45101 1.30271 0
M  V30 639 O 64.3973 0.633317 1.8538 0
M  V30 640 H 62.9773 0.746759 -0.0189745 0
M  V30 641 H 65.6393 1.79862 -0.750717 0
M  V30 642 H 64.7353 3.12097 0.014345 0
M  V30 643 N 65.0364 0.313813 1.54444 0
M  V30 644 C 66.2844 -0.291099 1.99993 0
M  V30 645 C 66.6054 -1.53418 1.20366 0
M  V30 646 O 65.8754 -1.93544 0.302927 0
M  V30 647 H 64.4554 -0.110552 0.738774 0
M  V30 648 H 67.1174 0.428106 1.9014 0
M  V30 649 H 66.2134 -0.554268 3.07139 0
M  V30 650 N 66.5145 -1.57545 0.0417849 0
M  V30 651 C 67.7915 -1.83642 -0.673433 0
M  V30 652 C 68.1715 -0.928298 -1.89594 0
M  V30 653 O 67.5195 0.0129955 -2.28496 0
M  V30 654 C 67.7295 -3.33155 -1.03964 0
M  V30 655 C 69.0775 -3.99941 -1.42592 0
M  V30 656 O 70.1015 -3.37725 -1.13226 0
M  V30 657 O 68.9605 -5.09619 -1.9736 0
M  V30 658 H 66.0545 -0.757638 -0.331533 0
M  V30 659 H 68.6005 -1.69554 0.070433 0
M  V30 660 H 67.3725 -3.9093 -0.170098 0
M  V30 661 H 66.9955 -3.52396 -1.84126 0
M  V30 662 N 67.9926 0.231505 -1.5589 0
M  V30 663 C 69.2696 0.981096 -1.69215 0
M  V30 664 C 69.6496 2.02799 -0.586164 0
M  V30 665 O 68.9976 2.24823 0.408253 0
M  V30 666 C 69.2076 1.60054 -3.10135 0
M  V30 667 C 70.5556 2.09658 -3.69227 0
M  V30 668 O 71.5796 1.69967 -3.13033 0
M  V30 669 O 70.4386 2.8258 -4.67772 0
M  V30 670 H 67.5326 0.457653 -0.688827 0
M  V30 671 H 70.0786 0.224073 -1.68214 0
M  V30 672 H 68.8506 0.844105 -3.82087 0
M  V30 673 H 68.4736 2.42336 -3.15212 0
M  V30 674 N 69.4707 1.49531 0.497807 0
M  V30 675 C 70.6957 1.63159 1.28039 0
M  V30 676 C 71.1207 0.30418 1.85624 0
M  V30 677 O 70.4787 -0.728618 1.66015 0
M  V30 678 C 70.5267 2.70537 2.38416 0
M  V30 679 O 69.6307 2.29931 3.42353 0
M  V30 680 H 68.9717 0.546001 0.377861 0
M  V30 681 H 71.5017 1.9574 0.59558 0
M  V30 682 H 71.5117 2.92802 2.84132 0
M  V30 683 H 70.1867 3.6689 1.95869 0
M  V30 684 H 68.7637 2.18009 3.02533 0
M  V30 685 N 70.9488 -0.749086 1.3866 0
M  V30 686 C 72.1958 -1.50833 1.35114 0
M  V30 687 C 72.5238 -1.94415 -0.0574049 0
M  V30 688 O 71.7788 -1.66065 -1.03541 0
M  V30 689 C 72.0778 -2.7712 2.25697 0
M  V30 690 C 71.7438 -2.52477 3.73585 0
M  V30 691 C 70.4058 -2.45466 4.13884 0
M  V30 692 C 72.7578 -2.31066 4.67181 0
M  V30 693 C 70.0858 -2.15064 5.45861 0
M  V30 694 C 72.4378 -2.02183 5.9942 0
M  V30 695 C 71.1018 -1.93631 6.38798 0
M  V30 696 H 70.3718 -0.551936 0.494416 0
M  V30 697 H 73.0188 -0.860979 1.71054 0
M  V30 698 H 71.3238 -3.46528 1.82827 0
M  V30 699 H 73.0208 -3.35096 2.20254 0
M  V30 700 H 69.6108 -2.58807 3.41638 0
M  V30 701 H 73.7948 -2.35459 4.3689 0
M  V30 702 H 69.0508 -2.06954 5.75308 0
M  V30 703 H 73.2248 -1.8462 6.71482 0
M  V30 704 H 70.8518 -1.69839 7.40985 0
M  V30 705 N 72.4269 -1.23603 -0.977757 0
M  V30 706 C 73.3749 -1.01704 -2.09187 0
M  V30 707 C 74.3689 0.0448214 -1.69341 0
M  V30 708 O 75.5749 -0.108902 -1.7967 0
M  V30 709 H 71.9499 -0.311803 -0.684312 0
M  V30 710 H 73.9209 -1.96207 -2.24823 0
M  V30 711 C 72.6699 -0.627746 -3.41986 0
M  V30 712 H 71.9929 -1.43656 -3.73099 0
M  V30 713 H 73.4329 -0.514053 -4.20872 0
M  V30 714 C 71.8919 0.664238 -3.30287 0
M  V30 715 O 72.4219 1.71268 -3.6336 0
M  V30 716 N 70.6279 0.641156 -2.83439 0
M  V30 717 H 70.1749 -0.212376 -2.56723 0
M  V30 718 H 70.1329 1.50583 -2.75993 0
M  V30 719 N 73.905 1.17692 -1.04816 0
M  V30 720 C 75.133 1.91786 -0.776254 0
M  V30 721 C 75.548 1.76604 0.667577 0
M  V30 722 O 74.905 1.10067 1.45573 0
M  V30 723 C 74.956 3.42967 -1.14263 0
M  V30 724 O 74.677 3.57678 -2.52978 0
M  V30 725 C 76.178 4.34144 -0.896311 0
M  V30 726 H 73.398 0.608624 -0.282519 0
M  V30 727 H 75.942 1.49268 -1.39783 0
M  V30 728 H 74.097 3.83245 -0.565874 0
M  V30 729 H 74.511 4.51319 -2.67229 0
M  V30 730 H 75.985 5.38744 -1.20244 0
M  V30 731 H 76.462 4.38876 0.168636 0
M  V30 732 H 77.068 3.99574 -1.45672 0
M  V30 733 N 75.3831 0.828654 1.34056 0
M  V30 734 C 76.6301 0.419458 1.98108 0
M  V30 735 C 76.9581 -1.01886 1.65679 0
M  V30 736 O 76.2131 -1.72539 0.923512 0
M  V30 737 C 76.5121 0.575226 3.52741 0
M  V30 738 C 76.1781 1.98012 4.05095 0
M  V30 739 C 74.8401 2.36442 4.19104 0
M  V30 740 C 77.1921 2.89824 4.33188 0
M  V30 741 C 74.5201 3.66009 4.58535 0
M  V30 742 C 76.8721 4.1886 4.74066 0
M  V30 743 C 75.5361 4.5726 4.86281 0
M  V30 744 H 74.8061 0.153491 0.724929 0
M  V30 745 H 77.4531 1.05371 1.59904 0
M  V30 746 H 75.7581 -0.142385 3.91541 0
M  V30 747 H 77.4551 0.239057 4.00287 0
M  V30 748 H 74.0451 1.67162 3.94658 0
M  V30 749 H 78.2291 2.61375 4.21897 0
M  V30 750 H 73.4851 3.95579 4.66184 0
M  V30 751 H 77.6591 4.90086 4.94761 0
M  V30 752 H 75.2861 5.57707 5.16592 0
M  V30 753 N 76.8612 -1.46375 0.584142 0
M  V30 754 C 78.1082 -2.02378 0.0702675 0
M  V30 755 C 78.4362 -1.45545 -1.29023 0
M  V30 756 O 77.6912 -0.610967 -1.85918 0
M  V30 757 C 77.9902 -3.57373 -0.0439342 0
M  V30 758 C 77.6562 -4.33252 1.24915 0
M  V30 759 C 76.3182 -4.53701 1.60341 0
M  V30 760 C 78.6702 -4.7681 2.1048 0
M  V30 761 C 75.9982 -5.1496 2.81128 0
M  V30 762 C 78.3502 -5.39404 3.30494 0
M  V30 763 C 77.0142 -5.5808 3.66201 0
M  V30 764 H 76.2842 -0.740554 0.0257127 0
M  V30 765 H 78.9312 -1.75727 0.761065 0
M  V30 766 H 77.2362 -3.83169 -0.817869 0
M  V30 767 H 78.9332 -3.98384 -0.457318 0
M  V30 768 H 75.5232 -4.17633 0.963364 0
M  V30 769 H 79.7072 -4.60766 1.84414 0
M  V30 770 H 74.9632 -5.27611 3.08928 0
M  V30 771 H 79.1372 -5.72114 3.97063 0
M  V30 772 H 76.7642 -6.05318 4.59885 0
M  V30 773 N 78.3393 -0.321999 -1.54275 0
M  V30 774 C 79.5643 0.285791 -2.05422 0
M  V30 775 C 79.9893 1.45124 -1.19669 0
M  V30 776 O 79.3473 1.80132 -0.205441 0
M  V30 777 C 79.3953 0.69956 -3.53749 0
M  V30 778 O 78.4993 1.8021 -3.70942 0
M  V30 779 H 77.8403 0.0518962 -0.661969 0
M  V30 780 H 80.3703 -0.469954 -1.9913 0
M  V30 781 H 80.3803 0.982649 -3.9599 0
M  V30 782 H 79.0553 -0.152864 -4.15619 0
M  V30 783 H 77.6323 1.51794 -3.40607 0
M  V30 784 N 79.8174 1.5752 -0.0501392 0
M  V30 785 C 80.7274 2.14952 0.939827 0
M  V30 786 C 81.7434 1.10706 1.34239 0
M  V30 787 O 82.9194 1.42869 1.41952 0
M  V30 788 C 79.9844 2.68232 2.19665 0
M  V30 789 C 79.0454 3.87272 1.85253 0
M  V30 790 C 78.2784 4.38002 3.04943 0
M  V30 791 O 78.5014 3.87811 4.18281 0
M  V30 792 O 77.4354 5.29602 2.86017 0
M  V30 793 H 81.2614 2.9986 0.481392 0
M  V30 794 H 78.8464 1.4841 0.171699 0
M  V30 795 H 80.7284 3.02475 2.93406 0
M  V30 796 H 79.4034 1.86395 2.64648 0
M  V30 797 H 78.3104 3.5792 1.0883 0
M  V30 798 H 79.6434 4.70336 1.4507 0
M  V30 799 N 81.2955 -0.223234 1.56011 0
M  V30 800 C 82.5235 -0.964812 1.83027 0
M  V30 801 C 82.9385 -1.78013 0.62904 0
M  V30 802 O 82.2955 -1.78008 -0.402414 0
M  V30 803 C 82.3465 -1.88373 3.08542 0
M  V30 804 O 82.0675 -1.10137 4.2403 0
M  V30 805 C 83.5685 -2.73934 3.48533 0
M  V30 806 H 80.7885 -0.282842 0.608475 0
M  V30 807 H 83.3325 -0.238971 2.03099 0
M  V30 808 H 81.4875 -2.56354 2.9045 0
M  V30 809 H 81.9015 -1.72501 4.95322 0
M  V30 810 H 83.3755 -3.34117 4.39397 0
M  V30 811 H 83.8525 -3.46244 2.70207 0
M  V30 812 H 84.4585 -2.11369 3.69057 0
M  V30 813 N 82.7736 -1.49793 -0.48987 0
M  V30 814 C 84.0216 -1.59525 -1.24081 0
M  V30 815 C 84.3426 -0.288953 -1.92847 0
M  V30 816 O 83.6126 0.692436 -1.83254 0
M  V30 817 H 82.1926 -0.587796 -0.460983 0
M  V30 818 H 84.8546 -1.86477 -0.566778 0
M  V30 819 H 83.9506 -2.39696 -1.99881 0
M  V30 820 N 84.2517 0.741722 -1.39055 0
M  V30 821 C 85.2147 1.83733 -1.37021 0
M  V30 822 C 86.2147 1.58542 -0.268534 0
M  V30 823 O 87.4047 1.66067 -0.526076 0
M  V30 824 C 84.5367 3.2141 -1.13617 0
M  V30 825 H 85.7297 1.86941 -2.34506 0
M  V30 826 H 83.2827 0.944676 -1.24521 0
M  V30 827 H 84.0177 3.23865 -0.167863 0
M  V30 828 H 83.8027 3.4109 -1.93391 0
M  V30 829 H 85.2927 4.01477 -1.14918 0
M  V30 830 N 85.7298 1.2412 0.971189 0
M  V30 831 C 86.9778 1.07668 1.71032 0
M  V30 832 C 87.2988 -0.385797 1.91146 0
M  V30 833 O 86.5688 -1.27569 1.4867 0
M  V30 834 H 85.1488 0.395429 0.633755 0
M  V30 835 H 87.8108 1.55984 1.16855 0
M  V30 836 H 86.9068 1.57195 2.69622 0
M  V30 837 N 87.2079 -1.17134 1.05439 0
M  V30 838 C 88.1549 -2.21235 0.657539 0
M  V30 839 C 89.1249 -1.62551 -0.341543 0
M  V30 840 O 90.3099 -1.89379 -0.232393 0
M  V30 841 C 87.4499 -3.45076 0.0410575 0
M  V30 842 C 86.5629 -4.18042 1.08927 0
M  V30 843 C 85.6979 -5.29376 0.439848 0
M  V30 844 C 84.7369 -5.94132 1.4722 0
M  V30 845 N 83.8739 -6.96975 0.846756 0
M  V30 846 H 88.7139 -2.54534 1.54972 0
M  V30 847 H 86.2509 -1.25028 0.775006 0
M  V30 848 H 88.2089 -4.15862 -0.33383 0
M  V30 849 H 86.8389 -3.12353 -0.814568 0
M  V30 850 H 85.8909 -3.45945 1.58196 0
M  V30 851 H 87.2029 -4.62306 1.87282 0
M  V30 852 H 86.3569 -6.06699 0.0115125 0
M  V30 853 H 85.0959 -4.86251 -0.375656 0
M  V30 854 H 84.1009 -5.15538 1.91052 0
M  V30 855 H 85.3259 -6.39337 2.28965 0
M  V30 856 H 83.2719 -6.5598 0.0518075 0
M  V30 857 H 83.1889 -7.39565 1.5678 0
M  V30 858 H 84.4569 -7.78239 0.443277 0
M  V30 859 N 88.686 -0.835752 -1.33615 0
M  V30 860 C 89.636 -0.238856 -2.26745 0
M  V30 861 C 90.62 0.604343 -1.49119 0
M  V30 862 O 91.812 0.456822 -1.71003 0
M  V30 863 C 88.941 0.587725 -3.38232 0
M  V30 864 C 88.027 -0.266811 -4.2326 0
M  V30 865 N 88.418 -1.34403 -4.87616 0
M  V30 866 C 86.716 -0.0533131 -4.45968 0
M  V30 867 C 87.417 -1.86819 -5.50884 0
M  V30 868 N 86.393 -1.17013 -5.30857 0
M  V30 869 H 90.195 -1.06266 -2.74016 0
M  V30 870 H 87.709 -0.679881 -1.47483 0
M  V30 871 H 89.706 1.03161 -4.03935 0
M  V30 872 H 88.366 1.40954 -2.9251 0
M  V30 873 H 89.377 -1.7269 -4.88261 0
M  V30 874 H 86.054 0.735312 -4.10974 0
M  V30 875 H 87.444 -2.7701 -6.1214 0
M  V30 876 N 90.1641 1.46063 -0.591896 0
M  V30 877 C 91.4101 2.02638 -0.0811191 0
M  V30 878 C 91.7431 1.4613 1.27905 0
M  V30 879 O 91.0181 0.629908 1.84017 0
M  V30 880 C 91.3011 3.60091 -0.0252436 0
M  V30 881 C 91.1541 4.26965 -1.41496 0
M  V30 882 C 92.4731 4.3496 0.670685 0
M  V30 883 H 89.5921 0.73635 -0.0309524 0
M  V30 884 H 92.2341 1.741 -0.760859 0
M  V30 885 H 90.3841 3.84535 0.553624 0
M  V30 886 H 92.0561 4.13756 -2.0397 0
M  V30 887 H 90.2991 3.85971 -1.98011 0
M  V30 888 H 90.9701 5.35781 -1.32825 0
M  V30 889 H 93.4461 4.15716 0.178825 0
M  V30 890 H 92.3221 5.44686 0.678837 0
M  V30 891 H 92.5831 4.06685 1.73379 0
M  V30 892 N 91.6422 0.330177 1.54103 0
M  V30 893 C 93.0532 -0.15652 1.86043 0
M  V30 894 C 93.4042 -1.51086 1.2517 0
M  V30 895 O 92.5292 -2.09023 0.560217 0
M  V30 896 C 93.1242 -0.290784 3.3755 0
M  V30 897 C 91.6832 -0.721705 3.69416 0
M  V30 898 C 90.8302 0.152622 2.7688 0
M  V30 899 H 93.7812 0.550237 1.48856 0
M  V30 900 H 93.8022 -1.12058 3.63625 0
M  V30 901 H 93.3142 0.695068 3.81825 0
M  V30 902 H 91.4152 -1.71706 3.30678 0
M  V30 903 H 91.5282 -0.520869 4.7626 0
M  V30 904 H 89.8922 -0.372894 2.51956 0
M  V30 905 H 90.6752 1.13536 3.23982 0
M  V30 906 N 93.1203 -1.57491 0.0584922 0
M  V30 907 C 94.5363 -1.56792 -0.298091 0
M  V30 908 C 94.7363 -1.06679 -1.70944 0
M  V30 909 O 93.7923 -0.726672 -2.41818 0
M  V30 910 C 95.1053 -3.00461 -0.119879 0
M  V30 911 C 96.6533 -3.1242 -0.190428 0
M  V30 912 C 97.1283 -4.57982 -0.0406567 0
M  V30 913 N 98.6193 -4.63099 -0.0966958 0
M  V30 914 C 99.3543 -5.734 -0.00502943 0
M  V30 915 N 98.8503 -6.9266 0.139402 0
M  V30 916 N 100.643 -5.62067 -0.0611391 0
M  V30 917 H 92.7943 -1.88386 0.98105 0
M  V30 918 H 95.0573 -0.867865 0.381463 0
M  V30 919 H 94.7633 -3.41187 0.85349 0
M  V30 920 H 94.6373 -3.66843 -0.877833 0
M  V30 921 H 97.0243 -2.71589 -1.15427 0
M  V30 922 H 97.1053 -2.48702 0.598405 0
M  V30 923 H 96.7493 -4.995 0.919897 0
M  V30 924 H 96.6793 -5.19715 -0.848727 0
M  V30 925 H 99.1703 -3.77331 -0.207277 0
M  V30 926 H 99.4833 -7.72536 0.201855 0
M  V30 927 H 97.8283 -6.94781 0.174586 0
M  V30 928 H 101.019 -4.67782 -0.172583 0
M  V30 929 H 101.192 -6.47999 0.0137562 0
M  V30 930 N 94.5984 0.214957 -1.56127 0
M  V30 931 C 95.5614 1.24997 -1.92116 0
M  V30 932 C 96.5614 1.39467 -0.800344 0
M  V30 933 O 97.7514 1.37619 -1.06802 0
M  V30 934 C 94.8834 2.62271 -2.17777 0
M  V30 935 H 96.0764 0.942875 -2.84693 0
M  V30 936 H 93.6294 0.455654 -1.49511 0
M  V30 937 H 94.3644 2.98068 -1.27773 0
M  V30 938 H 94.1494 2.53143 -2.99434 0
M  V30 939 H 95.6394 3.36946 -2.46693 0
M  V30 940 N 96.0765 1.50051 0.48192 0
M  V30 941 C 97.3225 1.60736 1.2366 0
M  V30 942 C 97.6555 0.301786 1.91841 0
M  V30 943 O 96.9305 -0.696025 1.8162 0
M  V30 944 C 97.2135 2.78009 2.28874 0
M  V30 945 C 97.0665 4.18416 1.65069 0
M  V30 946 C 98.3855 2.90867 3.30279 0
M  V30 947 H 95.5045 0.585031 0.448228 0
M  V30 948 H 98.1465 1.82402 0.531946 0
M  V30 949 H 96.2965 2.59667 2.88973 0
M  V30 950 H 97.9685 4.48322 1.0865 0
M  V30 951 H 96.2115 4.23177 0.954148 0
M  V30 952 H 96.8825 4.96381 2.41474 0
M  V30 953 H 99.3585 3.07623 2.80191 0
M  V30 954 H 98.2345 3.74566 4.01238 0
M  V30 955 H 98.4955 2.01021 3.93755 0
M  V30 956 N 97.5546 -0.734337 1.39446 0
M  V30 957 C 98.8016 -1.49391 1.36706 0
M  V30 958 C 99.1296 -1.94465 -0.0367813 0
M  V30 959 O 98.3846 -1.67154 -1.01774 0
M  V30 960 C 98.6836 -2.74711 2.28623 0
M  V30 961 C 98.3496 -2.48501 3.76242 0
M  V30 962 C 97.0116 -2.41062 4.16464 0
M  V30 963 C 99.3636 -2.26098 4.69606 0
M  V30 964 C 96.6916 -2.09262 5.48112 0
M  V30 965 C 99.0436 -1.95814 6.01531 0
M  V30 966 C 97.7076 -1.86845 6.40816 0
M  V30 967 H 96.9776 -0.546661 0.500243 0
M  V30 968 H 99.6246 -0.842788 1.71957 0
M  V30 969 H 97.9296 -3.44569 1.86492 0
M  V30 970 H 99.6266 -3.32741 2.23796 0
M  V30 971 H 96.2166 -2.55169 3.44364 0
M  V30 972 H 100.401 -2.30812 4.39363 0
M  V30 973 H 95.6566 -2.00841 5.77471 0
M  V30 974 H 99.8306 -1.77488 6.73403 0
M  V30 975 H 97.4576 -1.6197 7.42745 0
M  V30 976 N 99.0327 -1.24633 -0.964593 0
M  V30 977 C 100.279 -1.08949 -1.71049 0
M  V30 978 C 100.612 0.370302 -1.90637 0
M  V30 979 O 99.8867 1.27349 -1.47011 0
M  V30 980 C 100.17 -1.83329 -3.0994 0
M  V30 981 C 100.023 -3.37077 -2.97824 0
M  V30 982 C 101.342 -1.60846 -4.09654 0
M  V30 983 H 98.4607 -0.397178 -0.620821 0
M  V30 984 H 101.103 -1.5334 -1.12191 0
M  V30 985 H 99.2527 -1.45597 -3.60186 0
M  V30 986 H 100.925 -3.84425 -2.5498 0
M  V30 987 H 99.1677 -3.65298 -2.33965 0
M  V30 988 H 99.8387 -3.84324 -3.96231 0
M  V30 989 H 102.315 -1.93674 -3.68279 0
M  V30 990 H 101.191 -2.1534 -5.04896 0
M  V30 991 H 101.452 -0.547434 -4.38698 0
M  V30 992 N 100.511 1.16574 -1.06058 0
M  V30 993 C 101.788 1.83048 -0.689416 0
M  V30 994 C 102.168 1.94122 0.829443 0
M  V30 995 O 101.516 1.48249 1.7388 0
M  V30 996 C 101.726 3.20186 -1.38859 0
M  V30 997 C 103.074 3.95989 -1.53226 0
M  V30 998 O 104.098 3.29696 -1.3483 0
M  V30 999 O 102.957 5.14813 -1.83384 0
M  V30 1000 H 100.051 0.790258 -0.243764 0
M  V30 1001 H 102.597 1.23797 -1.16071 0
M  V30 1002 H 101.369 3.07146 -2.4244 0
M  V30 1003 H 100.992 3.87112 -0.907216 0
M  V30 1004 N 101.989 0.842826 1.3317 0
M  V30 1005 C 102.919 0.294028 2.31641 0
M  V30 1006 C 103.9 -0.600401 1.59151 0
M  V30 1007 O 105.085 -0.523124 1.87022 0
M  V30 1008 C 102.215 -0.528416 3.43257 0
M  V30 1009 C 101.169 0.27056 4.27144 0
M  V30 1010 C 100.495 -0.675881 5.30411 0
M  V30 1011 C 101.795 1.48981 5.00602 0
M  V30 1012 H 103.489 1.11681 2.77791 0
M  V30 1013 H 101.035 0.538478 1.33553 0
M  V30 1014 H 102.988 -0.922674 4.11175 0
M  V30 1015 H 101.712 -1.38445 2.95805 0
M  V30 1016 H 100.371 0.646427 3.60856 0
M  V30 1017 H 100.019 -1.52842 4.79216 0
M  V30 1018 H 99.7189 -0.145374 5.8742 0
M  V30 1019 H 101.243 -1.06757 6.01195 0
M  V30 1020 H 102.657 1.16849 5.61266 0
M  V30 1021 H 101.054 1.95739 5.6728 0
M  V30 1022 H 102.124 2.25746 4.29147 0
M  V30 1023 N 103.467 -1.45747 0.599634 0
M  V30 1024 C 104.377 -2.34262 -0.125888 0
M  V30 1025 C 105.393 -1.50768 -0.868625 0
M  V30 1026 O 106.569 -1.83592 -0.828003 0
M  V30 1027 C 103.634 -3.28252 -1.11587 0
M  V30 1028 C 102.695 -4.27651 -0.375956 0
M  V30 1029 C 101.928 -5.1715 -1.31877 0
M  V30 1030 O 102.151 -5.09916 -2.55621 0
M  V30 1031 O 101.085 -5.96286 -0.820157 0
M  V30 1032 H 104.911 -2.97688 0.601315 0
M  V30 1033 H 102.496 -1.44999 0.359934 0
M  V30 1034 H 104.378 -3.86191 -1.68626 0
M  V30 1035 H 103.053 -2.67401 -1.82424 0
M  V30 1036 H 101.96 -3.7335 0.236698 0
M  V30 1037 H 103.293 -4.91334 0.29177 0
M  V30 1038 N 104.945 -0.338344 -1.53925 0
M  V30 1039 C 106.356 0.146651 -1.86123 0
M  V30 1040 C 106.707 1.5042 -1.2597 0
M  V30 1041 O 105.832 2.08723 -0.571294 0
M  V30 1042 C 106.427 0.272879 -3.37699 0
M  V30 1043 C 104.986 0.702103 -3.69794 0
M  V30 1044 C 104.133 -0.167304 -2.76795 0
M  V30 1045 H 107.084 -0.558123 -1.48562 0
M  V30 1046 H 107.105 1.10128 -3.64214 0
M  V30 1047 H 106.617 -0.715307 -3.81451 0
M  V30 1048 H 104.718 1.6995 -3.31584 0
M  V30 1049 H 104.831 0.495604 -4.7653 0
M  V30 1050 H 103.195 0.359527 -2.5215 0
M  V30 1051 H 103.978 -1.15253 -3.23375 0
M  V30 1052 N 106.423 1.57458 -0.0668435 0
M  V30 1053 C 107.651 1.97624 0.612565 0
M  V30 1054 C 108.066 0.94502 1.63447 0
M  V30 1055 O 107.423 -0.0689276 1.8237 0
M  V30 1056 C 107.474 3.37869 1.28555 0
M  V30 1057 O 107.195 4.3704 0.304557 0
M  V30 1058 C 108.696 3.92882 2.05325 0
M  V30 1059 H 105.916 0.650045 0.166381 0
M  V30 1060 H 108.46 2.04035 -0.137782 0
M  V30 1061 H 106.615 3.3256 1.98702 0
M  V30 1062 H 107.029 5.18565 0.786779 0
M  V30 1063 H 108.503 4.93247 2.47812 0
M  V30 1064 H 108.98 3.29156 2.9078 0
M  V30 1065 H 109.586 4.01577 1.40056 0
M  V30 1066 N 107.901 -0.206675 1.56239 0
M  V30 1067 C 109.147 -0.930218 1.80208 0
M  V30 1068 C 109.48 -1.83387 0.638981 0
M  V30 1069 O 108.755 -1.91119 -0.361066 0
M  V30 1070 C 109.038 -1.75641 3.1436 0
M  V30 1071 C 108.891 -0.878257 4.41142 0
M  V30 1072 C 110.21 -2.73129 3.45092 0
M  V30 1073 H 107.329 -0.336742 0.655571 0
M  V30 1074 H 109.971 -0.198222 1.88963 0
M  V30 1075 H 108.121 -2.38048 3.07027 0
M  V30 1076 H 109.793 -0.269787 4.6051 0
M  V30 1077 H 108.036 -0.184385 4.33408 0
M  V30 1078 H 108.707 -1.49106 5.3148 0
M  V30 1079 H 111.183 -2.20856 3.52649 0
M  V30 1080 H 110.059 -3.28028 4.40101 0
M  V30 1081 H 110.32 -3.51606 2.68003 0
M  V30 1082 N 109.379 -1.50304 -0.473955 0
M  V30 1083 C 110.628 -1.60392 -1.22301 0
M  V30 1084 C 110.941 -0.308411 -1.93153 0
M  V30 1085 O 112.147 -0.288156 -2.69966 0
M  V30 1086 C 110.603 -2.83109 -2.2221 0
M  V30 1087 C 110.211 -4.19524 -1.57173 0
M  V30 1088 C 111.955 -3.0254 -2.97775 0
M  V30 1089 C 109.862 -5.33431 -2.55353 0
M  V30 1090 H 108.792 -0.597286 -0.460179 0
M  V30 1091 H 111.443 -1.76731 -0.493803 0
M  V30 1092 H 109.825 -2.60322 -2.9841 0
M  V30 1093 H 110.999 -4.52554 -0.867824 0
M  V30 1094 H 109.314 -4.05674 -0.939002 0
M  V30 1095 H 111.911 -3.84811 -3.71248 0
M  V30 1096 H 112.254 -2.14154 -3.56992 0
M  V30 1097 H 112.787 -3.25494 -2.28688 0
M  V30 1098 H 109.526 -6.23962 -2.00878 0
M  V30 1099 H 109.046 -5.04823 -3.23904 0
M  V30 1100 H 110.725 -5.63887 -3.17239 0
M  V30 1101 N 110.857 0.726932 -1.39834 0
M  V30 1102 C 112.134 1.47902 -1.28001 0
M  V30 1103 C 112.514 2.1083 0.106789 0
M  V30 1104 O 111.862 1.99242 1.11869 0
M  V30 1105 C 112.072 2.52392 -2.41038 0
M  V30 1106 C 113.42 3.18546 -2.80737 0
M  V30 1107 O 114.444 2.62708 -2.40547 0
M  V30 1108 O 113.303 4.19604 -3.50135 0
M  V30 1109 H 110.397 0.657163 -0.502062 0
M  V30 1110 H 112.943 0.760071 -1.51727 0
M  V30 1111 H 111.715 2.04329 -3.33715 0
M  V30 1112 H 111.338 3.31837 -2.19021 0
M  V30 1113 N 112.336 1.25143 0.95797 0
M  V30 1114 C 113.246 1.06968 2.08794 0
M  V30 1115 C 114.262 0.00773911 1.73998 0
M  V30 1116 O 115.438 0.207972 2.00323 0
M  V30 1117 C 112.503 0.68691 3.39827 0
M  V30 1118 C 111.564 1.82641 3.88511 0
M  V30 1119 C 110.797 1.46181 5.1329 0
M  V30 1120 O 111.02 0.355971 5.69288 0
M  V30 1121 O 109.954 2.29085 5.566 0
M  V30 1122 H 113.78 2.01723 2.27027 0
M  V30 1123 H 111.365 1.04051 1.07209 0
M  V30 1124 H 113.247 0.485417 4.18595 0
M  V30 1125 H 111.922 -0.231417 3.22872 0
M  V30 1126 H 110.829 2.08274 3.10762 0
M  V30 1127 H 112.162 2.72386 4.09959 0
M  V30 1128 N 113.814 -1.1601 1.06675 0
M  V30 1129 C 115.06 -1.86909 0.786945 0
M  V30 1130 C 115.393 -1.81717 -0.685018 0
M  V30 1131 O 114.668 -1.23551 -1.50218 0
M  V30 1132 C 114.951 -3.36313 1.28707 0
M  V30 1133 C 114.804 -3.50175 2.82308 0
M  V30 1134 C 116.123 -4.3084 0.898071 0
M  V30 1135 H 113.242 -0.678677 0.287343 0
M  V30 1136 H 115.884 -1.36336 1.32334 0
M  V30 1137 H 114.034 -3.79513 0.830768 0
M  V30 1138 H 115.706 -3.15886 3.36175 0
M  V30 1139 H 113.949 -2.91959 3.20847 0
M  V30 1140 H 114.62 -4.55116 3.12368 0
M  V30 1141 H 117.096 -3.95561 1.29114 0
M  V30 1142 H 115.972 -5.33876 1.27543 0
M  V30 1143 H 116.233 -4.41662 -0.196651 0
M  V30 1144 N 115.292 -0.849877 -1.32721 0
M  V30 1145 C 116.708 -0.539102 -1.50219 0
M  V30 1146 C 116.908 0.931271 -1.78689 0
M  V30 1147 O 115.964 1.71455 -1.85363 0
M  V30 1148 C 117.277 -1.42196 -2.64954 0
M  V30 1149 C 118.825 -1.42189 -2.78839 0
M  V30 1150 C 119.3 -2.28985 -3.96648 0
M  V30 1151 N 120.791 -2.26754 -4.03902 0
M  V30 1152 C 121.526 -2.90644 -4.94281 0
M  V30 1153 N 121.022 -3.63629 -5.897 0
M  V30 1154 N 122.815 -2.80057 -4.87365 0
M  V30 1155 H 114.966 -1.80156 -1.12506 0
M  V30 1156 H 117.229 -0.769217 -0.554085 0
M  V30 1157 H 116.935 -2.46733 -2.50631 0
M  V30 1158 H 116.809 -1.10591 -3.60624 0
M  V30 1159 H 119.196 -0.38419 -2.92588 0
M  V30 1160 H 119.277 -1.77807 -1.83898 0
M  V30 1161 H 118.921 -3.32819 -3.83658 0
M  V30 1162 H 118.851 -1.90702 -4.90857 0
M  V30 1163 H 121.342 -1.73688 -3.3562 0
M  V30 1164 H 121.655 -4.09558 -6.55349 0
M  V30 1165 H 120 -3.67737 -5.89741 0
M  V30 1166 H 123.191 -2.22593 -4.11789 0
M  V30 1167 H 123.364 -3.30132 -5.57599 0
M  V30 1168 N 116.77 1.45427 -0.607355 0
M  V30 1169 C 117.998 2.06614 -0.108814 0
M  V30 1170 C 118.413 1.45204 1.2067 0
M  V30 1171 O 117.77 0.566132 1.73497 0
M  V30 1172 C 117.821 3.61481 0.0375347 0
M  V30 1173 O 117.542 4.20598 -1.22593 0
M  V30 1174 C 119.043 4.39652 0.567561 0
M  V30 1175 H 116.263 0.66747 -0.0687351 0
M  V30 1176 H 118.807 1.86675 -0.835022 0
M  V30 1177 H 116.962 3.80762 0.714068 0
M  V30 1178 H 117.376 5.1377 -1.05547 0
M  V30 1179 H 118.85 5.48518 0.61905 0
M  V30 1180 H 119.327 4.09417 1.58978 0
M  V30 1181 H 119.933 4.25234 -0.0749202 0
M  V30 1182 N 118.248 0.346503 1.53744 0
M  V30 1183 C 119.496 -0.248612 2.00565 0
M  V30 1184 C 119.817 -1.5083 1.23593 0
M  V30 1185 O 119.087 -1.92858 0.343912 0
M  V30 1186 H 117.667 -0.0948564 0.740953 0
M  V30 1187 H 120.329 0.468341 1.89189 0
M  V30 1188 H 119.425 -0.488994 3.08245 0
M  V30 1189 N 119.726 -1.57421 0.075193 0
M  V30 1190 C 120.954 -1.97946 -0.602076 0
M  V30 1191 C 121.369 -0.953674 -1.62943 0
M  V30 1192 O 120.726 0.0592551 -1.82404 0
M  V30 1193 C 120.777 -3.38546 -1.26762 0
M  V30 1194 O 120.498 -4.37195 -0.281376 0
M  V30 1195 C 121.999 -3.93966 -2.03239 0
M  V30 1196 H 119.219 -0.650918 -0.162931 0
M  V30 1197 H 121.763 -2.03959 0.148601 0
M  V30 1198 H 119.918 -3.33609 -1.96936 0
M  V30 1199 H 120.332 -5.18975 -0.759267 0
M  V30 1200 H 121.806 -4.94555 -2.45193 0
M  V30 1201 H 122.283 -3.30693 -2.8903 0
M  V30 1202 H 122.889 -4.02315 -1.37924 0
M  V30 1203 N 121.204 0.198386 -1.56346 0
M  V30 1204 C 122.434 0.934215 -1.84271 0
M  V30 1205 C 122.842 1.77496 -0.655125 0
M  V30 1206 O 122.185 1.7961 0.385488 0
M  V30 1207 C 122.247 1.88278 -3.06254 0
M  V30 1208 C 121.911 1.22431 -4.40295 0
M  V30 1209 C 122.908 0.602839 -5.16393 0
M  V30 1210 C 120.593 1.22915 -4.87029 0
M  V30 1211 C 122.587 -0.0050083 -6.374 0
M  V30 1212 C 120.274 0.617465 -6.07973 0
M  V30 1213 C 121.272 0.00146341 -6.83 0
M  V30 1214 O 120.96 -0.600642 -8.01653 0
M  V30 1215 H 120.692 0.278245 -0.616081 0
M  V30 1216 H 123.246 0.211626 -2.04307 0
M  V30 1217 H 121.476 2.64498 -2.82095 0
M  V30 1218 H 123.165 2.48612 -3.20853 0
M  V30 1219 H 123.931 0.591265 -4.81382 0
M  V30 1220 H 119.81 1.69801 -4.28589 0
M  V30 1221 H 123.354 -0.48643 -6.95902 0
M  V30 1222 H 119.251 0.62653 -6.42452 0
M  V30 1223 H 120.019 -0.497225 -8.16988 0
M  V30 1224 N 122.682 1.50554 0.465978 0
M  V30 1225 C 124.098 1.38093 0.800154 0
M  V30 1226 C 124.298 0.440988 1.96615 0
M  V30 1227 O 123.354 -0.114499 2.5224 0
M  V30 1228 C 124.667 2.79565 1.10742 0
M  V30 1229 C 126.215 2.88516 1.21357 0
M  V30 1230 C 126.69 4.30833 1.55393 0
M  V30 1231 N 128.181 4.33807 1.62375 0
M  V30 1232 C 128.916 5.40927 1.90225 0
M  V30 1233 N 128.412 6.58247 2.16062 0
M  V30 1234 N 130.205 5.28376 1.9177 0
M  V30 1235 H 122.356 2.10237 -0.302366 0
M  V30 1236 H 124.619 0.945203 -0.0727746 0
M  V30 1237 H 124.325 3.50208 0.323661 0
M  V30 1238 H 124.199 3.17125 2.04234 0
M  V30 1239 H 126.586 2.1809 1.98799 0
M  V30 1240 H 126.667 2.54492 0.258321 0
M  V30 1241 H 126.311 5.01799 0.784889 0
M  V30 1242 H 126.241 4.62347 2.52076 0
M  V30 1243 H 128.732 3.49212 1.44427 0
M  V30 1244 H 129.045 7.3569 2.36601 0
M  V30 1245 H 127.39 6.61413 2.13444 0
M  V30 1246 H 130.581 4.35715 1.71085 0
M  V30 1247 H 130.754 6.11944 2.13139 0
M  V30 1248 N 124.16 -0.719506 1.40217 0
M  V30 1249 C 125.092 -1.84428 1.36084 0
M  V30 1250 C 126.105 -1.60597 0.266913 0
M  V30 1251 O 127.294 -1.70544 0.526983 0
M  V30 1252 C 124.394 -3.20757 1.094 0
M  V30 1253 C 123.567 -3.71817 2.30372 0
M  V30 1254 C 122.626 -4.86748 1.99907 0
M  V30 1255 O 121.652 -4.99603 2.72737 0
M  V30 1256 N 122.854 -5.7226 0.974635 0
M  V30 1257 H 125.619 -1.88473 2.33019 0
M  V30 1258 H 123.18 -0.900885 1.3452 0
M  V30 1259 H 125.172 -3.95235 0.870116 0
M  V30 1260 H 123.742 -3.11884 0.211452 0
M  V30 1261 H 122.962 -2.88514 2.68614 0
M  V30 1262 H 124.25 -4.02666 3.11026 0
M  V30 1263 H 123.648 -5.6448 0.371368 0
M  V30 1264 H 122.205 -6.46739 0.810656 0
M  V30 1265 N 125.638 -1.25649 -0.95132 0
M  V30 1266 C 126.568 -1.08808 -2.06599 0
M  V30 1267 C 127.549 0.00382547 -1.701 0
M  V30 1268 O 128.734 -0.166325 -1.93486 0
M  V30 1269 C 125.864 -0.709542 -3.39975 0
M  V30 1270 C 124.818 -1.75206 -3.90496 0
M  V30 1271 C 124.144 -1.22811 -5.20405 0
M  V30 1272 C 125.444 -3.15153 -4.16504 0
M  V30 1273 H 127.138 -2.02048 -2.20946 0
M  V30 1274 H 124.684 -0.972835 -1.06169 0
M  V30 1275 H 126.637 -0.578649 -4.17408 0
M  V30 1276 H 125.361 0.258556 -3.25575 0
M  V30 1277 H 124.02 -1.87145 -3.15234 0
M  V30 1278 H 123.668 -0.250145 -5.02378 0
M  V30 1279 H 123.368 -1.92492 -5.55176 0
M  V30 1280 H 124.892 -1.10968 -6.00432 0
M  V30 1281 H 126.306 -3.06349 -4.84586 0
M  V30 1282 H 124.703 -3.82333 -4.62538 0
M  V30 1283 H 125.773 -3.61966 -3.22658 0
M  V30 1284 N 127.117 1.15442 -1.07289 0
M  V30 1285 C 128.364 1.86213 -0.795668 0
M  V30 1286 C 128.692 1.82291 0.678238 0
M  V30 1287 O 127.947 1.24057 1.51355 0
M  V30 1288 C 128.246 3.3489 -1.24834 0
M  V30 1289 C 127.912 3.59007 -2.72809 0
M  V30 1290 C 126.574 3.65298 -3.13227 0
M  V30 1291 C 128.926 3.68762 -3.68326 0
M  V30 1292 C 126.254 3.78854 -4.4798 0
M  V30 1293 C 128.606 3.83842 -5.0284 0
M  V30 1294 C 127.27 3.88378 -5.4288 0
M  V30 1295 H 126.54 0.681403 -0.291155 0
M  V30 1296 H 129.187 1.36435 -1.34379 0
M  V30 1297 H 127.492 3.8687 -0.619595 0
M  V30 1298 H 129.189 3.88052 -1.01076 0
M  V30 1299 H 125.779 3.5475 -2.40521 0
M  V30 1300 H 129.963 3.63202 -3.38227 0
M  V30 1301 H 125.219 3.80623 -4.78472 0
M  V30 1302 H 129.393 3.90332 -5.76727 0
M  V30 1303 H 127.02 3.98635 -6.47298 0
M  V30 1304 N 128.595 0.856903 1.32268 0
M  V30 1305 C 129.545 0.274899 2.26337 0
M  V30 1306 C 130.529 -0.580543 1.50062 0
M  V30 1307 O 131.721 -0.429559 1.71708 0
M  V30 1308 C 128.85 -0.533841 3.39124 0
M  V30 1309 C 127.936 0.334114 4.22782 0
M  V30 1310 N 128.327 1.42143 4.85416 0
M  V30 1311 C 126.625 0.124256 4.45827 0
M  V30 1312 C 127.326 1.95559 5.47843 0
M  V30 1313 N 126.302 1.25444 5.28928 0
M  V30 1314 H 130.104 1.10612 2.72291 0
M  V30 1315 H 127.618 0.703258 1.46383 0
M  V30 1316 H 129.615 -0.96722 4.05525 0
M  V30 1317 H 128.275 -1.36283 2.94715 0
M  V30 1318 H 129.286 1.80436 4.85451 0
M  V30 1319 H 125.963 -0.669837 4.12092 0
M  V30 1320 H 127.353 2.86714 6.07655 0
M  V30 1321 N 130.073 -1.45103 0.615059 0
M  V30 1322 C 131.484 -1.85654 0.197383 0
M  V30 1323 C 131.835 -1.51433 -1.24749 0
M  V30 1324 O 130.96 -0.944608 -1.94695 0
M  V30 1325 C 131.555 -3.36972 0.351448 0
M  V30 1326 C 130.114 -3.76398 -0.011593 0
M  V30 1327 C 129.261 -2.69024 0.672394 0
M  V30 1328 H 132.212 -1.35797 0.821263 0
M  V30 1329 H 132.233 -3.78239 -0.414227 0
M  V30 1330 H 131.745 -3.61847 1.40314 0
M  V30 1331 H 129.846 -3.5714 -1.06217 0
M  V30 1332 H 129.959 -4.77532 0.387265 0
M  V30 1333 H 128.323 -2.54465 0.109284 0
M  V30 1334 H 129.106 -2.96735 1.72636 0
M  V30 1335 N 131.551 -0.354651 -1.53558 0
M  V30 1336 C 132.461 0.50515 -2.29097 0
M  V30 1337 C 133.477 1.10223 -1.34636 0
M  V30 1338 O 134.653 1.11553 -1.67684 0
M  V30 1339 C 131.718 1.63479 -3.05738 0
M  V30 1340 C 130.779 1.06636 -4.15845 0
M  V30 1341 C 130.012 2.14217 -4.88822 0
M  V30 1342 O 130.235 3.35137 -4.61562 0
M  V30 1343 O 129.169 1.77887 -5.75013 0
M  V30 1344 H 132.995 -0.109237 -3.03503 0
M  V30 1345 H 130.58 -0.119357 -1.48922 0
M  V30 1346 H 132.462 2.2918 -3.5363 0
M  V30 1347 H 131.137 2.23478 -2.34178 0
M  V30 1348 H 130.044 0.373565 -3.7223 0
M  V30 1349 H 131.377 0.511081 -4.89539 0
M  V30 1350 N 133.029 1.57378 -0.0835403 0
M  V30 1351 C 133.961 2.10389 0.909338 0
M  V30 1352 C 134.974 1.03858 1.25369 0
M  V30 1353 O 136.163 1.31338 1.20882 0
M  V30 1354 C 133.263 2.55908 2.2218 0
M  V30 1355 C 132.436 3.86145 2.05453 0
M  V30 1356 C 131.495 4.17633 3.20108 0
M  V30 1357 O 130.521 4.87043 2.94581 0
M  V30 1358 N 131.723 3.72113 4.45547 0
M  V30 1359 H 134.488 2.962 0.456657 0
M  V30 1360 H 132.049 1.61579 0.101877 0
M  V30 1361 H 134.041 2.74027 2.97811 0
M  V30 1362 H 132.611 1.75171 2.58909 0
M  V30 1363 H 131.831 3.7729 1.1422 0
M  V30 1364 H 133.119 4.7137 1.91541 0
M  V30 1365 H 132.517 3.16062 4.69171 0
M  V30 1366 H 131.074 3.95409 5.18165 0
M  V30 1367 N 134.507 -0.190092 1.56449 0
M  V30 1368 C 135.437 -1.23816 1.97969 0
M  V30 1369 C 136.418 -1.47201 0.852395 0
M  V30 1370 O 137.603 -1.58854 1.1171 0
M  V30 1371 C 134.733 -2.5813 2.3235 0
M  V30 1372 C 133.687 -2.49348 3.47864 0
M  V30 1373 C 133.013 -3.8798 3.67934 0
M  V30 1374 C 134.313 -2.01424 4.81898 0
M  V30 1375 H 136.007 -0.89311 2.85769 0
M  V30 1376 H 133.553 -0.428177 1.37487 0
M  V30 1377 H 135.506 -3.31637 2.59991 0
M  V30 1378 H 134.23 -2.94386 1.41438 0
M  V30 1379 H 132.889 -1.78297 3.20321 0
M  V30 1380 H 132.537 -4.21597 2.74344 0
M  V30 1381 H 132.237 -3.82978 4.45648 0
M  V30 1382 H 133.761 -4.63101 3.97957 0
M  V30 1383 H 135.175 -2.64693 5.08538 0
M  V30 1384 H 133.572 -2.07413 5.63116 0
M  V30 1385 H 134.642 -0.967677 4.75146 0
M  V30 1386 N 135.985 -1.50799 -0.457987 0
M  V30 1387 C 137.234 -1.6168 -1.20593 0
M  V30 1388 C 137.547 -0.32888 -1.92815 0
M  V30 1389 O 138.753 -0.316773 -2.69646 0
M  V30 1390 C 137.209 -2.8545 -2.19195 0
M  V30 1391 C 136.817 -4.21168 -1.52715 0
M  V30 1392 C 138.561 -3.05681 -2.94549 0
M  V30 1393 C 136.468 -5.3611 -2.4968 0
M  V30 1394 H 135.398 -0.602134 -0.453818 0
M  V30 1395 H 138.049 -1.77245 -0.475031 0
M  V30 1396 H 136.431 -2.63472 -2.95632 0
M  V30 1397 H 137.605 -4.53449 -0.819775 0
M  V30 1398 H 135.92 -4.06648 -0.895922 0
M  V30 1399 H 138.517 -3.88727 -3.67145 0
M  V30 1400 H 138.86 -2.17929 -3.54701 0
M  V30 1401 H 139.393 -3.27901 -2.25223 0
M  V30 1402 H 136.132 -6.26057 -1.94249 0
M  V30 1403 H 135.652 -5.0823 -3.18532 0
M  V30 1404 H 137.331 -5.6722 -3.11241 0
M  V30 1405 N 137.463 0.71206 -1.40597 0
M  V30 1406 C 138.691 1.50111 -1.42388 0
M  V30 1407 C 139.106 1.88784 -0.0245395 0
M  V30 1408 O 138.463 1.55681 0.952351 0
M  V30 1409 C 138.514 2.7742 -2.31776 0
M  V30 1410 O 138.235 2.40382 -3.66262 0
M  V30 1411 C 139.736 3.7129 -2.42196 0
M  V30 1412 H 136.956 0.46314 -0.485533 0
M  V30 1413 H 139.5 0.878068 -1.8469 0
M  V30 1414 H 137.655 3.36001 -1.92827 0
M  V30 1415 H 138.069 3.22324 -4.13772 0
M  V30 1416 H 139.543 4.57448 -3.08943 0
M  V30 1417 H 140.02 4.14641 -1.44809 0
M  V30 1418 H 140.626 3.18619 -2.81712 0
M  V30 1419 N 138.941 1.26152 0.944643 0
M  V30 1420 C 140.189 1.11271 1.6871 0
M  V30 1421 C 140.51 -0.345166 1.91921 0
M  V30 1422 O 139.78 -1.24387 1.51343 0
M  V30 1423 H 138.36 0.408783 0.625224 0
M  V30 1424 H 141.022 1.58427 1.1352 0
M  V30 1425 H 140.118 1.62879 2.66227 0
M  V30 1426 N 140.419 -1.14872 1.07899 0
M  V30 1427 C 141.366 -2.19791 0.704319 0
M  V30 1428 C 142.336 -1.63238 -0.306987 0
M  V30 1429 O 143.521 -1.8983 -0.192171 0
M  V30 1430 C 140.661 -3.44911 0.114244 0
M  V30 1431 C 139.774 -4.15637 1.1777 0
M  V30 1432 C 138.909 -5.28324 0.552037 0
M  V30 1433 C 137.948 -5.90875 1.59789 0
M  V30 1434 N 137.085 -6.95022 0.994404 0
M  V30 1435 H 141.925 -2.5119 1.60336 0
M  V30 1436 H 139.462 -1.23356 0.801352 0
M  V30 1437 H 141.42 -4.16477 -0.245544 0
M  V30 1438 H 140.05 -3.14011 -0.74813 0
M  V30 1439 H 139.102 -3.42512 1.65499 0
M  V30 1440 H 140.414 -4.5823 1.97046 0
M  V30 1441 H 139.568 -6.06538 0.1402 0
M  V30 1442 H 138.307 -4.86939 -0.272431 0
M  V30 1443 H 137.312 -5.11369 2.01945 0
M  V30 1444 H 138.537 -6.34337 2.42474 0
M  V30 1445 H 136.483 -6.55722 0.190939 0
M  V30 1446 H 136.4 -7.36073 1.72432 0
M  V30 1447 H 137.668 -7.77123 0.608253 0
M  V30 1448 N 141.898 -0.863906 -1.31812 0
M  V30 1449 C 142.808 -0.318461 -2.32428 0
M  V30 1450 C 143.824 0.568496 -1.64451 0
M  V30 1451 O 145 0.46666 -1.95919 0
M  V30 1452 C 142.065 0.476355 -3.43412 0
M  V30 1453 C 141.126 -0.43784 -4.27061 0
M  V30 1454 C 140.359 0.319138 -5.32745 0
M  V30 1455 O 140.582 1.54799 -5.48993 0
M  V30 1456 O 139.516 -0.319861 -6.01049 0
M  V30 1457 H 143.342 -1.15229 -2.80991 0
M  V30 1458 H 140.927 -0.627103 -1.35602 0
M  V30 1459 H 142.809 0.927156 -4.11074 0
M  V30 1460 H 141.484 1.28683 -2.97022 0
M  V30 1461 H 140.391 -0.937013 -3.62175 0
M  V30 1462 H 141.724 -1.21375 -4.77 0
M  V30 1463 N 143.376 1.44774 -0.622745 0
M  V30 1464 C 144.653 1.95522 -0.0551974 0
M  V30 1465 C 145.033 1.5649 1.41683 0
M  V30 1466 O 144.381 0.834848 2.12703 0
M  V30 1467 C 144.591 3.4796 -0.269242 0
M  V30 1468 C 145.939 4.24306 -0.158014 0
M  V30 1469 O 146.963 3.55637 -0.200162 0
M  V30 1470 O 145.822 5.46471 -0.0558693 0
M  V30 1471 H 142.916 0.826556 0.0271015 0
M  V30 1472 H 145.462 1.54866 -0.693864 0
M  V30 1473 H 144.234 3.6939 -1.29099 0
M  V30 1474 H 143.857 3.95543 0.403966 0
M  V30 1475 N 144.854 0.36279 1.53368 0
M  V30 1476 C 145.817 -0.472679 2.24273 0
M  V30 1477 C 146.817 -1.012 1.24961 0
M  V30 1478 O 148.007 -0.898194 1.49259 0
M  V30 1479 C 145.139 -1.66039 2.97731 0
M  V30 1480 H 146.332 0.14773 2.99536 0
M  V30 1481 H 143.885 0.114434 1.55881 0
M  V30 1482 H 144.62 -2.31896 2.26704 0
M  V30 1483 H 144.405 -1.28066 3.70596 0
M  V30 1484 H 145.895 -2.25252 3.51641 0
M  V30 1485 N 146.332 -1.57332 0.0918853 0
M  V30 1486 C 147.295 -2.12708 -0.85369 0
M  V30 1487 C 148.295 -1.05561 -1.213 0
M  V30 1488 O 149.485 -1.31461 -1.14296 0
M  V30 1489 C 146.617 -2.64503 -2.15061 0
M  V30 1490 H 147.81 -2.97573 -0.3729 0
M  V30 1491 H 145.363 -1.55509 -0.157072 0
M  V30 1492 H 146.098 -1.83149 -2.67632 0
M  V30 1493 H 145.883 -3.4284 -1.90272 0
M  V30 1494 H 147.373 -3.07351 -2.82711 0
M  V30 1495 N 147.81 0.181792 -1.56548 0
M  V30 1496 C 148.758 1.24461 -1.965 0
M  V30 1497 C 149.752 1.464 -0.852261 0
M  V30 1498 O 150.958 1.47103 -1.03733 0
M  V30 1499 H 147.333 0.418138 -0.625031 0
M  V30 1500 H 149.304 0.880714 -2.85107 0
M  V30 1501 C 148.053 2.57891 -2.33212 0
M  V30 1502 H 147.376 2.41829 -3.18369 0
M  V30 1503 H 148.816 3.3097 -2.65019 0
M  V30 1504 C 147.275 3.15871 -1.17163 0
M  V30 1505 O 147.805 3.9913 -0.453708 0
M  V30 1506 N 146.011 2.74808 -0.944936 0
M  V30 1507 H 145.558 2.07205 -1.53049 0
M  V30 1508 H 145.516 3.13939 -0.170286 0
M  V30 1509 N 149.288 1.51039 0.449983 0
M  V30 1510 C 150.236 1.71995 1.5659 0
M  V30 1511 C 151.23 0.586029 1.5894 0
M  V30 1512 O 152.436 0.76709 1.62837 0
M  V30 1513 H 148.811 0.543233 0.520001 0
M  V30 1514 H 150.782 2.65562 1.36085 0
M  V30 1515 C 149.531 1.8506 2.9436 0
M  V30 1516 H 148.854 2.71712 2.93279 0
M  V30 1517 H 150.294 2.0374 3.71842 0
M  V30 1518 C 148.753 0.607277 3.31382 0
M  V30 1519 O 149.283 -0.243903 4.00959 0
M  V30 1520 N 147.489 0.455073 2.87015 0
M  V30 1521 H 147.036 1.14879 2.30566 0
M  V30 1522 H 146.994 -0.375611 3.12148 0
M  V30 1523 N 150.766 -0.704594 1.40972 0
M  V30 1524 C 151.996 -1.49138 1.42974 0
M  V30 1525 C 152.404 -1.89175 0.0308406 0
M  V30 1526 O 151.747 -1.56734 -0.958138 0
M  V30 1527 C 151.809 -2.79016 2.26694 0
M  V30 1528 C 151.473 -2.61236 3.74973 0
M  V30 1529 C 152.47 -2.27773 4.67349 0
M  V30 1530 C 150.155 -2.77158 4.18914 0
M  V30 1531 C 152.149 -2.10457 6.01653 0
M  V30 1532 C 149.836 -2.59459 5.53285 0
M  V30 1533 C 150.834 -2.26158 6.4447 0
M  V30 1534 O 150.522 -2.08605 7.76363 0
M  V30 1535 H 150.254 -0.466443 0.489292 0
M  V30 1536 H 152.808 -0.8758 1.85793 0
M  V30 1537 H 151.038 -3.42947 1.78673 0
M  V30 1538 H 152.727 -3.40782 2.20504 0
M  V30 1539 H 153.493 -2.15095 4.34694 0
M  V30 1540 H 149.372 -3.02064 3.48251 0
M  V30 1541 H 152.916 -1.84387 6.72791 0
M  V30 1542 H 148.813 -2.71725 5.85522 0
M  V30 1543 H 149.581 -2.23439 7.87412 0
M  V30 1544 N 152.244 -1.26651 -0.937939 0
M  V30 1545 C 153.207 -1.08546 -2.01867 0
M  V30 1546 C 154.207 -0.0327327 -1.60767 0
M  V30 1547 O 155.397 -0.276427 -1.71993 0
M  V30 1548 C 152.529 -0.651711 -3.34613 0
M  V30 1549 H 153.722 -2.04502 -2.1936 0
M  V30 1550 H 151.275 -1.09294 -1.11734 0
M  V30 1551 H 152.01 0.309696 -3.22818 0
M  V30 1552 H 151.795 -1.41189 -3.65798 0
M  V30 1553 H 153.285 -0.546973 -4.14002 0
M  V30 1554 N 153.722 1.14298 -1.08507 0
M  V30 1555 C 155.138 1.37347 -0.812901 0
M  V30 1556 C 155.338 1.93052 0.577325 0
M  V30 1557 O 154.394 2.14389 1.33393 0
M  V30 1558 C 155.707 2.33359 -1.89642 0
M  V30 1559 C 157.255 2.46996 -1.92255 0
M  V30 1560 C 157.73 3.46309 -2.99724 0
M  V30 1561 N 159.221 3.53853 -2.98902 0
M  V30 1562 C 159.956 4.3055 -3.787 0
M  V30 1563 N 159.452 5.10482 -4.6838 0
M  V30 1564 N 161.245 4.25757 -3.66998 0
M  V30 1565 H 153.396 0.764867 -1.9815 0
M  V30 1566 H 155.659 0.398966 -0.859959 0
M  V30 1567 H 155.365 1.99565 -2.89597 0
M  V30 1568 H 155.239 3.33274 -1.76659 0
M  V30 1569 H 157.626 2.80081 -0.929445 0
M  V30 1570 H 157.707 1.47039 -2.09316 0
M  V30 1571 H 157.351 3.13957 -3.99241 0
M  V30 1572 H 157.281 4.46049 -2.79907 0
M  V30 1573 H 159.772 2.96812 -2.33904 0
M  V30 1574 H 160.085 5.66284 -5.25873 0
M  V30 1575 H 158.43 5.09747 -4.72422 0
M  V30 1576 H 161.621 3.62383 -2.96304 0
M  V30 1577 H 161.794 4.85279 -4.29427 0
M  V30 1578 N 155.201 0.870884 1.31352 0
M  V30 1579 C 156.449 0.48132 1.96285 0
M  V30 1580 C 156.77 -0.969813 1.69173 0
M  V30 1581 O 156.04 -1.67998 1.00764 0
M  V30 1582 H 154.62 0.175002 0.726212 0
M  V30 1583 H 157.282 1.11087 1.60143 0
M  V30 1584 H 156.378 0.639825 3.05471 0
M  V30 1585 N 156.679 -1.44442 0.630414 0
M  V30 1586 C 157.629 -2.27794 -0.0968103 0
M  V30 1587 C 158.613 -1.38624 -0.816834 0
M  V30 1588 O 159.805 -1.62438 -0.70306 0
M  V30 1589 C 156.934 -3.25929 -1.07819 0
M  V30 1590 C 156.02 -4.22588 -0.357826 0
M  V30 1591 N 156.411 -5.0207 0.613169 0
M  V30 1592 C 154.709 -4.41914 -0.602365 0
M  V30 1593 C 155.41 -5.72351 1.03871 0
M  V30 1594 N 154.386 -5.42287 0.377642 0
M  V30 1595 H 158.188 -2.86653 0.648621 0
M  V30 1596 H 155.702 -1.55871 0.455862 0
M  V30 1597 H 157.699 -3.84399 -1.61378 0
M  V30 1598 H 156.359 -2.68631 -1.82393 0
M  V30 1599 H 157.37 -5.08331 0.990947 0
M  V30 1600 H 154.047 -3.95714 -1.33103 0
M  V30 1601 H 155.437 -6.4619 1.84086 0
M  V30 1602 N 158.157 -0.370918 -1.53173 0
M  V30 1603 C 159.387 0.217389 -2.05453 0
M  V30 1604 C 159.795 1.42568 -1.24382 0
M  V30 1605 O 159.138 1.81571 -0.278839 0
M  V30 1606 C 159.2 0.669827 -3.53205 0
M  V30 1607 C 158.864 -0.4225 -4.55043 0
M  V30 1608 C 159.861 -1.27407 -5.04047 0
M  V30 1609 C 157.546 -0.58427 -4.9889 0
M  V30 1610 C 159.54 -2.27271 -5.95505 0
M  V30 1611 C 157.227 -1.58627 -5.90153 0
M  V30 1612 C 158.225 -2.42892 -6.38351 0
M  V30 1613 O 157.913 -3.41382 -7.27814 0
M  V30 1614 H 157.645 0.0408171 -0.674767 0
M  V30 1615 H 160.199 -0.5292 -1.98466 0
M  V30 1616 H 158.429 1.4681 -3.57748 0
M  V30 1617 H 160.118 1.18173 -3.88317 0
M  V30 1618 H 160.884 -1.16031 -4.70916 0
M  V30 1619 H 156.763 0.061851 -4.60959 0
M  V30 1620 H 160.307 -2.93079 -6.33049 0
M  V30 1621 H 156.204 -1.70048 -6.22699 0
M  V30 1622 H 156.972 -3.37173 -7.45826 0
M  V30 1623 N 159.635 1.57281 -0.100228 0
M  V30 1624 C 160.863 1.98879 0.570509 0
M  V30 1625 C 161.278 0.979476 1.61405 0
M  V30 1626 O 160.635 -0.0302288 1.82475 0
M  V30 1627 C 160.686 3.4052 1.2136 0
M  V30 1628 O 160.407 4.37588 0.211786 0
M  V30 1629 C 161.908 3.97149 1.96945 0
M  V30 1630 H 159.128 0.653428 0.152555 0
M  V30 1631 H 161.672 2.03697 -0.18103 0
M  V30 1632 H 159.827 3.367 1.91603 0
M  V30 1633 H 160.241 5.20118 0.676607 0
M  V30 1634 H 161.715 4.98393 2.37294 0
M  V30 1635 H 162.192 3.3525 2.83733 0
M  V30 1636 H 162.798 4.04458 1.31506 0
M  V30 1637 N 161.113 -0.173488 1.56642 0
M  V30 1638 C 162.362 -0.888758 1.81063 0
M  V30 1639 C 162.675 -1.83506 0.67712 0
M  V30 1640 O 163.881 -2.59254 0.806206 0
M  V30 1641 C 162.337 -1.63091 3.20826 0
M  V30 1642 C 161.945 -0.728357 4.4204 0
M  V30 1643 C 163.689 -2.33454 3.54541 0
M  V30 1644 C 161.596 -1.47062 5.72823 0
M  V30 1645 H 160.526 -0.335618 0.675186 0
M  V30 1646 H 163.177 -0.141712 1.82952 0
M  V30 1647 H 161.559 -2.42263 3.13248 0
M  V30 1648 H 162.733 0.0262449 4.60793 0
M  V30 1649 H 161.048 -0.134492 4.16183 0
M  V30 1650 H 163.645 -2.89578 4.49498 0
M  V30 1651 H 163.988 -3.08687 2.79317 0
M  V30 1652 H 164.521 -1.61227 3.63663 0
M  V30 1653 H 161.26 -0.760658 6.51072 0
M  V30 1654 H 160.78 -2.1986 5.58052 0
M  V30 1655 H 162.459 -2.01868 6.14702 0
M  V30 1656 N 162.591 -1.51276 -0.441967 0
M  V30 1657 C 163.839 -1.63392 -1.18943 0
M  V30 1658 C 164.16 -0.350159 -1.9183 0
M  V30 1659 O 163.43 0.633784 -1.85364 0
M  V30 1660 H 162.01 -0.602164 -0.442049 0
M  V30 1661 H 164.672 -1.88186 -0.507165 0
M  V30 1662 H 163.768 -2.45934 -1.92154 0
M  V30 1663 N 164.069 0.697108 -1.41344 0
M  V30 1664 C 165.016 1.81106 -1.43071 0
M  V30 1665 C 165.986 1.63632 -0.285275 0
M  V30 1666 O 167.171 1.84504 -0.486091 0
M  V30 1667 C 164.311 3.18975 -1.31715 0
M  V30 1668 C 163.424 3.47892 -2.56115 0
M  V30 1669 C 162.559 4.75367 -2.37064 0
M  V30 1670 C 161.598 4.97247 -3.56948 0
M  V30 1671 N 160.735 6.15947 -3.36977 0
M  V30 1672 H 165.575 1.78965 -2.38276 0
M  V30 1673 H 163.112 0.873975 -1.18322 0
M  V30 1674 H 165.07 3.98615 -1.23133 0
M  V30 1675 H 163.7 3.20297 -0.401183 0
M  V30 1676 H 162.752 2.62669 -2.75153 0
M  V30 1677 H 164.064 3.59962 -3.45295 0
M  V30 1678 H 163.218 5.63059 -2.25941 0
M  V30 1679 H 161.957 4.65541 -1.45338 0
M  V30 1680 H 160.962 4.08004 -3.68527 0
M  V30 1681 H 162.187 5.08934 -4.49626 0
M  V30 1682 H 160.133 6.07336 -2.47949 0
M  V30 1683 H 160.05 6.28777 -4.19732 0
M  V30 1684 H 161.318 7.06377 -3.29623 0
M  V30 1685 N 165.547 1.27147 0.931209 0
M  V30 1686 C 166.457 1.11372 2.06478 0
M  V30 1687 C 167.473 0.044645 1.73943 0
M  V30 1688 O 168.649 0.250417 1.99837 0
M  V30 1689 C 165.714 0.758838 3.38294 0
M  V30 1690 C 164.775 1.90841 3.84549 0
M  V30 1691 C 164.008 1.57036 5.10074 0
M  V30 1692 O 164.231 0.476645 5.68405 0
M  V30 1693 O 163.165 2.40839 5.51616 0
M  V30 1694 H 166.991 2.06493 2.22698 0
M  V30 1695 H 164.576 1.06301 1.04978 0
M  V30 1696 H 166.458 0.574098 4.17471 0
M  V30 1697 H 165.133 -0.162879 3.2329 0
M  V30 1698 H 164.04 2.14819 3.06274 0
M  V30 1699 H 165.373 2.81021 4.04089 0
M  V30 1700 N 167.025 -1.13721 1.09112 0
M  V30 1701 C 168.274 -1.84275 0.82009 0
M  V30 1702 C 168.587 -1.84253 -0.656509 0
M  V30 1703 O 169.793 -2.50668 -1.04296 0
M  V30 1704 C 168.249 -3.30825 1.41714 0
M  V30 1705 C 167.857 -3.39244 2.92605 0
M  V30 1706 C 169.601 -4.06443 1.22492 0
M  V30 1707 C 167.508 -4.80047 3.45411 0
M  V30 1708 H 166.438 -0.690387 0.30312 0
M  V30 1709 H 169.089 -1.28146 1.31343 0
M  V30 1710 H 167.471 -3.86737 0.851498 0
M  V30 1711 H 168.645 -2.93344 3.55367 0
M  V30 1712 H 166.96 -2.77088 3.10823 0
M  V30 1713 H 169.557 -5.10387 1.59402 0
M  V30 1714 H 169.9 -4.15972 0.165299 0
M  V30 1715 H 170.433 -3.56852 1.75788 0
M  V30 1716 H 167.172 -4.75709 4.50978 0
M  V30 1717 H 166.692 -5.26455 2.87411 0
M  V30 1718 H 168.371 -5.48957 3.42425 0
M  V30 1719 N 168.503 -0.877838 -1.30888 0
M  V30 1720 C 169.752 -0.488793 -1.95688 0
M  V30 1721 C 170.065 0.965485 -1.70111 0
M  V30 1722 O 171.271 1.46104 -2.28836 0
M  V30 1723 C 169.727 -0.823201 -3.50359 0
M  V30 1724 C 169.335 -2.29477 -3.84765 0
M  V30 1725 C 171.079 -0.503009 -4.21509 0
M  V30 1726 C 168.986 -2.57118 -5.32583 0
M  V30 1727 H 167.916 -0.179062 -0.732429 0
M  V30 1728 H 170.567 -1.07183 -1.48943 0
M  V30 1729 H 168.949 -0.169331 -3.95638 0
M  V30 1730 H 170.123 -2.99236 -3.5042 0
M  V30 1731 H 168.438 -2.58178 -3.267 0
M  V30 1732 H 171.035 -0.68665 -5.30273 0
M  V30 1733 H 171.378 0.557109 -4.12555 0
M  V30 1734 H 171.911 -1.11376 -3.8189 0
M  V30 1735 H 168.65 -3.61843 -5.4658 0
M  V30 1736 H 168.17 -1.91961 -5.68253 0
M  V30 1737 H 169.849 -2.42251 -5.99936 0
M  V30 1738 N 169.982 1.44106 -0.638065 0
M  V30 1739 C 171.259 1.95453 -0.0759321 0
M  V30 1740 C 171.639 1.57984 1.40015 0
M  V30 1741 O 170.987 0.857361 2.11806 0
M  V30 1742 C 171.197 3.47655 -0.306132 0
M  V30 1743 C 172.545 4.24114 -0.203008 0
M  V30 1744 O 173.569 3.55405 -0.237871 0
M  V30 1745 O 172.428 5.46381 -0.113827 0
M  V30 1746 H 169.522 0.826797 0.0183332 0
M  V30 1747 H 172.068 1.54122 -0.710251 0
M  V30 1748 H 170.84 3.68 -1.3301 0
M  V30 1749 H 170.463 3.95949 0.361991 0
M  V30 1750 N 171.46 0.379036 1.52974 0
M  V30 1751 C 172.39 -0.452706 2.29069 0
M  V30 1752 C 173.371 -1.07237 1.32039 0
M  V30 1753 O 174.556 -1.08708 1.60923 0
M  V30 1754 C 171.686 -1.5856 3.08992 0
M  V30 1755 C 170.64 -1.0925 4.13822 0
M  V30 1756 C 169.966 -2.31668 4.81907 0
M  V30 1757 C 171.266 -0.167702 5.22031 0
M  V30 1758 H 172.96 0.182181 2.98845 0
M  V30 1759 H 170.506 0.0890592 1.43724 0
M  V30 1760 H 172.459 -2.1742 3.6098 0
M  V30 1761 H 171.183 -2.24792 2.36931 0
M  V30 1762 H 169.842 -0.526494 3.628 0
M  V30 1763 H 169.49 -2.96386 4.06404 0
M  V30 1764 H 169.19 -1.9934 5.52754 0
M  V30 1765 H 170.714 -2.91189 5.36695 0
M  V30 1766 H 172.128 -0.664186 5.6944 0
M  V30 1767 H 170.525 0.0653265 6.00064 0
M  V30 1768 H 171.595 0.786347 4.78482 0
M  V30 1769 N 172.938 -1.57226 0.108567 0
M  V30 1770 C 174.184 -1.95121 -0.552761 0
M  V30 1771 C 174.517 -0.991345 -1.66991 0
M  V30 1772 O 173.792 -0.0267211 -1.94482 0
M  V30 1773 C 174.075 -3.43039 -1.09528 0
M  V30 1774 C 173.928 -4.49797 0.0177332 0
M  V30 1775 C 175.247 -3.92567 -1.98945 0
M  V30 1776 H 172.366 -0.709496 -0.199461 0
M  V30 1777 H 175.008 -1.89126 0.182011 0
M  V30 1778 H 173.158 -3.48279 -1.72146 0
M  V30 1779 H 174.83 -4.56661 0.652584 0
M  V30 1780 H 173.073 -4.284 0.682309 0
M  V30 1781 H 173.744 -5.50528 -0.402919 0
M  V30 1782 H 176.22 -3.89565 -1.46214 0
M  V30 1783 H 175.096 -4.96605 -2.33827 0
M  V30 1784 H 175.357 -3.32648 -2.91201 0
M  V30 1785 N 174.416 0.165178 -1.56732 0
M  V30 1786 C 175.346 1.20651 -1.99914 0
M  V30 1787 C 176.327 1.45827 -0.875705 0
M  V30 1788 O 177.512 1.57057 -1.14223 0
M  V30 1789 C 174.642 2.54401 -2.36427 0
M  V30 1790 C 173.596 2.43782 -3.51787 0
M  V30 1791 C 172.922 3.82078 -3.7406 0
M  V30 1792 C 174.222 1.93732 -4.85041 0
M  V30 1793 H 175.916 0.847534 -2.87154 0
M  V30 1794 H 173.462 0.40625 -1.38151 0
M  V30 1795 H 175.415 3.27458 -2.65234 0
M  V30 1796 H 174.139 2.92098 -1.46103 0
M  V30 1797 H 172.798 1.73178 -3.23117 0
M  V30 1798 H 172.446 4.17179 -2.81017 0
M  V30 1799 H 172.146 3.7584 -4.51684 0
M  V30 1800 H 173.67 4.56712 -4.05274 0
M  V30 1801 H 175.084 2.56569 -5.12684 0
M  V30 1802 H 173.481 1.98428 -5.66345 0
M  V30 1803 H 174.551 0.891962 -4.76626 0
M  V30 1804 N 175.894 1.51508 0.433938 0
M  V30 1805 C 177.171 1.54888 1.19453 0
M  V30 1806 C 177.551 0.315154 2.08734 0
M  V30 1807 O 176.899 -0.699558 2.17528 0
M  V30 1808 C 177.109 2.86467 1.99342 0
M  V30 1809 C 178.457 3.38545 2.56267 0
M  V30 1810 O 179.481 2.88041 2.0955 0
M  V30 1811 O 178.34 4.26675 3.41483 0
M  V30 1812 H 175.434 0.622863 0.544032 0
M  V30 1813 H 177.98 1.63823 0.442732 0
M  V30 1814 H 176.752 3.67718 1.33788 0
M  V30 1815 H 176.375 2.8071 2.8158 0
M  V30 1816 N 177.372 -0.689602 1.41712 0
M  V30 1817 C 178.788 -1.00093 1.24312 0
M  V30 1818 C 178.988 -2.01036 0.136729 0
M  V30 1819 O 178.044 -2.47562 -0.496918 0
M  V30 1820 C 179.357 -1.51985 2.59463 0
M  V30 1821 C 180.905 -1.63838 2.66695 0
M  V30 1822 C 181.38 -2.1913 4.02177 0
M  V30 1823 N 182.871 -2.26483 4.04054 0
M  V30 1824 C 183.606 -2.70306 5.0569 0
M  V30 1825 N 183.102 -3.13691 6.17713 0
M  V30 1826 N 184.895 -2.69923 4.9305 0
M  V30 1827 H 177.046 -0.0210029 2.1239 0
M  V30 1828 H 179.309 -0.0718733 0.945272 0
M  V30 1829 H 179.015 -0.85269 3.41207 0
M  V30 1830 H 178.889 -2.50103 2.82362 0
M  V30 1831 H 181.276 -2.29664 1.85306 0
M  V30 1832 H 181.357 -0.642492 2.476 0
M  V30 1833 H 181.001 -1.53918 4.84016 0
M  V30 1834 H 180.931 -3.19482 4.18615 0
M  V30 1835 H 183.422 -1.95874 3.23174 0
M  V30 1836 H 183.735 -3.45773 6.9113 0
M  V30 1837 H 182.08 -3.11585 6.21241 0
M  V30 1838 H 185.271 -2.35382 4.04614 0
M  V30 1839 H 185.444 -3.03758 5.72394 0
M  V30 1840 N 178.85 -1.27639 -0.924453 0
M  V30 1841 C 180.099 -1.13549 -1.66702 0
M  V30 1842 C 180.412 0.317487 -1.93006 0
M  V30 1843 O 181.618 0.579333 -2.65247 0
M  V30 1844 C 180.074 -1.98426 -3.00259 0
M  V30 1845 C 179.682 -3.484 -2.81641 0
M  V30 1846 C 181.426 -1.92993 -3.78092 0
M  V30 1847 C 179.333 -4.25464 -4.10773 0
M  V30 1848 H 178.263 -0.421351 -0.625283 0
M  V30 1849 H 180.914 -1.52085 -1.02676 0
M  V30 1850 H 179.296 -1.52736 -3.6536 0
M  V30 1851 H 180.47 -4.01973 -2.25287 0
M  V30 1852 H 178.785 -3.55245 -2.17232 0
M  V30 1853 H 181.382 -2.47844 -4.7379 0
M  V30 1854 H 181.725 -0.904281 -4.0636 0
M  V30 1855 H 182.258 -2.36595 -3.19793 0
M  V30 1856 H 178.997 -5.28566 -3.87683 0
M  V30 1857 H 178.517 -3.76667 -4.66779 0
M  V30 1858 H 180.196 -4.34812 -4.79111 0
M  V30 1859 N 180.328 1.1314 -1.09713 0
M  V30 1860 C 181.744 1.36477 -0.827423 0
M  V30 1861 C 181.944 1.93654 0.556817 0
M  V30 1862 O 181 2.15791 1.31112 0
M  V30 1863 C 182.313 2.31334 -1.92106 0
M  V30 1864 C 183.861 2.44943 -1.94864 0
M  V30 1865 C 184.336 3.4311 -3.0338 0
M  V30 1866 N 185.827 3.50662 -3.02639 0
M  V30 1867 C 186.562 4.2651 -3.83246 0
M  V30 1868 N 186.058 5.05485 -4.73768 0
M  V30 1869 N 187.851 4.2184 -3.71493 0
M  V30 1870 H 180.002 0.743807 -1.9895 0
M  V30 1871 H 182.265 0.389823 -0.864143 0
M  V30 1872 H 181.971 1.96483 -2.91698 0
M  V30 1873 H 181.845 3.31381 -1.80184 0
M  V30 1874 H 184.232 2.79079 -0.959099 0
M  V30 1875 H 184.313 1.4481 -2.10864 0
M  V30 1876 H 183.957 3.09704 -4.02549 0
M  V30 1877 H 183.887 4.43055 -2.84622 0
M  V30 1878 H 186.378 2.94315 -2.37039 0
M  V30 1879 H 186.691 5.60675 -5.3185 0
M  V30 1880 H 185.036 5.04708 -4.77802 0
M  V30 1881 H 188.227 3.5922 -3.00131 0
M  V30 1882 H 188.4 4.80697 -4.3455 0
M  V30 1883 N 181.806 0.884767 1.30421 0
M  V30 1884 C 182.753 0.349642 2.28136 0
M  V30 1885 C 183.723 -0.560061 1.56373 0
M  V30 1886 O 184.908 -0.488524 1.8444 0
M  V30 1887 C 182.048 -0.42999 3.42411 0
M  V30 1888 C 181.161 0.508907 4.28992 0
M  V30 1889 C 180.296 -0.286301 5.30428 0
M  V30 1890 C 179.335 0.648079 6.08659 0
M  V30 1891 N 178.472 -0.111792 7.02011 0
M  V30 1892 H 183.312 1.18807 2.73293 0
M  V30 1893 H 180.849 0.597231 1.3443 0
M  V30 1894 H 182.807 -0.897923 4.07423 0
M  V30 1895 H 181.437 -1.23299 2.98324 0
M  V30 1896 H 180.489 1.09533 3.64289 0
M  V30 1897 H 181.801 1.22475 4.8353 0
M  V30 1898 H 180.955 -0.816098 6.01186 0
M  V30 1899 H 179.694 -1.03536 4.76583 0
M  V30 1900 H 178.699 1.18951 5.36778 0
M  V30 1901 H 179.924 1.39623 6.64592 0
M  V30 1902 H 177.87 -0.843395 6.50556 0
M  V30 1903 H 177.787 0.544429 7.54037 0
M  V30 1904 H 179.055 -0.622339 7.77012 0
M  V30 1905 N 183.284 -1.43765 0.645699 0
M  V30 1906 C 184.214 -2.33471 -0.0370477 0
M  V30 1907 C 185.195 -1.49042 -0.819779 0
M  V30 1908 O 186.38 -1.77726 -0.782758 0
M  V30 1909 C 183.51 -3.32311 -1.0093 0
M  V30 1910 C 182.464 -4.2667 -0.337201 0
M  V30 1911 C 181.79 -5.1549 -1.42037 0
M  V30 1912 C 183.09 -5.16657 0.765706 0
M  V30 1913 H 184.784 -2.90809 0.712069 0
M  V30 1914 H 182.33 -1.39834 0.343876 0
M  V30 1915 H 184.283 -3.9396 -1.49578 0
M  V30 1916 H 183.007 -2.73213 -1.78948 0
M  V30 1917 H 181.666 -3.66374 0.128771 0
M  V30 1918 H 181.314 -4.52735 -2.1918 0
M  V30 1919 H 181.014 -5.79438 -0.975966 0
M  V30 1920 H 182.538 -5.80012 -1.90838 0
M  V30 1921 H 183.952 -5.72158 0.361702 0
M  V30 1922 H 182.349 -5.89286 1.13413 0
M  V30 1923 H 183.419 -4.56796 1.62683 0
M  V30 1924 N 184.763 -0.387143 -1.52771 0
M  V30 1925 C 185.726 0.436939 -2.24997 0
M  V30 1926 C 186.726 0.991991 -1.26555 0
M  V30 1927 O 187.916 0.874335 -1.50669 0
M  V30 1928 C 185.048 1.61281 -3.00335 0
M  V30 1929 H 186.241 -0.195365 -2.99263 0
M  V30 1930 H 183.794 -0.139218 -1.55679 0
M  V30 1931 H 184.529 2.2826 -2.30364 0
M  V30 1932 H 184.314 1.22154 -3.72587 0
M  V30 1933 H 185.804 2.19629 -3.5518 0
M  V30 1934 N 186.241 1.57166 -0.116904 0
M  V30 1935 C 187.518 1.86645 0.585049 0
M  V30 1936 C 187.898 1.0177 1.84949 0
M  V30 1937 O 187.246 0.0960379 2.28298 0
M  V30 1938 C 187.456 3.37736 0.879507 0
M  V30 1939 C 188.804 4.06289 1.23348 0
M  V30 1940 O 189.828 3.42743 0.969836 0
M  V30 1941 O 188.687 5.18455 1.7282 0
M  V30 1942 H 185.781 0.772593 0.295007 0
M  V30 1943 H 188.327 1.69025 -0.151249 0
M  V30 1944 H 187.099 3.91296 -0.0166136 0
M  V30 1945 H 186.722 3.6078 1.67103 0
M  V30 1946 N 187.719 -0.156864 1.56817 0
M  V30 1947 C 188.651 -1.21883 1.94106 0
M  V30 1948 C 189.664 -1.3971 0.835754 0
M  V30 1949 O 190.853 -1.39457 1.11418 0
M  V30 1950 C 187.953 -2.58527 2.19127 0
M  V30 1951 C 187.126 -2.61809 3.50393 0
M  V30 1952 C 186.185 -3.7992 3.64071 0
M  V30 1953 O 185.211 -3.65249 4.36557 0
M  V30 1954 N 186.413 -4.96973 2.99997 0
M  V30 1955 H 189.178 -0.901974 2.85805 0
M  V30 1956 H 186.739 -0.346513 1.58148 0
M  V30 1957 H 188.731 -3.36034 2.25529 0
M  V30 1958 H 187.301 -2.82545 1.33742 0
M  V30 1959 H 186.521 -1.7029 3.5552 0
M  V30 1960 H 187.809 -2.61024 4.36742 0
M  V30 1961 H 187.207 -5.11794 2.41004 0
M  V30 1962 H 185.764 -5.7229 3.11974 0
M  V30 1963 N 189.197 -1.51736 -0.425897 0
M  V30 1964 C 190.437 -1.66636 -1.18371 0
M  V30 1965 C 190.801 -0.379854 -1.88205 0
M  V30 1966 O 192.002 -0.404758 -2.65735 0
M  V30 1967 C 190.273 -2.84382 -2.16476 0
M  V30 1968 S 191.832 -3.19673 -3.0059 0
M  V30 1969 H 188.65 -0.586957 -0.40125 0
M  V30 1970 H 191.252 -1.89679 -0.473518 0
M  V30 1971 H 189.956 -3.76281 -1.63831 0
M  V30 1972 H 189.487 -2.63562 -2.92059 0
M  V30 1973 H 191.502 -2.66994 -4.18245 0
M  V30 1974 N 190.675 0.682077 -1.42076 0
M  V30 1975 C 191.903 1.47057 -1.4554 0
M  V30 1976 C 192.318 1.8869 -0.0645779 0
M  V30 1977 O 191.675 1.57666 0.919115 0
M  V30 1978 C 191.726 2.72442 -2.37609 0
M  V30 1979 O 191.447 2.32559 -3.71279 0
M  V30 1980 C 192.948 3.66069 -2.50017 0
M  V30 1981 H 190.168 0.452737 -0.495248 0
M  V30 1982 H 192.712 0.838695 -1.8651 0
M  V30 1983 H 190.867 3.31835 -1.9991 0
M  V30 1984 H 191.281 3.13475 -4.20516 0
M  V30 1985 H 192.755 4.50792 -3.18576 0
M  V30 1986 H 193.232 4.11476 -1.53572 0
M  V30 1987 H 193.838 3.12572 -2.88407 0
M  V30 1988 N 192.153 1.28127 0.917671 0
M  V30 1989 C 193.401 1.14825 1.66312 0
M  V30 1990 C 193.722 -0.304379 1.9261 0
M  V30 1991 O 192.992 -1.21149 1.53947 0
M  V30 1992 H 191.572 0.421953 0.616413 0
M  V30 1993 H 194.234 1.608 1.10134 0
M  V30 1994 H 193.33 1.68489 2.62712 0
M  V30 1995 N 193.631 -1.12557 1.10312 0
M  V30 1996 C 194.561 -2.20341 0.772798 0
M  V30 1997 C 195.542 -1.68198 -0.25365 0
M  V30 1998 O 196.727 -1.93831 -0.119699 0
M  V30 1999 C 193.857 -3.46709 0.202443 0
M  V30 2000 C 192.811 -4.11996 1.15943 0
M  V30 2001 C 192.137 -5.328 0.450345 0
M  V30 2002 C 193.437 -4.5828 2.50552 0
M  V30 2003 H 195.131 -2.48229 1.674 0
M  V30 2004 H 192.677 -1.19308 0.806326 0
M  V30 2005 H 194.63 -4.2138 -0.0407752 0
M  V30 2006 H 193.354 -3.18245 -0.734001 0
M  V30 2007 H 192.013 -3.39305 1.38808 0
M  V30 2008 H 191.661 -5.00602 -0.490531 0
M  V30 2009 H 191.361 -5.7743 1.08851 0
M  V30 2010 H 192.885 -6.10219 0.215642 0
M  V30 2011 H 194.299 -5.2433 2.31843 0
M  V30 2012 H 192.696 -5.13683 3.10242 0
M  V30 2013 H 193.766 -3.72329 3.10643 0
M  V30 2014 N 195.109 -0.891671 -1.2995 0
M  V30 2015 C 196.041 -0.320695 -2.26945 0
M  V30 2016 C 197.054 0.528497 -1.53983 0
M  V30 2017 O 198.243 0.346959 -1.75096 0
M  V30 2018 C 195.343 0.562066 -3.34207 0
M  V30 2019 C 194.516 -0.259576 -4.36629 0
M  V30 2020 C 193.575 0.554739 -5.23268 0
M  V30 2021 O 192.601 -0.0249311 -5.69195 0
M  V30 2022 N 193.803 1.8625 -5.4981 0
M  V30 2023 H 196.568 -1.15432 -2.76578 0
M  V30 2024 H 194.129 -0.755336 -1.432 0
M  V30 2025 H 196.121 1.11304 -3.89093 0
M  V30 2026 H 194.691 1.29637 -2.84452 0
M  V30 2027 H 193.911 -0.991986 -3.81514 0
M  V30 2028 H 195.199 -0.822564 -5.02107 0
M  V30 2029 H 194.597 2.35628 -5.14292 0
M  V30 2030 H 193.154 2.36078 -6.07545 0
M  V30 2031 N 196.587 1.43421 -0.653314 0
M  V30 2032 C 197.835 2.01414 -0.166415 0
M  V30 2033 C 198.156 1.51803 1.22397 0
M  V30 2034 O 197.426 0.730693 1.81763 0
M  V30 2035 H 196.006 0.744703 -0.0585319 0
M  V30 2036 H 198.668 1.75629 -0.845003 0
M  V30 2037 H 197.764 3.11734 -0.151111 0
M  V30 2038 N 198.065 0.39524 1.52563 0
M  V30 2039 C 199.312 -0.185044 2.01653 0
M  V30 2040 C 199.64 -1.46317 1.28146 0
M  V30 2041 O 198.895 -1.9213 0.372074 0
M  V30 2042 C 199.194 -0.493444 3.53977 0
M  V30 2043 C 198.86 0.69384 4.4553 0
M  V30 2044 C 197.522 1.01954 4.70275 0
M  V30 2045 C 199.874 1.48785 4.99512 0
M  V30 2046 C 197.202 2.14069 5.46252 0
M  V30 2047 C 199.554 2.59965 5.76716 0
M  V30 2048 C 198.218 2.93037 5.99738 0
M  V30 2049 H 197.488 -0.0677123 0.7379 0
M  V30 2050 H 200.135 0.533807 1.8391 0
M  V30 2051 H 198.44 -1.29369 3.69825 0
M  V30 2052 H 200.137 -0.955163 3.89458 0
M  V30 2053 H 196.727 0.429987 4.26438 0
M  V30 2054 H 200.911 1.24946 4.80315 0
M  V30 2055 H 196.167 2.40056 5.62302 0
M  V30 2056 H 200.341 3.21887 6.17545 0
M  V30 2057 H 197.968 3.8003 6.58393 0
M  V30 2058 N 199.544 -1.57102 0.125237 0
M  V30 2059 C 200.474 -2.18659 -0.819174 0
M  V30 2060 C 201.455 -1.12843 -1.27281 0
M  V30 2061 O 202.64 -1.41104 -1.33429 0
M  V30 2062 C 199.77 -2.79096 -2.06695 0
M  V30 2063 C 198.724 -3.90548 -1.75088 0
M  V30 2064 C 198.05 -4.37821 -3.06948 0
M  V30 2065 C 199.35 -5.12356 -1.01435 0
M  V30 2066 H 201.044 -2.9783 -0.306202 0
M  V30 2067 H 198.59 -1.4326 -0.145839 0
M  V30 2068 H 200.543 -3.2082 -2.73226 0
M  V30 2069 H 199.267 -1.97223 -2.60328 0
M  V30 2070 H 197.926 -3.49409 -1.10944 0
M  V30 2071 H 197.574 -3.52799 -3.58527 0
M  V30 2072 H 197.274 -5.12982 -2.86571 0
M  V30 2073 H 198.798 -4.822 -3.74587 0
M  V30 2074 H 200.212 -5.5106 -1.58132 0
M  V30 2075 H 198.609 -5.9314 -0.911319 0
M  V30 2076 H 199.679 -4.849 -0.00218681 0
M  V30 2077 N 201.022 0.148545 -1.56898 0
M  V30 2078 C 202.268 0.862694 -1.83536 0
M  V30 2079 C 202.601 1.80889 -0.706604 0
M  V30 2080 O 201.876 1.92328 0.289885 0
M  V30 2081 C 202.159 1.63853 -3.20662 0
M  V30 2082 C 202.012 0.713925 -4.44098 0
M  V30 2083 C 203.331 2.60133 -3.54991 0
M  V30 2084 H 200.45 0.312179 -0.667618 0
M  V30 2085 H 203.092 0.127953 -1.89569 0
M  V30 2086 H 201.242 2.26489 -3.1565 0
M  V30 2087 H 202.914 0.098686 -4.61194 0
M  V30 2088 H 201.157 0.0234019 -4.33794 0
M  V30 2089 H 201.828 1.29278 -5.36648 0
M  V30 2090 H 204.304 2.07616 -3.60603 0
M  V30 2091 H 203.18 3.11468 -4.51972 0
M  V30 2092 H 203.441 3.41417 -2.80868 0
M  V30 2093 N 202.5 1.5196 0.417844 0
M  V30 2094 C 203.747 1.65591 1.16559 0
M  V30 2095 C 204.075 0.381565 1.90721 0
M  V30 2096 O 203.33 -0.635156 1.85106 0
M  V30 2097 C 203.629 2.82269 2.19223 0
M  V30 2098 C 203.295 4.20819 1.61933 0
M  V30 2099 C 201.957 4.58506 1.46033 0
M  V30 2100 C 204.309 5.07196 1.20008 0
M  V30 2101 C 201.637 5.80257 0.867113 0
M  V30 2102 C 203.989 6.29544 0.621086 0
M  V30 2103 C 202.653 6.65987 0.449144 0
M  V30 2104 H 201.923 0.605939 0.42652 0
M  V30 2105 H 204.57 1.86041 0.45397 0
M  V30 2106 H 202.875 2.56118 2.96498 0
M  V30 2107 H 204.572 2.90012 2.76936 0
M  V30 2108 H 201.162 3.91116 1.7529 0
M  V30 2109 H 205.346 4.7867 1.31105 0
M  V30 2110 H 200.602 6.07124 0.721833 0
M  V30 2111 H 204.776 6.95805 0.287798 0
M  V30 2112 H 202.403 7.60199 -0.012632 0
M  V30 2113 N 203.978 -0.674533 1.42435 0
M  V30 2114 C 204.928 -1.7807 1.4239 0
M  V30 2115 C 205.912 -1.58169 0.295202 0
M  V30 2116 O 207.104 -1.68643 0.537449 0
M  V30 2117 C 204.233 -3.16532 1.32901 0
M  V30 2118 C 203.319 -3.42055 2.50717 0
M  V30 2119 N 203.71 -3.38162 3.76139 0
M  V30 2120 C 202.008 -3.72692 2.44983 0
M  V30 2121 C 202.709 -3.63177 4.54398 0
M  V30 2122 N 201.685 -3.83954 3.84812 0
M  V30 2123 H 205.487 -1.73454 2.37257 0
M  V30 2124 H 203.001 -0.875381 1.36788 0
M  V30 2125 H 204.998 -3.958 1.30951 0
M  V30 2126 H 203.658 -3.22345 0.390363 0
M  V30 2127 H 204.669 -3.18057 4.0873 0
M  V30 2128 H 201.346 -3.85749 1.59699 0
M  V30 2129 H 202.736 -3.66125 5.63384 0
M  V30 2130 N 205.456 -1.28612 -0.910864 0
M  V30 2131 C 206.681 -1.1891 -1.69927 0
M  V30 2132 C 207.106 0.248372 -1.86453 0
M  V30 2133 O 206.464 1.17961 -1.37676 0
M  V30 2134 C 206.512 -1.89578 -3.06745 0
M  V30 2135 O 205.616 -1.20521 -3.94396 0
M  V30 2136 H 204.957 -0.412632 -0.520222 0
M  V30 2137 H 207.487 -1.69985 -1.1387 0
M  V30 2138 H 207.497 -1.97597 -3.56958 0
M  V30 2139 H 206.172 -2.94136 -2.94035 0
M  V30 2140 H 204.749 -1.20684 -3.52831 0
M  V30 2141 N 206.934 1.1197 -1.10907 0
M  V30 2142 C 208.181 1.83588 -0.854507 0
M  V30 2143 C 208.509 1.84357 0.6199 0
M  V30 2144 O 207.764 1.28809 1.47332 0
M  V30 2145 C 208.063 3.30749 -1.35425 0
M  V30 2146 C 207.729 3.50146 -2.84093 0
M  V30 2147 C 206.391 3.55148 -3.2469 0
M  V30 2148 C 208.743 3.56857 -3.79872 0
M  V30 2149 C 206.071 3.6441 -4.59806 0
M  V30 2150 C 208.423 3.6765 -5.14797 0
M  V30 2151 C 207.087 3.7091 -5.54961 0
M  V30 2152 H 206.357 0.671795 -0.312686 0
M  V30 2153 H 209.004 1.32091 -1.38652 0
M  V30 2154 H 207.309 3.84703 -0.742361 0
M  V30 2155 H 209.006 3.8464 -1.1337 0
M  V30 2156 H 205.596 3.46919 -2.51685 0
M  V30 2157 H 209.78 3.52258 -3.49611 0
M  V30 2158 H 205.036 3.65208 -4.9034 0
M  V30 2159 H 209.21 3.71786 -5.88853 0
M  V30 2160 H 206.837 3.7784 -6.59652 0
M  V30 2161 N 208.412 0.89855 1.29475 0
M  V30 2162 C 209.66 0.522847 1.9522 0
M  V30 2163 C 209.981 -0.93371 1.71192 0
M  V30 2164 O 209.251 -1.65823 1.04305 0
M  V30 2165 H 207.831 0.190366 0.722336 0
M  V30 2166 H 210.493 1.14459 1.5775 0
M  V30 2167 H 209.589 0.704476 3.04045 0
M  V30 2168 N 209.89 -1.43072 0.660911 0
M  V30 2169 C 211.138 -2.01323 0.177094 0
M  V30 2170 C 211.459 -1.5245 -1.2159 0
M  V30 2171 O 210.729 -0.740322 -1.81373 0
M  V30 2172 H 209.309 -0.744382 0.0624804 0
M  V30 2173 H 211.971 -1.75179 0.854305 0
M  V30 2174 H 211.067 -3.11649 0.167641 0
M  V30 2175 N 211.368 -0.403325 -1.52352 0
M  V30 2176 C 212.616 0.174003 -2.0135 0
M  V30 2177 C 212.937 1.46139 -1.29106 0
M  V30 2178 O 212.207 1.91448 -0.415253 0
M  V30 2179 H 210.787 0.0672911 -0.743963 0
M  V30 2180 H 213.449 -0.538235 -1.87321 0
M  V30 2181 H 212.545 0.374254 -3.09848 0
M  V30 2182 N 212.846 1.57033 -0.133567 0
M  V30 2183 C 214.074 2.00044 0.528195 0
M  V30 2184 C 214.489 1.01349 1.59291 0
M  V30 2185 O 213.846 0.00848369 1.82498 0
M  V30 2186 C 213.897 3.43018 1.1411 0
M  V30 2187 O 213.618 4.37939 0.11892 0
M  V30 2188 C 215.119 4.01237 1.88477 0
M  V30 2189 H 212.339 0.656517 0.138661 0
M  V30 2190 H 214.883 2.03267 -0.224196 0
M  V30 2191 H 213.038 3.40688 1.84418 0
M  V30 2192 H 213.452 5.21436 0.56613 0
M  V30 2193 H 214.926 5.03314 2.26669 0
M  V30 2194 H 215.403 3.41193 2.76558 0
M  V30 2195 H 216.009 4.07156 1.22898 0
M  V30 2196 N 214.325 -0.140222 1.56975 0
M  V30 2197 C 215.573 -0.850005 1.83356 0
M  V30 2198 C 215.894 -1.81399 0.71551 0
M  V30 2199 O 215.164 -1.94136 -0.262294 0
M  V30 2200 H 213.744 -0.316886 0.676456 0
M  V30 2201 H 216.406 -0.132608 1.94448 0
M  V30 2202 H 215.502 -1.40814 2.78528 0
M  V30 2203 N 215.803 -1.52179 -0.40978 0
M  V30 2204 C 217.028 -1.70347 -1.18308 0
M  V30 2205 C 217.453 -0.411887 -1.83535 0
M  V30 2206 O 216.811 0.630587 -1.6998 0
M  V30 2207 C 216.859 -2.83977 -2.22238 0
M  V30 2208 O 215.963 -2.495 -3.28365 0
M  V30 2209 H 215.304 -0.567103 -0.345384 0
M  V30 2210 H 217.834 -1.98879 -0.480445 0
M  V30 2211 H 217.844 -3.0887 -2.66577 0
M  V30 2212 H 216.519 -3.77685 -1.74146 0
M  V30 2213 H 215.096 -2.35277 -2.89308 0
M  V30 2214 N 217.281 0.66697 -1.42791 0
M  V30 2215 C 218.529 1.42417 -1.43394 0
M  V30 2216 C 218.85 1.94925 -0.0542373 0
M  V30 2217 O 218.12 1.73564 0.908415 0
M  V30 2218 H 216.7 0.528515 -0.527902 0
M  V30 2219 H 219.362 0.787562 -1.78279 0
M  V30 2220 H 218.458 2.27333 -2.13837 0
M  V30 2221 N 218.759 1.29093 0.90403 0
M  V30 2222 C 220.006 1.16813 1.65411 0
M  V30 2223 C 220.334 -0.28128 1.92455 0
M  V30 2224 O 219.589 -1.22006 1.53013 0
M  V30 2225 C 219.888 1.92224 3.01305 0
M  V30 2226 C 219.554 3.41968 2.93885 0
M  V30 2227 C 218.216 3.82807 2.91569 0
M  V30 2228 C 220.568 4.37409 2.83413 0
M  V30 2229 C 217.896 5.1741 2.76594 0
M  V30 2230 C 220.248 5.72097 2.69977 0
M  V30 2231 C 218.912 6.12199 2.66024 0
M  V30 2232 H 218.182 0.42745 0.605283 0
M  V30 2233 H 220.829 1.59981 1.05254 0
M  V30 2234 H 219.134 1.41635 3.65304 0
M  V30 2235 H 220.831 1.80131 3.58265 0
M  V30 2236 H 217.421 3.09504 2.96488 0
M  V30 2237 H 221.605 4.06813 2.84283 0
M  V30 2238 H 216.861 5.47596 2.71935 0
M  V30 2239 H 221.035 6.45704 2.60844 0
M  V30 2240 H 218.662 7.16448 2.54178 0
M  V30 2241 N 220.237 -1.11381 1.11499 0
M  V30 2242 C 221.465 -1.86934 0.88675 0
M  V30 2243 C 221.88 -1.80195 -0.563476 0
M  V30 2244 O 221.237 -1.18367 -1.38908 0
M  V30 2245 C 221.288 -3.35722 1.34064 0
M  V30 2246 O 221.009 -3.4232 2.73401 0
M  V30 2247 C 222.51 -4.2818 1.14791 0
M  V30 2248 H 219.73 -0.591117 0.317523 0
M  V30 2249 H 222.274 -1.40865 1.48248 0
M  V30 2250 H 220.429 -3.79294 0.788355 0
M  V30 2251 H 220.843 -4.34971 2.93087 0
M  V30 2252 H 222.317 -5.30817 1.5145 0
M  V30 2253 H 222.794 -4.39113 0.0875279 0
M  V30 2254 H 223.4 -3.90402 1.68721 0
M  V30 2255 N 221.715 -0.905404 -1.28997 0
M  V30 2256 C 222.94 -0.549175 -1.99997 0
M  V30 2257 C 223.365 0.860276 -1.67275 0
M  V30 2258 O 222.723 1.57355 -0.900502 0
M  V30 2259 C 222.771 -0.755185 -3.52604 0
M  V30 2260 O 221.875 0.189692 -4.11964 0
M  V30 2261 H 221.216 -0.213899 -0.628604 0
M  V30 2262 H 223.746 -1.21856 -1.64354 0
M  V30 2263 H 223.756 -0.662045 -4.02593 0
M  V30 2264 H 222.431 -1.78271 -3.75755 0
M  V30 2265 H 221.008 0.0485257 -3.72868 0
M  V30 2266 N 223.193 1.4272 -0.668489 0
M  V30 2267 C 224.123 2.335 -0.000100175 0
M  V30 2268 C 225.104 1.50328 0.795964 0
M  V30 2269 O 226.289 1.78949 0.754385 0
M  V30 2270 C 223.419 3.33874 0.956302 0
M  V30 2271 C 222.373 4.27152 0.269278 0
M  V30 2272 C 221.699 5.17684 1.33818 0
M  V30 2273 C 222.999 5.15373 -0.847805 0
M  V30 2274 H 224.693 2.89639 -0.758244 0
M  V30 2275 H 222.239 1.39269 -0.366079 0
M  V30 2276 H 224.192 3.9629 1.43292 0
M  V30 2277 H 222.916 2.76025 1.74579 0
M  V30 2278 H 221.575 3.66123 -0.187042 0
M  V30 2279 H 221.223 4.56165 2.1195 0
M  V30 2280 H 220.923 5.80918 0.883659 0
M  V30 2281 H 222.447 5.82974 1.81586 0
M  V30 2282 H 223.861 5.7151 -0.452681 0
M  V30 2283 H 222.258 5.87407 -1.22773 0
M  V30 2284 H 223.328 4.5415 -1.69929 0
M  V30 2285 N 224.671 0.411399 1.52136 0
M  V30 2286 C 225.601 -0.404015 2.29978 0
M  V30 2287 C 226.582 -1.04412 1.34284 0
M  V30 2288 O 227.767 -1.0527 1.63192 0
M  V30 2289 C 224.897 -1.5197 3.12286 0
M  V30 2290 C 223.851 -1.00448 4.16046 0
M  V30 2291 C 223.177 -2.21393 4.86712 0
M  V30 2292 C 224.477 -0.0569336 5.22269 0
M  V30 2293 H 226.171 0.245529 2.98392 0
M  V30 2294 H 223.717 0.119525 1.43503 0
M  V30 2295 H 225.67 -2.09715 3.6551 0
M  V30 2296 H 224.394 -2.19716 2.41646 0
M  V30 2297 H 223.053 -0.449421 3.63835 0
M  V30 2298 H 222.701 -2.87699 4.12599 0
M  V30 2299 H 222.401 -1.87571 5.56858 0
M  V30 2300 H 223.925 -2.7974 5.4275 0
M  V30 2301 H 225.339 -0.54325 5.7072 0
M  V30 2302 H 223.736 0.192594 5.99791 0
M  V30 2303 H 224.806 0.887663 4.76706 0
M  V30 2304 N 226.149 -1.5696 0.141893 0
M  V30 2305 C 227.082 -2.12271 -0.837627 0
M  V30 2306 C 228.06 -1.04495 -1.24578 0
M  V30 2307 O 229.244 -1.32293 -1.34278 0
M  V30 2308 C 226.371 -2.63822 -2.12404 0
M  V30 2309 C 225.417 -3.83698 -1.86221 0
M  V30 2310 S 226.25 -5.24948 -1.05781 0
M  V30 2311 C 227.406 -5.79884 -2.35552 0
M  V30 2312 H 227.639 -2.95023 -0.367249 0
M  V30 2313 H 225.172 -1.54231 -0.0723014 0
M  V30 2314 H 227.13 -2.94175 -2.86307 0
M  V30 2315 H 225.791 -1.8121 -2.56557 0
M  V30 2316 H 224.984 -4.17995 -2.81596 0
M  V30 2317 H 224.586 -3.5408 -1.20429 0
M  V30 2318 H 226.878 -5.91005 -3.31239 0
M  V30 2319 H 227.821 -6.77544 -2.05767 0
M  V30 2320 H 228.229 -5.08095 -2.45967 0
M  V30 2321 N 227.627 0.131896 -1.57047 0
M  V30 2322 C 228.537 1.1815 -2.02676 0
M  V30 2323 C 229.553 1.46113 -0.944824 0
M  V30 2324 O 230.729 1.57485 -1.25541 0
M  V30 2325 C 227.794 2.49139 -2.41103 0
M  V30 2326 C 226.855 2.28688 -3.63318 0
M  V30 2327 C 226.088 3.53431 -3.99903 0
M  V30 2328 O 226.311 4.60223 -3.36973 0
M  V30 2329 O 225.245 3.45198 -4.93074 0
M  V30 2330 H 229.071 0.824069 -2.92306 0
M  V30 2331 H 226.656 0.341745 -1.45439 0
M  V30 2332 H 228.538 3.26338 -2.66611 0
M  V30 2333 H 227.213 2.84382 -1.54624 0
M  V30 2334 H 226.12 1.4939 -3.42977 0
M  V30 2335 H 227.453 1.98355 -4.50462 0
M  V30 2336 N 229.106 1.52395 0.401703 0
M  V30 2337 C 230.522 1.41363 0.740864 0
M  V30 2338 C 230.722 0.523982 1.94568 0
M  V30 2339 O 229.778 -0.00741204 2.52499 0
M  V30 2340 C 231.091 2.84011 0.987847 0
M  V30 2341 C 232.639 2.93404 1.09011 0
M  V30 2342 C 233.114 4.37036 1.3698 0
M  V30 2343 N 234.605 4.40304 1.43829 0
M  V30 2344 C 235.34 5.48508 1.67112 0
M  V30 2345 N 234.836 6.66819 1.87949 0
M  V30 2346 N 236.629 5.36034 1.69187 0
M  V30 2347 H 228.78 2.08765 -0.391262 0
M  V30 2348 H 231.043 0.941265 -0.112798 0
M  V30 2349 H 230.749 3.51265 0.174835 0
M  V30 2350 H 230.623 3.25502 1.906 0
M  V30 2351 H 233.01 2.26325 1.8937 0
M  V30 2352 H 233.091 2.55359 0.15015 0
M  V30 2353 H 232.735 5.04676 0.571353 0
M  V30 2354 H 232.665 4.72623 2.3224 0
M  V30 2355 H 235.156 3.55024 1.29486 0
M  V30 2356 H 235.469 7.45063 2.05185 0
M  V30 2357 H 233.814 6.6987 1.85199 0
M  V30 2358 H 237.005 4.42579 1.52451 0
M  V30 2359 H 237.178 6.20434 1.86993 0
M  V30 2360 N 230.584 -0.659388 1.43143 0
M  V30 2361 C 231.514 -1.78422 1.50625 0
M  V30 2362 C 232.495 -1.66216 0.361443 0
M  V30 2363 O 233.68 -1.85404 0.577834 0
M  V30 2364 C 230.81 -3.16815 1.42287 0
M  V30 2365 C 229.764 -3.43777 2.54954 0
M  V30 2366 C 229.09 -4.81905 2.31671 0
M  V30 2367 C 230.39 -3.39134 3.97222 0
M  V30 2368 H 232.084 -1.72417 2.44771 0
M  V30 2369 H 229.63 -0.828084 1.17808 0
M  V30 2370 H 231.583 -3.95253 1.46127 0
M  V30 2371 H 230.307 -3.23534 0.446435 0
M  V30 2372 H 228.966 -2.67707 2.50457 0
M  V30 2373 H 228.614 -4.85294 1.32284 0
M  V30 2374 H 228.314 -5.00906 3.07192 0
M  V30 2375 H 229.838 -5.62609 2.37284 0
M  V30 2376 H 231.252 -4.07518 4.03239 0
M  V30 2377 H 229.649 -3.69671 4.72719 0
M  V30 2378 H 230.719 -2.37426 4.22797 0
M  V30 2379 N 232.062 -1.29571 -0.897171 0
M  V30 2380 C 233.287 -1.20705 -1.68656 0
M  V30 2381 C 233.712 0.228582 -1.86706 0
M  V30 2382 O 233.07 1.16494 -1.3892 0
M  V30 2383 C 233.118 -1.9282 -3.04717 0
M  V30 2384 O 232.222 -1.24697 -3.93096 0
M  V30 2385 H 231.563 -0.418126 -0.515816 0
M  V30 2386 H 234.093 -1.71183 -1.12061 0
M  V30 2387 H 234.103 -2.01372 -3.54843 0
M  V30 2388 H 232.778 -2.97239 -2.90899 0
M  V30 2389 H 231.355 -1.2442 -3.51531 0
M  V30 2390 N 233.54 1.10788 -1.12088 0
M  V30 2391 C 234.786 1.82942 -0.875226 0
M  V30 2392 C 235.119 1.84779 0.597538 0
M  V30 2393 O 234.394 1.30578 1.44152 0
M  V30 2394 C 234.677 3.29789 -1.44606 0
M  V30 2395 C 234.53 3.36307 -2.98693 0
M  V30 2396 C 235.849 4.26064 -1.10261 0
M  V30 2397 H 232.968 0.664195 -0.319397 0
M  V30 2398 H 235.61 1.29867 -1.38689 0
M  V30 2399 H 233.76 3.75118 -1.01089 0
M  V30 2400 H 235.432 2.99487 -3.50864 0
M  V30 2401 H 233.675 2.76318 -3.34411 0
M  V30 2402 H 234.346 4.39694 -3.33726 0
M  V30 2403 H 236.822 3.88951 -1.4784 0
M  V30 2404 H 235.698 5.27183 -1.52869 0
M  V30 2405 H 235.959 4.42098 -0.0142953 0
M  V30 2406 N 235.018 0.912232 1.28515 0
M  V30 2407 C 236.295 0.463597 1.90027 0
M  V30 2408 C 236.675 -1.05753 1.82701 0
M  V30 2409 O 236.023 -1.90492 1.26194 0
M  V30 2410 C 236.233 0.992253 3.34597 0
M  V30 2411 C 237.581 1.04344 4.11579 0
M  V30 2412 O 238.605 0.94079 3.43551 0
M  V30 2413 O 237.464 1.1995 5.33174 0
M  V30 2414 H 234.558 0.146666 0.813891 0
M  V30 2415 H 237.104 1.00292 1.36893 0
M  V30 2416 H 235.876 2.03623 3.34146 0
M  V30 2417 H 235.499 0.433672 3.95228 0
M  V30 2418 N 236.496 -1.42363 0.676048 0
M  V30 2419 C 237.726 -2.05561 0.206967 0
M  V30 2420 C 238.134 -1.50887 -1.14148 0
M  V30 2421 O 237.477 -0.643933 -1.72044 0
M  V30 2422 C 237.539 -3.5944 0.0659508 0
M  V30 2423 C 237.203 -4.36812 1.34331 0
M  V30 2424 C 238.2 -4.67383 2.27704 0
M  V30 2425 C 235.885 -4.76429 1.59125 0
M  V30 2426 C 237.879 -5.36509 3.44147 0
M  V30 2427 C 235.566 -5.45294 2.75857 0
M  V30 2428 C 236.564 -5.75259 3.68193 0
M  V30 2429 O 236.252 -6.42712 4.82883 0
M  V30 2430 H 235.984 -0.668872 0.0979084 0
M  V30 2431 H 238.538 -1.83467 0.923531 0
M  V30 2432 H 236.768 -3.80197 -0.706204 0
M  V30 2433 H 238.457 -4.0427 -0.363418 0
M  V30 2434 H 239.223 -4.37275 2.09799 0
M  V30 2435 H 235.102 -4.52498 0.881258 0
M  V30 2436 H 238.646 -5.59814 4.16238 0
M  V30 2437 H 234.543 -5.7482 2.93688 0
M  V30 2438 H 235.311 -6.61204 4.82444 0
M  V30 2439 N 237.974 -0.419461 -1.51915 0
M  V30 2440 C 239.222 0.152637 -2.01523 0
M  V30 2441 C 239.543 1.44762 -1.30649 0
M  V30 2442 O 238.813 1.90997 -0.435535 0
M  V30 2443 H 237.393 0.0593966 -0.744635 0
M  V30 2444 H 240.055 -0.558073 -1.86739 0
M  V30 2445 H 239.151 0.341369 -3.10227 0
M  V30 2446 N 239.452 1.56882 -0.150215 0
M  V30 2447 C 240.399 2.16922 0.788244 0
M  V30 2448 C 241.369 1.10303 1.24187 0
M  V30 2449 O 242.554 1.38359 1.31383 0
M  V30 2450 C 239.694 2.79754 2.02068 0
M  V30 2451 C 238.807 4.00775 1.61257 0
M  V30 2452 C 237.942 4.51595 2.79705 0
M  V30 2453 C 236.981 5.65074 2.35282 0
M  V30 2454 N 236.118 6.10499 3.4675 0
M  V30 2455 H 240.958 2.96779 0.269444 0
M  V30 2456 H 238.495 1.46599 0.12128 0
M  V30 2457 H 240.453 3.14329 2.74323 0
M  V30 2458 H 239.083 2.02536 2.51354 0
M  V30 2459 H 238.135 3.72158 0.787553 0
M  V30 2460 H 239.447 4.82978 1.24633 0
M  V30 2461 H 238.601 4.88242 3.60145 0
M  V30 2462 H 237.34 3.68406 3.19576 0
M  V30 2463 H 236.345 5.28 1.53283 0
M  V30 2464 H 237.57 6.50052 1.96493 0
M  V30 2465 H 235.516 5.30243 3.86236 0
M  V30 2466 H 235.433 6.87637 3.14152 0
M  V30 2467 H 236.701 6.51791 4.27537 0
M  V30 2468 N 240.93 -0.123565 1.57115 0
M  V30 2469 C 241.877 -1.15177 2.00007 0
M  V30 2470 C 242.847 -1.41403 0.871454 0
M  V30 2471 O 244.032 -1.53346 1.13533 0
M  V30 2472 C 241.172 -2.47436 2.40561 0
M  V30 2473 C 240.285 -2.28184 3.66819 0
M  V30 2474 C 239.42 -3.53641 3.96373 0
M  V30 2475 C 238.459 -3.29528 5.15827 0
M  V30 2476 N 237.596 -4.47175 5.41275 0
M  V30 2477 H 242.436 -0.779008 2.87638 0
M  V30 2478 H 239.973 -0.373166 1.42288 0
M  V30 2479 H 241.931 -3.24584 2.62109 0
M  V30 2480 H 240.561 -2.82614 1.55978 0
M  V30 2481 H 239.613 -1.41976 3.52912 0
M  V30 2482 H 240.925 -2.0634 4.5412 0
M  V30 2483 H 240.079 -4.39209 4.18545 0
M  V30 2484 H 238.818 -3.78512 3.07538 0
M  V30 2485 H 237.823 -2.42349 4.93505 0
M  V30 2486 H 239.048 -3.06031 6.06236 0
M  V30 2487 H 236.994 -4.72175 4.55397 0
M  V30 2488 H 236.911 -4.28419 6.22891 0
M  V30 2489 H 238.179 -5.3389 5.67963 0
M  V30 2490 N 242.408 -1.52605 -0.393616 0
M  V30 2491 C 243.633 -1.71592 -1.16495 0
M  V30 2492 C 244.058 -0.43133 -1.83088 0
M  V30 2493 O 243.416 0.612523 -1.7064 0
M  V30 2494 C 243.464 -2.86318 -2.19213 0
M  V30 2495 O 242.568 -2.52969 -3.257 0
M  V30 2496 H 241.909 -0.570734 -0.33935 0
M  V30 2497 H 244.439 -1.99377 -0.459324 0
M  V30 2498 H 244.449 -3.1168 -2.63286 0
M  V30 2499 H 243.124 -3.79511 -1.7013 0
M  V30 2500 H 241.701 -2.38332 -2.86797 0
M  V30 2501 N 243.887 0.651787 -1.4349 0
M  V30 2502 C 244.834 1.76462 -1.4876 0
M  V30 2503 C 245.804 1.62641 -0.337189 0
M  V30 2504 O 246.989 1.82864 -0.544544 0
M  V30 2505 C 244.129 3.14623 -1.41796 0
M  V30 2506 C 243.242 3.39568 -2.67053 0
M  V30 2507 C 242.377 4.67585 -2.52068 0
M  V30 2508 C 241.416 4.85639 -3.72587 0
M  V30 2509 N 240.553 6.04915 -3.56402 0
M  V30 2510 H 245.393 1.71293 -2.43849 0
M  V30 2511 H 242.93 0.835889 -1.21043 0
M  V30 2512 H 244.888 3.94496 -1.35753 0
M  V30 2513 H 243.518 3.18859 -0.50288 0
M  V30 2514 H 242.57 2.53783 -2.8337 0
M  V30 2515 H 243.882 3.48795 -3.56572 0
M  V30 2516 H 243.036 5.55586 -2.4374 0
M  V30 2517 H 241.775 4.60681 -1.60075 0
M  V30 2518 H 240.78 3.96073 -3.81321 0
M  V30 2519 H 242.005 4.94372 -4.65589 0
M  V30 2520 H 239.951 5.9914 -2.67146 0
M  V30 2521 H 239.868 6.15106 -4.39524 0
M  V30 2522 H 241.136 6.95533 -3.51929 0
M  V30 2523 N 245.365 1.30045 0.890287 0
M  V30 2524 C 246.295 1.18541 2.01172 0
M  V30 2525 C 247.276 0.0773356 1.69924 0
M  V30 2526 O 248.461 0.25845 1.92473 0
M  V30 2527 C 245.591 0.870941 3.36202 0
M  V30 2528 C 244.545 1.93637 3.81692 0
M  V30 2529 C 243.871 1.475 5.13953 0
M  V30 2530 C 245.171 3.34666 4.00994 0
M  V30 2531 H 246.865 2.12359 2.11054 0
M  V30 2532 H 244.411 1.02238 1.01407 0
M  V30 2533 H 246.364 0.777141 4.14172 0
M  V30 2534 H 245.088 -0.102926 3.26438 0
M  V30 2535 H 243.747 2.01972 3.05946 0
M  V30 2536 H 243.395 0.489551 5.00612 0
M  V30 2537 H 243.095 2.1876 5.4536 0
M  V30 2538 H 244.619 1.39489 5.94454 0
M  V30 2539 H 246.033 3.2912 4.69417 0
M  V30 2540 H 244.43 4.03966 4.43769 0
M  V30 2541 H 245.5 3.76949 3.05021 0
M  V30 2542 N 246.843 -1.10192 1.12674 0
M  V30 2543 C 247.753 -2.20172 0.810026 0
M  V30 2544 C 248.769 -1.72821 -0.202188 0
M  V30 2545 O 249.945 -2.01369 -0.0351691 0
M  V30 2546 C 247.01 -3.45631 0.272007 0
M  V30 2547 C 246.071 -4.07704 1.34447 0
M  V30 2548 C 245.304 -5.27175 0.832029 0
M  V30 2549 O 245.527 -5.69425 -0.333284 0
M  V30 2550 O 244.461 -5.80168 1.60277 0
M  V30 2551 H 248.287 -2.49701 1.72867 0
M  V30 2552 H 245.872 -1.18977 0.903597 0
M  V30 2553 H 247.754 -4.21394 -0.0230219 0
M  V30 2554 H 246.429 -3.17723 -0.619164 0
M  V30 2555 H 245.336 -3.33614 1.6927 0
M  V30 2556 H 246.669 -4.3982 2.2095 0
M  V30 2557 N 248.321 -0.919034 -1.28029 0
M  V30 2558 C 249.568 -0.554934 -1.94748 0
M  V30 2559 C 249.896 0.90231 -1.72304 0
M  V30 2560 O 249.151 1.65767 -1.04018 0
M  V30 2561 C 249.45 -0.816855 -3.4794 0
M  V30 2562 C 249.116 -2.25448 -3.90492 0
M  V30 2563 C 247.778 -2.64752 -4.01821 0
M  V30 2564 C 250.13 -3.18977 -4.12193 0
M  V30 2565 C 247.458 -3.96727 -4.32232 0
M  V30 2566 C 249.81 -4.50523 -4.44086 0
M  V30 2567 C 248.474 -4.89673 -4.53626 0
M  V30 2568 H 247.744 -0.203065 -0.712633 0
M  V30 2569 H 250.391 -1.16136 -1.52265 0
M  V30 2570 H 248.696 -0.127677 -3.91592 0
M  V30 2571 H 250.393 -0.514238 -3.97689 0
M  V30 2572 H 246.983 -1.93952 -3.82205 0
M  V30 2573 H 251.167 -2.89817 -4.02889 0
M  V30 2574 H 246.423 -4.26754 -4.37825 0
M  V30 2575 H 250.597 -5.23005 -4.59825 0
M  V30 2576 H 248.224 -5.91969 -4.76946 0
M  V30 2577 N 249.799 1.42003 -0.683588 0
M  V30 2578 C 251.024 2.06265 -0.216647 0
M  V30 2579 C 251.449 1.51059 1.12083 0
M  V30 2580 O 250.807 0.632638 1.69904 0
M  V30 2581 C 250.855 3.60191 -0.171759 0
M  V30 2582 O 249.959 4.03396 0.857069 0
M  V30 2583 H 249.3 0.65502 -0.108834 0
M  V30 2584 H 251.83 1.81982 -0.935077 0
M  V30 2585 H 251.84 4.08 0.0014303 0
M  V30 2586 H 250.515 3.99743 -1.14796 0
M  V30 2587 H 249.092 3.67117 0.654208 0
M  V30 2588 N 251.277 0.427512 1.51691 0
M  V30 2589 C 252.526 -0.143679 2.01188 0
M  V30 2590 C 252.839 -1.44642 1.31674 0
M  V30 2591 O 254.045 -2.09997 1.72086 0
M  V30 2592 C 252.501 -0.306602 3.58592 0
M  V30 2593 C 252.109 0.985125 4.37035 0
M  V30 2594 C 253.853 -0.832091 4.16265 0
M  V30 2595 C 251.76 0.788382 5.86122 0
M  V30 2596 H 250.69 -0.0574701 0.751807 0
M  V30 2597 H 253.341 0.555772 1.74881 0
M  V30 2598 H 251.723 -1.06882 3.81303 0
M  V30 2599 H 252.897 1.75492 4.26074 0
M  V30 2600 H 251.212 1.4384 3.90767 0
M  V30 2601 H 253.809 -0.995617 5.25349 0
M  V30 2602 H 254.152 -1.81186 3.74803 0
M  V30 2603 H 254.685 -0.128444 3.97593 0
M  V30 2604 H 251.424 1.74025 6.31978 0
M  V30 2605 H 250.944 0.0582143 5.99772 0
M  V30 2606 H 252.623 0.437722 6.45518 0
M  V30 2607 N 252.755 -1.56801 0.158532 0
M  V30 2608 C 253.985 -2.00568 -0.495583 0
M  V30 2609 C 254.393 -1.03774 -1.58201 0
M  V30 2610 O 253.736 -0.0285797 -1.83678 0
M  V30 2611 C 253.798 -3.40768 -1.14532 0
M  V30 2612 C 253.462 -4.56553 -0.202101 0
M  V30 2613 C 254.459 -5.16714 0.574675 0
M  V30 2614 C 252.144 -5.02197 -0.101648 0
M  V30 2615 C 254.138 -6.20939 1.43924 0
M  V30 2616 C 251.825 -6.06274 0.766508 0
M  V30 2617 C 252.823 -6.65515 1.53555 0
M  V30 2618 O 252.511 -7.67575 2.38922 0
M  V30 2619 H 252.243 -0.662893 -0.13247 0
M  V30 2620 H 254.797 -2.03829 0.253559 0
M  V30 2621 H 253.027 -3.34381 -1.94233 0
M  V30 2622 H 254.716 -3.6857 -1.70033 0
M  V30 2623 H 255.482 -4.82341 0.507167 0
M  V30 2624 H 251.361 -4.55807 -0.689994 0
M  V30 2625 H 254.905 -6.67107 2.03996 0
M  V30 2626 H 250.802 -6.40073 0.835266 0
M  V30 2627 H 251.57 -7.84844 2.32296 0
M  V30 2628 N 254.233 0.115231 -1.57178 0
M  V30 2629 C 255.644 0.67197 -1.74188 0
M  V30 2630 C 255.995 1.80125 -0.777777 0
M  V30 2631 O 255.12 2.16346 0.0484376 0
M  V30 2632 C 255.715 1.22573 -3.1585 0
M  V30 2633 C 254.274 1.72872 -3.34353 0
M  V30 2634 C 253.421 0.629972 -2.70049 0
M  V30 2635 H 256.372 -0.110712 -1.58313 0
M  V30 2636 H 256.393 2.09535 -3.17609 0
M  V30 2637 H 255.905 0.403598 -3.85996 0
M  V30 2638 H 254.006 2.5755 -2.69256 0
M  V30 2639 H 254.119 1.83557 -4.42542 0
M  V30 2640 H 252.483 1.0645 -2.31388 0
M  V30 2641 H 253.266 -0.181241 -3.42821 0
M  V30 2642 N 255.711 1.52812 0.385517 0
M  V30 2643 C 256.674 1.77188 1.45386 0
M  V30 2644 C 257.674 0.641953 1.4743 0
M  V30 2645 O 258.864 0.910033 1.4854 0
M  V30 2646 C 255.996 1.87582 2.8465 0
M  V30 2647 H 257.189 2.72583 1.25054 0
M  V30 2648 H 254.742 1.43586 0.617467 0
M  V30 2649 H 255.477 0.941849 3.10322 0
M  V30 2650 H 255.262 2.69748 2.84567 0
M  V30 2651 H 256.752 2.08102 3.62054 0
M  V30 2652 N 257.189 -0.644168 1.43834 0
M  V30 2653 C 258.6 -1.22554 1.40845 0
M  V30 2654 C 258.951 -1.9585 0.117115 0
M  V30 2655 O 258.076 -2.01734 -0.783086 0
M  V30 2656 C 258.671 -2.22907 2.55143 0
M  V30 2657 C 257.23 -2.76501 2.5539 0
M  V30 2658 C 256.377 -1.51287 2.32396 0
M  V30 2659 H 259.328 -0.43563 1.52604 0
M  V30 2660 H 259.349 -3.05259 2.2715 0
M  V30 2661 H 258.861 -1.69533 3.49114 0
M  V30 2662 H 256.962 -3.33914 1.65324 0
M  V30 2663 H 257.075 -3.23429 3.53455 0
M  V30 2664 H 255.439 -1.78957 1.81236 0
M  V30 2665 H 256.222 -0.998336 3.28463 0
M  V30 2666 N 258.668 -1.30515 -0.883378 0
M  V30 2667 C 259.6 -1.12846 -1.99496 0
M  V30 2668 C 260.613 -0.0712571 -1.62644 0
M  V30 2669 O 261.802 -0.317432 -1.75655 0
M  V30 2670 C 258.902 -0.699123 -3.3161 0
M  V30 2671 C 258.075 -1.83842 -3.96889 0
M  V30 2672 C 257.134 -1.39737 -5.07307 0
M  V30 2673 O 256.16 -2.10485 -5.28852 0
M  V30 2674 N 257.362 -0.277279 -5.79837 0
M  V30 2675 H 260.127 -2.08585 -2.15203 0
M  V30 2676 H 257.688 -1.22672 -1.05656 0
M  V30 2677 H 259.68 -0.387044 -4.02845 0
M  V30 2678 H 258.25 0.166276 -3.12157 0
M  V30 2679 H 257.47 -2.31853 -3.18807 0
M  V30 2680 H 258.758 -2.60187 -4.37241 0
M  V30 2681 H 258.156 0.3122 -5.64838 0
M  V30 2682 H 256.713 -0.0246623 -6.51795 0
M  V30 2683 N 260.146 1.09593 -1.13257 0
M  V30 2684 C 261.392 1.82003 -0.89458 0
M  V30 2685 C 261.725 1.85402 0.577906 0
M  V30 2686 O 261 1.32099 1.42759 0
M  V30 2687 C 261.283 3.28237 -1.48096 0
M  V30 2688 C 261.136 3.3312 -3.02244 0
M  V30 2689 C 262.455 4.24871 -1.14774 0
M  V30 2690 H 259.574 0.66077 -0.326424 0
M  V30 2691 H 262.216 1.28389 -1.40058 0
M  V30 2692 H 260.366 3.74024 -1.05062 0
M  V30 2693 H 262.038 2.95748 -3.54021 0
M  V30 2694 H 260.281 2.72756 -3.37323 0
M  V30 2695 H 260.952 4.3613 -3.38371 0
M  V30 2696 H 263.428 3.87361 -1.51957 0
M  V30 2697 H 262.304 5.25532 -1.58452 0
M  V30 2698 H 262.565 4.42058 -0.0611849 0
M  V30 2699 N 261.624 0.925811 1.2754 0
M  V30 2700 C 262.849 0.580924 1.99098 0
M  V30 2701 C 263.274 -0.833555 1.68622 0
M  V30 2702 O 262.632 -1.55903 0.925422 0
M  V30 2703 C 262.68 0.811186 3.51358 0
M  V30 2704 O 261.784 -0.124129 4.12213 0
M  V30 2705 H 261.125 0.223873 0.625122 0
M  V30 2706 H 263.655 1.24455 1.62395 0
M  V30 2707 H 263.665 0.72601 4.01489 0
M  V30 2708 H 262.34 1.84227 3.72872 0
M  V30 2709 H 260.917 0.0108006 3.72898 0
M  V30 2710 N 263.102 -1.41638 0.69111 0
M  V30 2711 C 264.33 -2.05628 0.22909 0
M  V30 2712 C 264.745 -1.51992 -1.11999 0
M  V30 2713 O 264.102 -0.666322 -1.69901 0
M  V30 2714 C 264.153 -3.61084 0.173283 0
M  V30 2715 O 263.874 -4.12735 1.46907 0
M  V30 2716 C 265.375 -4.42213 -0.310266 0
M  V30 2717 H 262.595 -0.662327 0.107534 0
M  V30 2718 H 265.139 -1.81489 0.942438 0
M  V30 2719 H 263.294 -3.84278 -0.490858 0
M  V30 2720 H 263.708 -5.06743 1.35322 0
M  V30 2721 H 265.182 -5.51194 -0.298196 0
M  V30 2722 H 265.659 -4.1799 -1.34838 0
M  V30 2723 H 266.265 -4.24074 0.322716 0
M  V30 2724 N 264.58 -0.43555 -1.51462 0
M  V30 2725 C 265.543 0.365137 -2.26273 0
M  V30 2726 C 266.543 0.951227 -1.29647 0
M  V30 2727 O 267.733 0.825958 -1.53374 0
M  V30 2728 C 264.865 1.51645 -3.05314 0
M  V30 2729 H 266.058 -0.290474 -2.9849 0
M  V30 2730 H 263.611 -0.188676 -1.55157 0
M  V30 2731 H 264.346 2.20816 -2.3751 0
M  V30 2732 H 264.131 1.10238 -3.76284 0
M  V30 2733 H 265.621 2.08218 -3.61987 0
M  V30 2734 N 266.058 1.56714 -0.166846 0
M  V30 2735 C 267.304 1.97039 0.479962 0
M  V30 2736 C 267.637 1.05264 1.63197 0
M  V30 2737 O 266.912 0.0988833 1.94248 0
M  V30 2738 C 267.195 3.46867 0.967212 0
M  V30 2739 C 267.048 4.49421 -0.18466 0
M  V30 2740 C 268.367 3.9968 1.84238 0
M  V30 2741 H 265.486 0.71641 0.172992 0
M  V30 2742 H 268.128 1.8832 -0.252079 0
M  V30 2743 H 266.278 3.54428 1.59101 0
M  V30 2744 H 267.95 4.53924 -0.821621 0
M  V30 2745 H 266.193 4.25573 -0.840837 0
M  V30 2746 H 266.864 5.51644 0.198317 0
M  V30 2747 H 269.34 3.94723 1.31655 0
M  V30 2748 H 268.216 5.04941 2.15234 0
M  V30 2749 H 268.477 3.43226 2.78654 0
M  V30 2750 N 267.536 -0.106894 1.57237 0
M  V30 2751 C 268.782 -0.81373 1.85759 0
M  V30 2752 C 269.115 -1.78952 0.754315 0
M  V30 2753 O 268.39 -1.93029 -0.23879 0
M  V30 2754 C 268.673 -1.55293 3.24894 0
M  V30 2755 C 268.526 -0.595929 4.45835 0
M  V30 2756 C 269.845 -2.5063 3.61763 0
M  V30 2757 H 266.964 -0.294369 0.67566 0
M  V30 2758 H 269.606 -0.0776472 1.89841 0
M  V30 2759 H 267.756 -2.1804 3.21544 0
M  V30 2760 H 269.428 0.0236262 4.61294 0
M  V30 2761 H 267.671 0.0916191 4.33703 0
M  V30 2762 H 268.342 -1.15004 5.39887 0
M  V30 2763 H 270.818 -1.97982 3.65981 0
M  V30 2764 H 269.694 -2.99376 4.60071 0
M  V30 2765 H 269.955 -3.3385 2.89821 0
M  V30 2766 N 269.014 -1.53014 -0.377408 0
M  V30 2767 C 269.924 -1.81557 -1.48574 0
M  V30 2768 C 270.94 -0.703102 -1.59162 0
M  V30 2769 O 272.116 -0.99192 -1.75279 0
M  V30 2770 C 269.181 -1.9889 -2.83978 0
M  V30 2771 C 268.242 -3.22801 -2.83016 0
M  V30 2772 C 267.475 -3.39298 -4.11962 0
M  V30 2773 O 267.698 -2.60345 -5.0752 0
M  V30 2774 O 266.632 -4.32604 -4.18494 0
M  V30 2775 H 270.458 -2.75695 -1.27382 0
M  V30 2776 H 268.043 -1.38248 -0.566373 0
M  V30 2777 H 269.925 -2.11931 -3.6423 0
M  V30 2778 H 268.6 -1.07942 -3.05172 0
M  V30 2779 H 267.507 -3.15193 -2.01505 0
M  V30 2780 H 268.84 -4.13632 -2.66775 0
M  V30 2781 N 270.492 0.636531 -1.44174 0
M  V30 2782 C 271.903 1.21806 -1.41493 0
M  V30 2783 C 272.254 1.95785 -0.1275 0
M  V30 2784 O 271.379 2.02147 0.772376 0
M  V30 2785 C 271.974 2.21551 -2.56321 0
M  V30 2786 C 270.533 2.75143 -2.56853 0
M  V30 2787 C 269.68 1.50052 -2.33195 0
M  V30 2788 H 272.631 0.427531 -1.52833 0
M  V30 2789 H 272.652 3.0405 -2.28765 0
M  V30 2790 H 272.164 1.67679 -3.50008 0
M  V30 2791 H 270.265 3.33033 -1.67093 0
M  V30 2792 H 270.378 3.2155 -3.55165 0
M  V30 2793 H 268.742 1.77993 -1.82183 0
M  V30 2794 H 269.525 0.980903 -3.28988 0
M  V30 2795 N 271.97 1.30982 0.876444 0
M  V30 2796 C 273.2 1.23063 1.65949 0
M  V30 2797 C 273.608 -0.207537 1.88058 0
M  V30 2798 O 272.951 -1.14781 1.43426 0
M  V30 2799 C 273.013 1.89768 3.05333 0
M  V30 2800 C 272.677 3.39106 3.0636 0
M  V30 2801 C 273.674 4.3496 2.84791 0
M  V30 2802 C 271.359 3.80693 3.27686 0
M  V30 2803 C 273.353 5.70375 2.84519 0
M  V30 2804 C 271.04 5.16223 3.27043 0
M  V30 2805 C 272.038 6.10875 3.05485 0
M  V30 2806 O 271.726 7.43928 3.04674 0
M  V30 2807 H 271.458 0.426685 0.524324 0
M  V30 2808 H 274.012 1.7329 1.10271 0
M  V30 2809 H 272.242 1.34082 3.6271 0
M  V30 2810 H 273.931 1.75853 3.65829 0
M  V30 2811 H 274.697 4.0416 2.68103 0
M  V30 2812 H 270.576 3.07457 3.43499 0
M  V30 2813 H 274.12 6.44228 2.67611 0
M  V30 2814 H 270.017 5.4666 3.43269 0
M  V30 2815 H 270.785 7.53022 3.2078 0
M  V30 2816 N 273.449 -1.08991 1.13837 0
M  V30 2817 C 274.397 -2.17841 0.815347 0
M  V30 2818 C 275.391 -1.68164 -0.204233 0
M  V30 2819 O 276.597 -1.79897 -0.0609304 0
M  V30 2820 H 272.972 -0.710654 0.245915 0
M  V30 2821 H 274.943 -2.42315 1.74143 0
M  V30 2822 C 273.692 -3.46381 0.302614 0
M  V30 2823 H 273.015 -3.84979 1.0785 0
M  V30 2824 H 274.455 -4.23844 0.115074 0
M  V30 2825 C 272.914 -3.22556 -0.972591 0
M  V30 2826 O 273.444 -3.45599 -2.04754 0
M  V30 2827 N 271.65 -2.76134 -0.905455 0
M  V30 2828 H 271.197 -2.57582 -0.0305421 0
M  V30 2829 H 271.155 -2.60571 -1.75926 0
M  V30 2830 N 274.927 -0.932562 -1.27047 0
M  V30 2831 C 276.152 -0.591474 -1.98787 0
M  V30 2832 C 276.577 0.824601 -1.69062 0
M  V30 2833 O 275.935 1.5541 -0.933677 0
M  V30 2834 C 275.983 -0.829808 -3.50922 0
M  V30 2835 O 275.087 0.102266 -4.12273 0
M  V30 2836 H 274.428 -0.227185 -0.623926 0
M  V30 2837 H 276.958 -1.25314 -1.61733 0
M  V30 2838 H 276.968 -0.747292 -4.01098 0
M  V30 2839 H 275.643 -1.86201 -3.7189 0
M  V30 2840 H 274.22 -0.0305761 -3.72887 0
M  V30 2841 N 276.405 1.4127 -0.698611 0
M  V30 2842 C 277.654 2.00408 -0.227949 0
M  V30 2843 C 277.967 1.55981 1.18023 0
M  V30 2844 O 279.173 2.07699 1.74852 0
M  V30 2845 C 277.629 3.58129 -0.356636 0
M  V30 2846 C 277.237 4.11536 -1.77037 0
M  V30 2847 C 278.981 4.24466 0.0540969 0
M  V30 2848 C 276.888 5.61701 -1.85055 0
M  V30 2849 H 275.818 0.749586 -0.0814657 0
M  V30 2850 H 278.469 1.61713 -0.867249 0
M  V30 2851 H 276.851 3.94442 0.350965 0
M  V30 2852 H 278.025 3.86636 -2.50698 0
M  V30 2853 H 276.34 3.57736 -2.13105 0
M  V30 2854 H 278.937 5.34698 0.0146723 0
M  V30 2855 H 279.28 4.01687 1.09332 0
M  V30 2856 H 279.813 3.93198 -0.603337 0
M  V30 2857 H 276.552 5.89312 -2.8704 0
M  V30 2858 H 276.072 5.88519 -1.15783 0
M  V30 2859 H 277.751 6.26524 -1.61484 0
M  V30 2860 N 277.883 0.443576 1.51229 0
M  V30 2861 C 278.813 -0.355142 2.30783 0
M  V30 2862 C 279.794 -1.0154 1.36468 0
M  V30 2863 O 280.979 -1.01785 1.65389 0
M  V30 2864 C 278.109 -1.45312 3.15439 0
M  V30 2865 C 277.063 -0.916002 4.18083 0
M  V30 2866 C 276.389 -2.1102 4.91299 0
M  V30 2867 C 277.689 0.0538602 5.22272 0
M  V30 2868 H 279.383 0.308767 2.97804 0
M  V30 2869 H 276.929 0.149937 1.43217 0
M  V30 2870 H 278.882 -2.01914 3.69876 0
M  V30 2871 H 277.606 -2.14541 2.46252 0
M  V30 2872 H 276.265 -0.372145 3.64706 0
M  V30 2873 H 275.913 -2.78882 4.18609 0
M  V30 2874 H 275.613 -1.75717 5.60712 0
M  V30 2875 H 277.137 -2.68164 5.48562 0
M  V30 2876 H 278.551 -0.422069 5.71744 0
M  V30 2877 H 276.948 0.319776 5.99247 0
M  V30 2878 H 278.018 0.98858 4.74716 0
M  V30 2879 N 279.361 -1.56624 0.175154 0
M  V30 2880 C 280.589 -2.01374 -0.474971 0
M  V30 2881 C 281.004 -1.05537 -1.56548 0
M  V30 2882 O 280.361 -0.0568668 -1.82411 0
M  V30 2883 C 280.412 -3.45923 -1.04975 0
M  V30 2884 O 280.133 -4.381 -0.00276605 0
M  V30 2885 C 281.634 -4.06093 -1.77773 0
M  V30 2886 H 278.854 -0.659962 -0.121206 0
M  V30 2887 H 281.398 -2.02601 0.27801 0
M  V30 2888 H 279.553 -3.45458 -1.75321 0
M  V30 2889 H 279.967 -5.22753 -0.427681 0
M  V30 2890 H 281.441 -5.09147 -2.13245 0
M  V30 2891 H 281.918 -3.48405 -2.67414 0
M  V30 2892 H 282.524 -4.10272 -1.12059 0
M  V30 2893 N 280.839 0.0985539 -1.57292 0
M  V30 2894 C 282.067 0.816318 -1.90115 0
M  V30 2895 C 282.482 1.72451 -0.768509 0
M  V30 2896 O 281.839 1.80643 0.259687 0
M  V30 2897 C 281.89 1.63259 -3.22535 0
M  V30 2898 O 281.611 0.760934 -4.31441 0
M  V30 2899 C 283.112 2.45372 -3.69199 0
M  V30 2900 H 280.332 0.233595 -0.629027 0
M  V30 2901 H 282.876 0.0768229 -2.04356 0
M  V30 2902 H 281.031 2.32463 -3.09903 0
M  V30 2903 H 281.445 1.32595 -5.07463 0
M  V30 2904 H 282.919 2.98144 -4.64558 0
M  V30 2905 H 283.396 3.23677 -2.96867 0
M  V30 2906 H 284.002 1.81373 -3.84687 0
M  V30 2907 N 282.317 1.53212 0.369288 0
M  V30 2908 C 283.267 1.75769 1.45222 0
M  V30 2909 C 284.251 0.612136 1.48801 0
M  V30 2910 O 285.443 0.870674 1.54105 0
M  V30 2911 C 282.572 1.94769 2.82701 0
M  V30 2912 C 281.658 3.15315 2.83615 0
M  V30 2913 N 282.049 4.37295 2.54178 0
M  V30 2914 C 280.347 3.15962 3.14776 0
M  V30 2915 C 281.048 5.19015 2.62675 0
M  V30 2916 N 280.024 4.55142 2.97232 0
M  V30 2917 H 283.826 2.67691 1.2132 0
M  V30 2918 H 281.34 1.51787 0.577438 0
M  V30 2919 H 283.337 2.09056 3.60696 0
M  V30 2920 H 281.997 1.04073 3.07569 0
M  V30 2921 H 283.008 4.65091 2.27839 0
M  V30 2922 H 279.685 2.35144 3.44983 0
M  V30 2923 H 281.075 6.26305 2.43294 0
M  V30 2924 N 283.795 -0.628877 1.44509 0
M  V30 2925 C 285.023 -1.41554 1.50897 0
M  V30 2926 C 285.438 -1.8832 0.134564 0
M  V30 2927 O 284.795 -1.60969 -0.859965 0
M  V30 2928 C 284.846 -2.63435 2.47556 0
M  V30 2929 O 284.567 -2.18619 3.79654 0
M  V30 2930 C 286.068 -3.56537 2.63431 0
M  V30 2931 H 283.288 -0.434044 0.511709 0
M  V30 2932 H 285.832 -0.768895 1.89495 0
M  V30 2933 H 283.987 -3.24187 2.12089 0
M  V30 2934 H 284.401 -2.97652 4.31861 0
M  V30 2935 H 285.875 -4.38657 3.35088 0
M  V30 2936 H 286.352 -4.05493 1.68738 0
M  V30 2937 H 286.958 -3.01653 2.9981 0
M  V30 2938 N 285.273 -1.31445 -0.869486 0
M  V30 2939 C 286.501 -1.24122 -1.65534 0
M  V30 2940 C 286.916 0.193387 -1.87807 0
M  V30 2941 O 286.273 1.12557 -1.43656 0
M  V30 2942 C 286.324 -1.98229 -3.02304 0
M  V30 2943 O 286.045 -3.3609 -2.81026 0
M  V30 2944 C 287.546 -1.97751 -3.96749 0
M  V30 2945 H 284.766 -0.428868 -0.516055 0
M  V30 2946 H 287.31 -1.73328 -1.08525 0
M  V30 2947 H 285.465 -1.52782 -3.56001 0
M  V30 2948 H 285.879 -3.7383 -3.67902 0
M  V30 2949 H 287.353 -2.54114 -4.90031 0
M  V30 2950 H 287.83 -0.960137 -4.28577 0
M  V30 2951 H 288.436 -2.43079 -3.48988 0
M  V30 2952 N 286.751 1.08385 -1.14413 0
M  V30 2953 C 287.681 2.17321 -0.854044 0
M  V30 2954 C 288.662 1.69024 0.191049 0
M  V30 2955 O 289.847 1.94141 0.0476779 0
M  V30 2956 C 286.977 3.45719 -0.330983 0
M  V30 2957 C 285.931 4.07409 -1.31155 0
M  V30 2958 C 285.257 5.30762 -0.64778 0
M  V30 2959 C 286.557 4.48665 -2.67388 0
M  V30 2960 H 288.251 2.41845 -1.76498 0
M  V30 2961 H 285.797 1.16233 -0.850051 0
M  V30 2962 H 287.75 4.21241 -0.115645 0
M  V30 2963 H 286.474 3.2075 0.615381 0
M  V30 2964 H 285.133 3.33919 -1.51306 0
M  V30 2965 H 284.781 5.02078 0.304398 0
M  V30 2966 H 284.481 5.72992 -1.30207 0
M  V30 2967 H 286.005 6.08998 -0.441972 0
M  V30 2968 H 287.419 5.15364 -2.51143 0
M  V30 2969 H 285.816 5.01814 -3.29093 0
M  V30 2970 H 286.886 3.60543 -3.24248 0
M  V30 2971 N 288.23 0.939286 1.26551 0
M  V30 2972 C 289.14 0.453432 2.30176 0
M  V30 2973 C 290.156 -0.471649 1.67486 0
M  V30 2974 O 291.332 -0.35164 1.98306 0
M  V30 2975 C 288.397 -0.275326 3.45605 0
M  V30 2976 C 287.458 0.686084 4.23782 0
M  V30 2977 C 286.691 -0.00798994 5.33699 0
M  V30 2978 O 286.914 -1.22528 5.57085 0
M  V30 2979 O 285.848 0.669746 5.98162 0
M  V30 2980 H 289.674 1.31416 2.73795 0
M  V30 2981 H 287.259 0.705095 1.31715 0
M  V30 2982 H 289.141 -0.685911 4.1578 0
M  V30 2983 H 287.816 -1.11147 3.0402 0
M  V30 2984 H 286.723 1.14658 3.56096 0
M  V30 2985 H 288.056 1.48979 4.69112 0
M  V30 2986 N 289.708 -1.40897 0.706093 0
M  V30 2987 C 290.658 -2.27987 0.0240746 0
M  V30 2988 C 291.642 -1.42759 -0.742204 0
M  V30 2989 O 292.834 -1.65936 -0.615966 0
M  V30 2990 C 289.963 -3.31186 -0.903907 0
M  V30 2991 C 289.049 -4.2389 -0.133318 0
M  V30 2992 N 289.44 -4.98113 0.878444 0
M  V30 2993 C 287.738 -4.44485 -0.367269 0
M  V30 2994 C 288.439 -5.6604 1.34064 0
M  V30 2995 N 287.415 -5.39522 0.664565 0
M  V30 2996 H 291.217 -2.82812 0.799658 0
M  V30 2997 H 288.731 -1.53235 0.537845 0
M  V30 2998 H 290.728 -3.92413 -1.40775 0
M  V30 2999 H 289.388 -2.77922 -1.67897 0
M  V30 3000 H 290.399 -5.02364 1.25901 0
M  V30 3001 H 287.076 -4.02213 -1.1194 0
M  V30 3002 H 288.466 -6.35524 2.1808 0
M  V30 3003 N 291.186 -0.45159 -1.50991 0
M  V30 3004 C 292.411 0.110667 -2.07105 0
M  V30 3005 C 292.836 1.3446 -1.31538 0
M  V30 3006 O 292.194 1.77743 -0.357365 0
M  V30 3007 C 292.242 0.397238 -3.58405 0
M  V30 3008 O 291.346 1.48124 -3.84881 0
M  V30 3009 H 290.687 -0.00439271 -0.663985 0
M  V30 3010 H 293.217 -0.637026 -1.9443 0
M  V30 3011 H 293.227 0.64351 -4.02893 0
M  V30 3012 H 291.902 -0.504553 -4.12828 0
M  V30 3013 H 290.479 1.22381 -3.52246 0
M  V30 3014 N 292.664 1.56529 -0.183458 0
M  V30 3015 C 293.941 1.88959 0.50536 0
M  V30 3016 C 294.321 1.09523 1.80466 0
M  V30 3017 O 293.669 0.19278 2.27685 0
M  V30 3018 C 293.879 3.41162 0.73547 0
M  V30 3019 C 295.227 4.11155 1.06005 0
M  V30 3020 O 296.251 3.46548 0.823594 0
M  V30 3021 O 295.11 5.25318 1.50675 0
M  V30 3022 H 292.204 0.78441 0.261973 0
M  V30 3023 H 294.75 1.68231 -0.222802 0
M  V30 3024 H 293.522 3.90874 -0.182561 0
M  V30 3025 H 293.145 3.67543 1.51651 0
M  V30 3026 N 294.142 -0.090211 1.57342 0
M  V30 3027 C 295.382 -0.798365 1.88163 0
M  V30 3028 C 295.746 -1.75662 0.775046 0
M  V30 3029 O 296.947 -2.50849 0.965816 0
M  V30 3030 C 295.218 -1.50376 3.24225 0
M  V30 3031 S 296.777 -2.24952 3.76752 0
M  V30 3032 H 293.595 -0.265883 0.659414 0
M  V30 3033 H 296.197 -0.055264 1.95422 0
M  V30 3034 H 294.901 -0.792286 4.0268 0
M  V30 3035 H 294.432 -2.28666 3.20118 0
M  V30 3036 H 296.447 -3.51173 3.5056 0
M  V30 3037 N 295.62 -1.53406 -0.361157 0
M  V30 3038 C 296.583 -1.79479 -1.42548 0
M  V30 3039 C 297.583 -0.665327 -1.4639 0
M  V30 3040 O 298.773 -0.933549 -1.47073 0
M  V30 3041 C 295.905 -1.92087 -2.8163 0
M  V30 3042 H 297.098 -2.74538 -1.20701 0
M  V30 3043 H 294.651 -1.4455 -0.594546 0
M  V30 3044 H 295.386 -0.991099 -3.08784 0
M  V30 3045 H 295.171 -2.74241 -2.80239 0
M  V30 3046 H 296.661 -2.13836 -3.58697 0
M  V30 3047 N 297.098 0.621204 -1.44841 0
M  V30 3048 C 298.345 1.38055 -1.48145 0
M  V30 3049 C 298.673 1.94143 -0.117867 0
M  V30 3050 O 297.928 1.74713 0.881694 0
M  V30 3051 C 298.227 2.55675 -2.4973 0
M  V30 3052 C 297.893 2.17817 -3.94799 0
M  V30 3053 C 296.555 2.07205 -4.34303 0
M  V30 3054 C 298.907 1.88065 -4.86087 0
M  V30 3055 C 296.235 1.65045 -5.63007 0
M  V30 3056 C 298.587 1.47394 -6.15189 0
M  V30 3057 C 297.251 1.35331 -6.53637 0
M  V30 3058 H 296.521 0.505181 -0.542101 0
M  V30 3059 H 299.168 0.703477 -1.78111 0
M  V30 3060 H 297.473 3.2866 -2.13284 0
M  V30 3061 H 299.17 3.13904 -2.4953 0
M  V30 3062 H 295.76 2.26998 -3.63552 0
M  V30 3063 H 299.944 1.95168 -4.56315 0
M  V30 3064 H 295.2 1.54317 -5.91605 0
M  V30 3065 H 299.374 1.23415 -6.85377 0
M  V30 3066 H 297.001 1.02435 -7.53267 0
M  V30 3067 N 298.576 1.31904 0.862503 0
M  V30 3068 C 299.509 1.14514 1.97388 0
M  V30 3069 C 300.487 0.0466493 1.62533 0
M  V30 3070 O 301.671 0.204484 1.87388 0
M  V30 3071 C 298.798 0.751347 3.30261 0
M  V30 3072 C 297.844 1.85395 3.84098 0
M  V30 3073 S 298.677 3.46081 4.08642 0
M  V30 3074 C 299.833 3.08655 5.44502 0
M  V30 3075 H 300.066 2.08597 2.11836 0
M  V30 3076 H 297.599 1.16475 1.01356 0
M  V30 3077 H 299.557 0.530901 4.07052 0
M  V30 3078 H 298.218 -0.170493 3.13637 0
M  V30 3079 H 297.411 1.53122 4.80177 0
M  V30 3080 H 297.013 2.02984 3.14123 0
M  V30 3081 H 299.305 2.58012 6.26447 0
M  V30 3082 H 300.248 4.03726 5.81731 0
M  V30 3083 H 300.656 2.45891 5.08132 0
M  V30 3084 N 300.054 -1.07777 1.14986 0
M  V30 3085 C 301.3 -1.80557 0.923422 0
M  V30 3086 C 301.633 -1.86298 -0.548337 0
M  V30 3087 O 300.908 -1.34354 -1.40639 0
M  V30 3088 C 301.191 -3.25839 1.53299 0
M  V30 3089 C 301.044 -3.28269 3.07505 0
M  V30 3090 C 302.363 -4.22991 1.21518 0
M  V30 3091 H 299.482 -0.655493 0.336894 0
M  V30 3092 H 302.124 -1.26144 1.42083 0
M  V30 3093 H 300.274 -3.72306 1.10999 0
M  V30 3094 H 301.946 -2.90079 3.58681 0
M  V30 3095 H 300.189 -2.67355 3.4162 0
M  V30 3096 H 300.86 -4.30691 3.45266 0
M  V30 3097 H 303.336 -3.84894 1.581 0
M  V30 3098 H 302.212 -5.22945 1.66793 0
M  V30 3099 H 302.473 -4.41904 0.131505 0
M  V30 3100 N 301.532 -0.945985 -1.26051 0
M  V30 3101 C 302.809 -0.513816 -1.88731 0
M  V30 3102 C 303.189 1.00872 -1.8544 0
M  V30 3103 O 302.537 1.8708 -1.312 0
M  V30 3104 C 302.747 -1.08062 -3.31849 0
M  V30 3105 C 304.095 -1.1522 -4.08668 0
M  V30 3106 O 305.119 -1.03155 -3.40936 0
M  V30 3107 O 303.978 -1.34044 -5.29806 0
M  V30 3108 H 301.072 -0.168193 -0.809716 0
M  V30 3109 H 303.618 -1.03886 -1.34186 0
M  V30 3110 H 302.39 -2.1241 -3.2863 0
M  V30 3111 H 302.013 -0.538307 -3.93939 0
M  V30 3112 N 303.011 1.40521 -0.713556 0
M  V30 3113 C 303.959 2.32549 -0.0485227 0
M  V30 3114 C 304.953 1.51931 0.74922 0
M  V30 3115 O 306.159 1.67745 0.652816 0
M  V30 3116 H 302.534 0.751994 0.00311138 0
M  V30 3117 H 304.505 2.86291 -0.841443 0
M  V30 3118 C 303.254 3.36879 0.860687 0
M  V30 3119 H 302.577 3.98978 0.256246 0
M  V30 3120 H 304.017 4.03772 1.294 0
M  V30 3121 C 302.476 2.72197 1.9852 0
M  V30 3122 O 303.006 2.5837 3.07584 0
M  V30 3123 N 301.212 2.30612 1.76823 0
M  V30 3124 H 300.759 2.42059 0.881217 0
M  V30 3125 H 300.717 1.87672 2.52243 0
M  V30 3126 N 304.489 0.459591 1.5075 0
M  V30 3127 C 305.399 -0.34613 2.32033 0
M  V30 3128 C 306.415 -1.00686 1.41909 0
M  V30 3129 O 307.591 -0.997361 1.7497 0
M  V30 3130 C 304.656 -1.42029 3.16273 0
M  V30 3131 C 303.717 -0.777362 4.22203 0
M  V30 3132 C 302.95 -1.80034 5.02418 0
M  V30 3133 O 303.173 -3.02544 4.83553 0
M  V30 3134 O 302.107 -1.37853 5.85901 0
M  V30 3135 H 305.933 0.318054 3.0203 0
M  V30 3136 H 303.518 0.221663 1.47746 0
M  V30 3137 H 305.4 -2.04275 3.68578 0
M  V30 3138 H 304.075 -2.06815 2.49016 0
M  V30 3139 H 302.982 -0.116256 3.73919 0
M  V30 3140 H 304.315 -0.172634 4.91897 0
M  V30 3141 N 305.967 -1.56429 0.191757 0
M  V30 3142 C 306.93 -2.17707 -0.716688 0
M  V30 3143 C 307.93 -1.13061 -1.14341 0
M  V30 3144 O 309.12 -1.38464 -1.05704 0
M  V30 3145 C 306.252 -2.77644 -1.97804 0
M  V30 3146 H 307.445 -2.99342 -0.1829 0
M  V30 3147 H 304.998 -1.56193 -0.0578566 0
M  V30 3148 H 305.733 -1.99799 -2.55443 0
M  V30 3149 H 305.518 -3.54246 -1.68083 0
M  V30 3150 H 307.008 -3.24708 -2.62592 0
M  V30 3151 N 307.445 0.0818655 -1.57387 0
M  V30 3152 C 308.694 0.781681 -1.85937 0
M  V30 3153 C 309.007 1.79246 -0.782957 0
M  V30 3154 O 310.213 2.54112 -0.955987 0
M  V30 3155 C 308.669 1.44109 -3.29789 0
M  V30 3156 C 308.277 0.469396 -4.45534 0
M  V30 3157 C 310.021 2.12386 -3.67549 0
M  V30 3158 C 307.928 1.13415 -5.80423 0
M  V30 3159 H 306.858 0.295682 -0.693605 0
M  V30 3160 H 309.509 0.0348051 -1.83467 0
M  V30 3161 H 307.891 2.23588 -3.2684 0
M  V30 3162 H 309.065 -0.294856 -4.59856 0
M  V30 3163 H 307.38 -0.108383 -4.16259 0
M  V30 3164 H 309.977 2.62878 -4.65617 0
M  V30 3165 H 310.32 2.91877 -2.96839 0
M  V30 3166 H 310.853 1.39751 -3.72444 0
M  V30 3167 H 307.592 0.379771 -6.54399 0
M  V30 3168 H 307.112 1.8695 -5.69921 0
M  V30 3169 H 308.791 1.65686 -6.25426 0
M  V30 3170 N 308.923 1.53595 0.353017 0
M  V30 3171 C 310.153 1.74058 1.11299 0
M  V30 3172 C 310.561 0.475205 1.83135 0
M  V30 3173 O 309.904 -0.562344 1.74881 0
M  V30 3174 C 309.966 2.85994 2.17825 0
M  V30 3175 C 309.63 4.25923 1.65647 0
M  V30 3176 C 310.627 5.07829 1.11383 0
M  V30 3177 C 308.312 4.72377 1.7078 0
M  V30 3178 C 310.306 6.34285 0.629439 0
M  V30 3179 C 307.993 5.98808 1.21953 0
M  V30 3180 C 308.991 6.79594 0.681265 0
M  V30 3181 O 308.679 8.03651 0.200248 0
M  V30 3182 H 308.411 0.585327 0.338183 0
M  V30 3183 H 310.965 2.01186 0.413927 0
M  V30 3184 H 309.195 2.54368 2.91262 0
M  V30 3185 H 310.884 2.94515 2.79313 0
M  V30 3186 H 311.65 4.73107 1.06746 0
M  V30 3187 H 307.529 4.0956 2.11617 0
M  V30 3188 H 311.073 6.97288 0.208636 0
M  V30 3189 H 306.97 6.33026 1.26287 0
M  V30 3190 H 307.738 8.1788 0.318416 0
M  V30 3191 N 310.401 -0.613514 1.45168 0
M  V30 3192 C 311.678 -1.37263 1.39349 0
M  V30 3193 C 312.058 -2.11012 0.0610848 0
M  V30 3194 O 311.406 -2.07502 -0.956825 0
M  V30 3195 C 311.616 -2.3244 2.60332 0
M  V30 3196 C 312.964 -2.9523 3.05163 0
M  V30 3197 O 313.988 -2.42762 2.60663 0
M  V30 3198 O 312.847 -3.90454 3.82372 0
M  V30 3199 H 309.941 -0.615188 0.552696 0
M  V30 3200 H 312.487 -0.637097 1.57287 0
M  V30 3201 H 311.259 -1.77164 3.48896 0
M  V30 3202 H 310.882 -3.13383 2.44698 0
M  V30 3203 N 311.879 -1.3236 -0.855495 0
M  V30 3204 C 313.128 -1.22226 -1.60448 0
M  V30 3205 C 313.441 0.214733 -1.94418 0
M  V30 3206 O 314.647 0.437917 -2.67945 0
M  V30 3207 C 313.103 -2.14063 -2.89318 0
M  V30 3208 C 312.711 -3.62839 -2.62777 0
M  V30 3209 C 314.455 -2.12764 -3.67331 0
M  V30 3210 C 312.362 -4.4664 -3.87643 0
M  V30 3211 H 311.292 -0.453904 -0.602069 0
M  V30 3212 H 313.943 -1.57314 -0.944698 0
M  V30 3213 H 312.325 -1.71889 -3.5675 0
M  V30 3214 H 313.499 -4.1335 -2.03662 0
M  V30 3215 H 311.814 -3.66261 -1.98096 0
M  V30 3216 H 314.411 -2.72611 -4.59987 0
M  V30 3217 H 314.754 -1.11841 -4.00995 0
M  V30 3218 H 315.287 -2.53214 -3.06802 0
M  V30 3219 H 312.026 -5.48373 -3.5912 0
M  V30 3220 H 311.546 -4.0088 -4.46156 0
M  V30 3221 H 313.225 -4.59597 -4.55389 0
M  V30 3222 N 313.357 1.07166 -1.15556 0
M  V30 3223 C 314.597 1.81391 -0.94216 0
M  V30 3224 C 314.961 1.84788 0.521272 0
M  V30 3225 O 316.162 2.54904 0.85307 0
M  V30 3226 C 314.433 3.22431 -1.54185 0
M  V30 3227 S 315.992 4.13379 -1.47183 0
M  V30 3228 H 312.81 0.624963 -0.339031 0
M  V30 3229 H 315.412 1.28725 -1.4714 0
M  V30 3230 H 314.116 3.17548 -2.59984 0
M  V30 3231 H 313.647 3.80172 -1.01156 0
M  V30 3232 H 315.662 4.94007 -0.466004 0
M  V30 3233 N 314.835 0.952656 1.25548 0
M  V30 3234 C 316.251 0.656769 1.4546 0
M  V30 3235 C 316.451 -0.78633 1.85524 0
M  V30 3236 O 315.507 -1.56183 1.98402 0
M  V30 3237 C 316.82 1.62801 2.52817 0
M  V30 3238 C 318.368 1.63897 2.66659 0
M  V30 3239 C 318.843 2.5978 3.77198 0
M  V30 3240 N 320.334 2.58133 3.84606 0
M  V30 3241 C 321.069 3.29003 4.69621 0
M  V30 3242 N 320.565 4.09339 5.58939 0
M  V30 3243 N 322.358 3.179 4.63569 0
M  V30 3244 H 314.509 1.88526 0.978344 0
M  V30 3245 H 316.772 0.810815 0.491206 0
M  V30 3246 H 316.478 2.65869 2.30232 0
M  V30 3247 H 316.352 1.38898 3.50695 0
M  V30 3248 H 318.739 0.615481 2.8861 0
M  V30 3249 H 318.82 1.91858 1.69187 0
M  V30 3250 H 318.464 3.62254 3.55997 0
M  V30 3251 H 318.394 2.29105 4.7415 0
M  V30 3252 H 320.885 1.99809 3.20757 0
M  V30 3253 H 321.198 4.6034 6.20731 0
M  V30 3254 H 319.543 4.13438 5.58654 0
M  V30 3255 H 322.734 2.54612 3.92798 0
M  V30 3256 H 322.907 3.73398 5.29602 0
M  V30 3257 N 316.313 -1.40141 0.720998 0
M  V30 3258 C 317.729 -1.54632 0.395113 0
M  V30 3259 C 317.929 -1.69115 -1.09555 0
M  V30 3260 O 316.985 -1.68377 -1.88163 0
M  V30 3261 C 318.298 -2.77177 1.1659 0
M  V30 3262 C 319.846 -2.91 1.15274 0
M  V30 3263 C 320.321 -4.16465 1.90579 0
M  V30 3264 N 321.812 -4.23476 1.87675 0
M  V30 3265 C 322.547 -5.19475 2.42762 0
M  V30 3266 N 322.043 -6.21348 3.06428 0
M  V30 3267 N 323.836 -5.11592 2.32874 0
M  V30 3268 H 315.987 -1.28986 1.68749 0
M  V30 3269 H 318.25 -0.62412 0.713567 0
M  V30 3270 H 317.956 -2.72771 2.22011 0
M  V30 3271 H 317.83 -3.69442 0.76108 0
M  V30 3272 H 320.217 -2.94907 0.106702 0
M  V30 3273 H 320.298 -1.99838 1.59682 0
M  V30 3274 H 319.942 -4.1332 2.95176 0
M  V30 3275 H 319.872 -5.06646 1.43587 0
M  V30 3276 H 322.363 -3.50497 1.41281 0
M  V30 3277 H 322.676 -6.91034 3.45965 0
M  V30 3278 H 321.021 -6.21777 3.10514 0
M  V30 3279 H 324.212 -4.30936 1.82789 0
M  V30 3280 H 324.385 -5.86233 2.76106 0
M  V30 3281 N 317.792 -0.46758 -1.50504 0
M  V30 3282 C 318.74 0.342482 -2.30065 0
M  V30 3283 C 319.734 0.993596 -1.37201 0
M  V30 3284 O 320.94 0.925102 -1.54408 0
M  V30 3285 H 317.315 0.129283 -0.740803 0
M  V30 3286 H 319.286 -0.34899 -2.96352 0
M  V30 3287 C 318.035 1.4139 -3.17654 0
M  V30 3288 H 317.358 0.922264 -3.89017 0
M  V30 3289 H 318.798 1.95335 -3.76325 0
M  V30 3290 C 317.257 2.4139 -2.35016 0
M  V30 3291 O 317.787 3.46586 -2.03079 0
M  V30 3292 N 315.993 2.13021 -1.97662 0
M  V30 3293 H 315.54 1.27499 -2.23834 0
M  V30 3294 H 315.498 2.80164 -1.42673 0
M  V30 3295 N 319.27 1.56325 -0.20005 0
M  V30 3296 C 320.2 2.22318 0.713916 0
M  V30 3297 C 321.181 1.18788 1.21752 0
M  V30 3298 O 322.366 1.47309 1.26545 0
M  V30 3299 C 319.496 2.88639 1.93144 0
M  V30 3300 C 318.45 3.98457 1.56255 0
M  V30 3301 C 317.776 4.51967 2.85709 0
M  V30 3302 C 319.076 5.16612 0.768747 0
M  V30 3303 H 320.77 2.98952 0.163755 0
M  V30 3304 H 318.316 1.43792 0.0773219 0
M  V30 3305 H 320.269 3.33491 2.57608 0
M  V30 3306 H 318.993 2.09419 2.50621 0
M  V30 3307 H 317.652 3.54305 0.941471 0
M  V30 3308 H 317.3 3.69503 3.41287 0
M  V30 3309 H 317 5.26071 2.6177 0
M  V30 3310 H 318.524 4.99523 3.51154 0
M  V30 3311 H 319.938 5.57977 1.3166 0
M  V30 3312 H 318.335 5.96812 0.627286 0
M  V30 3313 H 319.405 4.84358 -0.229168 0
M  V30 3314 N 320.748 -0.0735177 1.57428 0
M  V30 3315 C 322.025 -0.805903 1.78226 0
M  V30 3316 C 322.405 -1.95874 0.787189 0
M  V30 3317 O 321.753 -2.2779 -0.180029 0
M  V30 3318 C 321.963 -1.28045 3.24662 0
M  V30 3319 C 323.311 -1.71453 3.88444 0
M  V30 3320 O 324.335 -1.37616 3.28543 0
M  V30 3321 O 323.194 -2.34093 4.93825 0
M  V30 3322 H 320.288 -0.386041 0.73137 0
M  V30 3323 H 322.834 -0.0537269 1.69615 0
M  V30 3324 H 321.606 -0.455476 3.8864 0
M  V30 3325 H 321.229 -2.094 3.37991 0
M  V30 3326 N 322.226 -1.5378 -0.344866 0
M  V30 3327 C 323.475 -1.7018 -1.08267 0
M  V30 3328 C 323.788 -0.471 -1.89845 0
M  V30 3329 O 324.994 -0.515917 -2.66553 0
M  V30 3330 C 323.45 -3.00923 -1.97417 0
M  V30 3331 C 323.058 -4.31335 -1.21053 0
M  V30 3332 C 324.802 -3.26688 -2.71063 0
M  V30 3333 C 322.709 -5.53153 -2.09225 0
M  V30 3334 H 321.639 -0.634138 -0.407903 0
M  V30 3335 H 324.29 -1.8028 -0.342246 0
M  V30 3336 H 322.672 -2.84676 -2.75274 0
M  V30 3337 H 323.846 -4.58281 -0.481159 0
M  V30 3338 H 322.161 -4.12173 -0.591813 0
M  V30 3339 H 324.758 -4.1489 -3.37299 0
M  V30 3340 H 325.101 -2.43639 -3.37558 0
M  V30 3341 H 325.634 -3.43705 -2.0028 0
M  V30 3342 H 322.373 -6.38741 -1.47274 0
M  V30 3343 H 321.893 -5.30458 -2.79955 0
M  V30 3344 H 323.572 -5.88744 -2.68308 0
M  V30 3345 N 323.704 0.605807 -1.45491 0
M  V30 3346 C 324.614 1.74466 -1.56839 0
M  V30 3347 C 325.63 1.68006 -0.452772 0
M  V30 3348 O 326.806 1.8833 -0.713708 0
M  V30 3349 C 323.871 3.10931 -1.53371 0
M  V30 3350 C 322.932 3.28832 -2.75986 0
M  V30 3351 C 322.165 4.58787 -2.72673 0
M  V30 3352 O 322.388 5.4122 -1.80102 0
M  V30 3353 O 321.322 4.79438 -3.63899 0
M  V30 3354 H 325.148 1.67843 -2.53106 0
M  V30 3355 H 322.733 0.770108 -1.28022 0
M  V30 3356 H 324.615 3.92233 -1.54051 0
M  V30 3357 H 323.29 3.18042 -0.602572 0
M  V30 3358 H 322.197 2.47112 -2.80867 0
M  V30 3359 H 323.53 3.26599 -3.68231 0
M  V30 3360 N 325.182 1.32811 0.848464 0
M  V30 3361 C 326.598 1.11937 1.13764 0
M  V30 3362 C 326.798 -0.0960789 2.01271 0
M  V30 3363 O 325.854 -0.779165 2.40178 0
M  V30 3364 C 327.167 2.402 1.809 0
M  V30 3365 C 328.715 2.46016 1.93508 0
M  V30 3366 C 329.19 3.74215 2.64059 0
M  V30 3367 N 330.681 3.75232 2.71579 0
M  V30 3368 C 331.416 4.71134 3.26833 0
M  V30 3369 N 330.912 5.77406 3.8285 0
M  V30 3370 N 332.705 4.58623 3.24995 0
M  V30 3371 H 324.856 2.1073 0.265855 0
M  V30 3372 H 327.119 0.930671 0.180431 0
M  V30 3373 H 326.825 3.29093 1.24058 0
M  V30 3374 H 326.699 2.51628 2.81004 0
M  V30 3375 H 329.086 1.57577 2.49506 0
M  V30 3376 H 329.167 2.38536 0.923811 0
M  V30 3377 H 328.811 4.63031 2.08722 0
M  V30 3378 H 328.741 3.78968 3.65637 0
M  V30 3379 H 331.232 2.98423 2.31845 0
M  V30 3380 H 331.545 6.46632 4.23187 0
M  V30 3381 H 329.89 5.81152 3.81165 0
M  V30 3382 H 333.081 3.74762 2.80484 0
M  V30 3383 H 333.254 5.33535 3.67756 0
M  V30 3384 N 326.66 -1.06551 1.16123 0
M  V30 3385 C 328.071 -1.60768 0.949232 0
M  V30 3386 C 328.422 -1.89523 -0.507508 0
M  V30 3387 O 327.547 -1.66671 -1.38021 0
M  V30 3388 C 328.142 -2.92086 1.71671 0
M  V30 3389 C 326.701 -3.43015 1.54977 0
M  V30 3390 C 325.848 -2.16947 1.72711 0
M  V30 3391 H 328.799 -0.895354 1.31031 0
M  V30 3392 H 328.82 -3.6138 1.19099 0
M  V30 3393 H 328.332 -2.71127 2.7769 0
M  V30 3394 H 326.433 -3.69039 0.513873 0
M  V30 3395 H 326.546 -4.18516 2.33198 0
M  V30 3396 H 324.91 -2.27041 1.15431 0
M  V30 3397 H 325.693 -1.98473 2.80113 0
M  V30 3398 N 328.138 -0.959301 -1.25041 0
M  V30 3399 C 329.366 -0.633949 -1.96948 0
M  V30 3400 C 329.781 0.794916 -1.7125 0
M  V30 3401 O 329.138 1.53231 -0.991287 0
M  V30 3402 C 329.189 -0.888805 -3.50403 0
M  V30 3403 O 328.91 -2.26149 -3.75218 0
M  V30 3404 C 330.411 -0.576482 -4.39536 0
M  V30 3405 H 327.631 -0.237263 -0.627652 0
M  V30 3406 H 330.175 -1.28495 -1.59089 0
M  V30 3407 H 328.33 -0.284145 -3.86357 0
M  V30 3408 H 328.744 -2.33514 -4.6965 0
M  V30 3409 H 330.218 -0.805314 -5.46094 0
M  V30 3410 H 330.695 0.489075 -4.36468 0
M  V30 3411 H 331.301 -1.16067 -4.09156 0
M  V30 3412 N 329.616 1.39756 -0.72842 0
M  V30 3413 C 330.846 2.04651 -0.283117 0
M  V30 3414 C 331.254 1.5502 1.08469 0
M  V30 3415 O 330.597 0.707343 1.69536 0
M  V30 3416 C 330.659 3.58947 -0.199309 0
M  V30 3417 C 330.323 4.31525 -1.5045 0
M  V30 3418 C 331.32 4.5861 -2.44894 0
M  V30 3419 C 329.005 4.70195 -1.76698 0
M  V30 3420 C 330.999 5.23366 -3.63822 0
M  V30 3421 C 328.686 5.3468 -2.95906 0
M  V30 3422 C 329.684 5.61198 -3.89289 0
M  V30 3423 O 329.372 6.24347 -5.06404 0
M  V30 3424 H 329.104 0.664777 -0.122666 0
M  V30 3425 H 331.658 1.79913 -0.990987 0
M  V30 3426 H 329.888 3.82556 0.56461 0
M  V30 3427 H 331.577 4.0534 0.213125 0
M  V30 3428 H 332.343 4.29187 -2.25883 0
M  V30 3429 H 328.222 4.48916 -1.04859 0
M  V30 3430 H 331.766 5.4398 -4.36728 0
M  V30 3431 H 327.663 5.63524 -3.14819 0
M  V30 3432 H 328.431 6.42842 -5.06652 0
M  V30 3433 N 331.094 0.475555 1.50254 0
M  V30 3434 C 332.322 -0.0754493 2.06762 0
M  V30 3435 C 332.737 -1.33111 1.33891 0
M  V30 3436 O 332.094 -1.77846 0.40952 0
M  V30 3437 C 332.145 -0.359008 3.59713 0
M  V30 3438 O 331.866 0.846851 4.29837 0
M  V30 3439 C 333.367 -0.956484 4.32858 0
M  V30 3440 H 330.587 0.00907525 0.670939 0
M  V30 3441 H 333.131 0.665618 1.93364 0
M  V30 3442 H 331.286 -1.05001 3.72899 0
M  V30 3443 H 331.7 0.594162 5.21124 0
M  V30 3444 H 333.174 -1.10463 5.40834 0
M  V30 3445 H 333.651 -1.94775 3.93649 0
M  V30 3446 H 334.257 -0.303723 4.24214 0
M  V30 3447 N 332.573 -1.56217 0.208337 0
M  V30 3448 C 333.521 -2.21053 -0.723769 0
M  V30 3449 C 334.515 -1.18578 -1.20978 0
M  V30 3450 O 335.721 -1.36691 -1.17114 0
M  V30 3451 H 332.096 -0.708595 -0.251788 0
M  V30 3452 H 334.067 -2.98006 -0.153365 0
M  V30 3453 C 332.816 -2.89417 -1.927 0
M  V30 3454 H 332.139 -3.68019 -1.56212 0
M  V30 3455 H 333.579 -3.38201 -2.55727 0
M  V30 3456 C 332.038 -1.91166 -2.77411 0
M  V30 3457 O 332.568 -1.42026 -3.75754 0
M  V30 3458 N 330.774 -1.59105 -2.43175 0
M  V30 3459 H 330.321 -1.99259 -1.63259 0
M  V30 3460 H 330.279 -0.936255 -3.00136 0
M  V30 3461 N 334.051 0.0651679 -1.57465 0
M  V30 3462 C 334.981 1.07693 -2.07182 0
M  V30 3463 C 335.962 1.39962 -0.966673 0
M  V30 3464 O 337.147 1.49475 -1.2398 0
M  V30 3465 C 334.277 2.3885 -2.52127 0
M  V30 3466 C 333.231 2.20917 -3.66579 0
M  V30 3467 C 332.557 3.57515 -3.97601 0
M  V30 3468 C 333.857 1.62493 -4.9638 0
M  V30 3469 H 335.551 0.663199 -2.91962 0
M  V30 3470 H 333.097 0.317569 -1.40455 0
M  V30 3471 H 335.05 3.09928 -2.85522 0
M  V30 3472 H 333.774 2.82215 -1.64384 0
M  V30 3473 H 332.433 1.52279 -3.33477 0
M  V30 3474 H 332.081 3.98463 -3.06979 0
M  V30 3475 H 331.781 3.46353 -4.74672 0
M  V30 3476 H 333.305 4.30013 -4.33499 0
M  V30 3477 H 334.719 2.23445 -5.27963 0
M  V30 3478 H 333.116 1.62009 -5.77818 0
M  V30 3479 H 334.186 0.587041 -4.81333 0
M  V30 3480 N 335.529 1.53961 0.336706 0
M  V30 3481 C 336.477 1.83136 1.43401 0
M  V30 3482 C 337.471 0.702313 1.54156 0
M  V30 3483 O 338.677 0.885765 1.56698 0
M  V30 3484 H 335.052 0.580309 0.478273 0
M  V30 3485 H 337.023 2.74925 1.16012 0
M  V30 3486 C 335.772 2.06385 2.79822 0
M  V30 3487 H 335.095 2.92718 2.72316 0
M  V30 3488 H 336.535 2.30761 3.55704 0
M  V30 3489 C 334.994 0.851414 3.25964 0
M  V30 3490 O 335.524 0.0541904 4.01663 0
M  V30 3491 N 333.73 0.66672 2.82848 0
M  V30 3492 H 333.277 1.31665 2.21409 0
M  V30 3493 H 333.235 -0.143032 3.14074 0
M  V30 3494 N 337.007 -0.598083 1.45811 0
M  V30 3495 C 338.423 -0.919847 1.30426 0
M  V30 3496 C 338.623 -1.99759 0.264303 0
M  V30 3497 O 337.679 -2.50221 -0.338472 0
M  V30 3498 C 338.992 -1.35176 2.68603 0
M  V30 3499 C 340.54 -1.46546 2.76574 0
M  V30 3500 C 341.015 -1.9311 4.15298 0
M  V30 3501 N 342.506 -2.00328 4.1764 0
M  V30 3502 C 343.241 -2.37599 5.21856 0
M  V30 3503 N 342.737 -2.73771 6.36413 0
M  V30 3504 N 344.53 -2.38021 5.09218 0
M  V30 3505 H 336.681 0.114111 2.12093 0
M  V30 3506 H 338.944 -0.0116121 0.947929 0
M  V30 3507 H 338.65 -0.633969 3.45939 0
M  V30 3508 H 338.524 -2.3164 2.97696 0
M  V30 3509 H 340.911 -2.17415 1.99537 0
M  V30 3510 H 340.992 -0.483727 2.51185 0
M  V30 3511 H 340.636 -1.22824 4.92825 0
M  V30 3512 H 340.566 -2.92213 4.38086 0
M  V30 3513 H 343.057 -1.74925 3.34977 0
M  V30 3514 H 343.37 -3.0112 7.11721 0
M  V30 3515 H 341.715 -2.71445 6.39799 0
M  V30 3516 H 344.906 -2.09174 4.18765 0
M  V30 3517 H 345.079 -2.66741 5.90554 0
M  V30 3518 N 338.485 -1.33259 -0.841409 0
M  V30 3519 C 339.415 -1.25926 -1.96634 0
M  V30 3520 C 340.396 -0.140349 -1.6952 0
M  V30 3521 O 341.581 -0.329707 -1.91381 0
M  V30 3522 C 338.711 -0.99512 -3.32738 0
M  V30 3523 C 337.665 -2.0767 -3.74242 0
M  V30 3524 C 336.991 -1.66474 -5.08125 0
M  V30 3525 C 338.291 -3.49318 -3.88297 0
M  V30 3526 H 339.985 -2.20046 -2.03027 0
M  V30 3527 H 337.531 -1.05931 -0.975425 0
M  V30 3528 H 339.484 -0.930323 -4.11002 0
M  V30 3529 H 338.208 -0.0183004 -3.26595 0
M  V30 3530 H 336.867 -2.13187 -2.98239 0
M  V30 3531 H 336.515 -0.675012 -4.9845 0
M  V30 3532 H 336.215 -2.3885 -5.36865 0
M  V30 3533 H 337.739 -1.61455 -5.88867 0
M  V30 3534 H 339.153 -3.46316 -4.56879 0
M  V30 3535 H 337.55 -4.20158 -4.28471 0
M  V30 3536 H 338.62 -3.8801 -2.9082 0
M  V30 3537 N 339.963 1.05934 -1.16686 0
M  V30 3538 C 341.212 1.78188 -0.945085 0
M  V30 3539 C 341.525 1.88338 0.528021 0
M  V30 3540 O 342.731 2.57258 0.867799 0
M  V30 3541 C 341.187 3.20277 -1.64167 0
M  V30 3542 C 340.795 3.18281 -3.15279 0
M  V30 3543 C 342.539 3.97039 -1.502 0
M  V30 3544 C 340.446 4.55112 -3.7766 0
M  V30 3545 H 339.376 0.667866 -0.349959 0
M  V30 3546 H 342.027 1.18794 -1.39858 0
M  V30 3547 H 340.409 3.79952 -1.11589 0
M  V30 3548 H 341.583 2.68167 -3.74731 0
M  V30 3549 H 339.898 2.55018 -3.29173 0
M  V30 3550 H 342.495 4.98194 -1.94183 0
M  V30 3551 H 342.838 4.13845 -0.451461 0
M  V30 3552 H 343.371 3.43894 -1.99954 0
M  V30 3553 H 340.11 4.43512 -4.82677 0
M  V30 3554 H 339.63 5.05406 -3.22994 0
M  V30 3555 H 341.309 5.24064 -3.79428 0
M  V30 3556 N 341.441 0.965919 1.2453 0
M  V30 3557 C 342.689 0.625593 1.92174 0
M  V30 3558 C 343.01 -0.841652 1.75901 0
M  V30 3559 O 342.28 -1.60061 1.12948 0
M  V30 3560 H 340.86 0.228388 0.71123 0
M  V30 3561 H 343.522 1.2266 1.51461 0
M  V30 3562 H 342.618 0.864653 2.99884 0
M  V30 3563 N 342.919 -1.39368 0.735821 0
M  V30 3564 C 343.851 -2.2913 0.0567723 0
M  V30 3565 C 344.864 -1.46859 -0.702589 0
M  V30 3566 O 346.053 -1.69925 -0.546616 0
M  V30 3567 C 343.153 -3.25492 -0.943823 0
M  V30 3568 C 342.326 -4.36709 -0.24581 0
M  V30 3569 C 341.385 -5.13376 -1.15463 0
M  V30 3570 O 340.411 -5.65683 -0.631803 0
M  V30 3571 N 341.613 -5.24656 -2.48427 0
M  V30 3572 H 344.378 -2.88047 0.827582 0
M  V30 3573 H 341.939 -1.50957 0.585112 0
M  V30 3574 H 343.931 -3.73657 -1.55443 0
M  V30 3575 H 342.501 -2.676 -1.61583 0
M  V30 3576 H 341.721 -3.9041 0.545286 0
M  V30 3577 H 343.009 -5.08244 0.237891 0
M  V30 3578 H 342.407 -4.83679 -2.93379 0
M  V30 3579 H 340.964 -5.76258 -3.04582 0
M  V30 3580 N 344.397 -0.483516 -1.5 0
M  V30 3581 C 345.646 0.0689102 -2.01582 0
M  V30 3582 C 345.959 1.39655 -1.36952 0
M  V30 3583 O 347.165 2.03465 -1.79762 0
M  V30 3584 C 345.621 0.173302 -3.59483 0
M  V30 3585 C 345.229 -1.14665 -4.33077 0
M  V30 3586 C 346.973 0.677024 -4.19066 0
M  V30 3587 C 344.88 -1.00537 -5.82792 0
M  V30 3588 H 343.81 0.0295277 -0.753422 0
M  V30 3589 H 346.461 -0.620295 -1.72698 0
M  V30 3590 H 344.843 0.926569 -3.85007 0
M  V30 3591 H 346.017 -1.91184 -4.19268 0
M  V30 3592 H 344.332 -1.58244 -3.85159 0
M  V30 3593 H 346.929 0.799952 -5.28682 0
M  V30 3594 H 347.272 1.67151 -3.81269 0
M  V30 3595 H 347.805 -0.0192083 -3.97795 0
M  V30 3596 H 344.544 -1.9736 -6.25083 0
M  V30 3597 H 344.064 -0.280776 -5.99142 0
M  V30 3598 H 345.743 -0.677 -6.43448 0
M  V30 3599 N 345.875 1.56104 -0.216619 0
M  V30 3600 C 347.121 1.98466 0.417033 0
M  V30 3601 C 347.454 1.10403 1.59765 0
M  V30 3602 O 346.729 0.160632 1.93836 0
M  V30 3603 C 347.012 3.49769 0.85637 0
M  V30 3604 C 346.865 4.48606 -0.327546 0
M  V30 3605 C 348.184 4.05339 1.7143 0
M  V30 3606 H 345.303 0.721551 0.150112 0
M  V30 3607 H 347.945 1.87423 -0.311864 0
M  V30 3608 H 346.095 3.5931 1.47745 0
M  V30 3609 H 347.767 4.5108 -0.965618 0
M  V30 3610 H 346.01 4.22682 -0.975805 0
M  V30 3611 H 346.681 5.51995 0.0227149 0
M  V30 3612 H 349.157 3.98712 1.19031 0
M  V30 3613 H 348.033 5.11533 1.99061 0
M  V30 3614 H 348.294 3.51918 2.67593 0
M  V30 3615 N 347.353 -0.0568162 1.57498 0
M  V30 3616 C 348.578 -0.769402 1.92601 0
M  V30 3617 C 349.003 -1.69559 0.814336 0
M  V30 3618 O 348.361 -1.79811 -0.231903 0
M  V30 3619 C 348.409 -1.52634 3.26704 0
M  V30 3620 O 347.513 -2.63797 3.16994 0
M  V30 3621 H 346.854 -0.208909 0.63028 0
M  V30 3622 H 349.384 -0.0205798 2.0459 0
M  V30 3623 H 349.394 -1.90234 3.60936 0
M  V30 3624 H 348.069 -0.846875 4.07186 0
M  V30 3625 H 346.646 -2.28943 2.94346 0
M  V30 3626 N 348.832 -1.54138 -0.328536 0
M  V30 3627 C 350.057 -1.76378 -1.09112 0
M  V30 3628 C 350.482 -0.508596 -1.81094 0
M  V30 3629 O 349.84 0.539598 -1.73084 0
M  V30 3630 C 349.888 -2.95358 -2.06872 0
M  V30 3631 O 348.992 -2.66556 -3.14677 0
M  V30 3632 H 348.333 -0.584614 -0.314838 0
M  V30 3633 H 350.863 -2.01146 -0.374348 0
M  V30 3634 H 350.873 -3.22566 -2.4983 0
M  V30 3635 H 349.548 -3.86385 -1.5388 0
M  V30 3636 H 348.125 -2.50282 -2.7643 0
M  V30 3637 N 350.31 0.590341 -1.46126 0
M  V30 3638 C 351.559 1.34499 -1.50309 0
M  V30 3639 C 351.872 1.94977 -0.156021 0
M  V30 3640 O 353.078 2.71395 -0.0756037 0
M  V30 3641 C 351.534 2.43723 -2.64815 0
M  V30 3642 C 351.142 1.89582 -4.0591 0
M  V30 3643 C 352.886 3.20579 -2.78262 0
M  V30 3644 C 350.793 2.9639 -5.11769 0
M  V30 3645 H 349.723 0.505593 -0.559368 0
M  V30 3646 H 352.374 0.630848 -1.72315 0
M  V30 3647 H 350.756 3.17902 -2.36124 0
M  V30 3648 H 351.93 1.21997 -4.44357 0
M  V30 3649 H 350.245 1.25418 -3.97063 0
M  V30 3650 H 352.842 4.00276 -3.54519 0
M  V30 3651 H 353.185 3.72684 -1.85505 0
M  V30 3652 H 353.718 2.53505 -3.06562 0
M  V30 3653 H 350.457 2.49181 -6.06291 0
M  V30 3654 H 349.977 3.62487 -4.77873 0
M  V30 3655 H 351.656 3.60474 -5.37278 0
M  V30 3656 N 351.788 1.33704 0.83433 0
M  V30 3657 C 353.016 1.28467 1.62185 0
M  V30 3658 C 353.431 -0.143526 1.88254 0
M  V30 3659 O 352.788 -1.08709 1.4659 0
M  V30 3660 C 352.839 2.06174 2.96942 0
M  V30 3661 O 352.56 3.43422 2.72016 0
M  V30 3662 C 354.061 2.08201 3.91366 0
M  V30 3663 H 351.281 0.4424 0.504503 0
M  V30 3664 H 353.825 1.76145 1.03891 0
M  V30 3665 H 351.98 1.62167 3.51825 0
M  V30 3666 H 352.394 3.83453 3.57861 0
M  V30 3667 H 353.868 2.67017 4.83121 0
M  V30 3668 H 354.345 1.07343 4.2588 0
M  V30 3669 H 354.951 2.52246 3.42421 0
M  V30 3670 N 353.266 -1.05314 1.17247 0
M  V30 3671 C 354.229 -2.112 0.890357 0
M  V30 3672 C 355.229 -1.60359 -0.118943 0
M  V30 3673 O 356.419 -1.73833 0.113086 0
M  V30 3674 C 353.551 -3.39266 0.333422 0
M  V30 3675 H 354.744 -2.37659 1.82916 0
M  V30 3676 H 352.297 -1.21538 0.982758 0
M  V30 3677 H 353.032 -3.18462 -0.612587 0
M  V30 3678 H 352.817 -3.77477 1.06082 0
M  V30 3679 H 354.307 -4.17315 0.154322 0
M  V30 3680 N 354.744 -0.972509 -1.24016 0
M  V30 3681 C 355.969 -0.654417 -1.96805 0
M  V30 3682 C 356.394 0.770398 -1.716 0
M  V30 3683 O 355.752 1.52361 -0.982647 0
M  V30 3684 C 355.8 -0.941031 -3.48105 0
M  V30 3685 O 354.904 -0.0289472 -4.1239 0
M  V30 3686 H 354.245 -0.24692 -0.616382 0
M  V30 3687 H 356.775 -1.30396 -1.57664 0
M  V30 3688 H 356.785 -0.87452 -3.98517 0
M  V30 3689 H 355.46 -1.97939 -3.65777 0
M  V30 3690 H 354.037 -0.149192 -3.72601 0
M  V30 3691 N 356.222 1.38976 -0.743202 0
M  V30 3692 C 357.152 2.33171 -0.123873 0
M  V30 3693 C 358.133 1.54336 0.71516 0
M  V30 3694 O 359.318 1.82696 0.658467 0
M  V30 3695 C 356.448 3.38474 0.777978 0
M  V30 3696 C 355.402 4.27979 0.0424758 0
M  V30 3697 C 354.728 5.2405 1.06189 0
M  V30 3698 C 356.028 5.10155 -1.1198 0
M  V30 3699 H 357.722 2.85213 -0.910709 0
M  V30 3700 H 355.268 1.37133 -0.439388 0
M  V30 3701 H 357.221 4.03328 1.22084 0
M  V30 3702 H 355.945 2.84891 1.59702 0
M  V30 3703 H 354.604 3.64616 -0.380853 0
M  V30 3704 H 354.252 4.66758 1.87472 0
M  V30 3705 H 353.952 5.84785 0.574485 0
M  V30 3706 H 355.476 5.9178 1.50428 0
M  V30 3707 H 356.89 5.68307 -0.75499 0
M  V30 3708 H 355.287 5.80073 -1.53738 0
M  V30 3709 H 356.357 4.44504 -1.93764 0
M  V30 3710 N 357.7 0.491464 1.49741 0
M  V30 3711 C 359.116 0.146835 1.58923 0
M  V30 3712 C 359.316 -1.34804 1.49767 0
M  V30 3713 O 358.372 -2.12317 1.36667 0
M  V30 3714 C 359.685 0.715157 2.92072 0
M  V30 3715 C 361.233 0.680407 3.05515 0
M  V30 3716 C 361.708 1.22663 4.41269 0
M  V30 3717 N 363.199 1.18691 4.47735 0
M  V30 3718 C 363.934 1.57984 5.51207 0
M  V30 3719 N 363.43 2.04824 6.6183 0
M  V30 3720 N 365.223 1.49459 5.41866 0
M  V30 3721 H 357.374 1.46347 1.53936 0
M  V30 3722 H 359.637 0.606453 0.728642 0
M  V30 3723 H 359.343 1.76317 3.04311 0
M  V30 3724 H 359.217 0.17018 3.76816 0
M  V30 3725 H 361.604 -0.358743 2.92911 0
M  V30 3726 H 361.685 1.26242 2.22478 0
M  V30 3727 H 361.329 2.26451 4.54623 0
M  V30 3728 H 361.259 0.620637 5.2293 0
M  V30 3729 H 363.75 0.843605 3.68364 0
M  V30 3730 H 364.063 2.32901 7.3687 0
M  V30 3731 H 362.408 2.08791 6.62896 0
M  V30 3732 H 365.599 1.12692 4.54333 0
M  V30 3733 H 365.772 1.80406 6.22381 0
M  V30 3734 N 359.178 -1.55987 0.224894 0
M  V30 3735 C 360.425 -1.9839 -0.4059 0
M  V30 3736 C 360.753 -1.11261 -1.59535 0
M  V30 3737 O 360.008 -0.158314 -1.95059 0
M  V30 3738 C 360.307 -3.46394 -0.880106 0
M  V30 3739 C 359.973 -4.5046 0.19918 0
M  V30 3740 C 358.635 -4.7864 0.495661 0
M  V30 3741 C 360.987 -5.12855 0.928939 0
M  V30 3742 C 358.315 -5.66497 1.52636 0
M  V30 3743 C 360.667 -6.01828 1.949 0
M  V30 3744 C 359.331 -6.28351 2.25236 0
M  V30 3745 H 358.601 -0.725961 -0.148529 0
M  V30 3746 H 361.248 -1.88668 0.328113 0
M  V30 3747 H 359.553 -3.53337 -1.69294 0
M  V30 3748 H 361.25 -3.76577 -1.37808 0
M  V30 3749 H 357.84 -4.28579 -0.0420526 0
M  V30 3750 H 362.024 -4.9115 0.713129 0
M  V30 3751 H 357.28 -5.8531 1.76698 0
M  V30 3752 H 361.454 -6.49225 2.51951 0
M  V30 3753 H 359.081 -6.96226 3.05244 0
M  V30 3754 N 360.656 0.0484629 -1.57525 0
M  V30 3755 C 361.933 0.777447 -1.79486 0
M  V30 3756 C 362.313 1.94597 -0.818251 0
M  V30 3757 O 361.661 2.28047 0.143767 0
M  V30 3758 C 361.871 1.22864 -3.26658 0
M  V30 3759 C 363.219 1.65251 -3.91123 0
M  V30 3760 O 364.243 1.32372 -3.3069 0
M  V30 3761 O 363.102 2.26207 -4.97486 0
M  V30 3762 H 360.196 0.374357 -0.737419 0
M  V30 3763 H 362.742 0.0267359 -1.69679 0
M  V30 3764 H 361.514 0.393589 -3.89316 0
M  V30 3765 H 361.137 2.03996 -3.41279 0
M  V30 3766 N 362.134 1.5431 0.320358 0
M  V30 3767 C 363.382 1.72327 1.05583 0
M  V30 3768 C 363.703 0.50149 1.88441 0
M  V30 3769 O 362.973 -0.48448 1.89815 0
M  V30 3770 H 361.553 0.635387 0.3928 0
M  V30 3771 H 364.215 1.91621 0.356019 0
M  V30 3772 H 363.311 2.60426 1.72003 0
M  V30 3773 N 363.613 -0.582584 1.46437 0
M  V30 3774 C 364.576 -1.67366 1.56592 0
M  V30 3775 C 365.576 -1.54575 0.443072 0
M  V30 3776 O 366.766 -1.59191 0.707381 0
M  V30 3777 C 363.898 -3.06791 1.48634 0
M  V30 3778 H 365.091 -1.5972 2.5383 0
M  V30 3779 H 362.644 -0.800432 1.34249 0
M  V30 3780 H 363.379 -3.19993 0.526763 0
M  V30 3781 H 363.164 -3.17484 2.30101 0
M  V30 3782 H 364.654 -3.86218 1.58826 0
M  V30 3783 N 365.091 -1.34144 -0.827227 0
M  V30 3784 C 366.021 -1.28005 -1.95287 0
M  V30 3785 C 367.002 -0.158321 -1.69362 0
M  V30 3786 O 368.187 -0.349987 -1.9102 0
M  V30 3787 C 365.317 -1.03036 -3.31664 0
M  V30 3788 C 364.271 -2.11628 -3.72019 0
M  V30 3789 C 363.597 -1.71854 -5.0633 0
M  V30 3790 C 364.897 -3.53417 -3.8457 0
M  V30 3791 H 366.591 -2.22187 -2.00682 0
M  V30 3792 H 364.137 -1.0696 -0.964135 0
M  V30 3793 H 366.09 -0.973863 -4.09993 0
M  V30 3794 H 364.814 -0.0529391 -3.26557 0
M  V30 3795 H 363.473 -2.16339 -2.95961 0
M  V30 3796 H 363.121 -0.727841 -4.97706 0
M  V30 3797 H 362.821 -2.44531 -5.34302 0
M  V30 3798 H 364.345 -1.67692 -5.87122 0
M  V30 3799 H 365.759 -3.51142 -4.5318 0
M  V30 3800 H 364.156 -4.24679 -4.2399 0
M  V30 3801 H 365.226 -3.91072 -2.86689 0
M  V30 3802 N 366.569 1.04691 -1.17803 0
M  V30 3803 C 367.517 2.14665 -0.895635 0
M  V30 3804 C 368.511 1.68806 0.141679 0
M  V30 3805 O 369.717 1.79999 -0.00587914 0
M  V30 3806 H 366.092 0.701038 -0.272121 0
M  V30 3807 H 368.063 2.35685 -1.83017 0
M  V30 3808 C 366.812 3.45019 -0.430962 0
M  V30 3809 H 366.135 3.8071 -1.22064 0
M  V30 3810 H 367.575 4.23125 -0.272301 0
M  V30 3811 C 366.034 3.25943 0.852207 0
M  V30 3812 O 366.564 3.5296 1.91786 0
M  V30 3813 N 364.77 2.79304 0.802346 0
M  V30 3814 H 364.317 2.57518 -0.0650788 0
M  V30 3815 H 364.275 2.66921 1.66134 0
M  V30 3816 N 368.047 0.979072 1.23499 0
M  V30 3817 C 369.293 0.648178 1.92163 0
M  V30 3818 C 369.626 -0.816049 1.76222 0
M  V30 3819 O 368.901 -1.58849 1.12237 0
M  V30 3820 C 369.184 1.03773 3.44824 0
M  V30 3821 C 369.037 2.55948 3.69879 0
M  V30 3822 C 370.356 0.580653 4.36253 0
M  V30 3823 H 367.475 0.236952 0.69787 0
M  V30 3824 H 370.117 1.22012 1.45647 0
M  V30 3825 H 368.267 0.551058 3.84572 0
M  V30 3826 H 369.939 3.12179 3.3962 0
M  V30 3827 H 368.182 2.98641 3.14636 0
M  V30 3828 H 368.853 2.78255 4.76737 0
M  V30 3829 H 371.329 0.998465 4.03943 0
M  V30 3830 H 370.205 0.881663 5.41773 0
M  V30 3831 H 370.466 -0.519052 4.39042 0
M  V30 3832 N 369.525 -1.3858 0.750561 0
M  V30 3833 C 370.802 -1.94231 0.231009 0
M  V30 3834 C 371.182 -1.68611 -1.27018 0
M  V30 3835 O 370.53 -1.02296 -2.04323 0
M  V30 3836 C 370.74 -3.44123 0.581428 0
M  V30 3837 C 372.088 -4.2116 0.539389 0
M  V30 3838 O 373.112 -3.52391 0.519541 0
M  V30 3839 O 371.971 -5.43749 0.54765 0
M  V30 3840 H 369.065 -0.825639 0.0474263 0
M  V30 3841 H 371.611 -1.4799 0.830478 0
M  V30 3842 H 370.383 -3.56267 1.61833 0
M  V30 3843 H 370.006 -3.97573 -0.0462047 0
M  V30 3844 N 371.003 -0.499398 -1.49478 0
M  V30 3845 C 371.933 0.269244 -2.31943 0
M  V30 3846 C 372.914 0.964054 -1.40143 0
M  V30 3847 O 374.099 0.955767 -1.69052 0
M  V30 3848 C 371.229 1.33504 -3.20615 0
M  V30 3849 C 370.183 0.760202 -4.21195 0
M  V30 3850 C 369.509 1.9264 -4.98792 0
M  V30 3851 C 370.809 -0.247661 -5.21712 0
M  V30 3852 H 372.503 -0.419082 -2.96452 0
M  V30 3853 H 370.049 -0.202988 -1.42562 0
M  V30 3854 H 372.002 1.88048 -3.77115 0
M  V30 3855 H 370.726 2.05253 -2.54045 0
M  V30 3856 H 369.385 0.23653 -3.65836 0
M  V30 3857 H 369.033 2.63154 -4.28671 0
M  V30 3858 H 368.733 1.54785 -5.66847 0
M  V30 3859 H 370.257 2.4762 -5.58137 0
M  V30 3860 H 371.671 0.209579 -5.72917 0
M  V30 3861 H 370.068 -0.541962 -5.97648 0
M  V30 3862 H 371.138 -1.16409 -4.7072 0
M  V30 3863 N 372.481 1.55866 -0.233164 0
M  V30 3864 C 373.709 2.02998 0.399905 0
M  V30 3865 C 374.124 1.11274 1.52524 0
M  V30 3866 O 373.481 0.124528 1.82075 0
M  V30 3867 C 373.532 3.4958 0.920639 0
M  V30 3868 O 373.253 4.37808 -0.159834 0
M  V30 3869 C 374.754 4.12411 1.62578 0
M  V30 3870 H 371.974 0.664006 0.0966281 0
M  V30 3871 H 374.518 2.0143 -0.353013 0
M  V30 3872 H 372.673 3.51727 1.62379 0
M  V30 3873 H 373.087 5.23981 0.23337 0
M  V30 3874 H 374.561 5.16711 1.94201 0
M  V30 3875 H 375.038 3.5809 2.54299 0
M  V30 3876 H 375.644 4.14148 0.967553 0
M  V30 3877 N 373.959 -0.0401083 1.57549 0
M  V30 3878 C 374.869 -1.06133 2.0922 0
M  V30 3879 C 375.885 -1.40356 1.0284 0
M  V30 3880 O 377.061 -1.49897 1.34509 0
M  V30 3881 C 374.126 -2.34658 2.55218 0
M  V30 3882 C 373.187 -2.07117 3.76033 0
M  V30 3883 C 372.42 -3.29514 4.19829 0
M  V30 3884 O 372.643 -4.39794 3.63232 0
M  V30 3885 O 371.577 -3.15863 5.12362 0
M  V30 3886 H 375.403 -0.652244 2.96613 0
M  V30 3887 H 372.988 -0.256368 1.47184 0
M  V30 3888 H 374.87 -3.10239 2.85184 0
M  V30 3889 H 373.545 -2.74883 1.70941 0
M  V30 3890 H 372.452 -1.29139 3.51104 0
M  V30 3891 H 373.785 -1.71754 4.61261 0
M  V30 3892 N 375.437 -1.54477 -0.31217 0
M  V30 3893 C 376.684 -1.73227 -1.04875 0
M  V30 3894 C 377.012 -0.512042 -1.87639 0
M  V30 3895 O 376.267 0.506131 -1.89042 0
M  V30 3896 C 376.566 -2.967 -1.99258 0
M  V30 3897 C 376.232 -4.30974 -1.32559 0
M  V30 3898 C 374.894 -4.67477 -1.141 0
M  V30 3899 C 377.246 -5.14258 -0.847835 0
M  V30 3900 C 374.574 -5.84852 -0.465326 0
M  V30 3901 C 376.926 -6.32327 -0.185931 0
M  V30 3902 C 375.59 -6.67499 0.0107077 0
M  V30 3903 H 374.86 -0.633881 -0.383765 0
M  V30 3904 H 377.507 -1.88727 -0.324731 0
M  V30 3905 H 375.812 -2.75935 -2.7815 0
M  V30 3906 H 377.509 -3.08401 -2.563 0
M  V30 3907 H 374.099 -4.02262 -1.4793 0
M  V30 3908 H 378.283 -4.86565 -0.978192 0
M  V30 3909 H 373.539 -6.10654 -0.301883 0
M  V30 3910 H 377.713 -6.96135 0.192211 0
M  V30 3911 H 375.34 -7.58306 0.536287 0
M  V30 3912 N 376.915 0.57481 -1.46744 0
M  V30 3913 C 377.847 1.69804 -1.53946 0
M  V30 3914 C 378.86 1.57098 -0.427106 0
M  V30 3915 O 380.049 1.64378 -0.695863 0
M  V30 3916 C 377.149 3.08125 -1.4111 0
M  V30 3917 C 376.322 3.46757 -2.66605 0
M  V30 3918 C 375.381 4.6417 -2.47855 0
M  V30 3919 O 374.407 4.69634 -3.21609 0
M  V30 3920 N 375.609 5.59553 -1.54534 0
M  V30 3921 H 378.374 1.64077 -2.50796 0
M  V30 3922 H 375.935 0.761 -1.429 0
M  V30 3923 H 377.927 3.84478 -1.26328 0
M  V30 3924 H 376.497 3.08175 -0.524109 0
M  V30 3925 H 375.717 2.6003 -2.96274 0
M  V30 3926 H 377.005 3.69337 -3.49954 0
M  V30 3927 H 376.403 5.57881 -0.937304 0
M  V30 3928 H 374.96 6.35304 -1.45711 0
M  V30 3929 N 378.394 1.34581 0.820102 0
M  V30 3930 C 379.622 1.3018 1.60813 0
M  V30 3931 C 380.037 -0.123551 1.88395 0
M  V30 3932 O 379.394 -1.07148 1.47735 0
M  V30 3933 C 379.445 2.09312 2.94739 0
M  V30 3934 O 379.166 3.46288 2.68358 0
M  V30 3935 C 380.667 2.1234 3.89136 0
M  V30 3936 H 377.887 0.447726 0.499782 0
M  V30 3937 H 380.431 1.77237 1.02017 0
M  V30 3938 H 378.586 1.65889 3.50085 0
M  V30 3939 H 379 3.87227 3.53774 0
M  V30 3940 H 380.474 2.72126 4.80262 0
M  V30 3941 H 380.951 1.11854 4.24718 0
M  V30 3942 H 381.557 2.55864 3.39726 0
M  V30 3943 N 379.872 -1.04064 1.18357 0
M  V30 3944 C 380.82 -2.14187 0.907007 0
M  V30 3945 C 381.814 -1.68879 -0.132725 0
M  V30 3946 O 383.02 -1.79993 0.0154248 0
M  V30 3947 H 379.395 -0.699585 0.275835 0
M  V30 3948 H 381.366 -2.34711 1.84264 0
M  V30 3949 C 380.115 -3.44785 0.449254 0
M  V30 3950 H 379.438 -3.80058 1.24081 0
M  V30 3951 H 380.878 -4.22974 0.294737 0
M  V30 3952 C 379.337 -3.26391 -0.834909 0
M  V30 3953 O 379.867 -3.53973 -1.89911 0
M  V30 3954 N 378.073 -2.79726 -0.787523 0
M  V30 3955 H 377.62 -2.5748 0.0787347 0
M  V30 3956 H 377.578 -2.67798 -1.64716 0
M  V30 3957 N 381.35 -0.985608 -1.22978 0
M  V30 3958 C 382.28 -0.549649 -2.26939 0
M  V30 3959 C 383.261 0.419803 -1.64838 0
M  V30 3960 O 384.446 0.31203 -1.91677 0
M  V30 3961 C 381.576 0.143652 -3.47003 0
M  V30 3962 C 380.53 -0.743606 -4.21491 0
M  V30 3963 C 379.856 0.0822027 -5.34637 0
M  V30 3964 C 381.156 -2.03694 -4.80943 0
M  V30 3965 H 382.85 -1.41862 -2.63658 0
M  V30 3966 H 380.396 -0.683571 -1.26741 0
M  V30 3967 H 382.349 0.459985 -4.18882 0
M  V30 3968 H 381.073 1.04711 -3.09359 0
M  V30 3969 H 379.732 -1.04347 -3.51436 0
M  V30 3970 H 379.38 0.986359 -4.93234 0
M  V30 3971 H 379.08 -0.508377 -5.85397 0
M  V30 3972 H 380.604 0.392797 -6.09335 0
M  V30 3973 H 382.018 -1.78504 -5.44802 0
M  V30 3974 H 380.415 -2.57573 -5.42011 0
M  V30 3975 H 381.485 -2.72042 -4.01399 0
M  V30 3976 N 382.828 1.3818 -0.7579 0
M  V30 3977 C 384.074 2.00316 -0.316453 0
M  V30 3978 C 384.407 1.60026 1.10025 0
M  V30 3979 O 383.682 0.839835 1.75434 0
M  V30 3980 C 383.965 3.57349 -0.444245 0
M  V30 3981 C 383.818 4.07591 -1.90236 0
M  V30 3982 C 385.137 4.3981 0.1598 0
M  V30 3983 H 382.256 0.727741 -0.116459 0
M  V30 3984 H 384.898 1.6406 -0.958352 0
M  V30 3985 H 383.048 3.88365 0.102233 0
M  V30 3986 H 384.72 3.87199 -2.50748 0
M  V30 3987 H 382.963 3.60297 -2.41595 0
M  V30 3988 H 383.634 5.16677 -1.94291 0
M  V30 3989 H 386.11 4.14971 -0.306314 0
M  V30 3990 H 384.986 5.48885 0.0401675 0
M  V30 3991 H 385.247 4.24102 1.24859 0
M  V30 3992 N 384.306 0.507319 1.49211 0
M  V30 3993 C 385.717 0.0611118 1.866 0
M  V30 3994 C 386.068 -1.35488 1.41907 0
M  V30 3995 O 385.193 -2.0108 0.799726 0
M  V30 3996 C 385.788 0.104125 3.3864 0
M  V30 3997 C 384.347 -0.28677 3.75306 0
M  V30 3998 C 383.494 0.473893 2.73221 0
M  V30 3999 H 386.445 0.719775 1.41439 0
M  V30 4000 H 386.466 -0.689672 3.74198 0
M  V30 4001 H 385.978 1.13482 3.71138 0
M  V30 4002 H 384.079 -1.32046 3.48417 0
M  V30 4003 H 384.192 0.0370745 4.79086 0
M  V30 4004 H 382.556 -0.0770644 2.54583 0
M  V30 4005 H 383.339 1.50478 3.08563 0
M  V30 4006 N 385.784 -1.5574 0.241426 0
M  V30 4007 C 387.014 -2.02913 -0.38857 0
M  V30 4008 C 387.422 -1.12014 -1.52478 0
M  V30 4009 O 386.765 -0.125903 -1.83268 0
M  V30 4010 C 386.827 -3.4636 -0.963075 0
M  V30 4011 C 386.491 -4.56982 0.0401916 0
M  V30 4012 C 387.488 -5.12941 0.847766 0
M  V30 4013 C 385.173 -5.0203 0.164699 0
M  V30 4014 C 387.167 -6.12437 1.76636 0
M  V30 4015 C 384.854 -6.01358 1.0868 0
M  V30 4016 C 385.852 -6.5644 1.88616 0
M  V30 4017 O 385.54 -7.53831 2.79273 0
M  V30 4018 H 385.272 -0.668983 -0.0971452 0
M  V30 4019 H 387.826 -2.02198 0.361248 0
M  V30 4020 H 386.056 -3.44206 -1.76235 0
M  V30 4021 H 387.745 -3.77065 -1.50257 0
M  V30 4022 H 388.511 -4.78974 0.762133 0
M  V30 4023 H 384.39 -4.58824 -0.447411 0
M  V30 4024 H 387.934 -6.55355 2.39071 0
M  V30 4025 H 383.831 -6.34746 1.17338 0
M  V30 4026 H 384.599 -7.71428 2.73572 0
M  V30 4027 N 387.262 0.0317525 -1.57568 0
M  V30 4028 C 388.673 0.578692 -1.77505 0
M  V30 4029 C 389.024 1.75749 -0.872164 0
M  V30 4030 O 388.149 2.16298 -0.0663106 0
M  V30 4031 C 388.744 1.05658 -3.21904 0
M  V30 4032 C 387.303 1.54906 -3.43047 0
M  V30 4033 C 386.45 0.485939 -2.73009 0
M  V30 4034 H 389.401 -0.194475 -1.57504 0
M  V30 4035 H 389.422 1.92404 -3.28269 0
M  V30 4036 H 388.934 0.198422 -3.87592 0
M  V30 4037 H 387.035 2.42915 -2.82529 0
M  V30 4038 H 387.148 1.59841 -4.5165 0
M  V30 4039 H 385.512 0.940354 -2.36705 0
M  V30 4040 H 386.295 -0.362709 -3.41379 0
M  V30 4041 N 388.74 1.54641 0.303973 0
M  V30 4042 C 390.156 1.45788 0.649463 0
M  V30 4043 C 390.356 0.64666 1.90842 0
M  V30 4044 O 389.412 0.153183 2.52035 0
M  V30 4045 C 390.725 2.89718 0.805227 0
M  V30 4046 C 392.273 2.99742 0.901305 0
M  V30 4047 C 392.748 4.44863 1.08909 0
M  V30 4048 N 394.239 4.48559 1.15536 0
M  V30 4049 C 394.974 5.58026 1.3189 0
M  V30 4050 N 394.47 6.77422 1.45161 0
M  V30 4051 N 396.263 5.45708 1.34755 0
M  V30 4052 H 388.414 2.05854 -0.523237 0
M  V30 4053 H 390.677 0.932186 -0.172431 0
M  V30 4054 H 390.383 3.51666 -0.0489108 0
M  V30 4055 H 390.257 3.36964 1.69513 0
M  V30 4056 H 392.644 2.3791 1.74593 0
M  V30 4057 H 392.725 2.55797 -0.0125531 0
M  V30 4058 H 392.369 5.07288 0.249241 0
M  V30 4059 H 392.299 4.86436 2.01713 0
M  V30 4060 H 394.79 3.6254 1.06646 0
M  V30 4061 H 395.103 7.56604 1.57387 0
M  V30 4062 H 393.448 6.80292 1.42223 0
M  V30 4063 H 396.639 4.51378 1.23996 0
M  V30 4064 H 396.812 6.3107 1.47157 0
M  V30 4065 N 390.218 -0.567019 1.47046 0
M  V30 4066 C 391.467 -1.32091 1.5243 0
M  V30 4067 C 391.78 -1.94704 0.187021 0
M  V30 4068 O 392.986 -2.7124 0.118771 0
M  V30 4069 C 391.442 -2.39479 2.68659 0
M  V30 4070 C 391.05 -1.831 4.08874 0
M  V30 4071 C 392.794 -3.16111 2.83327 0
M  V30 4072 C 390.701 -2.8821 5.16419 0
M  V30 4073 H 389.631 -0.496629 0.56734 0
M  V30 4074 H 392.282 -0.603354 1.73297 0
M  V30 4075 H 390.664 -3.14105 2.41152 0
M  V30 4076 H 391.838 -1.14913 4.46242 0
M  V30 4077 H 390.153 -1.19085 3.99008 0
M  V30 4078 H 392.75 -3.94585 3.60842 0
M  V30 4079 H 393.093 -3.69686 1.91411 0
M  V30 4080 H 393.626 -2.48595 3.10556 0
M  V30 4081 H 390.365 -2.39504 6.10179 0
M  V30 4082 H 389.885 -3.54839 4.8358 0
M  V30 4083 H 391.564 -3.51881 5.42945 0
M  V30 4084 N 391.696 -1.35014 -0.812953 0
M  V30 4085 C 392.646 -1.23959 -1.91359 0
M  V30 4086 C 393.63 -0.136306 -1.60322 0
M  V30 4087 O 394.822 -0.366925 -1.73155 0
M  V30 4088 C 391.951 -1.00736 -3.28188 0
M  V30 4089 C 391.037 -2.15426 -3.65311 0
M  V30 4090 N 391.428 -3.40612 -3.73921 0
M  V30 4091 C 389.726 -2.06672 -3.95225 0
M  V30 4092 C 390.427 -4.15994 -4.06601 0
M  V30 4093 N 389.403 -3.44685 -4.20349 0
M  V30 4094 H 393.205 -2.18815 -1.96208 0
M  V30 4095 H 390.719 -1.27395 -1.00718 0
M  V30 4096 H 392.716 -0.909052 -4.06868 0
M  V30 4097 H 391.376 -0.067586 -3.2463 0
M  V30 4098 H 392.387 -3.75043 -3.5716 0
M  V30 4099 H 389.064 -1.20511 -3.99729 0
M  V30 4100 H 390.454 -5.24145 -4.20382 0
M  V30 4101 N 393.175 1.03435 -1.18907 0
M  V30 4102 C 394.422 1.76743 -0.988334 0
M  V30 4103 C 394.75 1.88447 0.481441 0
M  V30 4104 O 394.005 1.39383 1.37371 0
M  V30 4105 C 394.304 3.19792 -1.59586 0
M  V30 4106 C 393.97 3.28108 -3.09283 0
M  V30 4107 C 392.632 3.30084 -3.5014 0
M  V30 4108 C 394.984 3.27696 -4.05296 0
M  V30 4109 C 392.312 3.29299 -4.85571 0
M  V30 4110 C 394.664 3.28451 -5.4065 0
M  V30 4111 C 393.328 3.28723 -5.80946 0
M  V30 4112 H 392.598 0.64675 -0.361657 0
M  V30 4113 H 395.245 1.21442 -1.48068 0
M  V30 4114 H 393.55 3.78136 -1.02568 0
M  V30 4115 H 395.247 3.75171 -1.41589 0
M  V30 4116 H 391.837 3.27294 -2.76725 0
M  V30 4117 H 396.021 3.25354 -3.74778 0
M  V30 4118 H 391.277 3.2783 -5.16079 0
M  V30 4119 H 395.451 3.27082 -6.14809 0
M  V30 4120 H 393.078 3.27868 -6.85862 0
M  V30 4121 N 394.653 0.992116 1.22453 0
M  V30 4122 C 396.064 0.702776 1.72968 0
M  V30 4123 C 396.415 -0.780399 1.80012 0
M  V30 4124 O 395.54 -1.61007 1.44589 0
M  V30 4125 C 396.135 1.26903 3.14135 0
M  V30 4126 C 394.694 1.02909 3.62059 0
M  V30 4127 C 393.841 1.38969 2.39964 0
M  V30 4128 H 396.792 1.16457 1.07812 0
M  V30 4129 H 396.813 0.647223 3.74955 0
M  V30 4130 H 396.325 2.34851 3.08977 0
M  V30 4131 H 394.426 -0.0337979 3.72585 0
M  V30 4132 H 394.539 1.69191 4.48231 0
M  V30 4133 H 392.903 0.808279 2.41535 0
M  V30 4134 H 393.686 2.4792 2.37467 0
M  V30 4135 N 396.131 -1.37776 0.765217 0
M  V30 4136 C 397.061 -2.32945 0.160953 0
M  V30 4137 C 398.042 -1.55454 -0.690516 0
M  V30 4138 O 399.227 -1.83721 -0.629318 0
M  V30 4139 C 396.357 -3.39669 -0.724031 0
M  V30 4140 C 395.311 -4.27992 0.0256173 0
M  V30 4141 C 394.637 -5.25673 -0.978383 0
M  V30 4142 C 395.937 -5.08309 1.20082 0
M  V30 4143 H 397.631 -2.83728 0.955969 0
M  V30 4144 H 395.177 -1.36416 0.461149 0
M  V30 4145 H 397.13 -4.05219 -1.15652 0
M  V30 4146 H 395.854 -2.87396 -1.5515 0
M  V30 4147 H 394.513 -3.63964 0.438812 0
M  V30 4148 H 394.161 -4.69682 -1.80022 0
M  V30 4149 H 393.861 -5.85625 -0.481378 0
M  V30 4150 H 395.385 -5.94098 -1.40995 0
M  V30 4151 H 396.799 -5.67034 0.845307 0
M  V30 4152 H 395.196 -5.77554 1.62947 0
M  V30 4153 H 396.266 -4.41365 2.00811 0
M  V30 4154 N 397.609 -0.515225 -1.4894 0
M  V30 4155 C 398.572 0.244681 -2.2789 0
M  V30 4156 C 399.572 0.881166 -1.34507 0
M  V30 4157 O 400.762 0.743497 -1.57537 0
M  V30 4158 C 397.894 1.35247 -3.12923 0
M  V30 4159 H 399.087 -0.448289 -2.96531 0
M  V30 4160 H 396.64 -0.270656 -1.53939 0
M  V30 4161 H 397.375 2.07916 -2.48881 0
M  V30 4162 H 397.16 0.901374 -3.81599 0
M  V30 4163 H 398.65 1.88737 -3.72516 0
M  V30 4164 N 399.087 1.5561 -0.249682 0
M  V30 4165 C 400.315 2.03411 0.378352 0
M  V30 4166 C 400.73 1.12886 1.51335 0
M  V30 4167 O 400.087 0.143833 1.81932 0
M  V30 4168 C 400.138 3.50537 0.88351 0
M  V30 4169 O 399.859 4.37614 -0.20626 0
M  V30 4170 C 401.36 4.14113 1.58195 0
M  V30 4171 H 398.58 0.664994 0.08958 0
M  V30 4172 H 401.124 2.01044 -0.374357 0
M  V30 4173 H 399.279 3.5343 1.58639 0
M  V30 4174 H 399.693 5.24199 0.177782 0
M  V30 4175 H 401.167 5.18741 1.8871 0
M  V30 4176 H 401.644 3.60767 2.50487 0
M  V30 4177 H 402.25 4.15151 0.923573 0
M  V30 4178 N 400.565 -0.0233959 1.57583 0
M  V30 4179 C 401.795 -0.723631 1.93513 0
M  V30 4180 C 402.203 -1.69115 0.848333 0
M  V30 4181 O 401.546 -1.82781 -0.183484 0
M  V30 4182 C 401.608 -1.53075 3.25282 0
M  V30 4183 C 401.272 -0.727388 4.51174 0
M  V30 4184 C 402.269 -0.0251924 5.19894 0
M  V30 4185 C 399.954 -0.680256 4.97672 0
M  V30 4186 C 401.948 0.713374 6.33395 0
M  V30 4187 C 399.635 0.0620523 6.11068 0
M  V30 4188 C 400.633 0.757622 6.78785 0
M  V30 4189 O 400.321 1.48787 7.90011 0
M  V30 4190 H 400.053 -0.208051 0.643188 0
M  V30 4191 H 402.607 0.0167489 2.05393 0
M  V30 4192 H 400.837 -2.31508 3.09744 0
M  V30 4193 H 402.526 -2.11413 3.46496 0
M  V30 4194 H 403.292 -0.0526003 4.84971 0
M  V30 4195 H 399.171 -1.21116 4.44805 0
M  V30 4196 H 402.715 1.25683 6.86185 0
M  V30 4197 H 398.612 0.0913634 6.45435 0
M  V30 4198 H 399.38 1.40213 8.06401 0
M  V30 4199 N 402.043 -1.548 -0.295768 0
M  V30 4200 C 403.006 -1.85363 -1.34808 0
M  V30 4201 C 404.006 -0.726817 -1.43436 0
M  V30 4202 O 405.196 -0.995088 -1.42981 0
M  V30 4203 C 402.328 -2.03859 -2.73229 0
M  V30 4204 H 403.521 -2.7941 -1.08949 0
M  V30 4205 H 401.074 -1.46942 -0.532702 0
M  V30 4206 H 401.809 -1.12117 -3.04303 0
M  V30 4207 H 401.594 -2.8588 -2.68356 0
M  V30 4208 H 403.084 -2.28857 -3.49305 0
M  V30 4209 N 403.521 0.559213 -1.47345 0
M  V30 4210 C 404.932 1.14134 -1.47751 0
M  V30 4211 C 405.283 1.94834 -0.231103 0
M  V30 4212 O 404.408 2.05957 0.664137 0
M  V30 4213 C 405.003 2.07653 -2.67705 0
M  V30 4214 C 403.562 2.61141 -2.71076 0
M  V30 4215 C 402.709 1.3748 -2.40821 0
M  V30 4216 H 405.66 0.345917 -1.54884 0
M  V30 4217 H 405.681 2.91497 -2.44561 0
M  V30 4218 H 405.193 1.4889 -3.58404 0
M  V30 4219 H 403.294 3.23707 -1.84511 0
M  V30 4220 H 403.407 3.02272 -3.7171 0
M  V30 4221 H 401.771 1.68086 -1.91362 0
M  V30 4222 H 402.554 0.805135 -3.33725 0
M  V30 4223 N 404.999 1.35443 0.805782 0
M  V30 4224 C 406.245 1.28952 1.56522 0
M  V30 4225 C 406.578 -0.135597 1.93726 0
M  V30 4226 O 405.853 -1.08516 1.61414 0
M  V30 4227 C 406.136 2.19678 2.85331 0
M  V30 4228 C 405.989 3.7081 2.54598 0
M  V30 4229 C 407.308 2.09495 3.8704 0
M  V30 4230 H 404.427 0.469764 0.567883 0
M  V30 4231 H 407.069 1.65851 0.927001 0
M  V30 4232 H 405.219 1.8834 3.39795 0
M  V30 4233 H 406.891 4.12593 2.06312 0
M  V30 4234 H 405.134 3.91051 1.8778 0
M  V30 4235 H 405.805 4.29679 3.46525 0
M  V30 4236 H 408.281 2.37045 3.41978 0
M  V30 4237 H 407.157 2.75173 4.74943 0
M  V30 4238 H 407.418 1.07714 4.28777 0
M  V30 4239 N 406.477 -1.02803 1.19454 0
M  V30 4240 C 407.726 -1.7562 0.991996 0
M  V30 4241 C 408.039 -1.89672 -0.477901 0
M  V30 4242 O 409.245 -2.59468 -0.799287 0
M  V30 4243 C 407.701 -3.15812 1.72601 0
M  V30 4244 C 407.309 -3.0981 3.23607 0
M  V30 4245 C 409.053 -3.92918 1.60674 0
M  V30 4246 C 406.96 -4.44939 3.89594 0
M  V30 4247 H 405.89 -0.658352 0.367543 0
M  V30 4248 H 408.541 -1.15044 1.42959 0
M  V30 4249 H 406.923 -3.7686 1.21624 0
M  V30 4250 H 408.097 -2.58138 3.81709 0
M  V30 4251 H 406.412 -2.46201 3.35819 0
M  V30 4252 H 409.009 -4.9287 2.07323 0
M  V30 4253 H 409.352 -4.12502 0.561025 0
M  V30 4254 H 409.885 -3.38472 2.09001 0
M  V30 4255 H 406.624 -4.30559 4.94267 0
M  V30 4256 H 406.144 -4.96664 3.36281 0
M  V30 4257 H 407.823 -5.1382 3.93189 0
M  V30 4258 N 407.956 -0.998596 -1.21925 0
M  V30 4259 C 409.181 -0.696015 -1.95372 0
M  V30 4260 C 409.606 0.733826 -1.73195 0
M  V30 4261 O 408.964 1.50242 -1.01474 0
M  V30 4262 C 409.012 -1.01466 -3.4603 0
M  V30 4263 O 408.116 -0.116415 -4.12236 0
M  V30 4264 H 407.457 -0.259938 -0.611006 0
M  V30 4265 H 409.987 -1.33711 -1.54863 0
M  V30 4266 H 409.997 -0.958855 -3.96573 0
M  V30 4267 H 408.672 -2.05653 -3.61497 0
M  V30 4268 H 407.249 -0.228193 -3.72201 0
M  V30 4269 N 409.434 1.37368 -0.772513 0
M  V30 4270 C 410.397 2.28601 -0.165541 0
M  V30 4271 C 411.397 1.48062 0.627238 0
M  V30 4272 O 412.587 1.68268 0.450715 0
M  V30 4273 C 409.719 3.32023 0.772897 0
M  V30 4274 H 410.912 2.83787 -0.969787 0
M  V30 4275 H 408.465 1.46647 -0.540775 0
M  V30 4276 H 409.2 2.81962 1.60212 0
M  V30 4277 H 408.985 3.91555 0.206585 0
M  V30 4278 H 410.475 4.00197 1.19298 0
M  V30 4279 N 410.912 0.523116 1.48665 0
M  V30 4280 C 411.822 -0.247406 2.33292 0
M  V30 4281 C 412.838 -0.945769 1.46052 0
M  V30 4282 O 414.014 -0.922253 1.79043 0
M  V30 4283 C 411.079 -1.28487 3.22012 0
M  V30 4284 C 410.14 -0.597592 4.2512 0
M  V30 4285 C 409.373 -1.58563 5.09601 0
M  V30 4286 O 409.596 -2.81763 4.95949 0
M  V30 4287 O 408.53 -1.12879 5.91221 0
M  V30 4288 H 412.356 0.445869 3.00409 0
M  V30 4289 H 409.941 0.284128 1.46673 0
M  V30 4290 H 411.823 -1.88459 3.7691 0
M  V30 4291 H 410.498 -1.96068 2.57564 0
M  V30 4292 H 409.405 0.0424407 3.74076 0
M  V30 4293 H 410.738 0.0361517 4.92187 0
M  V30 4294 N 412.39 -1.55475 0.257931 0
M  V30 4295 C 413.337 -2.21837 -0.636939 0
M  V30 4296 C 414.307 -1.18596 -1.16294 0
M  V30 4297 O 415.492 -1.47081 -1.21539 0
M  V30 4298 C 412.632 -2.9301 -1.82317 0
M  V30 4299 C 411.745 -4.10931 -1.33265 0
M  V30 4300 C 410.88 -4.69791 -2.47931 0
M  V30 4301 C 409.919 -5.7994 -1.95796 0
M  V30 4302 N 409.056 -6.32935 -3.0387 0
M  V30 4303 H 413.896 -2.9793 -0.0643591 0
M  V30 4304 H 411.433 -1.47086 -0.0200031 0
M  V30 4305 H 413.391 -3.3248 -2.52018 0
M  V30 4306 H 412.021 -2.1937 -2.36805 0
M  V30 4307 H 411.073 -3.76699 -0.52931 0
M  V30 4308 H 412.385 -4.90417 -0.910654 0
M  V30 4309 H 411.539 -5.11892 -3.25656 0
M  V30 4310 H 410.278 -3.89545 -2.93438 0
M  V30 4311 H 409.283 -5.37305 -1.16546 0
M  V30 4312 H 410.508 -6.62043 -1.51246 0
M  V30 4313 H 408.454 -5.55591 -3.48791 0
M  V30 4314 H 408.371 -7.07645 -2.66035 0
M  V30 4315 H 409.639 -6.79695 -3.81621 0
M  V30 4316 N 413.868 0.0150385 -1.57593 0
M  V30 4317 C 414.831 0.995996 -2.06428 0
M  V30 4318 C 415.831 1.2818 -0.970903 0
M  V30 4319 O 417.021 1.22949 -1.23406 0
M  V30 4320 C 414.153 2.32506 -2.49307 0
M  V30 4321 H 415.346 0.573873 -2.94358 0
M  V30 4322 H 412.899 0.262186 -1.54085 0
M  V30 4323 H 413.634 2.79438 -1.64575 0
M  V30 4324 H 413.419 2.13087 -3.29145 0
M  V30 4325 H 414.909 3.02906 -2.87468 0
M  V30 4326 N 415.346 1.54954 0.287554 0
M  V30 4327 C 416.576 1.78622 1.03816 0
M  V30 4328 C 416.984 0.552451 1.80955 0
M  V30 4329 O 416.327 -0.487665 1.77109 0
M  V30 4330 C 416.389 2.94975 2.055 0
M  V30 4331 C 416.053 4.32565 1.47433 0
M  V30 4332 C 417.05 5.12096 0.897436 0
M  V30 4333 C 414.735 4.79195 1.50591 0
M  V30 4334 C 416.729 6.36383 0.359851 0
M  V30 4335 C 414.416 6.03441 0.964459 0
M  V30 4336 C 415.414 6.81872 0.392413 0
M  V30 4337 O 415.102 8.03777 -0.140788 0
M  V30 4338 H 414.834 0.599144 0.313053 0
M  V30 4339 H 417.388 2.02761 0.328225 0
M  V30 4340 H 415.618 2.66493 2.80211 0
M  V30 4341 H 417.307 3.06097 2.6657 0
M  V30 4342 H 418.073 4.77209 0.865841 0
M  V30 4343 H 413.952 4.18167 1.94055 0
M  V30 4344 H 417.496 6.97545 -0.0872951 0
M  V30 4345 H 413.393 6.37813 0.993246 0
M  V30 4346 H 414.161 8.18495 -0.0287617 0
M  V30 4347 N 416.824 -0.551391 1.4764 0
M  V30 4348 C 417.774 -1.65362 1.56969 0
M  V30 4349 C 418.758 -1.55098 0.428189 0
M  V30 4350 O 419.95 -1.63481 0.678441 0
M  V30 4351 C 417.079 -3.04129 1.59249 0
M  V30 4352 C 416.165 -3.19576 2.78804 0
M  V30 4353 N 416.556 -3.05067 4.03445 0
M  V30 4354 C 414.854 -3.50588 2.75688 0
M  V30 4355 C 415.555 -3.2336 4.83543 0
M  V30 4356 N 414.531 -3.4996 4.15968 0
M  V30 4357 H 418.333 -1.52722 2.51104 0
M  V30 4358 H 415.847 -0.756303 1.43714 0
M  V30 4359 H 417.844 -3.83278 1.64024 0
M  V30 4360 H 416.504 -3.17877 0.662148 0
M  V30 4361 H 417.515 -2.82273 4.34215 0
M  V30 4362 H 414.192 -3.70827 1.91817 0
M  V30 4363 H 415.582 -3.17061 5.92387 0
M  V30 4364 N 418.302 -1.35869 -0.798587 0
M  V30 4365 C 419.212 -1.31578 -1.94228 0
M  V30 4366 C 420.228 -0.21939 -1.72611 0
M  V30 4367 O 421.404 -0.450167 -1.96305 0
M  V30 4368 C 418.469 -1.09528 -3.28944 0
M  V30 4369 C 417.53 -2.28556 -3.63402 0
M  V30 4370 C 416.763 -2.07549 -4.9169 0
M  V30 4371 O 416.986 -1.046 -5.60727 0
M  V30 4372 O 415.92 -2.95106 -5.24591 0
M  V30 4373 H 419.746 -2.27847 -2.00796 0
M  V30 4374 H 417.331 -1.16322 -0.937526 0
M  V30 4375 H 419.213 -0.991127 -4.09579 0
M  V30 4376 H 417.888 -0.16315 -3.23289 0
M  V30 4377 H 416.795 -2.44538 -2.83112 0
M  V30 4378 H 418.128 -3.20244 -3.73771 0
M  V30 4379 N 419.78 1.02168 -1.19998 0
M  V30 4380 C 420.712 2.10705 -0.901994 0
M  V30 4381 C 421.725 1.6244 0.108216 0
M  V30 4382 O 422.914 1.78082 -0.12214 0
M  V30 4383 C 420.014 3.37291 -0.329834 0
M  V30 4384 C 419.187 4.14714 -1.39035 0
M  V30 4385 C 418.246 5.19606 -0.830432 0
M  V30 4386 O 417.272 5.48809 -1.50989 0
M  V30 4387 N 418.474 5.79366 0.362696 0
M  V30 4388 H 421.239 2.36856 -1.83628 0
M  V30 4389 H 418.8 1.18518 -1.10296 0
M  V30 4390 H 420.792 4.04657 0.0587633 0
M  V30 4391 H 419.362 3.0843 0.508891 0
M  V30 4392 H 418.582 3.42392 -1.9535 0
M  V30 4393 H 419.87 4.63226 -2.10474 0
M  V30 4394 H 419.268 5.57968 0.932081 0
M  V30 4395 H 417.825 6.48106 0.69299 0
M  V30 4396 N 421.258 1.00505 1.21394 0
M  V30 4397 C 422.188 0.585684 2.26035 0
M  V30 4398 C 423.169 -0.393525 1.65485 0
M  V30 4399 O 424.354 -0.281497 1.92149 0
M  V30 4400 C 421.484 -0.0884283 3.47187 0
M  V30 4401 C 420.438 0.810567 4.20254 0
M  V30 4402 C 419.764 0.00286382 5.347 0
M  V30 4403 C 421.064 2.1132 4.77641 0
M  V30 4404 H 422.758 1.46039 2.61368 0
M  V30 4405 H 420.304 0.703648 1.25638 0
M  V30 4406 H 422.257 -0.393286 4.19561 0
M  V30 4407 H 420.981 -0.997766 3.10986 0
M  V30 4408 H 419.64 1.09925 3.49731 0
M  V30 4409 H 419.288 -0.907765 4.94741 0
M  V30 4410 H 418.988 0.601444 5.84514 0
M  V30 4411 H 420.512 -0.295808 6.09883 0
M  V30 4412 H 421.926 1.87148 5.41893 0
M  V30 4413 H 420.323 2.66164 5.37845 0
M  V30 4414 H 421.393 2.78393 3.9702 0
M  V30 4415 N 422.737 -1.36956 0.779787 0
M  V30 4416 C 423.962 -2.04283 0.358224 0
M  V30 4417 C 424.387 -1.58422 -1.01411 0
M  V30 4418 O 423.745 -0.748179 -1.65142 0
M  V30 4419 C 423.793 -3.58152 0.419479 0
M  V30 4420 O 422.897 -4.08342 -0.577142 0
M  V30 4421 H 422.238 -0.645967 0.153698 0
M  V30 4422 H 424.768 -1.75108 1.05822 0
M  V30 4423 H 424.778 -4.07041 0.279636 0
M  V30 4424 H 423.453 -3.90886 1.42061 0
M  V30 4425 H 422.03 -3.70751 -0.399755 0
M  V30 4426 N 424.215 -0.530993 -1.48385 0
M  V30 4427 C 425.461 0.00274135 -2.028 0
M  V30 4428 C 425.794 1.33838 -1.40716 0
M  V30 4429 O 425.069 1.86465 -0.553277 0
M  V30 4430 C 425.352 0.123676 -3.59888 0
M  V30 4431 C 425.205 -1.2372 -4.3245 0
M  V30 4432 C 426.524 0.849967 -4.31814 0
M  V30 4433 H 423.643 -0.000477758 -0.737 0
M  V30 4434 H 426.285 -0.688217 -1.77098 0
M  V30 4435 H 424.435 0.712157 -3.81917 0
M  V30 4436 H 426.107 -1.86687 -4.21836 0
M  V30 4437 H 424.35 -1.81882 -3.93829 0
M  V30 4438 H 425.021 -1.10557 -5.40815 0
M  V30 4439 H 427.497 0.350572 -4.14621 0
M  V30 4440 H 426.373 0.903486 -5.41413 0
M  V30 4441 H 426.634 1.90047 -3.99167 0
M  V30 4442 N 425.693 1.55336 -0.266172 0
M  V30 4443 C 426.656 2.20878 0.612001 0
M  V30 4444 C 427.656 1.18388 1.08816 0
M  V30 4445 O 428.846 1.4335 0.989774 0
M  V30 4446 C 425.978 2.86765 1.84332 0
M  V30 4447 H 427.171 2.99873 0.0398718 0
M  V30 4448 H 424.724 1.56291 -0.0167309 0
M  V30 4449 H 425.459 2.11759 2.45619 0
M  V30 4450 H 425.244 3.61862 1.5099 0
M  V30 4451 H 426.734 3.36867 2.46801 0
M  V30 4452 N 427.171 -0.0066808 1.57599 0
M  V30 4453 C 428.081 -1.01671 2.11424 0
M  V30 4454 C 429.097 -1.38143 1.05795 0
M  V30 4455 O 430.273 -1.47011 1.37658 0
M  V30 4456 C 427.338 -2.29192 2.60139 0
M  V30 4457 C 426.399 -1.99094 3.80342 0
M  V30 4458 C 425.632 -3.20535 4.26724 0
M  V30 4459 O 425.855 -4.3199 3.72479 0
M  V30 4460 O 424.789 -3.04924 5.18946 0
M  V30 4461 H 428.615 -0.589181 2.9793 0
M  V30 4462 H 426.2 -0.225091 1.47695 0
M  V30 4463 H 428.082 -3.0412 2.917 0
M  V30 4464 H 426.757 -2.71195 1.76733 0
M  V30 4465 H 425.664 -1.21663 3.53764 0
M  V30 4466 H 426.997 -1.61931 4.648 0
M  V30 4467 N 428.649 -1.55105 -0.279332 0
M  V30 4468 C 429.898 -1.74618 -1.00952 0
M  V30 4469 C 430.211 -0.551096 -1.87676 0
M  V30 4470 O 431.417 -0.628507 -2.64125 0
M  V30 4471 C 429.873 -3.09025 -1.84476 0
M  V30 4472 C 429.481 -4.36081 -1.0265 0
M  V30 4473 C 431.225 -3.37891 -2.56963 0
M  V30 4474 C 429.132 -5.6153 -1.85576 0
M  V30 4475 H 428.062 -0.650868 -0.38064 0
M  V30 4476 H 430.713 -1.81569 -0.265475 0
M  V30 4477 H 429.095 -2.96095 -2.62952 0
M  V30 4478 H 430.269 -4.59909 -0.286354 0
M  V30 4479 H 428.584 -4.14312 -0.416464 0
M  V30 4480 H 431.181 -4.28822 -3.19399 0
M  V30 4481 H 431.524 -2.57737 -3.26921 0
M  V30 4482 H 432.057 -3.5189 -1.85522 0
M  V30 4483 H 428.796 -6.44413 -1.2005 0
M  V30 4484 H 428.316 -5.41854 -2.57204 0
M  V30 4485 H 429.995 -5.99594 -2.43096 0
M  V30 4486 N 430.127 0.543554 -1.4793 0
M  V30 4487 C 431.355 1.32516 -1.58894 0
M  V30 4488 C 431.77 1.87215 -0.244131 0
M  V30 4489 O 431.127 1.65709 0.764652 0
M  V30 4490 C 431.178 2.48554 -2.62494 0
M  V30 4491 O 430.899 1.96112 -3.91755 0
M  V30 4492 C 432.4 3.40572 -2.8377 0
M  V30 4493 H 429.62 0.403472 -0.536145 0
M  V30 4494 H 432.164 0.657106 -1.93655 0
M  V30 4495 H 430.319 3.1127 -2.30629 0
M  V30 4496 H 430.733 2.71967 -4.4848 0
M  V30 4497 H 432.207 4.18375 -3.60093 0
M  V30 4498 H 432.684 3.94965 -1.92092 0
M  V30 4499 H 433.29 2.8366 -3.16887 0
M  V30 4500 N 431.605 1.3629 0.791371 0
M  V30 4501 C 432.553 1.30514 1.92533 0
M  V30 4502 C 433.547 0.197285 1.68247 0
M  V30 4503 O 434.753 0.364176 1.76278 0
M  V30 4504 H 431.128 0.406263 0.632815 0
M  V30 4505 H 433.099 2.26282 1.94523 0
M  V30 4506 C 431.848 1.10933 3.29529 0
M  V30 4507 H 431.171 1.95427 3.48781 0
M  V30 4508 H 432.611 1.10937 4.0923 0
M  V30 4509 C 431.07 -0.186123 3.36385 0
M  V30 4510 O 431.6 -1.17664 3.84081 0
M  V30 4511 N 429.806 -0.230128 2.89687 0
M  V30 4512 H 429.353 0.576545 2.51065 0
M  V30 4513 H 429.311 -1.09658 2.94657 0
M  V30 4514 N 433.083 -1.0153 1.20538 0
M  V30 4515 C 434.046 -2.0826 0.957098 0
M  V30 4516 C 435.046 -1.60657 -0.0678655 0
M  V30 4517 O 436.236 -1.73385 0.168332 0
M  V30 4518 C 433.368 -3.38033 0.441188 0
M  V30 4519 H 434.561 -2.31719 1.90384 0
M  V30 4520 H 432.114 -1.1835 1.02093 0
M  V30 4521 H 432.849 -3.20249 -0.510961 0
M  V30 4522 H 432.634 -3.73911 1.18038 0
M  V30 4523 H 434.124 -4.16613 0.287009 0
M  V30 4524 N 434.561 -1.01147 -1.20859 0
M  V30 4525 C 435.801 -0.706331 -1.91808 0
M  V30 4526 C 436.165 0.749736 -1.76757 0
M  V30 4527 O 437.366 1.16716 -2.42138 0
M  V30 4528 C 435.637 -1.12371 -3.39275 0
M  V30 4529 S 437.196 -0.939764 -4.28619 0
M  V30 4530 H 434.014 -0.257665 -0.662669 0
M  V30 4531 H 436.616 -1.29766 -1.46223 0
M  V30 4532 H 435.32 -2.17943 -3.47749 0
M  V30 4533 H 434.851 -0.524952 -3.89882 0
M  V30 4534 H 436.866 0.159556 -4.95943 0
M  V30 4535 N 436.039 1.36541 -0.78704 0
M  V30 4536 C 437.286 1.99304 -0.358341 0
M  V30 4537 C 437.614 1.62467 1.06933 0
M  V30 4538 O 436.869 0.870019 1.75297 0
M  V30 4539 C 437.168 3.54343 -0.466485 0
M  V30 4540 C 436.834 4.10993 -1.85461 0
M  V30 4541 C 435.496 4.26177 -2.23443 0
M  V30 4542 C 437.848 4.41895 -2.76366 0
M  V30 4543 C 435.176 4.69573 -3.51736 0
M  V30 4544 C 437.528 4.86722 -4.04084 0
M  V30 4545 C 436.192 5.00112 -4.42091 0
M  V30 4546 H 435.462 0.729306 -0.131126 0
M  V30 4547 H 438.109 1.63068 -1.00404 0
M  V30 4548 H 436.414 3.90918 0.262719 0
M  V30 4549 H 438.111 4.00833 -0.115854 0
M  V30 4550 H 434.701 3.99612 -1.54946 0
M  V30 4551 H 438.885 4.29735 -2.48277 0
M  V30 4552 H 434.141 4.78127 -3.81057 0
M  V30 4553 H 438.315 5.09598 -4.7464 0
M  V30 4554 H 435.942 5.33498 -5.41557 0
M  V30 4555 N 437.518 0.538854 1.48102 0
M  V30 4556 C 438.428 -0.222648 2.33541 0
M  V30 4557 C 439.444 -0.930225 1.47047 0
M  V30 4558 O 440.62 -0.903211 1.80011 0
M  V30 4559 C 437.685 -1.25064 3.23357 0
M  V30 4560 C 436.746 -0.552469 4.2573 0
M  V30 4561 C 435.979 -1.53149 5.11254 0
M  V30 4562 O 436.202 -2.76487 4.9891 0
M  V30 4563 O 435.136 -1.06602 5.92385 0
M  V30 4564 H 438.962 0.477707 2.99919 0
M  V30 4565 H 436.547 0.299669 1.46364 0
M  V30 4566 H 438.429 -1.8445 3.78888 0
M  V30 4567 H 437.104 -1.93325 2.59629 0
M  V30 4568 H 436.011 0.082114 3.7401 0
M  V30 4569 H 437.344 0.0883526 4.92121 0
M  V30 4570 N 438.996 -1.55193 0.274407 0
M  V30 4571 C 440.407 -1.85358 -0.223488 0
M  V30 4572 C 440.758 -1.19642 -1.555 0
M  V30 4573 O 439.883 -0.484498 -2.10907 0
M  V30 4574 C 440.478 -3.36282 -0.412285 0
M  V30 4575 C 439.037 -3.66574 -0.854413 0
M  V30 4576 C 438.184 -2.7725 0.0527056 0
M  V30 4577 H 441.135 -1.50743 0.496215 0
M  V30 4578 H 441.156 -3.59349 -1.25094 0
M  V30 4579 H 440.668 -3.84083 0.556965 0
M  V30 4580 H 438.769 -3.24273 -1.83516 0
M  V30 4581 H 438.882 -4.74073 -0.692226 0
M  V30 4582 H 437.246 -2.50447 -0.463484 0
M  V30 4583 H 438.029 -3.27865 1.01783 0
M  V30 4584 N 440.474 -0.00167713 -1.576 0
M  V30 4585 C 441.437 0.974046 -2.07473 0
M  V30 4586 C 442.437 1.27143 -0.984444 0
M  V30 4587 O 443.627 1.21633 -1.24703 0
M  V30 4588 C 440.759 2.29849 -2.51759 0
M  V30 4589 H 441.952 0.54262 -2.9495 0
M  V30 4590 H 439.505 0.245829 -1.54355 0
M  V30 4591 H 440.24 2.77677 -1.67529 0
M  V30 4592 H 440.025 2.09584 -3.31386 0
M  V30 4593 H 441.515 2.9984 -2.90664 0
M  V30 4594 N 441.952 1.55251 0.271103 0
M  V30 4595 C 442.9 1.89054 1.35504 0
M  V30 4596 C 443.894 0.767064 1.51038 0
M  V30 4597 O 445.1 0.951429 1.528 0
M  V30 4598 H 441.475 0.600072 0.45323 0
M  V30 4599 H 443.446 2.79598 1.04247 0
M  V30 4600 C 442.195 2.18068 2.70817 0
M  V30 4601 H 441.518 3.04005 2.59656 0
M  V30 4602 H 442.958 2.4564 3.45597 0
M  V30 4603 C 441.417 0.988901 3.2206 0
M  V30 4604 O 441.947 0.224501 4.01072 0
M  V30 4605 N 440.153 0.786085 2.79766 0
M  V30 4606 H 439.7 1.40937 2.15626 0
M  V30 4607 H 439.658 -0.00969349 3.14399 0
M  V30 4608 N 443.43 -0.535701 1.48216 0
M  V30 4609 C 444.362 -1.65662 1.58394 0
M  V30 4610 C 445.375 -1.5591 0.468607 0
M  V30 4611 O 446.564 -1.62475 0.7392 0
M  V30 4612 C 443.664 -3.04276 1.4923 0
M  V30 4613 C 442.837 -3.39567 2.75705 0
M  V30 4614 C 441.896 -4.57436 2.60075 0
M  V30 4615 O 440.922 -4.60942 3.33948 0
M  V30 4616 N 442.124 -5.55259 1.69315 0
M  V30 4617 H 444.889 -1.5737 2.55058 0
M  V30 4618 H 442.45 -0.722845 1.44867 0
M  V30 4619 H 444.442 -3.80994 1.36477 0
M  V30 4620 H 443.012 -3.06677 0.605632 0
M  V30 4621 H 442.232 -2.52083 3.03064 0
M  V30 4622 H 443.52 -3.59929 3.59623 0
M  V30 4623 H 442.918 -5.552 1.08489 0
M  V30 4624 H 441.475 -6.31218 1.62504 0
M  V30 4625 N 444.908 -1.36708 -0.784132 0
M  V30 4626 C 445.841 -1.25827 -1.90375 0
M  V30 4627 C 446.819 -0.141331 -1.61985 0
M  V30 4628 O 448.003 -0.313389 -1.85877 0
M  V30 4629 C 445.13 -0.942621 -3.25319 0
M  V30 4630 C 444.176 -2.07474 -3.72635 0
M  V30 4631 S 445.009 -3.69317 -3.8777 0
M  V30 4632 C 446.165 -3.39876 -5.25581 0
M  V30 4633 H 446.398 -2.20593 -1.99314 0
M  V30 4634 H 443.931 -1.22186 -0.943926 0
M  V30 4635 H 445.889 -0.767321 -4.03265 0
M  V30 4636 H 444.55 -0.0126566 -3.14097 0
M  V30 4637 H 443.743 -1.80858 -4.70432 0
M  V30 4638 H 443.345 -2.20953 -3.01754 0
M  V30 4639 H 445.637 -2.94097 -6.10339 0
M  V30 4640 H 446.58 -4.36956 -5.57203 0
M  V30 4641 H 446.988 -2.75098 -4.92931 0
M  V30 4642 N 446.386 1.0089 -1.21074 0
M  V30 4643 C 447.632 1.74866 -1.02712 0
M  V30 4644 C 447.965 1.89178 0.438787 0
M  V30 4645 O 447.24 1.42325 1.32567 0
M  V30 4646 C 447.523 3.16347 -1.72036 0
M  V30 4647 C 447.376 3.09782 -3.26121 0
M  V30 4648 C 448.695 4.15187 -1.45973 0
M  V30 4649 H 445.814 0.634736 -0.374539 0
M  V30 4650 H 448.456 1.17646 -1.49196 0
M  V30 4651 H 446.606 3.65201 -1.32517 0
M  V30 4652 H 448.278 2.68673 -3.74983 0
M  V30 4653 H 446.521 2.46982 -3.56626 0
M  V30 4654 H 447.192 4.09829 -3.6979 0
M  V30 4655 H 449.668 3.75022 -1.80272 0
M  V30 4656 H 448.544 5.12331 -1.96999 0
M  V30 4657 H 448.805 4.40386 -0.388924 0
M  V30 4658 N 447.864 1.01787 1.20321 0
M  V30 4659 C 448.811 0.589197 2.23153 0
M  V30 4660 C 449.781 -0.391367 1.61423 0
M  V30 4661 O 450.966 -0.290518 1.88575 0
M  V30 4662 C 448.106 -0.0650747 3.45039 0
M  V30 4663 C 447.219 0.960207 4.21194 0
M  V30 4664 C 446.354 0.276854 5.30478 0
M  V30 4665 C 445.393 1.2888 5.98378 0
M  V30 4666 N 444.53 0.632031 6.99249 0
M  V30 4667 H 449.37 1.47071 2.59179 0
M  V30 4668 H 446.907 0.736192 1.27352 0
M  V30 4669 H 448.865 -0.461552 4.14639 0
M  V30 4670 H 447.495 -0.910233 3.09701 0
M  V30 4671 H 446.547 1.47484 3.50646 0
M  V30 4672 H 447.859 1.72977 4.67847 0
M  V30 4673 H 447.013 -0.175056 6.06447 0
M  V30 4674 H 445.752 -0.525004 4.84866 0
M  V30 4675 H 444.757 1.75109 5.21169 0
M  V30 4676 H 445.982 2.09196 6.46076 0
M  V30 4677 H 443.928 -0.149935 6.55829 0
M  V30 4678 H 443.845 1.33964 7.44036 0
M  V30 4679 H 445.113 0.203755 7.79234 0
M  V30 4680 N 449.342 -1.36122 0.79427 0
M  V30 4681 C 450.582 -2.00942 0.374376 0
M  V30 4682 C 450.946 -1.61666 -1.03577 0
M  V30 4683 O 452.147 -2.19113 -1.55701 0
M  V30 4684 C 450.418 -3.53323 0.538327 0
M  V30 4685 S 451.977 -4.38311 0.20703 0
M  V30 4686 H 448.795 -0.696515 0.142785 0
M  V30 4687 H 451.397 -1.65929 1.03382 0
M  V30 4688 H 450.101 -3.79395 1.56484 0
M  V30 4689 H 449.632 -3.93162 -0.136882 0
M  V30 4690 H 451.647 -4.8623 -0.989695 0
M  V30 4691 N 450.82 -0.546701 -1.47814 0
M  V30 4692 C 452.097 0.0464413 -1.95545 0
M  V30 4693 C 452.477 1.4962 -1.48919 0
M  V30 4694 O 451.825 2.16752 -0.723232 0
M  V30 4695 C 452.035 -0.0881298 -3.48889 0
M  V30 4696 C 453.383 0.0626059 -4.24554 0
M  V30 4697 O 454.407 -0.0151555 -3.56197 0
M  V30 4698 O 453.266 0.228071 -5.46024 0
M  V30 4699 H 450.36 0.0700004 -0.824032 0
M  V30 4700 H 452.906 -0.612482 -1.58262 0
M  V30 4701 H 451.678 -1.09737 -3.75597 0
M  V30 4702 H 451.301 0.608886 -3.9291 0
M  V30 4703 N 452.299 1.55045 -0.282633 0
M  V30 4704 C 453.71 1.85473 0.213655 0
M  V30 4705 C 454.061 1.20465 1.54863 0
M  V30 4706 O 453.186 0.495676 2.10647 0
M  V30 4707 C 453.781 3.36496 0.394445 0
M  V30 4708 C 452.34 3.67022 0.834961 0
M  V30 4709 C 451.487 2.77218 -0.0674081 0
M  V30 4710 H 454.438 1.50478 -0.504202 0
M  V30 4711 H 454.459 3.60007 1.23186 0
M  V30 4712 H 453.971 3.83782 -0.577326 0
M  V30 4713 H 452.072 3.25241 1.81794 0
M  V30 4714 H 452.185 4.74433 0.667075 0
M  V30 4715 H 450.549 2.5069 0.450196 0
M  V30 4716 H 451.332 3.2732 -1.0352 0
M  V30 4717 N 453.777 0.010035 1.57597 0
M  V30 4718 C 455.193 -0.346164 1.55801 0
M  V30 4719 C 455.393 -1.74144 1.01371 0
M  V30 4720 O 454.449 -2.43938 0.651968 0
M  V30 4721 C 455.762 -0.212216 2.9995 0
M  V30 4722 C 457.31 -0.286409 3.11687 0
M  V30 4723 C 457.785 -0.18147 4.5764 0
M  V30 4724 N 459.276 -0.239056 4.62583 0
M  V30 4725 C 460.011 -0.181351 5.73113 0
M  V30 4726 N 459.507 -0.073661 6.92761 0
M  V30 4727 N 461.3 -0.233949 5.61613 0
M  V30 4728 H 453.451 0.922657 1.91313 0
M  V30 4729 H 455.714 0.354595 0.879185 0
M  V30 4730 H 455.42 0.748169 3.4365 0
M  V30 4731 H 455.294 -0.990224 3.6397 0
M  V30 4732 H 457.681 -1.23724 2.67911 0
M  V30 4733 H 457.762 0.521645 2.50425 0
M  V30 4734 H 457.406 0.765863 5.02093 0
M  V30 4735 H 457.336 -1.00814 5.1686 0
M  V30 4736 H 459.827 -0.32321 3.76515 0
M  V30 4737 H 460.14 -0.0358003 7.72792 0
M  V30 4738 H 458.485 -0.0391461 6.94989 0
M  V30 4739 H 461.676 -0.316347 4.6703 0
M  V30 4740 H 461.849 -0.185514 6.47734 0
M  V30 4741 N 455.255 -1.55392 -0.262866 0
M  V30 4742 C 456.205 -1.85355 -1.32768 0
M  V30 4743 C 457.189 -0.713188 -1.44231 0
M  V30 4744 O 458.381 -0.974765 -1.47741 0
M  V30 4745 C 455.51 -2.13781 -2.68612 0
M  V30 4746 C 454.596 -3.34104 -2.61219 0
M  V30 4747 N 454.987 -4.53766 -2.2345 0
M  V30 4748 C 453.285 -3.36895 -2.92263 0
M  V30 4749 C 453.986 -5.35877 -2.26298 0
M  V30 4750 N 452.962 -4.74536 -2.65172 0
M  V30 4751 H 456.764 -2.75413 -1.02591 0
M  V30 4752 H 454.278 -1.55405 -0.471503 0
M  V30 4753 H 456.275 -2.33407 -3.45437 0
M  V30 4754 H 454.935 -1.25013 -2.99669 0
M  V30 4755 H 455.946 -4.79682 -1.95258 0
M  V30 4756 H 452.623 -2.58351 -3.27965 0
M  V30 4757 H 454.013 -6.41577 -1.99572 0
M  V30 4758 N 456.733 0.527833 -1.48498 0
M  V30 4759 C 457.981 1.28101 -1.56316 0
M  V30 4760 C 458.302 1.9352 -0.239781 0
M  V30 4761 O 457.572 1.81433 0.738849 0
M  V30 4762 H 456.152 0.475793 -0.575873 0
M  V30 4763 H 458.814 0.614052 -1.84974 0
M  V30 4764 H 457.91 2.05916 -2.34532 0
M  V30 4765 N 458.211 1.37122 0.776871 0
M  V30 4766 C 459.158 1.3247 1.88998 0
M  V30 4767 C 460.128 0.191143 1.64997 0
M  V30 4768 O 461.313 0.379683 1.86984 0
M  V30 4769 C 458.453 1.13241 3.25992 0
M  V30 4770 C 457.566 2.35782 3.61982 0
M  V30 4771 C 456.701 2.09465 4.88158 0
M  V30 4772 C 455.74 3.279 5.16864 0
M  V30 4773 N 454.877 3.01167 6.34226 0
M  V30 4774 H 459.717 2.27642 1.9231 0
M  V30 4775 H 457.254 1.13125 0.94027 0
M  V30 4776 H 459.212 1.00115 4.0501 0
M  V30 4777 H 457.842 0.217186 3.22069 0
M  V30 4778 H 456.894 2.59666 2.77989 0
M  V30 4779 H 458.206 3.24125 3.79137 0
M  V30 4780 H 457.36 1.93341 5.75069 0
M  V30 4781 H 456.099 1.18452 4.73097 0
M  V30 4782 H 455.104 3.44569 4.2843 0
M  V30 4783 H 456.329 4.19757 5.33836 0
M  V30 4784 H 454.275 2.12779 6.20533 0
M  V30 4785 H 454.192 3.83052 6.51772 0
M  V30 4786 H 455.46 2.88649 7.24087 0
M  V30 4787 N 459.689 -1.00246 1.21608 0
M  V30 4788 C 460.919 -1.77373 1.05935 0
M  V30 4789 C 461.327 -1.85059 -0.393686 0
M  V30 4790 O 460.67 -1.31289 -1.28487 0
M  V30 4791 C 460.732 -3.22705 1.58435 0
M  V30 4792 C 460.396 -3.38591 3.06929 0
M  V30 4793 C 461.393 -3.2667 4.04454 0
M  V30 4794 C 459.078 -3.6395 3.46187 0
M  V30 4795 C 461.072 -3.39877 5.39224 0
M  V30 4796 C 458.759 -3.768 4.81108 0
M  V30 4797 C 459.757 -3.6477 5.77436 0
M  V30 4798 O 459.445 -3.77206 7.09909 0
M  V30 4799 H 459.177 -0.56419 0.372378 0
M  V30 4800 H 461.731 -1.26971 1.61454 0
M  V30 4801 H 459.961 -3.74255 0.973147 0
M  V30 4802 H 461.65 -3.81515 1.38568 0
M  V30 4803 H 462.416 -3.06999 3.75468 0
M  V30 4804 H 458.295 -3.72395 2.71741 0
M  V30 4805 H 461.839 -3.30404 6.14393 0
M  V30 4806 H 457.736 -3.95975 5.09779 0
M  V30 4807 H 458.504 -3.94138 7.17355 0
M  V30 4808 N 461.167 -1.02423 -1.1978 0
M  V30 4809 C 462.1 -0.545641 -2.21581 0
M  V30 4810 C 463.078 0.411024 -1.57319 0
M  V30 4811 O 464.262 0.329223 -1.85603 0
M  V30 4812 C 461.389 0.204973 -3.38079 0
M  V30 4813 C 460.435 -0.70241 -4.20676 0
M  V30 4814 S 461.268 -2.17595 -4.89298 0
M  V30 4815 C 462.424 -1.43572 -6.09211 0
M  V30 4816 H 462.657 -1.4082 -2.61834 0
M  V30 4817 H 460.19 -0.833771 -1.29952 0
M  V30 4818 H 462.148 0.631924 -4.05607 0
M  V30 4819 H 460.809 1.0432 -2.9627 0
M  V30 4820 H 460.002 -0.123193 -5.03849 0
M  V30 4821 H 459.604 -1.06747 -3.58442 0
M  V30 4822 H 461.896 -0.719806 -6.73665 0
M  V30 4823 H 462.839 -2.24388 -6.71607 0
M  V30 4824 H 463.247 -0.935252 -5.56699 0
M  V30 4825 N 462.645 1.35699 -0.801477 0
M  V30 4826 C 463.608 2.28199 -0.213994 0
M  V30 4827 C 464.608 1.49359 0.595691 0
M  V30 4828 O 465.798 1.69186 0.414921 0
M  V30 4829 C 462.93 3.33587 0.702297 0
M  V30 4830 H 464.123 2.81666 -1.02976 0
M  V30 4831 H 461.676 1.45467 -0.571759 0
M  V30 4832 H 462.411 2.85297 1.54195 0
M  V30 4833 H 462.196 3.91906 0.123484 0
M  V30 4834 H 463.686 4.02638 1.10783 0
M  V30 4835 N 464.123 0.554532 1.47522 0
M  V30 4836 C 465.363 0.0317994 2.04375 0
M  V30 4837 C 465.727 -1.29242 1.41988 0
M  V30 4838 O 466.928 -1.90269 1.89872 0
M  V30 4839 C 465.199 -0.0623344 3.57346 0
M  V30 4840 S 466.758 -0.531578 4.35568 0
M  V30 4841 H 463.576 0.0238553 0.7106 0
M  V30 4842 H 466.178 0.74066 1.80927 0
M  V30 4843 H 464.882 0.905857 4.00278 0
M  V30 4844 H 464.413 -0.794831 3.85287 0
M  V30 4845 H 466.428 -1.79175 4.62721 0
M  V30 4846 N 465.601 -1.54893 0.290851 0
M  V30 4847 C 466.841 -2.01842 -0.322388 0
M  V30 4848 C 467.205 -1.17477 -1.51865 0
M  V30 4849 O 468.406 -1.54077 -2.20258 0
M  V30 4850 C 466.677 -3.50874 -0.679844 0
M  V30 4851 S 468.236 -4.19796 -1.27739 0
M  V30 4852 H 465.054 -0.704005 -0.0994866 0
M  V30 4853 H 467.656 -1.91015 0.416358 0
M  V30 4854 H 466.36 -4.09915 0.199435 0
M  V30 4855 H 465.891 -3.65717 -1.44964 0
M  V30 4856 H 467.906 -4.24729 -2.56554 0
M  V30 4857 N 467.08 -0.0183926 -1.57589 0
M  V30 4858 C 468.01 0.965596 -2.12599 0
M  V30 4859 C 468.991 1.34641 -1.0395 0
M  V30 4860 O 470.176 1.42693 -1.31729 0
M  V30 4861 C 467.306 2.25149 -2.64434 0
M  V30 4862 C 466.26 2.01175 -3.77773 0
M  V30 4863 C 465.586 3.35937 -4.15994 0
M  V30 4864 C 466.886 1.35953 -5.04296 0
M  V30 4865 H 468.58 0.507504 -2.95067 0
M  V30 4866 H 466.126 0.242671 -1.41941 0
M  V30 4867 H 468.079 2.94357 -3.01549 0
M  V30 4868 H 466.803 2.73105 -1.79112 0
M  V30 4869 H 465.462 1.34388 -3.4108 0
M  V30 4870 H 465.11 3.81631 -3.27669 0
M  V30 4871 H 464.81 3.20705 -4.92364 0
M  V30 4872 H 466.334 4.0643 -4.55683 0
M  V30 4873 H 467.748 1.95144 -5.39065 0
M  V30 4874 H 466.145 1.31152 -5.85593 0
M  V30 4875 H 467.215 0.331071 -4.83768 0
M  V30 4876 N 468.558 1.5553 0.254621 0
M  V30 4877 C 469.488 1.9268 1.31897 0
M  V30 4878 C 470.469 0.790797 1.506 0
M  V30 4879 O 471.654 1.05045 1.63337 0
M  V30 4880 C 468.784 2.21477 2.67517 0
M  V30 4881 C 467.738 3.37256 2.63519 0
M  V30 4882 C 467.064 3.51576 4.02862 0
M  V30 4883 C 468.364 4.73157 2.21179 0
M  V30 4884 H 470.058 2.81832 1.01051 0
M  V30 4885 H 467.604 1.35599 0.484662 0
M  V30 4886 H 469.557 2.46055 3.42104 0
M  V30 4887 H 468.281 1.29144 2.99982 0
M  V30 4888 H 466.94 3.12675 1.9139 0
M  V30 4889 H 466.588 2.56676 4.32581 0
M  V30 4890 H 466.288 4.2943 4.01078 0
M  V30 4891 H 467.812 3.78467 4.79161 0
M  V30 4892 H 469.226 4.97158 2.85494 0
M  V30 4893 H 467.623 5.54058 2.30521 0
M  V30 4894 H 468.693 4.70739 1.16332 0
M  V30 4895 N 470.036 -0.519951 1.48776 0
M  V30 4896 C 471.266 -1.29783 1.60748 0
M  V30 4897 C 471.674 -1.87253 0.27072 0
M  V30 4898 O 471.017 -1.67628 -0.751438 0
M  V30 4899 C 471.079 -2.47984 2.60277 0
M  V30 4900 C 470.743 -2.11526 4.051 0
M  V30 4901 C 471.74 -1.66608 4.92481 0
M  V30 4902 C 469.425 -2.21742 4.50706 0
M  V30 4903 C 471.419 -1.32384 6.23501 0
M  V30 4904 C 469.106 -1.87129 5.81744 0
M  V30 4905 C 470.104 -1.42523 6.67964 0
M  V30 4906 O 469.792 -1.0837 7.96562 0
M  V30 4907 H 469.524 -0.400562 0.544542 0
M  V30 4908 H 472.078 -0.632879 1.95407 0
M  V30 4909 H 470.308 -3.17493 2.2076 0
M  V30 4910 H 471.997 -3.10036 2.61978 0
M  V30 4911 H 472.763 -1.58178 4.58481 0
M  V30 4912 H 468.642 -2.55415 3.83776 0
M  V30 4913 H 472.186 -0.974949 6.90754 0
M  V30 4914 H 468.083 -1.95204 6.15277 0
M  V30 4915 H 468.851 -1.21681 8.09405 0
M  V30 4916 N 471.514 -1.37532 -0.769588 0
M  V30 4917 C 472.93 -1.18379 -1.07045 0
M  V30 4918 C 473.13 -0.0214312 -2.01489 0
M  V30 4919 O 472.186 0.637809 -2.44312 0
M  V30 4920 C 473.499 -2.50338 -1.66588 0
M  V30 4921 C 475.047 -2.56879 -1.78835 0
M  V30 4922 C 475.522 -3.88974 -2.41792 0
M  V30 4923 N 477.013 -3.90428 -2.4924 0
M  V30 4924 C 477.748 -4.89388 -2.98809 0
M  V30 4925 N 477.244 -5.98745 -3.48535 0
M  V30 4926 N 479.037 -4.76791 -2.97703 0
M  V30 4927 H 471.188 -2.11921 -0.142541 0
M  V30 4928 H 473.451 -0.939608 -0.125863 0
M  V30 4929 H 473.157 -3.35767 -1.0466 0
M  V30 4930 H 473.031 -2.67583 -2.65856 0
M  V30 4931 H 475.418 -1.71856 -2.39895 0
M  V30 4932 H 475.499 -2.43516 -0.783166 0
M  V30 4933 H 475.143 -4.74412 -1.81371 0
M  V30 4934 H 475.073 -3.99641 -3.4292 0
M  V30 4935 H 477.564 -3.11433 -2.14052 0
M  V30 4936 H 477.877 -6.70205 -3.84767 0
M  V30 4937 H 476.222 -6.02387 -3.46634 0
M  V30 4938 H 479.413 -3.90478 -2.58157 0
M  V30 4939 H 479.586 -5.54069 -3.36024 0
M  V30 4940 N 472.992 0.995999 -1.22138 0
M  V30 4941 C 474.24 1.73167 -1.042 0
M  V30 4942 C 474.561 1.90329 0.42423 0
M  V30 4943 O 473.831 1.4607 1.30539 0
M  V30 4944 H 472.411 0.641593 -0.38258 0
M  V30 4945 H 475.073 1.19974 -1.53598 0
M  V30 4946 H 474.169 2.72734 -1.51731 0
M  V30 4947 N 474.47 1.03057 1.19235 0
M  V30 4948 C 475.747 0.642608 1.84743 0
M  V30 4949 C 476.127 -0.878577 1.91948 0
M  V30 4950 O 475.475 -1.77597 1.43776 0
M  V30 4951 C 475.685 1.30665 3.23616 0
M  V30 4952 C 477.033 1.43098 3.9976 0
M  V30 4953 O 478.057 1.26396 3.3302 0
M  V30 4954 O 476.916 1.70223 5.19313 0
M  V30 4955 H 474.01 0.223573 0.796206 0
M  V30 4956 H 476.556 1.12883 1.26711 0
M  V30 4957 H 475.328 2.34544 3.13217 0
M  V30 4958 H 474.951 0.808405 3.89295 0
M  V30 4959 N 475.948 -1.35272 0.808662 0
M  V30 4960 C 477.194 -1.99003 0.390581 0
M  V30 4961 C 477.527 -1.63999 -1.0401 0
M  V30 4962 O 476.802 -0.904368 -1.72196 0
M  V30 4963 C 477.085 -3.55454 0.576566 0
M  V30 4964 C 476.938 -4.00249 2.05233 0
M  V30 4965 C 478.257 -4.401 0.00354277 0
M  V30 4966 H 475.376 -0.722917 0.143388 0
M  V30 4967 H 478.018 -1.6039 1.01858 0
M  V30 4968 H 476.168 -3.88477 0.0419766 0
M  V30 4969 H 477.84 -3.77626 2.64946 0
M  V30 4970 H 476.083 -3.51082 2.54801 0
M  V30 4971 H 476.754 -5.0911 2.13333 0
M  V30 4972 H 479.23 -4.13548 0.460117 0
M  V30 4973 H 478.106 -5.48656 0.163575 0
M  V30 4974 H 478.367 -4.28444 -1.09032 0
M  V30 4975 N 477.426 -0.562348 -1.47226 0
M  V30 4976 C 478.672 -0.0402761 -2.0276 0
M  V30 4977 C 479.005 1.30823 -1.43523 0
M  V30 4978 O 478.28 1.85249 -0.592705 0
M  V30 4979 C 478.563 0.047311 -3.60069 0
M  V30 4980 C 478.416 -1.32865 -4.29729 0
M  V30 4981 C 479.735 0.758182 -4.3352 0
M  V30 4982 H 476.854 -0.0161105 -0.736824 0
M  V30 4983 H 479.496 -0.725628 -1.75598 0
M  V30 4984 H 477.646 0.630986 -3.83342 0
M  V30 4985 H 479.318 -1.95593 -4.17781 0
M  V30 4986 H 477.561 -1.90195 -3.89882 0
M  V30 4987 H 478.232 -1.22004 -5.38349 0
M  V30 4988 H 480.708 0.262546 -4.15271 0
M  V30 4989 H 479.584 0.78844 -5.43208 0
M  V30 4990 H 479.845 1.81537 -4.03109 0
M  V30 4991 N 478.904 1.54736 -0.299062 0
M  V30 4992 C 480.315 1.8569 0.193971 0
M  V30 4993 C 480.666 1.22101 1.53577 0
M  V30 4994 O 479.791 0.51799 2.10109 0
M  V30 4995 C 480.386 3.36895 0.358733 0
M  V30 4996 C 478.945 3.67887 0.795986 0
M  V30 4997 C 478.092 2.77131 -0.096807 0
M  V30 4998 H 481.043 1.49934 -0.520134 0
M  V30 4999 H 481.064 3.61294 1.19361 0
M  V30 5000 H 480.576 3.83148 -0.617998 0
M  V30 5001 H 478.677 3.27151 1.78334 0
M  V30 5002 H 478.79 4.75114 0.616718 0
M  V30 5003 H 477.154 2.51153 0.423581 0
M  V30 5004 H 477.937 3.26204 -1.06986 0
M  V30 5005 N 480.382 0.0267497 1.57577 0
M  V30 5006 C 481.329 -0.955894 2.10075 0
M  V30 5007 C 482.299 -1.32453 1.00226 0
M  V30 5008 O 483.484 -1.41826 1.27632 0
M  V30 5009 C 480.624 -2.2338 2.6305 0
M  V30 5010 C 479.737 -1.92183 3.86898 0
M  V30 5011 C 478.872 -3.14251 4.28275 0
M  V30 5012 C 477.911 -2.78862 5.44888 0
M  V30 5013 N 477.048 -3.93548 5.81433 0
M  V30 5014 H 481.888 -0.501303 2.93753 0
M  V30 5015 H 479.425 -0.235847 1.45197 0
M  V30 5016 H 481.383 -2.98124 2.91853 0
M  V30 5017 H 480.013 -2.6646 1.82205 0
M  V30 5018 H 479.065 -1.07692 3.64838 0
M  V30 5019 H 480.377 -1.62117 4.7172 0
M  V30 5020 H 479.531 -3.97317 4.58502 0
M  V30 5021 H 478.27 -3.47476 3.42215 0
M  V30 5022 H 477.275 -1.94208 5.14357 0
M  V30 5023 H 478.5 -2.46855 6.32645 0
M  V30 5024 H 476.446 -4.2662 4.98328 0
M  V30 5025 H 476.363 -3.67098 6.6089 0
M  V30 5026 H 477.631 -4.77325 6.16264 0
M  V30 5027 N 481.861 -1.55662 -0.24637 0
M  V30 5028 C 483.138 -1.68272 -0.997198 0
M  V30 5029 C 483.518 -0.566785 -2.03349 0
M  V30 5030 O 482.866 0.429688 -2.24424 0
M  V30 5031 C 483.076 -3.08594 -1.63006 0
M  V30 5032 C 484.424 -3.6721 -2.13171 0
M  V30 5033 O 485.448 -3.11397 -1.72946 0
M  V30 5034 O 484.307 -4.65054 -2.87031 0
M  V30 5035 H 481.401 -0.684429 -0.464205 0
M  V30 5036 H 483.947 -1.67993 -0.240114 0
M  V30 5037 H 482.719 -3.81264 -0.880527 0
M  V30 5038 H 482.342 -3.12886 -2.45333 0
M  V30 5039 N 483.339 0.512053 -1.4905 0
M  V30 5040 C 484.585 1.26874 -1.58212 0
M  V30 5041 C 484.918 1.9241 -0.263073 0
M  V30 5042 O 484.193 1.80181 0.732476 0
M  V30 5043 C 484.476 2.34428 -2.73341 0
M  V30 5044 C 484.329 1.73466 -4.15006 0
M  V30 5045 C 485.648 3.36073 -2.84154 0
M  V30 5046 H 482.767 0.459924 -0.575881 0
M  V30 5047 H 485.409 0.568587 -1.81293 0
M  V30 5048 H 483.559 2.94146 -2.53792 0
M  V30 5049 H 485.231 1.17661 -4.46042 0
M  V30 5050 H 483.474 1.03921 -4.21168 0
M  V30 5051 H 484.145 2.51426 -4.91415 0
M  V30 5052 H 486.621 2.86332 -3.01916 0
M  V30 5053 H 485.497 4.08703 -3.66406 0
M  V30 5054 H 485.758 3.97725 -1.93048 0
M  V30 5055 N 484.817 1.37938 0.762283 0
M  V30 5056 C 485.765 1.34569 1.89721 0
M  V30 5057 C 486.759 0.232929 1.67791 0
M  V30 5058 O 487.965 0.401485 1.75465 0
M  V30 5059 H 484.34 0.419594 0.624055 0
M  V30 5060 H 486.311 2.30357 1.8968 0
M  V30 5061 C 485.06 1.17898 3.27101 0
M  V30 5062 H 484.383 2.02781 3.44558 0
M  V30 5063 H 485.823 1.19593 4.06784 0
M  V30 5064 C 484.282 -0.114728 3.36705 0
M  V30 5065 O 484.812 -1.0949 3.8649 0
M  V30 5066 N 483.018 -0.16863 2.9011 0
M  V30 5067 H 482.565 0.62967 2.49786 0
M  V30 5068 H 482.523 -1.03383 2.96916 0
M  V30 5069 N 486.295 -0.989507 1.22664 0
M  V30 5070 C 487.258 -2.06183 1.00106 0
M  V30 5071 C 488.258 -1.60765 -0.0337726 0
M  V30 5072 O 489.448 -1.72989 0.205072 0
M  V30 5073 C 486.58 -3.37021 0.51279 0
M  V30 5074 H 487.773 -2.27629 1.95256 0
M  V30 5075 H 485.326 -1.16158 1.0458 0
M  V30 5076 H 486.061 -3.21261 -0.442917 0
M  V30 5077 H 485.846 -3.71323 1.25942 0
M  V30 5078 H 487.336 -4.1591 0.375315 0
M  V30 5079 N 487.773 -1.03688 -1.18687 0
M  V30 5080 C 488.736 -0.629115 -2.20397 0
M  V30 5081 C 489.736 0.311495 -1.57754 0
M  V30 5082 O 490.926 0.0974107 -1.73927 0
M  V30 5083 C 488.058 0.0782231 -3.4081 0
M  V30 5084 H 489.251 -1.52915 -2.57987 0
M  V30 5085 H 486.804 -0.828988 -1.32505 0
M  V30 5086 H 487.539 0.992233 -3.08748 0
M  V30 5087 H 487.324 -0.597776 -3.87517 0
M  V30 5088 H 488.814 0.350156 -4.16129 0
M  V30 5089 N 489.251 1.34841 -0.815825 0
M  V30 5090 C 490.5 1.97755 -0.396976 0
M  V30 5091 C 490.813 1.65422 1.04379 0
M  V30 5092 O 492.019 2.21771 1.5662 0
M  V30 5093 C 490.475 3.53818 -0.658869 0
M  V30 5094 C 490.083 3.95051 -2.11278 0
M  V30 5095 C 491.827 4.23397 -0.305834 0
M  V30 5096 C 489.734 5.43997 -2.31994 0
M  V30 5097 H 488.664 0.739985 -0.1447 0
M  V30 5098 H 491.315 1.53781 -1.00118 0
M  V30 5099 H 489.697 3.95997 0.0154112 0
M  V30 5100 H 490.871 3.63998 -2.82564 0
M  V30 5101 H 489.186 3.38388 -2.42657 0
M  V30 5102 H 491.783 5.32899 -0.43854 0
M  V30 5103 H 492.126 4.09508 0.748952 0
M  V30 5104 H 492.659 3.8667 -0.934403 0
M  V30 5105 H 489.398 5.62865 -3.35952 0
M  V30 5106 H 488.918 5.76589 -1.65244 0
M  V30 5107 H 490.597 6.10584 -2.14001 0
M  V30 5108 N 490.729 0.570148 1.46925 0
M  V30 5109 C 491.692 -0.159933 2.28641 0
M  V30 5110 C 492.692 -0.830638 1.37685 0
M  V30 5111 O 493.882 -0.684516 1.60187 0
M  V30 5112 C 491.014 -1.2354 3.17727 0
M  V30 5113 H 492.207 0.558035 2.94662 0
M  V30 5114 H 489.76 0.327603 1.52828 0
M  V30 5115 H 490.495 -1.98535 2.56426 0
M  V30 5116 H 490.28 -0.759125 3.84681 0
M  V30 5117 H 491.77 -1.74782 3.79264 0
M  V30 5118 N 492.207 -1.54576 0.307264 0
M  V30 5119 C 493.435 -2.04675 -0.302597 0
M  V30 5120 C 493.85 -1.18425 -1.47041 0
M  V30 5121 O 493.207 -0.211257 -1.81273 0
M  V30 5122 C 493.258 -3.53575 -0.752801 0
M  V30 5123 O 492.979 -4.36547 0.368536 0
M  V30 5124 C 494.48 -4.19699 -1.42717 0
M  V30 5125 H 491.7 -0.66786 -0.0648374 0
M  V30 5126 H 494.244 -1.99516 0.448716 0
M  V30 5127 H 492.399 -3.59074 -1.45412 0
M  V30 5128 H 492.813 -5.24497 0.0168937 0
M  V30 5129 H 494.287 -5.25388 -1.69327 0
M  V30 5130 H 494.764 -3.69815 -2.36925 0
M  V30 5131 H 495.37 -4.18293 -0.768856 0
M  V30 5132 N 493.685 -0.035106 -1.57561 0
M  V30 5133 C 494.934 0.641604 -1.91223 0
M  V30 5134 C 495.247 1.72944 -0.913761 0
M  V30 5135 O 496.453 2.46321 -1.14185 0
M  V30 5136 C 494.909 1.19249 -3.3957 0
M  V30 5137 C 494.517 0.137616 -4.47789 0
M  V30 5138 C 496.261 1.84537 -3.82291 0
M  V30 5139 C 494.168 0.700478 -5.87237 0
M  V30 5140 H 493.098 0.243417 -0.713627 0
M  V30 5141 H 495.749 -0.101382 -1.8322 0
M  V30 5142 H 494.131 1.98728 -3.42525 0
M  V30 5143 H 495.305 -0.635153 -4.56402 0
M  V30 5144 H 493.62 -0.416855 -4.14308 0
M  V30 5145 H 496.217 2.27616 -4.83834 0
M  V30 5146 H 496.56 2.69054 -3.17672 0
M  V30 5147 H 497.093 1.11739 -3.81784 0
M  V30 5148 H 493.832 -0.106693 -6.55413 0
M  V30 5149 H 493.352 1.4416 -5.82218 0
M  V30 5150 H 495.031 1.18837 -6.35993 0
M  V30 5151 N 495.163 1.55791 0.238111 0
M  V30 5152 C 496.11 1.9105 1.29493 0
M  V30 5153 C 497.08 0.765733 1.47397 0
M  V30 5154 O 498.265 1.02017 1.61236 0
M  V30 5155 C 495.405 2.21826 2.64362 0
M  V30 5156 C 494.518 3.49153 2.54394 0
M  V30 5157 C 493.653 3.69455 3.81676 0
M  V30 5158 C 492.692 4.90353 3.66361 0
M  V30 5159 N 491.829 5.07131 4.85554 0
M  V30 5160 H 496.669 2.81172 0.987233 0
M  V30 5161 H 494.206 1.39179 0.476203 0
M  V30 5162 H 496.164 2.37675 3.4288 0
M  V30 5163 H 494.794 1.34897 2.93262 0
M  V30 5164 H 493.846 3.41587 1.67399 0
M  V30 5165 H 495.158 4.37818 2.38991 0
M  V30 5166 H 494.312 3.85311 4.68636 0
M  V30 5167 H 493.051 2.7904 3.99985 0
M  V30 5168 H 492.056 4.74464 2.77784 0
M  V30 5169 H 493.281 5.82237 3.49538 0
M  V30 5170 H 491.227 4.19654 5.04209 0
M  V30 5171 H 491.144 5.89899 4.72816 0
M  V30 5172 H 492.412 5.27407 5.73988 0
M  V30 5173 N 496.642 -0.504142 1.49319 0
M  V30 5174 C 497.87 -1.28256 1.62351 0
M  V30 5175 C 498.285 -1.86502 0.293682 0
M  V30 5176 O 497.642 -1.67678 -0.720449 0
M  V30 5177 C 497.693 -2.41507 2.68992 0
M  V30 5178 O 497.414 -1.85656 3.96817 0
M  V30 5179 C 498.915 -3.32929 2.927 0
M  V30 5180 H 496.135 -0.389115 0.546654 0
M  V30 5181 H 498.679 -0.605531 1.95329 0
M  V30 5182 H 496.834 -3.05046 2.38801 0
M  V30 5183 H 497.248 -2.59981 4.55533 0
M  V30 5184 H 498.722 -4.0868 3.71058 0
M  V30 5185 H 499.199 -3.89733 2.02496 0
M  V30 5186 H 499.805 -2.75158 3.24296 0
M  V30 5187 N 498.12 -1.38341 -0.754957 0
M  V30 5188 C 499.067 -1.3546 -1.86867 0
M  V30 5189 C 500.037 -0.217369 -1.64672 0
M  V30 5190 O 501.222 -0.409383 -1.86356 0
M  V30 5191 C 498.362 -1.18413 -3.24149 0
M  V30 5192 C 497.475 -2.41511 -3.58185 0
M  V30 5193 C 496.61 -2.17205 -4.84763 0
M  V30 5194 C 495.649 -3.36081 -5.11582 0
M  V30 5195 N 494.786 -3.11219 -6.29354 0
M  V30 5196 H 499.626 -2.30672 -1.88664 0
M  V30 5197 H 497.163 -1.14607 -0.922154 0
M  V30 5198 H 499.121 -1.06545 -4.03366 0
M  V30 5199 H 497.751 -0.268397 -3.21682 0
M  V30 5200 H 496.803 -2.64056 -2.73822 0
M  V30 5201 H 498.115 -3.30115 -3.73932 0
M  V30 5202 H 497.269 -2.02465 -5.7192 0
M  V30 5203 H 496.008 -1.25964 -4.71152 0
M  V30 5204 H 495.013 -3.51341 -4.22894 0
M  V30 5205 H 496.238 -4.28196 -5.27091 0
M  V30 5206 H 494.184 -2.22624 -6.17069 0
M  V30 5207 H 494.101 -3.93373 -6.45596 0
M  V30 5208 H 495.369 -3.00132 -7.19403 0
M  V30 5209 N 499.598 0.982988 -1.23187 0
M  V30 5210 C 501.014 1.2487 -0.993967 0
M  V30 5211 C 501.214 1.99155 0.306498 0
M  V30 5212 O 500.27 2.30688 1.0266 0
M  V30 5213 C 501.583 2.05078 -2.19917 0
M  V30 5214 C 503.131 2.18227 -2.2438 0
M  V30 5215 C 503.606 3.01825 -3.44479 0
M  V30 5216 N 505.097 3.09411 -3.44702 0
M  V30 5217 C 505.832 3.74412 -4.34285 0
M  V30 5218 N 505.328 4.41259 -5.341 0
M  V30 5219 N 507.121 3.71273 -4.22035 0
M  V30 5220 H 499.272 0.485253 -2.06783 0
M  V30 5221 H 501.535 0.276979 -0.906635 0
M  V30 5222 H 501.241 1.57867 -3.14279 0
M  V30 5223 H 501.115 3.05829 -2.2079 0
M  V30 5224 H 503.502 2.64648 -1.30559 0
M  V30 5225 H 503.583 1.16873 -2.2754 0
M  V30 5226 H 503.227 2.56102 -4.38605 0
M  V30 5227 H 503.157 4.03342 -3.38559 0
M  V30 5228 H 505.648 2.61845 -2.7248 0
M  V30 5229 H 505.961 4.88629 -5.98717 0
M  V30 5230 H 504.306 4.39975 -5.38002 0
M  V30 5231 H 507.497 3.18217 -3.43301 0
M  V30 5232 H 507.67 4.21649 -4.92053 0
M  V30 5233 N 501.076 1.04316 1.18135 0
M  V30 5234 C 502.304 0.768117 1.92113 0
M  V30 5235 C 502.719 -0.675057 1.76319 0
M  V30 5236 O 502.076 -1.46038 1.09449 0
M  V30 5237 C 502.127 1.12808 3.43448 0
M  V30 5238 O 501.848 2.5146 3.58747 0
M  V30 5239 C 503.349 0.8779 4.3452 0
M  V30 5240 H 500.569 0.279937 0.609817 0
M  V30 5241 H 503.113 1.39149 1.49859 0
M  V30 5242 H 501.268 0.549623 3.83481 0
M  V30 5243 H 501.682 2.65313 4.52448 0
M  V30 5244 H 503.156 1.17959 5.39249 0
M  V30 5245 H 503.633 -0.187239 4.38801 0
M  V30 5246 H 504.239 1.43977 4.00188 0
M  V30 5247 N 502.554 -1.34406 0.822964 0
M  V30 5248 C 503.803 -1.97542 0.407458 0
M  V30 5249 C 504.116 -1.65973 -1.035 0
M  V30 5250 O 505.322 -2.22598 -1.55442 0
M  V30 5251 C 503.778 -3.53463 0.677623 0
M  V30 5252 C 503.386 -3.93925 2.1337 0
M  V30 5253 C 505.13 -4.23229 0.328284 0
M  V30 5254 C 503.037 -5.42759 2.34876 0
M  V30 5255 H 501.967 -0.739207 0.148623 0
M  V30 5256 H 504.618 -1.53248 1.00932 0
M  V30 5257 H 503 -3.96 0.00558965 0
M  V30 5258 H 504.174 -3.62494 2.8449 0
M  V30 5259 H 502.489 -3.37097 2.44448 0
M  V30 5260 H 505.086 -5.32659 0.466794 0
M  V30 5261 H 505.429 -4.09899 -0.727224 0
M  V30 5262 H 505.962 -3.86169 0.954896 0
M  V30 5263 H 502.701 -5.61075 3.38932 0
M  V30 5264 H 502.221 -5.75704 1.68299 0
M  V30 5265 H 503.9 -6.0944 2.17236 0
M  V30 5266 N 504.032 -0.577932 -1.46621 0
M  V30 5267 C 504.964 0.195801 -2.28362 0
M  V30 5268 C 505.977 0.859983 -1.38232 0
M  V30 5269 O 507.166 0.730349 -1.62875 0
M  V30 5270 C 504.266 1.29639 -3.13124 0
M  V30 5271 C 503.439 0.725049 -4.31349 0
M  V30 5272 C 502.498 1.71274 -4.97546 0
M  V30 5273 O 501.524 1.25067 -5.5529 0
M  V30 5274 N 502.726 3.04672 -4.94121 0
M  V30 5275 H 505.491 -0.505468 -2.95407 0
M  V30 5276 H 503.052 -0.415381 -1.56481 0
M  V30 5277 H 505.044 1.95631 -3.54275 0
M  V30 5278 H 503.614 1.90059 -2.48186 0
M  V30 5279 H 502.834 -0.112205 -3.9404 0
M  V30 5280 H 504.122 0.323034 -5.07774 0
M  V30 5281 H 503.52 3.4484 -4.48444 0
M  V30 5282 H 502.077 3.66166 -5.39227 0
M  V30 5283 N 505.51 1.54411 -0.315457 0
M  V30 5284 C 506.757 2.00419 0.289543 0
M  V30 5285 C 507.085 1.20373 1.52776 0
M  V30 5286 O 506.34 0.271769 1.93804 0
M  V30 5287 C 506.639 3.50936 0.676652 0
M  V30 5288 C 506.305 4.48532 -0.461472 0
M  V30 5289 C 504.967 4.74936 -0.773879 0
M  V30 5290 C 507.319 5.06567 -1.22637 0
M  V30 5291 C 504.647 5.56634 -1.85405 0
M  V30 5292 C 506.999 5.89441 -2.29657 0
M  V30 5293 C 505.663 6.1415 -2.61488 0
M  V30 5294 H 504.933 0.733386 0.105951 0
M  V30 5295 H 507.58 1.86434 -0.437554 0
M  V30 5296 H 505.885 3.62606 1.48405 0
M  V30 5297 H 507.582 3.83971 1.15618 0
M  V30 5298 H 504.172 4.28096 -0.207893 0
M  V30 5299 H 508.356 4.86157 -0.998271 0
M  V30 5300 H 503.612 5.74012 -2.10523 0
M  V30 5301 H 507.786 6.33432 -2.89374 0
M  V30 5302 H 505.413 6.77245 -3.45317 0
M  V30 5303 N 506.988 0.0434614 1.5754 0
M  V30 5304 C 508.234 -0.632971 1.92669 0
M  V30 5305 C 508.567 -1.70947 0.921446 0
M  V30 5306 O 507.842 -1.94426 -0.0537202 0
M  V30 5307 C 508.125 -1.23619 3.38216 0
M  V30 5308 C 507.978 -0.168274 4.49485 0
M  V30 5309 C 509.297 -2.15008 3.84005 0
M  V30 5310 H 506.416 -0.228629 0.700641 0
M  V30 5311 H 509.058 0.103651 1.89717 0
M  V30 5312 H 507.208 -1.864 3.40863 0
M  V30 5313 H 508.88 0.463196 4.58969 0
M  V30 5314 H 507.123 0.504581 4.30855 0
M  V30 5315 H 507.794 -0.630218 5.48391 0
M  V30 5316 H 510.27 -1.62198 3.83185 0
M  V30 5317 H 509.146 -2.54161 4.86511 0
M  V30 5318 H 509.407 -3.04707 3.20322 0
M  V30 5319 N 508.466 -1.55915 -0.229846 0
M  V30 5320 C 509.743 -1.6932 -0.979295 0
M  V30 5321 C 510.123 -0.588321 -2.02736 0
M  V30 5322 O 509.471 0.40586 -2.24867 0
M  V30 5323 C 509.681 -3.10305 -1.59724 0
M  V30 5324 C 511.029 -3.6945 -2.09264 0
M  V30 5325 O 512.053 -3.13214 -1.69633 0
M  V30 5326 O 510.912 -4.68072 -2.82082 0
M  V30 5327 H 508.006 -0.689314 -0.456919 0
M  V30 5328 H 510.552 -1.68238 -0.222283 0
M  V30 5329 H 509.324 -3.82177 -0.840039 0
M  V30 5330 H 508.947 -3.1547 -2.42001 0
M  V30 5331 N 509.944 0.496216 -1.49584 0
M  V30 5332 C 511.19 1.24918 -1.60521 0
M  V30 5333 C 511.545 1.90197 -0.290352 0
M  V30 5334 O 510.838 1.77967 0.709813 0
M  V30 5335 C 511.032 2.3359 -2.705 0
M  V30 5336 C 510.861 1.78969 -4.12553 0
M  V30 5337 C 509.631 1.60057 -4.79281 0
M  V30 5338 C 511.829 1.29883 -4.97629 0
M  V30 5339 N 509.811 1.00415 -6.05632 0
M  V30 5340 C 511.182 0.824057 -6.14499 0
M  V30 5341 C 513.237 1.18501 -4.83593 0
M  V30 5342 C 511.94 0.246721 -7.18877 0
M  V30 5343 C 513.966 0.621634 -5.88124 0
M  V30 5344 C 513.328 0.157116 -7.04225 0
M  V30 5345 H 509.427 0.446896 -0.641722 0
M  V30 5346 H 512.011 0.555456 -1.86609 0
M  V30 5347 H 510.182 3.00418 -2.46178 0
M  V30 5348 H 511.914 3.00628 -2.70933 0
M  V30 5349 H 508.669 1.84562 -4.36158 0
M  V30 5350 H 509.093 0.725074 -6.73106 0
M  V30 5351 H 513.735 1.53012 -3.94141 0
M  V30 5352 H 511.453 -0.110651 -8.08024 0
M  V30 5353 H 515.039 0.536279 -5.79323 0
M  V30 5354 H 513.919 -0.272009 -7.83728 0
M  V30 5355 N 511.423 1.38739 0.74761 0
M  V30 5356 C 512.663 1.36695 1.51966 0
M  V30 5357 C 513.027 -0.0411889 1.91956 0
M  V30 5358 O 514.228 -0.186543 2.68152 0
M  V30 5359 C 512.499 2.30119 2.73459 0
M  V30 5360 S 514.058 2.4615 3.63257 0
M  V30 5361 H 510.876 0.484929 0.519966 0
M  V30 5362 H 513.478 1.7472 0.877104 0
M  V30 5363 H 512.182 3.31312 2.422 0
M  V30 5364 H 511.713 1.93265 3.42655 0
M  V30 5365 H 513.728 1.69001 4.66533 0
M  V30 5366 N 512.901 -0.976442 1.23707 0
M  V30 5367 C 514.312 -1.53284 1.06587 0
M  V30 5368 C 514.663 -1.92765 -0.365526 0
M  V30 5369 O 513.788 -1.7645 -1.25277 0
M  V30 5370 C 514.383 -2.78548 1.92864 0
M  V30 5371 C 512.942 -3.30574 1.79994 0
M  V30 5372 C 512.089 -2.03538 1.88328 0
M  V30 5373 H 515.04 -0.795692 1.37311 0
M  V30 5374 H 515.061 -3.5155 1.45577 0
M  V30 5375 H 514.573 -2.49782 2.97037 0
M  V30 5376 H 512.674 -3.64211 0.786202 0
M  V30 5377 H 512.787 -4.00065 2.636 0
M  V30 5378 H 511.151 -2.17853 1.31954 0
M  V30 5379 H 511.934 -1.77149 2.94063 0
M  V30 5380 N 514.379 -1.04941 -1.1758 0
M  V30 5381 C 515.607 -0.778294 -1.91703 0
M  V30 5382 C 516.022 0.665697 -1.76675 0
M  V30 5383 O 515.379 1.45456 -1.10222 0
M  V30 5384 C 515.43 -1.14628 -3.42845 0
M  V30 5385 O 515.151 -2.53359 -3.57409 0
M  V30 5386 C 516.652 -0.900931 -4.34049 0
M  V30 5387 H 513.872 -0.283167 -0.608323 0
M  V30 5388 H 516.416 -1.39942 -1.49119 0
M  V30 5389 H 514.571 -0.569953 -3.83184 0
M  V30 5390 H 514.985 -2.67709 -4.51035 0
M  V30 5391 H 516.459 -1.20817 -5.38616 0
M  V30 5392 H 516.936 0.163966 -4.38894 0
M  V30 5393 H 517.542 -1.46097 -3.99419 0
M  V30 5394 N 515.857 1.33968 -0.830081 0
M  V30 5395 C 517.105 1.97672 -0.420734 0
M  V30 5396 C 517.426 1.66111 1.02138 0
M  V30 5397 O 516.696 0.955503 1.71017 0
M  V30 5398 H 515.276 0.73125 -0.152587 0
M  V30 5399 H 517.938 1.63483 -1.0611 0
M  V30 5400 H 517.034 3.07294 -0.545588 0
M  V30 5401 N 517.335 0.585699 1.46312 0
M  V30 5402 C 518.582 0.0724211 2.0237 0
M  V30 5403 C 518.91 -1.28868 1.45683 0
M  V30 5404 O 518.165 -1.85853 0.612945 0
M  V30 5405 C 518.464 -0.0401312 3.57377 0
M  V30 5406 C 518.13 1.25376 4.33119 0
M  V30 5407 C 516.792 1.60824 4.5353 0
M  V30 5408 C 519.144 2.10987 4.76586 0
M  V30 5409 C 516.472 2.81676 5.14661 0
M  V30 5410 C 518.824 3.31068 5.39052 0
M  V30 5411 C 517.488 3.66794 5.5769 0
M  V30 5412 H 516.758 0.0265007 0.740526 0
M  V30 5413 H 519.405 0.762935 1.75646 0
M  V30 5414 H 517.71 -0.813791 3.83255 0
M  V30 5415 H 519.407 -0.453078 3.98432 0
M  V30 5416 H 515.997 0.967808 4.1753 0
M  V30 5417 H 520.181 1.84904 4.60569 0
M  V30 5418 H 515.437 3.0949 5.27282 0
M  V30 5419 H 519.611 3.97672 5.71691 0
M  V30 5420 H 517.238 4.60529 6.04828 0
M  V30 5421 N 518.813 -1.54241 0.323641 0
M  V30 5422 C 519.76 -2.24339 -0.542277 0
M  V30 5423 C 520.73 -1.23421 -1.11159 0
M  V30 5424 O 521.915 -1.52104 -1.15192 0
M  V30 5425 C 519.055 -3.00479 -1.69725 0
M  V30 5426 C 518.168 -4.16214 -1.15716 0
M  V30 5427 C 517.303 -4.79884 -2.27783 0
M  V30 5428 C 516.342 -5.87722 -1.71023 0
M  V30 5429 N 515.479 -6.45254 -2.76752 0
M  V30 5430 H 520.319 -2.97935 0.0620613 0
M  V30 5431 H 517.856 -1.47039 0.0423993 0
M  V30 5432 H 519.814 -3.42869 -2.3769 0
M  V30 5433 H 518.444 -2.29217 -2.27288 0
M  V30 5434 H 517.496 -3.78605 -0.369063 0
M  V30 5435 H 518.808 -4.93838 -0.701832 0
M  V30 5436 H 517.962 -5.25243 -3.03651 0
M  V30 5437 H 516.701 -4.01641 -2.76652 0
M  V30 5438 H 515.706 -5.41765 -0.936518 0
M  V30 5439 H 516.931 -6.67863 -1.2303 0
M  V30 5440 H 514.877 -5.69884 -3.24912 0
M  V30 5441 H 514.794 -7.18292 -2.35782 0
M  V30 5442 H 516.062 -6.95269 -3.5245 0
M  V30 5443 N 520.291 -0.0518155 -1.57515 0
M  V30 5444 C 521.537 0.622745 -1.93002 0
M  V30 5445 C 521.87 1.70456 -0.930499 0
M  V30 5446 O 521.145 1.94452 0.0434086 0
M  V30 5447 C 521.428 1.21824 -3.38867 0
M  V30 5448 C 521.281 0.144434 -4.49568 0
M  V30 5449 C 522.6 2.12968 -3.8514 0
M  V30 5450 H 519.719 0.22491 -0.701844 0
M  V30 5451 H 522.361 -0.113711 -1.89659 0
M  V30 5452 H 520.511 1.8459 -3.41846 0
M  V30 5453 H 522.183 -0.48753 -4.58717 0
M  V30 5454 H 520.426 -0.527424 -4.30582 0
M  V30 5455 H 521.097 0.601127 -5.48717 0
M  V30 5456 H 523.573 1.60163 -3.8404 0
M  V30 5457 H 522.449 2.51578 -4.87852 0
M  V30 5458 H 522.71 3.03004 -3.21934 0
M  V30 5459 N 521.769 1.56035 0.221574 0
M  V30 5460 C 523.017 1.78693 0.944102 0
M  V30 5461 C 523.338 0.620317 1.8487 0
M  V30 5462 O 522.608 -0.362784 1.92512 0
M  V30 5463 H 521.188 0.659082 0.351597 0
M  V30 5464 H 523.85 1.93497 0.233435 0
M  V30 5465 H 522.946 2.70837 1.55093 0
M  V30 5466 N 523.247 -0.488276 1.49845 0
M  V30 5467 C 524.496 -1.23826 1.59217 0
M  V30 5468 C 524.809 -1.93439 0.289966 0
M  V30 5469 O 526.015 -2.70229 0.262382 0
M  V30 5470 C 524.471 -2.24902 2.80976 0
M  V30 5471 C 524.079 -1.6117 4.18005 0
M  V30 5472 C 525.823 -3.00648 2.99685 0
M  V30 5473 C 523.73 -2.60431 5.3097 0
M  V30 5474 H 522.66 -0.465858 0.592868 0
M  V30 5475 H 525.311 -0.510645 1.76252 0
M  V30 5476 H 523.693 -3.0088 2.57463 0
M  V30 5477 H 524.867 -0.910968 4.51706 0
M  V30 5478 H 523.182 -0.97767 4.0476 0
M  V30 5479 H 525.779 -3.74903 3.81251 0
M  V30 5480 H 526.122 -3.5902 2.10738 0
M  V30 5481 H 526.655 -2.31784 3.23297 0
M  V30 5482 H 523.394 -2.06823 6.22017 0
M  V30 5483 H 522.914 -3.28707 5.01709 0
M  V30 5484 H 524.593 -3.22606 5.60834 0
M  V30 5485 N 524.725 -1.39134 -0.740242 0
M  V30 5486 C 525.673 -1.3757 -1.87556 0
M  V30 5487 C 526.667 -0.259593 -1.67399 0
M  V30 5488 O 527.873 -0.429349 -1.74804 0
M  V30 5489 H 524.248 -0.42947 -0.6173 0
M  V30 5490 H 526.219 -2.33345 -1.85991 0
M  V30 5491 C 524.968 -1.23087 -3.25184 0
M  V30 5492 H 524.291 -2.08237 -3.41288 0
M  V30 5493 H 525.731 -1.26049 -4.0483 0
M  V30 5494 C 524.19 0.0611471 -3.36845 0
M  V30 5495 O 524.72 1.03328 -3.88183 0
M  V30 5496 N 522.926 0.122454 -2.90342 0
M  V30 5497 H 522.473 -0.669329 -2.48752 0
M  V30 5498 H 522.431 0.986463 -2.98523 0
M  V30 5499 N 526.204 0.969867 -1.24223 0
M  V30 5500 C 527.434 1.74502 -1.106 0
M  V30 5501 C 527.842 1.86038 0.344483 0
M  V30 5502 O 527.185 1.3465 1.24961 0
M  V30 5503 C 527.247 3.18391 -1.66935 0
M  V30 5504 C 526.911 3.30334 -3.15798 0
M  V30 5505 C 527.908 3.15832 -4.12973 0
M  V30 5506 C 525.593 3.54644 -3.55715 0
M  V30 5507 C 527.587 3.25461 -5.48045 0
M  V30 5508 C 525.274 3.63912 -4.90929 0
M  V30 5509 C 526.272 3.49332 -5.86904 0
M  V30 5510 O 525.96 3.58251 -7.1966 0
M  V30 5511 H 525.692 0.554119 -0.387206 0
M  V30 5512 H 528.246 1.22646 -1.64764 0
M  V30 5513 H 526.476 3.71543 -1.07203 0
M  V30 5514 H 528.165 3.77707 -1.48634 0
M  V30 5515 H 528.931 2.96937 -3.83476 0
M  V30 5516 H 524.81 3.65059 -2.81519 0
M  V30 5517 H 528.354 3.13998 -6.22937 0
M  V30 5518 H 524.251 3.82319 -5.20098 0
M  V30 5519 H 525.019 3.7498 -7.27552 0
M  V30 5520 N 527.682 1.05563 1.17022 0
M  V30 5521 C 528.614 0.617888 2.20714 0
M  V30 5522 C 529.627 -0.320303 1.59618 0
M  V30 5523 O 530.816 -0.112449 1.78145 0
M  V30 5524 C 527.916 -0.115333 3.38704 0
M  V30 5525 C 527.089 0.834493 4.29366 0
M  V30 5526 C 526.148 0.141855 5.26009 0
M  V30 5527 O 525.174 0.777151 5.6387 0
M  V30 5528 N 526.376 -1.11934 5.69606 0
M  V30 5529 H 529.141 1.50981 2.58892 0
M  V30 5530 H 526.702 0.938008 1.31958 0
M  V30 5531 H 528.694 -0.588918 4.00392 0
M  V30 5532 H 527.264 -0.908967 2.99093 0
M  V30 5533 H 526.484 1.48762 3.65053 0
M  V30 5534 H 527.772 1.4791 4.86827 0
M  V30 5535 H 527.17 -1.65574 5.40927 0
M  V30 5536 H 525.727 -1.53692 6.33421 0
M  V30 5537 N 529.16 -1.33526 0.837174 0
M  V30 5538 C 530.571 -1.80182 0.489017 0
M  V30 5539 C 530.922 -1.69285 -0.991826 0
M  V30 5540 O 530.047 -1.24113 -1.77271 0
M  V30 5541 C 530.642 -3.27149 0.880866 0
M  V30 5542 C 529.201 -3.71828 0.584872 0
M  V30 5543 C 528.348 -2.54974 1.09011 0
M  V30 5544 H 531.299 -1.21071 1.02603 0
M  V30 5545 H 531.32 -3.80024 0.190239 0
M  V30 5546 H 530.832 -3.35048 1.95869 0
M  V30 5547 H 528.933 -3.69457 -0.48295 0
M  V30 5548 H 529.046 -4.65366 1.13892 0
M  V30 5549 H 527.41 -2.4952 0.511047 0
M  V30 5550 H 528.193 -2.65637 2.17467 0
M  V30 5551 N 530.638 -0.59345 -1.46 0
M  V30 5552 C 532.049 -0.169801 -1.85926 0
M  V30 5553 C 532.4 1.26984 -1.49565 0
M  V30 5554 O 531.525 1.96076 -0.915602 0
M  V30 5555 C 532.12 -0.301385 -3.37457 0
M  V30 5556 C 530.679 0.0674684 -3.7634 0
M  V30 5557 C 529.826 -0.632383 -2.69993 0
M  V30 5558 H 532.777 -0.801014 -1.37002 0
M  V30 5559 H 532.798 0.470331 -3.77582 0
M  V30 5560 H 532.31 -1.34927 -3.63891 0
M  V30 5561 H 530.411 1.11507 -3.55523 0
M  V30 5562 H 530.524 -0.316332 -4.78055 0
M  V30 5563 H 528.888 -0.0714961 -2.546 0
M  V30 5564 H 529.671 -1.68212 -2.99265 0
M  V30 5565 N 532.116 1.54067 -0.331816 0
M  V30 5566 C 533.344 2.05131 0.269996 0
M  V30 5567 C 533.759 1.20749 1.45138 0
M  V30 5568 O 533.116 0.240069 1.80914 0
M  V30 5569 C 533.167 3.54728 0.696456 0
M  V30 5570 O 532.888 4.35906 -0.43794 0
M  V30 5571 C 534.389 4.21916 1.36021 0
M  V30 5572 H 531.609 0.668807 0.0542042 0
M  V30 5573 H 534.153 1.98777 -0.4804 0
M  V30 5574 H 532.308 3.61342 1.39681 0
M  V30 5575 H 532.722 5.24404 -0.100334 0
M  V30 5576 H 534.196 5.28015 1.60947 0
M  V30 5577 H 534.673 3.73538 2.31011 0
M  V30 5578 H 535.279 4.19463 0.702212 0
M  V30 5579 N 533.594 0.0601682 1.57485 0
M  V30 5580 C 534.84 -0.612501 1.93329 0
M  V30 5581 C 535.173 -1.6996 0.939526 0
M  V30 5582 O 534.448 -1.94472 -0.0330957 0
M  V30 5583 C 534.731 -1.20025 3.39508 0
M  V30 5584 C 534.584 -0.12059 4.49638 0
M  V30 5585 C 535.903 -2.10923 3.86264 0
M  V30 5586 H 533.022 -0.221185 0.703027 0
M  V30 5587 H 535.664 0.123768 1.89596 0
M  V30 5588 H 533.814 -1.82774 3.42821 0
M  V30 5589 H 535.486 0.51185 4.58452 0
M  V30 5590 H 533.729 0.550251 4.30296 0
M  V30 5591 H 534.4 -0.572019 5.49028 0
M  V30 5592 H 536.876 -1.58124 3.84884 0
M  V30 5593 H 535.752 -2.48987 4.8918 0
M  V30 5594 H 536.013 -3.01292 3.23536 0
M  V30 5595 N 535.072 -1.5615 -0.213296 0
M  V30 5596 C 536.318 -1.79812 -0.937849 0
M  V30 5597 C 536.651 -0.631201 -1.83656 0
M  V30 5598 O 535.926 0.369165 -1.90964 0
M  V30 5599 C 536.209 -3.13613 -1.76972 0
M  V30 5600 C 536.062 -4.40766 -0.89695 0
M  V30 5601 C 537.381 -3.43931 -2.7459 0
M  V30 5602 H 534.5 -0.654138 -0.339518 0
M  V30 5603 H 537.142 -1.88877 -0.20623 0
M  V30 5604 H 535.292 -3.06015 -2.39347 0
M  V30 5605 H 536.964 -4.60392 -0.289306 0
M  V30 5606 H 535.207 -4.33326 -0.202756 0
M  V30 5607 H 535.878 -5.30843 -1.51358 0
M  V30 5608 H 538.354 -3.5171 -2.22349 0
M  V30 5609 H 537.23 -4.38706 -3.29891 0
M  V30 5610 H 537.491 -2.6651 -3.52739 0
M  V30 5611 N 536.55 0.480323 -1.50102 0
M  V30 5612 C 537.961 1.06142 -1.53593 0
M  V30 5613 C 538.312 1.93335 -0.334055 0
M  V30 5614 O 537.437 2.09188 0.55403 0
M  V30 5615 C 538.032 1.9317 -2.78336 0
M  V30 5616 C 536.591 2.46405 -2.84538 0
M  V30 5617 C 535.738 1.24521 -2.4777 0
M  V30 5618 H 538.689 0.26333 -1.565 0
M  V30 5619 H 538.71 2.78123 -2.59669 0
M  V30 5620 H 538.222 1.29683 -3.65792 0
M  V30 5621 H 536.323 3.13472 -2.01411 0
M  V30 5622 H 536.436 2.82143 -3.87211 0
M  V30 5623 H 534.8 1.57706 -2.00003 0
M  V30 5624 H 535.583 0.627102 -3.37524 0
M  V30 5625 N 538.028 1.39524 0.732853 0
M  V30 5626 C 539.276 1.36594 1.48951 0
M  V30 5627 C 539.597 -0.0367507 1.94965 0
M  V30 5628 O 538.867 -0.988391 1.69138 0
M  V30 5629 H 537.447 0.502673 0.552566 0
M  V30 5630 H 540.109 1.74411 0.869869 0
M  V30 5631 H 539.205 2.03 2.3706 0
M  V30 5632 N 539.506 -0.963266 1.24736 0
M  V30 5633 C 540.754 -1.70343 1.08755 0
M  V30 5634 C 541.075 -1.91387 -0.373619 0
M  V30 5635 O 540.345 -1.4948 -1.2662 0
M  V30 5636 H 538.925 -0.631224 0.399456 0
M  V30 5637 H 541.587 -1.15859 1.56725 0
M  V30 5638 H 540.683 -2.68616 1.58909 0
M  V30 5639 N 540.985 -1.06182 -1.16461 0
M  V30 5640 C 542.262 -0.691364 -1.82974 0
M  V30 5641 C 542.642 0.827377 -1.9421 0
M  V30 5642 O 541.99 1.73723 -1.48434 0
M  V30 5643 C 542.2 -1.39199 -3.20038 0
M  V30 5644 C 543.548 -1.53647 -3.95825 0
M  V30 5645 O 544.572 -1.35181 -3.29552 0
M  V30 5646 O 543.431 -1.83932 -5.14618 0
M  V30 5647 H 540.525 -0.244605 -0.789998 0
M  V30 5648 H 543.071 -1.16203 -1.23673 0
M  V30 5649 H 541.843 -2.42766 -3.06888 0
M  V30 5650 H 541.466 -0.911335 -3.87015 0
M  V30 5651 N 542.463 1.3308 -0.844243 0
M  V30 5652 C 543.393 2.3161 -0.296493 0
M  V30 5653 C 544.374 1.59215 0.598707 0
M  V30 5654 O 545.559 1.87077 0.521134 0
M  V30 5655 C 542.689 3.43313 0.524762 0
M  V30 5656 C 541.643 4.27115 -0.275106 0
M  V30 5657 C 540.969 5.30483 0.670236 0
M  V30 5658 C 542.269 5.00443 -1.49514 0
M  V30 5659 H 543.963 2.77672 -1.11976 0
M  V30 5660 H 541.509 1.33496 -0.539899 0
M  V30 5661 H 543.462 4.11273 0.918298 0
M  V30 5662 H 542.186 2.95952 1.3813 0
M  V30 5663 H 540.845 3.60787 -0.650267 0
M  V30 5664 H 540.493 4.79379 1.52332 0
M  V30 5665 H 540.193 5.87435 0.139123 0
M  V30 5666 H 541.717 6.01308 1.06117 0
M  V30 5667 H 543.131 5.61141 -1.17447 0
M  V30 5668 H 541.528 5.67071 -1.96343 0
M  V30 5669 H 542.598 4.28906 -2.26202 0
M  V30 5670 N 543.941 0.601185 1.45683 0
M  V30 5671 C 544.904 -0.111398 2.28929 0
M  V30 5672 C 545.904 -0.801246 1.39416 0
M  V30 5673 O 547.094 -0.650383 1.61603 0
M  V30 5674 C 544.226 -1.16773 3.20276 0
M  V30 5675 H 545.419 0.620412 2.93413 0
M  V30 5676 H 542.972 0.359946 1.52099 0
M  V30 5677 H 543.707 -1.93051 2.60579 0
M  V30 5678 H 543.492 -0.677358 3.86205 0
M  V30 5679 H 544.982 -1.66698 3.82886 0
M  V30 5680 N 545.419 -1.53889 0.339982 0
M  V30 5681 C 546.366 -2.24902 -0.518452 0
M  V30 5682 C 547.336 -1.24593 -1.09844 0
M  V30 5683 O 548.521 -1.53317 -1.13572 0
M  V30 5684 C 545.661 -3.02262 -1.66529 0
M  V30 5685 C 544.774 -4.17418 -1.11295 0
M  V30 5686 C 543.909 -4.82273 -2.2268 0
M  V30 5687 C 542.948 -5.89503 -1.6478 0
M  V30 5688 N 542.085 -6.48153 -2.69893 0
M  V30 5689 H 546.925 -2.97853 0.0936579 0
M  V30 5690 H 544.462 -1.46986 0.0579924 0
M  V30 5691 H 546.42 -3.45371 -2.3404 0
M  V30 5692 H 545.05 -2.31614 -2.24844 0
M  V30 5693 H 544.102 -3.78976 -0.328886 0
M  V30 5694 H 545.414 -4.94554 -0.649414 0
M  V30 5695 H 544.568 -5.28435 -2.98063 0
M  V30 5696 H 543.307 -4.04552 -2.72376 0
M  V30 5697 H 542.312 -5.42728 -0.879004 0
M  V30 5698 H 543.537 -6.6913 -1.1594 0
M  V30 5699 H 541.483 -5.73298 -3.1885 0
M  V30 5700 H 541.4 -7.20752 -2.28151 0
M  V30 5701 H 542.668 -6.98968 -3.45056 0
M  V30 5702 N 546.897 -0.0685191 -1.57451 0
M  V30 5703 C 548.143 0.602239 -1.93652 0
M  V30 5704 C 548.476 1.6946 -0.948526 0
M  V30 5705 O 547.751 1.94487 0.022782 0
M  V30 5706 C 548.034 1.18223 -3.4014 0
M  V30 5707 C 547.887 0.0967431 -4.49696 0
M  V30 5708 C 549.206 2.08872 -3.87377 0
M  V30 5709 H 546.325 0.217453 -0.70419 0
M  V30 5710 H 548.967 -0.133821 -1.89528 0
M  V30 5711 H 547.117 1.80953 -3.43785 0
M  V30 5712 H 548.789 -0.536155 -4.58174 0
M  V30 5713 H 547.032 -0.573063 -4.29998 0
M  V30 5714 H 547.703 0.542894 -5.49324 0
M  V30 5715 H 550.179 1.56081 -3.85717 0
M  V30 5716 H 549.055 2.46389 -4.90493 0
M  V30 5717 H 549.316 2.99572 -3.25129 0
M  V30 5718 N 548.375 1.56261 0.205012 0
M  V30 5719 C 549.307 1.90266 1.27795 0
M  V30 5720 C 550.32 0.792397 1.42214 0
M  V30 5721 O 551.509 1.07077 1.42817 0
M  V30 5722 C 548.609 2.11074 2.65143 0
M  V30 5723 C 547.782 3.42176 2.7246 0
M  V30 5724 C 546.841 3.52216 3.90936 0
M  V30 5725 O 545.867 4.25119 3.78501 0
M  V30 5726 N 547.069 2.84573 5.05963 0
M  V30 5727 H 549.834 2.82896 0.989434 0
M  V30 5728 H 547.395 1.57008 0.394981 0
M  V30 5729 H 549.387 2.15089 3.4281 0
M  V30 5730 H 547.957 1.2499 2.86524 0
M  V30 5731 H 547.177 3.50116 1.81142 0
M  V30 5732 H 548.465 4.28509 2.74331 0
M  V30 5733 H 547.863 2.25152 5.18963 0
M  V30 5734 H 546.42 2.94228 5.81613 0
M  V30 5735 N 549.853 -0.472356 1.50355 0
M  V30 5736 C 551.269 -0.806001 1.37753 0
M  V30 5737 C 551.469 -1.968 0.432649 0
M  V30 5738 O 550.525 -2.52189 -0.12519 0
M  V30 5739 C 551.838 -1.11926 2.79093 0
M  V30 5740 C 553.386 -1.22579 2.87999 0
M  V30 5741 C 553.861 -1.57218 4.3017 0
M  V30 5742 N 555.352 -1.64212 4.33115 0
M  V30 5743 C 556.087 -1.92517 5.40116 0
M  V30 5744 N 555.583 -2.1885 6.57325 0
M  V30 5745 N 557.376 -1.94008 5.27558 0
M  V30 5746 H 549.527 0.293451 2.10363 0
M  V30 5747 H 551.79 0.0687672 0.945503 0
M  V30 5748 H 551.496 -0.338504 3.50067 0
M  V30 5749 H 551.37 -2.05577 3.16256 0
M  V30 5750 H 553.757 -1.99722 2.17245 0
M  V30 5751 H 553.838 -0.269107 2.54381 0
M  V30 5752 H 553.482 -0.806154 5.01461 0
M  V30 5753 H 553.412 -2.54034 4.61275 0
M  V30 5754 H 555.903 -1.45906 3.48597 0
M  V30 5755 H 556.216 -2.39718 7.3468 0
M  V30 5756 H 554.561 -2.16245 6.60502 0
M  V30 5757 H 557.752 -1.72931 4.34986 0
M  V30 5758 H 557.925 -2.15731 6.11035 0
M  V30 5759 N 551.331 -1.39911 -0.725443 0
M  V30 5760 C 552.294 -1.39156 -1.82121 0
M  V30 5761 C 553.294 -0.287018 -1.58218 0
M  V30 5762 O 554.484 -0.545421 -1.65441 0
M  V30 5763 C 551.616 -1.1736 -3.20062 0
M  V30 5764 H 552.809 -2.36672 -1.84191 0
M  V30 5765 H 550.362 -1.25615 -0.930079 0
M  V30 5766 H 551.097 -0.205648 -3.23647 0
M  V30 5767 H 550.882 -1.97358 -3.3881 0
M  V30 5768 H 552.372 -1.19596 -4.00108 0
M  V30 5769 N 552.809 0.956637 -1.25245 0
M  V30 5770 C 554.055 1.70352 -1.10036 0
M  V30 5771 C 554.388 1.90869 0.358156 0
M  V30 5772 O 553.663 1.47819 1.26411 0
M  V30 5773 C 553.946 3.08766 -1.85298 0
M  V30 5774 C 553.799 2.95672 -3.38966 0
M  V30 5775 C 555.118 4.08622 -1.63451 0
M  V30 5776 H 552.237 0.618279 -0.401123 0
M  V30 5777 H 554.879 1.11212 -1.54051 0
M  V30 5778 H 553.029 3.59252 -1.47887 0
M  V30 5779 H 554.701 2.52527 -3.86041 0
M  V30 5780 H 552.944 2.31634 -3.6678 0
M  V30 5781 H 553.615 3.93776 -3.86839 0
M  V30 5782 H 556.091 3.67038 -1.96015 0
M  V30 5783 H 554.967 5.03514 -2.18551 0
M  V30 5784 H 555.228 4.3834 -0.575357 0
M  V30 5785 N 554.287 1.06798 1.15896 0
M  V30 5786 C 555.527 0.797041 1.8822 0
M  V30 5787 C 555.891 -0.664549 1.80133 0
M  V30 5788 O 557.092 -1.0503 2.47431 0
M  V30 5789 C 555.363 1.28431 3.33527 0
M  V30 5790 S 556.922 1.14319 4.23647 0
M  V30 5791 H 553.74 0.288988 0.649621 0
M  V30 5792 H 556.342 1.36594 1.39865 0
M  V30 5793 H 555.046 2.34286 3.36954 0
M  V30 5794 H 554.577 0.710371 3.86933 0
M  V30 5795 H 556.592 0.0772467 4.9614 0
M  V30 5796 N 555.766 -1.3263 0.851289 0
M  V30 5797 C 556.699 -2.26952 0.238318 0
M  V30 5798 C 557.677 -1.50243 -0.621757 0
M  V30 5799 O 558.861 -1.79378 -0.579298 0
M  V30 5800 C 555.988 -3.32124 -0.664178 0
M  V30 5801 C 555.034 -4.26325 0.122067 0
M  V30 5802 S 555.867 -5.14404 1.48824 0
M  V30 5803 C 557.023 -6.231 0.591372 0
M  V30 5804 H 557.256 -2.78594 1.03791 0
M  V30 5805 H 554.789 -1.4011 0.648731 0
M  V30 5806 H 556.747 -3.93197 -1.17924 0
M  V30 5807 H 555.408 -2.79273 -1.43755 0
M  V30 5808 H 554.601 -5.00821 -0.565181 0
M  V30 5809 H 554.203 -3.69652 0.568602 0
M  V30 5810 H 556.495 -6.77187 -0.205762 0
M  V30 5811 H 557.438 -6.95936 1.30687 0
M  V30 5812 H 557.846 -5.64252 0.167206 0
M  V30 5813 N 557.244 -0.608902 -1.45362 0
M  V30 5814 C 558.174 0.0964526 -2.33301 0
M  V30 5815 C 559.155 0.857444 -1.46908 0
M  V30 5816 O 560.34 0.827735 -1.75676 0
M  V30 5817 C 557.47 1.09354 -3.29635 0
M  V30 5818 C 556.424 0.445676 -4.25673 0
M  V30 5819 C 555.75 1.5511 -5.11708 0
M  V30 5820 C 557.05 -0.633972 -5.18438 0
M  V30 5821 H 558.744 -0.637829 -2.92527 0
M  V30 5822 H 556.29 -0.308178 -1.40664 0
M  V30 5823 H 558.243 1.59556 -3.90025 0
M  V30 5824 H 556.967 1.85843 -2.6857 0
M  V30 5825 H 555.626 -0.0354897 -3.66583 0
M  V30 5826 H 555.274 2.30631 -4.4701 0
M  V30 5827 H 554.974 1.12311 -5.76767 0
M  V30 5828 H 556.498 2.05537 -5.74967 0
M  V30 5829 H 557.912 -0.215974 -5.72893 0
M  V30 5830 H 556.309 -0.983789 -5.91981 0
M  V30 5831 H 557.379 -1.51005 -4.60788 0
M  V30 5832 N 558.722 1.53707 -0.348139 0
M  V30 5833 C 559.947 2.05877 0.250883 0
M  V30 5834 C 560.372 1.22115 1.43072 0
M  V30 5835 O 559.73 0.235986 1.79758 0
M  V30 5836 C 559.778 3.54886 0.639416 0
M  V30 5837 O 558.882 3.73948 1.73888 0
M  V30 5838 H 558.223 0.662754 0.040653 0
M  V30 5839 H 560.753 1.98303 -0.503685 0
M  V30 5840 H 560.763 3.97601 0.915295 0
M  V30 5841 H 559.438 4.153 -0.223386 0
M  V30 5842 H 558.015 3.43134 1.45991 0
M  V30 5843 N 560.2 0.0768682 1.57412 0
M  V30 5844 C 561.148 -0.906229 2.1422 0
M  V30 5845 C 562.142 -1.30477 1.08037 0
M  V30 5846 O 563.348 -1.28143 1.2641 0
M  V30 5847 H 559.723 -0.310207 0.685037 0
M  V30 5848 H 561.694 -0.402228 2.95677 0
M  V30 5849 C 560.443 -2.16245 2.72274 0
M  V30 5850 H 559.766 -1.86463 3.53655 0
M  V30 5851 H 561.206 -2.83134 3.15613 0
M  V30 5852 C 559.665 -2.92437 1.67279 0
M  V30 5853 O 560.195 -3.86322 1.10081 0
M  V30 5854 N 558.401 -2.55637 1.38195 0
M  V30 5855 H 557.948 -1.79363 1.84897 0
M  V30 5856 H 557.906 -3.06919 0.681787 0
M  V30 5857 N 561.678 -1.56367 -0.196722 0
M  V30 5858 C 562.906 -1.84639 -0.933608 0
M  V30 5859 C 563.321 -0.659164 -1.76919 0
M  V30 5860 O 562.678 0.372142 -1.78665 0
M  V30 5861 C 562.729 -3.11694 -1.83109 0
M  V30 5862 O 562.45 -4.25838 -1.02924 0
M  V30 5863 C 563.951 -3.53132 -2.67979 0
M  V30 5864 H 561.171 -0.613188 -0.272473 0
M  V30 5865 H 563.715 -2.03475 -0.204465 0
M  V30 5866 H 561.87 -2.94759 -2.51387 0
M  V30 5867 H 562.284 -4.98178 -1.64069 0
M  V30 5868 H 563.758 -4.45005 -3.26611 0
M  V30 5869 H 564.235 -2.76045 -3.41608 0
M  V30 5870 H 564.841 -3.72592 -2.05074 0
M  V30 5871 N 563.156 0.464375 -1.50603 0
M  V30 5872 C 564.384 1.23907 -1.65695 0
M  V30 5873 C 564.799 1.85658 -0.343027 0
M  V30 5874 O 564.156 1.69529 0.675739 0
M  V30 5875 C 564.207 2.3429 -2.75301 0
M  V30 5876 O 563.928 1.7507 -4.01599 0
M  V30 5877 C 565.429 3.25051 -3.01424 0
M  V30 5878 H 562.649 0.374485 -0.556778 0
M  V30 5879 H 565.193 0.55353 -1.96866 0
M  V30 5880 H 563.348 2.98607 -2.46804 0
M  V30 5881 H 563.762 2.47812 -4.62266 0
M  V30 5882 H 565.236 3.98699 -3.81763 0
M  V30 5883 H 565.713 3.84227 -2.12758 0
M  V30 5884 H 566.319 2.66463 -3.31477 0
M  V30 5885 N 564.634 1.40294 0.718013 0
M  V30 5886 C 565.597 1.4012 1.81381 0
M  V30 5887 C 566.597 0.295405 1.58063 0
M  V30 5888 O 567.787 0.554187 1.6515 0
M  V30 5889 C 564.919 1.19056 3.19435 0
M  V30 5890 H 566.112 2.37645 1.82933 0
M  V30 5891 H 563.665 1.26107 0.923405 0
M  V30 5892 H 564.4 0.222809 3.23534 0
M  V30 5893 H 564.185 1.99152 3.37758 0
M  V30 5894 H 565.675 1.21716 3.99468 0
M  V30 5895 N 566.112 -0.949982 1.2575 0
M  V30 5896 C 567.361 -1.68956 1.10168 0
M  V30 5897 C 567.674 -1.92327 -0.356309 0
M  V30 5898 O 568.88 -2.64026 -0.632657 0
M  V30 5899 C 567.336 -3.04196 1.92336 0
M  V30 5900 C 566.944 -2.88603 3.42655 0
M  V30 5901 C 568.688 -3.81904 1.85336 0
M  V30 5902 C 566.595 -4.19262 4.17101 0
M  V30 5903 H 565.525 -0.633645 0.408668 0
M  V30 5904 H 568.176 -1.05719 1.49986 0
M  V30 5905 H 566.558 -3.68363 1.45344 0
M  V30 5906 H 567.732 -2.3334 3.97353 0
M  V30 5907 H 566.047 -2.24345 3.50796 0
M  V30 5908 H 568.644 -4.78688 2.38248 0
M  V30 5909 H 568.987 -4.08099 0.822226 0
M  V30 5910 H 569.52 -3.24495 2.30104 0
M  V30 5911 H 566.259 -3.98254 5.20648 0
M  V30 5912 H 565.779 -4.74273 3.67186 0
M  V30 5913 H 567.458 -4.87775 4.25071 0
M  V30 5914 N 567.59 -1.07411 -1.15328 0
M  V30 5915 C 568.553 -0.698914 -2.18284 0
M  V30 5916 C 569.553 0.261149 -1.58665 0
M  V30 5917 O 570.743 0.0420277 -1.74149 0
M  V30 5918 C 567.875 -0.0302427 -3.40887 0
M  V30 5919 H 569.068 -1.61045 -2.52991 0
M  V30 5920 H 566.621 -0.870724 -1.298 0
M  V30 5921 H 567.356 0.893505 -3.11748 0
M  V30 5922 H 567.141 -0.720759 -3.85419 0
M  V30 5923 H 568.631 0.21759 -4.17033 0
M  V30 5924 N 569.068 1.32177 -0.85831 0
M  V30 5925 C 569.978 2.32561 -0.308606 0
M  V30 5926 C 570.994 1.64209 0.575462 0
M  V30 5927 O 572.17 1.95719 0.474961 0
M  V30 5928 C 569.235 3.43207 0.490909 0
M  V30 5929 C 568.296 4.27243 -0.419733 0
M  V30 5930 C 567.529 5.32605 0.341719 0
M  V30 5931 O 567.752 5.48332 1.57125 0
M  V30 5932 O 566.686 6.0118 -0.294379 0
M  V30 5933 H 570.512 2.81477 -1.14037 0
M  V30 5934 H 568.097 1.35866 -0.621349 0
M  V30 5935 H 569.979 4.10677 0.944574 0
M  V30 5936 H 568.654 2.96474 1.29941 0
M  V30 5937 H 567.561 3.62569 -0.921652 0
M  V30 5938 H 568.894 4.7751 -1.19352 0
M  V30 5939 N 570.547 0.616602 1.45037 0
M  V30 5940 C 571.51 -0.0871112 2.29034 0
M  V30 5941 C 572.51 -0.786414 1.40258 0
M  V30 5942 O 573.7 -0.633207 1.62284 0
M  V30 5943 C 570.832 -1.13369 3.21497 0
M  V30 5944 H 572.025 0.651497 2.92738 0
M  V30 5945 H 569.578 0.376058 1.51709 0
M  V30 5946 H 570.313 -1.90277 2.62612 0
M  V30 5947 H 570.098 -0.636358 3.86902 0
M  V30 5948 H 571.588 -1.62627 3.84633 0
M  V30 5949 N 572.025 -1.5352 0.356285 0
M  V30 5950 C 573.271 -2.02104 -0.229271 0
M  V30 5951 C 573.626 -1.23923 -1.47176 0
M  V30 5952 O 572.919 -0.321957 -1.88876 0
M  V30 5953 C 573.113 -3.52607 -0.583369 0
M  V30 5954 C 572.942 -4.4536 0.623253 0
M  V30 5955 C 571.712 -4.92446 1.13248 0
M  V30 5956 C 573.91 -4.92375 1.48563 0
M  V30 5957 N 571.892 -5.69183 2.3001 0
M  V30 5958 C 573.263 -5.67362 2.50001 0
M  V30 5959 C 575.318 -4.74464 1.50959 0
M  V30 5960 C 574.021 -6.26341 3.5368 0
M  V30 5961 C 576.047 -5.34302 2.53526 0
M  V30 5962 C 575.409 -6.09166 3.53688 0
M  V30 5963 H 571.508 -0.780595 -0.0468602 0
M  V30 5964 H 574.092 -1.88204 0.49873 0
M  V30 5965 H 572.263 -3.66686 -1.28046 0
M  V30 5966 H 573.995 -3.87922 -1.15321 0
M  V30 5967 H 570.75 -4.6842 0.698562 0
M  V30 5968 H 571.174 -6.12216 2.88998 0
M  V30 5969 H 575.816 -4.16117 0.748785 0
M  V30 5970 H 573.534 -6.8379 4.30648 0
M  V30 5971 H 577.12 -5.22342 2.56223 0
M  V30 5972 H 576 -6.54644 4.31753 0
M  V30 5973 N 573.503 -0.0852151 -1.57369 0
M  V30 5974 C 574.466 0.8627 -2.12344 0
M  V30 5975 C 575.466 1.21746 -1.05046 0
M  V30 5976 O 576.656 1.14852 -1.30976 0
M  V30 5977 C 573.788 2.1618 -2.63589 0
M  V30 5978 H 574.981 0.385511 -2.97412 0
M  V30 5979 H 572.534 0.163663 -1.55441 0
M  V30 5980 H 573.269 2.68406 -1.82013 0
M  V30 5981 H 573.054 1.91723 -3.4203 0
M  V30 5982 H 574.544 2.84011 -3.06149 0
M  V30 5983 N 574.981 1.5647 0.188427 0
M  V30 5984 C 576.397 1.50204 0.539532 0
M  V30 5985 C 576.597 0.78644 1.85519 0
M  V30 5986 O 575.653 0.339714 2.50204 0
M  V30 5987 C 576.966 2.94893 0.588103 0
M  V30 5988 C 578.514 3.05602 0.67648 0
M  V30 5989 C 578.989 4.51716 0.756101 0
M  V30 5990 N 580.48 4.55894 0.819451 0
M  V30 5991 C 581.215 5.66272 0.90134 0
M  V30 5992 N 580.711 6.86323 0.945118 0
M  V30 5993 N 582.504 5.54201 0.939043 0
M  V30 5994 H 574.655 2.01406 -0.674493 0
M  V30 5995 H 576.918 0.916828 -0.241103 0
M  V30 5996 H 576.624 3.50334 -0.309633 0
M  V30 5997 H 576.498 3.4861 1.44051 0
M  V30 5998 H 578.885 2.50206 1.56465 0
M  V30 5999 H 578.966 2.54999 -0.202262 0
M  V30 6000 H 578.61 5.07739 -0.12774 0
M  V30 6001 H 578.54 5.00058 1.65074 0
M  V30 6002 H 581.031 3.69452 0.794594 0
M  V30 6003 H 581.344 7.66194 1.0083 0
M  V30 6004 H 579.689 6.88968 0.913683 0
M  V30 6005 H 582.88 4.59333 0.901725 0
M  V30 6006 H 583.053 6.40247 0.999402 0
M  V30 6007 N 576.459 -0.456382 1.50847 0
M  V30 6008 C 577.389 -1.56025 1.73719 0
M  V30 6009 C 578.37 -1.5967 0.586473 0
M  V30 6010 O 579.555 -1.75702 0.827185 0
M  V30 6011 C 576.685 -2.94251 1.84483 0
M  V30 6012 C 575.639 -3.05471 2.99786 0
M  V30 6013 C 574.965 -4.45489 2.95709 0
M  V30 6014 C 576.265 -2.81318 4.40065 0
M  V30 6015 H 577.959 -1.37138 2.66146 0
M  V30 6016 H 575.505 -0.658299 1.28072 0
M  V30 6017 H 577.458 -3.71417 1.99067 0
M  V30 6018 H 576.182 -3.14328 0.886891 0
M  V30 6019 H 574.841 -2.30741 2.84876 0
M  V30 6020 H 574.489 -4.62505 1.97732 0
M  V30 6021 H 574.189 -4.53929 3.73125 0
M  V30 6022 H 575.713 -5.24655 3.12362 0
M  V30 6023 H 577.127 -3.48226 4.55425 0
M  V30 6024 H 575.524 -3.01188 5.19043 0
M  V30 6025 H 576.594 -1.7706 4.51418 0
M  V30 6026 N 577.937 -1.40673 -0.710563 0
M  V30 6027 C 579.214 -1.29718 -1.46398 0
M  V30 6028 C 579.594 0.082177 -2.1094 0
M  V30 6029 O 578.942 1.09536 -2.00534 0
M  V30 6030 C 579.152 -2.43967 -2.49562 0
M  V30 6031 C 580.5 -2.84436 -3.15248 0
M  V30 6032 O 581.524 -2.43597 -2.59883 0
M  V30 6033 O 580.383 -3.55008 -4.1549 0
M  V30 6034 H 577.477 -0.509697 -0.651258 0
M  V30 6035 H 580.023 -1.52603 -0.742312 0
M  V30 6036 H 578.795 -3.36076 -2.0042 0
M  V30 6037 H 578.418 -2.22879 -3.29258 0
M  V30 6038 N 579.415 0.9433 -1.26252 0
M  V30 6039 C 580.365 2.02746 -1.04297 0
M  V30 6040 C 581.349 1.60882 0.0239435 0
M  V30 6041 O 582.541 1.75947 -0.192757 0
M  V30 6042 C 579.67 3.36585 -0.6757 0
M  V30 6043 C 578.756 3.84939 -1.77996 0
M  V30 6044 N 579.147 4.05966 -3.01704 0
M  V30 6045 C 577.445 4.13833 -1.66308 0
M  V30 6046 C 578.146 4.45987 -3.73458 0
M  V30 6047 N 577.122 4.52569 -3.01135 0
M  V30 6048 H 580.924 2.17012 -1.98199 0
M  V30 6049 H 578.438 1.12898 -1.16738 0
M  V30 6050 H 580.435 4.13896 -0.499571 0
M  V30 6051 H 579.095 3.2369 0.255863 0
M  V30 6052 H 580.106 3.92716 -3.37631 0
M  V30 6053 H 576.783 4.09739 -0.801267 0
M  V30 6054 H 578.173 4.70465 -4.79701 0
M  V30 6055 N 580.893 1.08022 1.14757 0
M  V30 6056 C 581.84 0.706657 2.19716 0
M  V30 6057 C 582.81 -0.30525 1.63271 0
M  V30 6058 O 583.995 -0.19015 1.8985 0
M  V30 6059 C 581.135 0.117914 3.44898 0
M  V30 6060 C 580.248 1.18212 4.15512 0
M  V30 6061 C 579.383 0.557659 5.28265 0
M  V30 6062 C 578.422 1.60418 5.90705 0
M  V30 6063 N 577.559 1.0018 6.94916 0
M  V30 6064 H 582.399 1.60603 2.51019 0
M  V30 6065 H 579.936 0.802664 1.23271 0
M  V30 6066 H 581.894 -0.241112 4.16503 0
M  V30 6067 H 580.524 -0.744788 3.1409 0
M  V30 6068 H 579.576 1.65863 3.42335 0
M  V30 6069 H 580.888 1.97533 4.5802 0
M  V30 6070 H 580.042 0.146654 6.06523 0
M  V30 6071 H 578.781 -0.267249 4.86967 0
M  V30 6072 H 577.786 2.02489 5.11154 0
M  V30 6073 H 579.011 2.43149 6.34078 0
M  V30 6074 H 576.957 0.197917 6.55701 0
M  V30 6075 H 576.874 1.73216 7.35889 0
M  V30 6076 H 578.142 0.616523 7.77058 0
M  V30 6077 N 582.371 -1.3172 0.865308 0
M  V30 6078 C 583.618 -1.96876 0.473931 0
M  V30 6079 C 583.946 -1.68425 -0.972786 0
M  V30 6080 O 583.201 -0.970742 -1.69927 0
M  V30 6081 C 583.5 -3.5102 0.672283 0
M  V30 6082 C 583.166 -3.9948 2.09108 0
M  V30 6083 C 581.828 -4.12425 2.4791 0
M  V30 6084 C 584.18 -4.2503 3.0166 0
M  V30 6085 C 581.508 -4.48267 3.78515 0
M  V30 6086 C 583.86 -4.62335 4.31774 0
M  V30 6087 C 582.524 -4.73486 4.70497 0
M  V30 6088 H 581.794 -0.72042 0.173424 0
M  V30 6089 H 584.441 -1.56937 1.0974 0
M  V30 6090 H 582.746 -3.91785 -0.034356 0
M  V30 6091 H 584.443 -3.99475 0.349353 0
M  V30 6092 H 581.033 -3.89898 1.77981 0
M  V30 6093 H 585.217 -4.14529 2.7291 0
M  V30 6094 H 580.473 -4.55097 4.08285 0
M  V30 6095 H 584.647 -4.81058 5.03543 0
M  V30 6096 H 582.274 -5.01016 5.71741 0
M  V30 6097 N 583.85 -0.624285 -1.44708 0
M  V30 6098 C 585.127 -0.0572781 -1.95516 0
M  V30 6099 C 585.507 1.41516 -1.56641 0
M  V30 6100 O 584.855 2.12614 -0.837111 0
M  V30 6101 C 585.065 -0.272944 -3.47931 0
M  V30 6102 C 586.413 -0.162529 -4.24289 0
M  V30 6103 O 587.437 -0.203946 -3.55616 0
M  V30 6104 O 586.296 -0.0616847 -5.46465 0
M  V30 6105 H 583.389 0.0262219 -0.826584 0
M  V30 6106 H 585.936 -0.695512 -1.54793 0
M  V30 6107 H 584.707 -1.29492 -3.69253 0
M  V30 6108 H 584.331 0.399756 -3.95585 0
M  V30 6109 N 585.328 1.53329 -0.364422 0
M  V30 6110 C 586.258 2.28627 0.474543 0
M  V30 6111 C 587.239 1.31009 1.08492 0
M  V30 6112 O 588.424 1.59878 1.10239 0
M  V30 6113 C 585.554 3.07465 1.61501 0
M  V30 6114 C 584.508 4.1276 1.13194 0
M  V30 6115 C 583.834 4.79674 2.36255 0
M  V30 6116 C 585.134 5.21847 0.217507 0
M  V30 6117 H 586.828 2.99005 -0.153656 0
M  V30 6118 H 584.374 1.43803 -0.0753406 0
M  V30 6119 H 586.327 3.58889 2.20855 0
M  V30 6120 H 585.051 2.34775 2.27042 0
M  V30 6121 H 583.71 3.62281 0.56109 0
M  V30 6122 H 583.358 4.03557 3.00251 0
M  V30 6123 H 583.058 5.50827 2.04606 0
M  V30 6124 H 584.582 5.33892 2.96297 0
M  V30 6125 H 585.996 5.6878 0.718493 0
M  V30 6126 H 584.393 6.00099 -0.00806408 0
M  V30 6127 H 585.463 4.7921 -0.740653 0
M  V30 6128 N 586.806 0.0935595 1.57322 0
M  V30 6129 C 587.739 -0.902505 2.09595 0
M  V30 6130 C 588.717 -1.27732 1.00615 0
M  V30 6131 O 589.901 -1.38283 1.28102 0
M  V30 6132 C 587.028 -2.20416 2.57166 0
M  V30 6133 C 586.074 -1.97932 3.7779 0
M  V30 6134 S 586.907 -1.21873 5.21447 0
M  V30 6135 C 588.063 -2.53273 5.72367 0
M  V30 6136 H 588.296 -0.457797 2.93754 0
M  V30 6137 H 585.829 -0.119694 1.53935 0
M  V30 6138 H 587.787 -2.95217 2.85232 0
M  V30 6139 H 586.448 -2.62008 1.73235 0
M  V30 6140 H 585.641 -2.94316 4.09138 0
M  V30 6141 H 585.243 -1.3126 3.5021 0
M  V30 6142 H 587.535 -3.49256 5.8054 0
M  V30 6143 H 588.478 -2.26505 6.70896 0
M  V30 6144 H 588.886 -2.61475 5.00291 0
M  V30 6145 N 588.284 -1.56567 -0.180126 0
M  V30 6146 C 589.514 -1.85349 -0.912647 0
M  V30 6147 C 589.922 -0.675795 -1.76719 0
M  V30 6148 O 589.265 0.3645 -1.80047 0
M  V30 6149 C 589.327 -3.08431 -1.84691 0
M  V30 6150 C 588.991 -4.41694 -1.17284 0
M  V30 6151 C 589.988 -5.17062 -0.542532 0
M  V30 6152 C 587.673 -4.8843 -1.17223 0
M  V30 6153 C 589.667 -6.37351 0.0793953 0
M  V30 6154 C 587.354 -6.08652 -0.54647 0
M  V30 6155 C 588.352 -6.82955 0.0782458 0
M  V30 6156 O 588.04 -8.00897 0.694158 0
M  V30 6157 H 587.772 -0.619286 -0.271036 0
M  V30 6158 H 590.326 -2.0454 -0.187768 0
M  V30 6159 H 588.556 -2.85163 -2.61188 0
M  V30 6160 H 590.245 -3.23733 -2.44851 0
M  V30 6161 H 591.011 -4.8204 -0.535045 0
M  V30 6162 H 586.89 -4.30542 -1.64788 0
M  V30 6163 H 590.434 -6.95287 0.567612 0
M  V30 6164 H 586.331 -6.4314 -0.55151 0
M  V30 6165 H 587.099 -8.16352 0.592537 0
M  V30 6166 N 589.762 0.448376 -1.51087 0
M  V30 6167 C 590.725 1.52588 -1.71025 0
M  V30 6168 C 591.725 1.49958 -0.580442 0
M  V30 6169 O 592.915 1.52176 -0.847833 0
M  V30 6170 C 590.047 2.92163 -1.75652 0
M  V30 6171 H 591.24 1.36218 -2.67179 0
M  V30 6172 H 588.793 0.676313 -1.4091 0
M  V30 6173 H 589.528 3.13951 -0.812724 0
M  V30 6174 H 589.313 2.95478 -2.57751 0
M  V30 6175 H 590.803 3.70349 -1.92953 0
M  V30 6176 N 591.24 1.41047 0.703093 0
M  V30 6177 C 592.187 1.42302 1.81711 0
M  V30 6178 C 593.157 0.278336 1.63751 0
M  V30 6179 O 594.342 0.478266 1.84709 0
M  V30 6180 C 591.482 1.30362 3.19531 0
M  V30 6181 C 590.595 2.54638 3.48975 0
M  V30 6182 C 589.73 2.35047 4.76368 0
M  V30 6183 C 588.769 3.54837 4.98756 0
M  V30 6184 N 587.906 3.34363 6.1737 0
M  V30 6185 H 592.746 2.37516 1.79973 0
M  V30 6186 H 590.283 1.1795 0.878983 0
M  V30 6187 H 592.241 1.21443 3.99134 0
M  V30 6188 H 590.871 0.387602 3.20464 0
M  V30 6189 H 589.923 2.74037 2.63833 0
M  V30 6190 H 591.235 3.43766 3.61423 0
M  V30 6191 H 590.389 2.23552 5.64012 0
M  V30 6192 H 589.128 1.43363 4.66153 0
M  V30 6193 H 588.133 3.66795 4.09563 0
M  V30 6194 H 589.358 4.47464 5.10835 0
M  V30 6195 H 587.304 2.45373 6.08382 0
M  V30 6196 H 587.221 4.17063 6.30551 0
M  V30 6197 H 588.489 3.26626 7.07768 0
M  V30 6198 N 592.718 -0.936591 1.26751 0
M  V30 6199 C 594.134 -1.21095 1.03963 0
M  V30 6200 C 594.334 -2.00156 -0.232372 0
M  V30 6201 O 593.39 -2.3434 -0.940274 0
M  V30 6202 C 594.703 -1.96775 2.27377 0
M  V30 6203 C 596.251 -2.09749 2.32324 0
M  V30 6204 C 596.726 -2.88832 3.55443 0
M  V30 6205 N 598.217 -2.96404 3.55948 0
M  V30 6206 C 598.952 -3.58036 4.47881 0
M  V30 6207 N 598.448 -4.21132 5.50109 0
M  V30 6208 N 600.241 -3.55353 4.35523 0
M  V30 6209 H 592.392 -0.408173 2.08441 0
M  V30 6210 H 594.655 -0.243139 0.91629 0
M  V30 6211 H 594.361 -1.46094 3.19921 0
M  V30 6212 H 594.235 -2.97424 2.31989 0
M  V30 6213 H 596.622 -2.5962 1.40291 0
M  V30 6214 H 596.703 -1.08347 2.31721 0
M  V30 6215 H 596.347 -2.39647 4.47808 0
M  V30 6216 H 596.277 -3.90499 3.53296 0
M  V30 6217 H 598.768 -2.51552 2.82011 0
M  V30 6218 H 599.081 -4.66071 6.16439 0
M  V30 6219 H 597.426 -4.19705 5.53961 0
M  V30 6220 H 600.617 -3.05256 3.54875 0
M  V30 6221 H 600.79 -4.03097 5.07363 0
M  V30 6222 N 594.196 -1.08629 -1.14182 0
M  V30 6223 C 595.159 -0.722027 -2.1753 0
M  V30 6224 C 596.159 0.244305 -1.58933 0
M  V30 6225 O 597.349 0.0235545 -1.74184 0
M  V30 6226 C 594.481 -0.0663966 -3.40835 0
M  V30 6227 H 595.674 -1.63719 -2.51269 0
M  V30 6228 H 593.227 -0.884442 -1.28869 0
M  V30 6229 H 593.962 0.860389 -3.12678 0
M  V30 6230 H 593.747 -0.761598 -3.84632 0
M  V30 6231 H 595.237 0.173346 -4.1724 0
M  V30 6232 N 595.674 1.31259 -0.872281 0
M  V30 6233 C 596.921 1.96622 -0.484365 0
M  V30 6234 C 597.249 1.68939 0.963841 0
M  V30 6235 O 596.504 0.97974 1.6941 0
M  V30 6236 C 596.803 3.50659 -0.690889 0
M  V30 6237 C 596.469 3.98366 -2.11224 0
M  V30 6238 C 595.131 4.11104 -2.50094 0
M  V30 6239 C 597.483 4.23425 -3.0391 0
M  V30 6240 C 594.811 4.46254 -3.80887 0
M  V30 6241 C 597.163 4.60039 -4.3422 0
M  V30 6242 C 595.827 4.70984 -4.73001 0
M  V30 6243 H 595.097 0.71949 -0.177242 0
M  V30 6244 H 597.744 1.56353 -1.10571 0
M  V30 6245 H 596.049 3.91798 0.0135782 0
M  V30 6246 H 597.746 3.99284 -0.370534 0
M  V30 6247 H 594.336 3.88949 -1.80047 0
M  V30 6248 H 598.52 4.13075 -2.75104 0
M  V30 6249 H 593.776 4.52926 -4.10692 0
M  V30 6250 H 597.95 4.78381 -5.06088 0
M  V30 6251 H 595.577 4.97977 -5.7439 0
M  V30 6252 N 597.152 0.631951 1.44375 0
M  V30 6253 C 598.398 0.13697 2.02337 0
M  V30 6254 C 598.731 -1.23826 1.49602 0
M  V30 6255 O 598.006 -1.8221 0.680415 0
M  V30 6256 C 598.289 0.124536 3.59885 0
M  V30 6257 C 598.142 1.53217 4.229 0
M  V30 6258 C 599.461 -0.550481 4.36644 0
M  V30 6259 H 596.58 0.051247 0.735216 0
M  V30 6260 H 599.222 0.808581 1.71936 0
M  V30 6261 H 597.372 -0.44737 3.85916 0
M  V30 6262 H 599.044 2.15303 4.07973 0
M  V30 6263 H 597.287 2.0858 3.80364 0
M  V30 6264 H 597.958 1.4755 5.31914 0
M  V30 6265 H 600.434 -0.0641154 4.16051 0
M  V30 6266 H 599.31 -0.528371 5.46351 0
M  V30 6267 H 599.571 -1.62097 4.11311 0
M  V30 6268 N 598.631 -1.53133 0.372548 0
M  V30 6269 C 599.581 -2.22733 -0.487218 0
M  V30 6270 C 600.565 -1.22506 -1.04312 0
M  V30 6271 O 601.757 -1.47923 -0.972005 0
M  V30 6272 C 598.886 -3.02524 -1.62278 0
M  V30 6273 C 597.972 -4.10133 -1.07943 0
M  V30 6274 N 598.363 -5.05133 -0.259629 0
M  V30 6275 C 596.661 -4.24964 -1.35356 0
M  V30 6276 C 597.362 -5.81687 0.0386656 0
M  V30 6277 N 596.338 -5.40699 -0.560827 0
M  V30 6278 H 600.14 -2.93538 0.145853 0
M  V30 6279 H 597.654 -1.61389 0.180938 0
M  V30 6280 H 599.651 -3.50909 -2.25096 0
M  V30 6281 H 598.311 -2.33252 -2.25884 0
M  V30 6282 H 599.322 -5.178 0.101746 0
M  V30 6283 H 595.999 -3.66919 -1.9919 0
M  V30 6284 H 597.389 -6.68224 0.701841 0
M  V30 6285 N 600.109 -0.101901 -1.5727 0
M  V30 6286 C 601.355 0.554864 -1.95686 0
M  V30 6287 C 601.71 1.65368 -0.983415 0
M  V30 6288 O 601.003 1.91597 -0.0105374 0
M  V30 6289 C 601.197 1.14898 -3.38427 0
M  V30 6290 C 601.026 0.109251 -4.49567 0
M  V30 6291 C 599.796 -0.316633 -5.04307 0
M  V30 6292 C 601.994 -0.665196 -5.0998 0
M  V30 6293 N 599.976 -1.34393 -5.99009 0
M  V30 6294 C 601.347 -1.54413 -6.00464 0
M  V30 6295 C 603.402 -0.717966 -4.92696 0
M  V30 6296 C 602.105 -2.47122 -6.75517 0
M  V30 6297 C 604.131 -1.63268 -5.68417 0
M  V30 6298 C 603.493 -2.49923 -6.58572 0
M  V30 6299 H 599.592 0.17317 -0.762585 0
M  V30 6300 H 602.176 -0.18605 -1.93809 0
M  V30 6301 H 600.347 1.85969 -3.40984 0
M  V30 6302 H 602.079 1.76867 -3.64006 0
M  V30 6303 H 598.834 0.0724419 -4.73545 0
M  V30 6304 H 599.258 -1.85598 -6.51062 0
M  V30 6305 H 603.9 -0.0621637 -4.22754 0
M  V30 6306 H 601.618 -3.13724 -7.44717 0
M  V30 6307 H 605.204 -1.67874 -5.57054 0
M  V30 6308 H 604.084 -3.19553 -7.16139 0
M  V30 6309 N 601.587 1.56661 0.17182 0
M  V30 6310 C 602.817 1.85831 0.902804 0
M  V30 6311 C 603.225 0.685157 1.76358 0
M  V30 6312 O 602.568 -0.354947 1.80238 0
M  V30 6313 C 602.63 3.09406 1.83053 0
M  V30 6314 C 602.294 4.4231 1.1494 0
M  V30 6315 C 603.291 5.17342 0.515104 0
M  V30 6316 C 600.976 4.89045 1.14631 0
M  V30 6317 C 602.97 6.37299 -0.113194 0
M  V30 6318 C 600.657 6.08933 0.514184 0
M  V30 6319 C 601.655 6.82904 -0.114463 0
M  V30 6320 O 601.343 8.00518 -0.736622 0
M  V30 6321 H 601.075 0.620715 0.267748 0
M  V30 6322 H 603.629 2.04637 0.176918 0
M  V30 6323 H 601.859 2.86544 2.59672 0
M  V30 6324 H 603.548 3.25027 2.4313 0
M  V30 6325 H 604.314 4.82317 0.509474 0
M  V30 6326 H 600.193 4.31409 1.62502 0
M  V30 6327 H 603.737 6.94976 -0.604477 0
M  V30 6328 H 599.634 6.43423 0.517395 0
M  V30 6329 H 600.402 8.16027 -0.635822 0
M  V30 6330 N 603.065 -0.440357 1.51323 0
M  V30 6331 C 604.311 -1.19181 1.64085 0
M  V30 6332 C 604.644 -1.90936 0.354575 0
M  V30 6333 O 603.919 -1.8347 -0.645675 0
M  V30 6334 C 604.202 -2.2112 2.84215 0
M  V30 6335 C 604.055 -1.53468 4.22809 0
M  V30 6336 C 605.374 -3.22133 2.99864 0
M  V30 6337 H 602.493 -0.431924 0.597169 0
M  V30 6338 H 605.135 -0.481443 1.83799 0
M  V30 6339 H 603.285 -2.81703 2.67537 0
M  V30 6340 H 604.957 -0.962455 4.51148 0
M  V30 6341 H 603.2 -0.837086 4.25647 0
M  V30 6342 H 603.871 -2.27694 5.02852 0
M  V30 6343 H 606.347 -2.71601 3.15233 0
M  V30 6344 H 605.223 -3.90756 3.85488 0
M  V30 6345 H 605.484 -3.88061 2.11804 0
M  V30 6346 N 604.543 -1.41418 -0.695603 0
M  V30 6347 C 605.791 -1.40496 -1.45277 0
M  V30 6348 C 606.112 -0.0149538 -1.94994 0
M  V30 6349 O 605.382 0.9432 -1.71699 0
M  V30 6350 H 603.962 -0.517147 -0.539044 0
M  V30 6351 H 606.624 -1.76656 -0.823321 0
M  V30 6352 H 605.72 -2.09214 -2.31595 0
M  V30 6353 N 606.021 0.929856 -1.27246 0
M  V30 6354 C 606.931 2.0636 -1.11592 0
M  V30 6355 C 607.947 1.73938 -0.046496 0
M  V30 6356 O 609.123 1.9981 -0.252544 0
M  V30 6357 C 606.188 3.38213 -0.762437 0
M  V30 6358 C 605.249 3.84346 -1.9125 0
M  V30 6359 C 604.482 5.09906 -1.57579 0
M  V30 6360 O 604.705 5.68354 -0.482694 0
M  V30 6361 O 603.639 5.51359 -2.41426 0
M  V30 6362 H 607.465 2.22478 -2.0673 0
M  V30 6363 H 605.05 1.04865 -1.06413 0
M  V30 6364 H 606.932 4.1741 -0.57854 0
M  V30 6365 H 605.607 3.23307 0.159439 0
M  V30 6366 H 604.514 3.06045 -2.15144 0
M  V30 6367 H 605.847 4.0379 -2.81451 0
M  V30 6368 N 607.499 1.09233 1.13605 0
M  V30 6369 C 608.747 0.825525 1.84471 0
M  V30 6370 C 609.068 -0.650702 1.83823 0
M  V30 6371 O 608.338 -1.47204 1.29259 0
M  V30 6372 H 606.918 0.3024 0.683054 0
M  V30 6373 H 609.58 1.38006 1.37624 0
M  V30 6374 H 608.676 1.17727 2.89045 0
M  V30 6375 N 608.977 -1.30795 0.87923 0
M  V30 6376 C 609.91 -2.26396 0.286404 0
M  V30 6377 C 610.888 -1.51528 -0.589748 0
M  V30 6378 O 612.072 -1.80566 -0.541119 0
M  V30 6379 C 609.199 -3.33458 -0.593581 0
M  V30 6380 C 608.245 -4.2597 0.21247 0
M  V30 6381 S 609.078 -5.11132 1.59702 0
M  V30 6382 C 610.234 -6.21705 0.723408 0
M  V30 6383 H 610.467 -2.7633 1.09677 0
M  V30 6384 H 608 -1.38703 0.678305 0
M  V30 6385 H 609.958 -3.9561 -1.09557 0
M  V30 6386 H 608.619 -2.82259 -1.37799 0
M  V30 6387 H 607.812 -5.01907 -0.458822 0
M  V30 6388 H 607.414 -3.68363 0.646883 0
M  V30 6389 H 609.706 -6.77472 -0.0620739 0
M  V30 6390 H 610.649 -6.93007 1.4542 0
M  V30 6391 H 611.057 -5.63771 0.286855 0
M  V30 6392 N 610.455 -0.639598 -1.44038 0
M  V30 6393 C 611.365 0.0612377 -2.3452 0
M  V30 6394 C 612.381 0.826717 -1.53106 0
M  V30 6395 O 613.557 0.777059 -1.85806 0
M  V30 6396 C 610.622 1.02492 -3.31204 0
M  V30 6397 C 609.683 0.25788 -4.28525 0
M  V30 6398 C 608.916 1.17566 -5.2059 0
M  V30 6399 O 609.139 2.41461 -5.16771 0
M  V30 6400 O 608.073 0.655407 -5.98321 0
M  V30 6401 H 611.899 -0.68318 -2.95916 0
M  V30 6402 H 609.484 -0.399784 -1.43952 0
M  V30 6403 H 611.366 1.57911 -3.90694 0
M  V30 6404 H 610.041 1.7498 -2.7233 0
M  V30 6405 H 608.948 -0.339566 -3.72556 0
M  V30 6406 H 610.281 -0.427154 -4.90343 0
M  V30 6407 N 611.933 1.52934 -0.380664 0
M  V30 6408 C 612.843 2.29921 0.466192 0
M  V30 6409 C 613.859 1.36488 1.07922 0
M  V30 6410 O 615.035 1.69553 1.0869 0
M  V30 6411 C 612.1 3.08468 1.58266 0
M  V30 6412 C 611.161 4.17595 0.995627 0
M  V30 6413 C 610.394 4.92387 2.05889 0
M  V30 6414 O 610.617 4.67184 3.27254 0
M  V30 6415 O 609.551 5.77949 1.68102 0
M  V30 6416 H 613.377 3.03274 -0.160735 0
M  V30 6417 H 610.962 1.48698 -0.144617 0
M  V30 6418 H 612.844 3.57469 2.23145 0
M  V30 6419 H 611.519 2.37937 2.19471 0
M  V30 6420 H 610.426 3.72811 0.310332 0
M  V30 6421 H 611.759 4.90336 0.427918 0
M  V30 6422 N 613.412 0.11024 1.57214 0
M  V30 6423 C 614.66 -0.548783 1.94506 0
M  V30 6424 C 614.981 -1.67772 0.99386 0
M  V30 6425 O 614.251 -1.9584 0.0485841 0
M  V30 6426 H 612.831 -0.205715 0.718116 0
M  V30 6427 H 615.493 0.177127 1.94093 0
M  V30 6428 H 614.589 -0.949096 2.97319 0
M  V30 6429 N 614.89 -1.56749 -0.16351 0
M  V30 6430 C 615.8 -2.00255 -1.2221 0
M  V30 6431 C 616.816 -0.915194 -1.47987 0
M  V30 6432 O 617.992 -1.22342 -1.59982 0
M  V30 6433 C 615.057 -2.36035 -2.53946 0
M  V30 6434 C 614.118 -3.58637 -2.35962 0
M  V30 6435 C 613.351 -3.92701 -3.61416 0
M  V30 6436 O 613.574 -3.27632 -4.66919 0
M  V30 6437 O 612.508 -4.86019 -3.55062 0
M  V30 6438 H 616.334 -2.90586 -0.882794 0
M  V30 6439 H 613.919 -1.44721 -0.370978 0
M  V30 6440 H 615.801 -2.59982 -3.31643 0
M  V30 6441 H 614.476 -1.48863 -2.8744 0
M  V30 6442 H 613.383 -3.39898 -1.5627 0
M  V30 6443 H 614.716 -4.46374 -2.0739 0
M  V30 6444 N 616.368 0.432326 -1.51554 0
M  V30 6445 C 617.615 1.18134 -1.64471 0
M  V30 6446 C 617.943 1.91076 -0.363349 0
M  V30 6447 O 617.198 1.84492 0.65279 0
M  V30 6448 C 617.497 2.21907 -2.80164 0
M  V30 6449 C 617.163 1.65941 -4.19255 0
M  V30 6450 C 615.825 1.50401 -4.57092 0
M  V30 6451 C 618.177 1.24843 -5.06027 0
M  V30 6452 C 615.505 0.922443 -5.79403 0
M  V30 6453 C 617.857 0.68113 -6.28922 0
M  V30 6454 C 616.521 0.512673 -6.65528 0
M  V30 6455 H 615.791 0.432283 -0.601841 0
M  V30 6456 H 618.438 0.471701 -1.856 0
M  V30 6457 H 616.743 2.98928 -2.53277 0
M  V30 6458 H 618.44 2.79691 -2.87357 0
M  V30 6459 H 615.03 1.79014 -3.89425 0
M  V30 6460 H 619.214 1.35667 -4.77397 0
M  V30 6461 H 614.47 0.779733 -6.06408 0
M  V30 6462 H 618.644 0.35418 -6.95499 0
M  V30 6463 H 616.271 0.0599084 -7.60176 0
M  V30 6464 N 617.846 1.41785 0.688094 0
M  V30 6465 C 619.071 1.45117 1.48175 0
M  V30 6466 C 619.496 0.060129 1.88004 0
M  V30 6467 O 618.854 -0.938385 1.55126 0
M  V30 6468 C 618.902 2.37224 2.71583 0
M  V30 6469 O 618.006 1.83443 3.69354 0
M  V30 6470 H 617.347 0.492208 0.445676 0
M  V30 6471 H 619.877 1.86329 0.845145 0
M  V30 6472 H 619.887 2.53353 3.19806 0
M  V30 6473 H 618.562 3.38293 2.41931 0
M  V30 6474 H 617.139 1.76802 3.28322 0
M  V30 6475 N 619.324 -0.923095 1.27737 0
M  V30 6476 C 620.234 -2.05765 1.12685 0
M  V30 6477 C 621.25 -1.73911 0.0557197 0
M  V30 6478 O 622.426 -1.99674 0.263137 0
M  V30 6479 C 619.491 -3.37804 0.780363 0
M  V30 6480 C 618.552 -3.83326 1.93286 0
M  V30 6481 C 617.785 -5.09064 1.60281 0
M  V30 6482 O 618.008 -5.6809 0.512828 0
M  V30 6483 O 616.942 -5.50071 2.44347 0
M  V30 6484 H 620.768 -2.21378 2.07907 0
M  V30 6485 H 618.353 -1.04299 1.06968 0
M  V30 6486 H 620.235 -4.17097 0.600668 0
M  V30 6487 H 618.91 -3.23387 -0.142291 0
M  V30 6488 H 617.817 -3.049 2.16764 0
M  V30 6489 H 619.15 -4.02292 2.83588 0
M  V30 6490 N 620.802 -1.09834 -1.13024 0
M  V30 6491 C 621.765 -0.745058 -2.16752 0
M  V30 6492 C 622.765 0.227435 -1.59183 0
M  V30 6493 O 623.955 0.0050786 -1.74199 0
M  V30 6494 C 621.087 -0.102543 -3.40746 0
M  V30 6495 H 622.28 -1.66375 -2.49518 0
M  V30 6496 H 619.833 -0.898061 -1.27924 0
M  V30 6497 H 620.568 0.827177 -3.13573 0
M  V30 6498 H 620.353 -0.80235 -3.83803 0
M  V30 6499 H 621.843 0.129082 -4.174 0
M  V30 6500 N 622.28 1.30327 -0.886154 0
M  V30 6501 C 623.696 1.48676 -0.580323 0
M  V30 6502 C 623.896 1.81189 0.881639 0
M  V30 6503 O 622.952 1.90021 1.66278 0
M  V30 6504 C 624.265 2.60932 -1.49449 0
M  V30 6505 C 625.813 2.74812 -1.49824 0
M  V30 6506 C 626.288 3.90183 -2.39836 0
M  V30 6507 N 627.779 3.97495 -2.37806 0
M  V30 6508 C 628.514 4.86078 -3.04165 0
M  V30 6509 N 628.01 5.79448 -3.79753 0
M  V30 6510 N 629.803 4.79456 -2.93391 0
M  V30 6511 H 621.954 1.07495 -1.8319 0
M  V30 6512 H 624.217 0.532661 -0.784204 0
M  V30 6513 H 623.923 2.43731 -2.5355 0
M  V30 6514 H 623.797 3.57437 -1.20494 0
M  V30 6515 H 626.184 2.91418 -0.464731 0
M  V30 6516 H 626.265 1.78924 -1.82811 0
M  V30 6517 H 625.909 3.74334 -3.43273 0
M  V30 6518 H 625.839 4.85411 -2.04166 0
M  V30 6519 H 628.33 3.30703 -1.82877 0
M  V30 6520 H 628.643 6.43805 -4.27475 0
M  V30 6521 H 626.988 5.79376 -3.8386 0
M  V30 6522 H 630.179 4.05494 -2.33864 0
M  V30 6523 H 630.352 5.48283 -3.45383 0
M  V30 6524 N 623.758 0.647228 1.43697 0
M  V30 6525 C 624.668 -0.0487997 2.34549 0
M  V30 6526 C 625.684 -0.818586 1.53542 0
M  V30 6527 O 626.86 -0.767195 1.86215 0
M  V30 6528 C 623.925 -1.00734 3.31743 0
M  V30 6529 C 622.986 -0.23515 4.28655 0
M  V30 6530 C 622.219 -1.14803 5.21206 0
M  V30 6531 O 622.442 -2.38717 5.18045 0
M  V30 6532 O 621.376 -0.623667 5.9866 0
M  V30 6533 H 625.202 0.698863 2.9555 0
M  V30 6534 H 622.787 0.407412 1.43738 0
M  V30 6535 H 624.669 -1.55837 3.91526 0
M  V30 6536 H 623.344 -1.73534 2.73254 0
M  V30 6537 H 622.251 0.359319 3.7237 0
M  V30 6538 H 623.584 0.453152 4.9011 0
M  V30 6539 N 625.236 -1.5273 0.388769 0
M  V30 6540 C 626.513 -1.93981 -0.251133 0
M  V30 6541 C 626.893 -1.32418 -1.64404 0
M  V30 6542 O 626.241 -0.492074 -2.23139 0
M  V30 6543 C 626.451 -3.47891 -0.27802 0
M  V30 6544 C 627.799 -4.21559 -0.507229 0
M  V30 6545 O 628.823 -3.54394 -0.358252 0
M  V30 6546 O 627.682 -5.40626 -0.799094 0
M  V30 6547 H 624.776 -0.812157 -0.15598 0
M  V30 6548 H 627.322 -1.63809 0.443237 0
M  V30 6549 H 626.094 -3.8503 0.697669 0
M  V30 6550 H 625.717 -3.84364 -1.01733 0
M  V30 6551 N 626.714 -0.118576 -1.57153 0
M  V30 6552 C 627.647 0.869046 -2.11004 0
M  V30 6553 C 628.625 1.26115 -1.02634 0
M  V30 6554 O 629.809 1.36228 -1.30285 0
M  V30 6555 C 626.936 2.16297 -2.6064 0
M  V30 6556 C 625.982 1.91896 -3.80891 0
M  V30 6557 S 626.815 1.13562 -5.2332 0
M  V30 6558 C 627.971 2.44135 -5.76324 0
M  V30 6559 H 628.204 0.411005 -2.94445 0
M  V30 6560 H 625.737 0.0951891 -1.54106 0
M  V30 6561 H 627.695 2.90642 -2.89892 0
M  V30 6562 H 626.356 2.59219 -1.77382 0
M  V30 6563 H 625.549 2.8777 -4.13768 0
M  V30 6564 H 625.151 1.25672 -3.52253 0
M  V30 6565 H 627.443 3.39976 -5.86022 0
M  V30 6566 H 628.386 2.15803 -6.74414 0
M  V30 6567 H 628.794 2.53483 -5.04387 0
M  V30 6568 N 628.193 1.56834 0.155195 0
M  V30 6569 C 629.156 1.96748 1.17571 0
M  V30 6570 C 630.156 0.853006 1.3631 0
M  V30 6571 O 631.346 1.11978 1.33441 0
M  V30 6572 C 628.478 2.27631 2.53765 0
M  V30 6573 H 629.671 2.88085 0.833498 0
M  V30 6574 H 627.224 1.51141 0.398242 0
M  V30 6575 H 627.959 1.39059 2.92973 0
M  V30 6576 H 627.744 3.0888 2.41527 0
M  V30 6577 H 629.234 2.59377 3.27282 0
M  V30 6578 N 629.671 -0.424282 1.51781 0
M  V30 6579 C 630.634 -1.49848 1.73431 0
M  V30 6580 C 631.634 -1.49016 0.604225 0
M  V30 6581 O 632.824 -1.50808 0.871935 0
M  V30 6582 C 629.956 -2.89332 1.80277 0
M  V30 6583 H 631.149 -1.3195 2.69312 0
M  V30 6584 H 628.702 -0.653809 1.41968 0
M  V30 6585 H 629.437 -3.12618 0.862568 0
M  V30 6586 H 629.222 -2.9134 2.62419 0
M  V30 6587 H 630.712 -3.67233 1.98821 0
M  V30 6588 N 631.149 -1.42148 -0.680565 0
M  V30 6589 C 632.079 -1.4796 -1.80638 0
M  V30 6590 C 633.06 -0.336728 -1.66734 0
M  V30 6591 O 634.245 -0.550247 -1.86242 0
M  V30 6592 C 631.375 -1.37569 -3.18892 0
M  V30 6593 C 630.329 -2.49823 -3.47524 0
M  V30 6594 C 629.655 -2.24491 -4.85291 0
M  V30 6595 C 630.955 -3.92144 -3.44994 0
M  V30 6596 H 632.649 -2.42184 -1.76032 0
M  V30 6597 H 630.195 -1.16566 -0.845481 0
M  V30 6598 H 632.148 -1.40243 -3.97379 0
M  V30 6599 H 630.872 -0.398357 -3.24162 0
M  V30 6600 H 629.531 -2.46455 -2.71395 0
M  V30 6601 H 629.179 -1.25066 -4.87204 0
M  V30 6602 H 628.879 -2.99722 -5.05411 0
M  V30 6603 H 630.403 -2.28906 -5.66069 0
M  V30 6604 H 631.817 -3.97145 -4.13459 0
M  V30 6605 H 630.214 -4.67179 -3.76648 0
M  V30 6606 H 631.284 -4.19225 -2.43676 0
M  V30 6607 N 632.627 0.916307 -1.28225 0
M  V30 6608 C 633.537 2.05165 -1.13775 0
M  V30 6609 C 634.553 1.73879 -0.0649418 0
M  V30 6610 O 635.729 1.99531 -0.273722 0
M  V30 6611 C 632.794 3.37385 -0.798267 0
M  V30 6612 C 631.855 3.82296 -1.95316 0
M  V30 6613 C 631.088 5.08206 -1.62978 0
M  V30 6614 O 631.311 5.6781 -0.542948 0
M  V30 6615 O 630.245 5.48768 -2.47261 0
M  V30 6616 H 634.071 2.20273 -2.09078 0
M  V30 6617 H 631.656 1.0373 -1.07519 0
M  V30 6618 H 633.538 4.16773 -0.62278 0
M  V30 6619 H 632.213 3.23458 0.125139 0
M  V30 6620 H 631.12 3.03746 -2.18378 0
M  V30 6621 H 632.453 4.00782 -2.85718 0
M  V30 6622 N 634.105 1.10431 1.1244 0
M  V30 6623 C 635.052 0.753103 2.18167 0
M  V30 6624 C 636.022 -0.270549 1.63882 0
M  V30 6625 O 637.207 -0.149837 1.90211 0
M  V30 6626 C 634.347 0.191046 3.44571 0
M  V30 6627 C 633.46 1.26999 4.12911 0
M  V30 6628 C 632.595 0.669586 5.26963 0
M  V30 6629 C 631.634 1.72912 5.87169 0
M  V30 6630 N 630.771 1.14898 6.92635 0
M  V30 6631 H 635.611 1.65892 2.47556 0
M  V30 6632 H 633.148 0.828631 1.21541 0
M  V30 6633 H 635.106 -0.152712 4.1692 0
M  V30 6634 H 633.736 -0.677997 3.15599 0
M  V30 6635 H 632.788 1.73087 3.3874 0
M  V30 6636 H 634.1 2.07204 4.53727 0
M  V30 6637 H 633.254 0.275274 6.06075 0
M  V30 6638 H 631.993 -0.163895 4.87425 0
M  V30 6639 H 630.998 2.13286 5.06744 0
M  V30 6640 H 632.223 2.56544 6.28778 0
M  V30 6641 H 630.169 0.336956 6.55134 0
M  V30 6642 H 630.086 1.88786 7.32049 0
M  V30 6643 H 631.354 0.78121 7.75576 0
M  V30 6644 N 635.583 -1.29855 0.893053 0
M  V30 6645 C 636.86 -1.90694 0.435336 0
M  V30 6646 C 637.24 -1.8111 -1.08454 0
M  V30 6647 O 636.588 -1.23352 -1.92345 0
M  V30 6648 C 636.798 -3.36033 0.942472 0
M  V30 6649 C 638.146 -4.13083 0.982226 0
M  V30 6650 O 639.17 -3.4491 0.889686 0
M  V30 6651 O 638.029 -5.34896 1.12022 0
M  V30 6652 H 635.123 -0.815978 0.134567 0
M  V30 6653 H 637.669 -1.38367 0.982484 0
M  V30 6654 H 636.441 -3.37132 1.9864 0
M  V30 6655 H 636.064 -3.95828 0.374952 0
M  V30 6656 N 637.061 -0.65484 -1.43351 0
M  V30 6657 C 638.291 -0.176429 -2.05845 0
M  V30 6658 C 638.699 1.16375 -1.49176 0
M  V30 6659 O 638.042 1.72981 -0.618322 0
M  V30 6660 C 638.104 -0.0125844 -3.59498 0
M  V30 6661 C 637.768 -1.27831 -4.38758 0
M  V30 6662 C 638.765 -2.2074 -4.70712 0
M  V30 6663 C 636.45 -1.52035 -4.78739 0
M  V30 6664 C 638.444 -3.36145 -5.41558 0
M  V30 6665 C 636.131 -2.67732 -5.49329 0
M  V30 6666 C 637.129 -3.59612 -5.80662 0
M  V30 6667 O 636.817 -4.73289 -6.4981 0
M  V30 6668 H 636.549 -0.0879682 -0.670252 0
M  V30 6669 H 639.103 -0.896193 -1.84818 0
M  V30 6670 H 637.333 0.762567 -3.79107 0
M  V30 6671 H 639.022 0.423392 -4.03686 0
M  V30 6672 H 639.788 -2.03284 -4.40341 0
M  V30 6673 H 635.667 -0.813987 -4.53757 0
M  V30 6674 H 639.211 -4.07881 -5.65932 0
M  V30 6675 H 635.108 -2.85122 -5.79116 0
M  V30 6676 H 635.876 -4.72575 -6.68293 0
M  V30 6677 N 638.539 1.52521 -0.396863 0
M  V30 6678 C 639.449 2.30403 0.44178 0
M  V30 6679 C 640.465 1.37625 1.06468 0
M  V30 6680 O 641.641 1.70697 1.06886 0
M  V30 6681 C 638.706 3.1013 1.54986 0
M  V30 6682 C 637.767 4.18628 0.951279 0
M  V30 6683 C 637 4.94543 2.00655 0
M  V30 6684 O 637.223 4.70629 3.22281 0
M  V30 6685 O 636.157 5.797 1.61962 0
M  V30 6686 H 639.983 3.03087 -0.192892 0
M  V30 6687 H 637.568 1.48537 -0.16038 0
M  V30 6688 H 639.45 3.59816 2.19341 0
M  V30 6689 H 638.125 2.40251 2.16935 0
M  V30 6690 H 637.032 3.73119 0.270773 0
M  V30 6691 H 638.365 4.90763 0.375887 0
M  V30 6692 N 640.017 0.126909 1.57088 0
M  V30 6693 C 640.927 -0.833867 2.1928 0
M  V30 6694 C 641.943 -1.2868 1.17122 0
M  V30 6695 O 643.119 -1.34815 1.49622 0
M  V30 6696 C 640.184 -2.0632 2.78627 0
M  V30 6697 C 639.245 -1.66143 3.95847 0
M  V30 6698 C 638.478 -2.83217 4.52354 0
M  V30 6699 O 638.701 -3.98868 4.0775 0
M  V30 6700 O 637.635 -2.59846 5.42922 0
M  V30 6701 H 641.461 -0.334564 3.01852 0
M  V30 6702 H 639.046 -0.0991091 1.49071 0
M  V30 6703 H 640.928 -2.78304 3.16425 0
M  V30 6704 H 639.603 -2.55242 1.99082 0
M  V30 6705 H 638.51 -0.912435 3.62802 0
M  V30 6706 H 639.843 -1.21957 4.76852 0
M  V30 6707 N 641.495 -1.56914 -0.146875 0
M  V30 6708 C 642.741 -1.83628 -0.860741 0
M  V30 6709 C 643.074 -0.708528 -1.80813 0
M  V30 6710 O 642.349 0.287838 -1.92358 0
M  V30 6711 C 642.632 -3.20836 -1.63511 0
M  V30 6712 C 642.485 -4.44174 -0.709199 0
M  V30 6713 C 643.804 -3.55268 -2.59756 0
M  V30 6714 H 640.923 -0.667949 -0.311468 0
M  V30 6715 H 643.565 -1.89582 -0.125936 0
M  V30 6716 H 641.715 -3.15891 -2.26153 0
M  V30 6717 H 643.387 -4.61205 -0.0937781 0
M  V30 6718 H 641.63 -4.33796 -0.0187856 0
M  V30 6719 H 642.301 -5.36785 -1.28707 0
M  V30 6720 H 644.777 -3.60824 -2.07232 0
M  V30 6721 H 643.653 -4.52303 -3.10987 0
M  V30 6722 H 643.914 -2.81231 -3.41118 0
M  V30 6723 N 642.974 0.416227 -1.52004 0
M  V30 6724 C 644.222 1.16153 -1.65387 0
M  V30 6725 C 644.543 1.91208 -0.382669 0
M  V30 6726 O 643.813 1.86413 0.602231 0
M  V30 6727 H 642.393 0.431765 -0.60958 0
M  V30 6728 H 645.055 0.475151 -1.89019 0
M  V30 6729 H 644.151 1.87952 -2.4916 0
M  V30 6730 N 644.452 1.42507 0.673017 0
M  V30 6731 C 645.698 1.43284 1.43519 0
M  V30 6732 C 646.031 0.049668 1.94136 0
M  V30 6733 O 645.306 -0.926369 1.71022 0
M  V30 6734 C 645.589 2.45874 2.63093 0
M  V30 6735 C 645.442 3.93388 2.18096 0
M  V30 6736 C 646.761 2.45431 3.6531 0
M  V30 6737 H 643.88 0.521752 0.520522 0
M  V30 6738 H 646.522 1.73932 0.764701 0
M  V30 6739 H 644.672 2.19869 3.20296 0
M  V30 6740 H 646.344 4.30379 1.66046 0
M  V30 6741 H 644.587 4.07169 1.49652 0
M  V30 6742 H 645.258 4.60752 3.03993 0
M  V30 6743 H 647.734 2.68561 3.17827 0
M  V30 6744 H 646.61 3.19189 4.46553 0
M  V30 6745 H 646.871 1.48092 4.16559 0
M  V30 6746 N 645.93 -0.909495 1.28709 0
M  V30 6747 C 647.207 -1.63865 1.06806 0
M  V30 6748 C 647.587 -2.07445 -0.391143 0
M  V30 6749 O 646.935 -1.82269 -1.37805 0
M  V30 6750 C 647.145 -2.82692 2.04661 0
M  V30 6751 C 648.493 -3.5361 2.35042 0
M  V30 6752 O 649.517 -2.92847 2.02779 0
M  V30 6753 O 648.376 -4.63131 2.90124 0
M  V30 6754 H 645.47 -0.719065 0.408502 0
M  V30 6755 H 648.016 -0.958424 1.40044 0
M  V30 6756 H 646.788 -2.47614 3.0299 0
M  V30 6757 H 646.411 -3.58426 1.72095 0
M  V30 6758 N 647.408 -1.11026 -1.11852 0
M  V30 6759 C 648.633 -0.879064 -1.87849 0
M  V30 6760 C 649.058 0.565406 -1.79401 0
M  V30 6761 O 648.416 1.39886 -1.15333 0
M  V30 6762 C 648.464 -1.33985 -3.34784 0
M  V30 6763 O 647.568 -0.508803 -4.09249 0
M  V30 6764 H 646.909 -0.316992 -0.583448 0
M  V30 6765 H 649.439 -1.47863 -1.41413 0
M  V30 6766 H 649.449 -1.33248 -3.85628 0
M  V30 6767 H 648.124 -2.39172 -3.40249 0
M  V30 6768 H 646.701 -0.581913 -3.68332 0
M  V30 6769 N 648.886 1.2938 -0.899927 0
M  V30 6770 C 650.132 1.9584 -0.526742 0
M  V30 6771 C 650.465 1.70774 0.924651 0
M  V30 6772 O 649.74 1.02084 1.65557 0
M  V30 6773 C 650.023 3.50638 -0.820062 0
M  V30 6774 C 649.876 3.85161 -2.32317 0
M  V30 6775 C 651.195 4.3903 -0.30671 0
M  V30 6776 H 648.314 0.711322 -0.192848 0
M  V30 6777 H 650.956 1.52992 -1.12665 0
M  V30 6778 H 649.106 3.87265 -0.309491 0
M  V30 6779 H 650.778 3.58477 -2.9033 0
M  V30 6780 H 649.021 3.32696 -2.78381 0
M  V30 6781 H 649.692 4.93204 -2.47898 0
M  V30 6782 H 652.168 4.09396 -0.743908 0
M  V30 6783 H 651.044 5.46226 -0.541144 0
M  V30 6784 H 651.305 4.34937 0.792588 0
M  V30 6785 N 650.364 0.662433 1.43002 0
M  V30 6786 C 651.274 -0.0239199 2.34588 0
M  V30 6787 C 652.29 -0.802255 1.54402 0
M  V30 6788 O 653.466 -0.747401 1.87018 0
M  V30 6789 C 650.531 -0.972098 3.32793 0
M  V30 6790 C 649.592 -0.189673 4.28881 0
M  V30 6791 C 648.825 -1.09269 5.22395 0
M  V30 6792 O 649.048 -2.33209 5.20547 0
M  V30 6793 O 647.982 -0.560136 5.99288 0
M  V30 6794 H 651.808 0.730171 2.94792 0
M  V30 6795 H 649.393 0.422635 1.43297 0
M  V30 6796 H 651.275 -1.51676 3.93157 0
M  V30 6797 H 649.95 -1.70626 2.75079 0
M  V30 6798 H 648.857 0.398794 3.71968 0
M  V30 6799 H 650.19 0.50511 4.89601 0
M  V30 6800 N 651.842 -1.52309 0.404946 0
M  V30 6801 C 653.09 -2.01368 -0.17186 0
M  V30 6802 C 653.411 -1.29261 -1.46002 0
M  V30 6803 O 652.681 -0.41729 -1.91404 0
M  V30 6804 H 651.261 -0.744034 -0.0664993 0
M  V30 6805 H 653.923 -1.87263 0.540228 0
M  V30 6806 H 653.019 -3.09888 -0.370957 0
M  V30 6807 N 653.32 -0.135238 -1.57019 0
M  V30 6808 C 654.23 0.822226 -2.19719 0
M  V30 6809 C 655.246 1.28057 -1.17802 0
M  V30 6810 O 656.422 1.3402 -1.50335 0
M  V30 6811 C 653.487 2.0484 -2.79717 0
M  V30 6812 C 652.548 1.64042 -3.96723 0
M  V30 6813 C 651.781 2.80814 -4.53849 0
M  V30 6814 O 652.004 3.967 -4.0986 0
M  V30 6815 O 650.938 2.56963 -5.44292 0
M  V30 6816 H 654.764 0.318552 -3.02025 0
M  V30 6817 H 652.349 0.0912021 -1.49121 0
M  V30 6818 H 654.231 2.76622 -3.17897 0
M  V30 6819 H 652.906 2.54182 -2.00432 0
M  V30 6820 H 651.813 0.893182 -3.63281 0
M  V30 6821 H 653.146 1.19426 -4.77492 0
M  V30 6822 N 654.798 1.5699 0.138552 0
M  V30 6823 C 656.046 1.83446 0.848053 0
M  V30 6824 C 656.367 0.71744 1.81322 0
M  V30 6825 O 655.637 -0.260228 1.94164 0
M  V30 6826 H 654.217 0.676792 0.316166 0
M  V30 6827 H 656.879 1.94462 0.130538 0
M  V30 6828 H 655.975 2.78677 1.40518 0
M  V30 6829 N 656.276 -0.40816 1.52223 0
M  V30 6830 C 657.186 -1.52202 1.78526 0
M  V30 6831 C 658.202 -1.60546 0.670892 0
M  V30 6832 O 659.378 -1.77242 0.956404 0
M  V30 6833 C 656.443 -2.87928 1.93128 0
M  V30 6834 C 655.504 -2.89463 3.17033 0
M  V30 6835 C 654.737 -4.18715 3.30929 0
M  V30 6836 O 654.96 -5.12662 2.50067 0
M  V30 6837 O 653.894 -4.27125 4.24084 0
M  V30 6838 H 657.72 -1.32911 2.73072 0
M  V30 6839 H 655.305 -0.594112 1.37079 0
M  V30 6840 H 657.187 -3.68426 2.04549 0
M  V30 6841 H 655.862 -3.07285 1.01772 0
M  V30 6842 H 654.769 -2.07815 3.11069 0
M  V30 6843 H 656.102 -2.75055 4.08174 0
M  V30 6844 N 657.755 -1.42862 -0.66545 0
M  V30 6845 C 658.665 -1.49491 -1.80803 0
M  V30 6846 C 659.681 -0.382914 -1.69734 0
M  V30 6847 O 660.857 -0.635223 -1.9112 0
M  V30 6848 C 657.922 -1.40383 -3.17007 0
M  V30 6849 C 656.983 -2.62152 -3.39963 0
M  V30 6850 C 656.216 -2.53469 -4.69669 0
M  V30 6851 O 656.439 -1.57568 -5.48205 0
M  V30 6852 O 655.373 -3.43763 -4.94075 0
M  V30 6853 H 659.199 -2.45949 -1.78165 0
M  V30 6854 H 656.784 -1.24728 -0.822387 0
M  V30 6855 H 658.666 -1.377 -3.98267 0
M  V30 6856 H 657.341 -0.470546 -3.20262 0
M  V30 6857 H 656.248 -2.70409 -2.58515 0
M  V30 6858 H 657.581 -3.54411 -3.41546 0
M  V30 6859 N 659.233 0.902656 -1.29189 0
M  V30 6860 C 660.143 2.03946 -1.15944 0
M  V30 6861 C 661.159 1.738 -0.0833803 0
M  V30 6862 O 662.335 1.9923 -0.29487 0
M  V30 6863 C 659.4 3.36519 -0.834006 0
M  V30 6864 C 658.461 3.80203 -1.9936 0
M  V30 6865 C 657.694 5.06449 -1.68359 0
M  V30 6866 O 657.917 5.67202 -0.603141 0
M  V30 6867 O 656.851 5.46114 -2.53067 0
M  V30 6868 H 660.677 2.18043 -2.11403 0
M  V30 6869 H 658.262 1.02584 -1.08613 0
M  V30 6870 H 660.144 4.16089 -0.666949 0
M  V30 6871 H 658.819 3.23573 0.0908245 0
M  V30 6872 H 657.726 3.01413 -2.21588 0
M  V30 6873 H 659.059 3.97729 -2.89952 0
M  V30 6874 N 660.711 1.11618 1.11262 0
M  V30 6875 C 661.959 0.864469 1.82678 0
M  V30 6876 C 662.28 -0.611564 1.85162 0
M  V30 6877 O 661.55 -1.44429 1.32352 0
M  V30 6878 H 660.13 0.316821 0.676486 0
M  V30 6879 H 662.792 1.40894 1.34666 0
M  V30 6880 H 661.888 1.23832 2.86482 0
M  V30 6881 N 662.189 -1.289 0.906776 0
M  V30 6882 C 663.099 -2.31256 0.394707 0
M  V30 6883 C 664.115 -1.66231 -0.514121 0
M  V30 6884 O 665.291 -1.97347 -0.401994 0
M  V30 6885 C 662.356 -3.44792 -0.363191 0
M  V30 6886 C 661.417 -4.25391 0.578012 0
M  V30 6887 C 660.65 -5.33506 -0.143811 0
M  V30 6888 O 660.873 -5.53786 -1.36665 0
M  V30 6889 O 659.807 -5.99673 0.5173 0
M  V30 6890 H 663.633 -2.77051 1.24405 0
M  V30 6891 H 661.218 -1.33466 0.671346 0
M  V30 6892 H 663.1 -4.139 -0.791503 0
M  V30 6893 H 661.775 -3.01093 -1.18848 0
M  V30 6894 H 660.682 -3.58899 1.05558 0
M  V30 6895 H 662.015 -4.72752 1.36992 0
M  V30 6896 N 663.667 -0.670007 -1.42649 0
M  V30 6897 C 664.577 0.0114788 -2.34597 0
M  V30 6898 C 665.593 0.794055 -1.54825 0
M  V30 6899 O 666.769 0.737472 -1.87412 0
M  V30 6900 C 663.834 0.954436 -3.33304 0
M  V30 6901 C 662.895 0.166925 -4.28975 0
M  V30 6902 C 662.128 1.06497 -5.22967 0
M  V30 6903 O 662.351 2.30446 -5.21777 0
M  V30 6904 O 661.285 0.528347 -5.99577 0
M  V30 6905 H 665.111 -0.745794 -2.944 0
M  V30 6906 H 662.696 -0.430228 -1.43071 0
M  V30 6907 H 664.578 1.49589 -3.93956 0
M  V30 6908 H 663.253 1.69164 -2.7598 0
M  V30 6909 H 662.16 -0.418515 -3.71752 0
M  V30 6910 H 663.493 -0.531067 -4.89327 0
M  V30 6911 N 665.145 1.52092 -0.413018 0
M  V30 6912 C 666.375 2.05974 0.160648 0
M  V30 6913 C 666.783 1.28267 1.39084 0
M  V30 6914 O 666.126 0.328805 1.80733 0
M  V30 6915 C 666.188 3.54918 0.572169 0
M  V30 6916 C 665.852 4.53705 -0.547826 0
M  V30 6917 C 666.849 5.00342 -1.41259 0
M  V30 6918 C 664.534 4.97089 -0.721627 0
M  V30 6919 C 666.528 5.89011 -2.43607 0
M  V30 6920 C 664.215 5.85554 -1.74841 0
M  V30 6921 C 665.213 6.3141 -2.60403 0
M  V30 6922 O 664.901 7.18123 -3.61323 0
M  V30 6923 H 664.633 0.675636 0.0221936 0
M  V30 6924 H 667.187 1.96931 -0.58373 0
M  V30 6925 H 665.417 3.61661 1.36889 0
M  V30 6926 H 667.106 3.91428 1.0742 0
M  V30 6927 H 667.872 4.67537 -1.28974 0
M  V30 6928 H 663.751 4.60954 -0.0652911 0
M  V30 6929 H 667.295 6.24725 -3.10425 0
M  V30 6930 H 663.192 6.17773 -1.87156 0
M  V30 6931 H 663.96 7.36244 -3.57613 0
M  V30 6932 O 666.662 0.284301 1.58978 0
M  V30 6933 H 667.353 -0.283792 1.9161 0
M  V30 END ATOM
M  V30 BEGIN BOND
M  V30 END BOND
M  V30 END CTAB
M  END
$$$$
