drugbank_target|Q82122 Genome polyprotein (DB03017; DB08231; DB08713; DB08714; DB08715)
 OpenBabel12092120453D

  0  0  0     0  0            999 V3000
M  V30 BEGIN CTAB
M  V30 COUNTS 33910 34331 0 0 0
M  V30 BEGIN ATOM
M  V30 1 H -0.908 1.98254 -0.117106 0
M  V30 2 N 0 1.576 0 0
M  V30 3 C 0.933 2.03868 1.02534 0
M  V30 4 C 1.911 0.928543 1.3348 0
M  V30 5 O 3.095 1.19667 1.45644 0
M  V30 6 C 0.222 2.43627 2.35294 0
M  V30 7 C -0.732 3.65373 2.2001 0
M  V30 8 S 0.101 5.13292 1.52614 0
M  V30 9 C 1.257 5.56322 2.86805 0
M  V30 10 H 1.49 2.90518 0.631377 0
M  V30 11 H -0.977 1.52953 0.210867 0
M  V30 12 H 0.981 2.67203 3.11629 0
M  V30 13 H -0.358 1.57376 2.7183 0
M  V30 14 H -1.165 3.90944 3.18086 0
M  V30 15 H -1.563 3.418 1.51819 0
M  V30 16 H 0.729 5.58782 3.83104 0
M  V30 17 H 1.672 6.56266 2.65933 0
M  V30 18 H 2.08 4.83886 2.90714 0
M  V30 19 N 1.4781 -0.272755 1.55222 0
M  V30 20 C 2.7261 -1.00234 1.75492 0
M  V30 21 C 3.0471 -1.8681 0.5592 0
M  V30 22 O 2.3171 -1.91215 -0.425882 0
M  V30 23 H 0.8971 -0.373076 0.647166 0
M  V30 24 H 3.5591 -0.296926 1.92625 0
M  V30 25 H 2.6551 -1.63913 2.65592 0
M  V30 26 N 2.9562 -1.48159 -0.537278 0
M  V30 27 C 3.9192 -1.61665 -1.62472 0
M  V30 28 C 4.9192 -0.490395 -1.5314 0
M  V30 29 O 6.1092 -0.755998 -1.5694 0
M  V30 30 C 3.2412 -1.57997 -3.02076 0
M  V30 31 H 4.4342 -2.58621 -1.51839 0
M  V30 32 H 1.9872 -1.36647 -0.758771 0
M  V30 33 H 2.7222 -0.624913 -3.18222 0
M  V30 34 H 2.5072 -2.39755 -3.10258 0
M  V30 35 H 3.9972 -1.70627 -3.81151 0
M  V30 36 N 4.4343 0.785586 -1.36625 0
M  V30 37 C 5.3663 1.90711 -1.2713 0
M  V30 38 C 6.3793 1.61688 -0.189986 0
M  V30 39 O 7.5683 1.72864 -0.445014 0
M  V30 40 C 4.6683 3.25611 -0.939713 0
M  V30 41 C 3.8413 3.82385 -2.12369 0
M  V30 42 C 2.9003 4.95732 -1.76456 0
M  V30 43 O 1.9263 5.12047 -2.48589 0
M  V30 44 N 3.1283 5.76258 -0.700492 0
M  V30 45 H 5.8933 1.99376 -2.23762 0
M  V30 46 H 3.4543 0.964041 -1.30069 0
M  V30 47 H 5.4463 3.98937 -0.680554 0
M  V30 48 H 4.0163 3.12538 -0.0624074 0
M  V30 49 H 3.2363 3.01001 -2.54543 0
M  V30 50 H 4.5243 4.17047 -2.9146 0
M  V30 51 H 3.9223 5.65609 -0.101624 0
M  V30 52 H 2.4793 6.4987 -0.501165 0
M  V30 53 N 5.9124 1.20967 1.01018 0
M  V30 54 C 7.1584 1.02526 1.74975 0
M  V30 55 C 7.4914 -0.4408 1.89131 0
M  V30 56 O 6.7664 -1.32718 1.42184 0
M  V30 57 C 7.0494 1.71699 3.1653 0
M  V30 58 C 6.9024 3.25791 3.10129 0
M  V30 59 C 8.2214 1.45531 4.15342 0
M  V30 60 H 5.3404 0.373863 0.635134 0
M  V30 61 H 7.9824 1.49071 1.17805 0
M  V30 62 H 6.1324 1.32128 3.65341 0
M  V30 63 H 7.8044 3.74697 2.69072 0
M  V30 64 H 6.0474 3.56363 2.47362 0
M  V30 65 H 6.7184 3.69353 4.10222 0
M  V30 66 H 9.1944 1.79872 3.75213 0
M  V30 67 H 8.0704 1.96453 5.1254 0
M  V30 68 H 8.3314 0.384237 4.40427 0
M  V30 69 N 7.3905 -1.2043 1.01659 0
M  V30 70 C 8.6155 -1.94318 0.724942 0
M  V30 71 C 9.0405 -1.74266 -0.708034 0
M  V30 72 O 8.3985 -1.03694 -1.48719 0
M  V30 73 C 8.4465 -3.44486 1.06591 0
M  V30 74 O 7.5505 -4.12017 0.177599 0
M  V30 75 H 6.8915 -0.60708 0.26898 0
M  V30 76 H 9.4215 -1.52861 1.35995 0
M  V30 77 H 9.4315 -3.95106 1.01762 0
M  V30 78 H 8.1065 -3.58404 2.10997 0
M  V30 79 H 6.6835 -3.71821 0.283421 0
M  V30 80 N 8.8686 -0.792821 -1.36206 0
M  V30 81 C 10.2846 -0.474903 -1.52371 0
M  V30 82 C 10.4846 1.00622 -1.74578 0
M  V30 83 O 9.5406 1.79162 -1.77924 0
M  V30 84 C 10.8536 -1.3083 -2.70747 0
M  V30 85 C 12.4016 -1.30234 -2.84619 0
M  V30 86 C 12.8766 -2.11956 -4.06004 0
M  V30 87 N 14.3676 -2.09419 -4.13156 0
M  V30 88 C 15.1026 -2.69419 -5.06163 0
M  V30 89 N 14.5986 -3.3829 -6.04592 0
M  V30 90 N 16.3916 -2.59134 -4.98804 0
M  V30 91 H 8.5426 -1.75222 -1.20046 0
M  V30 92 H 10.8056 -0.745024 -0.586211 0
M  V30 93 H 10.5116 -2.35881 -2.6087 0
M  V30 94 H 10.3856 -0.95196 -3.6499 0
M  V30 95 H 12.7726 -0.259748 -2.93955 0
M  V30 96 H 12.8536 -1.69847 -1.91274 0
M  V30 97 H 12.4976 -3.16248 -3.97429 0
M  V30 98 H 12.4276 -1.69711 -4.98503 0
M  V30 99 H 14.9186 -1.59297 -3.42685 0
M  V30 100 H 15.2316 -3.81394 -6.7213 0
M  V30 101 H 13.5766 -3.42393 -6.04807 0
M  V30 102 H 16.7676 -2.04927 -4.20859 0
M  V30 103 H 16.9406 -3.06185 -5.711 0
M  V30 104 N 10.3467 1.47872 -0.545128 0
M  V30 105 C 11.2787 2.27869 0.246621 0
M  V30 106 C 12.2917 1.36282 0.890561 0
M  V30 107 O 13.4807 1.61207 0.766449 0
M  V30 108 C 10.5807 3.10159 1.36582 0
M  V30 109 C 9.7537 4.29627 0.820954 0
M  V30 110 C 8.8127 4.93607 1.82314 0
M  V30 111 O 7.8387 5.52366 1.37406 0
M  V30 112 N 9.0407 4.87211 3.15603 0
M  V30 113 H 11.8057 2.96459 -0.439539 0
M  V30 114 H 9.3667 1.57367 -0.380421 0
M  V30 115 H 11.3587 3.49829 2.03474 0
M  V30 116 H 9.9287 2.43891 1.9554 0
M  V30 117 H 9.1487 3.94192 -0.0244032 0
M  V30 118 H 10.4367 5.06928 0.436063 0
M  V30 119 H 9.8347 4.40651 3.54744 0
M  V30 120 H 8.3917 5.30937 3.78087 0
M  V30 121 N 11.8248 0.280983 1.55075 0
M  V30 122 C 12.7728 -0.619864 2.24188 0
M  V30 123 C 13.7668 -1.15315 1.24092 0
M  V30 124 O 14.9728 -1.1061 1.42005 0
M  V30 125 H 11.3478 -0.218459 0.719569 0
M  V30 126 H 13.3188 -0.0141831 2.98397 0
M  V30 127 C 12.0678 -1.7899 2.98091 0
M  V30 128 H 11.3908 -1.38874 3.74905 0
M  V30 129 H 12.8308 -2.39672 3.49762 0
M  V30 130 C 11.2898 -2.68192 2.03899 0
M  V30 131 O 11.8198 -3.6872 1.594 0
M  V30 132 N 10.0258 -2.35488 1.70275 0
M  V30 133 H 9.5728 -1.53787 2.06658 0
M  V30 134 H 9.5308 -2.95442 1.07524 0
M  V30 135 N 13.3029 -1.57598 0.00835791 0
M  V30 136 C 14.5489 -1.91211 -0.675732 0
M  V30 137 C 14.8819 -0.883139 -1.72958 0
M  V30 138 O 14.1569 0.097016 -1.94258 0
M  V30 139 C 14.4399 -3.35379 -1.31123 0
M  V30 140 C 14.2929 -4.48999 -0.268356 0
M  V30 141 C 15.6119 -3.7912 -2.23508 0
M  V30 142 H 12.7309 -0.695374 -0.244179 0
M  V30 143 H 15.3729 -1.89901 0.0613655 0
M  V30 144 H 13.5229 -3.36626 -1.93946 0
M  V30 145 H 15.1949 -4.59887 0.360844 0
M  V30 146 H 13.4379 -4.31873 0.408482 0
M  V30 147 H 14.1089 -5.46851 -0.752218 0
M  V30 148 H 16.5849 -3.79477 -1.70693 0
M  V30 149 H 15.4609 -4.80729 -2.64936 0
M  V30 150 H 15.7219 -3.13455 -3.11766 0
M  V30 151 N 14.781 0.264519 -1.55364 0
M  V30 152 C 16.029 0.993021 -1.76021 0
M  V30 153 C 16.35 1.86511 -0.569099 0
M  V30 154 O 15.62 1.91438 0.415735 0
M  V30 155 H 14.2 0.369639 -0.649135 0
M  V30 156 H 16.862 0.286707 -1.9278 0
M  V30 157 H 15.958 1.62502 -2.66457 0
M  V30 158 N 16.2591 1.48442 0.529413 0
M  V30 159 C 17.4871 1.60151 1.30994 0
M  V30 160 C 17.9021 0.261985 1.86973 0
M  V30 161 O 17.2591 -0.748805 1.66431 0
M  V30 162 C 17.3101 2.64854 2.46038 0
M  V30 163 O 17.0311 3.93608 1.92365 0
M  V30 164 C 18.5321 2.87007 3.37849 0
M  V30 165 H 15.7521 0.539971 0.398338 0
M  V30 166 H 18.2961 1.94273 0.638597 0
M  V30 167 H 16.4511 2.33589 3.09055 0
M  V30 168 H 16.8651 4.51055 2.67675 0
M  V30 169 H 18.3391 3.64068 4.14919 0
M  V30 170 H 18.8161 1.95852 3.93114 0
M  V30 171 H 19.4221 3.19579 2.80623 0
M  V30 172 N 17.7372 -0.778329 1.37039 0
M  V30 173 C 18.6872 -1.88142 1.28789 0
M  V30 174 C 19.6712 -1.59923 0.177063 0
M  V30 175 O 20.8632 -1.72165 0.410873 0
M  V30 176 C 17.9922 -3.25518 1.09055 0
M  V30 177 C 17.0782 -3.5971 2.24654 0
M  V30 178 N 17.4692 -3.65131 3.50018 0
M  V30 179 C 15.7672 -3.89837 2.16663 0
M  V30 180 C 16.4682 -3.95882 4.26207 0
M  V30 181 N 15.4442 -4.11441 3.55271 0
M  V30 182 H 19.2462 -1.90575 2.23737 0
M  V30 183 H 16.7602 -0.974435 1.29917 0
M  V30 184 H 18.7572 -4.04423 1.0123 0
M  V30 185 H 17.4172 -3.24353 0.15018 0
M  V30 186 H 18.4282 -3.475 3.84011 0
M  V30 187 H 15.1052 -3.96533 1.30645 0
M  V30 188 H 16.4952 -4.06907 5.34674 0
M  V30 189 N 19.2153 -1.21501 -1.00376 0
M  V30 190 C 20.4403 -1.05977 -1.78279 0
M  V30 191 C 20.8653 0.385994 -1.84097 0
M  V30 192 O 20.2233 1.27849 -1.28547 0
M  V30 193 C 20.2713 -1.66302 -3.19963 0
M  V30 194 O 19.3753 -0.909333 -4.0225 0
M  V30 195 H 18.7163 -0.372906 -0.549397 0
M  V30 196 H 21.2463 -1.6107 -1.26165 0
M  V30 197 H 21.2563 -1.70574 -3.70632 0
M  V30 198 H 19.9313 -2.71515 -3.15043 0
M  V30 199 H 18.5083 -0.941795 -3.60811 0
M  V30 200 N 20.6934 1.19889 -1.02296 0
M  V30 201 C 21.9214 1.9339 -0.735399 0
M  V30 202 C 22.3364 1.75148 0.704887 0
M  V30 203 O 21.6934 1.06954 1.47875 0
M  V30 204 C 21.7444 3.45313 -1.06962 0
M  V30 205 O 21.4654 3.62964 -2.45334 0
M  V30 206 C 22.9664 4.35948 -0.804021 0
M  V30 207 H 20.1864 0.61448 -0.269546 0
M  V30 208 H 22.7304 1.522 -1.36585 0
M  V30 209 H 20.8854 3.84359 -0.484455 0
M  V30 210 H 21.2994 4.56886 -2.57595 0
M  V30 211 H 22.7734 5.41174 -1.0879 0
M  V30 212 H 23.2504 4.3842 0.261691 0
M  V30 213 H 23.8564 4.02574 -1.37164 0
M  V30 214 N 22.1715 0.800033 1.35784 0
M  V30 215 C 23.1035 0.163596 2.28615 0
M  V30 216 C 24.1165 -0.633317 1.49976 0
M  V30 217 O 25.3055 -0.466754 1.72289 0
M  V30 218 C 22.4055 -0.790958 3.29541 0
M  V30 219 C 21.5785 -0.0418255 4.3738 0
M  V30 220 C 20.6375 -0.91389 5.18203 0
M  V30 221 O 19.6635 -0.367234 5.68014 0
M  V30 222 N 20.8655 -2.23682 5.35674 0
M  V30 223 H 23.6305 0.96105 2.83873 0
M  V30 224 H 21.1915 0.654894 1.48063 0
M  V30 225 H 23.1835 -1.37844 3.80501 0
M  V30 226 H 21.7535 -1.48925 2.74846 0
M  V30 227 H 20.9735 0.726813 3.87442 0
M  V30 228 H 22.2615 0.474719 5.06581 0
M  V30 229 H 21.6595 -2.70497 4.96838 0
M  V30 230 H 20.2165 -2.77369 5.89839 0
M  V30 231 N 23.6496 -1.47581 0.552962 0
M  V30 232 C 24.5976 -2.31648 -0.21023 0
M  V30 233 C 25.5916 -1.42663 -0.913432 0
M  V30 234 O 26.7976 -1.5945 -0.835201 0
M  V30 235 H 23.1726 -0.746989 -0.0866676 0
M  V30 236 H 25.1436 -2.93869 0.518051 0
M  V30 237 C 23.8926 -3.25226 -1.22976 0
M  V30 238 H 23.2156 -3.93658 -0.698077 0
M  V30 239 H 24.6556 -3.86889 -1.73473 0
M  V30 240 C 23.1146 -2.48448 -2.27542 0
M  V30 241 O 23.6446 -2.22585 -3.34393 0
M  V30 242 N 21.8506 -2.09532 -2.01357 0
M  V30 243 H 21.3976 -2.30765 -1.14478 0
M  V30 244 H 21.3556 -1.58476 -2.71538 0
M  V30 245 N 25.1277 -0.289203 -1.54924 0
M  V30 246 C 26.0607 0.633823 -2.19221 0
M  V30 247 C 27.0387 1.14174 -1.15772 0
M  V30 248 O 28.2227 1.21211 -1.44361 0
M  V30 249 C 25.3497 1.86592 -2.82668 0
M  V30 250 C 24.3957 1.49227 -3.99542 0
M  V30 251 S 25.2287 0.558312 -5.32582 0
M  V30 252 C 26.3847 1.79847 -5.99505 0
M  V30 253 H 26.6177 0.0875416 -2.97171 0
M  V30 254 H 24.1507 -0.0733899 -1.54225 0
M  V30 255 H 26.1087 2.57305 -3.19851 0
M  V30 256 H 24.7697 2.38335 -2.04585 0
M  V30 257 H 23.9627 2.40945 -4.42676 0
M  V30 258 H 23.5647 0.865193 -3.63855 0
M  V30 259 H 25.8567 2.7406 -6.19595 0
M  V30 260 H 26.7997 1.4099 -6.93922 0
M  V30 261 H 27.2077 1.96982 -5.29016 0
M  V30 262 N 26.6058 1.57591 -0.0167156 0
M  V30 263 C 27.8518 1.91567 0.665582 0
M  V30 264 C 28.1848 0.892298 1.72487 0
M  V30 265 O 27.4598 -0.0867127 1.94307 0
M  V30 266 C 27.7428 3.36069 1.29342 0
M  V30 267 C 27.5958 4.49135 0.244541 0
M  V30 268 C 28.9148 3.803 2.21495 0
M  V30 269 H 26.0338 0.69666 0.240488 0
M  V30 270 H 28.6758 1.89866 -0.0714356 0
M  V30 271 H 26.8258 3.3765 1.92158 0
M  V30 272 H 28.4978 4.59689 -0.385228 0
M  V30 273 H 26.7408 4.3165 -0.431379 0
M  V30 274 H 27.4118 5.47242 0.723207 0
M  V30 275 H 29.8878 3.80377 1.68678 0
M  V30 276 H 28.7638 4.82127 2.62382 0
M  V30 277 H 29.0248 3.15104 3.101 0
M  V30 278 N 28.0839 -0.256276 1.55502 0
M  V30 279 C 29.3089 -1.00766 1.81276 0
M  V30 280 C 29.7339 -1.78524 0.59252 0
M  V30 281 O 29.0919 -1.75413 -0.45827 0
M  V30 282 C 29.1399 -1.92869 3.04687 0
M  V30 283 O 28.2439 -3.019 2.80945 0
M  V30 284 H 27.5849 -0.287224 0.598664 0
M  V30 285 H 30.1149 -0.280109 2.02674 0
M  V30 286 H 30.1249 -2.34511 3.33869 0
M  V30 287 H 28.7999 -1.35689 3.93143 0
M  V30 288 H 27.3769 -2.64454 2.62904 0
M  V30 289 N 29.562 -1.4872 -0.521534 0
M  V30 290 C 30.51 -1.64328 -1.64618 0
M  V30 291 C 31.504 -0.50953 -1.61555 0
M  V30 292 O 32.71 -0.688525 -1.66311 0
M  V30 293 H 29.085 -0.517805 -0.545328 0
M  V30 294 H 31.056 -2.58767 -1.48601 0
M  V30 295 C 29.805 -1.70805 -3.02855 0
M  V30 296 H 29.128 -2.5741 -3.05909 0
M  V30 297 H 30.568 -1.85766 -3.81139 0
M  V30 298 C 29.027 -0.448479 -3.33902 0
M  V30 299 O 29.557 0.434928 -3.99339 0
M  V30 300 N 27.763 -0.317616 -2.88859 0
M  V30 301 H 27.31 -1.03748 -2.35784 0
M  V30 302 H 27.268 0.524113 -3.10001 0
M  V30 303 N 31.0401 0.771051 -1.3745 0
M  V30 304 C 32.2881 1.52661 -1.32435 0
M  V30 305 C 32.6091 1.9479 0.0905024 0
M  V30 306 O 31.8791 1.66348 1.03466 0
M  V30 307 H 30.4591 0.566218 -0.487244 0
M  V30 308 H 33.1211 0.917636 -1.71946 0
M  V30 309 H 32.2171 2.42568 -1.96385 0
M  V30 310 N 32.5182 1.22032 0.997298 0
M  V30 311 C 33.7432 1.06921 1.77715 0
M  V30 312 C 34.1682 -0.376226 1.84299 0
M  V30 313 O 33.5262 -1.27165 1.29223 0
M  V30 314 C 33.5742 1.67996 3.19076 0
M  V30 315 O 32.6782 0.930653 4.01762 0
M  V30 316 H 32.0192 0.375814 0.547412 0
M  V30 317 H 34.5492 1.61737 1.25309 0
M  V30 318 H 34.5592 1.72538 3.69723 0
M  V30 319 H 33.2342 2.73182 3.13599 0
M  V30 320 H 31.8112 0.960917 3.60307 0
M  V30 321 N 33.9963 -1.19345 1.0293 0
M  V30 322 C 35.2213 -1.93538 0.745511 0
M  V30 323 C 35.6463 -1.75007 -0.689511 0
M  V30 324 O 35.0043 -1.05265 -1.47611 0
M  V30 325 C 35.0523 -3.43336 1.10239 0
M  V30 326 O 34.1563 -4.11806 0.221289 0
M  V30 327 H 33.4973 -0.604193 0.275404 0
M  V30 328 H 36.0273 -1.5141 1.37609 0
M  V30 329 H 36.0373 -3.94004 1.05947 0
M  V30 330 H 34.7123 -3.56146 2.14786 0
M  V30 331 H 33.2893 -3.715 0.322842 0
M  V30 332 N 35.4744 -0.807222 -1.35358 0
M  V30 333 C 36.4044 -0.232509 -2.3234 0
M  V30 334 C 37.3854 0.642386 -1.57504 0
M  V30 335 O 38.5704 0.572526 -1.85569 0
M  V30 336 C 35.7004 0.619238 -3.41735 0
M  V30 337 C 34.6544 -0.157215 -4.27711 0
M  V30 338 C 33.9804 0.816273 -5.28433 0
M  V30 339 C 35.2804 -1.35656 -5.04376 0
M  V30 340 H 36.9744 -1.04276 -2.80654 0
M  V30 341 H 34.5204 -0.50288 -1.34934 0
M  V30 342 H 36.4734 1.03137 -4.08584 0
M  V30 343 H 35.1974 1.46239 -2.92031 0
M  V30 344 H 33.8564 -0.550525 -3.62443 0
M  V30 345 H 33.5044 1.65494 -4.74996 0
M  V30 346 H 33.2044 0.301067 -5.86828 0
M  V30 347 H 34.7284 1.22659 -5.98153 0
M  V30 348 H 36.1424 -1.01927 -5.64166 0
M  V30 349 H 34.5394 -1.8063 -5.7227 0
M  V30 350 H 35.6094 -2.14288 -4.34981 0
M  V30 351 N 36.9525 1.47285 -0.560781 0
M  V30 352 C 37.9005 2.31756 0.197942 0
M  V30 353 C 38.8945 1.43146 0.905854 0
M  V30 354 O 40.1005 1.59891 0.826733 0
M  V30 355 H 36.4755 0.747438 0.0827049 0
M  V30 356 H 38.4465 2.9359 -0.533629 0
M  V30 357 C 37.1955 3.25874 1.21249 0
M  V30 358 H 36.5185 3.94023 0.67719 0
M  V30 359 H 37.9585 3.87803 1.71419 0
M  V30 360 C 36.4175 2.49651 2.26221 0
M  V30 361 O 36.9475 2.24355 3.33208 0
M  V30 362 N 35.1535 2.10597 2.00243 0
M  V30 363 H 34.7005 2.31369 1.13252 0
M  V30 364 H 34.6585 1.59913 2.70694 0
M  V30 365 N 38.4306 0.297415 1.54768 0
M  V30 366 C 39.6606 -0.315165 2.04182 0
M  V30 367 C 40.0686 -1.4834 1.17439 0
M  V30 368 O 39.4116 -1.82695 0.191891 0
M  V30 369 C 39.4736 -0.837583 3.49607 0
M  V30 370 C 39.1376 0.204912 4.5654 0
M  V30 371 C 40.1346 1.03214 5.09552 0
M  V30 372 C 37.8196 0.345578 5.0111 0
M  V30 373 C 39.8136 1.986 6.05671 0
M  V30 374 C 37.5006 1.30289 5.97049 0
M  V30 375 C 38.4986 2.12159 6.49213 0
M  V30 376 O 38.1866 3.06268 7.43273 0
M  V30 377 H 37.9186 -0.0729646 0.672051 0
M  V30 378 H 40.4726 0.433907 2.00765 0
M  V30 379 H 38.7026 -1.63712 3.50336 0
M  V30 380 H 40.3916 -1.36566 3.82236 0
M  V30 381 H 41.1576 0.934312 4.75916 0
M  V30 382 H 37.0366 -0.28171 4.60138 0
M  V30 383 H 40.5806 2.62542 6.46311 0
M  V30 384 H 36.4776 1.40145 6.30103 0
M  V30 385 H 37.2456 3.01205 7.61064 0
M  V30 386 N 39.9087 -1.5758 0.0250728 0
M  V30 387 C 41.1557 -1.91633 -0.654444 0
M  V30 388 C 41.4837 -0.901103 -1.72367 0
M  V30 389 O 40.7387 0.0905647 -1.9549 0
M  V30 390 C 41.0377 -3.32421 -1.31268 0
M  V30 391 C 40.7037 -4.49344 -0.374223 0
M  V30 392 C 39.3657 -4.8106 -0.115911 0
M  V30 393 C 41.7177 -5.20498 0.270432 0
M  V30 394 C 39.0457 -5.8129 0.79493 0
M  V30 395 C 41.3977 -6.21699 1.1693 0
M  V30 396 C 40.0617 -6.51859 1.43655 0
M  V30 397 H 39.3317 -0.701236 -0.239478 0
M  V30 398 H 41.9787 -1.91307 0.0859734 0
M  V30 399 H 40.2837 -3.28989 -2.12775 0
M  V30 400 H 41.9807 -3.56038 -1.84494 0
M  V30 401 H 38.5707 -4.24579 -0.58573 0
M  V30 402 H 42.7547 -4.96229 0.0839194 0
M  V30 403 H 38.0107 -6.03005 1.00973 0
M  V30 404 H 42.1847 -6.75955 1.67504 0
M  V30 405 H 39.8117 -7.2934 2.144 0
M  V30 406 N 41.3868 0.248026 -1.55636 0
M  V30 407 C 42.3348 1.32683 -1.91045 0
M  V30 408 C 43.3288 1.49883 -0.789401 0
M  V30 409 O 44.5348 1.51371 -0.974007 0
M  V30 410 H 40.9098 0.444272 -0.606734 0
M  V30 411 H 42.8808 1.00085 -2.81115 0
M  V30 412 C 41.6298 2.6755 -2.22064 0
M  V30 413 H 40.9528 2.55114 -3.07826 0
M  V30 414 H 42.3928 3.41912 -2.50743 0
M  V30 415 C 40.8518 3.20556 -1.0366 0
M  V30 416 O 41.3818 4.00695 -0.284016 0
M  V30 417 N 39.5878 2.78568 -0.82753 0
M  V30 418 H 39.1348 2.1351 -1.44123 0
M  V30 419 H 39.0928 3.14378 -0.0369803 0
M  V30 420 N 42.8649 1.48995 0.513639 0
M  V30 421 C 44.1139 1.57093 1.2651 0
M  V30 422 C 44.4269 0.257091 1.93903 0
M  V30 423 O 45.6329 0.216478 2.70636 0
M  V30 424 C 44.0889 2.77118 2.29638 0
M  V30 425 C 43.6969 4.15209 1.68241 0
M  V30 426 C 45.4409 2.94538 3.05692 0
M  V30 427 C 43.3479 5.26474 2.69406 0
M  V30 428 H 42.2779 0.584876 0.475854 0
M  V30 429 H 44.9289 1.7536 0.540487 0
M  V30 430 H 43.3109 2.52319 3.05207 0
M  V30 431 H 44.4849 4.50094 0.987505 0
M  V30 432 H 42.7999 4.03042 1.04623 0
M  V30 433 H 45.3969 3.74832 3.8132 0
M  V30 434 H 45.7399 2.04614 3.62545 0
M  V30 435 H 46.2729 3.19316 2.37238 0
M  V30 436 H 43.0119 6.18417 2.17351 0
M  V30 437 H 42.5319 4.96058 3.37175 0
M  V30 438 H 44.2109 5.55277 3.32078 0
M  V30 439 N 44.343 -0.763751 1.37857 0
M  V30 440 C 45.291 -1.89864 1.34367 0
M  V30 441 C 46.285 -1.67816 0.231143 0
M  V30 442 O 47.491 -1.75508 0.399617 0
M  V30 443 H 43.866 -0.624501 0.41893 0
M  V30 444 H 45.837 -1.89925 2.30155 0
M  V30 445 C 44.586 -3.27227 1.1755 0
M  V30 446 H 43.909 -3.44773 2.02414 0
M  V30 447 H 45.349 -4.06911 1.1916 0
M  V30 448 C 43.808 -3.36692 -0.118311 0
M  V30 449 O 44.338 -3.86374 -1.09902 0
M  V30 450 N 42.544 -2.90092 -0.171717 0
M  V30 451 H 42.091 -2.49853 0.627012 0
M  V30 452 H 42.049 -2.96806 -1.03699 0
M  V30 453 N 45.8211 -1.22559 -0.990812 0
M  V30 454 C 47.0511 -1.07623 -1.76355 0
M  V30 455 C 47.4591 0.37601 -1.85426 0
M  V30 456 O 46.8021 1.27228 -1.32509 0
M  V30 457 C 46.8641 -1.61507 -3.21179 0
M  V30 458 C 46.5281 -3.10146 -3.35646 0
M  V30 459 C 47.5251 -4.07553 -3.22796 0
M  V30 460 C 45.2101 -3.49644 -3.60631 0
M  V30 461 C 47.2041 -5.42442 -3.34716 0
M  V30 462 C 44.8911 -4.84682 -3.72192 0
M  V30 463 C 45.8891 -5.8089 -3.59243 0
M  V30 464 O 45.5771 -7.13476 -3.70415 0
M  V30 465 H 45.3091 -0.377745 -0.560611 0
M  V30 466 H 47.8631 -1.62658 -1.25425 0
M  V30 467 H 46.0931 -1.00881 -3.73309 0
M  V30 468 H 47.7821 -1.42202 -3.80175 0
M  V30 469 H 48.5481 -3.78381 -3.03403 0
M  V30 470 H 44.4271 -2.75282 -3.69785 0
M  V30 471 H 47.9711 -6.17518 -3.24526 0
M  V30 472 H 43.8681 -5.13534 -3.91092 0
M  V30 473 H 44.6361 -7.21083 -3.87275 0
M  V30 474 N 47.2992 1.18797 -1.03562 0
M  V30 475 C 48.5462 1.8865 -0.736023 0
M  V30 476 C 48.8742 1.80041 0.735889 0
M  V30 477 O 48.1292 1.19179 1.55225 0
M  V30 478 C 48.4282 3.38692 -1.14117 0
M  V30 479 C 48.0942 3.67504 -2.6125 0
M  V30 480 C 46.7562 3.75078 -3.01447 0
M  V30 481 C 49.1082 3.80293 -3.56408 0
M  V30 482 C 46.4362 3.92915 -4.35701 0
M  V30 483 C 48.7882 3.99645 -4.90374 0
M  V30 484 C 47.4522 4.05453 -5.30249 0
M  V30 485 H 46.7222 0.690321 -0.26933 0
M  V30 486 H 49.3692 1.40641 -1.29971 0
M  V30 487 H 47.6742 3.88645 -0.496202 0
M  V30 488 H 49.3712 3.91072 -0.886789 0
M  V30 489 H 45.9612 3.62223 -2.29113 0
M  V30 490 H 50.1452 3.73779 -3.26501 0
M  V30 491 H 45.4012 3.95653 -4.66121 0
M  V30 492 H 49.5752 4.08482 -5.64017 0
M  V30 493 H 47.2022 4.19027 -6.34288 0
M  V30 494 N 48.7773 0.814389 1.34928 0
M  V30 495 C 49.7243 0.22822 2.29669 0
M  V30 496 C 50.6943 -0.642164 1.53184 0
M  V30 497 O 51.8793 -0.585605 1.81591 0
M  V30 498 C 49.0193 -0.61089 3.3965 0
M  V30 499 C 48.1323 0.280792 4.31086 0
M  V30 500 C 47.2673 -0.567067 5.28165 0
M  V30 501 C 46.3063 0.324531 6.11239 0
M  V30 502 N 45.4433 -0.483756 7.00431 0
M  V30 503 H 50.2833 1.04153 2.79206 0
M  V30 504 H 47.8203 0.525133 1.37407 0
M  V30 505 H 49.7783 -1.11263 4.0209 0
M  V30 506 H 48.4083 -1.38939 2.91369 0
M  V30 507 H 47.4603 0.900688 3.69583 0
M  V30 508 H 48.7723 0.966723 4.89342 0
M  V30 509 H 47.9263 -1.13363 5.96015 0
M  V30 510 H 46.6653 -1.28654 4.70425 0
M  V30 511 H 45.6703 0.903298 5.42329 0
M  V30 512 H 46.8953 1.04198 6.71059 0
M  V30 513 H 44.8413 -1.18706 6.45171 0
M  V30 514 H 44.7583 0.143965 7.55863 0
M  V30 515 H 46.0263 -1.03334 7.7262 0
M  V30 516 N 50.2554 -1.46986 0.568584 0
M  V30 517 C 51.5324 -1.95592 -0.0174074 0
M  V30 518 C 51.9124 -1.51124 -1.47393 0
M  V30 519 O 51.2604 -0.755329 -2.15655 0
M  V30 520 C 51.4704 -3.48719 0.139913 0
M  V30 521 C 52.8184 -4.246 0.000426376 0
M  V30 522 O 53.8424 -3.56135 0.0680316 0
M  V30 523 O 52.7014 -5.46302 -0.146988 0
M  V30 524 H 49.7954 -0.82498 -0.0577599 0
M  V30 525 H 52.3414 -1.57335 0.635909 0
M  V30 526 H 51.1134 -3.73927 1.15301 0
M  V30 527 H 50.7364 -3.93771 -0.550491 0
M  V30 528 N 51.7335 -0.305618 -1.54608 0
M  V30 529 C 52.6965 0.555591 -2.22364 0
M  V30 530 C 53.6965 1.05768 -1.21119 0
M  V30 531 O 54.8865 0.952972 -1.45822 0
M  V30 532 C 52.0185 1.76974 -2.91364 0
M  V30 533 H 53.2115 -0.0364572 -2.99878 0
M  V30 534 H 50.7645 -0.0565007 -1.56198 0
M  V30 535 H 51.4995 2.40151 -2.17941 0
M  V30 536 H 51.2845 1.41732 -3.65588 0
M  V30 537 H 52.7745 2.38148 -3.43038 0
M  V30 538 N 53.2116 1.57565 -0.0334293 0
M  V30 539 C 54.1746 2.09393 0.932048 0
M  V30 540 C 55.1746 1.00986 1.25134 0
M  V30 541 O 56.3646 1.27129 1.19096 0
M  V30 542 C 53.4966 2.56338 2.2473 0
M  V30 543 H 54.6896 2.95984 0.483085 0
M  V30 544 H 52.2426 1.54819 0.21468 0
M  V30 545 H 52.9776 1.7309 2.74245 0
M  V30 546 H 52.7626 3.35542 2.02865 0
M  V30 547 H 54.2526 2.96646 2.93923 0
M  V30 548 N 54.6897 -0.239769 1.55765 0
M  V30 549 C 55.9147 -0.988373 1.82335 0
M  V30 550 C 56.3397 -1.77886 0.611421 0
M  V30 551 O 55.6977 -1.75889 -0.439639 0
M  V30 552 C 55.7457 -1.89627 3.06715 0
M  V30 553 O 54.8497 -2.98904 2.84131 0
M  V30 554 H 54.1907 -0.280858 0.601677 0
M  V30 555 H 56.7207 -0.258597 2.02959 0
M  V30 556 H 56.7307 -2.30957 3.36338 0
M  V30 557 H 55.4057 -1.31511 3.9456 0
M  V30 558 H 53.9827 -2.61651 2.65694 0
M  V30 559 N 56.1678 -1.49265 -0.50573 0
M  V30 560 C 57.3928 -1.62478 -1.28902 0
M  V30 561 C 57.8178 -0.294332 -1.85783 0
M  V30 562 O 57.1758 0.737412 -1.65626 0
M  V30 563 C 57.2238 -2.69268 -2.39848 0
M  V30 564 O 56.3278 -2.28113 -3.43567 0
M  V30 565 H 55.6688 -0.54399 -0.380751 0
M  V30 566 H 58.1988 -1.95421 -0.605952 0
M  V30 567 H 58.2088 -2.91291 -2.85681 0
M  V30 568 H 56.8838 -3.65846 -1.97812 0
M  V30 569 H 55.4608 -2.16401 -3.03685 0
M  V30 570 N 57.6459 0.756429 -1.3826 0
M  V30 571 C 58.8939 1.51248 -1.34047 0
M  V30 572 C 59.2149 1.94875 0.0698372 0
M  V30 573 O 58.4849 1.67436 1.01696 0
M  V30 574 H 57.0649 0.561018 -0.493222 0
M  V30 575 H 59.7269 0.899347 -1.7291 0
M  V30 576 H 58.8229 2.40472 -1.98947 0
M  V30 577 N 59.124 1.23083 0.984299 0
M  V30 578 C 60.087 1.00979 2.05757 0
M  V30 579 C 61.087 -0.0269573 1.60777 0
M  V30 580 O 62.277 0.212403 1.729 0
M  V30 581 C 59.409 0.527072 3.36801 0
M  V30 582 H 60.602 1.9622 2.26799 0
M  V30 583 H 58.155 1.05072 1.15714 0
M  V30 584 H 58.89 -0.429294 3.21446 0
M  V30 585 H 58.675 1.27515 3.70786 0
M  V30 586 H 60.165 0.392942 4.15747 0
M  V30 587 N 60.6021 -1.18246 1.0419 0
M  V30 588 C 61.8271 -1.92736 0.765996 0
M  V30 589 C 62.2521 -1.75728 -0.67091 0
M  V30 590 O 61.6101 -1.06825 -1.46486 0
M  V30 591 C 61.6581 -3.42148 1.13875 0
M  V30 592 O 60.7621 -4.11548 0.264954 0
M  V30 593 H 60.1031 -0.601238 0.281797 0
M  V30 594 H 62.6331 -1.49942 1.39207 0
M  V30 595 H 62.6431 -3.92858 1.1012 0
M  V30 596 H 61.3181 -3.53848 2.18551 0
M  V30 597 H 59.8951 -3.71137 0.362226 0
M  V30 598 N 62.0802 -0.821533 -1.34494 0
M  V30 599 C 63.4962 -0.507117 -1.51329 0
M  V30 600 C 63.6962 0.968964 -1.76673 0
M  V30 601 O 62.7522 1.75348 -1.81685 0
M  V30 602 C 64.0652 -1.36544 -2.67911 0
M  V30 603 C 65.6132 -1.36242 -2.81793 0
M  V30 604 C 66.0882 -2.2052 -4.01416 0
M  V30 605 N 67.5792 -2.18136 -4.08621 0
M  V30 606 C 68.3142 -2.80095 -5.00334 0
M  V30 607 N 67.8102 -3.51039 -5.9728 0
M  V30 608 N 69.6032 -2.69656 -4.93196 0
M  V30 609 H 61.7542 -1.77729 -1.16302 0
M  V30 610 H 64.0172 -0.757291 -0.570276 0
M  V30 611 H 63.7232 -2.41361 -2.55808 0
M  V30 612 H 63.5972 -1.02917 -3.62888 0
M  V30 613 H 65.9842 -0.322041 -2.93338 0
M  V30 614 H 66.0652 -1.73866 -1.87628 0
M  V30 615 H 65.7092 -3.24607 -3.90631 0
M  V30 616 H 65.6392 -1.80247 -4.94791 0
M  V30 617 H 68.1302 -1.6653 -3.39229 0
M  V30 618 H 68.4432 -3.95565 -6.63889 0
M  V30 619 H 66.7882 -3.55145 -5.97409 0
M  V30 620 H 69.9792 -2.13808 -4.16418 0
M  V30 621 H 70.1522 -3.1823 -5.64476 0
M  V30 622 N 63.5583 1.46682 -0.576371 0
M  V30 623 C 64.4883 2.33028 0.148397 0
M  V30 624 C 65.4693 1.44961 0.889956 0
M  V30 625 O 66.6543 1.73789 0.866662 0
M  V30 626 C 63.7843 3.27117 1.1667 0
M  V30 627 C 62.7383 4.24575 0.540386 0
M  V30 628 C 62.0643 5.08126 1.6647 0
M  V30 629 C 63.3643 5.19722 -0.518331 0
M  V30 630 H 65.0583 2.93875 -0.572509 0
M  V30 631 H 62.6043 1.41315 -0.276768 0
M  V30 632 H 64.5573 3.86374 1.68204 0
M  V30 633 H 63.2813 2.64364 1.9178 0
M  V30 634 H 61.9403 3.66571 0.0461769 0
M  V30 635 H 61.5883 4.41762 2.40531 0
M  V30 636 H 61.2883 5.74122 1.25131 0
M  V30 637 H 62.8123 5.70246 2.18293 0
M  V30 638 H 64.2263 5.73232 -0.0883058 0
M  V30 639 H 62.6233 5.94026 -0.851679 0
M  V30 640 H 63.6933 4.64037 -1.40703 0
M  V30 641 N 65.0364 0.313813 1.54444 0
M  V30 642 C 66.3134 -0.345447 1.92525 0
M  V30 643 C 66.6934 -1.70667 1.24242 0
M  V30 644 O 66.0414 -2.25273 0.382654 0
M  V30 645 C 66.2514 -0.44737 3.46121 0
M  V30 646 C 67.5994 -0.712238 4.18584 0
M  V30 647 O 68.6234 -0.530678 3.52225 0
M  V30 648 O 67.4824 -1.06183 5.36085 0
M  V30 649 H 64.5764 -0.195407 0.803583 0
M  V30 650 H 67.1224 0.362813 1.65776 0
M  V30 651 H 65.8944 0.509043 3.87975 0
M  V30 652 H 65.5174 -1.20359 3.78945 0
M  V30 653 N 66.5145 -1.57545 0.0417849 0
M  V30 654 C 67.7615 -1.92317 -0.634082 0
M  V30 655 C 68.0895 -0.919334 -1.71402 0
M  V30 656 O 67.3445 0.0698253 -1.95575 0
M  V30 657 C 67.6435 -3.33794 -1.27735 0
M  V30 658 C 67.3095 -4.49716 -0.326543 0
M  V30 659 C 65.9715 -4.81156 -0.0648814 0
M  V30 660 C 68.3235 -5.20182 0.325623 0
M  V30 661 C 65.6515 -5.80414 0.856539 0
M  V30 662 C 68.0035 -6.20424 1.23518 0
M  V30 663 C 66.6675 -6.50298 1.5056 0
M  V30 664 H 65.9375 -0.703736 -0.232027 0
M  V30 665 H 68.5845 -1.91205 0.106259 0
M  V30 666 H 66.8895 -3.31228 -2.09274 0
M  V30 667 H 68.5865 -3.57975 -1.80707 0
M  V30 668 H 65.1765 -4.25176 -0.540665 0
M  V30 669 H 69.3605 -4.96112 0.136546 0
M  V30 670 H 64.6165 -6.019 1.07363 0
M  V30 671 H 68.7905 -6.74141 1.74664 0
M  V30 672 H 66.4175 -7.27025 2.22123 0
M  V30 673 N 67.9926 0.231505 -1.5589 0
M  V30 674 C 69.2176 0.978689 -1.82856 0
M  V30 675 C 69.6426 1.77559 -0.620846 0
M  V30 676 O 69.0006 1.76119 0.430305 0
M  V30 677 C 69.0486 1.87997 -3.07716 0
M  V30 678 O 68.1526 2.97393 -2.85712 0
M  V30 679 H 67.4936 0.277663 -0.603158 0
M  V30 680 H 70.0236 0.24783 -2.03093 0
M  V30 681 H 70.0336 2.2917 -3.37558 0
M  V30 682 H 68.7086 1.29417 -3.95252 0
M  V30 683 H 67.2856 2.60238 -2.67078 0
M  V30 684 N 69.4707 1.49531 0.497807 0
M  V30 685 C 70.4027 1.62559 1.61578 0
M  V30 686 C 71.4157 0.508134 1.54667 0
M  V30 687 O 72.6047 0.780309 1.60541 0
M  V30 688 C 69.7047 1.56925 3.00379 0
M  V30 689 C 68.8777 2.84257 3.3244 0
M  V30 690 C 67.9367 2.71632 4.50669 0
M  V30 691 O 66.9627 3.4557 4.52294 0
M  V30 692 N 68.1647 1.83391 5.5077 0
M  V30 693 H 70.9297 2.58981 1.50828 0
M  V30 694 H 68.4907 1.4666 0.685743 0
M  V30 695 H 70.4827 1.46129 3.77397 0
M  V30 696 H 69.0527 0.683483 3.05037 0
M  V30 697 H 68.2727 3.09381 2.44289 0
M  V30 698 H 69.5607 3.68666 3.5066 0
M  V30 699 H 68.9587 1.22583 5.52259 0
M  V30 700 H 67.5157 1.78515 6.26878 0
M  V30 701 N 70.9488 -0.749086 1.3866 0
M  V30 702 C 72.2258 -1.4992 1.25632 0
M  V30 703 C 72.6058 -2.10633 -0.140317 0
M  V30 704 O 71.9538 -1.97437 -1.15025 0
M  V30 705 C 72.1638 -2.56195 2.36992 0
M  V30 706 C 73.5118 -3.22972 2.75634 0
M  V30 707 O 74.5358 -2.66502 2.36337 0
M  V30 708 O 73.3948 -4.25122 3.43415 0
M  V30 709 H 70.4888 -0.665067 0.491544 0
M  V30 710 H 73.0348 -0.784113 1.50498 0
M  V30 711 H 71.8068 -2.09612 3.30422 0
M  V30 712 H 71.4298 -3.35279 2.13714 0
M  V30 713 N 72.4269 -1.23603 -0.977757 0
M  V30 714 C 73.8379 -1.06424 -1.53398 0
M  V30 715 C 74.1889 0.367578 -1.92726 0
M  V30 716 O 73.3139 1.25465 -1.76316 0
M  V30 717 C 73.9089 -1.92568 -2.78753 0
M  V30 718 C 72.4679 -1.79642 -3.30765 0
M  V30 719 C 71.6149 -1.88111 -2.03739 0
M  V30 720 H 74.5659 -1.37227 -0.797152 0
M  V30 721 H 74.5869 -1.45203 -3.51705 0
M  V30 722 H 74.0989 -2.96771 -2.50098 0
M  V30 723 H 72.1999 -0.782325 -3.64294 0
M  V30 724 H 72.3129 -2.63174 -4.00345 0
M  V30 725 H 70.6769 -1.31723 -2.17994 0
M  V30 726 H 71.4599 -2.93875 -1.77461 0
M  V30 727 N 73.905 1.17692 -1.04816 0
M  V30 728 C 75.13 1.92327 -0.776207 0
M  V30 729 C 75.555 1.76082 0.661581 0
M  V30 730 O 74.913 1.076 1.45917 0
M  V30 731 C 74.961 3.41539 -1.15687 0
M  V30 732 O 74.065 4.11402 -0.286775 0
M  V30 733 H 73.406 0.599735 -0.284981 0
M  V30 734 H 75.936 1.49201 -1.4 0
M  V30 735 H 75.946 3.92269 -1.12202 0
M  V30 736 H 74.621 3.52684 -2.20425 0
M  V30 737 H 73.198 3.70939 -0.381903 0
M  V30 738 N 75.3831 0.828654 1.34056 0
M  V30 739 C 76.3301 0.252567 2.29414 0
M  V30 740 C 77.3001 -0.62588 1.53857 0
M  V30 741 O 78.4851 -0.566312 1.82202 0
M  V30 742 C 75.6251 -0.574831 3.40279 0
M  V30 743 C 74.7381 0.326499 4.30764 0
M  V30 744 C 73.8731 -0.511016 5.28736 0
M  V30 745 C 72.9121 0.389342 6.1086 0
M  V30 746 N 72.0491 -0.409439 7.00905 0
M  V30 747 H 76.8891 1.07108 2.78086 0
M  V30 748 H 74.4261 0.539677 1.36843 0
M  V30 749 H 76.3841 -1.06992 4.03248 0
M  V30 750 H 75.0141 -1.35841 2.92826 0
M  V30 751 H 74.0661 0.939837 3.68607 0
M  V30 752 H 75.3781 1.01857 4.88289 0
M  V30 753 H 74.5321 -1.07035 5.97184 0
M  V30 754 H 73.2711 -1.23657 4.71763 0
M  V30 755 H 72.2761 0.960769 5.4134 0
M  V30 756 H 73.5011 1.1131 6.69916 0
M  V30 757 H 71.4471 -1.11856 6.46393 0
M  V30 758 H 71.3641 0.224126 7.55668 0
M  V30 759 H 72.6321 -0.951336 7.73673 0
M  V30 760 N 76.8612 -1.46375 0.584142 0
M  V30 761 C 78.1082 -2.02378 0.0702675 0
M  V30 762 C 78.4362 -1.45545 -1.29023 0
M  V30 763 O 77.6912 -0.610967 -1.85918 0
M  V30 764 C 77.9902 -3.57373 -0.0439342 0
M  V30 765 C 77.6562 -4.33252 1.24915 0
M  V30 766 C 76.3182 -4.53701 1.60341 0
M  V30 767 C 78.6702 -4.7681 2.1048 0
M  V30 768 C 75.9982 -5.1496 2.81128 0
M  V30 769 C 78.3502 -5.39404 3.30494 0
M  V30 770 C 77.0142 -5.5808 3.66201 0
M  V30 771 H 76.2842 -0.740554 0.0257127 0
M  V30 772 H 78.9312 -1.75727 0.761065 0
M  V30 773 H 77.2362 -3.83169 -0.817869 0
M  V30 774 H 78.9332 -3.98384 -0.457318 0
M  V30 775 H 75.5232 -4.17633 0.963364 0
M  V30 776 H 79.7072 -4.60766 1.84414 0
M  V30 777 H 74.9632 -5.27611 3.08928 0
M  V30 778 H 79.1372 -5.72114 3.97063 0
M  V30 779 H 76.7642 -6.05318 4.59885 0
M  V30 780 N 78.3393 -0.321999 -1.54275 0
M  V30 781 C 79.5673 0.283052 -2.04955 0
M  V30 782 C 79.9823 1.45904 -1.19823 0
M  V30 783 O 79.3393 1.81063 -0.228545 0
M  V30 784 C 79.3903 0.719028 -3.54277 0
M  V30 785 O 79.1113 -0.410175 -4.36176 0
M  V30 786 C 80.6123 1.38705 -4.21041 0
M  V30 787 H 77.8323 0.0584616 -0.668448 0
M  V30 788 H 80.3763 -0.467734 -1.99079 0
M  V30 789 H 78.5313 1.41979 -3.60445 0
M  V30 790 H 78.9453 -0.0669416 -5.24457 0
M  V30 791 H 80.4193 1.64306 -5.2698 0
M  V30 792 H 80.8963 2.33385 -3.72059 0
M  V30 793 H 81.5023 0.728906 -4.19007 0
M  V30 794 N 79.8174 1.5752 -0.0501392 0
M  V30 795 C 81.0944 1.83996 0.663685 0
M  V30 796 C 81.4744 0.938339 1.89099 0
M  V30 797 O 80.8224 -0.00087759 2.285 0
M  V30 798 C 81.0324 3.33702 1.02196 0
M  V30 799 C 82.3804 4.00691 1.40469 0
M  V30 800 O 83.4044 3.38321 1.11433 0
M  V30 801 O 82.2634 5.10658 1.94654 0
M  V30 802 H 79.3574 0.759385 0.32751 0
M  V30 803 H 81.9034 1.69514 -0.0794238 0
M  V30 804 H 80.6754 3.91015 0.149364 0
M  V30 805 H 80.2984 3.53368 1.82255 0
M  V30 806 N 81.2955 -0.223234 1.56011 0
M  V30 807 C 82.7065 -0.790368 1.69145 0
M  V30 808 C 83.0575 -1.85055 0.651845 0
M  V30 809 O 82.1825 -2.15498 -0.197359 0
M  V30 810 C 82.7775 -1.4404 3.06656 0
M  V30 811 C 81.3365 -1.95494 3.2165 0
M  V30 812 C 80.4835 -0.814506 2.65068 0
M  V30 813 H 83.4345 0.00139011 1.587 0
M  V30 814 H 83.4555 -2.30916 3.0242 0
M  V30 815 H 82.9675 -0.668543 3.82298 0
M  V30 816 H 81.0685 -2.75487 2.50874 0
M  V30 817 H 81.1815 -2.13607 4.28846 0
M  V30 818 H 79.5455 -1.22137 2.23505 0
M  V30 819 H 80.3285 -0.0553515 3.43255 0
M  V30 820 N 82.7736 -1.49793 -0.48987 0
M  V30 821 C 84.0196 -1.60078 -1.24511 0
M  V30 822 C 84.3526 -0.291608 -1.91998 0
M  V30 823 O 83.6276 0.705647 -1.81248 0
M  V30 824 C 83.9106 -2.76791 -2.30345 0
M  V30 825 C 83.7636 -4.17535 -1.67286 0
M  V30 826 C 85.0826 -2.89111 -3.31817 0
M  V30 827 H 82.2016 -0.582645 -0.451324 0
M  V30 828 H 84.8436 -1.82117 -0.541612 0
M  V30 829 H 82.9936 -2.5813 -2.90346 0
M  V30 830 H 84.6656 -4.4774 -1.11026 0
M  V30 831 H 82.9086 -4.22665 -0.976577 0
M  V30 832 H 83.5796 -4.95094 -2.44103 0
M  V30 833 H 86.0556 -3.06133 -2.81819 0
M  V30 834 H 84.9316 -3.72433 -4.03219 0
M  V30 835 H 85.1926 -1.9893 -3.94815 0
M  V30 836 N 84.2517 0.741722 -1.39055 0
M  V30 837 C 85.1987 1.85566 -1.37237 0
M  V30 838 C 86.1687 1.64457 -0.233072 0
M  V30 839 O 87.3537 1.85957 -0.427147 0
M  V30 840 C 84.4937 3.23004 -1.215 0
M  V30 841 C 83.6067 3.55864 -2.44918 0
M  V30 842 C 82.7417 4.82669 -2.21821 0
M  V30 843 C 81.7807 5.08351 -3.40948 0
M  V30 844 N 80.9177 6.26356 -3.17211 0
M  V30 845 H 85.7577 1.86455 -2.32462 0
M  V30 846 H 83.2947 0.911176 -1.15482 0
M  V30 847 H 85.2527 4.02331 -1.10389 0
M  V30 848 H 83.8827 3.21411 -0.29908 0
M  V30 849 H 82.9347 2.7129 -2.66657 0
M  V30 850 H 84.2467 3.70765 -3.33668 0
M  V30 851 H 83.4007 5.69962 -2.07914 0
M  V30 852 H 82.1397 4.69929 -1.30454 0
M  V30 853 H 81.1447 4.19522 -3.55361 0
M  V30 854 H 82.3697 5.22981 -4.33207 0
M  V30 855 H 80.3157 6.14917 -2.28502 0
M  V30 856 H 80.2327 6.41813 -3.99515 0
M  V30 857 H 81.5007 7.16506 -3.06984 0
M  V30 858 N 85.7298 1.2412 0.971189 0
M  V30 859 C 87.0068 0.986867 1.6888 0
M  V30 860 C 87.3868 -0.491857 2.0529 0
M  V30 861 O 86.7348 -1.46531 1.75331 0
M  V30 862 C 86.9448 1.9063 2.92338 0
M  V30 863 C 88.2928 2.17515 3.64654 0
M  V30 864 O 89.3168 1.88254 3.02388 0
M  V30 865 O 88.1758 2.6719 4.7673 0
M  V30 866 H 85.2698 0.372944 0.738134 0
M  V30 867 H 87.8158 1.35203 1.02559 0
M  V30 868 H 86.5878 2.90552 2.62097 0
M  V30 869 H 86.2108 1.54408 3.66393 0
M  V30 870 N 87.2079 -1.17134 1.05439 0
M  V30 871 C 88.4539 -1.87733 0.767077 0
M  V30 872 C 88.7869 -1.8098 -0.704253 0
M  V30 873 O 88.0619 -1.21951 -1.5152 0
M  V30 874 C 88.3449 -3.37659 1.25133 0
M  V30 875 C 88.1979 -3.53149 2.78578 0
M  V30 876 C 89.5169 -4.31768 0.852324 0
M  V30 877 H 86.6359 -0.681687 0.280129 0
M  V30 878 H 89.2779 -1.37732 1.30881 0
M  V30 879 H 87.4279 -3.80373 0.790469 0
M  V30 880 H 89.0999 -3.19434 3.32806 0
M  V30 881 H 87.3429 -2.95345 3.17732 0
M  V30 882 H 88.0139 -4.58403 3.07523 0
M  V30 883 H 90.4899 -3.96909 1.24911 0
M  V30 884 H 89.3659 -5.35199 1.21873 0
M  V30 885 H 89.6269 -4.41429 -0.243485 0
M  V30 886 N 88.686 -0.835752 -1.33615 0
M  V30 887 C 89.616 -0.281739 -2.31794 0
M  V30 888 C 90.597 0.608833 -1.58831 0
M  V30 889 O 91.782 0.533035 -1.86741 0
M  V30 890 C 88.912 0.546612 -3.42971 0
M  V30 891 C 87.866 -0.247904 -4.27281 0
M  V30 892 C 87.192 0.704001 -5.30045 0
M  V30 893 C 88.492 -1.46324 -5.01385 0
M  V30 894 H 90.186 -1.10206 -2.78379 0
M  V30 895 H 87.732 -0.531388 -1.33837 0
M  V30 896 H 89.685 0.944467 -4.1068 0
M  V30 897 H 88.409 1.40011 -2.95067 0
M  V30 898 H 87.068 -0.627281 -3.61194 0
M  V30 899 H 86.716 1.55381 -4.78399 0
M  V30 900 H 86.416 0.176524 -5.87335 0
M  V30 901 H 87.94 1.09944 -6.0062 0
M  V30 902 H 89.354 -1.13871 -5.61877 0
M  V30 903 H 87.751 -1.92728 -5.6831 0
M  V30 904 H 88.821 -2.23467 -4.30338 0
M  V30 905 N 90.1641 1.46063 -0.591896 0
M  V30 906 C 91.0741 2.34192 0.13831 0
M  V30 907 C 92.0901 1.50305 0.876608 0
M  V30 908 O 93.2661 1.8315 0.837728 0
M  V30 909 C 90.3311 3.27656 1.13326 0
M  V30 910 C 89.3921 4.27445 0.39863 0
M  V30 911 C 88.6251 5.16443 1.34618 0
M  V30 912 O 88.8481 5.08553 2.58321 0
M  V30 913 O 87.7821 5.95843 0.851768 0
M  V30 914 H 91.6081 2.98002 -0.58552 0
M  V30 915 H 89.1931 1.45188 -0.352239 0
M  V30 916 H 91.0751 3.85291 1.70671 0
M  V30 917 H 89.7501 2.6643 1.83839 0
M  V30 918 H 88.6571 3.73471 -0.216895 0
M  V30 919 H 89.9901 4.91482 -0.265709 0
M  V30 920 N 91.6422 0.330177 1.54103 0
M  V30 921 C 92.5892 -0.532762 2.24567 0
M  V30 922 C 93.5592 -1.10635 1.23892 0
M  V30 923 O 94.7442 -1.14546 1.5259 0
M  V30 924 C 91.8842 -1.6845 3.01195 0
M  V30 925 C 90.9972 -1.13951 4.167 0
M  V30 926 C 90.1322 -2.25746 4.80845 0
M  V30 927 C 89.1712 -1.6853 5.88442 0
M  V30 928 N 88.3082 -2.74014 6.46421 0
M  V30 929 H 93.1482 0.0746905 2.97906 0
M  V30 930 H 90.6852 0.048632 1.4702 0
M  V30 931 H 92.6432 -2.36234 3.43874 0
M  V30 932 H 91.2732 -2.26314 2.30178 0
M  V30 933 H 90.3252 -0.35301 3.78758 0
M  V30 934 H 91.6372 -0.680892 4.94131 0
M  V30 935 H 90.7912 -3.01422 5.26526 0
M  V30 936 H 89.5302 -2.74947 4.0281 0
M  V30 937 H 88.5352 -0.913543 5.42157 0
M  V30 938 H 89.7602 -1.20198 6.68378 0
M  V30 939 H 87.7062 -3.22494 5.71256 0
M  V30 940 H 87.6232 -2.32735 7.19285 0
M  V30 941 H 88.8912 -3.49499 6.96757 0
M  V30 942 N 93.1203 -1.57491 0.0584922 0
M  V30 943 C 94.3683 -1.92597 -0.612436 0
M  V30 944 C 94.6893 -0.938162 -1.70949 0
M  V30 945 O 93.9593 0.0158301 -1.95894 0
M  V30 946 H 92.5393 -0.710964 -0.229214 0
M  V30 947 H 95.2013 -1.94571 0.113218 0
M  V30 948 H 94.2973 -2.94038 -1.04633 0
M  V30 949 N 94.5984 0.214957 -1.56127 0
M  V30 950 C 95.8474 0.936451 -1.78643 0
M  V30 951 C 96.1604 1.85237 -0.628229 0
M  V30 952 O 97.3664 2.613 -0.737186 0
M  V30 953 C 95.8224 1.7154 -3.16389 0
M  V30 954 C 95.4304 0.845299 -4.39953 0
M  V30 955 C 97.1744 2.42772 -3.48227 0
M  V30 956 C 95.0814 1.62198 -5.68723 0
M  V30 957 H 94.0114 0.353401 -0.666051 0
M  V30 958 H 96.6624 0.190169 -1.82512 0
M  V30 959 H 95.0444 2.50484 -3.06715 0
M  V30 960 H 96.2184 0.0959353 -4.607 0
M  V30 961 H 94.5334 0.244789 -4.1568 0
M  V30 962 H 97.1304 3.01394 -4.41663 0
M  V30 963 H 97.4734 3.15984 -2.71035 0
M  V30 964 H 98.0064 1.70813 -3.5926 0
M  V30 965 H 94.7454 0.933011 -6.48826 0
M  V30 966 H 94.2654 2.34579 -5.52026 0
M  V30 967 H 95.9444 2.18095 -6.09133 0
M  V30 968 N 96.0765 1.50051 0.48192 0
M  V30 969 C 97.4875 1.5348 1.06305 0
M  V30 970 C 97.8385 0.331997 1.93371 0
M  V30 971 O 96.9635 -0.556256 2.09129 0
M  V30 972 C 97.5585 2.7813 1.93466 0
M  V30 973 C 96.1175 2.84275 2.46707 0
M  V30 974 C 95.2645 2.47637 1.24785 0
M  V30 975 H 98.2155 1.56472 0.264995 0
M  V30 976 H 98.2365 2.59372 2.78399 0
M  V30 977 H 97.7485 3.65654 1.30072 0
M  V30 978 H 95.8495 2.01077 3.13686 0
M  V30 979 H 95.9625 3.8691 2.82555 0
M  V30 980 H 94.3265 1.99835 1.57918 0
M  V30 981 H 95.1095 3.37457 0.630694 0
M  V30 982 N 97.5546 -0.734337 1.39446 0
M  V30 983 C 98.7826 -1.52358 1.39981 0
M  V30 984 C 99.1976 -1.88799 -0.0054975 0
M  V30 985 O 98.5546 -1.54146 -0.976998 0
M  V30 986 C 98.6056 -2.81072 2.27333 0
M  V30 987 O 98.3266 -2.46178 3.62392 0
M  V30 988 C 99.8276 -3.75096 2.36259 0
M  V30 989 H 97.0476 -0.470806 0.478103 0
M  V30 990 H 99.5916 -0.907339 1.83269 0
M  V30 991 H 97.7466 -3.39026 1.87457 0
M  V30 992 H 98.1606 -3.28866 4.08592 0
M  V30 993 H 99.6346 -4.62305 3.01626 0
M  V30 994 H 100.112 -4.16892 1.38194 0
M  V30 995 H 100.718 -3.23061 2.76608 0
M  V30 996 N 99.0327 -1.24633 -0.964593 0
M  V30 997 C 99.9627 -1.06611 -2.07741 0
M  V30 998 C 100.944 0.0218666 -1.70086 0
M  V30 999 O 102.129 -0.145793 -1.93652 0
M  V30 1000 C 99.2587 -0.673444 -3.40708 0
M  V30 1001 C 98.2127 -1.71054 -3.92332 0
M  V30 1002 C 97.5387 -1.17285 -5.21678 0
M  V30 1003 C 98.8387 -3.10718 -4.19824 0
M  V30 1004 H 100.533 -1.99693 -2.23076 0
M  V30 1005 H 98.0787 -0.96152 -1.07195 0
M  V30 1006 H 100.032 -0.534345 -4.17998 0
M  V30 1007 H 98.7557 0.293073 -3.25282 0
M  V30 1008 H 97.4147 -1.83791 -3.17201 0
M  V30 1009 H 97.0627 -0.196847 -5.02615 0
M  V30 1010 H 96.7627 -1.86592 -5.57187 0
M  V30 1011 H 98.2867 -1.04593 -6.01575 0
M  V30 1012 H 99.7007 -3.01192 -4.87808 0
M  V30 1013 H 98.0977 -3.77406 -4.66567 0
M  V30 1014 H 99.1677 -3.58524 -3.26479 0
M  V30 1015 N 100.511 1.16574 -1.06058 0
M  V30 1016 C 101.443 2.2045 -0.627239 0
M  V30 1017 C 102.456 1.59752 0.313534 0
M  V30 1018 O 103.645 1.78192 0.104896 0
M  V30 1019 C 100.745 3.3875 0.100974 0
M  V30 1020 C 99.9178 4.29008 -0.852687 0
M  V30 1021 C 98.9768 5.25944 -0.164152 0
M  V30 1022 O 98.0028 5.63535 -0.801047 0
M  V30 1023 N 99.2048 5.70075 1.09518 0
M  V30 1024 H 101.97 2.58249 -1.52077 0
M  V30 1025 H 99.5308 1.3156 -0.943594 0
M  V30 1026 H 101.523 4.00638 0.57194 0
M  V30 1027 H 100.093 2.99476 0.89628 0
M  V30 1028 H 99.3128 3.64419 -1.50308 0
M  V30 1029 H 100.601 4.86195 -1.49972 0
M  V30 1030 H 99.9988 5.41624 1.6328 0
M  V30 1031 H 98.5558 6.34067 1.51006 0
M  V30 1032 N 101.989 0.842826 1.3317 0
M  V30 1033 C 103.214 0.453129 2.02389 0
M  V30 1034 C 103.639 -0.939105 1.6298 0
M  V30 1035 O 102.997 -1.61472 0.8244 0
M  V30 1036 C 103.045 0.586094 3.55805 0
M  V30 1037 O 102.149 -0.386029 4.10589 0
M  V30 1038 H 101.49 0.183664 0.638094 0
M  V30 1039 H 104.02 1.13875 1.69981 0
M  V30 1040 H 104.03 0.469209 4.05293 0
M  V30 1041 H 102.705 1.6014 3.83833 0
M  V30 1042 H 101.282 -0.226371 3.72212 0
M  V30 1043 N 103.467 -1.45747 0.599634 0
M  V30 1044 C 104.878 -1.85853 0.177681 0
M  V30 1045 C 105.229 -1.50102 -1.26348 0
M  V30 1046 O 104.354 -0.923905 -1.95686 0
M  V30 1047 C 104.949 -3.37326 0.315688 0
M  V30 1048 C 103.508 -3.76365 -0.0515144 0
M  V30 1049 C 102.655 -2.69722 0.643822 0
M  V30 1050 H 105.606 -1.36661 0.806814 0
M  V30 1051 H 105.627 -3.77778 -0.454321 0
M  V30 1052 H 105.139 -3.63315 1.36468 0
M  V30 1053 H 103.24 -3.55993 -1.09999 0
M  V30 1054 H 103.353 -4.77916 0.336594 0
M  V30 1055 H 101.717 -2.54567 0.0822881 0
M  V30 1056 H 102.5 -2.98549 1.6948 0
M  V30 1057 N 104.945 -0.338344 -1.53925 0
M  V30 1058 C 106.17 0.263987 -2.05713 0
M  V30 1059 C 106.595 1.43847 -1.21201 0
M  V30 1060 O 105.953 1.79904 -0.224535 0
M  V30 1061 C 106.001 0.662 -3.54471 0
M  V30 1062 O 105.105 1.76265 -3.72833 0
M  V30 1063 H 104.446 0.0448722 -0.662482 0
M  V30 1064 H 106.976 -0.491048 -1.9862 0
M  V30 1065 H 106.986 0.940594 -3.9701 0
M  V30 1066 H 105.661 -0.196937 -4.15433 0
M  V30 1067 H 104.238 1.48173 -3.42198 0
M  V30 1068 N 106.423 1.57458 -0.0668435 0
M  V30 1069 C 107.669 1.93587 0.6043 0
M  V30 1070 C 108.002 0.946722 1.69561 0
M  V30 1071 O 107.277 -0.0248516 1.94484 0
M  V30 1072 C 107.56 3.40014 1.18585 0
M  V30 1073 C 107.413 4.49685 0.101529 0
M  V30 1074 C 108.732 3.87154 2.09284 0
M  V30 1075 H 105.851 0.703958 0.218202 0
M  V30 1076 H 108.493 1.89542 -0.131804 0
M  V30 1077 H 106.643 3.43592 1.81319 0
M  V30 1078 H 108.315 4.5823 -0.531279 0
M  V30 1079 H 106.558 4.30059 -0.568487 0
M  V30 1080 H 107.229 5.49266 0.54874 0
M  V30 1081 H 109.705 3.85551 1.56491 0
M  V30 1082 H 108.581 4.90231 2.46911 0
M  V30 1083 H 108.842 3.2481 2.99918 0
M  V30 1084 N 107.901 -0.206675 1.56239 0
M  V30 1085 C 108.811 -1.27686 1.96808 0
M  V30 1086 C 109.827 -1.50455 0.874035 0
M  V30 1087 O 111.003 -1.63295 1.17884 0
M  V30 1088 C 108.068 -2.60358 2.28942 0
M  V30 1089 C 107.129 -2.45762 3.51994 0
M  V30 1090 C 106.362 -3.72108 3.82585 0
M  V30 1091 O 106.585 -4.75776 3.14631 0
M  V30 1092 O 105.519 -3.6833 4.76043 0
M  V30 1093 H 109.345 -0.962593 2.88041 0
M  V30 1094 H 106.93 -0.410746 1.43643 0
M  V30 1095 H 108.812 -3.38687 2.50737 0
M  V30 1096 H 107.487 -2.91435 1.4088 0
M  V30 1097 H 106.394 -1.65584 3.35459 0
M  V30 1098 H 107.727 -2.19621 4.40486 0
M  V30 1099 N 109.379 -1.50304 -0.473955 0
M  V30 1100 C 110.342 -1.6841 -1.55469 0
M  V30 1101 C 111.342 -0.554905 -1.50922 0
M  V30 1102 O 112.532 -0.821882 -1.53593 0
M  V30 1103 C 109.664 -1.70667 -2.95102 0
M  V30 1104 H 110.857 -2.64828 -1.40733 0
M  V30 1105 H 108.41 -1.39742 -0.700132 0
M  V30 1106 H 109.145 -0.75932 -3.15285 0
M  V30 1107 H 108.93 -2.52698 -2.9981 0
M  V30 1108 H 110.42 -1.8664 -3.73571 0
M  V30 1109 N 110.857 0.726932 -1.39834 0
M  V30 1110 C 112.097 1.4992 -1.38936 0
M  V30 1111 C 112.461 1.91996 0.0126883 0
M  V30 1112 O 113.662 2.68399 0.146715 0
M  V30 1113 C 111.933 2.70013 -2.34153 0
M  V30 1114 S 113.492 3.59563 -2.51515 0
M  V30 1115 H 110.31 0.51271 -0.492595 0
M  V30 1116 H 112.912 0.85107 -1.76003 0
M  V30 1117 H 111.616 2.37254 -3.34871 0
M  V30 1118 H 111.147 3.39748 -1.98331 0
M  V30 1119 H 113.162 4.63973 -1.75909 0
M  V30 1120 N 112.336 1.25143 0.95797 0
M  V30 1121 C 113.584 1.09476 1.69881 0
M  V30 1122 C 113.905 -0.365502 1.91544 0
M  V30 1123 O 113.175 -1.25985 1.50015 0
M  V30 1124 H 111.755 0.402128 0.629525 0
M  V30 1125 H 114.417 1.57214 1.15194 0
M  V30 1126 H 113.513 1.60046 2.6794 0
M  V30 1127 N 113.814 -1.1601 1.06675 0
M  V30 1128 C 115.044 -1.90251 0.805497 0
M  V30 1129 C 115.452 -1.77891 -0.64431 0
M  V30 1130 O 114.795 -1.12383 -1.45313 0
M  V30 1131 C 114.857 -3.41419 1.12576 0
M  V30 1132 C 114.521 -3.77564 2.57477 0
M  V30 1133 C 115.518 -3.79161 3.55715 0
M  V30 1134 C 113.203 -4.08079 2.92877 0
M  V30 1135 C 115.197 -4.10767 4.8739 0
M  V30 1136 C 112.884 -4.39351 4.24751 0
M  V30 1137 C 113.882 -4.40675 5.21818 0
M  V30 1138 O 113.57 -4.71202 6.51325 0
M  V30 1139 H 113.302 -0.610018 0.291297 0
M  V30 1140 H 115.856 -1.47958 1.4247 0
M  V30 1141 H 114.086 -3.84079 0.449503 0
M  V30 1142 H 115.775 -3.9694 0.84814 0
M  V30 1143 H 116.541 -3.55693 3.29708 0
M  V30 1144 H 112.42 -4.06211 2.17976 0
M  V30 1145 H 115.964 -4.11715 5.63148 0
M  V30 1146 H 111.861 -4.62285 4.50514 0
M  V30 1147 H 112.629 -4.88996 6.56373 0
M  V30 1148 N 115.292 -0.849877 -1.32721 0
M  V30 1149 C 116.517 -0.463856 -2.02146 0
M  V30 1150 C 116.942 0.930449 -1.63476 0
M  V30 1151 O 116.3 1.61033 -0.832952 0
M  V30 1152 C 116.348 -0.604955 -3.55489 0
M  V30 1153 O 115.452 0.36425 -4.10788 0
M  V30 1154 H 114.793 -0.187046 -0.637111 0
M  V30 1155 H 117.323 -1.14775 -1.69375 0
M  V30 1156 H 117.333 -0.490696 -4.05038 0
M  V30 1157 H 116.008 -1.62174 -3.82978 0
M  V30 1158 H 114.585 0.206628 -3.72327 0
M  V30 1159 N 116.77 1.45427 -0.607355 0
M  V30 1160 C 118.047 1.9557 -0.0344566 0
M  V30 1161 C 118.427 1.54979 1.43334 0
M  V30 1162 O 117.775 0.812241 2.13576 0
M  V30 1163 C 117.985 3.48226 -0.232321 0
M  V30 1164 C 119.333 4.2445 -0.113001 0
M  V30 1165 O 120.357 3.55829 -0.162431 0
M  V30 1166 O 119.216 5.465 0.00209442 0
M  V30 1167 H 116.31 0.826222 0.0358667 0
M  V30 1168 H 118.856 1.55594 -0.6774 0
M  V30 1169 H 117.628 3.70739 -1.25174 0
M  V30 1170 H 117.251 3.95092 0.445896 0
M  V30 1171 N 118.248 0.346503 1.53744 0
M  V30 1172 C 119.664 -0.00530975 1.59599 0
M  V30 1173 C 119.864 -1.48465 1.36236 0
M  V30 1174 O 118.92 -2.24376 1.15808 0
M  V30 1175 C 120.233 0.433516 2.97559 0
M  V30 1176 C 121.781 0.386111 3.10609 0
M  V30 1177 C 122.256 0.800451 4.50951 0
M  V30 1178 N 123.747 0.754753 4.5701 0
M  V30 1179 C 124.482 1.04727 5.63755 0
M  V30 1180 N 123.978 1.4081 6.7834 0
M  V30 1181 N 125.771 0.971316 5.53644 0
M  V30 1182 H 117.922 1.31009 1.67184 0
M  V30 1183 H 120.185 0.534242 0.783128 0
M  V30 1184 H 119.891 1.46509 3.19731 0
M  V30 1185 H 119.765 -0.189753 3.76722 0
M  V30 1186 H 122.152 -0.636295 2.88158 0
M  V30 1187 H 122.233 1.04462 2.33498 0
M  V30 1188 H 121.877 1.82088 4.74137 0
M  V30 1189 H 121.807 0.119386 5.26465 0
M  V30 1190 H 124.298 0.488662 3.74727 0
M  V30 1191 H 124.611 1.61607 7.55714 0
M  V30 1192 H 122.956 1.44657 6.79779 0
M  V30 1193 H 126.147 0.688748 4.63005 0
M  V30 1194 H 126.32 1.20263 6.36742 0
M  V30 1195 N 119.726 -1.57421 0.075193 0
M  V30 1196 C 120.975 -1.92794 -0.592731 0
M  V30 1197 C 121.288 -0.957478 -1.70563 0
M  V30 1198 O 122.494 -1.20417 -2.43335 0
M  V30 1199 C 120.95 -3.42495 -1.10569 0
M  V30 1200 C 120.558 -4.47994 -0.0236121 0
M  V30 1201 C 122.302 -3.86864 -1.74748 0
M  V30 1202 C 120.209 -5.88829 -0.550803 0
M  V30 1203 H 119.139 -0.719591 -0.225177 0
M  V30 1204 H 121.79 -1.82902 0.147978 0
M  V30 1205 H 120.172 -3.47471 -1.89947 0
M  V30 1206 H 121.346 -4.54637 0.751099 0
M  V30 1207 H 119.661 -4.13113 0.522159 0
M  V30 1208 H 122.258 -4.8947 -2.15229 0
M  V30 1209 H 122.601 -3.24417 -2.60882 0
M  V30 1210 H 123.134 -3.84504 -1.01986 0
M  V30 1211 H 119.873 -6.54929 0.273457 0
M  V30 1212 H 119.393 -5.85698 -1.29296 0
M  V30 1213 H 121.072 -6.38811 -1.02613 0
M  V30 1214 N 121.204 0.198386 -1.56346 0
M  V30 1215 C 122.453 0.917451 -1.79627 0
M  V30 1216 C 122.766 1.8456 -0.64784 0
M  V30 1217 O 123.972 2.60504 -0.764859 0
M  V30 1218 C 122.428 1.68175 -3.18191 0
M  V30 1219 C 122.036 0.798589 -4.40825 0
M  V30 1220 C 123.78 2.39065 -3.50782 0
M  V30 1221 C 121.687 1.56157 -5.70411 0
M  V30 1222 H 120.617 0.346317 -0.669762 0
M  V30 1223 H 123.268 0.170801 -1.82703 0
M  V30 1224 H 121.65 2.47216 -3.09354 0
M  V30 1225 H 122.824 0.0470665 -4.60776 0
M  V30 1226 H 121.139 0.200686 -4.15916 0
M  V30 1227 H 123.736 2.96692 -4.44835 0
M  V30 1228 H 124.079 3.13091 -2.74371 0
M  V30 1229 H 124.612 1.66993 -3.61052 0
M  V30 1230 H 121.351 0.864142 -6.49779 0
M  V30 1231 H 120.871 2.2871 -5.54483 0
M  V30 1232 H 122.55 2.11622 -6.11412 0
M  V30 1233 N 122.682 1.50554 0.465978 0
M  V30 1234 C 123.614 1.65949 1.58093 0
M  V30 1235 C 124.627 0.540827 1.53554 0
M  V30 1236 O 125.816 0.814187 1.5885 0
M  V30 1237 C 122.916 1.63261 2.96983 0
M  V30 1238 C 122.089 2.91245 3.26336 0
M  V30 1239 C 121.148 2.8113 4.44806 0
M  V30 1240 O 120.174 3.55086 4.44862 0
M  V30 1241 N 121.376 1.95032 5.46756 0
M  V30 1242 H 124.141 2.62122 1.45301 0
M  V30 1243 H 121.702 1.48082 0.65448 0
M  V30 1244 H 123.694 1.54101 3.74212 0
M  V30 1245 H 122.264 0.748032 3.03518 0
M  V30 1246 H 121.484 3.14493 2.37672 0
M  V30 1247 H 122.772 3.76022 3.42761 0
M  V30 1248 H 122.17 1.3427 5.49534 0
M  V30 1249 H 120.727 1.91772 6.2295 0
M  V30 1250 N 124.16 -0.719506 1.40217 0
M  V30 1251 C 125.409 -1.47486 1.37589 0
M  V30 1252 C 125.722 -1.9559 -0.0201568 0
M  V30 1253 O 126.928 -2.70973 -0.169049 0
M  V30 1254 C 125.384 -2.66575 2.41796 0
M  V30 1255 C 124.992 -2.25358 3.87192 0
M  V30 1256 C 126.736 -3.4433 2.48269 0
M  V30 1257 C 124.643 -3.41262 4.83005 0
M  V30 1258 H 123.573 -0.553901 0.511576 0
M  V30 1259 H 126.224 -0.783427 1.65936 0
M  V30 1260 H 124.606 -3.3787 2.06543 0
M  V30 1261 H 125.78 -1.61509 4.31569 0
M  V30 1262 H 124.095 -1.60657 3.84159 0
M  V30 1263 H 126.692 -4.30569 3.17041 0
M  V30 1264 H 127.035 -3.87872 1.51198 0
M  V30 1265 H 127.568 -2.80076 2.82493 0
M  V30 1266 H 124.307 -3.02755 5.81394 0
M  V30 1267 H 123.827 -4.0404 4.43297 0
M  V30 1268 H 125.506 -4.07383 5.02641 0
M  V30 1269 N 125.638 -1.25649 -0.95132 0
M  V30 1270 C 126.866 -1.13343 -1.73092 0
M  V30 1271 C 127.281 0.312434 -1.86197 0
M  V30 1272 O 126.638 1.21465 -1.36207 0
M  V30 1273 C 126.689 -1.78602 -3.14299 0
M  V30 1274 O 126.41 -3.17537 -3.01831 0
M  V30 1275 C 127.911 -1.72119 -4.08522 0
M  V30 1276 H 125.131 -0.395181 -0.542285 0
M  V30 1277 H 127.675 -1.66076 -1.19328 0
M  V30 1278 H 125.83 -1.29832 -3.64996 0
M  V30 1279 H 126.244 -3.49676 -3.90931 0
M  V30 1280 H 127.718 -2.22435 -5.052 0
M  V30 1281 H 128.195 -0.685635 -4.33815 0
M  V30 1282 H 128.801 -2.20393 -3.63741 0
M  V30 1283 N 127.117 1.15442 -1.07289 0
M  V30 1284 C 128.533 1.38201 -0.798288 0
M  V30 1285 C 128.733 1.92429 0.597769 0
M  V30 1286 O 127.789 2.12962 1.3566 0
M  V30 1287 C 129.102 2.35357 -1.87156 0
M  V30 1288 C 130.65 2.49021 -1.89624 0
M  V30 1289 C 131.125 3.49468 -2.96034 0
M  V30 1290 N 132.616 3.57003 -2.95132 0
M  V30 1291 C 133.351 4.34543 -3.74112 0
M  V30 1292 N 132.847 5.15421 -4.6294 0
M  V30 1293 N 134.64 4.29625 -3.62462 0
M  V30 1294 H 126.791 0.78584 -1.97328 0
M  V30 1295 H 129.054 0.408065 -0.855679 0
M  V30 1296 H 128.76 2.02626 -2.87464 0
M  V30 1297 H 128.634 3.35129 -1.73114 0
M  V30 1298 H 131.021 2.81051 -0.899687 0
M  V30 1299 H 131.102 1.4925 -2.07745 0
M  V30 1300 H 130.746 3.18173 -3.95889 0
M  V30 1301 H 130.676 4.48992 -2.75161 0
M  V30 1302 H 133.167 2.99276 -2.30743 0
M  V30 1303 H 133.48 5.7183 -5.19837 0
M  V30 1304 H 131.825 5.14729 -4.66989 0
M  V30 1305 H 135.016 3.65505 -2.92444 0
M  V30 1306 H 135.189 4.89807 -4.24256 0
M  V30 1307 N 128.595 0.856903 1.32268 0
M  V30 1308 C 129.843 0.460474 1.96784 0
M  V30 1309 C 130.164 -0.987701 1.68135 0
M  V30 1310 O 129.434 -1.69058 0.989765 0
M  V30 1311 H 128.014 0.167289 0.728027 0
M  V30 1312 H 130.676 1.09383 1.61312 0
M  V30 1313 H 129.772 0.60739 3.06133 0
M  V30 1314 N 130.073 -1.45103 0.615059 0
M  V30 1315 C 131.35 -1.95549 0.0448276 0
M  V30 1316 C 131.73 -1.55737 -1.4251 0
M  V30 1317 O 131.078 -0.823556 -2.13143 0
M  V30 1318 C 131.288 -3.48098 0.250785 0
M  V30 1319 C 132.636 -4.24384 0.135509 0
M  V30 1320 O 133.66 -3.55738 0.181299 0
M  V30 1321 O 132.519 -5.46493 0.0268878 0
M  V30 1322 H 129.613 -0.8264 -0.0314845 0
M  V30 1323 H 132.159 -1.55232 0.685642 0
M  V30 1324 H 130.931 -3.7007 1.27139 0
M  V30 1325 H 130.554 -3.95323 -0.424937 0
M  V30 1326 N 131.551 -0.354651 -1.53558 0
M  V30 1327 C 132.776 0.242153 -2.05981 0
M  V30 1328 C 133.201 1.42553 -1.2272 0
M  V30 1329 O 132.559 1.79656 -0.243604 0
M  V30 1330 C 132.607 0.624367 -3.55154 0
M  V30 1331 O 131.711 1.72301 -3.74681 0
M  V30 1332 H 131.052 0.0378432 -0.662921 0
M  V30 1333 H 133.582 -0.512087 -1.98088 0
M  V30 1334 H 133.592 0.898433 -3.97985 0
M  V30 1335 H 132.267 -0.240989 -4.15201 0
M  V30 1336 H 130.844 1.44535 -3.4375 0
M  V30 1337 N 133.029 1.57378 -0.0835403 0
M  V30 1338 C 134.257 1.98263 0.59157 0
M  V30 1339 C 134.672 0.962302 1.62435 0
M  V30 1340 O 134.029 -0.049581 1.82433 0
M  V30 1341 C 134.08 3.39214 1.24965 0
M  V30 1342 O 133.801 4.37339 0.258186 0
M  V30 1343 C 135.302 3.95038 2.01147 0
M  V30 1344 H 132.522 0.651773 0.159477 0
M  V30 1345 H 135.066 2.03878 -0.159415 0
M  V30 1346 H 133.221 3.34649 1.95164 0
M  V30 1347 H 133.635 5.19371 0.731734 0
M  V30 1348 H 135.109 4.95848 2.42567 0
M  V30 1349 H 135.586 3.32222 2.87272 0
M  V30 1350 H 136.192 4.0304 1.35789 0
M  V30 1351 N 134.507 -0.190092 1.56449 0
M  V30 1352 C 135.756 -0.907912 1.80111 0
M  V30 1353 C 136.069 -1.84214 0.657619 0
M  V30 1354 O 137.275 -2.60094 0.778663 0
M  V30 1355 C 135.731 -1.66485 3.19078 0
M  V30 1356 C 135.339 -0.7752 4.41242 0
M  V30 1357 C 137.083 -2.37201 3.52045 0
M  V30 1358 C 134.99 -1.53129 5.71231 0
M  V30 1359 H 133.92 -0.34276 0.671589 0
M  V30 1360 H 136.571 -0.161109 1.82791 0
M  V30 1361 H 134.953 -2.45572 3.10661 0
M  V30 1362 H 136.127 -0.0226298 4.60794 0
M  V30 1363 H 134.442 -0.178627 4.16017 0
M  V30 1364 H 137.039 -2.94329 4.46402 0
M  V30 1365 H 137.382 -3.11632 2.76028 0
M  V30 1366 H 137.915 -1.65075 3.61932 0
M  V30 1367 H 134.654 -0.82967 6.50228 0
M  V30 1368 H 134.174 -2.25767 5.55688 0
M  V30 1369 H 135.853 -2.08377 6.12526 0
M  V30 1370 N 135.985 -1.50799 -0.457987 0
M  V30 1371 C 137.213 -1.66218 -1.23203 0
M  V30 1372 C 137.628 -0.350894 -1.85511 0
M  V30 1373 O 136.985 0.668546 -1.69814 0
M  V30 1374 C 137.036 -2.76291 -2.33121 0
M  V30 1375 O 136.757 -4.02338 -1.73366 0
M  V30 1376 C 138.258 -3.028 -3.2377 0
M  V30 1377 H 135.478 -0.558361 -0.372121 0
M  V30 1378 H 138.022 -1.97099 -0.545179 0
M  V30 1379 H 136.177 -2.48068 -2.97558 0
M  V30 1380 H 136.591 -4.63312 -2.4585 0
M  V30 1381 H 138.065 -3.8345 -3.97077 0
M  V30 1382 H 138.542 -2.14385 -3.83322 0
M  V30 1383 H 139.148 -3.32604 -2.65056 0
M  V30 1384 N 137.463 0.71206 -1.40597 0
M  V30 1385 C 138.688 1.50617 -1.42581 0
M  V30 1386 C 139.113 1.88079 -0.0282102 0
M  V30 1387 O 138.471 1.53511 0.964579 0
M  V30 1388 C 138.519 2.7557 -2.3258 0
M  V30 1389 O 137.623 3.72414 -1.77148 0
M  V30 1390 H 136.964 0.453966 -0.484573 0
M  V30 1391 H 139.494 0.876649 -1.84868 0
M  V30 1392 H 139.504 3.2406 -2.47889 0
M  V30 1393 H 138.179 2.47639 -3.34138 0
M  V30 1394 H 136.756 3.31276 -1.71204 0
M  V30 1395 N 138.941 1.26152 0.944643 0
M  V30 1396 C 139.873 1.03199 2.04652 0
M  V30 1397 C 140.886 -0.00642356 1.62799 0
M  V30 1398 O 142.075 0.233263 1.76969 0
M  V30 1399 C 139.175 0.540111 3.34568 0
M  V30 1400 C 138.348 1.64697 4.05208 0
M  V30 1401 C 137.407 1.15374 5.13396 0
M  V30 1402 O 136.433 1.85013 5.38293 0
M  V30 1403 N 137.635 0.00031529 5.805 0
M  V30 1404 H 140.4 1.9808 2.2491 0
M  V30 1405 H 137.961 1.17491 1.11389 0
M  V30 1406 H 139.953 0.194401 4.04233 0
M  V30 1407 H 138.523 -0.315021 3.11009 0
M  V30 1408 H 137.743 2.16379 3.29506 0
M  V30 1409 H 139.031 2.3903 4.49157 0
M  V30 1410 H 138.429 -0.581336 5.62705 0
M  V30 1411 H 136.986 -0.286346 6.51171 0
M  V30 1412 N 140.419 -1.14872 1.07899 0
M  V30 1413 C 141.696 -1.81928 0.71845 0
M  V30 1414 C 142.076 -1.95417 -0.798455 0
M  V30 1415 O 141.424 -1.50997 -1.715 0
M  V30 1416 C 141.634 -3.17937 1.43935 0
M  V30 1417 C 142.982 -3.93501 1.59506 0
M  V30 1418 O 144.006 -3.27509 1.40058 0
M  V30 1419 O 142.865 -5.1183 1.91551 0
M  V30 1420 H 139.959 -0.78628 0.256305 0
M  V30 1421 H 142.505 -1.21934 1.18026 0
M  V30 1422 H 141.277 -3.0325 2.47295 0
M  V30 1423 H 140.9 -3.85619 0.968687 0
M  V30 1424 N 141.898 -0.863906 -1.31812 0
M  V30 1425 C 143.144 -0.472535 -1.97218 0
M  V30 1426 C 143.477 0.971394 -1.68159 0
M  V30 1427 O 142.752 1.68309 -0.974798 0
M  V30 1428 C 143.035 -0.723054 -3.52766 0
M  V30 1429 C 142.888 -2.21608 -3.91421 0
M  V30 1430 C 144.207 -0.185522 -4.39709 0
M  V30 1431 H 141.326 -0.173158 -0.71637 0
M  V30 1432 H 143.968 -1.08403 -1.56041 0
M  V30 1433 H 142.118 -0.202577 -3.87971 0
M  V30 1434 H 143.79 -2.80334 -3.66347 0
M  V30 1435 H 142.033 -2.691 -3.40246 0
M  V30 1436 H 142.704 -2.34203 -4.99853 0
M  V30 1437 H 145.18 -0.630726 -4.11292 0
M  V30 1438 H 144.056 -0.390306 -5.47511 0
M  V30 1439 H 144.317 0.912229 -4.32586 0
M  V30 1440 N 143.376 1.44774 -0.622745 0
M  V30 1441 C 144.339 2.29069 0.0774015 0
M  V30 1442 C 145.339 1.4059 0.780461 0
M  V30 1443 O 146.529 1.62551 0.626322 0
M  V30 1444 C 143.661 3.21974 1.12006 0
M  V30 1445 H 144.854 2.92459 -0.663901 0
M  V30 1446 H 142.407 1.51548 -0.382486 0
M  V30 1447 H 143.142 2.63417 1.89162 0
M  V30 1448 H 142.927 3.87168 0.619951 0
M  V30 1449 H 144.417 3.85318 1.60995 0
M  V30 1450 N 144.854 0.36279 1.53368 0
M  V30 1451 C 145.802 -0.500155 2.27159 0
M  V30 1452 C 146.796 -1.08575 1.3003 0
M  V30 1453 O 148.002 -1.02927 1.47668 0
M  V30 1454 H 144.377 -0.180009 0.730138 0
M  V30 1455 H 146.348 0.14401 2.98052 0
M  V30 1456 C 145.097 -1.62937 3.07159 0
M  V30 1457 H 144.42 -1.18806 3.8174 0
M  V30 1458 H 145.86 -2.20795 3.61975 0
M  V30 1459 C 144.319 -2.57007 2.17829 0
M  V30 1460 O 144.849 -3.59752 1.78721 0
M  V30 1461 N 143.055 -2.26131 1.82518 0
M  V30 1462 H 142.602 -1.42616 2.14519 0
M  V30 1463 H 142.56 -2.89327 1.23034 0
M  V30 1464 N 146.332 -1.57332 0.0918853 0
M  V30 1465 C 147.295 -2.12708 -0.85369 0
M  V30 1466 C 148.295 -1.05561 -1.213 0
M  V30 1467 O 149.485 -1.31461 -1.14296 0
M  V30 1468 C 146.617 -2.64503 -2.15061 0
M  V30 1469 H 147.81 -2.97573 -0.3729 0
M  V30 1470 H 145.363 -1.55509 -0.157072 0
M  V30 1471 H 146.098 -1.83149 -2.67632 0
M  V30 1472 H 145.883 -3.4284 -1.90272 0
M  V30 1473 H 147.373 -3.07351 -2.82711 0
M  V30 1474 N 147.81 0.181792 -1.56548 0
M  V30 1475 C 149.056 0.901431 -1.81665 0
M  V30 1476 C 149.389 1.82347 -0.668075 0
M  V30 1477 O 148.664 1.91669 0.330615 0
M  V30 1478 C 148.947 1.70618 -3.17115 0
M  V30 1479 C 148.8 0.807964 -4.42484 0
M  V30 1480 C 150.119 2.67605 -3.49393 0
M  V30 1481 H 147.238 0.32627 -0.660846 0
M  V30 1482 H 149.88 0.168134 -1.89255 0
M  V30 1483 H 148.03 2.33133 -3.10775 0
M  V30 1484 H 149.702 0.19649 -4.60881 0
M  V30 1485 H 147.945 0.115411 -4.33646 0
M  V30 1486 H 148.616 1.40632 -5.33785 0
M  V30 1487 H 151.092 2.15218 -3.56118 0
M  V30 1488 H 149.968 3.20985 -4.45264 0
M  V30 1489 H 150.229 3.47298 -2.73563 0
M  V30 1490 N 149.288 1.51039 0.449983 0
M  V30 1491 C 150.534 1.63322 1.20223 0
M  V30 1492 C 150.867 0.34241 1.91158 0
M  V30 1493 O 150.142 -0.657344 1.83055 0
M  V30 1494 C 150.425 2.82801 2.22925 0
M  V30 1495 C 150.278 4.21823 1.56157 0
M  V30 1496 C 151.597 2.97807 3.24035 0
M  V30 1497 H 148.716 0.594407 0.435718 0
M  V30 1498 H 151.358 1.83489 0.493136 0
M  V30 1499 H 149.508 2.65738 2.834 0
M  V30 1500 H 151.18 4.50526 0.991162 0
M  V30 1501 H 149.423 4.25105 0.864172 0
M  V30 1502 H 150.094 5.01391 2.30891 0
M  V30 1503 H 152.57 3.13497 2.73603 0
M  V30 1504 H 151.446 3.82992 3.93202 0
M  V30 1505 H 151.707 2.09328 3.89402 0
M  V30 1506 N 150.766 -0.704594 1.40972 0
M  V30 1507 C 152.014 -1.46169 1.39568 0
M  V30 1508 C 152.335 -1.95 0.00253745 0
M  V30 1509 O 151.605 -1.71095 -0.954114 0
M  V30 1510 H 150.185 -0.542326 0.513704 0
M  V30 1511 H 152.847 -0.834553 1.76128 0
M  V30 1512 H 151.943 -2.32922 2.07735 0
M  V30 1513 N 152.244 -1.26651 -0.937939 0
M  V30 1514 C 153.474 -1.15006 -1.71631 0
M  V30 1515 C 153.882 0.297026 -1.86854 0
M  V30 1516 O 153.225 1.21493 -1.37786 0
M  V30 1517 C 153.287 -1.74984 -3.14039 0
M  V30 1518 C 152.951 -3.24103 -3.2219 0
M  V30 1519 C 153.948 -4.20877 -3.05219 0
M  V30 1520 C 151.633 -3.64625 -3.45476 0
M  V30 1521 C 153.627 -5.56151 -3.11408 0
M  V30 1522 C 151.314 -5.00032 -3.513 0
M  V30 1523 C 152.312 -5.95604 -3.34282 0
M  V30 1524 O 152 -7.28545 -3.3982 0
M  V30 1525 H 151.732 -0.401183 -0.544085 0
M  V30 1526 H 154.286 -1.67832 -1.18413 0
M  V30 1527 H 152.516 -1.16624 -3.68695 0
M  V30 1528 H 154.205 -1.58199 -3.73802 0
M  V30 1529 H 154.971 -3.90908 -2.87081 0
M  V30 1530 H 150.85 -2.90718 -3.57777 0
M  V30 1531 H 154.394 -6.30727 -2.98043 0
M  V30 1532 H 150.291 -5.29659 -3.68959 0
M  V30 1533 H 151.059 -7.3686 -3.56343 0
M  V30 1534 N 153.722 1.14298 -1.08507 0
M  V30 1535 C 154.97 1.84993 -0.813763 0
M  V30 1536 C 155.291 1.83405 0.662393 0
M  V30 1537 O 154.561 1.28319 1.48024 0
M  V30 1538 H 153.141 0.684966 -0.298045 0
M  V30 1539 H 155.803 1.385 -1.37126 0
M  V30 1540 H 154.899 2.89788 -1.15884 0
M  V30 1541 N 155.201 0.870884 1.31352 0
M  V30 1542 C 156.447 0.482987 1.96965 0
M  V30 1543 C 156.78 -0.962462 1.68672 0
M  V30 1544 O 156.055 -1.6779 0.98371 0
M  V30 1545 C 156.338 0.741752 3.52378 0
M  V30 1546 C 156.191 2.2368 3.9024 0
M  V30 1547 C 157.51 0.208838 4.39604 0
M  V30 1548 H 154.629 0.176955 0.715441 0
M  V30 1549 H 157.271 1.09229 1.55464 0
M  V30 1550 H 155.421 0.223149 3.87859 0
M  V30 1551 H 157.093 2.82273 3.64856 0
M  V30 1552 H 155.336 2.70901 3.38814 0
M  V30 1553 H 156.007 2.3685 4.98604 0
M  V30 1554 H 158.483 0.652529 4.10952 0
M  V30 1555 H 157.359 0.419336 5.47296 0
M  V30 1556 H 157.62 -0.889275 4.33064 0
M  V30 1557 N 156.679 -1.44442 0.630414 0
M  V30 1558 C 157.925 -2.02894 0.143332 0
M  V30 1559 C 158.28 -1.48697 -1.22094 0
M  V30 1560 O 157.573 -0.661171 -1.79831 0
M  V30 1561 C 157.767 -3.57332 0.0697835 0
M  V30 1562 C 157.596 -4.26512 1.42539 0
M  V30 1563 C 156.366 -4.63516 2.01198 0
M  V30 1564 C 158.564 -4.57004 2.35907 0
M  V30 1565 N 156.546 -5.17661 3.30001 0
M  V30 1566 C 157.917 -5.12223 3.49324 0
M  V30 1567 C 159.972 -4.38955 2.34995 0
M  V30 1568 C 158.675 -5.51295 4.62024 0
M  V30 1569 C 160.701 -4.79075 3.46758 0
M  V30 1570 C 160.063 -5.34407 4.58899 0
M  V30 1571 H 156.162 -0.776041 0.0963523 0
M  V30 1572 H 158.746 -1.75945 0.833752 0
M  V30 1573 H 156.917 -3.83894 -0.589915 0
M  V30 1574 H 158.649 -4.02451 -0.42606 0
M  V30 1575 H 155.404 -4.47811 1.54151 0
M  V30 1576 H 155.828 -5.4921 3.95851 0
M  V30 1577 H 160.47 -3.95469 1.49545 0
M  V30 1578 H 158.188 -5.93736 5.48182 0
M  V30 1579 H 161.774 -4.66824 3.47227 0
M  V30 1580 H 160.654 -5.64878 5.4395 0
M  V30 1581 N 158.157 -0.370918 -1.53173 0
M  V30 1582 C 159.568 0.107139 -1.86392 0
M  V30 1583 C 159.919 1.47714 -1.29132 0
M  V30 1584 O 159.044 2.07464 -0.615439 0
M  V30 1585 C 159.639 0.201187 -3.38202 0
M  V30 1586 C 158.198 0.623507 -3.712 0
M  V30 1587 C 157.345 -0.225978 -2.76378 0
M  V30 1588 H 160.296 -0.58951 -1.47345 0
M  V30 1589 H 160.317 1.02377 -3.66468 0
M  V30 1590 H 159.829 -0.796058 -3.79848 0
M  V30 1591 H 157.93 1.62879 -3.35114 0
M  V30 1592 H 158.043 0.394414 -4.77474 0
M  V30 1593 H 156.407 0.305962 -2.52856 0
M  V30 1594 H 157.19 -1.22086 -3.20858 0
M  V30 1595 N 159.635 1.57281 -0.100228 0
M  V30 1596 C 160.585 2.10848 0.86759 0
M  V30 1597 C 161.569 1.02473 1.24049 0
M  V30 1598 O 162.761 1.28739 1.21471 0
M  V30 1599 C 159.89 2.69648 2.12474 0
M  V30 1600 C 158.976 3.85074 1.77704 0
M  V30 1601 N 159.367 4.92897 1.13518 0
M  V30 1602 C 157.665 3.94905 2.07282 0
M  V30 1603 C 158.366 5.73475 0.974735 0
M  V30 1604 N 157.342 5.22675 1.4937 0
M  V30 1605 H 161.144 2.91594 0.367471 0
M  V30 1606 H 158.658 1.62074 0.102829 0
M  V30 1607 H 160.655 3.06356 2.82757 0
M  V30 1608 H 159.315 1.90359 2.63047 0
M  V30 1609 H 160.326 5.11662 0.801381 0
M  V30 1610 H 157.003 3.26633 2.60033 0
M  V30 1611 H 158.393 6.70238 0.472364 0
M  V30 1612 N 161.113 -0.173488 1.56642 0
M  V30 1613 C 162.343 -0.904781 1.85734 0
M  V30 1614 C 162.751 -1.76431 0.68328 0
M  V30 1615 O 162.094 -1.802 -0.356865 0
M  V30 1616 C 162.156 -1.83382 3.09211 0
M  V30 1617 C 161.82 -1.15411 4.42187 0
M  V30 1618 C 162.817 -0.520609 5.17287 0
M  V30 1619 C 160.502 -1.15151 4.88923 0
M  V30 1620 C 162.496 0.106412 6.37311 0
M  V30 1621 C 160.183 -0.520664 6.08878 0
M  V30 1622 C 161.181 0.107196 6.82916 0
M  V30 1623 O 160.869 0.728102 8.00596 0
M  V30 1624 H 160.601 -0.268408 0.62043 0
M  V30 1625 H 163.155 -0.179096 2.04618 0
M  V30 1626 H 161.385 -2.59976 2.86268 0
M  V30 1627 H 163.074 -2.43476 3.24768 0
M  V30 1628 H 163.84 -0.514606 4.82262 0
M  V30 1629 H 159.719 -1.62961 4.31236 0
M  V30 1630 H 163.263 0.597081 6.9504 0
M  V30 1631 H 159.16 -0.524242 6.43368 0
M  V30 1632 H 159.928 0.627138 8.16094 0
M  V30 1633 N 162.591 -1.51276 -0.441967 0
M  V30 1634 C 163.521 -1.752 -1.54361 0
M  V30 1635 C 164.502 -0.601682 -1.59103 0
M  V30 1636 O 165.687 -0.843913 -1.74905 0
M  V30 1637 C 162.817 -1.87282 -2.92477 0
M  V30 1638 C 161.771 -3.02687 -3.02596 0
M  V30 1639 C 161.097 -2.99947 -4.42647 0
M  V30 1640 C 162.397 -4.4273 -2.77106 0
M  V30 1641 H 164.091 -2.67442 -1.34592 0
M  V30 1642 H 161.637 -1.28694 -0.646048 0
M  V30 1643 H 163.59 -2.02602 -3.695 0
M  V30 1644 H 162.314 -0.916844 -3.13467 0
M  V30 1645 H 160.973 -2.87065 -2.28012 0
M  V30 1646 H 160.621 -2.02136 -4.60597 0
M  V30 1647 H 160.321 -3.77439 -4.50348 0
M  V30 1648 H 161.845 -3.17354 -5.2165 0
M  V30 1649 H 163.259 -4.58727 -3.43864 0
M  V30 1650 H 161.656 -5.21893 -2.96222 0
M  V30 1651 H 162.726 -4.53087 -1.72744 0
M  V30 1652 N 164.069 0.697108 -1.41344 0
M  V30 1653 C 165.297 1.48593 -1.43972 0
M  V30 1654 C 165.712 1.88747 -0.0445612 0
M  V30 1655 O 165.069 1.56682 0.935785 0
M  V30 1656 C 165.12 2.74946 -2.34706 0
M  V30 1657 O 164.841 2.36484 -3.68791 0
M  V30 1658 C 166.342 3.687 -2.46121 0
M  V30 1659 H 163.562 0.457964 -0.490418 0
M  V30 1660 H 166.106 0.858429 -1.8561 0
M  V30 1661 H 164.261 3.33937 -1.9638 0
M  V30 1662 H 164.675 3.17918 -4.17167 0
M  V30 1663 H 166.149 4.54145 -3.13777 0
M  V30 1664 H 166.626 4.13081 -1.49199 0
M  V30 1665 H 167.232 3.15613 -2.85076 0
M  V30 1666 N 165.547 1.27147 0.931209 0
M  V30 1667 C 166.958 1.12044 1.49342 0
M  V30 1668 C 167.309 -0.295795 1.93957 0
M  V30 1669 O 166.434 -1.18835 1.80852 0
M  V30 1670 C 167.029 2.02781 2.71414 0
M  V30 1671 C 165.588 1.91794 3.2387 0
M  V30 1672 C 164.735 1.95543 1.96617 0
M  V30 1673 H 167.686 1.40091 0.745672 0
M  V30 1674 H 167.707 1.58156 3.46074 0
M  V30 1675 H 167.219 3.05848 2.38911 0
M  V30 1676 H 165.32 0.916992 3.6114 0
M  V30 1677 H 165.433 2.77852 3.90302 0
M  V30 1678 H 163.797 1.39722 2.12955 0
M  V30 1679 H 164.58 3.00259 1.66432 0
M  V30 1680 N 167.025 -1.13721 1.09112 0
M  V30 1681 C 167.957 -2.1871 0.685467 0
M  V30 1682 C 168.97 -1.60527 -0.271068 0
M  V30 1683 O 170.159 -1.78407 -0.0576148 0
M  V30 1684 C 167.259 -3.38898 -0.0111255 0
M  V30 1685 C 166.432 -4.26597 0.966131 0
M  V30 1686 C 165.491 -5.25324 0.303539 0
M  V30 1687 O 164.517 -5.61213 0.950177 0
M  V30 1688 N 165.719 -5.72779 -0.943651 0
M  V30 1689 H 168.484 -2.54126 1.58871 0
M  V30 1690 H 166.045 -1.29012 0.978143 0
M  V30 1691 H 168.037 -4.02014 -0.465517 0
M  V30 1692 H 166.607 -3.01747 -0.816565 0
M  V30 1693 H 165.827 -3.60306 1.59917 0
M  V30 1694 H 167.115 -4.82048 1.6281 0
M  V30 1695 H 166.513 -5.45762 -1.48862 0
M  V30 1696 H 165.07 -6.37847 -1.34142 0
M  V30 1697 N 168.503 -0.877838 -1.30888 0
M  V30 1698 C 169.78 -0.413052 -1.91189 0
M  V30 1699 C 170.16 1.1056 -1.79832 0
M  V30 1700 O 169.508 1.93771 -1.21099 0
M  V30 1701 C 169.718 -0.903191 -3.3711 0
M  V30 1702 C 171.066 -0.93395 -4.14201 0
M  V30 1703 O 172.09 -0.849373 -3.45925 0
M  V30 1704 O 170.949 -1.05772 -5.36167 0
M  V30 1705 H 168.043 -0.125035 -0.817493 0
M  V30 1706 H 170.589 -0.966269 -1.39504 0
M  V30 1707 H 169.361 -1.94692 -3.39427 0
M  V30 1708 H 168.984 -0.328732 -3.96239 0
M  V30 1709 N 169.982 1.44106 -0.638065 0
M  V30 1710 C 170.945 2.29138 0.0531013 0
M  V30 1711 C 171.945 1.41409 0.765506 0
M  V30 1712 O 173.135 1.63206 0.609046 0
M  V30 1713 C 170.267 3.23144 1.08584 0
M  V30 1714 H 171.46 2.91739 -0.694883 0
M  V30 1715 H 169.013 1.51134 -0.398538 0
M  V30 1716 H 169.748 2.65408 1.86357 0
M  V30 1717 H 169.533 3.87804 0.578852 0
M  V30 1718 H 171.023 3.87004 1.56899 0
M  V30 1719 N 171.46 0.379036 1.52974 0
M  V30 1720 C 172.688 -0.20679 2.05864 0
M  V30 1721 C 173.103 -1.41356 1.25155 0
M  V30 1722 O 172.46 -1.8009 0.295588 0
M  V30 1723 C 172.511 -0.587045 3.56702 0
M  V30 1724 O 172.232 0.571776 4.34353 0
M  V30 1725 C 173.733 -1.22983 4.25899 0
M  V30 1726 H 170.953 -0.0336123 0.670158 0
M  V30 1727 H 173.497 0.541298 1.97206 0
M  V30 1728 H 171.652 -1.28504 3.65466 0
M  V30 1729 H 172.066 0.261544 5.23847 0
M  V30 1730 H 173.54 -1.44635 5.32715 0
M  V30 1731 H 174.017 -2.19416 3.80465 0
M  V30 1732 H 174.623 -0.572892 4.21424 0
M  V30 1733 N 172.938 -1.57226 0.108567 0
M  V30 1734 C 173.901 -2.13602 -0.831082 0
M  V30 1735 C 174.901 -1.06841 -1.20173 0
M  V30 1736 O 176.091 -1.32666 -1.12895 0
M  V30 1737 C 173.223 -2.66769 -2.12243 0
M  V30 1738 H 174.416 -2.97951 -0.341317 0
M  V30 1739 H 171.969 -1.55667 -0.14057 0
M  V30 1740 H 172.704 -1.85977 -2.65675 0
M  V30 1741 H 172.489 -3.44839 -1.86625 0
M  V30 1742 H 173.979 -3.10332 -2.79435 0
M  V30 1743 N 174.416 0.165178 -1.56732 0
M  V30 1744 C 175.665 0.879143 -1.81532 0
M  V30 1745 C 175.978 1.83144 -0.686842 0
M  V30 1746 O 177.184 2.58823 -0.819944 0
M  V30 1747 C 175.64 1.61388 -3.21686 0
M  V30 1748 C 175.248 0.704904 -4.4242 0
M  V30 1749 C 176.992 2.3157 -3.55774 0
M  V30 1750 C 174.899 1.44022 -5.73595 0
M  V30 1751 H 173.829 0.332033 -0.676957 0
M  V30 1752 H 176.48 0.132008 -1.83025 0
M  V30 1753 H 174.862 2.40599 -3.14529 0
M  V30 1754 H 176.036 -0.0506815 -4.60772 0
M  V30 1755 H 174.351 0.112419 -4.16248 0
M  V30 1756 H 176.948 2.8719 -4.51028 0
M  V30 1757 H 177.291 3.07201 -2.8095 0
M  V30 1758 H 177.824 1.59297 -3.64513 0
M  V30 1759 H 174.563 0.72612 -6.51466 0
M  V30 1760 H 174.083 2.16898 -5.5921 0
M  V30 1761 H 175.762 1.98606 -6.15764 0
M  V30 1762 N 175.894 1.51508 0.433938 0
M  V30 1763 C 177.171 1.54888 1.19453 0
M  V30 1764 C 177.551 0.315154 2.08734 0
M  V30 1765 O 176.899 -0.699558 2.17528 0
M  V30 1766 C 177.109 2.86467 1.99342 0
M  V30 1767 C 178.457 3.38545 2.56267 0
M  V30 1768 O 179.481 2.88041 2.0955 0
M  V30 1769 O 178.34 4.26675 3.41483 0
M  V30 1770 H 175.434 0.622863 0.544032 0
M  V30 1771 H 177.98 1.63823 0.442732 0
M  V30 1772 H 176.752 3.67718 1.33788 0
M  V30 1773 H 176.375 2.8071 2.8158 0
M  V30 1774 N 177.372 -0.689602 1.41712 0
M  V30 1775 C 178.319 -1.80345 1.44029 0
M  V30 1776 C 179.289 -1.63478 0.293948 0
M  V30 1777 O 180.474 -1.84244 0.495869 0
M  V30 1778 C 177.614 -3.18272 1.33405 0
M  V30 1779 C 176.727 -3.46529 2.57956 0
M  V30 1780 C 175.862 -4.74103 2.39582 0
M  V30 1781 C 174.901 -4.95347 3.5958 0
M  V30 1782 N 174.038 -6.14151 3.40239 0
M  V30 1783 H 178.878 -1.77698 2.39222 0
M  V30 1784 H 176.415 -0.867688 1.18784 0
M  V30 1785 H 178.373 -3.97956 1.25246 0
M  V30 1786 H 177.003 -3.2008 0.418164 0
M  V30 1787 H 176.055 -2.61207 2.76542 0
M  V30 1788 H 177.367 -3.58126 3.47199 0
M  V30 1789 H 176.521 -5.61853 2.28924 0
M  V30 1790 H 175.26 -4.64763 1.47805 0
M  V30 1791 H 174.265 -4.06044 3.70686 0
M  V30 1792 H 175.49 -5.06542 4.52318 0
M  V30 1793 H 173.436 -6.06013 2.51167 0
M  V30 1794 H 173.353 -6.26543 4.23061 0
M  V30 1795 H 174.621 -7.04619 3.33365 0
M  V30 1796 N 178.85 -1.27639 -0.924453 0
M  V30 1797 C 180.261 -1.12834 -1.48746 0
M  V30 1798 C 180.612 0.285505 -1.94112 0
M  V30 1799 O 179.737 1.17874 -1.81479 0
M  V30 1800 C 180.332 -2.04217 -2.70334 0
M  V30 1801 C 178.891 -1.93509 -3.22848 0
M  V30 1802 C 178.038 -1.96583 -1.95577 0
M  V30 1803 H 180.989 -1.40484 -0.738233 0
M  V30 1804 H 181.01 -1.59989 -3.4523 0
M  V30 1805 H 180.522 -3.07111 -2.37285 0
M  V30 1806 H 178.623 -0.936131 -3.60649 0
M  V30 1807 H 178.736 -2.79917 -3.88823 0
M  V30 1808 H 177.1 -1.4085 -2.12211 0
M  V30 1809 H 177.883 -3.01137 -1.64837 0
M  V30 1810 N 180.328 1.1314 -1.09713 0
M  V30 1811 C 181.556 1.88321 -0.856898 0
M  V30 1812 C 181.971 1.79276 0.592073 0
M  V30 1813 O 181.328 1.16142 1.40774 0
M  V30 1814 C 181.379 3.37812 -1.28706 0
M  V30 1815 O 181.1 3.46627 -2.67921 0
M  V30 1816 C 182.601 4.29952 -1.07964 0
M  V30 1817 H 179.821 0.596094 -0.308079 0
M  V30 1818 H 182.365 1.43205 -1.45988 0
M  V30 1819 H 180.52 3.805 -0.727912 0
M  V30 1820 H 180.934 4.39579 -2.8613 0
M  V30 1821 H 182.408 5.33159 -1.42986 0
M  V30 1822 H 182.885 4.39196 -0.0176577 0
M  V30 1823 H 183.491 3.93036 -1.62489 0
M  V30 1824 N 181.806 0.884767 1.30421 0
M  V30 1825 C 182.738 0.308655 2.27112 0
M  V30 1826 C 183.751 -0.536655 1.53701 0
M  V30 1827 O 184.94 -0.35624 1.74909 0
M  V30 1828 C 182.04 -0.579782 3.33904 0
M  V30 1829 C 181.213 0.236417 4.36761 0
M  V30 1830 C 180.272 -0.582482 5.22966 0
M  V30 1831 O 179.298 -0.00525502 5.692 0
M  V30 1832 N 180.5 -1.89163 5.48815 0
M  V30 1833 H 183.265 1.13964 2.77186 0
M  V30 1834 H 180.826 0.747731 1.43599 0
M  V30 1835 H 182.818 -1.13366 3.88497 0
M  V30 1836 H 181.388 -1.31144 2.83761 0
M  V30 1837 H 180.608 0.97174 3.82035 0
M  V30 1838 H 181.896 0.795924 5.02536 0
M  V30 1839 H 181.294 -2.38352 5.13035 0
M  V30 1840 H 179.851 -2.39296 6.06284 0
M  V30 1841 N 183.284 -1.43765 0.645699 0
M  V30 1842 C 184.695 -1.85193 0.236719 0
M  V30 1843 C 185.046 -1.54045 -1.21509 0
M  V30 1844 O 184.171 -0.985694 -1.92647 0
M  V30 1845 C 184.766 -3.36151 0.422845 0
M  V30 1846 C 183.325 -3.76338 0.0682492 0
M  V30 1847 C 182.472 -2.67538 0.729306 0
M  V30 1848 H 185.423 -1.34025 0.849883 0
M  V30 1849 H 185.444 -3.79032 -0.333904 0
M  V30 1850 H 184.956 -3.5879 1.47958 0
M  V30 1851 H 183.057 -3.59312 -0.986179 0
M  V30 1852 H 183.17 -4.76603 0.488469 0
M  V30 1853 H 181.534 -2.54176 0.163235 0
M  V30 1854 H 182.317 -2.93006 1.78892 0
M  V30 1855 N 184.763 -0.387143 -1.52771 0
M  V30 1856 C 186.04 0.253197 -1.93954 0
M  V30 1857 C 186.42 1.64545 -1.32243 0
M  V30 1858 O 185.768 2.23191 -0.489699 0
M  V30 1859 C 185.978 0.281722 -3.47861 0
M  V30 1860 C 187.326 0.511715 -4.21505 0
M  V30 1861 O 188.35 0.362023 -3.54356 0
M  V30 1862 O 187.209 0.804847 -5.40541 0
M  V30 1863 H 184.303 0.156845 -0.811991 0
M  V30 1864 H 186.849 -0.441494 -1.63856 0
M  V30 1865 H 185.621 -0.693571 -3.85104 0
M  V30 1866 H 185.244 1.02142 -3.84256 0
M  V30 1867 N 186.241 1.57166 -0.116904 0
M  V30 1868 C 187.469 1.99473 0.549383 0
M  V30 1869 C 187.884 0.996541 1.60357 0
M  V30 1870 O 187.241 -0.0108731 1.82497 0
M  V30 1871 C 187.292 3.41788 1.17741 0
M  V30 1872 O 187.013 4.37788 0.165362 0
M  V30 1873 C 188.514 3.99216 1.92722 0
M  V30 1874 H 185.734 0.655009 0.145616 0
M  V30 1875 H 188.278 2.03494 -0.202625 0
M  V30 1876 H 186.433 3.38713 1.88021 0
M  V30 1877 H 186.847 5.20806 0.621403 0
M  V30 1878 H 188.321 5.00882 2.31995 0
M  V30 1879 H 188.798 3.3824 2.80161 0
M  V30 1880 H 189.404 4.0583 1.27209 0
M  V30 1881 N 187.719 -0.156864 1.56817 0
M  V30 1882 C 188.944 -0.890331 1.87318 0
M  V30 1883 C 189.369 -1.74394 0.704855 0
M  V30 1884 O 188.727 -1.77972 -0.345786 0
M  V30 1885 C 188.775 -1.73102 3.16336 0
M  V30 1886 O 187.879 -2.83422 2.99576 0
M  V30 1887 H 187.22 -0.24857 0.615718 0
M  V30 1888 H 189.75 -0.150649 2.04045 0
M  V30 1889 H 189.76 -2.12803 3.48107 0
M  V30 1890 H 188.435 -1.10412 4.00976 0
M  V30 1891 H 187.012 -2.47199 2.7919 0
M  V30 1892 N 189.197 -1.51736 -0.425897 0
M  V30 1893 C 190.422 -1.69082 -1.20108 0
M  V30 1894 C 190.847 -0.392398 -1.83962 0
M  V30 1895 O 190.205 0.64858 -1.69302 0
M  V30 1896 C 190.253 -2.81604 -2.25237 0
M  V30 1897 O 189.357 -2.46004 -3.30992 0
M  V30 1898 H 188.698 -0.563408 -0.35138 0
M  V30 1899 H 191.228 -1.98358 -0.501512 0
M  V30 1900 H 191.238 -3.06025 -2.69838 0
M  V30 1901 H 189.913 -3.75817 -1.78142 0
M  V30 1902 H 188.49 -2.32195 -2.91787 0
M  V30 1903 N 190.675 0.682077 -1.42076 0
M  V30 1904 C 191.623 1.81707 -1.45208 0
M  V30 1905 C 192.617 1.66183 -0.328591 0
M  V30 1906 O 193.823 1.7288 -0.501264 0
M  V30 1907 H 190.198 0.599014 -0.454628 0
M  V30 1908 H 192.169 1.76183 -2.40836 0
M  V30 1909 C 190.918 3.19816 -1.36428 0
M  V30 1910 H 190.241 3.32385 -2.22171 0
M  V30 1911 H 191.681 3.99272 -1.42681 0
M  V30 1912 C 190.14 3.36809 -0.078191 0
M  V30 1913 O 190.67 3.92124 0.87188 0
M  V30 1914 N 188.876 2.906 0.00229266 0
M  V30 1915 H 188.423 2.45772 -0.771616 0
M  V30 1916 H 188.381 3.02347 0.862179 0
M  V30 1917 N 192.153 1.28127 0.917671 0
M  V30 1918 C 193.569 1.05749 1.19538 0
M  V30 1919 C 193.769 -0.202633 2.00479 0
M  V30 1920 O 192.825 -0.905382 2.3571 0
M  V30 1921 C 194.138 2.30273 1.93378 0
M  V30 1922 C 195.686 2.35412 2.06277 0
M  V30 1923 C 196.161 3.59692 2.83524 0
M  V30 1924 N 197.652 3.60309 2.91087 0
M  V30 1925 C 198.387 4.53147 3.51348 0
M  V30 1926 N 197.883 5.563 4.12919 0
M  V30 1927 N 199.676 4.40751 3.48849 0
M  V30 1928 H 191.827 2.09024 0.377184 0
M  V30 1929 H 194.09 0.919798 0.22951 0
M  V30 1930 H 193.796 3.22055 1.41328 0
M  V30 1931 H 193.67 2.36378 2.93947 0
M  V30 1932 H 196.057 1.4413 2.57508 0
M  V30 1933 H 196.138 2.33304 1.04895 0
M  V30 1934 H 195.782 4.51316 2.32973 0
M  V30 1935 H 195.712 3.59054 3.85211 0
M  V30 1936 H 198.203 2.85714 2.47338 0
M  V30 1937 H 198.516 6.2329 4.56869 0
M  V30 1938 H 196.861 5.60131 4.11435 0
M  V30 1939 H 200.052 3.59367 2.99955 0
M  V30 1940 H 200.225 5.13291 3.9552 0
M  V30 1941 N 193.631 -1.12557 1.10312 0
M  V30 1942 C 194.878 -1.84038 0.844759 0
M  V30 1943 C 195.206 -1.84026 -0.629668 0
M  V30 1944 O 194.461 -1.28026 -1.48013 0
M  V30 1945 C 194.76 -3.31462 1.33669 0
M  V30 1946 C 194.426 -3.51647 2.82232 0
M  V30 1947 C 193.088 -3.56864 3.22802 0
M  V30 1948 C 195.44 -3.58867 3.77974 0
M  V30 1949 C 192.768 -3.66844 4.57867 0
M  V30 1950 C 195.12 -3.70375 5.1284 0
M  V30 1951 C 193.784 -3.73848 5.52986 0
M  V30 1952 H 193.054 -0.673444 0.309119 0
M  V30 1953 H 195.701 -1.32824 1.37949 0
M  V30 1954 H 194.006 -3.85091 0.721949 0
M  V30 1955 H 195.703 -3.85236 1.11329 0
M  V30 1956 H 192.293 -3.48249 2.49842 0
M  V30 1957 H 196.477 -3.54107 3.47738 0
M  V30 1958 H 191.733 -3.67804 4.88396 0
M  V30 1959 H 195.907 -3.74904 5.86873 0
M  V30 1960 H 193.534 -3.81333 6.57639 0
M  V30 1961 N 195.109 -0.891671 -1.2995 0
M  V30 1962 C 196.339 -0.527893 -1.99742 0
M  V30 1963 C 196.747 0.88979 -1.66971 0
M  V30 1964 O 196.09 1.59766 -0.906667 0
M  V30 1965 C 196.152 -0.630804 -3.53922 0
M  V30 1966 C 195.816 -2.01401 -4.10228 0
M  V30 1967 C 196.813 -2.98422 -4.25724 0
M  V30 1968 C 194.498 -2.32121 -4.45449 0
M  V30 1969 C 196.492 -4.24293 -4.75662 0
M  V30 1970 C 194.179 -3.58237 -4.95086 0
M  V30 1971 C 195.177 -4.54137 -5.10146 0
M  V30 1972 O 194.865 -5.78014 -5.58708 0
M  V30 1973 H 194.597 -0.201953 -0.645129 0
M  V30 1974 H 197.151 -1.20076 -1.66646 0
M  V30 1975 H 195.381 0.0990616 -3.86573 0
M  V30 1976 H 197.07 -0.277338 -4.04951 0
M  V30 1977 H 197.836 -2.76001 -3.98809 0
M  V30 1978 H 193.715 -1.5824 -4.32991 0
M  V30 1979 H 197.259 -4.99153 -4.87332 0
M  V30 1980 H 193.156 -3.80491 -5.21437 0
M  V30 1981 H 193.924 -5.8049 -5.77039 0
M  V30 1982 N 196.587 1.43421 -0.653314 0
M  V30 1983 C 197.815 2.06163 -0.174491 0
M  V30 1984 C 198.23 1.48969 1.1599 0
M  V30 1985 O 197.587 0.621042 1.71608 0
M  V30 1986 C 197.638 3.61417 -0.0774865 0
M  V30 1987 O 197.359 4.16485 -1.35912 0
M  V30 1988 C 198.86 4.41235 0.427402 0
M  V30 1989 H 196.08 0.664946 -0.0899353 0
M  V30 1990 H 198.624 1.83924 -0.893988 0
M  V30 1991 H 196.779 3.82841 0.59257 0
M  V30 1992 H 197.193 5.10153 -1.21839 0
M  V30 1993 H 198.667 5.5021 0.44423 0
M  V30 1994 H 199.144 4.14268 1.45873 0
M  V30 1995 H 199.75 4.2478 -0.210167 0
M  V30 1996 N 198.065 0.39524 1.52563 0
M  V30 1997 C 198.995 -0.428384 2.29537 0
M  V30 1998 C 199.976 -1.05831 1.33169 0
M  V30 1999 O 201.161 -1.06995 1.62067 0
M  V30 2000 C 198.291 -1.55274 3.10656 0
M  V30 2001 C 197.245 -1.04855 4.14957 0
M  V30 2002 C 196.571 -2.26543 4.84337 0
M  V30 2003 C 197.871 -0.112324 5.22179 0
M  V30 2004 H 199.565 0.213867 2.98635 0
M  V30 2005 H 197.111 0.104298 1.43622 0
M  V30 2006 H 199.064 -2.1358 3.63265 0
M  V30 2007 H 197.788 -2.22266 2.39302 0
M  V30 2008 H 196.447 -0.487985 3.63338 0
M  V30 2009 H 196.095 -2.92059 4.09525 0
M  V30 2010 H 195.795 -1.93466 5.54837 0
M  V30 2011 H 197.319 -2.85481 5.39753 0
M  V30 2012 H 198.733 -0.603752 5.70112 0
M  V30 2013 H 197.13 0.128968 5.99961 0
M  V30 2014 H 198.2 0.837052 4.77621 0
M  V30 2015 N 199.544 -1.57102 0.125237 0
M  V30 2016 C 200.821 -1.86953 -0.575142 0
M  V30 2017 C 201.201 -1.02749 -1.84407 0
M  V30 2018 O 200.549 -0.108144 -2.28244 0
M  V30 2019 C 200.759 -3.38198 -0.861583 0
M  V30 2020 C 202.107 -4.06937 -1.21192 0
M  V30 2021 O 203.131 -3.43252 -0.951645 0
M  V30 2022 O 201.99 -5.19364 -1.70068 0
M  V30 2023 H 199.084 -0.774147 -0.290906 0
M  V30 2024 H 201.63 -1.68942 0.160211 0
M  V30 2025 H 200.402 -3.91282 0.0373647 0
M  V30 2026 H 200.025 -3.61661 -1.65188 0
M  V30 2027 N 201.022 0.148545 -1.56898 0
M  V30 2028 C 202.247 0.880385 -1.87787 0
M  V30 2029 C 202.672 1.74018 -0.714093 0
M  V30 2030 O 202.03 1.78153 0.336343 0
M  V30 2031 C 202.078 1.71422 -3.17249 0
M  V30 2032 O 201.182 2.8183 -3.01074 0
M  V30 2033 H 200.523 0.245301 -0.617028 0
M  V30 2034 H 203.053 0.139826 -2.04122 0
M  V30 2035 H 203.063 2.10954 -3.49231 0
M  V30 2036 H 201.738 1.08284 -4.01556 0
M  V30 2037 H 200.315 2.45715 -2.80497 0
M  V30 2038 N 202.5 1.5196 0.417844 0
M  V30 2039 C 203.447 1.74678 1.50852 0
M  V30 2040 C 204.417 0.588947 1.55308 0
M  V30 2041 O 205.602 0.825544 1.72016 0
M  V30 2042 C 202.742 1.89544 2.88387 0
M  V30 2043 C 201.855 3.17166 2.93309 0
M  V30 2044 C 200.99 3.22513 4.22088 0
M  V30 2045 C 200.029 4.44372 4.20951 0
M  V30 2046 N 199.166 4.47161 5.41287 0
M  V30 2047 H 204.006 2.67768 1.30783 0
M  V30 2048 H 201.543 1.32689 0.63498 0
M  V30 2049 H 203.501 1.96146 3.68216 0
M  V30 2050 H 202.131 0.998424 3.06971 0
M  V30 2051 H 201.183 3.19778 2.06024 0
M  V30 2052 H 202.495 4.07021 2.88332 0
M  V30 2053 H 201.649 3.28139 5.10303 0
M  V30 2054 H 200.388 2.30581 4.29748 0
M  V30 2055 H 199.393 4.38902 3.31127 0
M  V30 2056 H 200.618 5.3759 4.14938 0
M  V30 2057 H 198.564 3.58108 5.49632 0
M  V30 2058 H 198.481 5.3085 5.3827 0
M  V30 2059 H 199.749 4.57005 6.3148 0
M  V30 2060 N 203.978 -0.674533 1.42435 0
M  V30 2061 C 204.911 -1.79924 1.40366 0
M  V30 2062 C 205.889 -1.60378 0.267899 0
M  V30 2063 O 207.073 -1.82847 0.458159 0
M  V30 2064 C 204.2 -3.16927 1.19478 0
M  V30 2065 C 203.246 -3.55221 2.36051 0
M  V30 2066 S 204.079 -3.5762 3.98583 0
M  V30 2067 C 205.235 -4.97315 3.80038 0
M  V30 2068 H 205.468 -1.81405 2.35541 0
M  V30 2069 H 203.001 -0.845221 1.29211 0
M  V30 2070 H 204.959 -3.96007 1.08114 0
M  V30 2071 H 203.62 -3.13031 0.258883 0
M  V30 2072 H 202.813 -4.54804 2.17185 0
M  V30 2073 H 202.415 -2.83502 2.43932 0
M  V30 2074 H 204.707 -5.85401 3.41045 0
M  V30 2075 H 205.65 -5.21228 4.79298 0
M  V30 2076 H 206.058 -4.69845 3.12899 0
M  V30 2077 N 205.456 -1.28612 -0.910864 0
M  V30 2078 C 206.702 -1.17116 -1.66299 0
M  V30 2079 C 207.057 0.276917 -1.90397 0
M  V30 2080 O 206.35 1.19795 -1.49532 0
M  V30 2081 C 206.544 -1.90624 -3.0232 0
M  V30 2082 C 206.373 -3.42431 -2.91498 0
M  V30 2083 C 205.143 -4.11773 -2.92867 0
M  V30 2084 C 207.341 -4.38124 -2.69355 0
M  V30 2085 N 205.323 -5.50025 -2.72664 0
M  V30 2086 C 206.694 -5.63759 -2.58023 0
M  V30 2087 C 208.749 -4.28016 -2.54375 0
M  V30 2088 C 207.452 -6.80436 -2.33238 0
M  V30 2089 C 209.478 -5.44433 -2.30969 0
M  V30 2090 C 208.84 -6.69034 -2.20394 0
M  V30 2091 H 204.939 -0.483506 -0.61461 0
M  V30 2092 H 207.523 -1.62299 -1.0755 0
M  V30 2093 H 205.694 -1.4787 -3.5915 0
M  V30 2094 H 207.426 -1.71488 -3.66571 0
M  V30 2095 H 204.181 -3.63378 -3.03732 0
M  V30 2096 H 204.605 -6.22705 -2.65646 0
M  V30 2097 H 209.247 -3.32388 -2.613 0
M  V30 2098 H 206.965 -7.7613 -2.25051 0
M  V30 2099 H 210.551 -5.38504 -2.20238 0
M  V30 2100 H 209.431 -7.57595 -2.02531 0
M  V30 2101 N 206.934 1.1197 -1.10907 0
M  V30 2102 C 207.882 2.19927 -0.757303 0
M  V30 2103 C 208.876 1.67564 0.248747 0
M  V30 2104 O 210.082 1.79672 0.108605 0
M  V30 2105 H 206.457 0.716925 -0.226987 0
M  V30 2106 H 208.428 2.46847 -1.67658 0
M  V30 2107 C 207.177 3.47061 -0.210671 0
M  V30 2108 H 206.5 3.87703 -0.976049 0
M  V30 2109 H 207.94 4.24 -0.0026584 0
M  V30 2110 C 206.399 3.19864 1.05777 0
M  V30 2111 O 206.929 3.40049 2.13845 0
M  V30 2112 N 205.135 2.73636 0.978349 0
M  V30 2113 H 204.682 2.5741 0.0988246 0
M  V30 2114 H 204.64 2.55815 1.82773 0
M  V30 2115 N 208.412 0.89855 1.29475 0
M  V30 2116 C 209.637 0.538561 2.00285 0
M  V30 2117 C 210.062 -0.869135 1.66816 0
M  V30 2118 O 209.42 -1.57831 0.892145 0
M  V30 2119 C 209.468 0.736475 3.52999 0
M  V30 2120 O 208.572 -0.211537 4.11857 0
M  V30 2121 H 207.913 0.210563 0.62973 0
M  V30 2122 H 210.443 1.20982 1.64998 0
M  V30 2123 H 210.453 0.640685 4.02938 0
M  V30 2124 H 209.128 1.76276 3.76696 0
M  V30 2125 H 207.705 -0.0682991 3.72837 0
M  V30 2126 N 209.89 -1.43072 0.660911 0
M  V30 2127 C 211.118 -2.06067 0.185422 0
M  V30 2128 C 211.533 -1.49582 -1.15198 0
M  V30 2129 O 210.89 -0.630134 -1.71276 0
M  V30 2130 C 210.941 -3.61371 0.0966523 0
M  V30 2131 O 210.662 -4.15758 1.38119 0
M  V30 2132 C 212.163 -4.41455 -0.403996 0
M  V30 2133 H 209.383 -0.664459 0.0934604 0
M  V30 2134 H 211.927 -1.83447 0.90373 0
M  V30 2135 H 210.082 -3.8315 -0.572259 0
M  V30 2136 H 210.496 -5.09499 1.24542 0
M  V30 2137 H 211.97 -5.50437 -0.415045 0
M  V30 2138 H 212.447 -4.15036 -1.43674 0
M  V30 2139 H 213.053 -4.24663 0.232691 0
M  V30 2140 N 211.368 -0.403325 -1.52352 0
M  V30 2141 C 212.593 0.176499 -2.06648 0
M  V30 2142 C 213.018 1.38577 -1.27193 0
M  V30 2143 O 212.376 1.7879 -0.300637 0
M  V30 2144 C 212.424 0.511061 -3.5696 0
M  V30 2145 O 211.528 1.60294 -3.79973 0
M  V30 2146 H 210.869 0.0167337 -0.663789 0
M  V30 2147 H 213.399 -0.574848 -1.96359 0
M  V30 2148 H 213.409 0.771362 -4.00642 0
M  V30 2149 H 212.084 -0.37296 -4.14224 0
M  V30 2150 H 210.661 1.33526 -3.48174 0
M  V30 2151 N 212.846 1.57033 -0.133567 0
M  V30 2152 C 213.793 2.16074 0.811208 0
M  V30 2153 C 214.763 1.08979 1.2535 0
M  V30 2154 O 215.948 1.36958 1.32843 0
M  V30 2155 C 213.088 2.77595 2.05024 0
M  V30 2156 C 212.201 3.99042 1.65498 0
M  V30 2157 C 211.336 4.48603 2.84479 0
M  V30 2158 C 210.375 5.62547 2.41262 0
M  V30 2159 N 209.512 6.06787 3.53206 0
M  V30 2160 H 214.352 2.96477 0.300906 0
M  V30 2161 H 211.889 1.46462 0.136822 0
M  V30 2162 H 213.847 3.11402 2.77642 0
M  V30 2163 H 212.477 1.99859 2.53488 0
M  V30 2164 H 211.529 3.71302 0.826981 0
M  V30 2165 H 212.841 4.81629 1.29748 0
M  V30 2166 H 211.995 4.84395 3.65303 0
M  V30 2167 H 210.734 3.64995 3.23465 0
M  V30 2168 H 209.739 5.26345 1.58874 0
M  V30 2169 H 210.964 6.47931 2.03377 0
M  V30 2170 H 208.91 5.26117 3.91838 0
M  V30 2171 H 208.827 6.84266 3.21427 0
M  V30 2172 H 210.095 6.4722 4.34427 0
M  V30 2173 N 214.325 -0.140222 1.56975 0
M  V30 2174 C 215.573 -0.850005 1.83356 0
M  V30 2175 C 215.894 -1.81399 0.71551 0
M  V30 2176 O 215.164 -1.94136 -0.262294 0
M  V30 2177 H 213.744 -0.316886 0.676456 0
M  V30 2178 H 216.406 -0.132608 1.94448 0
M  V30 2179 H 215.502 -1.40814 2.78528 0
M  V30 2180 N 215.803 -1.52179 -0.40978 0
M  V30 2181 C 217.049 -1.67408 -1.15525 0
M  V30 2182 C 217.404 -0.398746 -1.88223 0
M  V30 2183 O 216.697 0.60678 -1.81738 0
M  V30 2184 C 216.891 -2.83428 -2.17723 0
M  V30 2185 C 216.72 -4.22121 -1.55061 0
M  V30 2186 C 215.49 -4.87657 -1.3236 0
M  V30 2187 C 217.688 -5.04248 -1.01185 0
M  V30 2188 N 215.67 -6.10387 -0.655834 0
M  V30 2189 C 217.041 -6.18209 -0.470963 0
M  V30 2190 C 219.096 -4.89583 -0.906252 0
M  V30 2191 C 217.799 -7.1911 0.165172 0
M  V30 2192 C 219.825 -5.90718 -0.28397 0
M  V30 2193 C 219.187 -7.03969 0.246243 0
M  V30 2194 H 215.286 -0.666251 -0.409431 0
M  V30 2195 H 217.87 -1.89482 -0.447729 0
M  V30 2196 H 216.041 -2.6297 -2.85834 0
M  V30 2197 H 217.773 -2.87697 -2.84627 0
M  V30 2198 H 214.528 -4.46007 -1.59294 0
M  V30 2199 H 214.952 -6.76153 -0.338596 0
M  V30 2200 H 219.594 -4.02253 -1.302 0
M  V30 2201 H 217.312 -8.06066 0.572986 0
M  V30 2202 H 220.898 -5.81443 -0.203792 0
M  V30 2203 H 219.778 -7.80886 0.720173 0
M  V30 2204 N 217.281 0.66697 -1.42791 0
M  V30 2205 C 218.527 1.42754 -1.44889 0
M  V30 2206 C 218.882 1.92283 -0.0669755 0
M  V30 2207 O 218.175 1.68494 0.912154 0
M  V30 2208 C 218.369 2.6349 -2.4147 0
M  V30 2209 C 218.198 2.25776 -3.88915 0
M  V30 2210 C 216.968 2.1476 -4.57391 0
M  V30 2211 C 219.166 1.86927 -4.79127 0
M  V30 2212 N 217.148 1.70232 -5.89826 0
M  V30 2213 C 218.519 1.53378 -6.00729 0
M  V30 2214 C 220.574 1.73989 -4.66511 0
M  V30 2215 C 219.277 1.08187 -7.11117 0
M  V30 2216 C 221.303 1.30203 -5.76889 0
M  V30 2217 C 220.665 0.975818 -6.97608 0
M  V30 2218 H 216.764 0.518559 -0.585338 0
M  V30 2219 H 219.348 0.768906 -1.78874 0
M  V30 2220 H 217.519 3.27033 -2.09533 0
M  V30 2221 H 219.251 3.30123 -2.34096 0
M  V30 2222 H 216.006 2.3408 -4.11708 0
M  V30 2223 H 216.43 1.50369 -6.6009 0
M  V30 2224 H 221.072 1.97853 -3.7365 0
M  V30 2225 H 218.79 0.830701 -8.03819 0
M  V30 2226 H 222.376 1.20701 -5.69142 0
M  V30 2227 H 221.256 0.642157 -7.81566 0
M  V30 2228 N 218.759 1.29093 0.90403 0
M  V30 2229 C 220.005 1.17996 1.65676 0
M  V30 2230 C 220.36 -0.266816 1.90541 0
M  V30 2231 O 219.653 -1.19 1.50165 0
M  V30 2232 C 219.847 1.92224 3.01305 0
M  V30 2233 C 219.676 3.43972 2.89678 0
M  V30 2234 C 218.446 4.1332 2.90679 0
M  V30 2235 C 220.644 4.39546 2.67028 0
M  V30 2236 N 218.626 5.51463 2.69743 0
M  V30 2237 C 219.997 5.65119 2.5503 0
M  V30 2238 C 222.052 4.29359 2.52101 0
M  V30 2239 C 220.755 6.81663 2.29626 0
M  V30 2240 C 222.781 5.4565 2.28079 0
M  V30 2241 C 222.143 6.70193 2.16843 0
M  V30 2242 H 218.242 0.486759 0.612037 0
M  V30 2243 H 220.826 1.62868 1.06688 0
M  V30 2244 H 218.997 1.49773 3.58361 0
M  V30 2245 H 220.729 1.73429 3.65656 0
M  V30 2246 H 217.484 3.64984 3.01801 0
M  V30 2247 H 217.908 6.24105 2.6234 0
M  V30 2248 H 222.55 3.33769 2.59534 0
M  V30 2249 H 220.268 7.77313 2.20932 0
M  V30 2250 H 223.854 5.39664 2.1738 0
M  V30 2251 H 222.734 7.58659 1.98511 0
M  V30 2252 N 220.237 -1.11381 1.11499 0
M  V30 2253 C 221.184 -2.17439 0.773887 0
M  V30 2254 C 222.154 -1.64132 -0.254899 0
M  V30 2255 O 223.339 -1.90345 -0.13168 0
M  V30 2256 C 220.479 -3.44373 0.223917 0
M  V30 2257 C 219.592 -4.1168 1.30934 0
M  V30 2258 C 218.727 -5.263 0.71984 0
M  V30 2259 C 217.766 -5.85493 1.78507 0
M  V30 2260 N 216.903 -6.91507 1.21502 0
M  V30 2261 H 221.743 -2.45962 1.68246 0
M  V30 2262 H 219.28 -1.20744 0.840191 0
M  V30 2263 H 221.238 -4.17047 -0.112921 0
M  V30 2264 H 219.868 -3.16232 -0.647851 0
M  V30 2265 H 218.92 -3.37073 1.76312 0
M  V30 2266 H 220.232 -4.51729 2.11524 0
M  V30 2267 H 219.386 -6.05785 0.333094 0
M  V30 2268 H 218.125 -4.87559 -0.117377 0
M  V30 2269 H 217.13 -5.04686 2.18111 0
M  V30 2270 H 218.355 -6.26301 2.62533 0
M  V30 2271 H 216.301 -6.54783 0.399455 0
M  V30 2272 H 216.218 -7.30214 1.95763 0
M  V30 2273 H 217.486 -7.74795 0.855181 0
M  V30 2274 N 221.715 -0.905404 -1.28997 0
M  V30 2275 C 222.645 -0.404212 -2.29975 0
M  V30 2276 C 223.626 0.523784 -1.61835 0
M  V30 2277 O 224.811 0.433298 -1.89304 0
M  V30 2278 C 221.941 0.364042 -3.45387 0
M  V30 2279 C 220.895 -0.474048 -4.25367 0
M  V30 2280 C 220.221 0.422045 -5.33032 0
M  V30 2281 C 221.521 -1.72696 -4.92923 0
M  V30 2282 H 223.215 -1.24807 -2.72146 0
M  V30 2283 H 220.761 -0.601585 -1.30832 0
M  V30 2284 H 222.714 0.725447 -4.15109 0
M  V30 2285 H 221.438 1.24174 -3.02074 0
M  V30 2286 H 220.097 -0.81786 -3.57361 0
M  V30 2287 H 219.745 1.29804 -4.85963 0
M  V30 2288 H 219.445 -0.135057 -5.87445 0
M  V30 2289 H 220.969 0.779517 -6.05604 0
M  V30 2290 H 222.383 -1.43495 -5.55051 0
M  V30 2291 H 220.78 -2.22582 -5.57295 0
M  V30 2292 H 221.85 -2.45964 -4.17887 0
M  V30 2293 N 223.193 1.4272 -0.668489 0
M  V30 2294 C 224.604 1.84793 -0.266151 0
M  V30 2295 C 224.955 1.55959 1.19043 0
M  V30 2296 O 224.08 1.01622 1.91055 0
M  V30 2297 C 224.675 3.35436 -0.476271 0
M  V30 2298 C 223.234 3.76182 -0.128113 0
M  V30 2299 C 222.381 2.66344 -0.771777 0
M  V30 2300 H 225.332 1.32656 -0.871098 0
M  V30 2301 H 225.353 3.79515 0.273561 0
M  V30 2302 H 224.865 3.5639 -1.53647 0
M  V30 2303 H 222.966 3.60836 0.928891 0
M  V30 2304 H 223.079 4.75766 -0.564231 0
M  V30 2305 H 221.443 2.53885 -0.203652 0
M  V30 2306 H 222.226 2.90123 -1.83531 0
M  V30 2307 N 224.671 0.411399 1.52136 0
M  V30 2308 C 225.948 -0.222308 1.94333 0
M  V30 2309 C 226.328 -1.6242 1.34844 0
M  V30 2310 O 225.676 -2.22384 0.525145 0
M  V30 2311 C 225.886 -0.226345 3.48265 0
M  V30 2312 C 227.234 -0.444592 4.22266 0
M  V30 2313 O 228.258 -0.305602 3.54887 0
M  V30 2314 O 227.117 -0.718749 5.41753 0
M  V30 2315 H 224.211 -0.143907 0.814383 0
M  V30 2316 H 226.757 0.467506 1.63133 0
M  V30 2317 H 225.529 0.75475 3.83952 0
M  V30 2318 H 225.152 -0.960163 3.85832 0
M  V30 2319 N 226.149 -1.5696 0.141893 0
M  V30 2320 C 227.112 -2.15316 -0.785587 0
M  V30 2321 C 228.112 -1.09366 -1.1788 0
M  V30 2322 O 229.302 -1.35031 -1.10056 0
M  V30 2323 C 226.434 -2.71211 -2.06537 0
M  V30 2324 H 227.627 -2.98608 -0.278041 0
M  V30 2325 H 225.18 -1.5593 -0.107519 0
M  V30 2326 H 225.915 -1.91571 -2.6167 0
M  V30 2327 H 225.7 -3.4872 -1.79268 0
M  V30 2328 H 227.19 -3.16189 -2.72789 0
M  V30 2329 N 227.627 0.131896 -1.57047 0
M  V30 2330 C 228.557 1.16384 -2.02428 0
M  V30 2331 C 229.538 1.43936 -0.90644 0
M  V30 2332 O 230.723 1.54599 -1.17528 0
M  V30 2333 C 227.853 2.49328 -2.4177 0
M  V30 2334 C 226.807 2.36266 -3.56879 0
M  V30 2335 C 226.133 3.74057 -3.8208 0
M  V30 2336 C 227.433 1.834 -4.89042 0
M  V30 2337 H 229.127 0.786433 -2.88887 0
M  V30 2338 H 226.673 0.376855 -1.38981 0
M  V30 2339 H 228.626 3.21759 -2.7212 0
M  V30 2340 H 227.35 2.88934 -1.52266 0
M  V30 2341 H 226.009 1.66286 -3.26718 0
M  V30 2342 H 225.657 4.11125 -2.89803 0
M  V30 2343 H 225.357 3.66174 -4.59554 0
M  V30 2344 H 226.881 4.48012 -4.1487 0
M  V30 2345 H 228.295 2.45636 -5.18011 0
M  V30 2346 H 226.692 1.8637 -5.70426 0
M  V30 2347 H 227.762 0.790662 -4.7841 0
M  V30 2348 N 229.106 1.52395 0.401703 0
M  V30 2349 C 230.053 1.76268 1.48991 0
M  V30 2350 C 231.023 0.605386 1.54675 0
M  V30 2351 O 232.208 0.843742 1.7113 0
M  V30 2352 C 229.348 1.92592 2.86361 0
M  V30 2353 C 228.461 3.20259 2.89928 0
M  V30 2354 C 227.596 3.26972 4.18644 0
M  V30 2355 C 226.635 4.48812 4.16214 0
M  V30 2356 N 225.772 4.52877 5.36514 0
M  V30 2357 H 230.612 2.6914 1.27935 0
M  V30 2358 H 228.149 1.33355 0.620871 0
M  V30 2359 H 230.107 2.0004 3.66115 0
M  V30 2360 H 228.737 1.03093 3.05895 0
M  V30 2361 H 227.789 3.21945 2.02621 0
M  V30 2362 H 229.101 4.10056 2.83999 0
M  V30 2363 H 228.255 3.33533 5.06794 0
M  V30 2364 H 226.994 2.35126 4.27278 0
M  V30 2365 H 225.999 4.4239 3.26453 0
M  V30 2366 H 227.224 5.41961 4.09213 0
M  V30 2367 H 225.17 3.63917 5.45802 0
M  V30 2368 H 225.087 5.36529 5.32609 0
M  V30 2369 H 226.355 4.63676 6.26597 0
M  V30 2370 N 230.584 -0.659388 1.43143 0
M  V30 2371 C 231.861 -1.41627 1.34912 0
M  V30 2372 C 232.241 -2.11099 -0.00607785 0
M  V30 2373 O 231.589 -2.04353 -1.02236 0
M  V30 2374 C 231.799 -2.40604 2.52805 0
M  V30 2375 C 233.147 -3.04789 2.95616 0
M  V30 2376 O 234.171 -2.50932 2.52807 0
M  V30 2377 O 233.03 -4.02421 3.69756 0
M  V30 2378 H 230.124 -0.63246 0.532844 0
M  V30 2379 H 232.67 -0.686814 1.5518 0
M  V30 2380 H 231.442 -1.88174 3.43083 0
M  V30 2381 H 231.065 -3.21009 2.34604 0
M  V30 2382 N 232.062 -1.29571 -0.897171 0
M  V30 2383 C 232.995 -1.0924 -2.00354 0
M  V30 2384 C 233.973 -0.00354011 -1.626 0
M  V30 2385 O 235.157 -0.15473 -1.87864 0
M  V30 2386 C 232.284 -0.66352 -3.32137 0
M  V30 2387 C 231.33 -1.75146 -3.88878 0
M  V30 2388 S 232.163 -3.35124 -4.17674 0
M  V30 2389 C 233.319 -2.9411 -5.52494 0
M  V30 2390 H 233.552 -2.02907 -2.17292 0
M  V30 2391 H 231.085 -1.13746 -1.04408 0
M  V30 2392 H 233.043 -0.422791 -4.08317 0
M  V30 2393 H 231.704 0.253588 -3.13075 0
M  V30 2394 H 230.897 -1.40337 -4.84068 0
M  V30 2395 H 230.499 -1.94584 -3.19395 0
M  V30 2396 H 232.791 -2.41312 -6.33068 0
M  V30 2397 H 233.734 -3.88161 -5.9223 0
M  V30 2398 H 234.142 -2.32332 -5.14473 0
M  V30 2399 N 233.54 1.10788 -1.12088 0
M  V30 2400 C 234.788 1.8231 -0.872205 0
M  V30 2401 C 235.109 1.85419 0.603709 0
M  V30 2402 O 234.379 1.32963 1.43867 0
M  V30 2403 H 232.959 0.675137 -0.319686 0
M  V30 2404 H 235.621 1.34068 -1.41463 0
M  V30 2405 H 234.717 2.85955 -1.25045 0
M  V30 2406 N 235.018 0.912232 1.28515 0
M  V30 2407 C 236.267 0.540504 1.94323 0
M  V30 2408 C 236.58 -0.920044 1.72611 0
M  V30 2409 O 237.786 -1.39986 2.32629 0
M  V30 2410 C 236.242 0.915803 3.48053 0
M  V30 2411 C 235.85 2.39598 3.78546 0
M  V30 2412 C 237.594 0.614588 4.20027 0
M  V30 2413 C 235.501 2.71148 5.25578 0
M  V30 2414 H 234.431 0.198418 0.727424 0
M  V30 2415 H 237.082 1.11094 1.46049 0
M  V30 2416 H 235.464 0.274168 3.9505 0
M  V30 2417 H 236.638 3.08422 3.42364 0
M  V30 2418 H 234.953 2.66749 3.1974 0
M  V30 2419 H 237.55 0.827002 5.28266 0
M  V30 2420 H 237.893 -0.447531 4.13887 0
M  V30 2421 H 238.426 1.21462 3.78803 0
M  V30 2422 H 235.165 3.76207 5.36794 0
M  V30 2423 H 234.685 2.0696 5.62963 0
M  V30 2424 H 236.364 2.58072 5.93302 0
M  V30 2425 N 236.496 -1.42363 0.676048 0
M  V30 2426 C 237.743 -2.01522 0.19883 0
M  V30 2427 C 238.071 -1.53456 -1.19505 0
M  V30 2428 O 237.326 -0.727967 -1.81657 0
M  V30 2429 C 237.625 -3.56929 0.183431 0
M  V30 2430 C 237.291 -4.24431 1.52215 0
M  V30 2431 C 235.953 -4.42585 1.8887 0
M  V30 2432 C 238.305 -4.62459 2.40377 0
M  V30 2433 C 235.633 -4.96039 3.13309 0
M  V30 2434 C 237.985 -5.17294 3.64129 0
M  V30 2435 C 236.649 -5.33661 4.00951 0
M  V30 2436 H 235.919 -0.737419 0.0727571 0
M  V30 2437 H 238.566 -1.70531 0.871281 0
M  V30 2438 H 236.871 -3.87594 -0.572532 0
M  V30 2439 H 238.568 -4.00486 -0.203035 0
M  V30 2440 H 235.158 -4.10661 1.22701 0
M  V30 2441 H 239.342 -4.48105 2.13343 0
M  V30 2442 H 234.598 -5.06896 3.41857 0
M  V30 2443 H 238.772 -5.45704 4.32644 0
M  V30 2444 H 236.399 -5.74845 4.9745 0
M  V30 2445 N 237.974 -0.419461 -1.51915 0
M  V30 2446 C 239.222 0.152637 -2.01523 0
M  V30 2447 C 239.543 1.44762 -1.30649 0
M  V30 2448 O 238.813 1.90997 -0.435535 0
M  V30 2449 H 237.393 0.0593966 -0.744635 0
M  V30 2450 H 240.055 -0.558073 -1.86739 0
M  V30 2451 H 239.151 0.341369 -3.10227 0
M  V30 2452 N 239.452 1.56882 -0.150215 0
M  V30 2453 C 240.362 2.20494 0.801222 0
M  V30 2454 C 241.378 1.19019 1.26927 0
M  V30 2455 O 242.554 1.51607 1.32579 0
M  V30 2456 C 239.619 2.81659 2.02161 0
M  V30 2457 C 238.68 3.9827 1.60249 0
M  V30 2458 C 237.913 4.56508 2.7647 0
M  V30 2459 O 238.136 4.13627 3.92771 0
M  V30 2460 O 237.07 5.46719 2.51757 0
M  V30 2461 H 240.896 3.02315 0.289717 0
M  V30 2462 H 238.481 1.49202 0.0769684 0
M  V30 2463 H 240.363 3.20522 2.73576 0
M  V30 2464 H 239.038 2.02849 2.52258 0
M  V30 2465 H 237.945 3.64117 0.858477 0
M  V30 2466 H 239.278 4.78609 1.14864 0
M  V30 2467 N 240.93 -0.123565 1.57115 0
M  V30 2468 C 241.878 -1.17082 2.00984 0
M  V30 2469 C 242.872 -1.43136 0.906009 0
M  V30 2470 O 244.078 -1.43152 1.09121 0
M  V30 2471 H 240.453 -0.394653 0.64012 0
M  V30 2472 H 242.424 -0.774292 2.88179 0
M  V30 2473 C 241.173 -2.49057 2.42623 0
M  V30 2474 H 240.496 -2.29846 3.27125 0
M  V30 2475 H 241.936 -3.20906 2.7712 0
M  V30 2476 C 240.395 -3.11305 1.28805 0
M  V30 2477 O 240.925 -3.97171 0.60153 0
M  V30 2478 N 239.131 -2.71111 1.04628 0
M  V30 2479 H 238.678 -2.01382 1.60634 0
M  V30 2480 H 238.636 -3.1309 0.286685 0
M  V30 2481 N 242.408 -1.52605 -0.393616 0
M  V30 2482 C 243.341 -1.71798 -1.50202 0
M  V30 2483 C 244.319 -0.565743 -1.52441 0
M  V30 2484 O 245.503 -0.794987 -1.70916 0
M  V30 2485 C 242.63 -1.7714 -2.88685 0
M  V30 2486 C 241.676 -2.98845 -3.04292 0
M  V30 2487 S 242.509 -4.58909 -2.75976 0
M  V30 2488 C 243.665 -4.6706 -4.1666 0
M  V30 2489 H 243.898 -2.65542 -1.33696 0
M  V30 2490 H 241.431 -1.42839 -0.586195 0
M  V30 2491 H 243.389 -1.80903 -3.68489 0
M  V30 2492 H 242.05 -0.844969 -3.02521 0
M  V30 2493 H 241.243 -2.99111 -4.05646 0
M  V30 2494 H 240.845 -2.9305 -2.32374 0
M  V30 2495 H 243.137 -4.45391 -5.10523 0
M  V30 2496 H 244.08 -5.6905 -4.21412 0
M  V30 2497 H 244.488 -3.95944 -4.02354 0
M  V30 2498 N 243.887 0.651787 -1.4349 0
M  V30 2499 C 245.134 1.41167 -1.45183 0
M  V30 2500 C 245.462 1.94349 -0.0766601 0
M  V30 2501 O 244.717 1.72804 0.918555 0
M  V30 2502 C 245.016 2.60914 -2.44251 0
M  V30 2503 C 244.682 2.26142 -3.9009 0
M  V30 2504 C 243.344 2.16371 -4.2981 0
M  V30 2505 C 245.696 1.98334 -4.81989 0
M  V30 2506 C 243.024 1.7695 -5.5938 0
M  V30 2507 C 245.376 1.6041 -6.11924 0
M  V30 2508 C 244.04 1.49166 -6.5062 0
M  V30 2509 H 243.31 0.516566 -0.531263 0
M  V30 2510 H 245.957 0.741099 -1.76579 0
M  V30 2511 H 244.262 3.3311 -2.06265 0
M  V30 2512 H 245.959 3.19127 -2.42815 0
M  V30 2513 H 242.549 2.34658 -3.58655 0
M  V30 2514 H 246.733 2.04803 -4.52072 0
M  V30 2515 H 241.989 1.66831 -5.88198 0
M  V30 2516 H 246.163 1.37925 -6.82605 0
M  V30 2517 H 243.79 1.1839 -7.50925 0
M  V30 2518 N 245.365 1.30045 0.890287 0
M  V30 2519 C 246.595 1.21296 1.67245 0
M  V30 2520 C 247.003 -0.227471 1.87828 0
M  V30 2521 O 246.346 -1.16296 1.422 0
M  V30 2522 C 246.408 1.86519 3.07329 0
M  V30 2523 C 246.072 3.35837 3.09939 0
M  V30 2524 C 247.069 4.31915 2.89389 0
M  V30 2525 C 244.754 3.77196 3.31706 0
M  V30 2526 C 246.748 5.67325 2.90552 0
M  V30 2527 C 244.435 5.12725 3.32499 0
M  V30 2528 C 245.433 6.076 3.11947 0
M  V30 2529 O 245.121 7.40655 3.12547 0
M  V30 2530 H 244.853 0.4211 0.528821 0
M  V30 2531 H 247.407 1.72111 1.12103 0
M  V30 2532 H 245.637 1.30228 3.64112 0
M  V30 2533 H 247.326 1.71963 3.67673 0
M  V30 2534 H 248.092 4.01294 2.72375 0
M  V30 2535 H 243.971 3.03796 3.4674 0
M  V30 2536 H 247.515 6.41354 2.74429 0
M  V30 2537 H 243.412 5.42988 3.49047 0
M  V30 2538 H 244.18 7.49577 3.28749 0
M  V30 2539 N 246.843 -1.10192 1.12674 0
M  V30 2540 C 247.793 -2.14754 0.765801 0
M  V30 2541 C 248.777 -1.59154 -0.236409 0
M  V30 2542 O 249.969 -1.76951 -0.0415261 0
M  V30 2543 C 247.098 -3.42563 0.224827 0
M  V30 2544 C 246.184 -4.05091 1.25548 0
M  V30 2545 N 246.575 -4.42287 2.4539 0
M  V30 2546 C 244.873 -4.32186 1.10142 0
M  V30 2547 C 245.574 -4.91441 3.11224 0
M  V30 2548 N 244.55 -4.88405 2.38666 0
M  V30 2549 H 248.352 -2.41309 1.67772 0
M  V30 2550 H 245.866 -1.27339 1.00789 0
M  V30 2551 H 247.863 -4.16868 -0.0519578 0
M  V30 2552 H 246.523 -3.17467 -0.681515 0
M  V30 2553 H 247.534 -4.33902 2.82754 0
M  V30 2554 H 244.211 -4.16735 0.252587 0
M  V30 2555 H 245.601 -5.29749 4.13298 0
M  V30 2556 N 248.321 -0.919034 -1.28029 0
M  V30 2557 C 249.568 -0.554934 -1.94748 0
M  V30 2558 C 249.896 0.90231 -1.72304 0
M  V30 2559 O 249.151 1.65767 -1.04018 0
M  V30 2560 C 249.45 -0.816855 -3.4794 0
M  V30 2561 C 249.116 -2.25448 -3.90492 0
M  V30 2562 C 247.778 -2.64752 -4.01821 0
M  V30 2563 C 250.13 -3.18977 -4.12193 0
M  V30 2564 C 247.458 -3.96727 -4.32232 0
M  V30 2565 C 249.81 -4.50523 -4.44086 0
M  V30 2566 C 248.474 -4.89673 -4.53626 0
M  V30 2567 H 247.744 -0.203065 -0.712633 0
M  V30 2568 H 250.391 -1.16136 -1.52265 0
M  V30 2569 H 248.696 -0.127677 -3.91592 0
M  V30 2570 H 250.393 -0.514238 -3.97689 0
M  V30 2571 H 246.983 -1.93952 -3.82205 0
M  V30 2572 H 251.167 -2.89817 -4.02889 0
M  V30 2573 H 246.423 -4.26754 -4.37825 0
M  V30 2574 H 250.597 -5.23005 -4.59825 0
M  V30 2575 H 248.224 -5.91969 -4.76946 0
M  V30 2576 N 249.799 1.42003 -0.683588 0
M  V30 2577 C 250.729 2.33487 -0.024866 0
M  V30 2578 C 251.71 1.51163 0.779975 0
M  V30 2579 O 252.895 1.79739 0.735362 0
M  V30 2580 C 250.025 3.3487 0.920836 0
M  V30 2581 C 248.979 4.27414 0.223958 0
M  V30 2582 C 248.305 5.19074 1.2832 0
M  V30 2583 C 249.605 5.14445 -0.90242 0
M  V30 2584 H 251.299 2.88819 -0.788921 0
M  V30 2585 H 248.845 1.38873 -0.38083 0
M  V30 2586 H 250.798 3.97787 1.39081 0
M  V30 2587 H 249.522 2.77861 1.71642 0
M  V30 2588 H 248.181 3.65904 -0.225864 0
M  V30 2589 H 247.829 4.58387 2.071 0
M  V30 2590 H 247.529 5.81822 0.821995 0
M  V30 2591 H 249.053 5.84867 1.75392 0
M  V30 2592 H 250.467 5.70998 -0.513272 0
M  V30 2593 H 248.864 5.86072 -1.28997 0
M  V30 2594 H 249.934 4.52322 -1.74737 0
M  V30 2595 N 251.277 0.427512 1.51691 0
M  V30 2596 C 252.525 -0.141948 2.01601 0
M  V30 2597 C 252.846 -1.44067 1.31414 0
M  V30 2598 O 252.116 -1.90763 0.445658 0
M  V30 2599 H 250.696 -0.0554468 0.744939 0
M  V30 2600 H 253.358 0.567968 1.86441 0
M  V30 2601 H 252.454 -0.324913 3.10404 0
M  V30 2602 N 252.755 -1.56801 0.158532 0
M  V30 2603 C 254.171 -1.5837 -0.197774 0
M  V30 2604 C 254.371 -1.17334 -1.63814 0
M  V30 2605 O 253.427 -0.878988 -2.36707 0
M  V30 2606 C 254.74 -3.00615 0.0714459 0
M  V30 2607 C 256.288 -3.12999 0.00864533 0
M  V30 2608 C 256.763 -4.57313 0.250685 0
M  V30 2609 N 258.254 -4.62777 0.198014 0
M  V30 2610 C 258.989 -5.72271 0.359642 0
M  V30 2611 N 258.485 -6.90371 0.579625 0
M  V30 2612 N 260.278 -5.61318 0.296438 0
M  V30 2613 H 252.429 -1.81765 1.09887 0
M  V30 2614 H 254.692 -0.841849 0.435884 0
M  V30 2615 H 254.398 -3.35068 1.06874 0
M  V30 2616 H 254.272 -3.71683 -0.642757 0
M  V30 2617 H 256.659 -2.7838 -0.979217 0
M  V30 2618 H 256.74 -2.44393 0.755359 0
M  V30 2619 H 256.384 -4.92639 1.2357 0
M  V30 2620 H 256.314 -5.24061 -0.516489 0
M  V30 2621 H 258.805 -3.77885 0.0331115 0
M  V30 2622 H 259.118 -7.69689 0.69275 0
M  V30 2623 H 257.463 -6.92264 0.616087 0
M  V30 2624 H 260.654 -4.67932 0.125258 0
M  V30 2625 H 260.827 -6.46599 0.425831 0
M  V30 2626 N 254.233 0.115231 -1.57178 0
M  V30 2627 C 255.458 0.840354 -1.89612 0
M  V30 2628 C 255.883 1.72464 -0.750845 0
M  V30 2629 O 255.241 1.78826 0.298478 0
M  V30 2630 C 255.289 1.64654 -3.20814 0
M  V30 2631 O 254.393 2.7538 -3.06985 0
M  V30 2632 H 253.734 0.232158 -0.622092 0
M  V30 2633 H 256.264 0.0964977 -2.04372 0
M  V30 2634 H 256.274 2.03499 -3.53627 0
M  V30 2635 H 254.949 0.997416 -4.03763 0
M  V30 2636 H 253.526 2.3971 -2.85646 0
M  V30 2637 N 255.711 1.52812 0.385517 0
M  V30 2638 C 256.959 1.67694 1.12797 0
M  V30 2639 C 257.28 0.421115 1.90399 0
M  V30 2640 O 256.55 -0.564551 1.87589 0
M  V30 2641 H 255.13 0.618155 0.419396 0
M  V30 2642 H 257.792 1.89938 0.436972 0
M  V30 2643 H 256.888 2.52896 1.82894 0
M  V30 2644 N 257.189 -0.644168 1.43834 0
M  V30 2645 C 258.419 -1.42939 1.49171 0
M  V30 2646 C 258.827 -1.88874 0.111048 0
M  V30 2647 O 258.17 -1.60656 -0.8908 0
M  V30 2648 C 258.232 -2.69151 2.38324 0
M  V30 2649 C 257.896 -2.45097 3.85715 0
M  V30 2650 C 258.893 -2.07747 4.76589 0
M  V30 2651 C 256.578 -2.59141 4.30292 0
M  V30 2652 C 258.572 -1.8475 6.10038 0
M  V30 2653 C 256.259 -2.35759 5.63792 0
M  V30 2654 C 257.257 -1.9862 6.53482 0
M  V30 2655 O 256.945 -1.75489 7.84512 0
M  V30 2656 H 256.677 -0.445271 0.508635 0
M  V30 2657 H 259.231 -0.79621 1.8934 0
M  V30 2658 H 257.461 -3.3506 1.93058 0
M  V30 2659 H 259.15 -3.31123 2.3476 0
M  V30 2660 H 259.916 -1.96465 4.43426 0
M  V30 2661 H 255.795 -2.87022 3.60749 0
M  V30 2662 H 259.339 -1.55686 6.80006 0
M  V30 2663 H 255.236 -2.46646 5.9652 0
M  V30 2664 H 256.004 -1.89841 7.9618 0
M  V30 2665 N 258.668 -1.30515 -0.883378 0
M  V30 2666 C 259.896 -1.22359 -1.66841 0
M  V30 2667 C 260.311 0.213296 -1.87591 0
M  V30 2668 O 259.668 1.14075 -1.42454 0
M  V30 2669 C 259.719 -1.95011 -3.04389 0
M  V30 2670 O 259.44 -3.3309 -2.84575 0
M  V30 2671 C 260.941 -1.93532 -3.98824 0
M  V30 2672 H 258.161 -0.423371 -0.520575 0
M  V30 2673 H 260.705 -1.72167 -1.10357 0
M  V30 2674 H 258.86 -1.48997 -3.57601 0
M  V30 2675 H 259.274 -3.69907 -3.71846 0
M  V30 2676 H 260.748 -2.48902 -4.92699 0
M  V30 2677 H 261.225 -0.914627 -4.29571 0
M  V30 2678 H 261.831 -2.39364 -3.51547 0
M  V30 2679 N 260.146 1.09593 -1.13257 0
M  V30 2680 C 261.392 1.82003 -0.89458 0
M  V30 2681 C 261.725 1.85402 0.577906 0
M  V30 2682 O 261 1.32099 1.42759 0
M  V30 2683 C 261.283 3.28237 -1.48096 0
M  V30 2684 C 261.136 3.3312 -3.02244 0
M  V30 2685 C 262.455 4.24871 -1.14774 0
M  V30 2686 H 259.574 0.66077 -0.326424 0
M  V30 2687 H 262.216 1.28389 -1.40058 0
M  V30 2688 H 260.366 3.74024 -1.05062 0
M  V30 2689 H 262.038 2.95748 -3.54021 0
M  V30 2690 H 260.281 2.72756 -3.37323 0
M  V30 2691 H 260.952 4.3613 -3.38371 0
M  V30 2692 H 263.428 3.87361 -1.51957 0
M  V30 2693 H 262.304 5.25532 -1.58452 0
M  V30 2694 H 262.565 4.42058 -0.0611849 0
M  V30 2695 N 261.624 0.925811 1.2754 0
M  V30 2696 C 262.574 0.394488 2.24561 0
M  V30 2697 C 263.558 -0.500183 1.52928 0
M  V30 2698 O 264.75 -0.337936 1.73744 0
M  V30 2699 C 261.879 -0.353328 3.41477 0
M  V30 2700 C 260.965 0.557752 4.20416 0
M  V30 2701 N 261.356 1.67674 4.77199 0
M  V30 2702 C 259.654 0.360404 4.44541 0
M  V30 2703 C 260.355 2.24324 5.36706 0
M  V30 2704 N 259.331 1.53305 5.21535 0
M  V30 2705 H 263.133 1.2489 2.66045 0
M  V30 2706 H 260.647 0.779864 1.4245 0
M  V30 2707 H 262.644 -0.7509 4.10082 0
M  V30 2708 H 261.304 -1.20469 3.01525 0
M  V30 2709 H 262.315 2.05915 4.75204 0
M  V30 2710 H 258.992 -0.450454 4.15063 0
M  V30 2711 H 260.382 3.18521 5.91603 0
M  V30 2712 N 263.102 -1.41638 0.69111 0
M  V30 2713 C 264.348 -2.01598 0.220519 0
M  V30 2714 C 264.681 -1.54594 -1.17535 0
M  V30 2715 O 263.956 -0.755177 -1.79241 0
M  V30 2716 C 264.239 -3.59062 0.273243 0
M  V30 2717 C 264.092 -4.16203 1.70573 0
M  V30 2718 C 265.411 -4.38546 -0.369457 0
M  V30 2719 H 262.53 -0.732468 0.0816045 0
M  V30 2720 H 265.172 -1.68445 0.878986 0
M  V30 2721 H 263.322 -3.87435 -0.287411 0
M  V30 2722 H 264.994 -3.98722 2.31989 0
M  V30 2723 H 263.237 -3.71414 2.2413 0
M  V30 2724 H 263.908 -5.25358 1.69419 0
M  V30 2725 H 266.384 -4.1596 0.107977 0
M  V30 2726 H 265.26 -5.48069 -0.302002 0
M  V30 2727 H 265.521 -4.17662 -1.44951 0
M  V30 2728 N 264.58 -0.43555 -1.51462 0
M  V30 2729 C 265.512 0.41257 -2.25456 0
M  V30 2730 C 266.525 0.987822 -1.29406 0
M  V30 2731 O 267.714 0.882266 -1.55172 0
M  V30 2732 C 264.814 1.58894 -2.99342 0
M  V30 2733 C 263.987 1.13288 -4.22474 0
M  V30 2734 C 263.046 2.17917 -4.78956 0
M  V30 2735 O 262.072 1.77425 -5.40841 0
M  V30 2736 N 263.274 3.50382 -4.62832 0
M  V30 2737 H 266.039 -0.221603 -2.9888 0
M  V30 2738 H 263.6 -0.264342 -1.59727 0
M  V30 2739 H 265.592 2.28508 -3.34015 0
M  V30 2740 H 264.162 2.12849 -2.28941 0
M  V30 2741 H 263.382 0.263881 -3.93316 0
M  V30 2742 H 264.67 0.805542 -5.02383 0
M  V30 2743 H 264.068 3.86013 -4.13534 0
M  V30 2744 H 262.625 4.15895 -5.01871 0
M  V30 2745 N 266.058 1.56714 -0.166846 0
M  V30 2746 C 267.298 1.98641 0.481763 0
M  V30 2747 C 267.662 1.05038 1.6072 0
M  V30 2748 O 268.863 1.36087 2.31805 0
M  V30 2749 C 267.134 3.44362 0.956517 0
M  V30 2750 S 268.693 4.08317 1.60694 0
M  V30 2751 H 265.511 0.693873 0.155116 0
M  V30 2752 H 268.113 1.93719 -0.263251 0
M  V30 2753 H 266.817 4.10204 0.126936 0
M  V30 2754 H 266.348 3.53041 1.73568 0
M  V30 2755 H 268.363 4.02999 2.89494 0
M  V30 2756 N 267.536 -0.106894 1.57237 0
M  V30 2757 C 268.484 -1.14944 2.02215 0
M  V30 2758 C 269.478 -1.42167 0.92114 0
M  V30 2759 O 270.684 -1.41987 1.10634 0
M  V30 2760 H 267.059 -0.387841 0.64427 0
M  V30 2761 H 269.03 -0.743683 2.88984 0
M  V30 2762 C 267.779 -2.4647 2.4525 0
M  V30 2763 H 267.102 -2.26363 3.29545 0
M  V30 2764 H 268.542 -3.17948 2.80508 0
M  V30 2765 C 267.001 -3.09921 1.321 0
M  V30 2766 O 267.531 -3.9651 0.643622 0
M  V30 2767 N 265.737 -2.69986 1.07497 0
M  V30 2768 H 265.284 -1.99667 1.62761 0
M  V30 2769 H 265.242 -3.12769 0.319876 0
M  V30 2770 N 269.014 -1.53014 -0.377408 0
M  V30 2771 C 269.977 -1.77957 -1.44444 0
M  V30 2772 C 270.977 -0.649763 -1.47087 0
M  V30 2773 O 272.167 -0.917897 -1.48055 0
M  V30 2774 C 269.299 -1.89089 -2.83651 0
M  V30 2775 H 270.492 -2.73243 -1.23606 0
M  V30 2776 H 268.045 -1.43912 -0.609844 0
M  V30 2777 H 268.78 -0.958293 -3.09818 0
M  V30 2778 H 268.565 -2.71254 -2.83132 0
M  V30 2779 H 270.055 -2.1002 -3.60945 0
M  V30 2780 N 270.492 0.636531 -1.44174 0
M  V30 2781 C 271.717 1.42847 -1.50364 0
M  V30 2782 C 272.142 1.87665 -0.127867 0
M  V30 2783 O 271.5 1.58408 0.88185 0
M  V30 2784 C 271.548 2.62854 -2.4686 0
M  V30 2785 O 270.652 3.62501 -1.9664 0
M  V30 2786 H 269.993 0.427642 -0.507955 0
M  V30 2787 H 272.523 0.777422 -1.89255 0
M  V30 2788 H 272.533 3.10465 -2.64718 0
M  V30 2789 H 271.208 2.29578 -3.46795 0
M  V30 2790 H 269.785 3.21735 -1.88523 0
M  V30 2791 N 271.97 1.30982 0.876444 0
M  V30 2792 C 272.917 1.18085 1.98304 0
M  V30 2793 C 273.887 0.0682263 1.6596 0
M  V30 2794 O 275.072 0.239937 1.89285 0
M  V30 2795 C 272.212 0.887475 3.33493 0
M  V30 2796 C 271.325 2.08281 3.78475 0
M  V30 2797 C 270.46 1.72678 5.0235 0
M  V30 2798 C 269.499 2.88657 5.39762 0
M  V30 2799 N 268.636 2.53292 6.54819 0
M  V30 2800 H 273.476 2.1275 2.08666 0
M  V30 2801 H 271.013 1.05839 1.02159 0
M  V30 2802 H 272.971 0.697961 4.1132 0
M  V30 2803 H 271.601 -0.022315 3.22792 0
M  V30 2804 H 270.653 2.3833 2.96484 0
M  V30 2805 H 271.965 2.95108 4.02135 0
M  V30 2806 H 271.119 1.50151 5.87826 0
M  V30 2807 H 269.858 0.830327 4.8058 0
M  V30 2808 H 268.863 3.1184 4.52809 0
M  V30 2809 H 270.088 3.79002 5.63502 0
M  V30 2810 H 268.034 1.66163 6.34607 0
M  V30 2811 H 267.951 3.3365 6.7839 0
M  V30 2812 H 269.219 2.34143 7.43503 0
M  V30 2813 N 273.449 -1.08991 1.13837 0
M  V30 2814 C 274.696 -1.81258 0.902882 0
M  V30 2815 C 275.024 -1.85936 -0.570803 0
M  V30 2816 O 274.279 -1.3267 -1.43865 0
M  V30 2817 C 274.578 -3.27042 1.44147 0
M  V30 2818 C 274.244 -3.4249 2.93276 0
M  V30 2819 C 272.906 -3.46414 3.33992 0
M  V30 2820 C 275.258 -3.4666 3.892 0
M  V30 2821 C 272.586 -3.52091 4.69307 0
M  V30 2822 C 274.938 -3.53872 5.24364 0
M  V30 2823 C 273.602 -3.56066 5.646 0
M  V30 2824 H 272.872 -0.663268 0.330388 0
M  V30 2825 H 275.519 -1.28368 1.42105 0
M  V30 2826 H 273.824 -3.82599 0.844097 0
M  V30 2827 H 275.521 -3.81499 1.23528 0
M  V30 2828 H 272.111 -3.40124 2.60794 0
M  V30 2829 H 276.295 -3.42865 3.58828 0
M  V30 2830 H 271.551 -3.52079 4.9985 0
M  V30 2831 H 275.725 -3.56043 5.98503 0
M  V30 2832 H 273.352 -3.60218 6.69438 0
M  V30 2833 N 274.927 -0.932562 -1.27047 0
M  V30 2834 C 275.877 -0.406392 -2.24349 0
M  V30 2835 C 276.861 0.492066 -1.53191 0
M  V30 2836 O 278.053 0.328717 -1.73921 0
M  V30 2837 C 275.182 0.335214 -3.41659 0
M  V30 2838 C 274.268 -0.58004 -4.20115 0
M  V30 2839 N 274.659 -1.70203 -4.76303 0
M  V30 2840 C 272.957 -0.383974 -4.44344 0
M  V30 2841 C 273.658 -2.27167 -5.35509 0
M  V30 2842 N 272.634 -1.56068 -5.20715 0
M  V30 2843 H 276.436 -1.26299 -2.65378 0
M  V30 2844 H 273.95 -0.787408 -1.42034 0
M  V30 2845 H 275.947 0.729142 -4.10474 0
M  V30 2846 H 274.607 1.18868 -3.0216 0
M  V30 2847 H 275.618 -2.08433 -4.74106 0
M  V30 2848 H 272.295 0.428436 -4.15296 0
M  V30 2849 H 273.685 -3.21654 -5.89905 0
M  V30 2850 N 276.405 1.4127 -0.698611 0
M  V30 2851 C 277.337 2.292 0.00399731 0
M  V30 2852 C 278.35 1.44944 0.741279 0
M  V30 2853 O 279.539 1.68416 0.591477 0
M  V30 2854 C 276.639 3.22875 1.02979 0
M  V30 2855 C 275.812 4.35904 0.36151 0
M  V30 2856 C 274.871 5.10134 1.29033 0
M  V30 2857 O 273.897 5.63809 0.781562 0
M  V30 2858 N 275.099 5.17885 2.6225 0
M  V30 2859 H 277.864 2.9014 -0.750921 0
M  V30 2860 H 275.425 1.52455 -0.544882 0
M  V30 2861 H 277.417 3.69404 1.65296 0
M  V30 2862 H 275.987 2.63221 1.68622 0
M  V30 2863 H 275.207 3.91719 -0.441584 0
M  V30 2864 H 276.495 5.08696 -0.103055 0
M  V30 2865 H 275.893 4.7573 3.061 0
M  V30 2866 H 274.45 5.6798 3.19754 0
M  V30 2867 N 277.883 0.443576 1.51229 0
M  V30 2868 C 279.131 -0.120557 2.0174 0
M  V30 2869 C 279.452 -1.42665 1.32935 0
M  V30 2870 O 278.722 -1.9028 0.465866 0
M  V30 2871 H 277.302 -0.0475426 0.745486 0
M  V30 2872 H 279.964 0.587711 1.85828 0
M  V30 2873 H 279.06 -0.291972 3.10731 0
M  V30 2874 N 279.361 -1.56624 0.175154 0
M  V30 2875 C 280.589 -2.01374 -0.474971 0
M  V30 2876 C 281.004 -1.05537 -1.56548 0
M  V30 2877 O 280.361 -0.0568668 -1.82411 0
M  V30 2878 C 280.412 -3.45923 -1.04975 0
M  V30 2879 O 280.133 -4.381 -0.00276605 0
M  V30 2880 C 281.634 -4.06093 -1.77773 0
M  V30 2881 H 278.854 -0.659962 -0.121206 0
M  V30 2882 H 281.398 -2.02601 0.27801 0
M  V30 2883 H 279.553 -3.45458 -1.75321 0
M  V30 2884 H 279.967 -5.22753 -0.427681 0
M  V30 2885 H 281.441 -5.09147 -2.13245 0
M  V30 2886 H 281.918 -3.48405 -2.67414 0
M  V30 2887 H 282.524 -4.10272 -1.12059 0
M  V30 2888 N 280.839 0.0985539 -1.57292 0
M  V30 2889 C 281.769 1.12064 -2.04851 0
M  V30 2890 C 282.75 1.41981 -0.936767 0
M  V30 2891 O 283.935 1.52071 -1.20781 0
M  V30 2892 C 281.065 2.44144 -2.47004 0
M  V30 2893 C 280.019 2.28643 -3.6181 0
M  V30 2894 C 279.345 3.65869 -3.89929 0
M  V30 2895 C 280.645 1.72986 -4.92822 0
M  V30 2896 H 282.339 0.724979 -2.9049 0
M  V30 2897 H 279.885 0.34729 -1.39749 0
M  V30 2898 H 281.838 3.15914 -2.78884 0
M  V30 2899 H 280.562 2.85639 -1.5836 0
M  V30 2900 H 279.221 1.59318 -3.30172 0
M  V30 2901 H 278.869 4.04885 -2.98458 0
M  V30 2902 H 278.569 3.56344 -4.67218 0
M  V30 2903 H 280.093 4.39112 -4.2428 0
M  V30 2904 H 281.507 2.34593 -5.23105 0
M  V30 2905 H 279.904 1.74229 -5.74251 0
M  V30 2906 H 280.974 0.689007 -4.7998 0
M  V30 2907 N 282.317 1.53212 0.369288 0
M  V30 2908 C 283.247 1.82365 1.45826 0
M  V30 2909 C 284.228 0.676907 1.56051 0
M  V30 2910 O 285.413 0.926401 1.70679 0
M  V30 2911 C 282.543 2.01023 2.83208 0
M  V30 2912 C 281.497 3.1678 2.8781 0
M  V30 2913 C 280.823 3.20724 4.27832 0
M  V30 2914 C 282.123 4.55447 2.55667 0
M  V30 2915 H 283.817 2.73559 1.21678 0
M  V30 2916 H 281.363 1.3163 0.583911 0
M  V30 2917 H 283.316 2.20001 3.59413 0
M  V30 2918 H 282.04 1.06536 3.08736 0
M  V30 2919 H 280.699 2.97616 2.14056 0
M  V30 2920 H 280.347 2.23882 4.50429 0
M  V30 2921 H 280.047 3.98496 4.31827 0
M  V30 2922 H 281.571 3.41881 5.05915 0
M  V30 2923 H 282.985 4.74611 3.21586 0
M  V30 2924 H 281.382 5.35432 2.70984 0
M  V30 2925 H 282.452 4.60812 1.5093 0
M  V30 2926 N 283.795 -0.628877 1.44509 0
M  V30 2927 C 285.041 -1.39045 1.47629 0
M  V30 2928 C 285.374 -1.93892 0.109343 0
M  V30 2929 O 284.649 -1.7379 -0.87334 0
M  V30 2930 C 284.932 -2.55408 2.53848 0
M  V30 2931 C 284.785 -2.05896 3.99909 0
M  V30 2932 C 286.104 -3.5759 2.56549 0
M  V30 2933 H 283.223 -0.504232 0.537512 0
M  V30 2934 H 285.865 -0.710854 1.76201 0
M  V30 2935 H 284.015 -3.13384 2.29615 0
M  V30 2936 H 285.687 -1.52734 4.35282 0
M  V30 2937 H 283.93 -1.37061 4.11578 0
M  V30 2938 H 284.601 -2.89681 4.69882 0
M  V30 2939 H 287.077 -3.09419 2.78207 0
M  V30 2940 H 285.953 -4.36527 3.32769 0
M  V30 2941 H 286.214 -4.11808 1.60832 0
M  V30 2942 N 285.273 -1.31445 -0.869486 0
M  V30 2943 C 286.519 -1.21337 -1.62496 0
M  V30 2944 C 286.852 0.227872 -1.92858 0
M  V30 2945 O 286.127 1.16094 -1.56053 0
M  V30 2946 C 286.41 -2.05814 -2.95487 0
M  V30 2947 C 286.263 -3.5824 -2.72 0
M  V30 2948 C 287.582 -1.9079 -3.96594 0
M  V30 2949 H 284.701 -0.442135 -0.589649 0
M  V30 2950 H 287.343 -1.6124 -1.00507 0
M  V30 2951 H 285.493 -1.71913 -3.48394 0
M  V30 2952 H 287.165 -4.0228 -2.25762 0
M  V30 2953 H 285.408 -3.81647 -2.06224 0
M  V30 2954 H 286.079 -4.12657 -3.66631 0
M  V30 2955 H 288.555 -2.20459 -3.52898 0
M  V30 2956 H 287.431 -2.52199 -4.87531 0
M  V30 2957 H 287.692 -0.871341 -4.33428 0
M  V30 2958 N 286.751 1.08385 -1.14413 0
M  V30 2959 C 287.684 2.14642 -0.774871 0
M  V30 2960 C 288.662 1.60761 0.243876 0
M  V30 2961 O 289.846 1.88031 0.132883 0
M  V30 2962 C 286.973 3.38366 -0.150491 0
M  V30 2963 C 286.019 4.10997 -1.13945 0
M  V30 2964 S 286.852 4.63797 -2.67679 0
M  V30 2965 C 288.008 5.90808 -2.06631 0
M  V30 2966 H 288.241 2.45633 -1.67487 0
M  V30 2967 H 285.774 1.20498 -0.96538 0
M  V30 2968 H 287.732 4.09996 0.203334 0
M  V30 2969 H 286.393 3.05572 0.72694 0
M  V30 2970 H 285.586 4.99783 -0.65059 0
M  V30 2971 H 285.188 3.4528 -1.43727 0
M  V30 2972 H 287.48 6.62411 -1.4219 0
M  V30 2973 H 288.423 6.4439 -2.93542 0
M  V30 2974 H 288.831 5.4383 -1.51357 0
M  V30 2975 N 288.23 0.939286 1.26551 0
M  V30 2976 C 289.479 0.581601 1.93133 0
M  V30 2977 C 289.792 -0.883224 1.74524 0
M  V30 2978 O 290.998 -1.3502 2.35546 0
M  V30 2979 C 289.454 0.989425 3.46032 0
M  V30 2980 C 289.062 2.47573 3.73379 0
M  V30 2981 C 290.806 0.703544 4.18629 0
M  V30 2982 C 288.713 2.82235 5.19709 0
M  V30 2983 H 287.643 0.213803 0.723052 0
M  V30 2984 H 290.294 1.14167 1.4366 0
M  V30 2985 H 288.676 0.357902 3.94379 0
M  V30 2986 H 289.85 3.15614 3.35744 0
M  V30 2987 H 288.165 2.73471 3.1401 0
M  V30 2988 H 290.762 0.938869 5.26393 0
M  V30 2989 H 291.105 -0.359639 4.14744 0
M  V30 2990 H 291.638 1.2947 3.76141 0
M  V30 2991 H 288.377 3.87509 5.28694 0
M  V30 2992 H 287.897 2.18854 5.58447 0
M  V30 2993 H 289.576 2.70599 5.87695 0
M  V30 2994 N 289.708 -1.40897 0.706093 0
M  V30 2995 C 291.119 -1.84023 0.315052 0
M  V30 2996 C 291.47 -1.5906 -1.14866 0
M  V30 2997 O 290.595 -1.06651 -1.88293 0
M  V30 2998 C 291.19 -3.34055 0.565038 0
M  V30 2999 C 289.749 -3.7571 0.227806 0
M  V30 3000 C 288.896 -2.64204 0.842122 0
M  V30 3001 H 291.847 -1.303 0.905963 0
M  V30 3002 H 291.868 -3.80107 -0.172843 0
M  V30 3003 H 291.38 -3.52192 1.63042 0
M  V30 3004 H 289.481 -3.63172 -0.832895 0
M  V30 3005 H 289.594 -4.74103 0.690174 0
M  V30 3006 H 287.958 -2.53255 0.270893 0
M  V30 3007 H 288.741 -2.85155 1.91158 0
M  V30 3008 N 291.186 -0.45159 -1.50991 0
M  V30 3009 C 292.096 0.358431 -2.31846 0
M  V30 3010 C 293.112 1.01438 -1.41373 0
M  V30 3011 O 294.288 1.00663 -1.74439 0
M  V30 3012 C 291.353 1.43704 -3.15515 0
M  V30 3013 C 290.414 0.799742 -4.21785 0
M  V30 3014 C 289.647 1.82696 -5.01456 0
M  V30 3015 O 289.87 3.05105 -4.81941 0
M  V30 3016 O 288.804 1.40958 -5.85162 0
M  V30 3017 H 292.63 -0.302032 -3.02194 0
M  V30 3018 H 290.215 -0.213825 -1.47862 0
M  V30 3019 H 292.097 2.06227 -3.67489 0
M  V30 3020 H 290.772 2.08133 -2.47916 0
M  V30 3021 H 289.679 0.136084 -3.73852 0
M  V30 3022 H 291.012 0.198718 -4.91799 0
M  V30 3023 N 292.664 1.56529 -0.183458 0
M  V30 3024 C 293.614 2.1515 0.754605 0
M  V30 3025 C 294.598 1.08904 1.18443 0
M  V30 3026 O 295.79 1.34997 1.14476 0
M  V30 3027 C 292.919 2.80531 1.97881 0
M  V30 3028 C 292.005 3.93952 1.57043 0
M  V30 3029 N 292.396 4.98221 0.87231 0
M  V30 3030 C 290.694 4.05338 1.86057 0
M  V30 3031 C 291.395 5.77836 0.669377 0
M  V30 3032 N 290.371 5.29858 1.21454 0
M  V30 3033 H 294.173 2.93132 0.212387 0
M  V30 3034 H 291.687 1.62391 0.0167725 0
M  V30 3035 H 293.684 3.20914 2.6612 0
M  V30 3036 H 292.344 2.04035 2.52586 0
M  V30 3037 H 293.355 5.15191 0.529033 0
M  V30 3038 H 290.032 3.39957 2.42354 0
M  V30 3039 H 291.422 6.71799 0.116422 0
M  V30 3040 N 294.142 -0.090211 1.57342 0
M  V30 3041 C 295.074 -1.13541 1.99101 0
M  V30 3042 C 296.087 -1.3604 0.894258 0
M  V30 3043 O 297.276 -1.34606 1.17233 0
M  V30 3044 C 294.376 -2.49001 2.29895 0
M  V30 3045 C 293.549 -2.46712 3.61182 0
M  V30 3046 C 292.608 -3.64136 3.79857 0
M  V30 3047 O 291.634 -3.46405 4.51655 0
M  V30 3048 N 292.836 -4.83802 3.20806 0
M  V30 3049 H 295.601 -0.779942 2.89373 0
M  V30 3050 H 293.162 -0.279125 1.59476 0
M  V30 3051 H 295.154 -3.26166 2.39578 0
M  V30 3052 H 293.724 -2.76619 1.45605 0
M  V30 3053 H 292.944 -1.55058 3.62423 0
M  V30 3054 H 294.232 -2.42265 4.4742 0
M  V30 3055 H 293.63 -5.01112 2.62494 0
M  V30 3056 H 292.187 -5.58543 3.35966 0
M  V30 3057 N 295.62 -1.53406 -0.361157 0
M  V30 3058 C 296.55 -1.83136 -1.44857 0
M  V30 3059 C 297.531 -0.685174 -1.5569 0
M  V30 3060 O 298.716 -0.93544 -1.70186 0
M  V30 3061 C 295.846 -2.02522 -2.82138 0
M  V30 3062 C 294.8 -3.18302 -2.86126 0
M  V30 3063 C 294.126 -3.22989 -4.26125 0
M  V30 3064 C 295.426 -4.56796 -2.53248 0
M  V30 3065 H 297.12 -2.74201 -1.20226 0
M  V30 3066 H 294.666 -1.31938 -0.576922 0
M  V30 3067 H 296.619 -2.21904 -3.58241 0
M  V30 3068 H 295.343 -1.08172 -3.08166 0
M  V30 3069 H 294.002 -2.98747 -2.12475 0
M  V30 3070 H 293.65 -2.26267 -4.49235 0
M  V30 3071 H 293.35 -4.00781 -4.29708 0
M  V30 3072 H 294.874 -3.44559 -5.04094 0
M  V30 3073 H 296.288 -4.7631 -3.19064 0
M  V30 3074 H 294.685 -5.36862 -2.68141 0
M  V30 3075 H 295.755 -4.61606 -1.48484 0
M  V30 3076 N 297.098 0.621204 -1.44841 0
M  V30 3077 C 298.061 1.71459 -1.521 0
M  V30 3078 C 299.061 1.55696 -0.401933 0
M  V30 3079 O 300.251 1.61011 -0.664925 0
M  V30 3080 C 297.383 3.10624 -1.40447 0
M  V30 3081 H 298.576 1.66394 -2.49506 0
M  V30 3082 H 296.129 0.835745 -1.3208 0
M  V30 3083 H 296.864 3.21277 -0.441737 0
M  V30 3084 H 296.649 3.23473 -2.21602 0
M  V30 3085 H 298.139 3.90293 -1.4853 0
M  V30 3086 N 298.576 1.31904 0.862503 0
M  V30 3087 C 299.804 1.24998 1.64873 0
M  V30 3088 C 300.219 -0.183425 1.87907 0
M  V30 3089 O 299.576 -1.11794 1.44251 0
M  V30 3090 C 299.627 1.99829 3.01248 0
M  V30 3091 O 299.348 3.37575 2.79239 0
M  V30 3092 C 300.849 1.99852 3.95694 0
M  V30 3093 H 298.069 0.431599 0.513773 0
M  V30 3094 H 300.613 1.73901 1.07604 0
M  V30 3095 H 298.768 1.54668 3.55185 0
M  V30 3096 H 299.182 3.75776 3.65914 0
M  V30 3097 H 300.656 2.56709 4.88676 0
M  V30 3098 H 301.133 0.982852 4.28062 0
M  V30 3099 H 301.739 2.44926 3.47694 0
M  V30 3100 N 300.054 -1.07777 1.14986 0
M  V30 3101 C 301.3 -1.80557 0.923422 0
M  V30 3102 C 301.633 -1.86298 -0.548337 0
M  V30 3103 O 300.908 -1.34354 -1.40639 0
M  V30 3104 C 301.191 -3.25839 1.53299 0
M  V30 3105 C 301.044 -3.28269 3.07505 0
M  V30 3106 C 302.363 -4.22991 1.21518 0
M  V30 3107 H 299.482 -0.655493 0.336894 0
M  V30 3108 H 302.124 -1.26144 1.42083 0
M  V30 3109 H 300.274 -3.72306 1.10999 0
M  V30 3110 H 301.946 -2.90079 3.58681 0
M  V30 3111 H 300.189 -2.67355 3.4162 0
M  V30 3112 H 300.86 -4.30691 3.45266 0
M  V30 3113 H 303.336 -3.84894 1.581 0
M  V30 3114 H 302.212 -5.22945 1.66793 0
M  V30 3115 H 302.473 -4.41904 0.131505 0
M  V30 3116 N 301.532 -0.945985 -1.26051 0
M  V30 3117 C 302.48 -0.450259 -2.282 0
M  V30 3118 C 303.474 0.47497 -1.62605 0
M  V30 3119 O 304.68 0.352653 -1.76512 0
M  V30 3120 H 301.055 -0.127081 -0.741184 0
M  V30 3121 H 303.026 -1.32422 -2.67408 0
M  V30 3122 C 301.775 0.26467 -3.46691 0
M  V30 3123 H 301.098 -0.438123 -3.97392 0
M  V30 3124 H 302.538 0.575678 -4.20074 0
M  V30 3125 C 300.997 1.48416 -3.02447 0
M  V30 3126 O 301.527 2.58227 -3.07704 0
M  V30 3127 N 299.733 1.34243 -2.57735 0
M  V30 3128 H 299.28 0.448994 -2.53657 0
M  V30 3129 H 299.238 2.15957 -2.28495 0
M  V30 3130 N 303.011 1.40521 -0.713556 0
M  V30 3131 C 303.958 2.30723 -0.059684 0
M  V30 3132 C 304.928 1.48079 0.752448 0
M  V30 3133 O 306.113 1.76823 0.71681 0
M  V30 3134 C 303.253 3.34274 0.857594 0
M  V30 3135 C 302.366 4.31986 0.0351536 0
M  V30 3136 C 301.501 5.22605 0.951724 0
M  V30 3137 C 300.54 6.11976 0.123253 0
M  V30 3138 N 299.677 6.9502 0.99459 0
M  V30 3139 H 304.517 2.86074 -0.834596 0
M  V30 3140 H 302.054 1.40879 -0.42326 0
M  V30 3141 H 304.012 3.92879 1.40364 0
M  V30 3142 H 302.642 2.8043 1.59871 0
M  V30 3143 H 301.694 3.7518 -0.628052 0
M  V30 3144 H 303.006 4.95101 -0.606347 0
M  V30 3145 H 302.16 5.86131 1.56638 0
M  V30 3146 H 300.899 4.59759 1.62705 0
M  V30 3147 H 299.904 5.47482 -0.50435 0
M  V30 3148 H 301.129 6.76881 -0.548539 0
M  V30 3149 H 299.075 6.34764 1.6556 0
M  V30 3150 H 298.992 7.54892 0.40908 0
M  V30 3151 H 300.26 7.62997 1.59549 0
M  V30 3152 N 304.489 0.459591 1.5075 0
M  V30 3153 C 305.737 -0.0991532 2.01857 0
M  V30 3154 C 306.058 -1.41247 1.34441 0
M  V30 3155 O 305.328 -1.89775 0.486022 0
M  V30 3156 H 303.908 -0.039633 0.745948 0
M  V30 3157 H 306.57 0.607387 1.85194 0
M  V30 3158 H 305.666 -0.258998 3.11023 0
M  V30 3159 N 305.967 -1.56429 0.191757 0
M  V30 3160 C 306.915 -2.20273 -0.747174 0
M  V30 3161 C 307.909 -1.17288 -1.22229 0
M  V30 3162 O 309.115 -1.35441 -1.18557 0
M  V30 3163 H 305.49 -0.705885 -0.259289 0
M  V30 3164 H 307.461 -2.97826 -0.184963 0
M  V30 3165 C 306.21 -2.87356 -1.95759 0
M  V30 3166 H 305.533 -3.66341 -1.60106 0
M  V30 3167 H 306.973 -3.3547 -2.59299 0
M  V30 3168 C 305.432 -1.88213 -2.79423 0
M  V30 3169 O 305.962 -1.38033 -3.7724 0
M  V30 3170 N 304.168 -1.56516 -2.44849 0
M  V30 3171 H 303.715 -1.97516 -1.65364 0
M  V30 3172 H 303.673 -0.904369 -3.01112 0
M  V30 3173 N 307.445 0.0818655 -1.57387 0
M  V30 3174 C 308.691 0.784074 -1.8703 0
M  V30 3175 C 309.024 1.77729 -0.782689 0
M  V30 3176 O 308.299 1.93384 0.208051 0
M  V30 3177 C 308.582 1.50105 -3.27323 0
M  V30 3178 C 308.435 0.524925 -4.46727 0
M  V30 3179 C 309.754 2.44843 -3.65705 0
M  V30 3180 H 306.873 0.283582 -0.680257 0
M  V30 3181 H 309.515 0.0474352 -1.89941 0
M  V30 3182 H 307.665 2.12897 -3.24972 0
M  V30 3183 H 309.337 -0.0970111 -4.61198 0
M  V30 3184 H 307.58 -0.160606 -4.33503 0
M  V30 3185 H 308.251 1.064 -5.41648 0
M  V30 3186 H 310.727 1.92135 -3.69085 0
M  V30 3187 H 309.603 2.92018 -4.64776 0
M  V30 3188 H 309.864 3.29197 -2.95096 0
M  V30 3189 N 308.923 1.53595 0.353017 0
M  V30 3190 C 309.871 1.81605 1.45335 0
M  V30 3191 C 310.865 0.685923 1.54892 0
M  V30 3192 O 312.071 0.869095 1.57628 0
M  V30 3193 H 308.446 0.575204 0.484401 0
M  V30 3194 H 310.417 2.73679 1.18921 0
M  V30 3195 C 309.166 2.03406 2.81995 0
M  V30 3196 H 308.489 2.89814 2.75405 0
M  V30 3197 H 309.929 2.26975 3.58132 0
M  V30 3198 C 308.388 0.816794 3.26849 0
M  V30 3199 O 308.918 0.0115856 4.01698 0
M  V30 3200 N 307.124 0.636682 2.8354 0
M  V30 3201 H 306.671 1.2931 2.22793 0
M  V30 3202 H 306.629 -0.176336 3.13905 0
M  V30 3203 N 310.401 -0.613514 1.45168 0
M  V30 3204 C 311.364 -1.7065 1.53007 0
M  V30 3205 C 312.364 -1.5548 0.410184 0
M  V30 3206 O 313.554 -1.60656 0.673455 0
M  V30 3207 C 310.686 -3.09875 1.42093 0
M  V30 3208 H 311.879 -1.65068 2.50385 0
M  V30 3209 H 309.432 -0.828728 1.32521 0
M  V30 3210 H 310.167 -3.21039 0.458769 0
M  V30 3211 H 309.952 -3.22293 2.23315 0
M  V30 3212 H 311.442 -3.895 1.50598 0
M  V30 3213 N 311.879 -1.3236 -0.855495 0
M  V30 3214 C 313.127 -1.22629 -1.60644 0
M  V30 3215 C 313.448 0.212136 -1.93843 0
M  V30 3216 O 312.718 1.13666 -1.59552 0
M  V30 3217 H 311.298 -0.450882 -0.595579 0
M  V30 3218 H 313.96 -1.65871 -1.02337 0
M  V30 3219 H 313.056 -1.80832 -2.54374 0
M  V30 3220 N 313.357 1.07166 -1.15556 0
M  V30 3221 C 314.587 1.83248 -0.954133 0
M  V30 3222 C 314.995 1.82449 0.500911 0
M  V30 3223 O 314.338 1.23575 1.35923 0
M  V30 3224 C 314.4 3.31393 -1.39351 0
M  V30 3225 C 314.064 3.5591 -2.86666 0
M  V30 3226 C 315.061 3.49695 -3.8472 0
M  V30 3227 C 312.746 3.83515 -3.24379 0
M  V30 3228 C 314.74 3.70737 -5.18491 0
M  V30 3229 C 312.427 4.04209 -4.58321 0
M  V30 3230 C 313.425 3.97815 -5.55186 0
M  V30 3231 O 313.113 4.17954 -6.86709 0
M  V30 3232 H 312.845 0.584941 -0.338851 0
M  V30 3233 H 315.399 1.36169 -1.53777 0
M  V30 3234 H 313.629 3.79292 -0.75329 0
M  V30 3235 H 315.318 3.88945 -1.16089 0
M  V30 3236 H 316.084 3.28368 -3.56931 0
M  V30 3237 H 311.963 3.87605 -2.49567 0
M  V30 3238 H 315.507 3.65663 -5.94085 0
M  V30 3239 H 311.404 4.25023 -4.85825 0
M  V30 3240 H 312.172 4.35291 -6.93155 0
M  V30 3241 N 314.835 0.952656 1.25548 0
M  V30 3242 C 315.782 0.47008 2.25962 0
M  V30 3243 C 316.752 -0.476384 1.59122 0
M  V30 3244 O 317.937 -0.39007 1.8677 0
M  V30 3245 C 315.077 -0.247881 3.44209 0
M  V30 3246 C 314.19 0.735591 4.25691 0
M  V30 3247 C 313.325 -0.0047306 5.312 0
M  V30 3248 C 312.364 0.969805 6.04368 0
M  V30 3249 N 311.501 0.260486 7.01617 0
M  V30 3250 H 316.341 1.33126 2.66611 0
M  V30 3251 H 313.878 0.66765 1.31076 0
M  V30 3252 H 315.836 -0.680695 4.1161 0
M  V30 3253 H 314.466 -1.07312 3.0444 0
M  V30 3254 H 313.518 1.28689 3.57971 0
M  V30 3255 H 314.83 1.47934 4.76358 0
M  V30 3256 H 313.984 -0.496275 6.04667 0
M  V30 3257 H 312.723 -0.781282 4.81401 0
M  V30 3258 H 311.728 1.47237 5.29718 0
M  V30 3259 H 312.953 1.74655 6.56256 0
M  V30 3260 H 310.899 -0.497364 6.54112 0
M  V30 3261 H 310.816 0.943362 7.50091 0
M  V30 3262 H 312.084 -0.209587 7.79218 0
M  V30 3263 N 316.313 -1.40141 0.720998 0
M  V30 3264 C 317.543 -2.04798 0.27226 0
M  V30 3265 C 317.951 -1.54442 -1.09289 0
M  V30 3266 O 317.294 -0.698342 -1.69908 0
M  V30 3267 C 317.356 -3.59048 0.18027 0
M  V30 3268 C 317.02 -4.32317 1.48159 0
M  V30 3269 C 318.017 -4.59902 2.42458 0
M  V30 3270 C 315.702 -4.71125 1.74202 0
M  V30 3271 C 317.696 -5.25288 3.61042 0
M  V30 3272 C 315.383 -5.36242 2.93066 0
M  V30 3273 C 316.381 -5.63254 3.86308 0
M  V30 3274 O 316.069 -6.27024 5.03086 0
M  V30 3275 H 315.801 -0.665419 0.119139 0
M  V30 3276 H 318.355 -1.80436 0.981432 0
M  V30 3277 H 316.585 -3.82251 -0.58489 0
M  V30 3278 H 318.274 -4.05221 -0.234618 0
M  V30 3279 H 319.04 -4.30379 2.23604 0
M  V30 3280 H 314.919 -4.49466 1.02477 0
M  V30 3281 H 318.463 -5.46289 4.33837 0
M  V30 3282 H 314.36 -5.65185 3.11826 0
M  V30 3283 H 315.128 -6.4552 5.03235 0
M  V30 3284 N 317.792 -0.46758 -1.50504 0
M  V30 3285 C 319.02 0.0864133 -2.06719 0
M  V30 3286 C 319.435 1.33819 -1.33184 0
M  V30 3287 O 318.792 1.78061 -0.400083 0
M  V30 3288 C 318.843 0.378079 -3.59517 0
M  V30 3289 O 318.564 -0.824044 -4.3028 0
M  V30 3290 C 320.065 0.979426 -4.32345 0
M  V30 3291 H 317.285 -0.00551697 -0.670977 0
M  V30 3292 H 319.829 -0.655354 -1.93715 0
M  V30 3293 H 317.984 1.06977 -3.72337 0
M  V30 3294 H 318.398 -0.566518 -5.21432 0
M  V30 3295 H 319.872 1.1333 -5.40241 0
M  V30 3296 H 320.349 1.9686 -3.9261 0
M  V30 3297 H 320.955 0.326216 -4.24047 0
M  V30 3298 N 319.27 1.56325 -0.20005 0
M  V30 3299 C 320.22 2.15939 0.731743 0
M  V30 3300 C 321.204 1.10154 1.17281 0
M  V30 3301 O 322.396 1.36203 1.13038 0
M  V30 3302 C 319.525 2.82614 1.94895 0
M  V30 3303 C 318.611 3.95596 1.52855 0
M  V30 3304 N 319.002 4.99118 0.819418 0
M  V30 3305 C 317.3 4.07288 1.81748 0
M  V30 3306 C 318.001 5.78513 0.608053 0
M  V30 3307 N 316.977 5.31117 1.15828 0
M  V30 3308 H 320.779 2.9334 0.181285 0
M  V30 3309 H 318.293 1.624 -0.000452172 0
M  V30 3310 H 320.29 3.23718 2.62702 0
M  V30 3311 H 318.95 2.06702 2.50408 0
M  V30 3312 H 319.961 5.15723 0.47436 0
M  V30 3313 H 316.638 3.42509 2.38734 0
M  V30 3314 H 318.028 6.71885 0.0451619 0
M  V30 3315 N 320.748 -0.0735177 1.57428 0
M  V30 3316 C 322.159 -0.625551 1.75908 0
M  V30 3317 C 322.51 -1.78 0.825261 0
M  V30 3318 O 321.635 -2.16398 0.00893964 0
M  V30 3319 C 322.23 -1.14155 3.18989 0
M  V30 3320 C 320.789 -1.63946 3.38819 0
M  V30 3321 C 319.936 -0.558151 2.71625 0
M  V30 3322 H 322.887 0.152647 1.57964 0
M  V30 3323 H 322.908 -2.0104 3.23053 0
M  V30 3324 H 322.42 -0.301116 3.8693 0
M  V30 3325 H 320.521 -2.50321 2.7599 0
M  V30 3326 H 320.634 -1.71759 4.47253 0
M  V30 3327 H 318.998 -1.00278 2.34129 0
M  V30 3328 H 319.781 0.272071 3.4222 0
M  V30 3329 N 322.226 -1.5378 -0.344866 0
M  V30 3330 C 323.474 -1.70625 -1.08311 0
M  V30 3331 C 323.795 -0.471447 -1.89215 0
M  V30 3332 O 323.065 0.514616 -1.8902 0
M  V30 3333 H 321.645 -0.629058 -0.402859 0
M  V30 3334 H 324.307 -1.9103 -0.386459 0
M  V30 3335 H 323.403 -2.57656 -1.76124 0
M  V30 3336 N 323.704 0.605807 -1.45491 0
M  V30 3337 C 324.614 1.74466 -1.56839 0
M  V30 3338 C 325.63 1.68006 -0.452772 0
M  V30 3339 O 326.806 1.8833 -0.713708 0
M  V30 3340 C 323.871 3.10931 -1.53371 0
M  V30 3341 C 322.932 3.28832 -2.75986 0
M  V30 3342 C 322.165 4.58787 -2.72673 0
M  V30 3343 O 322.388 5.4122 -1.80102 0
M  V30 3344 O 321.322 4.79438 -3.63899 0
M  V30 3345 H 325.148 1.67843 -2.53106 0
M  V30 3346 H 322.733 0.770108 -1.28022 0
M  V30 3347 H 324.615 3.92233 -1.54051 0
M  V30 3348 H 323.29 3.18042 -0.602572 0
M  V30 3349 H 322.197 2.47112 -2.80867 0
M  V30 3350 H 323.53 3.26599 -3.68231 0
M  V30 3351 N 325.182 1.32811 0.848464 0
M  V30 3352 C 326.145 1.22194 1.9391 0
M  V30 3353 C 327.145 0.143404 1.60159 0
M  V30 3354 O 328.335 0.394253 1.6968 0
M  V30 3355 C 325.467 0.88067 3.29328 0
M  V30 3356 H 326.66 2.19127 2.04752 0
M  V30 3357 H 324.213 1.16731 1.0394 0
M  V30 3358 H 324.948 -0.0865776 3.24184 0
M  V30 3359 H 324.733 1.66052 3.55203 0
M  V30 3360 H 326.223 0.830871 4.09251 0
M  V30 3361 N 326.66 -1.06551 1.16123 0
M  V30 3362 C 327.908 -1.78947 0.939267 0
M  V30 3363 C 328.229 -1.87532 -0.534476 0
M  V30 3364 O 327.499 -1.38211 -1.38833 0
M  V30 3365 H 326.079 -0.662807 0.344523 0
M  V30 3366 H 328.741 -1.28725 1.46342 0
M  V30 3367 H 327.837 -2.81117 1.35572 0
M  V30 3368 N 328.138 -0.959301 -1.25041 0
M  V30 3369 C 329.554 -0.664474 -1.4511 0
M  V30 3370 C 329.754 0.776481 -1.85938 0
M  V30 3371 O 328.81 1.55128 -1.99227 0
M  V30 3372 C 330.123 -1.64139 -2.5195 0
M  V30 3373 C 331.671 -1.65309 -2.65786 0
M  V30 3374 C 332.146 -2.61777 -3.75815 0
M  V30 3375 N 333.637 -2.60169 -3.83231 0
M  V30 3376 C 334.372 -3.31489 -4.6787 0
M  V30 3377 N 333.868 -4.12298 -5.56761 0
M  V30 3378 N 335.661 -3.20354 -4.61876 0
M  V30 3379 H 327.812 -1.89043 -0.968332 0
M  V30 3380 H 330.075 -0.813408 -0.4869 0
M  V30 3381 H 329.781 -2.67086 -2.28819 0
M  V30 3382 H 329.655 -1.40756 -3.49954 0
M  V30 3383 H 332.042 -0.630778 -2.8828 0
M  V30 3384 H 332.123 -1.92753 -1.68167 0
M  V30 3385 H 331.767 -3.64137 -3.54071 0
M  V30 3386 H 331.697 -2.31616 -4.72929 0
M  V30 3387 H 334.188 -2.01507 -3.19692 0
M  V30 3388 H 334.501 -4.63625 -6.18281 0
M  V30 3389 H 332.846 -4.16395 -5.56454 0
M  V30 3390 H 336.037 -2.56692 -3.91442 0
M  V30 3391 H 336.21 -3.76201 -5.27614 0
M  V30 3392 N 329.616 1.39756 -0.72842 0
M  V30 3393 C 330.526 2.34444 -0.0855374 0
M  V30 3394 C 331.542 1.57976 0.729356 0
M  V30 3395 O 332.718 1.90301 0.659346 0
M  V30 3396 C 329.783 3.36965 0.815798 0
M  V30 3397 C 328.844 4.29299 -0.0105996 0
M  V30 3398 C 328.077 5.26923 0.84781 0
M  V30 3399 O 328.3 5.30859 2.08673 0
M  V30 3400 O 327.234 6.01249 0.279969 0
M  V30 3401 H 331.06 2.91065 -0.866892 0
M  V30 3402 H 328.645 1.4117 -0.48902 0
M  V30 3403 H 330.527 3.99804 1.33171 0
M  V30 3404 H 329.202 2.82739 1.57608 0
M  V30 3405 H 328.109 3.69703 -0.571877 0
M  V30 3406 H 329.442 4.86712 -0.73295 0
M  V30 3407 N 331.094 0.475555 1.50254 0
M  V30 3408 C 332.34 -0.0780073 2.0265 0
M  V30 3409 C 332.673 -1.38968 1.35652 0
M  V30 3410 O 331.948 -1.8839 0.483691 0
M  V30 3411 C 332.231 -0.257161 3.59181 0
M  V30 3412 C 332.084 1.07585 4.36744 0
M  V30 3413 C 333.403 -1.00965 4.28362 0
M  V30 3414 H 330.522 -0.0268758 0.73651 0
M  V30 3415 H 333.164 0.622015 1.7953 0
M  V30 3416 H 331.314 -0.853412 3.79011 0
M  V30 3417 H 332.986 1.70902 4.28474 0
M  V30 3418 H 331.229 1.6714 4.00308 0
M  V30 3419 H 331.9 0.904088 5.44546 0
M  V30 3420 H 334.376 -0.504214 4.13034 0
M  V30 3421 H 333.252 -1.10381 5.37687 0
M  V30 3422 H 333.513 -2.04731 3.91839 0
M  V30 3423 N 332.573 -1.56217 0.208337 0
M  V30 3424 C 333.821 -1.97558 -0.426076 0
M  V30 3425 C 334.142 -1.09683 -1.61229 0
M  V30 3426 O 333.412 -0.170956 -1.95153 0
M  V30 3427 H 331.992 -0.729575 -0.160405 0
M  V30 3428 H 334.654 -1.92606 0.298155 0
M  V30 3429 H 333.75 -3.02672 -0.761312 0
M  V30 3430 N 334.051 0.0651679 -1.57465 0
M  V30 3431 C 335.279 0.775808 -1.91804 0
M  V30 3432 C 335.694 1.70782 -0.804916 0
M  V30 3433 O 335.051 1.81153 0.221311 0
M  V30 3434 C 335.102 1.56381 -3.25925 0
M  V30 3435 O 334.823 0.669248 -4.32958 0
M  V30 3436 C 336.324 2.37485 -3.7432 0
M  V30 3437 H 333.544 0.2202 -0.63384 0
M  V30 3438 H 336.088 0.0334587 -2.04473 0
M  V30 3439 H 334.243 2.25837 -3.14764 0
M  V30 3440 H 334.657 1.21801 -5.10162 0
M  V30 3441 H 336.131 2.88223 -4.70778 0
M  V30 3442 H 336.608 3.17307 -3.03666 0
M  V30 3443 H 337.214 1.73173 -3.88447 0
M  V30 3444 N 335.529 1.53961 0.336706 0
M  V30 3445 C 336.461 1.78751 1.4346 0
M  V30 3446 C 337.474 0.669019 1.48418 0
M  V30 3447 O 338.663 0.945884 1.51378 0
M  V30 3448 C 335.763 1.87844 2.82078 0
M  V30 3449 C 334.936 3.17854 3.00479 0
M  V30 3450 C 333.995 3.17816 4.19379 0
M  V30 3451 O 333.021 3.91511 4.13168 0
M  V30 3452 N 334.223 2.40669 5.2826 0
M  V30 3453 H 336.988 2.73493 1.22563 0
M  V30 3454 H 334.549 1.53096 0.526625 0
M  V30 3455 H 336.541 1.85261 3.59806 0
M  V30 3456 H 335.111 1.00257 2.96086 0
M  V30 3457 H 334.331 3.33504 2.10163 0
M  V30 3458 H 335.619 4.03718 3.0966 0
M  V30 3459 H 335.017 1.8036 5.36178 0
M  V30 3460 H 333.574 2.43877 6.04456 0
M  V30 3461 N 337.007 -0.598083 1.45811 0
M  V30 3462 C 338.253 -1.35882 1.50545 0
M  V30 3463 C 338.586 -1.93616 0.150445 0
M  V30 3464 O 337.861 -1.75604 -0.83628 0
M  V30 3465 C 338.144 -2.49966 2.59208 0
M  V30 3466 C 337.997 -1.97367 4.04186 0
M  V30 3467 C 339.316 -3.52068 2.64076 0
M  V30 3468 H 336.435 -0.492717 0.548087 0
M  V30 3469 H 339.077 -0.673319 1.77669 0
M  V30 3470 H 337.227 -3.08443 2.3621 0
M  V30 3471 H 338.899 -1.43466 4.38423 0
M  V30 3472 H 337.142 -1.283 4.14393 0
M  V30 3473 H 337.813 -2.79649 4.75921 0
M  V30 3474 H 340.289 -3.03448 2.84708 0
M  V30 3475 H 339.165 -4.2937 3.41954 0
M  V30 3476 H 339.426 -4.08304 1.69531 0
M  V30 3477 N 338.485 -1.33259 -0.841409 0
M  V30 3478 C 339.395 -1.25332 -1.98316 0
M  V30 3479 C 340.411 -0.164364 -1.73222 0
M  V30 3480 O 341.587 -0.387486 -1.97637 0
M  V30 3481 C 338.652 -0.990078 -3.32262 0
M  V30 3482 C 337.713 -2.16879 -3.70489 0
M  V30 3483 C 336.946 -1.91801 -4.98044 0
M  V30 3484 O 337.169 -0.867075 -5.63771 0
M  V30 3485 O 336.103 -2.78267 -5.33714 0
M  V30 3486 H 339.929 -2.21344 -2.07944 0
M  V30 3487 H 337.514 -1.1328 -0.974058 0
M  V30 3488 H 339.396 -0.860321 -4.12524 0
M  V30 3489 H 338.071 -0.0602155 -3.23644 0
M  V30 3490 H 336.978 -2.35407 -2.90748 0
M  V30 3491 H 338.311 -3.0819 -3.8377 0
M  V30 3492 N 339.963 1.05934 -1.16686 0
M  V30 3493 C 340.911 2.15603 -0.872817 0
M  V30 3494 C 341.905 1.68647 0.159576 0
M  V30 3495 O 343.111 1.79995 0.0132125 0
M  V30 3496 H 339.486 0.703885 -0.264671 0
M  V30 3497 H 341.457 2.37613 -1.80507 0
M  V30 3498 C 340.206 3.45457 -0.394344 0
M  V30 3499 H 339.529 3.81984 -1.18019 0
M  V30 3500 H 340.969 4.2339 -0.227408 0
M  V30 3501 C 339.428 3.25021 0.88673 0
M  V30 3502 O 339.958 3.50906 1.95519 0
M  V30 3503 N 338.164 2.78437 0.831925 0
M  V30 3504 H 337.711 2.57572 -0.0377619 0
M  V30 3505 H 337.669 2.65144 1.68956 0
M  V30 3506 N 341.441 0.965919 1.2453 0
M  V30 3507 C 342.351 0.502154 2.29163 0
M  V30 3508 C 343.367 -0.436017 1.68448 0
M  V30 3509 O 344.543 -0.309497 1.99008 0
M  V30 3510 C 341.608 -0.201956 3.46111 0
M  V30 3511 C 340.669 0.775821 4.22232 0
M  V30 3512 C 339.902 0.105217 5.33596 0
M  V30 3513 O 340.125 -1.10683 5.59558 0
M  V30 3514 O 339.059 0.796475 5.96607 0
M  V30 3515 H 342.885 1.37194 2.70946 0
M  V30 3516 H 340.47 0.732875 1.30189 0
M  V30 3517 H 342.352 -0.597564 4.17142 0
M  V30 3518 H 341.027 -1.04673 3.06309 0
M  V30 3519 H 339.934 1.22185 3.53584 0
M  V30 3520 H 341.267 1.58896 4.65846 0
M  V30 3521 N 342.919 -1.39368 0.735821 0
M  V30 3522 C 343.866 -2.30599 0.0963825 0
M  V30 3523 C 344.836 -1.49257 -0.728794 0
M  V30 3524 O 346.021 -1.77941 -0.688588 0
M  V30 3525 C 343.161 -3.35596 -0.804305 0
M  V30 3526 C 342.274 -4.31987 0.0335761 0
M  V30 3527 C 341.409 -5.24053 -0.868461 0
M  V30 3528 C 340.448 -6.12095 -0.0258776 0
M  V30 3529 N 339.585 -6.96514 -0.883893 0
M  V30 3530 H 344.425 -2.8471 0.880002 0
M  V30 3531 H 341.962 -1.40188 0.445619 0
M  V30 3532 H 343.92 -3.95062 -1.34096 0
M  V30 3533 H 342.55 -2.82938 -1.55389 0
M  V30 3534 H 341.602 -3.74133 0.68766 0
M  V30 3535 H 342.914 -4.94074 0.685036 0
M  V30 3536 H 342.068 -5.88549 -1.47293 0
M  V30 3537 H 340.807 -4.62289 -1.5537 0
M  V30 3538 H 339.812 -5.4661 0.591386 0
M  V30 3539 H 341.037 -6.75923 0.656156 0
M  V30 3540 H 338.983 -6.37318 -1.55441 0
M  V30 3541 H 338.9 -7.55448 -0.288931 0
M  V30 3542 H 340.168 -7.65439 -1.4739 0
M  V30 3543 N 344.397 -0.483516 -1.5 0
M  V30 3544 C 345.329 0.340634 -2.26655 0
M  V30 3545 C 346.342 0.946152 -1.32483 0
M  V30 3546 O 347.531 0.832453 -1.579 0
M  V30 3547 C 344.631 1.4929 -3.04246 0
M  V30 3548 C 343.804 0.997903 -4.25865 0
M  V30 3549 C 342.863 2.02569 -4.85646 0
M  V30 3550 O 341.889 1.60128 -5.46212 0
M  V30 3551 N 343.091 3.3548 -4.73744 0
M  V30 3552 H 345.856 -0.316577 -2.98023 0
M  V30 3553 H 343.417 -0.315024 -1.58806 0
M  V30 3554 H 345.409 2.17766 -3.41116 0
M  V30 3555 H 343.979 2.05458 -2.35597 0
M  V30 3556 H 343.199 0.138617 -3.93956 0
M  V30 3557 H 344.487 0.645305 -5.04691 0
M  V30 3558 H 343.885 3.72661 -4.25605 0
M  V30 3559 H 342.442 3.99718 -5.14848 0
M  V30 3560 N 345.875 1.56104 -0.216619 0
M  V30 3561 C 347.286 1.844 0.292128 0
M  V30 3562 C 347.637 1.13788 1.59833 0
M  V30 3563 O 346.762 0.405888 2.12559 0
M  V30 3564 C 347.357 3.3452 0.53681 0
M  V30 3565 C 345.916 3.63151 0.989876 0
M  V30 3566 C 345.063 2.77255 0.0502302 0
M  V30 3567 H 348.014 1.52481 -0.439926 0
M  V30 3568 H 348.035 3.54459 1.38345 0
M  V30 3569 H 347.547 3.85885 -0.414031 0
M  V30 3570 H 345.648 3.17238 1.95425 0
M  V30 3571 H 345.761 4.71177 0.867698 0
M  V30 3572 H 344.125 2.48555 0.556117 0
M  V30 3573 H 344.908 3.31416 -0.89544 0
M  V30 3574 N 347.353 -0.0568162 1.57498 0
M  V30 3575 C 348.578 -0.769402 1.92601 0
M  V30 3576 C 349.003 -1.69559 0.814336 0
M  V30 3577 O 348.361 -1.79811 -0.231903 0
M  V30 3578 C 348.409 -1.52634 3.26704 0
M  V30 3579 O 347.513 -2.63797 3.16994 0
M  V30 3580 H 346.854 -0.208909 0.63028 0
M  V30 3581 H 349.384 -0.0205798 2.0459 0
M  V30 3582 H 349.394 -1.90234 3.60936 0
M  V30 3583 H 348.069 -0.846875 4.07186 0
M  V30 3584 H 346.646 -2.28943 2.94346 0
M  V30 3585 N 348.832 -1.54138 -0.328536 0
M  V30 3586 C 350.109 -1.62749 -1.08499 0
M  V30 3587 C 350.489 -0.458198 -2.06067 0
M  V30 3588 O 349.837 0.548046 -2.2183 0
M  V30 3589 C 350.047 -2.99519 -1.79135 0
M  V30 3590 C 351.395 -3.55394 -2.32337 0
M  V30 3591 O 352.419 -3.01792 -1.89209 0
M  V30 3592 O 351.278 -4.49186 -3.11279 0
M  V30 3593 H 348.372 -0.65886 -0.499832 0
M  V30 3594 H 350.918 -1.66484 -0.328826 0
M  V30 3595 H 349.69 -3.76061 -1.08139 0
M  V30 3596 H 349.313 -2.99441 -2.61574 0
M  V30 3597 N 350.31 0.590341 -1.46126 0
M  V30 3598 C 351.587 1.35029 -1.41515 0
M  V30 3599 C 351.967 2.10888 -0.0946472 0
M  V30 3600 O 351.315 2.08998 0.923693 0
M  V30 3601 C 351.525 2.28269 -2.63997 0
M  V30 3602 C 352.873 2.90338 -3.09821 0
M  V30 3603 O 353.897 2.38585 -2.64492 0
M  V30 3604 O 352.756 3.84321 -3.88535 0
M  V30 3605 H 349.85 0.606317 -0.562413 0
M  V30 3606 H 352.396 0.611994 -1.58281 0
M  V30 3607 H 351.168 1.71591 -3.51671 0
M  V30 3608 H 350.791 3.0945 -2.49652 0
M  V30 3609 N 351.788 1.33704 0.83433 0
M  V30 3610 C 352.736 1.24323 1.96587 0
M  V30 3611 C 353.73 0.143659 1.6879 0
M  V30 3612 O 354.936 0.30791 1.77347 0
M  V30 3613 H 351.311 0.385925 0.645419 0
M  V30 3614 H 353.282 2.19978 2.01624 0
M  V30 3615 C 352.031 1.00394 3.32891 0
M  V30 3616 H 351.354 1.84231 3.54822 0
M  V30 3617 H 352.794 0.97862 4.12552 0
M  V30 3618 C 351.253 -0.293047 3.35623 0
M  V30 3619 O 351.783 -1.29823 3.80143 0
M  V30 3620 N 349.989 -0.322174 2.88809 0
M  V30 3621 H 349.536 0.496379 2.52772 0
M  V30 3622 H 349.494 -1.18977 2.91019 0
M  V30 3623 N 353.266 -1.05314 1.17247 0
M  V30 3624 C 354.512 -1.78699 0.971513 0
M  V30 3625 C 354.867 -1.85932 -0.494692 0
M  V30 3626 O 354.16 -1.34716 -1.36243 0
M  V30 3627 C 354.354 -3.2229 1.54479 0
M  V30 3628 C 354.183 -3.29052 3.06521 0
M  V30 3629 C 352.953 -3.3841 3.75242 0
M  V30 3630 C 355.151 -3.18095 4.04129 0
M  V30 3631 N 353.133 -3.34289 5.14902 0
M  V30 3632 C 354.504 -3.21331 5.30232 0
M  V30 3633 C 356.559 -3.02049 3.95817 0
M  V30 3634 C 355.262 -3.10169 6.4899 0
M  V30 3635 C 357.288 -2.92228 5.14156 0
M  V30 3636 C 356.65 -2.96096 6.39145 0
M  V30 3637 H 352.749 -0.66628 0.409383 0
M  V30 3638 H 355.333 -1.25553 1.4881 0
M  V30 3639 H 353.504 -3.7381 1.05455 0
M  V30 3640 H 355.236 -3.83905 1.28059 0
M  V30 3641 H 351.991 -3.43621 3.25917 0
M  V30 3642 H 352.415 -3.35702 5.87906 0
M  V30 3643 H 357.057 -2.97897 3.00029 0
M  V30 3644 H 354.775 -3.13076 7.44989 0
M  V30 3645 H 358.361 -2.80885 5.09505 0
M  V30 3646 H 357.241 -2.88568 7.29176 0
M  V30 3647 N 354.744 -0.972509 -1.24016 0
M  V30 3648 C 355.674 -0.525548 -2.27509 0
M  V30 3649 C 356.655 0.437262 -1.64384 0
M  V30 3650 O 357.84 0.332343 -1.91335 0
M  V30 3651 C 354.97 0.180448 -3.46831 0
M  V30 3652 C 353.924 -0.698859 -4.22256 0
M  V30 3653 C 353.25 0.138903 -5.3452 0
M  V30 3654 C 354.55 -1.98582 -4.83076 0
M  V30 3655 H 356.244 -1.39058 -2.65148 0
M  V30 3656 H 353.79 -0.67009 -1.27459 0
M  V30 3657 H 355.743 0.504387 -4.18371 0
M  V30 3658 H 354.467 1.07987 -3.08231 0
M  V30 3659 H 353.126 -1.00614 -3.52523 0
M  V30 3660 H 352.774 1.03862 -4.9216 0
M  V30 3661 H 352.474 -0.446259 -5.85903 0
M  V30 3662 H 353.998 0.457404 -6.08884 0
M  V30 3663 H 355.412 -1.72715 -5.46665 0
M  V30 3664 H 353.809 -2.5181 -5.44713 0
M  V30 3665 H 354.879 -2.67769 -4.04262 0
M  V30 3666 N 356.222 1.38976 -0.743202 0
M  V30 3667 C 357.17 2.32394 -0.0978389 0
M  V30 3668 C 358.164 1.53486 0.716824 0
M  V30 3669 O 359.37 1.69092 0.617088 0
M  V30 3670 H 355.745 0.75189 -0.0128402 0
M  V30 3671 H 357.716 2.84441 -0.901981 0
M  V30 3672 C 356.465 3.38629 0.789036 0
M  V30 3673 H 355.788 3.99432 0.171559 0
M  V30 3674 H 357.228 4.06426 1.20807 0
M  V30 3675 C 355.687 2.76347 1.92702 0
M  V30 3676 O 356.217 2.64836 3.02034 0
M  V30 3677 N 354.423 2.34311 1.71891 0
M  V30 3678 H 353.97 2.43873 0.829675 0
M  V30 3679 H 353.928 1.9298 2.48205 0
M  V30 3680 N 357.7 0.491464 1.49741 0
M  V30 3681 C 358.947 -0.0564256 2.02421 0
M  V30 3682 C 359.275 -1.37872 1.37192 0
M  V30 3683 O 358.53 -1.89375 0.493508 0
M  V30 3684 C 358.829 -0.267329 3.56399 0
M  V30 3685 C 358.495 0.975775 4.40215 0
M  V30 3686 C 357.157 1.31655 4.62839 0
M  V30 3687 C 359.509 1.80251 4.89039 0
M  V30 3688 C 356.837 2.48375 5.31532 0
M  V30 3689 C 359.189 2.96116 5.59015 0
M  V30 3690 C 357.853 3.30585 5.79888 0
M  V30 3691 H 357.123 -0.0206476 0.740712 0
M  V30 3692 H 359.77 0.649686 1.80143 0
M  V30 3693 H 358.075 -1.05588 3.77304 0
M  V30 3694 H 359.772 -0.705549 3.94744 0
M  V30 3695 H 356.362 0.700315 4.2284 0
M  V30 3696 H 360.546 1.55239 4.71396 0
M  V30 3697 H 355.802 2.7533 5.45897 0
M  V30 3698 H 359.976 3.60509 5.95824 0
M  V30 3699 H 357.603 4.21132 6.32892 0
M  V30 3700 N 359.178 -1.55987 0.224894 0
M  V30 3701 C 360.455 -1.90232 -0.455083 0
M  V30 3702 C 360.835 -1.14269 -1.77499 0
M  V30 3703 O 360.183 -0.253079 -2.27094 0
M  V30 3704 C 360.393 -3.42993 -0.644758 0
M  V30 3705 C 361.741 -4.13821 -0.950669 0
M  V30 3706 O 362.765 -3.4861 -0.731423 0
M  V30 3707 O 361.624 -5.29128 -1.36695 0
M  V30 3708 H 358.718 -0.79108 -0.241084 0
M  V30 3709 H 361.264 -1.67581 0.267327 0
M  V30 3710 H 360.036 -3.90252 0.28613 0
M  V30 3711 H 359.659 -3.71434 -1.41853 0
M  V30 3712 N 360.656 0.0484629 -1.57525 0
M  V30 3713 C 361.904 0.741657 -1.88 0
M  V30 3714 C 362.225 1.76918 -0.820054 0
M  V30 3715 O 361.495 1.95335 0.148661 0
M  V30 3716 H 360.075 0.276908 -0.69378 0
M  V30 3717 H 362.737 0.019013 -1.94891 0
M  V30 3718 H 361.833 1.24336 -2.86264 0
M  V30 3719 N 362.134 1.5431 0.320358 0
M  V30 3720 C 363.362 1.76636 1.07738 0
M  V30 3721 C 363.777 0.51649 1.81598 0
M  V30 3722 O 363.134 -0.512942 1.75143 0
M  V30 3723 C 363.185 2.96158 2.07299 0
M  V30 3724 O 362.906 4.16313 1.36438 0
M  V30 3725 C 364.407 3.3072 2.95193 0
M  V30 3726 H 361.627 0.589597 0.320339 0
M  V30 3727 H 364.171 2.01207 0.36551 0
M  V30 3728 H 362.326 2.73851 2.74016 0
M  V30 3729 H 362.74 4.83565 2.03138 0
M  V30 3730 H 364.214 4.17643 3.60941 0
M  V30 3731 H 364.691 2.48026 3.62463 0
M  V30 3732 H 365.297 3.55117 2.34034 0
M  V30 3733 N 363.613 -0.582584 1.46437 0
M  V30 3734 C 364.543 -1.70187 1.59871 0
M  V30 3735 C 365.524 -1.64066 0.449042 0
M  V30 3736 O 366.709 -1.82081 0.6753 0
M  V30 3737 C 363.839 -3.08827 1.58881 0
M  V30 3738 C 362.793 -3.29779 2.72819 0
M  V30 3739 C 362.119 -4.68947 2.5689 0
M  V30 3740 C 363.419 -3.17601 4.1464 0
M  V30 3741 H 365.113 -1.592 2.53566 0
M  V30 3742 H 362.659 -0.764472 1.22032 0
M  V30 3743 H 364.612 -3.86951 1.66873 0
M  V30 3744 H 363.336 -3.20713 0.617306 0
M  V30 3745 H 361.995 -2.54054 2.64296 0
M  V30 3746 H 361.643 -4.77599 1.57823 0
M  V30 3747 H 361.343 -4.83919 3.33312 0
M  V30 3748 H 362.867 -5.4924 2.66773 0
M  V30 3749 H 364.281 -3.8557 4.24274 0
M  V30 3750 H 362.678 -3.44094 4.9165 0
M  V30 3751 H 363.748 -2.14681 4.34788 0
M  V30 3752 N 365.091 -1.34144 -0.827227 0
M  V30 3753 C 366.021 -1.28005 -1.95287 0
M  V30 3754 C 367.002 -0.158321 -1.69362 0
M  V30 3755 O 368.187 -0.349987 -1.9102 0
M  V30 3756 C 365.317 -1.03036 -3.31664 0
M  V30 3757 C 364.271 -2.11628 -3.72019 0
M  V30 3758 C 363.597 -1.71854 -5.0633 0
M  V30 3759 C 364.897 -3.53417 -3.8457 0
M  V30 3760 H 366.591 -2.22187 -2.00682 0
M  V30 3761 H 364.137 -1.0696 -0.964135 0
M  V30 3762 H 366.09 -0.973863 -4.09993 0
M  V30 3763 H 364.814 -0.0529391 -3.26557 0
M  V30 3764 H 363.473 -2.16339 -2.95961 0
M  V30 3765 H 363.121 -0.727841 -4.97706 0
M  V30 3766 H 362.821 -2.44531 -5.34302 0
M  V30 3767 H 364.345 -1.67692 -5.87122 0
M  V30 3768 H 365.759 -3.51142 -4.5318 0
M  V30 3769 H 364.156 -4.24679 -4.2399 0
M  V30 3770 H 365.226 -3.91072 -2.86689 0
M  V30 3771 N 366.569 1.04691 -1.17803 0
M  V30 3772 C 367.817 1.7743 -0.967617 0
M  V30 3773 C 368.138 1.88359 0.504574 0
M  V30 3774 O 367.408 1.40402 1.36617 0
M  V30 3775 H 365.988 0.657242 -0.355024 0
M  V30 3776 H 368.65 1.2638 -1.48371 0
M  V30 3777 H 367.746 2.78924 -1.40027 0
M  V30 3778 N 368.047 0.979072 1.23499 0
M  V30 3779 C 368.995 0.510604 2.26926 0
M  V30 3780 C 369.989 -0.431691 1.63807 0
M  V30 3781 O 371.195 -0.30573 1.77385 0
M  V30 3782 H 367.57 0.146688 0.737554 0
M  V30 3783 H 369.541 1.39466 2.63803 0
M  V30 3784 C 368.29 -0.172658 3.47271 0
M  V30 3785 H 367.613 0.543331 3.96091 0
M  V30 3786 H 369.053 -0.464101 4.21452 0
M  V30 3787 C 367.512 -1.40345 3.06276 0
M  V30 3788 O 368.042 -2.49978 3.14442 0
M  V30 3789 N 366.248 -1.27362 2.61203 0
M  V30 3790 H 365.795 -0.381584 2.54758 0
M  V30 3791 H 365.753 -2.09822 2.34141 0
M  V30 3792 N 369.525 -1.3858 0.750561 0
M  V30 3793 C 370.455 -2.33102 0.136237 0
M  V30 3794 C 371.436 -1.54713 -0.706965 0
M  V30 3795 O 372.621 -1.83043 -0.648769 0
M  V30 3796 C 369.751 -3.38882 -0.760017 0
M  V30 3797 C 368.705 -4.27995 -0.0197785 0
M  V30 3798 C 368.031 -5.24605 -1.03408 0
M  V30 3799 C 369.331 -5.09554 1.14684 0
M  V30 3800 H 371.025 -2.84726 0.925822 0
M  V30 3801 H 368.571 -1.36898 0.446654 0
M  V30 3802 H 370.524 -4.0397 -1.19943 0
M  V30 3803 H 369.248 -2.85734 -1.58189 0
M  V30 3804 H 367.907 -3.64409 0.400184 0
M  V30 3805 H 367.555 -4.67746 -1.84994 0
M  V30 3806 H 367.255 -5.85081 -0.543464 0
M  V30 3807 H 368.779 -5.9257 -1.47288 0
M  V30 3808 H 370.193 -5.67899 0.785118 0
M  V30 3809 H 368.59 -5.7925 1.56812 0
M  V30 3810 H 369.66 -4.4347 1.96118 0
M  V30 3811 N 371.003 -0.499398 -1.49478 0
M  V30 3812 C 371.933 0.269244 -2.31943 0
M  V30 3813 C 372.914 0.964054 -1.40143 0
M  V30 3814 O 374.099 0.955767 -1.69052 0
M  V30 3815 C 371.229 1.33504 -3.20615 0
M  V30 3816 C 370.183 0.760202 -4.21195 0
M  V30 3817 C 369.509 1.9264 -4.98792 0
M  V30 3818 C 370.809 -0.247661 -5.21712 0
M  V30 3819 H 372.503 -0.419082 -2.96452 0
M  V30 3820 H 370.049 -0.202988 -1.42562 0
M  V30 3821 H 372.002 1.88048 -3.77115 0
M  V30 3822 H 370.726 2.05253 -2.54045 0
M  V30 3823 H 369.385 0.23653 -3.65836 0
M  V30 3824 H 369.033 2.63154 -4.28671 0
M  V30 3825 H 368.733 1.54785 -5.66847 0
M  V30 3826 H 370.257 2.4762 -5.58137 0
M  V30 3827 H 371.671 0.209579 -5.72917 0
M  V30 3828 H 370.068 -0.541962 -5.97648 0
M  V30 3829 H 371.138 -1.16409 -4.7072 0
M  V30 3830 N 372.481 1.55866 -0.233164 0
M  V30 3831 C 373.73 1.97779 0.39579 0
M  V30 3832 C 374.043 1.12419 1.60066 0
M  V30 3833 O 375.249 1.44283 2.29988 0
M  V30 3834 C 373.705 3.5188 0.755556 0
M  V30 3835 C 373.313 4.45959 -0.427152 0
M  V30 3836 C 375.057 4.02479 1.34946 0
M  V30 3837 C 372.964 5.91383 -0.0443043 0
M  V30 3838 H 371.894 0.738592 0.15165 0
M  V30 3839 H 374.545 1.80486 -0.331212 0
M  V30 3840 H 372.927 3.64816 1.5403 0
M  V30 3841 H 374.101 4.44776 -1.20462 0
M  V30 3842 H 372.416 4.05765 -0.935068 0
M  V30 3843 H 375.013 5.08637 1.649 0
M  V30 3844 H 375.356 3.49014 2.26925 0
M  V30 3845 H 375.889 3.92813 0.62791 0
M  V30 3846 H 372.628 6.48857 -0.930874 0
M  V30 3847 H 372.148 5.95734 0.697238 0
M  V30 3848 H 373.827 6.45893 0.378334 0
M  V30 3849 N 373.959 -0.0401083 1.57549 0
M  V30 3850 C 375.206 -0.733125 1.88763 0
M  V30 3851 C 375.534 -1.75946 0.829058 0
M  V30 3852 O 374.789 -1.94949 -0.171323 0
M  V30 3853 C 375.088 -1.44902 3.26708 0
M  V30 3854 C 374.754 -0.559707 4.47413 0
M  V30 3855 C 373.416 -0.314731 4.8017 0
M  V30 3856 C 375.768 0.0549743 5.21171 0
M  V30 3857 C 373.096 0.553886 5.8408 0
M  V30 3858 C 375.448 0.911229 6.26003 0
M  V30 3859 C 374.112 1.16577 6.57241 0
M  V30 3860 H 373.382 -0.268269 0.690733 0
M  V30 3861 H 376.029 0.00679408 1.91499 0
M  V30 3862 H 374.334 -2.26197 3.1991 0
M  V30 3863 H 376.031 -1.99058 3.48105 0
M  V30 3864 H 372.621 -0.760793 4.21794 0
M  V30 3865 H 376.805 -0.121344 4.96152 0
M  V30 3866 H 372.061 0.759518 6.06664 0
M  V30 3867 H 376.235 1.3941 6.82303 0
M  V30 3868 H 373.862 1.84058 7.37582 0
M  V30 3869 N 375.437 -1.54477 -0.31217 0
M  V30 3870 C 376.848 -1.64344 -0.885891 0
M  V30 3871 C 377.199 -0.54485 -1.88483 0
M  V30 3872 O 376.324 0.320387 -2.14015 0
M  V30 3873 C 376.919 -2.97908 -1.61357 0
M  V30 3874 C 375.478 -3.09933 -2.13585 0
M  V30 3875 C 374.625 -2.59971 -0.964897 0
M  V30 3876 H 377.576 -1.58448 -0.0894528 0
M  V30 3877 H 377.597 -2.88706 -2.47848 0
M  V30 3878 H 377.109 -3.77845 -0.886277 0
M  V30 3879 H 375.21 -2.34694 -2.89395 0
M  V30 3880 H 375.323 -4.15916 -2.37804 0
M  V30 3881 H 373.687 -2.16147 -1.34731 0
M  V30 3882 H 374.47 -3.42376 -0.251742 0
M  V30 3883 N 376.915 0.57481 -1.46744 0
M  V30 3884 C 377.865 1.67838 -1.54319 0
M  V30 3885 C 378.849 1.55759 -0.40346 0
M  V30 3886 O 380.041 1.6454 -0.652347 0
M  V30 3887 C 377.17 3.06624 -1.5439 0
M  V30 3888 C 376.256 3.23971 -2.73685 0
M  V30 3889 N 376.647 3.11447 -3.9854 0
M  V30 3890 C 374.945 3.5493 -2.70075 0
M  V30 3891 C 375.646 3.31011 -4.78337 0
M  V30 3892 N 374.622 3.56533 -4.10348 0
M  V30 3893 H 378.424 1.56698 -2.48642 0
M  V30 3894 H 375.938 0.779071 -1.42493 0
M  V30 3895 H 377.935 3.85839 -1.57905 0
M  V30 3896 H 376.595 3.1889 -0.611493 0
M  V30 3897 H 377.606 2.89145 -4.29669 0
M  V30 3898 H 374.283 3.73832 -1.85893 0
M  V30 3899 H 375.673 3.26445 -5.87268 0
M  V30 3900 N 378.394 1.34581 0.820102 0
M  V30 3901 C 379.326 1.22236 1.93884 0
M  V30 3902 C 380.339 0.148776 1.62119 0
M  V30 3903 O 381.528 0.400877 1.7394 0
M  V30 3904 C 378.628 0.856542 3.27897 0
M  V30 3905 C 377.801 2.02569 3.87666 0
M  V30 3906 C 376.86 1.63782 5.00062 0
M  V30 3907 O 375.886 2.35477 5.18208 0
M  V30 3908 N 377.088 0.553611 5.77854 0
M  V30 3909 H 379.853 2.18615 2.05006 0
M  V30 3910 H 377.414 1.27573 0.99683 0
M  V30 3911 H 379.406 0.578806 4.0054 0
M  V30 3912 H 377.976 -0.0171518 3.12595 0
M  V30 3913 H 377.196 2.468 3.07382 0
M  V30 3914 H 378.484 2.80752 4.24329 0
M  V30 3915 H 377.882 -0.0423528 5.65684 0
M  V30 3916 H 376.439 0.335614 6.50935 0
M  V30 3917 N 379.872 -1.04064 1.18357 0
M  V30 3918 C 381.119 -1.77265 0.978947 0
M  V30 3919 C 381.447 -1.88189 -0.491428 0
M  V30 3920 O 380.702 -1.38653 -1.38108 0
M  V30 3921 C 381.001 -3.20634 1.57888 0
M  V30 3922 C 380.667 -3.29743 3.07539 0
M  V30 3923 C 379.329 -3.31937 3.48384 0
M  V30 3924 C 381.681 -3.29841 4.03552 0
M  V30 3925 C 379.009 -3.3187 4.83818 0
M  V30 3926 C 381.361 -3.31313 5.38901 0
M  V30 3927 C 380.025 -3.31799 5.79194 0
M  V30 3928 H 379.295 -0.648659 0.358222 0
M  V30 3929 H 381.942 -1.22225 1.47422 0
M  V30 3930 H 380.247 -3.78675 1.00561 0
M  V30 3931 H 381.944 -3.75917 1.39598 0
M  V30 3932 H 378.534 -3.28757 2.74986 0
M  V30 3933 H 382.718 -3.27337 3.73047 0
M  V30 3934 H 377.974 -3.30562 5.14333 0
M  V30 3935 H 382.148 -3.30338 6.13066 0
M  V30 3936 H 379.775 -3.315 6.84114 0
M  V30 3937 N 381.35 -0.985608 -1.22978 0
M  V30 3938 C 382.599 -0.652881 -1.90841 0
M  V30 3939 C 382.912 0.817842 -1.77681 0
M  V30 3940 O 384.118 1.26185 -2.40395 0
M  V30 3941 C 382.574 -1.11717 -3.42122 0
M  V30 3942 C 382.182 -2.6126 -3.63933 0
M  V30 3943 C 383.926 -0.85843 -4.1573 0
M  V30 3944 C 381.833 -3.0133 -5.08876 0
M  V30 3945 H 380.763 -0.240491 -0.714619 0
M  V30 3946 H 383.414 -1.1942 -1.39324 0
M  V30 3947 H 381.796 -0.504027 -3.92779 0
M  V30 3948 H 382.97 -3.27858 -3.23799 0
M  V30 3949 H 381.285 -2.84937 -3.03644 0
M  V30 3950 H 383.882 -1.13359 -5.22546 0
M  V30 3951 H 384.225 0.205461 -4.15793 0
M  V30 3952 H 384.758 -1.43341 -3.71077 0
M  V30 3953 H 381.497 -4.06864 -5.13947 0
M  V30 3954 H 381.017 -2.3943 -5.49939 0
M  V30 3955 H 382.696 -2.92224 -5.77247 0
M  V30 3956 N 382.828 1.3818 -0.7579 0
M  V30 3957 C 383.776 2.32277 -0.122482 0
M  V30 3958 C 384.77 1.54238 0.700505 0
M  V30 3959 O 385.976 1.69737 0.599119 0
M  V30 3960 H 382.351 0.751712 -0.0208143 0
M  V30 3961 H 384.322 2.83469 -0.932099 0
M  V30 3962 C 383.071 3.39447 0.753076 0
M  V30 3963 H 382.394 3.99591 0.129184 0
M  V30 3964 H 383.834 4.07684 1.16489 0
M  V30 3965 C 382.293 2.78375 1.8976 0
M  V30 3966 O 382.823 2.68025 2.99208 0
M  V30 3967 N 381.029 2.36121 1.69397 0
M  V30 3968 H 380.576 2.4474 0.803762 0
M  V30 3969 H 380.534 1.95602 2.46145 0
M  V30 3970 N 384.306 0.507319 1.49211 0
M  V30 3971 C 385.236 -0.256939 2.32082 0
M  V30 3972 C 386.217 -0.956609 1.40652 0
M  V30 3973 O 387.402 -0.946788 1.69557 0
M  V30 3974 C 384.532 -1.31802 3.21318 0
M  V30 3975 C 383.486 -0.737855 4.21592 0
M  V30 3976 C 382.812 -1.89992 4.99807 0
M  V30 3977 C 384.112 0.275325 5.21574 0
M  V30 3978 H 385.806 0.434798 2.96226 0
M  V30 3979 H 383.352 0.210546 1.42452 0
M  V30 3980 H 385.305 -1.86045 3.78107 0
M  V30 3981 H 384.029 -2.03903 2.5513 0
M  V30 3982 H 382.688 -0.217126 3.65956 0
M  V30 3983 H 382.336 -2.60877 4.30061 0
M  V30 3984 H 382.036 -1.51777 5.6766 0
M  V30 3985 H 383.56 -2.44657 5.59442 0
M  V30 3986 H 384.974 -0.179193 5.7302 0
M  V30 3987 H 383.371 0.573649 5.97352 0
M  V30 3988 H 384.441 1.18903 4.70096 0
M  V30 3989 N 385.784 -1.5574 0.241426 0
M  V30 3990 C 387.2 -1.59196 -0.113548 0
M  V30 3991 C 387.4 -1.25852 -1.57364 0
M  V30 3992 O 386.456 -1.00322 -2.31715 0
M  V30 3993 C 387.769 -2.99814 0.230695 0
M  V30 3994 C 389.317 -3.12513 0.174547 0
M  V30 3995 C 389.792 -4.55342 0.492744 0
M  V30 3996 N 391.283 -4.61076 0.443043 0
M  V30 3997 C 392.018 -5.6956 0.662484 0
M  V30 3998 N 391.514 -6.86328 0.944761 0
M  V30 3999 N 393.307 -5.58957 0.593564 0
M  V30 4000 H 385.458 -1.75685 1.19368 0
M  V30 4001 H 387.721 -0.81756 0.479896 0
M  V30 4002 H 387.427 -3.28932 1.24485 0
M  V30 4003 H 387.301 -3.74568 -0.444833 0
M  V30 4004 H 389.688 -2.83179 -0.830277 0
M  V30 4005 H 389.769 -2.40045 0.883845 0
M  V30 4006 H 389.413 -4.85396 1.4951 0
M  V30 4007 H 389.343 -5.26062 -0.23797 0
M  V30 4008 H 391.834 -3.77179 0.233374 0
M  V30 4009 H 392.147 -7.64935 1.09977 0
M  V30 4010 H 390.492 -6.88025 0.982175 0
M  V30 4011 H 393.683 -4.66611 0.373123 0
M  V30 4012 H 393.856 -6.43433 0.767981 0
M  V30 4013 N 387.262 0.0317525 -1.57568 0
M  V30 4014 C 388.487 0.738664 -1.938 0
M  V30 4015 C 388.912 1.68242 -0.841208 0
M  V30 4016 O 388.27 1.80157 0.203267 0
M  V30 4017 C 388.318 1.47417 -3.29091 0
M  V30 4018 O 387.422 2.5872 -3.2115 0
M  V30 4019 H 386.763 0.198856 -0.633524 0
M  V30 4020 H 389.293 -0.0119713 -2.04596 0
M  V30 4021 H 389.303 1.84468 -3.63917 0
M  V30 4022 H 387.978 0.781988 -4.08482 0
M  V30 4023 H 386.555 2.24231 -2.97951 0
M  V30 4024 N 388.74 1.54641 0.303973 0
M  V30 4025 C 389.688 1.86137 1.39484 0
M  V30 4026 C 390.682 0.734854 1.52631 0
M  V30 4027 O 391.888 0.918803 1.54784 0
M  V30 4028 H 388.263 0.590324 0.465856 0
M  V30 4029 H 390.234 2.77324 1.10154 0
M  V30 4030 C 388.983 2.12274 2.75382 0
M  V30 4031 H 388.306 2.98429 2.66046 0
M  V30 4032 H 389.746 2.38254 3.5073 0
M  V30 4033 C 388.205 0.920365 3.24085 0
M  V30 4034 O 388.735 0.139377 4.01458 0
M  V30 4035 N 386.941 0.726566 2.81371 0
M  V30 4036 H 386.488 1.36332 2.18567 0
M  V30 4037 H 386.446 -0.0763799 3.14307 0
M  V30 4038 N 390.218 -0.567019 1.47046 0
M  V30 4039 C 391.166 -1.69593 1.59188 0
M  V30 4040 C 392.16 -1.63046 0.459609 0
M  V30 4041 O 393.366 -1.6835 0.637058 0
M  V30 4042 H 389.741 -0.560993 0.500791 0
M  V30 4043 H 391.712 -1.56488 2.54075 0
M  V30 4044 C 390.461 -3.07964 1.61411 0
M  V30 4045 H 389.784 -3.13679 2.47881 0
M  V30 4046 H 391.224 -3.86671 1.73958 0
M  V30 4047 C 389.683 -3.35123 0.34559 0
M  V30 4048 O 390.213 -3.97812 -0.557521 0
M  V30 4049 N 388.419 -2.89699 0.22864 0
M  V30 4050 H 387.966 -2.38863 0.964479 0
M  V30 4051 H 387.924 -3.08242 -0.619192 0
M  V30 4052 N 391.696 -1.35014 -0.812953 0
M  V30 4053 C 392.921 -1.31187 -1.60639 0
M  V30 4054 C 393.346 0.109382 -1.87782 0
M  V30 4055 O 392.704 1.07424 -1.46047 0
M  V30 4056 C 392.752 -2.11809 -2.91838 0
M  V30 4057 O 391.856 -1.49444 -3.8437 0
M  V30 4058 H 391.197 -0.450084 -0.488181 0
M  V30 4059 H 393.727 -1.77963 -1.00947 0
M  V30 4060 H 393.737 -2.23531 -3.41318 0
M  V30 4061 H 392.412 -3.15137 -2.71407 0
M  V30 4062 H 390.989 -1.46524 -3.42907 0
M  V30 4063 N 393.175 1.03435 -1.18907 0
M  V30 4064 C 394.138 2.09756 -0.923844 0
M  V30 4065 C 395.138 1.60528 0.093416 0
M  V30 4066 O 396.328 1.73631 -0.140727 0
M  V30 4067 C 393.46 3.38692 -0.387354 0
M  V30 4068 H 394.653 2.34719 -1.86674 0
M  V30 4069 H 392.206 1.19959 -1.00197 0
M  V30 4070 H 392.941 3.19396 0.561845 0
M  V30 4071 H 392.726 3.75742 -1.12074 0
M  V30 4072 H 394.216 4.17016 -0.220694 0
M  V30 4073 N 394.653 0.992116 1.22453 0
M  V30 4074 C 395.881 0.685944 1.95198 0
M  V30 4075 C 396.296 -0.749233 1.73297 0
M  V30 4076 O 395.653 -1.50549 1.03156 0
M  V30 4077 C 395.704 0.981395 3.47924 0
M  V30 4078 O 395.425 2.36018 3.6909 0
M  V30 4079 C 396.926 0.692815 4.37853 0
M  V30 4080 H 394.146 0.253821 0.621141 0
M  V30 4081 H 396.69 1.32668 1.55626 0
M  V30 4082 H 394.845 0.386481 3.85467 0
M  V30 4083 H 395.259 2.45884 4.63294 0
M  V30 4084 H 396.733 0.949818 5.43767 0
M  V30 4085 H 397.21 -0.373181 4.37612 0
M  V30 4086 H 397.816 1.26874 4.05935 0
M  V30 4087 N 396.131 -1.37776 0.765217 0
M  V30 4088 C 397.061 -2.32945 0.160953 0
M  V30 4089 C 398.042 -1.55454 -0.690516 0
M  V30 4090 O 399.227 -1.83721 -0.629318 0
M  V30 4091 C 396.357 -3.39669 -0.724031 0
M  V30 4092 C 395.311 -4.27992 0.0256173 0
M  V30 4093 C 394.637 -5.25673 -0.978383 0
M  V30 4094 C 395.937 -5.08309 1.20082 0
M  V30 4095 H 397.631 -2.83728 0.955969 0
M  V30 4096 H 395.177 -1.36416 0.461149 0
M  V30 4097 H 397.13 -4.05219 -1.15652 0
M  V30 4098 H 395.854 -2.87396 -1.5515 0
M  V30 4099 H 394.513 -3.63964 0.438812 0
M  V30 4100 H 394.161 -4.69682 -1.80022 0
M  V30 4101 H 393.861 -5.85625 -0.481378 0
M  V30 4102 H 395.385 -5.94098 -1.40995 0
M  V30 4103 H 396.799 -5.67034 0.845307 0
M  V30 4104 H 395.196 -5.77554 1.62947 0
M  V30 4105 H 396.266 -4.41365 2.00811 0
M  V30 4106 N 397.609 -0.515225 -1.4894 0
M  V30 4107 C 398.858 0.0261361 -2.01683 0
M  V30 4108 C 399.171 1.36719 -1.39883 0
M  V30 4109 O 400.377 1.99606 -1.84037 0
M  V30 4110 C 398.833 0.0970111 -3.59769 0
M  V30 4111 C 398.441 -1.23825 -4.30548 0
M  V30 4112 C 400.185 0.587981 -4.20408 0
M  V30 4113 C 398.092 -1.12877 -5.80528 0
M  V30 4114 H 397.022 0.0135398 -0.753878 0
M  V30 4115 H 399.673 -0.656787 -1.71343 0
M  V30 4116 H 398.055 0.844694 -3.86886 0
M  V30 4117 H 399.229 -2.00034 -4.15118 0
M  V30 4118 H 397.544 -1.66379 -3.81716 0
M  V30 4119 H 400.141 0.68763 -5.3026 0
M  V30 4120 H 400.484 1.59026 -3.84729 0
M  V30 4121 H 401.017 -0.103582 -3.97665 0
M  V30 4122 H 397.756 -2.10575 -6.20756 0
M  V30 4123 H 397.276 -0.407799 -5.98412 0
M  V30 4124 H 398.955 -0.813332 -6.41868 0
M  V30 4125 N 399.087 1.5561 -0.249682 0
M  V30 4126 C 400.333 1.99306 0.374841 0
M  V30 4127 C 400.666 1.13767 1.57387 0
M  V30 4128 O 399.941 0.201711 1.93451 0
M  V30 4129 C 400.224 3.51507 0.781986 0
M  V30 4130 C 400.077 4.4781 -0.422629 0
M  V30 4131 C 401.396 4.08884 1.62793 0
M  V30 4132 H 398.515 0.724572 0.134773 0
M  V30 4133 H 401.157 1.86719 -0.351549 0
M  V30 4134 H 399.307 3.62363 1.4009 0
M  V30 4135 H 400.979 4.48931 -1.06108 0
M  V30 4136 H 399.222 4.20518 -1.06524 0
M  V30 4137 H 399.893 5.51919 -0.0943766 0
M  V30 4138 H 402.369 4.01147 1.10547 0
M  V30 4139 H 401.245 5.1564 1.88166 0
M  V30 4140 H 401.506 3.57515 2.60068 0
M  V30 4141 N 400.565 -0.0233959 1.57583 0
M  V30 4142 C 401.976 -0.56927 1.77809 0
M  V30 4143 C 402.327 -1.75284 0.881472 0
M  V30 4144 O 401.452 -2.1626 0.0777805 0
M  V30 4145 C 402.047 -1.03949 3.22459 0
M  V30 4146 C 400.606 -1.53084 3.43864 0
M  V30 4147 C 399.753 -0.471454 2.73263 0
M  V30 4148 H 402.704 0.202825 1.57399 0
M  V30 4149 H 402.725 -1.90661 3.29285 0
M  V30 4150 H 402.237 -0.177865 3.87692 0
M  V30 4151 H 400.338 -2.41414 2.83814 0
M  V30 4152 H 400.451 -1.57443 4.52491 0
M  V30 4153 H 398.815 -0.927788 2.37201 0
M  V30 4154 H 399.598 0.380808 3.41181 0
M  V30 4155 N 402.043 -1.548 -0.295768 0
M  V30 4156 C 403.273 -1.78069 -1.04762 0
M  V30 4157 C 403.681 -0.542847 -1.81245 0
M  V30 4158 O 403.024 0.497051 -1.76848 0
M  V30 4159 C 403.086 -2.93881 -2.07061 0
M  V30 4160 C 402.75 -4.31777 -1.49725 0
M  V30 4161 C 403.747 -5.11613 -0.924581 0
M  V30 4162 C 401.432 -4.78389 -1.5313 0
M  V30 4163 C 403.426 -6.36184 -0.393594 0
M  V30 4164 C 401.113 -6.02921 -0.996447 0
M  V30 4165 C 402.111 -6.81654 -0.428569 0
M  V30 4166 O 401.799 -8.0384 0.0981593 0
M  V30 4167 H 401.531 -0.597475 -0.316226 0
M  V30 4168 H 404.085 -2.02584 -0.338973 0
M  V30 4169 H 402.315 -2.65003 -2.81621 0
M  V30 4170 H 404.004 -3.04679 -2.6819 0
M  V30 4171 H 404.77 -4.76743 -0.891136 0
M  V30 4172 H 400.649 -4.17132 -1.9627 0
M  V30 4173 H 404.193 -6.97582 0.0503014 0
M  V30 4174 H 400.09 -6.37277 -1.02706 0
M  V30 4175 H 400.858 -8.18499 -0.0146455 0
M  V30 4176 N 403.521 0.559213 -1.47345 0
M  V30 4177 C 404.767 1.31843 -1.54095 0
M  V30 4178 C 405.1 1.93149 -0.201726 0
M  V30 4179 O 404.375 1.77759 0.789428 0
M  V30 4180 C 404.658 2.43006 -2.65744 0
M  V30 4181 C 404.511 1.86581 -4.09277 0
M  V30 4182 C 405.83 3.44943 -2.73318 0
M  V30 4183 H 402.949 0.478012 -0.560957 0
M  V30 4184 H 405.591 0.625977 -1.79392 0
M  V30 4185 H 403.741 3.02072 -2.44305 0
M  V30 4186 H 405.413 1.31792 -4.42073 0
M  V30 4187 H 403.656 1.17268 -4.17649 0
M  V30 4188 H 404.327 2.66933 -4.83168 0
M  V30 4189 H 406.803 2.95793 -2.92653 0
M  V30 4190 H 405.679 4.20153 -3.53218 0
M  V30 4191 H 405.94 4.03665 -1.80296 0
M  V30 4192 N 404.999 1.35443 0.805782 0
M  V30 4193 C 405.947 1.28465 1.93906 0
M  V30 4194 C 406.941 0.17943 1.68447 0
M  V30 4195 O 408.147 0.345459 1.76654 0
M  V30 4196 H 404.522 0.399528 0.637088 0
M  V30 4197 H 406.493 2.24206 1.96912 0
M  V30 4198 C 405.242 1.07432 3.30687 0
M  V30 4199 H 404.565 1.91716 3.50835 0
M  V30 4200 H 406.005 1.06591 4.10383 0
M  V30 4201 C 404.464 -0.22179 3.36169 0
M  V30 4202 O 404.994 -1.21731 3.82811 0
M  V30 4203 N 403.2 -0.260841 2.89427 0
M  V30 4204 H 402.747 0.549884 2.51663 0
M  V30 4205 H 402.705 -1.12777 2.93477 0
M  V30 4206 N 406.477 -1.02803 1.19454 0
M  V30 4207 C 407.44 -2.09264 0.934955 0
M  V30 4208 C 408.44 -1.60576 -0.0849015 0
M  V30 4209 O 409.63 -1.73554 0.149933 0
M  V30 4210 C 406.762 -3.38482 0.40531 0
M  V30 4211 H 407.955 -2.33726 1.87916 0
M  V30 4212 H 405.508 -1.19426 1.00832 0
M  V30 4213 H 406.243 -3.19689 -0.544899 0
M  V30 4214 H 406.028 -3.75142 1.14065 0
M  V30 4215 H 407.518 -4.16894 0.242806 0
M  V30 4216 N 407.956 -0.998596 -1.21925 0
M  V30 4217 C 409.202 -0.678667 -1.91107 0
M  V30 4218 C 409.535 0.78791 -1.77498 0
M  V30 4219 O 408.81 1.57043 -1.1475 0
M  V30 4220 C 409.093 -1.09245 -3.43129 0
M  V30 4221 C 408.946 -2.61801 -3.6576 0
M  V30 4222 C 410.265 -0.649984 -4.35274 0
M  V30 4223 H 407.384 -0.248025 -0.694012 0
M  V30 4224 H 410.026 -1.24314 -1.43688 0
M  V30 4225 H 408.176 -0.612171 -3.83647 0
M  V30 4226 H 409.848 -3.17543 -3.34611 0
M  V30 4227 H 408.091 -3.03609 -3.09845 0
M  V30 4228 H 408.762 -2.85804 -4.7225 0
M  V30 4229 H 411.238 -1.0626 -4.02303 0
M  V30 4230 H 410.114 -0.967743 -5.40302 0
M  V30 4231 H 410.375 0.449139 -4.39813 0
M  V30 4232 N 409.434 1.37368 -0.772513 0
M  V30 4233 C 410.845 1.8231 -0.402493 0
M  V30 4234 C 411.196 1.6436 1.07146 0
M  V30 4235 O 410.321 1.15514 1.82991 0
M  V30 4236 C 410.916 3.30979 -0.723776 0
M  V30 4237 C 409.475 3.74195 -0.406802 0
M  V30 4238 C 408.622 2.59885 -0.967218 0
M  V30 4239 H 411.573 1.25829 -0.967099 0
M  V30 4240 H 411.594 3.80499 -0.00870832 0
M  V30 4241 H 411.106 3.44011 -1.7966 0
M  V30 4242 H 409.207 3.66732 0.658673 0
M  V30 4243 H 409.32 4.7027 -0.915588 0
M  V30 4244 H 407.684 2.51674 -0.391416 0
M  V30 4245 H 408.467 2.7571 -2.04546 0
M  V30 4246 N 410.912 0.523116 1.48665 0
M  V30 4247 C 411.845 -0.290518 2.26343 0
M  V30 4248 C 412.823 -0.950913 1.31895 0
M  V30 4249 O 414.007 -0.976662 1.61225 0
M  V30 4250 C 411.134 -1.41088 3.07915 0
M  V30 4251 C 410.18 -0.862597 4.17686 0
M  V30 4252 S 411.013 0.264135 5.34848 0
M  V30 4253 C 412.169 -0.858864 6.19979 0
M  V30 4254 H 412.402 0.368726 2.95005 0
M  V30 4255 H 409.935 0.30878 1.51281 0
M  V30 4256 H 411.893 -2.0527 3.55492 0
M  V30 4257 H 410.554 -2.04182 2.38681 0
M  V30 4258 H 409.747 -1.70287 4.74361 0
M  V30 4259 H 409.349 -0.297595 3.72814 0
M  V30 4260 H 411.641 -1.7591 6.54264 0
M  V30 4261 H 412.584 -0.330244 7.07329 0
M  V30 4262 H 412.992 -1.13617 5.52948 0
M  V30 4263 N 412.39 -1.55475 0.257931 0
M  V30 4264 C 413.667 -1.91155 -0.414629 0
M  V30 4265 C 414.047 -1.18008 -1.75035 0
M  V30 4266 O 413.395 -0.301193 -2.26506 0
M  V30 4267 C 413.605 -3.44283 -0.571859 0
M  V30 4268 C 414.953 -4.15744 -0.862678 0
M  V30 4269 O 415.977 -3.50083 -0.657314 0
M  V30 4270 O 414.836 -5.31909 -1.2544 0
M  V30 4271 H 411.93 -0.796016 -0.22425 0
M  V30 4272 H 414.476 -1.66976 0.302814 0
M  V30 4273 H 413.248 -3.89558 0.368844 0
M  V30 4274 H 412.871 -3.7436 -1.33943 0
M  V30 4275 N 413.868 0.0150385 -1.57593 0
M  V30 4276 C 415.093 0.718067 -1.94573 0
M  V30 4277 C 415.518 1.6734 -0.859005 0
M  V30 4278 O 414.876 1.80362 0.184147 0
M  V30 4279 C 414.924 1.43918 -3.30636 0
M  V30 4280 O 414.028 2.55299 -3.23876 0
M  V30 4281 H 413.369 0.192125 -0.635597 0
M  V30 4282 H 415.899 -0.0336708 -2.04572 0
M  V30 4283 H 415.909 1.80598 -3.65853 0
M  V30 4284 H 414.584 0.738619 -4.09289 0
M  V30 4285 H 413.161 2.21058 -3.00312 0
M  V30 4286 N 415.346 1.54954 0.287554 0
M  V30 4287 C 416.279 1.81737 1.3801 0
M  V30 4288 C 417.257 0.669412 1.48181 0
M  V30 4289 O 418.441 0.910839 1.65033 0
M  V30 4290 C 415.568 1.96606 2.75796 0
M  V30 4291 C 414.614 3.19098 2.82982 0
M  V30 4292 S 415.447 4.7683 2.43707 0
M  V30 4293 C 416.603 4.94653 3.83496 0
M  V30 4294 H 416.836 2.74122 1.15085 0
M  V30 4295 H 414.369 1.46538 0.486403 0
M  V30 4296 H 416.327 2.05858 3.55152 0
M  V30 4297 H 414.988 1.05136 2.95982 0
M  V30 4298 H 414.181 3.26344 3.84077 0
M  V30 4299 H 413.783 3.08361 2.11635 0
M  V30 4300 H 416.075 4.79502 4.78628 0
M  V30 4301 H 417.018 5.96728 3.8121 0
M  V30 4302 H 417.426 4.2272 3.74123 0
M  V30 4303 N 416.824 -0.551391 1.4764 0
M  V30 4304 C 418.07 -1.31024 1.54792 0
M  V30 4305 C 418.403 -1.9304 0.211967 0
M  V30 4306 O 417.678 -1.78175 -0.77999 0
M  V30 4307 C 417.961 -2.41593 2.67029 0
M  V30 4308 C 417.814 -1.84408 4.10261 0
M  V30 4309 C 419.133 -3.43488 2.75143 0
M  V30 4310 H 416.252 -0.475031 0.563485 0
M  V30 4311 H 418.894 -0.616454 1.79722 0
M  V30 4312 H 417.044 -3.00772 2.45904 0
M  V30 4313 H 418.716 -1.29445 4.42766 0
M  V30 4314 H 416.959 -1.15051 4.18265 0
M  V30 4315 H 417.63 -2.64367 4.84576 0
M  V30 4316 H 420.106 -2.94236 2.94218 0
M  V30 4317 H 418.982 -4.18274 3.55441 0
M  V30 4318 H 419.243 -4.02703 1.82435 0
M  V30 4319 N 418.302 -1.35869 -0.798587 0
M  V30 4320 C 419.718 -1.16082 -1.09532 0
M  V30 4321 C 419.918 0.0213124 -2.01489 0
M  V30 4322 O 418.974 0.689488 -2.42904 0
M  V30 4323 C 420.287 -2.46748 -1.7186 0
M  V30 4324 C 421.835 -2.53028 -1.84244 0
M  V30 4325 C 422.31 -3.83758 -2.49988 0
M  V30 4326 N 423.801 -3.85053 -2.57465 0
M  V30 4327 C 424.536 -4.8294 -3.09122 0
M  V30 4328 N 424.032 -5.91217 -3.61157 0
M  V30 4329 N 425.825 -4.70369 -3.0775 0
M  V30 4330 H 417.976 -2.11571 -0.187461 0
M  V30 4331 H 420.239 -0.936726 -0.145765 0
M  V30 4332 H 419.945 -3.33471 -1.11759 0
M  V30 4333 H 419.819 -2.61883 -2.71472 0
M  V30 4334 H 422.206 -1.66729 -2.43486 0
M  V30 4335 H 422.287 -2.418 -0.834643 0
M  V30 4336 H 421.931 -4.70459 -1.91393 0
M  V30 4337 H 421.861 -3.92278 -3.5132 0
M  V30 4338 H 424.352 -3.06822 -2.20609 0
M  V30 4339 H 424.665 -6.61892 -3.98896 0
M  V30 4340 H 423.01 -5.94899 -3.59333 0
M  V30 4341 H 426.201 -3.84914 -2.66381 0
M  V30 4342 H 426.374 -5.46816 -3.47701 0
M  V30 4343 N 419.78 1.02168 -1.19998 0
M  V30 4344 C 420.73 2.08969 -0.911921 0
M  V30 4345 C 421.714 1.60404 0.12621 0
M  V30 4346 O 422.906 1.76817 -0.0804706 0
M  V30 4347 C 420.035 3.402 -0.460277 0
M  V30 4348 C 419.121 3.9548 -1.53155 0
M  V30 4349 N 419.512 4.24332 -2.75275 0
M  V30 4350 C 417.81 4.23572 -1.39653 0
M  V30 4351 C 418.511 4.68834 -3.44339 0
M  V30 4352 N 417.487 4.70804 -2.71744 0
M  V30 4353 H 421.289 2.29178 -1.83997 0
M  V30 4354 H 418.803 1.20094 -1.09322 0
M  V30 4355 H 420.8 4.16235 -0.235337 0
M  V30 4356 H 419.46 3.21408 0.4612 0
M  V30 4357 H 420.471 4.13393 -3.11973 0
M  V30 4358 H 417.148 4.14005 -0.539067 0
M  V30 4359 H 418.538 5.00019 -4.4881 0
M  V30 4360 N 421.258 1.00505 1.21394 0
M  V30 4361 C 422.206 0.558623 2.25792 0
M  V30 4362 C 423.2 -0.396848 1.64686 0
M  V30 4363 O 424.406 -0.268035 1.77993 0
M  V30 4364 H 420.781 0.1623 0.734277 0
M  V30 4365 H 422.752 1.4503 2.60785 0
M  V30 4366 C 421.501 -0.0989574 3.47559 0
M  V30 4367 H 420.824 0.627225 3.94849 0
M  V30 4368 H 422.264 -0.3746 4.22342 0
M  V30 4369 C 420.723 -1.33817 3.09184 0
M  V30 4370 O 421.253 -2.43252 3.19674 0
M  V30 4371 N 419.459 -1.21793 2.63846 0
M  V30 4372 H 419.006 -0.32746 2.5551 0
M  V30 4373 H 418.964 -2.04809 2.38539 0
M  V30 4374 N 422.737 -1.36956 0.779787 0
M  V30 4375 C 423.685 -2.32053 0.15942 0
M  V30 4376 C 424.679 -1.55333 -0.675878 0
M  V30 4377 O 425.885 -1.70668 -0.57204 0
M  V30 4378 H 422.26 -0.751286 0.0327707 0
M  V30 4379 H 424.231 -2.8195 0.977078 0
M  V30 4380 C 422.98 -3.40602 -0.698977 0
M  V30 4381 H 422.303 -3.99746 -0.0655966 0
M  V30 4382 H 423.743 -4.09486 -1.09989 0
M  V30 4383 C 422.202 -2.81359 -1.85307 0
M  V30 4384 O 422.732 -2.72751 -2.94906 0
M  V30 4385 N 420.938 -2.38786 -1.65619 0
M  V30 4386 H 420.485 -2.45987 -0.764725 0
M  V30 4387 H 420.443 -1.99493 -2.43002 0
M  V30 4388 N 424.215 -0.530993 -1.48385 0
M  V30 4389 C 425.461 -0.00538653 -2.03399 0
M  V30 4390 C 425.816 1.31899 -1.40073 0
M  V30 4391 O 425.109 1.83901 -0.537676 0
M  V30 4392 C 425.303 0.172742 -3.56982 0
M  V30 4393 C 425.132 -1.13282 -4.35198 0
M  V30 4394 C 423.902 -1.69296 -4.76096 0
M  V30 4395 C 426.1 -2.04367 -4.71952 0
M  V30 4396 N 424.082 -2.9413 -5.38851 0
M  V30 4397 C 425.453 -3.13777 -5.34737 0
M  V30 4398 C 427.508 -2.04681 -4.53883 0
M  V30 4399 C 426.211 -4.23567 -5.81363 0
M  V30 4400 C 428.237 -3.13466 -5.01491 0
M  V30 4401 C 427.599 -4.21595 -5.64302 0
M  V30 4402 H 423.698 -0.0434945 -0.780789 0
M  V30 4403 H 426.282 -0.712495 -1.81195 0
M  V30 4404 H 424.453 0.848937 -3.79009 0
M  V30 4405 H 426.185 0.698046 -3.98634 0
M  V30 4406 H 422.94 -1.23422 -4.57235 0
M  V30 4407 H 423.364 -3.57689 -5.74794 0
M  V30 4408 H 428.006 -1.22378 -4.04702 0
M  V30 4409 H 425.724 -5.06648 -6.2955 0
M  V30 4410 H 429.31 -3.14765 -4.893 0
M  V30 4411 H 428.19 -5.04384 -6.00472 0
M  V30 4412 N 425.693 1.55336 -0.266172 0
M  V30 4413 C 426.918 2.04258 0.359661 0
M  V30 4414 C 427.343 1.14359 1.49344 0
M  V30 4415 O 426.701 0.140369 1.80756 0
M  V30 4416 C 426.749 3.50997 0.826635 0
M  V30 4417 O 425.853 3.64204 1.93466 0
M  V30 4418 H 425.194 0.659668 0.075727 0
M  V30 4419 H 427.724 2.00694 -0.39786 0
M  V30 4420 H 427.734 3.9219 1.12477 0
M  V30 4421 H 426.409 4.159 -0.00293032 0
M  V30 4422 H 424.986 3.34913 1.63974 0
M  V30 4423 N 427.171 -0.0066808 1.57599 0
M  V30 4424 C 428.101 -0.999296 2.11036 0
M  V30 4425 C 429.082 -1.36278 1.01795 0
M  V30 4426 O 430.267 -1.4477 1.29442 0
M  V30 4427 C 427.397 -2.29328 2.60818 0
M  V30 4428 C 426.351 -2.07159 3.74525 0
M  V30 4429 C 425.677 -3.42512 4.10596 0
M  V30 4430 C 426.977 -1.43959 5.02069 0
M  V30 4431 H 428.671 -0.554382 2.94223 0
M  V30 4432 H 426.217 -0.265221 1.41536 0
M  V30 4433 H 428.17 -2.99117 2.96828 0
M  V30 4434 H 426.894 -2.7592 1.74745 0
M  V30 4435 H 425.553 -1.39797 3.38899 0
M  V30 4436 H 425.201 -3.86795 3.21556 0
M  V30 4437 H 424.901 -3.28498 4.87199 0
M  V30 4438 H 426.425 -4.13628 4.4916 0
M  V30 4439 H 427.839 -2.03696 5.35893 0
M  V30 4440 H 426.236 -1.40452 5.83432 0
M  V30 4441 H 427.306 -0.407992 4.83181 0
M  V30 4442 N 428.649 -1.55105 -0.279332 0
M  V30 4443 C 429.895 -1.75672 -1.01327 0
M  V30 4444 C 430.228 -0.552739 -1.86168 0
M  V30 4445 O 429.503 0.449827 -1.89227 0
M  V30 4446 C 429.786 -3.05825 -1.90114 0
M  V30 4447 C 429.639 -4.36565 -1.08309 0
M  V30 4448 C 430.958 -3.31975 -2.8893 0
M  V30 4449 H 428.077 -0.639149 -0.366957 0
M  V30 4450 H 430.719 -1.87833 -0.286154 0
M  V30 4451 H 428.869 -2.95588 -2.52111 0
M  V30 4452 H 430.541 -4.58751 -0.484314 0
M  V30 4453 H 428.784 -4.32076 -0.386362 0
M  V30 4454 H 429.455 -5.23946 -1.73737 0
M  V30 4455 H 431.931 -3.41963 -2.37067 0
M  V30 4456 H 430.807 -4.2432 -3.48201 0
M  V30 4457 H 431.068 -2.51309 -3.63725 0
M  V30 4458 N 430.127 0.543554 -1.4793 0
M  V30 4459 C 431.376 1.29649 -1.54512 0
M  V30 4460 C 431.689 1.94382 -0.217973 0
M  V30 4461 O 432.895 2.71017 -0.161908 0
M  V30 4462 C 431.351 2.35175 -2.72435 0
M  V30 4463 C 430.959 1.76572 -4.11736 0
M  V30 4464 C 432.703 3.11564 -2.8832 0
M  V30 4465 C 430.61 2.79958 -5.20939 0
M  V30 4466 H 429.54 0.487541 -0.57517 0
M  V30 4467 H 432.191 0.575708 -1.74235 0
M  V30 4468 H 430.573 3.10229 -2.46118 0
M  V30 4469 H 431.747 1.07799 -4.48013 0
M  V30 4470 H 430.062 1.12722 -4.00852 0
M  V30 4471 H 432.659 3.88794 -3.67074 0
M  V30 4472 H 433.002 3.66594 -1.97268 0
M  V30 4473 H 433.535 2.43623 -3.14472 0
M  V30 4474 H 430.274 2.29766 -6.13912 0
M  V30 4475 H 429.794 3.47101 -4.89164 0
M  V30 4476 H 431.473 3.43198 -5.48474 0
M  V30 4477 N 431.605 1.3629 0.791371 0
M  V30 4478 C 432.854 1.29742 1.54434 0
M  V30 4479 C 433.167 -0.121729 1.95221 0
M  V30 4480 O 434.373 -0.309579 2.69729 0
M  V30 4481 C 432.829 2.27623 2.78776 0
M  V30 4482 C 432.437 3.74963 2.45166 0
M  V30 4483 C 434.181 2.30047 3.56761 0
M  V30 4484 C 432.088 4.64626 3.65891 0
M  V30 4485 H 431.018 0.482113 0.579727 0
M  V30 4486 H 433.669 1.61642 0.868565 0
M  V30 4487 H 432.051 1.88714 3.48142 0
M  V30 4488 H 433.225 4.22596 1.83709 0
M  V30 4489 H 431.54 3.75295 1.80396 0
M  V30 4490 H 434.137 2.94247 4.46456 0
M  V30 4491 H 434.48 1.30846 3.95203 0
M  V30 4492 H 435.013 2.67563 2.94372 0
M  V30 4493 H 431.752 5.64883 3.32547 0
M  V30 4494 H 431.272 4.2171 4.26521 0
M  V30 4495 H 432.951 4.80801 4.32943 0
M  V30 4496 N 433.083 -1.0153 1.20538 0
M  V30 4497 C 434.494 -1.56598 1.01657 0
M  V30 4498 C 434.845 -1.91505 -0.426668 0
M  V30 4499 O 433.97 -1.72375 -1.30827 0
M  V30 4500 C 434.565 -2.84542 1.83905 0
M  V30 4501 C 433.124 -3.36133 1.69386 0
M  V30 4502 C 432.271 -2.09427 1.81757 0
M  V30 4503 H 435.222 -0.838974 1.34711 0
M  V30 4504 H 435.243 -3.56004 1.34319 0
M  V30 4505 H 434.755 -2.59105 2.8894 0
M  V30 4506 H 432.856 -3.66528 0.669933 0
M  V30 4507 H 432.969 -4.08248 2.50739 0
M  V30 4508 H 431.333 -2.21941 1.24957 0
M  V30 4509 H 432.116 -1.86414 2.88279 0
M  V30 4510 N 434.561 -1.01147 -1.20859 0
M  V30 4511 C 435.807 -0.698899 -1.90377 0
M  V30 4512 C 436.14 0.76904 -1.78324 0
M  V30 4513 O 435.415 1.55817 -1.16409 0
M  V30 4514 C 435.698 -1.12878 -3.41951 0
M  V30 4515 C 435.551 -2.65665 -3.62963 0
M  V30 4516 C 436.87 -0.696114 -4.3456 0
M  V30 4517 H 433.989 -0.255372 -0.691342 0
M  V30 4518 H 436.631 -1.25831 -1.42361 0
M  V30 4519 H 434.781 -0.652827 -3.82976 0
M  V30 4520 H 436.453 -3.21074 -3.31224 0
M  V30 4521 H 434.696 -3.06878 -3.06608 0
M  V30 4522 H 435.367 -2.90797 -4.69192 0
M  V30 4523 H 437.843 -1.10521 -4.01154 0
M  V30 4524 H 436.719 -1.025 -5.39245 0
M  V30 4525 H 436.98 0.402465 -4.40264 0
M  V30 4526 N 436.039 1.36541 -0.78704 0
M  V30 4527 C 437.279 2.01138 -0.363714 0
M  V30 4528 C 437.643 1.61114 1.04433 0
M  V30 4529 O 438.844 2.18285 1.56861 0
M  V30 4530 C 437.115 3.53603 -0.519582 0
M  V30 4531 S 438.674 4.38415 -0.183782 0
M  V30 4532 H 435.492 0.697263 -0.13909 0
M  V30 4533 H 438.094 1.66475 -1.02501 0
M  V30 4534 H 436.798 3.8022 -1.5447 0
M  V30 4535 H 436.329 3.93084 0.15773 0
M  V30 4536 H 438.344 4.85698 1.01547 0
M  V30 4537 N 437.518 0.538854 1.48102 0
M  V30 4538 C 438.45 -0.256278 2.27763 0
M  V30 4539 C 439.463 -0.89633 1.35904 0
M  V30 4540 O 440.652 -0.773275 1.60881 0
M  V30 4541 C 437.752 -1.37896 3.09577 0
M  V30 4542 C 436.925 -0.839159 4.29275 0
M  V30 4543 C 435.984 -1.84405 4.9283 0
M  V30 4544 O 435.01 -1.39746 5.51779 0
M  V30 4545 N 436.212 -3.17666 4.85869 0
M  V30 4546 H 438.977 0.426968 2.96643 0
M  V30 4547 H 436.538 0.373747 1.57527 0
M  V30 4548 H 438.53 -2.04955 3.48963 0
M  V30 4549 H 437.1 -1.96572 2.4306 0
M  V30 4550 H 436.32 0.00769287 3.94199 0
M  V30 4551 H 437.608 -0.457548 5.06739 0
M  V30 4552 H 437.006 -3.56609 4.39143 0
M  V30 4553 H 435.563 -3.80334 5.29329 0
M  V30 4554 N 438.996 -1.55193 0.274407 0
M  V30 4555 C 439.926 -2.25471 -0.607032 0
M  V30 4556 C 440.907 -1.24461 -1.15946 0
M  V30 4557 O 442.092 -1.53179 -1.19373 0
M  V30 4558 C 439.222 -2.97526 -1.79153 0
M  V30 4559 C 438.176 -4.05459 -1.37067 0
M  V30 4560 C 437.502 -4.65084 -2.6382 0
M  V30 4561 C 438.802 -5.19691 -0.521389 0
M  V30 4562 H 440.496 -2.99393 -0.0209343 0
M  V30 4563 H 438.042 -1.43997 -0.00862866 0
M  V30 4564 H 439.995 -3.45402 -2.41404 0
M  V30 4565 H 438.719 -2.21138 -2.40344 0
M  V30 4566 H 437.378 -3.58393 -0.771355 0
M  V30 4567 H 437.026 -3.85365 -3.23268 0
M  V30 4568 H 436.726 -5.37961 -2.36372 0
M  V30 4569 H 438.25 -5.15708 -3.26921 0
M  V30 4570 H 439.664 -5.63623 -1.04889 0
M  V30 4571 H 438.061 -5.99126 -0.341825 0
M  V30 4572 H 439.131 -4.82713 0.46 0
M  V30 4573 N 440.474 -0.00167713 -1.576 0
M  V30 4574 C 441.406 1.0174 -2.05382 0
M  V30 4575 C 442.419 1.30595 -0.972052 0
M  V30 4576 O 443.608 1.27542 -1.24882 0
M  V30 4577 C 440.708 2.35174 -2.44022 0
M  V30 4578 C 439.881 2.25234 -3.74951 0
M  V30 4579 C 438.94 3.4137 -4.00441 0
M  V30 4580 O 437.966 3.19483 -4.71083 0
M  V30 4581 N 439.168 4.64275 -3.48467 0
M  V30 4582 H 441.933 0.609902 -2.93428 0
M  V30 4583 H 439.494 0.185672 -1.60832 0
M  V30 4584 H 441.486 3.11643 -2.58187 0
M  V30 4585 H 440.056 2.67659 -1.61485 0
M  V30 4586 H 439.276 1.33664 -3.70847 0
M  V30 4587 H 440.564 2.15767 -4.60784 0
M  V30 4588 H 439.962 4.84955 -2.91264 0
M  V30 4589 H 438.519 5.38005 -3.67959 0
M  V30 4590 N 441.952 1.55251 0.271103 0
M  V30 4591 C 443.177 1.80306 1.02491 0
M  V30 4592 C 443.602 0.575457 1.79081 0
M  V30 4593 O 442.96 -0.474987 1.74967 0
M  V30 4594 C 443.008 3.02832 1.95768 0
M  V30 4595 O 442.112 2.78051 3.04568 0
M  V30 4596 H 441.453 0.595896 0.292923 0
M  V30 4597 H 443.983 2.02397 0.299436 0
M  V30 4598 H 443.993 3.31616 2.37686 0
M  V30 4599 H 442.668 3.9183 1.39434 0
M  V30 4600 H 441.245 2.60369 2.66951 0
M  V30 4601 N 443.43 -0.535701 1.48216 0
M  V30 4602 C 444.378 -1.66179 1.62749 0
M  V30 4603 C 445.372 -1.62034 0.49409 0
M  V30 4604 O 446.578 -1.6696 0.672624 0
M  V30 4605 H 442.953 -0.550244 0.512578 0
M  V30 4606 H 444.924 -1.51063 2.57337 0
M  V30 4607 C 443.673 -3.04471 1.67907 0
M  V30 4608 H 442.996 -3.08351 2.54479 0
M  V30 4609 H 444.436 -3.82894 1.82121 0
M  V30 4610 C 442.895 -3.34314 0.416596 0
M  V30 4611 O 443.425 -3.98905 -0.473014 0
M  V30 4612 N 441.631 -2.89149 0.290038 0
M  V30 4613 H 441.178 -2.36764 1.01493 0
M  V30 4614 H 441.136 -3.09486 -0.55367 0
M  V30 4615 N 444.908 -1.36708 -0.784132 0
M  V30 4616 C 445.856 -1.31533 -1.91838 0
M  V30 4617 C 446.85 -0.206205 -1.6814 0
M  V30 4618 O 448.056 -0.373519 -1.76082 0
M  V30 4619 H 444.431 -0.409613 -0.630651 0
M  V30 4620 H 446.402 -2.2731 -1.9332 0
M  V30 4621 C 445.151 -1.12679 -3.28936 0
M  V30 4622 H 444.474 -1.97274 -3.4774 0
M  V30 4623 H 445.914 -1.13106 -4.08636 0
M  V30 4624 C 444.373 0.168281 -3.36479 0
M  V30 4625 O 444.903 1.15625 -3.84699 0
M  V30 4626 N 443.109 0.214762 -2.89805 0
M  V30 4627 H 442.656 -0.589852 -2.50756 0
M  V30 4628 H 442.614 1.08094 -2.95234 0
M  V30 4629 N 446.386 1.0089 -1.21074 0
M  V30 4630 C 447.635 1.74019 -1.01981 0
M  V30 4631 C 447.948 1.90408 0.447665 0
M  V30 4632 O 449.154 2.60707 0.757906 0
M  V30 4633 C 447.61 3.13026 -1.77603 0
M  V30 4634 C 447.218 3.04623 -3.28495 0
M  V30 4635 C 448.962 3.90312 -1.66904 0
M  V30 4636 C 446.869 4.38685 -3.96623 0
M  V30 4637 H 445.799 0.652422 -0.377971 0
M  V30 4638 H 448.45 1.12755 -1.44771 0
M  V30 4639 H 446.832 3.74878 -1.27604 0
M  V30 4640 H 448.006 2.52032 -3.85767 0
M  V30 4641 H 446.321 2.40827 -3.39693 0
M  V30 4642 H 448.918 4.8951 -2.15138 0
M  V30 4643 H 449.261 4.11558 -0.62658 0
M  V30 4644 H 449.794 3.35104 -2.14359 0
M  V30 4645 H 446.533 4.22641 -5.01054 0
M  V30 4646 H 446.053 4.91252 -3.4414 0
M  V30 4647 H 447.732 5.075 -4.01314 0
M  V30 4648 N 447.864 1.01787 1.20321 0
M  V30 4649 C 449.089 0.727009 1.9424 0
M  V30 4650 C 449.514 -0.706179 1.74341 0
M  V30 4651 O 448.872 -1.48609 1.03852 0
M  V30 4652 C 448.92 1.06958 3.44372 0
M  V30 4653 O 448.024 0.181983 4.11998 0
M  V30 4654 H 447.365 0.269626 0.606793 0
M  V30 4655 H 449.895 1.36158 1.52716 0
M  V30 4656 H 449.905 1.02182 3.94997 0
M  V30 4657 H 448.58 2.11378 3.58179 0
M  V30 4658 H 447.157 0.287378 3.71791 0
M  V30 4659 N 449.342 -1.36122 0.79427 0
M  V30 4660 C 450.29 -2.31871 0.184023 0
M  V30 4661 C 451.284 -1.56041 -0.659365 0
M  V30 4662 O 452.49 -1.71266 -0.553906 0
M  V30 4663 H 448.865 -0.750896 0.0407373 0
M  V30 4664 H 450.836 -2.80898 1.00693 0
M  V30 4665 C 449.585 -3.41324 -0.662813 0
M  V30 4666 H 448.908 -3.99793 -0.0231944 0
M  V30 4667 H 450.348 -4.10629 -1.05639 0
M  V30 4668 C 448.807 -2.83308 -1.82313 0
M  V30 4669 O 449.337 -2.75863 -2.91997 0
M  V30 4670 N 447.543 -2.40529 -1.63077 0
M  V30 4671 H 447.09 -2.46785 -0.738591 0
M  V30 4672 H 447.048 -2.02059 -2.40872 0
M  V30 4673 N 450.82 -0.546701 -1.47814 0
M  V30 4674 C 452.069 -0.0166497 -2.01693 0
M  V30 4675 C 452.382 1.33721 -1.42752 0
M  V30 4676 O 453.588 1.95658 -1.8823 0
M  V30 4677 C 452.044 0.0206769 -3.59894 0
M  V30 4678 C 451.652 -1.3293 -4.27824 0
M  V30 4679 C 453.396 0.498674 -4.21561 0
M  V30 4680 C 451.303 -1.25165 -5.78003 0
M  V30 4681 H 450.233 -0.0024541 -0.753996 0
M  V30 4682 H 452.884 -0.692984 -1.69912 0
M  V30 4683 H 451.266 0.76244 -3.88591 0
M  V30 4684 H 452.44 -2.08795 -4.10781 0
M  V30 4685 H 450.755 -1.74438 -3.78101 0
M  V30 4686 H 453.352 0.575 -5.31599 0
M  V30 4687 H 453.695 1.5083 -3.88016 0
M  V30 4688 H 454.228 -0.18791 -3.97356 0
M  V30 4689 H 450.967 -2.23695 -6.1615 0
M  V30 4690 H 450.487 -0.53464 -5.97412 0
M  V30 4691 H 452.166 -0.949299 -6.39998 0
M  V30 4692 N 452.299 1.55045 -0.282633 0
M  V30 4693 C 453.545 2.00056 0.332481 0
M  V30 4694 C 453.878 1.1708 1.54939 0
M  V30 4695 O 453.153 0.2427 1.9298 0
M  V30 4696 C 453.436 3.53086 0.70725 0
M  V30 4697 C 453.289 4.46813 -0.517521 0
M  V30 4698 C 454.608 4.12245 1.54084 0
M  V30 4699 H 451.727 0.727268 0.119373 0
M  V30 4700 H 454.369 1.85932 -0.391076 0
M  V30 4701 H 452.519 3.65253 1.32372 0
M  V30 4702 H 454.191 4.46579 -1.15607 0
M  V30 4703 H 452.434 4.18163 -1.1542 0
M  V30 4704 H 453.105 5.51595 -0.211426 0
M  V30 4705 H 455.581 4.03401 1.02013 0
M  V30 4706 H 454.457 5.19515 1.77186 0
M  V30 4707 H 454.718 3.62951 2.52427 0
M  V30 4708 N 453.777 0.010035 1.57597 0
M  V30 4709 C 455.188 -0.531426 1.78977 0
M  V30 4710 C 455.539 -1.73375 0.918454 0
M  V30 4711 O 454.664 -2.16047 0.123635 0
M  V30 4712 C 455.259 -0.97086 3.24592 0
M  V30 4713 C 453.818 -1.45756 3.47033 0
M  V30 4714 C 452.965 -0.413384 2.74201 0
M  V30 4715 H 455.916 0.236166 1.56933 0
M  V30 4716 H 455.937 -1.83633 3.33255 0
M  V30 4717 H 455.449 -0.0955893 3.87982 0
M  V30 4718 H 453.55 -2.35339 2.88871 0
M  V30 4719 H 453.663 -1.4781 4.55729 0
M  V30 4720 H 452.027 -0.877266 2.39115 0
M  V30 4721 H 452.81 0.453092 3.40297 0
M  V30 4722 N 455.255 -1.55392 -0.262866 0
M  V30 4723 C 456.504 -1.75679 -0.990943 0
M  V30 4724 C 456.817 -0.57097 -1.87081 0
M  V30 4725 O 458.023 -0.656486 -2.63444 0
M  V30 4726 C 456.479 -3.10964 -1.81188 0
M  V30 4727 C 456.087 -4.37146 -0.980188 0
M  V30 4728 C 457.831 -3.40597 -2.53365 0
M  V30 4729 C 455.738 -5.63466 -1.7961 0
M  V30 4730 H 454.668 -0.654868 -0.373716 0
M  V30 4731 H 457.319 -1.81841 -0.246203 0
M  V30 4732 H 455.701 -2.98867 -2.59797 0
M  V30 4733 H 456.875 -4.60187 -0.237558 0
M  V30 4734 H 455.19 -4.14731 -0.372497 0
M  V30 4735 H 457.787 -4.32186 -3.14833 0
M  V30 4736 H 458.13 -2.6119 -3.24169 0
M  V30 4737 H 458.663 -3.53838 -1.81779 0
M  V30 4738 H 455.402 -6.4565 -1.13209 0
M  V30 4739 H 454.922 -5.44552 -2.51443 0
M  V30 4740 H 456.601 -6.02139 -2.36723 0
M  V30 4741 N 456.733 0.527833 -1.48498 0
M  V30 4742 C 457.961 1.30823 -1.6029 0
M  V30 4743 C 458.376 1.86945 -0.263974 0
M  V30 4744 O 457.733 1.6651 0.747034 0
M  V30 4745 C 457.784 2.45756 -2.65116 0
M  V30 4746 O 457.505 1.91946 -3.93813 0
M  V30 4747 C 459.006 3.37543 -2.87367 0
M  V30 4748 H 456.226 0.397763 -0.540394 0
M  V30 4749 H 458.77 0.636529 -1.94341 0
M  V30 4750 H 456.925 3.08806 -2.33917 0
M  V30 4751 H 457.339 2.67195 -4.51339 0
M  V30 4752 H 458.813 4.14532 -3.6451 0
M  V30 4753 H 459.29 3.92905 -1.9627 0
M  V30 4754 H 459.896 2.80283 -3.19878 0
M  V30 4755 N 458.211 1.37122 0.776871 0
M  V30 4756 C 459.457 1.32243 1.53752 0
M  V30 4757 C 459.79 -0.0944745 1.9397 0
M  V30 4758 O 459.065 -1.05068 1.6368 0
M  V30 4759 C 459.348 2.25681 2.80607 0
M  V30 4760 C 459.201 3.76127 2.46676 0
M  V30 4761 C 460.52 2.17657 3.82509 0
M  V30 4762 H 457.639 0.481704 0.557791 0
M  V30 4763 H 460.281 1.6778 0.891612 0
M  V30 4764 H 458.431 1.95505 3.35723 0
M  V30 4765 H 460.103 4.16877 1.97513 0
M  V30 4766 H 458.346 3.94946 1.79443 0
M  V30 4767 H 459.017 4.36933 3.37333 0
M  V30 4768 H 461.493 2.44245 3.36873 0
M  V30 4769 H 460.369 2.85185 4.69 0
M  V30 4770 H 460.63 1.16785 4.26396 0
M  V30 4771 N 459.689 -1.00246 1.21608 0
M  V30 4772 C 460.914 -1.78167 1.06167 0
M  V30 4773 C 461.339 -1.84138 -0.384035 0
M  V30 4774 O 460.697 -1.28683 -1.27712 0
M  V30 4775 C 460.745 -3.19786 1.66642 0
M  V30 4776 O 459.849 -4.02153 0.913613 0
M  V30 4777 H 459.19 -0.549 0.37349 0
M  V30 4778 H 461.72 -1.25994 1.61204 0
M  V30 4779 H 461.73 -3.70451 1.70969 0
M  V30 4780 H 460.405 -3.14754 2.7185 0
M  V30 4781 H 458.982 -3.60711 0.945635 0
M  V30 4782 N 461.167 -1.02423 -1.1978 0
M  V30 4783 C 462.416 -0.713265 -1.88667 0
M  V30 4784 C 462.729 0.7609 -1.80193 0
M  V30 4785 O 463.935 1.18473 -2.44288 0
M  V30 4786 C 462.391 -1.22545 -3.38394 0
M  V30 4787 C 461.999 -2.72706 -3.55437 0
M  V30 4788 C 463.743 -0.990257 -4.12788 0
M  V30 4789 C 461.65 -3.17367 -4.99031 0
M  V30 4790 H 460.58 -0.263105 -0.706606 0
M  V30 4791 H 463.231 -1.23792 -1.35454 0
M  V30 4792 H 461.613 -0.628732 -3.90977 0
M  V30 4793 H 462.787 -3.37993 -3.13205 0
M  V30 4794 H 461.102 -2.94453 -2.94425 0
M  V30 4795 H 463.699 -1.29926 -5.18675 0
M  V30 4796 H 464.042 0.0730761 -4.16236 0
M  V30 4797 H 464.575 -1.55074 -3.66329 0
M  V30 4798 H 461.314 -4.23009 -5.00743 0
M  V30 4799 H 460.834 -2.56805 -5.42044 0
M  V30 4800 H 462.513 -3.10441 -5.67658 0
M  V30 4801 N 462.645 1.35699 -0.801477 0
M  V30 4802 C 463.87 2.03687 -0.390678 0
M  V30 4803 C 464.295 1.60015 0.988778 0
M  V30 4804 O 463.653 0.774357 1.63931 0
M  V30 4805 C 463.701 3.57439 -0.476404 0
M  V30 4806 O 462.805 4.09208 0.512106 0
M  V30 4807 H 462.146 0.64344 -0.163956 0
M  V30 4808 H 464.676 1.73403 -1.08594 0
M  V30 4809 H 464.686 4.06544 -0.344357 0
M  V30 4810 H 463.361 3.88576 -1.48262 0
M  V30 4811 H 461.938 3.7134 0.340721 0
M  V30 4812 N 464.123 0.554532 1.47522 0
M  V30 4813 C 465.534 0.120446 1.86311 0
M  V30 4814 C 465.885 -1.30904 1.46145 0
M  V30 4815 O 465.01 -1.98434 0.863294 0
M  V30 4816 C 465.605 0.211808 3.38137 0
M  V30 4817 C 464.164 -0.167224 3.76028 0
M  V30 4818 C 463.311 0.560576 2.71575 0
M  V30 4819 H 466.262 0.764408 1.39077 0
M  V30 4820 H 466.283 -0.570275 3.76202 0
M  V30 4821 H 465.795 1.25232 3.6734 0
M  V30 4822 H 463.896 -1.20894 3.52442 0
M  V30 4823 H 464.009 0.189473 4.78725 0
M  V30 4824 H 462.373 0.00396836 2.547 0
M  V30 4825 H 463.156 1.60219 3.0362 0
M  V30 4826 N 465.601 -1.54893 0.290851 0
M  V30 4827 C 466.534 -2.19289 -0.631489 0
M  V30 4828 C 467.512 -1.15893 -1.14051 0
M  V30 4829 O 468.696 -1.4449 -1.21058 0
M  V30 4830 C 465.823 -2.82866 -1.86291 0
M  V30 4831 C 464.869 -3.997 -1.48801 0
M  V30 4832 S 465.702 -5.32641 -0.552644 0
M  V30 4833 C 466.858 -5.99696 -1.79209 0
M  V30 4834 H 467.091 -2.9718 -0.0843791 0
M  V30 4835 H 464.624 -1.54218 0.075031 0
M  V30 4836 H 466.582 -3.20124 -2.56964 0
M  V30 4837 H 465.243 -2.04839 -2.38117 0
M  V30 4838 H 464.436 -4.42932 -2.40473 0
M  V30 4839 H 464.038 -3.63947 -0.861321 0
M  V30 4840 H 466.33 -6.19886 -2.734 0
M  V30 4841 H 467.273 -6.94071 -1.40251 0
M  V30 4842 H 467.681 -5.29226 -1.96419 0
M  V30 4843 N 467.08 -0.0183926 -1.57589 0
M  V30 4844 C 468.32 0.666846 -1.93216 0
M  V30 4845 C 468.684 1.69905 -0.894215 0
M  V30 4846 O 469.885 2.436 -1.13633 0
M  V30 4847 C 468.156 1.27684 -3.33814 0
M  V30 4848 S 469.715 1.98464 -3.91353 0
M  V30 4849 H 466.533 0.219826 -0.676164 0
M  V30 4850 H 469.135 -0.0794893 -1.95338 0
M  V30 4851 H 467.839 0.513006 -4.07181 0
M  V30 4852 H 467.37 2.06071 -3.3511 0
M  V30 4853 H 469.385 3.26189 -3.73918 0
M  V30 4854 N 468.558 1.5553 0.254621 0
M  V30 4855 C 469.521 1.88872 1.29846 0
M  V30 4856 C 470.521 0.764591 1.41459 0
M  V30 4857 O 471.711 1.03265 1.40293 0
M  V30 4858 C 468.843 2.11032 2.67728 0
M  V30 4859 H 470.036 2.82201 1.01502 0
M  V30 4860 H 467.589 1.48303 0.493556 0
M  V30 4861 H 468.324 1.20146 3.01223 0
M  V30 4862 H 468.109 2.92895 2.60682 0
M  V30 4863 H 469.599 2.38038 3.43115 0
M  V30 4864 N 470.036 -0.519951 1.48776 0
M  V30 4865 C 470.946 -1.65025 1.66745 0
M  V30 4866 C 471.962 -1.6508 0.549954 0
M  V30 4867 O 473.138 -1.83848 0.822295 0
M  V30 4868 C 470.203 -3.0146 1.71238 0
M  V30 4869 C 469.264 -3.12182 2.94688 0
M  V30 4870 C 468.497 -4.42109 2.98958 0
M  V30 4871 O 468.72 -5.29799 2.1135 0
M  V30 4872 O 467.654 -4.57406 3.91233 0
M  V30 4873 H 471.48 -1.52801 2.62461 0
M  V30 4874 H 469.065 -0.694157 1.32294 0
M  V30 4875 H 470.947 -3.82584 1.76657 0
M  V30 4876 H 469.622 -3.13988 0.786975 0
M  V30 4877 H 468.529 -2.30316 2.94797 0
M  V30 4878 H 469.862 -3.04574 3.86646 0
M  V30 4879 N 471.514 -1.37532 -0.769588 0
M  V30 4880 C 472.761 -1.3286 -1.52822 0
M  V30 4881 C 473.089 0.0862597 -1.94309 0
M  V30 4882 O 472.344 1.05995 -1.6451 0
M  V30 4883 C 472.643 -2.21558 -2.8044 0
M  V30 4884 C 472.309 -3.69796 -2.57996 0
M  V30 4885 C 470.971 -4.10194 -2.51583 0
M  V30 4886 C 473.323 -4.63699 -2.37976 0
M  V30 4887 C 470.651 -5.42608 -2.23144 0
M  V30 4888 C 473.003 -5.96353 -2.1106 0
M  V30 4889 C 471.667 -6.35853 -2.03093 0
M  V30 4890 H 470.937 -0.486168 -0.559215 0
M  V30 4891 H 473.584 -1.69757 -0.886277 0
M  V30 4892 H 471.889 -1.77663 -3.49204 0
M  V30 4893 H 473.586 -2.15256 -3.38328 0
M  V30 4894 H 470.176 -3.37759 -2.63851 0
M  V30 4895 H 474.36 -4.33346 -2.41919 0
M  V30 4896 H 469.616 -5.72173 -2.15472 0
M  V30 4897 H 473.79 -6.68667 -1.94568 0
M  V30 4898 H 471.417 -7.38382 -1.8082 0
M  V30 4899 N 472.992 0.995999 -1.22138 0
M  V30 4900 C 474.217 1.77601 -1.0711 0
M  V30 4901 C 474.642 1.84339 0.374264 0
M  V30 4902 O 474 1.29359 1.27028 0
M  V30 4903 C 474.048 3.18897 -1.68336 0
M  V30 4904 O 473.152 4.01663 -0.934928 0
M  V30 4905 H 472.493 0.547011 -0.376397 0
M  V30 4906 H 475.023 1.25137 -1.6187 0
M  V30 4907 H 475.033 3.69539 -1.72931 0
M  V30 4908 H 473.708 3.13308 -2.73516 0
M  V30 4909 H 472.285 3.60204 -0.964751 0
M  V30 4910 N 474.47 1.03057 1.19235 0
M  V30 4911 C 475.718 0.726581 1.88587 0
M  V30 4912 C 476.039 -0.747227 1.80115 0
M  V30 4913 O 475.309 -1.53849 1.21274 0
M  V30 4914 H 473.889 0.265768 0.698124 0
M  V30 4915 H 476.551 1.30516 1.44746 0
M  V30 4916 H 475.647 1.0224 2.94879 0
M  V30 4917 N 475.948 -1.35272 0.808662 0
M  V30 4918 C 476.911 -2.28082 0.226093 0
M  V30 4919 C 477.911 -1.49673 -0.587762 0
M  V30 4920 O 479.101 -1.69404 -0.405943 0
M  V30 4921 C 476.233 -3.33955 -0.684596 0
M  V30 4922 H 477.426 -2.81116 1.04469 0
M  V30 4923 H 474.979 -1.45162 0.579466 0
M  V30 4924 H 475.714 -2.86111 -1.5268 0
M  V30 4925 H 475.499 -3.91965 -0.102699 0
M  V30 4926 H 476.989 -4.03219 -1.08646 0
M  V30 4927 N 477.426 -0.562348 -1.47226 0
M  V30 4928 C 478.842 -0.222492 -1.58042 0
M  V30 4929 C 479.042 1.27505 -1.56028 0
M  V30 4930 O 478.098 2.05555 -1.46641 0
M  V30 4931 C 479.411 -0.853694 -2.88327 0
M  V30 4932 C 480.959 -0.825397 -3.01921 0
M  V30 4933 C 481.434 -1.43576 -4.34914 0
M  V30 4934 N 482.925 -1.39918 -4.41562 0
M  V30 4935 C 483.66 -1.84103 -5.43041 0
M  V30 4936 N 483.156 -2.36167 -6.51304 0
M  V30 4937 N 484.949 -1.75142 -5.34118 0
M  V30 4938 H 477.1 -1.53525 -1.46778 0
M  V30 4939 H 479.363 -0.640527 -0.698877 0
M  V30 4940 H 479.069 -1.90635 -2.95552 0
M  V30 4941 H 478.943 -0.34977 -3.75575 0
M  V30 4942 H 481.33 0.218583 -2.94289 0
M  V30 4943 H 481.411 -1.36713 -2.16202 0
M  V30 4944 H 481.055 -2.47884 -4.43301 0
M  V30 4945 H 480.985 -0.869427 -5.19373 0
M  V30 4946 H 483.476 -1.0184 -3.63919 0
M  V30 4947 H 483.789 -2.67793 -7.24919 0
M  V30 4948 H 482.134 -2.40181 -6.52179 0
M  V30 4949 H 485.325 -1.34241 -4.48439 0
M  V30 4950 H 485.498 -2.09895 -6.13065 0
M  V30 4951 N 478.904 1.54736 -0.299062 0
M  V30 4952 C 479.867 2.22127 0.565012 0
M  V30 4953 C 480.867 1.20669 1.06281 0
M  V30 4954 O 482.057 1.45417 0.959145 0
M  V30 4955 C 479.189 2.90611 1.78208 0
M  V30 4956 H 480.382 2.99891 -0.0237448 0
M  V30 4957 H 477.935 1.5622 -0.0498788 0
M  V30 4958 H 478.67 2.16921 2.41072 0
M  V30 4959 H 478.455 3.64984 1.43281 0
M  V30 4960 H 479.945 3.42026 2.396 0
M  V30 4961 N 480.382 0.0267497 1.57577 0
M  V30 4962 C 481.329 -0.955894 2.10075 0
M  V30 4963 C 482.299 -1.32453 1.00226 0
M  V30 4964 O 483.484 -1.41826 1.27632 0
M  V30 4965 C 480.624 -2.2338 2.6305 0
M  V30 4966 C 479.737 -1.92183 3.86898 0
M  V30 4967 C 478.872 -3.14251 4.28275 0
M  V30 4968 C 477.911 -2.78862 5.44888 0
M  V30 4969 N 477.048 -3.93548 5.81433 0
M  V30 4970 H 481.888 -0.501303 2.93753 0
M  V30 4971 H 479.425 -0.235847 1.45197 0
M  V30 4972 H 481.383 -2.98124 2.91853 0
M  V30 4973 H 480.013 -2.6646 1.82205 0
M  V30 4974 H 479.065 -1.07692 3.64838 0
M  V30 4975 H 480.377 -1.62117 4.7172 0
M  V30 4976 H 479.531 -3.97317 4.58502 0
M  V30 4977 H 478.27 -3.47476 3.42215 0
M  V30 4978 H 477.275 -1.94208 5.14357 0
M  V30 4979 H 478.5 -2.46855 6.32645 0
M  V30 4980 H 476.446 -4.2662 4.98328 0
M  V30 4981 H 476.363 -3.67098 6.6089 0
M  V30 4982 H 477.631 -4.77325 6.16264 0
M  V30 4983 N 481.861 -1.55662 -0.24637 0
M  V30 4984 C 483.089 -1.81575 -0.991876 0
M  V30 4985 C 483.504 -0.602545 -1.78927 0
M  V30 4986 O 482.861 0.428795 -1.77391 0
M  V30 4987 C 482.912 -3.05711 -1.92933 0
M  V30 4988 O 482.633 -4.22348 -1.1642 0
M  V30 4989 C 484.134 -3.44428 -2.79078 0
M  V30 4990 H 481.354 -0.604209 -0.291844 0
M  V30 4991 H 483.898 -2.02722 -0.269095 0
M  V30 4992 H 482.053 -2.86612 -2.60638 0
M  V30 4993 H 482.467 -4.92706 -1.79835 0
M  V30 4994 H 483.941 -4.34388 -3.40603 0
M  V30 4995 H 484.418 -2.65037 -3.50217 0
M  V30 4996 H 485.024 -3.65879 -2.16824 0
M  V30 4997 N 483.339 0.512053 -1.4905 0
M  V30 4998 C 484.585 1.26874 -1.58212 0
M  V30 4999 C 484.918 1.9241 -0.263073 0
M  V30 5000 O 484.193 1.80181 0.732476 0
M  V30 5001 C 484.476 2.34428 -2.73341 0
M  V30 5002 C 484.329 1.73466 -4.15006 0
M  V30 5003 C 485.648 3.36073 -2.84154 0
M  V30 5004 H 482.767 0.459924 -0.575881 0
M  V30 5005 H 485.409 0.568587 -1.81293 0
M  V30 5006 H 483.559 2.94146 -2.53792 0
M  V30 5007 H 485.231 1.17661 -4.46042 0
M  V30 5008 H 483.474 1.03921 -4.21168 0
M  V30 5009 H 484.145 2.51426 -4.91415 0
M  V30 5010 H 486.621 2.86332 -3.01916 0
M  V30 5011 H 485.497 4.08703 -3.66406 0
M  V30 5012 H 485.758 3.97725 -1.93048 0
M  V30 5013 N 484.817 1.37938 0.762283 0
M  V30 5014 C 486.063 1.33866 1.52341 0
M  V30 5015 C 486.396 -0.0738961 1.94059 0
M  V30 5016 O 485.671 -1.03326 1.64785 0
M  V30 5017 C 485.954 2.28644 2.78197 0
M  V30 5018 C 485.807 3.78722 2.42672 0
M  V30 5019 C 487.126 2.21702 3.80179 0
M  V30 5020 H 484.245 0.487593 0.55265 0
M  V30 5021 H 486.887 1.68717 0.873767 0
M  V30 5022 H 485.037 1.99055 3.33631 0
M  V30 5023 H 486.709 4.18948 1.93081 0
M  V30 5024 H 484.952 3.96827 1.75244 0
M  V30 5025 H 485.623 4.40486 3.3268 0
M  V30 5026 H 488.099 2.47805 3.34263 0
M  V30 5027 H 486.975 2.90143 4.65949 0
M  V30 5028 H 487.236 1.21301 4.25133 0
M  V30 5029 N 486.295 -0.989507 1.22664 0
M  V30 5030 C 487.227 -2.0824 0.957542 0
M  V30 5031 C 488.24 -1.6267 -0.0651098 0
M  V30 5032 O 489.429 -1.77695 0.169312 0
M  V30 5033 C 486.529 -3.36298 0.419145 0
M  V30 5034 C 485.702 -4.10882 1.49982 0
M  V30 5035 C 484.761 -5.17221 0.967904 0
M  V30 5036 O 483.787 -5.44613 1.65487 0
M  V30 5037 N 484.989 -5.80124 -0.20896 0
M  V30 5038 H 487.754 -2.31904 1.89843 0
M  V30 5039 H 485.315 -1.15552 1.13399 0
M  V30 5040 H 487.307 -4.04671 0.0485451 0
M  V30 5041 H 485.877 -3.09671 -0.426937 0
M  V30 5042 H 485.097 -3.37092 2.04359 0
M  V30 5043 H 486.385 -4.57482 2.22682 0
M  V30 5044 H 485.783 -5.60244 -0.783818 0
M  V30 5045 H 484.34 -6.49715 -0.520913 0
M  V30 5046 N 487.773 -1.03688 -1.18687 0
M  V30 5047 C 489.021 -0.736572 -1.88199 0
M  V30 5048 C 489.342 0.737665 -1.80509 0
M  V30 5049 O 488.612 1.53204 -1.22088 0
M  V30 5050 H 487.192 -0.269466 -0.696704 0
M  V30 5051 H 489.854 -1.31282 -1.44052 0
M  V30 5052 H 488.95 -1.03802 -2.94332 0
M  V30 5053 N 489.251 1.34841 -0.815825 0
M  V30 5054 C 490.181 2.32187 -0.247298 0
M  V30 5055 C 491.162 1.5791 0.632344 0
M  V30 5056 O 492.347 1.8593 0.560698 0
M  V30 5057 C 489.477 3.42122 0.597466 0
M  V30 5058 C 488.431 4.27602 -0.184446 0
M  V30 5059 C 487.757 5.28942 0.782609 0
M  V30 5060 C 489.057 5.03502 -1.38865 0
M  V30 5061 H 490.751 2.79985 -1.06061 0
M  V30 5062 H 488.297 1.34611 -0.511461 0
M  V30 5063 H 490.25 4.09232 1.00533 0
M  V30 5064 H 488.974 2.92956 1.44376 0
M  V30 5065 H 487.633 3.62085 -0.573592 0
M  V30 5066 H 487.281 4.7604 1.62466 0
M  V30 5067 H 486.981 5.87008 0.263695 0
M  V30 5068 H 488.505 5.98922 1.18848 0
M  V30 5069 H 489.919 5.63506 -1.05518 0
M  V30 5070 H 488.316 5.71108 -1.8427 0
M  V30 5071 H 489.386 4.33608 -2.17054 0
M  V30 5072 N 490.729 0.570148 1.46925 0
M  V30 5073 C 492.14 0.1402 1.86173 0
M  V30 5074 C 492.491 -1.29347 1.47526 0
M  V30 5075 O 491.616 -1.97508 0.884292 0
M  V30 5076 C 492.211 0.247661 3.37894 0
M  V30 5077 C 490.77 -0.127332 3.76185 0
M  V30 5078 C 489.917 0.589349 2.70965 0
M  V30 5079 H 492.868 0.779117 1.38259 0
M  V30 5080 H 492.889 -0.530341 3.76786 0
M  V30 5081 H 492.401 1.29121 3.65991 0
M  V30 5082 H 490.502 -1.17149 3.53704 0
M  V30 5083 H 490.615 0.240238 4.78497 0
M  V30 5084 H 488.979 0.0309824 2.54681 0
M  V30 5085 H 489.762 1.6343 3.01903 0
M  V30 5086 N 492.207 -1.54576 0.307264 0
M  V30 5087 C 493.453 -2.0056 -0.300612 0
M  V30 5088 C 493.786 -1.1953 -1.53057 0
M  V30 5089 O 493.061 -0.27337 -1.92569 0
M  V30 5090 C 493.344 -3.54167 -0.650987 0
M  V30 5091 C 493.197 -4.45933 0.588539 0
M  V30 5092 C 494.516 -4.14645 -1.47506 0
M  V30 5093 H 491.635 -0.729075 -0.107788 0
M  V30 5094 H 494.277 -1.85286 0.420606 0
M  V30 5095 H 492.427 -3.67313 -1.26544 0
M  V30 5096 H 494.099 -4.44683 1.22697 0
M  V30 5097 H 492.342 -4.16274 1.22058 0
M  V30 5098 H 493.013 -5.51189 0.299153 0
M  V30 5099 H 495.489 -4.04973 -0.955821 0
M  V30 5100 H 494.365 -5.22269 -1.68899 0
M  V30 5101 H 494.626 -3.66921 -2.4662 0
M  V30 5102 N 493.685 -0.035106 -1.57561 0
M  V30 5103 C 494.915 0.651312 -1.96065 0
M  V30 5104 C 495.323 1.6585 -0.910514 0
M  V30 5105 O 494.666 1.83336 0.11552 0
M  V30 5106 C 494.728 1.40897 -3.30739 0
M  V30 5107 C 494.392 0.559436 -4.53563 0
M  V30 5108 C 495.389 -0.16778 -5.19629 0
M  V30 5109 C 493.074 0.495079 -4.99854 0
M  V30 5110 C 495.068 -0.947963 -6.30311 0
M  V30 5111 C 492.755 -0.288804 -6.10417 0
M  V30 5112 C 493.753 -1.00903 -6.75505 0
M  V30 5113 O 493.441 -1.78005 -7.83945 0
M  V30 5114 H 493.173 0.184036 -0.650467 0
M  V30 5115 H 495.727 -0.0929677 -2.05189 0
M  V30 5116 H 493.957 2.19852 -3.18123 0
M  V30 5117 H 495.646 1.98407 -3.54104 0
M  V30 5118 H 496.412 -0.12743 -4.84833 0
M  V30 5119 H 492.291 1.04524 -4.48994 0
M  V30 5120 H 495.835 -1.51064 -6.81047 0
M  V30 5121 H 491.732 -0.33085 -6.44652 0
M  V30 5122 H 492.5 -1.70046 -8.00641 0
M  V30 5123 N 495.163 1.55791 0.238111 0
M  V30 5124 C 496.409 1.78297 0.966337 0
M  V30 5125 C 496.742 0.601903 1.84637 0
M  V30 5126 O 496.017 -0.399499 1.90353 0
M  V30 5127 C 496.3 3.10758 1.81939 0
M  V30 5128 C 496.153 4.39283 0.966958 0
M  V30 5129 C 497.472 3.39519 2.80027 0
M  V30 5130 H 494.591 0.648654 0.349882 0
M  V30 5131 H 497.233 1.88525 0.236253 0
M  V30 5132 H 495.383 3.02168 2.44185 0
M  V30 5133 H 497.055 4.59873 0.362514 0
M  V30 5134 H 495.298 4.32948 0.271669 0
M  V30 5135 H 495.969 5.28368 1.59784 0
M  V30 5136 H 498.445 3.48128 2.27917 0
M  V30 5137 H 497.321 4.33402 3.36829 0
M  V30 5138 H 497.582 2.60864 3.56934 0
M  V30 5139 N 496.642 -0.504142 1.49319 0
M  V30 5140 C 497.87 -1.28256 1.62351 0
M  V30 5141 C 498.285 -1.86502 0.293682 0
M  V30 5142 O 497.642 -1.67678 -0.720449 0
M  V30 5143 C 497.693 -2.41507 2.68992 0
M  V30 5144 O 497.414 -1.85656 3.96817 0
M  V30 5145 C 498.915 -3.32929 2.927 0
M  V30 5146 H 496.135 -0.389115 0.546654 0
M  V30 5147 H 498.679 -0.605531 1.95329 0
M  V30 5148 H 496.834 -3.05046 2.38801 0
M  V30 5149 H 497.248 -2.59981 4.55533 0
M  V30 5150 H 498.722 -4.0868 3.71058 0
M  V30 5151 H 499.199 -3.89733 2.02496 0
M  V30 5152 H 499.805 -2.75158 3.24296 0
M  V30 5153 N 498.12 -1.38341 -0.754957 0
M  V30 5154 C 499.531 -1.30803 -1.3322 0
M  V30 5155 C 499.882 0.0368 -1.96165 0
M  V30 5156 O 499.007 0.938844 -1.94974 0
M  V30 5157 C 499.602 -2.3688 -2.42225 0
M  V30 5158 C 498.161 -2.32925 -2.95674 0
M  V30 5159 C 497.308 -2.19819 -1.69042 0
M  V30 5160 H 500.259 -1.48719 -0.553937 0
M  V30 5161 H 500.28 -2.02517 -3.22129 0
M  V30 5162 H 499.792 -3.34747 -1.96383 0
M  V30 5163 H 497.893 -1.38635 -3.45848 0
M  V30 5164 H 498.006 -3.27008 -3.50146 0
M  V30 5165 H 496.37 -1.66648 -1.92615 0
M  V30 5166 H 497.153 -3.19625 -1.25279 0
M  V30 5167 N 499.598 0.982988 -1.23187 0
M  V30 5168 C 500.846 1.72052 -1.06031 0
M  V30 5169 C 501.167 1.90769 0.404019 0
M  V30 5170 O 500.437 1.47446 1.28982 0
M  V30 5171 H 499.017 0.637499 -0.389363 0
M  V30 5172 H 501.679 1.18338 -1.54862 0
M  V30 5173 H 500.775 2.7111 -1.54615 0
M  V30 5174 N 501.076 1.04316 1.18135 0
M  V30 5175 C 502.301 0.768047 1.92655 0
M  V30 5176 C 502.726 -0.66904 1.758 0
M  V30 5177 O 502.084 -1.46372 1.06981 0
M  V30 5178 C 502.132 1.14239 3.42026 0
M  V30 5179 O 501.236 0.269333 4.1152 0
M  V30 5180 H 500.577 0.282436 0.600937 0
M  V30 5181 H 503.107 1.39367 1.49793 0
M  V30 5182 H 503.117 1.10538 3.92741 0
M  V30 5183 H 501.792 2.18928 3.53615 0
M  V30 5184 H 500.369 0.366175 3.71098 0
M  V30 5185 N 502.554 -1.34406 0.822964 0
M  V30 5186 C 503.802 -1.97892 0.410245 0
M  V30 5187 C 504.123 -1.65567 -1.03017 0
M  V30 5188 O 503.393 -0.94642 -1.71522 0
M  V30 5189 H 501.973 -0.732049 0.148707 0
M  V30 5190 H 504.635 -1.64043 1.05242 0
M  V30 5191 H 503.731 -3.07579 0.529284 0
M  V30 5192 N 504.032 -0.577932 -1.46621 0
M  V30 5193 C 504.964 0.195801 -2.28362 0
M  V30 5194 C 505.977 0.859983 -1.38232 0
M  V30 5195 O 507.166 0.730349 -1.62875 0
M  V30 5196 C 504.266 1.29639 -3.13124 0
M  V30 5197 C 503.439 0.725049 -4.31349 0
M  V30 5198 C 502.498 1.71274 -4.97546 0
M  V30 5199 O 501.524 1.25067 -5.5529 0
M  V30 5200 N 502.726 3.04672 -4.94121 0
M  V30 5201 H 505.491 -0.505468 -2.95407 0
M  V30 5202 H 503.052 -0.415381 -1.56481 0
M  V30 5203 H 505.044 1.95631 -3.54275 0
M  V30 5204 H 503.614 1.90059 -2.48186 0
M  V30 5205 H 502.834 -0.112205 -3.9404 0
M  V30 5206 H 504.122 0.323034 -5.07774 0
M  V30 5207 H 503.52 3.4484 -4.48444 0
M  V30 5208 H 502.077 3.66166 -5.39227 0
M  V30 5209 N 505.51 1.54411 -0.315457 0
M  V30 5210 C 506.757 2.00419 0.289543 0
M  V30 5211 C 507.085 1.20373 1.52776 0
M  V30 5212 O 506.34 0.271769 1.93804 0
M  V30 5213 C 506.639 3.50936 0.676652 0
M  V30 5214 C 506.305 4.48532 -0.461472 0
M  V30 5215 C 504.967 4.74936 -0.773879 0
M  V30 5216 C 507.319 5.06567 -1.22637 0
M  V30 5217 C 504.647 5.56634 -1.85405 0
M  V30 5218 C 506.999 5.89441 -2.29657 0
M  V30 5219 C 505.663 6.1415 -2.61488 0
M  V30 5220 H 504.933 0.733386 0.105951 0
M  V30 5221 H 507.58 1.86434 -0.437554 0
M  V30 5222 H 505.885 3.62606 1.48405 0
M  V30 5223 H 507.582 3.83971 1.15618 0
M  V30 5224 H 504.172 4.28096 -0.207893 0
M  V30 5225 H 508.356 4.86157 -0.998271 0
M  V30 5226 H 503.612 5.74012 -2.10523 0
M  V30 5227 H 507.786 6.33432 -2.89374 0
M  V30 5228 H 505.413 6.77245 -3.45317 0
M  V30 5229 N 506.988 0.0434614 1.5754 0
M  V30 5230 C 507.921 -0.968729 2.06618 0
M  V30 5231 C 508.899 -1.30868 0.965 0
M  V30 5232 O 510.083 -1.42288 1.23638 0
M  V30 5233 C 507.21 -2.28486 2.50023 0
M  V30 5234 C 506.256 -2.09851 3.71302 0
M  V30 5235 S 507.089 -1.38401 5.17306 0
M  V30 5236 C 508.245 -2.71354 5.64019 0
M  V30 5237 H 508.478 -0.551021 2.92149 0
M  V30 5238 H 506.011 -0.168607 1.53477 0
M  V30 5239 H 507.969 -3.04142 2.75695 0
M  V30 5240 H 506.63 -2.67387 1.64812 0
M  V30 5241 H 505.823 -3.07184 3.99567 0
M  V30 5242 H 505.425 -1.42336 3.45856 0
M  V30 5243 H 507.717 -3.67549 5.69134 0
M  V30 5244 H 508.66 -2.47734 6.6335 0
M  V30 5245 H 509.068 -2.77259 4.91719 0
M  V30 5246 N 508.466 -1.55915 -0.229846 0
M  V30 5247 C 509.694 -1.82617 -0.972562 0
M  V30 5248 C 510.109 -0.621488 -1.78278 0
M  V30 5249 O 509.466 0.409956 -1.77836 0
M  V30 5250 C 509.517 -3.0774 -1.89679 0
M  V30 5251 O 509.238 -4.23559 -1.11934 0
M  V30 5252 C 510.739 -3.47368 -2.75409 0
M  V30 5253 H 507.959 -0.60727 -0.285419 0
M  V30 5254 H 510.503 -2.02996 -0.247579 0
M  V30 5255 H 508.658 -2.89361 -2.57583 0
M  V30 5256 H 509.072 -4.94586 -1.74599 0
M  V30 5257 H 510.546 -4.37977 -3.35977 0
M  V30 5258 H 511.023 -2.68737 -3.47386 0
M  V30 5259 H 511.629 -3.68158 -2.12931 0
M  V30 5260 N 509.944 0.496216 -1.49584 0
M  V30 5261 C 511.172 1.27394 -1.63029 0
M  V30 5262 C 511.587 1.86344 -0.303569 0
M  V30 5263 O 510.944 1.68057 0.711547 0
M  V30 5264 C 510.995 2.40077 -2.70269 0
M  V30 5265 O 510.716 1.83549 -3.97796 0
M  V30 5266 C 512.217 3.31372 -2.94462 0
M  V30 5267 H 509.437 0.386211 -0.54871 0
M  V30 5268 H 511.981 0.595163 -1.95648 0
M  V30 5269 H 510.136 3.03775 -2.40415 0
M  V30 5270 H 510.55 2.57561 -4.56905 0
M  V30 5271 H 512.024 4.06707 -3.73221 0
M  V30 5272 H 512.501 3.88654 -2.0456 0
M  V30 5273 H 513.107 2.73435 -3.25751 0
M  V30 5274 N 511.423 1.38739 0.74761 0
M  V30 5275 C 512.7 1.25791 1.49786 0
M  V30 5276 C 513.08 -0.138075 2.10648 0
M  V30 5277 O 512.428 -1.14815 1.9756 0
M  V30 5278 C 512.638 2.37265 2.55942 0
M  V30 5279 C 513.986 2.75978 3.22679 0
M  V30 5280 O 515.01 2.36621 2.6625 0
M  V30 5281 O 513.869 3.43867 4.24756 0
M  V30 5282 H 510.963 0.492251 0.664543 0
M  V30 5283 H 513.509 1.50582 0.782511 0
M  V30 5284 H 512.281 3.30644 2.0926 0
M  V30 5285 H 511.904 2.14071 3.35051 0
M  V30 5286 N 512.901 -0.976442 1.23707 0
M  V30 5287 C 514.178 -1.69296 0.979699 0
M  V30 5288 C 514.558 -2.0508 -0.500555 0
M  V30 5289 O 513.906 -1.74708 -1.47273 0
M  V30 5290 C 514.116 -2.93143 1.89389 0
M  V30 5291 C 515.464 -3.65572 2.15968 0
M  V30 5292 O 516.488 -3.03184 1.86971 0
M  V30 5293 O 515.347 -4.77859 2.65167 0
M  V30 5294 H 512.441 -0.739708 0.369812 0
M  V30 5295 H 514.987 -1.03131 1.34767 0
M  V30 5296 H 513.759 -2.63327 2.89439 0
M  V30 5297 H 513.382 -3.67044 1.52854 0
M  V30 5298 N 514.379 -1.04941 -1.1758 0
M  V30 5299 C 515.312 -0.592518 -2.20373 0
M  V30 5300 C 516.29 0.377561 -1.58156 0
M  V30 5301 O 517.474 0.28978 -1.86259 0
M  V30 5302 C 514.601 0.133215 -3.38438 0
M  V30 5303 C 513.647 -0.791484 -4.19092 0
M  V30 5304 S 514.48 -2.27925 -4.84572 0
M  V30 5305 C 515.636 -1.56462 -6.06028 0
M  V30 5306 H 515.869 -1.46342 -2.58788 0
M  V30 5307 H 513.402 -0.861148 -1.28155 0
M  V30 5308 H 515.36 0.545746 -4.06856 0
M  V30 5309 H 514.021 0.980124 -2.98416 0
M  V30 5310 H 513.214 -0.230039 -5.03475 0
M  V30 5311 H 512.816 -1.14326 -3.56098 0
M  V30 5312 H 515.108 -0.862539 -6.71987 0
M  V30 5313 H 516.051 -2.38583 -6.66696 0
M  V30 5314 H 516.459 -1.05313 -5.5459 0
M  V30 5315 N 515.857 1.33968 -0.830081 0
M  V30 5316 C 516.789 2.28194 -0.21448 0
M  V30 5317 C 517.802 1.5135 0.599752 0
M  V30 5318 O 518.991 1.73286 0.42826 0
M  V30 5319 C 516.091 3.31221 0.717356 0
M  V30 5320 C 515.264 4.37365 -0.055613 0
M  V30 5321 C 514.323 5.2011 0.798231 0
M  V30 5322 O 513.349 5.68691 0.240616 0
M  V30 5323 N 514.551 5.40523 2.11695 0
M  V30 5324 H 517.316 2.81662 -1.02405 0
M  V30 5325 H 514.877 1.46568 -0.687713 0
M  V30 5326 H 516.869 3.83477 1.29334 0
M  V30 5327 H 515.439 2.78095 1.42765 0
M  V30 5328 H 514.659 3.85727 -0.812936 0
M  V30 5329 H 515.947 5.05397 -0.587444 0
M  V30 5330 H 515.345 5.0274 2.59363 0
M  V30 5331 H 513.902 5.95871 2.64162 0
M  V30 5332 N 517.335 0.585699 1.46312 0
M  V30 5333 C 518.56 0.0762461 2.0726 0
M  V30 5334 C 518.985 -1.22071 1.43109 0
M  V30 5335 O 518.343 -1.73804 0.515942 0
M  V30 5336 C 518.391 -0.0729404 3.60526 0
M  V30 5337 O 517.495 -1.1287 3.96654 0
M  V30 5338 H 516.836 0.0641558 0.660893 0
M  V30 5339 H 519.366 0.809492 1.87905 0
M  V30 5340 H 519.376 -0.278158 4.07051 0
M  V30 5341 H 518.051 0.874188 4.06609 0
M  V30 5342 H 516.628 -0.901703 3.61834 0
M  V30 5343 N 518.813 -1.54241 0.323641 0
M  V30 5344 C 520.224 -1.85975 -0.164405 0
M  V30 5345 C 520.575 -1.24529 -1.51615 0
M  V30 5346 O 519.7 -0.551351 -2.09258 0
M  V30 5347 C 520.295 -3.37424 -0.305091 0
M  V30 5348 C 518.854 -3.69107 -0.737358 0
M  V30 5349 C 518.001 -2.76942 0.140884 0
M  V30 5350 H 520.952 -1.49088 0.543922 0
M  V30 5351 H 520.973 -3.63147 -1.13598 0
M  V30 5352 H 520.485 -3.82116 0.678876 0
M  V30 5353 H 518.586 -3.29947 -1.73107 0
M  V30 5354 H 518.699 -4.76035 -0.541053 0
M  V30 5355 H 517.063 -2.51795 -0.383572 0
M  V30 5356 H 517.846 -3.24461 1.12162 0
M  V30 5357 N 520.291 -0.0518155 -1.57515 0
M  V30 5358 C 521.531 0.625712 -1.94587 0
M  V30 5359 C 521.895 1.6797 -0.930053 0
M  V30 5360 O 523.096 2.41135 -1.18774 0
M  V30 5361 C 521.367 1.20574 -3.36447 0
M  V30 5362 S 522.926 1.90118 -3.95475 0
M  V30 5363 H 519.744 0.205434 -0.680675 0
M  V30 5364 H 522.346 -0.120906 -1.95126 0
M  V30 5365 H 521.05 0.426521 -4.08178 0
M  V30 5366 H 520.581 1.98916 -3.39405 0
M  V30 5367 H 522.596 3.18184 -3.80753 0
M  V30 5368 N 521.769 1.56035 0.221574 0
M  V30 5369 C 522.732 1.91584 1.2581 0
M  V30 5370 C 523.732 0.794425 1.39805 0
M  V30 5371 O 524.922 1.06217 1.38071 0
M  V30 5372 C 522.054 2.16663 2.63192 0
M  V30 5373 H 523.247 2.8429 0.954935 0
M  V30 5374 H 520.8 1.49316 0.461988 0
M  V30 5375 H 521.535 1.26508 2.98607 0
M  V30 5376 H 521.32 2.98358 2.5441 0
M  V30 5377 H 522.81 2.45262 3.37988 0
M  V30 5378 N 523.247 -0.488276 1.49845 0
M  V30 5379 C 524.177 -1.59675 1.70371 0
M  V30 5380 C 525.158 -1.60878 0.552473 0
M  V30 5381 O 526.343 -1.77417 0.78973 0
M  V30 5382 C 523.473 -2.98098 1.782 0
M  V30 5383 C 522.427 -3.11761 2.93239 0
M  V30 5384 C 521.753 -4.51661 2.86193 0
M  V30 5385 C 523.053 -2.90589 4.33999 0
M  V30 5386 H 524.747 -1.42752 2.63177 0
M  V30 5387 H 522.293 -0.685317 1.26647 0
M  V30 5388 H 524.246 -3.75555 1.91144 0
M  V30 5389 H 522.97 -3.16138 0.820018 0
M  V30 5390 H 521.629 -2.36732 2.79917 0
M  V30 5391 H 521.277 -4.66595 1.87877 0
M  V30 5392 H 520.977 -4.61742 3.63412 0
M  V30 5393 H 522.501 -5.31162 3.01163 0
M  V30 5394 H 523.915 -3.57807 4.47936 0
M  V30 5395 H 522.312 -3.1213 5.12538 0
M  V30 5396 H 523.382 -1.86595 4.4756 0
M  V30 5397 N 524.725 -1.39134 -0.740242 0
M  V30 5398 C 526.136 -1.32208 -1.31825 0
M  V30 5399 C 526.487 0.0159919 -1.96193 0
M  V30 5400 O 525.612 0.918111 -1.95958 0
M  V30 5401 C 526.207 -2.39436 -2.39699 0
M  V30 5402 C 524.766 -2.36048 -2.93187 0
M  V30 5403 C 523.913 -2.21599 -1.66701 0
M  V30 5404 H 526.864 -1.49298 -0.538133 0
M  V30 5405 H 526.885 -2.05922 -3.19963 0
M  V30 5406 H 526.397 -3.36811 -1.92821 0
M  V30 5407 H 524.498 -1.42295 -3.44359 0
M  V30 5408 H 524.611 -3.30704 -3.46658 0
M  V30 5409 H 522.975 -1.68681 -1.90837 0
M  V30 5410 H 523.758 -3.20936 -1.21882 0
M  V30 5411 N 526.204 0.969867 -1.24223 0
M  V30 5412 C 527.45 1.71582 -1.09231 0
M  V30 5413 C 527.805 1.88898 0.365432 0
M  V30 5414 O 527.098 1.43781 1.2664 0
M  V30 5415 C 527.292 3.10883 -1.76314 0
M  V30 5416 C 527.121 3.07155 -3.2846 0
M  V30 5417 C 525.891 3.11757 -3.97663 0
M  V30 5418 C 528.089 2.895 -4.25082 0
M  V30 5419 N 526.071 2.98025 -5.36707 0
M  V30 5420 C 527.442 2.84041 -5.51109 0
M  V30 5421 C 529.497 2.74064 -4.15684 0
M  V30 5422 C 528.2 2.64725 -6.68815 0
M  V30 5423 C 530.226 2.56115 -5.33066 0
M  V30 5424 C 529.588 2.51363 -6.58024 0
M  V30 5425 H 525.687 0.636496 -0.454309 0
M  V30 5426 H 528.271 1.15004 -1.57106 0
M  V30 5427 H 526.442 3.65657 -1.30955 0
M  V30 5428 H 528.174 3.74171 -1.54201 0
M  V30 5429 H 524.929 3.20352 -3.48814 0
M  V30 5430 H 525.353 2.94405 -6.09635 0
M  V30 5431 H 529.995 2.76521 -3.19837 0
M  V30 5432 H 527.713 2.61011 -7.64787 0
M  V30 5433 H 531.299 2.45119 -5.27644 0
M  V30 5434 H 530.179 2.37651 -7.47323 0
M  V30 5435 N 527.682 1.05563 1.17022 0
M  V30 5436 C 528.912 0.787307 1.91011 0
M  V30 5437 C 529.32 -0.661256 1.77268 0
M  V30 5438 O 528.663 -1.46379 1.10991 0
M  V30 5439 C 528.725 1.09313 3.42478 0
M  V30 5440 C 528.389 2.53863 3.80004 0
M  V30 5441 C 529.386 3.52081 3.82538 0
M  V30 5442 C 527.071 2.88969 4.10855 0
M  V30 5443 C 529.065 4.83449 4.15399 0
M  V30 5444 C 526.752 4.2054 4.43384 0
M  V30 5445 C 527.75 5.17589 4.45635 0
M  V30 5446 O 527.438 6.46799 4.77395 0
M  V30 5447 H 527.17 0.285463 0.61277 0
M  V30 5448 H 529.724 1.41051 1.49311 0
M  V30 5449 H 527.954 0.412833 3.8449 0
M  V30 5450 H 529.643 0.810224 3.97731 0
M  V30 5451 H 530.409 3.26299 3.58823 0
M  V30 5452 H 526.288 2.1409 4.08272 0
M  V30 5453 H 529.832 5.59194 4.1707 0
M  V30 5454 H 525.729 4.46083 4.66563 0
M  V30 5455 H 526.497 6.51677 4.95237 0
M  V30 5456 N 529.16 -1.33526 0.837174 0
M  V30 5457 C 530.11 -2.2672 0.241269 0
M  V30 5458 C 531.094 -1.49183 -0.602756 0
M  V30 5459 O 532.286 -1.71052 -0.455002 0
M  V30 5460 C 529.415 -3.38294 -0.584125 0
M  V30 5461 C 528.501 -4.23231 0.271315 0
M  V30 5462 N 528.892 -4.87473 1.34922 0
M  V30 5463 C 527.19 -4.45962 0.0580589 0
M  V30 5464 C 527.891 -5.50685 1.87405 0
M  V30 5465 N 526.867 -5.30732 1.17578 0
M  V30 5466 H 530.669 -2.73903 1.06558 0
M  V30 5467 H 528.183 -1.47411 0.68145 0
M  V30 5468 H 530.18 -4.04044 -1.02731 0
M  V30 5469 H 528.84 -2.9266 -1.40643 0
M  V30 5470 H 529.851 -4.88077 1.7321 0
M  V30 5471 H 526.528 -4.11052 -0.730938 0
M  V30 5472 H 527.918 -6.11845 2.77661 0
M  V30 5473 N 530.638 -0.59345 -1.46 0
M  V30 5474 C 532.049 -0.169801 -1.85926 0
M  V30 5475 C 532.4 1.26984 -1.49565 0
M  V30 5476 O 531.525 1.96076 -0.915602 0
M  V30 5477 C 532.12 -0.301385 -3.37457 0
M  V30 5478 C 530.679 0.0674684 -3.7634 0
M  V30 5479 C 529.826 -0.632383 -2.69993 0
M  V30 5480 H 532.777 -0.801014 -1.37002 0
M  V30 5481 H 532.798 0.470331 -3.77582 0
M  V30 5482 H 532.31 -1.34927 -3.63891 0
M  V30 5483 H 530.411 1.11507 -3.55523 0
M  V30 5484 H 530.524 -0.316332 -4.78055 0
M  V30 5485 H 528.888 -0.0714961 -2.546 0
M  V30 5486 H 529.671 -1.68212 -2.99265 0
M  V30 5487 N 532.116 1.54067 -0.331816 0
M  V30 5488 C 533.344 2.05131 0.269996 0
M  V30 5489 C 533.759 1.20749 1.45138 0
M  V30 5490 O 533.116 0.240069 1.80914 0
M  V30 5491 C 533.167 3.54728 0.696456 0
M  V30 5492 O 532.888 4.35906 -0.43794 0
M  V30 5493 C 534.389 4.21916 1.36021 0
M  V30 5494 H 531.609 0.668807 0.0542042 0
M  V30 5495 H 534.153 1.98777 -0.4804 0
M  V30 5496 H 532.308 3.61342 1.39681 0
M  V30 5497 H 532.722 5.24404 -0.100334 0
M  V30 5498 H 534.196 5.28015 1.60947 0
M  V30 5499 H 534.673 3.73538 2.31011 0
M  V30 5500 H 535.279 4.19463 0.702212 0
M  V30 5501 N 533.594 0.0601682 1.57485 0
M  V30 5502 C 534.541 -0.91112 2.12055 0
M  V30 5503 C 535.511 -1.30298 1.03013 0
M  V30 5504 O 536.696 -1.39087 1.30612 0
M  V30 5505 C 533.836 -2.1775 2.67729 0
M  V30 5506 C 532.949 -1.83933 3.90887 0
M  V30 5507 C 532.084 -3.05096 4.34845 0
M  V30 5508 C 531.123 -2.67241 5.5068 0
M  V30 5509 N 530.26 -3.81127 5.8965 0
M  V30 5510 H 535.1 -0.43888 2.9475 0
M  V30 5511 H 532.637 -0.204995 1.45665 0
M  V30 5512 H 534.595 -2.91866 2.98111 0
M  V30 5513 H 533.225 -2.62535 1.87816 0
M  V30 5514 H 532.277 -0.999287 3.6704 0
M  V30 5515 H 533.589 -1.52074 4.75052 0
M  V30 5516 H 532.743 -3.87502 4.66827 0
M  V30 5517 H 531.482 -3.40139 3.49509 0
M  V30 5518 H 530.487 -1.83254 5.18361 0
M  V30 5519 H 531.712 -2.3338 6.37738 0
M  V30 5520 H 529.658 -4.15954 5.07266 0
M  V30 5521 H 529.575 -3.52997 6.68528 0
M  V30 5522 H 530.843 -4.64145 6.2625 0
M  V30 5523 N 535.072 -1.5615 -0.213296 0
M  V30 5524 C 535.982 -1.96265 -1.28519 0
M  V30 5525 C 536.998 -0.86765 -1.50824 0
M  V30 5526 O 538.174 -1.17191 -1.63793 0
M  V30 5527 C 535.239 -2.27836 -2.61327 0
M  V30 5528 C 534.3 -3.50949 -2.47252 0
M  V30 5529 C 533.533 -3.81004 -3.73727 0
M  V30 5530 O 533.756 -3.12612 -4.77106 0
M  V30 5531 O 532.69 -4.74477 -3.70344 0
M  V30 5532 H 536.516 -2.87631 -0.974795 0
M  V30 5533 H 534.101 -1.43467 -0.416832 0
M  V30 5534 H 535.983 -2.49299 -3.39747 0
M  V30 5535 H 534.658 -1.39643 -2.9203 0
M  V30 5536 H 533.565 -3.34754 -1.67004 0
M  V30 5537 H 534.898 -4.39551 -2.21486 0
M  V30 5538 N 536.55 0.480323 -1.50102 0
M  V30 5539 C 537.799 1.22979 -1.59872 0
M  V30 5540 C 538.112 1.93282 -0.30022 0
M  V30 5541 O 539.318 2.70086 -0.276709 0
M  V30 5542 C 537.774 2.23408 -2.82164 0
M  V30 5543 C 537.382 1.5895 -4.18854 0
M  V30 5544 C 539.126 2.99055 -3.01275 0
M  V30 5545 C 537.033 2.57611 -5.32344 0
M  V30 5546 H 535.963 0.462707 -0.59533 0
M  V30 5547 H 538.614 0.501291 -1.7652 0
M  V30 5548 H 536.996 2.99511 -2.59055 0
M  V30 5549 H 538.17 0.887 -4.52182 0
M  V30 5550 H 536.485 0.956191 -4.05273 0
M  V30 5551 H 539.082 3.72876 -3.83233 0
M  V30 5552 H 539.425 3.57897 -2.12639 0
M  V30 5553 H 539.958 2.30066 -3.24522 0
M  V30 5554 H 536.697 2.03521 -6.23105 0
M  V30 5555 H 536.217 3.26041 -5.03445 0
M  V30 5556 H 537.896 3.19627 -5.62537 0
M  V30 5557 N 538.028 1.39524 0.732853 0
M  V30 5558 C 539.275 1.36865 1.49246 0
M  V30 5559 C 539.603 -0.0347118 1.94469 0
M  V30 5560 O 538.858 -1.01596 1.67262 0
M  V30 5561 C 539.157 2.28916 2.74468 0
M  V30 5562 C 538.823 3.76506 2.481 0
M  V30 5563 C 537.485 4.16721 2.40619 0
M  V30 5564 C 539.837 4.69846 2.25598 0
M  V30 5565 C 537.165 5.48334 2.08679 0
M  V30 5566 C 539.517 6.01739 1.95174 0
M  V30 5567 C 538.181 6.41015 1.86163 0
M  V30 5568 H 537.451 0.500824 0.546129 0
M  V30 5569 H 540.098 1.72047 0.840958 0
M  V30 5570 H 538.403 1.86859 3.4437 0
M  V30 5571 H 540.1 2.2415 3.32502 0
M  V30 5572 H 536.69 3.44635 2.54803 0
M  V30 5573 H 540.874 4.39608 2.30344 0
M  V30 5574 H 536.13 5.77685 2.00226 0
M  V30 5575 H 540.304 6.73591 1.76771 0
M  V30 5576 H 537.931 7.42917 1.61179 0
M  V30 5577 N 539.506 -0.963266 1.24736 0
M  V30 5578 C 540.755 -1.70115 1.08369 0
M  V30 5579 C 541.068 -1.91939 -0.376688 0
M  V30 5580 O 542.274 -2.6334 -0.660624 0
M  V30 5581 C 540.73 -3.06218 1.89099 0
M  V30 5582 C 540.338 -2.92221 3.39574 0
M  V30 5583 C 542.082 -3.83848 1.81275 0
M  V30 5584 C 539.989 -4.23662 4.12631 0
M  V30 5585 H 538.919 -0.637944 0.401924 0
M  V30 5586 H 541.57 -1.07304 1.48856 0
M  V30 5587 H 539.952 -3.69884 1.41429 0
M  V30 5588 H 541.126 -2.37541 3.94856 0
M  V30 5589 H 539.441 -2.28054 3.48397 0
M  V30 5590 H 542.038 -4.81188 2.33158 0
M  V30 5591 H 542.381 -4.08949 0.778895 0
M  V30 5592 H 542.914 -3.26918 2.26649 0
M  V30 5593 H 539.653 -4.03753 5.16395 0
M  V30 5594 H 539.173 -4.78141 3.62135 0
M  V30 5595 H 540.852 -4.92256 4.19873 0
M  V30 5596 N 540.985 -1.06182 -1.16461 0
M  V30 5597 C 542.396 -0.802426 -1.68576 0
M  V30 5598 C 542.747 0.67412 -1.84255 0
M  V30 5599 O 541.872 1.52303 -1.5373 0
M  V30 5600 C 542.467 -1.45002 -3.06202 0
M  V30 5601 C 541.026 -1.23843 -3.55443 0
M  V30 5602 C 540.173 -1.52724 -2.31454 0
M  V30 5603 H 543.124 -1.22545 -1.00839 0
M  V30 5604 H 543.145 -0.864731 -3.70544 0
M  V30 5605 H 542.657 -2.52466 -2.94759 0
M  V30 5606 H 540.758 -0.183487 -3.72148 0
M  V30 5607 H 540.871 -1.95036 -4.37604 0
M  V30 5608 H 539.235 -0.947726 -2.36411 0
M  V30 5609 H 540.018 -2.61343 -2.22609 0
M  V30 5610 N 542.463 1.3308 -0.844243 0
M  V30 5611 C 543.711 1.97215 -0.441676 0
M  V30 5612 C 544.032 1.67185 1.0037 0
M  V30 5613 O 543.302 0.973588 1.69994 0
M  V30 5614 H 541.882 0.72959 -0.160335 0
M  V30 5615 H 544.544 1.62348 -1.07838 0
M  V30 5616 H 543.64 3.06698 -0.57815 0
M  V30 5617 N 543.941 0.601185 1.45683 0
M  V30 5618 C 544.851 -0.123395 2.34275 0
M  V30 5619 C 545.867 -0.86702 1.5086 0
M  V30 5620 O 547.043 -0.826049 1.8368 0
M  V30 5621 C 544.108 -1.11237 3.2837 0
M  V30 5622 C 543.169 -0.371405 4.2769 0
M  V30 5623 C 542.402 -1.31327 5.1729 0
M  V30 5624 O 542.625 -2.55078 5.10188 0
M  V30 5625 O 541.559 -0.813811 5.96373 0
M  V30 5626 H 545.385 0.604483 2.97623 0
M  V30 5627 H 542.97 0.361477 1.44961 0
M  V30 5628 H 544.852 -1.68214 3.8637 0
M  V30 5629 H 543.527 -1.82139 2.67595 0
M  V30 5630 H 542.434 0.24067 3.73325 0
M  V30 5631 H 543.767 0.296998 4.91303 0
M  V30 5632 N 545.419 -1.53889 0.339982 0
M  V30 5633 C 546.665 -2.01152 -0.258003 0
M  V30 5634 C 546.998 -1.22749 -1.50487 0
M  V30 5635 O 546.273 -0.314156 -1.91946 0
M  V30 5636 C 546.556 -3.55468 -0.575717 0
M  V30 5637 C 546.409 -4.44584 0.682996 0
M  V30 5638 C 547.728 -4.1768 -1.38677 0
M  V30 5639 H 544.847 -0.731198 -0.0922992 0
M  V30 5640 H 547.489 -1.84352 0.459814 0
M  V30 5641 H 545.639 -3.69914 -1.18725 0
M  V30 5642 H 547.311 -4.41981 1.32102 0
M  V30 5643 H 545.554 -4.13592 1.3086 0
M  V30 5644 H 546.225 -5.5043 0.416001 0
M  V30 5645 H 548.701 -4.0691 -0.869705 0
M  V30 5646 H 547.577 -5.25734 -1.57783 0
M  V30 5647 H 547.838 -3.72069 -2.38782 0
M  V30 5648 N 546.897 -0.0685191 -1.57451 0
M  V30 5649 C 547.844 0.899861 -2.12535 0
M  V30 5650 C 548.814 1.29749 -1.03703 0
M  V30 5651 O 549.999 1.38392 -1.31348 0
M  V30 5652 C 547.139 2.16328 -2.6888 0
M  V30 5653 C 546.252 1.81857 -3.91857 0
M  V30 5654 C 545.387 3.02786 -4.36457 0
M  V30 5655 C 544.426 2.64317 -5.5209 0
M  V30 5656 N 543.563 3.77994 -5.91663 0
M  V30 5657 H 548.403 0.423243 -2.94979 0
M  V30 5658 H 545.94 0.197268 -1.45771 0
M  V30 5659 H 547.898 2.90281 -2.99655 0
M  V30 5660 H 546.528 2.61536 -1.89206 0
M  V30 5661 H 545.58 0.979808 -3.67565 0
M  V30 5662 H 546.892 1.49553 -4.75852 0
M  V30 5663 H 546.046 3.85021 -4.68875 0
M  V30 5664 H 544.785 3.38281 -3.51308 0
M  V30 5665 H 543.79 1.80503 -5.19325 0
M  V30 5666 H 545.015 2.29995 -6.38967 0
M  V30 5667 H 542.961 4.13258 -5.09464 0
M  V30 5668 H 542.878 3.49447 -6.7039 0
M  V30 5669 H 544.146 4.60818 -6.28703 0
M  V30 5670 N 548.375 1.56261 0.205012 0
M  V30 5671 C 549.323 1.94631 1.27364 0
M  V30 5672 C 550.317 0.830434 1.47649 0
M  V30 5673 O 551.523 1.01538 1.48627 0
M  V30 5674 H 547.898 0.618755 0.427371 0
M  V30 5675 H 549.869 2.83768 0.922941 0
M  V30 5676 C 548.618 2.29358 2.61324 0
M  V30 5677 H 547.941 3.14744 2.46528 0
M  V30 5678 H 549.381 2.60076 3.34868 0
M  V30 5679 C 547.84 1.12461 3.17575 0
M  V30 5680 O 548.37 0.394407 3.99759 0
M  V30 5681 N 546.576 0.904036 2.7618 0
M  V30 5682 H 546.123 1.49956 2.09454 0
M  V30 5683 H 546.081 0.123662 3.14157 0
M  V30 5684 N 549.853 -0.472356 1.50355 0
M  V30 5685 C 550.783 -1.57859 1.72055 0
M  V30 5686 C 551.764 -1.60283 0.569505 0
M  V30 5687 O 552.949 -1.7657 0.808503 0
M  V30 5688 C 550.079 -2.96191 1.81351 0
M  V30 5689 C 549.033 -3.08633 2.96529 0
M  V30 5690 C 548.359 -4.486 2.90968 0
M  V30 5691 C 549.659 -2.85969 4.37057 0
M  V30 5692 H 551.353 -1.39953 2.64676 0
M  V30 5693 H 548.899 -0.671846 1.27367 0
M  V30 5694 H 550.852 -3.73507 1.95117 0
M  V30 5695 H 549.576 -3.15251 0.853502 0
M  V30 5696 H 548.235 -2.33749 2.82413 0
M  V30 5697 H 547.883 -4.64577 1.92815 0
M  V30 5698 H 547.583 -4.57861 3.68289 0
M  V30 5699 H 549.107 -5.27938 3.0678 0
M  V30 5700 H 550.521 -3.53036 4.51706 0
M  V30 5701 H 548.918 -3.06677 5.15819 0
M  V30 5702 H 549.988 -1.81838 4.49514 0
M  V30 5703 N 551.331 -1.39911 -0.725443 0
M  V30 5704 C 552.58 -1.36963 -1.48068 0
M  V30 5705 C 552.893 0.0284478 -1.95579 0
M  V30 5706 O 554.099 0.180535 -2.70899 0
M  V30 5707 C 552.555 -2.40664 -2.67598 0
M  V30 5708 C 552.163 -3.86234 -2.26997 0
M  V30 5709 C 553.907 -2.46807 -3.45379 0
M  V30 5710 C 551.814 -4.81554 -3.43307 0
M  V30 5711 H 550.744 -0.509223 -0.556065 0
M  V30 5712 H 553.395 -1.65602 -0.790454 0
M  V30 5713 H 551.777 -2.05109 -3.38742 0
M  V30 5714 H 552.951 -4.3088 -1.63337 0
M  V30 5715 H 551.266 -3.83475 -1.62284 0
M  V30 5716 H 553.863 -3.15213 -4.31909 0
M  V30 5717 H 554.206 -1.49552 -3.8851 0
M  V30 5718 H 554.739 -2.81303 -2.81271 0
M  V30 5719 H 551.478 -5.80106 -3.05217 0
M  V30 5720 H 550.998 -4.4158 -4.05915 0
M  V30 5721 H 552.677 -5.0091 -4.0951 0
M  V30 5722 N 552.809 0.956637 -1.25245 0
M  V30 5723 C 553.719 2.0868 -1.0719 0
M  V30 5724 C 554.735 1.73997 -0.00959074 0
M  V30 5725 O 555.911 2.00301 -0.210104 0
M  V30 5726 C 552.976 3.39754 -0.690526 0
M  V30 5727 C 552.037 3.88316 -1.83055 0
M  V30 5728 C 551.27 5.13134 -1.46728 0
M  V30 5729 O 551.493 5.6925 -0.362029 0
M  V30 5730 O 550.427 5.56356 -2.29677 0
M  V30 5731 H 554.253 2.26813 -2.01965 0
M  V30 5732 H 551.838 1.07098 -1.04165 0
M  V30 5733 H 553.72 4.18543 -0.489871 0
M  V30 5734 H 552.395 3.22896 0.227981 0
M  V30 5735 H 551.302 3.1054 -2.08604 0
M  V30 5736 H 552.635 4.09669 -2.72822 0
M  V30 5737 N 554.287 1.06798 1.15896 0
M  V30 5738 C 555.22 0.627503 2.19403 0
M  V30 5739 C 556.198 -0.352352 1.58736 0
M  V30 5740 O 557.382 -0.260111 1.86697 0
M  V30 5741 C 554.509 -0.079356 3.38607 0
M  V30 5742 C 553.555 0.858057 4.17779 0
M  V30 5743 S 554.388 2.35605 4.80885 0
M  V30 5744 C 555.544 1.66083 6.03463 0
M  V30 5745 H 555.777 1.50441 2.56427 0
M  V30 5746 H 553.31 0.881427 1.26768 0
M  V30 5747 H 555.268 -0.48095 4.07673 0
M  V30 5748 H 553.929 -0.932524 2.99938 0
M  V30 5749 H 553.122 0.310108 5.03045 0
M  V30 5750 H 552.724 1.19977 3.54234 0
M  V30 5751 H 555.016 0.969337 6.7053 0
M  V30 5752 H 555.959 2.49159 6.62816 0
M  V30 5753 H 556.367 1.14122 5.52844 0
M  V30 5754 N 555.766 -1.3263 0.851289 0
M  V30 5755 C 557.006 -1.99174 0.459266 0
M  V30 5756 C 557.37 -1.65913 -0.966273 0
M  V30 5757 O 558.571 -2.2552 -1.46267 0
M  V30 5758 C 556.842 -3.50721 0.687698 0
M  V30 5759 S 558.401 -4.37039 0.392746 0
M  V30 5760 H 555.219 -0.689832 0.172199 0
M  V30 5761 H 557.821 -1.61395 1.10327 0
M  V30 5762 H 556.525 -3.72417 1.72435 0
M  V30 5763 H 556.056 -3.93389 0.0299949 0
M  V30 5764 H 558.071 -4.8999 -0.782578 0
M  V30 5765 N 557.244 -0.608902 -1.45362 0
M  V30 5766 C 558.176 0.147318 -2.28726 0
M  V30 5767 C 559.189 0.830468 -1.40025 0
M  V30 5768 O 560.378 0.695636 -1.64387 0
M  V30 5769 C 557.478 1.22968 -3.15804 0
M  V30 5770 C 556.651 0.633391 -4.3279 0
M  V30 5771 C 555.71 1.60682 -5.01067 0
M  V30 5772 O 554.736 1.13261 -5.57818 0
M  V30 5773 N 555.938 2.94123 -5.00472 0
M  V30 5774 H 558.703 -0.568014 -2.94268 0
M  V30 5775 H 556.264 -0.448479 -1.55564 0
M  V30 5776 H 558.256 1.88072 -3.58345 0
M  V30 5777 H 556.826 1.84752 -2.52162 0
M  V30 5778 H 556.046 -0.195762 -3.93714 0
M  V30 5779 H 557.334 0.215255 -5.08344 0
M  V30 5780 H 556.732 3.3525 -4.55657 0
M  V30 5781 H 555.289 3.54646 -5.46872 0
M  V30 5782 N 558.722 1.53707 -0.348139 0
M  V30 5783 C 559.968 2.01286 0.247332 0
M  V30 5784 C 560.301 1.23546 1.49834 0
M  V30 5785 O 559.576 0.324331 1.91777 0
M  V30 5786 C 559.859 3.55768 0.556858 0
M  V30 5787 C 559.712 4.44216 -0.706564 0
M  V30 5788 C 561.031 4.1841 1.3646 0
M  V30 5789 H 558.15 0.731677 0.0884201 0
M  V30 5790 H 560.792 1.84106 -0.469584 0
M  V30 5791 H 558.942 3.70539 1.16761 0
M  V30 5792 H 560.614 4.41274 -1.34444 0
M  V30 5793 H 558.857 4.12892 -1.33052 0
M  V30 5794 H 559.528 5.50202 -0.445186 0
M  V30 5795 H 562.004 4.07365 0.848113 0
M  V30 5796 H 560.88 5.26563 1.54992 0
M  V30 5797 H 561.141 3.7333 2.36805 0
M  V30 5798 N 560.2 0.0768682 1.57412 0
M  V30 5799 C 561.477 -0.632359 1.85096 0
M  V30 5800 C 561.857 -1.87479 0.9703 0
M  V30 5801 O 561.205 -2.28469 0.0379062 0
M  V30 5802 C 561.415 -0.965174 3.35388 0
M  V30 5803 C 562.763 -1.33648 4.03018 0
M  V30 5804 O 563.787 -1.05675 3.40164 0
M  V30 5805 O 562.646 -1.85959 5.13889 0
M  V30 5806 H 559.74 -0.314574 0.764835 0
M  V30 5807 H 562.286 0.108184 1.69355 0
M  V30 5808 H 561.058 -0.0829745 3.91212 0
M  V30 5809 H 560.681 -1.76231 3.5641 0
M  V30 5810 N 561.678 -1.56367 -0.196722 0
M  V30 5811 C 562.906 -1.84639 -0.933608 0
M  V30 5812 C 563.321 -0.659164 -1.76919 0
M  V30 5813 O 562.678 0.372142 -1.78665 0
M  V30 5814 C 562.729 -3.11694 -1.83109 0
M  V30 5815 O 562.45 -4.25838 -1.02924 0
M  V30 5816 C 563.951 -3.53132 -2.67979 0
M  V30 5817 H 561.171 -0.613188 -0.272473 0
M  V30 5818 H 563.715 -2.03475 -0.204465 0
M  V30 5819 H 561.87 -2.94759 -2.51387 0
M  V30 5820 H 562.284 -4.98178 -1.64069 0
M  V30 5821 H 563.758 -4.45005 -3.26611 0
M  V30 5822 H 564.235 -2.76045 -3.41608 0
M  V30 5823 H 564.841 -3.72592 -2.05074 0
M  V30 5824 N 563.156 0.464375 -1.50603 0
M  V30 5825 C 564.086 1.56944 -1.72889 0
M  V30 5826 C 565.067 1.59979 -0.577997 0
M  V30 5827 O 566.252 1.76138 -0.817855 0
M  V30 5828 C 563.382 2.95225 -1.8292 0
M  V30 5829 C 562.336 3.07056 -2.98162 0
M  V30 5830 C 561.662 4.47051 -2.93343 0
M  V30 5831 C 562.962 2.83648 -4.38567 0
M  V30 5832 H 564.656 1.38547 -2.65415 0
M  V30 5833 H 562.202 0.665082 -1.27721 0
M  V30 5834 H 564.155 3.72467 -1.97095 0
M  V30 5835 H 562.879 3.14793 -0.870209 0
M  V30 5836 H 561.538 2.32248 -2.83648 0
M  V30 5837 H 561.186 4.63547 -1.95276 0
M  V30 5838 H 560.886 4.55902 -3.70712 0
M  V30 5839 H 562.41 5.26304 -3.09575 0
M  V30 5840 H 563.824 3.50636 -4.53572 0
M  V30 5841 H 562.221 3.03937 -5.17438 0
M  V30 5842 H 563.291 1.79451 -4.50472 0
M  V30 5843 N 564.634 1.40294 0.718013 0
M  V30 5844 C 565.883 1.37746 1.4734 0
M  V30 5845 C 566.196 -0.0180754 1.95592 0
M  V30 5846 O 567.402 -0.166166 2.70991 0
M  V30 5847 C 565.858 2.4208 2.66318 0
M  V30 5848 C 565.466 3.87432 2.24945 0
M  V30 5849 C 567.21 2.48635 3.44065 0
M  V30 5850 C 565.117 4.83368 3.40748 0
M  V30 5851 H 564.047 0.512165 0.553356 0
M  V30 5852 H 566.698 1.66019 0.781661 0
M  V30 5853 H 565.08 2.06903 3.3765 0
M  V30 5854 H 566.254 4.3174 1.6105 0
M  V30 5855 H 564.569 3.8433 1.60249 0
M  V30 5856 H 567.166 3.17499 4.30231 0
M  V30 5857 H 567.509 1.51611 3.87711 0
M  V30 5858 H 568.042 2.82791 2.79775 0
M  V30 5859 H 564.781 5.81716 3.02136 0
M  V30 5860 H 564.301 4.43726 4.03568 0
M  V30 5861 H 565.98 5.03074 4.06848 0
M  V30 5862 N 566.112 -0.949982 1.2575 0
M  V30 5863 C 567.523 -1.50989 1.09815 0
M  V30 5864 C 567.874 -1.93497 -0.324556 0
M  V30 5865 O 566.999 -1.79068 -1.21506 0
M  V30 5866 C 567.594 -2.74394 1.98729 0
M  V30 5867 C 566.153 -3.26682 1.86965 0
M  V30 5868 C 565.3 -1.99498 1.92603 0
M  V30 5869 H 568.251 -0.766387 1.38968 0
M  V30 5870 H 568.272 -3.48383 1.53001 0
M  V30 5871 H 567.784 -2.43425 3.02268 0
M  V30 5872 H 565.885 -3.62461 0.863279 0
M  V30 5873 H 565.998 -3.94383 2.72027 0
M  V30 5874 H 564.362 -2.15005 1.36546 0
M  V30 5875 H 565.145 -1.70871 2.97755 0
M  V30 5876 N 567.59 -1.07411 -1.15328 0
M  V30 5877 C 568.839 -0.792643 -1.85473 0
M  V30 5878 C 569.152 0.683789 -1.83259 0
M  V30 5879 O 570.358 1.08005 -2.49093 0
M  V30 5880 C 568.814 -1.36787 -3.32892 0
M  V30 5881 C 568.422 -2.87536 -3.43551 0
M  V30 5882 C 570.166 -1.16444 -4.08217 0
M  V30 5883 C 568.073 -3.38247 -4.85122 0
M  V30 5884 H 567.003 -0.292838 -0.694811 0
M  V30 5885 H 569.654 -1.29426 -1.30082 0
M  V30 5886 H 568.036 -0.793993 -3.87958 0
M  V30 5887 H 569.21 -3.50973 -2.98588 0
M  V30 5888 H 567.525 -3.06676 -2.81672 0
M  V30 5889 H 570.122 -1.51808 -5.12697 0
M  V30 5890 H 570.465 -0.10353 -4.16171 0
M  V30 5891 H 570.998 -1.70472 -3.59422 0
M  V30 5892 H 567.737 -4.43866 -4.82351 0
M  V30 5893 H 567.257 -2.79564 -5.30664 0
M  V30 5894 H 568.936 -3.34238 -5.5398 0
M  V30 5895 N 569.068 1.32177 -0.85831 0
M  V30 5896 C 570.016 2.30729 -0.294442 0
M  V30 5897 C 571.01 1.59009 0.584165 0
M  V30 5898 O 572.216 1.73713 0.471562 0
M  V30 5899 H 568.591 0.748097 -0.0765171 0
M  V30 5900 H 570.562 2.75774 -1.1398 0
M  V30 5901 C 569.311 3.44098 0.499208 0
M  V30 5902 H 568.634 3.99449 -0.167579 0
M  V30 5903 H 570.074 4.15202 0.859273 0
M  V30 5904 C 568.533 2.91684 1.68588 0
M  V30 5905 O 569.063 2.89481 2.78503 0
M  V30 5906 N 567.269 2.48036 1.51415 0
M  V30 5907 H 566.816 2.50027 0.620006 0
M  V30 5908 H 566.774 2.13322 2.30957 0
M  V30 5909 N 570.547 0.616602 1.45037 0
M  V30 5910 C 571.772 0.120192 2.07051 0
M  V30 5911 C 572.197 -1.19008 1.45666 0
M  V30 5912 O 571.555 -1.7267 0.552692 0
M  V30 5913 C 571.603 0.00354901 3.606 0
M  V30 5914 O 570.707 -1.04431 3.98958 0
M  V30 5915 H 570.048 0.0781599 0.659384 0
M  V30 5916 H 572.578 0.849167 1.86146 0
M  V30 5917 H 572.588 -0.191754 4.07549 0
M  V30 5918 H 571.263 0.960239 4.04663 0
M  V30 5919 H 569.84 -0.824749 3.63665 0
M  V30 5920 N 572.025 -1.5352 0.356285 0
M  V30 5921 C 573.253 -2.05534 -0.237328 0
M  V30 5922 C 573.668 -1.23043 -1.43199 0
M  V30 5923 O 573.025 -0.268821 -1.80509 0
M  V30 5924 C 573.076 -3.55791 -0.639933 0
M  V30 5925 O 572.797 -4.35154 0.507233 0
M  V30 5926 C 574.298 -4.24027 -1.29292 0
M  V30 5927 H 571.518 -0.669585 -0.0435572 0
M  V30 5928 H 574.062 -1.97988 0.511963 0
M  V30 5929 H 572.217 -3.63518 -1.33915 0
M  V30 5930 H 572.631 -5.24178 0.18375 0
M  V30 5931 H 574.105 -5.30509 -1.52527 0
M  V30 5932 H 574.582 -3.77166 -2.25039 0
M  V30 5933 H 575.188 -4.20527 -0.63539 0
M  V30 5934 N 573.503 -0.0852151 -1.57369 0
M  V30 5935 C 574.435 0.907099 -2.10486 0
M  V30 5936 C 575.448 1.25259 -1.03991 0
M  V30 5937 O 576.637 1.20743 -1.31467 0
M  V30 5938 C 573.737 2.21908 -2.56145 0
M  V30 5939 C 572.91 2.05042 -3.86363 0
M  V30 5940 C 571.969 3.19664 -4.17973 0
M  V30 5941 O 570.995 2.94062 -4.87356 0
M  V30 5942 N 572.197 4.45151 -3.72587 0
M  V30 5943 H 574.962 0.453505 -2.96249 0
M  V30 5944 H 572.523 0.100157 -1.6159 0
M  V30 5945 H 574.515 2.97519 -2.74343 0
M  V30 5946 H 573.085 2.58723 -1.75446 0
M  V30 5947 H 572.305 1.13819 -3.77411 0
M  V30 5948 H 573.593 1.91039 -4.71574 0
M  V30 5949 H 572.991 4.68834 -3.16561 0
M  V30 5950 H 571.548 5.17744 -3.9596 0
M  V30 5951 N 574.981 1.5647 0.188427 0
M  V30 5952 C 576.206 1.85486 0.927891 0
M  V30 5953 C 576.631 0.669575 1.75779 0
M  V30 5954 O 575.989 -0.381573 1.77239 0
M  V30 5955 C 576.037 3.12784 1.7944 0
M  V30 5956 O 575.141 2.93805 2.894 0
M  V30 5957 H 574.482 0.610585 0.260925 0
M  V30 5958 H 577.012 2.037 0.191729 0
M  V30 5959 H 577.022 3.43749 2.19774 0
M  V30 5960 H 575.697 3.98671 1.18468 0
M  V30 5961 H 574.274 2.74153 2.52774 0
M  V30 5962 N 576.459 -0.456382 1.50847 0
M  V30 5963 C 577.407 -1.57318 1.71329 0
M  V30 5964 C 578.401 -1.59187 0.579287 0
M  V30 5965 O 579.607 -1.6316 0.76018 0
M  V30 5966 H 575.982 -0.5223 0.541024 0
M  V30 5967 H 577.953 -1.3721 2.64983 0
M  V30 5968 C 576.702 -2.95142 1.83811 0
M  V30 5969 H 576.025 -2.94428 2.70467 0
M  V30 5970 H 577.465 -3.72702 2.02161 0
M  V30 5971 C 575.924 -3.31636 0.593224 0
M  V30 5972 O 576.454 -4.00852 -0.260898 0
M  V30 5973 N 574.66 -2.87205 0.442902 0
M  V30 5974 H 574.207 -2.31051 1.13901 0
M  V30 5975 H 574.165 -3.11986 -0.38884 0
M  V30 5976 N 577.937 -1.40673 -0.710563 0
M  V30 5977 C 579.186 -1.38525 -1.46607 0
M  V30 5978 C 579.499 0.0077024 -1.95598 0
M  V30 5979 O 580.705 0.151792 -2.71075 0
M  V30 5980 C 579.161 -2.43489 -2.6503 0
M  V30 5981 C 578.769 -3.88619 -2.22888 0
M  V30 5982 C 580.513 -2.50456 -3.42742 0
M  V30 5983 C 578.42 -4.85168 -3.3818 0
M  V30 5984 H 577.35 -0.515092 -0.550632 0
M  V30 5985 H 580.001 -1.66431 -0.772846 0
M  V30 5986 H 578.383 -2.0869 -3.36548 0
M  V30 5987 H 579.557 -4.32588 -1.58758 0
M  V30 5988 H 577.872 -3.85174 -1.58208 0
M  V30 5989 H 580.469 -3.19776 -4.28541 0
M  V30 5990 H 580.812 -1.53665 -3.86902 0
M  V30 5991 H 581.345 -2.84271 -2.78271 0
M  V30 5992 H 578.084 -5.8331 -2.99047 0
M  V30 5993 H 577.604 -4.4586 -4.01209 0
M  V30 5994 H 579.283 -5.05225 -4.04174 0
M  V30 5995 N 579.415 0.9433 -1.26252 0
M  V30 5996 C 580.663 1.68592 -1.11451 0
M  V30 5997 C 580.984 1.91957 0.343123 0
M  V30 5998 O 580.254 1.51475 1.24226 0
M  V30 5999 H 578.834 0.624789 -0.409448 0
M  V30 6000 H 581.496 1.13351 -1.58548 0
M  V30 6001 H 580.592 2.66054 -1.63162 0
M  V30 6002 N 580.893 1.08022 1.14757 0
M  V30 6003 C 581.841 0.701088 2.21783 0
M  V30 6004 C 582.835 -0.291311 1.66876 0
M  V30 6005 O 584.041 -0.154296 1.79337 0
M  V30 6006 H 580.416 0.208668 0.722469 0
M  V30 6007 H 582.387 1.61321 2.51034 0
M  V30 6008 C 581.136 0.122278 3.47485 0
M  V30 6009 H 580.459 0.877065 3.90061 0
M  V30 6010 H 581.899 -0.105248 4.23869 0
M  V30 6011 C 580.358 -1.13883 3.17068 0
M  V30 6012 O 580.888 -2.22429 3.34497 0
M  V30 6013 N 579.094 -1.04767 2.71058 0
M  V30 6014 H 578.641 -0.164302 2.57075 0
M  V30 6015 H 578.599 -1.89224 2.51081 0
M  V30 6016 N 582.371 -1.3172 0.865308 0
M  V30 6017 C 583.617 -1.97168 0.474633 0
M  V30 6018 C 583.95 -1.68263 -0.969604 0
M  V30 6019 O 583.225 -0.976588 -1.68205 0
M  V30 6020 C 583.508 -3.52689 0.726808 0
M  V30 6021 C 583.361 -3.91185 2.22024 0
M  V30 6022 C 584.68 -4.39689 0.190201 0
M  V30 6023 H 581.799 -0.716185 0.17392 0
M  V30 6024 H 584.441 -1.55925 1.08569 0
M  V30 6025 H 582.591 -3.8795 0.206705 0
M  V30 6026 H 584.263 -3.66049 2.80724 0
M  V30 6027 H 582.506 -3.3996 2.69462 0
M  V30 6028 H 583.177 -4.99604 2.34735 0
M  V30 6029 H 585.653 -4.11225 0.635103 0
M  V30 6030 H 584.529 -5.47469 0.396132 0
M  V30 6031 H 584.79 -4.32683 -0.907625 0
M  V30 6032 N 583.85 -0.624285 -1.44708 0
M  V30 6033 C 585.075 -0.131171 -2.06985 0
M  V30 6034 C 585.5 1.18234 -1.46295 0
M  V30 6035 O 584.858 1.72375 -0.561842 0
M  V30 6036 C 584.906 -0.0226724 -3.60593 0
M  V30 6037 O 584.01 1.02314 -3.99507 0
M  V30 6038 H 583.351 -0.0816556 -0.65896 0
M  V30 6039 H 585.88 -0.859027 -1.85693 0
M  V30 6040 H 585.891 0.170138 -4.07645 0
M  V30 6041 H 584.566 -0.981685 -4.04148 0
M  V30 6042 H 583.143 0.805452 -3.64097 0
M  V30 6043 N 585.328 1.53329 -0.364422 0
M  V30 6044 C 586.261 2.22052 0.526145 0
M  V30 6045 C 587.239 1.21203 1.08391 0
M  V30 6046 O 588.423 1.50101 1.14026 0
M  V30 6047 C 585.55 2.91432 1.72583 0
M  V30 6048 C 584.596 4.06345 1.29562 0
M  V30 6049 S 585.429 5.34671 0.297885 0
M  V30 6050 C 586.585 6.07563 1.50392 0
M  V30 6051 H 586.818 2.97244 -0.0575055 0
M  V30 6052 H 584.351 1.53684 -0.148525 0
M  V30 6053 H 586.309 3.3202 2.41398 0
M  V30 6054 H 584.97 2.15966 2.28073 0
M  V30 6055 H 584.163 4.53901 2.19067 0
M  V30 6056 H 583.765 3.67642 0.686696 0
M  V30 6057 H 586.057 6.32224 2.43513 0
M  V30 6058 H 587 6.99973 1.06977 0
M  V30 6059 H 587.408 5.37994 1.70945 0
M  V30 6060 N 586.806 0.0935595 1.57322 0
M  V30 6061 C 588.036 -0.578095 1.98347 0
M  V30 6062 C 588.444 -1.62357 0.971441 0
M  V30 6063 O 587.787 -1.83639 -0.0473959 0
M  V30 6064 C 587.849 -1.28525 3.3574 0
M  V30 6065 C 587.513 -0.390714 4.55327 0
M  V30 6066 C 588.51 0.360522 5.18648 0
M  V30 6067 C 586.195 -0.309221 5.01347 0
M  V30 6068 C 588.189 1.18125 6.26359 0
M  V30 6069 C 585.876 0.515157 6.08925 0
M  V30 6070 C 586.874 1.25904 6.71295 0
M  V30 6071 O 586.562 2.06978 7.76798 0
M  V30 6072 H 586.294 -0.159767 0.656849 0
M  V30 6073 H 588.848 0.169058 2.04703 0
M  V30 6074 H 587.078 -2.07894 3.26063 0
M  V30 6075 H 588.767 -1.85128 3.61223 0
M  V30 6076 H 589.533 0.307285 4.84026 0
M  V30 6077 H 585.412 -0.877881 4.52564 0
M  V30 6078 H 588.956 1.76236 6.74971 0
M  V30 6079 H 584.853 0.56988 6.42979 0
M  V30 6080 H 585.621 1.99644 7.93779 0
M  V30 6081 N 588.284 -1.56567 -0.180126 0
M  V30 6082 C 589.512 -1.85618 -0.913972 0
M  V30 6083 C 589.927 -0.677892 -1.7621 0
M  V30 6084 O 589.284 0.353171 -1.7905 0
M  V30 6085 C 589.335 -3.13619 -1.79793 0
M  V30 6086 O 589.056 -4.26906 -0.98402 0
M  V30 6087 C 590.557 -3.55954 -2.64219 0
M  V30 6088 H 587.777 -0.616043 -0.265954 0
M  V30 6089 H 590.321 -2.03681 -0.182872 0
M  V30 6090 H 588.476 -2.97409 -2.48247 0
M  V30 6091 H 588.89 -4.9989 -1.58776 0
M  V30 6092 H 590.364 -4.48444 -3.21873 0
M  V30 6093 H 590.841 -2.79653 -3.38661 0
M  V30 6094 H 591.447 -3.74746 -2.01111 0
M  V30 6095 N 589.762 0.448376 -1.51087 0
M  V30 6096 C 591.008 1.20049 -1.6345 0
M  V30 6097 C 591.341 1.91121 -0.344444 0
M  V30 6098 O 590.616 1.83125 0.655396 0
M  V30 6099 C 590.899 2.22624 -2.83038 0
M  V30 6100 C 590.752 1.55708 -4.21989 0
M  V30 6101 C 592.071 3.23718 -2.98152 0
M  V30 6102 H 589.19 0.435085 -0.59487 0
M  V30 6103 H 591.832 0.491183 -1.83541 0
M  V30 6104 H 589.982 2.83117 -2.66039 0
M  V30 6105 H 591.654 0.986367 -4.50631 0
M  V30 6106 H 589.897 0.859647 -4.25197 0
M  V30 6107 H 590.568 2.30357 -5.01637 0
M  V30 6108 H 593.044 2.73269 -3.13788 0
M  V30 6109 H 591.92 3.92795 -3.83411 0
M  V30 6110 H 592.181 3.89179 -2.09743 0
M  V30 6111 N 591.24 1.41047 0.703093 0
M  V30 6112 C 592.468 1.4334 1.49202 0
M  V30 6113 C 592.883 0.0365596 1.88765 0
M  V30 6114 O 592.24 -0.942419 1.56284 0
M  V30 6115 C 592.291 2.33538 2.75939 0
M  V30 6116 O 592.012 3.67786 2.38045 0
M  V30 6117 C 593.513 2.44555 3.6974 0
M  V30 6118 H 590.733 0.488472 0.460039 0
M  V30 6119 H 593.277 1.85245 0.86629 0
M  V30 6120 H 591.432 1.94962 3.34766 0
M  V30 6121 H 591.846 4.15816 3.19683 0
M  V30 6122 H 593.32 3.11849 4.55471 0
M  V30 6123 H 593.797 1.47447 4.1371 0
M  V30 6124 H 594.403 2.83735 3.16819 0
M  V30 6125 N 592.718 -0.936591 1.26751 0
M  V30 6126 C 593.648 -2.05315 1.11212 0
M  V30 6127 C 594.629 -1.70092 0.0160262 0
M  V30 6128 O 595.814 -1.93279 0.188894 0
M  V30 6129 C 592.944 -3.39123 0.749171 0
M  V30 6130 C 591.898 -3.88425 1.79751 0
M  V30 6131 C 591.224 -5.18936 1.28876 0
M  V30 6132 C 592.524 -4.12798 3.19992 0
M  V30 6133 H 594.218 -2.18573 2.04613 0
M  V30 6134 H 591.764 -1.05027 0.985159 0
M  V30 6135 H 593.717 -4.16704 0.627323 0
M  V30 6136 H 592.441 -3.25855 -0.220543 0
M  V30 6137 H 591.1 -3.13028 1.90811 0
M  V30 6138 H 590.748 -5.02051 0.308757 0
M  V30 6139 H 590.448 -5.52892 1.98958 0
M  V30 6140 H 591.972 -5.99096 1.17967 0
M  V30 6141 H 593.386 -4.80977 3.11983 0
M  V30 6142 H 591.783 -4.58044 3.87705 0
M  V30 6143 H 592.853 -3.18412 3.65707 0
M  V30 6144 N 594.196 -1.08629 -1.14182 0
M  V30 6145 C 595.421 -0.83902 -1.89671 0
M  V30 6146 C 595.846 0.603332 -1.78161 0
M  V30 6147 O 595.204 1.42301 -1.12339 0
M  V30 6148 C 595.252 -1.26854 -3.37551 0
M  V30 6149 O 594.356 -0.42188 -4.10236 0
M  V30 6150 H 593.697 -0.304545 -0.590041 0
M  V30 6151 H 596.227 -1.4483 -1.44518 0
M  V30 6152 H 596.237 -1.25038 -3.88368 0
M  V30 6153 H 594.912 -2.31901 -3.45246 0
M  V30 6154 H 593.489 -0.503654 -3.69483 0
M  V30 6155 N 595.674 1.31259 -0.872281 0
M  V30 6156 C 597.085 1.78822 -0.536617 0
M  V30 6157 C 597.436 1.71855 0.946594 0
M  V30 6158 O 596.561 1.28769 1.73918 0
M  V30 6159 C 597.156 3.24698 -0.967294 0
M  V30 6160 C 595.715 3.70147 -0.683251 0
M  V30 6161 C 594.862 2.51994 -1.15733 0
M  V30 6162 H 597.813 1.18308 -1.05777 0
M  V30 6163 H 597.834 3.79386 -0.290929 0
M  V30 6164 H 597.346 3.29737 -2.04683 0
M  V30 6165 H 595.447 3.70607 0.384825 0
M  V30 6166 H 595.56 4.62183 -1.2619 0
M  V30 6167 H 593.924 2.48078 -0.577024 0
M  V30 6168 H 594.707 2.59778 -2.24434 0
M  V30 6169 N 597.152 0.631951 1.44375 0
M  V30 6170 C 598.084 -0.110911 2.28931 0
M  V30 6171 C 599.097 -0.808086 1.41329 0
M  V30 6172 O 600.286 -0.669396 1.65473 0
M  V30 6173 C 597.386 -1.17928 3.1772 0
M  V30 6174 C 596.559 -0.564458 4.33743 0
M  V30 6175 C 595.618 -1.5269 5.0356 0
M  V30 6176 O 594.644 -1.04372 5.59549 0
M  V30 6177 N 595.846 -2.86123 5.05088 0
M  V30 6178 H 598.611 0.614758 2.93327 0
M  V30 6179 H 596.172 0.473171 1.54831 0
M  V30 6180 H 598.164 -1.82348 3.61291 0
M  V30 6181 H 596.734 -1.80717 2.55069 0
M  V30 6182 H 595.954 0.258373 3.93352 0
M  V30 6183 H 597.242 -0.134355 5.08623 0
M  V30 6184 H 596.64 -3.27959 4.60933 0
M  V30 6185 H 595.197 -3.45901 5.52445 0
M  V30 6186 N 598.631 -1.53133 0.372548 0
M  V30 6187 C 599.859 -2.05774 -0.215515 0
M  V30 6188 C 600.274 -1.24555 -1.41886 0
M  V30 6189 O 599.631 -0.287951 -1.80214 0
M  V30 6190 C 599.682 -3.5645 -0.602161 0
M  V30 6191 O 599.403 -4.34591 0.553359 0
M  V30 6192 C 600.904 -4.25374 -1.24787 0
M  V30 6193 H 598.124 -0.670009 -0.0364529 0
M  V30 6194 H 600.668 -1.97434 0.532934 0
M  V30 6195 H 598.823 -3.64918 -1.30052 0
M  V30 6196 H 599.237 -5.23954 0.239336 0
M  V30 6197 H 600.711 -5.32097 -1.46891 0
M  V30 6198 H 601.188 -3.79531 -2.21026 0
M  V30 6199 H 601.794 -4.21177 -0.590752 0
M  V30 6200 N 600.109 -0.101901 -1.5727 0
M  V30 6201 C 601.056 0.854577 -2.14396 0
M  V30 6202 C 602.026 1.27521 -1.06432 0
M  V30 6203 O 603.211 1.35575 -1.34253 0
M  V30 6204 C 600.351 2.10576 -2.73408 0
M  V30 6205 C 599.464 1.73504 -3.95626 0
M  V30 6206 C 598.599 2.9346 -4.42781 0
M  V30 6207 C 597.638 2.52547 -5.57572 0
M  V30 6208 N 596.775 3.65359 -5.99547 0
M  V30 6209 H 601.615 0.360578 -2.9581 0
M  V30 6210 H 599.152 0.166303 -1.46157 0
M  V30 6211 H 601.11 2.83859 -3.05745 0
M  V30 6212 H 599.74 2.57463 -1.94711 0
M  V30 6213 H 598.792 0.901622 -3.6956 0
M  V30 6214 H 600.104 1.39426 -4.78917 0
M  V30 6215 H 599.258 3.74988 -4.76937 0
M  V30 6216 H 597.997 3.30753 -3.58404 0
M  V30 6217 H 597.002 1.69446 -5.23037 0
M  V30 6218 H 598.227 2.1639 -6.43702 0
M  V30 6219 H 596.173 4.02358 -5.18116 0
M  V30 6220 H 596.09 3.35148 -6.77652 0
M  V30 6221 H 597.358 4.47378 -6.38336 0
M  V30 6222 N 601.587 1.56661 0.17182 0
M  V30 6223 C 602.517 1.99401 1.21498 0
M  V30 6224 C 603.498 0.869516 1.46197 0
M  V30 6225 O 604.683 1.13556 1.57539 0
M  V30 6226 C 601.813 2.35346 2.55401 0
M  V30 6227 C 600.767 3.5075 2.45272 0
M  V30 6228 C 600.093 3.72437 3.8366 0
M  V30 6229 C 601.393 4.84216 1.95787 0
M  V30 6230 H 603.087 2.86792 0.859699 0
M  V30 6231 H 600.633 1.37977 0.412103 0
M  V30 6232 H 602.586 2.63843 3.2858 0
M  V30 6233 H 601.31 1.44864 2.92715 0
M  V30 6234 H 599.969 3.2238 1.74547 0
M  V30 6235 H 599.617 2.79246 4.18367 0
M  V30 6236 H 599.317 4.50087 3.77751 0
M  V30 6237 H 600.841 4.03334 4.58426 0
M  V30 6238 H 602.255 5.11592 2.5874 0
M  V30 6239 H 600.652 5.65498 2.00827 0
M  V30 6240 H 601.722 4.76243 0.912159 0
M  V30 6241 N 603.065 -0.440357 1.51323 0
M  V30 6242 C 604.028 -1.51679 1.71832 0
M  V30 6243 C 605.028 -1.49648 0.588386 0
M  V30 6244 O 606.218 -1.51724 0.855891 0
M  V30 6245 C 603.35 -2.91228 1.77199 0
M  V30 6246 H 604.543 -1.34799 2.67898 0
M  V30 6247 H 602.096 -0.66883 1.41267 0
M  V30 6248 H 602.831 -3.13516 0.829363 0
M  V30 6249 H 602.616 -2.94107 2.59314 0
M  V30 6250 H 604.106 -3.69321 1.94915 0
M  V30 6251 N 604.543 -1.41418 -0.695603 0
M  V30 6252 C 605.453 -1.45622 -1.83933 0
M  V30 6253 C 606.469 -0.346825 -1.70508 0
M  V30 6254 O 607.645 -0.59454 -1.92424 0
M  V30 6255 C 604.71 -1.33627 -3.19914 0
M  V30 6256 C 603.771 -2.54882 -3.45447 0
M  V30 6257 C 603.004 -2.43449 -4.7494 0
M  V30 6258 O 603.227 -1.45905 -5.51424 0
M  V30 6259 O 602.161 -3.33206 -5.01256 0
M  V30 6260 H 605.987 -2.42114 -1.83342 0
M  V30 6261 H 603.572 -1.22956 -0.848658 0
M  V30 6262 H 605.454 -1.29221 -4.01098 0
M  V30 6263 H 604.129 -0.402508 -3.21188 0
M  V30 6264 H 603.036 -2.64865 -2.64192 0
M  V30 6265 H 604.369 -3.47087 -3.48987 0
M  V30 6266 N 606.021 0.929856 -1.27246 0
M  V30 6267 C 606.931 2.0636 -1.11592 0
M  V30 6268 C 607.947 1.73938 -0.046496 0
M  V30 6269 O 609.123 1.9981 -0.252544 0
M  V30 6270 C 606.188 3.38213 -0.762437 0
M  V30 6271 C 605.249 3.84346 -1.9125 0
M  V30 6272 C 604.482 5.09906 -1.57579 0
M  V30 6273 O 604.705 5.68354 -0.482694 0
M  V30 6274 O 603.639 5.51359 -2.41426 0
M  V30 6275 H 607.465 2.22478 -2.0673 0
M  V30 6276 H 605.05 1.04865 -1.06413 0
M  V30 6277 H 606.932 4.1741 -0.57854 0
M  V30 6278 H 605.607 3.23307 0.159439 0
M  V30 6279 H 604.514 3.06045 -2.15144 0
M  V30 6280 H 605.847 4.0379 -2.81451 0
M  V30 6281 N 607.499 1.09233 1.13605 0
M  V30 6282 C 608.748 0.82205 1.84188 0
M  V30 6283 C 609.061 -0.654548 1.84323 0
M  V30 6284 O 610.267 -1.04029 2.50779 0
M  V30 6285 C 608.723 1.42066 3.30674 0
M  V30 6286 C 608.331 2.92965 3.38933 0
M  V30 6287 C 610.075 1.22924 4.06313 0
M  V30 6288 C 607.982 3.45922 4.79679 0
M  V30 6289 H 606.912 0.303854 0.690064 0
M  V30 6290 H 609.563 1.31479 1.28006 0
M  V30 6291 H 607.945 0.855613 3.86646 0
M  V30 6292 H 609.119 3.55679 2.92966 0
M  V30 6293 H 607.434 3.11118 2.76757 0
M  V30 6294 H 610.031 1.59945 5.10217 0
M  V30 6295 H 610.374 0.169726 4.15954 0
M  V30 6296 H 610.907 1.76168 3.56665 0
M  V30 6297 H 607.646 4.51484 4.75229 0
M  V30 6298 H 607.166 2.87971 5.26149 0
M  V30 6299 H 608.845 3.43009 5.48592 0
M  V30 6300 N 608.977 -1.30795 0.87923 0
M  V30 6301 C 610.224 -1.96362 0.494786 0
M  V30 6302 C 610.552 -1.69448 -0.954868 0
M  V30 6303 O 609.807 -0.988711 -1.68888 0
M  V30 6304 C 610.106 -3.50287 0.709476 0
M  V30 6305 C 609.772 -3.9724 2.13333 0
M  V30 6306 C 608.434 -4.09772 2.52271 0
M  V30 6307 C 610.786 -4.21807 3.06151 0
M  V30 6308 C 608.114 -4.44227 3.83248 0
M  V30 6309 C 610.466 -4.5773 4.36654 0
M  V30 6310 C 609.13 -4.68469 4.75492 0
M  V30 6311 H 608.4 -0.71854 0.181055 0
M  V30 6312 H 611.047 -1.55764 1.11399 0
M  V30 6313 H 609.352 -3.91799 0.0072 0
M  V30 6314 H 611.049 -3.99082 0.391703 0
M  V30 6315 H 607.639 -3.87988 1.82107 0
M  V30 6316 H 611.823 -4.11611 2.77291 0
M  V30 6317 H 607.079 -4.50741 4.13089 0
M  V30 6318 H 611.253 -4.7569 5.08617 0
M  V30 6319 H 608.88 -4.94923 5.77022 0
M  V30 6320 N 610.455 -0.639598 -1.44038 0
M  V30 6321 C 611.418 0.0506628 -2.29144 0
M  V30 6322 C 612.418 0.764001 -1.41491 0
M  V30 6323 O 613.608 0.607309 -1.63271 0
M  V30 6324 C 610.74 1.0824 -3.2326 0
M  V30 6325 H 611.933 -0.697987 -2.91664 0
M  V30 6326 H 609.486 -0.400146 -1.51091 0
M  V30 6327 H 610.221 1.86075 -2.65606 0
M  V30 6328 H 610.006 0.574725 -3.87865 0
M  V30 6329 H 611.496 1.56487 -3.87171 0
M  V30 6330 N 611.933 1.52934 -0.380664 0
M  V30 6331 C 613.182 2.00651 0.205477 0
M  V30 6332 C 613.495 1.27164 1.48623 0
M  V30 6333 O 614.701 1.65547 2.15189 0
M  V30 6334 C 613.157 3.57479 0.416726 0
M  V30 6335 C 612.765 4.39857 -0.850268 0
M  V30 6336 C 614.509 4.13509 0.959702 0
M  V30 6337 C 612.416 5.88269 -0.607773 0
M  V30 6338 H 611.346 0.749684 0.0805614 0
M  V30 6339 H 613.997 1.76508 -0.501732 0
M  V30 6340 H 612.379 3.77836 1.18557 0
M  V30 6341 H 613.553 4.31269 -1.62307 0
M  V30 6342 H 611.868 3.95005 -1.31756 0
M  V30 6343 H 614.465 5.22039 1.15669 0
M  V30 6344 H 614.808 3.69054 1.92626 0
M  V30 6345 H 615.341 3.9701 0.250645 0
M  V30 6346 H 612.08 6.3703 -1.54509 0
M  V30 6347 H 611.6 5.99667 0.126247 0
M  V30 6348 H 613.279 6.46558 -0.239014 0
M  V30 6349 N 613.412 0.11024 1.57214 0
M  V30 6350 C 614.359 -0.843195 2.14846 0
M  V30 6351 C 615.329 -1.26954 1.07107 0
M  V30 6352 O 616.514 -1.34861 1.34971 0
M  V30 6353 C 613.654 -2.09123 2.74521 0
M  V30 6354 C 612.767 -1.71404 3.96541 0
M  V30 6355 C 611.902 -2.91107 4.44331 0
M  V30 6356 C 610.941 -2.49586 5.58903 0
M  V30 6357 N 610.078 -3.62175 6.01477 0
M  V30 6358 H 614.918 -0.344886 2.95998 0
M  V30 6359 H 612.455 -0.15855 1.46243 0
M  V30 6360 H 614.413 -2.82234 3.07246 0
M  V30 6361 H 613.043 -2.56427 1.96074 0
M  V30 6362 H 612.095 -0.88201 3.70033 0
M  V30 6363 H 613.407 -1.36884 4.7965 0
M  V30 6364 H 612.561 -3.72454 4.78919 0
M  V30 6365 H 611.3 -3.28848 3.60153 0
M  V30 6366 H 610.305 -1.6667 5.23929 0
M  V30 6367 H 611.53 -2.12973 6.4484 0
M  V30 6368 H 609.476 -3.99605 5.20242 0
M  V30 6369 H 609.393 -3.3155 6.79419 0
M  V30 6370 H 610.661 -4.43987 6.407 0
M  V30 6371 N 614.89 -1.56749 -0.16351 0
M  V30 6372 C 616.136 -1.82704 -0.880168 0
M  V30 6373 C 616.469 -0.689311 -1.81555 0
M  V30 6374 O 615.744 0.308224 -1.92042 0
M  V30 6375 C 616.027 -3.19084 -1.66905 0
M  V30 6376 C 615.88 -4.43397 -0.756269 0
M  V30 6377 C 617.199 -3.52493 -2.63509 0
M  V30 6378 H 614.318 -0.664608 -0.318535 0
M  V30 6379 H 616.96 -1.89438 -0.146036 0
M  V30 6380 H 615.11 -3.13475 -2.2949 0
M  V30 6381 H 616.782 -4.61079 -0.14269 0
M  V30 6382 H 615.025 -4.33752 -0.0647944 0
M  V30 6383 H 615.696 -5.3539 -1.34393 0
M  V30 6384 H 618.172 -3.58606 -2.11047 0
M  V30 6385 H 617.048 -4.48979 -3.15767 0
M  V30 6386 H 617.309 -2.77597 -3.44082 0
M  V30 6387 N 616.368 0.432326 -1.51554 0
M  V30 6388 C 617.645 1.19288 -1.55015 0
M  V30 6389 C 618.025 2.08701 -0.317375 0
M  V30 6390 O 617.373 2.17602 0.697243 0
M  V30 6391 C 617.583 1.99037 -2.86679 0
M  V30 6392 C 618.931 2.55907 -3.38817 0
M  V30 6393 O 619.955 2.09243 -2.88263 0
M  V30 6394 O 618.814 3.41029 -4.27038 0
M  V30 6395 H 615.908 0.543369 -0.623441 0
M  V30 6396 H 618.454 0.440988 -1.6387 0
M  V30 6397 H 617.226 1.33397 -3.6786 0
M  V30 6398 H 616.849 2.81281 -2.8101 0
M  V30 6399 N 617.846 1.41785 0.688094 0
M  V30 6400 C 619.095 1.4084 1.44385 0
M  V30 6401 C 619.408 0.0234166 1.95586 0
M  V30 6402 O 620.614 -0.108647 2.71283 0
M  V30 6403 C 619.07 2.47675 2.61123 0
M  V30 6404 C 618.678 3.92116 2.16677 0
M  V30 6405 C 620.422 2.55877 3.38714 0
M  V30 6406 C 618.329 4.90487 3.30419 0
M  V30 6407 H 617.259 0.523787 0.542368 0
M  V30 6408 H 619.91 1.6764 0.74627 0
M  V30 6409 H 618.292 2.14018 3.33185 0
M  V30 6410 H 619.466 4.35059 1.51856 0
M  V30 6411 H 617.781 3.87642 1.5206 0
M  V30 6412 H 620.378 3.26553 4.234 0
M  V30 6413 H 620.721 1.59801 3.84408 0
M  V30 6414 H 621.254 2.88662 2.73714 0
M  V30 6415 H 617.993 5.87994 2.89729 0
M  V30 6416 H 617.513 4.52187 3.94065 0
M  V30 6417 H 619.192 5.11591 3.96085 0
M  V30 6418 N 619.324 -0.923095 1.27737 0
M  V30 6419 C 620.287 -2.00587 1.10894 0
M  V30 6420 C 621.287 -1.60718 0.0514927 0
M  V30 6421 O 622.477 -1.71658 0.296481 0
M  V30 6422 C 619.609 -3.33829 0.690717 0
M  V30 6423 H 620.802 -2.16959 2.07048 0
M  V30 6424 H 618.355 -1.10451 1.1059 0
M  V30 6425 H 619.09 -3.23157 -0.272 0
M  V30 6426 H 618.875 -3.64125 1.45448 0
M  V30 6427 H 620.365 -4.13336 0.595252 0
M  V30 6428 N 620.802 -1.09834 -1.13024 0
M  V30 6429 C 622.027 -0.85909 -1.88771 0
M  V30 6430 C 622.452 0.584402 -1.78791 0
M  V30 6431 O 621.81 1.41101 -1.13842 0
M  V30 6432 C 621.858 -1.30427 -3.36186 0
M  V30 6433 O 620.962 -0.465368 -4.09766 0
M  V30 6434 H 620.303 -0.310786 -0.586778 0
M  V30 6435 H 622.833 -1.46355 -1.42973 0
M  V30 6436 H 622.843 -1.2915 -3.8702 0
M  V30 6437 H 621.518 -2.3555 -3.42767 0
M  V30 6438 H 620.095 -0.542814 -3.68928 0
M  V30 6439 N 622.28 1.30327 -0.886154 0
M  V30 6440 C 623.23 2.25668 -0.325248 0
M  V30 6441 C 624.214 1.51318 0.546972 0
M  V30 6442 O 625.406 1.72623 0.391203 0
M  V30 6443 C 622.535 3.40229 0.458167 0
M  V30 6444 C 621.621 4.21933 -0.428208 0
M  V30 6445 N 622.012 4.82129 -1.52921 0
M  V30 6446 C 620.31 4.45439 -0.223535 0
M  V30 6447 C 621.011 5.43351 -2.07714 0
M  V30 6448 N 619.987 5.26002 -1.37195 0
M  V30 6449 H 623.789 2.69759 -1.1665 0
M  V30 6450 H 621.303 1.4478 -0.735691 0
M  V30 6451 H 623.3 4.07579 0.876648 0
M  V30 6452 H 621.96 2.97678 1.29684 0
M  V30 6453 H 622.971 4.81312 -1.91205 0
M  V30 6454 H 619.648 4.13481 0.577875 0
M  V30 6455 H 621.038 6.01118 -3.00178 0
M  V30 6456 N 623.758 0.647228 1.43697 0
M  V30 6457 C 625.169 0.238689 1.85168 0
M  V30 6458 C 625.52 -1.21345 1.54175 0
M  V30 6459 O 624.645 -1.92542 0.987743 0
M  V30 6460 C 625.24 0.426422 3.36106 0
M  V30 6461 C 623.799 0.0722541 3.76331 0
M  V30 6462 C 622.946 0.732153 2.6746 0
M  V30 6463 H 625.897 0.851309 1.33934 0
M  V30 6464 H 625.918 -0.32987 3.79067 0
M  V30 6465 H 625.43 1.48339 3.58632 0
M  V30 6466 H 623.531 -0.982355 3.59417 0
M  V30 6467 H 623.644 0.493541 4.76551 0
M  V30 6468 H 622.008 0.16594 2.54159 0
M  V30 6469 H 622.791 1.79204 2.92816 0
M  V30 6470 N 625.236 -1.5273 0.388769 0
M  V30 6471 C 626.166 -2.29353 -0.438111 0
M  V30 6472 C 627.147 -1.32719 -1.06394 0
M  V30 6473 O 628.332 -1.61612 -1.07681 0
M  V30 6474 C 625.462 -3.09995 -1.56589 0
M  V30 6475 C 624.416 -4.14509 -1.06613 0
M  V30 6476 C 623.742 -4.83372 -2.28594 0
M  V30 6477 C 625.042 -5.22127 -0.134459 0
M  V30 6478 H 626.736 -2.98723 0.201206 0
M  V30 6479 H 624.282 -1.43665 0.0982089 0
M  V30 6480 H 626.235 -3.62357 -2.15118 0
M  V30 6481 H 624.959 -2.38357 -2.23279 0
M  V30 6482 H 623.618 -3.63128 -0.503383 0
M  V30 6483 H 623.266 -4.08283 -2.93792 0
M  V30 6484 H 622.966 -5.54012 -1.95817 0
M  V30 6485 H 624.49 -5.38538 -2.87766 0
M  V30 6486 H 625.904 -5.69851 -0.627914 0
M  V30 6487 H 624.301 -6.00011 0.103534 0
M  V30 6488 H 625.371 -4.77971 0.816798 0
M  V30 6489 N 626.714 -0.118576 -1.57153 0
M  V30 6490 C 627.677 0.817464 -2.14127 0
M  V30 6491 C 628.677 1.1949 -1.07604 0
M  V30 6492 O 629.867 1.12048 -1.33382 0
M  V30 6493 C 626.999 2.10541 -2.68115 0
M  V30 6494 H 628.192 0.322339 -2.98163 0
M  V30 6495 H 625.745 0.130655 -1.55753 0
M  V30 6496 H 626.48 2.64485 -1.87665 0
M  V30 6497 H 626.265 1.84425 -3.4602 0
M  V30 6498 H 627.755 2.77453 -3.12105 0
M  V30 6499 N 628.193 1.56834 0.155195 0
M  V30 6500 C 629.421 1.87049 0.884326 0
M  V30 6501 C 629.836 0.705839 1.7511 0
M  V30 6502 O 629.193 -0.324641 1.79589 0
M  V30 6503 C 629.244 3.1644 1.74781 0
M  V30 6504 O 628.965 4.28417 0.915978 0
M  V30 6505 C 630.466 3.60113 2.58522 0
M  V30 6506 H 627.686 0.620196 0.25612 0
M  V30 6507 H 630.23 2.03946 0.150445 0
M  V30 6508 H 628.385 3.01321 2.43484 0
M  V30 6509 H 628.799 5.02353 1.50803 0
M  V30 6510 H 630.273 4.53508 3.14698 0
M  V30 6511 H 630.75 2.85005 3.34169 0
M  V30 6512 H 631.356 3.77898 1.95124 0
M  V30 6513 N 629.671 -0.424282 1.51781 0
M  V30 6514 C 630.899 -1.1947 1.68921 0
M  V30 6515 C 631.314 -1.84683 0.39213 0
M  V30 6516 O 630.671 -1.71261 -0.630554 0
M  V30 6517 C 630.722 -2.26909 2.81416 0
M  V30 6518 O 630.443 -1.64361 4.061 0
M  V30 6519 C 631.944 -3.16945 3.09937 0
M  V30 6520 H 629.164 -0.359591 0.566511 0
M  V30 6521 H 631.708 -0.501139 1.98265 0
M  V30 6522 H 629.863 -2.91959 2.54635 0
M  V30 6523 H 630.277 -2.35468 4.68674 0
M  V30 6524 H 631.751 -3.88437 3.922 0
M  V30 6525 H 632.228 -3.78451 2.22871 0
M  V30 6526 H 632.834 -2.57581 3.38426 0
M  V30 6527 N 631.149 -1.42148 -0.680565 0
M  V30 6528 C 632.079 -1.4796 -1.80638 0
M  V30 6529 C 633.06 -0.336728 -1.66734 0
M  V30 6530 O 634.245 -0.550247 -1.86242 0
M  V30 6531 C 631.375 -1.37569 -3.18892 0
M  V30 6532 C 630.329 -2.49823 -3.47524 0
M  V30 6533 C 629.655 -2.24491 -4.85291 0
M  V30 6534 C 630.955 -3.92144 -3.44994 0
M  V30 6535 H 632.649 -2.42184 -1.76032 0
M  V30 6536 H 630.195 -1.16566 -0.845481 0
M  V30 6537 H 632.148 -1.40243 -3.97379 0
M  V30 6538 H 630.872 -0.398357 -3.24162 0
M  V30 6539 H 629.531 -2.46455 -2.71395 0
M  V30 6540 H 629.179 -1.25066 -4.87204 0
M  V30 6541 H 628.879 -2.99722 -5.05411 0
M  V30 6542 H 630.403 -2.28906 -5.66069 0
M  V30 6543 H 631.817 -3.97145 -4.13459 0
M  V30 6544 H 630.214 -4.67179 -3.76648 0
M  V30 6545 H 631.284 -4.19225 -2.43676 0
M  V30 6546 N 632.627 0.916307 -1.28225 0
M  V30 6547 C 633.876 1.65975 -1.14608 0
M  V30 6548 C 634.189 1.93204 0.305191 0
M  V30 6549 O 635.395 2.65611 0.562432 0
M  V30 6550 C 633.851 2.98989 -2.00333 0
M  V30 6551 C 633.459 2.79417 -3.50186 0
M  V30 6552 C 635.203 3.76856 -1.95397 0
M  V30 6553 C 633.11 4.08056 -4.28071 0
M  V30 6554 H 632.04 0.622587 -0.425324 0
M  V30 6555 H 634.691 1.01705 -1.52736 0
M  V30 6556 H 633.073 3.6438 -1.5506 0
M  V30 6557 H 634.247 2.22723 -4.034 0
M  V30 6558 H 632.562 2.14966 -3.56621 0
M  V30 6559 H 635.159 4.72203 -2.50856 0
M  V30 6560 H 635.502 4.05776 -0.930137 0
M  V30 6561 H 636.035 3.1828 -2.38626 0
M  V30 6562 H 632.774 3.8431 -5.31024 0
M  V30 6563 H 632.294 4.64371 -3.79631 0
M  V30 6564 H 633.973 4.76333 -4.37854 0
M  V30 6565 N 634.105 1.10431 1.1244 0
M  V30 6566 C 635.353 0.845045 1.83585 0
M  V30 6567 C 635.674 -0.631168 1.84503 0
M  V30 6568 O 634.944 -1.45825 1.30813 0
M  V30 6569 H 633.524 0.309628 0.679809 0
M  V30 6570 H 636.186 1.39458 1.36153 0
M  V30 6571 H 635.282 1.20786 2.8778 0
M  V30 6572 N 635.583 -1.29855 0.893053 0
M  V30 6573 C 636.493 -2.31661 0.370157 0
M  V30 6574 C 637.509 -1.65677 -0.531723 0
M  V30 6575 O 638.685 -1.9691 -0.422902 0
M  V30 6576 C 635.75 -3.44388 -0.399741 0
M  V30 6577 C 634.811 -4.2598 0.532861 0
M  V30 6578 C 634.044 -5.33324 -0.200388 0
M  V30 6579 O 634.267 -5.52305 -1.42531 0
M  V30 6580 O 633.201 -6.00188 0.453668 0
M  V30 6581 H 637.027 -2.78354 1.2146 0
M  V30 6582 H 634.612 -1.34171 0.657153 0
M  V30 6583 H 636.494 -4.13037 -0.835358 0
M  V30 6584 H 635.169 -2.99815 -1.22035 0
M  V30 6585 H 634.076 -3.59998 1.01746 0
M  V30 6586 H 635.409 -4.74178 1.3197 0
M  V30 6587 N 637.061 -0.65484 -1.43351 0
M  V30 6588 C 638.31 -0.166215 -2.01014 0
M  V30 6589 C 638.623 1.22764 -1.52278 0
M  V30 6590 O 639.829 1.81156 -2.02224 0
M  V30 6591 C 638.285 -0.246341 -3.59056 0
M  V30 6592 C 637.893 -1.64299 -4.16785 0
M  V30 6593 C 639.637 0.184597 -4.24098 0
M  V30 6594 C 637.544 -1.67695 -5.67126 0
M  V30 6595 H 636.474 -0.0583769 -0.751737 0
M  V30 6596 H 639.125 -0.817111 -1.64303 0
M  V30 6597 H 637.507 0.472092 -3.93176 0
M  V30 6598 H 638.681 -2.3869 -3.94162 0
M  V30 6599 H 636.996 -2.02004 -3.6412 0
M  V30 6600 H 639.593 0.179088 -5.344 0
M  V30 6601 H 639.936 1.21632 -3.98135 0
M  V30 6602 H 640.469 -0.482141 -3.94867 0
M  V30 6603 H 637.208 -2.68783 -5.9786 0
M  V30 6604 H 636.728 -0.976313 -5.91801 0
M  V30 6605 H 638.407 -1.42142 -6.31193 0
M  V30 6606 N 638.539 1.52521 -0.396863 0
M  V30 6607 C 639.502 2.2527 0.422604 0
M  V30 6608 C 640.502 1.27184 0.983913 0
M  V30 6609 O 641.692 1.51222 0.864723 0
M  V30 6610 C 638.824 3.01356 1.59365 0
M  V30 6611 H 640.017 2.99133 -0.214416 0
M  V30 6612 H 637.57 1.55587 -0.149128 0
M  V30 6613 H 638.305 2.31813 2.26789 0
M  V30 6614 H 638.09 3.73357 1.19779 0
M  V30 6615 H 639.58 3.56571 2.17363 0
M  V30 6616 N 640.017 0.126909 1.57088 0
M  V30 6617 C 641.242 -0.53997 2.00248 0
M  V30 6618 C 641.667 -1.58927 1.00618 0
M  V30 6619 O 641.025 -1.81288 -0.0210131 0
M  V30 6620 C 641.073 -1.13565 3.4225 0
M  V30 6621 O 640.177 -2.25103 3.45547 0
M  V30 6622 H 639.518 -0.13412 0.650314 0
M  V30 6623 H 642.048 0.217718 2.03438 0
M  V30 6624 H 642.058 -1.46925 3.80627 0
M  V30 6625 H 640.733 -0.367122 4.14277 0
M  V30 6626 H 639.31 -1.93123 3.18995 0
M  V30 6627 N 641.495 -1.56914 -0.146875 0
M  V30 6628 C 642.725 -1.87243 -0.873126 0
M  V30 6629 C 643.133 -0.713127 -1.75246 0
M  V30 6630 O 642.476 0.326228 -1.8078 0
M  V30 6631 C 642.538 -3.12279 -1.78107 0
M  V30 6632 C 642.202 -4.44082 -1.07889 0
M  V30 6633 C 643.199 -5.18096 -0.432734 0
M  V30 6634 C 640.884 -4.90807 -1.06836 0
M  V30 6635 C 642.878 -6.37039 0.214569 0
M  V30 6636 C 640.565 -6.09674 -0.417243 0
M  V30 6637 C 641.563 -6.82636 0.223093 0
M  V30 6638 O 641.251 -7.99245 0.863884 0
M  V30 6639 H 640.983 -0.624896 -0.257839 0
M  V30 6640 H 643.537 -2.04892 -0.14434 0
M  V30 6641 H 641.767 -2.90639 -2.5508 0
M  V30 6642 H 643.456 -3.28854 -2.37929 0
M  V30 6643 H 644.222 -4.83066 -0.432677 0
M  V30 6644 H 640.101 -4.3394 -1.55618 0
M  V30 6645 H 643.645 -6.93927 0.714965 0
M  V30 6646 H 639.542 -6.44165 -0.414967 0
M  V30 6647 H 640.31 -8.14912 0.765564 0
M  V30 6648 N 642.974 0.416227 -1.52004 0
M  V30 6649 C 644.221 1.16383 -1.65714 0
M  V30 6650 C 644.549 1.9068 -0.383594 0
M  V30 6651 O 643.804 1.85174 0.633185 0
M  V30 6652 C 644.103 2.18923 -2.82502 0
M  V30 6653 C 643.769 1.61485 -4.20991 0
M  V30 6654 C 642.431 1.45545 -4.58661 0
M  V30 6655 C 644.783 1.19468 -5.07323 0
M  V30 6656 C 642.111 0.860937 -5.80349 0
M  V30 6657 C 644.463 0.614386 -6.29609 0
M  V30 6658 C 643.127 0.442056 -6.66035 0
M  V30 6659 H 642.397 0.425875 -0.606392 0
M  V30 6660 H 645.044 0.45199 -1.8609 0
M  V30 6661 H 643.349 2.96225 -2.56433 0
M  V30 6662 H 645.046 2.76628 -2.90307 0
M  V30 6663 H 641.636 1.74873 -3.91302 0
M  V30 6664 H 645.82 1.30596 -4.78809 0
M  V30 6665 H 641.076 0.715372 -6.072 0
M  V30 6666 H 645.25 0.280393 -6.95835 0
M  V30 6667 H 642.877 -0.0207218 -7.60197 0
M  V30 6668 N 644.452 1.42507 0.673017 0
M  V30 6669 C 645.68 1.46473 1.46128 0
M  V30 6670 C 646.095 0.0765912 1.88645 0
M  V30 6671 O 645.452 -0.909057 1.58248 0
M  V30 6672 C 645.503 2.39339 2.70923 0
M  V30 6673 O 645.224 3.72752 2.3019 0
M  V30 6674 C 646.725 2.52343 3.64469 0
M  V30 6675 H 643.945 0.49812 0.449575 0
M  V30 6676 H 646.489 1.87041 0.826802 0
M  V30 6677 H 644.644 2.02019 3.30556 0
M  V30 6678 H 645.058 4.22503 3.10791 0
M  V30 6679 H 646.532 3.2144 4.48754 0
M  V30 6680 H 647.009 1.56189 4.1049 0
M  V30 6681 H 647.615 2.90392 3.10729 0
M  V30 6682 N 645.93 -0.909495 1.28709 0
M  V30 6683 C 646.88 -1.9991 1.09636 0
M  V30 6684 C 647.864 -1.60889 0.01872 0
M  V30 6685 O 649.056 -1.75374 0.239338 0
M  V30 6686 C 646.185 -3.34675 0.764702 0
M  V30 6687 C 645.271 -3.80085 1.8814 0
M  V30 6688 N 645.662 -3.97824 3.12361 0
M  V30 6689 C 643.96 -4.09278 1.77221 0
M  V30 6690 C 644.661 -4.35928 3.85151 0
M  V30 6691 N 643.637 -4.44426 3.13028 0
M  V30 6692 H 647.439 -2.11681 2.03883 0
M  V30 6693 H 644.953 -1.09763 1.1969 0
M  V30 6694 H 646.95 -4.12426 0.609132 0
M  V30 6695 H 645.61 -3.24255 -0.169952 0
M  V30 6696 H 646.621 -3.83626 3.47925 0
M  V30 6697 H 643.298 -4.0747 0.909621 0
M  V30 6698 H 644.688 -4.57581 4.92006 0
M  V30 6699 N 647.408 -1.11026 -1.11852 0
M  V30 6700 C 648.654 -0.867633 -1.83967 0
M  V30 6701 C 649.009 0.600309 -1.82795 0
M  V30 6702 O 648.302 1.43731 -1.26696 0
M  V30 6703 C 648.496 -1.35777 -3.30604 0
M  V30 6704 C 648.325 -2.87183 -3.46058 0
M  V30 6705 C 647.095 -3.55256 -3.59334 0
M  V30 6706 C 649.293 -3.85258 -3.40706 0
M  V30 6707 N 647.275 -4.94923 -3.63215 0
M  V30 6708 C 648.646 -5.1097 -3.51155 0
M  V30 6709 C 650.701 -3.77879 -3.2421 0
M  V30 6710 C 649.404 -6.30171 -3.46809 0
M  V30 6711 C 651.43 -4.96586 -3.2118 0
M  V30 6712 C 650.792 -6.21149 -3.32196 0
M  V30 6713 H 646.891 -0.370574 -0.688621 0
M  V30 6714 H 649.475 -1.41379 -1.33865 0
M  V30 6715 H 647.646 -0.83885 -3.79233 0
M  V30 6716 H 649.378 -1.05874 -3.90606 0
M  V30 6717 H 646.133 -3.05714 -3.61713 0
M  V30 6718 H 646.557 -5.67726 -3.68804 0
M  V30 6719 H 651.199 -2.82485 -3.14582 0
M  V30 6720 H 648.917 -7.25847 -3.55206 0
M  V30 6721 H 652.503 -4.92591 -3.09589 0
M  V30 6722 H 651.383 -7.11463 -3.29834 0
M  V30 6723 N 648.886 1.2938 -0.899927 0
M  V30 6724 C 650.114 1.99691 -0.541386 0
M  V30 6725 C 650.529 1.67355 0.873936 0
M  V30 6726 O 649.886 0.918728 1.57688 0
M  V30 6727 C 649.937 3.54168 -0.72438 0
M  V30 6728 O 649.658 3.85359 -2.08399 0
M  V30 6729 C 651.159 4.41746 -0.370819 0
M  V30 6730 H 648.379 0.638037 -0.207726 0
M  V30 6731 H 650.923 1.6491 -1.20934 0
M  V30 6732 H 649.078 3.87261 -0.103607 0
M  V30 6733 H 649.492 4.80032 -2.11352 0
M  V30 6734 H 650.966 5.49256 -0.549693 0
M  V30 6735 H 651.443 4.33712 0.692148 0
M  V30 6736 H 652.049 4.14125 -0.968543 0
M  V30 6737 N 650.364 0.662433 1.43002 0
M  V30 6738 C 651.612 0.179237 2.01304 0
M  V30 6739 C 651.933 -1.21428 1.52579 0
M  V30 6740 O 651.203 -1.81294 0.742252 0
M  V30 6741 H 649.783 0.0632725 0.744316 0
M  V30 6742 H 652.445 0.856169 1.75088 0
M  V30 6743 H 651.541 0.170957 3.11631 0
M  V30 6744 N 651.842 -1.52309 0.404946 0
M  V30 6745 C 653.067 -2.06666 -0.1743 0
M  V30 6746 C 653.492 -1.27341 -1.38441 0
M  V30 6747 O 652.85 -0.302539 -1.78758 0
M  V30 6748 C 652.898 -3.57014 -0.507262 0
M  V30 6749 O 652.002 -3.80144 -1.59889 0
M  V30 6750 H 651.343 -0.663807 -0.0160273 0
M  V30 6751 H 653.873 -1.96297 0.576937 0
M  V30 6752 H 653.883 -4.00724 -0.767098 0
M  V30 6753 H 652.558 -4.14184 0.377368 0
M  V30 6754 H 651.135 -3.48316 -1.33155 0
M  V30 6755 N 653.32 -0.135238 -1.57019 0
M  V30 6756 C 654.25 0.805235 -2.19176 0
M  V30 6757 C 655.231 1.2656 -1.13651 0
M  V30 6758 O 656.416 1.32528 -1.4195 0
M  V30 6759 C 653.546 2.04914 -2.80406 0
M  V30 6760 C 652.5 1.72598 -3.91655 0
M  V30 6761 C 651.826 3.04154 -4.39766 0
M  V30 6762 C 653.126 0.981709 -5.12991 0
M  V30 6763 H 654.82 0.287232 -2.98019 0
M  V30 6764 H 652.366 0.136714 -1.4335 0
M  V30 6765 H 654.319 2.71178 -3.22553 0
M  V30 6766 H 653.043 2.59067 -1.98877 0
M  V30 6767 H 651.702 1.08717 -3.50109 0
M  V30 6768 H 651.35 3.56274 -3.55075 0
M  V30 6769 H 651.05 2.83299 -5.14796 0
M  V30 6770 H 652.574 3.71509 -4.84576 0
M  V30 6771 H 653.988 1.5462 -5.52056 0
M  V30 6772 H 652.385 0.873533 -5.93708 0
M  V30 6773 H 653.455 -0.0286887 -4.84892 0
M  V30 6774 N 654.798 1.5699 0.138552 0
M  V30 6775 C 656.214 1.51844 0.491472 0
M  V30 6776 C 656.414 0.845063 1.82923 0
M  V30 6777 O 655.47 0.419143 2.48997 0
M  V30 6778 C 656.783 2.96615 0.493987 0
M  V30 6779 C 658.331 3.076 0.578913 0
M  V30 6780 C 658.806 4.53893 0.612009 0
M  V30 6781 N 660.297 4.5827 0.673997 0
M  V30 6782 C 661.032 5.68852 0.720729 0
M  V30 6783 N 660.528 6.88982 0.726292 0
M  V30 6784 N 662.321 5.56908 0.762253 0
M  V30 6785 H 654.472 1.99158 -0.738228 0
M  V30 6786 H 656.735 0.908693 -0.270149 0
M  V30 6787 H 656.441 3.49172 -0.420933 0
M  V30 6788 H 656.315 3.53017 1.32887 0
M  V30 6789 H 658.702 2.55057 1.48425 0
M  V30 6790 H 658.783 2.54227 -0.283286 0
M  V30 6791 H 658.427 5.07076 -0.289208 0
M  V30 6792 H 658.357 5.05057 1.49082 0
M  V30 6793 H 660.848 3.71793 0.676654 0
M  V30 6794 H 661.161 7.69014 0.764032 0
M  V30 6795 H 659.506 6.91526 0.69403 0
M  V30 6796 H 662.697 4.61969 0.755135 0
M  V30 6797 H 662.87 6.43102 0.795207 0
M  V30 6798 N 656.276 -0.40816 1.52223 0
M  V30 6799 C 657.523 -1.15502 1.66329 0
M  V30 6800 C 657.851 -1.90474 0.393701 0
M  V30 6801 O 657.106 -1.85507 -0.623356 0
M  V30 6802 C 657.405 -2.17422 2.83659 0
M  V30 6803 C 657.071 -1.5925 4.21841 0
M  V30 6804 C 655.733 -1.4311 4.59427 0
M  V30 6805 C 658.085 -1.16776 5.0795 0
M  V30 6806 C 655.413 -0.830148 5.80797 0
M  V30 6807 C 657.765 -0.580988 6.29926 0
M  V30 6808 C 656.429 -0.406729 6.6626 0
M  V30 6809 H 655.699 -0.422653 0.608642 0
M  V30 6810 H 658.346 -0.442114 1.86327 0
M  V30 6811 H 656.651 -2.94861 2.58001 0
M  V30 6812 H 658.348 -2.75084 2.9177 0
M  V30 6813 H 654.938 -1.72796 3.92224 0
M  V30 6814 H 659.122 -1.28055 4.79495 0
M  V30 6815 H 654.378 -0.68316 6.07571 0
M  V30 6816 H 658.552 -0.243488 6.95974 0
M  V30 6817 H 656.179 0.0610366 7.60175 0
M  V30 6818 N 657.755 -1.42862 -0.66545 0
M  V30 6819 C 658.98 -1.47456 -1.45848 0
M  V30 6820 C 659.405 -0.0900312 -1.87884 0
M  V30 6821 O 658.763 0.913587 -1.56599 0
M  V30 6822 C 658.811 -2.41514 -2.67774 0
M  V30 6823 O 657.915 -1.89296 -3.66389 0
M  V30 6824 H 657.256 -0.499236 -0.437789 0
M  V30 6825 H 659.786 -1.8765 -0.815394 0
M  V30 6826 H 659.796 -2.58409 -3.15735 0
M  V30 6827 H 658.471 -3.42099 -2.36519 0
M  V30 6828 H 657.048 -1.82003 -3.25468 0
M  V30 6829 N 659.233 0.902656 -1.29189 0
M  V30 6830 C 660.48 1.65287 -1.16989 0
M  V30 6831 C 660.808 1.92485 0.279232 0
M  V30 6832 O 660.063 1.53143 1.21843 0
M  V30 6833 C 660.362 3.011 -1.92545 0
M  V30 6834 C 660.028 2.93521 -3.42281 0
M  V30 6835 C 658.69 2.91161 -3.83117 0
M  V30 6836 C 661.042 2.82947 -4.3771 0
M  V30 6837 C 658.37 2.76043 -5.17704 0
M  V30 6838 C 660.722 2.69368 -5.72384 0
M  V30 6839 C 659.386 2.65373 -6.12482 0
M  V30 6840 H 658.656 0.604828 -0.428094 0
M  V30 6841 H 661.303 1.05084 -1.60092 0
M  V30 6842 H 659.608 3.65153 -1.42024 0
M  V30 6843 H 661.305 3.58073 -1.80512 0
M  V30 6844 H 657.895 2.96158 -3.09819 0
M  V30 6845 H 662.079 2.83849 -4.07116 0
M  V30 6846 H 657.335 2.71352 -5.47885 0
M  V30 6847 H 661.509 2.60156 -6.45981 0
M  V30 6848 H 659.136 2.53415 -7.16718 0
M  V30 6849 N 660.711 1.11618 1.11262 0
M  V30 6850 C 661.644 0.719995 2.16544 0
M  V30 6851 C 662.622 -0.28471 1.60088 0
M  V30 6852 O 663.806 -0.180693 1.87632 0
M  V30 6853 C 660.933 0.0643302 3.38639 0
M  V30 6854 C 659.979 1.03448 4.13764 0
M  V30 6855 S 660.812 2.55789 4.70459 0
M  V30 6856 C 661.968 1.91529 5.95875 0
M  V30 6857 H 662.201 1.61181 2.49816 0
M  V30 6858 H 659.734 0.934401 1.22916 0
M  V30 6859 H 661.692 -0.307609 4.09346 0
M  V30 6860 H 660.353 -0.804471 3.03623 0
M  V30 6861 H 659.546 0.523188 5.01277 0
M  V30 6862 H 659.148 1.34893 3.48826 0
M  V30 6863 H 661.44 1.25286 6.65815 0
M  V30 6864 H 662.383 2.77047 6.51652 0
M  V30 6865 H 662.791 1.37468 5.47506 0
M  V30 6866 N 662.189 -1.289 0.906776 0
M  V30 6867 C 663.436 -1.95269 0.536326 0
M  V30 6868 C 663.764 -1.71435 -0.918711 0
M  V30 6869 O 663.019 -1.02431 -1.66752 0
M  V30 6870 C 663.318 -3.48704 0.783617 0
M  V30 6871 C 662.984 -3.92626 2.21711 0
M  V30 6872 C 661.646 -4.04329 2.60906 0
M  V30 6873 C 663.998 -4.15218 3.15029 0
M  V30 6874 C 661.326 -4.35998 3.92584 0
M  V30 6875 C 663.678 -4.48365 4.46264 0
M  V30 6876 C 662.342 -4.58278 4.85322 0
M  V30 6877 H 661.612 -0.714538 0.196256 0
M  V30 6878 H 664.259 -1.53366 1.14678 0
M  V30 6879 H 662.564 -3.91696 0.0903048 0
M  V30 6880 H 664.261 -3.98162 0.476267 0
M  V30 6881 H 660.851 -3.84038 1.90296 0
M  V30 6882 H 665.035 -4.05636 2.8596 0
M  V30 6883 H 660.291 -4.41878 4.22557 0
M  V30 6884 H 664.465 -4.64795 5.18593 0
M  V30 6885 H 662.092 -4.82573 5.87391 0
M  V30 6886 N 663.667 -0.670007 -1.42649 0
M  V30 6887 C 664.907 -0.194106 -2.03476 0
M  V30 6888 C 665.271 1.1755 -1.51809 0
M  V30 6889 O 666.472 1.74579 -2.04391 0
M  V30 6890 C 664.743 -0.221828 -3.56711 0
M  V30 6891 S 666.302 0.183772 -4.38415 0
M  V30 6892 H 663.12 -0.0802478 -0.706457 0
M  V30 6893 H 665.722 -0.882092 -1.74469 0
M  V30 6894 H 664.426 -1.22107 -3.91814 0
M  V30 6895 H 663.957 0.486149 -3.90385 0
M  V30 6896 H 665.972 1.41839 -4.75496 0
M  V30 6897 N 665.145 1.52092 -0.413018 0
M  V30 6898 C 666.393 2.01456 0.161178 0
M  V30 6899 C 666.714 1.30034 1.45314 0
M  V30 6900 O 665.984 0.427435 1.9118 0
M  V30 6901 H 664.564 0.744376 0.0625526 0
M  V30 6902 H 667.226 1.86974 -0.550151 0
M  V30 6903 H 666.322 3.1008 0.354517 0
M  V30 6904 N 666.623 0.143563 1.56945 0
M  V30 6905 C 667.851 -0.515447 2.00377 0
M  V30 6906 C 668.266 -1.58643 1.02361 0
M  V30 6907 O 667.623 -1.82489 0.0201039 0
M  V30 6908 C 667.674 -1.11923 3.43737 0
M  V30 6909 O 667.395 -0.0910318 4.38005 0
M  V30 6910 C 668.896 -1.85918 4.02429 0
M  V30 6911 H 666.116 -0.134478 0.657386 0
M  V30 6912 H 668.66 0.237135 2.0312 0
M  V30 6913 H 666.815 -1.82245 3.41856 0
M  V30 6914 H 667.229 -0.532916 5.21786 0
M  V30 6915 H 668.703 -2.2346 5.04747 0
M  V30 6916 H 669.18 -2.7438 3.42947 0
M  V30 6917 H 669.786 -1.20303 4.07931 0
M  V30 6918 N 668.101 -1.57061 -0.130224 0
M  V30 6919 C 669.064 -1.98593 -1.14426 0
M  V30 6920 C 670.064 -0.874584 -1.34936 0
M  V30 6921 O 671.254 -1.14086 -1.31643 0
M  V30 6922 C 668.386 -2.31639 -2.50112 0
M  V30 6923 H 669.579 -2.89374 -0.787561 0
M  V30 6924 H 667.132 -1.51756 -0.374146 0
M  V30 6925 H 667.867 -1.43703 -2.90723 0
M  V30 6926 H 667.652 -3.12684 -2.36583 0
M  V30 6927 H 669.142 -2.64551 -3.23114 0
M  V30 6928 N 669.579 0.400081 -1.52437 0
M  V30 6929 C 670.527 1.50851 -1.7705 0
M  V30 6930 C 671.521 1.56928 -0.637969 0
M  V30 6931 O 672.727 1.60226 -0.820212 0
M  V30 6932 H 669.102 0.50186 -0.560036 0
M  V30 6933 H 671.073 1.27281 -2.69893 0
M  V30 6934 C 669.822 2.88117 -1.94638 0
M  V30 6935 H 669.145 2.84187 -2.81208 0
M  V30 6936 H 670.585 3.64942 -2.15855 0
M  V30 6937 C 669.044 3.29206 -0.715899 0
M  V30 6938 O 669.574 4.01544 0.111944 0
M  V30 6939 N 667.78 2.85363 -0.549191 0
M  V30 6940 H 667.327 2.26664 -1.22397 0
M  V30 6941 H 667.285 3.13214 0.27278 0
M  V30 6942 N 671.057 1.43213 0.657864 0
M  V30 6943 C 672.285 1.48015 1.44566 0
M  V30 6944 C 672.7 0.0965951 1.88553 0
M  V30 6945 O 672.057 -0.892221 1.59203 0
M  V30 6946 C 672.108 2.42199 2.68369 0
M  V30 6947 O 671.829 3.75173 2.26223 0
M  V30 6948 C 673.33 2.56195 3.61772 0
M  V30 6949 H 670.55 0.502861 0.444266 0
M  V30 6950 H 673.094 1.87907 0.806917 0
M  V30 6951 H 671.249 2.05514 3.28394 0
M  V30 6952 H 671.663 4.25776 3.06293 0
M  V30 6953 H 673.137 3.26182 4.4532 0
M  V30 6954 H 673.614 1.60534 4.0881 0
M  V30 6955 H 674.22 2.93671 3.07632 0
M  V30 6956 N 672.536 -0.895792 1.29666 0
M  V30 6957 C 673.764 -1.68001 1.20761 0
M  V30 6958 C 674.179 -1.87379 -0.231187 0
M  V30 6959 O 673.536 -1.41359 -1.15429 0
M  V30 6960 C 673.587 -3.06236 1.92098 0
M  V30 6961 O 673.308 -2.8774 3.30359 0
M  V30 6962 C 674.809 -4.00652 1.89717 0
M  V30 6963 H 672.029 -0.524591 0.418384 0
M  V30 6964 H 674.573 -1.11995 1.71106 0
M  V30 6965 H 672.728 -3.59007 1.45578 0
M  V30 6966 H 673.142 -3.75359 3.66342 0
M  V30 6967 H 674.616 -4.95051 2.44189 0
M  V30 6968 H 675.093 -4.30424 0.873595 0
M  V30 6969 H 675.699 -3.53815 2.35998 0
M  V30 6970 N 674.014 -1.12206 -1.10668 0
M  V30 6971 C 674.944 -0.810086 -2.18997 0
M  V30 6972 C 675.925 0.225065 -1.68604 0
M  V30 6973 O 677.11 0.086783 -1.94006 0
M  V30 6974 C 674.24 -0.261262 -3.46316 0
M  V30 6975 C 673.194 -1.2292 -4.09969 0
M  V30 6976 C 672.52 -0.540713 -5.31959 0
M  V30 6977 C 673.82 -2.58295 -4.53962 0
M  V30 6978 H 675.514 -1.7159 -2.45352 0
M  V30 6979 H 673.06 -0.82646 -1.17922 0
M  V30 6980 H 675.013 -0.0307522 -4.21389 0
M  V30 6981 H 673.737 0.679879 -3.19445 0
M  V30 6982 H 672.396 -1.44548 -3.369 0
M  V30 6983 H 672.044 0.405492 -5.01363 0
M  V30 6984 H 671.744 -1.18637 -5.75499 0
M  V30 6985 H 673.268 -0.319184 -6.09765 0
M  V30 6986 H 674.682 -2.40709 -5.20319 0
M  V30 6987 H 673.079 -3.18916 -5.08343 0
M  V30 6988 H 674.149 -3.16918 -3.67002 0
M  V30 6989 N 675.492 1.28418 -0.913599 0
M  V30 6990 C 676.439 2.27301 -0.400373 0
M  V30 6991 C 677.409 1.57582 0.52509 0
M  V30 6992 O 678.594 1.85482 0.447318 0
M  V30 6993 C 675.734 3.43284 0.35361 0
M  V30 6994 C 674.847 4.27752 -0.604341 0
M  V30 6995 C 673.982 5.30934 0.168075 0
M  V30 6996 C 673.021 6.07065 -0.783499 0
M  V30 6997 N 672.158 7.02086 -0.0446112 0
M  V30 6998 H 676.998 2.70579 -1.24865 0
M  V30 6999 H 674.535 1.33067 -0.627028 0
M  V30 7000 H 676.493 4.09322 0.806945 0
M  V30 7001 H 675.123 3.00997 1.16623 0
M  V30 7002 H 674.175 3.61759 -1.17621 0
M  V30 7003 H 675.487 4.80682 -1.33216 0
M  V30 7004 H 674.641 6.02855 0.681979 0
M  V30 7005 H 673.38 4.78771 0.928947 0
M  V30 7006 H 672.385 5.33995 -1.30878 0
M  V30 7007 H 673.61 6.61317 -1.54392 0
M  V30 7008 H 671.556 6.52273 0.698272 0
M  V30 7009 H 671.473 7.52637 -0.712258 0
M  V30 7010 H 672.741 7.78205 0.449102 0
M  V30 7011 N 676.97 0.677563 1.42291 0
M  V30 7012 C 678.216 0.201272 2.01799 0
M  V30 7013 C 678.549 -1.19004 1.53465 0
M  V30 7014 O 677.824 -1.79953 0.738039 0
M  V30 7015 C 678.107 0.238968 3.59306 0
M  V30 7016 C 677.96 1.66594 4.17812 0
M  V30 7017 C 679.279 -0.411287 4.38174 0
M  V30 7018 H 676.398 0.0746114 0.733214 0
M  V30 7019 H 679.04 0.862872 1.69276 0
M  V30 7020 H 677.19 -0.324368 3.87144 0
M  V30 7021 H 678.862 2.28173 4.00917 0
M  V30 7022 H 677.105 2.20576 3.73536 0
M  V30 7023 H 677.776 1.64398 5.26951 0
M  V30 7024 H 680.252 0.0682804 4.16044 0
M  V30 7025 H 679.128 -0.354286 5.47755 0
M  V30 7026 H 679.389 -1.4893 4.1626 0
M  V30 7027 N 678.448 -1.51871 0.421078 0
M  V30 7028 C 679.378 -2.30231 -0.389363 0
M  V30 7029 C 680.359 -1.34946 -1.03555 0
M  V30 7030 O 681.544 -1.63859 -1.04229 0
M  V30 7031 C 678.674 -3.13247 -1.49979 0
M  V30 7032 C 677.628 -4.16677 -0.977966 0
M  V30 7033 C 676.954 -4.88112 -2.1829 0
M  V30 7034 C 678.254 -5.22295 -0.0236775 0
M  V30 7035 H 679.948 -2.98229 0.264524 0
M  V30 7036 H 677.494 -1.43424 0.12866 0
M  V30 7037 H 679.447 -3.66838 -2.07383 0
M  V30 7038 H 678.171 -2.4304 -2.18173 0
M  V30 7039 H 676.83 -3.64114 -0.426245 0
M  V30 7040 H 676.478 -4.14423 -2.85066 0
M  V30 7041 H 676.178 -5.58041 -1.84021 0
M  V30 7042 H 677.702 -5.44521 -2.76278 0
M  V30 7043 H 679.116 -5.71055 -0.506899 0
M  V30 7044 H 677.513 -5.99656 0.230782 0
M  V30 7045 H 678.583 -4.76131 0.917999 0
M  V30 7046 N 679.926 -0.151884 -1.56866 0
M  V30 7047 C 680.856 0.781943 -2.20018 0
M  V30 7048 C 681.837 1.25347 -1.14987 0
M  V30 7049 O 683.022 1.31015 -1.43348 0
M  V30 7050 C 680.152 2.01928 -2.82564 0
M  V30 7051 C 679.106 1.68434 -3.93464 0
M  V30 7052 C 678.432 2.99472 -4.42968 0
M  V30 7053 C 679.732 0.927244 -5.14003 0
M  V30 7054 H 681.426 0.255607 -2.98307 0
M  V30 7055 H 678.972 0.121502 -1.43486 0
M  V30 7056 H 680.925 2.67741 -3.25411 0
M  V30 7057 H 679.649 2.56943 -2.01614 0
M  V30 7058 H 678.308 1.04998 -3.51242 0
M  V30 7059 H 677.956 3.52488 -3.58834 0
M  V30 7060 H 677.656 2.77823 -5.17772 0
M  V30 7061 H 679.18 3.66348 -4.88489 0
M  V30 7062 H 680.594 1.48756 -5.53665 0
M  V30 7063 H 678.991 0.810513 -5.94601 0
M  V30 7064 H 680.061 -0.0801163 -4.84834 0
M  V30 7065 N 681.404 1.57128 0.121893 0
M  V30 7066 C 682.367 1.99197 1.13372 0
M  V30 7067 C 683.367 0.881728 1.3447 0
M  V30 7068 O 684.557 1.14783 1.31036 0
M  V30 7069 C 681.689 2.32963 2.4888 0
M  V30 7070 H 682.882 2.89788 0.772204 0
M  V30 7071 H 680.435 1.51952 0.366093 0
M  V30 7072 H 681.17 1.45243 2.89957 0
M  V30 7073 H 680.955 3.13934 2.34921 0
M  V30 7074 H 682.445 2.66261 3.21706 0
M  V30 7075 N 682.882 -0.391992 1.52647 0
M  V30 7076 C 684.112 -1.15692 1.71169 0
M  V30 7077 C 684.52 -1.84285 0.428444 0
M  V30 7078 O 683.863 -1.73393 -0.606669 0
M  V30 7079 C 683.925 -2.25033 2.80357 0
M  V30 7080 C 683.589 -1.76433 4.21569 0
M  V30 7081 C 684.586 -1.2427 5.0483 0
M  V30 7082 C 682.271 -1.82746 4.67877 0
M  V30 7083 C 684.265 -0.790657 6.32477 0
M  V30 7084 C 681.952 -1.37153 5.9551 0
M  V30 7085 C 682.95 -0.853997 6.7764 0
M  V30 7086 O 682.638 -0.404708 8.02881 0
M  V30 7087 H 682.37 -0.35297 0.576531 0
M  V30 7088 H 684.924 -0.464994 2.00067 0
M  V30 7089 H 683.154 -2.97641 2.46874 0
M  V30 7090 H 684.843 -2.86718 2.87311 0
M  V30 7091 H 685.609 -1.18752 4.70237 0
M  V30 7092 H 681.488 -2.21971 4.04042 0
M  V30 7093 H 685.032 -0.386024 6.96531 0
M  V30 7094 H 680.929 -1.42356 6.29607 0
M  V30 7095 H 681.697 -0.526459 8.16805 0
M  V30 7096 N 684.36 -1.4356 -0.65026 0
M  V30 7097 C 685.588 -1.48779 -1.43779 0
M  V30 7098 C 686.003 -0.106593 -1.88499 0
M  V30 7099 O 685.36 0.883766 -1.59674 0
M  V30 7100 C 685.411 -2.43618 -2.67081 0
M  V30 7101 O 685.132 -3.76367 -2.24231 0
M  V30 7102 C 686.633 -2.5811 -3.60409 0
M  V30 7103 H 683.853 -0.50521 -0.441593 0
M  V30 7104 H 686.397 -1.88332 -0.796941 0
M  V30 7105 H 684.552 -2.07253 -3.273 0
M  V30 7106 H 684.966 -4.27394 -3.0403 0
M  V30 7107 H 686.44 -3.28539 -4.43583 0
M  V30 7108 H 686.917 -1.627 -4.07953 0
M  V30 7109 H 687.523 -2.95298 -3.0607 0
M  V30 7110 N 685.838 0.888903 -1.30139 0
M  V30 7111 C 687.249 1.45578 -1.16893 0
M  V30 7112 C 687.6 1.94825 0.231866 0
M  V30 7113 O 686.725 1.84661 1.12824 0
M  V30 7114 C 687.32 2.646 -2.11595 0
M  V30 7115 C 685.879 3.17389 -2.02339 0
M  V30 7116 C 685.026 1.90081 -2.01902 0
M  V30 7117 H 687.977 0.69921 -1.42467 0
M  V30 7118 H 687.998 3.40687 -1.69449 0
M  V30 7119 H 687.51 2.28726 -3.13538 0
M  V30 7120 H 685.611 3.5793 -1.03523 0
M  V30 7121 H 685.724 3.80955 -2.90534 0
M  V30 7122 H 684.088 2.08246 -1.46648 0
M  V30 7123 H 684.871 1.5647 -3.05568 0
M  V30 7124 N 687.317 1.12792 1.10072 0
M  V30 7125 C 688.728 0.899346 1.63611 0
M  V30 7126 C 689.079 -0.565547 1.87872 0
M  V30 7127 O 688.204 -1.43081 1.62348 0
M  V30 7128 C 688.799 1.62608 2.97227 0
M  V30 7129 C 687.358 1.44356 3.47618 0
M  V30 7130 C 686.505 1.65958 2.22156 0
M  V30 7131 H 689.456 1.28216 0.935223 0
M  V30 7132 H 689.477 1.0793 3.64872 0
M  V30 7133 H 688.989 2.69221 2.79538 0
M  V30 7134 H 687.09 0.400148 3.70445 0
M  V30 7135 H 687.203 2.20218 4.25489 0
M  V30 7136 H 685.567 1.08395 2.30484 0
M  V30 7137 H 686.35 2.73877 2.06993 0
M  V30 7138 N 688.795 -1.27931 0.920396 0
M  V30 7139 C 690.043 -1.94304 0.555906 0
M  V30 7140 C 690.364 -1.72753 -0.904519 0
M  V30 7141 O 689.634 -1.07104 -1.64029 0
M  V30 7142 H 688.214 -0.719001 0.202599 0
M  V30 7143 H 690.876 -1.55785 1.1712 0
M  V30 7144 H 689.972 -3.02806 0.755981 0
M  V30 7145 N 690.273 -0.685099 -1.4193 0
M  V30 7146 C 691.522 -0.208816 -2.00616 0
M  V30 7147 C 691.835 1.19506 -1.54847 0
M  V30 7148 O 693.041 1.76826 -2.06021 0
M  V30 7149 C 691.497 -0.322446 -3.58453 0
M  V30 7150 C 691.105 -1.73102 -4.13206 0
M  V30 7151 C 692.849 0.0945979 -4.24395 0
M  V30 7152 C 690.756 -1.79687 -5.63442 0
M  V30 7153 H 689.686 -0.0743092 -0.750329 0
M  V30 7154 H 692.337 -0.851778 -1.62533 0
M  V30 7155 H 690.719 0.388588 -3.94089 0
M  V30 7156 H 691.893 -2.46997 -3.8901 0
M  V30 7157 H 690.208 -2.09682 -3.59753 0
M  V30 7158 H 692.805 0.0656937 -5.3466 0
M  V30 7159 H 693.148 1.1316 -4.00625 0
M  V30 7160 H 693.681 -0.56579 -3.93756 0
M  V30 7161 H 690.42 -2.81404 -5.92024 0
M  V30 7162 H 689.94 -1.10162 -5.89597 0
M  V30 7163 H 691.619 -1.55498 -6.28036 0
M  V30 7164 N 691.751 1.51645 -0.429126 0
M  V30 7165 C 692.999 2.01616 0.139802 0
M  V30 7166 C 693.32 1.31568 1.43927 0
M  V30 7167 O 692.59 0.447688 1.90716 0
M  V30 7168 H 691.17 0.744998 0.054654 0
M  V30 7169 H 693.832 1.8638 -0.569952 0
M  V30 7170 H 692.928 3.10439 0.321609 0
M  V30 7171 N 693.229 0.160201 1.56784 0
M  V30 7172 C 694.176 -0.774416 2.1742 0
M  V30 7173 C 695.146 -1.23483 1.11091 0
M  V30 7174 O 696.331 -1.30499 1.39193 0
M  V30 7175 C 693.471 -2.00283 2.81035 0
M  V30 7176 C 692.584 -1.58701 4.01793 0
M  V30 7177 C 691.719 -2.76824 4.53367 0
M  V30 7178 C 690.758 -2.31679 5.66561 0
M  V30 7179 N 689.895 -3.42856 6.12694 0
M  V30 7180 H 694.735 -0.250542 2.96945 0
M  V30 7181 H 692.272 -0.111943 1.46673 0
M  V30 7182 H 694.23 -2.72316 3.16069 0
M  V30 7183 H 692.86 -2.5006 2.04132 0
M  V30 7184 H 691.912 -0.76384 3.72652 0
M  V30 7185 H 693.224 -1.21555 4.83762 0
M  V30 7186 H 692.378 -3.57029 4.90525 0
M  V30 7187 H 691.117 -3.17223 3.70433 0
M  V30 7188 H 690.122 -1.49917 5.28966 0
M  V30 7189 H 691.347 -1.9235 6.5129 0
M  V30 7190 H 689.293 -3.82852 5.32692 0
M  V30 7191 H 689.21 -3.09767 6.89624 0
M  V30 7192 H 690.478 -4.23379 6.545 0
M  V30 7193 N 694.707 -1.5719 -0.113559 0
M  V30 7194 C 696.118 -1.74259 -0.670116 0
M  V30 7195 C 696.469 -0.779694 -1.80042 0
M  V30 7196 O 695.594 0.0461353 -2.16351 0
M  V30 7197 C 696.189 -3.15981 -1.22236 0
M  V30 7198 C 694.748 -3.34537 -1.72516 0
M  V30 7199 C 693.895 -2.70116 -0.627098 0
M  V30 7200 H 696.846 -1.58301 0.112396 0
M  V30 7201 H 696.867 -3.17832 -2.09197 0
M  V30 7202 H 696.379 -3.86038 -0.39949 0
M  V30 7203 H 694.48 -2.6953 -2.57263 0
M  V30 7204 H 694.593 -4.42737 -1.83086 0
M  V30 7205 H 692.957 -2.31501 -1.06204 0
M  V30 7206 H 693.74 -3.42802 0.184889 0
M  V30 7207 N 696.185 0.383891 -1.52853 0
M  V30 7208 C 697.601 0.724316 -1.42218 0
M  V30 7209 C 697.801 1.93943 -0.546654 0
M  V30 7210 O 696.857 2.5249 -0.0220562 0
M  V30 7211 C 698.17 0.954635 -2.85144 0
M  V30 7212 C 699.718 1.05579 -2.94656 0
M  V30 7213 C 700.193 1.3187 -4.38605 0
M  V30 7214 N 701.684 1.38681 -4.41952 0
M  V30 7215 C 702.419 1.60699 -5.50421 0
M  V30 7216 N 701.915 1.80154 -6.68967 0
M  V30 7217 N 703.708 1.6292 -5.37972 0
M  V30 7218 H 695.859 -0.4156 -2.08294 0
M  V30 7219 H 698.122 -0.123776 -0.939885 0
M  V30 7220 H 697.828 0.133829 -3.51445 0
M  V30 7221 H 697.702 1.86788 -3.27704 0
M  V30 7222 H 700.089 1.86716 -2.2852 0
M  V30 7223 H 700.17 0.120338 -2.55517 0
M  V30 7224 H 699.814 0.512416 -5.05309 0
M  V30 7225 H 699.744 2.26708 -4.75301 0
M  V30 7226 H 702.235 1.25334 -3.56511 0
M  V30 7227 H 702.548 1.96476 -7.47407 0
M  V30 7228 H 700.893 1.77368 -6.71986 0
M  V30 7229 H 704.084 1.47276 -4.44328 0
M  V30 7230 H 704.257 1.79739 -6.22574 0
M  V30 7231 N 697.663 1.43903 0.642637 0
M  V30 7232 C 698.888 1.49758 1.43483 0
M  V30 7233 C 699.313 0.119911 1.87717 0
M  V30 7234 O 698.671 -0.888558 1.58033 0
M  V30 7235 C 698.719 2.45744 2.63898 0
M  V30 7236 O 697.823 1.95101 3.63331 0
M  V30 7237 H 697.164 0.506138 0.429791 0
M  V30 7238 H 699.694 1.88923 0.785438 0
M  V30 7239 H 699.704 2.63399 3.11584 0
M  V30 7240 H 698.379 3.45818 2.31046 0
M  V30 7241 H 696.956 1.87158 3.22531 0
M  V30 7242 N 699.141 -0.881989 1.30609 0
M  V30 7243 C 700.557 -1.16576 1.09005 0
M  V30 7244 C 700.757 -2.00961 -0.14727 0
M  V30 7245 O 699.813 -2.38117 -0.840036 0
M  V30 7246 C 701.126 -1.86954 2.35518 0
M  V30 7247 C 702.674 -1.99706 2.41011 0
M  V30 7248 C 703.149 -2.73497 3.67374 0
M  V30 7249 N 704.64 -2.8104 3.68199 0
M  V30 7250 C 705.375 -3.38718 4.62664 0
M  V30 7251 N 704.871 -3.97421 5.67475 0
M  V30 7252 N 706.664 -3.36561 4.50203 0
M  V30 7253 H 698.815 -0.319398 2.09985 0
M  V30 7254 H 701.078 -0.204058 0.925778 0
M  V30 7255 H 700.784 -1.32393 3.2583 0
M  V30 7256 H 700.658 -2.87317 2.44395 0
M  V30 7257 H 703.045 -2.53436 1.51176 0
M  V30 7258 H 703.126 -0.984218 2.36108 0
M  V30 7259 H 702.77 -2.20438 4.57569 0
M  V30 7260 H 702.7 -3.75163 3.6954 0
M  V30 7261 H 705.191 -2.39365 2.92426 0
M  V30 7262 H 705.504 -4.39507 6.35652 0
M  V30 7263 H 703.849 -3.95832 5.71264 0
M  V30 7264 H 707.04 -2.8993 3.67503 0
M  V30 7265 H 707.213 -3.81215 5.24003 0
M  V30 7266 N 700.619 -1.13374 -1.09472 0
M  V30 7267 C 701.566 -0.810682 -2.16094 0
M  V30 7268 C 702.536 0.227003 -1.64541 0
M  V30 7269 O 703.721 0.0993538 -1.90541 0
M  V30 7270 C 700.861 -0.282336 -3.43943 0
M  V30 7271 C 699.974 -1.37902 -4.09398 0
M  V30 7272 C 699.109 -0.809066 -5.25002 0
M  V30 7273 C 698.148 -1.88419 -5.82379 0
M  V30 7274 N 697.285 -1.33221 -6.89345 0
M  V30 7275 H 702.125 -1.72397 -2.43071 0
M  V30 7276 H 699.662 -0.860564 -1.19301 0
M  V30 7277 H 701.62 0.0421189 -4.17179 0
M  V30 7278 H 700.25 0.594083 -3.17286 0
M  V30 7279 H 699.302 -1.82008 -3.34032 0
M  V30 7280 H 700.614 -2.19161 -4.48074 0
M  V30 7281 H 699.768 -0.435867 -6.05132 0
M  V30 7282 H 698.507 0.0346058 -4.87688 0
M  V30 7283 H 697.512 -2.26646 -5.00911 0
M  V30 7284 H 698.737 -2.73125 -6.21755 0
M  V30 7285 H 696.683 -0.510535 -6.5401 0
M  V30 7286 H 696.6 -2.08129 -7.26786 0
M  V30 7287 H 697.868 -0.986565 -7.73232 0
M  V30 7288 N 702.098 1.27442 -0.927168 0
M  V30 7289 C 703.008 2.30599 -0.431448 0
M  V30 7290 C 704.024 1.67028 0.48761 0
M  V30 7291 O 705.2 1.97962 0.370546 0
M  V30 7292 C 702.265 3.45327 0.308292 0
M  V30 7293 C 701.326 4.24418 -0.645615 0
M  V30 7294 C 700.559 5.33667 0.0589164 0
M  V30 7295 O 700.782 5.5589 1.27838 0
M  V30 7296 O 699.716 5.98774 -0.612638 0
M  V30 7297 H 703.542 2.75036 -1.28797 0
M  V30 7298 H 701.127 1.32382 -0.692495 0
M  V30 7299 H 703.009 4.15107 0.725555 0
M  V30 7300 H 701.684 3.02945 1.14043 0
M  V30 7301 H 700.591 3.57174 -1.11255 0
M  V30 7302 H 701.924 4.70512 -1.44496 0
M  V30 7303 N 703.576 0.692616 1.41565 0
M  V30 7304 C 704.539 0.0344174 2.29174 0
M  V30 7305 C 705.539 -0.710961 1.44229 0
M  V30 7306 O 706.729 -0.546293 1.65412 0
M  V30 7307 C 703.861 -0.961682 3.27054 0
M  V30 7308 H 705.054 0.805755 2.88873 0
M  V30 7309 H 702.607 0.455947 1.49502 0
M  V30 7310 H 703.342 -1.76089 2.72329 0
M  V30 7311 H 703.127 -0.430375 3.89731 0
M  V30 7312 H 704.617 -1.4201 3.92712 0
M  V30 7313 N 705.054 -1.51416 0.437162 0
M  V30 7314 C 705.987 -2.24309 -0.419602 0
M  V30 7315 C 706.965 -1.26236 -1.02485 0
M  V30 7316 O 708.149 -1.5537 -1.06735 0
M  V30 7317 C 705.276 -2.99335 -1.58482 0
M  V30 7318 C 704.322 -4.12064 -1.10027 0
M  V30 7319 S 705.155 -5.35483 -0.0424476 0
M  V30 7320 C 706.311 -6.14047 -1.21234 0
M  V30 7321 H 706.544 -2.96632 0.199259 0
M  V30 7322 H 704.077 -1.528 0.22168 0
M  V30 7323 H 706.035 -3.43159 -2.25282 0
M  V30 7324 H 704.696 -2.26602 -2.17509 0
M  V30 7325 H 703.889 -4.63836 -1.97161 0
M  V30 7326 H 703.491 -3.70499 -0.510507 0
M  V30 7327 H 705.783 -6.43123 -2.13072 0
M  V30 7328 H 706.726 -7.04279 -0.734582 0
M  V30 7329 H 707.134 -5.45538 -1.45082 0
M  V30 7330 N 706.532 -0.168513 -1.56696 0
M  V30 7331 C 707.462 0.758563 -2.20835 0
M  V30 7332 C 708.443 1.24121 -1.1631 0
M  V30 7333 O 709.628 1.29487 -1.4473 0
M  V30 7334 C 706.758 1.9892 -2.8469 0
M  V30 7335 C 705.712 1.64252 -3.95228 0
M  V30 7336 C 705.038 2.94757 -4.46119 0
M  V30 7337 C 706.338 0.872675 -5.14958 0
M  V30 7338 H 708.032 0.223953 -2.98561 0
M  V30 7339 H 705.578 0.106277 -1.43607 0
M  V30 7340 H 707.531 2.64275 -3.28233 0
M  V30 7341 H 706.255 2.5479 -2.04327 0
M  V30 7342 H 704.914 1.01266 -3.52336 0
M  V30 7343 H 704.562 3.48662 -3.62552 0
M  V30 7344 H 704.262 2.72316 -5.2069 0
M  V30 7345 H 705.786 3.61147 -4.92347 0
M  V30 7346 H 707.2 1.42875 -5.55211 0
M  V30 7347 H 705.597 0.747402 -5.95428 0
M  V30 7348 H 706.667 -0.131535 -4.84722 0
M  V30 7349 N 708.01 1.57248 0.105221 0
M  V30 7350 C 709.258 1.85204 0.808951 0
M  V30 7351 C 709.579 0.75574 1.7976 0
M  V30 7352 O 708.849 -0.218984 1.94672 0
M  V30 7353 H 707.429 0.683346 0.301739 0
M  V30 7354 H 710.091 1.94695 0.0892605 0
M  V30 7355 H 709.187 2.81595 1.34575 0
M  V30 7356 N 709.488 -0.375779 1.53054 0
M  V30 7357 C 710.716 -1.14036 1.72637 0
M  V30 7358 C 711.131 -1.83342 0.450687 0
M  V30 7359 O 710.488 -1.7318 -0.575749 0
M  V30 7360 C 710.539 -2.17841 2.88492 0
M  V30 7361 O 710.26 -1.51358 4.11123 0
M  V30 7362 C 711.761 -3.06924 3.19863 0
M  V30 7363 H 708.981 -0.341386 0.577665 0
M  V30 7364 H 711.525 -0.437809 1.99759 0
M  V30 7365 H 709.68 -2.8371 2.63794 0
M  V30 7366 H 710.094 -2.20439 4.75928 0
M  V30 7367 H 711.568 -3.75763 4.04359 0
M  V30 7368 H 712.045 -3.71169 2.34798 0
M  V30 7369 H 712.651 -2.46684 3.46449 0
M  V30 7370 N 710.966 -1.44241 -0.634997 0
M  V30 7371 C 711.916 -1.47247 -1.74076 0
M  V30 7372 C 712.9 -0.338708 -1.57295 0
M  V30 7373 O 714.092 -0.583751 -1.67097 0
M  V30 7374 C 711.221 -1.41579 -3.12746 0
M  V30 7375 C 710.307 -2.60055 -3.35011 0
M  V30 7376 N 710.698 -3.85321 -3.27661 0
M  V30 7377 C 708.996 -2.55168 -3.65794 0
M  V30 7378 C 709.697 -4.64241 -3.50508 0
M  V30 7379 N 708.673 -3.95254 -3.73196 0
M  V30 7380 H 712.475 -2.4195 -1.66845 0
M  V30 7381 H 709.989 -1.3915 -0.837326 0
M  V30 7382 H 711.986 -1.41816 -3.92038 0
M  V30 7383 H 710.646 -0.479108 -3.21146 0
M  V30 7384 H 711.657 -4.17345 -3.06665 0
M  V30 7385 H 708.334 -1.70276 -3.81198 0
M  V30 7386 H 709.724 -5.73267 -3.50449 0
M  V30 7387 N 712.444 0.87505 -1.31075 0
M  V30 7388 C 713.69 1.63009 -1.20647 0
M  V30 7389 C 714.023 1.9276 0.236045 0
M  V30 7390 O 713.298 1.55559 1.16754 0
M  V30 7391 C 713.581 2.96357 -2.0456 0
M  V30 7392 C 713.434 2.73516 -3.57084 0
M  V30 7393 C 714.753 3.974 -1.89107 0
M  V30 7394 H 711.872 0.591518 -0.439631 0
M  V30 7395 H 714.514 1.0119 -1.60812 0
M  V30 7396 H 712.664 3.49119 -1.70435 0
M  V30 7397 H 714.336 2.27465 -4.01319 0
M  V30 7398 H 712.579 2.0784 -3.80769 0
M  V30 7399 H 713.25 3.68377 -4.11099 0
M  V30 7400 H 715.726 3.5383 -2.18961 0
M  V30 7401 H 714.602 4.88596 -2.5013 0
M  V30 7402 H 714.863 4.33794 -0.85296 0
M  V30 7403 N 713.922 1.13953 1.08869 0
M  V30 7404 C 715.168 0.906151 1.8143 0
M  V30 7405 C 715.501 -0.566089 1.85766 0
M  V30 7406 O 714.776 -1.41915 1.33006 0
M  V30 7407 C 715.059 1.50183 3.27287 0
M  V30 7408 C 714.912 3.04359 3.31189 0
M  V30 7409 C 716.231 1.17477 4.24131 0
M  V30 7410 H 713.35 0.330624 0.658678 0
M  V30 7411 H 715.992 1.40873 1.27495 0
M  V30 7412 H 714.142 1.07442 3.73348 0
M  V30 7413 H 715.814 3.55896 2.93488 0
M  V30 7414 H 714.057 3.39053 2.70602 0
M  V30 7415 H 714.728 3.41141 4.33966 0
M  V30 7416 H 717.204 1.5442 3.86385 0
M  V30 7417 H 716.08 1.61795 5.24513 0
M  V30 7418 H 716.341 0.0893312 4.4201 0
M  V30 7419 N 715.4 -1.26948 0.933913 0
M  V30 7420 C 716.646 -1.94716 0.587985 0
M  V30 7421 C 717.001 -1.71994 -0.862312 0
M  V30 7422 O 716.294 -1.04208 -1.60783 0
M  V30 7423 C 716.488 -3.46963 0.857406 0
M  V30 7424 C 716.317 -3.84489 2.33234 0
M  V30 7425 C 715.087 -4.07621 2.98618 0
M  V30 7426 C 717.285 -3.93602 3.31031 0
M  V30 7427 N 715.267 -4.31976 4.362 0
M  V30 7428 C 716.638 -4.22404 4.53845 0
M  V30 7429 C 718.693 -3.76201 3.26155 0
M  V30 7430 C 717.396 -4.35615 5.72391 0
M  V30 7431 C 719.422 -3.90641 4.4402 0
M  V30 7432 C 718.784 -4.19835 5.65613 0
M  V30 7433 H 714.883 -0.735586 0.2654 0
M  V30 7434 H 717.467 -1.53181 1.20182 0
M  V30 7435 H 715.638 -3.87442 0.27268 0
M  V30 7436 H 717.37 -4.01921 0.47348 0
M  V30 7437 H 714.125 -4.02696 2.49264 0
M  V30 7438 H 714.549 -4.48199 5.07392 0
M  V30 7439 H 719.191 -3.52665 2.3321 0
M  V30 7440 H 716.909 -4.57975 6.65796 0
M  V30 7441 H 720.495 -3.78589 4.41771 0
M  V30 7442 H 719.375 -4.30765 6.55295 0
M  V30 7443 N 716.879 -0.700114 -1.41195 0
M  V30 7444 C 718.156 -0.160836 -1.94938 0
M  V30 7445 C 718.536 1.33014 -1.63922 0
M  V30 7446 O 717.884 2.07878 -0.948636 0
M  V30 7447 C 718.094 -0.456991 -3.45995 0
M  V30 7448 C 719.442 -0.387207 -4.22831 0
M  V30 7449 O 720.466 -0.392164 -3.54035 0
M  V30 7450 O 719.325 -0.351267 -5.4537 0
M  V30 7451 H 716.419 -0.0176304 -0.826812 0
M  V30 7452 H 718.965 -0.776586 -1.50888 0
M  V30 7453 H 717.737 -1.48884 -3.61869 0
M  V30 7454 H 717.36 0.189503 -3.97148 0
M  V30 7455 N 718.357 1.51182 -0.445186 0
M  V30 7456 C 719.603 2.02452 0.11882 0
M  V30 7457 C 719.936 1.32824 1.41673 0
M  V30 7458 O 719.211 0.445637 1.89326 0
M  V30 7459 C 719.494 3.5859 0.329475 0
M  V30 7460 C 719.347 4.38823 -0.987638 0
M  V30 7461 C 720.666 4.26241 1.09575 0
M  V30 7462 H 717.785 0.735819 0.0417092 0
M  V30 7463 H 720.427 1.80747 -0.585718 0
M  V30 7464 H 718.577 3.77214 0.9296 0
M  V30 7465 H 720.249 4.3183 -1.62235 0
M  V30 7466 H 718.492 4.03594 -1.59041 0
M  V30 7467 H 719.163 5.46257 -0.794192 0
M  V30 7468 H 721.639 4.11934 0.587328 0
M  V30 7469 H 720.515 5.35354 1.21191 0
M  V30 7470 H 720.776 3.87635 2.12584 0
M  V30 7471 N 719.835 0.176821 1.56605 0
M  V30 7472 C 721.083 -0.465793 1.96659 0
M  V30 7473 C 721.404 -1.63406 1.06412 0
M  V30 7474 O 720.674 -1.95457 0.131603 0
M  V30 7475 H 719.254 -0.175072 0.726195 0
M  V30 7476 H 721.916 0.25929 1.93168 0
M  V30 7477 H 721.012 -0.822138 3.01077 0
M  V30 7478 N 721.313 -1.57302 -0.09688 0
M  V30 7479 C 722.243 -2.0497 -1.11846 0
M  V30 7480 C 723.224 -0.938278 -1.41882 0
M  V30 7481 O 724.409 -1.20943 -1.51942 0
M  V30 7482 C 721.539 -2.47264 -2.43881 0
M  V30 7483 C 720.493 -3.62053 -2.28257 0
M  V30 7484 C 719.819 -3.90318 -3.65453 0
M  V30 7485 C 721.119 -4.93005 -1.72461 0
M  V30 7486 H 722.813 -2.90567 -0.721888 0
M  V30 7487 H 720.359 -1.39786 -0.345803 0
M  V30 7488 H 722.312 -2.7922 -3.15617 0
M  V30 7489 H 721.036 -1.58664 -2.8547 0
M  V30 7490 H 719.695 -3.30341 -1.58967 0
M  V30 7491 H 719.343 -2.98889 -4.04567 0
M  V30 7492 H 719.043 -4.67597 -3.55846 0
M  V30 7493 H 720.567 -4.24747 -4.3866 0
M  V30 7494 H 721.981 -5.23354 -2.34036 0
M  V30 7495 H 720.378 -5.74436 -1.73618 0
M  V30 7496 H 721.448 -4.80053 -0.683898 0
M  V30 7497 N 722.791 0.367657 -1.53252 0
M  V30 7498 C 723.723 1.47032 -1.75824 0
M  V30 7499 C 724.736 1.49736 -0.63898 0
M  V30 7500 O 725.925 1.53253 -0.915193 0
M  V30 7501 C 723.025 2.85805 -1.82122 0
M  V30 7502 C 722.198 3.06822 -3.11736 0
M  V30 7503 C 721.257 4.25698 -3.09302 0
M  V30 7504 O 720.283 4.20972 -3.83107 0
M  V30 7505 N 721.485 5.33002 -2.29977 0
M  V30 7506 H 724.25 1.28048 -2.70968 0
M  V30 7507 H 721.811 0.557363 -1.52004 0
M  V30 7508 H 723.803 3.63465 -1.77975 0
M  V30 7509 H 722.373 2.98046 -0.942716 0
M  V30 7510 H 721.593 2.1684 -3.29202 0
M  V30 7511 H 722.881 3.17731 -3.97397 0
M  V30 7512 H 722.279 5.39703 -1.69521 0
M  V30 7513 H 720.836 6.09247 -2.3165 0
M  V30 7514 N 724.269 1.44576 0.627338 0
M  V30 7515 C 725.494 1.51271 1.41887 0
M  V30 7516 C 725.919 0.139814 1.8758 0
M  V30 7517 O 725.277 -0.871746 1.58966 0
M  V30 7518 C 725.325 2.48529 2.61277 0
M  V30 7519 O 724.429 1.98944 3.61241 0
M  V30 7520 H 723.77 0.510668 0.424399 0
M  V30 7521 H 726.3 1.89746 0.765356 0
M  V30 7522 H 726.31 2.66689 3.08773 0
M  V30 7523 H 724.985 3.48249 2.27366 0
M  V30 7524 H 723.562 1.90568 3.20528 0
M  V30 7525 N 725.747 -0.868086 1.31537 0
M  V30 7526 C 726.975 -1.65402 1.24298 0
M  V30 7527 C 727.39 -1.87827 -0.191389 0
M  V30 7528 O 726.747 -1.43776 -1.12404 0
M  V30 7529 C 726.798 -3.02093 1.9855 0
M  V30 7530 O 726.519 -2.80668 3.36388 0
M  V30 7531 C 728.02 -3.96538 1.98173 0
M  V30 7532 H 725.24 -0.515598 0.429417 0
M  V30 7533 H 727.784 -1.0834 1.73444 0
M  V30 7534 H 725.939 -3.55838 1.53161 0
M  V30 7535 H 726.353 -3.67504 3.74221 0
M  V30 7536 H 727.827 -4.8976 2.54635 0
M  V30 7537 H 728.304 -4.28474 0.964697 0
M  V30 7538 H 728.91 -3.48729 2.4345 0
M  V30 7539 N 727.225 -1.14528 -1.08264 0
M  V30 7540 C 728.471 -0.91576 -1.80947 0
M  V30 7541 C 728.804 0.55623 -1.86064 0
M  V30 7542 O 728.079 1.41207 -1.33756 0
M  V30 7543 C 728.362 -1.51917 -3.26486 0
M  V30 7544 C 728.215 -3.06111 -3.2957 0
M  V30 7545 C 729.534 -1.19724 -4.23502 0
M  V30 7546 H 726.653 -0.334113 -0.656915 0
M  V30 7547 H 729.295 -1.41547 -1.26746 0
M  V30 7548 H 727.445 -1.0942 -3.72773 0
M  V30 7549 H 729.117 -3.57448 -2.91597 0
M  V30 7550 H 727.36 -3.40483 -2.688 0
M  V30 7551 H 728.031 -3.43438 -4.32151 0
M  V30 7552 H 730.507 -1.56467 -3.85561 0
M  V30 7553 H 729.383 -1.64575 -5.23647 0
M  V30 7554 H 729.644 -0.112771 -4.41956 0
M  V30 7555 N 728.703 1.26451 -0.940633 0
M  V30 7556 C 729.928 1.98407 -0.60412 0
M  V30 7557 C 730.353 1.69584 0.81382 0
M  V30 7558 O 729.711 0.943553 1.54812 0
M  V30 7559 C 729.759 3.50387 -0.852136 0
M  V30 7560 O 728.863 4.1233 0.076013 0
M  V30 7561 H 728.204 0.622466 -0.231153 0
M  V30 7562 H 730.734 1.60932 -1.26342 0
M  V30 7563 H 730.744 4.00614 -0.772816 0
M  V30 7564 H 729.419 3.70696 -1.88566 0
M  V30 7565 H 727.996 3.7286 -0.0543187 0
M  V30 7566 N 730.181 0.707592 1.40822 0
M  V30 7567 C 731.111 0.0644925 2.33411 0
M  V30 7568 C 732.092 -0.754205 1.52466 0
M  V30 7569 O 733.277 -0.704749 1.80961 0
M  V30 7570 C 730.407 -0.863865 3.36385 0
M  V30 7571 C 729.361 -0.15138 4.27732 0
M  V30 7572 C 728.687 -1.19491 5.21177 0
M  V30 7573 C 729.987 0.989607 5.12839 0
M  V30 7574 H 731.681 0.837829 2.87438 0
M  V30 7575 H 729.227 0.404346 1.38207 0
M  V30 7576 H 731.18 -1.32309 4.0009 0
M  V30 7577 H 729.904 -1.66901 2.80734 0
M  V30 7578 H 728.563 0.287937 3.65467 0
M  V30 7579 H 728.211 -1.9929 4.61836 0
M  V30 7580 H 727.911 -0.723123 5.83134 0
M  V30 7581 H 729.435 -1.6544 5.8776 0
M  V30 7582 H 730.849 0.610114 5.70044 0
M  V30 7583 H 729.246 1.38926 5.83798 0
M  V30 7584 H 730.316 1.82389 4.49291 0
M  V30 7585 N 731.66 -1.50943 0.453197 0
M  V30 7586 C 732.906 -2.02512 -0.108082 0
M  V30 7587 C 733.239 -1.33574 -1.40967 0
M  V30 7588 O 732.514 -0.455671 -1.89087 0
M  V30 7589 C 732.797 -3.58759 -0.310453 0
M  V30 7590 C 732.65 -4.38293 1.0109 0
M  V30 7591 C 733.969 -4.26816 -1.07313 0
M  V30 7592 H 731.088 -0.73603 -0.0378064 0
M  V30 7593 H 733.73 -1.80433 0.595295 0
M  V30 7594 H 731.88 -3.77702 -0.909582 0
M  V30 7595 H 733.552 -4.30964 1.64523 0
M  V30 7596 H 731.795 -4.02745 1.61179 0
M  V30 7597 H 732.466 -5.45828 0.82315 0
M  V30 7598 H 734.942 -4.1224 -0.565473 0
M  V30 7599 H 733.818 -5.35989 -1.1835 0
M  V30 7600 H 734.079 -3.88757 -2.10525 0
M  V30 7601 N 733.138 -0.185124 -1.56509 0
M  V30 7602 C 734.384 0.456934 -1.97585 0
M  V30 7603 C 734.717 1.61957 -1.07161 0
M  V30 7604 O 733.992 1.9412 -0.121546 0
M  V30 7605 C 734.275 0.926666 -3.47973 0
M  V30 7606 C 734.128 -0.237097 -4.49175 0
M  V30 7607 C 735.447 1.79561 -4.01803 0
M  V30 7608 H 732.566 0.164619 -0.71838 0
M  V30 7609 H 735.208 -0.274039 -1.88013 0
M  V30 7610 H 733.358 1.54954 -3.56261 0
M  V30 7611 H 735.03 -0.87454 -4.52934 0
M  V30 7612 H 733.273 -0.890446 -4.24563 0
M  V30 7613 H 733.944 0.133924 -5.51838 0
M  V30 7614 H 736.42 1.27039 -3.96232 0
M  V30 7615 H 735.296 2.09327 -5.07418 0
M  V30 7616 H 735.557 2.74629 -3.46455 0
M  V30 7617 N 734.616 1.57351 0.0885366 0
M  V30 7618 C 736.027 1.75303 0.642308 0
M  V30 7619 C 736.378 0.808238 1.78779 0
M  V30 7620 O 735.503 -0.01171 2.16397 0
M  V30 7621 C 736.098 3.17885 1.17194 0
M  V30 7622 C 734.657 3.37239 1.67172 0
M  V30 7623 C 733.804 2.7108 0.584045 0
M  V30 7624 H 736.755 1.58103 -0.137567 0
M  V30 7625 H 736.776 3.2112 2.04114 0
M  V30 7626 H 736.288 3.86625 0.338024 0
M  V30 7627 H 734.389 2.73588 2.52943 0
M  V30 7628 H 734.502 4.45594 1.76019 0
M  V30 7629 H 732.866 2.33161 1.02508 0
M  V30 7630 H 733.649 3.42464 -0.239403 0
M  V30 7631 N 736.094 -0.359525 1.53444 0
M  V30 7632 C 737.34 -1.09958 1.71116 0
M  V30 7633 C 737.695 -1.8681 0.460414 0
M  V30 7634 O 736.988 -1.83635 -0.5467 0
M  V30 7635 C 737.182 -2.08287 2.90433 0
M  V30 7636 C 737.011 -1.41098 4.26991 0
M  V30 7637 C 735.781 -1.16255 4.91745 0
M  V30 7638 C 737.979 -0.845517 5.07302 0
M  V30 7639 N 735.961 -0.454798 6.12213 0
M  V30 7640 C 737.332 -0.267455 6.19423 0
M  V30 7641 C 739.387 -0.744797 4.92298 0
M  V30 7642 C 738.09 0.401511 7.18179 0
M  V30 7643 C 740.116 -0.0896013 5.91332 0
M  V30 7644 C 739.478 0.47756 7.02779 0
M  V30 7645 H 735.577 -0.387305 0.679352 0
M  V30 7646 H 738.161 -0.38519 1.90852 0
M  V30 7647 H 736.332 -2.77034 2.72226 0
M  V30 7648 H 738.064 -2.75015 2.96899 0
M  V30 7649 H 734.819 -1.44544 4.51003 0
M  V30 7650 H 735.243 -0.116108 6.769 0
M  V30 7651 H 739.885 -1.16905 4.06317 0
M  V30 7652 H 737.603 0.837694 8.03746 0
M  V30 7653 H 741.189 -0.0125162 5.81799 0
M  V30 7654 H 740.069 0.976522 7.78096 0
M  V30 7655 N 737.572 -1.44907 -0.619662 0
M  V30 7656 C 738.821 -1.47569 -1.37501 0
M  V30 7657 C 739.134 -0.116707 -1.95252 0
M  V30 7658 O 740.34 -0.020909 -2.71492 0
M  V30 7659 C 738.796 -2.59851 -2.49009 0
M  V30 7660 C 738.404 -4.02008 -1.97722 0
M  V30 7661 C 740.148 -2.71746 -3.2612 0
M  V30 7662 C 738.055 -5.05693 -3.0664 0
M  V30 7663 H 736.985 -0.549068 -0.51676 0
M  V30 7664 H 739.636 -1.71009 -0.665437 0
M  V30 7665 H 738.018 -2.29671 -3.22594 0
M  V30 7666 H 739.192 -4.41809 -1.30925 0
M  V30 7667 H 737.507 -3.94456 -1.33392 0
M  V30 7668 H 740.104 -3.46382 -4.07337 0
M  V30 7669 H 740.447 -1.77959 -3.76346 0
M  V30 7670 H 740.98 -3.01392 -2.5963 0
M  V30 7671 H 737.719 -6.01148 -2.61345 0
M  V30 7672 H 737.239 -4.70473 -3.72042 0
M  V30 7673 H 738.918 -5.29906 -3.71226 0
M  V30 7674 N 739.05 0.861098 -1.31996 0
M  V30 7675 C 740.275 1.65264 -1.2531 0
M  V30 7676 C 740.7 1.87265 0.177007 0
M  V30 7677 O 740.058 1.4208 1.12619 0
M  V30 7678 C 740.106 2.99284 -2.0115 0
M  V30 7679 O 739.21 3.89508 -1.3549 0
M  V30 7680 H 738.551 0.50409 -0.432192 0
M  V30 7681 H 741.081 1.07297 -1.74208 0
M  V30 7682 H 741.091 3.49154 -2.11081 0
M  V30 7683 H 739.766 2.82591 -3.05148 0
M  V30 7684 H 738.343 3.47966 -1.34066 0
M  V30 7685 N 740.528 1.15101 1.07655 0
M  V30 7686 C 741.491 0.847625 2.12951 0
M  V30 7687 C 742.491 -0.151227 1.60087 0
M  V30 7688 O 743.681 0.0780399 1.74025 0
M  V30 7689 C 740.813 0.265 3.39868 0
M  V30 7690 H 742.006 1.7809 2.41296 0
M  V30 7691 H 739.559 0.958072 1.23494 0
M  V30 7692 H 740.294 -0.676625 3.17163 0
M  V30 7693 H 740.079 0.984554 3.79538 0
M  V30 7694 H 741.569 0.0702121 4.17541 0
M  V30 7695 N 742.006 -1.2595 0.947325 0
M  V30 7696 C 743.231 -1.98083 0.614633 0
M  V30 7697 C 743.656 -1.70013 -0.804815 0
M  V30 7698 O 743.014 -0.95175 -1.54309 0
M  V30 7699 C 743.062 -3.4993 0.870706 0
M  V30 7700 O 742.166 -4.12364 -0.0541451 0
M  V30 7701 H 741.507 -0.621232 0.234451 0
M  V30 7702 H 744.037 -1.60259 1.27193 0
M  V30 7703 H 744.047 -4.00198 0.794051 0
M  V30 7704 H 742.722 -3.69691 1.90529 0
M  V30 7705 H 741.299 -3.72826 0.0740917 0
M  V30 7706 N 743.484 -0.715051 -1.40445 0
M  V30 7707 C 744.416 -0.0227516 -2.29189 0
M  V30 7708 C 745.429 0.724313 -1.458 0
M  V30 7709 O 746.618 0.571781 -1.69094 0
M  V30 7710 C 743.718 0.992038 -3.24055 0
M  V30 7711 C 742.891 0.310613 -4.36296 0
M  V30 7712 C 741.95 1.23071 -5.11605 0
M  V30 7713 O 740.976 0.71571 -5.64682 0
M  V30 7714 N 742.178 2.56188 -5.2091 0
M  V30 7715 H 744.943 -0.78473 -2.89244 0
M  V30 7716 H 742.504 -0.562637 -1.51809 0
M  V30 7717 H 744.496 1.60973 -3.71308 0
M  V30 7718 H 743.066 1.65538 -2.65171 0
M  V30 7719 H 742.286 -0.487269 -3.91177 0
M  V30 7720 H 743.574 -0.162415 -5.08541 0
M  V30 7721 H 742.972 3.00527 -4.7927 0
M  V30 7722 H 741.529 3.13103 -5.71673 0
M  V30 7723 N 744.962 1.50701 -0.461195 0
M  V30 7724 C 746.192 2.06381 0.0950376 0
M  V30 7725 C 746.6 1.32627 1.34933 0
M  V30 7726 O 745.943 0.386137 1.79596 0
M  V30 7727 C 746.005 3.56558 0.458965 0
M  V30 7728 C 745.669 4.51732 -0.691891 0
M  V30 7729 C 746.666 4.95594 -1.57105 0
M  V30 7730 C 744.351 4.94542 -0.879407 0
M  V30 7731 C 746.345 5.80963 -2.62223 0
M  V30 7732 C 744.032 5.79695 -1.93382 0
M  V30 7733 C 745.03 6.22806 -2.80359 0
M  V30 7734 O 744.718 7.06265 -3.83986 0
M  V30 7735 H 744.45 0.676 0.000687488 0
M  V30 7736 H 747.004 1.94974 -0.646087 0
M  V30 7737 H 745.234 3.65832 1.25314 0
M  V30 7738 H 746.923 3.94647 0.949124 0
M  V30 7739 H 747.689 4.63197 -1.43783 0
M  V30 7740 H 743.568 4.60513 -0.211907 0
M  V30 7741 H 747.112 6.14533 -3.30143 0
M  V30 7742 H 743.009 6.11506 -2.06715 0
M  V30 7743 H 743.777 7.24494 -3.80855 0
M  V30 7744 N 746.441 0.193421 1.56409 0
M  V30 7745 C 747.857 -0.162447 1.58771 0
M  V30 7746 C 748.057 -1.6116 1.20954 0
M  V30 7747 O 747.113 -2.3469 0.931497 0
M  V30 7748 C 748.426 0.138391 3.00381 0
M  V30 7749 C 749.974 0.0783649 3.12902 0
M  V30 7750 C 750.449 0.352491 4.56642 0
M  V30 7751 N 751.94 0.30105 4.62221 0
M  V30 7752 C 752.675 0.487028 5.71328 0
M  V30 7753 N 752.171 0.733265 6.88909 0
M  V30 7754 N 753.964 0.4214 5.60518 0
M  V30 7755 H 746.115 1.13909 1.79272 0
M  V30 7756 H 748.378 0.454528 0.83193 0
M  V30 7757 H 748.084 1.14312 3.32604 0
M  V30 7758 H 747.958 -0.559804 3.73023 0
M  V30 7759 H 750.345 -0.916963 2.80492 0
M  V30 7760 H 750.426 0.809611 2.4265 0
M  V30 7761 H 750.07 1.34513 4.89764 0
M  V30 7762 H 750 -0.399624 5.25081 0
M  V30 7763 H 752.491 0.117279 3.77718 0
M  V30 7764 H 752.804 0.86403 7.67955 0
M  V30 7765 H 751.149 0.770138 6.9072 0
M  V30 7766 H 754.34 0.229461 4.67537 0
M  V30 7767 H 754.513 0.569758 6.4549 0
M  V30 7768 N 747.919 -1.57396 -0.0801906 0
M  V30 7769 C 749.166 -1.86836 -0.780927 0
M  V30 7770 C 749.494 -0.784012 -1.77999 0
M  V30 7771 O 748.749 0.220881 -1.94449 0
M  V30 7772 C 749.048 -3.22915 -1.53169 0
M  V30 7773 C 748.714 -4.45843 -0.67339 0
M  V30 7774 C 747.376 -4.79213 -0.436829 0
M  V30 7775 C 749.728 -5.21142 -0.0776786 0
M  V30 7776 C 747.056 -5.853 0.405062 0
M  V30 7777 C 749.408 -6.28119 0.751619 0
M  V30 7778 C 748.072 -6.59995 0.998131 0
M  V30 7779 H 747.342 -0.683682 -0.285761 0
M  V30 7780 H 749.989 -1.91454 -0.0419435 0
M  V30 7781 H 748.294 -3.14049 -2.34265 0
M  V30 7782 H 749.991 -3.42926 -2.07853 0
M  V30 7783 H 746.581 -4.19721 -0.867891 0
M  V30 7784 H 750.765 -4.95682 -0.247572 0
M  V30 7785 H 746.021 -6.084 0.60488 0
M  V30 7786 H 750.195 -6.8563 1.22 0
M  V30 7787 H 747.822 -7.42027 1.65227 0
M  V30 7788 N 749.397 0.351382 -1.53633 0
M  V30 7789 C 750.625 1.11275 -1.74429 0
M  V30 7790 C 751.04 1.82602 -0.479798 0
M  V30 7791 O 750.397 1.74074 0.548125 0
M  V30 7792 C 750.448 2.13223 -2.91921 0
M  V30 7793 O 750.169 1.44798 -4.13479 0
M  V30 7794 C 751.67 3.01797 -3.24706 0
M  V30 7795 H 748.89 0.332153 -0.583023 0
M  V30 7796 H 751.434 0.405974 -2.0043 0
M  V30 7797 H 749.589 2.79477 -2.68274 0
M  V30 7798 H 750.003 2.12839 -4.79374 0
M  V30 7799 H 751.477 3.69282 -4.10286 0
M  V30 7800 H 751.954 3.67387 -2.40673 0
M  V30 7801 H 752.56 2.41141 -3.5033 0
M  V30 7802 N 750.875 1.45233 0.611969 0
M  V30 7803 C 752.103 1.52539 1.39784 0
M  V30 7804 C 752.518 0.156533 1.8815 0
M  V30 7805 O 751.875 -0.84112 1.61961 0
M  V30 7806 C 751.926 2.50614 2.60528 0
M  V30 7807 O 751.647 3.8218 2.14173 0
M  V30 7808 C 753.148 2.67574 3.53439 0
M  V30 7809 H 750.368 0.51674 0.428043 0
M  V30 7810 H 752.912 1.90379 0.746727 0
M  V30 7811 H 751.067 2.15858 3.2169 0
M  V30 7812 H 751.481 4.35305 2.92592 0
M  V30 7813 H 752.955 3.40184 4.34717 0
M  V30 7814 H 753.432 1.73458 4.03496 0
M  V30 7815 H 754.038 3.0331 2.98133 0
M  V30 7816 N 752.353 -0.854086 1.3245 0
M  V30 7817 C 753.764 -1.42427 1.20712 0
M  V30 7818 C 754.115 -1.95371 -0.18013 0
M  V30 7819 O 753.24 -1.87587 -1.07889 0
M  V30 7820 C 753.835 -2.58897 2.18536 0
M  V30 7821 C 752.394 -3.11913 2.10683 0
M  V30 7822 C 751.541 -1.84661 2.06871 0
M  V30 7823 H 754.492 -0.661192 1.4427 0
M  V30 7824 H 754.513 -3.36074 1.78422 0
M  V30 7825 H 754.025 -2.20333 3.19492 0
M  V30 7826 H 752.126 -3.55059 1.12977 0
M  V30 7827 H 752.239 -3.73119 3.00532 0
M  V30 7828 H 750.603 -2.04285 1.52118 0
M  V30 7829 H 751.386 -1.48314 3.09609 0
M  V30 7830 N 753.831 -1.1567 -1.07043 0
M  V30 7831 C 755.108 -0.843948 -1.76456 0
M  V30 7832 C 755.488 0.659806 -2.00524 0
M  V30 7833 O 754.836 1.60518 -1.62623 0
M  V30 7834 C 755.046 -1.65822 -3.0709 0
M  V30 7835 C 756.394 -1.8664 -3.8138 0
M  V30 7836 O 757.418 -1.62624 -3.1691 0
M  V30 7837 O 756.277 -2.26884 -4.97178 0
M  V30 7838 H 753.371 -0.310677 -0.766426 0
M  V30 7839 H 755.917 -1.26266 -1.1338 0
M  V30 7840 H 754.689 -2.67902 -2.85209 0
M  V30 7841 H 754.312 -1.23605 -3.77899 0
M  V30 7842 N 755.309 1.25446 -0.953992 0
M  V30 7843 C 756.537 1.97215 -0.625595 0
M  V30 7844 C 756.952 1.70911 0.802168 0
M  V30 7845 O 756.309 0.984782 1.5365 0
M  V30 7846 C 756.36 3.50777 -0.873943 0
M  V30 7847 O 756.081 3.76173 -2.24556 0
M  V30 7848 C 757.582 4.39776 -0.557845 0
M  V30 7849 H 754.802 0.628652 -0.2346 0
M  V30 7850 H 757.346 1.59632 -1.27819 0
M  V30 7851 H 755.501 3.86474 -0.267765 0
M  V30 7852 H 755.915 4.70636 -2.31522 0
M  V30 7853 H 757.389 5.46431 -0.782157 0
M  V30 7854 H 757.866 4.36257 0.507573 0
M  V30 7855 H 758.472 4.09644 -1.14332 0
M  V30 7856 N 756.787 0.722489 1.40064 0
M  V30 7857 C 758.017 0.274439 2.04769 0
M  V30 7858 C 758.425 -1.09125 1.54559 0
M  V30 7859 O 757.768 -1.69834 0.700149 0
M  V30 7860 C 757.83 0.184091 3.59028 0
M  V30 7861 C 757.494 1.48619 4.32159 0
M  V30 7862 C 758.491 2.42947 4.59644 0
M  V30 7863 C 756.176 1.74703 4.7094 0
M  V30 7864 C 758.17 3.616 5.24904 0
M  V30 7865 C 755.857 2.93636 5.3593 0
M  V30 7866 C 756.855 3.86907 5.62843 0
M  V30 7867 O 756.543 5.03753 6.26489 0
M  V30 7868 H 756.275 0.119847 0.665292 0
M  V30 7869 H 758.829 0.983352 1.80331 0
M  V30 7870 H 757.059 -0.580821 3.82313 0
M  V30 7871 H 758.748 -0.230306 4.05246 0
M  V30 7872 H 759.514 2.24062 4.30141 0
M  V30 7873 H 755.393 1.02955 4.49356 0
M  V30 7874 H 758.937 4.34418 5.45827 0
M  V30 7875 H 754.834 3.12428 5.64853 0
M  V30 7876 H 755.602 5.03922 6.44984 0
M  V30 7877 N 758.265 -1.50454 0.469181 0
M  V30 7878 C 759.49 -2.0722 -0.0864892 0
M  V30 7879 C 759.915 -1.33098 -1.32916 0
M  V30 7880 O 759.273 -0.378084 -1.77314 0
M  V30 7881 C 759.321 -3.58845 -0.355384 0
M  V30 7882 O 758.425 -3.86583 -1.43622 0
M  V30 7883 H 757.766 -0.663889 0.0121414 0
M  V30 7884 H 760.296 -1.93674 0.659674 0
M  V30 7885 H 760.306 -4.03617 -0.596447 0
M  V30 7886 H 758.981 -4.12211 0.552698 0
M  V30 7887 H 757.558 -3.5365 -1.18262 0
M  V30 7888 N 759.743 -0.201713 -1.56304 0
M  V30 7889 C 760.968 0.443815 -2.02596 0
M  V30 7890 C 761.393 1.53945 -1.08086 0
M  V30 7891 O 760.751 1.81182 -0.0655056 0
M  V30 7892 C 760.799 0.971066 -3.47279 0
M  V30 7893 O 759.903 2.0836 -3.55893 0
M  V30 7894 H 759.244 0.10294 -0.655972 0
M  V30 7895 H 761.774 -0.314533 -2.02168 0
M  V30 7896 H 761.784 1.28598 -3.87204 0
M  V30 7897 H 760.459 0.169048 -4.15556 0
M  V30 7898 H 759.036 1.77683 -3.27846 0
M  V30 7899 N 761.222 1.57436 0.0718424 0
M  V30 7900 C 762.185 2.02703 1.06977 0
M  V30 7901 C 763.185 0.924062 1.31597 0
M  V30 7902 O 764.375 1.18894 1.27318 0
M  V30 7903 C 761.507 2.40763 2.41342 0
M  V30 7904 H 762.7 2.92098 0.679619 0
M  V30 7905 H 760.253 1.5304 0.317565 0
M  V30 7906 H 760.988 1.54394 2.8519 0
M  V30 7907 H 760.773 3.21249 2.24814 0
M  V30 7908 H 762.263 2.76361 3.13073 0
M  V30 7909 N 762.7 -0.34323 1.53817 0
M  V30 7910 C 763.948 -1.0813 1.70741 0
M  V30 7911 C 764.269 -1.89165 0.473461 0
M  V30 7912 O 763.539 -1.89075 -0.512605 0
M  V30 7913 H 762.119 -0.40219 0.629486 0
M  V30 7914 H 764.781 -0.384426 1.91071 0
M  V30 7915 H 763.877 -1.7585 2.57843 0
M  V30 7916 N 764.178 -1.45556 -0.604258 0
M  V30 7917 C 765.408 -1.53056 -1.38771 0
M  V30 7918 C 765.816 -0.163092 -1.88496 0
M  V30 7919 O 765.159 0.846157 -1.63052 0
M  V30 7920 C 765.221 -2.45656 -2.62476 0
M  V30 7921 C 764.885 -3.92328 -2.34367 0
M  V30 7922 C 765.882 -4.82137 -1.94525 0
M  V30 7923 C 763.567 -4.37275 -2.47177 0
M  V30 7924 C 765.561 -6.14901 -1.67856 0
M  V30 7925 C 763.248 -5.70079 -2.20122 0
M  V30 7926 C 764.246 -6.58711 -1.80524 0
M  V30 7927 O 763.934 -7.89053 -1.53788 0
M  V30 7928 H 763.666 -0.520721 -0.431075 0
M  V30 7929 H 766.22 -1.91464 -0.743693 0
M  V30 7930 H 764.45 -2.02225 -3.29609 0
M  V30 7931 H 766.139 -2.43802 -3.24523 0
M  V30 7932 H 766.905 -4.48675 -1.84162 0
M  V30 7933 H 762.784 -3.68527 -2.76964 0
M  V30 7934 H 766.328 -6.8404 -1.36874 0
M  V30 7935 H 762.225 -6.03095 -2.30102 0
M  V30 7936 H 762.993 -8.01113 -1.67812 0
M  V30 7937 N 765.656 0.84705 -1.32902 0
M  V30 7938 C 766.905 1.59667 -1.23245 0
M  V30 7939 C 767.218 1.94551 0.202349 0
M  V30 7940 O 768.424 2.68218 0.420847 0
M  V30 7941 C 766.88 2.8795 -2.15901 0
M  V30 7942 C 766.488 2.60461 -3.64505 0
M  V30 7943 C 768.232 3.65968 -2.15098 0
M  V30 7944 C 766.139 3.84791 -4.49099 0
M  V30 7945 H 765.069 0.599167 -0.457728 0
M  V30 7946 H 767.72 0.934662 -1.57912 0
M  V30 7947 H 766.102 3.55648 -1.74157 0
M  V30 7948 H 767.276 2.01026 -4.14639 0
M  V30 7949 H 765.591 1.9576 -3.67515 0
M  V30 7950 H 768.188 4.58241 -2.75534 0
M  V30 7951 H 768.531 4.00275 -1.14392 0
M  V30 7952 H 769.064 3.05184 -2.55162 0
M  V30 7953 H 765.803 3.55621 -5.50649 0
M  V30 7954 H 765.323 4.43594 -4.03713 0
M  V30 7955 H 767.002 4.52454 -4.62487 0
M  V30 7956 N 767.134 1.16236 1.06428 0
M  V30 7957 C 768.362 0.967184 1.82902 0
M  V30 7958 C 768.777 -0.484601 1.82475 0
M  V30 7959 O 768.134 -1.33631 1.24294 0
M  V30 7960 C 768.185 1.48534 3.29576 0
M  V30 7961 O 767.906 2.88026 3.3011 0
M  V30 7962 C 769.407 1.33298 4.22784 0
M  V30 7963 H 766.627 0.342923 0.576754 0
M  V30 7964 H 769.171 1.54232 1.34286 0
M  V30 7965 H 767.326 0.952513 3.75508 0
M  V30 7966 H 767.74 3.11721 4.21818 0
M  V30 7967 H 769.214 1.74385 5.23731 0
M  V30 7968 H 769.691 0.278356 4.38317 0
M  V30 7969 H 770.297 1.85535 3.82697 0
M  V30 7970 N 768.612 -1.24939 0.960631 0
M  V30 7971 C 769.852 -1.94565 0.626414 0
M  V30 7972 C 770.216 -1.73505 -0.822184 0
M  V30 7973 O 771.417 -2.37105 -1.26628 0
M  V30 7974 C 769.688 -3.43631 0.982462 0
M  V30 7975 S 771.247 -4.32138 0.761726 0
M  V30 7976 H 768.065 -0.672757 0.230043 0
M  V30 7977 H 770.667 -1.51464 1.23608 0
M  V30 7978 H 769.371 -3.56463 2.03377 0
M  V30 7979 H 768.902 -3.91719 0.363286 0
M  V30 7980 H 770.917 -4.94859 -0.364493 0
M  V30 7981 N 770.09 -0.729906 -1.39679 0
M  V30 7982 C 771.336 -0.284905 -2.01395 0
M  V30 7983 C 771.691 1.11394 -1.56873 0
M  V30 7984 O 770.984 1.74765 -0.785342 0
M  V30 7985 C 771.178 -0.319564 -3.55968 0
M  V30 7986 C 771.007 -1.72024 -4.15497 0
M  V30 7987 C 769.777 -2.33128 -4.48307 0
M  V30 7988 C 771.975 -2.67296 -4.39383 0
M  V30 7989 N 769.957 -3.65403 -4.93309 0
M  V30 7990 C 771.328 -3.84298 -4.86534 0
M  V30 7991 C 773.383 -2.65124 -4.21442 0
M  V30 7992 C 772.086 -4.99455 -5.17627 0
M  V30 7993 C 774.112 -3.7942 -4.53646 0
M  V30 7994 C 773.474 -4.95156 -5.00999 0
M  V30 7995 H 769.573 -0.1504 -0.767401 0
M  V30 7996 H 772.157 -0.954783 -1.69682 0
M  V30 7997 H 770.328 0.319938 -3.8708 0
M  V30 7998 H 772.06 0.143504 -4.04445 0
M  V30 7999 H 768.815 -1.85097 -4.35931 0
M  V30 8000 H 769.239 -4.33298 -5.20175 0
M  V30 8001 H 773.881 -1.76842 -3.8404 0
M  V30 8002 H 771.599 -5.88371 -5.53937 0
M  V30 8003 H 775.185 -3.79031 -4.41392 0
M  V30 8004 H 774.065 -5.82131 -5.25446 0
M  V30 8005 N 771.568 1.50203 -0.477153 0
M  V30 8006 C 772.798 2.0647 0.0731427 0
M  V30 8007 C 773.206 1.3405 1.33518 0
M  V30 8008 O 772.549 0.405164 1.79176 0
M  V30 8009 C 772.611 3.57025 0.421121 0
M  V30 8010 C 772.275 4.50973 -0.739765 0
M  V30 8011 C 773.272 4.939 -1.62353 0
M  V30 8012 C 770.957 4.93581 -0.93181 0
M  V30 8013 C 772.951 5.78149 -2.6837 0
M  V30 8014 C 770.638 5.77612 -1.99519 0
M  V30 8015 C 771.636 6.19798 -2.86949 0
M  V30 8016 O 771.324 7.02152 -3.91456 0
M  V30 8017 H 771.056 0.675969 -0.00648243 0
M  V30 8018 H 773.61 1.94278 -0.66673 0
M  V30 8019 H 771.84 3.67141 1.21426 0
M  V30 8020 H 773.529 3.95632 0.907213 0
M  V30 8021 H 774.295 4.61646 -1.48687 0
M  V30 8022 H 770.174 4.60262 -0.260739 0
M  V30 8023 H 773.718 6.10997 -3.36643 0
M  V30 8024 H 769.615 6.09279 -2.13189 0
M  V30 8025 H 770.383 7.20414 -3.88518 0
M  V30 8026 N 773.046 0.209999 1.56195 0
M  V30 8027 C 773.978 -0.736967 2.17029 0
M  V30 8028 C 774.991 -1.16599 1.13616 0
M  V30 8029 O 776.18 -1.09914 1.40646 0
M  V30 8030 C 773.28 -2.00852 2.72969 0
M  V30 8031 C 772.453 -1.73691 4.01435 0
M  V30 8032 C 771.512 -2.85439 4.42053 0
M  V30 8033 O 770.538 -2.54405 5.09183 0
M  V30 8034 N 771.74 -4.14135 4.06783 0
M  V30 8035 H 774.505 -0.216656 2.98916 0
M  V30 8036 H 772.066 0.0285672 1.61875 0
M  V30 8037 H 774.058 -2.74778 2.97118 0
M  V30 8038 H 772.628 -2.43963 1.95451 0
M  V30 8039 H 771.848 -0.834676 3.85262 0
M  V30 8040 H 773.136 -1.52961 4.85263 0
M  V30 8041 H 772.534 -4.42196 3.52816 0
M  V30 8042 H 771.091 -4.84642 4.35851 0
M  V30 8043 N 774.524 -1.57472 -0.0634922 0
M  V30 8044 C 775.752 -1.91887 -0.773767 0
M  V30 8045 C 776.167 -0.806733 -1.70696 0
M  V30 8046 O 775.524 0.219383 -1.81177 0
M  V30 8047 C 775.575 -3.26092 -1.56034 0
M  V30 8048 O 775.296 -4.33029 -0.66464 0
M  V30 8049 C 776.797 -3.74573 -2.37087 0
M  V30 8050 H 774.017 -0.634074 -0.219525 0
M  V30 8051 H 776.561 -2.04476 -0.0312828 0
M  V30 8052 H 774.716 -3.15004 -2.25502 0
M  V30 8053 H 775.13 -5.10291 -1.21258 0
M  V30 8054 H 776.604 -4.71084 -2.87722 0
M  V30 8055 H 777.081 -3.04003 -3.16984 0
M  V30 8056 H 777.687 -3.88631 -1.72759 0
M  V30 8057 N 776.003 0.335068 -1.53997 0
M  V30 8058 C 776.951 1.43206 -1.83289 0
M  V30 8059 C 777.945 1.54081 -0.703953 0
M  V30 8060 O 779.151 1.56603 -0.887432 0
M  V30 8061 H 775.526 0.477655 -0.580818 0
M  V30 8062 H 777.497 1.15719 -2.75049 0
M  V30 8063 C 776.246 2.79602 -2.06683 0
M  V30 8064 H 775.569 2.72004 -2.93008 0
M  V30 8065 H 777.009 3.55459 -2.31139 0
M  V30 8066 C 775.468 3.25873 -0.854883 0
M  V30 8067 O 775.998 4.01657 -0.0584648 0
M  V30 8068 N 774.204 2.82777 -0.669729 0
M  V30 8069 H 773.751 2.21269 -1.31901 0
M  V30 8070 H 773.709 3.1409 0.13969 0
M  V30 8071 N 777.481 1.45874 0.596531 0
M  V30 8072 C 778.728 1.50467 1.35521 0
M  V30 8073 C 779.056 0.150802 1.93915 0
M  V30 8074 O 778.311 -0.851913 1.76184 0
M  V30 8075 C 778.61 2.54034 2.51399 0
M  V30 8076 C 778.276 3.9844 2.11085 0
M  V30 8077 C 776.938 4.37758 1.99804 0
M  V30 8078 C 779.29 4.89209 1.79788 0
M  V30 8079 C 776.618 5.65727 1.55465 0
M  V30 8080 C 778.97 6.17602 1.36931 0
M  V30 8081 C 777.634 6.5584 1.24218 0
M  V30 8082 H 776.904 0.550597 0.495907 0
M  V30 8083 H 779.551 1.79279 0.673145 0
M  V30 8084 H 777.856 2.18832 3.24992 0
M  V30 8085 H 779.553 2.54822 3.09624 0
M  V30 8086 H 776.143 3.67353 2.20794 0
M  V30 8087 H 780.327 4.59562 1.87395 0
M  V30 8088 H 775.583 5.94139 1.44253 0
M  V30 8089 H 779.757 6.87373 1.11764 0
M  V30 8090 H 777.384 7.54897 0.896353 0
M  V30 8091 N 778.959 -0.83999 1.33349 0
M  V30 8092 C 780.205 -1.59753 1.24927 0
M  V30 8093 C 780.538 -1.93318 -0.184855 0
M  V30 8094 O 779.813 -1.586 -1.12589 0
M  V30 8095 C 780.096 -2.90829 2.12345 0
M  V30 8096 C 779.949 -2.63953 3.6421 0
M  V30 8097 C 781.268 -3.92246 1.99577 0
M  V30 8098 H 778.387 -0.579654 0.45516 0
M  V30 8099 H 781.029 -0.968909 1.63439 0
M  V30 8100 H 779.179 -3.44478 1.79631 0
M  V30 8101 H 780.851 -2.16745 4.07209 0
M  V30 8102 H 779.094 -1.97671 3.86146 0
M  V30 8103 H 779.765 -3.57348 4.20721 0
M  V30 8104 H 782.241 -3.479 2.28265 0
M  V30 8105 H 781.117 -4.81793 2.62996 0
M  V30 8106 H 781.378 -4.3138 0.967673 0
M  V30 8107 N 780.437 -1.16799 -1.0581 0
M  V30 8108 C 781.683 -0.953935 -1.78963 0
M  V30 8109 C 782.016 0.516638 -1.87202 0
M  V30 8110 O 781.291 1.38338 -1.36721 0
M  V30 8111 C 781.574 -1.58808 -3.23191 0
M  V30 8112 C 781.427 -3.13032 -3.23003 0
M  V30 8113 C 782.746 -1.2868 -4.20867 0
M  V30 8114 H 779.865 -0.347972 -0.64968 0
M  V30 8115 H 782.507 -1.44204 -1.23715 0
M  V30 8116 H 780.657 -1.17303 -3.70368 0
M  V30 8117 H 782.329 -3.63553 -2.83949 0
M  V30 8118 H 780.572 -3.46108 -2.61518 0
M  V30 8119 H 781.243 -3.52527 -4.24769 0
M  V30 8120 H 783.719 -1.6461 -3.82155 0
M  V30 8121 H 782.595 -1.75645 -5.20038 0
M  V30 8122 H 782.856 -0.206491 -4.41618 0
M  V30 8123 N 781.915 1.24427 -0.967243 0
M  V30 8124 C 783.326 1.74349 -0.667785 0
M  V30 8125 C 783.677 1.78403 0.816509 0
M  V30 8126 O 782.802 1.41315 1.63887 0
M  V30 8127 C 783.397 3.16628 -1.20548 0
M  V30 8128 C 781.956 3.64059 -0.955934 0
M  V30 8129 C 781.103 2.42715 -1.34106 0
M  V30 8130 H 784.054 1.10136 -1.14262 0
M  V30 8131 H 784.075 3.76183 -0.571547 0
M  V30 8132 H 783.587 3.13646 -2.28578 0
M  V30 8133 H 781.688 3.72441 0.108858 0
M  V30 8134 H 781.801 4.51549 -1.60126 0
M  V30 8135 H 780.165 2.43114 -0.759452 0
M  V30 8136 H 780.948 2.42414 -2.43085 0
M  V30 8137 N 783.393 0.737304 1.3929 0
M  V30 8138 C 784.804 0.355966 1.83275 0
M  V30 8139 C 785.155 -1.11295 1.6158 0
M  V30 8140 O 784.28 -1.85871 1.10819 0
M  V30 8141 C 784.875 0.63931 3.32713 0
M  V30 8142 C 783.434 0.31144 3.75109 0
M  V30 8143 C 782.581 0.900765 2.62262 0
M  V30 8144 H 785.532 0.934763 1.28249 0
M  V30 8145 H 785.553 -0.0881293 3.80398 0
M  V30 8146 H 785.065 1.70847 3.48472 0
M  V30 8147 H 783.166 -0.751791 3.64937 0
M  V30 8148 H 783.279 0.795611 4.72448 0
M  V30 8149 H 781.643 0.327239 2.52589 0
M  V30 8150 H 782.426 1.97463 2.80826 0
M  V30 8151 N 784.871 -1.49948 0.485112 0
M  V30 8152 C 785.819 -2.30449 -0.315609 0
M  V30 8153 C 786.813 -1.38351 -0.977516 0
M  V30 8154 O 788.019 -1.55477 -0.907019 0
M  V30 8155 H 784.394 -0.742262 -0.120629 0
M  V30 8156 H 786.365 -2.95925 0.383552 0
M  V30 8157 C 785.114 -3.19283 -1.37673 0
M  V30 8158 H 784.437 -3.90067 -0.876801 0
M  V30 8159 H 785.877 -3.78579 -1.90929 0
M  V30 8160 C 784.336 -2.37817 -2.38631 0
M  V30 8161 O 784.866 -2.0711 -3.44192 0
M  V30 8162 N 783.072 -2.00135 -2.107 0
M  V30 8163 H 782.619 -2.25307 -1.24878 0
M  V30 8164 H 782.577 -1.45933 -2.7848 0
M  V30 8165 N 786.349 -0.21828 -1.56081 0
M  V30 8166 C 787.577 0.419258 -2.02608 0
M  V30 8167 C 787.992 1.53578 -1.09814 0
M  V30 8168 O 787.349 1.82185 -0.107149 0
M  V30 8169 C 787.4 0.953955 -3.48686 0
M  V30 8170 O 787.121 -0.11805 -4.37941 0
M  V30 8171 C 788.622 1.66506 -4.10841 0
M  V30 8172 H 785.842 0.10296 -0.663054 0
M  V30 8173 H 788.386 -0.333776 -2.01758 0
M  V30 8174 H 786.541 1.65727 -3.50162 0
M  V30 8175 H 786.955 0.283359 -5.23734 0
M  V30 8176 H 788.429 1.99123 -5.14834 0
M  V30 8177 H 788.906 2.57705 -3.55647 0
M  V30 8178 H 789.512 1.00703 -4.13206 0
M  V30 8179 N 787.827 1.57504 0.0551401 0
M  V30 8180 C 789.238 1.76626 0.604979 0
M  V30 8181 C 789.589 0.845978 1.77024 0
M  V30 8182 O 788.714 0.0341936 2.16373 0
M  V30 8183 C 789.309 3.203 1.10425 0
M  V30 8184 C 787.868 3.4071 1.59981 0
M  V30 8185 C 787.015 2.72258 0.526414 0
M  V30 8186 H 789.966 1.57775 -0.171072 0
M  V30 8187 H 789.987 3.25377 1.97256 0
M  V30 8188 H 789.499 3.87255 0.255939 0
M  V30 8189 H 787.6 2.78892 2.47083 0
M  V30 8190 H 787.713 4.49227 1.66528 0
M  V30 8191 H 786.077 2.35283 0.97539 0
M  V30 8192 H 786.86 3.41879 -0.311991 0
M  V30 8193 N 789.305 -0.326896 1.54172 0
M  V30 8194 C 790.253 -1.42232 1.84046 0
M  V30 8195 C 791.247 -1.53705 0.712115 0
M  V30 8196 O 792.453 -1.56131 0.895724 0
M  V30 8197 H 788.828 -0.474568 0.583343 0
M  V30 8198 H 790.799 -1.14259 2.75658 0
M  V30 8199 C 789.548 -2.78502 2.08163 0
M  V30 8200 H 788.871 -2.70447 2.94446 0
M  V30 8201 H 790.311 -3.54228 2.33021 0
M  V30 8202 C 788.77 -3.25415 0.872152 0
M  V30 8203 O 789.3 -4.01621 0.0797648 0
M  V30 8204 N 787.506 -2.82418 0.684716 0
M  V30 8205 H 787.053 -2.20566 1.33072 0
M  V30 8206 H 787.011 -3.14159 -0.123031 0
M  V30 8207 N 790.784 -1.46188 -0.588786 0
M  V30 8208 C 792.012 -1.54743 -1.37339 0
M  V30 8209 C 792.427 -0.186446 -1.87877 0
M  V30 8210 O 791.784 0.815247 -1.63279 0
M  V30 8211 C 791.835 -2.54727 -2.56508 0
M  V30 8212 O 791.556 -3.85539 -2.08066 0
M  V30 8213 C 793.057 -2.73163 -3.49137 0
M  V30 8214 H 790.277 -0.523484 -0.419768 0
M  V30 8215 H 792.821 -1.91543 -0.716345 0
M  V30 8216 H 790.976 -2.20948 -3.18215 0
M  V30 8217 H 791.39 -4.39905 -2.85629 0
M  V30 8218 H 792.864 -3.47057 -4.2925 0
M  V30 8219 H 793.341 -1.79856 -4.00685 0
M  V30 8220 H 793.947 -3.08014 -2.9327 0
M  V30 8221 N 792.262 0.832906 -1.33792 0
M  V30 8222 C 793.225 1.92471 -1.24449 0
M  V30 8223 C 794.225 1.59981 -0.162085 0
M  V30 8224 O 795.415 1.69208 -0.414029 0
M  V30 8225 C 792.547 3.28278 -0.919044 0
M  V30 8226 H 793.74 2.0218 -2.21502 0
M  V30 8227 H 791.293 1.0257 -1.17936 0
M  V30 8228 H 792.028 3.24263 0.048738 0
M  V30 8229 H 791.813 3.53241 -1.70187 0
M  V30 8230 H 793.303 4.08253 -0.878576 0
M  V30 8231 N 793.74 1.17359 1.05189 0
M  V30 8232 C 794.65 0.904984 2.16442 0
M  V30 8233 C 795.666 -0.12686 1.73537 0
M  V30 8234 O 796.842 0.0524127 2.01332 0
M  V30 8235 C 793.907 0.422019 3.44122 0
M  V30 8236 C 792.968 1.52045 4.01473 0
M  V30 8237 C 792.201 1.06044 5.23059 0
M  V30 8238 O 792.424 -0.0854023 5.70336 0
M  V30 8239 O 791.358 1.85349 5.72651 0
M  V30 8240 H 795.184 1.8356 2.41949 0
M  V30 8241 H 792.769 0.95447 1.14936 0
M  V30 8242 H 794.651 0.160208 4.21095 0
M  V30 8243 H 793.326 -0.480444 3.20115 0
M  V30 8244 H 792.233 1.83615 3.25939 0
M  V30 8245 H 793.566 2.39863 4.29798 0
M  V30 8246 N 795.218 -1.23913 0.973828 0
M  V30 8247 C 796.151 -2.23647 0.45355 0
M  V30 8248 C 797.129 -1.55485 -0.475724 0
M  V30 8249 O 798.313 -1.84083 -0.405689 0
M  V30 8250 C 795.44 -3.36942 -0.344594 0
M  V30 8251 C 794.486 -4.23221 0.527859 0
M  V30 8252 S 795.319 -4.97877 1.97177 0
M  V30 8253 C 796.475 -6.14627 1.18258 0
M  V30 8254 H 796.708 -2.67433 1.29873 0
M  V30 8255 H 794.241 -1.33289 0.779322 0
M  V30 8256 H 796.199 -4.02647 -0.799103 0
M  V30 8257 H 794.86 -2.91703 -1.16482 0
M  V30 8258 H 794.053 -5.03928 -0.0852555 0
M  V30 8259 H 793.655 -3.6255 0.918344 0
M  V30 8260 H 795.947 -6.76066 0.440629 0
M  V30 8261 H 796.89 -6.80311 1.96425 0
M  V30 8262 H 797.298 -5.6009 0.704256 0
M  V30 8263 N 796.696 -0.74468 -1.38897 0
M  V30 8264 C 797.626 -0.126355 -2.33158 0
M  V30 8265 C 798.607 0.713517 -1.54412 0
M  V30 8266 O 799.792 0.656523 -1.82766 0
M  V30 8267 C 796.922 0.774375 -3.38557 0
M  V30 8268 C 795.876 0.0379214 -4.27983 0
M  V30 8269 C 795.202 1.05631 -5.24162 0
M  V30 8270 C 796.502 -1.12523 -5.10035 0
M  V30 8271 H 798.196 -0.913744 -2.85116 0
M  V30 8272 H 795.742 -0.440847 -1.37086 0
M  V30 8273 H 797.695 1.21655 -4.03458 0
M  V30 8274 H 796.419 1.59399 -2.85061 0
M  V30 8275 H 795.078 -0.384733 -3.64576 0
M  V30 8276 H 794.726 1.86975 -4.66958 0
M  V30 8277 H 794.426 0.568261 -5.84846 0
M  V30 8278 H 795.95 1.49799 -5.9194 0
M  V30 8279 H 797.364 -0.761037 -5.68226 0
M  V30 8280 H 795.761 -1.54355 -5.79909 0
M  V30 8281 H 796.831 -1.94237 -4.44297 0
M  V30 8282 N 798.174 1.49689 -0.493057 0
M  V30 8283 C 799.414 2.04332 0.0527374 0
M  V30 8284 C 799.778 1.36522 1.35003 0
M  V30 8285 O 800.979 1.81842 1.97957 0
M  V30 8286 C 799.25 3.56782 0.210044 0
M  V30 8287 S 800.809 4.32998 0.711232 0
M  V30 8288 H 797.627 0.710978 0.00554853 0
M  V30 8289 H 800.229 1.83835 -0.665213 0
M  V30 8290 H 798.933 4.03681 -0.739566 0
M  V30 8291 H 798.464 3.81671 0.953468 0
M  V30 8292 H 800.479 4.54916 1.98156 0
M  V30 8293 N 799.652 0.226554 1.55963 0
M  V30 8294 C 800.899 -0.403789 1.98433 0
M  V30 8295 C 801.227 -1.59416 1.1143 0
M  V30 8296 O 800.482 -1.95042 0.160389 0
M  V30 8297 C 800.781 -0.87642 3.46488 0
M  V30 8298 C 800.447 0.203973 4.50438 0
M  V30 8299 C 799.109 0.500754 4.78587 0
M  V30 8300 C 801.461 0.934396 5.12756 0
M  V30 8301 C 798.789 1.53239 5.66334 0
M  V30 8302 C 801.141 1.9554 6.0162 0
M  V30 8303 C 799.805 2.25905 6.28111 0
M  V30 8304 H 799.075 -0.147757 0.726119 0
M  V30 8305 H 801.722 0.330121 1.88633 0
M  V30 8306 H 800.027 -1.68918 3.53517 0
M  V30 8307 H 801.724 -1.37407 3.76723 0
M  V30 8308 H 798.314 -0.0374917 4.28584 0
M  V30 8309 H 802.498 0.718355 4.91074 0
M  V30 8310 H 797.754 1.77321 5.85122 0
M  V30 8311 H 801.928 2.52642 6.48957 0
M  V30 8312 H 799.555 3.05985 6.959 0
M  V30 8313 N 801.13 -1.57531 -0.0467866 0
M  V30 8314 C 802.376 -1.8873 -0.742218 0
M  V30 8315 C 802.709 -0.822084 -1.75941 0
M  V30 8316 O 801.984 0.164922 -1.938 0
M  V30 8317 C 802.267 -3.30586 -1.42776 0
M  V30 8318 C 802.12 -4.47785 -0.425285 0
M  V30 8319 C 803.439 -3.71068 -2.36636 0
M  V30 8320 H 800.558 -0.686406 -0.268359 0
M  V30 8321 H 803.2 -1.89999 -0.00511341 0
M  V30 8322 H 801.35 -3.29634 -2.05605 0
M  V30 8323 H 803.022 -4.60867 0.199721 0
M  V30 8324 H 801.265 -4.33037 0.25713 0
M  V30 8325 H 801.936 -5.43884 -0.943086 0
M  V30 8326 H 804.412 -3.73273 -1.83866 0
M  V30 8327 H 803.288 -4.71165 -2.81593 0
M  V30 8328 H 803.549 -3.02355 -3.22542 0
M  V30 8329 N 802.608 0.318715 -1.54344 0
M  V30 8330 C 803.833 1.07987 -1.77069 0
M  V30 8331 C 804.258 1.80766 -0.520117 0
M  V30 8332 O 803.616 1.73424 0.528566 0
M  V30 8333 C 803.664 2.04987 -2.96669 0
M  V30 8334 O 802.768 3.12974 -2.68554 0
M  V30 8335 H 802.109 0.311109 -0.586606 0
M  V30 8336 H 804.639 0.361533 -2.0138 0
M  V30 8337 H 804.649 2.47771 -3.2415 0
M  V30 8338 H 803.324 1.51417 -3.87357 0
M  V30 8339 H 801.901 2.74831 -2.52037 0
M  V30 8340 N 804.086 1.46499 0.581025 0
M  V30 8341 C 805.334 1.51596 1.33653 0
M  V30 8342 C 805.655 0.169859 1.94259 0
M  V30 8343 O 804.925 -0.803776 1.78651 0
M  V30 8344 H 803.505 0.558346 0.496244 0
M  V30 8345 H 806.167 1.8264 0.680338 0
M  V30 8346 H 805.263 2.26956 2.14237 0
M  V30 8347 N 805.565 -0.825799 1.34232 0
M  V30 8348 C 806.805 -1.59541 1.27773 0
M  V30 8349 C 807.169 -1.91405 -0.150998 0
M  V30 8350 O 808.37 -2.66644 -0.339728 0
M  V30 8351 C 806.641 -2.86183 2.14089 0
M  V30 8352 S 808.2 -3.76751 2.24953 0
M  V30 8353 H 805.018 -0.546871 0.454371 0
M  V30 8354 H 807.62 -0.975677 1.69413 0
M  V30 8355 H 806.324 -2.60767 3.16905 0
M  V30 8356 H 805.855 -3.53155 1.73335 0
M  V30 8357 H 807.87 -4.75442 1.4202 0
M  V30 8358 N 807.043 -1.17915 -1.04565 0
M  V30 8359 C 807.99 -0.901605 -2.12461 0
M  V30 8360 C 808.96 0.157011 -1.65356 0
M  V30 8361 O 810.145 0.0184494 -1.90791 0
M  V30 8362 C 807.285 -0.42796 -3.42436 0
M  V30 8363 C 806.398 -1.55142 -4.03181 0
M  V30 8364 C 805.533 -1.03101 -5.21098 0
M  V30 8365 C 804.572 -2.1295 -5.73863 0
M  V30 8366 N 803.709 -1.62339 -6.83074 0
M  V30 8367 H 808.549 -1.82551 -2.3554 0
M  V30 8368 H 806.086 -0.910389 -1.15544 0
M  V30 8369 H 808.044 -0.134859 -4.16982 0
M  V30 8370 H 806.674 0.458977 -3.1952 0
M  V30 8371 H 805.726 -1.96011 -3.26012 0
M  V30 8372 H 807.038 -2.37968 -4.38375 0
M  V30 8373 H 806.192 -0.692132 -6.02739 0
M  V30 8374 H 804.931 -0.17227 -4.87396 0
M  V30 8375 H 803.936 -2.47687 -4.90847 0
M  V30 8376 H 805.161 -2.9925 -6.09611 0
M  V30 8377 H 803.107 -0.787464 -6.51256 0
M  V30 8378 H 803.024 -2.38767 -7.17305 0
M  V30 8379 H 804.292 -1.31363 -7.68351 0
M  V30 8380 N 808.521 1.23394 -0.980386 0
M  V30 8381 C 809.798 1.87242 -0.565667 0
M  V30 8382 C 810.178 1.88151 0.957197 0
M  V30 8383 O 809.526 1.36309 1.8339 0
M  V30 8384 C 809.736 3.28743 -1.17172 0
M  V30 8385 C 811.084 4.05335 -1.26446 0
M  V30 8386 O 812.108 3.37962 -1.12517 0
M  V30 8387 O 810.967 5.25908 -1.48604 0
M  V30 8388 H 808.061 0.80477 -0.190459 0
M  V30 8389 H 810.607 1.3127 -1.07547 0
M  V30 8390 H 809.379 3.22647 -2.21392 0
M  V30 8391 H 809.002 3.92305 -0.646739 0
M  V30 8392 N 809.999 0.752036 1.385 0
M  V30 8393 C 811.246 0.307503 2.00152 0
M  V30 8394 C 811.574 -1.11033 1.59693 0
M  V30 8395 O 810.829 -1.77455 0.825125 0
M  V30 8396 C 811.128 0.376155 3.55415 0
M  V30 8397 C 810.794 1.74942 4.15579 0
M  V30 8398 C 809.456 2.12525 4.31725 0
M  V30 8399 C 811.808 2.65031 4.48785 0
M  V30 8400 C 809.136 3.39671 4.78373 0
M  V30 8401 C 811.488 3.91567 4.96848 0
M  V30 8402 C 810.152 4.2922 5.11201 0
M  V30 8403 H 809.422 0.112523 0.732407 0
M  V30 8404 H 812.069 0.962213 1.65571 0
M  V30 8405 H 810.374 -0.362121 3.90123 0
M  V30 8406 H 812.071 0.0138065 4.00998 0
M  V30 8407 H 808.661 1.44726 4.03426 0
M  V30 8408 H 812.845 2.3726 4.35914 0
M  V30 8409 H 808.101 3.68765 4.8767 0
M  V30 8410 H 812.275 4.61517 5.21512 0
M  V30 8411 H 809.902 5.27805 5.47107 0
M  V30 8412 N 811.477 -1.49425 0.500989 0
M  V30 8413 C 812.717 -2.04357 -0.0419004 0
M  V30 8414 C 813.081 -1.37236 -1.34277 0
M  V30 8415 O 814.282 -1.82889 -1.9699 0
M  V30 8416 C 812.553 -3.56889 -0.19112 0
M  V30 8417 S 814.112 -4.33369 -0.688259 0
M  V30 8418 H 810.93 -0.710998 -0.00177796 0
M  V30 8419 H 813.532 -1.83479 0.674953 0
M  V30 8420 H 812.236 -4.03283 0.760964 0
M  V30 8421 H 811.767 -3.82171 -0.933214 0
M  V30 8422 H 813.782 -4.55961 -1.9574 0
M  V30 8423 N 812.955 -0.234822 -1.55841 0
M  V30 8424 C 813.885 0.664217 -2.23854 0
M  V30 8425 C 814.866 1.19076 -1.2147 0
M  V30 8426 O 816.051 1.23232 -1.50091 0
M  V30 8427 C 813.181 1.86666 -2.9287 0
M  V30 8428 C 812.135 1.47341 -4.01839 0
M  V30 8429 C 811.461 2.75571 -4.58219 0
M  V30 8430 C 812.761 0.653479 -5.18196 0
M  V30 8431 H 814.455 0.0971213 -2.99242 0
M  V30 8432 H 812.001 0.0452724 -1.43929 0
M  V30 8433 H 813.954 2.50116 -3.39146 0
M  V30 8434 H 812.678 2.45894 -2.1495 0
M  V30 8435 H 811.337 0.862314 -3.56314 0
M  V30 8436 H 810.985 3.32971 -3.77014 0
M  V30 8437 H 810.685 2.49987 -5.31771 0
M  V30 8438 H 812.209 3.39939 -5.07221 0
M  V30 8439 H 813.623 1.19198 -5.60771 0
M  V30 8440 H 812.02 0.494188 -5.98062 0
M  V30 8441 H 813.09 -0.337004 -4.83728 0
M  V30 8442 N 814.433 1.57553 0.0384317 0
M  V30 8443 C 815.849 1.54663 0.39391 0
M  V30 8444 C 816.049 0.959685 1.77179 0
M  V30 8445 O 815.105 0.576647 2.45827 0
M  V30 8446 C 816.418 2.99156 0.304352 0
M  V30 8447 C 817.966 3.10659 0.382119 0
M  V30 8448 C 818.441 4.56866 0.322111 0
M  V30 8449 N 819.932 4.61629 0.38119 0
M  V30 8450 C 820.667 5.72284 0.357501 0
M  V30 8451 N 820.163 6.92207 0.286654 0
M  V30 8452 N 821.956 5.60628 0.406538 0
M  V30 8453 H 814.107 1.9406 -0.86339 0
M  V30 8454 H 816.37 0.889673 -0.327392 0
M  V30 8455 H 816.076 3.45788 -0.642141 0
M  V30 8456 H 815.95 3.60753 1.10168 0
M  V30 8457 H 818.337 2.6398 1.31904 0
M  V30 8458 H 818.418 2.5191 -0.444391 0
M  V30 8459 H 818.062 5.0421 -0.611104 0
M  V30 8460 H 817.992 5.13515 1.1666 0
M  V30 8461 H 820.483 3.75343 0.438838 0
M  V30 8462 H 820.796 7.72316 0.273421 0
M  V30 8463 H 819.141 6.9454 0.252841 0
M  V30 8464 H 822.332 4.65836 0.459812 0
M  V30 8465 H 822.505 6.46858 0.384608 0
M  V30 8466 N 815.911 -0.310526 1.54511 0
M  V30 8467 C 816.844 -1.40693 1.79668 0
M  V30 8468 C 817.822 -1.49159 0.64734 0
M  V30 8469 O 819.006 -1.66367 0.886239 0
M  V30 8470 C 816.133 -2.78685 1.92491 0
M  V30 8471 C 815.179 -2.87688 3.14861 0
M  V30 8472 S 816.012 -2.50759 4.7316 0
M  V30 8473 C 817.168 -3.90797 4.88906 0
M  V30 8474 H 817.401 -1.19142 2.72383 0
M  V30 8475 H 814.934 -0.508103 1.458 0
M  V30 8476 H 816.892 -3.58168 2.00563 0
M  V30 8477 H 815.553 -2.9751 1.00731 0
M  V30 8478 H 814.746 -3.8888 3.20607 0
M  V30 8479 H 814.348 -2.16189 3.05186 0
M  V30 8480 H 816.64 -4.85693 4.72344 0
M  V30 8481 H 817.583 -3.90027 5.91003 0
M  V30 8482 H 817.991 -3.80357 4.1712 0
M  V30 8483 N 817.389 -1.46805 -0.573248 0
M  V30 8484 C 818.352 -1.57655 -1.66366 0
M  V30 8485 C 819.352 -0.452905 -1.5429 0
M  V30 8486 O 820.542 -0.717502 -1.58737 0
M  V30 8487 C 817.674 -1.50584 -3.05839 0
M  V30 8488 H 818.867 -2.54842 -1.581 0
M  V30 8489 H 816.42 -1.34756 -0.791868 0
M  V30 8490 H 817.155 -0.547127 -3.19651 0
M  V30 8491 H 816.94 -2.32118 -3.16012 0
M  V30 8492 H 818.43 -1.61282 -3.85199 0
M  V30 8493 N 818.867 0.818669 -1.34668 0
M  V30 8494 C 820.283 1.11243 -1.14443 0
M  V30 8495 C 820.483 2.01435 0.0512212 0
M  V30 8496 O 819.539 2.41854 0.725471 0
M  V30 8497 C 820.852 1.75504 -2.4417 0
M  V30 8498 C 822.4 1.8798 -2.50265 0
M  V30 8499 C 822.875 2.55657 -3.80004 0
M  V30 8500 N 824.366 2.63153 -3.81189 0
M  V30 8501 C 825.101 3.16258 -4.78298 0
M  V30 8502 N 824.597 3.69893 -5.85791 0
M  V30 8503 N 826.39 3.14698 -4.65748 0
M  V30 8504 H 818.541 0.218848 -2.1127 0
M  V30 8505 H 820.804 0.159655 -0.934459 0
M  V30 8506 H 820.51 1.16697 -3.31775 0
M  V30 8507 H 820.384 2.75329 -2.57825 0
M  V30 8508 H 822.771 2.45934 -1.63096 0
M  V30 8509 H 822.852 0.870447 -2.40535 0
M  V30 8510 H 822.496 1.98356 -4.67565 0
M  V30 8511 H 822.426 3.57105 -3.87019 0
M  V30 8512 H 824.917 2.2514 -3.03513 0
M  V30 8513 H 825.23 4.08678 -6.55898 0
M  V30 8514 H 823.575 3.68125 -5.89499 0
M  V30 8515 H 826.766 2.72066 -3.80917 0
M  V30 8516 H 826.939 3.5578 -5.41594 0
M  V30 8517 N 820.346 1.18468 1.03938 0
M  V30 8518 C 821.623 0.890435 1.74157 0
M  V30 8519 C 822.003 -0.606409 2.02203 0
M  V30 8520 O 821.351 -1.5615 1.66822 0
M  V30 8521 C 821.561 1.73906 3.02585 0
M  V30 8522 C 822.909 1.96686 3.76297 0
M  V30 8523 O 823.933 1.70969 3.12487 0
M  V30 8524 O 822.792 2.39986 4.90988 0
M  V30 8525 H 819.886 0.330889 0.757919 0
M  V30 8526 H 822.432 1.29228 1.09992 0
M  V30 8527 H 821.204 2.75369 2.78006 0
M  V30 8528 H 820.827 1.33581 3.74489 0
M  V30 8529 N 821.824 -1.22873 0.986916 0
M  V30 8530 C 823.052 -1.95487 0.677663 0
M  V30 8531 C 823.467 -1.72978 -0.756572 0
M  V30 8532 O 822.824 -1.02517 -1.50985 0
M  V30 8533 C 822.875 -3.48337 0.966638 0
M  V30 8534 O 822.596 -3.70087 2.34451 0
M  V30 8535 C 824.097 -4.38142 0.674248 0
M  V30 8536 H 821.317 -0.622211 0.251185 0
M  V30 8537 H 823.861 -1.56187 1.32007 0
M  V30 8538 H 822.016 -3.85628 0.370137 0
M  V30 8539 H 822.43 -4.64332 2.43918 0
M  V30 8540 H 823.904 -5.44165 0.926759 0
M  V30 8541 H 824.381 -4.3745 -0.391728 0
M  V30 8542 H 824.987 -4.06469 1.25152 0
M  V30 8543 N 823.302 -0.75937 -1.38099 0
M  V30 8544 C 824.579 -0.243371 -1.9408 0
M  V30 8545 C 824.959 1.25942 -1.69416 0
M  V30 8546 O 824.307 2.03667 -1.03595 0
M  V30 8547 C 824.517 -0.603328 -3.43745 0
M  V30 8548 C 825.865 -0.566195 -4.20808 0
M  V30 8549 O 826.889 -0.541969 -3.52053 0
M  V30 8550 O 825.748 -0.582261 -5.43389 0
M  V30 8551 H 822.842 -0.0526825 -0.82532 0
M  V30 8552 H 825.388 -0.839884 -1.47459 0
M  V30 8553 H 824.16 -1.64098 -3.55229 0
M  V30 8554 H 823.783 0.0208887 -3.97595 0
M  V30 8555 N 824.78 1.49157 -0.508906 0
M  V30 8556 C 825.71 2.32109 0.254469 0
M  V30 8557 C 826.691 1.40754 0.955111 0
M  V30 8558 O 827.876 1.69658 0.944983 0
M  V30 8559 C 825.006 3.21458 1.3146 0
M  V30 8560 C 823.96 4.2167 0.733368 0
M  V30 8561 C 823.286 5.00009 1.8946 0
M  V30 8562 C 824.586 5.21544 -0.280875 0
M  V30 8563 H 826.28 2.9618 -0.43795 0
M  V30 8564 H 823.826 1.4243 -0.212062 0
M  V30 8565 H 825.779 3.78305 1.85643 0
M  V30 8566 H 824.503 2.55346 2.03632 0
M  V30 8567 H 823.162 3.65979 0.213231 0
M  V30 8568 H 822.81 4.30338 2.60419 0
M  V30 8569 H 822.51 5.67821 1.51173 0
M  V30 8570 H 824.034 5.59702 2.44061 0
M  V30 8571 H 825.448 5.73039 0.173095 0
M  V30 8572 H 823.845 5.97291 -0.580006 0
M  V30 8573 H 824.915 4.69969 -1.19404 0
M  V30 8574 N 826.258 0.243083 1.55714 0
M  V30 8575 C 827.208 -0.671915 2.17875 0
M  V30 8576 C 828.192 -1.14199 1.13347 0
M  V30 8577 O 829.384 -1.09239 1.39269 0
M  V30 8578 C 826.513 -1.87027 2.87881 0
M  V30 8579 C 825.599 -1.41888 3.99661 0
M  V30 8580 N 825.99 -0.681465 5.01188 0
M  V30 8581 C 824.288 -1.70447 4.12145 0
M  V30 8582 C 824.989 -0.448285 5.7997 0
M  V30 8583 N 823.965 -1.01137 5.34109 0
M  V30 8584 H 827.767 -0.100321 2.93729 0
M  V30 8585 H 825.281 0.0452371 1.62337 0
M  V30 8586 H 827.278 -2.53674 3.3084 0
M  V30 8587 H 825.938 -2.44613 2.13529 0
M  V30 8588 H 826.949 -0.331959 5.16835 0
M  V30 8589 H 823.626 -2.29198 3.48962 0
M  V30 8590 H 825.016 0.140141 6.71754 0
M  V30 8591 N 827.736 -1.57571 -0.0300757 0
M  V30 8592 C 828.683 -2.06492 -1.03101 0
M  V30 8593 C 829.653 -0.953862 -1.3598 0
M  V30 8594 O 830.838 -1.22436 -1.46335 0
M  V30 8595 C 827.978 -2.54826 -2.32718 0
M  V30 8596 C 827.091 -3.79718 -2.06006 0
M  V30 8597 C 826.226 -4.16668 -3.29487 0
M  V30 8598 C 825.265 -5.3448 -2.98324 0
M  V30 8599 N 824.402 -5.66867 -4.14254 0
M  V30 8600 H 829.242 -2.91755 -0.606877 0
M  V30 8601 H 826.779 -1.44252 -0.288038 0
M  V30 8602 H 828.737 -2.80916 -3.08451 0
M  V30 8603 H 827.367 -1.72481 -2.72856 0
M  V30 8604 H 826.419 -3.60718 -1.20774 0
M  V30 8605 H 827.731 -4.65569 -1.79017 0
M  V30 8606 H 826.885 -4.43881 -4.13588 0
M  V30 8607 H 825.624 -3.29466 -3.59588 0
M  V30 8608 H 824.629 -5.07021 -2.12625 0
M  V30 8609 H 825.854 -6.23334 -2.69502 0
M  V30 8610 H 823.8 -4.82625 -4.44308 0
M  V30 8611 H 823.717 -6.47226 -3.90685 0
M  V30 8612 H 824.985 -5.98656 -4.99231 0
M  V30 8613 N 829.214 0.302327 -1.54673 0
M  V30 8614 C 830.146 1.39443 -1.81902 0
M  V30 8615 C 831.159 1.46891 -0.701914 0
M  V30 8616 O 832.348 1.49233 -0.979369 0
M  V30 8617 C 829.448 2.77824 -1.9408 0
M  V30 8618 C 828.621 2.93324 -3.24468 0
M  V30 8619 C 827.68 4.12196 -3.27079 0
M  V30 8620 O 826.706 4.04344 -4.00617 0
M  V30 8621 N 827.908 5.22768 -2.52376 0
M  V30 8622 H 830.673 1.1644 -2.76155 0
M  V30 8623 H 828.234 0.492392 -1.54231 0
M  V30 8624 H 830.226 3.5559 -1.9323 0
M  V30 8625 H 828.796 2.9378 -1.06828 0
M  V30 8626 H 828.016 2.02682 -3.38103 0
M  V30 8627 H 829.304 3.0059 -4.10516 0
M  V30 8628 H 828.702 5.32027 -1.92259 0
M  V30 8629 H 827.259 5.98874 -2.57281 0
M  V30 8630 N 830.692 1.47107 0.565454 0
M  V30 8631 C 831.92 1.56909 1.3486 0
M  V30 8632 C 832.335 0.216312 1.87557 0
M  V30 8633 O 831.692 -0.789168 1.64555 0
M  V30 8634 C 831.743 2.58776 2.52423 0
M  V30 8635 O 831.464 3.888 2.01906 0
M  V30 8636 C 832.965 2.78683 3.44747 0
M  V30 8637 H 830.185 0.530096 0.411387 0
M  V30 8638 H 832.729 1.92658 0.685782 0
M  V30 8639 H 830.884 2.25983 3.1466 0
M  V30 8640 H 831.298 4.44393 2.78595 0
M  V30 8641 H 832.772 3.53842 4.23674 0
M  V30 8642 H 833.249 1.86208 3.97773 0
M  V30 8643 H 833.855 3.12641 2.88333 0
M  V30 8644 N 832.17 -0.811516 1.35101 0
M  V30 8645 C 833.418 -1.56525 1.27845 0
M  V30 8646 C 833.739 -1.94435 -0.14829 0
M  V30 8647 O 833.009 -1.63203 -1.08359 0
M  V30 8648 H 831.589 -0.580433 0.47022 0
M  V30 8649 H 834.251 -0.968277 1.69146 0
M  V30 8650 H 833.347 -2.48291 1.89097 0
M  V30 8651 N 833.648 -1.19017 -1.03309 0
M  V30 8652 C 835.059 -0.993206 -1.5809 0
M  V30 8653 C 835.41 0.45505 -1.9085 0
M  V30 8654 O 834.535 1.33372 -1.70414 0
M  V30 8655 C 835.13 -1.79661 -2.87241 0
M  V30 8656 C 833.689 -1.64377 -3.38611 0
M  V30 8657 C 832.836 -1.78628 -2.12102 0
M  V30 8658 H 835.787 -1.3345 -0.858879 0
M  V30 8659 H 835.808 -1.29019 -3.57958 0
M  V30 8660 H 835.32 -2.85061 -2.63366 0
M  V30 8661 H 833.421 -0.615447 -3.67482 0
M  V30 8662 H 833.534 -2.44651 -4.11926 0
M  V30 8663 H 831.898 -1.21648 -2.23772 0
M  V30 8664 H 832.681 -2.8548 -1.90673 0
M  V30 8665 N 835.127 1.22348 -0.993418 0
M  V30 8666 C 836.376 1.90422 -0.665019 0
M  V30 8667 C 836.689 1.78199 0.806512 0
M  V30 8668 O 837.895 2.41193 1.24652 0
M  V30 8669 C 836.351 3.41403 -1.13893 0
M  V30 8670 C 835.959 3.62262 -2.63572 0
M  V30 8671 C 837.703 4.15175 -0.884884 0
M  V30 8672 C 835.61 5.06947 -3.04564 0
M  V30 8673 H 834.54 0.713073 -0.245037 0
M  V30 8674 H 837.191 1.3856 -1.20305 0
M  V30 8675 H 835.573 3.9245 -0.529027 0
M  V30 8676 H 836.747 3.21705 -3.29913 0
M  V30 8677 H 835.062 3.01824 -2.86865 0
M  V30 8678 H 837.659 5.21813 -1.16684 0
M  V30 8679 H 838.002 4.15915 0.178982 0
M  V30 8680 H 838.535 3.70157 -1.45701 0
M  V30 8681 H 835.274 5.11346 -4.10128 0
M  V30 8682 H 834.794 5.48404 -2.42927 0
M  V30 8683 H 836.473 5.75374 -2.95894 0
M  V30 8684 N 836.605 0.766683 1.37694 0
M  V30 8685 C 837.833 0.339939 2.04088 0
M  V30 8686 C 838.248 -1.03617 1.57826 0
M  V30 8687 O 837.605 -1.6605 0.757214 0
M  V30 8688 C 837.656 0.368269 3.59619 0
M  V30 8689 O 837.377 1.69009 4.04188 0
M  V30 8690 C 838.878 -0.0707053 4.43244 0
M  V30 8691 H 836.098 0.143189 0.655544 0
M  V30 8692 H 838.642 1.03919 1.76128 0
M  V30 8693 H 836.797 -0.282359 3.8637 0
M  V30 8694 H 837.211 1.62523 4.98685 0
M  V30 8695 H 838.685 0.000273538 5.52 0
M  V30 8696 H 839.162 -1.1204 4.24669 0
M  V30 8697 H 839.768 0.551543 4.21709 0
M  V30 8698 N 838.083 -1.48885 0.516809 0
M  V30 8699 C 839.015 -2.27357 -0.290061 0
M  V30 8700 C 840.028 -1.34558 -0.916406 0
M  V30 8701 O 841.217 -1.59715 -0.797073 0
M  V30 8702 C 838.317 -3.07496 -1.42476 0
M  V30 8703 C 837.49 -4.27982 -0.902793 0
M  V30 8704 C 836.549 -4.90038 -1.91701 0
M  V30 8705 O 835.575 -5.49643 -1.47922 0
M  V30 8706 N 836.777 -4.811 -3.24843 0
M  V30 8707 H 839.542 -2.97244 0.382884 0
M  V30 8708 H 837.103 -1.58064 0.35032 0
M  V30 8709 H 839.095 -3.45882 -2.10113 0
M  V30 8710 H 837.665 -2.40115 -2.00159 0
M  V30 8711 H 836.885 -3.94167 -0.0508272 0
M  V30 8712 H 838.173 -5.06003 -0.532723 0
M  V30 8713 H 837.571 -4.33801 -3.63088 0
M  V30 8714 H 836.128 -5.23625 -3.8815 0
M  V30 8715 N 839.561 -0.251338 -1.55583 0
M  V30 8716 C 840.509 0.662534 -2.22965 0
M  V30 8717 C 841.503 1.17662 -1.21869 0
M  V30 8718 O 842.709 1.133 -1.39868 0
M  V30 8719 H 839.084 0.232151 -0.715269 0
M  V30 8720 H 841.055 0.0711252 -2.98315 0
M  V30 8721 C 839.804 1.84646 -2.94621 0
M  V30 8722 H 839.127 1.46003 -3.72187 0
M  V30 8723 H 840.567 2.46303 -3.45124 0
M  V30 8724 C 839.026 2.72034 -1.98744 0
M  V30 8725 O 839.556 3.71695 -1.52335 0
M  V30 8726 N 837.762 2.38695 -1.6575 0
M  V30 8727 H 837.309 1.57702 -2.03685 0
M  V30 8728 H 837.267 2.9744 -1.01867 0
M  V30 8729 N 841.039 1.57585 0.0217189 0
M  V30 8730 C 842.45 1.7787 0.567377 0
M  V30 8731 C 842.801 0.883337 1.7519 0
M  V30 8732 O 841.926 0.0800819 2.16252 0
M  V30 8733 C 842.521 3.2257 1.03606 0
M  V30 8734 C 841.08 3.44026 1.52718 0
M  V30 8735 C 840.227 2.73313 0.468545 0
M  V30 8736 H 843.178 1.57377 -0.2045 0
M  V30 8737 H 843.199 3.29488 1.9031 0
M  V30 8738 H 842.711 3.87711 0.173739 0
M  V30 8739 H 840.812 2.8407 2.41111 0
M  V30 8740 H 840.925 4.52659 1.56962 0
M  V30 8741 H 839.289 2.37299 0.925263 0
M  V30 8742 H 840.072 3.41141 -0.384438 0
M  V30 8743 N 842.517 -0.29412 1.54831 0
M  V30 8744 C 843.763 -1.02999 1.74697 0
M  V30 8745 C 844.096 -1.86687 0.534949 0
M  V30 8746 O 843.371 -1.88789 -0.467863 0
M  V30 8747 C 843.654 -1.93024 3.03996 0
M  V30 8748 C 843.507 -1.1247 4.35512 0
M  V30 8749 C 844.826 -2.92085 3.29203 0
M  V30 8750 H 841.945 -0.373039 0.635618 0
M  V30 8751 H 844.587 -0.304065 1.87551 0
M  V30 8752 H 842.737 -2.5492 2.93169 0
M  V30 8753 H 844.409 -0.528067 4.58268 0
M  V30 8754 H 842.652 -0.427574 4.31688 0
M  V30 8755 H 843.323 -1.78728 5.22265 0
M  V30 8756 H 845.799 -2.40319 3.39685 0
M  V30 8757 H 844.675 -3.52234 4.20978 0
M  V30 8758 H 844.936 -3.66107 2.47827 0
M  V30 8759 N 843.995 -1.47404 -0.557645 0
M  V30 8760 C 844.905 -1.62491 -1.69216 0
M  V30 8761 C 845.921 -0.507764 -1.66426 0
M  V30 8762 O 847.097 -0.775241 -1.85882 0
M  V30 8763 C 844.162 -1.63511 -3.05721 0
M  V30 8764 C 843.223 -2.86648 -3.1958 0
M  V30 8765 C 842.456 -2.87609 -4.49574 0
M  V30 8766 O 842.679 -1.97799 -5.35006 0
M  V30 8767 O 841.613 -3.79465 -4.67215 0
M  V30 8768 H 845.439 -2.58487 -1.59431 0
M  V30 8769 H 843.024 -1.30485 -0.7276 0
M  V30 8770 H 844.906 -1.66863 -3.86956 0
M  V30 8771 H 843.581 -0.706812 -3.15889 0
M  V30 8772 H 842.488 -2.8884 -2.37744 0
M  V30 8773 H 843.821 -3.7877 -3.14316 0
M  V30 8774 N 845.473 0.80434 -1.35529 0
M  V30 8775 C 846.889 1.10023 -1.15616 0
M  V30 8776 C 847.089 2.01478 0.0298535 0
M  V30 8777 O 846.145 2.42609 0.699778 0
M  V30 8778 C 847.458 1.72905 -2.46017 0
M  V30 8779 C 849.006 1.85315 -2.52245 0
M  V30 8780 C 849.481 2.51612 -3.82695 0
M  V30 8781 N 850.972 2.59095 -3.83958 0
M  V30 8782 C 851.707 3.11167 -4.81625 0
M  V30 8783 N 851.203 3.63659 -5.89681 0
M  V30 8784 N 852.996 3.09741 -4.6906 0
M  V30 8785 H 845.147 0.196428 -2.1149 0
M  V30 8786 H 847.41 0.149735 -0.9361 0
M  V30 8787 H 847.116 1.13171 -3.32994 0
M  V30 8788 H 846.99 2.72579 -2.6073 0
M  V30 8789 H 849.377 2.44191 -1.65695 0
M  V30 8790 H 849.458 0.844886 -2.41444 0
M  V30 8791 H 849.102 1.93385 -4.69643 0
M  V30 8792 H 849.032 3.5298 -3.90785 0
M  V30 8793 H 851.523 2.21908 -3.05884 0
M  V30 8794 H 851.836 4.01699 -6.60195 0
M  V30 8795 H 850.181 3.61852 -5.9337 0
M  V30 8796 H 853.372 2.68011 -3.83781 0
M  V30 8797 H 853.545 3.50016 -5.45338 0
M  V30 8798 N 846.951 1.19563 1.02676 0
M  V30 8799 C 848.181 1.0234 1.79472 0
M  V30 8800 C 848.589 -0.430891 1.84228 0
M  V30 8801 O 847.932 -1.31106 1.28674 0
M  V30 8802 C 847.994 1.51901 3.25832 0
M  V30 8803 C 847.658 3.00045 3.44706 0
M  V30 8804 C 848.655 3.9779 3.34752 0
M  V30 8805 C 846.34 3.38784 3.70851 0
M  V30 8806 C 848.334 5.32267 3.50672 0
M  V30 8807 C 846.021 4.73419 3.86416 0
M  V30 8808 C 847.019 5.69969 3.7633 0
M  V30 8809 O 846.707 7.02165 3.91432 0
M  V30 8810 H 846.439 0.360936 0.571578 0
M  V30 8811 H 848.993 1.58863 1.30198 0
M  V30 8812 H 847.223 0.897546 3.7614 0
M  V30 8813 H 848.912 1.30853 3.84229 0
M  V30 8814 H 849.678 3.69207 3.14502 0
M  V30 8815 H 845.557 2.64183 3.77794 0
M  V30 8816 H 849.101 6.07612 3.42715 0
M  V30 8817 H 844.998 5.01697 4.06165 0
M  V30 8818 H 845.766 7.09268 4.08511 0
M  V30 8819 N 848.429 -1.21819 0.999893 0
M  V30 8820 C 849.675 -1.91035 0.680701 0
M  V30 8821 C 850.008 -1.77582 -0.786021 0
M  V30 8822 O 849.283 -1.14917 -1.56921 0
M  V30 8823 C 849.566 -3.43013 1.0961 0
M  V30 8824 C 849.419 -3.65481 2.6219 0
M  V30 8825 C 850.738 -4.35204 0.654616 0
M  V30 8826 H 847.857 -0.693748 0.248763 0
M  V30 8827 H 850.499 -1.43555 1.24466 0
M  V30 8828 H 848.649 -3.83581 0.616253 0
M  V30 8829 H 850.321 -3.34273 3.17899 0
M  V30 8830 H 848.564 -3.09522 3.03938 0
M  V30 8831 H 849.235 -4.71945 2.86307 0
M  V30 8832 H 851.711 -4.0219 1.06688 0
M  V30 8833 H 850.587 -5.40198 0.973492 0
M  V30 8834 H 850.848 -4.3986 -0.444458 0
M  V30 8835 N 849.908 -0.773975 -1.37286 0
M  V30 8836 C 851.185 -0.263942 -1.93811 0
M  V30 8837 C 851.565 1.24138 -1.70743 0
M  V30 8838 O 850.913 2.02557 -1.05749 0
M  V30 8839 C 851.123 -0.639753 -3.43086 0
M  V30 8840 C 852.471 -0.610796 -4.20184 0
M  V30 8841 O 853.495 -0.579278 -3.51458 0
M  V30 8842 O 852.354 -0.639862 -5.42741 0
M  V30 8843 H 849.448 -0.0614331 -0.824715 0
M  V30 8844 H 851.994 -0.855477 -1.46559 0
M  V30 8845 H 850.766 -1.67856 -3.53469 0
M  V30 8846 H 850.389 -0.0212827 -3.97594 0
M  V30 8847 N 851.386 1.48609 -0.524698 0
M  V30 8848 C 852.296 2.33318 0.244923 0
M  V30 8849 C 853.312 1.46153 0.944214 0
M  V30 8850 O 854.488 1.79141 0.920347 0
M  V30 8851 C 851.553 3.22149 1.28144 0
M  V30 8852 C 850.614 4.25184 0.593068 0
M  V30 8853 C 849.847 5.0977 1.5802 0
M  V30 8854 O 850.07 4.96249 2.81235 0
M  V30 8855 O 849.004 5.9134 1.1225 0
M  V30 8856 H 852.83 3.00362 -0.449066 0
M  V30 8857 H 850.415 1.46643 -0.285689 0
M  V30 8858 H 852.297 3.77111 1.88057 0
M  V30 8859 H 850.972 2.57772 1.95793 0
M  V30 8860 H 849.879 3.74071 -0.0464214 0
M  V30 8861 H 851.212 4.92183 -0.0413893 0
M  V30 8862 N 852.864 0.259585 1.55447 0
M  V30 8863 C 854.11 -0.362143 1.9954 0
M  V30 8864 C 854.443 -1.5666 1.14767 0
M  V30 8865 O 853.718 -1.93319 0.214025 0
M  V30 8866 C 854.001 -0.759588 3.51998 0
M  V30 8867 C 853.854 0.451134 4.47532 0
M  V30 8868 C 855.173 -1.60186 4.09913 0
M  V30 8869 H 852.292 -0.130157 0.725416 0
M  V30 8870 H 854.934 0.363431 1.86492 0
M  V30 8871 H 853.084 -1.3778 3.63248 0
M  V30 8872 H 854.756 1.08965 4.48246 0
M  V30 8873 H 852.999 1.092 4.19831 0
M  V30 8874 H 853.67 0.129518 5.51848 0
M  V30 8875 H 856.146 -1.0799 4.01842 0
M  V30 8876 H 855.022 -1.84879 5.16828 0
M  V30 8877 H 855.283 -2.57787 3.59163 0
M  V30 8878 N 854.342 -1.57594 -0.0133615 0
M  V30 8879 C 855.272 -2.10611 -1.00823 0
M  V30 8880 C 856.253 -1.01217 -1.36708 0
M  V30 8881 O 857.438 -1.28827 -1.45318 0
M  V30 8882 C 854.568 -2.59844 -2.30431 0
M  V30 8883 C 853.522 -3.73644 -2.08745 0
M  V30 8884 C 852.848 -4.09141 -3.4425 0
M  V30 8885 C 854.148 -5.01454 -1.46086 0
M  V30 8886 H 855.842 -2.93985 -0.566849 0
M  V30 8887 H 853.388 -1.41423 -0.271219 0
M  V30 8888 H 855.341 -2.95557 -3.00373 0
M  V30 8889 H 854.065 -1.73573 -2.76658 0
M  V30 8890 H 852.724 -3.38303 -1.41232 0
M  V30 8891 H 852.372 -3.19914 -3.88155 0
M  V30 8892 H 852.072 -4.85802 -3.3056 0
M  V30 8893 H 853.596 -4.47402 -4.15528 0
M  V30 8894 H 855.01 -5.35024 -2.05966 0
M  V30 8895 H 853.407 -5.82832 -1.42924 0
M  V30 8896 H 854.477 -4.83003 -0.428471 0
M  V30 8897 N 855.82 0.285905 -1.54985 0
M  V30 8898 C 856.768 1.37302 -1.87752 0
M  V30 8899 C 857.762 1.51763 -0.752616 0
M  V30 8900 O 858.968 1.53701 -0.936805 0
M  V30 8901 H 855.343 0.458935 -0.59572 0
M  V30 8902 H 857.314 1.0691 -2.78591 0
M  V30 8903 C 856.063 2.72885 -2.15474 0
M  V30 8904 H 855.386 2.62545 -3.01513 0
M  V30 8905 H 856.826 3.47925 -2.42331 0
M  V30 8906 C 855.285 3.22989 -0.958124 0
M  V30 8907 O 855.815 4.01268 -0.186219 0
M  V30 8908 N 854.021 2.80503 -0.759354 0
M  V30 8909 H 853.568 2.16961 -1.38874 0
M  V30 8910 H 853.526 3.14375 0.0396937 0
M  V30 8911 N 857.298 1.47698 0.54982 0
M  V30 8912 C 858.208 1.63386 1.68351 0
M  V30 8913 C 859.224 0.516583 1.66155 0
M  V30 8914 O 860.4 0.785088 1.85468 0
M  V30 8915 C 857.465 1.6513 3.04849 0
M  V30 8916 C 856.526 2.88338 3.18056 0
M  V30 8917 C 855.759 2.8999 4.48042 0
M  V30 8918 O 855.982 2.00633 5.3395 0
M  V30 8919 O 854.916 3.81938 4.65196 0
M  V30 8920 H 858.742 2.59329 1.58057 0
M  V30 8921 H 856.327 1.30869 0.72067 0
M  V30 8922 H 858.209 1.68913 3.86065 0
M  V30 8923 H 856.884 0.723555 3.1551 0
M  V30 8924 H 855.791 2.90097 2.36209 0
M  V30 8925 H 857.124 3.80431 3.12302 0
M  V30 8926 N 858.776 -0.797141 1.35954 0
M  V30 8927 C 860.022 -1.55698 1.29946 0
M  V30 8928 C 860.355 -1.93808 -0.123259 0
M  V30 8929 O 859.63 -1.62102 -1.07486 0
M  V30 8930 C 859.913 -2.83926 2.2149 0
M  V30 8931 C 859.766 -2.52232 3.72423 0
M  V30 8932 C 861.085 -3.85698 2.11955 0
M  V30 8933 H 858.204 -0.56488 0.47337 0
M  V30 8934 H 860.846 -0.916421 1.66438 0
M  V30 8935 H 858.996 -3.38588 1.905 0
M  V30 8936 H 860.668 -2.0368 4.13899 0
M  V30 8937 H 858.911 -1.85286 3.92239 0
M  V30 8938 H 859.582 -3.43782 4.31877 0
M  V30 8939 H 862.058 -3.40462 2.39218 0
M  V30 8940 H 860.934 -4.73182 2.78191 0
M  V30 8941 H 861.195 -4.28083 1.10442 0
M  V30 8942 N 860.254 -1.20106 -1.0204 0
M  V30 8943 C 861.184 -0.970301 -2.12385 0
M  V30 8944 C 862.165 0.099378 -1.69809 0
M  V30 8945 O 863.35 -0.057365 -1.94115 0
M  V30 8946 C 860.48 -0.517431 -3.43424 0
M  V30 8947 C 859.434 -1.52992 -3.99722 0
M  V30 8948 C 858.76 -0.933817 -5.26483 0
M  V30 8949 C 860.06 -2.91257 -4.33551 0
M  V30 8950 H 861.754 -1.89316 -2.31948 0
M  V30 8951 H 859.3 -0.911655 -1.11467 0
M  V30 8952 H 861.253 -0.343243 -4.2 0
M  V30 8953 H 859.977 0.441049 -3.23608 0
M  V30 8954 H 858.636 -1.6914 -3.2525 0
M  V30 8955 H 858.284 0.0324763 -5.0299 0
M  V30 8956 H 857.984 -1.60999 -5.65113 0
M  V30 8957 H 859.508 -0.770614 -6.05718 0
M  V30 8958 H 860.922 -2.78642 -5.0103 0
M  V30 8959 H 859.319 -3.55745 -4.83286 0
M  V30 8960 H 860.389 -3.43269 -3.42483 0
M  V30 8961 N 861.732 1.21287 -1.00634 0
M  V30 8962 C 862.978 1.90671 -0.690822 0
M  V30 8963 C 863.311 1.77996 0.776592 0
M  V30 8964 O 862.586 1.15748 1.5631 0
M  V30 8965 C 862.869 3.42426 -1.11428 0
M  V30 8966 C 862.722 3.64086 -2.64124 0
M  V30 8967 C 864.041 4.34851 -0.677686 0
M  V30 8968 H 861.16 0.692419 -0.252439 0
M  V30 8969 H 863.802 1.42893 -1.25226 0
M  V30 8970 H 861.952 3.83249 -0.636586 0
M  V30 8971 H 863.624 3.32582 -3.19667 0
M  V30 8972 H 861.867 3.07906 -3.05576 0
M  V30 8973 H 862.538 4.7042 -2.88806 0
M  V30 8974 H 865.014 4.01619 -1.0882 0
M  V30 8975 H 863.89 5.39675 -1.00213 0
M  V30 8976 H 864.151 4.4009 0.421125 0
M  V30 8977 N 863.21 0.781244 1.36873 0
M  V30 8978 C 864.456 0.350407 1.9975 0
M  V30 8979 C 864.789 -1.07293 1.6187 0
M  V30 8980 O 864.064 -1.73983 0.869491 0
M  V30 8981 C 864.347 0.504834 3.56544 0
M  V30 8982 C 864.2 1.97127 4.04303 0
M  V30 8983 C 865.519 -0.0851272 4.40018 0
M  V30 8984 H 862.638 0.128794 0.725659 0
M  V30 8985 H 865.28 0.98606 1.6241 0
M  V30 8986 H 863.43 -0.0363006 3.88483 0
M  V30 8987 H 865.102 2.57284 3.82887 0
M  V30 8988 H 863.345 2.47676 3.56145 0
M  V30 8989 H 864.016 2.03033 5.13305 0
M  V30 8990 H 866.492 0.376704 4.14391 0
M  V30 8991 H 865.368 0.0530015 5.48874 0
M  V30 8992 H 865.629 -1.17642 4.2616 0
M  V30 8993 N 864.689 -1.48329 0.532571 0
M  V30 8994 C 866.1 -1.86469 0.0927749 0
M  V30 8995 C 866.451 -1.44186 -1.3306 0
M  V30 8996 O 865.576 -0.833741 -1.99694 0
M  V30 8997 C 866.171 -3.38414 0.161588 0
M  V30 8998 C 864.73 -3.75739 -0.223028 0
M  V30 8999 C 863.877 -2.72377 0.520199 0
M  V30 9000 H 866.828 -1.40197 0.743678 0
M  V30 9001 H 866.849 -3.75314 -0.626059 0
M  V30 9002 H 866.361 -3.69159 1.19765 0
M  V30 9003 H 864.462 -3.50608 -1.26113 0
M  V30 9004 H 864.575 -4.78954 0.118385 0
M  V30 9005 H 862.939 -2.54678 -0.0338425 0
M  V30 9006 H 863.722 -3.05965 1.55694 0
M  V30 9007 N 866.167 -0.267825 -1.55308 0
M  V30 9008 C 867.115 0.638848 -2.23655 0
M  V30 9009 C 868.109 1.16363 -1.2311 0
M  V30 9010 O 869.315 1.1181 -1.41062 0
M  V30 9011 H 865.69 0.224551 -0.717691 0
M  V30 9012 H 867.661 0.0394809 -2.98374 0
M  V30 9013 C 866.41 1.8151 -2.96562 0
M  V30 9014 H 865.733 1.42048 -3.73715 0
M  V30 9015 H 867.173 2.42629 -3.47717 0
M  V30 9016 C 865.632 2.69911 -2.01618 0
M  V30 9017 O 866.162 3.70058 -1.56268 0
M  V30 9018 N 864.368 2.36924 -1.68272 0
M  V30 9019 H 863.915 1.55533 -2.05347 0
M  V30 9020 H 863.873 2.96343 -1.05016 0
M  V30 9021 N 867.645 1.57599 0.00500368 0
M  V30 9022 C 868.894 1.89528 0.690061 0
M  V30 9023 C 869.207 0.869451 1.75214 0
M  V30 9024 O 870.413 1.07879 2.49147 0
M  V30 9025 C 868.869 3.36425 1.27852 0
M  V30 9026 C 868.477 4.47293 0.251531 0
M  V30 9027 C 870.221 3.77471 1.94206 0
M  V30 9028 C 868.128 5.85264 0.8497 0
M  V30 9029 H 867.058 0.707201 0.2615 0
M  V30 9030 H 869.709 1.83418 -0.0547209 0
M  V30 9031 H 868.091 3.37356 2.07381 0
M  V30 9032 H 869.265 4.5787 -0.518796 0
M  V30 9033 H 867.58 4.15235 -0.311281 0
M  V30 9034 H 870.177 4.77884 2.39855 0
M  V30 9035 H 870.52 3.10722 2.77051 0
M  V30 9036 H 871.053 3.78817 1.21419 0
M  V30 9037 H 867.792 6.55472 0.0601408 0
M  V30 9038 H 867.312 5.78361 1.5893 0
M  V30 9039 H 868.991 6.32762 1.34984 0
M  V30 9040 N 869.123 -0.277682 1.55134 0
M  V30 9041 C 870.071 -1.36305 1.88478 0
M  V30 9042 C 871.065 -1.51362 0.760654 0
M  V30 9043 O 872.271 -1.53202 0.944943 0
M  V30 9044 H 868.646 -0.45577 0.598146 0
M  V30 9045 H 870.617 -1.05431 2.79154 0
M  V30 9046 C 869.366 -2.71739 2.16918 0
M  V30 9047 H 868.689 -2.60942 3.02901 0
M  V30 9048 H 870.129 -3.46635 2.44172 0
M  V30 9049 C 868.588 -3.22476 0.975239 0
M  V30 9050 O 869.118 -4.01164 0.207497 0
M  V30 9051 N 867.324 -2.80097 0.774219 0
M  V30 9052 H 866.871 -2.16221 1.40022 0
M  V30 9053 H 866.829 -3.14392 -0.023021 0
M  V30 9054 N 870.601 -1.47988 -0.541979 0
M  V30 9055 C 871.533 -1.5769 -1.66332 0
M  V30 9056 C 872.546 -0.461994 -1.56107 0
M  V30 9057 O 873.735 -0.732306 -1.62787 0
M  V30 9058 C 870.835 -1.47939 -3.04905 0
M  V30 9059 C 870.008 -2.74263 -3.40733 0
M  V30 9060 C 869.067 -2.58133 -4.58534 0
M  V30 9061 O 868.093 -3.31991 -4.62354 0
M  V30 9062 N 869.295 -1.6696 -5.55972 0
M  V30 9063 H 872.06 -2.54389 -1.5845 0
M  V30 9064 H 869.621 -1.4456 -0.728979 0
M  V30 9065 H 871.613 -1.34861 -3.81569 0
M  V30 9066 H 870.183 -0.592626 -3.06931 0
M  V30 9067 H 869.403 -3.01992 -2.53366 0
M  V30 9068 H 870.691 -3.58094 -3.6145 0
M  V30 9069 H 870.089 -1.06134 -5.55655 0
M  V30 9070 H 868.646 -1.59826 -6.31901 0
M  V30 9071 N 872.079 0.78992 -1.36375 0
M  V30 9072 C 873.304 1.58389 -1.33895 0
M  V30 9073 C 873.729 1.8794 0.0774934 0
M  V30 9074 O 873.087 1.4785 1.0493 0
M  V30 9075 C 873.135 2.88201 -2.16732 0
M  V30 9076 O 872.239 3.81778 -1.55946 0
M  V30 9077 H 871.58 0.480471 -0.458305 0
M  V30 9078 H 874.11 0.979119 -1.79651 0
M  V30 9079 H 874.12 3.37475 -2.29292 0
M  V30 9080 H 872.795 2.66019 -3.19698 0
M  V30 9081 H 871.372 3.40371 -1.52323 0
M  V30 9082 N 873.557 1.20646 1.01402 0
M  V30 9083 C 874.507 0.925209 2.08384 0
M  V30 9084 C 875.491 -0.115994 1.60481 0
M  V30 9085 O 876.683 0.0917276 1.76762 0
M  V30 9086 C 873.812 0.48193 3.399 0
M  V30 9087 C 872.898 1.5567 3.94497 0
M  V30 9088 N 873.289 2.77971 4.2257 0
M  V30 9089 C 871.587 1.42347 4.22674 0
M  V30 9090 C 872.288 3.47317 4.66632 0
M  V30 9091 N 871.264 2.74736 4.69064 0
M  V30 9092 H 875.066 1.85452 2.28002 0
M  V30 9093 H 872.58 1.10084 1.19395 0
M  V30 9094 H 874.577 0.261835 4.16077 0
M  V30 9095 H 873.237 -0.440725 3.21695 0
M  V30 9096 H 874.248 3.14598 4.11398 0
M  V30 9097 H 870.925 0.565417 4.13654 0
M  V30 9098 H 872.315 4.51985 4.97151 0
M  V30 9099 N 875.035 -1.20752 1.01276 0
M  V30 9100 C 876.446 -1.7175 0.732033 0
M  V30 9101 C 876.797 -1.8131 -0.749733 0
M  V30 9102 O 875.922 -1.47301 -1.58529 0
M  V30 9103 C 876.517 -3.11936 1.32217 0
M  V30 9104 C 875.076 -3.6026 1.09039 0
M  V30 9105 C 874.223 -2.37571 1.43022 0
M  V30 9106 H 877.174 -1.0582 1.1827 0
M  V30 9107 H 877.195 -3.73802 0.710771 0
M  V30 9108 H 876.707 -3.04946 2.40061 0
M  V30 9109 H 874.808 -3.72588 0.0294464 0
M  V30 9110 H 874.921 -4.45295 1.76775 0
M  V30 9111 H 873.285 -2.40128 0.849159 0
M  V30 9112 H 874.068 -2.33225 2.51915 0
M  V30 9113 N 876.513 -0.788492 -1.36457 0
M  V30 9114 C 877.741 -0.372365 -2.03522 0
M  V30 9115 C 878.156 1.01093 -1.59454 0
M  V30 9116 O 877.513 1.64824 -0.783535 0
M  V30 9117 C 877.564 -0.425435 -3.58988 0
M  V30 9118 O 877.285 -1.75418 -4.01448 0
M  V30 9119 C 878.786 0.000180167 -4.433 0
M  V30 9120 H 876.006 -0.1536 -0.653183 0
M  V30 9121 H 878.55 -1.06708 -1.74452 0
M  V30 9122 H 876.705 0.220856 -3.8677 0
M  V30 9123 H 877.119 -1.70437 -4.96036 0
M  V30 9124 H 878.593 -0.0880919 -5.5193 0
M  V30 9125 H 879.07 1.05269 -4.26398 0
M  V30 9126 H 879.676 -0.618563 -4.20778 0
M  V30 9127 N 877.991 1.48044 -0.54043 0
M  V30 9128 C 879.219 2.06895 -0.0145153 0
M  V30 9129 C 879.634 1.39552 1.27164 0
M  V30 9130 O 878.991 0.486454 1.75897 0
M  V30 9131 C 879.042 3.60934 0.202278 0
M  V30 9132 O 878.763 4.25749 -1.03293 0
M  V30 9133 C 880.264 4.36607 0.767387 0
M  V30 9134 H 877.484 0.66991 -0.0382368 0
M  V30 9135 H 880.028 1.90288 -0.749057 0
M  V30 9136 H 878.183 3.77111 0.886897 0
M  V30 9137 H 878.597 5.18048 -0.820167 0
M  V30 9138 H 880.071 5.45126 0.86845 0
M  V30 9139 H 880.548 4.01745 1.77477 0
M  V30 9140 H 881.154 4.25133 0.119002 0
M  V30 9141 N 879.47 0.276058 1.55163 0
M  V30 9142 C 880.695 -0.346648 2.04483 0
M  V30 9143 C 881.12 -1.48613 1.15308 0
M  V30 9144 O 880.478 -1.80663 0.151875 0
M  V30 9145 C 880.526 -0.804268 3.51517 0
M  V30 9146 O 879.63 -1.91143 3.65429 0
M  V30 9147 H 878.971 -0.0715251 0.660136 0
M  V30 9148 H 881.501 0.410631 2.00437 0
M  V30 9149 H 881.511 -1.09977 3.92898 0
M  V30 9150 H 880.186 0.0294123 4.1589 0
M  V30 9151 H 878.763 -1.61839 3.3595 0
M  V30 9152 N 880.948 -1.576 0.00335426 0
M  V30 9153 C 881.896 -2.09759 -1.00517 0
M  V30 9154 C 882.89 -1.01833 -1.35375 0
M  V30 9155 O 884.096 -1.20294 -1.339 0
M  V30 9156 H 880.471 -0.669821 -0.341825 0
M  V30 9157 H 882.442 -2.93478 -0.539718 0
M  V30 9158 C 881.191 -2.6189 -2.28711 0
M  V30 9159 H 880.514 -3.44571 -2.02758 0
M  V30 9160 H 881.954 -3.02061 -2.97548 0
M  V30 9161 C 880.413 -1.53455 -2.99922 0
M  V30 9162 O 880.943 -0.919402 -3.91037 0
M  V30 9163 N 879.149 -1.2612 -2.61806 0
M  V30 9164 H 878.696 -1.76329 -1.87792 0
M  V30 9165 H 878.654 -0.537872 -3.09765 0
M  V30 9166 N 882.426 0.269451 -1.5528 0
M  V30 9167 C 883.389 1.31642 -1.87625 0
M  V30 9168 C 884.389 1.42182 -0.751058 0
M  V30 9169 O 885.579 1.41272 -1.01921 0
M  V30 9170 C 882.711 2.6973 -2.08467 0
M  V30 9171 H 883.904 1.0419 -2.81219 0
M  V30 9172 H 881.457 0.507685 -1.47825 0
M  V30 9173 H 882.192 3.02356 -1.17266 0
M  V30 9174 H 881.977 2.63465 -2.90394 0
M  V30 9175 H 883.467 3.4537 -2.34753 0
M  V30 9176 N 883.904 1.48273 0.534124 0
M  V30 9177 C 884.867 1.6201 1.62127 0
M  V30 9178 C 885.867 0.493653 1.53035 0
M  V30 9179 O 887.057 0.759337 1.56779 0
M  V30 9180 C 884.189 1.5864 3.01739 0
M  V30 9181 H 885.382 2.58944 1.51288 0
M  V30 9182 H 882.935 1.36808 0.755861 0
M  V30 9183 H 883.67 0.631685 3.18088 0
M  V30 9184 H 883.455 2.40415 3.09747 0
M  V30 9185 H 884.945 1.71438 3.80787 0
M  V30 9186 N 885.382 -0.782676 1.36792 0
M  V30 9187 C 886.793 -1.35828 1.28092 0
M  V30 9188 C 887.144 -1.96052 -0.076315 0
M  V30 9189 O 886.269 -1.93042 -0.977935 0
M  V30 9190 C 886.864 -2.46949 2.31952 0
M  V30 9191 C 885.423 -3.00307 2.2692 0
M  V30 9192 C 884.57 -1.73436 2.16368 0
M  V30 9193 H 887.521 -0.583788 1.47572 0
M  V30 9194 H 887.542 -3.26144 1.95986 0
M  V30 9195 H 887.054 -2.03087 3.30722 0
M  V30 9196 H 885.155 -3.48571 1.31639 0
M  V30 9197 H 885.268 -3.56663 3.19887 0
M  V30 9198 H 883.632 -1.95934 1.62733 0
M  V30 9199 H 884.415 -1.31693 3.17036 0
M  V30 9200 N 886.86 -1.21182 -1.00761 0
M  V30 9201 C 888.106 -1.02898 -1.74756 0
M  V30 9202 C 888.439 0.436774 -1.89225 0
M  V30 9203 O 887.714 1.32415 -1.42466 0
M  V30 9204 C 887.997 -1.72372 -3.16164 0
M  V30 9205 C 887.85 -3.2645 -3.09435 0
M  V30 9206 C 889.169 -1.46415 -4.15031 0
M  V30 9207 H 886.288 -0.375214 -0.634337 0
M  V30 9208 H 888.93 -1.49321 -1.17487 0
M  V30 9209 H 887.08 -1.32906 -3.65059 0
M  V30 9210 H 888.752 -3.75269 -2.68274 0
M  V30 9211 H 886.995 -3.56889 -2.46603 0
M  V30 9212 H 887.666 -3.70226 -4.09435 0
M  V30 9213 H 890.142 -1.80671 -3.7483 0
M  V30 9214 H 889.018 -1.97544 -5.12121 0
M  V30 9215 H 889.279 -0.39361 -4.40344 0
M  V30 9216 N 888.338 1.20213 -1.01915 0
M  V30 9217 C 889.268 2.25336 -0.612023 0
M  V30 9218 C 890.249 1.65933 0.374186 0
M  V30 9219 O 891.434 1.92464 0.259053 0
M  V30 9220 C 888.564 3.47267 0.047904 0
M  V30 9221 C 887.518 4.1928 -0.859557 0
M  V30 9222 C 886.844 5.3466 -0.0652655 0
M  V30 9223 C 888.144 4.75143 -2.1688 0
M  V30 9224 H 889.838 2.59645 -1.49079 0
M  V30 9225 H 887.384 1.24808 -0.718263 0
M  V30 9226 H 889.337 4.19991 0.344294 0
M  V30 9227 H 888.061 3.12129 0.961404 0
M  V30 9228 H 886.72 3.48425 -1.13999 0
M  V30 9229 H 886.368 4.95767 0.849964 0
M  V30 9230 H 886.068 5.83772 -0.669618 0
M  V30 9231 H 887.592 6.10187 0.224612 0
M  V30 9232 H 889.006 5.39672 -1.9346 0
M  V30 9233 H 887.403 5.34702 -2.72422 0
M  V30 9234 H 888.473 3.93744 -2.83008 0
M  V30 9235 N 889.816 0.795718 1.36037 0
M  V30 9236 C 891.093 0.294743 1.93367 0
M  V30 9237 C 891.473 -1.21406 1.72696 0
M  V30 9238 O 890.821 -2.00849 1.08959 0
M  V30 9239 C 891.031 0.694254 3.42025 0
M  V30 9240 C 892.379 0.677566 4.19159 0
M  V30 9241 O 893.403 0.635119 3.50492 0
M  V30 9242 O 892.262 0.726127 5.41655 0
M  V30 9243 H 889.356 0.0745459 0.823633 0
M  V30 9244 H 891.902 0.878685 1.4518 0
M  V30 9245 H 890.674 1.73458 3.50753 0
M  V30 9246 H 890.297 0.0845338 3.9751 0
M  V30 9247 N 891.294 -1.47756 0.548274 0
M  V30 9248 C 892.257 -2.28379 -0.193857 0
M  V30 9249 C 893.257 -1.36436 -0.850986 0
M  V30 9250 O 894.447 -1.59154 -0.70822 0
M  V30 9251 C 891.579 -3.15858 -1.28243 0
M  V30 9252 H 892.772 -2.95458 0.514231 0
M  V30 9253 H 890.325 -1.53298 0.304879 0
M  V30 9254 H 891.06 -2.5345 -2.0232 0
M  V30 9255 H 890.845 -3.83512 -0.816148 0
M  V30 9256 H 892.335 -3.76627 -1.80393 0
M  V30 9257 N 892.772 -0.284283 -1.55015 0
M  V30 9258 C 893.735 0.586182 -2.21577 0
M  V30 9259 C 894.735 1.07427 -1.1965 0
M  V30 9260 O 895.925 0.972977 -1.44495 0
M  V30 9261 C 893.057 1.80973 -2.88897 0
M  V30 9262 H 894.25 0.00487253 -2.999 0
M  V30 9263 H 891.803 -0.0349696 -1.56261 0
M  V30 9264 H 892.538 2.43131 -2.14611 0
M  V30 9265 H 892.323 1.46757 -3.636 0
M  V30 9266 H 893.813 2.42853 -3.39724 0
M  V30 9267 N 894.251 1.57596 -0.0117121 0
M  V30 9268 C 895.161 2.12596 0.991964 0
M  V30 9269 C 896.177 1.07399 1.36899 0
M  V30 9270 O 897.353 1.39365 1.45394 0
M  V30 9271 C 894.418 2.62796 2.2614 0
M  V30 9272 C 893.479 3.8264 1.94642 0
M  V30 9273 C 892.712 4.30435 3.15533 0
M  V30 9274 O 892.935 3.77495 4.27614 0
M  V30 9275 O 891.869 5.22469 2.98847 0
M  V30 9276 H 895.695 2.98597 0.554371 0
M  V30 9277 H 893.28 1.47947 0.207839 0
M  V30 9278 H 895.162 2.9523 3.00695 0
M  V30 9279 H 893.837 1.79886 2.69114 0
M  V30 9280 H 892.744 3.5516 1.17526 0
M  V30 9281 H 894.077 4.66658 1.56496 0
M  V30 9282 N 895.729 -0.261212 1.5542 0
M  V30 9283 C 896.957 -1.00916 1.8062 0
M  V30 9284 C 897.372 -1.79494 0.585444 0
M  V30 9285 O 896.729 -1.76974 -0.445702 0
M  V30 9286 C 896.78 -1.95841 3.03856 0
M  V30 9287 O 896.501 -1.20445 4.21218 0
M  V30 9288 C 898.002 -2.82352 3.41749 0
M  V30 9289 H 895.222 -0.297596 0.601397 0
M  V30 9290 H 897.766 -0.288427 2.02456 0
M  V30 9291 H 895.921 -2.63361 2.84112 0
M  V30 9292 H 896.335 -1.84528 4.90968 0
M  V30 9293 H 897.809 -3.44733 4.31118 0
M  V30 9294 H 898.286 -3.5273 2.61683 0
M  V30 9295 H 898.892 -2.20306 3.63793 0
M  V30 9296 N 897.207 -1.48554 -0.526253 0
M  V30 9297 C 898.455 -1.56452 -1.27935 0
M  V30 9298 C 898.776 -0.24184 -1.93495 0
M  V30 9299 O 898.046 0.736917 -1.81511 0
M  V30 9300 H 896.626 -0.576379 -0.47518 0
M  V30 9301 H 899.288 -1.85039 -0.612083 0
M  V30 9302 H 898.384 -2.34751 -2.05666 0
M  V30 9303 N 898.685 0.775411 -1.37205 0
M  V30 9304 C 899.635 1.87867 -1.29189 0
M  V30 9305 C 900.619 1.59885 -0.180466 0
M  V30 9306 O 901.811 1.72077 -0.414536 0
M  V30 9307 C 898.94 3.25285 -1.09748 0
M  V30 9308 C 898.026 3.59231 -2.25419 0
M  V30 9309 N 898.417 3.64386 -3.50795 0
M  V30 9310 C 896.715 3.89375 -2.17492 0
M  V30 9311 C 897.416 3.94974 -4.27048 0
M  V30 9312 N 896.392 4.10684 -3.56146 0
M  V30 9313 H 900.194 1.90099 -2.24142 0
M  V30 9314 H 897.708 0.971667 -1.30125 0
M  V30 9315 H 899.705 4.04207 -1.02091 0
M  V30 9316 H 898.365 3.2432 -0.157083 0
M  V30 9317 H 899.376 3.46682 -3.8475 0
M  V30 9318 H 896.053 3.96254 -1.31489 0
M  V30 9319 H 897.443 4.05768 -5.35539 0
M  V30 9320 N 900.163 1.21714 1.00117 0
M  V30 9321 C 901.391 1.06278 1.77518 0
M  V30 9322 C 901.806 -0.387193 1.84787 0
M  V30 9323 O 901.163 -1.26854 1.31203 0
M  V30 9324 C 901.214 1.65795 3.21239 0
M  V30 9325 O 900.935 3.05119 3.14378 0
M  V30 9326 C 902.436 1.55521 4.15124 0
M  V30 9327 H 899.656 0.373013 0.557765 0
M  V30 9328 H 902.2 1.61133 1.25922 0
M  V30 9329 H 900.355 1.15022 3.69931 0
M  V30 9330 H 900.769 3.33643 4.04701 0
M  V30 9331 H 902.243 2.01902 5.13751 0
M  V30 9332 H 902.72 0.510307 4.36225 0
M  V30 9333 H 903.326 2.0556 3.72324 0
M  V30 9334 N 901.641 -1.19671 1.02551 0
M  V30 9335 C 902.589 -2.24812 0.596867 0
M  V30 9336 C 903.583 -1.65336 -0.368839 0
M  V30 9337 O 904.789 -1.78422 -0.237786 0
M  V30 9338 H 901.164 -0.731417 0.174739 0
M  V30 9339 H 903.135 -2.58286 1.49435 0
M  V30 9340 C 901.884 -3.47677 -0.0399514 0
M  V30 9341 H 901.207 -3.93728 0.694153 0
M  V30 9342 H 902.647 -4.22917 -0.302861 0
M  V30 9343 C 901.106 -3.11411 -1.2855 0
M  V30 9344 O 901.636 -3.23757 -2.37791 0
M  V30 9345 N 899.842 -2.65875 -1.17297 0
M  V30 9346 H 899.389 -2.56029 -0.284045 0
M  V30 9347 H 899.347 -2.41981 -2.00731 0
M  V30 9348 N 903.119 -0.802921 -1.35613 0
M  V30 9349 C 904.066 -0.20874 -2.29854 0
M  V30 9350 C 905.036 0.655128 -1.52634 0
M  V30 9351 O 906.221 0.600979 -1.81088 0
M  V30 9352 C 903.361 0.639663 -3.3912 0
M  V30 9353 C 902.474 -0.244234 -4.31309 0
M  V30 9354 C 901.609 0.611825 -5.27665 0
M  V30 9355 C 900.648 -0.272698 -6.11492 0
M  V30 9356 N 899.785 0.543122 -6.99996 0
M  V30 9357 H 904.625 -1.01782 -2.80079 0
M  V30 9358 H 902.162 -0.513465 -1.37848 0
M  V30 9359 H 904.12 1.14668 -4.01132 0
M  V30 9360 H 902.75 1.41404 -2.9018 0
M  V30 9361 H 901.802 -0.869322 -3.70334 0
M  V30 9362 H 903.114 -0.925202 -4.90144 0
M  V30 9363 H 902.268 1.18412 -5.95032 0
M  V30 9364 H 901.007 1.32637 -4.69317 0
M  V30 9365 H 900.012 -0.857287 -5.43075 0
M  V30 9366 H 901.237 -0.985051 -6.71918 0
M  V30 9367 H 899.183 1.24171 -6.44141 0
M  V30 9368 H 899.1 -0.0798767 -7.55958 0
M  V30 9369 H 900.368 1.09881 -7.71717 0
M  V30 9370 N 904.597 1.47463 -0.556102 0
M  V30 9371 C 905.846 2.01678 -0.029492 0
M  V30 9372 C 906.159 1.436 1.32809 0
M  V30 9373 O 907.365 1.89472 1.94455 0
M  V30 9374 C 905.821 3.599 -0.00223937 0
M  V30 9375 C 905.429 4.26969 -1.35651 0
M  V30 9376 C 907.173 4.2187 0.471822 0
M  V30 9377 C 905.08 5.77194 -1.28843 0
M  V30 9378 H 904.01 0.753965 -0.00725504 0
M  V30 9379 H 906.661 1.69467 -0.703789 0
M  V30 9380 H 905.043 3.89068 0.737682 0
M  V30 9381 H 906.217 4.09444 -2.11406 0
M  V30 9382 H 904.532 3.76983 -1.76842 0
M  V30 9383 H 907.129 5.31955 0.541139 0
M  V30 9384 H 907.472 3.88968 1.48356 0
M  V30 9385 H 908.005 3.97228 -0.213207 0
M  V30 9386 H 904.744 6.14713 -2.27613 0
M  V30 9387 H 904.264 5.9706 -0.572668 0
M  V30 9388 H 905.943 6.3938 -0.990031 0
M  V30 9389 N 906.075 0.2925 1.54862 0
M  V30 9390 C 907.007 -0.620889 2.2063 0
M  V30 9391 C 908.02 -1.10412 1.19637 0
M  V30 9392 O 909.209 -1.02304 1.46274 0
M  V30 9393 C 906.309 -1.861 2.83232 0
M  V30 9394 C 905.482 -1.52168 4.10078 0
M  V30 9395 C 904.541 -2.61605 4.56562 0
M  V30 9396 O 903.567 -2.27056 5.21952 0
M  V30 9397 N 904.769 -3.9199 4.28163 0
M  V30 9398 H 907.534 -0.0579028 2.99644 0
M  V30 9399 H 905.095 0.114333 1.61496 0
M  V30 9400 H 907.087 -2.58642 3.11266 0
M  V30 9401 H 905.657 -2.33259 2.08108 0
M  V30 9402 H 904.877 -0.629283 3.89145 0
M  V30 9403 H 906.165 -1.27023 4.92689 0
M  V30 9404 H 905.563 -4.22872 3.7576 0
M  V30 9405 H 904.12 -4.60857 4.60928 0
M  V30 9406 N 907.553 -1.57587 0.0200696 0
M  V30 9407 C 908.964 -1.79312 -0.520019 0
M  V30 9408 C 909.315 -0.929475 -1.72787 0
M  V30 9409 O 908.44 -0.137389 -2.15963 0
M  V30 9410 C 909.035 -3.25203 -0.950172 0
M  V30 9411 C 907.594 -3.47954 -1.43543 0
M  V30 9412 C 906.741 -2.74459 -0.395917 0
M  V30 9413 H 909.692 -1.56779 0.246153 0
M  V30 9414 H 909.713 -3.34418 -1.81508 0
M  V30 9415 H 909.225 -3.88035 -0.070883 0
M  V30 9416 H 907.326 -2.90363 -2.33495 0
M  V30 9417 H 907.439 -4.56661 -1.44905 0
M  V30 9418 H 905.803 -2.39669 -0.862022 0
M  V30 9419 H 906.586 -3.40001 0.47475 0
M  V30 9420 N 909.032 0.252966 -1.55557 0
M  V30 9421 C 909.942 1.33472 -1.92931 0
M  V30 9422 C 910.958 1.52983 -0.828985 0
M  V30 9423 O 912.134 1.66723 -1.12984 0
M  V30 9424 C 909.199 2.6704 -2.21112 0
M  V30 9425 C 908.26 2.56103 -3.44542 0
M  V30 9426 C 907.493 3.83302 -3.71369 0
M  V30 9427 O 907.716 4.84907 -3.00368 0
M  V30 9428 O 906.65 3.823 -4.64898 0
M  V30 9429 H 910.476 1.04768 -2.85057 0
M  V30 9430 H 908.061 0.453208 -1.4236 0
M  V30 9431 H 909.943 3.45981 -2.40572 0
M  V30 9432 H 908.618 2.95489 -1.32166 0
M  V30 9433 H 907.525 1.7547 -3.30396 0
M  V30 9434 H 908.858 2.32601 -4.33772 0
M  V30 9435 N 910.51 1.48831 0.518367 0
M  V30 9436 C 911.787 1.47933 1.27966 0
M  V30 9437 C 912.167 0.197393 2.10175 0
M  V30 9438 O 911.515 -0.820656 2.13255 0
M  V30 9439 C 911.725 2.74816 2.15121 0
M  V30 9440 C 913.073 3.23613 2.74881 0
M  V30 9441 O 914.097 2.75814 2.254 0
M  V30 9442 O 912.956 4.06818 3.64913 0
M  V30 9443 H 910.05 0.591316 0.578164 0
M  V30 9444 H 912.596 1.61077 0.534065 0
M  V30 9445 H 911.368 3.59621 1.54234 0
M  V30 9446 H 910.991 2.64449 2.96905 0
M  V30 9447 N 911.988 -0.768124 1.37614 0
M  V30 9448 C 913.216 -1.55726 1.36224 0
M  V30 9449 C 913.631 -1.8873 -0.0515357 0
M  V30 9450 O 912.988 -1.51718 -1.0143 0
M  V30 9451 C 913.039 -2.86533 2.20412 0
M  V30 9452 O 912.76 -2.54942 3.56281 0
M  V30 9453 C 914.261 -3.80745 2.27041 0
M  V30 9454 H 911.481 -0.482325 0.46648 0
M  V30 9455 H 914.025 -0.95176 1.81002 0
M  V30 9456 H 912.18 -3.43496 1.79134 0
M  V30 9457 H 912.594 -3.38732 4.00451 0
M  V30 9458 H 914.068 -4.69523 2.90263 0
M  V30 9459 H 914.545 -4.20138 1.27987 0
M  V30 9460 H 915.151 -3.2971 2.68647 0
M  V30 9461 N 913.466 -1.22244 -0.994698 0
M  V30 9462 C 914.715 -1.04005 -1.72817 0
M  V30 9463 C 915.028 0.425413 -1.90918 0
M  V30 9464 O 916.234 0.727429 -2.61574 0
M  V30 9465 C 914.69 -1.81244 -3.10932 0
M  V30 9466 C 914.298 -3.32028 -3.00768 0
M  V30 9467 C 916.042 -1.71448 -3.88337 0
M  V30 9468 C 913.949 -4.01716 -4.34026 0
M  V30 9469 H 912.879 -0.385559 -0.647966 0
M  V30 9470 H 915.53 -1.46077 -1.11058 0
M  V30 9471 H 913.912 -1.3197 -3.73363 0
M  V30 9472 H 915.086 -3.88682 -2.47513 0
M  V30 9473 H 913.401 -3.4248 -2.36846 0
M  V30 9474 H 915.998 -2.20836 -4.86965 0
M  V30 9475 H 916.341 -0.674568 -4.10798 0
M  V30 9476 H 916.874 -2.18256 -3.3258 0
M  V30 9477 H 913.613 -5.05952 -4.16765 0
M  V30 9478 H 913.133 -3.49849 -4.87202 0
M  V30 9479 H 914.812 -4.0721 -5.02782 0
M  V30 9480 N 914.944 1.19125 -1.03184 0
M  V30 9481 C 915.854 2.26112 -0.625329 0
M  V30 9482 C 916.87 1.7056 0.344298 0
M  V30 9483 O 918.046 2.0039 0.20144 0
M  V30 9484 C 915.111 3.46697 0.0145169 0
M  V30 9485 C 914.172 4.17419 -1.00299 0
M  V30 9486 C 913.405 5.32247 -0.393581 0
M  V30 9487 O 913.628 5.64724 0.802659 0
M  V30 9488 O 912.562 5.91428 -1.1179 0
M  V30 9489 H 916.388 2.63131 -1.51643 0
M  V30 9490 H 913.973 1.26036 -0.802197 0
M  V30 9491 H 915.855 4.19762 0.371139 0
M  V30 9492 H 914.53 3.11521 0.879581 0
M  V30 9493 H 913.437 3.4646 -1.41125 0
M  V30 9494 H 914.77 4.56573 -1.83852 0
M  V30 9495 N 916.422 0.810101 1.35185 0
M  V30 9496 C 917.65 0.404696 2.02903 0
M  V30 9497 C 918.065 -0.985434 1.61042 0
M  V30 9498 O 917.422 -1.63557 0.809658 0
M  V30 9499 C 917.473 0.482493 3.58266 0
M  V30 9500 O 917.194 1.81782 3.98606 0
M  V30 9501 C 918.695 0.070345 4.43244 0
M  V30 9502 H 915.915 0.163972 0.650657 0
M  V30 9503 H 918.459 1.0947 1.72733 0
M  V30 9504 H 916.614 -0.159296 3.87072 0
M  V30 9505 H 917.028 1.78306 4.93262 0
M  V30 9506 H 918.502 0.175888 5.5172 0
M  V30 9507 H 918.979 -0.984724 4.28018 0
M  V30 9508 H 919.585 0.685427 4.1974 0
M  V30 9509 N 917.9 -1.47166 0.563914 0
M  V30 9510 C 919.316 -1.58018 0.224173 0
M  V30 9511 C 919.516 -1.56163 -1.27339 0
M  V30 9512 O 918.572 -1.4686 -2.05398 0
M  V30 9513 C 919.885 -2.88236 0.856762 0
M  V30 9514 C 921.433 -3.01833 0.82861 0
M  V30 9515 C 921.908 -4.34761 1.44039 0
M  V30 9516 N 923.399 -4.41413 1.40388 0
M  V30 9517 C 924.134 -5.42845 1.84681 0
M  V30 9518 N 923.63 -6.51052 2.3686 0
M  V30 9519 N 925.423 -5.33931 1.75711 0
M  V30 9520 H 917.574 -1.46615 1.53681 0
M  V30 9521 H 919.837 -0.698195 0.64127 0
M  V30 9522 H 919.543 -2.95349 1.90949 0
M  V30 9523 H 919.417 -3.75537 0.353766 0
M  V30 9524 H 921.804 -2.94312 -0.215451 0
M  V30 9525 H 921.885 -2.16056 1.36943 0
M  V30 9526 H 921.529 -4.43037 2.48355 0
M  V30 9527 H 921.459 -5.1928 0.874953 0
M  V30 9528 H 923.95 -3.63811 1.02227 0
M  V30 9529 H 924.263 -7.24633 2.68564 0
M  V30 9530 H 922.608 -6.51924 2.40875 0
M  V30 9531 H 925.799 -4.48295 1.34718 0
M  V30 9532 H 925.972 -6.12841 2.10547 0
M  V30 9533 N 919.378 -0.300708 -1.54705 0
M  V30 9534 C 920.608 0.310819 -2.04249 0
M  V30 9535 C 921.016 1.4809 -1.17754 0
M  V30 9536 O 920.359 1.82654 -0.195779 0
M  V30 9537 C 920.421 0.83014 -3.49784 0
M  V30 9538 C 920.085 -0.214628 -4.56496 0
M  V30 9539 C 921.082 -1.04298 -5.09331 0
M  V30 9540 C 918.767 -0.356242 -5.01035 0
M  V30 9541 C 920.761 -1.99889 -6.05246 0
M  V30 9542 C 918.448 -1.3156 -5.96771 0
M  V30 9543 C 919.446 -2.1354 -6.4876 0
M  V30 9544 O 919.134 -3.07849 -7.4262 0
M  V30 9545 H 918.866 0.0715341 -0.672204 0
M  V30 9546 H 921.42 -0.438179 -2.00672 0
M  V30 9547 H 919.65 1.62966 -3.50684 0
M  V30 9548 H 921.339 1.35752 -3.82526 0
M  V30 9549 H 922.105 -0.944439 -4.75716 0
M  V30 9550 H 917.984 0.271916 -4.60197 0
M  V30 9551 H 921.528 -2.63917 -6.45751 0
M  V30 9552 H 917.425 -1.41486 -6.29803 0
M  V30 9553 H 918.193 -3.02824 -7.60421 0
M  V30 9554 N 920.856 1.57574 -0.0284266 0
M  V30 9555 C 922.102 1.92056 0.651327 0
M  V30 9556 C 922.435 0.905092 1.71819 0
M  V30 9557 O 921.71 -0.0722703 1.94366 0
M  V30 9558 C 921.993 3.37021 1.26841 0
M  V30 9559 C 921.846 4.49304 0.211157 0
M  V30 9560 C 923.165 3.81936 2.18662 0
M  V30 9561 H 920.284 0.698428 0.235304 0
M  V30 9562 H 922.926 1.89807 -0.0855435 0
M  V30 9563 H 921.076 3.39068 1.89644 0
M  V30 9564 H 922.748 4.5939 -0.419379 0
M  V30 9565 H 920.991 4.31317 -0.463445 0
M  V30 9566 H 921.662 5.47764 0.682518 0
M  V30 9567 H 924.138 3.8162 1.65847 0
M  V30 9568 H 923.014 4.84064 2.58792 0
M  V30 9569 H 923.275 3.174 3.07749 0
M  V30 9570 N 922.334 -0.244713 1.55689 0
M  V30 9571 C 923.266 -1.32595 1.86952 0
M  V30 9572 C 924.279 -1.44185 0.755948 0
M  V30 9573 O 925.468 -1.45496 1.03408 0
M  V30 9574 C 922.568 -2.70429 2.04258 0
M  V30 9575 C 921.741 -2.8108 3.35131 0
M  V30 9576 C 920.8 -3.99773 3.42152 0
M  V30 9577 O 919.826 -3.89197 4.15348 0
M  V30 9578 N 921.028 -5.13041 2.71604 0
M  V30 9579 H 923.793 -1.06111 2.80287 0
M  V30 9580 H 921.354 -0.434811 1.55952 0
M  V30 9581 H 923.346 -3.48173 2.06295 0
M  V30 9582 H 921.916 -2.89612 1.17658 0
M  V30 9583 H 921.136 -1.89994 3.45392 0
M  V30 9584 H 922.424 -2.85147 4.21389 0
M  V30 9585 H 921.822 -5.24525 2.11872 0
M  V30 9586 H 920.379 -5.88912 2.79331 0
M  V30 9587 N 923.813 -1.49104 -0.510467 0
M  V30 9588 C 925.038 -1.62068 -1.29417 0
M  V30 9589 C 925.463 -0.288432 -1.85875 0
M  V30 9590 O 924.821 0.742667 -1.65391 0
M  V30 9591 C 924.869 -2.68506 -2.40701 0
M  V30 9592 O 923.973 -2.27021 -3.4429 0
M  V30 9593 H 923.314 -0.542778 -0.382476 0
M  V30 9594 H 925.844 -1.95228 -0.612154 0
M  V30 9595 H 925.854 -2.90383 -2.86604 0
M  V30 9596 H 924.529 -3.65216 -1.98973 0
M  V30 9597 H 923.106 -2.15436 -3.04371 0
M  V30 9598 N 925.291 0.760815 -1.38019 0
M  V30 9599 C 926.516 1.55513 -1.37224 0
M  V30 9600 C 926.941 1.88062 0.037611 0
M  V30 9601 O 926.299 1.50042 1.0177 0
M  V30 9602 C 926.347 2.83539 -2.22796 0
M  V30 9603 O 925.451 3.78384 -1.64009 0
M  V30 9604 H 924.792 0.470642 -0.468393 0
M  V30 9605 H 927.322 0.940792 -1.81687 0
M  V30 9606 H 927.332 3.32535 -2.36399 0
M  V30 9607 H 926.007 2.59178 -3.25269 0
M  V30 9608 H 924.584 3.37063 -1.59508 0
M  V30 9609 N 926.769 1.22769 0.988202 0
M  V30 9610 C 927.701 0.959757 2.08138 0
M  V30 9611 C 928.714 -0.0633787 1.62677 0
M  V30 9612 O 929.903 0.171203 1.77677 0
M  V30 9613 C 927.003 0.422724 3.36253 0
M  V30 9614 C 926.176 1.50419 4.10722 0
M  V30 9615 C 925.235 0.973407 5.17118 0
M  V30 9616 O 924.261 1.66066 5.44436 0
M  V30 9617 N 925.463 -0.202787 5.80146 0
M  V30 9618 H 928.228 1.9009 2.31702 0
M  V30 9619 H 925.789 1.13522 1.15431 0
M  V30 9620 H 927.781 0.0528514 4.04665 0
M  V30 9621 H 926.351 -0.423642 3.09716 0
M  V30 9622 H 925.571 2.04718 3.36874 0
M  V30 9623 H 926.859 2.23169 4.57245 0
M  V30 9624 H 926.257 -0.777856 5.60327 0
M  V30 9625 H 924.814 -0.513998 6.4977 0
M  V30 9626 N 928.247 -1.18576 1.03814 0
M  V30 9627 C 929.475 -1.92437 0.759966 0
M  V30 9628 C 929.89 -1.76031 -0.682526 0
M  V30 9629 O 929.247 -1.08829 -1.46501 0
M  V30 9630 C 929.298 -3.43923 1.11351 0
M  V30 9631 O 929.019 -3.5981 2.49937 0
M  V30 9632 C 930.52 -4.34888 0.859472 0
M  V30 9633 H 927.74 -0.610998 0.277349 0
M  V30 9634 H 930.284 -1.50448 1.38512 0
M  V30 9635 H 928.439 -3.83711 0.533362 0
M  V30 9636 H 928.853 -4.53569 2.63393 0
M  V30 9637 H 930.327 -5.39744 1.15672 0
M  V30 9638 H 930.804 -4.38717 -0.205839 0
M  V30 9639 H 931.41 -4.00795 1.42279 0
M  V30 9640 N 929.725 -0.817259 -1.34754 0
M  V30 9641 C 930.655 -0.249769 -2.3216 0
M  V30 9642 C 931.636 0.630663 -1.57977 0
M  V30 9643 O 932.821 0.558719 -1.85989 0
M  V30 9644 C 929.951 0.593825 -3.42186 0
M  V30 9645 C 928.905 -0.188997 -4.27583 0
M  V30 9646 C 928.231 0.776979 -5.29025 0
M  V30 9647 C 929.531 -1.39401 -5.03354 0
M  V30 9648 H 931.225 -1.06359 -2.79872 0
M  V30 9649 H 928.771 -0.512894 -1.34556 0
M  V30 9650 H 930.724 1.00097 -4.09339 0
M  V30 9651 H 929.448 1.44064 -2.93109 0
M  V30 9652 H 928.107 -0.577445 -3.62024 0
M  V30 9653 H 927.755 1.61959 -4.76212 0
M  V30 9654 H 927.455 0.257448 -5.87036 0
M  V30 9655 H 928.979 1.18211 -5.99048 0
M  V30 9656 H 930.393 -1.06117 -5.63393 0
M  V30 9657 H 928.79 -1.84878 -5.70912 0
M  V30 9658 H 929.86 -2.17515 -4.33377 0
M  V30 9659 N 931.203 1.46865 -0.571711 0
M  V30 9660 C 932.48 1.95596 0.0132445 0
M  V30 9661 C 932.86 1.51438 1.47071 0
M  V30 9662 O 932.208 0.759917 2.15494 0
M  V30 9663 C 932.418 3.48689 -0.147335 0
M  V30 9664 C 933.766 4.24599 -0.00946329 0
M  V30 9665 O 934.79 3.5612 -0.0756112 0
M  V30 9666 O 933.649 5.46332 0.135361 0
M  V30 9667 H 930.743 0.825102 0.0560039 0
M  V30 9668 H 933.289 1.57199 -0.639256 0
M  V30 9669 H 932.061 3.73681 -1.16096 0
M  V30 9670 H 931.684 3.93887 0.542109 0
M  V30 9671 N 932.681 0.308908 1.54543 0
M  V30 9672 C 933.591 -0.572939 2.27496 0
M  V30 9673 C 934.607 -1.14171 1.31305 0
M  V30 9674 O 935.783 -1.16481 1.64299 0
M  V30 9675 C 932.848 -1.72483 3.0075 0
M  V30 9676 C 931.909 -1.18934 4.12496 0
M  V30 9677 C 931.142 -2.28634 4.82247 0
M  V30 9678 O 931.365 -3.48691 4.5141 0
M  V30 9679 O 930.299 -1.94879 5.69478 0
M  V30 9680 H 934.125 0.0190877 3.03694 0
M  V30 9681 H 931.71 0.0750943 1.49211 0
M  V30 9682 H 933.592 -2.39578 3.46671 0
M  V30 9683 H 932.267 -2.30332 2.2744 0
M  V30 9684 H 931.174 -0.483904 3.70957 0
M  V30 9685 H 932.507 -0.656185 4.87806 0
M  V30 9686 N 934.159 -1.57557 0.0367827 0
M  V30 9687 C 935.092 -2.06205 -0.977479 0
M  V30 9688 C 936.07 -0.959444 -1.31276 0
M  V30 9689 O 937.254 -1.23033 -1.42811 0
M  V30 9690 C 934.381 -2.49053 -2.29544 0
M  V30 9691 C 933.427 -3.70409 -2.11423 0
M  V30 9692 S 934.26 -5.16715 -1.40593 0
M  V30 9693 C 935.416 -5.62864 -2.73742 0
M  V30 9694 H 935.649 -2.91913 -0.5634 0
M  V30 9695 H 933.182 -1.53404 -0.175111 0
M  V30 9696 H 935.14 -2.74403 -3.05308 0
M  V30 9697 H 933.801 -1.63677 -2.68083 0
M  V30 9698 H 932.994 -3.98262 -3.08875 0
M  V30 9699 H 932.596 -3.4525 -1.438 0
M  V30 9700 H 934.888 -5.67571 -3.69958 0
M  V30 9701 H 935.831 -6.62294 -2.50544 0
M  V30 9702 H 936.239 -4.90539 -2.79341 0
M  V30 9703 N 935.637 0.236453 -1.55816 0
M  V30 9704 C 936.862 0.98449 -1.82545 0
M  V30 9705 C 937.287 1.77755 -0.615206 0
M  V30 9706 O 936.645 1.75982 0.435895 0
M  V30 9707 C 936.693 1.88973 -3.07118 0
M  V30 9708 O 935.797 2.98298 -2.84766 0
M  V30 9709 H 935.138 0.279577 -0.602273 0
M  V30 9710 H 937.668 0.254277 -2.03014 0
M  V30 9711 H 937.678 2.3024 -3.36829 0
M  V30 9712 H 936.353 1.30671 -3.94839 0
M  V30 9713 H 934.93 2.61085 -2.6625 0
M  V30 9714 N 937.115 1.49373 0.502552 0
M  V30 9715 C 938.361 1.59016 1.25864 0
M  V30 9716 C 938.694 0.27532 1.92238 0
M  V30 9717 O 937.969 -0.720988 1.80643 0
M  V30 9718 C 938.252 2.74828 2.32683 0
M  V30 9719 C 938.105 4.16102 1.7082 0
M  V30 9720 C 939.424 2.86288 3.34256 0
M  V30 9721 H 936.543 0.578798 0.456248 0
M  V30 9722 H 939.185 1.81651 0.557032 0
M  V30 9723 H 937.335 2.5566 2.92524 0
M  V30 9724 H 939.007 4.46782 1.14818 0
M  V30 9725 H 937.25 4.21822 1.01238 0
M  V30 9726 H 937.921 4.93006 2.48292 0
M  V30 9727 H 940.397 3.03733 2.84404 0
M  V30 9728 H 939.273 3.69001 4.06362 0
M  V30 9729 H 939.534 1.95576 3.96488 0
M  V30 9730 N 938.594 -0.753485 1.38421 0
M  V30 9731 C 939.504 -1.89797 1.37892 0
M  V30 9732 C 940.52 -1.71797 0.276023 0
M  V30 9733 O 941.696 -1.94718 0.514464 0
M  V30 9734 C 938.761 -3.25166 1.20284 0
M  V30 9735 C 937.822 -3.55691 2.4038 0
M  V30 9736 C 937.055 -4.84601 2.23602 0
M  V30 9737 O 937.278 -5.56985 1.22979 0
M  V30 9738 O 936.212 -5.14605 3.12194 0
M  V30 9739 H 940.038 -1.93197 2.34326 0
M  V30 9740 H 937.623 -0.898775 1.19342 0
M  V30 9741 H 939.505 -4.06099 1.12525 0
M  V30 9742 H 938.18 -3.22577 0.269352 0
M  V30 9743 H 937.087 -2.74919 2.53714 0
M  V30 9744 H 938.42 -3.6304 3.32359 0
M  V30 9745 N 940.072 -1.23292 -0.981677 0
M  V30 9746 C 941.297 -1.09176 -1.76339 0
M  V30 9747 C 941.722 0.352726 -1.84763 0
M  V30 9748 O 941.08 1.25509 -1.30832 0
M  V30 9749 C 941.128 -1.72046 -3.16911 0
M  V30 9750 O 940.232 -0.98174 -4.00544 0
M  V30 9751 H 939.573 -0.382755 -0.542581 0
M  V30 9752 H 942.103 -1.63319 -1.23239 0
M  V30 9753 H 942.113 -1.77232 -3.67495 0
M  V30 9754 H 940.788 -2.77154 -3.10095 0
M  V30 9755 H 939.365 -1.00672 -3.59054 0
M  V30 9756 N 941.55 1.18024 -1.04442 0
M  V30 9757 C 942.797 1.88098 -0.750022 0
M  V30 9758 C 943.125 1.80583 0.722489 0
M  V30 9759 O 942.38 1.20329 1.54335 0
M  V30 9760 C 942.679 3.37834 -1.16631 0
M  V30 9761 C 942.345 3.65553 -2.63974 0
M  V30 9762 C 941.007 3.72827 -3.04226 0
M  V30 9763 C 943.359 3.77634 -3.59224 0
M  V30 9764 C 940.687 3.89666 -4.38608 0
M  V30 9765 C 943.039 3.9599 -4.9333 0
M  V30 9766 C 941.703 4.01501 -5.33248 0
M  V30 9767 H 940.973 0.6883 -0.274452 0
M  V30 9768 H 943.62 1.39671 -1.31012 0
M  V30 9769 H 941.925 3.88266 -0.525071 0
M  V30 9770 H 943.622 3.90402 -0.915827 0
M  V30 9771 H 940.212 3.6051 -2.31798 0
M  V30 9772 H 944.396 3.71342 -3.2927 0
M  V30 9773 H 939.652 3.92178 -4.69048 0
M  V30 9774 H 943.826 4.0428 -5.67037 0
M  V30 9775 H 941.453 4.14301 -6.37384 0
M  V30 9776 N 943.028 0.824394 1.34319 0
M  V30 9777 C 943.958 0.262077 2.32025 0
M  V30 9778 C 944.939 -0.622277 1.58309 0
M  V30 9779 O 946.124 -0.548848 1.86283 0
M  V30 9780 C 943.254 -0.57567 3.42496 0
M  V30 9781 C 942.208 0.21167 4.27476 0
M  V30 9782 C 941.534 -0.748913 5.29429 0
M  V30 9783 C 942.834 1.42068 5.02607 0
M  V30 9784 H 944.528 1.07842 2.79304 0
M  V30 9785 H 942.074 0.520022 1.34282 0
M  V30 9786 H 944.027 -0.979251 4.09864 0
M  V30 9787 H 942.751 -1.42508 2.93869 0
M  V30 9788 H 941.41 0.596636 3.61712 0
M  V30 9789 H 941.058 -1.59432 4.77064 0
M  V30 9790 H 940.758 -0.226313 5.87164 0
M  V30 9791 H 942.282 -1.15032 5.99667 0
M  V30 9792 H 943.696 1.09103 5.62823 0
M  V30 9793 H 942.093 1.87903 5.69923 0
M  V30 9794 H 943.163 2.1981 4.32217 0
M  V30 9795 N 944.506 -1.46559 0.579492 0
M  V30 9796 C 945.754 -2.02 0.0637157 0
M  V30 9797 C 946.075 -1.45378 -1.29962 0
M  V30 9798 O 945.345 -0.637262 -1.85245 0
M  V30 9799 H 943.925 -0.746717 0.0205638 0
M  V30 9800 H 946.587 -1.79702 0.754544 0
M  V30 9801 H 945.683 -3.12099 -0.00770254 0
M  V30 9802 N 945.984 -0.3171 -1.54377 0
M  V30 9803 C 947.4 0.035766 -1.5956 0
M  V30 9804 C 947.6 1.51038 -1.33378 0
M  V30 9805 O 946.656 2.26546 -1.11505 0
M  V30 9806 C 947.969 -0.376652 -2.98332 0
M  V30 9807 C 949.517 -0.326765 -3.1129 0
M  V30 9808 C 949.992 -0.714247 -4.52396 0
M  V30 9809 N 951.483 -0.667402 -4.58367 0
M  V30 9810 C 952.218 -0.939494 -5.65651 0
M  V30 9811 N 951.714 -1.27839 -6.80903 0
M  V30 9812 N 953.507 -0.865484 -5.55397 0
M  V30 9813 H 945.658 -1.27794 -1.69654 0
M  V30 9814 H 947.921 -0.5192 -0.79318 0
M  V30 9815 H 947.627 -1.40381 -3.22469 0
M  V30 9816 H 947.501 0.261611 -3.76292 0
M  V30 9817 H 949.888 0.69117 -2.86892 0
M  V30 9818 H 949.969 -0.999873 -2.35449 0
M  V30 9819 H 949.613 -1.73007 -4.77526 0
M  V30 9820 H 949.543 -0.0188962 -5.26597 0
M  V30 9821 H 952.034 -0.417062 -3.75592 0
M  V30 9822 H 952.347 -1.47155 -7.5866 0
M  V30 9823 H 950.692 -1.31658 -6.82416 0
M  V30 9824 H 953.883 -0.600265 -4.64235 0
M  V30 9825 H 954.056 -1.0809 -6.38921 0
M  V30 9826 N 947.462 1.57535 -0.0451378 0
M  V30 9827 C 948.687 1.97172 0.64326 0
M  V30 9828 C 949.112 0.922266 1.63939 0
M  V30 9829 O 948.47 -0.115155 1.80934 0
M  V30 9830 C 948.518 3.35889 1.3119 0
M  V30 9831 O 947.622 3.33387 2.42748 0
M  V30 9832 H 946.963 0.642469 0.167719 0
M  V30 9833 H 949.493 2.04295 -0.111747 0
M  V30 9834 H 949.503 3.72481 1.66499 0
M  V30 9835 H 948.178 4.1181 0.581823 0
M  V30 9836 H 946.755 3.08533 2.09432 0
M  V30 9837 N 948.94 -0.228186 1.55939 0
M  V30 9838 C 950.188 -0.951668 1.78291 0
M  V30 9839 C 950.509 -1.85132 0.612474 0
M  V30 9840 O 949.779 -1.92356 -0.370942 0
M  V30 9841 H 948.359 -0.354388 0.657585 0
M  V30 9842 H 951.021 -0.241635 1.93396 0
M  V30 9843 H 950.117 -1.56239 2.70177 0
M  V30 9844 N 950.418 -1.49637 -0.494624 0
M  V30 9845 C 951.658 -1.61067 -1.25844 0
M  V30 9846 C 952.022 -0.293666 -1.89741 0
M  V30 9847 O 953.223 -0.283202 -2.67304 0
M  V30 9848 C 951.494 -2.74218 -2.29215 0
M  V30 9849 S 953.053 -3.05639 -3.1485 0
M  V30 9850 H 949.871 -0.568056 -0.42759 0
M  V30 9851 H 952.473 -1.87323 -0.559491 0
M  V30 9852 H 951.177 -3.68422 -1.80813 0
M  V30 9853 H 950.708 -2.49975 -3.0377 0
M  V30 9854 H 952.723 -2.47651 -4.29981 0
M  V30 9855 N 951.896 0.746133 -1.38819 0
M  V30 9856 C 953.145 1.50085 -1.34749 0
M  V30 9857 C 953.458 1.95516 0.0574786 0
M  V30 9858 O 954.664 2.70601 0.22073 0
M  V30 9859 C 953.12 2.71141 -2.36665 0
M  V30 9860 C 952.728 2.32706 -3.82821 0
M  V30 9861 C 954.472 3.49005 -2.41652 0
M  V30 9862 C 952.379 3.50418 -4.76405 0
M  V30 9863 H 951.309 0.563563 -0.500912 0
M  V30 9864 H 953.96 0.814951 -1.6441 0
M  V30 9865 H 952.342 3.4175 -2.00058 0
M  V30 9866 H 953.516 1.69715 -4.28408 0
M  V30 9867 H 951.831 1.67959 -3.81023 0
M  V30 9868 H 954.428 4.36541 -3.08766 0
M  V30 9869 H 954.771 3.90687 -1.43769 0
M  V30 9870 H 955.304 2.85416 -2.77097 0
M  V30 9871 H 952.043 3.13795 -5.75511 0
M  V30 9872 H 951.563 4.12426 -4.35505 0
M  V30 9873 H 953.242 4.16901 -4.94775 0
M  V30 9874 N 953.375 1.23811 0.975125 0
M  V30 9875 C 954.325 0.991036 2.05335 0
M  V30 9876 C 955.309 -0.0648793 1.60769 0
M  V30 9877 O 956.501 0.147917 1.76381 0
M  V30 9878 C 953.63 0.589822 3.38195 0
M  V30 9879 C 952.716 1.68142 3.89344 0
M  V30 9880 N 953.107 2.91274 4.13513 0
M  V30 9881 C 951.405 1.55722 4.17931 0
M  V30 9882 C 952.106 3.61987 4.55347 0
M  V30 9883 N 951.082 2.8952 4.60086 0
M  V30 9884 H 954.884 1.92612 2.21986 0
M  V30 9885 H 952.398 1.13827 1.15832 0
M  V30 9886 H 954.395 0.394075 4.15033 0
M  V30 9887 H 953.055 -0.338157 3.22934 0
M  V30 9888 H 954.066 3.27528 4.01181 0
M  V30 9889 H 950.743 0.696732 4.11645 0
M  V30 9890 H 952.133 4.67572 4.8252 0
M  V30 9891 N 954.853 -1.17469 1.05066 0
M  V30 9892 C 955.763 -2.25089 0.661222 0
M  V30 9893 C 956.779 -1.71086 -0.31712 0
M  V30 9894 O 957.955 -2.00685 -0.169534 0
M  V30 9895 C 955.02 -3.46676 0.0406415 0
M  V30 9896 C 954.081 -4.15771 1.06927 0
M  V30 9897 C 953.314 -5.31553 0.478208 0
M  V30 9898 O 953.537 -5.6593 -0.712714 0
M  V30 9899 O 952.471 -5.89574 1.21185 0
M  V30 9900 H 956.297 -2.60685 1.5581 0
M  V30 9901 H 953.882 -1.24744 0.822147 0
M  V30 9902 H 955.764 -4.203 -0.304312 0
M  V30 9903 H 954.439 -3.1288 -0.829909 0
M  V30 9904 H 953.346 -3.44171 1.46619 0
M  V30 9905 H 954.679 -4.53591 1.91092 0
M  V30 9906 N 956.331 -0.831506 -1.3388 0
M  V30 9907 C 957.556 -0.435954 -2.02766 0
M  V30 9908 C 957.981 0.952889 -1.62178 0
M  V30 9909 O 957.339 1.62166 -0.810681 0
M  V30 9910 C 957.387 -0.555907 -3.56289 0
M  V30 9911 O 956.491 0.420826 -4.10247 0
M  V30 9912 H 955.832 -0.178248 -0.639628 0
M  V30 9913 H 958.362 -1.1243 -1.70941 0
M  V30 9914 H 958.372 -0.434831 -4.05676 0
M  V30 9915 H 957.047 -1.56881 -3.85177 0
M  V30 9916 H 955.624 0.257919 -3.72007 0
M  V30 9917 N 957.809 1.4625 -0.587256 0
M  V30 9918 C 959.055 2.02662 -0.0746851 0
M  V30 9919 C 959.388 1.45723 1.28368 0
M  V30 9920 O 958.663 0.624062 1.84216 0
M  V30 9921 C 958.946 3.60097 -0.0138109 0
M  V30 9922 C 958.799 4.27412 -1.4014 0
M  V30 9923 C 960.118 4.34744 0.684491 0
M  V30 9924 H 957.237 0.736444 -0.0286144 0
M  V30 9925 H 959.879 1.74341 -0.755328 0
M  V30 9926 H 958.029 3.84357 0.56583 0
M  V30 9927 H 959.701 4.14401 -2.02656 0
M  V30 9928 H 957.944 3.86598 -1.96785 0
M  V30 9929 H 958.615 5.362 -1.31124 0
M  V30 9930 H 961.091 4.15657 0.192023 0
M  V30 9931 H 959.967 5.44468 0.696127 0
M  V30 9932 H 960.228 4.06132 1.74669 0
M  V30 9933 N 959.287 0.325282 1.54207 0
M  V30 9934 C 960.217 -0.532574 2.27345 0
M  V30 9935 C 961.198 -1.11791 1.28206 0
M  V30 9936 O 962.383 -1.14272 1.57021 0
M  V30 9937 C 959.513 -1.69274 3.03255 0
M  V30 9938 C 958.467 -1.23662 4.09746 0
M  V30 9939 C 957.793 -2.48386 4.73506 0
M  V30 9940 C 959.093 -0.350244 5.21124 0
M  V30 9941 H 960.787 0.0775108 2.993 0
M  V30 9942 H 958.333 0.0387193 1.43948 0
M  V30 9943 H 960.286 -2.29917 3.53152 0
M  V30 9944 H 959.01 -2.32944 2.28921 0
M  V30 9945 H 957.669 -0.653106 3.60735 0
M  V30 9946 H 957.317 -3.10424 3.95786 0
M  V30 9947 H 957.017 -2.18558 5.45441 0
M  V30 9948 H 958.541 -3.09789 5.26178 0
M  V30 9949 H 959.955 -0.863011 5.66767 0
M  V30 9950 H 958.352 -0.14466 5.99926 0
M  V30 9951 H 959.422 0.618457 4.8094 0
M  V30 9952 N 960.765 -1.57509 0.0534917 0
M  V30 9953 C 962.042 -1.84137 -0.659767 0
M  V30 9954 C 962.422 -0.942362 -1.88899 0
M  V30 9955 O 961.77 -0.00398566 -2.285 0
M  V30 9956 C 961.98 -3.33919 -1.01486 0
M  V30 9957 C 963.328 -4.00989 -1.39616 0
M  V30 9958 O 964.352 -3.38557 -1.10713 0
M  V30 9959 O 963.211 -5.11071 -1.93567 0
M  V30 9960 H 960.305 -0.760081 -0.325893 0
M  V30 9961 H 962.851 -1.69497 0.0830315 0
M  V30 9962 H 961.623 -3.91046 -0.141041 0
M  V30 9963 H 961.246 -3.53755 -1.81503 0
M  V30 9964 N 962.243 0.219913 -1.56058 0
M  V30 9965 C 963.492 0.942119 -1.78345 0
M  V30 9966 C 963.805 1.85435 -0.622344 0
M  V30 9967 O 965.011 2.61533 -0.728886 0
M  V30 9968 C 963.467 1.72544 -3.15843 0
M  V30 9969 C 963.075 0.859263 -4.39682 0
M  V30 9970 C 964.819 2.43876 -3.47455 0
M  V30 9971 C 962.726 1.64003 -5.68205 0
M  V30 9972 H 961.656 0.355514 -0.664925 0
M  V30 9973 H 964.307 0.195963 -1.82451 0
M  V30 9974 H 962.689 2.51456 -3.05918 0
M  V30 9975 H 963.863 0.110562 -4.60667 0
M  V30 9976 H 962.178 0.257985 -4.156 0
M  V30 9977 H 964.775 3.02794 -4.40704 0
M  V30 9978 H 965.118 3.16843 -2.7003 0
M  V30 9979 H 965.651 1.71952 -3.58716 0
M  V30 9980 H 962.39 0.953606 -6.48526 0
M  V30 9981 H 961.91 2.3633 -5.51279 0
M  V30 9982 H 963.589 2.20028 -6.08438 0
M  V30 9983 N 963.721 1.49897 0.486681 0
M  V30 9984 C 964.967 1.60342 1.2417 0
M  V30 9985 C 965.3 0.295694 1.91936 0
M  V30 9986 O 964.575 -0.701788 1.81398 0
M  V30 9987 C 964.858 2.77281 2.29755 0
M  V30 9988 C 964.711 4.1789 1.66397 0
M  V30 9989 C 966.03 2.89817 3.31201 0
M  V30 9990 H 963.149 0.583605 0.450083 0
M  V30 9991 H 965.791 1.82232 0.537734 0
M  V30 9992 H 963.941 2.58748 2.89796 0
M  V30 9993 H 965.613 4.47975 1.10073 0
M  V30 9994 H 963.856 4.22872 0.967579 0
M  V30 9995 H 964.527 4.95612 2.43049 0
M  V30 9996 H 967.003 3.06732 2.81167 0
M  V30 9997 H 965.879 3.7329 4.02425 0
M  V30 9998 H 966.14 1.9977 3.94391 0
M  V30 9999 N 965.199 -0.738761 1.39212 0
M  V30 10000 C 966.476 -1.48982 1.26742 0
M  V30 10001 C 966.856 -2.10732 -0.12466 0
M  V30 10002 O 966.204 -1.98287 -1.13554 0
M  V30 10003 C 966.414 -2.54427 2.38889 0
M  V30 10004 C 967.762 -3.20915 2.78027 0
M  V30 10005 O 968.786 -2.64738 2.38311 0
M  V30 10006 O 967.645 -4.22558 3.46565 0
M  V30 10007 H 964.739 -0.661395 0.496473 0
M  V30 10008 H 967.285 -0.772907 1.51077 0
M  V30 10009 H 966.057 -2.07151 3.3197 0
M  V30 10010 H 965.68 -3.33682 2.162 0
M  V30 10011 N 966.677 -1.24326 -0.968545 0
M  V30 10012 C 967.625 -1.03256 -2.08425 0
M  V30 10013 C 968.619 0.0322356 -1.69369 0
M  V30 10014 O 969.825 -0.122251 -1.79584 0
M  V30 10015 H 966.2 -0.31688 -0.681976 0
M  V30 10016 H 968.171 -1.97873 -2.23358 0
M  V30 10017 C 966.92 -0.653144 -3.4151 0
M  V30 10018 H 966.243 -1.46424 -3.72021 0
M  V30 10019 H 967.683 -0.545316 -4.20479 0
M  V30 10020 C 966.142 0.639674 -3.30771 0
M  V30 10021 O 966.672 1.68563 -3.64622 0
M  V30 10022 N 964.878 0.620074 -2.83907 0
M  V30 10023 H 964.425 -0.231449 -2.56558 0
M  V30 10024 H 964.383 1.48528 -2.77104 0
M  V30 10025 N 968.156 1.1691 -1.05688 0
M  V30 10026 C 969.386 1.90927 -0.789339 0
M  V30 10027 C 969.794 1.77339 0.659369 0
M  V30 10028 O 969.137 1.11147 1.4626 0
M  V30 10029 C 969.199 3.42361 -1.09677 0
M  V30 10030 C 968.863 3.79733 -2.54267 0
M  V30 10031 C 969.86 3.82163 -3.52487 0
M  V30 10032 C 967.545 4.10547 -2.89406 0
M  V30 10033 C 969.539 4.14884 -4.8389 0
M  V30 10034 C 967.226 4.42936 -4.21011 0
M  V30 10035 C 968.224 4.45084 -5.18063 0
M  V30 10036 O 967.912 4.76707 -6.47307 0
M  V30 10037 H 967.644 0.612466 -0.286115 0
M  V30 10038 H 970.198 1.4916 -1.4121 0
M  V30 10039 H 968.428 3.84446 -0.416924 0
M  V30 10040 H 970.117 3.97645 -0.814456 0
M  V30 10041 H 970.883 3.58476 -3.26681 0
M  V30 10042 H 966.762 4.08044 -2.14525 0
M  V30 10043 H 970.306 4.16475 -5.59638 0
M  V30 10044 H 966.203 4.66088 -4.46579 0
M  V30 10045 H 966.971 4.94544 -6.52203 0
M  V30 10046 N 969.634 0.838594 1.33437 0
M  V30 10047 C 970.582 0.260158 2.31141 0
M  V30 10048 C 971.576 -0.607706 1.58124 0
M  V30 10049 O 972.782 -0.497298 1.72994 0
M  V30 10050 H 969.157 0.0654031 0.74915 0
M  V30 10051 H 971.128 1.09874 2.77435 0
M  V30 10052 C 969.877 -0.550234 3.43319 0
M  V30 10053 H 969.2 0.108262 3.99653 0
M  V30 10054 H 970.64 -0.920815 4.1388 0
M  V30 10055 C 969.099 -1.729 2.89149 0
M  V30 10056 O 969.629 -2.82769 2.85315 0
M  V30 10057 N 967.835 -1.5508 2.45761 0
M  V30 10058 H 967.382 -0.657055 2.49079 0
M  V30 10059 H 967.34 -2.34099 2.0987 0
M  V30 10060 N 971.112 -1.45937 0.595003 0
M  V30 10061 C 972.389 -1.95592 0.0178748 0
M  V30 10062 C 972.769 -1.53758 -1.44643 0
M  V30 10063 O 972.117 -0.794104 -2.14257 0
M  V30 10064 C 972.327 -3.4841 0.202789 0
M  V30 10065 C 973.675 -4.2453 0.0770121 0
M  V30 10066 O 974.699 -3.55954 0.132257 0
M  V30 10067 O 973.558 -5.46479 -0.0484271 0
M  V30 10068 H 970.652 -0.825888 -0.0428702 0
M  V30 10069 H 973.198 -1.56162 0.664184 0
M  V30 10070 H 971.97 -3.71787 1.22027 0
M  V30 10071 H 971.593 -3.947 -0.479376 0
M  V30 10072 N 972.59 -0.333456 -1.54032 0
M  V30 10073 C 973.522 0.562174 -2.22199 0
M  V30 10074 C 974.535 1.07202 -1.22522 0
M  V30 10075 O 975.724 0.983897 -1.48935 0
M  V30 10076 C 972.824 1.78525 -2.88066 0
M  V30 10077 C 971.997 1.41242 -4.13968 0
M  V30 10078 C 971.056 2.49408 -4.63338 0
M  V30 10079 O 970.082 2.13138 -5.27789 0
M  V30 10080 N 971.284 3.805 -4.38406 0
M  V30 10081 H 974.049 -0.0215629 -2.99692 0
M  V30 10082 H 971.61 -0.157111 -1.61136 0
M  V30 10083 H 973.602 2.50298 -3.18014 0
M  V30 10084 H 972.172 2.2766 -2.14219 0
M  V30 10085 H 971.392 0.525887 -3.90676 0
M  V30 10086 H 972.68 1.13916 -4.95884 0
M  V30 10087 H 972.078 4.12761 -3.86839 0
M  V30 10088 H 970.635 4.48474 -4.72984 0
M  V30 10089 N 974.068 1.57479 -0.061844 0
M  V30 10090 C 975.293 1.97843 0.622311 0
M  V30 10091 C 975.718 0.939602 1.62951 0
M  V30 10092 O 975.076 -0.095958 1.81046 0
M  V30 10093 C 975.124 3.37262 1.2762 0
M  V30 10094 O 974.228 3.35943 2.39199 0
M  V30 10095 H 973.569 0.644212 0.160896 0
M  V30 10096 H 976.099 2.04165 -0.133409 0
M  V30 10097 H 976.109 3.74226 1.62539 0
M  V30 10098 H 974.784 4.12404 0.538112 0
M  V30 10099 H 973.361 3.10737 2.06148 0
M  V30 10100 N 975.546 -0.211634 1.56173 0
M  V30 10101 C 976.793 -0.93455 1.79645 0
M  V30 10102 C 977.121 -1.83936 0.632294 0
M  V30 10103 O 976.376 -1.91919 -0.382841 0
M  V30 10104 C 976.675 -1.79657 3.08963 0
M  V30 10105 C 976.341 -1.04415 4.38644 0
M  V30 10106 C 975.003 -0.836351 4.73876 0
M  V30 10107 C 977.355 -0.51355 5.18664 0
M  V30 10108 C 974.683 -0.0861976 5.86637 0
M  V30 10109 C 977.035 0.223309 6.32206 0
M  V30 10110 C 975.699 0.442279 6.66033 0
M  V30 10111 H 974.969 -0.341976 0.657368 0
M  V30 10112 H 977.616 -0.202024 1.90431 0
M  V30 10113 H 975.921 -2.59726 2.93342 0
M  V30 10114 H 977.618 -2.35823 3.24328 0
M  V30 10115 H 974.208 -1.21611 4.10985 0
M  V30 10116 H 978.392 -0.661541 4.91871 0
M  V30 10117 H 973.648 0.0935866 6.11328 0
M  V30 10118 H 977.822 0.641917 6.93435 0
M  V30 10119 H 975.449 1.02547 7.53252 0
M  V30 10120 N 977.024 -1.50153 -0.478725 0
M  V30 10121 C 978.252 -1.64505 -1.25482 0
M  V30 10122 C 978.667 -0.325295 -1.85977 0
M  V30 10123 O 978.024 0.691885 -1.68876 0
M  V30 10124 C 978.075 -2.73052 -2.36906 0
M  V30 10125 O 977.796 -3.99911 -1.78894 0
M  V30 10126 C 979.297 -2.98309 -3.27912 0
M  V30 10127 H 976.517 -0.55318 -0.379781 0
M  V30 10128 H 979.061 -1.96329 -0.57229 0
M  V30 10129 H 977.216 -2.43944 -3.00949 0
M  V30 10130 H 977.63 -4.5988 -2.52211 0
M  V30 10131 H 979.104 -3.77942 -4.02323 0
M  V30 10132 H 979.581 -2.09082 -3.8624 0
M  V30 10133 H 980.187 -3.2892 -2.69614 0
M  V30 10134 N 978.502 0.731368 -1.39602 0
M  V30 10135 C 979.449 1.84541 -1.38612 0
M  V30 10136 C 980.419 1.64279 -0.245287 0
M  V30 10137 O 981.604 1.85635 -0.440954 0
M  V30 10138 C 978.744 3.22092 -1.23897 0
M  V30 10139 C 977.857 3.54034 -2.47555 0
M  V30 10140 C 976.992 4.81007 -2.25402 0
M  V30 10141 C 976.031 5.05804 -3.44716 0
M  V30 10142 N 975.168 6.23981 -3.21857 0
M  V30 10143 H 980.008 1.84722 -2.33841 0
M  V30 10144 H 977.545 0.902569 -1.16156 0
M  V30 10145 H 979.503 4.01499 -1.13376 0
M  V30 10146 H 978.133 3.2118 -0.322958 0
M  V30 10147 H 977.185 2.69301 -2.68665 0
M  V30 10148 H 978.497 3.68275 -3.36415 0
M  V30 10149 H 977.651 5.68401 -2.12143 0
M  V30 10150 H 976.39 4.68946 -1.33943 0
M  V30 10151 H 975.395 4.1687 -3.58468 0
M  V30 10152 H 976.62 5.19747 -4.37081 0
M  V30 10153 H 974.566 6.13202 -2.33065 0
M  V30 10154 H 974.483 6.38826 -4.04274 0
M  V30 10155 H 975.751 7.14205 -3.123 0
M  V30 10156 N 979.98 1.24838 0.961938 0
M  V30 10157 C 981.226 1.10321 1.70883 0
M  V30 10158 C 981.581 -0.353397 1.89127 0
M  V30 10159 O 980.874 -1.25721 1.44584 0
M  V30 10160 C 981.068 1.78289 3.09754 0
M  V30 10161 C 980.897 3.30409 3.05057 0
M  V30 10162 C 979.667 3.9964 3.09218 0
M  V30 10163 C 981.865 4.26916 2.86787 0
M  V30 10164 N 979.847 5.38594 2.94601 0
M  V30 10165 C 981.218 5.52906 2.80526 0
M  V30 10166 C 983.273 4.17421 2.71412 0
M  V30 10167 C 981.976 6.70487 2.60461 0
M  V30 10168 C 984.002 5.34686 2.52715 0
M  V30 10169 C 983.364 6.59611 2.47168 0
M  V30 10170 H 979.463 0.458353 0.63359 0
M  V30 10171 H 982.047 1.57835 1.14001 0
M  V30 10172 H 980.218 1.33281 3.64816 0
M  V30 10173 H 981.95 1.5658 3.73182 0
M  V30 10174 H 978.705 3.50847 3.18125 0
M  V30 10175 H 979.129 6.11497 2.90517 0
M  V30 10176 H 983.771 3.21592 2.74479 0
M  V30 10177 H 981.489 7.66433 2.56136 0
M  V30 10178 H 985.075 5.29194 2.41754 0
M  V30 10179 H 983.955 7.48821 2.32888 0
M  V30 10180 N 981.458 -1.16348 1.06306 0
M  V30 10181 C 982.406 -2.22799 0.668087 0
M  V30 10182 C 983.4 -1.66426 -0.316051 0
M  V30 10183 O 984.606 -1.79089 -0.180902 0
M  V30 10184 H 980.981 -0.725487 0.19792 0
M  V30 10185 H 982.952 -2.53401 1.57577 0
M  V30 10186 C 981.701 -3.47628 0.0706797 0
M  V30 10187 H 981.024 -3.9132 0.819064 0
M  V30 10188 H 982.464 -4.23666 -0.16816 0
M  V30 10189 C 980.923 -3.15343 -1.18577 0
M  V30 10190 O 981.453 -3.31158 -2.27371 0
M  V30 10191 N 979.659 -2.69472 -1.08779 0
M  V30 10192 H 979.206 -2.56803 -0.202447 0
M  V30 10193 H 979.164 -2.48244 -1.92931 0
M  V30 10194 N 982.937 -0.845659 -1.3299 0
M  V30 10195 C 984.186 -0.440928 -1.96822 0
M  V30 10196 C 984.499 1.00668 -1.67706 0
M  V30 10197 O 985.705 1.51641 -2.25205 0
M  V30 10198 C 984.161 -0.73752 -3.52262 0
M  V30 10199 C 983.769 -2.20026 -3.90247 0
M  V30 10200 C 985.513 -0.400072 -4.22611 0
M  V30 10201 C 983.42 -2.44054 -5.38694 0
M  V30 10202 H 982.35 -0.161148 -0.736578 0
M  V30 10203 H 985.001 -1.03519 -1.51513 0
M  V30 10204 H 983.383 -0.0728025 -3.95933 0
M  V30 10205 H 984.557 -2.90602 -3.57613 0
M  V30 10206 H 982.872 -2.50135 -3.32899 0
M  V30 10207 H 985.469 -0.557136 -5.3179 0
M  V30 10208 H 985.812 0.657547 -4.11074 0
M  V30 10209 H 986.345 -1.0203 -3.84493 0
M  V30 10210 H 983.084 -3.48407 -5.55241 0
M  V30 10211 H 982.604 -1.78047 -5.72765 0
M  V30 10212 H 984.283 -2.27549 -6.05665 0
M  V30 10213 N 984.415 1.45619 -0.602734 0
M  V30 10214 C 985.363 2.32228 0.131484 0
M  V30 10215 C 986.357 1.45681 0.864484 0
M  V30 10216 O 987.563 1.62193 0.7806 0
M  V30 10217 H 983.938 0.7495 0.0612638 0
M  V30 10218 H 985.909 2.91941 -0.617496 0
M  V30 10219 C 984.658 3.29213 1.11866 0
M  V30 10220 H 983.981 3.95801 0.564061 0
M  V30 10221 H 985.421 3.92554 1.60242 0
M  V30 10222 C 983.88 2.56028 2.18978 0
M  V30 10223 O 984.41 2.33806 3.26646 0
M  V30 10224 N 982.616 2.16245 1.94129 0
M  V30 10225 H 982.163 2.34518 1.06579 0
M  V30 10226 H 982.121 1.67601 2.66003 0
M  V30 10227 N 985.893 0.34162 1.53853 0
M  V30 10228 C 986.823 -0.508431 2.27897 0
M  V30 10229 C 987.804 -1.10425 1.29384 0
M  V30 10230 O 988.989 -1.126 1.58224 0
M  V30 10231 C 986.119 -1.66048 3.05034 0
M  V30 10232 C 985.073 -1.19309 4.11035 0
M  V30 10233 C 984.399 -2.4335 4.76114 0
M  V30 10234 C 985.699 -0.294952 5.21467 0
M  V30 10235 H 987.393 0.109251 2.99201 0
M  V30 10236 H 984.939 0.0539847 1.43899 0
M  V30 10237 H 986.892 -2.26158 3.5557 0
M  V30 10238 H 985.616 -2.30503 2.31379 0
M  V30 10239 H 984.275 -0.614809 3.61408 0
M  V30 10240 H 983.923 -3.06208 3.99056 0
M  V30 10241 H 983.623 -2.1276 5.47729 0
M  V30 10242 H 985.147 -3.0419 5.29434 0
M  V30 10243 H 986.561 -0.80285 5.67651 0
M  V30 10244 H 984.958 -0.0810221 6.00045 0
M  V30 10245 H 986.028 0.669433 4.80257 0
M  V30 10246 N 987.371 -1.57444 0.0701946 0
M  V30 10247 C 988.303 -2.09611 -0.927142 0
M  V30 10248 C 989.316 -1.02791 -1.26245 0
M  V30 10249 O 990.505 -1.30309 -1.21992 0
M  V30 10250 C 987.605 -2.54015 -2.24342 0
M  V30 10251 C 986.778 -3.84389 -2.08719 0
M  V30 10252 C 985.837 -4.14904 -3.23638 0
M  V30 10253 O 984.863 -4.84528 -2.98699 0
M  V30 10254 N 986.065 -3.68322 -4.48686 0
M  V30 10255 H 988.83 -2.95803 -0.481753 0
M  V30 10256 H 986.391 -1.61487 -0.115572 0
M  V30 10257 H 988.383 -2.71492 -3.00124 0
M  V30 10258 H 986.953 -1.72969 -2.60385 0
M  V30 10259 H 986.173 -3.76308 -1.17415 0
M  V30 10260 H 987.461 -4.69729 -1.9553 0
M  V30 10261 H 986.859 -3.12073 -4.71834 0
M  V30 10262 H 985.416 -3.91002 -5.21499 0
M  V30 10263 N 988.849 0.203349 -1.56283 0
M  V30 10264 C 989.759 1.27266 -1.9708 0
M  V30 10265 C 990.775 1.50268 -0.877236 0
M  V30 10266 O 991.951 1.63044 -1.18231 0
M  V30 10267 C 989.016 2.59871 -2.29495 0
M  V30 10268 C 988.077 2.45012 -3.52516 0
M  V30 10269 C 987.31 3.71293 -3.83376 0
M  V30 10270 O 987.533 4.75106 -3.15643 0
M  V30 10271 O 986.467 3.67316 -4.76826 0
M  V30 10272 H 990.293 0.956461 -2.88246 0
M  V30 10273 H 987.878 0.407688 -1.4373 0
M  V30 10274 H 989.76 3.38152 -2.51458 0
M  V30 10275 H 988.435 2.91135 -1.415 0
M  V30 10276 H 987.342 1.6487 -3.35811 0
M  V30 10277 H 988.675 2.18683 -4.40952 0
M  V30 10278 N 990.327 1.50405 0.470755 0
M  V30 10279 C 991.26 1.63933 1.58749 0
M  V30 10280 C 992.238 0.487444 1.55122 0
M  V30 10281 O 993.422 0.706992 1.74739 0
M  V30 10282 C 990.549 1.62222 2.97324 0
M  V30 10283 C 989.595 2.82975 3.19104 0
M  V30 10284 S 990.428 4.44272 2.98969 0
M  V30 10285 C 991.584 4.45254 4.39886 0
M  V30 10286 H 991.817 2.58396 1.47034 0
M  V30 10287 H 989.35 1.39672 0.658115 0
M  V30 10288 H 991.308 1.6192 3.77217 0
M  V30 10289 H 989.969 0.689944 3.06429 0
M  V30 10290 H 989.162 2.78083 4.2034 0
M  V30 10291 H 988.764 2.80846 2.46984 0
M  V30 10292 H 991.056 4.18837 5.32524 0
M  V30 10293 H 991.999 5.4687 4.49821 0
M  V30 10294 H 992.407 3.74958 4.2198 0
M  V30 10295 N 991.805 -0.723954 1.39988 0
M  V30 10296 C 992.768 -1.81973 1.3935 0
M  V30 10297 C 993.768 -1.58187 0.288702 0
M  V30 10298 O 994.958 -1.65383 0.547181 0
M  V30 10299 C 992.09 -3.19937 1.177 0
M  V30 10300 H 993.283 -1.83939 2.36868 0
M  V30 10301 H 990.836 -0.928742 1.25714 0
M  V30 10302 H 991.571 -3.23625 0.209093 0
M  V30 10303 H 991.356 -3.386 1.97719 0
M  V30 10304 H 992.846 -3.99981 1.20022 0
M  V30 10305 N 993.283 -1.25346 -0.955304 0
M  V30 10306 C 994.215 -1.0146 -2.0552 0
M  V30 10307 C 995.228 0.0202256 -1.62787 0
M  V30 10308 O 996.417 -0.218251 -1.77161 0
M  V30 10309 C 993.517 -0.511727 -3.35014 0
M  V30 10310 C 992.69 -1.61256 -4.0659 0
M  V30 10311 C 991.749 -1.11017 -5.14356 0
M  V30 10312 O 990.775 -1.80443 -5.39842 0
M  V30 10313 N 991.977 0.0489001 -5.80479 0
M  V30 10314 H 994.742 -1.96166 -2.26581 0
M  V30 10315 H 992.303 -1.16543 -1.12381 0
M  V30 10316 H 994.295 -0.160123 -4.04383 0
M  V30 10317 H 992.865 0.341377 -3.1073 0
M  V30 10318 H 992.085 -2.13577 -3.31328 0
M  V30 10319 H 993.373 -2.35213 -4.51168 0
M  V30 10320 H 992.771 0.629021 -5.62192 0
M  V30 10321 H 991.328 0.341542 -6.50905 0
M  V30 10322 N 994.761 1.15782 -1.06922 0
M  V30 10323 C 996.01 1.85807 -0.784774 0
M  V30 10324 C 996.323 1.82967 0.691551 0
M  V30 10325 O 997.529 2.48632 1.0906 0
M  V30 10326 C 995.985 3.33469 -1.35375 0
M  V30 10327 C 995.593 3.44766 -2.86077 0
M  V30 10328 C 997.337 4.08707 -1.14713 0
M  V30 10329 C 995.244 4.86551 -3.36187 0
M  V30 10330 H 994.174 0.696046 -0.28989 0
M  V30 10331 H 996.825 1.30629 -1.28873 0
M  V30 10332 H 995.207 3.88292 -0.77754 0
M  V30 10333 H 996.381 3.00073 -3.49704 0
M  V30 10334 H 994.696 2.82969 -3.05479 0
M  V30 10335 H 997.293 5.13336 -1.49633 0
M  V30 10336 H 997.636 4.16211 -0.0858868 0
M  V30 10337 H 998.169 3.60142 -1.68946 0
M  V30 10338 H 994.908 4.84229 -4.41818 0
M  V30 10339 H 994.428 5.31844 -2.77312 0
M  V30 10340 H 996.107 5.55392 -3.31887 0
M  V30 10341 N 996.239 0.8527 1.3254 0
M  V30 10342 C 997.655 0.542298 1.50104 0
M  V30 10343 C 997.855 -0.927465 1.78886 0
M  V30 10344 O 996.911 -1.7106 1.85728 0
M  V30 10345 C 998.224 1.4276 2.64651 0
M  V30 10346 C 999.772 1.42782 2.78536 0
M  V30 10347 C 1000.25 2.29828 3.9616 0
M  V30 10348 N 1001.74 2.27613 4.03418 0
M  V30 10349 C 1002.47 2.91696 4.93661 0
M  V30 10350 N 1001.97 3.64883 5.88925 0
M  V30 10351 N 1003.76 2.81094 4.86768 0
M  V30 10352 H 995.913 1.80395 1.12123 0
M  V30 10353 H 998.176 0.770394 0.552446 0
M  V30 10354 H 997.882 2.47266 2.50105 0
M  V30 10355 H 997.756 1.11358 3.60388 0
M  V30 10356 H 1000.14 0.390417 2.92506 0
M  V30 10357 H 1000.22 1.78198 1.83519 0
M  V30 10358 H 999.868 3.33635 3.82949 0
M  V30 10359 H 999.798 1.91746 4.9045 0
M  V30 10360 H 1002.29 1.74402 3.3525 0
M  V30 10361 H 1002.6 4.10952 6.54476 0
M  V30 10362 H 1000.95 3.68991 5.88957 0
M  V30 10363 H 1004.14 2.23469 4.11314 0
M  V30 10364 H 1004.31 3.31318 5.56895 0
M  V30 10365 N 997.718 -1.45297 0.610449 0
M  V30 10366 C 999.134 -1.57225 0.274332 0
M  V30 10367 C 999.334 -1.60136 -1.22306 0
M  V30 10368 O 998.39 -1.5332 -2.00622 0
M  V30 10369 C 999.703 -2.85365 0.948028 0
M  V30 10370 C 1001.25 -2.99044 0.924216 0
M  V30 10371 C 1001.73 -4.29958 1.57798 0
M  V30 10372 N 1003.22 -4.36723 1.5436 0
M  V30 10373 C 1003.95 -5.36695 2.01857 0
M  V30 10374 N 1003.45 -6.43187 2.57453 0
M  V30 10375 N 1005.24 -5.28071 1.92608 0
M  V30 10376 H 997.392 -1.41651 1.58268 0
M  V30 10377 H 999.655 -0.67744 0.663158 0
M  V30 10378 H 999.361 -2.89125 2.00249 0
M  V30 10379 H 999.235 -3.74222 0.473062 0
M  V30 10380 H 1001.62 -2.94849 -0.121709 0
M  V30 10381 H 1001.7 -2.1159 1.43748 0
M  V30 10382 H 1001.35 -4.34912 2.62325 0
M  V30 10383 H 1001.28 -5.16234 1.03972 0
M  V30 10384 H 1003.77 -3.60374 1.13749 0
M  V30 10385 H 1004.08 -7.15722 2.91482 0
M  V30 10386 H 1002.43 -6.4393 2.61493 0
M  V30 10387 H 1005.62 -4.43783 1.48912 0
M  V30 10388 H 1005.79 -6.05832 2.29938 0
M  V30 10389 N 999.196 -0.349774 -1.5367 0
M  V30 10390 C 1000.14 0.504121 -2.25227 0
M  V30 10391 C 1001.11 1.09048 -1.2529 0
M  V30 10392 O 1002.3 1.12594 -1.54037 0
M  V30 10393 C 999.438 1.64601 -3.03316 0
M  V30 10394 C 998.551 1.08635 -4.18118 0
M  V30 10395 C 997.686 2.19605 -4.83681 0
M  V30 10396 C 996.725 1.61023 -5.90541 0
M  V30 10397 N 995.862 2.6576 -6.49858 0
M  V30 10398 H 1000.7 -0.112621 -2.97787 0
M  V30 10399 H 998.239 -0.0673503 -1.46946 0
M  V30 10400 H 1000.2 2.31836 -3.46854 0
M  V30 10401 H 998.827 2.23364 -2.33041 0
M  V30 10402 H 997.879 0.304748 -3.79177 0
M  V30 10403 H 999.191 0.617911 -4.94958 0
M  V30 10404 H 998.345 2.94693 -5.30322 0
M  V30 10405 H 997.084 2.69795 -4.06278 0
M  V30 10406 H 996.089 0.844428 -5.43277 0
M  V30 10407 H 997.314 1.11677 -6.69855 0
M  V30 10408 H 995.26 3.15193 -5.75317 0
M  V30 10409 H 995.177 2.23557 -7.2219 0
M  V30 10410 H 996.445 3.40598 -7.01151 0
M  V30 10411 N 1000.67 1.57404 -0.0785433 0
M  V30 10412 C 1001.92 1.93744 0.589024 0
M  V30 10413 C 1002.25 0.959087 1.69209 0
M  V30 10414 O 1001.5 -0.0241604 1.95685 0
M  V30 10415 C 1001.8 3.36684 1.1991 0
M  V30 10416 C 1001.47 4.50356 0.221493 0
M  V30 10417 C 1000.13 4.81177 -0.0474347 0
M  V30 10418 C 1002.48 5.1928 -0.446941 0
M  V30 10419 C 999.811 5.78257 -0.99177 0
M  V30 10420 C 1002.16 6.17372 -1.37964 0
M  V30 10421 C 1000.83 6.46607 -1.65697 0
M  V30 10422 H 1000.1 0.70896 0.215539 0
M  V30 10423 H 1002.74 1.90905 -0.150856 0
M  V30 10424 H 1001.05 3.36022 2.01486 0
M  V30 10425 H 1002.75 3.62095 1.72303 0
M  V30 10426 H 999.336 4.26322 0.441284 0
M  V30 10427 H 1003.52 4.95658 -0.252298 0
M  V30 10428 H 998.776 5.9923 -1.21381 0
M  V30 10429 H 1002.95 6.6988 -1.9035 0
M  V30 10430 H 1000.58 7.21643 -2.39031 0
M  V30 10431 N 1002.15 -0.195058 1.56388 0
M  V30 10432 C 1003.06 -1.26219 1.97752 0
M  V30 10433 C 1004.08 -1.49801 0.885192 0
M  V30 10434 O 1005.25 -1.62415 1.19094 0
M  V30 10435 C 1002.32 -2.5865 2.3087 0
M  V30 10436 C 1001.38 -2.4314 3.5381 0
M  V30 10437 C 1000.61 -3.69255 3.85339 0
M  V30 10438 O 1000.84 -4.73425 3.18159 0
M  V30 10439 O 999.77 -3.64782 4.78767 0
M  V30 10440 H 1003.6 -0.941161 2.88749 0
M  V30 10441 H 1001.18 -0.40006 1.43944 0
M  V30 10442 H 1003.06 -3.36814 2.53247 0
M  V30 10443 H 1001.74 -2.9038 1.43042 0
M  V30 10444 H 1000.64 -1.63086 3.3668 0
M  V30 10445 H 1001.98 -2.16341 4.42105 0
M  V30 10446 N 1003.63 -1.50653 -0.462772 0
M  V30 10447 C 1004.56 -1.64773 -1.57877 0
M  V30 10448 C 1005.54 -0.495664 -1.54861 0
M  V30 10449 O 1006.72 -0.716248 -1.74362 0
M  V30 10450 C 1003.85 -1.63796 -2.9646 0
M  V30 10451 C 1002.9 -2.84663 -3.17599 0
M  V30 10452 S 1003.73 -4.45852 -2.96608 0
M  V30 10453 C 1004.89 -4.47581 -4.37518 0
M  V30 10454 H 1005.12 -2.59172 -1.45661 0
M  V30 10455 H 1002.65 -1.40019 -0.650699 0
M  V30 10456 H 1004.61 -1.63918 -3.76353 0
M  V30 10457 H 1003.27 -0.706185 -3.06059 0
M  V30 10458 H 1002.46 -2.80308 -4.1886 0
M  V30 10459 H 1002.07 -2.82152 -2.45492 0
M  V30 10460 H 1004.36 -4.21656 -5.30295 0
M  V30 10461 H 1005.3 -5.49248 -4.46914 0
M  V30 10462 H 1005.71 -3.7719 -4.19985 0
M  V30 10463 N 1005.11 0.71652 -1.4037 0
M  V30 10464 C 1006.36 1.47638 -1.38597 0
M  V30 10465 C 1006.68 1.94496 0.0120141 0
M  V30 10466 O 1005.94 1.68437 0.996373 0
M  V30 10467 C 1006.24 2.71777 -2.32103 0
M  V30 10468 C 1005.9 2.43689 -3.79376 0
M  V30 10469 C 1004.57 2.35739 -4.195 0
M  V30 10470 C 1006.92 2.20099 -4.72447 0
M  V30 10471 C 1004.25 2.02265 -5.50732 0
M  V30 10472 C 1006.6 1.88138 -6.03976 0
M  V30 10473 C 1005.26 1.78669 -6.43143 0
M  V30 10474 H 1004.53 0.540246 -0.507163 0
M  V30 10475 H 1007.18 0.820822 -1.73017 0
M  V30 10476 H 1005.48 3.42166 -1.90865 0
M  V30 10477 H 1007.18 3.29864 -2.28015 0
M  V30 10478 H 1003.77 2.50763 -3.47585 0
M  V30 10479 H 1007.95 2.25198 -4.42266 0
M  V30 10480 H 1003.21 1.93471 -5.79982 0
M  V30 10481 H 1007.38 1.68898 -6.75608 0
M  V30 10482 H 1005.01 1.52498 -7.44747 0
M  V30 10483 N 1006.59 1.25851 0.948643 0
M  V30 10484 C 1007.81 1.13711 1.72851 0
M  V30 10485 C 1008.23 -0.308471 1.86263 0
M  V30 10486 O 1007.59 -1.21175 1.36465 0
M  V30 10487 C 1007.64 1.79271 3.13918 0
M  V30 10488 O 1007.36 3.18179 3.01154 0
M  V30 10489 C 1008.86 1.72988 4.08154 0
M  V30 10490 H 1006.08 0.396334 0.541443 0
M  V30 10491 H 1008.62 1.66329 1.18974 0
M  V30 10492 H 1006.78 1.30609 3.64719 0
M  V30 10493 H 1007.19 3.50507 3.90186 0
M  V30 10494 H 1008.67 2.2351 5.04725 0
M  V30 10495 H 1009.14 0.694866 4.33668 0
M  V30 10496 H 1009.75 2.21166 3.63271 0
M  V30 10497 N 1008.06 -1.15214 1.07534 0
M  V30 10498 C 1009.29 -1.89647 0.819614 0
M  V30 10499 C 1009.7 -1.78365 -0.631072 0
M  V30 10500 O 1009.05 -1.1346 -1.44474 0
M  V30 10501 C 1009.11 -3.40573 1.1511 0
M  V30 10502 C 1008.77 -3.7564 2.60276 0
M  V30 10503 C 1009.77 -3.76507 3.58523 0
M  V30 10504 C 1007.45 -4.05891 2.95901 0
M  V30 10505 C 1009.45 -4.07133 4.9043 0
M  V30 10506 C 1007.13 -4.36182 4.28005 0
M  V30 10507 C 1008.13 -4.36785 5.25079 0
M  V30 10508 O 1007.82 -4.66348 6.54809 0
M  V30 10509 H 1007.55 -0.607836 0.295822 0
M  V30 10510 H 1010.11 -1.46895 1.43565 0
M  V30 10511 H 1008.34 -3.83734 0.478033 0
M  V30 10512 H 1010.03 -3.96299 0.877615 0
M  V30 10513 H 1010.79 -3.53233 3.32342 0
M  V30 10514 H 1006.67 -4.0458 2.20989 0
M  V30 10515 H 1010.21 -4.07519 5.66193 0
M  V30 10516 H 1006.11 -4.58924 4.53937 0
M  V30 10517 H 1006.88 -4.84105 6.59988 0
M  V30 10518 N 1009.54 -0.859717 -1.32086 0
M  V30 10519 C 1010.51 -0.313005 -2.27053 0
M  V30 10520 C 1011.51 0.530191 -1.51808 0
M  V30 10521 O 1012.7 0.340972 -1.7083 0
M  V30 10522 C 1009.83 0.5566 -3.36325 0
M  V30 10523 H 1011.02 -1.15125 -2.76923 0
M  V30 10524 H 1008.57 -0.634463 -1.42843 0
M  V30 10525 H 1009.31 1.41645 -2.91731 0
M  V30 10526 H 1009.09 -0.0470197 -3.92072 0
M  V30 10527 H 1010.58 0.931725 -4.07073 0
M  V30 10528 N 1011.02 1.44971 -0.618145 0
M  V30 10529 C 1012.44 1.57077 -0.282666 0
M  V30 10530 C 1012.64 1.60782 1.21456 0
M  V30 10531 O 1011.69 1.54382 1.99806 0
M  V30 10532 C 1013.01 2.84858 -0.963148 0
M  V30 10533 C 1014.55 2.9855 -0.940062 0
M  V30 10534 C 1015.03 4.29115 -1.60076 0
M  V30 10535 N 1016.52 4.35899 -1.56674 0
M  V30 10536 C 1017.25 5.35617 -2.04701 0
M  V30 10537 N 1016.75 6.41813 -2.6086 0
M  V30 10538 N 1018.54 5.27042 -1.95406 0
M  V30 10539 H 1010.69 1.4081 -1.59017 0
M  V30 10540 H 1012.96 0.673914 -0.666741 0
M  V30 10541 H 1012.66 2.88059 -2.0178 0
M  V30 10542 H 1012.54 3.73966 -0.492901 0
M  V30 10543 H 1014.92 2.94909 0.10607 0
M  V30 10544 H 1015.01 2.10825 -1.44868 0
M  V30 10545 H 1014.65 4.33514 -2.64627 0
M  V30 10546 H 1014.58 5.15675 -1.06708 0
M  V30 10547 H 1017.07 3.59766 -1.15659 0
M  V30 10548 H 1017.38 7.14166 -2.95273 0
M  V30 10549 H 1015.73 6.42534 -2.64905 0
M  V30 10550 H 1018.92 4.42987 -1.51263 0
M  V30 10551 H 1019.09 6.04604 -2.33147 0
M  V30 10552 N 1012.5 0.357919 1.53482 0
M  V30 10553 C 1013.75 -0.234163 2.01142 0
M  V30 10554 C 1014.07 -1.49399 1.2454 0
M  V30 10555 O 1013.33 -1.92981 0.325111 0
M  V30 10556 C 1013.63 -0.579617 3.52669 0
M  V30 10557 C 1013.29 0.584988 4.47089 0
M  V30 10558 C 1011.96 0.904558 4.72622 0
M  V30 10559 C 1014.31 1.3656 5.02992 0
M  V30 10560 C 1011.64 2.00685 5.5131 0
M  V30 10561 C 1013.99 2.45824 5.82884 0
M  V30 10562 C 1012.65 2.78325 6.06706 0
M  V30 10563 H 1011.92 -0.0856863 0.736029 0
M  V30 10564 H 1014.57 0.488801 1.85157 0
M  V30 10565 H 1012.87 -1.38349 3.66561 0
M  V30 10566 H 1014.57 -1.04985 3.87013 0
M  V30 10567 H 1011.16 0.32587 4.27359 0
M  V30 10568 H 1015.34 1.13196 4.83219 0
M  V30 10569 H 1010.6 2.26272 5.67988 0
M  V30 10570 H 1014.77 3.06732 6.25211 0
M  V30 10571 H 1012.4 3.63862 6.67464 0
M  V30 10572 N 1013.98 -1.5736 0.0868897 0
M  V30 10573 C 1015.25 -1.85495 -0.620561 0
M  V30 10574 C 1015.63 -0.982218 -1.86857 0
M  V30 10575 O 1014.98 -0.0524529 -2.2844 0
M  V30 10576 C 1015.19 -3.35996 -0.943798 0
M  V30 10577 C 1016.54 -4.03861 -1.31079 0
M  V30 10578 O 1017.56 -3.4083 -1.03507 0
M  V30 10579 O 1016.42 -5.15062 -1.82683 0
M  V30 10580 H 1013.52 -0.766822 -0.309697 0
M  V30 10581 H 1016.06 -1.69282 0.118966 0
M  V30 10582 H 1014.83 -3.91257 -0.0580628 0
M  V30 10583 H 1014.46 -3.57525 -1.73958 0
M  V30 10584 N 1015.45 0.186762 -1.56489 0
M  V30 10585 C 1016.68 0.925916 -1.85584 0
M  V30 10586 C 1017.1 1.75708 -0.671446 0
M  V30 10587 O 1016.46 1.7728 0.379687 0
M  V30 10588 C 1016.51 1.79107 -3.12975 0
M  V30 10589 O 1015.61 2.89088 -2.94112 0
M  V30 10590 H 1014.96 0.260275 -0.610863 0
M  V30 10591 H 1017.49 0.189561 -2.0372 0
M  V30 10592 H 1017.5 2.19408 -3.43983 0
M  V30 10593 H 1016.17 1.18044 -3.98796 0
M  V30 10594 H 1014.75 2.52482 -2.74422 0
M  V30 10595 N 1016.93 1.50896 0.454776 0
M  V30 10596 C 1017.84 1.73762 1.5762 0
M  V30 10597 C 1018.86 0.621206 1.62533 0
M  V30 10598 O 1020.03 0.901449 1.801 0
M  V30 10599 C 1017.1 1.84183 2.9373 0
M  V30 10600 C 1016.16 3.07982 2.99075 0
M  V30 10601 C 1015.39 3.17896 4.28693 0
M  V30 10602 O 1015.62 2.34184 5.20109 0
M  V30 10603 O 1014.55 4.10749 4.39964 0
M  V30 10604 H 1018.38 2.68856 1.41245 0
M  V30 10605 H 1015.96 1.35187 0.635984 0
M  V30 10606 H 1017.84 1.93123 3.74542 0
M  V30 10607 H 1016.52 0.922742 3.10269 0
M  V30 10608 H 1015.43 3.04531 2.17282 0
M  V30 10609 H 1016.76 3.99523 2.87476 0
M  V30 10610 N 1018.41 -0.709066 1.40748 0
M  V30 10611 C 1019.66 -1.4646 1.38681 0
M  V30 10612 C 1019.97 -1.95599 -0.0056209 0
M  V30 10613 O 1021.18 -2.71091 -0.148907 0
M  V30 10614 C 1019.63 -2.64771 2.43771 0
M  V30 10615 C 1019.24 -2.22474 3.88856 0
M  V30 10616 C 1020.99 -3.42475 2.50821 0
M  V30 10617 C 1018.89 -3.37663 4.85528 0
M  V30 10618 H 1017.82 -0.550084 0.515678 0
M  V30 10619 H 1020.47 -0.771074 1.66513 0
M  V30 10620 H 1018.86 -3.36325 2.09048 0
M  V30 10621 H 1020.03 -1.58297 4.32757 0
M  V30 10622 H 1018.35 -1.57798 3.85342 0
M  V30 10623 H 1020.94 -4.28201 3.20232 0
M  V30 10624 H 1021.29 -3.86738 1.54076 0
M  V30 10625 H 1021.82 -2.77969 2.84567 0
M  V30 10626 H 1018.56 -2.98426 5.83628 0
M  V30 10627 H 1018.08 -4.00734 4.46287 0
M  V30 10628 H 1019.76 -4.03636 5.05655 0
M  V30 10629 N 1019.89 -1.26353 -0.941956 0
M  V30 10630 C 1021.12 -1.14626 -1.72245 0
M  V30 10631 C 1021.53 0.298588 -1.86424 0
M  V30 10632 O 1020.89 1.2045 -1.37106 0
M  V30 10633 C 1020.94 -1.80933 -3.12963 0
M  V30 10634 O 1020.66 -3.19771 -2.99463 0
M  V30 10635 C 1022.16 -1.7515 -4.07231 0
M  V30 10636 H 1019.38 -0.3992 -0.539333 0
M  V30 10637 H 1021.93 -1.66958 -1.1809 0
M  V30 10638 H 1020.08 -1.32541 -3.64021 0
M  V30 10639 H 1020.5 -3.52571 -3.88322 0
M  V30 10640 H 1021.97 -2.26183 -5.03533 0
M  V30 10641 H 1022.45 -0.717855 -4.33294 0
M  V30 10642 H 1023.05 -2.2309 -3.62093 0
M  V30 10643 N 1021.37 1.14642 -1.08144 0
M  V30 10644 C 1022.3 2.18656 -0.653066 0
M  V30 10645 C 1023.28 1.59137 0.333803 0
M  V30 10646 O 1024.46 1.86988 0.238305 0
M  V30 10647 C 1021.59 3.38677 0.0398337 0
M  V30 10648 C 1020.64 4.1675 -0.906755 0
M  V30 10649 S 1021.47 4.78103 -2.41201 0
M  V30 10650 C 1022.62 6.01483 -1.73115 0
M  V30 10651 H 1022.86 2.54654 -1.53423 0
M  V30 10652 H 1020.39 1.25731 -0.896162 0
M  V30 10653 H 1022.35 4.08206 0.43334 0
M  V30 10654 H 1021.01 3.01006 0.897457 0
M  V30 10655 H 1020.2 5.02649 -0.368795 0
M  V30 10656 H 1019.8 3.52809 -1.24103 0
M  V30 10657 H 1022.1 6.69353 -1.04752 0
M  V30 10658 H 1023.04 6.59863 -2.56878 0
M  V30 10659 H 1023.45 5.51474 -1.20566 0
M  V30 10660 N 1022.85 0.866709 1.31628 0
M  V30 10661 C 1024.09 0.476731 1.97117 0
M  V30 10662 C 1024.42 -0.967813 1.68366 0
M  V30 10663 O 1023.7 -1.68101 0.978377 0
M  V30 10664 C 1023.98 0.730561 3.52611 0
M  V30 10665 C 1023.84 2.2244 3.90948 0
M  V30 10666 C 1025.15 0.19488 4.39668 0
M  V30 10667 H 1022.27 0.174682 0.715999 0
M  V30 10668 H 1024.92 1.08735 1.5581 0
M  V30 10669 H 1023.07 0.210834 3.87927 0
M  V30 10670 H 1024.74 2.81113 3.6575 0
M  V30 10671 H 1022.98 2.69824 3.39673 0
M  V30 10672 H 1023.65 2.35266 4.99353 0
M  V30 10673 H 1026.13 0.639478 4.11157 0
M  V30 10674 H 1025 0.401958 5.47426 0
M  V30 10675 H 1025.26 -0.90302 4.32779 0
M  V30 10676 N 1024.32 -1.44642 0.625825 0
M  V30 10677 C 1025.73 -1.85502 0.211175 0
M  V30 10678 C 1026.09 -1.52356 -1.2362 0
M  V30 10679 O 1025.21 -0.959051 -1.93988 0
M  V30 10680 C 1025.81 -3.36702 0.37648 0
M  V30 10681 C 1024.36 -3.76396 0.0163795 0
M  V30 10682 C 1023.51 -2.68517 0.692368 0
M  V30 10683 H 1026.46 -1.35183 0.831333 0
M  V30 10684 H 1026.48 -3.78536 -0.386106 0
M  V30 10685 H 1026 -3.60795 1.42999 0
M  V30 10686 H 1024.1 -3.57919 -1.0356 0
M  V30 10687 H 1024.21 -4.77231 0.422742 0
M  V30 10688 H 1022.57 -2.54377 0.128191 0
M  V30 10689 H 1023.36 -2.95444 1.74837 0
M  V30 10690 N 1025.8 -0.366053 -1.5329 0
M  V30 10691 C 1027.03 0.226839 -2.06156 0
M  V30 10692 C 1027.45 1.41637 -1.23776 0
M  V30 10693 O 1026.81 1.7947 -0.256948 0
M  V30 10694 C 1026.86 0.597956 -3.55608 0
M  V30 10695 O 1025.96 1.69512 -3.75951 0
M  V30 10696 H 1025.3 0.0329156 -0.663184 0
M  V30 10697 H 1027.83 -0.526793 -1.97702 0
M  V30 10698 H 1027.84 0.868831 -3.98642 0
M  V30 10699 H 1026.52 -0.271838 -4.15011 0
M  V30 10700 H 1025.09 1.41976 -3.44815 0
M  V30 10701 N 1027.28 1.57312 -0.0952337 0
M  V30 10702 C 1028.53 1.94646 0.569284 0
M  V30 10703 C 1028.86 0.977152 1.67825 0
M  V30 10704 O 1028.13 0.0102318 1.94497 0
M  V30 10705 C 1028.42 3.42098 1.12433 0
M  V30 10706 C 1028.27 4.49795 0.0204016 0
M  V30 10707 C 1029.59 3.90866 2.02266 0
M  V30 10708 H 1026.71 0.707779 0.205469 0
M  V30 10709 H 1029.35 1.89274 -0.16597 0
M  V30 10710 H 1027.5 3.46807 1.75092 0
M  V30 10711 H 1029.17 4.57198 -0.613845 0
M  V30 10712 H 1027.41 4.28964 -0.645965 0
M  V30 10713 H 1028.09 5.50166 0.449579 0
M  V30 10714 H 1030.56 3.88311 1.49512 0
M  V30 10715 H 1029.44 4.94604 2.38029 0
M  V30 10716 H 1029.7 3.30167 2.9401 0
M  V30 10717 N 1028.76 -0.17846 1.56586 0
M  V30 10718 C 1029.72 -1.20479 1.94981 0
M  V30 10719 C 1030.72 -1.37561 0.832677 0
M  V30 10720 O 1031.91 -1.35089 1.09984 0
M  V30 10721 C 1029.04 -2.57117 2.23839 0
M  V30 10722 H 1030.24 -0.876173 2.86816 0
M  V30 10723 H 1027.79 -0.420635 1.50534 0
M  V30 10724 H 1028.52 -2.95005 1.34695 0
M  V30 10725 H 1028.31 -2.46086 3.05261 0
M  V30 10726 H 1029.8 -3.31096 2.5449 0
M  V30 10727 N 1030.24 -1.51135 -0.446768 0
M  V30 10728 C 1031.2 -1.71187 -1.52406 0
M  V30 10729 C 1032.2 -0.582037 -1.49897 0
M  V30 10730 O 1033.39 -0.849452 -1.52085 0
M  V30 10731 C 1030.52 -1.75962 -2.91976 0
M  V30 10732 H 1031.71 -2.67324 -1.35934 0
M  V30 10733 H 1029.27 -1.40982 -0.674813 0
M  V30 10734 H 1030 -0.816065 -3.13864 0
M  V30 10735 H 1029.79 -2.58065 -2.95203 0
M  V30 10736 H 1031.28 -1.93347 -3.70144 0
M  V30 10737 N 1031.71 0.701592 -1.41122 0
M  V30 10738 C 1032.66 1.81559 -1.42495 0
M  V30 10739 C 1033.63 1.63722 -0.280078 0
M  V30 10740 O 1034.82 1.84658 -0.480231 0
M  V30 10741 C 1031.96 3.19392 -1.30702 0
M  V30 10742 C 1031.07 3.48704 -2.55009 0
M  V30 10743 C 1030.2 4.76118 -2.35554 0
M  V30 10744 C 1029.24 4.98378 -3.55367 0
M  V30 10745 N 1028.38 6.17014 -3.3502 0
M  V30 10746 H 1033.22 1.7972 -2.37707 0
M  V30 10747 H 1030.76 0.877727 -1.18044 0
M  V30 10748 H 1032.71 3.99004 -1.21867 0
M  V30 10749 H 1031.34 3.20423 -0.391012 0
M  V30 10750 H 1030.4 2.63542 -2.74317 0
M  V30 10751 H 1031.71 3.61057 -3.44151 0
M  V30 10752 H 1030.86 5.63774 -2.24152 0
M  V30 10753 H 1029.6 4.66 -1.43859 0
M  V30 10754 H 1028.61 4.09172 -3.6723 0
M  V30 10755 H 1029.83 5.10359 -4.48007 0
M  V30 10756 H 1027.78 6.0812 -2.4602 0
M  V30 10757 H 1027.69 6.30107 -4.17733 0
M  V30 10758 H 1028.96 7.0742 -3.27379 0
M  V30 10759 N 1033.19 1.2685 0.935242 0
M  V30 10760 C 1034.47 1.03483 1.65984 0
M  V30 10761 C 1034.85 -0.432859 2.06614 0
M  V30 10762 O 1034.2 -1.4145 1.79455 0
M  V30 10763 C 1034.41 1.98924 2.86758 0
M  V30 10764 C 1035.75 2.2787 3.58274 0
M  V30 10765 O 1036.78 1.96838 2.96873 0
M  V30 10766 O 1035.64 2.80734 4.68882 0
M  V30 10767 H 1032.73 0.393932 0.72715 0
M  V30 10768 H 1035.28 1.38085 0.986445 0
M  V30 10769 H 1034.05 2.9794 2.53668 0
M  V30 10770 H 1033.67 1.64839 3.6182 0
M  V30 10771 N 1034.67 -1.14067 1.0875 0
M  V30 10772 C 1035.92 -1.84819 0.817698 0
M  V30 10773 C 1036.24 -1.83545 -0.658488 0
M  V30 10774 O 1035.51 -1.28633 -1.47751 0
M  V30 10775 H 1034.09 -0.68433 0.299502 0
M  V30 10776 H 1036.75 -1.38208 1.37421 0
M  V30 10777 H 1035.85 -2.89541 1.16501 0
M  V30 10778 N 1036.15 -0.873678 -1.31166 0
M  V30 10779 C 1037.1 -0.303699 -2.25968 0
M  V30 10780 C 1038.08 0.561387 -1.50789 0
M  V30 10781 O 1039.27 0.407658 -1.72242 0
M  V30 10782 C 1036.4 0.490612 -3.39776 0
M  V30 10783 C 1035.49 -0.387927 -4.22322 0
M  V30 10784 N 1035.88 -1.48313 -4.83567 0
M  V30 10785 C 1034.18 -0.18102 -4.45632 0
M  V30 10786 C 1034.88 -2.0252 -5.45308 0
M  V30 10787 N 1033.86 -1.32169 -5.27288 0
M  V30 10788 H 1037.66 -1.14071 -2.7086 0
M  V30 10789 H 1035.17 -0.721843 -1.45476 0
M  V30 10790 H 1037.17 0.9155 -4.06724 0
M  V30 10791 H 1035.83 1.32519 -2.96427 0
M  V30 10792 H 1036.84 -1.86604 -4.83114 0
M  V30 10793 H 1033.52 0.617304 -4.12911 0
M  V30 10794 H 1034.91 -2.94429 -6.03955 0
M  V30 10795 N 1037.63 1.44308 -0.633487 0
M  V30 10796 C 1038.88 2.01239 -0.136356 0
M  V30 10797 C 1039.19 1.50438 1.25011 0
M  V30 10798 O 1040.39 1.99513 1.84138 0
M  V30 10799 C 1038.85 3.59382 -0.193011 0
M  V30 10800 C 1038.46 4.19178 -1.58093 0
M  V30 10801 C 1040.2 4.23778 0.247534 0
M  V30 10802 C 1038.11 5.69553 -1.59258 0
M  V30 10803 H 1037.04 0.752521 -0.0472109 0
M  V30 10804 H 1039.69 1.65498 -0.79263 0
M  V30 10805 H 1038.07 3.92432 0.530408 0
M  V30 10806 H 1039.25 3.97662 -2.32813 0
M  V30 10807 H 1037.56 3.67079 -1.96576 0
M  V30 10808 H 1040.16 5.34075 0.258401 0
M  V30 10809 H 1040.5 3.96285 1.27529 0
M  V30 10810 H 1041.03 3.9554 -0.423469 0
M  V30 10811 H 1037.77 6.01784 -2.59878 0
M  V30 10812 H 1037.29 5.93185 -0.888352 0
M  V30 10813 H 1038.97 6.33234 -1.32756 0
M  V30 10814 N 1039.1 0.374177 1.53094 0
M  V30 10815 C 1040.35 -0.212396 2.00981 0
M  V30 10816 C 1040.67 -1.48576 1.26293 0
M  V30 10817 O 1039.94 -1.92206 0.378642 0
M  V30 10818 H 1038.52 -0.0814763 0.742543 0
M  V30 10819 H 1041.19 0.502389 1.88314 0
M  V30 10820 H 1040.28 -0.433316 3.09077 0
M  V30 10821 N 1040.58 -1.57259 0.103575 0
M  V30 10822 C 1041.53 -2.11032 -0.863101 0
M  V30 10823 C 1042.52 -1.02737 -1.2383 0
M  V30 10824 O 1043.71 -1.28997 -1.21197 0
M  V30 10825 C 1040.84 -2.70099 -2.11899 0
M  V30 10826 C 1039.92 -3.85451 -1.76885 0
M  V30 10827 N 1040.31 -4.93137 -1.12469 0
M  V30 10828 C 1038.61 -3.95346 -2.06441 0
M  V30 10829 C 1039.31 -5.73681 -0.962527 0
M  V30 10830 N 1038.29 -5.22992 -1.48258 0
M  V30 10831 H 1042.09 -2.91671 -0.361264 0
M  V30 10832 H 1039.61 -1.62096 -0.0993794 0
M  V30 10833 H 1041.6 -3.06957 -2.82104 0
M  V30 10834 H 1040.26 -1.90918 -2.62641 0
M  V30 10835 H 1041.27 -5.11832 -0.790489 0
M  V30 10836 H 1037.95 -3.27185 -2.59338 0
M  V30 10837 H 1039.34 -6.70337 -0.458098 0
M  V30 10838 N 1042.06 0.170153 -1.56679 0
M  V30 10839 C 1043.31 0.884902 -1.81252 0
M  V30 10840 C 1043.62 1.83361 -0.681024 0
M  V30 10841 O 1044.83 2.59082 -0.811722 0
M  V30 10842 C 1043.28 1.62408 -3.21172 0
M  V30 10843 C 1042.89 0.718947 -4.42194 0
M  V30 10844 C 1044.64 2.32699 -3.55037 0
M  V30 10845 C 1042.54 1.45843 -5.73135 0
M  V30 10846 H 1041.47 0.33418 -0.675899 0
M  V30 10847 H 1044.12 0.137818 -1.82982 0
M  V30 10848 H 1042.51 2.41596 -3.13763 0
M  V30 10849 H 1043.68 -0.0360521 -4.60786 0
M  V30 10850 H 1042 0.125634 -4.1621 0
M  V30 10851 H 1044.59 2.88621 -4.50114 0
M  V30 10852 H 1044.94 3.08092 -2.79974 0
M  V30 10853 H 1045.47 1.60453 -3.64005 0
M  V30 10854 H 1042.21 0.746799 -6.51232 0
M  V30 10855 H 1041.73 2.18672 -5.58518 0
M  V30 10856 H 1043.41 2.0056 -6.1513 0
M  V30 10857 N 1043.54 1.5137 0.438746 0
M  V30 10858 C 1044.78 1.64211 1.19006 0
M  V30 10859 C 1045.12 0.356607 1.90898 0
M  V30 10860 O 1044.39 -0.643722 1.83539 0
M  V30 10861 C 1044.68 2.8445 2.20817 0
M  V30 10862 C 1044.53 4.22972 1.53018 0
M  V30 10863 C 1045.85 3.00207 3.21813 0
M  V30 10864 H 1042.97 0.597628 0.431288 0
M  V30 10865 H 1045.61 1.8385 0.479487 0
M  V30 10866 H 1043.76 2.67836 2.81418 0
M  V30 10867 H 1045.43 4.5125 0.957654 0
M  V30 10868 H 1043.67 4.25736 0.832556 0
M  V30 10869 H 1044.34 5.03094 2.27158 0
M  V30 10870 H 1046.82 3.15522 2.71266 0
M  V30 10871 H 1045.7 3.85904 3.90345 0
M  V30 10872 H 1045.96 2.12216 3.87836 0
M  V30 10873 N 1045.02 -0.694098 1.41492 0
M  V30 10874 C 1045.95 -1.81841 1.37873 0
M  V30 10875 C 1046.93 -1.60732 0.245772 0
M  V30 10876 O 1048.11 -1.83461 0.432917 0
M  V30 10877 C 1045.24 -3.18543 1.15099 0
M  V30 10878 C 1044.28 -3.5844 2.31133 0
M  V30 10879 S 1045.12 -3.63079 3.93617 0
M  V30 10880 C 1046.27 -5.02505 3.73148 0
M  V30 10881 H 1046.51 -1.84634 2.33018 0
M  V30 10882 H 1044.04 -0.862948 1.28033 0
M  V30 10883 H 1046 -3.9746 1.02646 0
M  V30 10884 H 1044.66 -3.13358 0.21572 0
M  V30 10885 H 1043.85 -4.57754 2.10896 0
M  V30 10886 H 1043.45 -2.86837 2.40002 0
M  V30 10887 H 1045.75 -5.90046 3.32945 0
M  V30 10888 H 1046.69 -5.27784 4.72069 0
M  V30 10889 H 1047.1 -4.74113 3.06394 0
M  V30 10890 N 1046.49 -1.27344 -0.928501 0
M  V30 10891 C 1047.43 -1.05797 -2.03322 0
M  V30 10892 C 1048.44 -0.0143086 -1.62794 0
M  V30 10893 O 1049.63 -0.25578 -1.76658 0
M  V30 10894 C 1046.73 -0.582673 -3.33853 0
M  V30 10895 C 1045.9 -1.69844 -4.03078 0
M  V30 10896 C 1044.96 -1.21902 -5.11885 0
M  V30 10897 O 1043.99 -1.91853 -5.35893 0
M  V30 10898 N 1045.19 -0.0742392 -5.80453 0
M  V30 10899 H 1047.95 -2.00928 -2.22369 0
M  V30 10900 H 1045.51 -1.189 -1.09883 0
M  V30 10901 H 1047.51 -0.245862 -4.03952 0
M  V30 10902 H 1046.08 0.27539 -3.11385 0
M  V30 10903 H 1045.3 -2.20557 -3.26723 0
M  V30 10904 H 1046.58 -2.4473 -4.46077 0
M  V30 10905 H 1045.98 0.509631 -5.634 0
M  V30 10906 H 1044.54 0.203399 -6.51483 0
M  V30 10907 N 1047.97 1.13488 -1.09353 0
M  V30 10908 C 1049.2 1.88319 -0.849681 0
M  V30 10909 C 1049.61 1.79347 0.602616 0
M  V30 10910 O 1048.95 1.15744 1.4265 0
M  V30 10911 C 1049.02 3.38698 -1.20514 0
M  V30 10912 C 1048.68 3.71452 -2.66219 0
M  V30 10913 C 1049.68 3.70755 -3.64467 0
M  V30 10914 C 1047.36 4.01132 -3.02321 0
M  V30 10915 C 1049.36 3.9928 -4.96845 0
M  V30 10916 C 1047.04 4.29318 -4.3489 0
M  V30 10917 C 1048.04 4.28376 -5.31961 0
M  V30 10918 O 1047.73 4.55872 -6.62145 0
M  V30 10919 H 1047.46 0.603053 -0.305455 0
M  V30 10920 H 1050.01 1.44592 -1.45884 0
M  V30 10921 H 1048.24 3.82925 -0.539022 0
M  V30 10922 H 1049.93 3.94852 -0.940552 0
M  V30 10923 H 1050.7 3.47901 -3.3792 0
M  V30 10924 H 1046.58 4.01013 -2.27398 0
M  V30 10925 H 1050.12 3.9846 -5.72604 0
M  V30 10926 H 1046.02 4.51644 -4.61181 0
M  V30 10927 H 1046.79 4.73544 -6.67607 0
M  V30 10928 N 1049.45 0.880621 1.30701 0
M  V30 10929 C 1050.38 0.288813 2.26365 0
M  V30 10930 C 1051.36 -0.588135 1.51591 0
M  V30 10931 O 1052.55 -0.539197 1.80624 0
M  V30 10932 C 1049.67 -0.590032 3.33521 0
M  V30 10933 C 1048.72 0.217003 4.25948 0
M  V30 10934 S 1049.55 1.60246 5.10961 0
M  V30 10935 C 1050.71 0.730023 6.21628 0
M  V30 10936 H 1050.94 1.09971 2.76213 0
M  V30 10937 H 1048.47 0.67978 1.3863 0
M  V30 10938 H 1050.43 -1.09136 3.95727 0
M  V30 10939 H 1049.09 -1.37498 2.82406 0
M  V30 10940 H 1048.29 -0.453481 5.01956 0
M  V30 10941 H 1047.89 0.650803 3.68294 0
M  V30 10942 H 1050.18 -0.0548644 6.77478 0
M  V30 10943 H 1051.12 1.46157 6.92852 0
M  V30 10944 H 1051.53 0.292854 5.6374 0
M  V30 10945 N 1050.93 -1.4397 0.641131 0
M  V30 10946 C 1052.16 -2.06004 0.156779 0
M  V30 10947 C 1052.57 -1.48059 -1.17793 0
M  V30 10948 O 1051.91 -0.601788 -1.73563 0
M  V30 10949 C 1051.97 -3.59493 -0.0217203 0
M  V30 10950 C 1051.64 -4.39957 1.23639 0
M  V30 10951 C 1052.63 -4.72797 2.16239 0
M  V30 10952 C 1050.32 -4.80168 1.4746 0
M  V30 10953 C 1052.31 -5.44741 3.30962 0
M  V30 10954 C 1050 -5.51859 2.62478 0
M  V30 10955 C 1051 -5.84067 3.54055 0
M  V30 10956 O 1050.69 -6.54296 4.67067 0
M  V30 10957 H 1050.42 -0.671061 0.0815685 0
M  V30 10958 H 1052.97 -1.85664 0.878517 0
M  V30 10959 H 1051.2 -3.78362 -0.798707 0
M  V30 10960 H 1052.89 -4.03263 -0.461893 0
M  V30 10961 H 1053.66 -4.42261 1.99073 0
M  V30 10962 H 1049.54 -4.54513 0.770652 0
M  V30 10963 H 1053.08 -5.69798 4.02462 0
M  V30 10964 H 1048.98 -5.81811 2.79583 0
M  V30 10965 H 1049.74 -6.72772 4.66177 0
M  V30 10966 N 1052.41 -0.382291 -1.52893 0
M  V30 10967 C 1053.65 0.202433 -2.01787 0
M  V30 10968 C 1053.99 1.47044 -1.26853 0
M  V30 10969 O 1053.26 1.91007 -0.366969 0
M  V30 10970 C 1053.54 0.477471 -3.5692 0
M  V30 10971 C 1053.4 -0.805339 -4.42532 0
M  V30 10972 C 1054.72 1.27106 -4.21346 0
M  V30 10973 H 1051.84 0.0720998 -0.733465 0
M  V30 10974 H 1054.48 -0.510478 -1.83014 0
M  V30 10975 H 1052.63 1.08478 -3.73048 0
M  V30 10976 H 1054.3 -1.4424 -4.3817 0
M  V30 10977 H 1052.54 -1.42216 -4.09826 0
M  V30 10978 H 1053.21 -0.567635 -5.49074 0
M  V30 10979 H 1055.69 0.757161 -4.09153 0
M  V30 10980 H 1054.57 1.43225 -5.29885 0
M  V30 10981 H 1054.83 2.28431 -3.78513 0
M  V30 10982 N 1053.89 1.57202 -0.111913 0
M  V30 10983 C 1055.3 1.82039 0.414591 0
M  V30 10984 C 1055.65 1.02863 1.67074 0
M  V30 10985 O 1054.77 0.263068 2.14795 0
M  V30 10986 C 1055.37 3.3019 0.758953 0
M  V30 10987 C 1053.93 3.55732 1.23012 0
M  V30 10988 C 1053.07 2.76301 0.235226 0
M  V30 10989 H 1056.02 1.55078 -0.337142 0
M  V30 10990 H 1056.05 3.44431 1.61701 0
M  V30 10991 H 1055.56 3.87788 -0.155473 0
M  V30 10992 H 1053.66 3.03483 2.16169 0
M  V30 10993 H 1053.77 4.64333 1.18034 0
M  V30 10994 H 1052.14 2.44287 0.720822 0
M  V30 10995 H 1052.92 3.36655 -0.672173 0
M  V30 10996 N 1055.36 -0.161842 1.56767 0
M  V30 10997 C 1056.77 -0.723385 1.72116 0
M  V30 10998 C 1057.13 -1.82355 0.723961 0
M  V30 10999 O 1056.25 -2.16107 -0.112643 0
M  V30 11000 C 1056.85 -1.31895 3.12072 0
M  V30 11001 C 1055.4 -1.82722 3.29074 0
M  V30 11002 C 1054.55 -0.709863 2.6806 0
M  V30 11003 H 1057.5 0.0636647 1.58572 0
M  V30 11004 H 1057.52 -2.18871 3.11249 0
M  V30 11005 H 1057.04 -0.51801 3.84627 0
M  V30 11006 H 1055.14 -2.6543 2.61491 0
M  V30 11007 H 1055.25 -1.96614 4.36898 0
M  V30 11008 H 1053.61 -1.13273 2.28126 0
M  V30 11009 H 1054.4 0.0793884 3.43208 0
M  V30 11010 N 1056.84 -1.516 -0.430713 0
M  V30 11011 C 1058.09 -1.64271 -1.17726 0
M  V30 11012 C 1058.41 -0.364406 -1.91565 0
M  V30 11013 O 1057.68 0.619991 -1.8583 0
M  V30 11014 H 1056.26 -0.605432 -0.437562 0
M  V30 11015 H 1058.92 -1.88557 -0.493166 0
M  V30 11016 H 1058.02 -2.47355 -1.90321 0
M  V30 11017 N 1058.32 0.686584 -1.41858 0
M  V30 11018 C 1059.28 1.78214 -1.44126 0
M  V30 11019 C 1060.28 1.57366 -0.330541 0
M  V30 11020 O 1061.47 1.63874 -0.590837 0
M  V30 11021 C 1058.6 3.16704 -1.26142 0
M  V30 11022 H 1059.8 1.77594 -2.41661 0
M  V30 11023 H 1057.35 0.895085 -1.28132 0
M  V30 11024 H 1058.09 3.22957 -0.294823 0
M  V30 11025 H 1057.87 3.33238 -2.06627 0
M  V30 11026 H 1059.36 3.96658 -1.30584 0
M  V30 11027 N 1059.8 1.27835 0.921735 0
M  V30 11028 C 1061.21 1.13151 1.48505 0
M  V30 11029 C 1061.56 -0.281373 1.94172 0
M  V30 11030 O 1060.68 -1.17487 1.8173 0
M  V30 11031 C 1061.28 2.04792 2.69899 0
M  V30 11032 C 1059.84 1.94196 3.22436 0
M  V30 11033 C 1058.99 1.96999 1.95158 0
M  V30 11034 H 1061.94 1.40641 0.735241 0
M  V30 11035 H 1061.96 1.60724 3.44889 0
M  V30 11036 H 1061.47 3.07615 2.36631 0
M  V30 11037 H 1059.57 0.943805 3.60448 0
M  V30 11038 H 1059.68 2.80744 3.88226 0
M  V30 11039 H 1058.05 1.41301 2.11911 0
M  V30 11040 H 1058.83 3.01487 1.64196 0
M  V30 11041 N 1061.28 -1.12907 1.09954 0
M  V30 11042 C 1062.52 -1.83661 0.833761 0
M  V30 11043 C 1062.84 -1.84736 -0.642798 0
M  V30 11044 O 1064.04 -2.51437 -1.0243 0
M  V30 11045 C 1062.5 -3.29763 1.44168 0
M  V30 11046 C 1062.11 -3.3706 2.95118 0
M  V30 11047 C 1063.85 -4.05522 1.25509 0
M  V30 11048 C 1061.76 -4.77467 3.48969 0
M  V30 11049 H 1060.69 -0.688115 0.308242 0
M  V30 11050 H 1063.34 -1.27166 1.32291 0
M  V30 11051 H 1061.72 -3.86094 0.880215 0
M  V30 11052 H 1062.9 -2.90695 3.57537 0
M  V30 11053 H 1061.21 -2.7477 3.12874 0
M  V30 11054 H 1063.81 -5.09188 1.63191 0
M  V30 11055 H 1064.15 -4.15837 0.196208 0
M  V30 11056 H 1064.68 -3.55536 1.78435 0
M  V30 11057 H 1061.42 -4.72344 4.54501 0
M  V30 11058 H 1060.94 -5.24305 2.91315 0
M  V30 11059 H 1062.62 -5.46397 3.46495 0
M  V30 11060 N 1062.75 -0.88754 -1.30232 0
M  V30 11061 C 1064.16 -0.55745 -1.78184 0
M  V30 11062 C 1064.52 0.926474 -1.72948 0
M  V30 11063 O 1063.64 1.72403 -1.3079 0
M  V30 11064 C 1064.24 -1.00512 -3.23547 0
M  V30 11065 C 1062.79 -0.726402 -3.69324 0
M  V30 11066 C 1061.94 -1.18666 -2.50627 0
M  V30 11067 H 1064.89 -1.07151 -1.17066 0
M  V30 11068 H 1064.91 -0.335185 -3.79021 0
M  V30 11069 H 1064.43 -2.08517 -3.27326 0
M  V30 11070 H 1062.53 0.341548 -3.71031 0
M  V30 11071 H 1062.64 -1.31575 -4.60679 0
M  V30 11072 H 1061 -0.605936 -2.47387 0
M  V30 11073 H 1061.79 -2.2745 -2.57141 0
M  V30 11074 N 1064.23 1.43628 -0.648757 0
M  V30 11075 C 1065.46 2.06217 -0.167945 0
M  V30 11076 C 1065.88 1.486 1.16462 0
M  V30 11077 O 1065.23 0.61559 1.71804 0
M  V30 11078 C 1065.28 3.6144 -0.0660114 0
M  V30 11079 O 1065 4.16914 -1.34589 0
M  V30 11080 C 1066.51 4.41097 0.441408 0
M  V30 11081 H 1063.73 0.665228 -0.0878237 0
M  V30 11082 H 1066.27 1.84207 -0.888144 0
M  V30 11083 H 1064.42 3.82651 0.604722 0
M  V30 11084 H 1064.84 5.10537 -1.20218 0
M  V30 11085 H 1066.31 5.50066 0.461697 0
M  V30 11086 H 1066.79 4.13803 1.47187 0
M  V30 11087 H 1067.4 4.24845 -0.19668 0
M  V30 11088 N 1065.71 0.390394 1.52688 0
M  V30 11089 C 1066.94 -0.191485 2.06012 0
M  V30 11090 C 1067.35 -1.40422 1.26202 0
M  V30 11091 O 1066.71 -1.79866 0.308963 0
M  V30 11092 C 1066.76 -0.560521 3.57128 0
M  V30 11093 O 1066.48 0.60404 4.33916 0
M  V30 11094 C 1067.98 -1.19814 4.26801 0
M  V30 11095 H 1065.2 -0.0286311 0.670389 0
M  V30 11096 H 1067.75 0.555939 1.96798 0
M  V30 11097 H 1065.9 -1.25784 3.66411 0
M  V30 11098 H 1066.32 0.300467 5.23639 0
M  V30 11099 H 1067.79 -1.40672 5.33775 0
M  V30 11100 H 1068.27 -2.16582 3.82085 0
M  V30 11101 H 1068.87 -0.541558 4.21838 0
M  V30 11102 N 1067.19 -1.57141 0.120249 0
M  V30 11103 C 1068.6 -1.5784 -0.236335 0
M  V30 11104 C 1068.8 -1.13304 -1.66626 0
M  V30 11105 O 1067.86 -0.821004 -2.3878 0
M  V30 11106 C 1069.17 -3.007 -0.00188211 0
M  V30 11107 C 1070.72 -3.12927 -0.0676838 0
M  V30 11108 C 1071.2 -4.57789 0.139092 0
M  V30 11109 N 1072.69 -4.63122 0.085104 0
M  V30 11110 C 1073.42 -5.72978 0.219983 0
M  V30 11111 N 1072.92 -6.91579 0.411102 0
M  V30 11112 N 1074.71 -5.61874 0.159469 0
M  V30 11113 H 1066.86 -1.84391 1.05422 0
M  V30 11114 H 1069.13 -0.852228 0.415225 0
M  V30 11115 H 1068.83 -3.37575 0.986718 0
M  V30 11116 H 1068.71 -3.70005 -0.733203 0
M  V30 11117 H 1071.09 -2.75909 -1.04681 0
M  V30 11118 H 1071.17 -2.46162 0.695538 0
M  V30 11119 H 1070.82 -4.95506 1.1152 0
M  V30 11120 H 1070.75 -5.22646 -0.644131 0
M  V30 11121 H 1073.24 -3.77854 -0.0590479 0
M  V30 11122 H 1073.55 -7.71149 0.504851 0
M  V30 11123 H 1071.9 -6.9356 0.447091 0
M  V30 11124 H 1075.09 -4.68099 0.0111131 0
M  V30 11125 H 1075.26 -6.47445 0.268028 0
M  V30 11126 N 1068.67 0.153526 -1.5685 0
M  V30 11127 C 1069.94 0.895545 -1.73895 0
M  V30 11128 C 1070.32 1.99625 -0.686504 0
M  V30 11129 O 1069.67 2.26579 0.2957 0
M  V30 11130 C 1069.88 1.44399 -3.17726 0
M  V30 11131 C 1071.23 1.90996 -3.79217 0
M  V30 11132 O 1072.25 1.54155 -3.21115 0
M  V30 11133 O 1071.11 2.58917 -4.81274 0
M  V30 11134 H 1068.21 0.422755 -0.710779 0
M  V30 11135 H 1070.75 0.139961 -1.69122 0
M  V30 11136 H 1069.52 0.652635 -3.85819 0
M  V30 11137 H 1069.15 2.26326 -3.26898 0
M  V30 11138 N 1070.14 1.51827 0.422667 0
M  V30 11139 C 1071.42 1.55772 1.18299 0
M  V30 11140 C 1071.8 0.330657 2.08494 0
M  V30 11141 O 1071.15 -0.683373 2.18042 0
M  V30 11142 C 1071.36 2.87941 1.97208 0
M  V30 11143 C 1072.71 3.4044 2.53744 0
M  V30 11144 O 1073.73 2.8959 2.07403 0
M  V30 11145 O 1072.59 4.29201 3.38303 0
M  V30 11146 H 1069.68 0.626889 0.539388 0
M  V30 11147 H 1072.23 1.64147 0.430545 0
M  V30 11148 H 1071 3.68702 1.31052 0
M  V30 11149 H 1070.63 2.82795 2.79486 0
M  V30 11150 N 1071.62 -0.679052 1.4222 0
M  V30 11151 C 1072.85 -1.46534 1.45641 0
M  V30 11152 C 1073.26 -1.89088 0.0649574 0
M  V30 11153 O 1072.6 -1.58436 -0.929712 0
M  V30 11154 C 1072.67 -2.74882 2.3169 0
M  V30 11155 C 1072.33 -2.5443 3.79624 0
M  V30 11156 C 1073.33 -2.19307 4.71382 0
M  V30 11157 C 1071.01 -2.69557 4.23845 0
M  V30 11158 C 1073.01 -1.99571 6.05351 0
M  V30 11159 C 1070.69 -2.49437 5.57875 0
M  V30 11160 C 1071.69 -2.14497 6.48444 0
M  V30 11161 O 1071.38 -1.94567 7.79999 0
M  V30 11162 H 1071.11 -0.457542 0.497626 0
M  V30 11163 H 1073.66 -0.842145 1.87342 0
M  V30 11164 H 1071.89 -3.39669 1.8483 0
M  V30 11165 H 1073.58 -3.3675 2.26615 0
M  V30 11166 H 1074.35 -2.0722 4.38503 0
M  V30 11167 H 1070.23 -2.95733 3.53642 0
M  V30 11168 H 1073.77 -1.72222 6.76007 0
M  V30 11169 H 1069.67 -2.61119 5.90328 0
M  V30 11170 H 1070.44 -2.092 7.91314 0
M  V30 11171 N 1073.1 -1.28322 -0.914942 0
M  V30 11172 C 1074.06 -1.12169 -1.99877 0
M  V30 11173 C 1075.06 -0.0617252 -1.60681 0
M  V30 11174 O 1076.25 -0.307405 -1.71466 0
M  V30 11175 C 1073.39 -0.711959 -3.33383 0
M  V30 11176 H 1074.58 -2.08425 -2.15636 0
M  V30 11177 H 1072.13 -1.11291 -1.09745 0
M  V30 11178 H 1072.87 0.251418 -3.23324 0
M  V30 11179 H 1072.65 -1.47764 -3.63192 0
M  V30 11180 H 1074.14 -0.621558 -4.12948 0
M  V30 11181 N 1074.58 1.12322 -1.10551 0
M  V30 11182 C 1075.82 1.84333 -0.859826 0
M  V30 11183 C 1076.18 1.82539 0.608052 0
M  V30 11184 O 1075.47 1.26086 1.44267 0
M  V30 11185 C 1075.67 3.31177 -1.34375 0
M  V30 11186 C 1075.5 3.47272 -2.85714 0
M  V30 11187 C 1074.27 3.60837 -3.5373 0
M  V30 11188 C 1076.46 3.42336 -3.83811 0
M  V30 11189 N 1074.45 3.65309 -4.93378 0
M  V30 11190 C 1075.82 3.53318 -5.09477 0
M  V30 11191 C 1077.87 3.25809 -3.76501 0
M  V30 11192 C 1076.57 3.49477 -6.28695 0
M  V30 11193 C 1078.6 3.23282 -4.9522 0
M  V30 11194 C 1077.96 3.34826 -6.19735 0
M  V30 11195 H 1074.06 0.690186 -0.367651 0
M  V30 11196 H 1076.65 1.34463 -1.40811 0
M  V30 11197 H 1074.82 3.79585 -0.822767 0
M  V30 11198 H 1076.55 3.91051 -1.04217 0
M  V30 11199 H 1073.3 3.63005 -3.04178 0
M  V30 11200 H 1073.73 3.71207 -5.66157 0
M  V30 11201 H 1078.37 3.15777 -2.81149 0
M  V30 11202 H 1076.09 3.5828 -7.24335 0
M  V30 11203 H 1079.67 3.11674 -4.91274 0
M  V30 11204 H 1078.55 3.32847 -7.10058 0
M  V30 11205 N 1076.06 0.894434 1.2976 0
M  V30 11206 C 1076.99 0.325525 2.26877 0
M  V30 11207 C 1078 -0.525218 1.54095 0
M  V30 11208 O 1079.19 -0.343231 1.75169 0
M  V30 11209 C 1076.29 -0.554952 3.34325 0
M  V30 11210 C 1075.46 0.268868 4.36573 0
M  V30 11211 C 1074.52 -0.543601 5.23385 0
M  V30 11212 O 1073.55 0.0370454 5.69188 0
M  V30 11213 N 1074.75 -1.85079 5.50205 0
M  V30 11214 H 1077.52 1.16021 2.76332 0
M  V30 11215 H 1075.08 0.758382 1.43039 0
M  V30 11216 H 1077.07 -1.10476 3.89329 0
M  V30 11217 H 1075.64 -1.29031 2.84727 0
M  V30 11218 H 1074.86 1.0001 3.81302 0
M  V30 11219 H 1076.15 0.833248 5.01931 0
M  V30 11220 H 1075.54 -2.34533 5.14792 0
M  V30 11221 H 1074.1 -2.34784 6.08046 0
M  V30 11222 N 1077.53 -1.43282 0.656365 0
M  V30 11223 C 1078.76 -2.06641 0.177245 0
M  V30 11224 C 1079.18 -1.48893 -1.14946 0
M  V30 11225 O 1078.54 -0.600099 -1.7108 0
M  V30 11226 C 1078.59 -3.60453 0.10299 0
M  V30 11227 O 1077.69 -4.01687 -0.933895 0
M  V30 11228 H 1077.04 -0.656978 0.096314 0
M  V30 11229 H 1079.57 -1.83733 0.900178 0
M  V30 11230 H 1079.58 -4.07923 -0.079291 0
M  V30 11231 H 1078.25 -4.01861 1.07147 0
M  V30 11232 H 1076.83 -3.65801 -0.724148 0
M  V30 11233 N 1079.01 -0.398486 -1.52479 0
M  V30 11234 C 1080.26 0.180394 -2.01293 0
M  V30 11235 C 1080.58 1.46548 -1.28641 0
M  V30 11236 O 1079.85 1.91579 -0.409173 0
M  V30 11237 H 1078.43 0.0696528 -0.743746 0
M  V30 11238 H 1081.09 -0.532285 -1.87491 0
M  V30 11239 H 1080.19 0.38409 -3.09728 0
M  V30 11240 N 1080.49 1.57075 -0.12858 0
M  V30 11241 C 1081.72 1.99876 0.534544 0
M  V30 11242 C 1082.13 1.00843 1.59612 0
M  V30 11243 O 1081.49 0.00268947 1.825 0
M  V30 11244 C 1081.54 3.42654 1.15198 0
M  V30 11245 O 1081.26 4.37899 0.132823 0
M  V30 11246 C 1082.76 4.00637 1.8975 0
M  V30 11247 H 1079.98 0.656073 0.140744 0
M  V30 11248 H 1082.53 2.03337 -0.217742 0
M  V30 11249 H 1080.68 3.40101 1.85499 0
M  V30 11250 H 1081.1 5.21253 0.582682 0
M  V30 11251 H 1082.57 5.02592 2.28266 0
M  V30 11252 H 1083.05 3.40313 2.7764 0
M  V30 11253 H 1083.65 4.06764 1.2419 0
M  V30 11254 N 1081.97 -0.145205 1.5693 0
M  V30 11255 C 1082.92 -1.19841 1.99351 0
M  V30 11256 C 1083.91 -1.44371 0.886197 0
M  V30 11257 O 1085.12 -1.44642 1.07138 0
M  V30 11258 H 1081.49 -0.403437 0.63462 0
M  V30 11259 H 1083.46 -0.813932 2.87085 0
M  V30 11260 C 1082.21 -2.52377 2.39167 0
M  V30 11261 H 1081.54 -2.34332 3.23927 0
M  V30 11262 H 1082.98 -3.24694 2.72671 0
M  V30 11263 C 1081.43 -3.1305 1.24503 0
M  V30 11264 O 1081.96 -3.97962 0.546739 0
M  V30 11265 N 1080.17 -2.72528 1.00882 0
M  V30 11266 H 1079.72 -2.03576 1.57843 0
M  V30 11267 H 1079.68 -3.13456 0.24351 0
M  V30 11268 N 1083.45 -1.52049 -0.414609 0
M  V30 11269 C 1084.41 -1.74382 -1.4874 0
M  V30 11270 C 1085.41 -0.613701 -1.48628 0
M  V30 11271 O 1086.6 -0.88152 -1.50249 0
M  V30 11272 C 1083.73 -1.82116 -2.88178 0
M  V30 11273 H 1084.93 -2.70147 -1.30233 0
M  V30 11274 H 1082.48 -1.42382 -0.644756 0
M  V30 11275 H 1083.21 -0.882457 -3.12063 0
M  V30 11276 H 1083 -2.64268 -2.89663 0
M  V30 11277 H 1084.49 -2.01155 -3.65959 0
M  V30 11278 N 1084.93 0.6715 -1.42579 0
M  V30 11279 C 1086.15 1.46471 -1.46836 0
M  V30 11280 C 1086.58 1.87921 -0.0820658 0
M  V30 11281 O 1085.93 1.5621 0.920217 0
M  V30 11282 C 1085.98 2.68796 -2.40377 0
M  V30 11283 O 1085.09 3.67188 -1.87741 0
M  V30 11284 H 1084.43 0.439901 -0.497376 0
M  V30 11285 H 1086.96 0.823342 -1.87303 0
M  V30 11286 H 1086.97 3.16828 -2.57068 0
M  V30 11287 H 1085.64 2.37967 -3.41093 0
M  V30 11288 H 1084.22 3.26237 -1.80621 0
M  V30 11289 N 1086.4 1.28806 0.908124 0
M  V30 11290 C 1087.65 1.1646 1.66027 0
M  V30 11291 C 1087.98 -0.285025 1.92097 0
M  V30 11292 O 1087.26 -1.20675 1.52538 0
M  V30 11293 C 1087.54 1.96951 3.01467 0
M  V30 11294 C 1087.39 3.50007 2.82515 0
M  V30 11295 C 1088.71 1.78932 4.02084 0
M  V30 11296 H 1085.83 0.424435 0.602515 0
M  V30 11297 H 1088.47 1.58185 1.0525 0
M  V30 11298 H 1086.62 1.61495 3.53344 0
M  V30 11299 H 1088.3 3.95401 2.37605 0
M  V30 11300 H 1086.54 3.75356 2.17463 0
M  V30 11301 H 1087.21 4.01591 3.7872 0
M  V30 11302 H 1089.69 2.09885 3.59287 0
M  V30 11303 H 1088.56 2.37615 4.94803 0
M  V30 11304 H 1088.82 0.742286 4.35824 0
M  V30 11305 N 1087.88 -1.11734 1.11145 0
M  V30 11306 C 1089.13 -1.83405 0.858413 0
M  V30 11307 C 1089.46 -1.84488 -0.615975 0
M  V30 11308 O 1088.71 -1.29123 -1.47057 0
M  V30 11309 C 1089.01 -3.3046 1.36129 0
M  V30 11310 C 1088.68 -3.4954 2.84837 0
M  V30 11311 C 1087.34 -3.54456 3.25445 0
M  V30 11312 C 1089.69 -3.56048 3.8063 0
M  V30 11313 C 1087.02 -3.63431 4.60581 0
M  V30 11314 C 1089.37 -3.66554 5.15579 0
M  V30 11315 C 1088.03 -3.69728 5.55749 0
M  V30 11316 H 1087.3 -0.671128 0.314115 0
M  V30 11317 H 1089.95 -1.31795 1.38933 0
M  V30 11318 H 1088.26 -3.84544 0.750547 0
M  V30 11319 H 1089.95 -3.84398 1.14188 0
M  V30 11320 H 1086.54 -3.46382 2.52423 0
M  V30 11321 H 1090.73 -3.51513 3.5036 0
M  V30 11322 H 1085.98 -3.64164 4.91116 0
M  V30 11323 H 1090.16 -3.70532 5.89643 0
M  V30 11324 H 1087.78 -3.76435 6.60455 0
M  V30 11325 N 1089.36 -0.901303 -1.29284 0
M  V30 11326 C 1090.61 -0.538241 -1.96149 0
M  V30 11327 C 1090.96 0.905804 -1.69744 0
M  V30 11328 O 1090.25 1.63383 -1.00083 0
M  V30 11329 C 1090.45 -0.768828 -3.49033 0
M  V30 11330 C 1090.28 -2.23373 -3.903 0
M  V30 11331 C 1089.05 -2.88148 -4.15089 0
M  V30 11332 C 1091.24 -3.20907 -4.01899 0
M  V30 11333 N 1089.23 -4.25065 -4.42937 0
M  V30 11334 C 1090.6 -4.42948 -4.33817 0
M  V30 11335 C 1092.65 -3.16475 -3.8438 0
M  V30 11336 C 1091.36 -5.6112 -4.50041 0
M  V30 11337 C 1093.38 -4.33934 -4.01815 0
M  V30 11338 C 1092.74 -5.54745 -4.34093 0
M  V30 11339 H 1088.84 -0.246593 -0.742102 0
M  V30 11340 H 1091.43 -1.16245 -1.5619 0
M  V30 11341 H 1089.6 -0.17399 -3.8801 0
M  V30 11342 H 1091.33 -0.37104 -4.02996 0
M  V30 11343 H 1088.08 -2.38935 -4.0891 0
M  V30 11344 H 1088.51 -4.95822 -4.60966 0
M  V30 11345 H 1093.15 -2.2416 -3.58486 0
M  V30 11346 H 1090.87 -6.53925 -4.74771 0
M  V30 11347 H 1094.45 -4.31993 -3.89709 0
M  V30 11348 H 1093.33 -6.4412 -4.47302 0
M  V30 11349 N 1090.84 1.42931 -0.663954 0
M  V30 11350 C 1091.77 2.29122 0.0598878 0
M  V30 11351 C 1092.78 1.43094 0.776404 0
M  V30 11352 O 1093.97 1.66923 0.63237 0
M  V30 11353 C 1091.07 3.20268 1.10822 0
M  V30 11354 C 1090.24 4.34892 0.4677 0
M  V30 11355 C 1089.3 5.06836 1.41435 0
M  V30 11356 O 1088.33 5.61735 0.918818 0
M  V30 11357 N 1089.53 5.11336 2.74801 0
M  V30 11358 H 1092.3 2.91885 -0.679945 0
M  V30 11359 H 1089.86 1.53739 -0.507543 0
M  V30 11360 H 1091.85 3.65264 1.74255 0
M  V30 11361 H 1090.42 2.59031 1.7499 0
M  V30 11362 H 1089.64 3.92679 -0.34593 0
M  V30 11363 H 1090.93 5.08796 0.0210237 0
M  V30 11364 H 1090.33 4.68124 3.1761 0
M  V30 11365 H 1088.88 5.60013 3.33509 0
M  V30 11366 N 1092.32 0.406567 1.52266 0
M  V30 11367 C 1093.27 -0.437483 2.23763 0
M  V30 11368 C 1094.25 -1.01557 1.248 0
M  V30 11369 O 1095.44 -0.938813 1.50051 0
M  V30 11370 C 1092.57 -1.55499 3.06064 0
M  V30 11371 C 1091.66 -0.987799 4.12436 0
M  V30 11372 N 1092.05 -0.147044 5.05586 0
M  V30 11373 C 1090.35 -1.25857 4.27874 0
M  V30 11374 C 1091.05 0.168229 5.81457 0
M  V30 11375 N 1090.02 -0.440245 5.41814 0
M  V30 11376 H 1093.82 0.211203 2.9314 0
M  V30 11377 H 1091.34 0.216843 1.60946 0
M  V30 11378 H 1093.34 -2.17224 3.55836 0
M  V30 11379 H 1092 -2.20632 2.38226 0
M  V30 11380 H 1093.01 0.217062 5.17445 0
M  V30 11381 H 1089.68 -1.90967 3.71265 0
M  V30 11382 H 1091.07 0.850516 6.66495 0
M  V30 11383 N 1093.79 -1.57004 0.136909 0
M  V30 11384 C 1095.04 -1.9541 -0.51569 0
M  V30 11385 C 1095.36 -1.02219 -1.66061 0
M  V30 11386 O 1094.63 -0.0818172 -1.95729 0
M  V30 11387 H 1093.21 -0.721504 -0.193497 0
M  V30 11388 H 1095.88 -1.93765 0.210046 0
M  V30 11389 H 1094.97 -2.98887 -0.898494 0
M  V30 11390 N 1095.27 0.136881 -1.57004 0
M  V30 11391 C 1096.2 1.19402 -1.95642 0
M  V30 11392 C 1097.22 1.38635 -0.853478 0
M  V30 11393 O 1098.41 1.38027 -1.13185 0
M  V30 11394 C 1095.51 2.55716 -2.22402 0
M  V30 11395 C 1094.68 2.57325 -3.53698 0
M  V30 11396 C 1093.74 3.75253 -3.68879 0
M  V30 11397 O 1092.76 3.5966 -4.41173 0
M  V30 11398 N 1093.97 4.93112 -3.06302 0
M  V30 11399 H 1096.73 0.865504 -2.8693 0
M  V30 11400 H 1094.29 0.326346 -1.58577 0
M  V30 11401 H 1096.28 3.33135 -2.29789 0
M  V30 11402 H 1094.85 2.80819 -1.37329 0
M  V30 11403 H 1094.07 1.65749 -3.5766 0
M  V30 11404 H 1095.36 2.55441 -4.40031 0
M  V30 11405 H 1094.76 5.08684 -2.47502 0
M  V30 11406 H 1093.32 5.68271 -3.19236 0
M  V30 11407 N 1096.75 1.52266 0.40654 0
M  V30 11408 C 1098.16 1.58587 0.985241 0
M  V30 11409 C 1098.51 0.427955 1.91476 0
M  V30 11410 O 1097.64 -0.451341 2.11641 0
M  V30 11411 C 1098.23 2.87426 1.79365 0
M  V30 11412 C 1096.79 2.96217 2.32233 0
M  V30 11413 C 1095.94 2.53548 1.12288 0
M  V30 11414 H 1098.89 1.57598 0.186685 0
M  V30 11415 H 1098.91 2.72925 2.65127 0
M  V30 11416 H 1098.42 3.71682 1.11687 0
M  V30 11417 H 1096.52 2.1646 3.03275 0
M  V30 11418 H 1096.64 4.00511 2.62922 0
M  V30 11419 H 1095 2.07457 1.47763 0
M  V30 11420 H 1095.78 3.40181 0.461731 0
M  V30 11421 N 1098.23 -0.663929 1.42933 0
M  V30 11422 C 1099.48 -1.42393 1.43981 0
M  V30 11423 C 1099.8 -1.94407 0.0601802 0
M  V30 11424 O 1099.06 -1.72019 -0.933172 0
M  V30 11425 C 1099.36 -2.62976 2.4203 0
M  V30 11426 C 1099.02 -2.29441 3.88159 0
M  V30 11427 C 1097.69 -2.20007 4.27961 0
M  V30 11428 C 1100.04 -2.02413 4.8029 0
M  V30 11429 C 1097.37 -1.81686 5.57859 0
M  V30 11430 C 1099.72 -1.65592 6.10542 0
M  V30 11431 C 1098.38 -1.54676 6.49332 0
M  V30 11432 H 1097.65 -0.521051 0.526865 0
M  V30 11433 H 1100.3 -0.756042 1.75944 0
M  V30 11434 H 1098.6 -3.34847 2.03433 0
M  V30 11435 H 1100.3 -3.21174 2.40101 0
M  V30 11436 H 1096.89 -2.3769 3.56653 0
M  V30 11437 H 1101.07 -2.08628 4.5032 0
M  V30 11438 H 1096.33 -1.71812 5.86763 0
M  V30 11439 H 1100.5 -1.43707 6.81411 0
M  V30 11440 H 1098.13 -1.24752 7.49894 0
M  V30 11441 N 1099.71 -1.29285 -0.901281 0
M  V30 11442 C 1101.12 -1.15499 -1.46686 0
M  V30 11443 C 1101.47 0.250446 -1.94595 0
M  V30 11444 O 1100.59 1.14581 -1.83576 0
M  V30 11445 C 1101.19 -2.0906 -2.66607 0
M  V30 11446 C 1099.75 -1.99301 -3.19306 0
M  V30 11447 C 1098.89 -2.00079 -1.91999 0
M  V30 11448 H 1101.85 -1.41793 -0.712773 0
M  V30 11449 H 1101.87 -1.6619 -3.42288 0
M  V30 11450 H 1101.38 -3.11341 -2.31707 0
M  V30 11451 H 1099.48 -1.00103 -3.58901 0
M  V30 11452 H 1099.59 -2.86885 -3.8371 0
M  V30 11453 H 1097.96 -1.44655 -2.09636 0
M  V30 11454 H 1098.74 -3.04061 -1.59379 0
M  V30 11455 N 1101.18 1.11143 -1.11736 0
M  V30 11456 C 1102.6 1.34962 -0.851905 0
M  V30 11457 C 1102.8 1.94627 0.521797 0
M  V30 11458 O 1101.86 2.18121 1.27198 0
M  V30 11459 C 1103.17 2.27832 -1.96248 0
M  V30 11460 C 1104.72 2.41388 -1.9925 0
M  V30 11461 C 1105.19 3.37582 -3.09519 0
M  V30 11462 N 1106.68 3.45147 -3.08914 0
M  V30 11463 C 1107.42 4.19527 -3.90876 0
M  V30 11464 N 1106.91 4.96858 -4.82809 0
M  V30 11465 N 1108.71 4.15071 -3.79042 0
M  V30 11466 H 1100.86 0.707801 -2.0026 0
M  V30 11467 H 1103.12 0.374172 -0.871033 0
M  V30 11468 H 1102.83 1.91189 -2.95194 0
M  V30 11469 H 1102.7 3.28078 -1.86132 0
M  V30 11470 H 1105.09 2.77304 -1.00928 0
M  V30 11471 H 1105.17 1.40983 -2.13442 0
M  V30 11472 H 1104.81 3.02393 -4.0807 0
M  V30 11473 H 1104.74 4.37849 -2.92568 0
M  V30 11474 H 1107.23 2.89991 -2.42309 0
M  V30 11475 H 1107.55 5.5099 -5.41876 0
M  V30 11476 H 1105.89 4.96008 -4.86828 0
M  V30 11477 H 1109.08 3.53748 -3.06562 0
M  V30 11478 H 1109.26 4.72781 -4.4315 0
M  V30 11479 N 1102.66 0.908147 1.28804 0
M  V30 11480 C 1103.91 0.538404 1.95211 0
M  V30 11481 C 1104.24 -0.916886 1.71533 0
M  V30 11482 O 1103.49 -1.66643 1.02609 0
M  V30 11483 C 1103.79 0.787327 3.4862 0
M  V30 11484 C 1103.46 2.22129 3.92389 0
M  V30 11485 C 1102.12 2.61336 4.04051 0
M  V30 11486 C 1104.47 3.15471 4.14883 0
M  V30 11487 C 1101.8 3.93048 4.3558 0
M  V30 11488 C 1104.15 4.46741 4.47889 0
M  V30 11489 C 1102.82 4.85809 4.57761 0
M  V30 11490 H 1102.09 0.197016 0.714329 0
M  V30 11491 H 1104.73 1.14841 1.53244 0
M  V30 11492 H 1103.04 0.0944731 3.91686 0
M  V30 11493 H 1104.73 0.480503 3.98111 0
M  V30 11494 H 1101.32 1.90704 3.83836 0
M  V30 11495 H 1105.51 2.86391 4.05332 0
M  V30 11496 H 1100.76 4.23027 4.41428 0
M  V30 11497 H 1104.94 5.19087 4.64243 0
M  V30 11498 H 1102.57 5.87904 4.81947 0
M  V30 11499 N 1104.14 -1.42577 0.671525 0
M  V30 11500 C 1105.37 -2.06442 0.199152 0
M  V30 11501 C 1105.79 -1.50104 -1.1336 0
M  V30 11502 O 1105.15 -0.618211 -1.70434 0
M  V30 11503 C 1105.2 -3.60323 0.141215 0
M  V30 11504 O 1104.3 -4.02655 -0.891238 0
M  V30 11505 H 1103.64 -0.655919 0.103277 0
M  V30 11506 H 1106.17 -1.82768 0.919614 0
M  V30 11507 H 1106.18 -4.07984 -0.0360209 0
M  V30 11508 H 1104.86 -4.00702 1.11403 0
M  V30 11509 H 1103.43 -3.66549 -0.685309 0
M  V30 11510 N 1105.62 -0.414636 -1.52048 0
M  V30 11511 C 1106.55 0.399119 -2.30064 0
M  V30 11512 C 1107.53 1.04126 -1.34506 0
M  V30 11513 O 1108.71 1.04923 -1.63416 0
M  V30 11514 C 1105.84 1.51305 -3.12608 0
M  V30 11515 C 1104.8 0.995621 -4.16259 0
M  V30 11516 C 1104.12 2.20357 -4.87183 0
M  V30 11517 C 1105.42 0.0458178 -5.2228 0
M  V30 11518 H 1107.12 -0.251879 -2.98339 0
M  V30 11519 H 1104.66 -0.122579 -1.43477 0
M  V30 11520 H 1106.62 2.08936 -3.65956 0
M  V30 11521 H 1105.34 2.19201 -2.42113 0
M  V30 11522 H 1104 0.441676 -3.6393 0
M  V30 11523 H 1103.65 2.8682 -4.13211 0
M  V30 11524 H 1103.35 1.86385 -5.57256 0
M  V30 11525 H 1104.87 2.78584 -5.43345 0
M  V30 11526 H 1106.29 0.531102 -5.70835 0
M  V30 11527 H 1104.68 -0.20536 -5.99749 0
M  V30 11528 H 1105.75 -0.897807 -4.76516 0
M  V30 11529 N 1107.1 1.56929 -0.145233 0
M  V30 11530 C 1108.51 1.82877 0.375884 0
M  V30 11531 C 1108.86 1.06384 1.64854 0
M  V30 11532 O 1107.98 0.30857 2.14189 0
M  V30 11533 C 1108.58 3.31725 0.688744 0
M  V30 11534 C 1107.14 3.58261 1.15439 0
M  V30 11535 C 1106.28 2.76737 0.176565 0
M  V30 11536 H 1109.24 1.54328 -0.36996 0
M  V30 11537 H 1109.26 3.47784 1.54359 0
M  V30 11538 H 1108.77 3.87371 -0.237694 0
M  V30 11539 H 1106.87 3.08 2.09683 0
M  V30 11540 H 1106.98 4.66732 1.08158 0
M  V30 11541 H 1105.35 2.45761 0.668843 0
M  V30 11542 H 1106.13 3.35154 -0.743432 0
M  V30 11543 N 1108.58 -0.128553 1.57075 0
M  V30 11544 C 1109.82 -0.83801 1.84347 0
M  V30 11545 C 1110.15 -1.80325 0.728906 0
M  V30 11546 O 1109.41 -1.93678 -0.280571 0
M  V30 11547 C 1109.7 -1.63027 3.18052 0
M  V30 11548 C 1109.37 -0.810171 4.43562 0
M  V30 11549 C 1108.03 -0.583984 4.77643 0
M  V30 11550 C 1110.38 -0.237896 5.20657 0
M  V30 11551 C 1107.71 0.224887 5.86269 0
M  V30 11552 C 1110.06 0.558114 6.30133 0
M  V30 11553 C 1108.73 0.794706 6.62752 0
M  V30 11554 H 1108 -0.30665 0.674572 0
M  V30 11555 H 1110.65 -0.100797 1.91235 0
M  V30 11556 H 1108.95 -2.43812 3.06697 0
M  V30 11557 H 1110.65 -2.183 3.36372 0
M  V30 11558 H 1107.24 -0.996547 4.16854 0
M  V30 11559 H 1111.42 -0.399881 4.94686 0
M  V30 11560 H 1106.68 0.417507 6.09973 0
M  V30 11561 H 1110.85 1.00859 6.89058 0
M  V30 11562 H 1108.48 1.42331 7.46757 0
M  V30 11563 N 1110.05 -1.5248 -0.398459 0
M  V30 11564 C 1110.98 -1.79549 -1.49279 0
M  V30 11565 C 1111.96 -0.647004 -1.57315 0
M  V30 11566 O 1113.15 -0.893661 -1.72416 0
M  V30 11567 C 1110.28 -1.95582 -2.86993 0
M  V30 11568 C 1109.23 -3.1123 -2.93803 0
M  V30 11569 C 1108.56 -3.12501 -4.33874 0
M  V30 11570 C 1109.86 -4.50485 -2.64312 0
M  V30 11571 H 1111.55 -2.71187 -1.26877 0
M  V30 11572 H 1109.1 -1.30492 -0.608924 0
M  V30 11573 H 1111.05 -2.13102 -3.63546 0
M  V30 11574 H 1109.78 -1.00625 -3.10712 0
M  V30 11575 H 1108.44 -2.93477 -2.19697 0
M  V30 11576 H 1108.08 -2.15245 -4.54619 0
M  V30 11577 H 1107.78 -3.90183 -4.39353 0
M  V30 11578 H 1109.31 -3.32164 -5.12347 0
M  V30 11579 H 1110.72 -4.68387 -3.30585 0
M  V30 11580 H 1109.12 -5.30163 -2.81153 0
M  V30 11581 H 1110.19 -4.57848 -1.59696 0
M  V30 11582 N 1111.53 0.65634 -1.43283 0
M  V30 11583 C 1112.76 1.44906 -1.48382 0
M  V30 11584 C 1113.18 1.87823 -0.101993 0
M  V30 11585 O 1112.54 1.57178 0.903597 0
M  V30 11586 C 1112.59 2.66231 -2.43215 0
M  V30 11587 O 1111.69 3.65176 -1.91625 0
M  V30 11588 H 1111.03 0.434601 -0.502014 0
M  V30 11589 H 1113.56 0.803429 -1.88165 0
M  V30 11590 H 1113.57 3.14083 -2.60414 0
M  V30 11591 H 1112.25 2.34336 -3.43598 0
M  V30 11592 H 1110.82 3.24302 -1.84072 0
M  V30 11593 N 1113.01 1.29761 0.894412 0
M  V30 11594 C 1114.26 1.17409 1.64006 0
M  V30 11595 C 1114.57 -0.272355 1.93695 0
M  V30 11596 O 1115.78 -0.517269 2.66527 0
M  V30 11597 C 1114.23 2.05379 2.95546 0
M  V30 11598 C 1113.84 3.54878 2.73433 0
M  V30 11599 C 1115.59 2.01765 3.73485 0
M  V30 11600 C 1113.49 4.34935 4.00731 0
M  V30 11601 H 1112.42 0.43583 0.615279 0
M  V30 11602 H 1115.07 1.5444 0.990983 0
M  V30 11603 H 1113.46 1.61222 3.61695 0
M  V30 11604 H 1114.63 4.07122 2.15844 0
M  V30 11605 H 1112.94 3.60218 2.08882 0
M  V30 11606 H 1115.54 2.58835 4.67877 0
M  V30 11607 H 1115.88 0.998876 4.04139 0
M  V30 11608 H 1116.42 2.43994 3.14184 0
M  V30 11609 H 1113.16 5.3747 3.75241 0
M  V30 11610 H 1112.68 3.87458 4.5786 0
M  V30 11611 H 1114.36 4.45875 4.68833 0
M  V30 11612 N 1114.49 -1.10549 1.12324 0
M  V30 11613 C 1115.45 -2.15039 0.793156 0
M  V30 11614 C 1116.45 -1.59651 -0.19192 0
M  V30 11615 O 1117.64 -1.74167 0.0337262 0
M  V30 11616 C 1114.77 -3.40433 0.17842 0
M  V30 11617 H 1115.97 -2.4575 1.71892 0
M  V30 11618 H 1113.52 -1.25892 0.926333 0
M  V30 11619 H 1114.25 -3.15338 -0.757122 0
M  V30 11620 H 1114.04 -3.81921 0.887645 0
M  V30 11621 H 1115.53 -4.17584 -0.0360724 0
M  V30 11622 N 1115.97 -0.914965 -1.28321 0
M  V30 11623 C 1117.19 -0.564023 -1.99583 0
M  V30 11624 C 1117.62 0.847821 -1.6791 0
M  V30 11625 O 1116.97 1.56682 -0.912171 0
M  V30 11626 C 1117.02 -0.781368 -3.52033 0
M  V30 11627 O 1116.13 0.159072 -4.12093 0
M  V30 11628 H 1115.47 -0.218565 -0.626997 0
M  V30 11629 H 1118 -1.23074 -1.63444 0
M  V30 11630 H 1118.01 -0.691946 -4.0209 0
M  V30 11631 H 1116.68 -1.81059 -3.7442 0
M  V30 11632 H 1115.26 0.0208145 -3.72894 0
M  V30 11633 N 1117.44 1.42219 -0.679077 0
M  V30 11634 C 1118.41 2.29197 -0.0125475 0
M  V30 11635 C 1119.41 1.43544 0.724691 0
M  V30 11636 O 1120.6 1.64884 0.562052 0
M  V30 11637 C 1117.73 3.26122 0.992846 0
M  V30 11638 H 1118.92 2.89629 -0.778154 0
M  V30 11639 H 1116.47 1.4993 -0.44166 0
M  V30 11640 H 1117.21 2.70637 1.78679 0
M  V30 11641 H 1116.99 3.89302 0.467544 0
M  V30 11642 H 1118.48 3.91339 1.45751 0
M  V30 11643 N 1118.92 0.422693 1.51826 0
M  V30 11644 C 1120.15 -0.14753 2.06073 0
M  V30 11645 C 1120.56 -1.38264 1.2915 0
M  V30 11646 O 1119.9 -1.8052 0.340306 0
M  V30 11647 C 1119.96 -0.549558 3.55275 0
M  V30 11648 C 1119.63 0.576704 4.53347 0
M  V30 11649 C 1120.63 1.44442 4.99432 0
M  V30 11650 C 1118.31 0.753264 4.9662 0
M  V30 11651 C 1120.3 2.47352 5.87448 0
M  V30 11652 C 1117.99 1.78566 5.84429 0
M  V30 11653 C 1118.99 2.64419 6.29739 0
M  V30 11654 O 1118.68 3.65888 7.15808 0
M  V30 11655 H 1118.41 -0.0178911 0.675763 0
M  V30 11656 H 1120.96 0.596258 1.96555 0
M  V30 11657 H 1119.19 -1.34583 3.62525 0
M  V30 11658 H 1120.88 -1.04925 3.92104 0
M  V30 11659 H 1121.65 1.31948 4.66706 0
M  V30 11660 H 1117.53 0.0946405 4.60903 0
M  V30 11661 H 1121.07 3.14397 6.22736 0
M  V30 11662 H 1116.97 1.91086 6.16568 0
M  V30 11663 H 1117.74 3.62294 7.33952 0
M  V30 11664 N 1120.4 -1.5685 0.153553 0
M  V30 11665 C 1121.63 -2.0041 -0.501949 0
M  V30 11666 C 1122.04 -1.03272 -1.58529 0
M  V30 11667 O 1121.38 -0.0227479 -1.83686 0
M  V30 11668 C 1121.44 -3.40402 -1.15613 0
M  V30 11669 C 1121.11 -4.56486 -0.216596 0
M  V30 11670 C 1122.1 -5.16894 0.558267 0
M  V30 11671 C 1119.79 -5.02162 -0.117592 0
M  V30 11672 C 1121.78 -6.21392 1.41951 0
M  V30 11673 C 1119.47 -6.06514 0.747255 0
M  V30 11674 C 1120.47 -6.65999 1.51441 0
M  V30 11675 O 1120.16 -7.6833 2.36483 0
M  V30 11676 H 1119.89 -0.66247 -0.134574 0
M  V30 11677 H 1122.44 -2.03908 0.247086 0
M  V30 11678 H 1120.67 -3.33762 -1.95294 0
M  V30 11679 H 1122.36 -3.68028 -1.71202 0
M  V30 11680 H 1123.13 -4.825 0.491851 0
M  V30 11681 H 1119.01 -4.55586 -0.704462 0
M  V30 11682 H 1122.55 -6.67751 2.01877 0
M  V30 11683 H 1118.45 -6.40335 0.81494 0
M  V30 11684 H 1119.21 -7.85578 2.29803 0
M  V30 11685 N 1121.88 0.120221 -1.57141 0
M  V30 11686 C 1122.81 1.17787 -1.95452 0
M  V30 11687 C 1123.79 1.40174 -0.824016 0
M  V30 11688 O 1124.97 1.54348 -1.08208 0
M  V30 11689 C 1122.1 2.53193 -2.24969 0
M  V30 11690 C 1121.15 2.47241 -3.47526 0
M  V30 11691 S 1121.98 1.91325 -5.00155 0
M  V30 11692 C 1123.13 3.28406 -5.32823 0
M  V30 11693 H 1123.37 0.851152 -2.84856 0
M  V30 11694 H 1120.9 0.326929 -1.50899 0
M  V30 11695 H 1122.86 3.31104 -2.42652 0
M  V30 11696 H 1121.52 2.83043 -1.36181 0
M  V30 11697 H 1120.71 3.46981 -3.65541 0
M  V30 11698 H 1120.31 1.7745 -3.29223 0
M  V30 11699 H 1122.61 4.24613 -5.2793 0
M  V30 11700 H 1123.55 3.1522 -6.34068 0
M  V30 11701 H 1123.96 3.26779 -4.603 0
M  V30 11702 N 1123.36 1.52689 0.390367 0
M  V30 11703 C 1124.6 1.67666 1.13553 0
M  V30 11704 C 1124.93 0.415903 1.90001 0
M  V30 11705 O 1124.19 -0.601664 1.86222 0
M  V30 11706 C 1124.49 2.86177 2.14096 0
M  V30 11707 C 1124.15 4.23671 1.54316 0
M  V30 11708 C 1122.81 4.61066 1.37739 0
M  V30 11709 C 1125.17 5.09278 1.1084 0
M  V30 11710 C 1122.49 5.81727 0.76231 0
M  V30 11711 C 1124.85 6.30562 0.507433 0
M  V30 11712 C 1123.51 6.66689 0.328945 0
M  V30 11713 H 1122.78 0.613533 0.415521 0
M  V30 11714 H 1125.43 1.8683 0.420339 0
M  V30 11715 H 1123.73 2.61424 2.9183 0
M  V30 11716 H 1125.43 2.9496 2.7166 0
M  V30 11717 H 1122.02 3.94214 1.68207 0
M  V30 11718 H 1126.2 4.80957 1.2245 0
M  V30 11719 H 1121.46 6.08327 0.612208 0
M  V30 11720 H 1125.63 6.96211 0.162248 0
M  V30 11721 H 1123.26 7.60052 -0.149748 0
M  V30 11722 N 1124.83 -0.648732 1.43629 0
M  V30 11723 C 1126.06 -1.43412 1.48716 0
M  V30 11724 C 1126.47 -1.88908 0.105051 0
M  V30 11725 O 1125.82 -1.60373 -0.895896 0
M  V30 11726 C 1125.88 -2.69906 2.37468 0
M  V30 11727 C 1125.54 -2.46321 3.84935 0
M  V30 11728 C 1126.54 -2.09259 4.75927 0
M  V30 11729 C 1124.22 -2.60506 4.29467 0
M  V30 11730 C 1126.22 -1.86686 6.09448 0
M  V30 11731 C 1123.9 -2.37548 5.6304 0
M  V30 11732 C 1124.9 -2.00694 6.52848 0
M  V30 11733 O 1124.59 -1.77979 7.83951 0
M  V30 11734 H 1124.32 -0.446883 0.507219 0
M  V30 11735 H 1126.88 -0.802218 1.89086 0
M  V30 11736 H 1125.11 -3.35672 1.91993 0
M  V30 11737 H 1126.8 -3.31867 2.33707 0
M  V30 11738 H 1127.56 -1.97872 4.428 0
M  V30 11739 H 1123.44 -2.88165 3.59836 0
M  V30 11740 H 1126.98 -1.57844 6.79508 0
M  V30 11741 H 1122.88 -2.48539 5.95734 0
M  V30 11742 H 1123.65 -1.92368 7.95573 0
M  V30 11743 N 1126.31 -1.30234 -0.887518 0
M  V30 11744 C 1127.59 -1.09572 -1.62029 0
M  V30 11745 C 1127.97 0.355877 -2.08079 0
M  V30 11746 O 1127.32 1.34692 -1.84582 0
M  V30 11747 C 1127.53 -2.0943 -2.79177 0
M  V30 11748 C 1128.88 -2.4101 -3.4957 0
M  V30 11749 O 1129.9 -2.0772 -2.89363 0
M  V30 11750 O 1128.76 -2.97943 -4.5814 0
M  V30 11751 H 1125.85 -0.420648 -0.712028 0
M  V30 11752 H 1128.4 -1.41651 -0.934517 0
M  V30 11753 H 1127.17 -3.07149 -2.42436 0
M  V30 11754 H 1126.79 -1.78154 -3.55453 0
M  V30 11755 N 1127.79 1.09952 -1.12909 0
M  V30 11756 C 1129.04 1.81657 -0.885729 0
M  V30 11757 C 1129.36 1.85863 0.589913 0
M  V30 11758 O 1128.63 1.34028 1.42875 0
M  V30 11759 H 1127.21 0.672743 -0.324694 0
M  V30 11760 H 1129.87 1.33013 -1.42456 0
M  V30 11761 H 1128.97 2.85018 -1.27167 0
M  V30 11762 N 1129.27 0.921757 1.27833 0
M  V30 11763 C 1130.5 0.574368 1.98455 0
M  V30 11764 C 1130.91 -0.850577 1.69002 0
M  V30 11765 O 1130.25 -1.57607 0.943708 0
M  V30 11766 C 1130.31 0.713235 3.52354 0
M  V30 11767 C 1129.98 2.1092 4.05415 0
M  V30 11768 C 1130.97 3.08276 4.18643 0
M  V30 11769 C 1128.66 2.42454 4.3991 0
M  V30 11770 C 1130.65 4.35279 4.6563 0
M  V30 11771 C 1128.34 3.69694 4.8659 0
M  V30 11772 C 1129.34 4.6592 4.99407 0
M  V30 11773 O 1129.02 5.90896 5.45066 0
M  V30 11774 H 1128.76 0.216955 0.640239 0
M  V30 11775 H 1131.31 1.23932 1.63798 0
M  V30 11776 H 1129.54 -0.00881115 3.86699 0
M  V30 11777 H 1131.23 0.371776 4.04194 0
M  V30 11778 H 1132 2.85234 3.92258 0
M  V30 11779 H 1127.87 1.68303 4.2918 0
M  V30 11780 H 1131.42 5.10391 4.75549 0
M  V30 11781 H 1127.32 3.92557 5.12415 0
M  V30 11782 H 1128.08 5.938 5.63333 0
M  V30 11783 N 1130.75 -1.41857 0.686609 0
M  V30 11784 C 1132.02 -1.95082 0.142228 0
M  V30 11785 C 1132.4 -1.62646 -1.34572 0
M  V30 11786 O 1131.75 -0.928757 -2.08773 0
M  V30 11787 C 1131.96 -3.46415 0.423955 0
M  V30 11788 C 1133.31 -4.23181 0.346842 0
M  V30 11789 O 1134.33 -3.54393 0.358363 0
M  V30 11790 O 1133.19 -5.4568 0.299211 0
M  V30 11791 H 1130.29 -0.826943 0.00974 0
M  V30 11792 H 1132.83 -1.51622 0.762153 0
M  V30 11793 H 1131.6 -3.63273 1.45424 0
M  V30 11794 H 1131.23 -3.96949 -0.227391 0
M  V30 11795 N 1132.22 -0.430739 -1.51599 0
M  V30 11796 C 1133.47 0.137657 -2.01631 0
M  V30 11797 C 1133.79 1.43787 -1.31721 0
M  V30 11798 O 1133.06 1.90668 -0.449717 0
M  V30 11799 H 1131.64 0.0538611 -0.745056 0
M  V30 11800 H 1134.31 -0.571935 -1.86319 0
M  V30 11801 H 1133.4 0.318305 -3.10473 0
M  V30 11802 N 1133.7 1.56767 -0.161869 0
M  V30 11803 C 1134.98 1.88245 0.531352 0
M  V30 11804 C 1135.36 1.07025 1.81958 0
M  V30 11805 O 1134.71 0.161385 2.27929 0
M  V30 11806 C 1134.92 3.40117 0.782416 0
M  V30 11807 C 1136.27 4.09655 1.11661 0
M  V30 11808 O 1137.29 3.4538 0.871274 0
M  V30 11809 O 1136.15 5.23192 1.57901 0
M  V30 11810 H 1133.24 0.780725 0.272759 0
M  V30 11811 H 1135.79 1.68522 -0.199597 0
M  V30 11812 H 1134.56 3.91088 -0.128677 0
M  V30 11813 H 1134.18 3.65418 1.56702 0
M  V30 11814 N 1135.18 -0.111886 1.57202 0
M  V30 11815 C 1136.41 -0.832407 1.89416 0
M  V30 11816 C 1136.82 -1.73096 0.753861 0
M  V30 11817 O 1136.18 -1.80416 -0.274992 0
M  V30 11818 C 1136.23 -1.65988 3.21139 0
M  V30 11819 O 1135.95 -0.797485 4.3078 0
M  V30 11820 C 1137.45 -2.48493 3.67105 0
M  V30 11821 H 1134.67 -0.238919 0.627024 0
M  V30 11822 H 1137.22 -0.0941456 2.04283 0
M  V30 11823 H 1135.37 -2.35082 3.07921 0
M  V30 11824 H 1135.79 -1.36892 5.06321 0
M  V30 11825 H 1137.26 -3.02072 4.62014 0
M  V30 11826 H 1137.74 -3.26182 2.94112 0
M  V30 11827 H 1138.34 -1.84628 3.83135 0
M  V30 11828 N 1136.66 -1.52894 -0.382264 0
M  V30 11829 C 1137.89 -1.71902 -1.146 0
M  V30 11830 C 1138.3 -0.44017 -1.84009 0
M  V30 11831 O 1137.64 0.595616 -1.73776 0
M  V30 11832 C 1137.7 -2.81785 -2.23244 0
M  V30 11833 C 1137.37 -4.22684 -1.73745 0
M  V30 11834 C 1138.36 -5.05611 -1.21054 0
M  V30 11835 C 1136.05 -4.69031 -1.79763 0
M  V30 11836 C 1138.04 -6.32968 -0.750368 0
M  V30 11837 C 1135.73 -5.96371 -1.33358 0
M  V30 11838 C 1136.73 -6.7817 -0.810832 0
M  V30 11839 O 1136.41 -8.03122 -0.353577 0
M  V30 11840 H 1136.15 -0.578767 -0.349292 0
M  V30 11841 H 1138.7 -2.00359 -0.452246 0
M  V30 11842 H 1136.93 -2.48764 -2.96063 0
M  V30 11843 H 1138.62 -2.89131 -2.84883 0
M  V30 11844 H 1139.39 -4.70984 -1.15755 0
M  V30 11845 H 1135.26 -4.05447 -2.19394 0
M  V30 11846 H 1138.81 -6.96763 -0.341666 0
M  V30 11847 H 1134.71 -6.30501 -1.38344 0
M  V30 11848 H 1135.47 -8.17124 -0.474439 0
M  V30 11849 N 1138.14 0.641106 -1.43971 0
M  V30 11850 C 1139.08 1.75352 -1.50068 0
M  V30 11851 C 1140.05 1.62386 -0.349266 0
M  V30 11852 O 1141.24 1.82455 -0.558118 0
M  V30 11853 C 1138.38 3.13561 -1.4413 0
M  V30 11854 C 1137.49 3.37574 -2.6957 0
M  V30 11855 C 1136.63 4.65698 -2.55535 0
M  V30 11856 C 1135.67 4.82857 -3.76186 0
M  V30 11857 N 1134.8 6.02249 -3.60888 0
M  V30 11858 H 1139.64 1.69477 -2.45116 0
M  V30 11859 H 1137.18 0.826871 -1.2166 0
M  V30 11860 H 1139.14 3.93476 -1.38681 0
M  V30 11861 H 1137.77 3.18476 -0.526563 0
M  V30 11862 H 1136.82 2.5167 -2.85248 0
M  V30 11863 H 1138.13 3.46135 -3.59154 0
M  V30 11864 H 1137.29 5.53759 -2.47862 0
M  V30 11865 H 1136.03 4.59479 -1.63495 0
M  V30 11866 H 1135.03 3.93229 -3.84254 0
M  V30 11867 H 1136.26 4.90898 -4.6925 0
M  V30 11868 H 1134.2 5.97138 -2.71591 0
M  V30 11869 H 1134.12 6.11822 -4.44083 0
M  V30 11870 H 1135.39 6.92898 -3.57088 0
M  V30 11871 N 1139.62 1.30703 0.880598 0
M  V30 11872 C 1140.84 1.22843 1.67106 0
M  V30 11873 C 1141.27 -0.204788 1.86982 0
M  V30 11874 O 1140.62 -1.14716 1.40392 0
M  V30 11875 C 1140.67 1.96685 3.02237 0
M  V30 11876 O 1139.78 1.29693 3.91476 0
M  V30 11877 H 1139.12 0.424661 0.51045 0
M  V30 11878 H 1141.65 1.72596 1.09871 0
M  V30 11879 H 1141.66 2.05874 3.52249 0
M  V30 11880 H 1140.33 3.00919 2.8709 0
M  V30 11881 H 1138.91 1.28886 3.49918 0
M  V30 11882 N 1141.09 -1.09351 1.1349 0
M  V30 11883 C 1142.51 -1.3359 0.873269 0
M  V30 11884 C 1142.71 -1.95432 -0.490767 0
M  V30 11885 O 1141.77 -2.20117 -1.23712 0
M  V30 11886 C 1143.08 -2.24681 1.99847 0
M  V30 11887 C 1144.63 -2.38188 2.03065 0
M  V30 11888 C 1145.1 -3.32615 3.14851 0
M  V30 11889 N 1146.59 -3.40188 3.14366 0
M  V30 11890 C 1147.33 -4.13256 3.97501 0
M  V30 11891 N 1146.82 -4.89114 4.90652 0
M  V30 11892 N 1148.62 -4.08988 3.85597 0
M  V30 11893 H 1140.77 -0.675852 2.0136 0
M  V30 11894 H 1143.03 -0.360268 0.876876 0
M  V30 11895 H 1142.74 -1.86469 2.98198 0
M  V30 11896 H 1142.61 -3.25075 1.91327 0
M  V30 11897 H 1145 -2.75663 1.05327 0
M  V30 11898 H 1145.08 -1.3757 2.15658 0
M  V30 11899 H 1144.72 -2.95863 4.12829 0
M  V30 11900 H 1144.65 -4.33139 2.99496 0
M  V30 11901 H 1147.14 -2.861 2.46892 0
M  V30 11902 H 1147.46 -5.423 5.50573 0
M  V30 11903 H 1145.8 -4.882 4.94657 0
M  V30 11904 H 1148.99 -3.48826 3.12151 0
M  V30 11905 H 1149.17 -4.65671 4.50615 0
M  V30 11906 N 1142.57 -0.928524 -1.27343 0
M  V30 11907 C 1143.8 -0.584884 -1.98148 0
M  V30 11908 C 1144.21 0.841603 -1.69451 0
M  V30 11909 O 1143.55 1.57104 -0.952053 0
M  V30 11910 C 1143.61 -0.731911 -3.51971 0
M  V30 11911 C 1143.28 -2.13067 -4.04291 0
M  V30 11912 C 1144.28 -3.10492 -4.17002 0
M  V30 11913 C 1141.96 -2.44784 -4.38619 0
M  V30 11914 C 1143.95 -4.37742 -4.63315 0
M  V30 11915 C 1141.64 -3.72269 -4.84622 0
M  V30 11916 C 1142.64 -4.68562 -4.9693 0
M  V30 11917 O 1142.33 -5.93779 -5.41924 0
M  V30 11918 H 1142.06 -0.220347 -0.63908 0
M  V30 11919 H 1144.61 -1.24799 -1.63139 0
M  V30 11920 H 1142.84 -0.0116966 -3.86698 0
M  V30 11921 H 1144.53 -0.393206 -4.03991 0
M  V30 11922 H 1145.3 -2.8731 -3.9074 0
M  V30 11923 H 1141.18 -1.70577 -4.28281 0
M  V30 11924 H 1144.72 -5.12905 -4.72836 0
M  V30 11925 H 1140.62 -3.95269 -5.10326 0
M  V30 11926 H 1141.39 -5.96779 -5.60176 0
M  V30 11927 N 1144.05 1.41491 -0.694123 0
M  V30 11928 C 1145.3 2.00854 -0.224033 0
M  V30 11929 C 1145.62 1.55246 1.17999 0
M  V30 11930 O 1144.89 0.782452 1.79595 0
M  V30 11931 H 1143.47 0.742721 -0.0798368 0
M  V30 11932 H 1146.13 1.73137 -0.894958 0
M  V30 11933 H 1145.23 3.11173 -0.240332 0
M  V30 11934 N 1145.53 0.438773 1.51369 0
M  V30 11935 C 1146.76 -0.125847 2.06517 0
M  V30 11936 C 1147.17 -1.36336 1.30606 0
M  V30 11937 O 1146.53 -1.78792 0.36603 0
M  V30 11938 C 1146.58 -0.446619 3.5873 0
M  V30 11939 O 1146.3 0.741781 4.31775 0
M  V30 11940 C 1147.8 -1.06175 4.30397 0
M  V30 11941 H 1145.02 -0.00728868 0.67096 0
M  V30 11942 H 1147.56 0.618267 1.9493 0
M  V30 11943 H 1145.72 -1.14064 3.70227 0
M  V30 11944 H 1146.13 0.466907 5.22418 0
M  V30 11945 H 1147.61 -1.23619 5.3798 0
M  V30 11946 H 1148.08 -2.04317 3.88782 0
M  V30 11947 H 1148.69 -0.40708 4.23347 0
M  V30 11948 N 1147.01 -1.56678 0.170181 0
M  V30 11949 C 1148.25 -1.9714 -0.475767 0
M  V30 11950 C 1148.58 -1.05611 -1.62972 0
M  V30 11951 O 1147.86 -0.103017 -1.94227 0
M  V30 11952 C 1148.14 -3.47072 -0.959828 0
M  V30 11953 C 1148 -4.4938 0.194225 0
M  V30 11954 C 1149.31 -4.00071 -1.83387 0
M  V30 11955 H 1146.43 -0.716776 -0.171466 0
M  V30 11956 H 1149.08 -1.88266 0.256086 0
M  V30 11957 H 1147.23 -3.54766 -1.58346 0
M  V30 11958 H 1148.9 -4.53748 0.83128 0
M  V30 11959 H 1147.14 -4.25393 0.849893 0
M  V30 11960 H 1147.81 -5.51685 -0.186575 0
M  V30 11961 H 1150.29 -3.95002 -1.30815 0
M  V30 11962 H 1149.16 -5.05398 -2.14159 0
M  V30 11963 H 1149.42 -3.43819 -2.77923 0
M  V30 11964 N 1148.48 0.103547 -1.57259 0
M  V30 11965 C 1149.73 0.809774 -1.85931 0
M  V30 11966 C 1150.06 1.78791 -0.758122 0
M  V30 11967 O 1149.34 1.93079 0.234682 0
M  V30 11968 C 1149.62 1.54601 -3.25224 0
M  V30 11969 C 1149.47 0.586439 -4.45961 0
M  V30 11970 C 1150.79 2.4986 -3.62296 0
M  V30 11971 H 1147.91 0.29293 -0.676285 0
M  V30 11972 H 1150.55 0.0736065 -1.89857 0
M  V30 11973 H 1148.7 2.17355 -3.22008 0
M  V30 11974 H 1150.38 -0.0334441 -4.61288 0
M  V30 11975 H 1148.62 -0.10085 -4.33683 0
M  V30 11976 H 1149.29 1.13855 -5.40131 0
M  V30 11977 H 1151.77 1.97203 -3.66402 0
M  V30 11978 H 1150.64 2.98396 -4.60707 0
M  V30 11979 H 1150.9 3.33233 -2.90531 0
M  V30 11980 N 1149.96 1.53094 0.37415 0
M  V30 11981 C 1151.19 1.72758 1.13852 0
M  V30 11982 C 1151.6 0.452638 1.83294 0
M  V30 11983 O 1150.96 -0.573906 1.73241 0
M  V30 11984 C 1151.01 2.88724 2.17534 0
M  V30 11985 O 1150.73 4.11284 1.5092 0
M  V30 11986 C 1152.23 3.2019 3.06584 0
M  V30 11987 H 1149.45 0.578028 0.340771 0
M  V30 11988 H 1152 1.99805 0.435683 0
M  V30 11989 H 1150.15 2.64096 2.83429 0
M  V30 11990 H 1150.57 4.76162 2.19932 0
M  V30 11991 H 1152.04 4.04759 3.75332 0
M  V30 11992 H 1152.52 2.35193 3.70919 0
M  V30 11993 H 1153.12 3.46712 2.46315 0
M  V30 11994 N 1151.44 -0.633461 1.44309 0
M  V30 11995 C 1152.39 -1.76674 1.51292 0
M  V30 11996 C 1153.38 -1.64972 0.384807 0
M  V30 11997 O 1154.59 -1.71079 0.559653 0
M  V30 11998 H 1150.96 -0.583238 0.474697 0
M  V30 11999 H 1152.93 -1.67907 2.46678 0
M  V30 12000 C 1151.68 -3.15002 1.47205 0
M  V30 12001 H 1151.01 -3.24653 2.33325 0
M  V30 12002 H 1152.45 -3.94199 1.56151 0
M  V30 12003 C 1150.9 -3.3635 0.192464 0
M  V30 12004 O 1151.43 -3.94857 -0.738285 0
M  V30 12005 N 1149.64 -2.9044 0.0963424 0
M  V30 12006 H 1149.19 -2.43011 0.85459 0
M  V30 12007 H 1149.15 -3.05099 -0.759061 0
M  V30 12008 N 1152.92 -1.31168 -0.873655 0
M  V30 12009 C 1154.2 -1.11285 -1.60857 0
M  V30 12010 C 1154.58 0.333788 -2.08444 0
M  V30 12011 O 1153.92 1.32726 -1.86 0
M  V30 12012 C 1154.13 -2.12379 -2.7694 0
M  V30 12013 C 1155.48 -2.44704 -3.46994 0
M  V30 12014 O 1156.51 -2.10778 -2.87143 0
M  V30 12015 O 1155.36 -3.02786 -4.54954 0
M  V30 12016 H 1152.46 -0.428177 -0.707526 0
M  V30 12017 H 1155 -1.42634 -0.91944 0
M  V30 12018 H 1153.78 -3.09703 -2.39164 0
M  V30 12019 H 1153.4 -1.81914 -3.53544 0
M  V30 12020 N 1154.4 1.08748 -1.14068 0
M  V30 12021 C 1155.33 2.14886 -0.768052 0
M  V30 12022 C 1156.31 1.60682 0.248979 0
M  V30 12023 O 1157.49 1.87988 0.138852 0
M  V30 12024 C 1154.62 3.38412 -0.139747 0
M  V30 12025 C 1153.66 4.11357 -1.12639 0
M  V30 12026 S 1154.5 4.64645 -2.66206 0
M  V30 12027 C 1155.65 5.91461 -2.04755 0
M  V30 12028 H 1155.89 2.46163 -1.66706 0
M  V30 12029 H 1153.42 1.20804 -0.961549 0
M  V30 12030 H 1155.38 4.09929 0.21635 0
M  V30 12031 H 1154.04 3.0534 0.736638 0
M  V30 12032 H 1153.23 4.99987 -0.634719 0
M  V30 12033 H 1152.83 3.45735 -1.4263 0
M  V30 12034 H 1155.13 6.62859 -1.40086 0
M  V30 12035 H 1156.07 6.45319 -2.91494 0
M  V30 12036 H 1156.48 5.44308 -1.49629 0
M  V30 12037 N 1155.87 0.935264 1.26849 0
M  V30 12038 C 1157.12 0.578545 1.93642 0
M  V30 12039 C 1157.44 -0.884296 1.73796 0
M  V30 12040 O 1156.71 -1.62768 1.09011 0
M  V30 12041 H 1155.29 0.210976 0.716588 0
M  V30 12042 H 1157.96 1.1893 1.54407 0
M  V30 12043 H 1157.05 0.791268 3.01903 0
M  V30 12044 N 1157.35 -1.41121 0.701616 0
M  V30 12045 C 1158.58 -2.05452 0.244365 0
M  V30 12046 C 1159 -1.5282 -1.10866 0
M  V30 12047 O 1158.35 -0.67893 -1.69401 0
M  V30 12048 C 1158.4 -3.60946 0.200112 0
M  V30 12049 O 1158.12 -4.11632 1.4997 0
M  V30 12050 C 1159.63 -4.42431 -0.277394 0
M  V30 12051 H 1156.85 -0.66151 0.112453 0
M  V30 12052 H 1159.39 -1.80784 0.9559 0
M  V30 12053 H 1157.54 -3.84632 -0.462287 0
M  V30 12054 H 1157.96 -5.05723 1.39084 0
M  V30 12055 H 1159.43 -5.514 -0.257225 0
M  V30 12056 H 1159.91 -4.1898 -1.31728 0
M  V30 12057 H 1160.52 -4.23822 0.354223 0
M  V30 12058 N 1158.83 -0.446794 -1.51134 0
M  V30 12059 C 1159.76 0.350229 -2.30858 0
M  V30 12060 C 1160.74 1.0125 -1.36684 0
M  V30 12061 O 1161.93 1.01433 -1.65605 0
M  V30 12062 C 1159.06 1.4464 -3.15748 0
M  V30 12063 C 1158.01 0.907102 -4.18277 0
M  V30 12064 C 1157.34 2.09974 -4.91747 0
M  V30 12065 C 1158.64 -0.0649758 -5.2226 0
M  V30 12066 H 1160.33 -0.315105 -2.97737 0
M  V30 12067 H 1157.88 -0.152985 -1.43185 0
M  V30 12068 H 1159.83 2.01127 -3.70305 0
M  V30 12069 H 1158.55 2.14016 -2.46708 0
M  V30 12070 H 1157.21 0.364382 -3.64785 0
M  V30 12071 H 1156.86 2.77991 -4.19202 0
M  V30 12072 H 1156.56 1.74523 -5.61084 0
M  V30 12073 H 1158.08 2.66996 -5.49131 0
M  V30 12074 H 1159.5 0.4099 -5.71833 0
M  V30 12075 H 1157.9 -0.332529 -5.99178 0
M  V30 12076 H 1158.97 -0.998681 -4.74504 0
M  V30 12077 N 1160.31 1.56586 -0.178487 0
M  V30 12078 C 1161.55 1.98994 0.466987 0
M  V30 12079 C 1161.91 1.06229 1.59935 0
M  V30 12080 O 1163.11 1.37806 2.30788 0
M  V30 12081 C 1161.38 3.45064 0.930899 0
M  V30 12082 S 1162.94 4.095 1.57655 0
M  V30 12083 H 1159.76 0.695007 0.149955 0
M  V30 12084 H 1162.36 1.93519 -0.27764 0
M  V30 12085 H 1161.07 4.10287 0.0964476 0
M  V30 12086 H 1160.6 3.54321 1.70939 0
M  V30 12087 H 1162.61 4.05139 2.86491 0
M  V30 12088 N 1161.79 -0.095206 1.57312 0
M  V30 12089 C 1163.01 -0.81614 1.90667 0
M  V30 12090 C 1163.44 -1.71494 0.772746 0
M  V30 12091 O 1162.79 -1.79192 -0.275682 0
M  V30 12092 C 1162.84 -1.60555 3.22885 0
M  V30 12093 O 1161.95 -2.71448 3.10467 0
M  V30 12094 H 1161.29 -0.224217 0.624998 0
M  V30 12095 H 1163.82 -0.070464 2.04479 0
M  V30 12096 H 1163.83 -1.98979 3.5619 0
M  V30 12097 H 1162.5 -0.945918 4.05 0
M  V30 12098 H 1161.08 -2.36053 2.88675 0
M  V30 12099 N 1163.26 -1.53291 -0.366026 0
M  V30 12100 C 1164.68 -1.43053 -0.707669 0
M  V30 12101 C 1164.88 -0.56925 -1.93292 0
M  V30 12102 O 1163.94 -0.0515214 -2.52447 0
M  V30 12103 C 1165.25 -2.86239 -0.921292 0
M  V30 12104 C 1166.8 -2.95868 -1.02133 0
M  V30 12105 C 1167.27 -4.40114 -1.26743 0
M  V30 12106 N 1168.76 -4.43541 -1.33514 0
M  V30 12107 C 1169.5 -5.52259 -1.54264 0
M  V30 12108 N 1168.99 -6.71024 -1.72335 0
M  V30 12109 N 1170.79 -5.39836 -1.5663 0
M  V30 12110 H 1162.94 -2.07795 0.43988 0
M  V30 12111 H 1165.2 -0.938376 0.134736 0
M  V30 12112 H 1164.91 -3.51578 -0.0928042 0
M  V30 12113 H 1164.78 -3.29862 -1.82951 0
M  V30 12114 H 1167.17 -2.30683 -1.84036 0
M  V30 12115 H 1167.25 -2.5564 -0.0905097 0
M  V30 12116 H 1166.89 -5.05872 -0.453409 0
M  V30 12117 H 1166.82 -4.77914 -2.21146 0
M  V30 12118 H 1169.31 -3.57949 -1.21165 0
M  V30 12119 H 1169.63 -7.49649 -1.8774 0
M  V30 12120 H 1167.97 -6.7401 -1.69514 0
M  V30 12121 H 1171.16 -4.46017 -1.4208 0
M  V30 12122 H 1171.34 -6.24629 -1.72461 0
M  V30 12123 N 1164.74 0.6258 -1.44643 0
M  V30 12124 C 1165.99 1.38125 -1.46984 0
M  V30 12125 C 1166.3 1.95299 -0.108429 0
M  V30 12126 O 1167.51 2.71498 -0.00940005 0
M  V30 12127 C 1165.97 2.50108 -2.58793 0
M  V30 12128 C 1165.57 1.99424 -4.01166 0
M  V30 12129 C 1167.32 3.27269 -2.70361 0
M  V30 12130 C 1165.23 3.08781 -5.04389 0
M  V30 12131 H 1164.16 0.519083 -0.546872 0
M  V30 12132 H 1166.81 0.67268 -1.70726 0
M  V30 12133 H 1165.19 3.23565 -2.28302 0
M  V30 12134 H 1166.36 1.32797 -4.4125 0
M  V30 12135 H 1164.68 1.35063 -3.93887 0
M  V30 12136 H 1167.27 4.08802 -3.44652 0
M  V30 12137 H 1167.62 3.77097 -1.76362 0
M  V30 12138 H 1168.15 2.60905 -3.00289 0
M  V30 12139 H 1164.89 2.63891 -6.00035 0
M  V30 12140 H 1164.41 3.74033 -4.68892 0
M  V30 12141 H 1166.09 3.73469 -5.28328 0
M  V30 12142 N 1166.22 1.31629 0.866686 0
M  V30 12143 C 1167.47 1.21683 1.62238 0
M  V30 12144 C 1167.8 -0.223767 1.92907 0
M  V30 12145 O 1167.07 -1.15761 1.563 0
M  V30 12146 C 1167.36 2.06443 2.95048 0
M  V30 12147 C 1167.21 3.58818 2.71237 0
M  V30 12148 C 1168.53 1.91634 3.96187 0
M  V30 12149 H 1165.65 0.443389 0.588707 0
M  V30 12150 H 1168.29 1.61453 1.00164 0
M  V30 12151 H 1166.44 1.72654 3.48027 0
M  V30 12152 H 1168.11 4.0276 2.24905 0
M  V30 12153 H 1166.36 3.82085 2.05411 0
M  V30 12154 H 1167.03 4.13436 3.65752 0
M  V30 12155 H 1169.5 2.21209 3.52428 0
M  V30 12156 H 1168.38 2.53236 4.86993 0
M  V30 12157 H 1168.64 0.880564 4.33242 0
M  V30 12158 N 1167.7 -1.08142 1.14644 0
M  V30 12159 C 1168.93 -1.84318 0.939926 0
M  V30 12160 C 1169.34 -1.81735 -0.511636 0
M  V30 12161 O 1168.7 -1.22297 -1.35461 0
M  V30 12162 C 1168.75 -3.31744 1.43625 0
M  V30 12163 O 1168.47 -3.3435 2.83094 0
M  V30 12164 C 1169.97 -4.24717 1.27007 0
M  V30 12165 H 1167.19 -0.581781 0.334323 0
M  V30 12166 H 1169.74 -1.36561 1.52221 0
M  V30 12167 H 1167.89 -3.7688 0.896664 0
M  V30 12168 H 1168.31 -4.26399 3.05425 0
M  V30 12169 H 1169.78 -5.26262 1.66591 0
M  V30 12170 H 1170.26 -4.38682 0.213257 0
M  V30 12171 H 1170.86 -3.85409 1.79833 0
M  V30 12172 N 1169.18 -0.941978 -1.26351 0
M  V30 12173 C 1170.4 -0.606231 -1.98342 0
M  V30 12174 C 1170.83 0.812014 -1.6967 0
M  V30 12175 O 1170.19 1.54712 -0.9452 0
M  V30 12176 C 1170.23 -0.855864 -3.50296 0
M  V30 12177 O 1169.34 0.0716251 -4.12338 0
M  V30 12178 H 1168.68 -0.231815 -0.62222 0
M  V30 12179 H 1171.21 -1.26513 -1.60797 0
M  V30 12180 H 1171.22 -0.777079 -4.00531 0
M  V30 12181 H 1169.89 -1.8896 -3.70496 0
M  V30 12182 H 1168.47 -0.0582866 -3.72854 0
M  V30 12183 N 1170.66 1.40747 -0.709091 0
M  V30 12184 C 1171.57 2.3454 -0.0532205 0
M  V30 12185 C 1172.58 1.56956 0.751057 0
M  V30 12186 O 1173.76 1.89375 0.685509 0
M  V30 12187 C 1170.82 3.35809 0.862157 0
M  V30 12188 C 1169.88 4.29273 0.0485632 0
M  V30 12189 C 1169.12 5.25705 0.920345 0
M  V30 12190 O 1169.34 5.27933 2.15969 0
M  V30 12191 O 1168.27 6.00806 0.3628 0
M  V30 12192 H 1172.1 2.92232 -0.826698 0
M  V30 12193 H 1169.68 1.4183 -0.469519 0
M  V30 12194 H 1171.57 3.97931 1.38668 0
M  V30 12195 H 1170.24 2.8054 1.61489 0
M  V30 12196 H 1169.15 3.70456 -0.520873 0
M  V30 12197 H 1170.48 4.87676 -0.665807 0
M  V30 12198 N 1172.13 0.454803 1.50895 0
M  V30 12199 C 1173.07 -0.383826 2.25963 0
M  V30 12200 C 1174.08 -0.971263 1.30653 0
M  V30 12201 O 1175.27 -0.862434 1.56283 0
M  V30 12202 C 1172.37 -1.55069 3.01342 0
M  V30 12203 C 1171.54 -1.07899 4.23883 0
M  V30 12204 C 1170.6 -2.118 4.81692 0
M  V30 12205 O 1169.63 -1.70523 5.43057 0
M  V30 12206 N 1170.83 -3.44459 4.67256 0
M  V30 12207 H 1173.59 0.259646 2.98573 0
M  V30 12208 H 1171.15 0.284661 1.59378 0
M  V30 12209 H 1173.15 -2.24236 3.36898 0
M  V30 12210 H 1171.72 -2.09917 2.31633 0
M  V30 12211 H 1170.94 -0.213773 3.9362 0
M  V30 12212 H 1172.22 -0.741501 5.03368 0
M  V30 12213 H 1171.62 -3.80716 4.18416 0
M  V30 12214 H 1170.18 -4.0947 5.07127 0
M  V30 12215 N 1173.61 -1.56489 0.186789 0
M  V30 12216 C 1174.54 -2.21705 -0.732739 0
M  V30 12217 C 1175.52 -1.17751 -1.22755 0
M  V30 12218 O 1176.71 -1.46231 -1.27789 0
M  V30 12219 C 1173.84 -2.86992 -1.95584 0
M  V30 12220 C 1172.79 -3.97118 -1.59628 0
M  V30 12221 C 1172.12 -4.49529 -2.89531 0
M  V30 12222 C 1173.42 -5.15941 -0.812518 0
M  V30 12223 H 1175.11 -2.98802 -0.189094 0
M  V30 12224 H 1172.66 -1.43722 -0.0895099 0
M  V30 12225 H 1174.61 -3.31295 -2.60426 0
M  V30 12226 H 1173.33 -2.07287 -2.52388 0
M  V30 12227 H 1171.99 -3.53494 -0.971475 0
M  V30 12228 H 1171.64 -3.66596 -3.44407 0
M  V30 12229 H 1171.34 -5.23832 -2.66221 0
M  V30 12230 H 1172.87 -4.96528 -3.55376 0
M  V30 12231 H 1174.28 -5.56841 -1.36386 0
M  V30 12232 H 1172.68 -5.96259 -0.677862 0
M  V30 12233 H 1173.75 -4.84535 0.188095 0
M  V30 12234 N 1175.09 0.086862 -1.5736 0
M  V30 12235 C 1176.04 1.11134 -1.99081 0
M  V30 12236 C 1177.02 1.35318 -0.870506 0
M  V30 12237 O 1178.22 1.35871 -1.13437 0
M  V30 12238 C 1175.34 2.42931 -2.42569 0
M  V30 12239 C 1174.43 2.22085 -3.61302 0
M  V30 12240 N 1174.82 1.71128 -4.75971 0
M  V30 12241 C 1173.12 2.52619 -3.67559 0
M  V30 12242 C 1173.82 1.64745 -5.57883 0
M  V30 12243 N 1172.8 2.10257 -5.01291 0
M  V30 12244 H 1176.6 0.710431 -2.85184 0
M  V30 12245 H 1174.11 0.294168 -1.59714 0
M  V30 12246 H 1176.11 3.17069 -2.7069 0
M  V30 12247 H 1174.77 2.83751 -1.57846 0
M  V30 12248 H 1175.78 1.40207 -4.9856 0
M  V30 12249 H 1172.46 2.96908 -2.93516 0
M  V30 12250 H 1173.85 1.26329 -6.59917 0
M  V30 12251 N 1176.57 1.53483 0.357892 0
M  V30 12252 C 1177.51 1.80463 1.43881 0
M  V30 12253 C 1178.48 0.649438 1.52877 0
M  V30 12254 O 1179.67 0.892409 1.68644 0
M  V30 12255 C 1176.81 2.00714 2.80727 0
M  V30 12256 C 1175.92 3.28431 2.80637 0
M  V30 12257 C 1175.06 3.38828 4.09107 0
M  V30 12258 C 1174.1 4.60549 4.03189 0
M  V30 12259 N 1173.23 4.68057 5.23323 0
M  V30 12260 H 1178.07 2.72694 1.20174 0
M  V30 12261 H 1175.61 1.35079 0.582422 0
M  V30 12262 H 1177.57 2.10444 3.60235 0
M  V30 12263 H 1176.2 1.11811 3.02817 0
M  V30 12264 H 1175.25 3.27617 1.93317 0
M  V30 12265 H 1176.56 4.18022 2.72138 0
M  V30 12266 H 1175.72 3.47911 4.97034 0
M  V30 12267 H 1174.46 2.47267 4.20369 0
M  V30 12268 H 1173.46 4.51558 3.13649 0
M  V30 12269 H 1174.69 5.53459 3.93523 0
M  V30 12270 H 1172.63 3.794 5.35156 0
M  V30 12271 H 1172.55 5.51563 5.17024 0
M  V30 12272 H 1173.82 4.81433 6.1306 0
M  V30 12273 N 1178.05 -0.61812 1.44973 0
M  V30 12274 C 1179.29 -1.37944 1.48658 0
M  V30 12275 C 1179.62 -1.93805 0.123749 0
M  V30 12276 O 1178.9 -1.74434 -0.860401 0
M  V30 12277 C 1179.18 -2.53515 2.55739 0
M  V30 12278 C 1179.04 -2.02918 4.01428 0
M  V30 12279 C 1180.35 -3.55674 2.59199 0
M  V30 12280 H 1177.47 -0.500223 0.541244 0
M  V30 12281 H 1180.12 -0.69774 1.76725 0
M  V30 12282 H 1178.27 -3.11669 2.31937 0
M  V30 12283 H 1179.94 -1.49494 4.36405 0
M  V30 12284 H 1178.18 -1.33999 4.12586 0
M  V30 12285 H 1178.85 -2.86181 4.72021 0
M  V30 12286 H 1181.33 -3.07343 2.80499 0
M  V30 12287 H 1180.2 -4.34042 3.36004 0
M  V30 12288 H 1180.46 -4.10601 1.63888 0
M  V30 12289 N 1179.52 -1.32087 -0.859693 0
M  V30 12290 C 1180.47 -1.20601 -1.96784 0
M  V30 12291 C 1181.44 -0.089355 -1.65859 0
M  V30 12292 O 1182.63 -0.264022 -1.88964 0
M  V30 12293 C 1179.77 -0.929872 -3.32336 0
M  V30 12294 C 1178.88 -2.13084 -3.75791 0
M  V30 12295 C 1178.01 -1.79061 -5.00111 0
M  V30 12296 C 1177.05 -2.95507 -5.36043 0
M  V30 12297 N 1176.19 -2.61611 -6.5154 0
M  V30 12298 H 1181.03 -2.1539 -2.0594 0
M  V30 12299 H 1178.57 -1.07131 -1.00803 0
M  V30 12300 H 1180.52 -0.750285 -4.10398 0
M  V30 12301 H 1179.15 -0.0187929 -3.22795 0
M  V30 12302 H 1178.21 -2.42086 -2.93425 0
M  V30 12303 H 1179.52 -3.00205 -3.98344 0
M  V30 12304 H 1178.67 -1.57625 -5.85866 0
M  V30 12305 H 1177.41 -0.891459 -4.79483 0
M  V30 12306 H 1176.42 -3.17581 -4.48801 0
M  V30 12307 H 1177.64 -3.86147 -5.5863 0
M  V30 12308 H 1175.59 -1.74231 -6.32439 0
M  V30 12309 H 1175.5 -3.42262 -6.74087 0
M  V30 12310 H 1176.77 -2.43592 -7.40461 0
M  V30 12311 N 1181 1.07532 -1.15215 0
M  V30 12312 C 1182.25 1.8036 -0.927263 0
M  V30 12313 C 1182.58 1.86414 0.544371 0
M  V30 12314 O 1181.86 1.34653 1.40353 0
M  V30 12315 C 1182.14 3.25512 -1.53992 0
M  V30 12316 C 1181.99 3.27614 -3.08203 0
M  V30 12317 C 1183.31 4.22731 -1.22418 0
M  V30 12318 H 1180.43 0.654775 -0.338289 0
M  V30 12319 H 1183.07 1.25842 -1.42351 0
M  V30 12320 H 1181.22 3.72068 -1.11791 0
M  V30 12321 H 1182.89 2.89315 -3.59297 0
M  V30 12322 H 1181.14 2.66627 -3.42188 0
M  V30 12323 H 1181.81 4.29956 -3.46182 0
M  V30 12324 H 1184.28 3.84557 -1.58919 0
M  V30 12325 H 1183.16 5.22589 -1.67906 0
M  V30 12326 H 1183.42 4.41875 -0.14091 0
M  V30 12327 N 1182.48 0.948665 1.2585 0
M  V30 12328 C 1183.73 0.601125 1.93686 0
M  V30 12329 C 1184.06 -0.858779 1.7418 0
M  V30 12330 O 1183.33 -1.61539 1.0833 0
M  V30 12331 C 1183.62 0.95333 3.47252 0
M  V30 12332 C 1183.47 2.46853 3.7601 0
M  V30 12333 C 1184.79 0.474098 4.37539 0
M  V30 12334 H 1181.91 0.219864 0.703441 0
M  V30 12335 H 1184.55 1.18424 1.48579 0
M  V30 12336 H 1182.7 0.457114 3.85801 0
M  V30 12337 H 1184.37 3.03804 3.47132 0
M  V30 12338 H 1182.62 2.9088 3.21825 0
M  V30 12339 H 1183.29 2.66547 4.83381 0
M  V30 12340 H 1185.76 0.899664 4.06258 0
M  V30 12341 H 1184.64 0.749287 5.43762 0
M  V30 12342 H 1184.9 -0.625961 4.37646 0
M  V30 12343 N 1183.96 -1.40369 0.716545 0
M  V30 12344 C 1185.19 -2.05181 0.266143 0
M  V30 12345 C 1185.6 -1.53988 -1.09239 0
M  V30 12346 O 1184.96 -0.696859 -1.68672 0
M  V30 12347 C 1185.01 -3.60713 0.238384 0
M  V30 12348 O 1184.73 -4.10018 1.54328 0
M  V30 12349 C 1186.23 -4.42701 -0.230453 0
M  V30 12350 H 1183.45 -0.66028 0.119463 0
M  V30 12351 H 1186 -1.7976 0.97502 0
M  V30 12352 H 1184.15 -3.85101 -0.421466 0
M  V30 12353 H 1184.56 -5.0422 1.4444 0
M  V30 12354 H 1186.04 -5.51642 -0.198728 0
M  V30 12355 H 1186.52 -4.20354 -1.27276 0
M  V30 12356 H 1187.12 -4.23423 0.399155 0
M  V30 12357 N 1185.44 -0.462799 -1.50652 0
M  V30 12358 C 1186.85 -0.11648 -1.59174 0
M  V30 12359 C 1187.05 1.37638 -1.47167 0
M  V30 12360 O 1186.11 2.14886 -1.3259 0
M  V30 12361 C 1187.42 -0.659289 -2.93383 0
M  V30 12362 C 1188.97 -0.62198 -3.06758 0
M  V30 12363 C 1189.44 -1.14219 -4.43529 0
M  V30 12364 N 1190.94 -1.10125 -4.49919 0
M  V30 12365 C 1191.67 -1.47436 -5.54121 0
M  V30 12366 N 1191.17 -1.92156 -6.65618 0
M  V30 12367 N 1192.96 -1.39091 -5.44619 0
M  V30 12368 H 1185.11 -1.43383 -1.56701 0
M  V30 12369 H 1187.37 -0.592438 -0.740082 0
M  V30 12370 H 1187.08 -1.70477 -3.07621 0
M  V30 12371 H 1186.95 -0.0982388 -3.77072 0
M  V30 12372 H 1189.34 0.414576 -2.92173 0
M  V30 12373 H 1189.42 -1.21974 -2.24847 0
M  V30 12374 H 1189.07 -2.17734 -4.58862 0
M  V30 12375 H 1189 -0.52073 -5.24019 0
M  V30 12376 H 1191.49 -0.773154 -3.69906 0
M  V30 12377 H 1191.8 -2.18796 -7.4118 0
M  V30 12378 H 1190.14 -1.96103 -6.6676 0
M  V30 12379 H 1193.34 -1.04001 -4.564 0
M  V30 12380 H 1193.51 -1.68496 -6.2571 0
M  V30 12381 N 1186.91 1.56388 -0.195085 0
M  V30 12382 C 1188.16 1.96755 0.443901 0
M  V30 12383 C 1188.48 1.08483 1.6276 0
M  V30 12384 O 1189.68 1.38632 2.33438 0
M  V30 12385 C 1188.14 3.49933 0.841139 0
M  V30 12386 C 1187.75 4.46868 -0.318275 0
M  V30 12387 C 1189.49 3.99069 1.44721 0
M  V30 12388 C 1187.4 5.91316 0.0999211 0
M  V30 12389 H 1186.33 0.734674 0.169616 0
M  V30 12390 H 1188.98 1.8124 -0.287101 0
M  V30 12391 H 1187.36 3.60951 1.62881 0
M  V30 12392 H 1188.53 4.47581 -1.0958 0
M  V30 12393 H 1186.85 4.07925 -0.835842 0
M  V30 12394 H 1189.45 5.04465 1.77255 0
M  V30 12395 H 1189.79 3.43376 2.35369 0
M  V30 12396 H 1190.32 3.91165 0.723513 0
M  V30 12397 H 1187.06 6.50934 -0.77237 0
M  V30 12398 H 1186.58 5.93856 0.842304 0
M  V30 12399 H 1188.26 6.44778 0.535726 0
M  V30 12400 N 1188.39 -0.0785156 1.57404 0
M  V30 12401 C 1189.62 -0.790893 1.90862 0
M  V30 12402 C 1190.03 -1.7198 0.788644 0
M  V30 12403 O 1189.37 -1.82027 -0.247322 0
M  V30 12404 C 1189.44 -1.64362 3.19727 0
M  V30 12405 C 1189.1 -0.884796 4.48353 0
M  V30 12406 C 1190.1 -0.207074 5.19487 0
M  V30 12407 C 1187.78 -0.853962 4.94988 0
M  V30 12408 C 1189.78 0.491329 6.35504 0
M  V30 12409 C 1187.46 -0.151783 6.10911 0
M  V30 12410 C 1188.46 0.519669 6.8102 0
M  V30 12411 O 1188.15 1.21055 7.94733 0
M  V30 12412 H 1187.88 -0.230427 0.635515 0
M  V30 12413 H 1190.43 -0.0551231 2.05326 0
M  V30 12414 H 1188.66 -2.42203 3.01454 0
M  V30 12415 H 1190.35 -2.23406 3.38887 0
M  V30 12416 H 1191.12 -0.222247 4.84491 0
M  V30 12417 H 1187 -1.36605 4.40296 0
M  V30 12418 H 1190.54 1.01598 6.90162 0
M  V30 12419 H 1186.44 -0.134514 6.4536 0
M  V30 12420 H 1187.21 1.11914 8.10813 0
M  V30 12421 N 1189.87 -1.5367 -0.349747 0
M  V30 12422 C 1190.82 -1.77604 -1.42972 0
M  V30 12423 C 1191.8 -0.631036 -1.48009 0
M  V30 12424 O 1193 -0.890228 -1.52983 0
M  V30 12425 C 1190.13 -1.98354 -2.80198 0
M  V30 12426 C 1189.21 -3.18901 -2.79576 0
M  V30 12427 N 1189.6 -4.40497 -2.48589 0
M  V30 12428 C 1187.9 -3.19945 -3.10727 0
M  V30 12429 C 1188.6 -5.22318 -2.56045 0
M  V30 12430 N 1187.58 -4.5889 -2.91412 0
M  V30 12431 H 1191.38 -2.69215 -1.17901 0
M  V30 12432 H 1188.89 -1.5251 -0.558062 0
M  V30 12433 H 1190.89 -2.13632 -3.58004 0
M  V30 12434 H 1189.55 -1.07981 -3.06219 0
M  V30 12435 H 1190.56 -4.67955 -2.21898 0
M  V30 12436 H 1187.24 -2.39519 -3.41961 0
M  V30 12437 H 1188.63 -6.29352 -2.35299 0
M  V30 12438 N 1191.35 0.610423 -1.45298 0
M  V30 12439 C 1192.3 1.7213 -1.53753 0
M  V30 12440 C 1193.27 1.61609 -0.383632 0
M  V30 12441 O 1194.45 1.8123 -0.596694 0
M  V30 12442 C 1191.59 3.10433 -1.50749 0
M  V30 12443 C 1190.7 3.3178 -2.76669 0
M  V30 12444 C 1189.84 4.60173 -2.65356 0
M  V30 12445 C 1188.88 4.74769 -3.86343 0
M  V30 12446 N 1188.01 5.94459 -3.73581 0
M  V30 12447 H 1192.85 1.64239 -2.48655 0
M  V30 12448 H 1190.39 0.800879 -1.23387 0
M  V30 12449 H 1192.35 3.90446 -1.46996 0
M  V30 12450 H 1190.98 3.17288 -0.593998 0
M  V30 12451 H 1190.03 2.45563 -2.90522 0
M  V30 12452 H 1191.34 3.38439 -3.66416 0
M  V30 12453 H 1190.5 5.48377 -2.59553 0
M  V30 12454 H 1189.24 4.55907 -1.73204 0
M  V30 12455 H 1188.24 3.8499 -3.92509 0
M  V30 12456 H 1189.47 4.80834 -4.79557 0
M  V30 12457 H 1187.41 5.91243 -2.84196 0
M  V30 12458 H 1187.33 6.02265 -4.5696 0
M  V30 12459 H 1188.6 6.85168 -3.71705 0
M  V30 12460 N 1192.83 1.32541 0.852676 0
M  V30 12461 C 1193.79 1.21578 1.94297 0
M  V30 12462 C 1194.79 0.138318 1.60204 0
M  V30 12463 O 1195.98 0.388864 1.69804 0
M  V30 12464 C 1193.11 0.870209 3.29606 0
M  V30 12465 H 1194.3 2.18476 2.05446 0
M  V30 12466 H 1191.86 1.16401 1.0431 0
M  V30 12467 H 1192.59 -0.0968698 3.24155 0
M  V30 12468 H 1192.38 1.64924 3.55728 0
M  V30 12469 H 1193.87 0.817874 4.09513 0
M  V30 12470 N 1194.3 -1.0692 1.15784 0
M  V30 12471 C 1195.25 -2.14235 0.858616 0
M  V30 12472 C 1196.22 -1.65006 -0.190295 0
M  V30 12473 O 1197.41 -1.90715 -0.0568853 0
M  V30 12474 C 1194.55 -3.43229 0.35888 0
M  V30 12475 C 1193.66 -4.06225 1.46987 0
M  V30 12476 C 1192.79 -5.2307 0.925812 0
M  V30 12477 C 1191.83 -5.78037 2.01345 0
M  V30 12478 N 1190.97 -6.86206 1.48544 0
M  V30 12479 H 1195.81 -2.3917 1.77769 0
M  V30 12480 H 1193.35 -1.17354 0.886925 0
M  V30 12481 H 1195.31 -4.17169 0.0508198 0
M  V30 12482 H 1193.94 -3.18531 -0.523259 0
M  V30 12483 H 1192.99 -3.29895 1.89403 0
M  V30 12484 H 1194.3 -4.43081 2.29088 0
M  V30 12485 H 1193.45 -6.04011 0.570555 0
M  V30 12486 H 1192.19 -4.87644 0.0740371 0
M  V30 12487 H 1191.2 -4.95738 2.37748 0
M  V30 12488 H 1192.42 -6.15517 2.86907 0
M  V30 12489 H 1190.37 -6.52711 0.656092 0
M  V30 12490 H 1190.29 -7.2197 2.24266 0
M  V30 12491 H 1191.55 -7.70842 1.15856 0
M  V30 12492 N 1195.78 -0.955326 -1.25345 0
M  V30 12493 C 1196.73 -0.446792 -2.23579 0
M  V30 12494 C 1197.72 0.464354 -1.54054 0
M  V30 12495 O 1198.91 0.297293 -1.74485 0
M  V30 12496 C 1196.04 0.273533 -3.42209 0
M  V30 12497 C 1195.12 -0.655722 -4.19 0
M  V30 12498 N 1195.51 -1.78766 -4.73156 0
M  V30 12499 C 1193.81 -0.464059 -4.43579 0
M  V30 12500 C 1194.51 -2.36789 -5.31324 0
M  V30 12501 N 1193.49 -1.65435 -5.17815 0
M  V30 12502 H 1197.29 -1.31065 -2.63057 0
M  V30 12503 H 1194.81 -0.812899 -1.40591 0
M  V30 12504 H 1196.8 0.654986 -4.11723 0
M  V30 12505 H 1195.46 1.13399 -3.04254 0
M  V30 12506 H 1196.47 -2.1695 -4.70269 0
M  V30 12507 H 1193.15 0.353459 -4.16001 0
M  V30 12508 H 1194.54 -3.32242 -5.84008 0
M  V30 12509 N 1197.26 1.39987 -0.723979 0
M  V30 12510 C 1198.49 2.05037 -0.27702 0
M  V30 12511 C 1198.9 1.54565 1.08421 0
M  V30 12512 O 1198.26 0.705795 1.683 0
M  V30 12513 C 1198.31 3.60582 -0.25751 0
M  V30 12514 O 1198.03 4.09194 -1.565 0
M  V30 12515 C 1199.53 4.42817 0.206972 0
M  V30 12516 H 1196.75 0.659637 -0.122963 0
M  V30 12517 H 1199.3 1.7924 -0.98454 0
M  V30 12518 H 1197.45 3.85319 0.401037 0
M  V30 12519 H 1197.87 5.03447 -1.47112 0
M  V30 12520 H 1199.34 5.5174 0.16947 0
M  V30 12521 H 1199.82 4.21023 1.25045 0
M  V30 12522 H 1200.42 4.23205 -0.421604 0
M  V30 12523 N 1198.74 0.470782 1.50404 0
M  V30 12524 C 1199.69 -0.32355 2.28521 0
M  V30 12525 C 1200.66 -0.987472 1.3356 0
M  V30 12526 O 1201.84 -0.999969 1.62497 0
M  V30 12527 C 1198.98 -1.39977 3.15437 0
M  V30 12528 C 1198.09 -0.750656 4.25428 0
M  V30 12529 C 1197.23 -1.80474 4.99602 0
M  V30 12530 C 1196.27 -1.13586 6.01469 0
M  V30 12531 N 1195.41 -2.13279 6.68922 0
M  V30 12532 H 1200.25 0.348902 2.9595 0
M  V30 12533 H 1197.78 0.183908 1.45946 0
M  V30 12534 H 1199.74 -2.0354 3.6418 0
M  V30 12535 H 1198.37 -2.04139 2.50054 0
M  V30 12536 H 1197.42 -0.00247092 3.804 0
M  V30 12537 H 1198.73 -0.222638 4.98303 0
M  V30 12538 H 1197.89 -2.51619 5.52062 0
M  V30 12539 H 1196.63 -2.36657 4.26433 0
M  V30 12540 H 1195.63 -0.410042 5.48269 0
M  V30 12541 H 1196.86 -0.580935 6.76611 0
M  V30 12542 H 1194.8 -2.68479 5.98544 0
M  V30 12543 H 1194.72 -1.65461 7.37671 0
M  V30 12544 H 1195.99 -2.83804 7.26 0
M  V30 12545 N 1200.22 -1.56282 0.203376 0
M  V30 12546 C 1201.18 -2.18233 -0.700489 0
M  V30 12547 C 1202.18 -1.13908 -1.13497 0
M  V30 12548 O 1203.37 -1.39246 -1.04672 0
M  V30 12549 C 1200.5 -2.79107 -1.95735 0
M  V30 12550 H 1201.7 -2.99469 -0.160649 0
M  V30 12551 H 1199.25 -1.56232 -0.0462475 0
M  V30 12552 H 1199.98 -2.01691 -2.53951 0
M  V30 12553 H 1199.77 -3.55486 -1.65446 0
M  V30 12554 H 1201.26 -3.2665 -2.60172 0
M  V30 12555 N 1201.7 0.070167 -1.57444 0
M  V30 12556 C 1202.94 0.764899 -1.8847 0
M  V30 12557 C 1203.3 1.75104 -0.797264 0
M  V30 12558 O 1202.59 1.9057 0.198411 0
M  V30 12559 C 1202.78 1.5111 -3.23883 0
M  V30 12560 C 1202.61 0.598732 -4.45696 0
M  V30 12561 C 1201.38 0.235066 -5.04753 0
M  V30 12562 C 1203.58 -0.105234 -5.14192 0
M  V30 12563 N 1201.56 -0.682856 -6.1009 0
M  V30 12564 C 1202.93 -0.880286 -6.13719 0
M  V30 12565 C 1204.99 -0.176534 -4.97587 0
M  V30 12566 C 1203.69 -1.72002 -6.98432 0
M  V30 12567 C 1205.72 -1.00324 -5.82828 0
M  V30 12568 C 1205.08 -1.76634 -6.81894 0
M  V30 12569 H 1201.18 0.255278 -0.73916 0
M  V30 12570 H 1203.76 0.0263555 -1.94682 0
M  V30 12571 H 1201.93 2.22036 -3.18676 0
M  V30 12572 H 1203.67 2.15498 -3.42553 0
M  V30 12573 H 1200.42 0.588283 -4.69932 0
M  V30 12574 H 1200.84 -1.13511 -6.67416 0
M  V30 12575 H 1205.49 0.399107 -4.20912 0
M  V30 12576 H 1203.2 -2.30662 -7.74481 0
M  V30 12577 H 1206.79 -1.06141 -5.72036 0
M  V30 12578 H 1205.67 -2.39573 -7.46709 0
M  V30 12579 N 1203.17 1.53854 0.341593 0
M  V30 12580 C 1204.41 1.72909 1.09004 0
M  V30 12581 C 1204.78 0.48304 1.85824 0
M  V30 12582 O 1205.98 0.550651 2.63099 0
M  V30 12583 C 1204.25 2.95884 2.00468 0
M  V30 12584 S 1205.81 3.3576 2.82508 0
M  V30 12585 H 1202.63 0.608187 0.368279 0
M  V30 12586 H 1205.23 1.92001 0.368222 0
M  V30 12587 H 1203.93 3.84742 1.42836 0
M  V30 12588 H 1203.46 2.79263 2.77084 0
M  V30 12589 H 1205.48 2.89647 4.02888 0
M  V30 12590 N 1204.65 -0.602709 1.4562 0
M  V30 12591 C 1206.06 -1.1847 1.44297 0
M  V30 12592 C 1206.41 -1.95434 0.17316 0
M  V30 12593 O 1205.54 -2.03894 -0.724986 0
M  V30 12594 C 1206.13 -2.15508 2.61422 0
M  V30 12595 C 1204.69 -2.69073 2.63204 0
M  V30 12596 C 1203.84 -1.44568 2.36633 0
M  V30 12597 H 1206.79 -0.391745 1.53789 0
M  V30 12598 H 1206.81 -2.98628 2.35799 0
M  V30 12599 H 1206.32 -1.59464 3.53826 0
M  V30 12600 H 1204.42 -3.29042 1.7482 0
M  V30 12601 H 1204.54 -3.13173 3.62573 0
M  V30 12602 H 1202.9 -1.73692 1.86287 0
M  V30 12603 H 1203.68 -0.903852 3.31188 0
M  V30 12604 N 1206.13 -1.32992 -0.845635 0
M  V30 12605 C 1207.55 -1.12179 -1.13526 0
M  V30 12606 C 1207.75 0.091795 -2.01291 0
M  V30 12607 O 1206.8 0.774051 -2.40343 0
M  V30 12608 C 1208.11 -2.40584 -1.80388 0
M  V30 12609 C 1209.66 -2.46427 -1.92984 0
M  V30 12610 C 1210.14 -3.74776 -2.63261 0
M  V30 12611 N 1211.63 -3.75809 -2.7078 0
M  V30 12612 C 1212.36 -4.71829 -3.2583 0
M  V30 12613 N 1211.86 -5.78219 -3.81621 0
M  V30 12614 N 1213.65 -4.59313 -3.24018 0
M  V30 12615 H 1205.8 -2.10786 -0.261369 0
M  V30 12616 H 1208.07 -0.931053 -0.17845 0
M  V30 12617 H 1207.77 -3.29357 -1.23357 0
M  V30 12618 H 1207.65 -2.52225 -2.80468 0
M  V30 12619 H 1210.03 -1.58108 -2.4917 0
M  V30 12620 H 1210.11 -2.38732 -0.918732 0
M  V30 12621 H 1209.76 -4.63474 -2.07736 0
M  V30 12622 H 1209.69 -3.79746 -3.6483 0
M  V30 12623 H 1212.18 -2.98916 -2.31209 0
M  V30 12624 H 1212.49 -6.47531 -4.2181 0
M  V30 12625 H 1210.84 -5.81962 -3.79927 0
M  V30 12626 H 1214.03 -3.75358 -2.79685 0
M  V30 12627 H 1214.2 -5.34316 -3.6662 0
M  V30 12628 N 1207.61 1.06304 -1.1635 0
M  V30 12629 C 1209.02 1.60566 -0.952652 0
M  V30 12630 C 1209.37 1.8963 0.503473 0
M  V30 12631 O 1208.49 1.66964 1.37666 0
M  V30 12632 C 1209.09 2.9172 -1.72292 0
M  V30 12633 C 1207.65 3.42684 -1.55707 0
M  V30 12634 C 1206.8 2.16579 -1.73172 0
M  V30 12635 H 1209.75 0.892563 -1.31221 0
M  V30 12636 H 1209.77 3.61126 -1.19868 0
M  V30 12637 H 1209.28 2.70535 -2.78267 0
M  V30 12638 H 1207.38 3.68929 -0.521726 0
M  V30 12639 H 1207.49 4.18018 -2.34088 0
M  V30 12640 H 1205.86 2.26795 -1.15914 0
M  V30 12641 H 1206.64 1.97877 -2.80535 0
M  V30 12642 N 1209.09 0.96196 1.24836 0
M  V30 12643 C 1210.5 0.660388 1.7463 0
M  V30 12644 C 1210.85 -0.824064 1.78055 0
M  V30 12645 O 1209.97 -1.64485 1.40619 0
M  V30 12646 C 1210.57 1.19205 3.17137 0
M  V30 12647 C 1209.13 0.940493 3.64461 0
M  V30 12648 C 1208.27 1.33076 2.43282 0
M  V30 12649 H 1211.22 1.13794 1.1062 0
M  V30 12650 H 1211.25 0.555595 3.76422 0
M  V30 12651 H 1210.76 2.27247 3.14612 0
M  V30 12652 H 1208.86 -0.124645 3.72391 0
M  V30 12653 H 1208.97 1.5821 4.52224 0
M  V30 12654 H 1207.34 0.749139 2.43434 0
M  V30 12655 H 1208.12 2.42055 2.43442 0
M  V30 12656 N 1210.56 -1.39601 0.731392 0
M  V30 12657 C 1211.98 -1.54334 0.406594 0
M  V30 12658 C 1212.18 -1.69925 -1.08295 0
M  V30 12659 O 1211.24 -1.69771 -1.86906 0
M  V30 12660 C 1212.55 -2.76303 1.18647 0
M  V30 12661 C 1214.1 -2.90135 1.17433 0
M  V30 12662 C 1214.57 -4.15038 1.93669 0
M  V30 12663 N 1216.06 -4.2207 1.90817 0
M  V30 12664 C 1216.8 -5.17656 2.46616 0
M  V30 12665 N 1216.29 -6.19054 3.11037 0
M  V30 12666 N 1218.09 -5.09847 2.3667 0
M  V30 12667 H 1210.24 -1.27728 1.69703 0
M  V30 12668 H 1212.5 -0.6188 0.718186 0
M  V30 12669 H 1212.21 -2.71113 2.24032 0
M  V30 12670 H 1212.08 -3.68866 0.788514 0
M  V30 12671 H 1214.47 -2.9482 0.128615 0
M  V30 12672 H 1214.55 -1.98646 1.61163 0
M  V30 12673 H 1214.19 -4.11115 2.9824 0
M  V30 12674 H 1214.12 -5.05565 1.47349 0
M  V30 12675 H 1216.61 -3.49437 1.43882 0
M  V30 12676 H 1216.93 -6.88444 3.51091 0
M  V30 12677 H 1215.27 -6.19452 3.15126 0
M  V30 12678 H 1218.46 -4.29566 1.85987 0
M  V30 12679 H 1218.64 -5.84165 2.80455 0
M  V30 12680 N 1212.04 -0.478751 -1.50152 0
M  V30 12681 C 1213.01 0.300181 -2.27226 0
M  V30 12682 C 1214.01 0.913705 -1.32318 0
M  V30 12683 O 1215.2 0.781692 -1.55677 0
M  V30 12684 C 1212.33 1.42838 -3.09532 0
M  V30 12685 H 1213.52 -0.375845 -2.97536 0
M  V30 12686 H 1211.07 -0.233037 -1.54553 0
M  V30 12687 H 1211.81 2.13923 -2.43737 0
M  V30 12688 H 1211.59 0.994161 -3.79287 0
M  V30 12689 H 1213.08 1.97765 -3.67802 0
M  V30 12690 N 1213.52 1.56172 -0.211661 0
M  V30 12691 C 1214.77 1.98332 0.423332 0
M  V30 12692 C 1215.1 1.09895 1.60115 0
M  V30 12693 O 1214.37 0.154477 1.93886 0
M  V30 12694 C 1214.66 3.49495 0.86747 0
M  V30 12695 C 1214.51 4.48708 -0.313302 0
M  V30 12696 C 1215.83 4.04793 1.72716 0
M  V30 12697 H 1212.95 0.72107 0.152402 0
M  V30 12698 H 1215.59 1.87521 -0.305912 0
M  V30 12699 H 1213.74 3.58839 1.48885 0
M  V30 12700 H 1215.41 4.51385 -0.951291 0
M  V30 12701 H 1213.66 4.2299 -0.96238 0
M  V30 12702 H 1214.33 5.51985 0.0402402 0
M  V30 12703 H 1216.8 3.98332 1.20296 0
M  V30 12704 H 1215.68 5.10898 2.00684 0
M  V30 12705 H 1215.94 3.51067 2.68709 0
M  V30 12706 N 1215 -0.0618163 1.57479 0
M  V30 12707 C 1215.93 -1.09931 2.01116 0
M  V30 12708 C 1216.94 -1.34405 0.91865 0
M  V30 12709 O 1218.13 -1.32469 1.19642 0
M  V30 12710 C 1215.23 -2.44814 2.34349 0
M  V30 12711 C 1214.41 -2.40157 3.65573 0
M  V30 12712 C 1213.46 -3.57226 3.86363 0
M  V30 12713 O 1212.49 -3.38202 4.5783 0
M  V30 12714 N 1213.69 -4.77937 3.2948 0
M  V30 12715 H 1216.46 -0.727621 2.90733 0
M  V30 12716 H 1214.02 -0.250315 1.59953 0
M  V30 12717 H 1216.01 -3.21792 2.45422 0
M  V30 12718 H 1214.58 -2.73947 1.50571 0
M  V30 12719 H 1213.8 -1.48496 3.65161 0
M  V30 12720 H 1215.09 -2.34156 4.51717 0
M  V30 12721 H 1214.49 -4.96296 2.7149 0
M  V30 12722 H 1213.04 -5.52392 3.45986 0
M  V30 12723 N 1216.48 -1.54033 -0.333429 0
M  V30 12724 C 1217.71 -1.75461 -1.09073 0
M  V30 12725 C 1218.11 -0.498488 -1.82515 0
M  V30 12726 O 1217.46 0.540029 -1.75583 0
M  V30 12727 C 1217.52 -2.88744 -2.14166 0
M  V30 12728 C 1217.18 -4.27998 -1.60209 0
M  V30 12729 C 1218.18 -5.09206 -1.04907 0
M  V30 12730 C 1215.87 -4.74513 -1.6475 0
M  V30 12731 C 1217.86 -6.35035 -0.548615 0
M  V30 12732 C 1215.55 -6.00312 -1.14318 0
M  V30 12733 C 1216.54 -6.80406 -0.594667 0
M  V30 12734 O 1216.23 -8.0384 -0.097891 0
M  V30 12735 H 1215.96 -0.589586 -0.330702 0
M  V30 12736 H 1218.52 -2.01697 -0.388274 0
M  V30 12737 H 1216.75 -2.58057 -2.87999 0
M  V30 12738 H 1218.44 -2.98048 -2.7554 0
M  V30 12739 H 1219.2 -4.74428 -1.00713 0
M  V30 12740 H 1215.08 -4.12222 -2.06384 0
M  V30 12741 H 1218.63 -6.97497 -0.119823 0
M  V30 12742 H 1214.52 -6.34583 -1.18215 0
M  V30 12743 H 1215.29 -8.1822 -0.214237 0
M  V30 12744 N 1217.95 0.594978 -1.45938 0
M  V30 12745 C 1219.18 1.38482 -1.54394 0
M  V30 12746 C 1219.6 1.87222 -0.181563 0
M  V30 12747 O 1218.96 1.60869 0.836119 0
M  V30 12748 C 1219.01 2.55676 -2.54287 0
M  V30 12749 O 1218.11 3.5672 -2.06941 0
M  V30 12750 H 1217.46 0.412918 -0.519995 0
M  V30 12751 H 1219.99 0.722899 -1.91404 0
M  V30 12752 H 1220 3.02756 -2.73501 0
M  V30 12753 H 1218.67 2.19552 -3.53228 0
M  V30 12754 H 1217.25 3.16204 -1.97661 0
M  V30 12755 N 1219.43 1.33438 0.838571 0
M  V30 12756 C 1220.38 1.20285 1.93689 0
M  V30 12757 C 1221.37 0.105686 1.60553 0
M  V30 12758 O 1222.56 0.333814 1.73824 0
M  V30 12759 C 1219.69 0.944544 3.3005 0
M  V30 12760 C 1218.77 2.08416 3.69356 0
M  V30 12761 N 1219.16 3.33415 3.80353 0
M  V30 12762 C 1217.46 1.99092 3.99097 0
M  V30 12763 C 1218.16 4.08159 4.14465 0
M  V30 12764 N 1217.14 3.36601 4.2685 0
M  V30 12765 H 1220.94 2.1503 2.00348 0
M  V30 12766 H 1218.46 1.2545 1.03131 0
M  V30 12767 H 1220.45 0.831242 4.08529 0
M  V30 12768 H 1219.11 0.00562273 3.247 0
M  V30 12769 H 1220.12 3.68159 3.64252 0
M  V30 12770 H 1216.8 1.12861 4.01956 0
M  V30 12771 H 1218.19 5.16027 4.30308 0
M  V30 12772 N 1220.91 -1.05686 1.16912 0
M  V30 12773 C 1222.14 -1.82282 0.978811 0
M  V30 12774 C 1222.55 -1.8278 -0.472972 0
M  V30 12775 O 1221.91 -1.25143 -1.32836 0
M  V30 12776 C 1221.96 -3.28623 1.50629 0
M  V30 12777 O 1221.68 -3.28269 2.90122 0
M  V30 12778 C 1223.18 -4.21927 1.35987 0
M  V30 12779 H 1220.4 -0.574558 0.346588 0
M  V30 12780 H 1222.95 -1.33301 1.55084 0
M  V30 12781 H 1221.1 -3.74893 0.976404 0
M  V30 12782 H 1221.52 -4.19824 3.14401 0
M  V30 12783 H 1222.99 -5.2261 1.77716 0
M  V30 12784 H 1223.47 -4.38131 0.30626 0
M  V30 12785 H 1224.07 -3.81508 1.87968 0
M  V30 12786 N 1222.39 -0.968567 -1.24324 0
M  V30 12787 C 1223.34 -0.470481 -2.23093 0
M  V30 12788 C 1224.32 0.447989 -1.54538 0
M  V30 12789 O 1225.51 0.27877 -1.74791 0
M  V30 12790 C 1222.64 0.237222 -3.42479 0
M  V30 12791 C 1221.73 -0.700126 -4.18281 0
M  V30 12792 N 1222.12 -1.83775 -4.71233 0
M  V30 12793 C 1220.42 -0.51108 -4.43062 0
M  V30 12794 C 1221.12 -2.42411 -5.28783 0
M  V30 12795 N 1220.1 -1.70918 -5.16031 0
M  V30 12796 H 1223.9 -1.33848 -2.61652 0
M  V30 12797 H 1221.41 -0.827764 -1.39721 0
M  V30 12798 H 1223.41 0.61128 -4.12394 0
M  V30 12799 H 1222.07 1.10166 -3.0544 0
M  V30 12800 H 1223.08 -2.21926 -4.67942 0
M  V30 12801 H 1219.76 0.309316 -4.16353 0
M  V30 12802 H 1221.15 -3.38417 -5.80451 0
M  V30 12803 N 1223.87 1.39211 -0.738786 0
M  V30 12804 C 1225.09 2.04732 -0.298751 0
M  V30 12805 C 1225.51 1.55706 1.06776 0
M  V30 12806 O 1224.87 0.723605 1.67542 0
M  V30 12807 C 1224.92 3.60288 -0.29574 0
M  V30 12808 O 1224.64 4.07511 -1.60831 0
M  V30 12809 C 1226.14 4.43011 0.159994 0
M  V30 12810 H 1223.36 0.658296 -0.129952 0
M  V30 12811 H 1225.9 1.78186 -1.0035 0
M  V30 12812 H 1224.06 3.85722 0.360146 0
M  V30 12813 H 1224.47 5.01858 -1.52443 0
M  V30 12814 H 1225.95 5.51889 0.110941 0
M  V30 12815 H 1226.42 4.22325 1.20573 0
M  V30 12816 H 1227.03 4.22734 -0.466467 0
M  V30 12817 N 1225.34 0.486708 1.49896 0
M  V30 12818 C 1226.57 -0.0600816 2.06813 0
M  V30 12819 C 1226.99 -1.32112 1.34877 0
M  V30 12820 O 1226.34 -1.77537 0.422725 0
M  V30 12821 C 1226.4 -0.332266 3.5997 0
M  V30 12822 O 1226.12 0.878771 4.29196 0
M  V30 12823 C 1227.62 -0.924289 4.33557 0
M  V30 12824 H 1224.84 0.0140611 0.670853 0
M  V30 12825 H 1227.38 0.67997 1.92864 0
M  V30 12826 H 1225.54 -1.02227 3.73669 0
M  V30 12827 H 1225.95 0.632873 5.20668 0
M  V30 12828 H 1227.42 -1.06441 5.4164 0
M  V30 12829 H 1227.9 -1.91844 3.95085 0
M  V30 12830 H 1228.51 -0.272189 4.24428 0
M  V30 12831 N 1226.82 -1.56058 0.219941 0
M  V30 12832 C 1227.77 -2.21585 -0.707321 0
M  V30 12833 C 1228.77 -1.19473 -1.20094 0
M  V30 12834 O 1229.97 -1.37557 -1.16095 0
M  V30 12835 H 1226.35 -0.710447 -0.246515 0
M  V30 12836 H 1228.32 -2.98111 -0.131214 0
M  V30 12837 C 1227.07 -2.90841 -1.90544 0
M  V30 12838 H 1226.39 -3.6917 -1.53472 0
M  V30 12839 H 1227.83 -3.40092 -2.53206 0
M  V30 12840 C 1226.29 -1.93223 -2.75983 0
M  V30 12841 O 1226.82 -1.44815 -3.74689 0
M  V30 12842 N 1225.02 -1.60907 -2.41986 0
M  V30 12843 H 1224.57 -2.00467 -1.61774 0
M  V30 12844 H 1224.53 -0.958534 -2.99432 0
M  V30 12845 N 1228.3 0.053464 -1.57509 0
M  V30 12846 C 1229.53 0.760429 -1.92096 0
M  V30 12847 C 1229.94 1.70703 -0.815905 0
M  V30 12848 O 1229.28 1.82398 0.218332 0
M  V30 12849 C 1229.34 1.59255 -3.22301 0
M  V30 12850 C 1229.01 0.813355 -4.49704 0
M  V30 12851 C 1230.01 0.124402 -5.19751 0
M  V30 12852 C 1227.69 0.775106 -4.96284 0
M  V30 12853 C 1229.68 -0.59237 -6.34641 0
M  V30 12854 C 1227.37 0.0545728 -6.11076 0
M  V30 12855 C 1228.37 -0.627948 -6.80107 0
M  V30 12856 O 1228.06 -1.33683 -7.92707 0
M  V30 12857 H 1227.79 0.220287 -0.639101 0
M  V30 12858 H 1230.34 0.0224505 -2.05388 0
M  V30 12859 H 1228.57 2.37376 -3.05269 0
M  V30 12860 H 1230.26 2.17987 -3.42398 0
M  V30 12861 H 1231.03 0.145141 -4.84783 0
M  V30 12862 H 1226.91 1.29583 -4.42413 0
M  V30 12863 H 1230.45 -1.12565 -6.88458 0
M  V30 12864 H 1226.35 0.0318254 -6.45492 0
M  V30 12865 H 1227.12 -1.24799 -8.0893 0
M  V30 12866 N 1229.78 1.54207 0.325255 0
M  V30 12867 C 1230.73 1.83474 1.40021 0
M  V30 12868 C 1231.7 0.681719 1.51466 0
M  V30 12869 O 1232.88 0.92798 1.66713 0
M  V30 12870 C 1230.02 2.06624 2.76407 0
M  V30 12871 C 1229.13 3.3431 2.73607 0
M  V30 12872 C 1228.27 3.4743 4.01828 0
M  V30 12873 C 1227.31 4.68997 3.93329 0
M  V30 12874 N 1226.45 4.79052 5.13277 0
M  V30 12875 H 1231.29 2.75182 1.14363 0
M  V30 12876 H 1228.82 1.36284 0.553639 0
M  V30 12877 H 1230.78 2.18037 3.5569 0
M  V30 12878 H 1229.41 1.18209 3.00377 0
M  V30 12879 H 1228.46 3.31643 1.86324 0
M  V30 12880 H 1229.77 4.237 2.6321 0
M  V30 12881 H 1228.93 3.58376 4.89542 0
M  V30 12882 H 1227.67 2.56128 4.1503 0
M  V30 12883 H 1226.67 4.58109 3.04 0
M  V30 12884 H 1227.9 5.61681 3.81695 0
M  V30 12885 H 1225.84 3.90666 5.26988 0
M  V30 12886 H 1225.76 5.62406 5.05208 0
M  V30 12887 H 1227.03 4.94328 6.02711 0
M  V30 12888 N 1231.26 -0.58723 1.46251 0
M  V30 12889 C 1232.19 -1.70694 1.5933 0
M  V30 12890 C 1233.17 -1.64208 0.443831 0
M  V30 12891 O 1234.35 -1.82294 0.669516 0
M  V30 12892 C 1231.48 -3.0933 1.579 0
M  V30 12893 C 1230.44 -3.30643 2.7177 0
M  V30 12894 C 1229.76 -4.69761 2.554 0
M  V30 12895 C 1231.06 -3.18916 4.1363 0
M  V30 12896 H 1232.76 -1.60004 2.53059 0
M  V30 12897 H 1230.3 -0.768343 1.21789 0
M  V30 12898 H 1232.26 -3.87479 1.65644 0
M  V30 12899 H 1230.98 -3.20907 0.60712 0
M  V30 12900 H 1229.64 -2.54892 2.63488 0
M  V30 12901 H 1229.29 -4.78098 1.56306 0
M  V30 12902 H 1228.99 -4.84974 3.31774 0
M  V30 12903 H 1230.51 -5.50084 2.65028 0
M  V30 12904 H 1231.93 -3.86915 4.23048 0
M  V30 12905 H 1230.32 -3.45653 4.90555 0
M  V30 12906 H 1231.39 -2.1606 4.34104 0
M  V30 12907 N 1232.74 -1.33881 -0.831482 0
M  V30 12908 C 1233.96 -1.28961 -1.62431 0
M  V30 12909 C 1234.39 0.135249 -1.87613 0
M  V30 12910 O 1233.74 1.09426 -1.44553 0
M  V30 12911 C 1233.79 -2.07767 -2.94729 0
M  V30 12912 O 1232.9 -1.44133 -3.86393 0
M  V30 12913 H 1232.24 -0.443313 -0.494337 0
M  V30 12914 H 1234.77 -1.76555 -1.0339 0
M  V30 12915 H 1234.78 -2.18806 -3.44366 0
M  V30 12916 H 1233.45 -3.11367 -2.75724 0
M  V30 12917 H 1232.03 -1.41784 -3.44894 0
M  V30 12918 N 1234.21 1.05064 -1.1747 0
M  V30 12919 C 1235.44 1.82299 -0.98903 0
M  V30 12920 C 1235.86 1.82441 0.457907 0
M  V30 12921 O 1235.22 1.23433 1.32793 0
M  V30 12922 C 1235.27 3.26239 -1.53624 0
M  V30 12923 O 1234.37 4.05507 -0.750857 0
M  V30 12924 H 1233.71 0.563601 -0.35107 0
M  V30 12925 H 1236.24 1.32386 -1.55997 0
M  V30 12926 H 1236.25 3.77038 -1.55906 0
M  V30 12927 H 1234.93 3.25451 -2.58949 0
M  V30 12928 H 1233.51 3.64227 -0.799548 0
M  V30 12929 N 1235.69 0.975146 1.23809 0
M  V30 12930 C 1236.6 0.51917 2.28783 0
M  V30 12931 C 1237.62 -0.423487 1.68768 0
M  V30 12932 O 1238.79 -0.294699 1.99232 0
M  V30 12933 C 1235.86 -0.176229 3.46252 0
M  V30 12934 C 1234.92 0.807177 4.21643 0
M  V30 12935 C 1234.15 0.144869 5.33503 0
M  V30 12936 O 1234.38 -1.06522 5.60365 0
M  V30 12937 O 1233.31 0.84079 5.95999 0
M  V30 12938 H 1237.14 1.39204 2.69919 0
M  V30 12939 H 1234.72 0.74253 1.29641 0
M  V30 12940 H 1236.6 -0.566547 4.17574 0
M  V30 12941 H 1235.28 -1.02394 3.07078 0
M  V30 12942 H 1234.18 1.2481 3.52666 0
M  V30 12943 H 1235.52 1.62354 4.64653 0
M  V30 12944 N 1237.17 -1.38817 0.746158 0
M  V30 12945 C 1238.42 -2.00577 0.299458 0
M  V30 12946 C 1238.75 -1.59087 -1.11378 0
M  V30 12947 O 1238.02 -0.824932 -1.7614 0
M  V30 12948 C 1238.31 -3.57713 0.413932 0
M  V30 12949 C 1238.16 -4.09189 1.86774 0
M  V30 12950 C 1239.48 -4.39659 -0.197082 0
M  V30 12951 H 1236.6 -0.728702 0.110285 0
M  V30 12952 H 1239.24 -1.64866 0.944408 0
M  V30 12953 H 1237.39 -3.88265 -0.135155 0
M  V30 12954 H 1239.06 -3.89311 2.47456 0
M  V30 12955 H 1237.3 -3.62333 2.38532 0
M  V30 12956 H 1237.98 -5.18305 1.89904 0
M  V30 12957 H 1240.45 -4.15216 0.271121 0
M  V30 12958 H 1239.33 -5.48832 -0.0867011 0
M  V30 12959 H 1239.59 -4.23028 -1.2845 0
M  V30 12960 N 1238.65 -0.49465 -1.49636 0
M  V30 12961 C 1239.6 0.306278 -2.25933 0
M  V30 12962 C 1240.58 0.941082 -1.30508 0
M  V30 12963 O 1241.77 0.849732 -1.55269 0
M  V30 12964 C 1238.9 1.3739 -3.14609 0
M  V30 12965 C 1237.99 0.745657 -4.17493 0
M  V30 12966 N 1238.38 -0.147977 -5.05583 0
M  V30 12967 C 1236.68 1.00696 -4.34484 0
M  V30 12968 C 1237.38 -0.506949 -5.79487 0
M  V30 12969 N 1236.35 0.123603 -5.43459 0
M  V30 12970 H 1240.16 -0.381753 -2.9141 0
M  V30 12971 H 1237.67 -0.310311 -1.59408 0
M  V30 12972 H 1239.67 1.96108 -3.67896 0
M  V30 12973 H 1238.33 2.06368 -2.50684 0
M  V30 12974 H 1239.34 -0.518378 -5.15299 0
M  V30 12975 H 1236.02 1.68996 -3.81768 0
M  V30 12976 H 1237.41 -1.23766 -6.60403 0
M  V30 12977 N 1240.13 1.55939 -0.228214 0
M  V30 12978 C 1241.07 2.21957 0.69556 0
M  V30 12979 C 1242.07 1.20109 1.19458 0
M  V30 12980 O 1243.27 1.38171 1.15364 0
M  V30 12981 H 1239.65 0.711744 0.242744 0
M  V30 12982 H 1241.62 2.98177 0.115403 0
M  V30 12983 C 1240.37 2.91847 1.88999 0
M  V30 12984 H 1239.69 3.69978 1.51512 0
M  V30 12985 H 1241.13 3.4143 2.51399 0
M  V30 12986 C 1239.59 1.94683 2.74954 0
M  V30 12987 O 1240.12 1.468 3.73915 0
M  V30 12988 N 1238.33 1.62188 2.41129 0
M  V30 12989 H 1237.87 2.01322 1.60709 0
M  V30 12990 H 1237.83 0.9744 2.98919 0
M  V30 12991 N 1241.6 -0.0451101 1.57535 0
M  V30 12992 C 1242.88 -0.773625 1.79651 0
M  V30 12993 C 1243.26 -1.94422 0.822391 0
M  V30 12994 O 1242.61 -2.28077 -0.138913 0
M  V30 12995 C 1242.82 -1.22168 3.26919 0
M  V30 12996 C 1244.17 -1.64419 3.91474 0
M  V30 12997 O 1245.19 -1.31668 3.30971 0
M  V30 12998 O 1244.05 -2.25148 4.97967 0
M  V30 12999 H 1241.14 -0.372786 0.738214 0
M  V30 13000 H 1243.69 -0.0231245 1.69684 0
M  V30 13001 H 1242.46 -0.385302 3.89398 0
M  V30 13002 H 1242.09 -2.03269 3.41713 0
M  V30 13003 N 1243.08 -1.54377 -0.317073 0
M  V30 13004 C 1244.33 -1.73149 -1.05581 0
M  V30 13005 C 1244.66 -0.507176 -1.8746 0
M  V30 13006 O 1243.94 0.495837 -1.88074 0
M  V30 13007 C 1244.22 -3.01098 -1.97515 0
M  V30 13008 C 1244.07 -4.33794 -1.18922 0
M  V30 13009 C 1245.39 -3.24831 -2.9694 0
M  V30 13010 H 1242.51 -0.630011 -0.382434 0
M  V30 13011 H 1245.15 -1.87079 -0.331873 0
M  V30 13012 H 1243.3 -2.89352 -2.59244 0
M  V30 13013 H 1244.97 -4.57433 -0.596039 0
M  V30 13014 H 1243.22 -4.31005 -0.491612 0
M  V30 13015 H 1243.89 -5.19554 -1.86462 0
M  V30 13016 H 1246.36 -3.3608 -2.45335 0
M  V30 13017 H 1245.24 -4.15702 -3.58445 0
M  V30 13018 H 1245.5 -2.42365 -3.69745 0
M  V30 13019 N 1244.56 0.579466 -1.4656 0
M  V30 13020 C 1245.52 1.67033 -1.56948 0
M  V30 13021 C 1246.52 1.54481 -0.446361 0
M  V30 13022 O 1247.71 1.5904 -0.710767 0
M  V30 13023 C 1244.85 3.06474 -1.49286 0
M  V30 13024 H 1246.04 1.59179 -2.54169 0
M  V30 13025 H 1243.59 0.797573 -1.34419 0
M  V30 13026 H 1244.33 3.1988 -0.533572 0
M  V30 13027 H 1244.11 3.16993 -2.30776 0
M  V30 13028 H 1245.6 3.85879 -1.59648 0
M  V30 13029 N 1246.04 1.3432 0.824371 0
M  V30 13030 C 1247.29 1.25938 1.57552 0
M  V30 13031 C 1247.6 -0.169298 1.94866 0
M  V30 13032 O 1248.81 -0.375262 2.68894 0
M  V30 13033 C 1247.26 2.20757 2.84244 0
M  V30 13034 C 1246.87 3.68873 2.54237 0
M  V30 13035 C 1248.61 2.21279 3.62265 0
M  V30 13036 C 1246.52 4.55566 3.77113 0
M  V30 13037 H 1245.45 0.467832 0.591311 0
M  V30 13038 H 1248.1 1.59476 0.907724 0
M  V30 13039 H 1246.48 1.80168 3.52641 0
M  V30 13040 H 1247.66 4.17991 1.93959 0
M  V30 13041 H 1245.97 3.70784 1.89494 0
M  V30 13042 H 1248.57 2.83272 4.53499 0
M  V30 13043 H 1248.91 1.2117 3.98276 0
M  V30 13044 H 1249.45 2.60305 3.00809 0
M  V30 13045 H 1246.19 5.56605 3.46223 0
M  V30 13046 H 1245.71 4.11184 4.36678 0
M  V30 13047 H 1247.38 4.701 4.44539 0
M  V30 13048 N 1247.52 -1.0444 1.18026 0
M  V30 13049 C 1248.93 -1.29766 0.929143 0
M  V30 13050 C 1249.13 -1.97338 -0.407436 0
M  V30 13051 O 1248.19 -2.25166 -1.14265 0
M  V30 13052 C 1249.5 -2.16002 2.09197 0
M  V30 13053 C 1251.05 -2.29361 2.12985 0
M  V30 13054 C 1251.52 -3.18962 3.28675 0
M  V30 13055 N 1253.02 -3.26549 3.28512 0
M  V30 13056 C 1253.75 -3.96025 4.14671 0
M  V30 13057 N 1253.25 -4.67863 5.10956 0
M  V30 13058 N 1255.04 -3.92266 4.02597 0
M  V30 13059 H 1247.19 -0.58984 2.04046 0
M  V30 13060 H 1249.45 -0.322752 0.891367 0
M  V30 13061 H 1249.16 -1.73653 3.05839 0
M  V30 13062 H 1249.03 -3.16667 2.04943 0
M  V30 13063 H 1251.42 -2.70948 1.16924 0
M  V30 13064 H 1251.5 -1.28299 2.21298 0
M  V30 13065 H 1251.15 -2.78087 4.25006 0
M  V30 13066 H 1251.08 -4.20047 3.17598 0
M  V30 13067 H 1253.57 -2.75371 2.58804 0
M  V30 13068 H 1253.88 -5.1846 5.73079 0
M  V30 13069 H 1252.22 -4.6678 5.14919 0
M  V30 13070 H 1255.42 -3.35273 3.26665 0
M  V30 13071 H 1255.59 -4.4614 4.69961 0
M  V30 13072 N 1248.99 -0.981699 -1.2329 0
M  V30 13073 C 1250.41 -0.688087 -1.73558 0
M  V30 13074 C 1250.76 0.795633 -1.79344 0
M  V30 13075 O 1249.88 1.62227 -1.43218 0
M  V30 13076 C 1250.48 -1.24235 -3.152 0
M  V30 13077 C 1249.04 -0.998356 -3.62918 0
M  V30 13078 C 1248.18 -1.3693 -2.41134 0
M  V30 13079 H 1251.13 -1.15539 -1.08795 0
M  V30 13080 H 1251.15 -0.61541 -3.7549 0
M  V30 13081 H 1250.67 -2.32223 -3.10957 0
M  V30 13082 H 1248.77 0.0653847 -3.72543 0
M  V30 13083 H 1248.88 -1.65385 -4.49649 0
M  V30 13084 H 1247.24 -0.787773 -2.42211 0
M  V30 13085 H 1248.03 -2.45898 -2.39561 0
M  V30 13086 N 1250.47 1.3842 -0.753509 0
M  V30 13087 C 1251.89 1.53668 -0.431095 0
M  V30 13088 C 1252.09 1.71626 1.05578 0
M  V30 13089 O 1251.14 1.72723 1.84182 0
M  V30 13090 C 1252.46 2.74381 -1.23027 0
M  V30 13091 C 1254.01 2.8823 -1.22034 0
M  V30 13092 C 1254.48 4.11904 -2.00248 0
M  V30 13093 N 1255.97 4.18981 -1.97508 0
M  V30 13094 C 1256.71 5.13667 -2.5482 0
M  V30 13095 N 1256.2 6.14027 -3.20846 0
M  V30 13096 N 1258 5.06017 -2.44751 0
M  V30 13097 H 1250.15 1.25012 -1.71714 0
M  V30 13098 H 1252.41 0.607296 -0.727939 0
M  V30 13099 H 1252.12 2.67515 -2.28317 0
M  V30 13100 H 1251.99 3.67565 -0.847098 0
M  V30 13101 H 1254.38 2.94578 -0.175502 0
M  V30 13102 H 1254.46 1.96057 -1.64303 0
M  V30 13103 H 1254.1 4.06318 -3.04742 0
M  V30 13104 H 1254.03 5.03157 -1.55373 0
M  V30 13105 H 1256.52 3.47104 -1.49423 0
M  V30 13106 H 1256.84 6.82771 -3.61999 0
M  V30 13107 H 1255.18 6.1436 -3.24941 0
M  V30 13108 H 1258.37 4.26552 -1.92797 0
M  V30 13109 H 1258.54 5.7963 -2.89713 0
M  V30 13110 N 1251.95 0.502579 1.49372 0
M  V30 13111 C 1253.18 -0.0381429 2.06865 0
M  V30 13112 C 1253.59 -1.30674 1.36271 0
M  V30 13113 O 1252.95 -1.77078 0.441532 0
M  V30 13114 C 1253 -0.294068 3.60302 0
M  V30 13115 O 1252.72 0.924244 4.2824 0
M  V30 13116 C 1254.22 -0.878253 4.34513 0
M  V30 13117 H 1251.44 0.0211756 0.670666 0
M  V30 13118 H 1253.99 0.700387 1.92132 0
M  V30 13119 H 1252.14 -0.982583 3.74732 0
M  V30 13120 H 1252.56 0.688062 5.19967 0
M  V30 13121 H 1254.03 -1.0069 5.42739 0
M  V30 13122 H 1254.51 -1.87643 3.97098 0
M  V30 13123 H 1255.11 -0.227157 4.24693 0
M  V30 13124 N 1253.43 -1.55816 0.23648 0
M  V30 13125 C 1254.38 -2.22322 -0.68378 0
M  V30 13126 C 1255.37 -1.2074 -1.1882 0
M  V30 13127 O 1256.58 -1.38781 -1.14629 0
M  V30 13128 H 1252.95 -0.713021 -0.238966 0
M  V30 13129 H 1254.92 -2.98234 -0.0995879 0
M  V30 13130 C 1253.67 -2.92845 -1.87449 0
M  V30 13131 H 1252.99 -3.70777 -1.49548 0
M  V30 13132 H 1254.43 -3.42758 -2.49585 0
M  V30 13133 C 1252.89 -1.96139 -2.73918 0
M  V30 13134 O 1253.42 -1.48781 -3.73132 0
M  V30 13135 N 1251.63 -1.63465 -2.40266 0
M  V30 13136 H 1251.18 -2.02171 -1.59639 0
M  V30 13137 H 1251.13 -0.990239 -2.98398 0
M  V30 13138 N 1254.91 0.036755 -1.57557 0
M  V30 13139 C 1255.84 1.03939 -2.09091 0
M  V30 13140 C 1256.82 1.38196 -0.991761 0
M  V30 13141 O 1258 1.47214 -1.26656 0
M  V30 13142 C 1255.13 2.34263 -2.56394 0
M  V30 13143 C 1254.09 2.14269 -3.70504 0
M  V30 13144 C 1253.41 3.50286 -4.03985 0
M  V30 13145 C 1254.71 1.53514 -4.9923 0
M  V30 13146 H 1256.41 0.610429 -2.93111 0
M  V30 13147 H 1253.95 0.292183 -1.41005 0
M  V30 13148 H 1255.91 3.04727 -2.91066 0
M  V30 13149 H 1254.63 2.79205 -1.69447 0
M  V30 13150 H 1253.29 1.46239 -3.36169 0
M  V30 13151 H 1252.94 3.92861 -3.14116 0
M  V30 13152 H 1252.64 3.37735 -4.80842 0
M  V30 13153 H 1254.16 4.22124 -4.41184 0
M  V30 13154 H 1255.57 2.13885 -5.31908 0
M  V30 13155 H 1253.97 1.51561 -5.80646 0
M  V30 13156 H 1255.04 0.500126 -4.82314 0
M  V30 13157 N 1256.39 1.54543 0.308881 0
M  V30 13158 C 1257.61 1.77431 1.06422 0
M  V30 13159 C 1258.03 0.529972 1.81209 0
M  V30 13160 O 1257.39 -0.499912 1.7552 0
M  V30 13161 C 1257.44 2.9769 2.05092 0
M  V30 13162 O 1257.16 4.17315 1.33341 0
M  V30 13163 C 1258.66 3.32905 2.92727 0
M  V30 13164 H 1255.88 0.591961 0.315948 0
M  V30 13165 H 1258.42 2.01473 0.350547 0
M  V30 13166 H 1256.58 2.7588 2.71973 0
M  V30 13167 H 1256.99 4.85061 1.99539 0
M  V30 13168 H 1258.47 4.20314 3.57827 0
M  V30 13169 H 1258.94 2.50713 3.6061 0
M  V30 13170 H 1259.55 3.56847 2.31388 0
M  V30 13171 N 1257.86 -0.571685 1.46866 0
M  V30 13172 C 1259.09 -1.35524 1.56336 0
M  V30 13173 C 1259.51 -1.87647 0.208359 0
M  V30 13174 O 1258.86 -1.64219 -0.796136 0
M  V30 13175 C 1258.91 -2.53518 2.57703 0
M  V30 13176 O 1258.64 -2.03552 3.87941 0
M  V30 13177 C 1260.14 -3.45925 2.77219 0
M  V30 13178 H 1257.36 -0.41363 0.528348 0
M  V30 13179 H 1259.9 -0.693943 1.92366 0
M  V30 13180 H 1258.06 -3.15615 2.24647 0
M  V30 13181 H 1258.47 -2.80476 4.43208 0
M  V30 13182 H 1259.94 -4.2517 3.52043 0
M  V30 13183 H 1260.42 -3.98559 1.8452 0
M  V30 13184 H 1261.03 -2.89655 3.11416 0
M  V30 13185 N 1259.34 -1.34755 -0.817236 0
M  V30 13186 C 1260.59 -1.2762 -1.5761 0
M  V30 13187 C 1260.92 0.152017 -1.93604 0
M  V30 13188 O 1260.2 1.09881 -1.60488 0
M  V30 13189 C 1260.48 -2.17251 -2.87183 0
M  V30 13190 C 1260.33 -3.68638 -2.57733 0
M  V30 13191 C 1261.65 -2.06206 -3.88802 0
M  V30 13192 H 1258.77 -0.464933 -0.571845 0
M  V30 13193 H 1261.41 -1.6506 -0.941028 0
M  V30 13194 H 1259.56 -1.85452 -3.41379 0
M  V30 13195 H 1261.23 -4.10829 -2.09802 0
M  V30 13196 H 1259.48 -3.89445 -1.91089 0
M  V30 13197 H 1260.15 -4.26726 -3.50156 0
M  V30 13198 H 1262.62 -2.34137 -3.43975 0
M  V30 13199 H 1261.5 -2.71136 -4.77259 0
M  V30 13200 H 1261.76 -1.04075 -4.29675 0
M  V30 13201 N 1260.82 1.03812 -1.18578 0
M  V30 13202 C 1262.07 1.76706 -0.980776 0
M  V30 13203 C 1262.39 1.88729 0.490562 0
M  V30 13204 O 1261.66 1.41413 1.35569 0
M  V30 13205 H 1260.24 0.654586 -0.359898 0
M  V30 13206 H 1262.9 1.25274 -1.49306 0
M  V30 13207 H 1262 2.77876 -1.42096 0
M  V30 13208 N 1262.3 0.988223 1.22768 0
M  V30 13209 C 1263.71 0.697281 1.7319 0
M  V30 13210 C 1264.06 -0.786111 1.79763 0
M  V30 13211 O 1263.18 -1.61465 1.44077 0
M  V30 13212 C 1263.78 1.25905 3.14537 0
M  V30 13213 C 1262.34 1.01759 3.62384 0
M  V30 13214 C 1261.49 1.38207 2.40404 0
M  V30 13215 H 1264.44 1.16114 1.08181 0
M  V30 13216 H 1264.46 0.635315 3.75159 0
M  V30 13217 H 1263.97 2.33869 3.09721 0
M  V30 13218 H 1262.07 -0.045627 3.72572 0
M  V30 13219 H 1262.18 1.67767 4.48766 0
M  V30 13220 H 1260.55 0.800607 2.4179 0
M  V30 13221 H 1261.33 2.47165 2.38253 0
M  V30 13222 N 1263.78 -1.38018 0.760839 0
M  V30 13223 C 1265 -2.04757 0.330038 0
M  V30 13224 C 1265.43 -1.57009 -1.03585 0
M  V30 13225 O 1264.78 -0.725349 -1.66158 0
M  V30 13226 C 1264.83 -3.58696 0.370082 0
M  V30 13227 O 1263.94 -4.07507 -0.633361 0
M  V30 13228 H 1263.28 -0.648023 0.144782 0
M  V30 13229 H 1265.81 -1.7655 1.03399 0
M  V30 13230 H 1265.82 -4.07387 0.223515 0
M  V30 13231 H 1264.49 -3.92806 1.36661 0
M  V30 13232 H 1263.07 -3.70165 -0.45081 0
M  V30 13233 N 1265.25 -0.510493 -1.49103 0
M  V30 13234 C 1266.53 0.0941122 -1.95373 0
M  V30 13235 C 1266.91 1.53207 -1.45227 0
M  V30 13236 O 1266.26 2.18452 -0.670161 0
M  V30 13237 C 1266.47 -0.00302507 -3.49 0
M  V30 13238 C 1267.82 0.166117 -4.24275 0
M  V30 13239 O 1268.84 0.0717097 -3.56128 0
M  V30 13240 O 1267.7 0.361155 -5.45305 0
M  V30 13241 H 1264.79 0.0900741 -0.82208 0
M  V30 13242 H 1267.34 -0.573707 -1.59708 0
M  V30 13243 H 1266.11 -1.00545 -3.78162 0
M  V30 13244 H 1265.73 0.704518 -3.91308 0
M  V30 13245 N 1266.73 1.55688 -0.24474 0
M  V30 13246 C 1267.66 2.17317 0.696311 0
M  V30 13247 C 1268.64 1.12456 1.17441 0
M  V30 13248 O 1269.83 1.40832 1.25294 0
M  V30 13249 C 1266.95 2.77211 1.94606 0
M  V30 13250 C 1266 3.95107 1.60602 0
M  V30 13251 S 1266.83 5.30765 0.710525 0
M  V30 13252 C 1267.99 5.94111 1.96933 0
M  V30 13253 H 1268.22 2.96799 0.172566 0
M  V30 13254 H 1265.75 1.54372 -0.0292155 0
M  V30 13255 H 1267.71 3.12355 2.66354 0
M  V30 13256 H 1266.37 1.9768 2.44093 0
M  V30 13257 H 1265.57 4.35598 2.53517 0
M  V30 13258 H 1265.17 3.61229 0.968986 0
M  V30 13259 H 1267.46 6.11496 2.91682 0
M  V30 13260 H 1268.4 6.89602 1.60794 0
M  V30 13261 H 1268.81 5.23161 2.12043 0
M  V30 13262 N 1268.21 -0.0283989 1.57574 0
M  V30 13263 C 1269.44 -0.729772 1.93282 0
M  V30 13264 C 1269.85 -1.69384 0.842959 0
M  V30 13265 O 1269.19 -1.82722 -0.189286 0
M  V30 13266 C 1269.25 -1.54107 3.24794 0
M  V30 13267 C 1268.92 -0.741709 4.50941 0
M  V30 13268 C 1269.91 -0.0416985 5.19883 0
M  V30 13269 C 1267.6 -0.696053 4.97454 0
M  V30 13270 C 1269.59 0.693261 6.33619 0
M  V30 13271 C 1267.28 0.042651 6.11085 0
M  V30 13272 C 1268.28 0.736067 6.79022 0
M  V30 13273 O 1267.97 1.46278 7.9048 0
M  V30 13274 H 1267.7 -0.210092 0.642524 0
M  V30 13275 H 1270.25 0.0102277 2.05397 0
M  V30 13276 H 1268.48 -2.3249 3.09007 0
M  V30 13277 H 1270.17 -2.12512 3.45823 0
M  V30 13278 H 1270.94 -0.0679975 4.84952 0
M  V30 13279 H 1266.82 -1.22528 4.44419 0
M  V30 13280 H 1270.36 1.23504 6.8658 0
M  V30 13281 H 1266.26 0.0708708 6.45461 0
M  V30 13282 H 1267.02 1.37652 8.06842 0
M  V30 13283 N 1269.69 -1.54705 -0.300681 0
M  V30 13284 C 1270.93 -1.74259 -1.03738 0
M  V30 13285 C 1271.27 -0.52703 -1.86912 0
M  V30 13286 O 1270.54 0.475862 -1.88589 0
M  V30 13287 C 1270.82 -3.03175 -1.94311 0
M  V30 13288 C 1270.68 -4.35031 -1.14315 0
M  V30 13289 C 1272 -3.27962 -2.93478 0
M  V30 13290 H 1269.12 -0.634031 -0.37573 0
M  V30 13291 H 1271.76 -1.87421 -0.312012 0
M  V30 13292 H 1269.91 -2.92086 -2.5616 0
M  V30 13293 H 1271.58 -4.5804 -0.547489 0
M  V30 13294 H 1269.82 -4.31503 -0.44587 0
M  V30 13295 H 1270.49 -5.21502 -1.80941 0
M  V30 13296 H 1272.97 -3.38663 -2.41757 0
M  V30 13297 H 1271.85 -4.19481 -3.54016 0
M  V30 13298 H 1272.11 -2.46273 -3.67154 0
M  V30 13299 N 1271.17 0.563888 -1.47167 0
M  V30 13300 C 1272.12 1.66687 -1.55562 0
M  V30 13301 C 1273.1 1.55455 -0.415024 0
M  V30 13302 O 1274.29 1.64051 -0.664557 0
M  V30 13303 C 1271.42 3.05469 -1.56665 0
M  V30 13304 C 1270.51 3.21928 -2.76085 0
M  V30 13305 N 1270.9 3.08477 -4.00844 0
M  V30 13306 C 1269.2 3.52913 -2.72706 0
M  V30 13307 C 1269.9 3.27447 -4.80784 0
M  V30 13308 N 1268.87 3.53474 -4.12986 0
M  V30 13309 H 1272.68 1.54846 -2.498 0
M  V30 13310 H 1270.19 0.76846 -1.43068 0
M  V30 13311 H 1272.19 3.84655 -1.60768 0
M  V30 13312 H 1270.85 3.18427 -0.635174 0
M  V30 13313 H 1271.86 2.85944 -4.31806 0
M  V30 13314 H 1268.53 3.7244 -1.88666 0
M  V30 13315 H 1269.92 3.22072 -5.89677 0
M  V30 13316 N 1272.64 1.35187 0.810078 0
M  V30 13317 C 1273.89 1.28454 1.56931 0
M  V30 13318 C 1274.22 -0.141747 1.93682 0
M  V30 13319 O 1273.5 -1.09028 1.61069 0
M  V30 13320 C 1273.78 2.18771 2.86027 0
M  V30 13321 C 1273.63 3.69999 2.55774 0
M  V30 13322 C 1274.95 2.08265 3.87703 0
M  V30 13323 H 1272.07 0.467959 0.569371 0
M  V30 13324 H 1274.71 1.65556 0.932262 0
M  V30 13325 H 1272.86 1.8726 3.40391 0
M  V30 13326 H 1274.54 4.11936 2.07621 0
M  V30 13327 H 1272.78 3.90453 1.89021 0
M  V30 13328 H 1273.45 4.28577 3.47888 0
M  V30 13329 H 1275.93 2.35958 3.42729 0
M  V30 13330 H 1274.8 2.73663 4.75815 0
M  V30 13331 H 1275.06 1.06352 4.29117 0
M  V30 13332 N 1274.12 -1.03182 1.19127 0
M  V30 13333 C 1275.37 -1.76184 0.990134 0
M  V30 13334 C 1275.69 -1.88986 -0.480546 0
M  V30 13335 O 1274.96 -1.4213 -1.34817 0
M  V30 13336 H 1273.54 -0.652668 0.363364 0
M  V30 13337 H 1276.2 -1.24481 1.49968 0
M  V30 13338 H 1275.3 -2.77119 1.43568 0
M  V30 13339 N 1275.6 -0.99472 -1.22242 0
M  V30 13340 C 1276.55 -0.53946 -2.26258 0
M  V30 13341 C 1277.54 0.410796 -1.64344 0
M  V30 13342 O 1278.75 0.283116 -1.7776 0
M  V30 13343 H 1275.12 -0.156069 -0.735627 0
M  V30 13344 H 1277.09 -1.42814 -2.62005 0
M  V30 13345 C 1275.84 0.12842 -3.47463 0
M  V30 13346 H 1275.17 -0.593727 -3.95367 0
M  V30 13347 H 1276.61 0.410393 -4.22009 0
M  V30 13348 C 1275.07 1.36433 -3.08038 0
M  V30 13349 O 1275.6 2.45953 -3.176 0
M  V30 13350 N 1273.8 1.24026 -2.62804 0
M  V30 13351 H 1273.35 0.349111 -2.55223 0
M  V30 13352 H 1273.31 2.06824 -2.36794 0
M  V30 13353 N 1277.08 1.37613 -0.768148 0
M  V30 13354 C 1278.01 2.3291 -0.165911 0
M  V30 13355 C 1278.99 1.556 0.687205 0
M  V30 13356 O 1280.17 1.83854 0.625407 0
M  V30 13357 C 1277.3 3.39822 0.7168 0
M  V30 13358 C 1276.26 4.27986 -0.0347264 0
M  V30 13359 C 1275.58 5.2588 0.967192 0
M  V30 13360 C 1276.88 5.08052 -1.21164 0
M  V30 13361 H 1278.58 2.83524 -0.962006 0
M  V30 13362 H 1276.12 1.36318 -0.464051 0
M  V30 13363 H 1278.08 4.05464 1.14789 0
M  V30 13364 H 1276.8 2.87725 1.54538 0
M  V30 13365 H 1275.46 3.6387 -0.446557 0
M  V30 13366 H 1275.11 4.70064 1.79022 0
M  V30 13367 H 1274.81 5.85726 0.468913 0
M  V30 13368 H 1276.33 5.94397 1.3973 0
M  V30 13369 H 1277.75 5.66853 -0.857373 0
M  V30 13370 H 1276.14 5.77206 -1.64176 0
M  V30 13371 H 1277.21 4.40936 -2.0175 0
M  V30 13372 N 1278.56 0.518393 1.4883 0
M  V30 13373 C 1279.81 -0.0218436 2.01688 0
M  V30 13374 C 1280.12 -1.36421 1.40174 0
M  V30 13375 O 1281.32 -1.99214 1.84461 0
M  V30 13376 C 1279.78 -0.0893538 3.59789 0
M  V30 13377 C 1279.39 1.24741 4.30283 0
M  V30 13378 C 1281.13 -0.579032 4.20532 0
M  V30 13379 C 1279.04 1.14112 5.80286 0
M  V30 13380 H 1277.97 -0.0119353 0.753906 0
M  V30 13381 H 1280.62 0.660432 1.71203 0
M  V30 13382 H 1279 -0.836458 3.87065 0
M  V30 13383 H 1280.18 2.00917 4.14691 0
M  V30 13384 H 1278.49 1.67191 3.81361 0
M  V30 13385 H 1281.09 -0.676343 5.30405 0
M  V30 13386 H 1281.43 -1.58207 3.85067 0
M  V30 13387 H 1281.96 0.112046 3.97642 0
M  V30 13388 H 1278.7 2.11895 6.20307 0
M  V30 13389 H 1278.22 0.420535 5.98324 0
M  V30 13390 H 1279.9 0.826992 6.41693 0
M  V30 13391 N 1280.03 -1.55556 0.252993 0
M  V30 13392 C 1281.26 -2.03196 -0.37348 0
M  V30 13393 C 1281.67 -1.13145 -1.51641 0
M  V30 13394 O 1281.02 -0.139519 -1.83169 0
M  V30 13395 C 1281.08 -3.47066 -0.937308 0
M  V30 13396 C 1280.74 -4.5694 0.0741513 0
M  V30 13397 C 1281.74 -5.12297 0.885862 0
M  V30 13398 C 1279.42 -5.01894 0.202003 0
M  V30 13399 C 1281.42 -6.11107 1.81182 0
M  V30 13400 C 1279.1 -6.00534 1.13146 0
M  V30 13401 C 1280.1 -6.5502 1.93489 0
M  V30 13402 O 1279.79 -7.51735 2.84868 0
M  V30 13403 H 1279.52 -0.669687 -0.092171 0
M  V30 13404 H 1282.08 -2.01924 0.376264 0
M  V30 13405 H 1280.31 -3.45507 -1.73672 0
M  V30 13406 H 1282 -3.78171 -1.47451 0
M  V30 13407 H 1282.76 -4.78395 0.797707 0
M  V30 13408 H 1278.64 -4.59144 -0.413301 0
M  V30 13409 H 1282.18 -6.53561 2.43935 0
M  V30 13410 H 1278.08 -6.33856 1.22052 0
M  V30 13411 H 1278.85 -7.69373 2.79298 0
M  V30 13412 N 1281.51 0.0200419 -1.57587 0
M  V30 13413 C 1282.93 0.375834 -1.55112 0
M  V30 13414 C 1283.13 1.76047 -0.980297 0
M  V30 13415 O 1282.18 2.45138 -0.605297 0
M  V30 13416 C 1283.5 0.269418 -2.99491 0
M  V30 13417 C 1285.05 0.345838 -3.11084 0
M  V30 13418 C 1285.52 0.268771 -4.57211 0
M  V30 13419 N 1287.01 0.32729 -4.62042 0
M  V30 13420 C 1287.75 0.290688 -5.72663 0
M  V30 13421 N 1287.24 0.205851 -6.92494 0
M  V30 13422 N 1289.04 0.341082 -5.61064 0
M  V30 13423 H 1281.19 -0.885979 -1.93039 0
M  V30 13424 H 1283.45 -0.337753 -0.885792 0
M  V30 13425 H 1283.16 -0.682452 -3.45015 0
M  V30 13426 H 1283.03 1.0595 -3.62014 0
M  V30 13427 H 1285.42 1.28814 -2.65501 0
M  V30 13428 H 1285.5 -0.47376 -2.51375 0
M  V30 13429 H 1285.14 -0.669906 -5.03463 0
M  V30 13430 H 1285.07 1.10659 -5.14842 0
M  V30 13431 H 1287.56 0.395004 -3.7583 0
M  V30 13432 H 1287.88 0.18327 -7.72583 0
M  V30 13433 H 1286.22 0.171768 -6.94788 0
M  V30 13434 H 1289.41 0.405415 -4.66341 0
M  V30 13435 H 1289.58 0.309091 -6.47262 0
M  V30 13436 N 1282.99 1.54862 0.292472 0
M  V30 13437 C 1283.94 1.87168 1.38097 0
M  V30 13438 C 1284.93 0.746176 1.52081 0
M  V30 13439 O 1286.14 0.930281 1.54097 0
M  V30 13440 H 1282.51 0.593769 0.461456 0
M  V30 13441 H 1284.48 2.78135 1.0809 0
M  V30 13442 C 1283.23 2.14315 2.73796 0
M  V30 13443 H 1282.56 3.00398 2.63821 0
M  V30 13444 H 1284 2.40853 3.48949 0
M  V30 13445 C 1282.46 0.944424 3.23392 0
M  V30 13446 O 1282.99 0.169208 4.01343 0
M  V30 13447 N 1281.19 0.747456 2.80823 0
M  V30 13448 H 1280.74 1.37953 2.17547 0
M  V30 13449 H 1280.7 -0.0530199 3.14355 0
M  V30 13450 N 1284.47 -0.556076 1.47464 0
M  V30 13451 C 1285.4 -1.67275 1.62915 0
M  V30 13452 C 1286.38 -1.63229 0.478562 0
M  V30 13453 O 1287.56 -1.80833 0.708032 0
M  V30 13454 C 1284.69 -3.05911 1.64426 0
M  V30 13455 C 1283.65 -3.24804 2.78722 0
M  V30 13456 C 1282.97 -4.64238 2.65307 0
M  V30 13457 C 1284.27 -3.10071 4.20302 0
M  V30 13458 H 1285.97 -1.54601 2.56396 0
M  V30 13459 H 1283.51 -0.742337 1.23391 0
M  V30 13460 H 1285.47 -3.83878 1.73826 0
M  V30 13461 H 1284.19 -3.19547 0.675053 0
M  V30 13462 H 1282.85 -2.49246 2.68835 0
M  V30 13463 H 1282.5 -4.74675 1.66412 0
M  V30 13464 H 1282.2 -4.77828 3.41986 0
M  V30 13465 H 1283.72 -5.44339 2.76637 0
M  V30 13466 H 1285.14 -3.77855 4.3116 0
M  V30 13467 H 1283.53 -3.3517 4.97776 0
M  V30 13468 H 1284.6 -2.06803 4.38589 0
M  V30 13469 N 1285.95 -1.35615 -0.802897 0
M  V30 13470 C 1286.9 -1.25378 -1.90432 0
M  V30 13471 C 1287.88 -0.148217 -1.60216 0
M  V30 13472 O 1289.07 -0.379783 -1.72878 0
M  V30 13473 C 1286.2 -1.03172 -3.2743 0
M  V30 13474 C 1285.29 -2.18135 -3.637 0
M  V30 13475 N 1285.68 -3.43382 -3.71379 0
M  V30 13476 C 1283.98 -2.09603 -3.93678 0
M  V30 13477 C 1284.68 -4.19004 -4.03498 0
M  V30 13478 N 1283.65 -3.47799 -4.17776 0
M  V30 13479 H 1287.46 -2.20267 -1.94576 0
M  V30 13480 H 1284.97 -1.2814 -0.997687 0
M  V30 13481 H 1286.97 -0.939264 -4.06182 0
M  V30 13482 H 1285.63 -0.0917091 -3.2457 0
M  V30 13483 H 1286.64 -3.77687 -3.54363 0
M  V30 13484 H 1283.32 -1.23479 -3.98822 0
M  V30 13485 H 1284.71 -5.27255 -4.16476 0
M  V30 13486 N 1287.43 1.02549 -1.19673 0
M  V30 13487 C 1288.36 2.12794 -0.961289 0
M  V30 13488 C 1289.34 1.69766 0.106575 0
M  V30 13489 O 1290.52 1.94138 -0.0491358 0
M  V30 13490 C 1287.65 3.4364 -0.502868 0
M  V30 13491 C 1286.61 4.00367 -1.51296 0
M  V30 13492 C 1285.93 5.26874 -0.911491 0
M  V30 13493 C 1287.23 4.34782 -2.89416 0
M  V30 13494 H 1288.93 2.32748 -1.88331 0
M  V30 13495 H 1286.47 1.11852 -0.906922 0
M  V30 13496 H 1288.42 4.20141 -0.325436 0
M  V30 13497 H 1287.15 3.23418 0.454764 0
M  V30 13498 H 1285.81 3.25964 -1.67759 0
M  V30 13499 H 1285.46 5.02971 0.0537982 0
M  V30 13500 H 1285.16 5.65791 -1.58602 0
M  V30 13501 H 1286.68 6.06039 -0.74493 0
M  V30 13502 H 1288.09 5.02207 -2.76516 0
M  V30 13503 H 1286.49 4.8479 -3.53693 0
M  V30 13504 H 1287.56 3.43935 -3.41814 0
M  V30 13505 N 1288.9 1.00119 1.21713 0
M  V30 13506 C 1290.15 0.681723 1.9068 0
M  V30 13507 C 1290.48 -0.787121 1.77861 0
M  V30 13508 O 1289.73 -1.58573 1.14687 0
M  V30 13509 C 1290.03 1.04376 3.41819 0
M  V30 13510 C 1289.7 2.50624 3.74831 0
M  V30 13511 C 1288.36 2.90587 3.83552 0
M  V30 13512 C 1290.71 3.45377 3.90339 0
M  V30 13513 C 1288.04 4.24276 4.05225 0
M  V30 13514 C 1290.39 4.78734 4.13517 0
M  V30 13515 C 1289.06 5.18427 4.20464 0
M  V30 13516 H 1288.33 0.24946 0.697747 0
M  V30 13517 H 1290.97 1.25892 1.44304 0
M  V30 13518 H 1289.28 0.384756 3.89906 0
M  V30 13519 H 1290.98 0.774488 3.9345 0
M  V30 13520 H 1287.57 2.18651 3.68632 0
M  V30 13521 H 1291.75 3.15669 3.82971 0
M  V30 13522 H 1287.01 4.54605 4.08833 0
M  V30 13523 H 1291.18 5.52094 4.24459 0
M  V30 13524 H 1288.81 6.22034 4.3701 0
M  V30 13525 N 1290.38 -1.37203 0.775435 0
M  V30 13526 C 1291.33 -2.32102 0.152051 0
M  V30 13527 C 1292.32 -1.55117 -0.680806 0
M  V30 13528 O 1293.53 -1.70486 -0.577455 0
M  V30 13529 H 1289.9 -0.751386 0.0303853 0
M  V30 13530 H 1291.88 -2.82259 0.968121 0
M  V30 13531 C 1290.62 -3.40378 -0.709788 0
M  V30 13532 H 1289.95 -3.99723 -0.0782879 0
M  V30 13533 H 1291.39 -4.09134 -1.11288 0
M  V30 13534 C 1289.85 -2.80769 -1.862 0
M  V30 13535 O 1290.38 -2.71813 -2.95771 0
M  V30 13536 N 1288.58 -2.38259 -1.66376 0
M  V30 13537 H 1288.13 -2.45743 -0.772531 0
M  V30 13538 H 1288.09 -1.98721 -2.43634 0
M  V30 13539 N 1291.86 -0.526279 -1.48553 0
M  V30 13540 C 1293.08 0.00731432 -2.07399 0
M  V30 13541 C 1293.51 1.27737 -1.38075 0
M  V30 13542 O 1292.87 1.75741 -0.445503 0
M  V30 13543 C 1292.92 0.218126 -3.5994 0
M  V30 13544 O 1292.02 1.28759 -3.91784 0
M  V30 13545 H 1291.36 -0.0374784 -0.662941 0
M  V30 13546 H 1293.89 -0.733133 -1.91014 0
M  V30 13547 H 1293.9 0.44192 -4.056 0
M  V30 13548 H 1292.58 -0.709668 -4.09801 0
M  V30 13549 H 1291.15 1.04674 -3.57907 0
M  V30 13550 N 1293.34 1.5542 -0.261239 0
M  V30 13551 C 1294.61 1.91243 0.41056 0
M  V30 13552 C 1294.99 1.1838 1.74784 0
M  V30 13553 O 1294.34 0.306013 2.26442 0
M  V30 13554 C 1294.55 3.44404 0.56453 0
M  V30 13555 C 1295.9 4.15927 0.853827 0
M  V30 13556 O 1296.92 3.50222 0.649861 0
M  V30 13557 O 1295.78 5.32175 1.24308 0
M  V30 13558 H 1292.88 0.796491 0.222555 0
M  V30 13559 H 1295.42 1.66912 -0.306367 0
M  V30 13560 H 1294.2 3.89478 -0.377134 0
M  V30 13561 H 1293.82 3.74644 1.33145 0
M  V30 13562 N 1294.82 -0.0116844 1.57596 0
M  V30 13563 C 1296.06 -0.698089 1.89234 0
M  V30 13564 C 1296.38 -1.75581 0.862016 0
M  V30 13565 O 1297.58 -2.49602 1.06822 0
M  V30 13566 C 1296.04 -1.29277 3.3588 0
M  V30 13567 C 1295.65 -0.27049 4.47183 0
M  V30 13568 C 1297.39 -1.95805 3.76644 0
M  V30 13569 C 1295.3 -0.874502 5.84899 0
M  V30 13570 H 1294.23 -0.264495 0.706087 0
M  V30 13571 H 1296.88 0.0469451 1.8344 0
M  V30 13572 H 1295.26 -2.08809 3.36474 0
M  V30 13573 H 1296.44 0.499381 4.58086 0
M  V30 13574 H 1294.75 0.293676 4.15363 0
M  V30 13575 H 1297.35 -2.41879 4.76863 0
M  V30 13576 H 1297.69 -2.78366 3.09545 0
M  V30 13577 H 1298.22 -1.23023 3.78299 0
M  V30 13578 H 1294.96 -0.0879263 6.55441 0
M  V30 13579 H 1294.48 -1.61381 5.77682 0
M  V30 13580 H 1296.16 -1.37665 6.32185 0
M  V30 13581 N 1296.29 -1.55015 -0.284256 0
M  V30 13582 C 1297.24 -1.83508 -1.3531 0
M  V30 13583 C 1298.23 -0.693244 -1.452 0
M  V30 13584 O 1299.42 -0.954312 -1.4907 0
M  V30 13585 C 1296.55 -2.10059 -2.71533 0
M  V30 13586 C 1295.63 -3.30472 -2.65799 0
M  V30 13587 N 1296.03 -4.50644 -2.29682 0
M  V30 13588 C 1294.32 -3.32836 -2.96878 0
M  V30 13589 C 1295.02 -5.32708 -2.33661 0
M  V30 13590 N 1294 -4.70837 -2.71687 0
M  V30 13591 H 1297.8 -2.73973 -1.06377 0
M  V30 13592 H 1295.32 -1.5474 -0.492875 0
M  V30 13593 H 1297.31 -2.28624 -3.48621 0
M  V30 13594 H 1295.97 -1.20872 -3.01364 0
M  V30 13595 H 1296.98 -4.76945 -2.0185 0
M  V30 13596 H 1293.66 -2.53807 -3.31494 0
M  V30 13597 H 1295.05 -6.38766 -2.08394 0
M  V30 13598 N 1297.77 0.548248 -1.47757 0
M  V30 13599 C 1299.05 1.3092 -1.45325 0
M  V30 13600 C 1299.43 2.1053 -0.155008 0
M  V30 13601 O 1298.78 2.11558 0.863455 0
M  V30 13602 C 1298.99 2.20614 -2.70426 0
M  V30 13603 C 1300.33 2.81345 -3.18009 0
M  V30 13604 O 1301.36 2.30911 -2.71216 0
M  V30 13605 O 1300.22 3.73036 -3.99383 0
M  V30 13606 H 1297.31 0.58996 -0.579548 0
M  V30 13607 H 1299.86 0.56641 -1.59968 0
M  V30 13608 H 1298.63 1.61449 -3.56441 0
M  V30 13609 H 1298.25 3.02173 -2.58413 0
M  V30 13610 N 1299.25 1.36039 0.795694 0
M  V30 13611 C 1300.47 1.33222 1.58955 0
M  V30 13612 C 1300.9 -0.0854596 1.87906 0
M  V30 13613 O 1300.26 -1.05555 1.47403 0
M  V30 13614 C 1300.31 2.15508 2.89117 0
M  V30 13615 O 1299.41 1.54327 3.82436 0
M  V30 13616 H 1298.75 0.456264 0.48241 0
M  V30 13617 H 1301.28 1.79234 0.986726 0
M  V30 13618 H 1301.29 2.2786 3.38444 0
M  V30 13619 H 1299.97 3.18568 2.67371 0
M  V30 13620 H 1298.54 1.50879 3.41013 0
M  V30 13621 N 1300.73 -1.01913 1.20215 0
M  V30 13622 C 1301.98 -1.74878 1.00502 0
M  V30 13623 C 1302.29 -1.90022 -0.463792 0
M  V30 13624 O 1303.5 -2.60055 -0.779982 0
M  V30 13625 C 1301.95 -3.1452 1.74943 0
M  V30 13626 C 1301.56 -3.07397 3.259 0
M  V30 13627 C 1303.3 -3.91713 1.63589 0
M  V30 13628 C 1301.21 -4.42032 3.92889 0
M  V30 13629 H 1300.14 -0.655603 0.372426 0
M  V30 13630 H 1302.79 -1.13978 1.4381 0
M  V30 13631 H 1301.17 -3.75946 1.24421 0
M  V30 13632 H 1302.35 -2.55294 3.83617 0
M  V30 13633 H 1300.66 -2.43698 3.37639 0
M  V30 13634 H 1303.26 -4.91316 2.1098 0
M  V30 13635 H 1303.6 -4.12074 0.591665 0
M  V30 13636 H 1304.14 -3.3691 2.11511 0
M  V30 13637 H 1300.88 -4.26874 4.97453 0
M  V30 13638 H 1300.4 -4.94151 3.39962 0
M  V30 13639 H 1302.07 -5.10884 3.96997 0
M  V30 13640 N 1302.21 -1.00763 -1.2118 0
M  V30 13641 C 1303.14 -0.590493 -2.2591 0
M  V30 13642 C 1304.12 0.390002 -1.65569 0
M  V30 13643 O 1305.3 0.277406 -1.92208 0
M  V30 13644 C 1302.43 0.0810388 -3.47205 0
M  V30 13645 C 1301.39 -0.81951 -4.20081 0
M  V30 13646 C 1300.71 -0.014244 -5.34698 0
M  V30 13647 C 1302.01 -2.12336 -4.7719 0
M  V30 13648 H 1303.71 -1.46595 -2.61056 0
M  V30 13649 H 1301.25 -0.706321 -1.25487 0
M  V30 13650 H 1303.21 0.384355 -4.19644 0
M  V30 13651 H 1301.93 0.991145 -3.11197 0
M  V30 13652 H 1300.59 -1.10669 -3.49497 0
M  V30 13653 H 1300.24 0.897233 -4.94933 0
M  V30 13654 H 1299.94 -0.613883 -5.84384 0
M  V30 13655 H 1301.46 0.282827 -6.09945 0
M  V30 13656 H 1302.87 -1.88301 -5.41494 0
M  V30 13657 H 1301.27 -2.67308 -5.37277 0
M  V30 13658 H 1302.34 -2.79238 -3.96427 0
M  V30 13659 N 1303.68 1.3679 -0.7827 0
M  V30 13660 C 1304.93 1.99712 -0.352533 0
M  V30 13661 C 1305.26 1.61984 1.0712 0
M  V30 13662 O 1304.54 0.871342 1.7389 0
M  V30 13663 C 1304.82 3.5649 -0.508628 0
M  V30 13664 C 1304.67 4.04093 -1.97557 0
M  V30 13665 C 1305.99 4.40026 0.0804447 0
M  V30 13666 H 1303.11 0.725522 -0.129566 0
M  V30 13667 H 1305.75 1.62305 -0.987788 0
M  V30 13668 H 1303.9 3.88487 0.0321664 0
M  V30 13669 H 1305.58 3.82613 -2.57691 0
M  V30 13670 H 1303.82 3.55881 -2.48055 0
M  V30 13671 H 1304.49 5.13088 -2.03579 0
M  V30 13672 H 1306.97 4.14351 -0.381113 0
M  V30 13673 H 1305.84 5.48868 -0.0588424 0
M  V30 13674 H 1306.1 4.26285 1.17189 0
M  V30 13675 N 1305.16 0.53415 1.48272 0
M  V30 13676 C 1306.39 0.00368464 2.074 0
M  V30 13677 C 1306.81 -1.27003 1.38751 0
M  V30 13678 O 1306.17 -1.75502 0.454817 0
M  V30 13679 C 1306.22 -0.199034 3.6005 0
M  V30 13680 O 1305.32 -1.26679 3.92462 0
M  V30 13681 H 1304.66 0.0409936 0.662733 0
M  V30 13682 H 1307.19 0.743253 1.90622 0
M  V30 13683 H 1307.2 -0.420404 4.05828 0
M  V30 13684 H 1305.88 0.731391 4.09418 0
M  V30 13685 H 1304.46 -1.02775 3.58457 0
M  V30 13686 N 1306.64 -1.55279 0.269478 0
M  V30 13687 C 1307.87 -2.03581 -0.351907 0
M  V30 13688 C 1308.28 -1.14747 -1.50432 0
M  V30 13689 O 1307.62 -0.158939 -1.83011 0
M  V30 13690 C 1307.68 -3.48041 -0.900444 0
M  V30 13691 C 1307.35 -4.56835 0.122612 0
M  V30 13692 C 1308.34 -5.11329 0.940149 0
M  V30 13693 C 1306.03 -5.01651 0.255224 0
M  V30 13694 C 1308.02 -6.09151 1.87654 0
M  V30 13695 C 1305.71 -5.993 1.19509 0
M  V30 13696 C 1306.71 -6.52931 2.00426 0
M  V30 13697 O 1306.4 -7.48671 2.92825 0
M  V30 13698 H 1306.13 -0.670627 -0.0850629 0
M  V30 13699 H 1308.68 -2.01514 0.39766 0
M  V30 13700 H 1306.91 -3.47329 -1.69998 0
M  V30 13701 H 1308.6 -3.79713 -1.43431 0
M  V30 13702 H 1309.37 -4.77522 0.848402 0
M  V30 13703 H 1305.25 -4.59556 -0.364579 0
M  V30 13704 H 1308.79 -6.50937 2.50853 0
M  V30 13705 H 1304.69 -6.32526 1.28768 0
M  V30 13706 H 1305.46 -7.66368 2.87442 0
M  V30 13707 N 1308.12 0.00332656 -1.576 0
M  V30 13708 C 1309.34 0.703587 -1.95101 0
M  V30 13709 C 1309.77 1.66697 -0.871418 0
M  V30 13710 O 1309.13 1.80494 0.170739 0
M  V30 13711 C 1309.17 1.41457 -3.31696 0
M  V30 13712 O 1308.28 2.52885 -3.25765 0
M  V30 13713 H 1307.62 0.187396 -0.637008 0
M  V30 13714 H 1310.15 -0.0488727 -2.04542 0
M  V30 13715 H 1310.16 1.77874 -3.67185 0
M  V30 13716 H 1308.83 0.708182 -4.09826 0
M  V30 13717 H 1307.41 2.18821 -3.01947 0
M  V30 13718 N 1309.6 1.55164 0.276031 0
M  V30 13719 C 1310.82 1.7998 1.03063 0
M  V30 13720 C 1311.25 0.569769 1.79263 0
M  V30 13721 O 1310.6 -0.48054 1.74816 0
M  V30 13722 C 1310.65 3.02209 1.96728 0
M  V30 13723 O 1309.76 2.77083 3.05449 0
M  V30 13724 H 1309.1 0.594963 0.294814 0
M  V30 13725 H 1311.63 2.02301 0.305861 0
M  V30 13726 H 1311.64 3.3086 2.38738 0
M  V30 13727 H 1310.31 3.91386 1.40677 0
M  V30 13728 H 1308.89 2.5952 2.67776 0
M  V30 13729 N 1311.07 -0.540404 1.48045 0
M  V30 13730 C 1312.35 -1.30148 1.46017 0
M  V30 13731 C 1312.73 -2.10445 0.166171 0
M  V30 13732 O 1312.08 -2.12013 -0.852223 0
M  V30 13733 C 1312.29 -2.19177 2.71593 0
M  V30 13734 C 1313.64 -2.79655 3.19497 0
M  V30 13735 O 1314.66 -2.2947 2.72437 0
M  V30 13736 O 1313.52 -3.70912 4.01356 0
M  V30 13737 H 1310.61 -0.586879 0.582668 0
M  V30 13738 H 1313.16 -0.557918 1.60267 0
M  V30 13739 H 1311.93 -1.59556 3.57292 0
M  V30 13740 H 1311.56 -3.00798 2.60012 0
M  V30 13741 N 1312.55 -1.36459 -0.788468 0
M  V30 13742 C 1313.48 -1.33545 -1.91541 0
M  V30 13743 C 1314.46 -0.206762 -1.68839 0
M  V30 13744 O 1315.65 -0.404553 -1.89939 0
M  V30 13745 C 1312.78 -1.12492 -3.28577 0
M  V30 13746 C 1311.73 -2.22196 -3.65805 0
M  V30 13747 C 1311.06 -1.86285 -5.01201 0
M  V30 13748 C 1312.36 -3.64286 -3.7429 0
M  V30 13749 H 1314.05 -2.27844 -1.94236 0
M  V30 13750 H 1311.6 -1.09677 -0.933105 0
M  V30 13751 H 1313.55 -1.09089 -4.07035 0
M  V30 13752 H 1312.28 -0.146446 -3.26272 0
M  V30 13753 H 1310.93 -2.24727 -2.89644 0
M  V30 13754 H 1310.58 -0.87009 -4.95417 0
M  V30 13755 H 1310.28 -2.59734 -5.27079 0
M  V30 13756 H 1311.81 -1.84439 -5.82078 0
M  V30 13757 H 1313.22 -3.63977 -4.42937 0
M  V30 13758 H 1311.62 -4.36648 -4.11653 0
M  V30 13759 H 1312.69 -3.99123 -2.75371 0
M  V30 13760 N 1314.03 1.01274 -1.20754 0
M  V30 13761 C 1315.28 1.74342 -1.01428 0
M  V30 13762 C 1315.59 1.90265 0.453708 0
M  V30 13763 O 1316.8 2.60465 0.76618 0
M  V30 13764 C 1315.25 3.13588 -1.76609 0
M  V30 13765 C 1314.86 3.05664 -3.27526 0
M  V30 13766 C 1316.61 3.9084 -1.65664 0
M  V30 13767 C 1314.51 4.39942 -3.95228 0
M  V30 13768 H 1313.44 0.653619 -0.375897 0
M  V30 13769 H 1316.09 1.13214 -1.44412 0
M  V30 13770 H 1314.48 3.75281 -1.26413 0
M  V30 13771 H 1315.65 2.53256 -3.84965 0
M  V30 13772 H 1313.97 2.41904 -3.38927 0
M  V30 13773 H 1316.56 4.9019 -2.13583 0
M  V30 13774 H 1316.91 4.11754 -0.61351 0
M  V30 13775 H 1317.44 3.35783 -2.13294 0
M  V30 13776 H 1314.18 4.24229 -4.9971 0
M  V30 13777 H 1313.7 4.92342 -3.42578 0
M  V30 13778 H 1315.38 5.08771 -3.99701 0
M  V30 13779 N 1315.51 1.01404 1.20644 0
M  V30 13780 C 1316.76 0.697244 1.89265 0
M  V30 13781 C 1317.07 -0.776149 1.79542 0
M  V30 13782 O 1318.28 -1.2054 2.43274 0
M  V30 13783 C 1316.73 1.19672 3.39421 0
M  V30 13784 C 1316.34 2.69683 3.57736 0
M  V30 13785 C 1318.09 0.955225 4.13613 0
M  V30 13786 C 1315.99 3.13124 5.01704 0
M  V30 13787 H 1314.92 0.257105 0.708811 0
M  V30 13788 H 1317.57 1.22639 1.36499 0
M  V30 13789 H 1315.96 0.595562 3.91496 0
M  V30 13790 H 1317.13 3.35326 3.16059 0
M  V30 13791 H 1315.44 2.91946 2.96911 0
M  V30 13792 H 1318.04 1.25524 5.19757 0
M  V30 13793 H 1318.38 -0.108362 4.16159 0
M  V30 13794 H 1318.92 1.51962 3.67631 0
M  V30 13795 H 1315.66 4.18748 5.04311 0
M  V30 13796 H 1315.18 2.522 5.44201 0
M  V30 13797 H 1316.86 3.05617 5.70269 0
M  V30 13798 N 1316.99 -1.36373 0.789944 0
M  V30 13799 C 1318.22 -2.03187 0.373987 0
M  V30 13800 C 1318.63 -1.59697 -1.01457 0
M  V30 13801 O 1317.97 -0.782151 -1.66217 0
M  V30 13802 C 1318.03 -3.57703 0.358985 0
M  V30 13803 C 1317.69 -4.24396 1.69521 0
M  V30 13804 C 1318.69 -4.47247 2.65077 0
M  V30 13805 C 1316.38 -4.61858 1.97465 0
M  V30 13806 C 1318.37 -5.06642 3.86772 0
M  V30 13807 C 1316.06 -5.2097 3.19426 0
M  V30 13808 C 1317.06 -5.43302 4.13899 0
M  V30 13809 O 1316.74 -6.01173 5.3371 0
M  V30 13810 H 1316.48 -0.658654 0.152153 0
M  V30 13811 H 1319.03 -1.7532 1.07014 0
M  V30 13812 H 1317.26 -3.84691 -0.39366 0
M  V30 13813 H 1318.95 -4.05887 -0.0323762 0
M  V30 13814 H 1319.71 -4.18701 2.44775 0
M  V30 13815 H 1315.59 -4.438 1.2475 0
M  V30 13816 H 1319.14 -5.23989 4.60523 0
M  V30 13817 H 1315.03 -5.48943 3.39606 0
M  V30 13818 H 1315.8 -6.19638 5.34781 0
M  V30 13819 N 1318.47 -0.542005 -1.47987 0
M  V30 13820 C 1319.88 -0.200691 -1.58333 0
M  V30 13821 C 1320.08 1.29643 -1.54256 0
M  V30 13822 O 1319.14 2.07556 -1.43794 0
M  V30 13823 C 1320.45 -0.813878 -2.89476 0
M  V30 13824 C 1322 -0.783711 -3.0303 0
M  V30 13825 C 1322.47 -1.37569 -4.36851 0
M  V30 13826 N 1323.96 -1.33819 -4.43449 0
M  V30 13827 C 1324.7 -1.76602 -5.45527 0
M  V30 13828 N 1324.2 -2.27169 -6.54497 0
M  V30 13829 N 1325.99 -1.67765 -5.3648 0
M  V30 13830 H 1318.14 -1.51488 -1.4888 0
M  V30 13831 H 1320.4 -0.630835 -0.707638 0
M  V30 13832 H 1320.11 -1.86544 -2.98151 0
M  V30 13833 H 1319.98 -0.297978 -3.76021 0
M  V30 13834 H 1322.37 0.259118 -2.9396 0
M  V30 13835 H 1322.45 -1.33721 -2.18065 0
M  V30 13836 H 1322.09 -2.41751 -4.46675 0
M  V30 13837 H 1322.02 -0.797769 -5.20522 0
M  V30 13838 H 1324.52 -0.968147 -3.65288 0
M  V30 13839 H 1324.83 -2.57777 -7.2854 0
M  V30 13840 H 1323.17 -2.31171 -6.55427 0
M  V30 13841 H 1326.36 -1.28048 -4.50246 0
M  V30 13842 H 1326.54 -2.01426 -6.15899 0
M  V30 13843 N 1319.94 1.55134 -0.277709 0
M  V30 13844 C 1321.17 2.04061 0.341601 0
M  V30 13845 C 1321.59 1.15597 1.49274 0
M  V30 13846 O 1320.94 0.176625 1.81643 0
M  V30 13847 C 1320.99 3.52074 0.820139 0
M  V30 13848 O 1320.72 4.37171 -0.28516 0
M  V30 13849 C 1322.22 4.16899 1.507 0
M  V30 13850 H 1319.44 0.666501 0.0775708 0
M  V30 13851 H 1321.98 2.00336 -0.410559 0
M  V30 13852 H 1320.14 3.56233 1.52238 0
M  V30 13853 H 1320.55 5.24434 0.0832022 0
M  V30 13854 H 1322.02 5.22061 1.79323 0
M  V30 13855 H 1322.5 3.65227 2.43939 0
M  V30 13856 H 1323.11 4.16749 0.848541 0
M  V30 13857 N 1321.42 0.00503138 1.57599 0
M  V30 13858 C 1322.65 -0.693231 1.95471 0
M  V30 13859 C 1323.07 -1.66233 0.880246 0
M  V30 13860 O 1322.43 -1.80582 -0.161164 0
M  V30 13861 C 1322.48 -1.39696 3.32442 0
M  V30 13862 O 1321.58 -2.51154 3.27101 0
M  V30 13863 H 1320.92 -0.184015 0.637992 0
M  V30 13864 H 1323.45 0.0597194 2.04513 0
M  V30 13865 H 1323.46 -1.75924 3.68123 0
M  V30 13866 H 1322.14 -0.686438 4.10196 0
M  V30 13867 H 1320.71 -2.17216 3.03103 0
M  V30 13868 N 1322.9 -1.55308 -0.267798 0
M  V30 13869 C 1324.13 -1.80191 -1.01681 0
M  V30 13870 C 1324.54 -0.57783 -1.7974 0
M  V30 13871 O 1323.9 0.4532 -1.76783 0
M  V30 13872 C 1323.95 -3.03023 -1.97127 0
M  V30 13873 O 1323.67 -4.20704 -1.22229 0
M  V30 13874 C 1325.17 -3.40549 -2.83798 0
M  V30 13875 H 1322.39 -0.60013 -0.300142 0
M  V30 13876 H 1324.94 -2.02332 -0.297007 0
M  V30 13877 H 1323.09 -2.82993 -2.64563 0
M  V30 13878 H 1323.51 -4.90181 -1.86608 0
M  V30 13879 H 1324.98 -4.29653 -3.46557 0
M  V30 13880 H 1325.46 -2.60186 -3.53836 0
M  V30 13881 H 1326.06 -3.62856 -2.21846 0
M  V30 13882 N 1324.38 0.532545 -1.4833 0
M  V30 13883 C 1325.31 1.65325 -1.58746 0
M  V30 13884 C 1326.32 1.5581 -0.471925 0
M  V30 13885 O 1327.51 1.62317 -0.742656 0
M  V30 13886 C 1324.61 3.03957 -1.49877 0
M  V30 13887 C 1323.78 3.38979 -2.76427 0
M  V30 13888 C 1322.84 4.56881 -2.61048 0
M  V30 13889 O 1321.87 4.6023 -3.34928 0
M  V30 13890 N 1323.07 5.54898 -1.70496 0
M  V30 13891 H 1325.84 1.56827 -2.55393 0
M  V30 13892 H 1323.4 0.71976 -1.45021 0
M  V30 13893 H 1325.39 3.80702 -1.37288 0
M  V30 13894 H 1323.96 3.06548 -0.612158 0
M  V30 13895 H 1323.18 2.51438 -3.03599 0
M  V30 13896 H 1324.47 3.59163 -3.60388 0
M  V30 13897 H 1323.87 5.54968 -1.0967 0
M  V30 13898 H 1322.42 6.3087 -1.63847 0
M  V30 13899 N 1325.86 1.36875 0.78122 0
M  V30 13900 C 1327.1 1.31299 1.53639 0
M  V30 13901 C 1327.42 -0.104942 1.94717 0
M  V30 13902 O 1326.69 -1.04696 1.65576 0
M  V30 13903 H 1325.27 0.483032 0.569815 0
M  V30 13904 H 1327.94 1.71261 0.930359 0
M  V30 13905 H 1327.03 1.94581 2.44018 0
M  V30 13906 N 1327.33 -1.00632 1.21289 0
M  V30 13907 C 1328.61 -1.71635 0.938124 0
M  V30 13908 C 1328.99 -2.03798 -0.550416 0
M  V30 13909 O 1328.34 -1.71065 -1.5149 0
M  V30 13910 C 1328.55 -2.97674 1.82184 0
M  V30 13911 C 1329.9 -3.7073 2.06989 0
M  V30 13912 O 1330.92 -3.07653 1.79522 0
M  V30 13913 O 1329.78 -4.84183 2.53435 0
M  V30 13914 H 1326.87 -0.748506 0.351664 0
M  V30 13915 H 1329.42 -1.06387 1.32212 0
M  V30 13916 H 1328.19 -2.70306 2.82931 0
M  V30 13917 H 1327.81 -3.70663 1.43858 0
M  V30 13918 N 1328.81 -1.02043 -1.20104 0
M  V30 13919 C 1330.06 -0.710566 -1.89197 0
M  V30 13920 C 1330.38 0.762471 -1.79475 0
M  V30 13921 O 1329.65 1.54871 -1.19965 0
M  V30 13922 H 1328.23 -0.259839 -0.700352 0
M  V30 13923 H 1330.89 -1.29285 -1.45848 0
M  V30 13924 H 1329.99 -0.997363 -2.95735 0
M  V30 13925 N 1330.29 1.35952 -0.797165 0
M  V30 13926 C 1331.52 2.02986 -0.384758 0
M  V30 13927 C 1331.93 1.60233 1.00608 0
M  V30 13928 O 1331.27 0.790955 1.658 0
M  V30 13929 C 1331.33 3.57508 -0.37795 0
M  V30 13930 C 1331 4.23491 -1.71769 0
M  V30 13931 C 1331.99 4.45835 -2.67445 0
M  V30 13932 C 1329.68 4.60804 -1.99911 0
M  V30 13933 C 1331.67 5.04584 -3.89453 0
M  V30 13934 C 1329.36 5.19269 -3.22185 0
M  V30 13935 C 1330.36 5.41099 -4.16774 0
M  V30 13936 O 1330.05 5.98334 -5.36891 0
M  V30 13937 H 1329.78 0.657838 -0.155644 0
M  V30 13938 H 1332.33 1.7475 -1.07942 0
M  V30 13939 H 1330.56 3.84894 0.373253 0
M  V30 13940 H 1332.25 4.05899 0.0108505 0
M  V30 13941 H 1333.02 4.17397 -2.46992 0
M  V30 13942 H 1328.9 4.43132 -1.27102 0
M  V30 13943 H 1332.44 5.21539 -4.63296 0
M  V30 13944 H 1328.34 5.47134 -3.42512 0
M  V30 13945 H 1329.11 6.16794 -5.38059 0
M  V30 13946 N 1331.77 0.549846 1.47697 0
M  V30 13947 C 1333.02 0.0209424 2.01689 0
M  V30 13948 C 1333.33 -1.33417 1.43036 0
M  V30 13949 O 1334.54 -1.95257 1.88646 0
M  V30 13950 C 1332.99 -0.0130171 3.59898 0
M  V30 13951 C 1332.6 1.3384 4.2754 0
M  V30 13952 C 1334.34 -0.489701 4.21666 0
M  V30 13953 C 1332.25 1.26395 5.77735 0
M  V30 13954 H 1331.18 0.00405885 0.753989 0
M  V30 13955 H 1333.83 0.696599 1.69764 0
M  V30 13956 H 1332.21 -0.754168 3.88752 0
M  V30 13957 H 1333.39 2.09668 4.10336 0
M  V30 13958 H 1331.7 1.75242 3.77729 0
M  V30 13959 H 1334.3 -0.563684 5.31721 0
M  V30 13960 H 1334.64 -1.50004 3.88336 0
M  V30 13961 H 1335.18 0.196366 3.97315 0
M  V30 13962 H 1331.92 2.25005 6.15673 0
M  V30 13963 H 1331.44 0.547353 5.97297 0
M  V30 13964 H 1333.11 0.962918 6.39794 0
M  V30 13965 N 1333.25 -1.54984 0.285932 0
M  V30 13966 C 1334.66 -1.85519 -0.209707 0
M  V30 13967 C 1335.01 -1.20794 -1.54606 0
M  V30 13968 O 1334.13 -0.500159 -2.10541 0
M  V30 13969 C 1334.73 -3.36579 -0.387283 0
M  V30 13970 C 1333.29 -3.67199 -0.827148 0
M  V30 13971 C 1332.43 -2.77203 0.073308 0
M  V30 13972 H 1335.39 -1.5037 0.507404 0
M  V30 13973 H 1335.41 -3.60269 -1.2242 0
M  V30 13974 H 1334.92 -3.83658 0.585493 0
M  V30 13975 H 1333.02 -3.25627 -1.81101 0
M  V30 13976 H 1333.13 -4.74574 -0.656976 0
M  V30 13977 H 1331.5 -2.50785 -0.444859 0
M  V30 13978 H 1332.28 -3.27099 1.04216 0
M  V30 13979 N 1334.72 -0.0133892 -1.57594 0
M  V30 13980 C 1335.95 0.679255 -1.95432 0
M  V30 13981 C 1336.37 1.66558 -0.889028 0
M  V30 13982 O 1335.72 1.82031 0.130755 0
M  V30 13983 C 1335.78 1.39943 -3.33314 0
M  V30 13984 O 1335.5 0.452643 -4.35755 0
M  V30 13985 C 1337 2.18535 -3.85691 0
M  V30 13986 H 1334.22 0.188337 -0.644026 0
M  V30 13987 H 1336.76 -0.0684861 -2.04385 0
M  V30 13988 H 1334.92 2.0987 -3.25628 0
M  V30 13989 H 1335.33 0.962243 -5.15598 0
M  V30 13990 H 1336.8 2.64403 -4.84557 0
M  V30 13991 H 1337.28 3.01779 -3.19102 0
M  V30 13992 H 1337.89 1.53598 -3.96595 0
M  V30 13993 N 1336.2 1.55448 0.259558 0
M  V30 13994 C 1337.44 1.78444 0.996849 0
M  V30 13995 C 1337.81 0.580862 1.83003 0
M  V30 13996 O 1339.01 0.68934 2.59811 0
M  V30 13997 C 1337.28 3.06094 1.84502 0
M  V30 13998 S 1338.84 3.50263 2.64313 0
M  V30 13999 H 1335.66 0.626854 0.335523 0
M  V30 14000 H 1338.26 1.93683 0.265929 0
M  V30 14001 H 1336.96 3.91772 1.22241 0
M  V30 14002 H 1336.49 2.93558 2.61891 0
M  V30 14003 H 1338.51 3.10596 3.86968 0
M  V30 14004 N 1337.68 -0.524672 1.4861 0
M  V30 14005 C 1338.63 -1.64965 1.6398 0
M  V30 14006 C 1339.62 -1.61663 0.506118 0
M  V30 14007 O 1340.83 -1.66456 0.685013 0
M  V30 14008 H 1337.2 -0.546419 0.516653 0
M  V30 14009 H 1339.17 -1.49146 2.58453 0
M  V30 14010 C 1337.92 -3.03215 1.70165 0
M  V30 14011 H 1337.25 -3.06451 2.56764 0
M  V30 14012 H 1338.69 -3.8153 1.84962 0
M  V30 14013 C 1337.15 -3.33996 0.44143 0
M  V30 14014 O 1337.68 -3.99246 -0.443356 0
M  V30 14015 N 1335.88 -2.88925 0.311518 0
M  V30 14016 H 1335.43 -2.36003 1.0325 0
M  V30 14017 H 1335.39 -3.09889 -0.530655 0
M  V30 14018 N 1339.16 -1.37287 -0.77395 0
M  V30 14019 C 1340.4 -1.33771 -1.54547 0
M  V30 14020 C 1340.76 0.0778134 -1.91842 0
M  V30 14021 O 1341.96 0.237682 -2.67747 0
M  V30 14022 C 1340.23 -2.24859 -2.77801 0
M  V30 14023 S 1341.79 -2.39172 -3.67889 0
M  V30 14024 H 1338.61 -0.474918 -0.529126 0
M  V30 14025 H 1341.21 -1.73015 -0.910287 0
M  V30 14026 H 1339.92 -3.2663 -2.48478 0
M  V30 14027 H 1339.45 -1.86691 -3.4628 0
M  V30 14028 H 1341.46 -1.60068 -4.69673 0
M  V30 14029 N 1340.64 0.999871 -1.21821 0
M  V30 14030 C 1341.86 1.77405 -1.06467 0
M  V30 14031 C 1342.28 1.84828 0.385227 0
M  V30 14032 O 1341.64 1.31338 1.26714 0
M  V30 14033 C 1341.69 3.21062 -1.66137 0
M  V30 14034 O 1341.41 3.14054 -3.05454 0
M  V30 14035 C 1342.91 4.14958 -1.55963 0
M  V30 14036 H 1340.13 0.557368 -0.373607 0
M  V30 14037 H 1342.67 1.2575 -1.61267 0
M  V30 14038 H 1340.83 3.69808 -1.15416 0
M  V30 14039 H 1341.24 4.04346 -3.34073 0
M  V30 14040 H 1342.72 5.13536 -2.02448 0
M  V30 14041 H 1343.19 4.36171 -0.514949 0
M  V30 14042 H 1343.8 3.72105 -2.05956 0
M  V30 14043 N 1342.11 1.02678 1.19562 0
M  V30 14044 C 1343.02 0.615738 2.26375 0
M  V30 14045 C 1344.04 -0.351525 1.70412 0
M  V30 14046 O 1345.22 -0.209932 2.00303 0
M  V30 14047 C 1342.28 -0.0292135 3.46688 0
M  V30 14048 C 1341.34 0.985284 4.1784 0
M  V30 14049 C 1340.58 0.371016 5.32409 0
M  V30 14050 O 1340.8 -0.826591 5.64379 0
M  V30 14051 O 1339.73 1.09282 5.91896 0
M  V30 14052 H 1343.56 1.50526 2.63772 0
M  V30 14053 H 1341.14 0.796847 1.26375 0
M  V30 14054 H 1343.03 -0.38893 4.19601 0
M  V30 14055 H 1341.7 -0.892778 3.11145 0
M  V30 14056 H 1340.61 1.39655 3.47055 0
M  V30 14057 H 1341.94 1.81915 4.57349 0
M  V30 14058 N 1343.59 -1.35528 0.804364 0
M  V30 14059 C 1344.56 -2.28153 0.21885 0
M  V30 14060 C 1345.56 -1.49486 -0.592511 0
M  V30 14061 O 1346.75 -1.69274 -0.411319 0
M  V30 14062 C 1343.88 -3.33736 -0.695195 0
M  V30 14063 H 1345.07 -2.81446 1.03576 0
M  V30 14064 H 1342.62 -1.45345 0.574854 0
M  V30 14065 H 1343.36 -2.85625 -1.53587 0
M  V30 14066 H 1343.14 -3.91931 -0.115143 0
M  V30 14067 H 1344.63 -4.02872 -1.09925 0
M  V30 14068 N 1345.07 -0.557671 -1.47404 0
M  V30 14069 C 1346.3 -0.0386599 -2.06864 0
M  V30 14070 C 1346.71 1.25527 -1.41027 0
M  V30 14071 O 1346.07 1.75318 -0.506949 0
M  V30 14072 C 1346.12 0.160141 -3.61145 0
M  V30 14073 O 1345.84 -1.08255 -4.24515 0
M  V30 14074 C 1347.34 0.716381 -4.37473 0
M  V30 14075 H 1344.56 -0.0460523 -0.669418 0
M  V30 14076 H 1347.11 -0.771214 -1.894 0
M  V30 14077 H 1345.26 0.842826 -3.78121 0
M  V30 14078 H 1345.68 -0.88057 -5.17055 0
M  V30 14079 H 1347.15 0.804773 -5.46102 0
M  V30 14080 H 1347.63 1.72776 -4.03788 0
M  V30 14081 H 1348.23 0.0693787 -4.25243 0
M  V30 14082 N 1346.55 1.54831 -0.294147 0
M  V30 14083 C 1347.78 2.04115 0.319474 0
M  V30 14084 C 1348.19 1.17125 1.48588 0
M  V30 14085 O 1347.53 0.188034 1.82735 0
M  V30 14086 C 1347.59 3.49429 0.84496 0
M  V30 14087 C 1347.26 4.56583 -0.195275 0
M  V30 14088 C 1348.25 5.09768 -1.02138 0
M  V30 14089 C 1345.94 5.01182 -0.335 0
M  V30 14090 C 1347.93 6.06088 -1.97321 0
M  V30 14091 C 1345.62 5.97323 -1.29029 0
M  V30 14092 C 1346.62 6.49659 -2.10788 0
M  V30 14093 O 1346.31 7.43918 -3.04698 0
M  V30 14094 H 1346.04 0.671895 0.074383 0
M  V30 14095 H 1348.59 2.00856 -0.429669 0
M  V30 14096 H 1346.82 3.4999 1.64451 0
M  V30 14097 H 1348.51 3.81947 1.37372 0
M  V30 14098 H 1349.28 4.76112 -0.924264 0
M  V30 14099 H 1345.16 4.60078 0.291422 0
M  V30 14100 H 1348.7 6.46863 -2.61177 0
M  V30 14101 H 1344.6 6.30397 -1.38815 0
M  V30 14102 H 1345.36 7.61698 -2.99598 0
M  V30 14103 N 1348.03 0.0217466 1.57585 0
M  V30 14104 C 1349.26 -0.667911 1.95506 0
M  V30 14105 C 1349.67 -1.66616 0.89642 0
M  V30 14106 O 1349.01 -1.83232 -0.131059 0
M  V30 14107 C 1349.07 -1.43696 3.29533 0
M  V30 14108 C 1348.73 -0.59787 4.53072 0
M  V30 14109 C 1349.73 0.12372 5.19753 0
M  V30 14110 C 1347.42 -0.53744 4.99417 0
M  V30 14111 C 1349.41 0.894491 6.31092 0
M  V30 14112 C 1347.1 0.237041 6.1064 0
M  V30 14113 C 1348.1 0.95172 6.76337 0
M  V30 14114 O 1347.78 1.71352 7.85426 0
M  V30 14115 H 1347.52 -0.189544 0.648883 0
M  V30 14116 H 1350.07 0.0755682 2.05261 0
M  V30 14117 H 1348.3 -2.22541 3.16247 0
M  V30 14118 H 1349.99 -2.01402 3.52409 0
M  V30 14119 H 1350.75 0.0863208 4.84923 0
M  V30 14120 H 1346.63 -1.08327 4.48092 0
M  V30 14121 H 1350.18 1.45285 6.82304 0
M  V30 14122 H 1346.07 0.276183 6.44909 0
M  V30 14123 H 1346.84 1.63252 8.02054 0
M  V30 14124 N 1349.51 -1.55583 -0.251311 0
M  V30 14125 C 1350.75 -1.7897 -0.987372 0
M  V30 14126 C 1351.11 -0.590559 -1.82692 0
M  V30 14127 O 1352.31 -0.703109 -2.59441 0
M  V30 14128 C 1350.58 -3.07069 -1.82876 0
M  V30 14129 S 1352.14 -3.51659 -2.62452 0
M  V30 14130 H 1348.96 -0.628624 -0.332194 0
M  V30 14131 H 1351.56 -1.93821 -0.255653 0
M  V30 14132 H 1350.26 -3.92415 -1.20161 0
M  V30 14133 H 1349.8 -2.94943 -2.60331 0
M  V30 14134 H 1351.81 -3.12644 -3.85316 0
M  V30 14135 N 1350.98 0.516783 -1.48886 0
M  V30 14136 C 1351.93 1.62003 -1.64389 0
M  V30 14137 C 1352.9 1.58842 -0.485633 0
M  V30 14138 O 1354.09 1.77068 -0.710742 0
M  V30 14139 C 1351.23 3.00218 -1.70186 0
M  V30 14140 C 1350.34 3.13513 -2.97209 0
M  V30 14141 C 1349.47 4.42366 -2.94084 0
M  V30 14142 C 1348.51 4.49238 -4.15754 0
M  V30 14143 N 1347.65 5.69497 -4.10631 0
M  V30 14144 H 1352.49 1.48093 -2.58597 0
M  V30 14145 H 1350.03 0.720788 -1.2823 0
M  V30 14146 H 1351.98 3.80307 -1.71529 0
M  V30 14147 H 1350.61 3.12868 -0.794578 0
M  V30 14148 H 1349.67 2.26589 -3.05551 0
M  V30 14149 H 1350.98 3.14451 -3.87197 0
M  V30 14150 H 1350.13 5.3076 -2.93902 0
M  V30 14151 H 1348.87 4.43969 -2.01847 0
M  V30 14152 H 1347.88 3.59248 -4.16198 0
M  V30 14153 H 1349.1 4.49363 -5.09166 0
M  V30 14154 H 1347.05 5.71973 -3.21222 0
M  V30 14155 H 1346.96 5.71985 -4.94337 0
M  V30 14156 H 1348.23 6.60142 -4.14527 0
M  V30 14157 N 1352.46 1.37696 0.766659 0
M  V30 14158 C 1353.41 1.30383 1.87041 0
M  V30 14159 C 1354.4 0.190643 1.59767 0
M  V30 14160 O 1355.59 0.425485 1.7181 0
M  V30 14161 C 1352.72 1.11817 3.2458 0
M  V30 14162 C 1351.8 2.27701 3.57789 0
M  V30 14163 N 1352.19 3.53108 3.62144 0
M  V30 14164 C 1350.49 2.19967 3.87983 0
M  V30 14165 C 1351.19 4.29555 3.92247 0
M  V30 14166 N 1350.17 3.58754 4.08408 0
M  V30 14167 H 1353.97 2.25348 1.88668 0
M  V30 14168 H 1351.48 1.30741 0.963362 0
M  V30 14169 H 1353.48 1.04663 4.03548 0
M  V30 14170 H 1352.14 0.177731 3.24213 0
M  V30 14171 H 1353.15 3.86949 3.44225 0
M  V30 14172 H 1349.83 1.34009 3.95408 0
M  V30 14173 H 1351.22 5.38112 4.0235 0
M  V30 14174 N 1353.94 -0.993397 1.22349 0
M  V30 14175 C 1354.89 -2.0834 0.993123 0
M  V30 14176 C 1355.86 -1.65883 -0.0849717 0
M  V30 14177 O 1357.04 -1.90691 0.0645176 0
M  V30 14178 C 1354.18 -3.40252 0.576434 0
M  V30 14179 C 1353.29 -3.96055 1.72524 0
M  V30 14180 C 1352.43 -5.16123 1.25659 0
M  V30 14181 C 1351.47 -5.64062 2.37698 0
M  V30 14182 N 1350.61 -6.7537 1.91883 0
M  V30 14183 H 1355.45 -2.27381 1.92619 0
M  V30 14184 H 1352.98 -1.11476 0.959763 0
M  V30 14185 H 1354.94 -4.16001 0.316021 0
M  V30 14186 H 1353.57 -3.21214 -0.319626 0
M  V30 14187 H 1352.62 -3.17182 2.1 0
M  V30 14188 H 1353.93 -4.27614 2.56802 0
M  V30 14189 H 1353.09 -5.9916 0.953528 0
M  V30 14190 H 1351.83 -4.86186 0.384011 0
M  V30 14191 H 1350.83 -4.79614 2.68794 0
M  V30 14192 H 1352.06 -5.96025 3.25471 0
M  V30 14193 H 1350 -6.47217 1.06986 0
M  V30 14194 H 1349.92 -7.06246 2.69727 0
M  V30 14195 H 1351.19 -7.61914 1.64644 0
M  V30 14196 N 1355.42 -1.03311 -1.19015 0
M  V30 14197 C 1356.37 -0.611169 -2.24427 0
M  V30 14198 C 1357.36 0.358303 -1.65567 0
M  V30 14199 O 1358.57 0.22642 -1.7857 0
M  V30 14200 H 1354.94 -0.179393 -0.730289 0
M  V30 14201 H 1356.91 -1.51077 -2.57329 0
M  V30 14202 C 1355.66 0.0178126 -3.47695 0
M  V30 14203 H 1354.98 -0.71921 -3.93278 0
M  V30 14204 H 1356.42 0.275926 -4.23101 0
M  V30 14205 C 1354.88 1.26564 -3.12223 0
M  V30 14206 O 1355.41 2.35725 -3.25264 0
M  V30 14207 N 1353.62 1.15602 -2.66617 0
M  V30 14208 H 1353.17 0.267736 -2.56205 0
M  V30 14209 H 1353.12 1.99186 -2.43254 0
M  V30 14210 N 1356.9 1.35099 -0.81154 0
M  V30 14211 C 1358.31 1.51701 -0.495883 0
M  V30 14212 C 1358.51 1.7595 0.982035 0
M  V30 14213 O 1357.57 1.8038 1.7669 0
M  V30 14214 C 1358.88 2.68916 -1.34554 0
M  V30 14215 C 1360.43 2.82795 -1.34149 0
M  V30 14216 C 1360.9 4.0304 -2.17538 0
M  V30 14217 N 1362.39 4.10227 -2.151 0
M  V30 14218 C 1363.13 5.02397 -2.76377 0
M  V30 14219 N 1362.63 5.99866 -3.46601 0
M  V30 14220 N 1364.42 4.95181 -2.65992 0
M  V30 14221 H 1356.57 1.17617 -1.76862 0
M  V30 14222 H 1358.83 0.575875 -0.753042 0
M  V30 14223 H 1358.54 2.57591 -2.39458 0
M  V30 14224 H 1358.41 3.63641 -1.00223 0
M  V30 14225 H 1360.8 2.93568 -0.300285 0
M  V30 14226 H 1360.88 1.88912 -1.7247 0
M  V30 14227 H 1360.52 3.93027 -3.21702 0
M  V30 14228 H 1360.45 4.96114 -1.76574 0
M  V30 14229 H 1362.95 3.40454 -1.6401 0
M  V30 14230 H 1363.26 6.66803 -3.90632 0
M  V30 14231 H 1361.6 6.00025 -3.50706 0
M  V30 14232 H 1364.79 4.17991 -2.10715 0
M  V30 14233 H 1364.97 5.6682 -3.14036 0
M  V30 14234 N 1358.37 0.56548 1.47106 0
M  V30 14235 C 1359.6 0.0495579 2.06541 0
M  V30 14236 C 1360.01 -1.25325 1.4174 0
M  V30 14237 O 1359.35 -1.76455 0.510818 0
M  V30 14238 C 1359.42 -0.20843 3.58895 0
M  V30 14239 C 1359.08 1.00618 4.45786 0
M  V30 14240 C 1360.08 1.91387 4.83391 0
M  V30 14241 C 1357.76 1.22318 4.87179 0
M  V30 14242 C 1359.76 3.02218 5.61198 0
M  V30 14243 C 1357.44 2.33457 5.64749 0
M  V30 14244 C 1358.44 3.23238 6.0167 0
M  V30 14245 O 1358.13 4.32449 6.77675 0
M  V30 14246 H 1357.86 0.0466 0.674392 0
M  V30 14247 H 1360.42 0.780887 1.89977 0
M  V30 14248 H 1358.65 -0.994169 3.73702 0
M  V30 14249 H 1360.33 -0.670745 4.0032 0
M  V30 14250 H 1361.1 1.75831 4.52005 0
M  V30 14251 H 1356.98 0.533514 4.57902 0
M  V30 14252 H 1360.52 3.72321 5.89935 0
M  V30 14253 H 1356.42 2.48983 5.95548 0
M  V30 14254 H 1357.19 4.306 6.96079 0
M  V30 14255 N 1359.85 -1.54672 0.302354 0
M  V30 14256 C 1361.08 -2.04282 -0.308645 0
M  V30 14257 C 1361.49 -1.17912 -1.47965 0
M  V30 14258 O 1360.83 -0.197723 -1.82633 0
M  V30 14259 C 1360.9 -3.49872 -0.826417 0
M  V30 14260 C 1360.56 -4.56473 0.219486 0
M  V30 14261 C 1361.56 -5.0922 1.0484 0
M  V30 14262 C 1359.24 -5.00997 0.361574 0
M  V30 14263 C 1361.24 -6.05033 2.00533 0
M  V30 14264 C 1358.92 -5.9663 1.32195 0
M  V30 14265 C 1359.92 -6.48532 2.1423 0
M  V30 14266 O 1359.61 -7.42292 3.08639 0
M  V30 14267 H 1359.34 -0.67228 -0.0708187 0
M  V30 14268 H 1361.89 -2.00625 0.440314 0
M  V30 14269 H 1360.12 -3.50857 -1.62593 0
M  V30 14270 H 1361.81 -3.8267 -1.35345 0
M  V30 14271 H 1362.58 -4.75615 0.949501 0
M  V30 14272 H 1358.46 -4.60226 -0.267018 0
M  V30 14273 H 1362 -6.45469 2.64604 0
M  V30 14274 H 1357.9 -6.29652 1.42156 0
M  V30 14275 H 1358.67 -7.60098 3.03633 0
M  V30 14276 N 1361.33 -0.0301034 -1.57571 0
M  V30 14277 C 1362.74 0.508591 -1.79639 0
M  V30 14278 C 1363.09 1.72191 -0.940458 0
M  V30 14279 O 1362.22 2.15872 -0.151138 0
M  V30 14280 C 1362.81 0.929446 -3.25802 0
M  V30 14281 C 1361.37 1.41325 -3.48861 0
M  V30 14282 C 1360.52 0.378433 -2.74706 0
M  V30 14283 H 1363.47 -0.256131 -1.56619 0
M  V30 14284 H 1363.49 1.79374 -3.35567 0
M  V30 14285 H 1363 0.0461738 -3.88073 0
M  V30 14286 H 1361.1 2.31641 -2.91844 0
M  V30 14287 H 1361.22 1.41995 -4.57574 0
M  V30 14288 H 1359.58 0.846744 -2.40213 0
M  V30 14289 H 1360.36 -0.49639 -3.39692 0
M  V30 14290 N 1362.81 1.55714 0.243056 0
M  V30 14291 C 1364.06 1.76927 0.96849 0
M  V30 14292 C 1364.37 0.594748 1.86339 0
M  V30 14293 O 1365.58 0.689981 2.62586 0
M  V30 14294 C 1364.03 3.13246 1.77214 0
M  V30 14295 C 1363.64 4.38358 0.92444 0
M  V30 14296 C 1365.38 3.43796 2.49007 0
M  V30 14297 C 1363.29 5.65708 1.7242 0
M  V30 14298 H 1362.22 0.659574 0.365346 0
M  V30 14299 H 1364.87 1.8214 0.223026 0
M  V30 14300 H 1363.25 3.02151 2.5597 0
M  V30 14301 H 1364.43 4.60452 0.178936 0
M  V30 14302 H 1362.74 4.15171 0.319653 0
M  V30 14303 H 1365.34 4.3616 3.09303 0
M  V30 14304 H 1365.68 2.65297 3.20817 0
M  V30 14305 H 1366.22 3.56124 1.77259 0
M  V30 14306 H 1362.96 6.47039 1.04978 0
M  V30 14307 H 1362.48 5.4771 2.44488 0
M  V30 14308 H 1364.15 6.05105 2.29036 0
M  V30 14309 N 1364.29 -0.50888 1.49158 0
M  V30 14310 C 1365.23 -1.63216 1.6572 0
M  V30 14311 C 1366.23 -1.61117 0.523236 0
M  V30 14312 O 1367.43 -1.6572 0.702629 0
M  V30 14313 H 1363.81 -0.540909 0.522419 0
M  V30 14314 H 1365.78 -1.46397 2.6002 0
M  V30 14315 C 1364.53 -3.01393 1.73372 0
M  V30 14316 H 1363.85 -3.03711 2.6 0
M  V30 14317 H 1365.29 -3.79547 1.88998 0
M  V30 14318 C 1363.75 -3.33509 0.47683 0
M  V30 14319 O 1364.28 -3.99694 -0.400986 0
M  V30 14320 N 1362.49 -2.88579 0.342145 0
M  V30 14321 H 1362.03 -2.34894 1.05747 0
M  V30 14322 H 1361.99 -3.10435 -0.497757 0
M  V30 14323 N 1365.76 -1.381 -0.759346 0
M  V30 14324 C 1367.01 -1.3419 -1.52055 0
M  V30 14325 C 1367.34 0.0697657 -1.94075 0
M  V30 14326 O 1366.62 1.02975 -1.65004 0
M  V30 14327 C 1366.9 -2.29236 -2.7771 0
M  V30 14328 C 1366.75 -3.79237 -2.41866 0
M  V30 14329 C 1368.07 -2.22511 -3.79706 0
M  V30 14330 H 1365.19 -0.488768 -0.551611 0
M  V30 14331 H 1367.83 -1.68902 -0.870174 0
M  V30 14332 H 1365.98 -1.99764 -3.33206 0
M  V30 14333 H 1367.66 -4.19358 -1.92189 0
M  V30 14334 H 1365.9 -3.97199 -1.74399 0
M  V30 14335 H 1366.57 -4.41193 -3.31742 0
M  V30 14336 H 1369.05 -2.48516 -3.33735 0
M  V30 14337 H 1367.92 -2.91134 -4.6533 0
M  V30 14338 H 1368.18 -1.22206 -4.24874 0
M  V30 14339 N 1367.24 0.986894 -1.22875 0
M  V30 14340 C 1368.47 1.76266 -1.08342 0
M  V30 14341 C 1368.89 1.85226 0.365602 0
M  V30 14342 O 1368.24 1.32675 1.25314 0
M  V30 14343 C 1368.29 3.19282 -1.69533 0
M  V30 14344 O 1368.01 3.10796 -3.08768 0
M  V30 14345 C 1369.52 4.13281 -1.60355 0
M  V30 14346 H 1366.74 0.553374 -0.379497 0
M  V30 14347 H 1369.28 1.24033 -1.62592 0
M  V30 14348 H 1367.43 3.68563 -1.19332 0
M  V30 14349 H 1367.85 4.0078 -3.38343 0
M  V30 14350 H 1369.32 5.11359 -2.07884 0
M  V30 14351 H 1369.8 4.356 -0.561182 0
M  V30 14352 H 1370.41 3.699 -2.09891 0
M  V30 14353 N 1368.72 1.0394 1.18466 0
M  V30 14354 C 1370.13 0.77011 1.70077 0
M  V30 14355 C 1370.48 -0.70916 1.82935 0
M  V30 14356 O 1369.61 -1.55209 1.50795 0
M  V30 14357 C 1370.2 1.39132 3.08914 0
M  V30 14358 C 1368.76 1.17037 3.57742 0
M  V30 14359 C 1367.91 1.48279 2.34326 0
M  V30 14360 H 1370.86 1.20598 1.03159 0
M  V30 14361 H 1370.88 0.793861 3.72126 0
M  V30 14362 H 1370.39 2.46795 2.99523 0
M  V30 14363 H 1368.49 0.112435 3.7243 0
M  V30 14364 H 1368.61 1.8665 4.41247 0
M  V30 14365 H 1366.97 0.902438 2.38177 0
M  V30 14366 H 1367.75 2.57047 2.27556 0
M  V30 14367 N 1370.2 -1.34667 0.818693 0
M  V30 14368 C 1371.15 -2.27031 0.210001 0
M  V30 14369 C 1372.13 -1.48338 -0.623258 0
M  V30 14370 O 1373.32 -1.70409 -0.478531 0
M  V30 14371 C 1370.45 -3.37457 -0.63069 0
M  V30 14372 C 1369.54 -4.23565 0.212964 0
M  V30 14373 N 1369.93 -4.89286 1.28191 0
M  V30 14374 C 1368.23 -4.46 -0.00340477 0
M  V30 14375 C 1368.93 -5.53216 1.79798 0
M  V30 14376 N 1367.91 -5.32302 1.10253 0
M  V30 14377 H 1371.71 -2.75345 1.02773 0
M  V30 14378 H 1369.22 -1.48336 0.661071 0
M  V30 14379 H 1371.22 -4.0259 -1.0829 0
M  V30 14380 H 1369.88 -2.90694 -1.44663 0
M  V30 14381 H 1370.89 -4.90417 1.66467 0
M  V30 14382 H 1367.57 -4.10005 -0.787516 0
M  V30 14383 H 1368.96 -6.15613 2.69203 0
M  V30 14384 N 1371.68 -0.573274 -1.46804 0
M  V30 14385 C 1372.95 0.011163 -1.95597 0
M  V30 14386 C 1373.33 1.4691 -1.51594 0
M  V30 14387 O 1372.68 2.15413 -0.76221 0
M  V30 14388 C 1372.89 -0.151045 -3.48673 0
M  V30 14389 C 1374.24 -0.0139817 -4.24598 0
M  V30 14390 O 1375.26 -0.0794008 -3.56111 0
M  V30 14391 O 1374.12 0.129547 -5.46346 0
M  V30 14392 H 1371.22 0.0551258 -0.825161 0
M  V30 14393 H 1373.76 -0.640928 -1.57131 0
M  V30 14394 H 1372.53 -1.16494 -3.73557 0
M  V30 14395 H 1372.16 0.537917 -3.93944 0
M  V30 14396 N 1373.15 1.5451 -0.310553 0
M  V30 14397 C 1374.4 2.01334 0.289169 0
M  V30 14398 C 1374.76 1.195 1.5079 0
M  V30 14399 O 1374.05 0.265743 1.89748 0
M  V30 14400 C 1374.24 3.5072 0.68779 0
M  V30 14401 C 1374.07 4.47014 -0.490764 0
M  V30 14402 C 1372.84 4.95591 -0.98579 0
M  V30 14403 C 1375.04 4.96569 -1.3388 0
M  V30 14404 N 1373.02 5.7576 -2.13011 0
M  V30 14405 C 1374.39 5.74534 -2.33047 0
M  V30 14406 C 1376.45 4.78736 -1.36807 0
M  V30 14407 C 1375.15 6.36565 -3.3493 0
M  V30 14408 C 1377.18 5.41593 -2.37553 0
M  V30 14409 C 1376.54 6.19398 -3.35448 0
M  V30 14410 H 1372.64 0.77886 0.070013 0
M  V30 14411 H 1375.22 1.89602 -0.442639 0
M  V30 14412 H 1373.39 3.62723 1.38875 0
M  V30 14413 H 1375.12 3.84327 1.26787 0
M  V30 14414 H 1371.88 4.70287 -0.559195 0
M  V30 14415 H 1372.3 6.20526 -2.70696 0
M  V30 14416 H 1376.95 4.18156 -0.624923 0
M  V30 14417 H 1374.66 6.96273 -4.10158 0
M  V30 14418 H 1378.25 5.29718 -2.40603 0
M  V30 14419 H 1377.13 6.67173 -4.12128 0
M  V30 14420 N 1374.63 0.0384594 1.57553 0
M  V30 14421 C 1375.86 -0.647137 1.96203 0
M  V30 14422 C 1376.27 -1.65656 0.914042 0
M  V30 14423 O 1375.61 -1.83361 -0.111617 0
M  V30 14424 C 1375.68 -1.40193 3.31038 0
M  V30 14425 C 1375.34 -0.549782 4.53681 0
M  V30 14426 C 1376.34 0.178839 5.19592 0
M  V30 14427 C 1374.02 -0.48444 4.99958 0
M  V30 14428 C 1376.02 0.961376 6.30108 0
M  V30 14429 C 1373.7 0.301795 6.10354 0
M  V30 14430 C 1374.7 1.0234 6.75289 0
M  V30 14431 O 1374.39 1.79673 7.83564 0
M  V30 14432 H 1374.12 -0.182651 0.650857 0
M  V30 14433 H 1376.68 0.0973346 2.05169 0
M  V30 14434 H 1374.91 -2.19175 3.1859 0
M  V30 14435 H 1376.59 -1.97653 3.54525 0
M  V30 14436 H 1377.36 0.137749 4.84804 0
M  V30 14437 H 1373.24 -1.03568 4.49216 0
M  V30 14438 H 1376.78 1.52513 6.80724 0
M  V30 14439 H 1372.68 0.344569 6.4458 0
M  V30 14440 H 1373.45 1.71749 8.00278 0
M  V30 14441 N 1376.11 -1.55841 -0.234795 0
M  V30 14442 C 1377.02 -1.94476 -1.31211 0
M  V30 14443 C 1378.04 -0.846782 -1.52005 0
M  V30 14444 O 1379.21 -1.14922 -1.65393 0
M  V30 14445 C 1376.28 -2.24213 -2.64442 0
M  V30 14446 C 1375.34 -3.47508 -2.52065 0
M  V30 14447 C 1374.57 -3.75817 -3.78942 0
M  V30 14448 O 1374.8 -3.06007 -4.81369 0
M  V30 14449 O 1373.73 -4.69328 -3.76848 0
M  V30 14450 H 1377.56 -2.8626 -1.01434 0
M  V30 14451 H 1375.14 -1.42879 -0.436563 0
M  V30 14452 H 1377.02 -2.44594 -3.4315 0
M  V30 14453 H 1375.7 -1.35605 -2.93927 0
M  V30 14454 H 1374.6 -3.32421 -1.71602 0
M  V30 14455 H 1375.94 -4.36457 -2.27523 0
M  V30 14456 N 1377.59 0.500963 -1.49426 0
M  V30 14457 C 1378.84 1.25171 -1.58162 0
M  V30 14458 C 1379.15 1.93678 -0.273556 0
M  V30 14459 O 1380.36 2.70442 -0.239462 0
M  V30 14460 C 1378.81 2.27276 -2.79059 0
M  V30 14461 C 1378.42 1.64708 -4.16624 0
M  V30 14462 C 1380.17 3.03178 -2.97125 0
M  V30 14463 C 1378.07 2.64923 -5.28743 0
M  V30 14464 H 1377 0.470867 -0.588897 0
M  V30 14465 H 1379.65 0.525569 -1.75812 0
M  V30 14466 H 1378.04 3.03052 -2.54903 0
M  V30 14467 H 1379.21 0.949231 -4.50917 0
M  V30 14468 H 1377.52 1.01195 -4.03916 0
M  V30 14469 H 1380.12 3.78122 -3.78058 0
M  V30 14470 H 1380.46 3.60793 -2.07687 0
M  V30 14471 H 1381 2.34517 -3.2132 0
M  V30 14472 H 1377.74 2.12089 -6.20241 0
M  V30 14473 H 1377.26 3.32948 -4.98904 0
M  V30 14474 H 1378.94 3.27349 -5.58079 0
M  V30 14475 N 1379.07 1.38501 0.752011 0
M  V30 14476 C 1380 1.31746 1.87551 0
M  V30 14477 C 1381.01 0.229386 1.61176 0
M  V30 14478 O 1382.2 0.487066 1.71726 0
M  V30 14479 C 1379.3 1.01889 3.23221 0
M  V30 14480 C 1378.47 2.21637 3.77088 0
M  V30 14481 C 1377.53 1.885 4.91278 0
M  V30 14482 O 1376.56 2.61011 5.05828 0
M  V30 14483 N 1377.76 0.840909 5.74377 0
M  V30 14484 H 1380.53 2.28561 1.93856 0
M  V30 14485 H 1378.09 1.32383 0.932013 0
M  V30 14486 H 1380.08 0.777704 3.97157 0
M  V30 14487 H 1378.65 0.138658 3.12292 0
M  V30 14488 H 1377.87 2.61812 2.947 0
M  V30 14489 H 1379.16 3.01551 4.0981 0
M  V30 14490 H 1378.56 0.23962 5.65192 0
M  V30 14491 H 1377.11 0.659604 6.48454 0
M  V30 14492 N 1380.55 -0.980364 1.23396 0
M  V30 14493 C 1381.46 -2.10688 1.03188 0
M  V30 14494 C 1382.47 -1.73984 -0.0236159 0
M  V30 14495 O 1383.65 -2.00666 0.171841 0
M  V30 14496 C 1380.71 -3.4101 0.625563 0
M  V30 14497 C 1379.77 -3.91739 1.75611 0
M  V30 14498 C 1379.01 -5.15841 1.36908 0
M  V30 14499 O 1379.23 -5.69837 0.253329 0
M  V30 14500 O 1378.16 -5.60638 2.19018 0
M  V30 14501 H 1381.99 -2.30626 1.97599 0
M  V30 14502 H 1379.57 -1.09067 1.02102 0
M  V30 14503 H 1381.46 -4.19402 0.409909 0
M  V30 14504 H 1380.13 -3.22402 -0.28956 0
M  V30 14505 H 1379.04 -3.14464 2.0264 0
M  V30 14506 H 1380.37 -4.14801 2.64955 0
M  V30 14507 N 1382.02 -1.04567 -1.17913 0
M  V30 14508 C 1383.25 -0.772146 -1.92491 0
M  V30 14509 C 1383.67 0.665297 -1.75942 0
M  V30 14510 O 1383.03 1.46144 -1.07292 0
M  V30 14511 C 1383.08 -1.14966 -3.41782 0
M  V30 14512 O 1382.18 -0.278091 -4.11461 0
M  V30 14513 H 1381.52 -0.283715 -0.600335 0
M  V30 14514 H 1384.05 -1.39685 -1.49496 0
M  V30 14515 H 1384.06 -1.11374 -3.92505 0
M  V30 14516 H 1382.74 -2.1968 -3.53148 0
M  V30 14517 H 1381.32 -0.374073 -3.71019 0
M  V30 14518 N 1383.5 1.34231 -0.825823 0
M  V30 14519 C 1384.41 2.33245 -0.251803 0
M  V30 14520 C 1385.43 1.62756 0.615334 0
M  V30 14521 O 1386.6 1.94503 0.522547 0
M  V30 14522 C 1383.67 3.41908 0.574456 0
M  V30 14523 C 1382.73 4.2814 -0.315422 0
M  V30 14524 C 1381.96 5.31613 0.471496 0
M  V30 14525 O 1382.19 5.44337 1.70449 0
M  V30 14526 O 1381.12 6.01719 -0.147691 0
M  V30 14527 H 1384.95 2.84174 -1.07139 0
M  V30 14528 H 1382.53 1.37341 -0.588032 0
M  V30 14529 H 1384.41 4.08252 1.04444 0
M  V30 14530 H 1383.09 2.93217 1.37132 0
M  V30 14531 H 1381.99 3.64709 -0.832963 0
M  V30 14532 H 1383.33 4.80279 -1.07672 0
M  V30 14533 N 1384.98 0.581051 1.46498 0
M  V30 14534 C 1386.21 0.0714615 2.06476 0
M  V30 14535 C 1386.62 -1.23815 1.43061 0
M  V30 14536 O 1385.96 -1.75903 0.529504 0
M  V30 14537 C 1386.02 -0.170353 3.59096 0
M  V30 14538 C 1385.69 1.05341 4.44694 0
M  V30 14539 C 1386.68 1.96503 4.81334 0
M  V30 14540 C 1384.37 1.27479 4.85854 0
M  V30 14541 C 1386.36 3.08154 5.57961 0
M  V30 14542 C 1384.05 2.39434 5.62241 0
M  V30 14543 C 1385.05 3.29601 5.98207 0
M  V30 14544 O 1384.74 4.39612 6.7305 0
M  V30 14545 H 1384.47 0.0537502 0.67386 0
M  V30 14546 H 1387.02 0.800993 1.89138 0
M  V30 14547 H 1385.25 -0.954477 3.74735 0
M  V30 14548 H 1386.94 -0.628248 4.01009 0
M  V30 14549 H 1387.71 1.80615 4.50115 0
M  V30 14550 H 1383.59 0.582051 4.57311 0
M  V30 14551 H 1387.13 3.78557 5.85953 0
M  V30 14552 H 1383.03 2.55286 5.92874 0
M  V30 14553 H 1383.79 4.37959 6.91473 0
M  V30 14554 N 1386.46 -1.54343 0.318742 0
M  V30 14555 C 1387.69 -2.04597 -0.286961 0
M  V30 14556 C 1388.1 -1.19474 -1.46706 0
M  V30 14557 O 1387.44 -0.217082 -1.82413 0
M  V30 14558 C 1387.5 -3.50729 -0.789262 0
M  V30 14559 C 1387.16 -4.56214 0.267888 0
M  V30 14560 C 1388.16 -5.08079 1.10235 0
M  V30 14561 C 1385.85 -5.00585 0.414691 0
M  V30 14562 C 1387.84 -6.02872 2.06938 0
M  V30 14563 C 1385.53 -5.95195 1.38515 0
M  V30 14564 C 1386.53 -6.46224 2.21097 0
M  V30 14565 O 1386.21 -7.38976 3.16495 0
M  V30 14566 H 1385.95 -0.672994 -0.0636843 0
M  V30 14567 H 1388.5 -2.00147 0.461569 0
M  V30 14568 H 1386.73 -3.52562 -1.58862 0
M  V30 14569 H 1388.42 -3.84084 -1.31278 0
M  V30 14570 H 1389.18 -4.74581 0.999893 0
M  V30 14571 H 1385.06 -4.60483 -0.21819 0
M  V30 14572 H 1388.61 -6.42627 2.71435 0
M  V30 14573 H 1384.5 -6.28109 1.48826 0
M  V30 14574 H 1385.27 -7.56835 3.11678 0
M  V30 14575 N 1387.94 -0.0468143 -1.5753 0
M  V30 14576 C 1389.35 0.489509 -1.80169 0
M  V30 14577 C 1389.7 1.71184 -0.958669 0
M  V30 14578 O 1388.82 2.15699 -0.174025 0
M  V30 14579 C 1389.42 0.894838 -3.26769 0
M  V30 14580 C 1387.98 1.37617 -3.50341 0
M  V30 14581 C 1387.12 0.349275 -2.75092 0
M  V30 14582 H 1390.07 -0.272728 -1.56339 0
M  V30 14583 H 1390.1 1.75805 -3.3745 0
M  V30 14584 H 1389.61 0.00501096 -3.881 0
M  V30 14585 H 1387.71 2.28533 -2.94285 0
M  V30 14586 H 1387.82 1.37133 -4.59055 0
M  V30 14587 H 1386.19 0.821219 -2.41098 0
M  V30 14588 H 1386.97 -0.532391 -3.39147 0
M  V30 14589 N 1389.41 1.55964 0.226527 0
M  V30 14590 C 1390.36 1.92007 1.28069 0
M  V30 14591 C 1391.33 0.776666 1.46823 0
M  V30 14592 O 1392.52 1.03213 1.60474 0
M  V30 14593 C 1389.66 2.23784 2.62707 0
M  V30 14594 C 1388.77 3.51034 2.51792 0
M  V30 14595 C 1387.9 3.72281 3.7892 0
M  V30 14596 C 1386.94 4.93062 3.62707 0
M  V30 14597 N 1386.08 5.10725 4.81772 0
M  V30 14598 H 1390.92 2.81898 0.96631 0
M  V30 14599 H 1388.46 1.39529 0.465847 0
M  V30 14600 H 1390.42 2.40217 3.41104 0
M  V30 14601 H 1389.05 1.37073 2.92251 0
M  V30 14602 H 1388.1 3.42822 1.64856 0
M  V30 14603 H 1389.41 4.39582 2.35731 0
M  V30 14604 H 1388.56 3.88783 4.6576 0
M  V30 14605 H 1387.3 2.82004 3.97901 0
M  V30 14606 H 1386.31 4.76515 2.7425 0
M  V30 14607 H 1387.53 5.84819 3.45201 0
M  V30 14608 H 1385.48 4.2339 5.01076 0
M  V30 14609 H 1385.4 5.93397 4.68419 0
M  V30 14610 H 1386.66 5.31658 5.70053 0
M  V30 14611 N 1390.89 -0.493031 1.4969 0
M  V30 14612 C 1391.84 -1.59075 1.63337 0
M  V30 14613 C 1392.83 -1.53298 0.488721 0
M  V30 14614 O 1394.02 -1.60693 0.742071 0
M  V30 14615 C 1391.15 -2.97646 1.71061 0
M  V30 14616 C 1390.23 -3.08389 2.9113 0
M  V30 14617 N 1390.62 -2.89001 4.15105 0
M  V30 14618 C 1388.92 -3.395 2.89233 0
M  V30 14619 C 1389.62 -3.04136 4.95859 0
M  V30 14620 N 1388.6 -3.33367 4.2938 0
M  V30 14621 H 1392.4 -1.42751 2.56903 0
M  V30 14622 H 1389.92 -0.699325 1.46571 0
M  V30 14623 H 1391.91 -3.76546 1.78938 0
M  V30 14624 H 1390.57 -3.15034 0.786376 0
M  V30 14625 H 1391.58 -2.65017 4.44957 0
M  V30 14626 H 1388.26 -3.63014 2.06221 0
M  V30 14627 H 1389.65 -2.93571 6.04372 0
M  V30 14628 N 1392.37 -1.38898 -0.744656 0
M  V30 14629 C 1393.62 -1.34909 -1.49941 0
M  V30 14630 C 1393.93 0.0553979 -1.95522 0
M  V30 14631 O 1395.14 0.21785 -2.70625 0
M  V30 14632 C 1393.59 -2.36954 -2.70889 0
M  V30 14633 C 1393.2 -3.83069 -2.32298 0
M  V30 14634 C 1394.95 -2.42024 -3.48747 0
M  V30 14635 C 1392.85 -4.76777 -3.4991 0
M  V30 14636 H 1391.78 -0.501512 -0.563029 0
M  V30 14637 H 1394.43 -1.64497 -0.813201 0
M  V30 14638 H 1392.82 -2.00421 -3.41537 0
M  V30 14639 H 1393.99 -4.28588 -1.69259 0
M  V30 14640 H 1392.31 -3.81202 -1.67554 0
M  V30 14641 H 1394.9 -3.0923 -4.36212 0
M  V30 14642 H 1395.25 -1.44184 -3.90534 0
M  V30 14643 H 1395.78 -2.774 -2.85121 0
M  V30 14644 H 1392.52 -5.75844 -3.13183 0
M  V30 14645 H 1392.04 -4.35944 -4.11962 0
M  V30 14646 H 1393.72 -4.95219 -4.16374 0
M  V30 14647 N 1393.85 0.973806 -1.23914 0
M  V30 14648 C 1394.78 2.07003 -0.983982 0
M  V30 14649 C 1395.79 1.62739 0.0443893 0
M  V30 14650 O 1396.98 1.77465 -0.191927 0
M  V30 14651 C 1394.08 3.35737 -0.461937 0
M  V30 14652 C 1393.26 4.08939 -1.55202 0
M  V30 14653 C 1392.31 5.15947 -1.03369 0
M  V30 14654 O 1391.34 5.42461 -1.72409 0
M  V30 14655 N 1392.54 5.80343 0.135067 0
M  V30 14656 H 1395.31 2.29468 -1.92781 0
M  V30 14657 H 1392.87 1.14098 -1.14861 0
M  V30 14658 H 1394.86 4.04576 -0.100074 0
M  V30 14659 H 1393.43 3.10189 0.387467 0
M  V30 14660 H 1392.65 3.34462 -2.08635 0
M  V30 14661 H 1393.94 4.5461 -2.2849 0
M  V30 14662 H 1393.34 5.61196 0.71241 0
M  V30 14663 H 1391.89 6.50326 0.438132 0
M  V30 14664 N 1395.33 1.05191 1.17357 0
M  V30 14665 C 1396.56 0.781238 1.9126 0
M  V30 14666 C 1396.96 -0.66688 1.77057 0
M  V30 14667 O 1396.31 -1.4673 1.10526 0
M  V30 14668 C 1396.37 1.08225 3.42823 0
M  V30 14669 C 1396.03 2.52655 3.80808 0
M  V30 14670 C 1397.03 3.50864 3.83654 0
M  V30 14671 C 1394.72 2.87664 4.11771 0
M  V30 14672 C 1396.71 4.82127 4.16932 0
M  V30 14673 C 1394.4 4.1913 4.44717 0
M  V30 14674 C 1395.39 5.16172 4.47276 0
M  V30 14675 O 1395.08 6.4528 4.79447 0
M  V30 14676 H 1394.81 0.283516 0.613673 0
M  V30 14677 H 1397.37 1.40577 1.49758 0
M  V30 14678 H 1395.6 0.400623 3.84619 0
M  V30 14679 H 1397.29 0.797593 3.97987 0
M  V30 14680 H 1398.05 3.25158 3.59857 0
M  V30 14681 H 1393.93 2.12793 4.0895 0
M  V30 14682 H 1397.48 5.57867 4.18844 0
M  V30 14683 H 1393.37 4.44599 4.67976 0
M  V30 14684 H 1394.14 6.50101 4.97304 0
M  V30 14685 N 1396.8 -1.33791 0.83293 0
M  V30 14686 C 1397.75 -2.31249 0.250357 0
M  V30 14687 C 1398.75 -1.57865 -0.614403 0
M  V30 14688 O 1399.95 -1.72782 -0.504627 0
M  V30 14689 H 1396.33 -0.749421 0.0622268 0
M  V30 14690 H 1398.3 -2.77899 1.08697 0
M  V30 14691 C 1397.05 -3.43082 -0.564783 0
M  V30 14692 H 1396.37 -3.99696 0.0913189 0
M  V30 14693 H 1397.81 -4.13486 -0.938351 0
M  V30 14694 C 1396.27 -2.88414 -1.74124 0
M  V30 14695 O 1396.8 -2.84113 -2.83976 0
M  V30 14696 N 1395.01 -2.45101 -1.56121 0
M  V30 14697 H 1394.55 -2.48799 -0.667607 0
M  V30 14698 H 1394.51 -2.08875 -2.34986 0
M  V30 14699 N 1398.28 -0.588812 -1.46187 0
M  V30 14700 C 1399.21 0.128595 -2.33146 0
M  V30 14701 C 1400.19 0.877608 -1.45712 0
M  V30 14702 O 1401.38 0.851866 -1.74519 0
M  V30 14703 C 1398.51 1.13886 -3.28096 0
M  V30 14704 C 1397.46 0.504296 -4.25019 0
M  V30 14705 C 1396.79 1.62147 -5.09522 0
M  V30 14706 C 1398.09 -0.562466 -5.19263 0
M  V30 14707 H 1399.78 -0.597455 -2.93378 0
M  V30 14708 H 1397.33 -0.288764 -1.41075 0
M  V30 14709 H 1399.28 1.64916 -3.8779 0
M  V30 14710 H 1398.01 1.89527 -2.65983 0
M  V30 14711 H 1396.66 0.0150325 -3.66597 0
M  V30 14712 H 1396.31 2.36769 -4.4379 0
M  V30 14713 H 1396.01 1.20249 -5.75164 0
M  V30 14714 H 1397.54 2.13441 -5.7208 0
M  V30 14715 H 1398.95 -0.137003 -5.73136 0
M  V30 14716 H 1397.35 -0.902115 -5.93281 0
M  V30 14717 H 1398.42 -1.4464 -4.62825 0
M  V30 14718 N 1399.76 1.54172 -0.326923 0
M  V30 14719 C 1400.69 2.27402 0.530154 0
M  V30 14720 C 1401.67 1.28325 1.11655 0
M  V30 14721 O 1402.86 1.57142 1.14105 0
M  V30 14722 C 1399.99 3.03435 1.68951 0
M  V30 14723 C 1398.94 4.09877 1.23226 0
M  V30 14724 C 1398.27 4.7377 2.47882 0
M  V30 14725 C 1399.57 5.21161 0.344698 0
M  V30 14726 H 1401.26 2.99291 -0.0806959 0
M  V30 14727 H 1398.81 1.43944 -0.0402511 0
M  V30 14728 H 1400.76 3.53396 2.29541 0
M  V30 14729 H 1399.48 2.29169 2.327 0
M  V30 14730 H 1398.14 3.60805 0.649267 0
M  V30 14731 H 1397.79 3.96116 3.10002 0
M  V30 14732 H 1397.49 5.45674 2.17977 0
M  V30 14733 H 1399.01 5.26507 3.09229 0
M  V30 14734 H 1400.43 5.66859 0.856979 0
M  V30 14735 H 1398.83 5.99941 0.138276 0
M  V30 14736 H 1399.9 4.80874 -0.623575 0
M  V30 14737 N 1401.24 0.0551678 1.57503 0
M  V30 14738 C 1402.49 -0.617201 1.92025 0
M  V30 14739 C 1402.8 -1.71767 0.93571 0
M  V30 14740 O 1404.01 -2.44847 1.17312 0
M  V30 14741 C 1402.46 -1.14915 3.41061 0
M  V30 14742 C 1402.07 -0.0805814 4.47928 0
M  V30 14743 C 1403.81 -1.79654 3.8461 0
M  V30 14744 C 1401.72 -0.625639 5.88081 0
M  V30 14745 H 1400.65 -0.23431 0.716669 0
M  V30 14746 H 1403.3 0.124706 1.83076 0
M  V30 14747 H 1401.68 -1.9435 3.45028 0
M  V30 14748 H 1402.86 0.693222 4.55556 0
M  V30 14749 H 1401.17 0.469581 4.13744 0
M  V30 14750 H 1403.77 -2.21436 4.86693 0
M  V30 14751 H 1404.11 -2.64987 3.21073 0
M  V30 14752 H 1404.65 -1.06868 3.83176 0
M  V30 14753 H 1401.39 0.190148 6.55224 0
M  V30 14754 H 1400.91 -1.36734 5.84007 0
M  V30 14755 H 1402.58 -1.10728 6.37454 0
M  V30 14756 N 1402.72 -1.56081 -0.218252 0
M  V30 14757 C 1403.96 -1.78893 -0.940296 0
M  V30 14758 C 1404.29 -0.62425 -1.84738 0
M  V30 14759 O 1403.56 0.358686 -1.92588 0
M  V30 14760 H 1402.14 -0.659828 -0.350193 0
M  V30 14761 H 1404.8 -1.93546 -0.229316 0
M  V30 14762 H 1403.89 -2.71167 -1.54516 0
M  V30 14763 N 1404.2 0.485086 -1.49949 0
M  V30 14764 C 1405.11 1.61089 -1.70551 0
M  V30 14765 C 1406.12 1.63752 -0.588333 0
M  V30 14766 O 1407.3 1.81879 -0.86498 0
M  V30 14767 C 1404.36 2.97382 -1.78227 0
M  V30 14768 C 1403.42 3.05219 -3.01894 0
M  V30 14769 C 1402.66 4.35011 -3.09195 0
M  V30 14770 O 1402.88 5.24722 -2.23658 0
M  V30 14771 O 1401.81 4.48151 -4.01802 0
M  V30 14772 H 1405.64 1.46633 -2.65956 0
M  V30 14773 H 1403.22 0.663091 -1.33879 0
M  V30 14774 H 1405.11 3.78356 -1.85538 0
M  V30 14775 H 1403.78 3.12066 -0.860043 0
M  V30 14776 H 1402.69 2.23373 -3.00092 0
M  V30 14777 H 1404.02 2.95467 -3.93649 0
M  V30 14778 N 1405.67 1.39291 0.737279 0
M  V30 14779 C 1406.92 1.36121 1.49384 0
M  V30 14780 C 1407.24 -0.0429406 1.94953 0
M  V30 14781 O 1406.51 -0.993756 1.68823 0
M  V30 14782 H 1405.09 0.500916 0.554159 0
M  V30 14783 H 1407.75 1.74134 0.875402 0
M  V30 14784 H 1406.85 2.02246 2.37704 0
M  V30 14785 N 1407.15 -0.967221 1.24429 0
M  V30 14786 C 1408.56 -1.52488 1.07723 0
M  V30 14787 C 1408.91 -1.93031 -0.351191 0
M  V30 14788 O 1408.04 -1.77376 -1.23963 0
M  V30 14789 C 1408.63 -2.77107 1.94929 0
M  V30 14790 C 1407.19 -3.29227 1.82446 0
M  V30 14791 C 1406.34 -2.02133 1.89835 0
M  V30 14792 H 1409.29 -0.785465 1.37899 0
M  V30 14793 H 1409.31 -3.50459 1.48186 0
M  V30 14794 H 1408.82 -2.47567 2.98885 0
M  V30 14795 H 1406.92 -3.63617 0.813246 0
M  V30 14796 H 1407.04 -3.98095 2.66566 0
M  V30 14797 H 1405.4 -2.16867 1.3357 0
M  V30 14798 H 1406.18 -1.74958 2.95372 0
M  V30 14799 N 1408.63 -1.05812 -1.16797 0
M  V30 14800 C 1409.87 -0.781055 -1.88889 0
M  V30 14801 C 1410.23 0.679797 -1.79563 0
M  V30 14802 O 1411.43 1.07124 -2.46532 0
M  V30 14803 C 1409.71 -1.25598 -3.34604 0
M  V30 14804 S 1411.26 -1.10724 -4.24601 0
M  V30 14805 H 1408.08 -0.28347 -0.652047 0
M  V30 14806 H 1410.68 -1.35404 -1.41018 0
M  V30 14807 H 1409.39 -2.31421 -3.38928 0
M  V30 14808 H 1408.92 -0.677541 -3.87522 0
M  V30 14809 H 1410.93 -0.0351807 -4.96188 0
M  V30 14810 N 1410.11 1.33347 -0.840014 0
M  V30 14811 C 1411.02 2.32965 -0.276527 0
M  V30 14812 C 1412.03 1.634 0.598037 0
M  V30 14813 O 1413.21 1.95046 0.501888 0
M  V30 14814 C 1410.27 3.42498 0.53816 0
M  V30 14815 C 1409.34 4.27781 -0.360814 0
M  V30 14816 C 1408.57 5.32083 0.415085 0
M  V30 14817 O 1408.79 5.46115 1.64666 0
M  V30 14818 O 1407.73 6.01528 -0.211503 0
M  V30 14819 H 1411.55 2.83022 -1.10147 0
M  V30 14820 H 1409.14 1.3671 -0.602566 0
M  V30 14821 H 1411.02 4.09336 1.00108 0
M  V30 14822 H 1409.69 2.94655 1.34015 0
M  V30 14823 H 1408.6 3.63805 -0.871598 0
M  V30 14824 H 1409.93 4.7911 -1.1276 0
M  V30 14825 N 1411.59 0.596556 1.45873 0
M  V30 14826 C 1413 0.173758 1.8589 0
M  V30 14827 C 1413.35 -1.26665 1.49835 0
M  V30 14828 O 1412.47 -1.9588 0.919773 0
M  V30 14829 C 1413.07 0.308567 3.37392 0
M  V30 14830 C 1411.63 -0.0594585 3.76353 0
M  V30 14831 C 1410.77 0.638127 2.69858 0
M  V30 14832 H 1413.72 0.803928 1.36831 0
M  V30 14833 H 1413.75 -0.462294 3.77681 0
M  V30 14834 H 1413.26 1.35701 3.63603 0
M  V30 14835 H 1411.36 -1.1075 3.5576 0
M  V30 14836 H 1411.47 0.326506 4.77986 0
M  V30 14837 H 1409.84 0.0769147 2.54584 0
M  V30 14838 H 1410.62 1.68849 2.98906 0
M  V30 14839 N 1413.06 -1.53996 0.335095 0
M  V30 14840 C 1414.31 -2.00375 -0.263475 0
M  V30 14841 C 1414.63 -1.22471 -1.51742 0
M  V30 14842 O 1413.9 -0.329604 -1.93107 0
M  V30 14843 H 1412.48 -0.740229 -0.100347 0
M  V30 14844 H 1415.14 -1.89531 0.454302 0
M  V30 14845 H 1414.24 -3.07874 -0.511834 0
M  V30 14846 N 1414.54 -0.0635198 -1.57472 0
M  V30 14847 C 1415.82 0.648029 -1.84553 0
M  V30 14848 C 1416.2 1.88295 -0.954371 0
M  V30 14849 O 1415.55 2.28492 -0.0185351 0
M  V30 14850 C 1415.76 0.993573 -3.34558 0
M  V30 14851 C 1417.1 1.3706 -4.0187 0
M  V30 14852 O 1418.13 1.08555 -3.39255 0
M  V30 14853 O 1416.99 1.90309 -5.12294 0
M  V30 14854 H 1414.08 0.321047 -0.76214 0
M  V30 14855 H 1416.63 -0.0938223 -1.6944 0
M  V30 14856 H 1415.4 0.116139 -3.91128 0
M  V30 14857 H 1415.02 1.79246 -3.54904 0
M  V30 14858 N 1416.02 1.56195 0.209972 0
M  V30 14859 C 1417.26 1.81525 0.939574 0
M  V30 14860 C 1417.62 0.638789 1.81062 0
M  V30 14861 O 1418.82 0.771648 2.57486 0
M  V30 14862 C 1417.1 3.11809 1.7467 0
M  V30 14863 S 1418.65 3.58494 2.53036 0
M  V30 14864 H 1415.47 0.637211 0.31541 0
M  V30 14865 H 1418.07 1.94431 0.204175 0
M  V30 14866 H 1416.78 3.95463 1.09715 0
M  V30 14867 H 1416.31 3.01742 2.52419 0
M  V30 14868 H 1418.32 3.2275 3.76891 0
M  V30 14869 N 1417.5 -0.477127 1.50204 0
M  V30 14870 C 1418.75 -1.22722 1.60573 0
M  V30 14871 C 1419.07 -1.92595 0.305326 0
M  V30 14872 O 1418.34 -1.83836 -0.676842 0
M  V30 14873 H 1416.92 -0.455973 0.591691 0
M  V30 14874 H 1419.58 -0.550915 1.86952 0
M  V30 14875 H 1418.67 -1.97837 2.41385 0
M  V30 14876 N 1418.98 -1.3968 -0.729882 0
M  V30 14877 C 1420.22 -1.36911 -1.4866 0
M  V30 14878 C 1420.55 0.0326011 -1.94973 0
M  V30 14879 O 1419.82 0.984789 -1.69348 0
M  V30 14880 H 1418.4 -0.503848 -0.551495 0
M  V30 14881 H 1421.06 -1.74596 -0.866155 0
M  V30 14882 H 1420.15 -2.03504 -2.36628 0
M  V30 14883 N 1420.45 0.960609 -1.2494 0
M  V30 14884 C 1421.4 2.05634 -1.04801 0
M  V30 14885 C 1422.37 1.66049 0.0409611 0
M  V30 14886 O 1423.56 1.90453 -0.115053 0
M  V30 14887 C 1420.7 3.38604 -0.666444 0
M  V30 14888 C 1419.81 3.91341 -1.82964 0
M  V30 14889 C 1418.94 5.1261 -1.39299 0
M  V30 14890 C 1417.98 5.57562 -2.52569 0
M  V30 14891 N 1417.12 6.70046 -2.09722 0
M  V30 14892 H 1421.96 2.22194 -1.9858 0
M  V30 14893 H 1419.5 1.08892 -0.988981 0
M  V30 14894 H 1421.46 4.15017 -0.426205 0
M  V30 14895 H 1420.09 3.21948 0.23435 0
M  V30 14896 H 1419.14 3.11502 -2.18335 0
M  V30 14897 H 1420.45 4.20656 -2.68049 0
M  V30 14898 H 1419.6 5.96421 -1.11205 0
M  V30 14899 H 1418.34 4.84997 -0.512779 0
M  V30 14900 H 1417.35 4.72319 -2.81415 0
M  V30 14901 H 1418.57 5.87186 -3.41159 0
M  V30 14902 H 1416.52 6.44153 -1.24109 0
M  V30 14903 H 1416.44 6.98846 -2.88357 0
M  V30 14904 H 1417.7 7.57281 -1.84787 0
M  V30 14905 N 1421.93 1.0643 1.16234 0
M  V30 14906 C 1422.86 0.697605 2.22836 0
M  V30 14907 C 1423.84 -0.310563 1.67241 0
M  V30 14908 O 1425.03 -0.185385 1.93313 0
M  V30 14909 C 1422.16 0.0847097 3.47197 0
M  V30 14910 C 1421.11 1.019 4.15693 0
M  V30 14911 C 1420.44 0.269339 5.34021 0
M  V30 14912 C 1421.74 2.34861 4.66516 0
M  V30 14913 H 1423.43 1.58883 2.53765 0
M  V30 14914 H 1420.98 0.765388 1.21975 0
M  V30 14915 H 1422.93 -0.1837 4.20999 0
M  V30 14916 H 1421.66 -0.84154 3.15572 0
M  V30 14917 H 1420.31 1.27218 3.43818 0
M  V30 14918 H 1419.96 -0.660072 4.9865 0
M  V30 14919 H 1419.66 0.892001 5.8079 0
M  V30 14920 H 1421.19 0.00850775 6.10599 0
M  V30 14921 H 1422.6 2.13922 5.31893 0
M  V30 14922 H 1421 2.92637 5.23912 0
M  V30 14923 H 1422.07 2.97834 3.82653 0
M  V30 14924 N 1423.41 -1.329 0.847073 0
M  V30 14925 C 1424.34 -2.31546 0.301422 0
M  V30 14926 C 1425.32 -1.59342 -0.595317 0
M  V30 14927 O 1426.51 -1.87188 -0.517151 0
M  V30 14928 C 1423.64 -3.43423 -0.517454 0
M  V30 14929 C 1422.59 -4.27055 0.284195 0
M  V30 14930 C 1421.92 -5.30624 -0.658944 0
M  V30 14931 C 1423.22 -5.00123 1.50578 0
M  V30 14932 H 1424.91 -2.77433 1.12567 0
M  V30 14933 H 1422.46 -1.3338 0.542739 0
M  V30 14934 H 1424.41 -4.11467 -0.909543 0
M  V30 14935 H 1423.13 -2.96246 -1.37499 0
M  V30 14936 H 1421.79 -3.60648 0.657944 0
M  V30 14937 H 1421.44 -4.79702 -1.51311 0
M  V30 14938 H 1421.14 -5.87464 -0.12662 0
M  V30 14939 H 1422.66 -6.01533 -1.04837 0
M  V30 14940 H 1424.08 -5.6089 1.18641 0
M  V30 14941 H 1422.48 -5.66652 1.97549 0
M  V30 14942 H 1423.55 -4.28424 2.27115 0
M  V30 14943 N 1424.89 -0.604284 -1.45555 0
M  V30 14944 C 1426.13 -0.101149 -2.0415 0
M  V30 14945 C 1426.49 1.24348 -1.46292 0
M  V30 14946 O 1427.69 1.83714 -1.9622 0
M  V30 14947 C 1425.96 -0.0589898 -3.57351 0
M  V30 14948 S 1427.52 0.383434 -4.37122 0
M  V30 14949 H 1424.34 -0.0479603 -0.709381 0
M  V30 14950 H 1426.94 -0.801643 -1.78309 0
M  V30 14951 H 1425.65 -1.04119 -3.96973 0
M  V30 14952 H 1425.18 0.663601 -3.87763 0
M  V30 14953 H 1427.19 1.63367 -4.68536 0
M  V30 14954 N 1426.37 1.53816 -0.343257 0
M  V30 14955 C 1427.31 2.25011 0.513664 0
M  V30 14956 C 1428.28 1.24827 1.09578 0
M  V30 14957 O 1429.47 1.53558 1.13245 0
M  V30 14958 C 1426.61 3.02616 1.65885 0
M  V30 14959 C 1425.72 4.17653 1.10406 0
M  V30 14960 C 1424.86 4.82746 2.21653 0
M  V30 14961 C 1423.9 5.89853 1.63524 0
M  V30 14962 N 1423.03 6.48726 2.68512 0
M  V30 14963 H 1427.87 2.97832 -0.099997 0
M  V30 14964 H 1425.41 1.46973 -0.0611206 0
M  V30 14965 H 1427.37 3.45868 2.33304 0
M  V30 14966 H 1426 2.32092 2.2435 0
M  V30 14967 H 1425.05 3.79045 0.320819 0
M  V30 14968 H 1426.36 4.94691 0.638887 0
M  V30 14969 H 1425.52 5.29068 2.96938 0
M  V30 14970 H 1424.25 4.05131 2.71515 0
M  V30 14971 H 1423.26 5.42914 0.86745 0
M  V30 14972 H 1424.48 6.69375 1.14515 0
M  V30 14973 H 1422.43 5.73975 3.17629 0
M  V30 14974 H 1422.35 7.21236 2.26616 0
M  V30 14975 H 1423.62 6.99701 3.43567 0
M  V30 14976 N 1427.84 0.0718701 1.57436 0
M  V30 14977 C 1428.79 -0.905443 2.0925 0
M  V30 14978 C 1429.78 -1.25875 1.00221 0
M  V30 14979 O 1430.97 -1.23771 1.26529 0
M  V30 14980 C 1428.1 -2.17298 2.65775 0
M  V30 14981 C 1427.19 -1.84614 3.81809 0
M  V30 14982 N 1427.58 -1.22381 4.90771 0
M  V30 14983 C 1425.87 -2.14364 3.91106 0
M  V30 14984 C 1426.58 -1.07791 5.71626 0
M  V30 14985 N 1425.55 -1.58764 5.19899 0
M  V30 14986 H 1429.35 -0.419955 2.90884 0
M  V30 14987 H 1426.87 -0.132017 1.61863 0
M  V30 14988 H 1428.86 -2.88231 3.01211 0
M  V30 14989 H 1427.52 -2.66434 1.85588 0
M  V30 14990 H 1428.54 -0.89345 5.10135 0
M  V30 14991 H 1425.21 -2.65877 3.21894 0
M  V30 14992 H 1426.6 -0.593061 6.69278 0
M  V30 14993 N 1429.32 -1.56304 -0.201686 0
M  V30 14994 C 1430.57 -1.79881 -0.921269 0
M  V30 14995 C 1430.89 -0.643809 -1.84065 0
M  V30 14996 O 1430.16 0.338239 -1.92958 0
M  V30 14997 H 1428.74 -0.663506 -0.343175 0
M  V30 14998 H 1431.4 -1.93779 -0.208775 0
M  V30 14999 H 1430.5 -2.7279 -1.51631 0
M  V30 15000 N 1430.8 0.469154 -1.50455 0
M  V30 15001 C 1432.05 1.2229 -1.6178 0
M  V30 15002 C 1432.38 1.91577 -0.318073 0
M  V30 15003 O 1431.65 1.82205 0.68057 0
M  V30 15004 C 1431.94 2.26504 -2.79943 0
M  V30 15005 C 1431.79 1.61509 -4.19804 0
M  V30 15006 C 1433.11 3.27796 -2.93662 0
M  V30 15007 H 1430.23 0.443241 -0.588817 0
M  V30 15008 H 1432.87 0.516431 -1.82847 0
M  V30 15009 H 1431.02 2.86757 -2.62112 0
M  V30 15010 H 1432.69 1.04838 -4.49229 0
M  V30 15011 H 1430.94 0.918162 -4.23972 0
M  V30 15012 H 1431.61 2.37248 -4.98415 0
M  V30 15013 H 1434.08 2.77568 -3.09992 0
M  V30 15014 H 1432.96 3.98041 -3.77961 0
M  V30 15015 H 1433.22 3.92033 -2.04359 0
M  V30 15016 N 1432.28 1.40065 0.722464 0
M  V30 15017 C 1433.53 1.37277 1.47776 0
M  V30 15018 C 1433.84 -0.0242852 1.95585 0
M  V30 15019 O 1435.05 -0.174769 2.70937 0
M  V30 15020 C 1433.5 2.41233 2.67085 0
M  V30 15021 C 1433.11 3.86716 2.26174 0
M  V30 15022 C 1434.85 2.47541 3.44853 0
M  V30 15023 C 1432.76 4.82284 3.42281 0
M  V30 15024 H 1431.69 0.510405 0.55498 0
M  V30 15025 H 1434.34 1.6577 0.786928 0
M  V30 15026 H 1432.72 2.0583 3.38305 0
M  V30 15027 H 1433.9 4.31227 1.6242 0
M  V30 15028 H 1432.21 3.83819 1.61468 0
M  V30 15029 H 1434.81 3.16131 4.31237 0
M  V30 15030 H 1435.15 1.50379 3.8819 0
M  V30 15031 H 1435.69 2.81901 2.80672 0
M  V30 15032 H 1432.43 5.80754 3.03982 0
M  V30 15033 H 1431.95 4.42443 4.04975 0
M  V30 15034 H 1433.62 5.0178 4.08443 0
M  V30 15035 N 1433.76 -0.95397 1.25448 0
M  V30 15036 C 1435.01 -1.6953 1.10018 0
M  V30 15037 C 1435.33 -1.9166 -0.359385 0
M  V30 15038 O 1434.6 -1.50417 -1.25506 0
M  V30 15039 H 1433.18 -0.628238 0.404136 0
M  V30 15040 H 1435.84 -1.14691 1.57581 0
M  V30 15041 H 1434.93 -2.67427 1.60901 0
M  V30 15042 N 1435.24 -1.07045 -1.15668 0
M  V30 15043 C 1436.48 -0.786751 -1.85723 0
M  V30 15044 C 1436.8 0.689604 -1.83041 0
M  V30 15045 O 1438 1.08796 -2.48748 0
M  V30 15046 C 1436.46 -1.35729 -3.33325 0
M  V30 15047 C 1436.07 -2.86444 -3.44462 0
M  V30 15048 C 1437.81 -1.15148 -4.08584 0
M  V30 15049 C 1435.72 -3.36705 -4.86193 0
M  V30 15050 H 1434.65 -0.29063 -0.695737 0
M  V30 15051 H 1437.3 -1.29012 -1.30492 0
M  V30 15052 H 1435.68 -0.781671 -3.88209 0
M  V30 15053 H 1436.86 -3.50023 -2.997 0
M  V30 15054 H 1435.17 -3.0578 -2.82644 0
M  V30 15055 H 1437.77 -1.50179 -5.13177 0
M  V30 15056 H 1438.11 -0.0903159 -4.16202 0
M  V30 15057 H 1438.64 -1.6933 -3.59962 0
M  V30 15058 H 1435.38 -4.42333 -4.83758 0
M  V30 15059 H 1434.9 -2.77877 -5.31549 0
M  V30 15060 H 1436.58 -3.32478 -5.55038 0
M  V30 15061 N 1436.71 1.32449 -0.85411 0
M  V30 15062 C 1437.96 1.96537 -0.453451 0
M  V30 15063 C 1438.28 1.68344 0.995982 0
M  V30 15064 O 1439.48 2.26166 1.50204 0
M  V30 15065 C 1437.94 3.51785 -0.759934 0
M  V30 15066 C 1437.55 3.88838 -2.22506 0
M  V30 15067 C 1439.29 4.22347 -0.426973 0
M  V30 15068 C 1437.2 5.37129 -2.47479 0
M  V30 15069 H 1436.13 0.735537 -0.165835 0
M  V30 15070 H 1438.78 1.50851 -1.04481 0
M  V30 15071 H 1437.16 3.95879 -0.0980116 0
M  V30 15072 H 1438.33 3.55756 -2.92873 0
M  V30 15073 H 1436.65 3.31299 -2.52249 0
M  V30 15074 H 1439.25 5.31424 -0.590986 0
M  V30 15075 H 1439.59 4.11485 0.631359 0
M  V30 15076 H 1440.12 3.83835 -1.04477 0
M  V30 15077 H 1436.86 5.53012 -3.51935 0
M  V30 15078 H 1436.38 5.71619 -1.8169 0
M  V30 15079 H 1438.06 6.04204 -2.31401 0
M  V30 15080 N 1438.19 0.611994 1.45232 0
M  V30 15081 C 1439.42 0.115409 2.06578 0
M  V30 15082 C 1439.83 -1.20206 1.45588 0
M  V30 15083 O 1439.19 -1.73315 0.571668 0
M  V30 15084 C 1439.24 -0.0259943 3.61491 0
M  V30 15085 O 1438.96 1.23936 4.20204 0
M  V30 15086 C 1440.46 -0.553522 4.39831 0
M  V30 15087 H 1437.68 0.0708656 0.667247 0
M  V30 15088 H 1440.23 0.840977 1.86408 0
M  V30 15089 H 1438.38 -0.701909 3.80988 0
M  V30 15090 H 1438.8 1.07187 5.13431 0
M  V30 15091 H 1440.27 -0.601536 5.48713 0
M  V30 15092 H 1440.75 -1.57671 4.09923 0
M  V30 15093 H 1441.35 0.0884954 4.25208 0
M  V30 15094 N 1439.67 -1.53632 0.351409 0
M  V30 15095 C 1440.63 -2.23916 -0.489293 0
M  V30 15096 C 1441.63 -1.24207 -1.02124 0
M  V30 15097 O 1442.82 -1.48589 -0.909235 0
M  V30 15098 C 1439.95 -2.96492 -1.68242 0
M  V30 15099 H 1441.15 -2.99637 0.125518 0
M  V30 15100 H 1438.7 -1.55961 0.102874 0
M  V30 15101 H 1439.44 -2.24978 -2.33571 0
M  V30 15102 H 1439.22 -3.69637 -1.3081 0
M  V30 15103 H 1440.71 -3.49961 -2.27853 0
M  V30 15104 N 1441.15 -0.0802183 -1.57396 0
M  V30 15105 C 1442.4 0.585802 -1.93424 0
M  V30 15106 C 1442.72 1.69638 -0.961662 0
M  V30 15107 O 1441.99 1.95897 -0.011202 0
M  V30 15108 H 1440.57 0.219382 -0.714059 0
M  V30 15109 H 1443.23 -0.140055 -1.94396 0
M  V30 15110 H 1442.32 1.00566 -2.95454 0
M  V30 15111 N 1442.63 1.56409 0.193394 0
M  V30 15112 C 1443.87 1.80367 0.911717 0
M  V30 15113 C 1444.19 0.653561 1.83721 0
M  V30 15114 O 1443.46 -0.328001 1.93135 0
M  V30 15115 H 1442.04 0.665316 0.339652 0
M  V30 15116 H 1444.71 1.93887 0.198496 0
M  V30 15117 H 1443.8 2.7359 1.50182 0
M  V30 15118 N 1444.1 -0.461169 1.50702 0
M  V30 15119 C 1445.01 -1.58355 1.73092 0
M  V30 15120 C 1446.03 -1.62795 0.61431 0
M  V30 15121 O 1447.21 -1.8048 0.893806 0
M  V30 15122 C 1444.27 -2.94509 1.82936 0
M  V30 15123 C 1443.33 -3.00378 3.06711 0
M  V30 15124 C 1442.56 -4.30037 3.16076 0
M  V30 15125 O 1442.79 -5.21097 2.31978 0
M  V30 15126 O 1441.72 -4.41702 4.08881 0
M  V30 15127 H 1445.55 -1.42384 2.68255 0
M  V30 15128 H 1443.13 -0.641709 1.34916 0
M  V30 15129 H 1445.01 -3.75357 1.91534 0
M  V30 15130 H 1443.69 -3.10658 0.909581 0
M  V30 15131 H 1442.6 -2.18571 3.03608 0
M  V30 15132 H 1443.93 -2.89167 3.983 0
M  V30 15133 N 1445.58 -1.40446 -0.715026 0
M  V30 15134 C 1446.83 -1.3848 -1.47199 0
M  V30 15135 C 1447.15 0.0119198 -1.94996 0
M  V30 15136 O 1446.42 0.966772 -1.70383 0
M  V30 15137 H 1445 -0.509669 -0.54612 0
M  V30 15138 H 1447.66 -1.75505 -0.847588 0
M  V30 15139 H 1446.76 -2.06002 -2.34456 0
M  V30 15140 N 1447.06 0.947303 -1.25952 0
M  V30 15141 C 1448.01 2.03076 -1.03653 0
M  V30 15142 C 1448.99 1.60874 0.0290512 0
M  V30 15143 O 1450.19 1.76008 -0.187169 0
M  V30 15144 C 1447.31 3.36797 -0.66501 0
M  V30 15145 C 1446.4 3.85502 -1.76773 0
M  V30 15146 N 1446.79 4.06922 -3.00413 0
M  V30 15147 C 1445.09 4.14359 -1.64993 0
M  V30 15148 C 1445.79 4.4717 -3.7204 0
M  V30 15149 N 1444.77 4.53523 -2.99697 0
M  V30 15150 H 1448.57 2.17641 -1.97509 0
M  V30 15151 H 1446.08 1.13268 -1.16379 0
M  V30 15152 H 1448.08 4.14053 -0.486427 0
M  V30 15153 H 1446.74 3.23607 0.266138 0
M  V30 15154 H 1447.75 3.93786 -3.36383 0
M  V30 15155 H 1444.43 4.09991 -0.788254 0
M  V30 15156 H 1445.82 4.71985 -4.78205 0
M  V30 15157 N 1448.54 1.07657 1.15099 0
M  V30 15158 C 1449.78 0.802796 1.86234 0
M  V30 15159 C 1450.12 -0.669555 1.82293 0
M  V30 15160 O 1449.39 -1.49162 1.24823 0
M  V30 15161 C 1449.68 1.3156 3.35208 0
M  V30 15162 C 1449.53 2.85272 3.47764 0
M  V30 15163 C 1450.85 0.934641 4.30061 0
M  V30 15164 H 1447.97 0.293099 0.676212 0
M  V30 15165 H 1450.61 1.33488 1.35207 0
M  V30 15166 H 1448.76 0.86298 3.78794 0
M  V30 15167 H 1450.43 3.38847 3.13018 0
M  V30 15168 H 1448.67 3.23316 2.89222 0
M  V30 15169 H 1449.34 3.16223 4.52446 0
M  V30 15170 H 1451.82 1.3247 3.9445 0
M  V30 15171 H 1450.7 1.32074 5.32774 0
M  V30 15172 H 1450.96 -0.159122 4.41814 0
M  V30 15173 N 1450.02 -1.31994 0.861122 0
M  V30 15174 C 1450.98 -2.27019 0.315421 0
M  V30 15175 C 1451.98 -1.51864 -0.528575 0
M  V30 15176 O 1453.17 -1.70867 -0.339154 0
M  V30 15177 C 1450.3 -3.36384 -0.553021 0
M  V30 15178 H 1451.49 -2.768 1.1542 0
M  V30 15179 H 1449.05 -1.42776 0.635982 0
M  V30 15180 H 1449.78 -2.91882 -1.41335 0
M  V30 15181 H 1449.57 -3.92067 0.0511919 0
M  V30 15182 H 1451.06 -4.07172 -0.927392 0
M  V30 15183 N 1451.49 -0.619688 -1.44906 0
M  V30 15184 C 1452.74 -0.119633 -2.02146 0
M  V30 15185 C 1453.07 1.25432 -1.48651 0
M  V30 15186 O 1452.32 1.84372 -0.656155 0
M  V30 15187 C 1452.62 -0.0432891 -3.57374 0
M  V30 15188 C 1452.29 -1.35451 -4.30074 0
M  V30 15189 C 1450.95 -1.71365 -4.49653 0
M  V30 15190 C 1453.3 -2.22053 -4.71532 0
M  V30 15191 C 1450.63 -2.93611 -5.07946 0
M  V30 15192 C 1452.98 -3.43559 -5.31178 0
M  V30 15193 C 1451.65 -3.7971 -5.48977 0
M  V30 15194 H 1450.92 -0.0437769 -0.739706 0
M  V30 15195 H 1453.56 -0.803722 -1.73818 0
M  V30 15196 H 1451.87 0.72412 -3.8505 0
M  V30 15197 H 1453.57 0.359964 -3.99381 0
M  V30 15198 H 1450.16 -1.06499 -4.15158 0
M  V30 15199 H 1454.34 -1.95603 -4.56129 0
M  V30 15200 H 1449.6 -3.21712 -5.19915 0
M  V30 15201 H 1453.77 -4.10906 -5.62254 0
M  V30 15202 H 1451.4 -4.7452 -5.93915 0
M  V30 15203 N 1452.97 1.53444 -0.359552 0
M  V30 15204 C 1454.22 2.00348 0.233109 0
M  V30 15205 C 1454.53 1.25104 1.50361 0
M  V30 15206 O 1455.74 1.62566 2.1745 0
M  V30 15207 C 1454.2 3.56871 0.465951 0
M  V30 15208 C 1453.8 4.40987 -0.789571 0
M  V30 15209 C 1455.55 4.12148 1.0166 0
M  V30 15210 C 1453.46 5.8905 -0.526646 0
M  V30 15211 H 1452.39 0.748502 0.0908851 0
M  V30 15212 H 1455.04 1.77182 -0.47736 0
M  V30 15213 H 1453.42 3.76167 1.23753 0
M  V30 15214 H 1454.59 4.33465 -1.56348 0
M  V30 15215 H 1452.91 3.96784 -1.263 0
M  V30 15216 H 1455.5 5.20395 1.22853 0
M  V30 15217 H 1455.85 3.66364 1.97694 0
M  V30 15218 H 1456.38 3.96626 0.305334 0
M  V30 15219 H 1453.12 6.39099 -1.45715 0
M  V30 15220 H 1452.64 5.99436 0.208875 0
M  V30 15221 H 1454.32 6.46826 -0.149889 0
M  V30 15222 N 1454.45 0.0885642 1.57351 0
M  V30 15223 C 1455.73 -0.618587 1.85561 0
M  V30 15224 C 1456.11 -1.86753 0.984206 0
M  V30 15225 O 1455.46 -2.28434 0.0548839 0
M  V30 15226 C 1455.67 -0.940222 3.36096 0
M  V30 15227 C 1457.01 -1.30649 4.04 0
M  V30 15228 O 1458.04 -1.03144 3.4094 0
M  V30 15229 O 1456.9 -1.82135 5.15256 0
M  V30 15230 H 1453.99 -0.308881 0.767152 0
M  V30 15231 H 1456.54 0.120767 1.6927 0
M  V30 15232 H 1455.31 -0.0538991 3.91263 0
M  V30 15233 H 1454.93 -1.73577 3.5771 0
M  V30 15234 N 1455.93 -1.56509 -0.185096 0
M  V30 15235 C 1456.86 -1.98363 -1.23184 0
M  V30 15236 C 1457.84 -0.85709 -1.46929 0
M  V30 15237 O 1459.02 -1.12216 -1.58497 0
M  V30 15238 C 1456.15 -2.33172 -2.57387 0
M  V30 15239 C 1455.11 -3.48658 -2.48236 0
M  V30 15240 C 1454.43 -3.69171 -3.86804 0
M  V30 15241 C 1455.73 -4.82538 -1.99885 0
M  V30 15242 H 1457.43 -2.86053 -0.883982 0
M  V30 15243 H 1454.97 -1.37623 -0.423786 0
M  V30 15244 H 1456.93 -2.61048 -3.30805 0
M  V30 15245 H 1455.65 -1.42377 -2.93933 0
M  V30 15246 H 1454.31 -3.20889 -1.77273 0
M  V30 15247 H 1453.96 -2.75689 -4.20719 0
M  V30 15248 H 1453.66 -4.46868 -3.81553 0
M  V30 15249 H 1455.18 -3.99433 -4.61829 0
M  V30 15250 H 1456.6 -5.0938 -2.63068 0
M  V30 15251 H 1454.99 -5.63775 -2.05614 0
M  V30 15252 H 1456.06 -4.75453 -0.952503 0
M  V30 15253 N 1457.41 0.45317 -1.50944 0
M  V30 15254 C 1458.82 0.788393 -1.38768 0
M  V30 15255 C 1459.02 1.96233 -0.457676 0
M  V30 15256 O 1458.08 2.52328 0.0930651 0
M  V30 15257 C 1459.39 1.08363 -2.80496 0
M  V30 15258 C 1460.94 1.18901 -2.89537 0
M  V30 15259 C 1461.41 1.51727 -4.32138 0
M  V30 15260 N 1462.91 1.58683 -4.35171 0
M  V30 15261 C 1463.64 1.85623 -5.42523 0
M  V30 15262 N 1463.14 2.10462 -6.60059 0
M  V30 15263 N 1464.93 1.87274 -5.29986 0
M  V30 15264 H 1457.08 -0.320216 -2.09972 0
M  V30 15265 H 1459.34 -0.0808021 -0.94455 0
M  V30 15266 H 1459.05 0.293897 -3.5047 0
M  V30 15267 H 1458.92 2.01532 -3.18849 0
M  V30 15268 H 1461.31 1.96939 -2.19771 0
M  V30 15269 H 1461.39 0.236691 -2.54703 0
M  V30 15270 H 1461.04 0.74223 -5.02447 0
M  V30 15271 H 1460.97 2.48139 -4.64472 0
M  V30 15272 H 1463.46 1.41455 -3.50427 0
M  V30 15273 H 1463.77 2.30343 -7.37673 0
M  V30 15274 H 1462.11 2.07817 -6.63202 0
M  V30 15275 H 1465.31 1.67377 -4.37153 0
M  V30 15276 H 1465.48 2.07933 -6.13733 0
M  V30 15277 N 1458.88 1.40823 0.707568 0
M  V30 15278 C 1459.83 1.38198 1.81343 0
M  V30 15279 C 1460.82 0.258234 1.58814 0
M  V30 15280 O 1462.01 0.497972 1.69851 0
M  V30 15281 C 1459.14 1.25483 3.19545 0
M  V30 15282 C 1458.23 2.42672 3.47809 0
M  V30 15283 N 1458.62 3.6815 3.46842 0
M  V30 15284 C 1456.91 2.36225 3.78304 0
M  V30 15285 C 1457.62 4.45805 3.73675 0
M  V30 15286 N 1456.59 3.75753 3.92824 0
M  V30 15287 H 1460.39 2.33147 1.7894 0
M  V30 15288 H 1457.91 1.34709 0.907044 0
M  V30 15289 H 1459.9 1.21684 3.98746 0
M  V30 15290 H 1458.56 0.315081 3.23168 0
M  V30 15291 H 1459.58 4.01201 3.27503 0
M  V30 15292 H 1456.25 1.50659 3.89369 0
M  V30 15293 H 1457.64 5.54692 3.79165 0
M  V30 15294 N 1460.36 -0.94061 1.26453 0
M  V30 15295 C 1461.61 -1.68687 1.12031 0
M  V30 15296 C 1461.94 -1.91571 -0.336252 0
M  V30 15297 O 1461.19 -1.49458 -1.26336 0
M  V30 15298 C 1461.49 -3.06683 1.83521 0
M  V30 15299 C 1461.16 -3.03553 3.33416 0
M  V30 15300 C 1459.82 -3.02407 3.74304 0
M  V30 15301 C 1462.17 -2.95817 4.29118 0
M  V30 15302 C 1459.5 -2.9129 5.09281 0
M  V30 15303 C 1461.85 -2.86242 5.64135 0
M  V30 15304 C 1460.52 -2.83438 6.04333 0
M  V30 15305 H 1459.79 -0.61727 0.40995 0
M  V30 15306 H 1462.43 -1.0979 1.56902 0
M  V30 15307 H 1460.74 -3.69208 1.31121 0
M  V30 15308 H 1462.43 -3.63274 1.69802 0
M  V30 15309 H 1459.02 -3.05226 3.00891 0
M  V30 15310 H 1463.21 -2.9581 3.9851 0
M  V30 15311 H 1458.46 -2.87498 5.39588 0
M  V30 15312 H 1462.64 -2.79219 6.37973 0
M  V30 15313 H 1460.27 -2.74581 7.08879 0
M  V30 15314 N 1461.84 -1.08266 -1.14527 0
M  V30 15315 C 1462.79 -0.680977 -2.17593 0
M  V30 15316 C 1463.77 0.298653 -1.58104 0
M  V30 15317 O 1464.97 0.110901 -1.76652 0
M  V30 15318 C 1462.1 -0.0902883 -3.43181 0
M  V30 15319 C 1461.18 -1.09562 -4.09704 0
M  V30 15320 N 1461.57 -2.27853 -4.51571 0
M  V30 15321 C 1459.87 -0.931053 -4.36174 0
M  V30 15322 C 1460.57 -2.91708 -5.03271 0
M  V30 15323 N 1459.55 -2.19325 -4.97391 0
M  V30 15324 H 1463.35 -1.58178 -2.47703 0
M  V30 15325 H 1460.86 -0.957169 -1.31195 0
M  V30 15326 H 1462.86 0.215428 -4.16343 0
M  V30 15327 H 1461.52 0.805513 -3.1455 0
M  V30 15328 H 1462.53 -2.65517 -4.44659 0
M  V30 15329 H 1459.21 -0.0889339 -4.17405 0
M  V30 15330 H 1460.6 -3.92202 -5.45552 0
M  V30 15331 N 1463.32 1.31536 -0.86811 0
M  V30 15332 C 1464.56 1.98573 -0.484592 0
M  V30 15333 C 1464.92 1.6713 0.945066 0
M  V30 15334 O 1466.12 2.27364 1.43384 0
M  V30 15335 C 1464.4 3.49817 -0.732305 0
M  V30 15336 S 1465.95 4.36503 -0.448369 0
M  V30 15337 H 1462.77 0.687584 -0.180969 0
M  V30 15338 H 1465.37 1.59976 -1.12373 0
M  V30 15339 H 1464.08 3.70191 -1.77163 0
M  V30 15340 H 1463.61 3.93318 -0.0800886 0
M  V30 15341 H 1465.62 4.90947 0.720116 0
M  V30 15342 N 1464.8 0.627364 1.44575 0
M  V30 15343 C 1465.76 -0.0700881 2.29093 0
M  V30 15344 C 1466.76 -0.775969 1.40838 0
M  V30 15345 O 1467.95 -0.621129 1.6275 0
M  V30 15346 C 1465.08 -1.10977 3.2233 0
M  V30 15347 H 1466.28 0.673234 2.92246 0
M  V30 15348 H 1463.83 0.387322 1.51425 0
M  V30 15349 H 1464.56 -1.8832 2.64019 0
M  V30 15350 H 1464.35 -0.607587 3.87364 0
M  V30 15351 H 1465.84 -1.59764 3.8583 0
M  V30 15352 N 1466.28 -1.53251 0.367684 0
M  V30 15353 C 1467.19 -2.29518 -0.485669 0
M  V30 15354 C 1468.2 -1.35568 -1.09075 0
M  V30 15355 O 1469.38 -1.68626 -1.10124 0
M  V30 15356 C 1466.44 -3.07115 -1.60876 0
M  V30 15357 C 1465.5 -4.16736 -1.031 0
M  V30 15358 C 1464.74 -4.90624 -2.10056 0
M  V30 15359 O 1464.96 -4.64393 -3.31203 0
M  V30 15360 O 1463.89 -5.76503 -1.72996 0
M  V30 15361 H 1467.72 -3.034 0.135017 0
M  V30 15362 H 1465.3 -1.48816 0.132005 0
M  V30 15363 H 1467.19 -3.55564 -2.26168 0
M  V30 15364 H 1465.86 -2.36068 -2.21481 0
M  V30 15365 H 1464.77 -3.72534 -0.341928 0
M  V30 15366 H 1466.1 -4.89956 -0.469473 0
M  V30 15367 N 1467.75 -0.0969077 -1.57302 0
M  V30 15368 C 1468.66 0.875561 -2.17649 0
M  V30 15369 C 1469.68 1.30892 -1.14645 0
M  V30 15370 O 1470.86 1.37646 -1.47022 0
M  V30 15371 C 1467.92 2.116 -2.74639 0
M  V30 15372 C 1466.98 1.73667 -3.92604 0
M  V30 15373 C 1466.21 2.91798 -4.46867 0
M  V30 15374 O 1466.44 4.06577 -4.00064 0
M  V30 15375 O 1465.37 2.70159 -5.37864 0
M  V30 15376 H 1469.2 0.392107 -3.01158 0
M  V30 15377 H 1466.78 0.127539 -1.48855 0
M  V30 15378 H 1468.66 2.84292 -3.11057 0
M  V30 15379 H 1467.34 2.58994 -1.94174 0
M  V30 15380 H 1466.25 0.981505 -3.60995 0
M  V30 15381 H 1467.58 1.31035 -4.74437 0
M  V30 15382 N 1469.23 1.56605 0.176793 0
M  V30 15383 C 1470.16 1.9254 1.24342 0
M  V30 15384 C 1471.18 0.81792 1.40762 0
M  V30 15385 O 1472.37 1.09636 1.40862 0
M  V30 15386 C 1469.47 2.15822 2.61293 0
M  V30 15387 C 1468.64 3.47035 2.66243 0
M  V30 15388 C 1467.7 3.5921 3.84519 0
M  V30 15389 O 1466.72 4.31876 3.70771 0
M  V30 15390 N 1467.93 2.93653 5.00748 0
M  V30 15391 H 1470.69 2.84635 0.938246 0
M  V30 15392 H 1468.25 1.57695 0.366597 0
M  V30 15393 H 1470.24 2.21237 3.38875 0
M  V30 15394 H 1468.81 1.30138 2.84223 0
M  V30 15395 H 1468.03 3.53326 1.74798 0
M  V30 15396 H 1469.32 4.33388 2.66557 0
M  V30 15397 H 1468.72 2.34476 5.14818 0
M  V30 15398 H 1467.28 3.04671 5.76211 0
M  V30 15399 N 1470.71 -0.445159 1.51182 0
M  V30 15400 C 1471.96 -1.19288 1.6314 0
M  V30 15401 C 1472.28 -1.91904 0.346109 0
M  V30 15402 O 1471.55 -1.8523 -0.637695 0
M  V30 15403 H 1470.13 -0.443319 0.601229 0
M  V30 15404 H 1472.79 -0.511136 1.88078 0
M  V30 15405 H 1471.89 -1.92672 2.45528 0
M  V30 15406 N 1472.19 -1.41197 -0.700089 0
M  V30 15407 C 1473.44 -1.39611 -1.45574 0
M  V30 15408 C 1473.75 -0.00683378 -1.95599 0
M  V30 15409 O 1474.96 0.131643 -2.71181 0
M  V30 15410 C 1473.41 -2.45452 -2.63214 0
M  V30 15411 C 1473.02 -3.90265 -2.19993 0
M  V30 15412 C 1474.76 -2.52996 -3.40871 0
M  V30 15413 C 1472.67 -4.87668 -3.34565 0
M  V30 15414 H 1471.6 -0.51917 -0.546789 0
M  V30 15415 H 1474.25 -1.67001 -0.760456 0
M  V30 15416 H 1472.63 -2.11186 -3.34987 0
M  V30 15417 H 1473.81 -4.33756 -1.55539 0
M  V30 15418 H 1472.12 -3.86339 -1.55341 0
M  V30 15419 H 1474.72 -3.22952 -4.26153 0
M  V30 15420 H 1475.06 -1.56536 -3.85749 0
M  V30 15421 H 1475.6 -2.86331 -2.76151 0
M  V30 15422 H 1472.33 -5.85517 -2.94704 0
M  V30 15423 H 1471.85 -4.4883 -3.97884 0
M  V30 15424 H 1473.53 -5.08215 -4.00409 0
M  V30 15425 N 1473.67 0.933891 -1.2695 0
M  V30 15426 C 1474.89 1.71512 -1.15721 0
M  V30 15427 C 1475.31 1.8661 0.286712 0
M  V30 15428 O 1474.67 1.3787 1.19574 0
M  V30 15429 C 1474.72 3.11804 -1.82922 0
M  V30 15430 O 1474.44 2.97421 -3.21672 0
M  V30 15431 C 1475.94 4.06108 -1.7774 0
M  V30 15432 H 1473.16 0.53678 -0.402626 0
M  V30 15433 H 1475.7 1.17025 -1.67706 0
M  V30 15434 H 1473.86 3.6317 -1.34856 0
M  V30 15435 H 1474.27 3.86069 -3.55037 0
M  V30 15436 H 1475.75 5.02082 -2.29385 0
M  V30 15437 H 1476.22 4.32828 -0.74543 0
M  V30 15438 H 1476.83 3.60665 -2.25391 0
M  V30 15439 N 1475.14 1.08871 1.13951 0
M  V30 15440 C 1476.42 0.73388 1.81311 0
M  V30 15441 C 1476.8 -0.781824 1.96089 0
M  V30 15442 O 1476.15 -1.70211 1.52448 0
M  V30 15443 C 1476.36 1.46631 3.16702 0
M  V30 15444 C 1477.71 1.62843 3.92132 0
M  V30 15445 O 1478.73 1.42836 3.26307 0
M  V30 15446 O 1477.59 1.95893 5.10185 0
M  V30 15447 H 1474.68 0.262976 0.784074 0
M  V30 15448 H 1477.23 1.19057 1.20927 0
M  V30 15449 H 1476 2.49863 3.01138 0
M  V30 15450 H 1475.62 1.00141 3.84782 0
M  V30 15451 N 1476.62 -1.31073 0.875073 0
M  V30 15452 C 1477.85 -2.00397 0.50245 0
M  V30 15453 C 1478.26 -1.65826 -0.910951 0
M  V30 15454 O 1477.6 -0.886276 -1.60906 0
M  V30 15455 C 1477.66 -3.54696 0.585744 0
M  V30 15456 C 1477.33 -4.12756 1.96167 0
M  V30 15457 C 1478.33 -4.29484 2.92984 0
M  V30 15458 C 1476.01 -4.48365 2.26437 0
M  V30 15459 C 1478 -4.81019 4.18209 0
M  V30 15460 C 1475.69 -4.99601 3.51912 0
M  V30 15461 C 1476.69 -5.1588 4.47613 0
M  V30 15462 O 1476.38 -5.66014 5.70862 0
M  V30 15463 H 1476.11 -0.647645 0.193733 0
M  V30 15464 H 1478.66 -1.6816 1.17947 0
M  V30 15465 H 1476.89 -3.86416 -0.148214 0
M  V30 15466 H 1478.58 -4.05271 0.225818 0
M  V30 15467 H 1479.35 -4.02286 2.70907 0
M  V30 15468 H 1475.23 -4.34968 1.52721 0
M  V30 15469 H 1478.77 -4.9364 4.92915 0
M  V30 15470 H 1474.67 -5.26234 3.73829 0
M  V30 15471 H 1475.44 -5.84374 5.73105 0
M  V30 15472 N 1478.1 -0.635022 -1.4424 0
M  V30 15473 C 1479.35 -0.138497 -2.01224 0
M  V30 15474 C 1479.66 1.2485 -1.50571 0
M  V30 15475 O 1480.87 1.83926 -1.99709 0
M  V30 15476 C 1479.32 -0.196836 -3.59361 0
M  V30 15477 C 1478.93 -1.58539 -4.1901 0
M  V30 15478 C 1480.68 0.243025 -4.23804 0
M  V30 15479 C 1478.58 -1.59864 -5.69384 0
M  V30 15480 H 1477.51 -0.0480117 -0.75247 0
M  V30 15481 H 1480.16 -0.794391 -1.65414 0
M  V30 15482 H 1478.55 0.526231 -3.92488 0
M  V30 15483 H 1479.72 -2.33236 -3.97414 0
M  V30 15484 H 1478.04 -1.96967 -3.66869 0
M  V30 15485 H 1480.63 0.252717 -5.34102 0
M  V30 15486 H 1480.98 1.27107 -3.96421 0
M  V30 15487 H 1481.51 -0.427678 -3.95494 0
M  V30 15488 H 1478.25 -2.60518 -6.01507 0
M  V30 15489 H 1477.77 -0.894664 -5.9309 0
M  V30 15490 H 1479.45 -1.3343 -6.33092 0
M  V30 15491 N 1479.58 1.53054 -0.375806 0
M  V30 15492 C 1480.53 2.22837 0.482477 0
M  V30 15493 C 1481.51 1.22728 1.04051 0
M  V30 15494 O 1482.7 1.48129 0.968854 0
M  V30 15495 C 1479.83 3.02869 1.61634 0
M  V30 15496 C 1478.92 4.10362 1.07069 0
M  V30 15497 N 1479.31 5.05187 0.248878 0
M  V30 15498 C 1477.61 4.25251 1.34452 0
M  V30 15499 C 1478.31 5.81678 -0.0510458 0
M  V30 15500 N 1477.29 5.40817 0.549318 0
M  V30 15501 H 1481.09 2.93506 -0.1521 0
M  V30 15502 H 1478.6 1.6135 -0.184373 0
M  V30 15503 H 1480.6 3.51387 2.24349 0
M  V30 15504 H 1479.26 2.33732 2.25387 0
M  V30 15505 H 1480.27 5.17777 -0.112766 0
M  V30 15506 H 1476.95 3.67342 1.98408 0
M  V30 15507 H 1478.34 6.68073 -0.716061 0
M  V30 15508 N 1481.06 0.105248 1.57248 0
M  V30 15509 C 1481.99 -0.886904 2.1026 0
M  V30 15510 C 1482.97 -1.26981 1.01561 0
M  V30 15511 O 1484.15 -1.37327 1.29126 0
M  V30 15512 C 1481.28 -2.18499 2.58797 0
M  V30 15513 C 1480.32 -1.95119 3.79251 0
M  V30 15514 S 1481.16 -1.17995 5.22338 0
M  V30 15515 C 1482.31 -2.49012 5.74233 0
M  V30 15516 H 1482.55 -0.435954 2.94086 0
M  V30 15517 H 1480.08 -0.108251 1.5402 0
M  V30 15518 H 1482.04 -2.93089 2.87418 0
M  V30 15519 H 1480.7 -2.60714 1.75178 0
M  V30 15520 H 1479.89 -2.91268 4.11314 0
M  V30 15521 H 1479.49 -1.28654 3.51175 0
M  V30 15522 H 1481.79 -3.44932 5.83119 0
M  V30 15523 H 1482.73 -2.21513 6.7256 0
M  V30 15524 H 1483.14 -2.5775 5.0222 0
M  V30 15525 N 1482.53 -1.56697 -0.168486 0
M  V30 15526 C 1483.46 -1.99659 -1.21073 0
M  V30 15527 C 1484.45 -0.872625 -1.46011 0
M  V30 15528 O 1485.63 -1.13891 -1.57297 0
M  V30 15529 C 1482.76 -2.35889 -2.54899 0
M  V30 15530 C 1481.71 -3.51272 -2.44524 0
M  V30 15531 C 1481.04 -3.73253 -3.82866 0
M  V30 15532 C 1482.34 -4.84631 -1.94756 0
M  V30 15533 H 1484.03 -2.86974 -0.853593 0
M  V30 15534 H 1481.58 -1.38065 -0.409165 0
M  V30 15535 H 1483.53 -2.64542 -3.28017 0
M  V30 15536 H 1482.26 -1.45486 -2.92406 0
M  V30 15537 H 1480.92 -3.22751 -1.7386 0
M  V30 15538 H 1480.56 -2.80136 -4.17772 0
M  V30 15539 H 1480.26 -4.5089 -3.76792 0
M  V30 15540 H 1481.79 -4.04309 -4.57566 0
M  V30 15541 H 1483.2 -5.12142 -2.5765 0
M  V30 15542 H 1481.6 -5.65925 -1.99623 0
M  V30 15543 H 1482.67 -4.76436 -0.902021 0
M  V30 15544 N 1484.01 0.437135 -1.51416 0
M  V30 15545 C 1485.26 1.18421 -1.63771 0
M  V30 15546 C 1485.58 1.91718 -0.356282 0
M  V30 15547 O 1484.85 1.85566 0.627863 0
M  V30 15548 H 1483.43 0.440125 -0.603572 0
M  V30 15549 H 1486.09 0.501155 -1.88347 0
M  V30 15550 H 1485.19 1.91367 -2.46546 0
M  V30 15551 N 1485.49 1.41566 0.692592 0
M  V30 15552 C 1486.4 1.46014 1.83622 0
M  V30 15553 C 1487.42 0.350453 1.70434 0
M  V30 15554 O 1488.59 0.598634 1.92298 0
M  V30 15555 C 1485.66 1.34308 3.19628 0
M  V30 15556 C 1484.72 2.55617 3.44904 0
M  V30 15557 C 1483.95 2.4446 4.74421 0
M  V30 15558 O 1484.17 1.47078 5.51112 0
M  V30 15559 O 1483.11 3.34272 5.00546 0
M  V30 15560 H 1486.93 2.42504 1.82826 0
M  V30 15561 H 1484.52 1.23136 0.846039 0
M  V30 15562 H 1486.4 1.30075 4.00822 0
M  V30 15563 H 1485.08 0.409343 3.21101 0
M  V30 15564 H 1483.98 2.65426 2.63628 0
M  V30 15565 H 1485.32 3.47829 3.48247 0
M  V30 15566 N 1486.97 -0.927146 1.27443 0
M  V30 15567 C 1487.93 -2.00938 1.10257 0
M  V30 15568 C 1488.93 -1.60733 0.0463898 0
M  V30 15569 O 1490.12 -1.71752 0.291029 0
M  V30 15570 C 1487.25 -3.34047 0.680115 0
M  V30 15571 H 1488.45 -2.17615 2.06358 0
M  V30 15572 H 1486 -1.10802 1.10239 0
M  V30 15573 H 1486.73 -3.23069 -0.282259 0
M  V30 15574 H 1486.52 -3.64585 1.44291 0
M  V30 15575 H 1488.01 -4.13523 0.582126 0
M  V30 15576 N 1488.45 -1.09474 -1.13372 0
M  V30 15577 C 1489.69 -0.831091 -1.84659 0
M  V30 15578 C 1490.02 0.643294 -1.83554 0
M  V30 15579 O 1489.28 1.48958 -1.26925 0
M  V30 15580 C 1489.58 -1.31208 -3.32444 0
M  V30 15581 C 1489.24 -2.79617 -3.5373 0
M  V30 15582 C 1487.9 -3.20147 -3.59248 0
M  V30 15583 C 1490.26 -3.75303 -3.61659 0
M  V30 15584 C 1487.58 -4.55135 -3.70228 0
M  V30 15585 C 1489.94 -5.1008 -3.74167 0
M  V30 15586 C 1488.6 -5.50199 -3.77938 0
M  V30 15587 H 1487.87 -0.304118 -0.675717 0
M  V30 15588 H 1490.52 -1.36961 -1.33843 0
M  V30 15589 H 1488.82 -0.693379 -3.85616 0
M  V30 15590 H 1490.52 -1.08469 -3.86051 0
M  V30 15591 H 1487.11 -2.47253 -3.50091 0
M  V30 15592 H 1491.29 -3.45103 -3.56676 0
M  V30 15593 H 1486.55 -4.85656 -3.71414 0
M  V30 15594 H 1490.72 -5.84077 -3.79245 0
M  V30 15595 H 1488.35 -6.54794 -3.86198 0
M  V30 15596 N 1489.92 1.30607 -0.882012 0
M  V30 15597 C 1491.17 1.95869 -0.497978 0
M  V30 15598 C 1491.49 1.69991 0.955405 0
M  V30 15599 O 1490.76 1.02188 1.67136 0
M  V30 15600 H 1489.34 0.724699 -0.181165 0
M  V30 15601 H 1492.01 1.59193 -1.12444 0
M  V30 15602 H 1491.1 3.04917 -0.665754 0
M  V30 15603 N 1491.4 0.642663 1.43901 0
M  V30 15604 C 1492.63 0.157518 2.06801 0
M  V30 15605 C 1493.05 -1.16361 1.47789 0
M  V30 15606 O 1492.41 -1.71645 0.583747 0
M  V30 15607 C 1492.46 0.0685904 3.60535 0
M  V30 15608 O 1491.56 -0.972183 4.00777 0
M  V30 15609 H 1490.9 0.0900406 0.657867 0
M  V30 15610 H 1493.43 0.882604 1.84584 0
M  V30 15611 H 1493.44 -0.118212 4.07829 0
M  V30 15612 H 1492.12 1.03307 4.02865 0
M  V30 15613 H 1490.7 -0.75902 3.65094 0
M  V30 15614 N 1492.88 -1.52852 0.383918 0
M  V30 15615 C 1494.13 -2.01112 -0.199594 0
M  V30 15616 C 1494.45 -1.27237 -1.47769 0
M  V30 15617 O 1493.72 -0.390873 -1.91961 0
M  V30 15618 H 1492.3 -0.743047 -0.0767466 0
M  V30 15619 H 1494.96 -1.8799 0.51437 0
M  V30 15620 H 1494.06 -3.09347 -0.413627 0
M  V30 15621 N 1494.36 -0.113586 -1.5719 0
M  V30 15622 C 1495.61 0.54572 -1.95008 0
M  V30 15623 C 1495.93 1.67031 -0.996541 0
M  V30 15624 O 1495.19 1.9569 -0.0194353 0
M  V30 15625 C 1495.49 1.1238 -3.39272 0
M  V30 15626 C 1495.15 0.12112 -4.50737 0
M  V30 15627 C 1493.82 -0.154607 -4.80952 0
M  V30 15628 C 1496.17 -0.562502 -5.18156 0
M  V30 15629 C 1493.5 -1.12033 -5.75904 0
M  V30 15630 C 1495.85 -1.51682 -6.14146 0
M  V30 15631 C 1494.51 -1.80059 -6.42756 0
M  V30 15632 H 1493.78 0.199693 -0.713585 0
M  V30 15633 H 1496.43 -0.193344 -1.90521 0
M  V30 15634 H 1494.73 1.93951 -3.40426 0
M  V30 15635 H 1496.43 1.64195 -3.65843 0
M  V30 15636 H 1493.02 0.34621 -4.27199 0
M  V30 15637 H 1497.21 -0.362645 -4.94973 0
M  V30 15638 H 1492.46 -1.34699 -5.96377 0
M  V30 15639 H 1496.64 -2.05225 -6.65474 0
M  V30 15640 H 1494.26 -2.55046 -7.16139 0
M  V30 15641 N 1495.84 1.56784 0.160173 0
M  V30 15642 C 1497.08 1.82891 0.876278 0
M  V30 15643 C 1497.42 0.693173 1.81408 0
M  V30 15644 O 1496.69 -0.304136 1.92107 0
M  V30 15645 C 1496.97 3.19439 1.66226 0
M  V30 15646 C 1496.83 4.43557 0.746831 0
M  V30 15647 C 1498.15 3.53053 2.62758 0
M  V30 15648 H 1495.27 0.665285 0.31712 0
M  V30 15649 H 1497.91 1.89469 0.142004 0
M  V30 15650 H 1496.06 3.13962 2.28823 0
M  V30 15651 H 1497.73 4.61109 0.132876 0
M  V30 15652 H 1495.97 4.33764 0.0555625 0
M  V30 15653 H 1496.64 5.35675 1.33253 0
M  V30 15654 H 1499.12 3.59054 2.10284 0
M  V30 15655 H 1498 4.4965 3.14811 0
M  V30 15656 H 1498.26 2.78329 3.4349 0
M  V30 15657 N 1497.32 -0.429099 1.51646 0
M  V30 15658 C 1498.59 -1.18958 1.55269 0
M  V30 15659 C 1498.97 -2.08633 0.321816 0
M  V30 15660 O 1498.32 -2.1775 -0.69261 0
M  V30 15661 C 1498.53 -1.98427 2.87102 0
M  V30 15662 C 1499.88 -2.55185 3.39361 0
M  V30 15663 O 1500.9 -2.08629 2.88708 0
M  V30 15664 O 1499.76 -3.40119 4.27763 0
M  V30 15665 H 1496.86 -0.542041 0.624596 0
M  V30 15666 H 1499.4 -0.437499 1.63964 0
M  V30 15667 H 1498.17 -1.32613 3.68143 0
M  V30 15668 H 1497.8 -2.80683 2.81608 0
M  V30 15669 N 1498.79 -1.41931 -0.685074 0
M  V30 15670 C 1500.02 -1.45432 -1.47866 0
M  V30 15671 C 1500.44 -0.0641302 -1.87991 0
M  V30 15672 O 1499.8 0.935081 -1.55325 0
M  V30 15673 C 1499.85 -2.37801 -2.71077 0
M  V30 15674 O 1498.95 -1.84229 -3.68963 0
M  V30 15675 H 1498.29 -0.493156 -0.444627 0
M  V30 15676 H 1500.82 -1.86508 -0.841177 0
M  V30 15677 H 1500.83 -2.54033 -3.19266 0
M  V30 15678 H 1499.51 -3.38807 -2.41211 0
M  V30 15679 H 1498.09 -1.775 -3.27945 0
M  V30 15680 N 1500.27 0.920374 -1.27933 0
M  V30 15681 C 1501.52 1.67131 -1.1487 0
M  V30 15682 C 1501.85 1.91816 0.303343 0
M  V30 15683 O 1501.13 1.51379 1.22125 0
M  V30 15684 C 1501.41 3.03332 -1.94066 0
M  V30 15685 C 1501.26 2.85842 -3.47296 0
M  V30 15686 C 1502.58 4.03773 -1.75087 0
M  V30 15687 H 1499.7 0.606537 -0.418666 0
M  V30 15688 H 1502.34 1.06755 -1.57173 0
M  V30 15689 H 1500.49 3.54869 -1.58116 0
M  V30 15690 H 1502.16 2.41367 -3.93115 0
M  V30 15691 H 1500.41 2.21035 -3.73264 0
M  V30 15692 H 1501.08 3.82535 -3.97958 0
M  V30 15693 H 1503.55 3.61274 -2.06447 0
M  V30 15694 H 1502.43 4.97048 -2.32882 0
M  V30 15695 H 1502.69 4.36512 -0.700665 0
M  V30 15696 N 1501.75 1.10074 1.1279 0
M  V30 15697 C 1502.7 0.746173 2.18405 0
M  V30 15698 C 1503.67 -0.275751 1.63795 0
M  V30 15699 O 1504.85 -0.155876 1.90162 0
M  V30 15700 C 1501.99 0.180105 3.4463 0
M  V30 15701 C 1501.1 1.25688 4.13312 0
M  V30 15702 C 1500.24 0.652852 5.27173 0
M  V30 15703 C 1499.28 1.71046 5.87716 0
M  V30 15704 N 1498.42 1.12698 6.92996 0
M  V30 15705 H 1503.26 1.65105 2.48081 0
M  V30 15706 H 1500.79 0.824768 1.21803 0
M  V30 15707 H 1502.75 -0.165948 4.1687 0
M  V30 15708 H 1501.38 -0.688014 3.15383 0
M  V30 15709 H 1500.43 1.72011 3.39288 0
M  V30 15710 H 1501.74 2.05762 4.54382 0
M  V30 15711 H 1500.9 0.25603 6.0616 0
M  V30 15712 H 1499.64 -0.17937 4.8737 0
M  V30 15713 H 1498.64 2.11676 5.07418 0
M  V30 15714 H 1499.87 2.54547 6.29589 0
M  V30 15715 H 1497.81 0.316154 6.55238 0
M  V30 15716 H 1497.73 1.86461 7.32645 0
M  V30 15717 H 1499 0.756582 7.7582 0
M  V30 15718 N 1503.23 -1.30138 0.888926 0
M  V30 15719 C 1504.5 -1.90831 0.42928 0
M  V30 15720 C 1504.88 -1.80765 -1.09028 0
M  V30 15721 O 1504.23 -1.22741 -1.92735 0
M  V30 15722 C 1504.44 -3.36331 0.931798 0
M  V30 15723 C 1505.79 -4.13393 0.969106 0
M  V30 15724 O 1506.81 -3.45191 0.878731 0
M  V30 15725 O 1505.67 -5.35249 1.10323 0
M  V30 15726 H 1502.77 -0.816401 0.131976 0
M  V30 15727 H 1505.31 -1.38678 0.978086 0
M  V30 15728 H 1504.09 -3.37761 1.97568 0
M  V30 15729 H 1503.71 -3.95945 0.362383 0
M  V30 15730 N 1504.71 -0.650285 -1.43559 0
M  V30 15731 C 1505.64 0.0817484 -2.29054 0
M  V30 15732 C 1506.65 0.790023 -1.42346 0
M  V30 15733 O 1507.84 0.648269 -1.66312 0
M  V30 15734 C 1504.94 1.13873 -3.19196 0
M  V30 15735 C 1504.11 0.509177 -4.34426 0
M  V30 15736 C 1503.17 1.46265 -5.05463 0
M  V30 15737 O 1502.2 0.972378 -5.60833 0
M  V30 15738 N 1503.4 2.79668 -5.08691 0
M  V30 15739 H 1506.16 -0.652062 -2.92521 0
M  V30 15740 H 1503.73 -0.49285 -1.54216 0
M  V30 15741 H 1505.72 1.77732 -3.63584 0
M  V30 15742 H 1504.29 1.77454 -2.5735 0
M  V30 15743 H 1503.51 -0.308444 -3.92991 0
M  V30 15744 H 1504.8 0.0695732 -5.08752 0
M  V30 15745 H 1504.19 3.22062 -4.65072 0
M  V30 15746 H 1502.75 3.38838 -5.56805 0
M  V30 15747 N 1506.18 1.52647 -0.392018 0
M  V30 15748 C 1507.43 2.00798 0.19056 0
M  V30 15749 C 1507.75 1.28265 1.47673 0
M  V30 15750 O 1508.95 1.67142 2.13953 0
M  V30 15751 C 1507.41 3.57779 0.390148 0
M  V30 15752 C 1507.02 4.39213 -0.882933 0
M  V30 15753 C 1508.76 4.14211 0.928945 0
M  V30 15754 C 1506.67 5.87801 -0.651474 0
M  V30 15755 H 1505.6 0.750262 0.0749879 0
M  V30 15756 H 1508.25 1.7613 -0.514835 0
M  V30 15757 H 1506.63 3.78707 1.15746 0
M  V30 15758 H 1507.8 4.30051 -1.65507 0
M  V30 15759 H 1506.12 3.94015 -1.34688 0
M  V30 15760 H 1508.72 5.22884 1.11787 0
M  V30 15761 H 1509.06 3.70475 1.89878 0
M  V30 15762 H 1509.59 3.97185 0.221135 0
M  V30 15763 H 1506.33 6.35864 -1.59239 0
M  V30 15764 H 1505.85 5.99744 0.0816786 0
M  V30 15765 H 1507.53 6.46363 -0.287057 0
M  V30 15766 N 1507.66 0.121921 1.57128 0
M  V30 15767 C 1508.61 -0.844503 2.16728 0
M  V30 15768 C 1509.6 -1.2733 1.1173 0
M  V30 15769 O 1510.81 -1.2447 1.30028 0
M  V30 15770 H 1507.19 -0.290459 0.693641 0
M  V30 15771 H 1509.16 -0.317379 2.96707 0
M  V30 15772 C 1507.91 -2.08359 2.78356 0
M  V30 15773 H 1507.23 -1.76258 3.5885 0
M  V30 15774 H 1508.67 -2.73978 3.23592 0
M  V30 15775 C 1507.13 -2.87526 1.75586 0
M  V30 15776 O 1507.66 -3.83011 1.21101 0
M  V30 15777 N 1505.86 -2.51575 1.4546 0
M  V30 15778 H 1505.41 -1.73993 1.89958 0
M  V30 15779 H 1505.37 -3.0484 0.769411 0
M  V30 15780 N 1509.14 -1.56867 -0.151857 0
M  V30 15781 C 1510.37 -1.87601 -0.884347 0
M  V30 15782 C 1510.79 -0.710419 -1.74168 0
M  V30 15783 O 1510.15 0.340103 -1.78081 0
M  V30 15784 C 1510.2 -3.16887 -1.72091 0
M  V30 15785 O 1509.3 -3.00479 -2.82464 0
M  V30 15786 H 1508.64 -0.616509 -0.246603 0
M  V30 15787 H 1511.17 -2.04092 -0.144135 0
M  V30 15788 H 1511.18 -3.48785 -2.11691 0
M  V30 15789 H 1509.86 -4.01327 -1.09131 0
M  V30 15790 H 1508.43 -2.79978 -2.46306 0
M  V30 15791 N 1510.62 0.421051 -1.51871 0
M  V30 15792 C 1511.87 1.16611 -1.64574 0
M  V30 15793 C 1512.18 1.91955 -0.375835 0
M  V30 15794 O 1513.39 2.68792 -0.382481 0
M  V30 15795 C 1511.84 2.12164 -2.90714 0
M  V30 15796 C 1511.45 1.42392 -4.24769 0
M  V30 15797 C 1513.19 2.87002 -3.12778 0
M  V30 15798 C 1511.1 2.36523 -5.42043 0
M  V30 15799 H 1510.03 0.438989 -0.613029 0
M  V30 15800 H 1512.68 0.431636 -1.78351 0
M  V30 15801 H 1511.06 2.89114 -2.70608 0
M  V30 15802 H 1512.24 0.708875 -4.55315 0
M  V30 15803 H 1510.55 0.796421 -4.08713 0
M  V30 15804 H 1513.15 3.5755 -3.9757 0
M  V30 15805 H 1513.49 3.49277 -2.2652 0
M  V30 15806 H 1514.03 2.17154 -3.333 0
M  V30 15807 H 1510.77 1.78913 -6.30611 0
M  V30 15808 H 1510.29 3.06034 -5.15852 0
M  V30 15809 H 1511.96 2.97306 -5.74646 0
M  V30 15810 N 1512.1 1.42293 0.677538 0
M  V30 15811 C 1513.04 1.45787 1.81243 0
M  V30 15812 C 1514.04 0.333895 1.66077 0
M  V30 15813 O 1515.24 0.50678 1.72719 0
M  V30 15814 H 1511.62 0.456538 0.597559 0
M  V30 15815 H 1513.59 2.41398 1.75413 0
M  V30 15816 C 1512.34 1.37449 3.19379 0
M  V30 15817 H 1511.66 2.23231 3.31674 0
M  V30 15818 H 1513.1 1.43955 3.98814 0
M  V30 15819 C 1511.56 0.0889433 3.36783 0
M  V30 15820 O 1512.09 -0.859357 3.924 0
M  V30 15821 N 1510.3 0.00698476 2.90599 0
M  V30 15822 H 1509.84 0.779459 2.45524 0
M  V30 15823 H 1509.8 -0.852522 3.02621 0
M  V30 15824 N 1513.57 -0.913576 1.28419 0
M  V30 15825 C 1514.99 -1.47782 1.14094 0
M  V30 15826 C 1515.34 -1.94347 -0.269004 0
M  V30 15827 O 1514.46 -1.82474 -1.16328 0
M  V30 15828 C 1515.06 -2.6859 2.06507 0
M  V30 15829 C 1513.62 -3.21193 1.96245 0
M  V30 15830 C 1512.76 -1.939 1.98238 0
M  V30 15831 H 1515.71 -0.726271 1.41106 0
M  V30 15832 H 1515.73 -3.43858 1.62916 0
M  V30 15833 H 1515.25 -2.34668 3.09116 0
M  V30 15834 H 1513.35 -3.5984 0.966737 0
M  V30 15835 H 1513.46 -3.8643 2.83211 0
M  V30 15836 H 1511.82 -2.11006 1.42648 0
M  V30 15837 H 1512.61 -1.62273 3.02527 0
M  V30 15838 N 1515.05 -1.1067 -1.12204 0
M  V30 15839 C 1516.3 -0.845439 -1.83126 0
M  V30 15840 C 1516.61 0.631022 -1.85142 0
M  V30 15841 O 1517.82 1.00827 -2.52084 0
M  V30 15842 C 1516.28 -1.46265 -3.28838 0
M  V30 15843 C 1515.88 -2.97258 -3.35174 0
M  V30 15844 C 1517.63 -1.28088 -4.04714 0
M  V30 15845 C 1515.54 -3.52002 -4.75235 0
M  V30 15846 H 1514.47 -0.312617 -0.686139 0
M  V30 15847 H 1517.12 -1.33098 -1.26321 0
M  V30 15848 H 1515.5 -0.904781 -3.85525 0
M  V30 15849 H 1516.67 -3.59381 -2.88413 0
M  V30 15850 H 1514.99 -3.14617 -2.72773 0
M  V30 15851 H 1517.58 -1.6643 -5.08139 0
M  V30 15852 H 1517.93 -0.222682 -4.15704 0
M  V30 15853 H 1518.46 -1.80696 -3.54392 0
M  V30 15854 H 1515.2 -4.57499 -4.69441 0
M  V30 15855 H 1514.72 -2.94648 -5.22439 0
M  V30 15856 H 1516.4 -3.49967 -5.4418 0
M  V30 15857 N 1516.53 1.29665 -0.895815 0
M  V30 15858 C 1517.48 2.29791 -0.360404 0
M  V30 15859 C 1518.47 1.60617 0.538384 0
M  V30 15860 O 1519.68 1.74993 0.421616 0
M  V30 15861 H 1516.05 0.745599 -0.0979118 0
M  V30 15862 H 1518.02 2.72396 -1.21832 0
M  V30 15863 C 1516.77 3.45386 0.400451 0
M  V30 15864 H 1516.1 3.98805 -0.281915 0
M  V30 15865 H 1517.54 4.17492 0.740003 0
M  V30 15866 C 1516 2.96393 1.60165 0
M  V30 15867 O 1516.53 2.97339 2.70097 0
M  V30 15868 N 1514.73 2.52271 1.44249 0
M  V30 15869 H 1514.28 2.51701 0.548142 0
M  V30 15870 H 1514.24 2.19849 2.24753 0
M  V30 15871 N 1518.01 0.657889 1.43212 0
M  V30 15872 C 1518.96 -0.0427288 2.32561 0
M  V30 15873 C 1519.95 -0.808236 1.48875 0
M  V30 15874 O 1521.16 -0.718109 1.65055 0
M  V30 15875 H 1517.53 -0.0326049 0.751293 0
M  V30 15876 H 1519.5 0.728503 2.89371 0
M  V30 15877 C 1518.25 -0.99216 3.33244 0
M  V30 15878 H 1517.57 -0.412542 3.97666 0
M  V30 15879 H 1519.01 -1.45138 3.98385 0
M  V30 15880 C 1517.47 -2.09044 2.64201 0
M  V30 15881 O 1518 -3.17481 2.46107 0
M  V30 15882 N 1516.21 -1.85732 2.23499 0
M  V30 15883 H 1515.76 -0.975483 2.38416 0
M  V30 15884 H 1515.71 -2.5941 1.77634 0
M  V30 15885 N 1519.49 -1.52437 0.400108 0
M  V30 15886 C 1520.74 -2.00896 -0.179909 0
M  V30 15887 C 1521.05 -1.29046 -1.46991 0
M  V30 15888 O 1522.25 -1.68274 -2.13063 0
M  V30 15889 C 1520.71 -3.57981 -0.371169 0
M  V30 15890 C 1520.32 -4.38739 0.906213 0
M  V30 15891 C 1522.06 -4.14698 -0.906965 0
M  V30 15892 C 1519.97 -5.87447 0.682637 0
M  V30 15893 H 1518.9 -0.750649 -0.071008 0
M  V30 15894 H 1521.55 -1.75854 0.524169 0
M  V30 15895 H 1519.93 -3.79315 -1.13736 0
M  V30 15896 H 1521.11 -4.29167 1.67785 0
M  V30 15897 H 1519.42 -3.93296 1.36776 0
M  V30 15898 H 1522.02 -5.2347 -1.09012 0
M  V30 15899 H 1522.36 -3.71477 -1.87911 0
M  V30 15900 H 1522.89 -3.97297 -0.200068 0
M  V30 15901 H 1519.63 -6.35011 1.62608 0
M  V30 15902 H 1519.15 -5.99779 -0.0498716 0
M  V30 15903 H 1520.83 -6.46202 0.321331 0
M  V30 15904 N 1520.96 -0.130252 -1.57061 0
M  V30 15905 C 1522.19 0.535707 -2.00362 0
M  V30 15906 C 1522.61 1.58712 -1.00956 0
M  V30 15907 O 1521.97 1.81292 0.0171546 0
M  V30 15908 C 1522.02 1.12836 -3.42491 0
M  V30 15909 O 1521.12 2.24367 -3.46025 0
M  V30 15910 H 1520.47 0.132735 -0.650598 0
M  V30 15911 H 1523 -0.222047 -2.03392 0
M  V30 15912 H 1523.01 1.46115 -3.80939 0
M  V30 15913 H 1521.68 0.358304 -4.14354 0
M  V30 15914 H 1520.26 1.92443 -3.19406 0
M  V30 15915 N 1522.44 1.56945 0.143535 0
M  V30 15916 C 1523.67 1.88067 0.874385 0
M  V30 15917 C 1524.09 0.719645 1.73789 0
M  V30 15918 O 1523.45 -0.330654 1.78259 0
M  V30 15919 C 1523.5 3.17795 1.70408 0
M  V30 15920 O 1522.6 3.01973 2.80867 0
M  V30 15921 H 1521.94 0.617808 0.24333 0
M  V30 15922 H 1524.47 2.04165 0.133309 0
M  V30 15923 H 1524.48 3.49903 2.09838 0
M  V30 15924 H 1523.16 4.019 1.07001 0
M  V30 15925 H 1521.74 2.8128 2.44818 0
M  V30 15926 N 1523.92 -0.412991 1.52093 0
M  V30 15927 C 1524.87 -1.50294 1.75158 0
M  V30 15928 C 1525.84 -1.55119 0.593902 0
M  V30 15929 O 1527.02 -1.71751 0.831032 0
M  V30 15930 C 1524.16 -2.87781 1.90463 0
M  V30 15931 C 1523.28 -2.92295 3.181 0
M  V30 15932 C 1522.41 -4.21056 3.23859 0
M  V30 15933 C 1521.45 -4.1953 4.45714 0
M  V30 15934 N 1520.59 -5.39857 4.48886 0
M  V30 15935 H 1525.43 -1.29927 2.68185 0
M  V30 15936 H 1522.96 -0.630741 1.32891 0
M  V30 15937 H 1524.92 -3.67588 1.9732 0
M  V30 15938 H 1523.55 -3.06651 1.00822 0
M  V30 15939 H 1522.6 -2.05002 3.20434 0
M  V30 15940 H 1523.92 -2.87031 4.0794 0
M  V30 15941 H 1523.07 -5.09253 3.29767 0
M  V30 15942 H 1521.81 -4.2901 2.31952 0
M  V30 15943 H 1520.81 -3.29724 4.39957 0
M  V30 15944 H 1522.04 -4.1322 5.38912 0
M  V30 15945 H 1519.99 -5.48486 3.59861 0
M  V30 15946 H 1519.9 -5.36572 5.32566 0
M  V30 15947 H 1521.17 -6.30018 4.59018 0
M  V30 15948 N 1525.4 -1.4265 -0.669982 0
M  V30 15949 C 1526.33 -1.4094 -1.79475 0
M  V30 15950 C 1527.31 -0.273018 -1.60292 0
M  V30 15951 O 1528.49 -0.463994 -1.827 0
M  V30 15952 C 1525.62 -1.20489 -3.16544 0
M  V30 15953 C 1524.67 -2.37184 -3.54466 0
M  V30 15954 S 1525.5 -3.99722 -3.56346 0
M  V30 15955 C 1526.66 -3.81624 -4.96099 0
M  V30 15956 H 1526.89 -2.36119 -1.80652 0
M  V30 15957 H 1524.42 -1.2948 -0.841092 0
M  V30 15958 H 1526.38 -1.09377 -3.9566 0
M  V30 15959 H 1525.04 -0.268876 -3.12947 0
M  V30 15960 H 1524.23 -2.18636 -4.54108 0
M  V30 15961 H 1523.84 -2.44836 -2.82722 0
M  V30 15962 H 1526.13 -3.42912 -5.8431 0
M  V30 15963 H 1527.07 -4.8096 -5.19696 0
M  V30 15964 H 1527.48 -3.14397 -4.68844 0
M  V30 15965 N 1526.88 0.906753 -1.28902 0
M  V30 15966 C 1528.12 1.65903 -1.16636 0
M  V30 15967 C 1528.46 1.92127 0.282981 0
M  V30 15968 O 1527.73 1.52666 1.20513 0
M  V30 15969 C 1528.01 3.01257 -1.97272 0
M  V30 15970 C 1527.87 2.82143 -3.50308 0
M  V30 15971 C 1529.19 4.01893 -1.7936 0
M  V30 15972 H 1526.31 0.602063 -0.425076 0
M  V30 15973 H 1528.95 1.05081 -1.58297 0
M  V30 15974 H 1527.1 3.53172 -1.61871 0
M  V30 15975 H 1528.77 2.37184 -3.95653 0
M  V30 15976 H 1527.01 2.17063 -3.75588 0
M  V30 15977 H 1527.68 3.78293 -4.01993 0
M  V30 15978 H 1530.16 3.59064 -2.10267 0
M  V30 15979 H 1529.04 4.9455 -2.38141 0
M  V30 15980 H 1529.3 4.35745 -0.746923 0
M  V30 15981 N 1528.36 1.11264 1.11616 0
M  V30 15982 C 1529.3 0.769295 2.17602 0
M  V30 15983 C 1530.27 -0.258362 1.64078 0
M  V30 15984 O 1531.46 -0.135698 1.90317 0
M  V30 15985 C 1528.6 0.216647 3.44419 0
M  V30 15986 C 1527.71 1.30064 4.11955 0
M  V30 15987 C 1526.85 0.708729 5.26451 0
M  V30 15988 C 1525.88 1.7727 5.85868 0
M  V30 15989 N 1525.02 1.20042 6.91762 0
M  V30 15990 H 1529.86 1.67727 2.46316 0
M  V30 15991 H 1527.4 0.83764 1.20921 0
M  V30 15992 H 1529.36 -0.121724 4.17022 0
M  V30 15993 H 1527.99 -0.654525 3.16095 0
M  V30 15994 H 1527.04 1.756 3.37445 0
M  V30 15995 H 1528.35 2.1057 4.52174 0
M  V30 15996 H 1527.5 0.320307 6.05854 0
M  V30 15997 H 1526.24 -0.127668 4.87533 0
M  V30 15998 H 1525.25 2.17046 5.05145 0
M  V30 15999 H 1526.47 2.6121 6.26854 0
M  V30 16000 H 1524.42 0.385633 6.54866 0
M  V30 16001 H 1524.34 1.94221 7.30626 0
M  V30 16002 H 1525.6 0.838825 7.74974 0
M  V30 16003 N 1529.83 -1.29188 0.902679 0
M  V30 16004 C 1531.08 -1.96092 0.540328 0
M  V30 16005 C 1531.43 -1.6984 -0.903997 0
M  V30 16006 O 1530.73 -1.00257 -1.63276 0
M  V30 16007 C 1530.92 -3.48951 0.772542 0
M  V30 16008 C 1530.75 -3.90062 2.23789 0
M  V30 16009 C 1529.52 -4.14782 2.8859 0
M  V30 16010 C 1531.72 -4.01557 3.21335 0
M  V30 16011 N 1529.7 -4.42484 4.25536 0
M  V30 16012 C 1531.07 -4.33346 4.43409 0
M  V30 16013 C 1533.13 -3.84043 3.16884 0
M  V30 16014 C 1531.83 -4.49444 5.61598 0
M  V30 16015 C 1533.86 -4.01353 4.34362 0
M  V30 16016 C 1533.22 -4.33503 5.55207 0
M  V30 16017 H 1529.32 -0.741839 0.247383 0
M  V30 16018 H 1531.9 -1.56066 1.16411 0
M  V30 16019 H 1530.07 -3.87991 0.178119 0
M  V30 16020 H 1531.8 -4.02956 0.375328 0
M  V30 16021 H 1528.56 -4.08655 2.3937 0
M  V30 16022 H 1528.98 -4.60438 4.96312 0
M  V30 16023 H 1533.62 -3.58247 2.24541 0
M  V30 16024 H 1531.34 -4.74075 6.5443 0
M  V30 16025 H 1534.93 -3.89249 4.32408 0
M  V30 16026 H 1533.81 -4.46617 6.44595 0
M  V30 16027 N 1531.31 -0.665475 -1.42861 0
M  V30 16028 C 1532.24 0.0686045 -2.28097 0
M  V30 16029 C 1533.22 0.81788 -1.40533 0
M  V30 16030 O 1534.41 0.81493 -1.69974 0
M  V30 16031 C 1531.53 1.10416 -3.20197 0
M  V30 16032 C 1530.58 0.451532 -4.24103 0
M  V30 16033 S 1531.41 -0.783994 -5.2973 0
M  V30 16034 C 1532.57 0.250718 -6.25398 0
M  V30 16035 H 1532.8 -0.654401 -2.90008 0
M  V30 16036 H 1530.33 -0.454708 -1.47553 0
M  V30 16037 H 1532.29 1.69657 -3.738 0
M  V30 16038 H 1530.95 1.79955 -2.57439 0
M  V30 16039 H 1530.15 1.23259 -4.88695 0
M  V30 16040 H 1529.75 -0.0670626 -3.7394 0
M  V30 16041 H 1532.04 1.11326 -6.68291 0
M  V30 16042 H 1532.98 -0.360495 -7.07182 0
M  V30 16043 H 1533.39 0.592017 -5.61387 0
M  V30 16044 N 1532.79 1.52222 -0.408187 0
M  V30 16045 C 1533.72 2.29892 0.408868 0
M  V30 16046 C 1534.7 1.34063 1.04695 0
M  V30 16047 O 1535.89 1.6297 1.05615 0
M  V30 16048 C 1533.02 3.11964 1.52629 0
M  V30 16049 C 1531.97 4.15833 1.01326 0
M  V30 16050 C 1531.3 4.86244 2.2242 0
M  V30 16051 C 1532.6 5.22256 0.0679573 0
M  V30 16052 H 1534.29 2.98443 -0.23923 0
M  V30 16053 H 1531.84 1.43528 -0.116496 0
M  V30 16054 H 1533.79 3.65067 2.10486 0
M  V30 16055 H 1532.51 2.41181 2.20225 0
M  V30 16056 H 1531.17 3.63739 0.4571 0
M  V30 16057 H 1530.82 4.11991 2.88569 0
M  V30 16058 H 1530.52 5.56461 1.88746 0
M  V30 16059 H 1532.04 5.42159 2.80885 0
M  V30 16060 H 1533.46 5.70604 0.555295 0
M  V30 16061 H 1531.85 5.9983 -0.179934 0
M  V30 16062 H 1532.92 4.76892 -0.877599 0
M  V30 16063 N 1534.27 0.138579 1.5699 0
M  V30 16064 C 1535.68 -0.217898 1.58106 0
M  V30 16065 C 1535.88 -1.65293 1.15241 0
M  V30 16066 O 1534.94 -2.37805 0.848815 0
M  V30 16067 C 1536.25 0.033211 3.00682 0
M  V30 16068 C 1537.8 -0.0311593 3.12984 0
M  V30 16069 C 1538.28 0.192508 4.57595 0
M  V30 16070 N 1539.77 0.139147 4.62991 0
M  V30 16071 C 1540.5 0.286837 5.72682 0
M  V30 16072 N 1540 0.491784 6.91052 0
M  V30 16073 N 1541.79 0.225032 5.61649 0
M  V30 16074 H 1533.94 1.07567 1.83148 0
M  V30 16075 H 1536.2 0.425143 0.847324 0
M  V30 16076 H 1535.91 1.02605 3.364 0
M  V30 16077 H 1535.78 -0.689972 3.70836 0
M  V30 16078 H 1538.17 -1.01454 2.77112 0
M  V30 16079 H 1538.25 0.724219 2.45334 0
M  V30 16080 H 1537.9 1.17295 4.9417 0
M  V30 16081 H 1537.83 -0.583092 5.23362 0
M  V30 16082 H 1540.32 -0.0149467 3.77897 0
M  V30 16083 H 1540.63 0.594813 7.70508 0
M  V30 16084 H 1538.98 0.528002 6.92991 0
M  V30 16085 H 1542.17 0.0657415 4.68054 0
M  V30 16086 H 1542.34 0.343569 6.47089 0
M  V30 16087 N 1535.75 -1.57019 -0.13521 0
M  V30 16088 C 1536.99 -1.83178 -0.844308 0
M  V30 16089 C 1537.31 -0.7217 -1.81799 0
M  V30 16090 O 1538.51 -0.869232 -2.57209 0
M  V30 16091 C 1536.97 -3.2471 -1.55214 0
M  V30 16092 C 1536.58 -4.43685 -0.620268 0
M  V30 16093 C 1538.32 -3.60133 -2.24732 0
M  V30 16094 C 1536.23 -5.76242 -1.3304 0
M  V30 16095 H 1535.16 -0.683175 -0.319041 0
M  V30 16096 H 1537.81 -1.83243 -0.0970242 0
M  V30 16097 H 1536.19 -3.19067 -2.34547 0
M  V30 16098 H 1537.37 -4.60591 0.138685 0
M  V30 16099 H 1535.68 -4.16387 -0.0328906 0
M  V30 16100 H 1538.28 -4.56431 -2.78522 0
M  V30 16101 H 1538.62 -2.86767 -3.01779 0
M  V30 16102 H 1539.15 -3.67489 -1.52305 0
M  V30 16103 H 1535.89 -6.52734 -0.60155 0
M  V30 16104 H 1535.41 -5.63251 -2.06176 0
M  V30 16105 H 1537.09 -6.19445 -1.86808 0
M  V30 16106 N 1537.22 0.404919 -1.52309 0
M  V30 16107 C 1538.47 1.14859 -1.65802 0
M  V30 16108 C 1538.79 1.91546 -0.396174 0
M  V30 16109 O 1539.99 2.68372 -0.410969 0
M  V30 16110 C 1538.45 2.09068 -2.92948 0
M  V30 16111 C 1538.06 1.37878 -4.26255 0
M  V30 16112 C 1539.8 2.83669 -3.15804 0
M  V30 16113 C 1537.71 2.30761 -5.44521 0
M  V30 16114 H 1536.64 0.432463 -0.61765 0
M  V30 16115 H 1539.29 0.412695 -1.78799 0
M  V30 16116 H 1537.67 2.86228 -2.7366 0
M  V30 16117 H 1538.84 0.660543 -4.56041 0
M  V30 16118 H 1537.16 0.753026 -4.09534 0
M  V30 16119 H 1539.76 3.53313 -4.0134 0
M  V30 16120 H 1540.1 3.46855 -2.30212 0
M  V30 16121 H 1540.63 2.13607 -3.35584 0
M  V30 16122 H 1537.37 1.72214 -6.32473 0
M  V30 16123 H 1536.89 3.00546 -5.19069 0
M  V30 16124 H 1538.57 2.91195 -5.77767 0
M  V30 16125 N 1538.7 1.43003 0.662408 0
M  V30 16126 C 1539.93 1.47766 1.45533 0
M  V30 16127 C 1540.35 0.0940298 1.87865 0
M  V30 16128 O 1539.71 -0.910252 1.56793 0
M  V30 16129 C 1539.76 2.42084 2.6726 0
M  V30 16130 O 1538.86 1.90076 3.65985 0
M  V30 16131 H 1538.2 0.500167 0.436725 0
M  V30 16132 H 1540.73 1.87823 0.811399 0
M  V30 16133 H 1540.74 2.5908 3.15185 0
M  V30 16134 H 1539.42 3.42601 2.3579 0
M  V30 16135 H 1538 1.82695 3.2508 0
M  V30 16136 N 1540.18 -0.899904 1.29381 0
M  V30 16137 C 1541.14 -1.98554 1.14494 0
M  V30 16138 C 1542.14 -1.60599 0.0804732 0
M  V30 16139 O 1543.33 -1.71096 0.327395 0
M  V30 16140 C 1540.47 -3.32529 0.750818 0
M  V30 16141 H 1541.66 -2.13189 2.10928 0
M  V30 16142 H 1539.21 -1.08438 1.12565 0
M  V30 16143 H 1539.95 -3.23595 -0.213668 0
M  V30 16144 H 1539.73 -3.61443 1.51992 0
M  V30 16145 H 1541.22 -4.12195 0.669709 0
M  V30 16146 N 1541.66 -1.11854 -1.11024 0
M  V30 16147 C 1542.59 -0.724602 -2.1639 0
M  V30 16148 C 1543.57 0.281302 -1.60148 0
M  V30 16149 O 1544.75 0.176699 -1.8767 0
M  V30 16150 C 1541.88 -0.0715375 -3.38624 0
M  V30 16151 C 1540.93 -1.04328 -4.13543 0
M  V30 16152 S 1541.76 -2.5679 -4.69914 0
M  V30 16153 C 1542.92 -1.92797 -5.95466 0
M  V30 16154 H 1543.15 -1.61713 -2.49472 0
M  V30 16155 H 1540.68 -0.937015 -1.22717 0
M  V30 16156 H 1542.64 0.298896 -4.0941 0
M  V30 16157 H 1541.3 0.798007 -3.03794 0
M  V30 16158 H 1540.49 -0.533855 -5.01165 0
M  V30 16159 H 1540.1 -1.35636 -3.48538 0
M  V30 16160 H 1542.39 -1.26703 -6.65547 0
M  V30 16161 H 1543.33 -2.78434 -6.51061 0
M  V30 16162 H 1543.74 -1.38633 -5.47212 0
M  V30 16163 N 1543.14 1.28707 -0.909517 0
M  V30 16164 C 1544.38 1.95443 -0.541281 0
M  V30 16165 C 1544.72 1.71457 0.911934 0
M  V30 16166 O 1543.99 1.03312 1.64794 0
M  V30 16167 C 1544.27 3.50019 -0.846097 0
M  V30 16168 C 1544.13 3.83423 -2.35173 0
M  V30 16169 C 1545.45 4.3879 -0.339328 0
M  V30 16170 H 1542.56 0.709869 -0.198128 0
M  V30 16171 H 1545.21 1.52151 -1.13799 0
M  V30 16172 H 1543.36 3.87025 -0.338262 0
M  V30 16173 H 1545.03 3.5631 -2.92986 0
M  V30 16174 H 1543.27 3.30618 -2.80846 0
M  V30 16175 H 1543.94 4.91348 -2.51557 0
M  V30 16176 H 1546.42 4.08832 -0.774312 0
M  V30 16177 H 1545.29 5.45809 -0.581722 0
M  V30 16178 H 1545.56 4.35514 0.760244 0
M  V30 16179 N 1544.61 0.673042 1.42506 0
M  V30 16180 C 1545.86 0.1918 2.00786 0
M  V30 16181 C 1546.18 -1.20814 1.53829 0
M  V30 16182 O 1547.38 -1.78566 2.04515 0
M  V30 16183 C 1545.84 0.292045 3.58713 0
M  V30 16184 C 1545.45 1.69593 4.14659 0
M  V30 16185 C 1547.19 -0.130575 4.24299 0
M  V30 16186 C 1545.1 1.74904 5.64945 0
M  V30 16187 H 1544.03 0.0679452 0.750932 0
M  V30 16188 H 1546.68 0.837968 1.63249 0
M  V30 16189 H 1545.06 -0.421985 3.93745 0
M  V30 16190 H 1546.23 2.4369 3.9109 0
M  V30 16191 H 1544.55 2.06625 3.61518 0
M  V30 16192 H 1547.15 -0.11102 5.34585 0
M  V30 16193 H 1547.49 -1.16552 3.99651 0
M  V30 16194 H 1548.02 0.532386 3.94221 0
M  V30 16195 H 1544.76 2.76374 5.94388 0
M  V30 16196 H 1544.28 1.0516 5.9051 0
M  V30 16197 H 1545.96 1.50168 6.29332 0
M  V30 16198 N 1546.09 -1.52004 0.416254 0
M  V30 16199 C 1547.34 -2.01076 -0.158591 0
M  V30 16200 C 1547.65 -1.30598 -1.45614 0
M  V30 16201 O 1548.86 -1.70525 -2.11267 0
M  V30 16202 C 1547.32 -3.58354 -0.333179 0
M  V30 16203 C 1546.92 -4.37753 0.952696 0
M  V30 16204 C 1548.67 -4.15637 -0.86293 0
M  V30 16205 C 1546.58 -5.8669 0.744905 0
M  V30 16206 H 1545.51 -0.75136 -0.0630423 0
M  V30 16207 H 1548.16 -1.75288 0.542791 0
M  V30 16208 H 1546.54 -3.805 -1.09706 0
M  V30 16209 H 1547.71 -4.27364 1.72328 0
M  V30 16210 H 1546.03 -3.91823 1.40939 0
M  V30 16211 H 1548.62 -5.24596 -1.03454 0
M  V30 16212 H 1548.97 -3.73449 -1.8396 0
M  V30 16213 H 1549.5 -3.97486 -0.157918 0
M  V30 16214 H 1546.24 -6.3325 1.69334 0
M  V30 16215 H 1545.76 -5.99798 0.0137458 0
M  V30 16216 H 1547.44 -6.45824 0.389851 0
M  V30 16217 N 1547.57 -0.146903 -1.56914 0
M  V30 16218 C 1548.82 0.504195 -1.95297 0
M  V30 16219 C 1549.13 1.66019 -1.03426 0
M  V30 16220 O 1550.34 2.37591 -1.31388 0
M  V30 16221 C 1548.79 0.948348 -3.47181 0
M  V30 16222 C 1548.4 -0.18071 -4.47635 0
M  V30 16223 C 1550.15 1.56924 -3.9443 0
M  V30 16224 C 1548.05 0.281707 -5.90729 0
M  V30 16225 H 1546.98 0.192127 -0.729111 0
M  V30 16226 H 1549.63 -0.231232 -1.82037 0
M  V30 16227 H 1548.02 1.73903 -3.55772 0
M  V30 16228 H 1549.19 -0.957645 -4.50739 0
M  V30 16229 H 1547.51 -0.710007 -4.10302 0
M  V30 16230 H 1550.1 1.92684 -4.98776 0
M  V30 16231 H 1550.45 2.45816 -3.35976 0
M  V30 16232 H 1550.98 0.843456 -3.88755 0
M  V30 16233 H 1547.72 -0.571839 -6.53001 0
M  V30 16234 H 1547.24 1.02452 -5.90985 0
M  V30 16235 H 1548.92 0.733746 -6.42826 0
M  V30 16236 N 1549.05 1.57088 0.126881 0
M  V30 16237 C 1550.46 1.52205 0.480175 0
M  V30 16238 C 1550.66 0.858634 1.8229 0
M  V30 16239 O 1549.72 0.437636 2.48679 0
M  V30 16240 C 1551.03 2.96974 0.471931 0
M  V30 16241 C 1552.58 3.08021 0.556037 0
M  V30 16242 C 1553.06 4.54335 0.57826 0
M  V30 16243 N 1554.55 4.58758 0.639922 0
M  V30 16244 C 1555.28 5.69372 0.678434 0
M  V30 16245 N 1554.78 6.89503 0.67507 0
M  V30 16246 N 1556.57 5.57459 0.720845 0
M  V30 16247 H 1548.72 1.98604 -0.753008 0
M  V30 16248 H 1550.99 0.90666 -0.276895 0
M  V30 16249 H 1550.69 3.48849 -0.44687 0
M  V30 16250 H 1550.57 3.53994 1.3026 0
M  V30 16251 H 1552.95 2.56153 1.46526 0
M  V30 16252 H 1553.03 2.54009 -0.302171 0
M  V30 16253 H 1552.68 5.06847 -0.326884 0
M  V30 16254 H 1552.61 5.06151 1.45324 0
M  V30 16255 H 1555.1 3.72285 0.649005 0
M  V30 16256 H 1555.41 7.6956 0.706862 0
M  V30 16257 H 1553.76 6.92023 0.64262 0
M  V30 16258 H 1556.95 4.62517 0.720783 0
M  V30 16259 H 1557.12 6.43675 0.747392 0
M  V30 16260 N 1550.53 -0.396836 1.52522 0
M  V30 16261 C 1551.47 -1.50474 1.77371 0
M  V30 16262 C 1552.47 -1.56792 0.641307 0
M  V30 16263 O 1553.67 -1.60052 0.823621 0
M  V30 16264 H 1550.05 -0.500667 0.561103 0
M  V30 16265 H 1552.02 -1.26706 2.70163 0
M  V30 16266 C 1550.77 -2.87702 1.95251 0
M  V30 16267 H 1550.09 -2.83588 2.81812 0
M  V30 16268 H 1551.53 -3.64482 2.16631 0
M  V30 16269 C 1549.99 -3.29053 0.722904 0
M  V30 16270 O 1550.52 -4.01567 -0.103398 0
M  V30 16271 N 1548.73 -2.85246 0.555263 0
M  V30 16272 H 1548.27 -2.26403 1.22879 0
M  V30 16273 H 1548.23 -3.13272 -0.266113 0
M  V30 16274 N 1552.01 -1.43353 -0.654814 0
M  V30 16275 C 1553.23 -1.48536 -1.44748 0
M  V30 16276 C 1553.66 -0.103991 -1.87812 0
M  V30 16277 O 1553.01 0.901924 -1.57274 0
M  V30 16278 C 1553.06 -2.43498 -2.65972 0
M  V30 16279 O 1552.17 -1.92014 -3.64972 0
M  V30 16280 H 1551.51 -0.502476 -0.434067 0
M  V30 16281 H 1554.04 -1.88251 -0.801427 0
M  V30 16282 H 1554.05 -2.60748 -3.13806 0
M  V30 16283 H 1552.72 -3.43847 -2.3397 0
M  V30 16284 H 1551.3 -1.84417 -3.24106 0
M  V30 16285 N 1553.48 0.89303 -1.29857 0
M  V30 16286 C 1554.71 1.6827 -1.21243 0
M  V30 16287 C 1555.13 1.86778 0.222621 0
M  V30 16288 O 1554.49 1.39291 1.1605 0
M  V30 16289 C 1554.54 3.041 -1.93792 0
M  V30 16290 O 1553.64 3.92696 -1.25951 0
M  V30 16291 H 1552.98 0.514479 -0.419771 0
M  V30 16292 H 1555.51 1.11513 -1.7154 0
M  V30 16293 H 1555.52 3.54198 -2.02504 0
M  V30 16294 H 1554.2 2.89948 -2.98166 0
M  V30 16295 H 1552.78 3.51132 -1.25541 0
M  V30 16296 N 1554.96 1.12442 1.10429 0
M  V30 16297 C 1556.24 0.791191 1.78884 0
M  V30 16298 C 1556.62 -0.719044 1.98477 0
M  V30 16299 O 1555.97 -1.65275 1.57786 0
M  V30 16300 C 1556.18 1.56632 3.11877 0
M  V30 16301 C 1557.52 1.75236 3.86752 0
M  V30 16302 O 1558.55 1.53145 3.21598 0
M  V30 16303 O 1557.41 2.12025 5.03694 0
M  V30 16304 H 1554.5 0.287788 0.775311 0
M  V30 16305 H 1557.05 1.22844 1.17078 0
M  V30 16306 H 1555.82 2.59317 2.93037 0
M  V30 16307 H 1555.44 1.12332 3.81402 0
M  V30 16308 N 1556.44 -1.28223 0.91633 0
M  V30 16309 C 1557.85 -1.76898 0.597003 0
M  V30 16310 C 1558.2 -1.74969 -0.887719 0
M  V30 16311 O 1557.33 -1.34598 -1.69447 0
M  V30 16312 C 1557.92 -3.21228 1.07694 0
M  V30 16313 C 1556.48 -3.67614 0.80849 0
M  V30 16314 C 1555.63 -2.47921 1.24219 0
M  V30 16315 H 1558.58 -1.1465 1.09732 0
M  V30 16316 H 1558.6 -3.7818 0.419531 0
M  V30 16317 H 1558.11 -3.226 2.15757 0
M  V30 16318 H 1556.21 -3.717 -0.258814 0
M  V30 16319 H 1556.33 -4.57633 1.41804 0
M  V30 16320 H 1554.69 -2.45976 0.660892 0
M  V30 16321 H 1555.47 -2.5201 2.33122 0
M  V30 16322 N 1557.92 -0.68059 -1.42147 0
M  V30 16323 C 1558.85 0.0331442 -2.29176 0
M  V30 16324 C 1559.86 0.759652 -1.4399 0
M  V30 16325 O 1561.05 0.612846 -1.6765 0
M  V30 16326 C 1558.15 1.07077 -3.2154 0
M  V30 16327 C 1557.32 0.416914 -4.35409 0
M  V30 16328 C 1556.38 1.3551 -5.08452 0
M  V30 16329 O 1555.41 0.853198 -5.62769 0
M  V30 16330 N 1556.61 2.68815 -5.14508 0
M  V30 16331 H 1559.38 -0.713963 -2.91072 0
M  V30 16332 H 1556.94 -0.525451 -1.53136 0
M  V30 16333 H 1558.93 1.6998 -3.67272 0
M  V30 16334 H 1557.5 1.71955 -2.61056 0
M  V30 16335 H 1556.72 -0.391734 -3.92249 0
M  V30 16336 H 1558.01 -0.0383564 -5.08786 0
M  V30 16337 H 1557.41 3.12125 -4.71799 0
M  V30 16338 H 1555.96 3.26951 -5.63867 0
M  V30 16339 N 1559.4 1.51781 -0.424309 0
M  V30 16340 C 1560.62 2.06387 0.145548 0
M  V30 16341 C 1561.04 1.29299 1.37576 0
M  V30 16342 O 1560.4 0.348952 1.79133 0
M  V30 16343 C 1560.45 3.58288 0.48083 0
M  V30 16344 O 1560.17 4.32463 -0.700546 0
M  V30 16345 C 1561.67 4.29364 1.10278 0
M  V30 16346 H 1558.89 0.67086 0.0136908 0
M  V30 16347 H 1561.43 1.95511 -0.599639 0
M  V30 16348 H 1559.59 3.69122 1.17591 0
M  V30 16349 H 1560 5.22839 -0.417035 0
M  V30 16350 H 1561.48 5.36776 1.28747 0
M  V30 16351 H 1561.95 3.86815 2.08017 0
M  V30 16352 H 1562.56 4.2294 0.447458 0
M  V30 16353 N 1560.87 0.155222 1.56834 0
M  V30 16354 C 1562.12 -0.493831 1.95561 0
M  V30 16355 C 1562.44 -1.65468 1.04305 0
M  V30 16356 O 1563.64 -2.36891 1.32646 0
M  V30 16357 C 1562.1 -0.929923 3.47679 0
M  V30 16358 C 1561.71 0.204447 4.47533 0
M  V30 16359 C 1563.45 -1.5483 3.95257 0
M  V30 16360 C 1561.36 -0.250375 5.9087 0
M  V30 16361 H 1560.29 -0.188258 0.73012 0
M  V30 16362 H 1562.94 0.240883 1.81912 0
M  V30 16363 H 1561.32 -1.72014 3.56689 0
M  V30 16364 H 1562.49 0.981535 4.50225 0
M  V30 16365 H 1560.81 0.731756 4.0992 0
M  V30 16366 H 1563.41 -1.90036 4.9979 0
M  V30 16367 H 1563.75 -2.44031 3.37275 0
M  V30 16368 H 1564.28 -0.822828 3.89197 0
M  V30 16369 H 1561.02 0.606461 6.52689 0
M  V30 16370 H 1560.54 -0.993164 5.9152 0
M  V30 16371 H 1562.22 -0.699645 6.43206 0
M  V30 16372 N 1562.35 -1.57153 -0.118549 0
M  V30 16373 C 1563.6 -1.84064 -0.824832 0
M  V30 16374 C 1563.91 -0.740941 -1.81023 0
M  V30 16375 O 1565.12 -0.896464 -2.56273 0
M  V30 16376 C 1563.58 -3.26338 -1.51761 0
M  V30 16377 C 1563.18 -4.44318 -0.573174 0
M  V30 16378 C 1564.93 -3.62496 -2.209 0
M  V30 16379 C 1562.83 -5.7762 -1.2692 0
M  V30 16380 H 1561.76 -0.686521 -0.311777 0
M  V30 16381 H 1564.42 -1.83336 -0.0775833 0
M  V30 16382 H 1562.8 -3.21537 -2.3115 0
M  V30 16383 H 1563.97 -4.60418 0.187529 0
M  V30 16384 H 1562.29 -4.16398 0.0112747 0
M  V30 16385 H 1564.88 -4.5936 -2.73666 0
M  V30 16386 H 1565.23 -2.89952 -2.9872 0
M  V30 16387 H 1565.76 -3.69084 -1.48399 0
M  V30 16388 H 1562.5 -6.53335 -0.532285 0
M  V30 16389 H 1562.02 -5.65406 -2.00191 0
M  V30 16390 H 1563.7 -6.21391 -1.80227 0
M  V30 16391 N 1563.83 0.388742 -1.5273 0
M  V30 16392 C 1564.79 1.45759 -1.76881 0
M  V30 16393 C 1565.79 1.47565 -0.63884 0
M  V30 16394 O 1566.98 1.48731 -0.906895 0
M  V30 16395 C 1564.11 2.85045 -1.86981 0
M  V30 16396 H 1565.31 1.25629 -2.72319 0
M  V30 16397 H 1562.86 0.620497 -1.43456 0
M  V30 16398 H 1563.6 3.1052 -0.935296 0
M  V30 16399 H 1563.38 2.85136 -2.69147 0
M  V30 16400 H 1564.87 3.62492 -2.07338 0
M  V30 16401 N 1565.31 1.43698 0.647203 0
M  V30 16402 C 1566.54 1.49085 1.43462 0
M  V30 16403 C 1566.95 0.110605 1.88476 0
M  V30 16404 O 1566.31 -0.880365 1.59862 0
M  V30 16405 C 1566.36 2.44186 2.66562 0
M  V30 16406 O 1566.08 3.76844 2.23429 0
M  V30 16407 C 1567.58 2.58876 3.59858 0
M  V30 16408 H 1564.8 0.506148 0.440517 0
M  V30 16409 H 1567.34 1.88502 0.792931 0
M  V30 16410 H 1565.5 2.07949 3.26858 0
M  V30 16411 H 1565.91 4.2804 3.0312 0
M  V30 16412 H 1567.39 3.29482 4.42883 0
M  V30 16413 H 1567.86 1.63567 4.07606 0
M  V30 16414 H 1568.47 2.95949 3.05441 0
M  V30 16415 N 1566.79 -0.886131 1.30328 0
M  V30 16416 C 1567.72 -2.00793 1.19183 0
M  V30 16417 C 1568.7 -1.69899 0.08276 0
M  V30 16418 O 1569.88 -1.92389 0.264593 0
M  V30 16419 C 1567.01 -3.35922 0.881669 0
M  V30 16420 C 1565.97 -3.81072 1.94855 0
M  V30 16421 C 1565.29 -5.1348 1.4914 0
M  V30 16422 C 1566.59 -3.99923 3.35944 0
M  V30 16423 H 1568.29 -2.10375 2.13032 0
M  V30 16424 H 1565.83 -1.0108 1.02561 0
M  V30 16425 H 1567.79 -4.13922 0.790359 0
M  V30 16426 H 1566.51 -3.26469 -0.0925037 0
M  V30 16427 H 1565.17 -3.053 2.02947 0
M  V30 16428 H 1564.82 -5.00453 0.50553 0
M  V30 16429 H 1564.52 -5.44659 2.205 0
M  V30 16430 H 1566.04 -5.94005 1.41386 0
M  V30 16431 H 1567.45 -4.68364 3.30617 0
M  V30 16432 H 1565.85 -4.42477 4.05381 0
M  V30 16433 H 1566.92 -3.03816 3.77921 0
M  V30 16434 N 1568.26 -1.13026 -1.09832 0
M  V30 16435 C 1569.49 -0.91246 -1.85693 0
M  V30 16436 C 1569.91 0.538558 -1.80956 0
M  V30 16437 O 1569.26 1.37262 -1.20273 0
M  V30 16438 C 1569.32 -1.38684 -3.3384 0
M  V30 16439 O 1569.04 -2.78099 -3.38515 0
M  V30 16440 C 1570.54 -1.20688 -4.26555 0
M  V30 16441 H 1567.76 -0.32565 -0.58668 0
M  V30 16442 H 1570.3 -1.50177 -1.38806 0
M  V30 16443 H 1568.46 -0.840617 -3.7817 0
M  V30 16444 H 1568.87 -2.99061 -4.30886 0
M  V30 16445 H 1570.34 -1.5876 -5.28677 0
M  V30 16446 H 1570.82 -0.148111 -4.3895 0
M  V30 16447 H 1571.43 -1.74092 -3.88036 0
M  V30 16448 N 1569.74 1.27735 -0.923117 0
M  V30 16449 C 1570.67 2.29395 -0.435907 0
M  V30 16450 C 1571.65 1.62542 0.501403 0
M  V30 16451 O 1572.84 1.89884 0.407135 0
M  V30 16452 C 1569.97 3.45856 0.316348 0
M  V30 16453 C 1568.92 4.24672 -0.532697 0
M  V30 16454 C 1568.25 5.33563 0.348454 0
M  V30 16455 C 1569.55 4.90494 -1.79481 0
M  V30 16456 H 1571.24 2.70398 -1.28551 0
M  V30 16457 H 1568.79 1.29989 -0.619581 0
M  V30 16458 H 1570.74 4.1607 0.668098 0
M  V30 16459 H 1569.47 3.03758 1.19994 0
M  V30 16460 H 1568.12 3.56198 -0.867093 0
M  V30 16461 H 1567.77 4.87708 1.23086 0
M  V30 16462 H 1567.47 5.87202 -0.216104 0
M  V30 16463 H 1569 6.06622 0.695878 0
M  V30 16464 H 1570.41 5.53019 -1.5114 0
M  V30 16465 H 1568.81 5.5417 -2.30251 0
M  V30 16466 H 1569.88 4.14454 -2.51707 0
M  V30 16467 N 1571.22 0.688118 1.41784 0
M  V30 16468 C 1572.47 0.213085 2.00571 0
M  V30 16469 C 1572.78 -1.19176 1.55101 0
M  V30 16470 O 1573.99 -1.76387 2.06397 0
M  V30 16471 C 1572.44 0.330075 3.58383 0
M  V30 16472 C 1572.05 1.73981 4.12837 0
M  V30 16473 C 1573.8 -0.0855651 4.24414 0
M  V30 16474 C 1571.7 1.80886 5.63058 0
M  V30 16475 H 1570.63 0.075906 0.750169 0
M  V30 16476 H 1573.28 0.855236 1.62351 0
M  V30 16477 H 1571.67 -0.380199 3.94171 0
M  V30 16478 H 1572.84 2.47825 3.88484 0
M  V30 16479 H 1571.16 2.10447 3.59306 0
M  V30 16480 H 1573.75 -0.0543142 5.34672 0
M  V30 16481 H 1574.1 -1.12307 4.00865 0
M  V30 16482 H 1574.63 0.574169 3.93635 0
M  V30 16483 H 1571.37 2.82663 5.91424 0
M  V30 16484 H 1570.89 1.11417 5.89361 0
M  V30 16485 H 1572.57 1.56835 6.27704 0
M  V30 16486 N 1572.7 -1.51554 0.432352 0
M  V30 16487 C 1573.95 -2.01645 -0.135511 0
M  V30 16488 C 1574.27 -1.31874 -1.43647 0
M  V30 16489 O 1573.54 -0.451746 -1.9062 0
M  V30 16490 H 1572.12 -0.745113 -0.0530683 0
M  V30 16491 H 1574.78 -1.86258 0.573917 0
M  V30 16492 H 1573.88 -3.10506 -0.315001 0
M  V30 16493 N 1574.18 -0.163538 -1.56749 0
M  V30 16494 C 1575.42 0.485954 -1.98539 0
M  V30 16495 C 1575.78 1.60942 -1.04698 0
M  V30 16496 O 1576.98 2.32092 -1.35598 0
M  V30 16497 C 1575.25 0.963784 -3.4416 0
M  V30 16498 S 1576.81 1.61555 -4.07977 0
M  V30 16499 H 1573.63 0.15658 -0.693544 0
M  V30 16500 H 1576.23 -0.259161 -1.93775 0
M  V30 16501 H 1574.94 0.135594 -4.10176 0
M  V30 16502 H 1574.47 1.74313 -3.52674 0
M  V30 16503 H 1576.48 2.90344 -4.02387 0
M  V30 16504 N 1575.65 1.57214 0.110213 0
M  V30 16505 C 1576.6 2.01971 1.1537 0
M  V30 16506 C 1577.6 0.918137 1.42361 0
M  V30 16507 O 1578.8 1.10334 1.4222 0
M  V30 16508 H 1575.18 0.64345 0.3892 0
M  V30 16509 H 1577.15 2.88827 0.749781 0
M  V30 16510 C 1575.9 2.4473 2.46987 0
M  V30 16511 H 1575.22 3.29066 2.27059 0
M  V30 16512 H 1576.66 2.79836 3.1854 0
M  V30 16513 C 1575.12 1.31445 3.10199 0
M  V30 16514 O 1575.65 0.635251 3.96645 0
M  V30 16515 N 1573.86 1.06927 2.70213 0
M  V30 16516 H 1573.4 1.62339 2.0001 0
M  V30 16517 H 1573.36 0.313273 3.12835 0
M  V30 16518 N 1577.13 -0.380637 1.52934 0
M  V30 16519 C 1578.38 -1.12261 1.68053 0
M  V30 16520 C 1578.7 -1.90263 0.427191 0
M  V30 16521 O 1577.97 -1.87768 -0.558559 0
M  V30 16522 H 1576.55 -0.41742 0.619491 0
M  V30 16523 H 1579.21 -0.430906 1.90077 0
M  V30 16524 H 1578.31 -1.82085 2.53479 0
M  V30 16525 N 1578.61 -1.44039 -0.639573 0
M  V30 16526 C 1579.84 -1.50063 -1.43164 0
M  V30 16527 C 1580.26 -0.123906 -1.87691 0
M  V30 16528 O 1579.62 0.885192 -1.58221 0
M  V30 16529 C 1579.67 -2.46305 -2.63375 0
M  V30 16530 O 1578.77 -1.95874 -3.62915 0
M  V30 16531 H 1578.11 -0.507052 -0.428713 0
M  V30 16532 H 1580.64 -1.8909 -0.781415 0
M  V30 16533 H 1580.65 -2.64062 -3.11023 0
M  V30 16534 H 1579.33 -3.46309 -2.3031 0
M  V30 16535 H 1577.9 -1.87844 -3.22132 0
M  V30 16536 N 1580.09 0.879207 -1.30796 0
M  V30 16537 C 1581.5 1.44705 -1.17972 0
M  V30 16538 C 1581.85 1.94992 0.217381 0
M  V30 16539 O 1580.98 1.85494 1.11449 0
M  V30 16540 C 1581.57 2.6302 -2.13555 0
M  V30 16541 C 1580.13 3.15877 -2.04692 0
M  V30 16542 C 1579.28 1.88576 -2.03309 0
M  V30 16543 H 1582.23 0.688604 -1.42982 0
M  V30 16544 H 1582.25 3.39418 -1.71976 0
M  V30 16545 H 1581.76 2.2639 -3.15229 0
M  V30 16546 H 1579.86 3.57151 -1.0618 0
M  V30 16547 H 1579.97 3.78786 -2.93357 0
M  V30 16548 H 1578.34 2.0715 -1.48192 0
M  V30 16549 H 1579.12 1.54195 -3.06723 0
M  V30 16550 N 1581.57 1.13606 1.09231 0
M  V30 16551 C 1582.81 0.910333 1.81891 0
M  V30 16552 C 1583.17 -0.557482 1.84146 0
M  V30 16553 O 1582.46 -1.40735 1.30016 0
M  V30 16554 C 1582.66 1.43456 3.27345 0
M  V30 16555 C 1582.48 2.95182 3.39261 0
M  V30 16556 C 1581.25 3.63546 3.50945 0
M  V30 16557 C 1583.45 3.93105 3.31621 0
M  V30 16558 N 1581.43 5.03265 3.51564 0
M  V30 16559 C 1582.81 5.19026 3.39133 0
M  V30 16560 C 1584.86 3.85343 3.15302 0
M  V30 16561 C 1583.56 6.38094 3.32007 0
M  V30 16562 C 1585.59 5.03947 3.09502 0
M  V30 16563 C 1584.95 6.28733 3.17608 0
M  V30 16564 H 1581.05 0.386545 0.679785 0
M  V30 16565 H 1583.63 1.44465 1.30529 0
M  V30 16566 H 1581.81 0.927132 3.77172 0
M  V30 16567 H 1583.54 1.14962 3.88028 0
M  V30 16568 H 1580.29 3.14072 3.54479 0
M  V30 16569 H 1580.72 5.76179 3.55453 0
M  V30 16570 H 1585.36 2.8975 3.07904 0
M  V30 16571 H 1583.08 7.3394 3.38168 0
M  V30 16572 H 1586.66 4.99683 2.98008 0
M  V30 16573 H 1585.54 7.18967 3.13139 0
M  V30 16574 N 1583.05 -1.27244 0.929878 0
M  V30 16575 C 1584.46 -1.4662 0.630451 0
M  V30 16576 C 1584.66 -1.84077 -0.819633 0
M  V30 16577 O 1583.72 -1.95555 -1.59733 0
M  V30 16578 C 1585.03 -2.55709 1.58219 0
M  V30 16579 C 1586.58 -2.69569 1.59065 0
M  V30 16580 C 1587.05 -3.81818 2.52941 0
M  V30 16581 N 1588.54 -3.89195 2.51161 0
M  V30 16582 C 1589.28 -4.75474 3.20488 0
M  V30 16583 N 1588.78 -5.66225 3.99201 0
M  V30 16584 N 1590.57 -4.69222 3.09495 0
M  V30 16585 H 1582.72 -1.01216 1.86733 0
M  V30 16586 H 1584.98 -0.505737 0.801832 0
M  V30 16587 H 1584.69 -2.34985 2.61677 0
M  V30 16588 H 1584.56 -3.53141 1.32556 0
M  V30 16589 H 1586.95 -2.89672 0.563375 0
M  V30 16590 H 1587.03 -1.72616 1.88778 0
M  V30 16591 H 1586.67 -3.62467 3.55781 0
M  V30 16592 H 1586.6 -4.78202 2.20524 0
M  V30 16593 H 1589.1 -3.24305 1.93997 0
M  V30 16594 H 1589.41 -6.28925 4.4908 0
M  V30 16595 H 1587.75 -5.66013 4.03304 0
M  V30 16596 H 1590.94 -3.97322 2.47493 0
M  V30 16597 H 1591.12 -5.36244 3.63794 0
M  V30 16598 N 1584.52 -0.695628 -1.41417 0
M  V30 16599 C 1585.77 -0.226618 -2.01228 0
M  V30 16600 C 1586.1 1.17376 -1.5509 0
M  V30 16601 O 1585.35 1.80635 -0.752964 0
M  V30 16602 C 1585.65 -0.232664 -3.56642 0
M  V30 16603 C 1585.32 -1.58057 -4.2229 0
M  V30 16604 C 1583.98 -1.94959 -4.39937 0
M  V30 16605 C 1586.33 -2.46735 -4.59098 0
M  V30 16606 C 1583.66 -3.20123 -4.91669 0
M  V30 16607 C 1586.01 -3.71232 -5.1222 0
M  V30 16608 C 1584.68 -4.08277 -5.28078 0
M  V30 16609 H 1583.95 -0.0829255 -0.736345 0
M  V30 16610 H 1586.59 -0.894729 -1.69313 0
M  V30 16611 H 1584.9 0.518995 -3.88347 0
M  V30 16612 H 1586.6 0.147754 -4.00728 0
M  V30 16613 H 1583.19 -1.28356 -4.08929 0
M  V30 16614 H 1587.37 -2.19506 -4.45119 0
M  V30 16615 H 1582.63 -3.48819 -5.02131 0
M  V30 16616 H 1586.8 -4.40132 -5.39682 0
M  V30 16617 H 1584.43 -5.05335 -5.67927 0
M  V30 16618 N 1586 1.51322 -0.440383 0
M  V30 16619 C 1586.93 2.30708 0.360013 0
M  V30 16620 C 1587.91 1.36254 1.01828 0
M  V30 16621 O 1589.1 1.65174 1.02134 0
M  V30 16622 C 1586.23 3.15132 1.45977 0
M  V30 16623 C 1585.18 4.17889 0.924825 0
M  V30 16624 C 1584.51 4.90853 2.12056 0
M  V30 16625 C 1585.81 5.22282 -0.0428362 0
M  V30 16626 H 1587.5 2.97868 -0.30248 0
M  V30 16627 H 1585.05 1.43249 -0.146914 0
M  V30 16628 H 1587 3.69449 2.02695 0
M  V30 16629 H 1585.72 2.45798 2.1506 0
M  V30 16630 H 1584.38 3.64627 0.379842 0
M  V30 16631 H 1584.03 4.1802 2.79765 0
M  V30 16632 H 1583.73 5.60339 1.769 0
M  V30 16633 H 1585.26 5.47995 2.69322 0
M  V30 16634 H 1586.67 5.71654 0.434137 0
M  V30 16635 H 1585.07 5.99314 -0.307126 0
M  V30 16636 H 1586.14 4.74923 -0.978557 0
M  V30 16637 N 1587.48 0.171848 1.5666 0
M  V30 16638 C 1588.43 -0.758237 2.17989 0
M  V30 16639 C 1589.4 -1.22654 1.12006 0
M  V30 16640 O 1590.58 -1.29461 1.40159 0
M  V30 16641 C 1587.72 -1.98189 2.82516 0
M  V30 16642 C 1586.83 -1.55711 4.02962 0
M  V30 16643 C 1585.97 -2.73447 4.55412 0
M  V30 16644 C 1585.01 -2.27462 5.68267 0
M  V30 16645 N 1584.15 -3.38293 6.15225 0
M  V30 16646 H 1588.99 -0.228467 2.97123 0
M  V30 16647 H 1586.52 -0.10104 1.46753 0
M  V30 16648 H 1588.48 -2.6996 3.18084 0
M  V30 16649 H 1587.11 -2.48536 2.05985 0
M  V30 16650 H 1586.16 -0.736126 3.7321 0
M  V30 16651 H 1587.47 -1.17957 4.84652 0
M  V30 16652 H 1586.63 -3.53374 4.93165 0
M  V30 16653 H 1585.37 -3.14462 3.7278 0
M  V30 16654 H 1584.37 -1.45982 5.30065 0
M  V30 16655 H 1585.6 -1.87505 6.52701 0
M  V30 16656 H 1583.54 -3.78882 5.35522 0
M  V30 16657 H 1583.46 -3.04633 6.91907 0
M  V30 16658 H 1584.73 -4.18503 6.57629 0
M  V30 16659 N 1588.96 -1.5727 -0.101874 0
M  V30 16660 C 1589.87 -2.04896 -1.14257 0
M  V30 16661 C 1590.88 -0.972561 -1.44282 0
M  V30 16662 O 1592.06 -1.28526 -1.55058 0
M  V30 16663 C 1589.12 -2.45818 -2.44488 0
M  V30 16664 C 1588.19 -3.6762 -2.21707 0
M  V30 16665 C 1587.42 -4.06581 -3.45728 0
M  V30 16666 O 1587.64 -3.45702 -4.53703 0
M  V30 16667 O 1586.58 -4.99578 -3.35716 0
M  V30 16668 H 1590.4 -2.93827 -0.768085 0
M  V30 16669 H 1587.99 -1.46065 -0.313902 0
M  V30 16670 H 1589.87 -2.72796 -3.21186 0
M  V30 16671 H 1588.54 -1.60028 -2.81377 0
M  V30 16672 H 1587.45 -3.45768 -1.42812 0
M  V30 16673 H 1588.78 -4.54169 -1.89714 0
M  V30 16674 N 1590.44 0.372521 -1.53134 0
M  V30 16675 C 1591.38 1.45597 -1.79082 0
M  V30 16676 C 1592.35 1.5349 -0.63482 0
M  V30 16677 O 1593.54 1.69488 -0.876276 0
M  V30 16678 C 1590.68 2.8263 -1.98026 0
M  V30 16679 C 1589.79 2.83758 -3.25738 0
M  V30 16680 C 1588.93 4.12322 -3.34909 0
M  V30 16681 C 1587.96 4.07565 -4.5668 0
M  V30 16682 N 1587.1 5.27766 -4.63042 0
M  V30 16683 H 1591.94 1.22771 -2.71535 0
M  V30 16684 H 1589.48 0.595285 -1.34517 0
M  V30 16685 H 1591.44 3.62227 -2.06997 0
M  V30 16686 H 1590.07 3.0387 -1.08917 0
M  V30 16687 H 1589.12 1.96435 -3.25757 0
M  V30 16688 H 1590.43 2.76114 -4.15406 0
M  V30 16689 H 1589.58 5.00331 -3.43153 0
M  V30 16690 H 1588.32 4.22709 -2.43245 0
M  V30 16691 H 1587.33 3.17943 -4.48545 0
M  V30 16692 H 1588.55 3.98786 -5.49678 0
M  V30 16693 H 1586.5 5.38752 -3.74276 0
M  V30 16694 H 1586.42 5.22264 -5.46605 0
M  V30 16695 H 1587.68 6.17626 -4.75561 0
M  V30 16696 N 1591.91 1.44376 0.631925 0
M  V30 16697 C 1593.16 1.47117 1.3915 0
M  V30 16698 C 1593.49 0.10347 1.94225 0
M  V30 16699 O 1592.74 -0.894623 1.74055 0
M  V30 16700 C 1593.04 2.47828 2.57519 0
M  V30 16701 C 1592.71 3.93174 2.20738 0
M  V30 16702 C 1591.37 4.32755 2.1042 0
M  V30 16703 C 1593.72 4.8468 1.91664 0
M  V30 16704 C 1591.05 5.61768 1.69214 0
M  V30 16705 C 1593.4 6.14079 1.51951 0
M  V30 16706 C 1592.07 6.52616 1.40174 0
M  V30 16707 H 1591.34 0.538341 0.509186 0
M  V30 16708 H 1593.98 1.77584 0.716663 0
M  V30 16709 H 1592.29 2.10841 3.30232 0
M  V30 16710 H 1593.99 2.47196 3.15746 0
M  V30 16711 H 1590.58 3.61859 2.29687 0
M  V30 16712 H 1594.76 4.54855 1.98546 0
M  V30 16713 H 1590.02 5.90444 1.58699 0
M  V30 16714 H 1594.19 6.84443 1.28493 0
M  V30 16715 H 1591.82 7.52487 1.08017 0
M  V30 16716 N 1593.39 -0.872258 1.31261 0
M  V30 16717 C 1594.63 -1.63914 1.22113 0
M  V30 16718 C 1595 -1.9076 -0.217873 0
M  V30 16719 O 1596.2 -2.65293 -0.432812 0
M  V30 16720 C 1594.47 -2.93498 2.03945 0
M  V30 16721 S 1596.03 -3.84391 2.11634 0
M  V30 16722 H 1592.84 -0.562434 0.434959 0
M  V30 16723 H 1595.45 -1.03435 1.65896 0
M  V30 16724 H 1594.15 -2.71695 3.07587 0
M  V30 16725 H 1593.68 -3.59004 1.60872 0
M  V30 16726 H 1595.7 -4.8012 1.25298 0
M  V30 16727 N 1594.87 -1.14184 -1.08627 0
M  V30 16728 C 1595.82 -0.826718 -2.15486 0
M  V30 16729 C 1596.79 0.214769 -1.64706 0
M  V30 16730 O 1597.97 0.0851909 -1.9061 0
M  V30 16731 C 1595.11 -0.307888 -3.43724 0
M  V30 16732 C 1594.22 -1.40941 -4.08362 0
M  V30 16733 C 1593.36 -0.848059 -5.24387 0
M  V30 16734 C 1592.4 -1.92741 -5.80962 0
M  V30 16735 N 1591.54 -1.3834 -6.88336 0
M  V30 16736 H 1596.38 -1.74198 -2.41783 0
M  V30 16737 H 1593.91 -0.869406 -1.18658 0
M  V30 16738 H 1595.87 0.0111149 -4.17199 0
M  V30 16739 H 1594.5 0.570488 -3.17719 0
M  V30 16740 H 1593.55 -1.84485 -3.3267 0
M  V30 16741 H 1594.86 -2.22485 -4.46433 0
M  V30 16742 H 1594.02 -0.480826 -6.04792 0
M  V30 16743 H 1592.76 -0.00163783 -4.877 0
M  V30 16744 H 1591.76 -2.30362 -4.99213 0
M  V30 16745 H 1592.99 -2.77738 -6.19708 0
M  V30 16746 H 1590.93 -0.559124 -6.53613 0
M  V30 16747 H 1590.85 -2.13524 -7.2522 0
M  V30 16748 H 1592.12 -1.044 -7.72477 0
M  V30 16749 N 1596.35 1.26749 -0.936613 0
M  V30 16750 C 1597.59 1.9459 -0.592128 0
M  V30 16751 C 1597.95 1.72177 0.858649 0
M  V30 16752 O 1597.24 1.0455 1.60561 0
M  V30 16753 C 1597.44 3.4678 -0.864789 0
M  V30 16754 C 1597.27 3.83992 -2.34052 0
M  V30 16755 C 1596.04 4.06985 -2.99485 0
M  V30 16756 C 1598.23 3.92897 -3.31868 0
M  V30 16757 N 1596.22 4.31046 -4.37118 0
M  V30 16758 C 1597.59 4.21437 -4.54743 0
M  V30 16759 C 1599.64 3.75506 -3.26955 0
M  V30 16760 C 1598.34 4.34396 -5.73317 0
M  V30 16761 C 1600.37 3.89695 -4.4485 0
M  V30 16762 C 1599.73 4.1863 -5.66505 0
M  V30 16763 H 1595.83 0.73502 -0.266965 0
M  V30 16764 H 1598.42 1.52925 -1.20508 0
M  V30 16765 H 1596.59 3.87383 -0.280926 0
M  V30 16766 H 1598.32 4.01819 -0.482033 0
M  V30 16767 H 1595.07 4.02165 -2.5012 0
M  V30 16768 H 1595.5 4.47118 -5.08345 0
M  V30 16769 H 1600.14 3.52168 -2.3396 0
M  V30 16770 H 1597.86 4.56557 -6.66769 0
M  V30 16771 H 1601.44 3.77648 -4.42576 0
M  V30 16772 H 1600.32 4.29369 -6.5621 0
M  V30 16773 N 1597.83 0.703118 1.41046 0
M  V30 16774 C 1599.05 0.246552 2.05426 0
M  V30 16775 C 1599.47 -1.10704 1.52938 0
M  V30 16776 O 1598.83 -1.69329 0.680733 0
M  V30 16777 C 1598.88 0.203953 3.60924 0
M  V30 16778 O 1598.6 1.50408 4.11472 0
M  V30 16779 C 1600.1 -0.272686 4.42461 0
M  V30 16780 H 1597.32 0.113157 0.66139 0
M  V30 16781 H 1599.86 0.957823 1.80682 0
M  V30 16782 H 1598.02 -0.458194 3.84681 0
M  V30 16783 H 1598.43 1.39622 5.05575 0
M  V30 16784 H 1599.91 -0.251357 5.51427 0
M  V30 16785 H 1600.38 -1.31282 4.1912 0
M  V30 16786 H 1600.99 0.358733 4.23784 0
M  V30 16787 N 1599.3 -1.51086 0.448402 0
M  V30 16788 C 1600.24 -2.25799 -0.393401 0
M  V30 16789 C 1601.25 -1.30241 -0.976792 0
M  V30 16790 O 1602.44 -1.55916 -0.869051 0
M  V30 16791 C 1599.54 -3.00682 -1.56345 0
M  V30 16792 C 1598.71 -4.23421 -1.09695 0
M  V30 16793 C 1597.77 -4.8079 -2.1384 0
M  V30 16794 O 1596.8 -5.42329 -1.72823 0
M  V30 16795 N 1598 -4.65792 -3.46437 0
M  V30 16796 H 1600.76 -2.98681 0.246986 0
M  V30 16797 H 1598.32 -1.59497 0.277902 0
M  V30 16798 H 1600.32 -3.35945 -2.25662 0
M  V30 16799 H 1598.89 -2.30741 -2.10897 0
M  V30 16800 H 1598.11 -3.93526 -0.230457 0
M  V30 16801 H 1599.39 -5.03049 -0.762832 0
M  V30 16802 H 1598.79 -4.16799 -3.82486 0
M  V30 16803 H 1597.35 -5.05386 -4.11616 0
M  V30 16804 N 1600.78 -0.180154 -1.56567 0
M  V30 16805 C 1601.71 0.742131 -2.21393 0
M  V30 16806 C 1602.69 1.23253 -1.1723 0
M  V30 16807 O 1603.88 1.28408 -1.45688 0
M  V30 16808 C 1601.01 1.96799 -2.8616 0
M  V30 16809 C 1599.96 1.6131 -3.96438 0
M  V30 16810 C 1599.29 2.91434 -4.48297 0
M  V30 16811 C 1600.59 0.834382 -5.15592 0
M  V30 16812 H 1602.28 0.201759 -2.98719 0
M  V30 16813 H 1599.83 0.0956016 -1.43682 0
M  V30 16814 H 1601.78 2.61828 -3.30188 0
M  V30 16815 H 1600.51 2.53264 -2.06215 0
M  V30 16816 H 1599.16 0.986451 -3.53079 0
M  V30 16817 H 1598.81 3.45958 -3.65133 0
M  V30 16818 H 1598.51 2.68439 -5.22699 0
M  V30 16819 H 1600.04 3.57478 -4.95017 0
M  V30 16820 H 1601.45 1.38745 -5.56258 0
M  V30 16821 H 1599.85 0.703132 -5.95966 0
M  V30 16822 H 1600.92 -0.167554 -4.8461 0
M  V30 16823 N 1602.26 1.57322 0.0935319 0
M  V30 16824 C 1603.49 1.90375 0.810245 0
M  V30 16825 C 1603.9 0.774011 1.72205 0
M  V30 16826 O 1603.26 -0.253918 1.80725 0
M  V30 16827 C 1603.31 3.23054 1.62228 0
M  V30 16828 O 1603.03 4.31682 0.747157 0
M  V30 16829 C 1604.53 3.6998 2.44192 0
M  V30 16830 H 1601.75 0.629769 0.231586 0
M  V30 16831 H 1604.3 2.04379 0.0702984 0
M  V30 16832 H 1602.45 3.10643 2.31472 0
M  V30 16833 H 1602.87 5.07884 1.30974 0
M  V30 16834 H 1604.34 4.65507 2.96659 0
M  V30 16835 H 1604.82 2.97899 3.22727 0
M  V30 16836 H 1605.42 3.85264 1.80144 0
M  V30 16837 N 1603.74 -0.364395 1.53329 0
M  V30 16838 C 1604.97 -1.12586 1.73228 0
M  V30 16839 C 1605.38 -1.83482 0.461614 0
M  V30 16840 O 1604.72 -1.74459 -0.575295 0
M  V30 16841 C 1604.78 -2.1994 2.84371 0
M  V30 16842 C 1604.45 -1.688 4.24683 0
M  V30 16843 C 1605.44 -1.15145 5.06989 0
M  V30 16844 C 1603.13 -1.74277 4.71097 0
M  V30 16845 C 1605.12 -0.676447 6.338 0
M  V30 16846 C 1602.81 -1.26389 5.97887 0
M  V30 16847 C 1603.81 -0.731632 6.7907 0
M  V30 16848 O 1603.49 -0.259825 8.0348 0
M  V30 16849 H 1603.23 -0.342514 0.582804 0
M  V30 16850 H 1605.78 -0.428832 2.00874 0
M  V30 16851 H 1604.01 -2.9314 2.52202 0
M  V30 16852 H 1605.7 -2.81489 2.92436 0
M  V30 16853 H 1606.47 -1.10251 4.72303 0
M  V30 16854 H 1602.34 -2.14647 4.0798 0
M  V30 16855 H 1605.89 -0.260327 6.97114 0
M  V30 16856 H 1601.79 -1.30977 6.32072 0
M  V30 16857 H 1602.55 -0.379044 8.17622 0
M  V30 16858 N 1605.22 -1.44709 -0.62426 0
M  V30 16859 C 1606.47 -1.47131 -1.37968 0
M  V30 16860 C 1606.78 -0.110507 -1.95288 0
M  V30 16861 O 1607.98 -0.0122892 -2.71497 0
M  V30 16862 C 1606.44 -2.59059 -2.49833 0
M  V30 16863 C 1606.05 -4.01378 -1.98997 0
M  V30 16864 C 1607.79 -2.70709 -3.26981 0
M  V30 16865 C 1605.7 -5.04717 -3.08244 0
M  V30 16866 H 1604.63 -0.547424 -0.5185 0
M  V30 16867 H 1607.28 -1.70797 -0.670863 0
M  V30 16868 H 1605.66 -2.28646 -3.23322 0
M  V30 16869 H 1606.84 -4.41391 -1.32327 0
M  V30 16870 H 1605.15 -3.9403 -1.34644 0
M  V30 16871 H 1607.75 -3.45087 -4.08435 0
M  V30 16872 H 1608.09 -1.76763 -3.76909 0
M  V30 16873 H 1608.62 -3.00566 -2.60585 0
M  V30 16874 H 1605.36 -6.00315 -2.63253 0
M  V30 16875 H 1604.88 -4.6929 -3.73534 0
M  V30 16876 H 1606.56 -5.28725 -3.72906 0
M  V30 16877 N 1606.69 0.865285 -1.31722 0
M  V30 16878 C 1607.64 1.96073 -1.16358 0
M  V30 16879 C 1608.63 1.60733 -0.0733173 0
M  V30 16880 O 1609.82 1.74461 -0.298725 0
M  V30 16881 C 1606.95 3.31886 -0.877855 0
M  V30 16882 C 1606.04 3.7348 -2.00932 0
M  V30 16883 N 1606.43 3.86993 -3.25684 0
M  V30 16884 C 1604.72 4.03027 -1.91011 0
M  V30 16885 C 1605.43 4.22605 -3.99725 0
M  V30 16886 N 1604.4 4.33545 -3.27932 0
M  V30 16887 H 1608.2 2.04639 -2.1095 0
M  V30 16888 H 1605.72 1.05638 -1.23347 0
M  V30 16889 H 1607.71 4.10121 -0.748764 0
M  V30 16890 H 1606.37 3.24645 0.0597974 0
M  V30 16891 H 1607.39 3.71596 -3.60745 0
M  V30 16892 H 1604.06 4.04148 -1.0474 0
M  V30 16893 H 1605.45 4.40618 -5.07253 0
M  V30 16894 N 1608.17 1.14759 1.0802 0
M  V30 16895 C 1609.12 0.838134 2.15044 0
M  V30 16896 C 1610.09 -0.206031 1.64817 0
M  V30 16897 O 1611.27 -0.0750812 1.90652 0
M  V30 16898 C 1608.41 0.326112 3.43556 0
M  V30 16899 C 1607.53 1.43104 4.07609 0
M  V30 16900 C 1606.66 0.875857 5.2393 0
M  V30 16901 C 1605.7 1.9582 5.79932 0
M  V30 16902 N 1604.84 1.41989 6.87593 0
M  V30 16903 H 1609.68 1.75478 2.40856 0
M  V30 16904 H 1607.22 0.875686 1.18195 0
M  V30 16905 H 1609.17 0.0110103 4.17199 0
M  V30 16906 H 1607.8 -0.55363 3.18017 0
M  V30 16907 H 1606.86 1.86247 3.31687 0
M  V30 16908 H 1608.17 2.24849 4.45246 0
M  V30 16909 H 1607.32 0.512893 6.04528 0
M  V30 16910 H 1606.06 0.0275017 4.87692 0
M  V30 16911 H 1605.07 2.33006 4.97984 0
M  V30 16912 H 1606.29 2.81021 6.18227 0
M  V30 16913 H 1604.24 0.593779 6.53307 0
M  V30 16914 H 1604.15 2.17367 7.24077 0
M  V30 16915 H 1605.42 1.08495 7.71913 0
M  V30 16916 N 1609.65 -1.26251 0.943322 0
M  V30 16917 C 1610.56 -2.3003 0.460778 0
M  V30 16918 C 1611.58 -1.67635 -0.4663 0
M  V30 16919 O 1612.75 -1.98418 -0.345307 0
M  V30 16920 C 1609.82 -3.45691 -0.264291 0
M  V30 16921 C 1608.88 -4.23561 0.69961 0
M  V30 16922 C 1608.11 -5.33699 0.00904846 0
M  V30 16923 O 1608.33 -5.57473 -1.20748 0
M  V30 16924 O 1607.27 -5.97945 0.688839 0
M  V30 16925 H 1611.09 -2.73374 1.32289 0
M  V30 16926 H 1608.68 -1.31489 0.709297 0
M  V30 16927 H 1610.56 -4.15997 -0.672634 0
M  V30 16928 H 1609.24 -3.04373 -1.10176 0
M  V30 16929 H 1608.14 -3.55728 1.15794 0
M  V30 16930 H 1609.48 -4.68634 1.50476 0
M  V30 16931 N 1611.13 -0.710588 -1.40671 0
M  V30 16932 C 1612.35 -0.256007 -2.05814 0
M  V30 16933 C 1612.78 1.09178 -1.53173 0
M  V30 16934 O 1612.14 1.68665 -0.664977 0
M  V30 16935 C 1612.19 -0.240528 -3.59797 0
M  V30 16936 O 1611.29 0.779859 -4.04959 0
M  V30 16937 H 1610.63 -0.121326 -0.652822 0
M  V30 16938 H 1613.16 -0.969667 -1.80163 0
M  V30 16939 H 1613.17 -0.0765027 -4.07928 0
M  V30 16940 H 1611.85 -1.22411 -3.97478 0
M  V30 16941 H 1610.42 0.583965 -3.68299 0
M  V30 16942 N 1612.61 1.50847 -0.456408 0
M  V30 16943 C 1613.88 1.94907 0.164485 0
M  V30 16944 C 1614.26 1.39609 1.58343 0
M  V30 16945 O 1613.61 0.590971 2.20726 0
M  V30 16946 C 1613.82 3.48784 0.122794 0
M  V30 16947 C 1615.17 4.234 0.318964 0
M  V30 16948 O 1616.19 3.55638 0.20005 0
M  V30 16949 O 1615.05 5.43649 0.557507 0
M  V30 16950 H 1612.15 0.818298 0.119652 0
M  V30 16951 H 1614.69 1.61673 -0.515758 0
M  V30 16952 H 1613.47 3.81541 -0.868468 0
M  V30 16953 H 1613.09 3.88514 0.84513 0
M  V30 16954 N 1614.09 0.188454 1.56469 0
M  V30 16955 C 1615.31 -0.460975 2.02212 0
M  V30 16956 C 1615.74 -1.54856 1.06777 0
M  V30 16957 O 1615.09 -1.81231 0.0501425 0
M  V30 16958 C 1615.14 -1.00047 3.46443 0
M  V30 16959 O 1614.25 -2.1137 3.54114 0
M  V30 16960 H 1613.59 -0.108497 0.655076 0
M  V30 16961 H 1616.12 0.297381 2.02427 0
M  V30 16962 H 1616.13 -1.31876 3.86099 0
M  V30 16963 H 1614.8 -0.204273 4.15398 0
M  V30 16964 H 1613.38 -1.80456 3.26328 0
M  V30 16965 N 1615.56 -1.5737 -0.0851874 0
M  V30 16966 C 1616.81 -1.87731 -0.782849 0
M  V30 16967 C 1617.16 -0.780518 -1.75857 0
M  V30 16968 O 1616.46 0.216586 -1.90372 0
M  V30 16969 C 1616.65 -3.22427 -1.54194 0
M  V30 16970 C 1616.48 -4.45105 -0.641234 0
M  V30 16971 C 1615.25 -5.04506 -0.28322 0
M  V30 16972 C 1617.45 -5.14269 0.0561642 0
M  V30 16973 N 1615.43 -6.10714 0.624609 0
M  V30 16974 C 1616.8 -6.14531 0.821684 0
M  V30 16975 C 1618.86 -4.97733 0.129045 0
M  V30 16976 C 1617.56 -7.00042 1.65329 0
M  V30 16977 C 1619.59 -5.83759 0.947583 0
M  V30 16978 C 1618.95 -6.83549 1.70119 0
M  V30 16979 H 1615.05 -0.73669 -0.262319 0
M  V30 16980 H 1617.63 -1.94648 -0.0449314 0
M  V30 16981 H 1615.8 -3.16543 -2.25066 0
M  V30 16982 H 1617.53 -3.40481 -2.18757 0
M  V30 16983 H 1614.29 -4.69349 -0.633099 0
M  V30 16984 H 1614.71 -6.68469 1.07137 0
M  V30 16985 H 1619.35 -4.20512 -0.439253 0
M  V30 16986 H 1617.07 -7.76647 2.23261 0
M  V30 16987 H 1620.66 -5.73023 1.00678 0
M  V30 16988 H 1619.54 -7.48961 2.32437 0
M  V30 16989 N 1617.04 0.356258 -1.53521 0
M  V30 16990 C 1617.97 1.44271 -1.83598 0
M  V30 16991 C 1618.95 1.5547 -0.690141 0
M  V30 16992 O 1620.14 1.69886 -0.940868 0
M  V30 16993 C 1617.27 2.8149 -2.03422 0
M  V30 16994 C 1616.22 2.85108 -3.19213 0
M  V30 16995 C 1615.55 4.25091 -3.24348 0
M  V30 16996 C 1616.85 2.51788 -4.57602 0
M  V30 16997 H 1618.54 1.1935 -2.74583 0
M  V30 16998 H 1616.09 0.572707 -1.32121 0
M  V30 16999 H 1618.04 3.57531 -2.23046 0
M  V30 17000 H 1616.76 3.07819 -1.09155 0
M  V30 17001 H 1615.42 2.1152 -2.99424 0
M  V30 17002 H 1615.07 4.4851 -2.277 0
M  V30 17003 H 1614.77 4.28426 -4.0215 0
M  V30 17004 H 1616.3 5.02992 -3.46167 0
M  V30 17005 H 1617.71 3.17542 -4.77326 0
M  V30 17006 H 1616.11 2.66426 -5.37715 0
M  V30 17007 H 1617.18 1.4701 -4.62078 0
M  V30 17008 N 1618.52 1.45038 0.616577 0
M  V30 17009 C 1619.47 1.53022 1.7278 0
M  V30 17010 C 1620.44 0.376778 1.6177 0
M  V30 17011 O 1621.62 0.589006 1.81481 0
M  V30 17012 C 1618.76 1.49432 3.11069 0
M  V30 17013 C 1617.87 2.7526 3.3295 0
M  V30 17014 C 1617.01 2.63403 4.61294 0
M  V30 17015 C 1616.05 3.84327 4.76402 0
M  V30 17016 N 1615.19 3.71058 5.96037 0
M  V30 17017 H 1620.03 2.47957 1.65292 0
M  V30 17018 H 1617.56 1.23046 0.806102 0
M  V30 17019 H 1619.52 1.45339 3.91066 0
M  V30 17020 H 1618.15 0.580542 3.17537 0
M  V30 17021 H 1617.2 2.89479 2.46792 0
M  V30 17022 H 1618.51 3.64978 3.39989 0
M  V30 17023 H 1617.67 2.57226 5.49472 0
M  V30 17024 H 1616.41 1.7127 4.56638 0
M  V30 17025 H 1615.41 3.90873 3.8665 0
M  V30 17026 H 1616.64 4.77515 4.82863 0
M  V30 17027 H 1614.58 2.81687 5.92443 0
M  V30 17028 H 1614.5 4.54403 6.04197 0
M  V30 17029 H 1615.77 3.68798 6.86738 0
M  V30 17030 N 1620 -0.858287 1.32179 0
M  V30 17031 C 1620.94 -1.96656 1.20811 0
M  V30 17032 C 1621.91 -1.6585 0.0911199 0
M  V30 17033 O 1623.1 -1.88936 0.266033 0
M  V30 17034 C 1620.24 -3.32237 0.933408 0
M  V30 17035 C 1619.35 -3.75564 2.13484 0
M  V30 17036 C 1618.49 -4.9992 1.79593 0
M  V30 17037 C 1617.53 -5.35728 2.96077 0
M  V30 17038 N 1616.66 -6.51261 2.62304 0
M  V30 17039 H 1621.5 -2.05711 2.15609 0
M  V30 17040 H 1619.04 -1.00689 1.07239 0
M  V30 17041 H 1621 -4.10318 0.754651 0
M  V30 17042 H 1619.63 -3.22792 0.0222279 0
M  V30 17043 H 1618.68 -2.93167 2.42399 0
M  V30 17044 H 1619.99 -3.98025 3.00629 0
M  V30 17045 H 1619.15 -5.85698 1.58248 0
M  V30 17046 H 1617.89 -4.79388 0.896561 0
M  V30 17047 H 1616.89 -4.48463 3.18058 0
M  V30 17048 H 1618.12 -5.58219 3.86741 0
M  V30 17049 H 1616.06 -6.32254 1.74904 0
M  V30 17050 H 1615.98 -6.73722 3.42979 0
M  V30 17051 H 1617.25 -7.40202 2.4438 0
M  V30 17052 N 1621.48 -1.1533 -1.07409 0
M  V30 17053 C 1622.72 -0.927807 -1.79994 0
M  V30 17054 C 1623.05 0.545092 -1.86706 0
M  V30 17055 O 1622.31 1.4202 -1.34643 0
M  V30 17056 C 1622.6 -1.48646 -3.25022 0
M  V30 17057 C 1622.27 -2.97974 -3.38411 0
M  V30 17058 C 1620.93 -3.3874 -3.41773 0
M  V30 17059 C 1623.28 -3.93946 -3.41257 0
M  V30 17060 C 1620.61 -4.7412 -3.45582 0
M  V30 17061 C 1622.96 -5.29197 -3.46603 0
M  V30 17062 C 1621.63 -5.6946 -3.48241 0
M  V30 17063 H 1620.9 -0.339509 -0.658646 0
M  V30 17064 H 1623.55 -1.43863 -1.26395 0
M  V30 17065 H 1621.85 -0.89681 -3.81398 0
M  V30 17066 H 1623.55 -1.28781 -3.79759 0
M  V30 17067 H 1620.14 -2.65463 -3.36493 0
M  V30 17068 H 1624.32 -3.63525 -3.37881 0
M  V30 17069 H 1619.58 -5.04661 -3.45149 0
M  V30 17070 H 1623.75 -6.03359 -3.47751 0
M  V30 17071 H 1621.38 -6.74345 -3.50946 0
M  V30 17072 N 1622.95 1.25748 -0.950004 0
M  V30 17073 C 1624.18 1.97413 -0.61933 0
M  V30 17074 C 1624.6 1.70656 0.807591 0
M  V30 17075 O 1623.95 0.979899 1.53962 0
M  V30 17076 C 1624 3.51053 -0.862801 0
M  V30 17077 O 1623.73 3.76884 -2.23361 0
M  V30 17078 C 1625.23 4.39951 -0.543879 0
M  V30 17079 H 1622.45 0.629394 -0.232603 0
M  V30 17080 H 1624.99 1.60037 -1.27312 0
M  V30 17081 H 1623.15 3.86557 -0.255493 0
M  V30 17082 H 1623.56 4.71368 -2.30026 0
M  V30 17083 H 1625.03 5.46676 -0.764804 0
M  V30 17084 H 1625.51 4.36094 0.521421 0
M  V30 17085 H 1626.12 4.10005 -1.1303 0
M  V30 17086 N 1624.43 0.718038 1.40292 0
M  V30 17087 C 1625.34 0.0681535 2.34501 0
M  V30 17088 C 1626.36 -0.741048 1.57431 0
M  V30 17089 O 1627.53 -0.673437 1.89807 0
M  V30 17090 C 1624.6 -0.840758 3.36351 0
M  V30 17091 C 1623.66 -0.0212287 4.29295 0
M  V30 17092 C 1622.89 -0.886852 5.2628 0
M  V30 17093 O 1623.12 -2.12603 5.29298 0
M  V30 17094 O 1622.05 -0.324537 6.01024 0
M  V30 17095 H 1625.88 0.845288 2.91699 0
M  V30 17096 H 1623.46 0.478541 1.41529 0
M  V30 17097 H 1625.34 -1.36131 3.98806 0
M  V30 17098 H 1624.02 -1.597 2.81563 0
M  V30 17099 H 1622.92 0.544451 3.70117 0
M  V30 17100 H 1624.26 0.696846 4.87242 0
M  V30 17101 N 1625.91 -1.50602 0.464402 0
M  V30 17102 C 1626.84 -2.25029 -0.379075 0
M  V30 17103 C 1627.82 -1.28064 -1.00192 0
M  V30 17104 O 1629.01 -1.5727 -1.03915 0
M  V30 17105 C 1626.13 -3.02144 -1.53057 0
M  V30 17106 C 1625.18 -4.13981 -1.02576 0
M  V30 17107 S 1626.01 -5.35473 0.0541453 0
M  V30 17108 C 1627.17 -6.16133 -1.10138 0
M  V30 17109 H 1627.4 -2.96224 0.252731 0
M  V30 17110 H 1624.93 -1.52376 0.249205 0
M  V30 17111 H 1626.89 -3.47167 -2.19056 0
M  V30 17112 H 1625.55 -2.30489 -2.13387 0
M  V30 17113 H 1624.75 -4.67316 -1.88763 0
M  V30 17114 H 1624.35 -3.7136 -0.443597 0
M  V30 17115 H 1626.64 -6.46861 -2.01437 0
M  V30 17116 H 1627.58 -7.0549 -0.60743 0
M  V30 17117 H 1627.99 -5.48066 -1.35218 0
M  V30 17118 N 1627.39 -0.19675 -1.56367 0
M  V30 17119 C 1628.63 0.443732 -1.99525 0
M  V30 17120 C 1628.99 1.58685 -1.08088 0
M  V30 17121 O 1630.19 2.29164 -1.4049 0
M  V30 17122 C 1628.46 0.890565 -3.46127 0
M  V30 17123 S 1630.02 1.52865 -4.11312 0
M  V30 17124 H 1626.84 0.141834 -0.69671 0
M  V30 17125 H 1629.44 -0.300205 -1.93181 0
M  V30 17126 H 1628.15 0.0485587 -4.10371 0
M  V30 17127 H 1627.68 1.66793 -3.56292 0
M  V30 17128 H 1629.69 2.81743 -4.08455 0
M  V30 17129 N 1628.87 1.57413 0.0768405 0
M  V30 17130 C 1629.81 2.04373 1.1106 0
M  V30 17131 C 1630.81 0.948127 1.40381 0
M  V30 17132 O 1632.01 1.13325 1.39848 0
M  V30 17133 H 1628.39 0.65156 0.375464 0
M  V30 17134 H 1630.36 2.90352 0.688348 0
M  V30 17135 C 1629.11 2.49914 2.41741 0
M  V30 17136 H 1628.43 3.33808 2.20027 0
M  V30 17137 H 1629.87 2.8653 3.12532 0
M  V30 17138 C 1628.33 1.37996 3.07341 0
M  V30 17139 O 1628.86 0.719242 3.95209 0
M  V30 17140 N 1627.07 1.12635 2.67884 0
M  V30 17141 H 1626.61 1.66545 1.96521 0
M  V30 17142 H 1626.57 0.37956 3.121 0
M  V30 17143 N 1630.34 -0.348112 1.53707 0
M  V30 17144 C 1631.31 -1.41018 1.80683 0
M  V30 17145 C 1632.31 -1.4582 0.67774 0
M  V30 17146 O 1633.5 -1.46275 0.94601 0
M  V30 17147 C 1630.63 -2.79988 1.94473 0
M  V30 17148 H 1631.82 -1.18365 2.75554 0
M  V30 17149 H 1629.38 -0.582244 1.4505 0
M  V30 17150 H 1630.11 -3.07931 1.0173 0
M  V30 17151 H 1629.9 -2.77899 2.76612 0
M  V30 17152 H 1631.39 -3.56868 2.16876 0
M  V30 17153 N 1631.82 -1.45363 -0.608876 0
M  V30 17154 C 1632.79 -1.53551 -1.70161 0
M  V30 17155 C 1633.79 -0.415146 -1.55349 0
M  V30 17156 O 1634.98 -0.67858 -1.6044 0
M  V30 17157 C 1632.11 -1.43081 -3.0942 0
M  V30 17158 H 1633.3 -2.5091 -1.64268 0
M  V30 17159 H 1630.85 -1.32785 -0.824493 0
M  V30 17160 H 1631.59 -0.469016 -3.20891 0
M  V30 17161 H 1631.37 -2.24343 -3.21579 0
M  V30 17162 H 1632.86 -1.51841 -3.89017 0
M  V30 17163 N 1633.3 0.851265 -1.32632 0
M  V30 17164 C 1634.72 1.14 -1.11696 0
M  V30 17165 C 1634.92 2.0125 0.100327 0
M  V30 17166 O 1633.97 2.40013 0.784233 0
M  V30 17167 C 1635.29 1.81406 -2.39817 0
M  V30 17168 C 1636.83 1.94027 -2.45607 0
M  V30 17169 C 1637.31 2.64848 -3.73657 0
M  V30 17170 N 1638.8 2.7237 -3.74658 0
M  V30 17171 C 1639.53 3.27827 -4.70443 0
M  V30 17172 N 1639.03 3.84068 -5.76596 0
M  V30 17173 N 1640.82 3.25962 -4.57936 0
M  V30 17174 H 1632.97 0.270302 -2.10673 0
M  V30 17175 H 1635.24 0.182395 -0.930288 0
M  V30 17176 H 1634.94 1.24753 -3.28831 0
M  V30 17177 H 1634.82 2.81535 -2.51034 0
M  V30 17178 H 1637.2 2.49838 -1.5705 0
M  V30 17179 H 1637.29 0.928844 -2.3834 0
M  V30 17180 H 1636.93 2.09699 -4.62589 0
M  V30 17181 H 1636.86 3.66436 -3.78196 0
M  V30 17182 H 1639.35 2.32474 -2.97933 0
M  V30 17183 H 1639.66 4.24551 -6.45737 0
M  V30 17184 H 1638.01 3.82391 -5.80347 0
M  V30 17185 H 1641.2 2.81274 -3.74169 0
M  V30 17186 H 1641.37 3.68881 -5.32758 0
M  V30 17187 N 1634.78 1.15898 1.06796 0
M  V30 17188 C 1636.03 0.935488 1.79145 0
M  V30 17189 C 1636.35 -0.538433 1.87419 0
M  V30 17190 O 1635.62 -1.39124 1.37917 0
M  V30 17191 H 1634.2 0.343123 0.663533 0
M  V30 17192 H 1636.86 1.4607 1.29034 0
M  V30 17193 H 1635.96 1.34978 2.81402 0
M  V30 17194 N 1636.26 -1.25243 0.956659 0
M  V30 17195 C 1637.19 -2.28159 0.496574 0
M  V30 17196 C 1638.17 -1.63814 -0.458132 0
M  V30 17197 O 1639.35 -1.90897 -0.356648 0
M  V30 17198 C 1636.48 -3.46573 -0.22454 0
M  V30 17199 C 1635.44 -4.2311 0.645104 0
M  V30 17200 C 1634.76 -5.343 -0.206867 0
M  V30 17201 C 1636.06 -4.85562 1.92422 0
M  V30 17202 H 1637.76 -2.66895 1.35675 0
M  V30 17203 H 1635.3 -1.28301 0.653827 0
M  V30 17204 H 1637.26 -4.17695 -0.55755 0
M  V30 17205 H 1635.98 -3.06833 -1.11898 0
M  V30 17206 H 1634.64 -3.53774 0.961228 0
M  V30 17207 H 1634.29 -4.908 -1.10112 0
M  V30 17208 H 1633.99 -5.86423 0.371714 0
M  V30 17209 H 1635.51 -6.08253 -0.534798 0
M  V30 17210 H 1636.92 -5.48817 1.65749 0
M  V30 17211 H 1635.32 -5.47871 2.44862 0
M  V30 17212 H 1636.39 -4.07634 2.62607 0
M  V30 17213 N 1637.73 -0.725468 -1.3991 0
M  V30 17214 C 1638.64 -0.0805887 -2.34462 0
M  V30 17215 C 1639.66 0.732689 -1.57822 0
M  V30 17216 O 1640.84 0.663362 -1.90162 0
M  V30 17217 C 1637.9 0.822908 -3.36792 0
M  V30 17218 C 1636.96 -0.00153812 -4.293 0
M  V30 17219 C 1636.2 0.85893 -5.26743 0
M  V30 17220 O 1636.42 2.09793 -5.30418 0
M  V30 17221 O 1635.35 0.292659 -6.01188 0
M  V30 17222 H 1639.18 -0.860746 -2.91247 0
M  V30 17223 H 1636.76 -0.48604 -1.41273 0
M  V30 17224 H 1638.65 1.34014 -3.99522 0
M  V30 17225 H 1637.32 1.58204 -2.82406 0
M  V30 17226 H 1636.23 -0.564072 -3.69823 0
M  V30 17227 H 1637.56 -0.722675 -4.86866 0
M  V30 17228 N 1639.21 1.50354 -0.472382 0
M  V30 17229 C 1640.46 2.03264 0.0743981 0
M  V30 17230 C 1640.81 1.34792 1.37291 0
M  V30 17231 O 1640.11 0.46513 1.85869 0
M  V30 17232 C 1640.3 3.5603 0.31263 0
M  V30 17233 C 1640.13 4.39306 -0.961245 0
M  V30 17234 C 1638.9 4.8237 -1.50492 0
M  V30 17235 C 1641.1 4.79605 -1.85698 0
M  V30 17236 N 1639.08 5.49974 -2.72768 0
M  V30 17237 C 1640.45 5.46633 -2.92562 0
M  V30 17238 C 1642.51 4.61562 -1.86721 0
M  V30 17239 C 1641.21 5.9753 -4.00438 0
M  V30 17240 C 1643.23 5.134 -2.93554 0
M  V30 17241 C 1642.6 5.80404 -3.99137 0
M  V30 17242 H 1638.7 0.781895 -0.0128356 0
M  V30 17243 H 1641.28 1.8385 -0.640876 0
M  V30 17244 H 1639.45 3.75387 0.996945 0
M  V30 17245 H 1641.18 3.9559 0.853868 0
M  V30 17246 H 1637.94 4.61724 -1.05393 0
M  V30 17247 H 1638.36 5.88381 -3.34868 0
M  V30 17248 H 1643 4.0919 -1.0641 0
M  V30 17249 H 1640.72 6.48938 -4.81565 0
M  V30 17250 H 1644.31 5.0127 -2.95331 0
M  V30 17251 H 1643.19 6.19793 -4.80443 0
M  V30 17252 N 1640.69 0.205039 1.56261 0
M  V30 17253 C 1641.94 -0.431364 1.97033 0
M  V30 17254 C 1642.25 -1.62066 1.09517 0
M  V30 17255 O 1643.46 -2.32551 1.40116 0
M  V30 17256 C 1641.92 -0.818841 3.50461 0
M  V30 17257 C 1641.52 0.346723 4.46656 0
M  V30 17258 C 1643.27 -1.42177 3.99982 0
M  V30 17259 C 1641.17 -0.0622677 5.91367 0
M  V30 17260 H 1640.1 -0.164934 0.73574 0
M  V30 17261 H 1642.76 0.298635 1.81054 0
M  V30 17262 H 1641.14 -1.60579 3.61981 0
M  V30 17263 H 1642.31 1.12427 4.46874 0
M  V30 17264 H 1640.63 0.861799 4.07384 0
M  V30 17265 H 1643.22 -1.74039 5.05583 0
M  V30 17266 H 1643.57 -2.33177 3.44868 0
M  V30 17267 H 1644.1 -0.698591 3.91618 0
M  V30 17268 H 1640.84 0.813802 6.50429 0
M  V30 17269 H 1640.36 -0.804474 5.94381 0
M  V30 17270 H 1642.04 -0.49466 6.45106 0
M  V30 17271 N 1642.17 -1.57451 -0.0684915 0
M  V30 17272 C 1643.42 -1.87041 -0.765505 0
M  V30 17273 C 1643.74 -0.797489 -1.77947 0
M  V30 17274 O 1643.01 0.17349 -1.9513 0
M  V30 17275 H 1641.59 -0.690203 -0.285708 0
M  V30 17276 H 1644.25 -1.94851 -0.0437957 0
M  V30 17277 H 1643.35 -2.8466 -1.27966 0
M  V30 17278 N 1643.65 0.339955 -1.5389 0
M  V30 17279 C 1644.6 1.43787 -1.82833 0
M  V30 17280 C 1645.59 1.54303 -0.699058 0
M  V30 17281 O 1646.8 1.56884 -0.882455 0
M  V30 17282 H 1643.17 0.479497 -0.579298 0
M  V30 17283 H 1645.14 1.16592 -2.7468 0
M  V30 17284 C 1643.89 2.80257 -2.05794 0
M  V30 17285 H 1643.21 2.72933 -2.92143 0
M  V30 17286 H 1644.65 3.56191 -2.30009 0
M  V30 17287 C 1643.11 3.26143 -0.844532 0
M  V30 17288 O 1643.64 4.01674 -0.0457121 0
M  V30 17289 N 1641.85 2.82988 -0.660748 0
M  V30 17290 H 1641.4 2.21687 -1.31198 0
M  V30 17291 H 1641.35 3.14044 0.149661 0
M  V30 17292 N 1645.13 1.45684 0.601159 0
M  V30 17293 C 1646.07 1.54846 1.71147 0
M  V30 17294 C 1647.04 0.393914 1.61361 0
M  V30 17295 O 1648.23 0.608222 1.80846 0
M  V30 17296 C 1645.37 1.52723 3.09467 0
M  V30 17297 C 1644.48 2.78776 3.30012 0
M  V30 17298 C 1643.62 2.68281 4.58474 0
M  V30 17299 C 1642.65 3.89358 4.72299 0
M  V30 17300 N 1641.79 3.77359 5.92068 0
M  V30 17301 H 1646.63 2.49696 1.62653 0
M  V30 17302 H 1644.17 1.23894 0.793006 0
M  V30 17303 H 1646.13 1.49479 3.89502 0
M  V30 17304 H 1644.76 0.614189 3.16903 0
M  V30 17305 H 1643.81 2.9208 2.43708 0
M  V30 17306 H 1645.12 3.68563 3.36099 0
M  V30 17307 H 1644.27 2.63039 5.46713 0
M  V30 17308 H 1643.01 1.76103 4.54795 0
M  V30 17309 H 1642.02 3.94952 3.82482 0
M  V30 17310 H 1643.24 4.82609 4.77771 0
M  V30 17311 H 1641.19 2.87955 5.89422 0
M  V30 17312 H 1641.11 4.60786 5.99343 0
M  V30 17313 H 1642.37 3.76061 6.82787 0
M  V30 17314 N 1646.6 -0.84422 1.33082 0
M  V30 17315 C 1647.85 -1.59404 1.23585 0
M  V30 17316 C 1648.17 -1.94593 -0.198208 0
M  V30 17317 O 1649.37 -2.68307 -0.415138 0
M  V30 17318 C 1647.83 -2.87489 2.16513 0
M  V30 17319 C 1647.44 -2.59685 3.65059 0
M  V30 17320 C 1649.18 -3.6551 2.15877 0
M  V30 17321 C 1647.09 -3.83834 4.49917 0
M  V30 17322 H 1646.02 -0.598191 0.459003 0
M  V30 17323 H 1648.67 -0.931299 1.58111 0
M  V30 17324 H 1647.05 -3.55276 1.74913 0
M  V30 17325 H 1648.22 -2.00143 4.15065 0
M  V30 17326 H 1646.54 -1.94977 3.6793 0
M  V30 17327 H 1649.14 -4.57654 2.76509 0
M  V30 17328 H 1649.48 -4.00031 1.15244 0
M  V30 17329 H 1650.01 -3.0464 2.55811 0
M  V30 17330 H 1646.75 -3.54448 5.51404 0
M  V30 17331 H 1646.27 -4.42734 4.04656 0
M  V30 17332 H 1647.95 -4.51468 4.63449 0
M  V30 17333 N 1648.08 -1.16463 -1.0618 0
M  V30 17334 C 1649.31 -0.97159 -1.83235 0
M  V30 17335 C 1649.73 0.475295 -1.81996 0
M  V30 17336 O 1649.09 1.33964 -1.22161 0
M  V30 17337 C 1649.14 -1.50504 -3.2769 0
M  V30 17338 O 1648.24 -0.712128 -4.06205 0
M  V30 17339 H 1647.58 -0.345676 -0.566925 0
M  V30 17340 H 1650.11 -1.54727 -1.33868 0
M  V30 17341 H 1650.12 -1.52301 -3.78508 0
M  V30 17342 H 1648.8 -2.55832 -3.27907 0
M  V30 17343 H 1647.37 -0.764756 -3.64974 0
M  V30 17344 N 1649.56 1.24734 -0.963288 0
M  V30 17345 C 1650.51 2.25555 -0.48926 0
M  V30 17346 C 1651.48 1.59521 0.462848 0
M  V30 17347 O 1652.66 1.87095 0.374188 0
M  V30 17348 C 1649.8 3.44407 0.218629 0
M  V30 17349 C 1648.91 4.25051 -0.77173 0
M  V30 17350 C 1648.05 5.31185 -0.0403986 0
M  V30 17351 C 1647.09 6.03523 -1.02112 0
M  V30 17352 N 1646.23 7.0137 -0.320083 0
M  V30 17353 H 1651.07 2.6547 -1.35386 0
M  V30 17354 H 1648.6 1.30504 -0.678762 0
M  V30 17355 H 1650.56 4.12173 0.645701 0
M  V30 17356 H 1649.19 3.05341 1.04722 0
M  V30 17357 H 1648.24 3.56865 -1.31726 0
M  V30 17358 H 1649.55 4.75084 -1.51976 0
M  V30 17359 H 1648.71 6.05067 0.444886 0
M  V30 17360 H 1647.45 4.82048 0.740356 0
M  V30 17361 H 1646.45 5.28448 -1.51732 0
M  V30 17362 H 1647.68 6.54749 -1.80224 0
M  V30 17363 H 1645.62 6.54511 0.441775 0
M  V30 17364 H 1645.54 7.49263 -1.00705 0
M  V30 17365 H 1646.81 7.79368 0.143379 0
M  V30 17366 N 1651.04 0.732878 1.39523 0
M  V30 17367 C 1652.28 0.279891 2.00556 0
M  V30 17368 C 1652.61 -1.13223 1.58148 0
M  V30 17369 O 1651.87 -1.78575 0.800591 0
M  V30 17370 C 1652.17 0.32714 3.559 0
M  V30 17371 C 1651.83 1.69198 4.17951 0
M  V30 17372 C 1650.49 2.06555 4.34613 0
M  V30 17373 C 1652.85 2.58821 4.52395 0
M  V30 17374 C 1650.17 3.33047 4.83008 0
M  V30 17375 C 1652.53 3.84682 5.02197 0
M  V30 17376 C 1651.19 4.22134 5.17068 0
M  V30 17377 H 1650.46 0.102419 0.733888 0
M  V30 17378 H 1653.11 0.939304 1.66881 0
M  V30 17379 H 1651.41 -0.415849 3.89587 0
M  V30 17380 H 1653.11 -0.0414564 4.00979 0
M  V30 17381 H 1649.7 1.39153 4.05382 0
M  V30 17382 H 1653.88 2.31231 4.39142 0
M  V30 17383 H 1649.14 3.6201 4.92706 0
M  V30 17384 H 1653.31 4.54286 5.27823 0
M  V30 17385 H 1650.94 5.20215 5.54329 0
M  V30 17386 N 1652.52 -1.50101 0.480349 0
M  V30 17387 C 1653.76 -2.01567 -0.073165 0
M  V30 17388 C 1654.08 -1.36657 -1.39944 0
M  V30 17389 O 1655.28 -1.79332 -2.03844 0
M  V30 17390 C 1653.74 -3.59445 -0.180889 0
M  V30 17391 C 1653.35 -4.33318 1.1375 0
M  V30 17392 C 1655.09 -4.18923 -0.685868 0
M  V30 17393 C 1653 -5.83003 0.99307 0
M  V30 17394 H 1651.93 -0.753358 -0.0311179 0
M  V30 17395 H 1654.58 -1.72829 0.616648 0
M  V30 17396 H 1652.96 -3.84811 -0.934693 0
M  V30 17397 H 1654.14 -4.1967 1.90299 0
M  V30 17398 H 1652.45 -3.85492 1.57431 0
M  V30 17399 H 1655.05 -5.28512 -0.811109 0
M  V30 17400 H 1655.39 -3.80916 -1.67955 0
M  V30 17401 H 1655.92 -3.97799 0.0108117 0
M  V30 17402 H 1652.66 -6.25499 1.9604 0
M  V30 17403 H 1652.18 -5.992 0.268128 0
M  V30 17404 H 1653.86 -6.4359 0.663417 0
M  V30 17405 N 1653.99 -0.213323 -1.5615 0
M  V30 17406 C 1655.27 0.469174 -1.8989 0
M  V30 17407 C 1655.65 1.78341 -1.1295 0
M  V30 17408 O 1655 2.27276 -0.236236 0
M  V30 17409 C 1655.21 0.67017 -3.42505 0
M  V30 17410 C 1656.56 0.981324 -4.13104 0
M  V30 17411 O 1657.58 0.757249 -3.48058 0
M  V30 17412 O 1656.44 1.40614 -5.281 0
M  V30 17413 H 1653.53 0.246943 -0.789271 0
M  V30 17414 H 1656.08 -0.254896 -1.67775 0
M  V30 17415 H 1654.85 -0.257189 -3.90454 0
M  V30 17416 H 1654.47 1.44603 -3.70372 0
M  V30 17417 N 1655.47 1.57485 0.0601405 0
M  V30 17418 C 1656.72 1.88953 0.752883 0
M  V30 17419 C 1657.07 0.808397 1.74593 0
M  V30 17420 O 1656.37 -0.186272 1.90692 0
M  V30 17421 C 1656.56 3.24839 1.49045 0
M  V30 17422 C 1656.39 4.46069 0.570341 0
M  V30 17423 C 1655.16 5.04892 0.202922 0
M  V30 17424 C 1657.36 5.14115 -0.137973 0
M  V30 17425 N 1655.34 6.09643 -0.721689 0
M  V30 17426 C 1656.71 6.13146 -0.919347 0
M  V30 17427 C 1658.77 4.97464 -0.208213 0
M  V30 17428 C 1657.47 6.97323 -1.76445 0
M  V30 17429 C 1659.49 5.82178 -1.04033 0
M  V30 17430 C 1658.86 6.80756 -1.80972 0
M  V30 17431 H 1654.96 0.74077 0.250566 0
M  V30 17432 H 1657.54 1.94695 0.0139588 0
M  V30 17433 H 1655.71 3.20084 2.20002 0
M  V30 17434 H 1657.44 3.43919 2.13312 0
M  V30 17435 H 1654.2 4.70297 0.558349 0
M  V30 17436 H 1654.62 6.6668 -1.17758 0
M  V30 17437 H 1659.26 4.21158 0.372298 0
M  V30 17438 H 1656.98 7.72996 -2.35589 0
M  V30 17439 H 1660.57 5.71349 -1.09781 0
M  V30 17440 H 1659.45 7.45169 -2.44323 0
M  V30 17441 N 1656.95 -0.331789 1.54068 0
M  V30 17442 C 1657.88 -1.43156 1.77713 0
M  V30 17443 C 1658.86 -1.50036 0.626723 0
M  V30 17444 O 1660.05 -1.67573 0.863228 0
M  V30 17445 C 1657.17 -2.81311 1.88632 0
M  V30 17446 C 1656.22 -2.92 3.10867 0
M  V30 17447 S 1657.05 -2.57255 4.69659 0
M  V30 17448 C 1658.21 -3.97497 4.83474 0
M  V30 17449 H 1658.44 -1.22884 2.70715 0
M  V30 17450 H 1655.97 -0.528148 1.45086 0
M  V30 17451 H 1657.93 -3.60898 1.95608 0
M  V30 17452 H 1656.59 -2.9887 0.966212 0
M  V30 17453 H 1655.79 -3.93261 3.15217 0
M  V30 17454 H 1655.39 -2.20374 3.02177 0
M  V30 17455 H 1657.68 -4.92156 4.65605 0
M  V30 17456 H 1658.62 -3.98135 5.85572 0
M  V30 17457 H 1659.03 -3.86069 4.11838 0
M  V30 17458 N 1658.43 -1.46001 -0.593424 0
M  V30 17459 C 1659.38 -1.55752 -1.70323 0
M  V30 17460 C 1660.35 -0.402466 -1.6115 0
M  V30 17461 O 1661.53 -0.617804 -1.80521 0
M  V30 17462 C 1658.67 -1.54362 -3.08653 0
M  V30 17463 C 1657.78 -2.80523 -3.28529 0
M  V30 17464 C 1656.92 -2.70709 -4.57045 0
M  V30 17465 C 1655.96 -3.91857 -4.70228 0
M  V30 17466 N 1655.09 -3.80494 -5.90059 0
M  V30 17467 H 1659.93 -2.50555 -1.61326 0
M  V30 17468 H 1657.47 -1.24313 -0.786425 0
M  V30 17469 H 1659.43 -1.51542 -3.88704 0
M  V30 17470 H 1658.06 -0.630986 -3.16573 0
M  V30 17471 H 1657.11 -2.93368 -2.42155 0
M  V30 17472 H 1658.42 -3.70341 -3.3414 0
M  V30 17473 H 1657.58 -2.65935 -5.45311 0
M  V30 17474 H 1656.32 -1.78513 -4.53855 0
M  V30 17475 H 1655.32 -3.96975 -3.80383 0
M  V30 17476 H 1656.55 -4.85136 -4.75205 0
M  V30 17477 H 1654.49 -2.91077 -5.87886 0
M  V30 17478 H 1654.41 -4.63958 -5.96891 0
M  V30 17479 H 1655.68 -3.79676 -6.80783 0
M  V30 17480 N 1659.91 0.83715 -1.33527 0
M  V30 17481 C 1661.13 1.62976 -1.28271 0
M  V30 17482 C 1661.56 1.87554 0.143201 0
M  V30 17483 O 1660.91 1.44088 1.10038 0
M  V30 17484 C 1660.96 2.95607 -2.06516 0
M  V30 17485 O 1660.07 3.87 -1.42494 0
M  V30 17486 H 1659.41 0.496212 -0.441214 0
M  V30 17487 H 1661.94 1.04137 -1.76115 0
M  V30 17488 H 1661.95 3.4529 -2.17344 0
M  V30 17489 H 1660.62 2.77041 -3.10195 0
M  V30 17490 H 1659.2 3.45492 -1.40321 0
M  V30 17491 N 1661.38 1.17024 1.05561 0
M  V30 17492 C 1662.32 0.827019 2.12687 0
M  V30 17493 C 1663.3 -0.204573 1.61308 0
M  V30 17494 O 1664.48 -0.0869578 1.88299 0
M  V30 17495 C 1661.61 0.233018 3.37897 0
M  V30 17496 C 1660.65 1.2394 4.08094 0
M  V30 17497 S 1661.49 2.78918 4.57127 0
M  V30 17498 C 1662.64 2.20988 5.8559 0
M  V30 17499 H 1662.87 1.73431 2.41472 0
M  V30 17500 H 1660.41 0.994498 1.18106 0
M  V30 17501 H 1662.37 -0.103221 4.1037 0
M  V30 17502 H 1661.03 -0.652154 3.07255 0
M  V30 17503 H 1660.22 0.772359 4.98047 0
M  V30 17504 H 1659.82 1.5211 3.4167 0
M  V30 17505 H 1662.11 1.58313 6.58744 0
M  V30 17506 H 1663.06 3.0918 6.37035 0
M  V30 17507 H 1663.46 1.64583 5.39975 0
M  V30 17508 N 1662.86 -1.24221 0.969889 0
M  V30 17509 C 1663.79 -2.27619 0.520745 0
M  V30 17510 C 1664.77 -1.64291 -0.440731 0
M  V30 17511 O 1665.96 -1.91265 -0.336381 0
M  V30 17512 C 1663.09 -3.46792 -0.187768 0
M  V30 17513 C 1662.04 -4.22402 0.689945 0
M  V30 17514 C 1661.37 -5.34489 -0.150186 0
M  V30 17515 C 1662.67 -4.83494 1.97562 0
M  V30 17516 H 1664.36 -2.65441 1.38498 0
M  V30 17517 H 1661.91 -1.276 0.667398 0
M  V30 17518 H 1663.86 -4.18263 -0.513216 0
M  V30 17519 H 1662.59 -3.08002 -1.08637 0
M  V30 17520 H 1661.24 -3.52734 0.998696 0
M  V30 17521 H 1660.89 -4.9194 -1.049 0
M  V30 17522 H 1660.59 -5.85996 0.433891 0
M  V30 17523 H 1662.12 -6.08786 -0.470255 0
M  V30 17524 H 1663.53 -5.47028 1.71561 0
M  V30 17525 H 1661.93 -5.45243 2.5066 0
M  V30 17526 H 1663 -4.04826 2.66915 0
M  V30 17527 N 1664.34 -0.740267 -1.39132 0
M  V30 17528 C 1665.75 -0.359866 -1.83199 0
M  V30 17529 C 1666.1 1.1095 -1.61816 0
M  V30 17530 O 1665.23 1.85635 -1.11215 0
M  V30 17531 C 1665.82 -0.64639 -3.32577 0
M  V30 17532 C 1664.38 -0.319423 -3.75042 0
M  V30 17533 C 1663.53 -0.906345 -2.6207 0
M  V30 17534 H 1666.48 -0.93749 -1.2805 0
M  V30 17535 H 1666.5 0.080033 -3.80416 0
M  V30 17536 H 1666.01 -1.71588 -3.48108 0
M  V30 17537 H 1664.11 0.744022 -3.65096 0
M  V30 17538 H 1664.23 -0.805664 -4.72277 0
M  V30 17539 H 1662.59 -0.332615 -2.52519 0
M  V30 17540 H 1663.37 -1.9806 -2.80405 0
M  V30 17541 N 1665.82 1.49844 -0.488302 0
M  V30 17542 C 1666.75 2.26762 0.333396 0
M  V30 17543 C 1667.76 1.32785 0.941918 0
M  V30 17544 O 1668.95 1.58165 0.827407 0
M  V30 17545 C 1666.05 3.04721 1.48318 0
M  V30 17546 C 1665.23 4.26181 0.984303 0
M  V30 17547 C 1664.28 4.8629 2.01018 0
M  V30 17548 O 1663.31 5.4672 1.58384 0
M  V30 17549 N 1664.51 4.74813 3.33965 0
M  V30 17550 H 1667.28 2.97921 -0.32609 0
M  V30 17551 H 1664.84 1.58704 -0.320092 0
M  V30 17552 H 1666.83 3.4181 2.16676 0
M  V30 17553 H 1665.4 2.36251 2.04705 0
M  V30 17554 H 1664.62 3.93998 0.126039 0
M  V30 17555 H 1665.91 5.04895 0.62919 0
M  V30 17556 H 1665.31 4.26793 3.71301 0
M  V30 17557 H 1663.86 5.16122 3.98072 0
M  V30 17558 N 1667.3 0.221601 1.56034 0
M  V30 17559 C 1668.26 -0.674973 2.19036 0
M  V30 17560 C 1669.26 -1.1216 1.15225 0
M  V30 17561 O 1670.45 -1.0304 1.40458 0
M  V30 17562 C 1667.58 -1.92465 2.81372 0
M  V30 17563 H 1668.77 -0.125689 2.99637 0
M  V30 17564 H 1666.33 -0.0280114 1.56275 0
M  V30 17565 H 1667.06 -2.5158 2.04641 0
M  V30 17566 H 1666.85 -1.61286 3.57392 0
M  V30 17567 H 1668.34 -2.56342 3.29664 0
M  V30 17568 N 1668.77 -1.57515 -0.0517878 0
M  V30 17569 C 1669.71 -2.01812 -1.08649 0
M  V30 17570 C 1670.72 -0.92719 -1.33817 0
M  V30 17571 O 1671.91 -1.20483 -1.31705 0
M  V30 17572 C 1669.01 -2.35903 -2.43316 0
M  V30 17573 C 1668.18 -3.67095 -2.37824 0
M  V30 17574 C 1667.24 -3.8863 -3.54758 0
M  V30 17575 O 1666.27 -4.59974 -3.3528 0
M  V30 17576 N 1667.47 -3.32516 -4.75829 0
M  V30 17577 H 1670.23 -2.91191 -0.709094 0
M  V30 17578 H 1667.79 -1.60109 -0.240125 0
M  V30 17579 H 1669.79 -2.47466 -3.20223 0
M  V30 17580 H 1668.36 -1.52312 -2.72983 0
M  V30 17581 H 1667.58 -3.66099 -1.46168 0
M  V30 17582 H 1668.86 -4.53199 -2.31275 0
M  V30 17583 H 1668.26 -2.74645 -4.94557 0
M  V30 17584 H 1666.82 -3.49496 -5.50178 0
M  V30 17585 N 1670.25 0.323614 -1.54242 0
M  V30 17586 C 1671.18 1.40344 -1.86616 0
M  V30 17587 C 1672.16 1.53972 -0.722963 0
M  V30 17588 O 1673.35 1.67852 -0.976692 0
M  V30 17589 C 1670.48 2.77112 -2.09347 0
M  V30 17590 C 1669.43 2.78273 -3.25189 0
M  V30 17591 C 1668.76 4.18116 -3.33291 0
M  V30 17592 C 1670.06 2.42025 -4.6284 0
M  V30 17593 H 1671.75 1.13499 -2.77053 0
M  V30 17594 H 1669.3 0.544553 -1.33306 0
M  V30 17595 H 1671.25 3.52719 -2.3058 0
M  V30 17596 H 1669.98 3.05435 -1.1566 0
M  V30 17597 H 1668.64 2.05121 -3.03844 0
M  V30 17598 H 1668.28 4.4358 -2.37163 0
M  V30 17599 H 1667.98 4.19799 -4.11147 0
M  V30 17600 H 1669.51 4.95536 -3.56758 0
M  V30 17601 H 1670.92 3.07346 -4.83954 0
M  V30 17602 H 1669.32 2.5496 -5.43245 0
M  V30 17603 H 1670.39 1.37175 -4.65092 0
M  V30 17604 N 1671.73 1.46313 0.585673 0
M  V30 17605 C 1672.68 1.56653 1.69495 0
M  V30 17606 C 1673.65 0.411007 1.60935 0
M  V30 17607 O 1674.83 0.627369 1.80191 0
M  V30 17608 C 1671.97 1.55996 3.0783 0
M  V30 17609 C 1671.09 2.82261 3.27036 0
M  V30 17610 C 1670.22 2.73129 4.55603 0
M  V30 17611 C 1669.26 3.94346 4.68143 0
M  V30 17612 N 1668.4 3.83617 5.88032 0
M  V30 17613 H 1673.24 2.51407 1.59995 0
M  V30 17614 H 1670.77 1.24729 0.779821 0
M  V30 17615 H 1672.73 1.53602 3.87895 0
M  V30 17616 H 1671.36 0.647766 3.16234 0
M  V30 17617 H 1670.41 2.94648 2.40596 0
M  V30 17618 H 1671.73 3.72107 3.32171 0
M  V30 17619 H 1670.88 2.68823 5.43893 0
M  V30 17620 H 1669.62 1.80917 4.52902 0
M  V30 17621 H 1668.62 3.98987 3.78272 0
M  V30 17622 H 1669.85 4.8765 4.72625 0
M  V30 17623 H 1667.8 2.9419 5.86334 0
M  V30 17624 H 1667.71 4.67117 5.94422 0
M  V30 17625 H 1668.98 3.83281 6.7876 0
M  V30 17626 N 1673.21 -0.830057 1.33969 0
M  V30 17627 C 1674.46 -1.58821 1.26111 0
M  V30 17628 C 1674.79 -1.9345 -0.170484 0
M  V30 17629 O 1674.06 -1.59433 -1.11407 0
M  V30 17630 C 1674.35 -2.89243 2.14501 0
M  V30 17631 C 1674.2 -2.61239 3.66162 0
M  V30 17632 C 1675.52 -3.90752 2.02487 0
M  V30 17633 H 1672.64 -0.576255 0.459455 0
M  V30 17634 H 1675.28 -0.956736 1.64154 0
M  V30 17635 H 1673.43 -3.43133 1.82186 0
M  V30 17636 H 1675.1 -2.13713 4.08809 0
M  V30 17637 H 1673.34 -1.94796 3.87604 0
M  V30 17638 H 1674.02 -3.54212 4.23365 0
M  V30 17639 H 1676.49 -3.46194 2.30844 0
M  V30 17640 H 1675.37 -4.79825 2.6657 0
M  V30 17641 H 1675.63 -4.30649 0.999704 0
M  V30 17642 N 1674.69 -1.17582 -1.04939 0
M  V30 17643 C 1675.63 -0.894855 -2.12746 0
M  V30 17644 C 1676.6 0.162261 -1.65306 0
M  V30 17645 O 1677.79 0.0245068 -1.90784 0
M  V30 17646 C 1674.93 -0.417085 -3.4257 0
M  V30 17647 C 1674.04 -1.53861 -4.03672 0
M  V30 17648 C 1673.18 -1.01446 -5.21423 0
M  V30 17649 C 1672.22 -2.11127 -5.74536 0
M  V30 17650 N 1671.35 -1.60169 -6.83586 0
M  V30 17651 H 1676.19 -1.81802 -2.36118 0
M  V30 17652 H 1673.73 -0.906716 -1.15832 0
M  V30 17653 H 1675.69 -0.121619 -4.17023 0
M  V30 17654 H 1674.32 0.469119 -3.19373 0
M  V30 17655 H 1673.37 -1.94975 -3.26633 0
M  V30 17656 H 1674.68 -2.36575 -4.39128 0
M  V30 17657 H 1673.84 -0.672992 -6.02956 0
M  V30 17658 H 1672.58 -0.156795 -4.87448 0
M  V30 17659 H 1671.58 -2.46128 -4.91631 0
M  V30 17660 H 1672.81 -2.97313 -6.10559 0
M  V30 17661 H 1670.75 -0.766783 -6.51503 0
M  V30 17662 H 1670.67 -2.36488 -7.18059 0
M  V30 17663 H 1671.94 -1.28923 -7.68765 0
M  V30 17664 N 1676.17 1.23705 -0.976463 0
M  V30 17665 C 1677.4 1.95771 -0.660107 0
M  V30 17666 C 1677.8 1.72541 0.776297 0
M  V30 17667 O 1677.15 1.01134 1.53355 0
M  V30 17668 C 1677.21 3.4892 -0.865752 0
M  V30 17669 C 1676.87 3.95862 -2.28347 0
M  V30 17670 C 1677.87 4.04844 -3.26186 0
M  V30 17671 C 1675.55 4.28953 -2.61351 0
M  V30 17672 C 1677.55 4.46265 -4.55111 0
M  V30 17673 C 1675.24 4.70057 -3.905 0
M  V30 17674 C 1676.23 4.78679 -4.87192 0
M  V30 17675 O 1675.92 5.1886 -6.14035 0
M  V30 17676 H 1675.65 0.630202 -0.244585 0
M  V30 17677 H 1678.21 1.58255 -1.30937 0
M  V30 17678 H 1676.44 3.86372 -0.159321 0
M  V30 17679 H 1678.13 4.02195 -0.547154 0
M  V30 17680 H 1678.89 3.79486 -3.02018 0
M  V30 17681 H 1674.77 4.21456 -1.86803 0
M  V30 17682 H 1678.32 4.5291 -5.30583 0
M  V30 17683 H 1674.21 4.94863 -4.14464 0
M  V30 17684 H 1674.98 5.36984 -6.1773 0
M  V30 17685 N 1677.64 0.747635 1.38738 0
M  V30 17686 C 1678.57 0.131317 2.3313 0
M  V30 17687 C 1679.55 -0.710229 1.54563 0
M  V30 17688 O 1680.74 -0.652631 1.82905 0
M  V30 17689 C 1677.87 -0.767168 3.38721 0
M  V30 17690 C 1676.82 -0.0288124 4.2799 0
M  V30 17691 C 1676.15 -1.04515 5.24386 0
M  V30 17692 C 1677.45 1.13608 5.09795 0
M  V30 17693 H 1679.14 0.91981 2.84921 0
M  V30 17694 H 1676.69 0.443764 1.36992 0
M  V30 17695 H 1678.64 -1.20796 4.03716 0
M  V30 17696 H 1677.37 -1.58792 2.85399 0
M  V30 17697 H 1676.03 0.392491 3.64493 0
M  V30 17698 H 1675.67 -1.8598 4.67355 0
M  V30 17699 H 1675.37 -0.555813 5.84965 0
M  V30 17700 H 1676.9 -1.48538 5.92257 0
M  V30 17701 H 1678.31 0.773129 5.68063 0
M  V30 17702 H 1676.71 1.55589 5.79579 0
M  V30 17703 H 1677.78 1.95182 4.43883 0
M  V30 17704 N 1679.12 -1.49583 0.496242 0
M  V30 17705 C 1680.35 -2.07342 -0.0490986 0
M  V30 17706 C 1680.77 -1.35474 -1.30493 0
M  V30 17707 O 1680.13 -0.410005 -1.76603 0
M  V30 17708 C 1680.18 -3.59427 -0.290601 0
M  V30 17709 O 1679.28 -3.89111 -1.36626 0
M  V30 17710 H 1678.62 -0.663562 0.0241141 0
M  V30 17711 H 1681.15 -1.92452 0.6945 0
M  V30 17712 H 1681.16 -4.04627 -0.523549 0
M  V30 17713 H 1679.84 -4.11147 0.626959 0
M  V30 17714 H 1678.41 -3.55726 -1.11864 0
M  V30 17715 N 1680.6 -0.229873 -1.55915 0
M  V30 17716 C 1681.51 0.687953 -2.24286 0
M  V30 17717 C 1682.53 1.20705 -1.25325 0
M  V30 17718 O 1683.7 1.2469 -1.58159 0
M  V30 17719 C 1680.77 1.87563 -2.91584 0
M  V30 17720 C 1679.83 1.39769 -4.0591 0
M  V30 17721 C 1679.06 2.52876 -4.69989 0
M  V30 17722 O 1679.28 3.71208 -4.33083 0
M  V30 17723 O 1678.22 2.23603 -5.58825 0
M  V30 17724 H 1682.04 0.135464 -3.03398 0
M  V30 17725 H 1679.63 0.000925172 -1.494 0
M  V30 17726 H 1681.51 2.56907 -3.34031 0
M  V30 17727 H 1680.19 2.41606 -2.15426 0
M  V30 17728 H 1679.09 0.672029 -3.68014 0
M  V30 17729 H 1680.43 0.903543 -4.83836 0
M  V30 17730 N 1682.08 1.5754 0.0434337 0
M  V30 17731 C 1683.01 2.08648 1.04824 0
M  V30 17732 C 1683.99 0.985894 1.38615 0
M  V30 17733 O 1685.17 1.2603 1.4775 0
M  V30 17734 C 1682.3 2.55399 2.35348 0
M  V30 17735 C 1681.26 3.69592 2.15837 0
M  V30 17736 C 1680.58 4.02497 3.51995 0
M  V30 17737 C 1681.88 4.98575 1.55629 0
M  V30 17738 H 1683.58 2.9285 0.622849 0
M  V30 17739 H 1681.12 1.40879 0.298158 0
M  V30 17740 H 1683.08 2.89771 3.05958 0
M  V30 17741 H 1681.8 1.68262 2.7992 0
M  V30 17742 H 1680.46 3.35546 1.47663 0
M  V30 17743 H 1680.11 3.12448 3.94189 0
M  V30 17744 H 1679.81 4.79406 3.39771 0
M  V30 17745 H 1681.33 4.39391 4.23991 0
M  V30 17746 H 1682.75 5.30996 2.16138 0
M  V30 17747 H 1681.14 5.79998 1.54021 0
M  V30 17748 H 1682.21 4.82098 0.520567 0
M  V30 17749 N 1683.56 -0.31543 1.54411 0
M  V30 17750 C 1684.5 -1.3885 1.84362 0
M  V30 17751 C 1685.47 -1.51028 0.69135 0
M  V30 17752 O 1686.66 -1.66119 0.938577 0
M  V30 17753 C 1683.8 -2.75085 2.0838 0
M  V30 17754 C 1682.91 -2.71473 3.36045 0
M  V30 17755 C 1682.05 -3.99608 3.49981 0
M  V30 17756 C 1681.08 -3.90335 4.71492 0
M  V30 17757 N 1680.22 -5.10216 4.82311 0
M  V30 17758 H 1685.06 -1.12609 2.75905 0
M  V30 17759 H 1682.6 -0.54495 1.36633 0
M  V30 17760 H 1684.56 -3.54295 2.20298 0
M  V30 17761 H 1683.19 -2.99618 1.2012 0
M  V30 17762 H 1682.24 -1.84209 3.32823 0
M  V30 17763 H 1683.55 -2.60507 4.25368 0
M  V30 17764 H 1682.7 -4.8725 3.61486 0
M  V30 17765 H 1681.44 -4.1339 2.58766 0
M  V30 17766 H 1680.45 -3.01077 4.60036 0
M  V30 17767 H 1681.67 -3.78111 5.641 0
M  V30 17768 H 1679.62 -5.24489 3.94014 0
M  V30 17769 H 1679.54 -5.01617 5.65612 0
M  V30 17770 H 1680.8 -5.99551 4.98156 0
M  V30 17771 N 1685.03 -1.46622 -0.577906 0
M  V30 17772 C 1685.98 -1.57549 -1.68662 0
M  V30 17773 C 1686.95 -0.419536 -1.60714 0
M  V30 17774 O 1688.14 -0.636916 -1.79856 0
M  V30 17775 C 1685.28 -1.57627 -3.06998 0
M  V30 17776 C 1684.39 -2.83991 -3.25535 0
M  V30 17777 C 1683.52 -2.75541 -4.54148 0
M  V30 17778 C 1682.56 -3.96823 -4.66045 0
M  V30 17779 N 1681.7 -3.86731 -5.8599 0
M  V30 17780 H 1686.54 -2.52252 -1.58659 0
M  V30 17781 H 1684.08 -1.2514 -0.773195 0
M  V30 17782 H 1686.04 -1.55657 -3.87075 0
M  V30 17783 H 1684.67 -0.664527 -3.15886 0
M  V30 17784 H 1683.72 -2.9592 -2.3903 0
M  V30 17785 H 1685.03 -3.73864 -3.30193 0
M  V30 17786 H 1684.18 -2.71703 -5.42459 0
M  V30 17787 H 1682.92 -1.83317 -4.51936 0
M  V30 17788 H 1681.93 -4.00987 -3.76151 0
M  V30 17789 H 1683.15 -4.90149 -4.70033 0
M  V30 17790 H 1681.1 -2.97296 -5.84766 0
M  V30 17791 H 1681.02 -4.70263 -5.91937 0
M  V30 17792 H 1682.28 -3.86876 -6.76718 0
M  V30 17793 N 1686.51 0.822941 -1.34408 0
M  V30 17794 C 1687.44 1.94878 -1.28627 0
M  V30 17795 C 1688.42 1.6931 -0.163727 0
M  V30 17796 O 1689.61 1.90908 -0.356083 0
M  V30 17797 C 1686.74 3.31333 -1.04094 0
M  V30 17798 C 1685.69 3.71341 -2.12814 0
M  V30 17799 C 1685.02 5.05779 -1.73469 0
M  V30 17800 C 1686.32 3.83439 -3.54643 0
M  V30 17801 H 1688.01 1.99972 -2.22827 0
M  V30 17802 H 1685.56 0.960715 -1.07267 0
M  V30 17803 H 1687.51 4.0968 -0.986947 0
M  V30 17804 H 1686.24 3.26539 -0.0633642 0
M  V30 17805 H 1684.89 2.95269 -2.17282 0
M  V30 17806 H 1684.54 4.97471 -0.743727 0
M  V30 17807 H 1684.24 5.33518 -2.46236 0
M  V30 17808 H 1685.77 5.86583 -1.69566 0
M  V30 17809 H 1687.18 4.52057 -3.52587 0
M  V30 17810 H 1685.58 4.22632 -4.2603 0
M  V30 17811 H 1686.65 2.85439 -3.91986 0
M  V30 17812 N 1687.99 1.18137 1.04314 0
M  V30 17813 C 1688.94 0.902484 2.14378 0
M  V30 17814 C 1689.93 -0.136289 1.68851 0
M  V30 17815 O 1691.14 0.0116256 1.79996 0
M  V30 17816 H 1687.51 0.274358 0.700165 0
M  V30 17817 H 1689.48 1.83768 2.35099 0
M  V30 17818 C 1688.23 0.441975 3.4488 0
M  V30 17819 H 1687.56 1.23279 3.80319 0
M  V30 17820 H 1689 0.285808 4.23036 0
M  V30 17821 C 1687.46 -0.841797 3.26214 0
M  V30 17822 O 1687.99 -1.90658 3.53571 0
M  V30 17823 N 1686.19 -0.793425 2.79559 0
M  V30 17824 H 1685.74 0.0732997 2.57496 0
M  V30 17825 H 1685.7 -1.65281 2.6745 0
M  V30 17826 N 1689.47 -1.23186 0.98301 0
M  V30 17827 C 1690.72 -1.91671 0.653342 0
M  V30 17828 C 1691.04 -1.76673 -0.813438 0
M  V30 17829 O 1690.3 -1.1232 -1.60258 0
M  V30 17830 C 1690.6 -3.43331 0.992898 0
M  V30 17831 C 1690.26 -3.78511 2.45032 0
M  V30 17832 C 1688.93 -3.87824 2.84861 0
M  V30 17833 C 1691.28 -3.95423 3.39544 0
M  V30 17834 C 1688.61 -4.11479 4.18213 0
M  V30 17835 C 1690.96 -4.20579 4.72543 0
M  V30 17836 C 1689.62 -4.28114 5.12128 0
M  V30 17837 H 1688.89 -0.701373 0.239075 0
M  V30 17838 H 1691.54 -1.46157 1.23736 0
M  V30 17839 H 1689.84 -3.90434 0.326832 0
M  V30 17840 H 1691.54 -3.94556 0.715995 0
M  V30 17841 H 1688.13 -3.71838 2.13154 0
M  V30 17842 H 1692.31 -3.87615 3.09949 0
M  V30 17843 H 1687.57 -4.15536 4.48486 0
M  V30 17844 H 1691.74 -4.32608 5.45732 0
M  V30 17845 H 1689.37 -4.46196 6.15478 0
M  V30 17846 N 1690.95 -0.754982 -1.38339 0
M  V30 17847 C 1691.88 -0.143678 -2.33058 0
M  V30 17848 C 1692.86 0.702022 -1.54938 0
M  V30 17849 O 1694.04 0.642922 -1.83249 0
M  V30 17850 C 1691.17 0.749194 -3.39123 0
M  V30 17851 C 1690.13 0.00611459 -4.28 0
M  V30 17852 C 1689.45 1.01733 -5.24933 0
M  V30 17853 C 1690.75 -1.1631 -5.09185 0
M  V30 17854 H 1692.45 -0.934907 -2.84429 0
M  V30 17855 H 1689.99 -0.451023 -1.36754 0
M  V30 17856 H 1691.95 1.18653 -4.04351 0
M  V30 17857 H 1690.67 1.57276 -2.86237 0
M  V30 17858 H 1689.33 -0.411816 -3.6428 0
M  V30 17859 H 1688.98 1.83499 -4.68334 0
M  V30 17860 H 1688.68 0.524783 -5.85252 0
M  V30 17861 H 1690.2 1.45395 -5.93037 0
M  V30 17862 H 1691.61 -0.803244 -5.67645 0
M  V30 17863 H 1690.01 -1.5866 -5.78746 0
M  V30 17864 H 1691.08 -1.97533 -4.42842 0
M  V30 17865 N 1692.42 1.49318 -0.504168 0
M  V30 17866 C 1693.33 2.32958 0.277053 0
M  V30 17867 C 1694.35 1.44838 0.964266 0
M  V30 17868 O 1695.53 1.77856 0.944947 0
M  V30 17869 C 1692.59 3.20352 1.32572 0
M  V30 17870 C 1691.65 4.24326 0.651606 0
M  V30 17871 C 1690.89 5.07544 1.65031 0
M  V30 17872 O 1691.11 4.92326 2.88047 0
M  V30 17873 O 1690.04 5.89737 1.20388 0
M  V30 17874 H 1693.87 3.00952 -0.40763 0
M  V30 17875 H 1691.45 1.47023 -0.265453 0
M  V30 17876 H 1693.34 3.74483 1.93237 0
M  V30 17877 H 1692.01 2.5505 1.99327 0
M  V30 17878 H 1690.92 3.741 0.00513384 0
M  V30 17879 H 1692.25 4.92193 0.0264424 0
M  V30 17880 N 1693.9 0.238138 1.5579 0
M  V30 17881 C 1694.85 -0.665098 2.21009 0
M  V30 17882 C 1695.82 -1.17793 1.17107 0
M  V30 17883 O 1697 -1.234 1.45523 0
M  V30 17884 C 1694.14 -1.86028 2.90667 0
M  V30 17885 C 1693.26 -1.3848 4.09203 0
M  V30 17886 C 1692.39 -2.53885 4.666 0
M  V30 17887 C 1691.43 -2.03155 5.77403 0
M  V30 17888 N 1690.57 -3.11895 6.2902 0
M  V30 17889 H 1695.41 -0.102242 2.97825 0
M  V30 17890 H 1692.95 -0.0387064 1.47049 0
M  V30 17891 H 1694.9 -2.56226 3.29248 0
M  V30 17892 H 1693.53 -2.39575 2.16341 0
M  V30 17893 H 1692.59 -0.577172 3.75996 0
M  V30 17894 H 1693.9 -0.972946 4.89219 0
M  V30 17895 H 1693.05 -3.32139 5.07709 0
M  V30 17896 H 1691.79 -2.98368 3.85782 0
M  V30 17897 H 1690.8 -1.23369 5.3578 0
M  V30 17898 H 1692.02 -1.59653 6.60067 0
M  V30 17899 H 1689.97 -3.55828 5.5111 0
M  V30 17900 H 1689.88 -2.75013 7.04204 0
M  V30 17901 H 1691.15 -3.90234 6.74787 0
M  V30 17902 N 1695.38 -1.57561 -0.0350783 0
M  V30 17903 C 1696.31 -2.02953 -1.06502 0
M  V30 17904 C 1697.33 -0.941331 -1.32826 0
M  V30 17905 O 1698.51 -1.21873 -1.30419 0
M  V30 17906 C 1695.61 -2.38471 -2.40801 0
M  V30 17907 C 1694.79 -3.69596 -2.33917 0
M  V30 17908 C 1693.85 -3.9237 -3.50616 0
M  V30 17909 O 1692.87 -4.63504 -3.30382 0
M  V30 17910 N 1694.07 -3.37544 -4.72275 0
M  V30 17911 H 1696.84 -2.91926 -0.678169 0
M  V30 17912 H 1694.4 -1.60355 -0.22313 0
M  V30 17913 H 1696.39 -2.50849 -3.1758 0
M  V30 17914 H 1694.96 -1.55199 -2.71352 0
M  V30 17915 H 1694.18 -3.67629 -1.42277 0
M  V30 17916 H 1695.47 -4.55627 -2.26455 0
M  V30 17917 H 1694.87 -2.79875 -4.91616 0
M  V30 17918 H 1693.43 -3.55312 -5.4644 0
M  V30 17919 N 1696.86 0.307236 -1.54576 0
M  V30 17920 C 1698.1 1.04476 -1.73818 0
M  V30 17921 C 1698.44 1.87134 -0.519102 0
M  V30 17922 O 1697.71 1.88386 0.483852 0
M  V30 17923 C 1698 1.95594 -3.02349 0
M  V30 17924 C 1697.85 1.16158 -4.34543 0
M  V30 17925 C 1699.17 2.94865 -3.26715 0
M  V30 17926 H 1696.29 0.378415 -0.632433 0
M  V30 17927 H 1698.93 0.319955 -1.87287 0
M  V30 17928 H 1697.08 2.57396 -2.90997 0
M  V30 17929 H 1698.75 0.5669 -4.57803 0
M  V30 17930 H 1696.99 0.464158 -4.3131 0
M  V30 17931 H 1697.66 1.8315 -5.2073 0
M  V30 17932 H 1700.14 2.4319 -3.37636 0
M  V30 17933 H 1699.02 3.55791 -4.17976 0
M  V30 17934 H 1699.28 3.68195 -2.44714 0
M  V30 17935 N 1698.34 1.46926 0.570122 0
M  V30 17936 C 1699.25 1.6105 1.70587 0
M  V30 17937 C 1700.26 0.493636 1.66851 0
M  V30 17938 O 1701.44 0.759454 1.86532 0
M  V30 17939 C 1698.5 1.60913 3.07096 0
M  V30 17940 C 1697.56 2.83928 3.21999 0
M  V30 17941 C 1696.8 2.83788 4.51996 0
M  V30 17942 O 1697.02 1.93256 5.36664 0
M  V30 17943 O 1695.95 3.75491 4.70415 0
M  V30 17944 H 1699.78 2.57126 1.61616 0
M  V30 17945 H 1697.37 1.29863 0.738637 0
M  V30 17946 H 1699.25 1.63576 3.88356 0
M  V30 17947 H 1697.92 0.680005 3.16477 0
M  V30 17948 H 1696.83 2.86814 2.40185 0
M  V30 17949 H 1698.16 3.76091 3.17516 0
M  V30 17950 N 1699.82 -0.815801 1.34842 0
M  V30 17951 C 1700.76 -1.94853 1.27024 0
M  V30 17952 C 1701.76 -1.68575 0.166936 0
M  V30 17953 O 1702.96 -1.76905 0.332352 0
M  V30 17954 H 1699.34 -0.640033 0.394794 0
M  V30 17955 H 1701.31 -1.98569 2.2274 0
M  V30 17956 C 1700.06 -3.31474 1.04977 0
M  V30 17957 H 1699.38 -3.52246 1.8911 0
M  V30 17958 H 1700.82 -4.11162 1.03545 0
M  V30 17959 C 1699.28 -3.35995 -0.246708 0
M  V30 17960 O 1699.81 -3.81898 -1.24566 0
M  V30 17961 N 1698.02 -2.89226 -0.282292 0
M  V30 17962 H 1697.56 -2.52063 0.531211 0
M  V30 17963 H 1697.52 -2.92633 -1.1495 0
M  V30 17964 N 1701.29 -1.18689 -1.03686 0
M  V30 17965 C 1702.22 -0.94094 -2.13702 0
M  V30 17966 C 1703.2 0.12277 -1.69656 0
M  V30 17967 O 1704.39 -0.0306085 -1.94176 0
M  V30 17968 C 1701.52 -0.470054 -3.44104 0
M  V30 17969 C 1700.47 -1.47468 -4.01792 0
M  V30 17970 C 1699.8 -0.861174 -5.2772 0
M  V30 17971 C 1701.1 -2.85254 -4.37524 0
M  V30 17972 H 1702.79 -1.86102 -2.34534 0
M  V30 17973 H 1700.34 -0.896207 -1.12713 0
M  V30 17974 H 1702.29 -0.28533 -4.20433 0
M  V30 17975 H 1701.02 0.485604 -3.2297 0
M  V30 17976 H 1699.68 -1.64641 -3.2755 0
M  V30 17977 H 1699.32 0.10179 -5.02897 0
M  V30 17978 H 1699.02 -1.53196 -5.67278 0
M  V30 17979 H 1700.55 -0.687066 -6.06722 0
M  V30 17980 H 1701.96 -2.71711 -5.04823 0
M  V30 17981 H 1700.36 -3.49051 -4.88143 0
M  V30 17982 H 1701.43 -3.38516 -3.47181 0
M  V30 17983 N 1702.77 1.22662 -0.989529 0
M  V30 17984 C 1704.19 1.43445 -0.699687 0
M  V30 17985 C 1704.39 1.87778 0.730875 0
M  V30 17986 O 1703.44 2.02953 1.5022 0
M  V30 17987 C 1704.76 2.47869 -1.70239 0
M  V30 17988 C 1706.3 2.61672 -1.71746 0
M  V30 17989 C 1706.78 3.69315 -2.7087 0
M  V30 17990 N 1708.27 3.76768 -2.69444 0
M  V30 17991 C 1709.01 4.59641 -3.42808 0
M  V30 17992 N 1708.5 5.46533 -4.25762 0
M  V30 17993 N 1710.29 4.53921 -3.3153 0
M  V30 17994 H 1702.45 0.921912 -1.91349 0
M  V30 17995 H 1704.71 0.466905 -0.825048 0
M  V30 17996 H 1704.41 2.22233 -2.7259 0
M  V30 17997 H 1704.29 3.46415 -1.49254 0
M  V30 17998 H 1706.68 2.86655 -0.70094 0
M  V30 17999 H 1706.76 1.63413 -1.96799 0
M  V30 18000 H 1706.4 3.4508 -3.72669 0
M  V30 18001 H 1706.33 4.67136 -2.43088 0
M  V30 18002 H 1708.82 3.1468 -2.09249 0
M  V30 18003 H 1709.13 6.06783 -4.78575 0
M  V30 18004 H 1707.48 5.46126 -4.2985 0
M  V30 18005 H 1710.67 3.85062 -2.66168 0
M  V30 18006 H 1710.84 5.18277 -3.88964 0
M  V30 18007 N 1704.25 0.762308 1.37937 0
M  V30 18008 C 1705.21 0.148588 2.28718 0
M  V30 18009 C 1706.21 -0.638198 1.47593 0
M  V30 18010 O 1707.4 -0.463178 1.67929 0
M  V30 18011 C 1704.53 -0.797492 3.31441 0
M  V30 18012 H 1705.73 0.94872 2.84498 0
M  V30 18013 H 1703.28 0.529888 1.47044 0
M  V30 18014 H 1704.02 -1.62298 2.80767 0
M  V30 18015 H 1703.8 -0.23561 3.91391 0
M  V30 18016 H 1705.29 -1.22262 3.99302 0
M  V30 18017 N 1705.73 -1.49049 0.51208 0
M  V30 18018 C 1706.69 -2.27838 -0.249491 0
M  V30 18019 C 1707.69 -1.34321 -0.884004 0
M  V30 18020 O 1708.88 -1.57379 -0.74682 0
M  V30 18021 C 1706.01 -3.12637 -1.35908 0
M  V30 18022 H 1707.21 -2.96625 0.442029 0
M  V30 18023 H 1704.76 -1.53996 0.267406 0
M  V30 18024 H 1705.49 -2.48441 -2.0844 0
M  V30 18025 H 1705.28 -3.81408 -0.909427 0
M  V30 18026 H 1706.77 -3.72117 -1.89523 0
M  V30 18027 N 1707.21 -0.246397 -1.55662 0
M  V30 18028 C 1708.48 0.42879 -1.90842 0
M  V30 18029 C 1708.86 1.75905 -1.16707 0
M  V30 18030 O 1708.21 2.26723 -0.284391 0
M  V30 18031 C 1708.42 0.597368 -3.4385 0
M  V30 18032 C 1709.77 0.893477 -4.15093 0
M  V30 18033 O 1710.79 0.683251 -3.49586 0
M  V30 18034 O 1709.65 1.2938 -5.30964 0
M  V30 18035 H 1706.75 0.230145 -0.794331 0
M  V30 18036 H 1709.29 -0.290426 -1.67196 0
M  V30 18037 H 1708.06 -0.339952 -3.8982 0
M  V30 18038 H 1707.69 1.36714 -3.73356 0
M  V30 18039 N 1708.68 1.57577 0.026722 0
M  V30 18040 C 1709.91 1.9364 0.728771 0
M  V30 18041 C 1710.33 0.846352 1.68767 0
M  V30 18042 O 1709.68 -0.177038 1.81639 0
M  V30 18043 C 1709.73 3.29644 1.48381 0
M  V30 18044 O 1709.46 4.34462 0.563393 0
M  V30 18045 C 1710.96 3.80004 2.2828 0
M  V30 18046 H 1708.18 0.639025 0.204666 0
M  V30 18047 H 1710.72 2.04493 -0.016449 0
M  V30 18048 H 1708.88 3.20181 2.18089 0
M  V30 18049 H 1709.29 5.12982 1.09315 0
M  V30 18050 H 1710.76 4.77671 2.76649 0
M  V30 18051 H 1711.24 3.11319 3.09802 0
M  V30 18052 H 1711.85 3.92558 1.63642 0
M  V30 18053 N 1710.16 -0.299034 1.54737 0
M  V30 18054 C 1711.11 -1.38889 1.86581 0
M  V30 18055 C 1712.1 -1.52396 0.739723 0
M  V30 18056 O 1713.31 -1.5449 0.92374 0
M  V30 18057 H 1709.68 -0.463969 0.591808 0
M  V30 18058 H 1711.66 -1.09268 2.77674 0
M  V30 18059 C 1710.4 -2.74702 2.13152 0
M  V30 18060 H 1709.73 -2.65092 2.99277 0
M  V30 18061 H 1711.17 -3.49967 2.39372 0
M  V30 18062 C 1709.63 -3.23789 0.930706 0
M  V30 18063 O 1710.16 -4.01412 0.152193 0
M  V30 18064 N 1708.36 -2.81137 0.735545 0
M  V30 18065 H 1707.91 -2.1813 1.37029 0
M  V30 18066 H 1707.87 -3.1433 -0.0663452 0
M  V30 18067 N 1711.64 -1.47227 -0.562322 0
M  V30 18068 C 1712.87 -1.57196 -1.34526 0
M  V30 18069 C 1713.28 -0.220303 -1.8751 0
M  V30 18070 O 1712.64 0.785664 -1.64723 0
M  V30 18071 C 1712.69 -2.59312 -2.51872 0
M  V30 18072 O 1712.41 -3.89229 -2.01078 0
M  V30 18073 C 1713.91 -2.79416 -3.44153 0
M  V30 18074 H 1711.13 -0.530971 -0.410257 0
M  V30 18075 H 1713.68 -1.92804 -0.68168 0
M  V30 18076 H 1711.83 -2.26652 -3.14178 0
M  V30 18077 H 1712.25 -4.44985 -2.77648 0
M  V30 18078 H 1713.72 -3.54743 -4.2292 0
M  V30 18079 H 1714.2 -1.87054 -3.97376 0
M  V30 18080 H 1714.8 -3.13254 -2.87667 0
M  V30 18081 N 1713.12 0.808639 -1.35273 0
M  V30 18082 C 1714.05 1.92839 -1.23878 0
M  V30 18083 C 1715.06 1.61987 -0.162543 0
M  V30 18084 O 1716.25 1.73593 -0.41564 0
M  V30 18085 C 1713.35 3.27158 -0.884369 0
M  V30 18086 C 1712.52 3.85931 -2.05855 0
M  V30 18087 C 1711.58 4.98652 -1.68025 0
M  V30 18088 O 1710.61 5.16188 -2.39871 0
M  V30 18089 N 1711.81 5.77363 -0.602684 0
M  V30 18090 H 1714.58 2.03141 -2.20349 0
M  V30 18091 H 1712.14 0.985956 -1.28415 0
M  V30 18092 H 1714.13 4.00033 -0.612814 0
M  V30 18093 H 1712.7 3.12599 -0.00940584 0
M  V30 18094 H 1711.92 3.05274 -2.49402 0
M  V30 18095 H 1713.21 4.21929 -2.84347 0
M  V30 18096 H 1712.61 5.657 -0.00570741 0
M  V30 18097 H 1711.16 6.50627 -0.390903 0
M  V30 18098 N 1714.6 1.19237 1.03055 0
M  V30 18099 C 1715.51 0.943876 2.14775 0
M  V30 18100 C 1716.52 -0.0955384 1.73738 0
M  V30 18101 O 1717.7 0.0887187 2.01204 0
M  V30 18102 C 1714.76 0.48402 3.43305 0
M  V30 18103 C 1713.82 1.59262 3.98665 0
M  V30 18104 C 1713.06 1.15461 5.21061 0
M  V30 18105 O 1713.28 0.0174841 5.70397 0
M  V30 18106 O 1712.21 1.95648 5.69215 0
M  V30 18107 H 1716.04 1.87894 2.38599 0
M  V30 18108 H 1713.63 0.975046 1.13195 0
M  V30 18109 H 1715.51 0.236135 4.20738 0
M  V30 18110 H 1714.18 -0.422626 3.20929 0
M  V30 18111 H 1713.09 1.89464 3.22574 0
M  V30 18112 H 1714.42 2.47576 4.25402 0
M  V30 18113 N 1716.07 -1.22136 0.99602 0
M  V30 18114 C 1717.02 -2.24178 0.54889 0
M  V30 18115 C 1717.99 -1.60692 -0.420391 0
M  V30 18116 O 1719.18 -1.88021 -0.324452 0
M  V30 18117 C 1716.32 -3.44865 -0.127239 0
M  V30 18118 C 1715.43 -4.22855 0.884153 0
M  V30 18119 C 1714.56 -5.30891 0.181219 0
M  V30 18120 C 1713.6 -6.00603 1.18077 0
M  V30 18121 N 1712.74 -7.00275 0.505927 0
M  V30 18122 H 1717.58 -2.61788 1.42377 0
M  V30 18123 H 1715.12 -1.28658 0.713124 0
M  V30 18124 H 1717.08 -4.1374 -0.536194 0
M  V30 18125 H 1715.71 -3.0801 -0.965892 0
M  V30 18126 H 1714.76 -3.53247 1.41141 0
M  V30 18127 H 1716.07 -4.70888 1.64518 0
M  V30 18128 H 1715.22 -6.06033 -0.284307 0
M  V30 18129 H 1713.96 -4.83841 -0.612289 0
M  V30 18130 H 1712.97 -5.2424 1.65689 0
M  V30 18131 H 1714.19 -6.4974 1.9752 0
M  V30 18132 H 1712.14 -6.55452 -0.268088 0
M  V30 18133 H 1712.06 -7.46329 1.20535 0
M  V30 18134 H 1713.32 -7.79474 0.0633069 0
M  V30 18135 N 1717.55 -0.769612 -1.37531 0
M  V30 18136 C 1718.8 -0.329661 -1.98988 0
M  V30 18137 C 1719.11 1.0993 -1.61786 0
M  V30 18138 O 1720.32 1.64053 -2.1633 0
M  V30 18139 C 1718.78 -0.538461 -3.55849 0
M  V30 18140 C 1718.38 -1.97755 -4.01991 0
M  V30 18141 C 1720.13 -0.162026 -4.24191 0
M  V30 18142 C 1718.04 -2.13406 -5.51554 0
M  V30 18143 H 1716.97 -0.119514 -0.744468 0
M  V30 18144 H 1719.62 -0.948436 -1.57089 0
M  V30 18145 H 1718 0.14974 -3.95717 0
M  V30 18146 H 1719.17 -2.70053 -3.73374 0
M  V30 18147 H 1717.49 -2.31038 -3.46425 0
M  V30 18148 H 1720.08 -0.257508 -5.3408 0
M  V30 18149 H 1720.43 0.887442 -4.06731 0
M  V30 18150 H 1720.96 -0.802692 -3.89617 0
M  V30 18151 H 1717.7 -3.16664 -5.73937 0
M  V30 18152 H 1717.22 -1.45589 -5.81862 0
M  V30 18153 H 1718.9 -1.93165 -6.17492 0
M  V30 18154 N 1719.03 1.48775 -0.519977 0
M  V30 18155 C 1719.98 2.29461 0.248242 0
M  V30 18156 C 1720.95 1.36734 0.943027 0
M  V30 18157 O 1722.13 1.65697 0.946003 0
M  V30 18158 C 1719.27 3.19868 1.29531 0
M  V30 18159 C 1718.39 4.27666 0.610379 0
M  V30 18160 C 1717.52 5.05266 1.63951 0
M  V30 18161 C 1716.56 6.04878 0.937496 0
M  V30 18162 N 1715.7 6.75573 1.91171 0
M  V30 18163 H 1720.54 2.94643 -0.446016 0
M  V30 18164 H 1718.07 1.45262 -0.231792 0
M  V30 18165 H 1720.03 3.70675 1.91456 0
M  V30 18166 H 1718.66 2.5663 1.95808 0
M  V30 18167 H 1717.71 3.80202 -0.122598 0
M  V30 18168 H 1719.03 4.98765 0.0586864 0
M  V30 18169 H 1718.18 5.60037 2.33332 0
M  V30 18170 H 1716.92 4.33983 2.22509 0
M  V30 18171 H 1715.92 5.49321 0.229562 0
M  V30 18172 H 1717.15 6.78155 0.358166 0
M  V30 18173 H 1715.09 6.07048 2.48655 0
M  V30 18174 H 1715.01 7.42712 1.41118 0
M  V30 18175 H 1716.28 7.34938 2.59781 0
M  V30 18176 N 1720.51 0.254649 1.55529 0
M  V30 18177 C 1721.75 -0.369374 2.01035 0
M  V30 18178 C 1722.11 -1.54564 1.13904 0
M  V30 18179 O 1723.31 -2.23792 1.48899 0
M  V30 18180 C 1721.58 -0.761489 3.49194 0
M  V30 18181 S 1723.14 -1.37494 4.16702 0
M  V30 18182 H 1719.96 -0.115878 0.701494 0
M  V30 18183 H 1722.56 0.371696 1.91934 0
M  V30 18184 H 1721.27 0.103781 4.10269 0
M  V30 18185 H 1720.8 -1.53454 3.62237 0
M  V30 18186 H 1722.81 -2.66389 4.1863 0
M  V30 18187 N 1721.99 -1.57589 -0.0183649 0
M  V30 18188 C 1722.9 -2.10665 -1.03235 0
M  V30 18189 C 1723.91 -1.04767 -1.38924 0
M  V30 18190 O 1725.09 -1.36565 -1.48027 0
M  V30 18191 C 1722.15 -2.58432 -2.31114 0
M  V30 18192 C 1721.21 -3.78856 -2.01908 0
M  V30 18193 C 1720.45 -4.24335 -3.2369 0
M  V30 18194 O 1720.67 -3.69266 -4.3474 0
M  V30 18195 O 1719.6 -5.16671 -3.08763 0
M  V30 18196 H 1723.43 -2.97485 -0.611254 0
M  V30 18197 H 1721.02 -1.47524 -0.236035 0
M  V30 18198 H 1722.9 -2.89438 -3.06274 0
M  V30 18199 H 1721.57 -1.74718 -2.72498 0
M  V30 18200 H 1720.48 -3.52852 -1.24282 0
M  V30 18201 H 1721.81 -4.63587 -1.65373 0
M  V30 18202 N 1723.46 0.290824 -1.54893 0
M  V30 18203 C 1724.71 1.02244 -1.73865 0
M  V30 18204 C 1725.03 1.88079 -0.537166 0
M  V30 18205 O 1726.23 2.64584 -0.608908 0
M  V30 18206 C 1724.69 1.86762 -3.07649 0
M  V30 18207 C 1724.3 1.0588 -4.35308 0
M  V30 18208 C 1726.04 2.59461 -3.35976 0
M  V30 18209 C 1723.95 1.89734 -5.60138 0
M  V30 18210 H 1722.88 0.385455 -0.648028 0
M  V30 18211 H 1725.53 0.27893 -1.81368 0
M  V30 18212 H 1723.91 2.6514 -2.94137 0
M  V30 18213 H 1725.08 0.320443 -4.59684 0
M  V30 18214 H 1723.4 0.447169 -4.13992 0
M  V30 18215 H 1726 3.22569 -4.26442 0
M  V30 18216 H 1726.34 3.28823 -2.55306 0
M  V30 18217 H 1726.87 1.88126 -3.50505 0
M  V30 18218 H 1723.61 1.24825 -6.43505 0
M  V30 18219 H 1723.13 2.61215 -5.39932 0
M  V30 18220 H 1724.81 2.47535 -5.97775 0
M  V30 18221 N 1724.94 1.47523 0.554506 0
M  V30 18222 C 1726.22 1.44768 1.31535 0
M  V30 18223 C 1726.6 0.146082 2.10594 0
M  V30 18224 O 1725.95 -0.872415 2.1119 0
M  V30 18225 C 1726.16 2.69489 2.21758 0
M  V30 18226 C 1727.51 3.16814 2.82691 0
M  V30 18227 O 1728.53 2.70235 2.32059 0
M  V30 18228 O 1727.39 3.97798 3.74725 0
M  V30 18229 H 1724.48 0.577042 0.592412 0
M  V30 18230 H 1727.03 1.59727 0.573186 0
M  V30 18231 H 1725.8 3.55753 1.62958 0
M  V30 18232 H 1725.42 2.5713 3.03266 0
M  V30 18233 N 1726.42 -0.801453 1.357 0
M  V30 18234 C 1727.65 -1.59001 1.32386 0
M  V30 18235 C 1728.06 -1.88548 -0.0975432 0
M  V30 18236 O 1727.42 -1.49199 -1.05099 0
M  V30 18237 C 1727.47 -2.91822 2.13359 0
M  V30 18238 O 1727.19 -2.63554 3.49958 0
M  V30 18239 C 1728.69 -3.86169 2.17689 0
M  V30 18240 H 1725.91 -0.493557 0.45458 0
M  V30 18241 H 1728.46 -0.995616 1.78627 0
M  V30 18242 H 1726.61 -3.47763 1.70704 0
M  V30 18243 H 1727.03 -3.48397 3.92071 0
M  V30 18244 H 1728.5 -4.76461 2.78727 0
M  V30 18245 H 1728.98 -4.23134 1.17704 0
M  V30 18246 H 1729.58 -3.36163 2.60527 0
M  V30 18247 N 1727.9 -1.19782 -1.02421 0
M  V30 18248 C 1728.83 -0.963553 -2.12692 0
M  V30 18249 C 1729.81 0.104769 -1.69777 0
M  V30 18250 O 1730.99 -0.0512017 -1.94132 0
M  V30 18251 C 1728.12 -0.506525 -3.43586 0
M  V30 18252 C 1727.08 -1.51722 -4.00206 0
M  V30 18253 C 1726.4 -0.917097 -5.26776 0
M  V30 18254 C 1727.7 -2.89879 -4.34474 0
M  V30 18255 H 1729.4 -1.88579 -2.32547 0
M  V30 18256 H 1726.94 -0.908111 -1.11756 0
M  V30 18257 H 1728.9 -0.329907 -4.20107 0
M  V30 18258 H 1727.62 0.451322 -3.23467 0
M  V30 18259 H 1726.28 -1.68106 -3.25785 0
M  V30 18260 H 1725.93 0.0484457 -5.02977 0
M  V30 18261 H 1725.63 -1.59204 -5.65622 0
M  V30 18262 H 1727.15 -0.751379 -6.05959 0
M  V30 18263 H 1728.57 -2.7705 -5.01913 0
M  V30 18264 H 1726.96 -3.54209 -4.84413 0
M  V30 18265 H 1728.03 -3.42179 -3.43571 0
M  V30 18266 N 1729.38 1.21606 -1.00248 0
M  V30 18267 C 1730.33 2.21711 -0.531824 0
M  V30 18268 C 1731.31 1.55714 0.405201 0
M  V30 18269 O 1732.5 1.75493 0.230462 0
M  V30 18270 C 1729.63 3.43003 0.142686 0
M  V30 18271 C 1728.72 4.16191 -0.815209 0
M  V30 18272 N 1729.11 4.65986 -1.967 0
M  V30 18273 C 1727.41 4.41484 -0.633069 0
M  V30 18274 C 1728.11 5.21897 -2.56901 0
M  V30 18275 N 1727.08 5.11121 -1.85084 0
M  V30 18276 H 1730.89 2.57862 -1.41013 0
M  V30 18277 H 1728.4 1.37385 -0.86598 0
M  V30 18278 H 1730.4 4.13923 0.497322 0
M  V30 18279 H 1729.06 3.08362 1.01701 0
M  V30 18280 H 1730.07 4.61644 -2.34746 0
M  V30 18281 H 1726.75 4.17047 0.194381 0
M  V30 18282 H 1728.14 5.70898 -3.54296 0
M  V30 18283 N 1730.86 0.776895 1.37121 0
M  V30 18284 C 1732.13 0.268067 1.93754 0
M  V30 18285 C 1732.51 -1.23774 1.71007 0
M  V30 18286 O 1731.86 -2.02331 1.0618 0
M  V30 18287 C 1732.07 0.647054 3.42949 0
M  V30 18288 C 1733.42 0.619737 4.20053 0
M  V30 18289 O 1734.44 0.586757 3.51334 0
M  V30 18290 O 1733.3 0.651412 5.42604 0
M  V30 18291 H 1730.4 0.0631883 0.824582 0
M  V30 18292 H 1732.94 0.858594 1.46377 0
M  V30 18293 H 1731.71 1.68608 3.5311 0
M  V30 18294 H 1731.34 0.0297448 3.97589 0
M  V30 18295 N 1732.33 -1.48497 0.527859 0
M  V30 18296 C 1733.26 -2.32414 -0.224891 0
M  V30 18297 C 1734.24 -1.41959 -0.93711 0
M  V30 18298 O 1735.43 -1.70847 -0.923302 0
M  V30 18299 C 1732.56 -3.23106 -1.27356 0
M  V30 18300 C 1731.51 -4.2257 -0.679611 0
M  V30 18301 C 1730.84 -5.02381 -1.83077 0
M  V30 18302 C 1732.14 -5.21144 0.347269 0
M  V30 18303 H 1733.83 -2.95598 0.475632 0
M  V30 18304 H 1731.38 -1.42148 0.230182 0
M  V30 18305 H 1733.33 -3.80639 -1.8081 0
M  V30 18306 H 1732.06 -2.57919 -2.00363 0
M  V30 18307 H 1730.72 -3.66221 -0.166608 0
M  V30 18308 H 1730.36 -4.3362 -2.54918 0
M  V30 18309 H 1730.06 -5.697 -1.43929 0
M  V30 18310 H 1731.59 -5.62765 -2.36914 0
M  V30 18311 H 1733 -5.73213 -0.100107 0
M  V30 18312 H 1731.4 -5.96503 0.656021 0
M  V30 18313 H 1732.47 -4.6841 1.25379 0
M  V30 18314 N 1733.81 -0.262893 -1.55392 0
M  V30 18315 C 1735.04 0.363972 -2.04181 0
M  V30 18316 C 1735.46 1.49585 -1.14044 0
M  V30 18317 O 1734.82 1.80785 -0.136553 0
M  V30 18318 C 1734.87 0.834041 -3.50822 0
M  V30 18319 O 1733.97 1.94234 -3.63795 0
M  V30 18320 H 1733.31 0.0771193 -0.659506 0
M  V30 18321 H 1735.84 -0.393623 -2.00778 0
M  V30 18322 H 1735.85 1.13304 -3.91952 0
M  V30 18323 H 1734.53 0.00584833 -4.159 0
M  V30 18324 H 1733.1 1.64681 -3.34566 0
M  V30 18325 N 1735.29 1.57597 0.0100073 0
M  V30 18326 C 1736.53 1.91983 0.701555 0
M  V30 18327 C 1736.89 0.863453 1.71489 0
M  V30 18328 O 1738.09 1.09225 2.45608 0
M  V30 18329 C 1736.37 3.31459 1.33678 0
M  V30 18330 S 1737.92 3.87714 2.05484 0
M  V30 18331 H 1734.74 0.672093 0.231975 0
M  V30 18332 H 1737.34 1.9545 -0.0442772 0
M  V30 18333 H 1736.05 4.06191 0.586295 0
M  V30 18334 H 1735.58 3.31342 2.12076 0
M  V30 18335 H 1737.59 3.6798 3.32874 0
M  V30 18336 N 1736.77 -0.282606 1.55045 0
M  V30 18337 C 1737.71 -1.34908 1.87266 0
M  V30 18338 C 1738.68 -1.49528 0.72323 0
M  V30 18339 O 1739.87 -1.6409 0.973602 0
M  V30 18340 C 1737.01 -2.70603 2.14168 0
M  V30 18341 C 1736.12 -2.64284 3.41728 0
M  V30 18342 C 1735.26 -3.92094 3.58379 0
M  V30 18343 C 1734.3 -3.80246 4.79666 0
M  V30 18344 N 1733.43 -4.99871 4.93025 0
M  V30 18345 H 1738.27 -1.06731 2.78231 0
M  V30 18346 H 1735.81 -0.515845 1.37759 0
M  V30 18347 H 1737.77 -3.49542 2.27763 0
M  V30 18348 H 1736.4 -2.97003 1.26448 0
M  V30 18349 H 1735.45 -1.77108 3.36656 0
M  V30 18350 H 1736.76 -2.51425 4.30798 0
M  V30 18351 H 1735.92 -4.79473 3.7174 0
M  V30 18352 H 1734.66 -4.07808 2.67476 0
M  V30 18353 H 1733.66 -2.91251 4.66319 0
M  V30 18354 H 1734.89 -3.6606 5.71994 0
M  V30 18355 H 1732.83 -5.16014 4.0505 0
M  V30 18356 H 1732.75 -4.89507 5.76124 0
M  V30 18357 H 1734.02 -5.88849 5.10761 0
M  V30 18358 N 1738.25 -1.47815 -0.546675 0
M  V30 18359 C 1739.49 -1.5498 -1.30336 0
M  V30 18360 C 1739.82 -0.216533 -1.93291 0
M  V30 18361 O 1739.08 0.791622 -1.78974 0
M  V30 18362 C 1739.37 -2.6242 -2.42632 0
M  V30 18363 C 1739.04 -4.05375 -1.97439 0
M  V30 18364 C 1737.7 -4.44287 -1.84831 0
M  V30 18365 C 1740.05 -4.9503 -1.6308 0
M  V30 18366 C 1737.38 -5.70678 -1.36174 0
M  V30 18367 C 1739.73 -6.21894 -1.1589 0
M  V30 18368 C 1738.4 -6.59678 -1.01886 0
M  V30 18369 H 1737.67 -0.567112 -0.476933 0
M  V30 18370 H 1740.32 -1.81461 -0.611907 0
M  V30 18371 H 1738.62 -2.29736 -3.17378 0
M  V30 18372 H 1740.32 -2.65184 -3.00796 0
M  V30 18373 H 1736.91 -3.74635 -2.08199 0
M  V30 18374 H 1741.09 -4.65657 -1.71689 0
M  V30 18375 H 1736.35 -5.98693 -1.24004 0
M  V30 18376 H 1740.52 -6.9077 -0.883691 0
M  V30 18377 H 1738.15 -7.57504 -0.639614 0
M  V30 18378 N 1739.72 0.794246 -1.36123 0
M  V30 18379 C 1740.65 1.92105 -1.32732 0
M  V30 18380 C 1741.63 1.68925 -0.199603 0
M  V30 18381 O 1742.82 1.90109 -0.396498 0
M  V30 18382 C 1739.95 3.29051 -1.11098 0
M  V30 18383 C 1738.9 3.66743 -2.20643 0
M  V30 18384 C 1738.23 5.01986 -1.84159 0
M  V30 18385 C 1739.53 3.75831 -3.62696 0
M  V30 18386 H 1741.22 1.952 -2.27018 0
M  V30 18387 H 1738.77 0.937746 -1.09281 0
M  V30 18388 H 1740.72 4.07494 -1.07362 0
M  V30 18389 H 1739.45 3.26331 -0.132614 0
M  V30 18390 H 1738.11 2.90594 -2.23497 0
M  V30 18391 H 1737.75 4.95782 -0.849081 0
M  V30 18392 H 1737.45 5.28175 -2.57497 0
M  V30 18393 H 1738.98 5.82855 -1.8197 0
M  V30 18394 H 1740.39 4.44476 -3.62096 0
M  V30 18395 H 1738.79 4.135 -4.34899 0
M  V30 18396 H 1739.86 2.7706 -3.97952 0
M  V30 18397 N 1741.2 1.20323 1.01785 0
M  V30 18398 C 1742.61 1.01326 1.56812 0
M  V30 18399 C 1742.96 -0.430709 1.91414 0
M  V30 18400 O 1742.09 -1.31191 1.72098 0
M  V30 18401 C 1742.68 1.83304 2.8493 0
M  V30 18402 C 1741.24 1.68676 3.3649 0
M  V30 18403 C 1740.39 1.81315 2.0981 0
M  V30 18404 H 1743.34 1.34533 0.841815 0
M  V30 18405 H 1743.36 1.33567 3.56286 0
M  V30 18406 H 1742.87 2.88392 2.59714 0
M  V30 18407 H 1740.97 0.662195 3.66668 0
M  V30 18408 H 1741.09 2.49877 4.08777 0
M  V30 18409 H 1739.45 1.24488 2.22204 0
M  V30 18410 H 1740.23 2.87885 1.87022 0
M  V30 18411 N 1742.68 -1.21073 1.00892 0
M  V30 18412 C 1743.61 -2.25847 0.592897 0
M  V30 18413 C 1744.59 -1.6561 -0.38824 0
M  V30 18414 O 1745.78 -1.92238 -0.275361 0
M  V30 18415 C 1742.91 -3.47214 -0.0773439 0
M  V30 18416 C 1741.86 -4.19994 0.82398 0
M  V30 18417 C 1741.19 -5.34696 0.0199341 0
M  V30 18418 C 1742.49 -4.76964 2.12844 0
M  V30 18419 H 1744.18 -2.609 1.46873 0
M  V30 18420 H 1741.73 -1.25412 0.707656 0
M  V30 18421 H 1743.68 -4.19684 -0.379889 0
M  V30 18422 H 1742.4 -3.11303 -0.987833 0
M  V30 18423 H 1741.06 -3.49379 1.11041 0
M  V30 18424 H 1740.71 -4.95028 -0.891966 0
M  V30 18425 H 1740.41 -5.84319 0.620102 0
M  V30 18426 H 1741.93 -6.09974 -0.276336 0
M  V30 18427 H 1743.35 -5.41293 1.88878 0
M  V30 18428 H 1741.74 -5.36992 2.67879 0
M  V30 18429 H 1742.81 -3.96129 2.79659 0
M  V30 18430 N 1744.16 -0.784156 -1.36707 0
M  V30 18431 C 1745.39 -0.365371 -2.03344 0
M  V30 18432 C 1745.8 1.02133 -1.59266 0
M  V30 18433 O 1745.14 1.66547 -0.775098 0
M  V30 18434 C 1745.2 -0.343819 -3.57852 0
M  V30 18435 C 1744.87 -1.6772 -4.25111 0
M  V30 18436 C 1745.86 -2.63179 -4.48367 0
M  V30 18437 C 1743.55 -1.95505 -4.62691 0
M  V30 18438 C 1745.54 -3.84621 -5.08277 0
M  V30 18439 C 1743.23 -3.17215 -5.2232 0
M  V30 18440 C 1744.23 -4.11592 -5.45052 0
M  V30 18441 O 1743.91 -5.31157 -6.0343 0
M  V30 18442 H 1743.65 -0.14936 -0.659293 0
M  V30 18443 H 1746.2 -1.06269 -1.75772 0
M  V30 18444 H 1744.43 0.409964 -3.84521 0
M  V30 18445 H 1746.12 0.0495818 -4.0587 0
M  V30 18446 H 1746.89 -2.42998 -4.19735 0
M  V30 18447 H 1742.76 -1.22867 -4.44325 0
M  V30 18448 H 1746.31 -4.58298 -5.25936 0
M  V30 18449 H 1742.21 -3.37276 -5.50377 0
M  V30 18450 H 1742.97 -5.32149 -6.219 0
M  V30 18451 N 1745.64 1.48215 -0.535727 0
M  V30 18452 C 1746.6 2.28206 0.213212 0
M  V30 18453 C 1747.6 1.3571 0.862522 0
M  V30 18454 O 1748.79 1.58547 0.721688 0
M  V30 18455 C 1745.92 3.1476 1.30917 0
M  V30 18456 H 1747.11 2.95884 -0.489163 0
M  V30 18457 H 1744.67 1.53551 -0.291872 0
M  V30 18458 H 1745.4 2.51726 2.04462 0
M  V30 18459 H 1745.19 3.82806 0.848633 0
M  V30 18460 H 1746.68 3.75085 1.83579 0
M  V30 18461 N 1747.11 0.27113 1.5525 0
M  V30 18462 C 1748.34 -0.353138 2.04371 0
M  V30 18463 C 1748.76 -1.48978 1.14835 0
M  V30 18464 O 1748.12 -1.8071 0.146138 0
M  V30 18465 C 1748.17 -0.815425 3.51259 0
M  V30 18466 O 1747.27 -1.92302 3.6482 0
M  V30 18467 H 1746.62 -0.0736207 0.659906 0
M  V30 18468 H 1749.15 0.404266 2.00566 0
M  V30 18469 H 1749.16 -1.11224 3.92547 0
M  V30 18470 H 1747.83 0.0162079 4.15897 0
M  V30 18471 H 1746.41 -1.62904 3.35435 0
M  V30 18472 N 1748.59 -1.576 -0.00164943 0
M  V30 18473 C 1749.5 -2.11748 -1.00995 0
M  V30 18474 C 1750.52 -1.06235 -1.37805 0
M  V30 18475 O 1751.69 -1.38127 -1.4657 0
M  V30 18476 C 1748.76 -2.60869 -2.2836 0
M  V30 18477 C 1747.82 -3.80976 -1.97879 0
M  V30 18478 C 1747.05 -4.27745 -3.19171 0
M  V30 18479 O 1747.28 -3.73856 -4.30799 0
M  V30 18480 O 1746.21 -5.19917 -3.03265 0
M  V30 18481 H 1750.04 -2.98117 -0.579667 0
M  V30 18482 H 1747.62 -1.47766 -0.220375 0
M  V30 18483 H 1749.5 -2.9267 -3.03187 0
M  V30 18484 H 1748.18 -1.77598 -2.7063 0
M  V30 18485 H 1747.09 -3.54151 -1.20533 0
M  V30 18486 H 1748.42 -4.65315 -1.60447 0
M  V30 18487 N 1750.07 0.274379 -1.55193 0
M  V30 18488 C 1751.03 1.32237 -1.87206 0
M  V30 18489 C 1752.03 1.4242 -0.74654 0
M  V30 18490 O 1753.22 1.41595 -1.01472 0
M  V30 18491 C 1750.36 2.7039 -2.0761 0
M  V30 18492 H 1751.55 1.05083 -2.80887 0
M  V30 18493 H 1749.1 0.512375 -1.47663 0
M  V30 18494 H 1749.84 3.02727 -1.16306 0
M  V30 18495 H 1749.62 2.64385 -2.89556 0
M  V30 18496 H 1751.11 3.46114 -2.33655 0
M  V30 18497 N 1751.55 1.48103 0.538828 0
M  V30 18498 C 1752.5 1.61966 1.64425 0
M  V30 18499 C 1753.47 0.461999 1.59546 0
M  V30 18500 O 1754.65 0.684377 1.78104 0
M  V30 18501 C 1751.79 1.65711 3.02711 0
M  V30 18502 C 1750.9 2.92522 3.17891 0
M  V30 18503 C 1750.04 2.87485 4.46683 0
M  V30 18504 C 1749.08 4.0904 4.5536 0
M  V30 18505 N 1748.21 4.02131 5.7553 0
M  V30 18506 H 1753.05 2.5637 1.51916 0
M  V30 18507 H 1750.59 1.27146 0.739745 0
M  V30 18508 H 1752.55 1.65864 3.82812 0
M  V30 18509 H 1751.18 0.748045 3.14013 0
M  V30 18510 H 1750.23 3.02154 2.311 0
M  V30 18511 H 1751.54 3.82487 3.20165 0
M  V30 18512 H 1750.7 2.8599 5.35065 0
M  V30 18513 H 1749.44 1.95234 4.46917 0
M  V30 18514 H 1748.44 4.10819 3.65387 0
M  V30 18515 H 1749.67 5.02439 4.56872 0
M  V30 18516 H 1747.61 3.12695 5.76678 0
M  V30 18517 H 1747.53 4.85791 5.7926 0
M  V30 18518 H 1748.8 4.04682 6.66223 0
M  V30 18519 N 1753.03 -0.787016 1.36542 0
M  V30 18520 C 1754.44 -1.08541 1.17008 0
M  V30 18521 C 1754.64 -2.015 -0.00419378 0
M  V30 18522 O 1753.7 -2.43481 -0.668826 0
M  V30 18523 C 1755.01 -1.69758 2.48199 0
M  V30 18524 C 1756.56 -1.82088 2.54584 0
M  V30 18525 C 1757.03 -2.46719 3.85868 0
M  V30 18526 N 1758.53 -2.54185 3.87227 0
M  V30 18527 C 1759.26 -3.05008 4.85549 0
M  V30 18528 N 1758.76 -3.56121 5.94264 0
M  V30 18529 N 1760.55 -3.03742 4.72966 0
M  V30 18530 H 1752.7 -0.16948 2.11723 0
M  V30 18531 H 1754.96 -0.137802 0.937931 0
M  V30 18532 H 1754.67 -1.08922 3.34408 0
M  V30 18533 H 1754.54 -2.69237 2.6418 0
M  V30 18534 H 1756.93 -2.42061 1.68792 0
M  V30 18535 H 1757.01 -0.814071 2.42501 0
M  V30 18536 H 1756.66 -1.87389 4.72068 0
M  V30 18537 H 1756.59 -3.47975 3.95248 0
M  V30 18538 H 1759.08 -2.17995 3.08685 0
M  V30 18539 H 1759.39 -3.93259 6.65257 0
M  V30 18540 H 1757.73 -3.54266 5.9793 0
M  V30 18541 H 1760.93 -2.63102 3.87163 0
M  V30 18542 H 1761.1 -3.43043 5.49751 0
M  V30 18543 N 1754.5 -1.20861 -1.01145 0
M  V30 18544 C 1755.75 -1.01613 -1.74234 0
M  V30 18545 C 1756.07 0.451683 -1.90313 0
M  V30 18546 O 1757.27 0.763408 -2.60546 0
M  V30 18547 C 1755.73 -1.76942 -3.134 0
M  V30 18548 C 1755.34 -3.27851 -3.05316 0
M  V30 18549 C 1757.08 -1.6608 -3.90663 0
M  V30 18550 C 1754.99 -3.95696 -4.39521 0
M  V30 18551 H 1753.92 -0.376593 -0.653218 0
M  V30 18552 H 1756.57 -1.44533 -1.1306 0
M  V30 18553 H 1754.95 -1.26812 -3.75146 0
M  V30 18554 H 1756.12 -3.85234 -2.52846 0
M  V30 18555 H 1754.44 -3.39184 -2.41543 0
M  V30 18556 H 1757.04 -2.14105 -4.89963 0
M  V30 18557 H 1757.38 -0.617892 -4.11689 0
M  V30 18558 H 1757.91 -2.13652 -3.35556 0
M  V30 18559 H 1754.65 -5.00161 -4.23697 0
M  V30 18560 H 1754.17 -3.43102 -4.91977 0
M  V30 18561 H 1755.85 -4.00242 -5.08346 0
M  V30 18562 N 1755.98 1.20536 -1.01532 0
M  V30 18563 C 1756.93 2.23277 -0.584486 0
M  V30 18564 C 1757.9 1.6134 0.394773 0
M  V30 18565 O 1759.08 1.88514 0.294498 0
M  V30 18566 C 1756.22 3.45024 0.0723574 0
M  V30 18567 C 1755.34 4.21395 -0.951314 0
M  V30 18568 C 1754.47 5.30535 -0.265656 0
M  V30 18569 C 1753.51 5.98649 -1.27617 0
M  V30 18570 N 1752.65 6.99381 -0.61727 0
M  V30 18571 H 1757.49 2.59489 -1.46524 0
M  V30 18572 H 1755.03 1.27507 -0.733502 0
M  V30 18573 H 1756.98 4.14541 0.470303 0
M  V30 18574 H 1755.61 3.09508 0.916768 0
M  V30 18575 H 1754.67 3.50957 -1.46743 0
M  V30 18576 H 1755.98 4.68211 -1.71989 0
M  V30 18577 H 1755.13 6.06409 0.187857 0
M  V30 18578 H 1753.87 4.84754 0.535237 0
M  V30 18579 H 1752.88 5.21537 -1.74008 0
M  V30 18580 H 1754.1 6.46516 -2.07832 0
M  V30 18581 H 1752.05 6.55796 0.163777 0
M  V30 18582 H 1751.96 7.44317 -1.32393 0
M  V30 18583 H 1753.23 7.79275 -0.187306 0
M  V30 18584 N 1757.46 0.791395 1.36289 0
M  V30 18585 C 1758.71 0.365242 1.99484 0
M  V30 18586 C 1759.04 -1.06087 1.62663 0
M  V30 18587 O 1758.31 -1.73332 0.882396 0
M  V30 18588 C 1758.6 0.531317 3.56159 0
M  V30 18589 C 1758.45 2.00126 4.02827 0
M  V30 18590 C 1759.77 -0.0524248 4.40069 0
M  V30 18591 H 1756.89 0.134183 0.724682 0
M  V30 18592 H 1759.53 0.998102 1.61672 0
M  V30 18593 H 1757.68 -0.0074293 3.88499 0
M  V30 18594 H 1759.35 2.60122 3.80965 0
M  V30 18595 H 1757.6 2.50316 3.54294 0
M  V30 18596 H 1758.27 2.06842 5.11782 0
M  V30 18597 H 1760.74 0.407489 4.141 0
M  V30 18598 H 1759.62 0.0937898 5.4882 0
M  V30 18599 H 1759.88 -1.14472 4.27023 0
M  V30 18600 N 1758.94 -1.47929 0.54358 0
M  V30 18601 C 1759.87 -2.3264 -0.200228 0
M  V30 18602 C 1760.85 -1.42945 -0.922 0
M  V30 18603 O 1762.04 -1.71817 -0.905129 0
M  V30 18604 C 1759.17 -3.24439 -1.23922 0
M  V30 18605 C 1758.12 -4.23267 -0.634753 0
M  V30 18606 C 1757.45 -5.04295 -1.77739 0
M  V30 18607 C 1758.75 -5.20747 0.402524 0
M  V30 18608 H 1760.44 -2.95077 0.506957 0
M  V30 18609 H 1757.99 -1.41896 0.245246 0
M  V30 18610 H 1759.94 -3.82535 -1.76763 0
M  V30 18611 H 1758.66 -2.60029 -1.97616 0
M  V30 18612 H 1757.32 -3.66377 -0.127756 0
M  V30 18613 H 1756.97 -4.36299 -2.50304 0
M  V30 18614 H 1756.67 -5.71195 -1.37879 0
M  V30 18615 H 1758.19 -5.65246 -2.30932 0
M  V30 18616 H 1759.61 -5.73287 -0.039305 0
M  V30 18617 H 1758 -5.95774 0.719251 0
M  V30 18618 H 1759.07 -4.67054 1.3034 0
M  V30 18619 N 1760.42 -0.27936 -1.55104 0
M  V30 18620 C 1761.65 0.338937 -2.03801 0
M  V30 18621 C 1762.06 1.49699 -1.15702 0
M  V30 18622 O 1761.4 1.82906 -0.170589 0
M  V30 18623 C 1761.46 0.878265 -3.48607 0
M  V30 18624 C 1761.12 -0.151698 -4.56748 0
M  V30 18625 C 1762.12 -0.972688 -5.1072 0
M  V30 18626 C 1759.81 -0.287161 -5.01478 0
M  V30 18627 C 1761.8 -1.91529 -6.07944 0
M  V30 18628 C 1759.49 -1.23323 -5.98527 0
M  V30 18629 C 1760.49 -2.04579 -6.51641 0
M  V30 18630 O 1760.17 -2.97586 -7.46792 0
M  V30 18631 H 1759.91 0.080791 -0.671155 0
M  V30 18632 H 1762.46 -0.410483 -2.01257 0
M  V30 18633 H 1760.69 1.67783 -3.48405 0
M  V30 18634 H 1762.38 1.41011 -3.80619 0
M  V30 18635 H 1763.14 -0.878791 -4.76972 0
M  V30 18636 H 1759.02 0.33531 -4.59779 0
M  V30 18637 H 1762.57 -2.54993 -6.49326 0
M  V30 18638 H 1758.46 -1.32793 -6.31693 0
M  V30 18639 H 1759.23 -2.92316 -7.64522 0
M  V30 18640 N 1761.9 1.57599 -0.0067085 0
M  V30 18641 C 1762.85 2.05327 0.991194 0
M  V30 18642 C 1763.83 0.949302 1.29912 0
M  V30 18643 O 1765.02 1.21303 1.28898 0
M  V30 18644 C 1762.15 2.56563 2.28102 0
M  V30 18645 C 1761.24 3.73849 2.00244 0
M  V30 18646 N 1761.63 4.85291 1.4257 0
M  V30 18647 C 1759.93 3.81908 2.30353 0
M  V30 18648 C 1760.63 5.6668 1.31336 0
M  V30 18649 N 1759.6 5.12889 1.80127 0
M  V30 18650 H 1763.4 2.88899 0.539877 0
M  V30 18651 H 1760.92 1.61178 0.198835 0
M  V30 18652 H 1762.92 2.89035 3.0044 0
M  V30 18653 H 1761.58 1.74412 2.7388 0
M  V30 18654 H 1762.59 5.06004 1.10363 0
M  V30 18655 H 1759.26 3.10624 2.7896 0
M  V30 18656 H 1760.65 6.66253 0.869302 0
M  V30 18657 N 1763.37 -0.266145 1.55336 0
M  V30 18658 C 1764.32 -1.32914 1.88686 0
M  V30 18659 C 1765.29 -1.48752 0.739048 0
M  V30 18660 O 1766.48 -1.63048 0.990951 0
M  V30 18661 C 1763.62 -2.68317 2.17026 0
M  V30 18662 C 1762.73 -2.60644 3.44512 0
M  V30 18663 C 1761.86 -3.88271 3.62517 0
M  V30 18664 C 1760.9 -3.75137 4.83672 0
M  V30 18665 N 1760.04 -4.94614 4.98299 0
M  V30 18666 H 1764.88 -1.03774 2.79347 0
M  V30 18667 H 1762.42 -0.501205 1.38298 0
M  V30 18668 H 1764.37 -3.47107 2.31458 0
M  V30 18669 H 1763 -2.95645 1.29591 0
M  V30 18670 H 1762.06 -1.73527 3.38515 0
M  V30 18671 H 1763.37 -2.46842 4.3344 0
M  V30 18672 H 1762.52 -4.75503 3.76804 0
M  V30 18673 H 1761.26 -4.04949 2.71787 0
M  V30 18674 H 1760.27 -2.86289 4.69381 0
M  V30 18675 H 1761.49 -3.59973 5.75844 0
M  V30 18676 H 1759.44 -5.11689 4.10501 0
M  V30 18677 H 1759.35 -4.83369 5.81284 0
M  V30 18678 H 1760.62 -5.83399 5.16978 0
M  V30 18679 N 1764.85 -1.48386 -0.530967 0
M  V30 18680 C 1766.09 -1.57951 -1.29734 0
M  V30 18681 C 1766.46 -0.247309 -1.90401 0
M  V30 18682 O 1767.66 -0.217934 -2.67915 0
M  V30 18683 C 1765.93 -2.68547 -2.35833 0
M  V30 18684 S 1767.49 -2.9787 -3.2221 0
M  V30 18685 H 1764.3 -0.55746 -0.441315 0
M  V30 18686 H 1766.91 -1.85903 -0.605005 0
M  V30 18687 H 1765.61 -3.63903 -1.89744 0
M  V30 18688 H 1765.14 -2.42493 -3.09775 0
M  V30 18689 H 1767.16 -2.37092 -4.35892 0
M  V30 18690 N 1766.33 0.779763 -1.36958 0
M  V30 18691 C 1767.56 1.56875 -1.34899 0
M  V30 18692 C 1767.97 1.88679 0.0675345 0
M  V30 18693 O 1767.33 1.50852 1.02712 0
M  V30 18694 C 1767.38 2.88391 -2.17975 0
M  V30 18695 O 1767.1 2.57954 -3.54107 0
M  V30 18696 C 1768.6 3.82657 -2.23805 0
M  V30 18697 H 1765.82 0.486262 -0.462374 0
M  V30 18698 H 1768.37 0.967072 -1.80189 0
M  V30 18699 H 1766.52 3.45003 -1.76215 0
M  V30 18700 H 1766.94 3.42115 -3.97564 0
M  V30 18701 H 1768.41 4.71967 -2.86272 0
M  V30 18702 H 1768.89 4.21208 -1.24421 0
M  V30 18703 H 1769.49 3.31976 -2.65843 0
M  V30 18704 N 1767.81 1.21396 1.00503 0
M  V30 18705 C 1768.76 0.97023 2.11398 0
M  V30 18706 C 1769.75 -0.0825019 1.69199 0
M  V30 18707 O 1770.96 0.0688841 1.79868 0
M  V30 18708 H 1767.33 0.296494 0.691083 0
M  V30 18709 H 1769.3 1.91155 2.29134 0
M  V30 18710 C 1768.05 0.551472 3.43299 0
M  V30 18711 H 1767.37 1.35316 3.76204 0
M  V30 18712 H 1768.81 0.420249 4.21912 0
M  V30 18713 C 1767.27 -0.737588 3.28727 0
M  V30 18714 O 1767.8 -1.79313 3.59458 0
M  V30 18715 N 1766.01 -0.704084 2.81942 0
M  V30 18716 H 1765.56 0.155183 2.57132 0
M  V30 18717 H 1765.51 -1.56689 2.72573 0
M  V30 18718 N 1769.29 -1.19996 1.0217 0
M  V30 18719 C 1770.53 -1.88818 0.709281 0
M  V30 18720 C 1770.85 -1.80032 -0.764702 0
M  V30 18721 O 1772.05 -2.44037 -1.18988 0
M  V30 18722 C 1770.51 -3.38652 1.2183 0
M  V30 18723 C 1770.12 -3.56012 2.71955 0
M  V30 18724 C 1771.86 -4.12996 0.981542 0
M  V30 18725 C 1769.77 -4.997 3.16313 0
M  V30 18726 H 1768.7 -0.70716 0.261613 0
M  V30 18727 H 1771.35 -1.35715 1.23506 0
M  V30 18728 H 1769.73 -3.91109 0.620478 0
M  V30 18729 H 1770.91 -3.13918 3.37331 0
M  V30 18730 H 1769.22 -2.95046 2.93831 0
M  V30 18731 H 1771.82 -5.18948 1.28831 0
M  V30 18732 H 1772.16 -4.1622 -0.0818616 0
M  V30 18733 H 1772.69 -3.66656 1.543 0
M  V30 18734 H 1769.43 -5.01635 4.21951 0
M  V30 18735 H 1768.95 -5.42585 2.5566 0
M  V30 18736 H 1770.63 -5.68312 3.09242 0
M  V30 18737 N 1770.76 -0.798611 -1.35867 0
M  V30 18738 C 1772.01 -0.371795 -1.98244 0
M  V30 18739 C 1772.33 1.06474 -1.64081 0
M  V30 18740 O 1773.53 1.59428 -2.19761 0
M  V30 18741 C 1771.99 -0.613821 -3.54627 0
M  V30 18742 C 1771.6 -2.06237 -3.97706 0
M  V30 18743 C 1773.34 -0.251966 -4.23752 0
M  V30 18744 C 1771.25 -2.25057 -5.46903 0
M  V30 18745 H 1770.18 -0.135278 -0.741765 0
M  V30 18746 H 1772.83 -0.981544 -1.55042 0
M  V30 18747 H 1771.21 0.0657688 -3.95945 0
M  V30 18748 H 1772.38 -2.77912 -3.67562 0
M  V30 18749 H 1770.7 -2.38334 -3.41447 0
M  V30 18750 H 1773.3 -0.370736 -5.33413 0
M  V30 18751 H 1773.64 0.800968 -4.08522 0
M  V30 18752 H 1774.17 -0.885155 -3.87827 0
M  V30 18753 H 1770.91 -3.28767 -5.67091 0
M  V30 18754 H 1770.43 -1.57898 -5.78643 0
M  V30 18755 H 1772.11 -2.06219 -6.13256 0
M  V30 18756 N 1772.24 1.47639 -0.551417 0
M  V30 18757 C 1773.19 2.29936 0.199514 0
M  V30 18758 C 1774.16 1.38704 0.913811 0
M  V30 18759 O 1775.34 1.67666 0.910643 0
M  V30 18760 C 1772.48 3.22544 1.22717 0
M  V30 18761 C 1771.6 4.28865 0.519527 0
M  V30 18762 C 1770.73 5.0863 1.53197 0
M  V30 18763 C 1769.77 6.06731 0.808981 0
M  V30 18764 N 1768.91 6.79476 1.76798 0
M  V30 18765 H 1773.75 2.93631 -0.508414 0
M  V30 18766 H 1771.28 1.44738 -0.262553 0
M  V30 18767 H 1773.24 3.74653 1.83551 0
M  V30 18768 H 1771.87 2.60726 1.9032 0
M  V30 18769 H 1770.92 3.79857 -0.203217 0
M  V30 18770 H 1772.24 4.98778 -0.0471224 0
M  V30 18771 H 1771.39 5.6486 2.214 0
M  V30 18772 H 1770.13 4.38605 2.13253 0
M  V30 18773 H 1769.13 5.49684 0.112991 0
M  V30 18774 H 1770.36 6.78762 0.214239 0
M  V30 18775 H 1768.31 6.12185 2.35722 0
M  V30 18776 H 1768.22 7.45539 1.25333 0
M  V30 18777 H 1769.49 7.40283 2.44133 0
M  V30 18778 N 1773.72 0.287581 1.54954 0
M  V30 18779 C 1774.65 -0.62789 2.20432 0
M  V30 18780 C 1775.67 -1.10792 1.19286 0
M  V30 18781 O 1776.85 -1.02768 1.45949 0
M  V30 18782 C 1773.95 -1.86998 2.82639 0
M  V30 18783 C 1773.13 -1.53469 4.09592 0
M  V30 18784 C 1772.19 -2.63053 4.5573 0
M  V30 18785 O 1771.21 -2.28712 5.21229 0
M  V30 18786 N 1772.41 -3.93348 4.26917 0
M  V30 18787 H 1775.18 -0.067416 2.99624 0
M  V30 18788 H 1772.74 0.109205 1.61531 0
M  V30 18789 H 1774.73 -2.59629 3.10443 0
M  V30 18790 H 1773.3 -2.33919 2.07366 0
M  V30 18791 H 1772.52 -0.641635 3.88943 0
M  V30 18792 H 1773.81 -1.28587 4.92283 0
M  V30 18793 H 1773.21 -4.24063 3.74415 0
M  V30 18794 H 1771.77 -4.62318 4.59462 0
M  V30 18795 N 1775.2 -1.57593 0.0150662 0
M  V30 18796 C 1776.15 -2.0936 -0.971443 0
M  V30 18797 C 1777.12 -0.992416 -1.33193 0
M  V30 18798 O 1778.3 -1.26577 -1.42769 0
M  V30 18799 C 1775.44 -2.61386 -2.25324 0
M  V30 18800 C 1774.55 -3.85462 -1.95046 0
M  V30 18801 C 1773.69 -4.25934 -3.17418 0
M  V30 18802 C 1772.73 -5.42805 -2.82894 0
M  V30 18803 N 1771.86 -5.78499 -3.97848 0
M  V30 18804 H 1776.7 -2.93373 -0.523068 0
M  V30 18805 H 1774.24 -1.45018 -0.246605 0
M  V30 18806 H 1776.2 -2.89635 -3.00279 0
M  V30 18807 H 1774.83 -1.80225 -2.67804 0
M  V30 18808 H 1773.88 -3.64029 -1.10394 0
M  V30 18809 H 1775.19 -4.70505 -1.6561 0
M  V30 18810 H 1774.35 -4.55544 -4.00705 0
M  V30 18811 H 1773.09 -3.3963 -3.50004 0
M  V30 18812 H 1772.09 -5.12903 -1.98016 0
M  V30 18813 H 1773.32 -6.30797 -2.51539 0
M  V30 18814 H 1771.26 -4.95152 -4.30303 0
M  V30 18815 H 1771.18 -6.5815 -3.71988 0
M  V30 18816 H 1772.45 -6.12708 -4.8188 0
M  V30 18817 N 1776.68 0.257904 -1.55475 0
M  V30 18818 C 1777.62 1.31912 -1.89388 0
M  V30 18819 C 1778.59 1.48358 -0.746927 0
M  V30 18820 O 1779.78 1.62521 -0.999584 0
M  V30 18821 C 1776.92 2.67162 -2.18446 0
M  V30 18822 C 1776.03 2.58814 -3.45889 0
M  V30 18823 C 1775.17 3.86343 -3.64571 0
M  V30 18824 C 1774.21 3.72567 -4.85654 0
M  V30 18825 N 1773.34 4.91964 -5.00915 0
M  V30 18826 H 1778.18 1.02291 -2.79894 0
M  V30 18827 H 1775.72 0.493864 -1.38562 0
M  V30 18828 H 1777.68 3.45874 -2.33296 0
M  V30 18829 H 1776.31 2.94954 -1.31157 0
M  V30 18830 H 1775.36 1.7173 -3.39431 0
M  V30 18831 H 1776.67 2.4454 -4.34743 0
M  V30 18832 H 1775.83 4.73498 -3.79321 0
M  V30 18833 H 1774.56 4.03501 -2.7393 0
M  V30 18834 H 1773.57 2.83795 -4.70893 0
M  V30 18835 H 1774.79 3.56914 -5.77745 0
M  V30 18836 H 1772.74 5.09505 -4.13208 0
M  V30 18837 H 1772.66 4.80279 -5.83839 0
M  V30 18838 H 1773.93 5.80649 -5.20064 0
M  V30 18839 N 1778.15 1.48666 0.52309 0
M  V30 18840 C 1779.57 1.34939 0.852268 0
M  V30 18841 C 1779.77 0.365638 1.98155 0
M  V30 18842 O 1778.83 -0.210671 2.5162 0
M  V30 18843 C 1780.14 2.75136 1.21329 0
M  V30 18844 C 1781.69 2.83675 1.32278 0
M  V30 18845 C 1782.16 4.24589 1.71721 0
M  V30 18846 N 1783.65 4.27295 1.78811 0
M  V30 18847 C 1784.39 5.33274 2.10729 0
M  V30 18848 N 1783.88 6.49523 2.41023 0
M  V30 18849 N 1785.68 5.20673 2.11793 0
M  V30 18850 H 1777.83 2.11237 -0.221919 0
M  V30 18851 H 1780.09 0.947291 -0.0366525 0
M  V30 18852 H 1779.8 3.48717 0.457065 0
M  V30 18853 H 1779.67 3.091 2.16187 0
M  V30 18854 H 1782.06 2.10345 2.06976 0
M  V30 18855 H 1782.14 2.53321 0.355248 0
M  V30 18856 H 1781.78 4.98438 0.975805 0
M  V30 18857 H 1781.71 4.52391 2.69536 0
M  V30 18858 H 1784.2 3.43447 1.57648 0
M  V30 18859 H 1784.52 7.26125 2.64503 0
M  V30 18860 H 1782.86 6.52786 2.38528 0
M  V30 18861 H 1786.05 4.28869 1.87588 0
M  V30 18862 H 1786.23 6.03365 2.36336 0
M  V30 18863 N 1779.63 -0.772489 1.37369 0
M  V30 18864 C 1780.86 -1.56671 1.35901 0
M  V30 18865 C 1781.28 -1.88024 -0.0535538 0
M  V30 18866 O 1780.64 -1.49174 -1.03038 0
M  V30 18867 C 1780.69 -2.85417 2.20384 0
M  V30 18868 O 1779.79 -3.79761 1.60796 0
M  V30 18869 H 1779.13 -0.474596 0.464386 0
M  V30 18870 H 1781.66 -0.956162 1.80883 0
M  V30 18871 H 1781.67 -3.34527 2.33571 0
M  V30 18872 H 1780.35 -2.61926 3.2306 0
M  V30 18873 H 1778.93 -3.38403 1.56645 0
M  V30 18874 N 1781.11 -1.21927 -0.998575 0
M  V30 18875 C 1782.02 -1.00049 -2.12197 0
M  V30 18876 C 1783.04 0.0494414 -1.7393 0
M  V30 18877 O 1784.21 -0.142033 -2.00899 0
M  V30 18878 C 1781.28 -0.574871 -3.41901 0
M  V30 18879 C 1780.34 -1.69776 -3.94303 0
M  V30 18880 C 1779.57 -1.29236 -5.17816 0
M  V30 18881 O 1779.79 -0.168709 -5.7015 0
M  V30 18882 O 1778.73 -2.10671 -5.63827 0
M  V30 18883 H 1782.55 -1.94154 -2.33534 0
M  V30 18884 H 1780.14 -1.00472 -1.10571 0
M  V30 18885 H 1782.02 -0.347603 -4.19964 0
M  V30 18886 H 1780.7 0.337389 -3.21937 0
M  V30 18887 H 1779.6 -1.9795 -3.17438 0
M  V30 18888 H 1780.94 -2.58768 -4.18688 0
M  V30 18889 N 1782.59 1.19452 -1.02805 0
M  V30 18890 C 1784 1.70804 -0.753845 0
M  V30 18891 C 1784.35 1.8225 0.726584 0
M  V30 18892 O 1783.48 1.49307 1.56641 0
M  V30 18893 C 1784.07 3.10227 -1.36178 0
M  V30 18894 C 1782.63 3.58842 -1.13618 0
M  V30 18895 C 1781.78 2.3573 -1.46036 0
M  V30 18896 H 1784.73 1.04305 -1.19608 0
M  V30 18897 H 1784.75 3.72867 -0.758315 0
M  V30 18898 H 1784.26 3.01864 -2.43925 0
M  V30 18899 H 1782.36 3.72521 -0.0768914 0
M  V30 18900 H 1782.47 4.43008 -1.82431 0
M  V30 18901 H 1780.84 2.39027 -0.879669 0
M  V30 18902 H 1781.62 2.29998 -2.54864 0
M  V30 18903 N 1784.07 0.805805 1.35442 0
M  V30 18904 C 1785.31 0.386379 1.99085 0
M  V30 18905 C 1785.65 -1.04356 1.63779 0
M  V30 18906 O 1784.92 -1.72386 0.900731 0
M  V30 18907 C 1785.2 0.569062 3.55575 0
M  V30 18908 C 1785.06 2.04387 4.00682 0
M  V30 18909 C 1786.38 -0.00574668 4.401 0
M  V30 18910 H 1783.49 0.141862 0.723218 0
M  V30 18911 H 1786.14 1.01519 1.60605 0
M  V30 18912 H 1784.29 0.0337767 3.88485 0
M  V30 18913 H 1785.96 2.64148 3.78184 0
M  V30 18914 H 1784.2 2.54059 3.5162 0
M  V30 18915 H 1784.87 2.12258 5.09559 0
M  V30 18916 H 1787.35 0.451387 4.13644 0
M  V30 18917 H 1786.22 0.151994 5.4869 0
M  V30 18918 H 1786.49 -1.09937 4.28213 0
M  V30 18919 N 1785.54 -1.47344 0.559239 0
M  V30 18920 C 1786.51 -2.28516 -0.17688 0
M  V30 18921 C 1787.51 -1.37065 -0.840823 0
M  V30 18922 O 1788.7 -1.59676 -0.696373 0
M  V30 18923 C 1785.83 -3.16803 -1.25892 0
M  V30 18924 H 1787.02 -2.95068 0.536174 0
M  V30 18925 H 1784.58 -1.53067 0.316263 0
M  V30 18926 H 1785.31 -2.54947 -2.00431 0
M  V30 18927 H 1785.1 -3.84108 -0.787625 0
M  V30 18928 H 1786.59 -3.77958 -1.77589 0
M  V30 18929 N 1787.02 -0.295795 -1.54799 0
M  V30 18930 C 1788.27 0.315473 -2.00331 0
M  V30 18931 C 1788.6 1.53939 -1.18392 0
M  V30 18932 O 1787.88 1.92767 -0.259086 0
M  V30 18933 C 1788.16 0.677227 -3.53674 0
M  V30 18934 C 1788.01 -0.555462 -4.46357 0
M  V30 18935 C 1789.33 1.50576 -4.1354 0
M  V30 18936 H 1786.45 0.113191 -0.728256 0
M  V30 18937 H 1789.09 -0.406858 -1.85593 0
M  V30 18938 H 1787.24 1.29264 -3.66365 0
M  V30 18939 H 1788.91 -1.19397 -4.45581 0
M  V30 18940 H 1787.16 -1.18968 -4.17168 0
M  V30 18941 H 1787.83 -0.25828 -5.51395 0
M  V30 18942 H 1790.3 0.985819 -4.04253 0
M  V30 18943 H 1789.18 1.72766 -5.21002 0
M  V30 18944 H 1789.44 2.49334 -3.65082 0
M  V30 18945 N 1788.5 1.57583 -0.0234236 0
M  V30 18946 C 1789.43 2.05369 0.994927 0
M  V30 18947 C 1790.41 0.948279 1.32085 0
M  V30 18948 O 1791.6 1.21818 1.43849 0
M  V30 18949 C 1788.72 2.47098 2.31647 0
M  V30 18950 C 1787.77 3.68603 2.14555 0
M  V30 18951 S 1788.6 5.15504 1.44968 0
M  V30 18952 C 1789.76 5.60523 2.78504 0
M  V30 18953 H 1789.99 2.91425 0.588129 0
M  V30 18954 H 1787.52 1.5325 0.188111 0
M  V30 18955 H 1789.48 2.71805 3.07624 0
M  V30 18956 H 1788.14 1.61398 2.69461 0
M  V30 18957 H 1787.34 3.95629 3.1224 0
M  V30 18958 H 1786.94 3.44018 1.46722 0
M  V30 18959 H 1789.23 5.64414 3.74757 0
M  V30 18960 H 1790.17 6.60146 2.5615 0
M  V30 18961 H 1790.58 4.88153 2.8349 0
M  V30 18962 N 1789.98 -0.249655 1.5561 0
M  V30 18963 C 1791.23 -0.975982 1.76515 0
M  V30 18964 C 1791.54 -1.86589 0.586843 0
M  V30 18965 O 1792.75 -2.62876 0.678844 0
M  V30 18966 C 1791.2 -1.7854 3.12492 0
M  V30 18967 C 1790.81 -0.943014 4.37963 0
M  V30 18968 C 1792.56 -2.50462 3.42737 0
M  V30 18969 C 1790.46 -1.74816 5.64972 0
M  V30 18970 H 1789.39 -0.368139 0.65802 0
M  V30 18971 H 1792.04 -0.230745 1.82043 0
M  V30 18972 H 1790.43 -2.57248 3.01064 0
M  V30 18973 H 1791.6 -0.198453 4.60372 0
M  V30 18974 H 1789.91 -0.337249 4.15032 0
M  V30 18975 H 1792.51 -3.1115 4.34845 0
M  V30 18976 H 1792.85 -3.21938 2.63935 0
M  V30 18977 H 1793.39 -1.78767 3.55369 0
M  V30 18978 H 1790.13 -1.07719 6.46589 0
M  V30 18979 H 1789.65 -2.46807 5.46668 0
M  V30 18980 H 1791.33 -2.31599 6.04128 0
M  V30 18981 N 1791.46 -1.48941 -0.515198 0
M  V30 18982 C 1792.41 -1.60958 -1.61482 0
M  V30 18983 C 1793.39 -0.46591 -1.54007 0
M  V30 18984 O 1794.58 -0.718134 -1.61777 0
M  V30 18985 C 1791.71 -1.66623 -3.00153 0
M  V30 18986 C 1790.8 -2.8652 -3.12677 0
M  V30 18987 N 1791.19 -4.10769 -2.95131 0
M  V30 18988 C 1789.49 -2.84161 -3.43756 0
M  V30 18989 C 1790.19 -4.9129 -3.11463 0
M  V30 18990 N 1789.16 -4.24384 -3.39704 0
M  V30 18991 H 1792.97 -2.54756 -1.46549 0
M  V30 18992 H 1790.48 -1.45517 -0.721007 0
M  V30 18993 H 1792.48 -1.73328 -3.79161 0
M  V30 18994 H 1791.14 -0.739523 -3.16166 0
M  V30 18995 H 1792.15 -4.40974 -2.71593 0
M  V30 18996 H 1788.83 -2.00809 -3.66035 0
M  V30 18997 H 1790.22 -5.99948 -3.0251 0
M  V30 18998 N 1792.94 0.765193 -1.37777 0
M  V30 18999 C 1794.18 1.52096 -1.33084 0
M  V30 19000 C 1794.5 1.94827 0.08221 0
M  V30 19001 O 1793.77 1.66787 1.02757 0
M  V30 19002 H 1792.35 0.564139 -0.489649 0
M  V30 19003 H 1795.02 0.910308 -1.72335 0
M  V30 19004 H 1794.11 2.4173 -1.97416 0
M  V30 19005 N 1794.41 1.22455 0.992094 0
M  V30 19006 C 1795.82 1.04629 1.54627 0
M  V30 19007 C 1796.18 -0.390011 1.92285 0
M  V30 19008 O 1795.3 -1.27511 1.74842 0
M  V30 19009 C 1795.9 1.89306 2.80978 0
M  V30 19010 C 1794.45 1.75775 3.32836 0
M  V30 19011 C 1793.6 1.85724 2.05917 0
M  V30 19012 H 1796.55 1.36288 0.813089 0
M  V30 19013 H 1796.57 1.41095 3.53373 0
M  V30 19014 H 1796.09 2.93836 2.53539 0
M  V30 19015 H 1794.19 0.739821 3.65181 0
M  V30 19016 H 1794.3 2.58491 4.03385 0
M  V30 19017 H 1792.66 1.29173 2.19514 0
M  V30 19018 H 1793.45 2.91787 1.80874 0
M  V30 19019 N 1795.89 -1.18905 1.03437 0
M  V30 19020 C 1797.3 -1.70402 0.762893 0
M  V30 19021 C 1797.65 -1.82633 -0.716908 0
M  V30 19022 O 1796.78 -1.50136 -1.55847 0
M  V30 19023 C 1797.37 -3.09501 1.37822 0
M  V30 19024 C 1795.93 -3.58235 1.1552 0
M  V30 19025 C 1795.08 -2.34953 1.47284 0
M  V30 19026 H 1798.03 -1.03669 1.2016 0
M  V30 19027 H 1798.05 -3.7246 0.778079 0
M  V30 19028 H 1797.56 -3.00566 2.45523 0
M  V30 19029 H 1795.66 -3.72475 0.096646 0
M  V30 19030 H 1795.78 -4.42034 1.84778 0
M  V30 19031 H 1794.14 -2.38557 0.892333 0
M  V30 19032 H 1794.92 -2.28643 2.5608 0
M  V30 19033 N 1797.37 -0.812977 -1.35013 0
M  V30 19034 C 1798.62 -0.395562 -1.98191 0
M  V30 19035 C 1798.94 1.04242 -1.64799 0
M  V30 19036 O 1798.21 1.72219 -0.933678 0
M  V30 19037 H 1796.79 -0.143276 -0.733131 0
M  V30 19038 H 1799.45 -1.04023 -1.64819 0
M  V30 19039 H 1798.55 -0.506466 -3.07963 0
M  V30 19040 N 1798.85 1.47045 -0.567045 0
M  V30 19041 C 1800.08 2.06835 -0.0518309 0
M  V30 19042 C 1800.49 1.41823 1.24626 0
M  V30 19043 O 1799.85 0.518102 1.74991 0
M  V30 19044 C 1799.9 3.6124 0.137142 0
M  V30 19045 O 1799.62 4.23817 -1.10955 0
M  V30 19046 C 1801.12 4.37921 0.688511 0
M  V30 19047 H 1798.34 0.669111 -0.0503138 0
M  V30 19048 H 1800.88 1.88906 -0.783258 0
M  V30 19049 H 1799.04 3.7865 0.818733 0
M  V30 19050 H 1799.45 5.16484 -0.913475 0
M  V30 19051 H 1800.93 5.46603 0.769984 0
M  V30 19052 H 1801.4 4.0488 1.70201 0
M  V30 19053 H 1802.01 4.25279 0.0423004 0
M  V30 19054 N 1800.33 0.304 1.5464 0
M  V30 19055 C 1801.57 -0.303793 1.99804 0
M  V30 19056 C 1801.89 -1.54179 1.19389 0
M  V30 19057 O 1801.16 -1.93732 0.290631 0
M  V30 19058 H 1799.74 -0.115241 0.738057 0
M  V30 19059 H 1802.41 0.416024 1.90408 0
M  V30 19060 H 1801.5 -0.573759 3.06781 0
M  V30 19061 N 1801.8 -1.57568 0.0317802 0
M  V30 19062 C 1802.75 -2.10379 -0.949183 0
M  V30 19063 C 1803.72 -1.00649 -1.32133 0
M  V30 19064 O 1804.91 -1.28084 -1.41418 0
M  V30 19065 C 1802.05 -2.63762 -2.22539 0
M  V30 19066 C 1801.16 -3.87509 -1.90946 0
M  V30 19067 C 1800.29 -4.29276 -3.12882 0
M  V30 19068 C 1799.33 -5.45775 -2.77121 0
M  V30 19069 N 1798.47 -5.82686 -3.9169 0
M  V30 19070 H 1803.31 -2.93912 -0.491922 0
M  V30 19071 H 1800.85 -1.45272 -0.23121 0
M  V30 19072 H 1802.8 -2.92803 -2.9719 0
M  V30 19073 H 1801.43 -1.83055 -2.65877 0
M  V30 19074 H 1800.49 -3.6518 -1.06526 0
M  V30 19075 H 1801.8 -4.72235 -1.6061 0
M  V30 19076 H 1800.95 -4.59768 -3.95851 0
M  V30 19077 H 1799.69 -3.43323 -3.46382 0
M  V30 19078 H 1798.7 -5.14974 -1.92565 0
M  V30 19079 H 1799.92 -6.3343 -2.44834 0
M  V30 19080 H 1797.87 -4.99688 -4.25027 0
M  V30 19081 H 1797.78 -6.62058 -3.64986 0
M  V30 19082 H 1799.05 -6.17785 -4.75355 0
M  V30 19083 N 1803.28 0.241399 -1.5574 0
M  V30 19084 C 1804.51 0.99028 -1.82231 0
M  V30 19085 C 1804.93 1.77949 -0.609559 0
M  V30 19086 O 1804.29 1.75843 0.44148 0
M  V30 19087 C 1804.34 1.89947 -3.06516 0
M  V30 19088 O 1803.44 2.99201 -2.83818 0
M  V30 19089 H 1802.78 0.281488 -0.601382 0
M  V30 19090 H 1805.31 0.260721 -2.02932 0
M  V30 19091 H 1805.32 2.31308 -3.36096 0
M  V30 19092 H 1804 1.31924 -3.94422 0
M  V30 19093 H 1802.58 2.61929 -2.6542 0
M  V30 19094 N 1804.76 1.49212 0.507292 0
M  V30 19095 C 1806.01 1.5763 1.2584 0
M  V30 19096 C 1806.32 0.265343 1.93792 0
M  V30 19097 O 1807.53 0.227996 2.70541 0
M  V30 19098 C 1805.98 2.78093 2.28457 0
M  V30 19099 C 1805.59 4.15922 1.66472 0
M  V30 19100 C 1807.34 2.95837 3.04435 0
M  V30 19101 C 1805.24 5.27616 2.67162 0
M  V30 19102 H 1804.17 0.586896 0.47336 0
M  V30 19103 H 1806.82 1.75588 0.533018 0
M  V30 19104 H 1805.21 2.53616 3.0413 0
M  V30 19105 H 1806.38 4.50511 0.968337 0
M  V30 19106 H 1804.7 4.03484 1.02906 0
M  V30 19107 H 1807.29 3.76452 3.79721 0
M  V30 19108 H 1807.64 2.06156 3.61671 0
M  V30 19109 H 1808.17 3.20323 2.35877 0
M  V30 19110 H 1804.91 6.19336 2.14716 0
M  V30 19111 H 1804.43 4.97488 3.3506 0
M  V30 19112 H 1806.11 5.56686 3.29712 0
M  V30 19113 N 1806.24 -0.757876 1.38181 0
M  V30 19114 C 1807.47 -1.54709 1.37378 0
M  V30 19115 C 1807.88 -1.88763 -0.0375087 0
M  V30 19116 O 1807.24 -1.52467 -1.00299 0
M  V30 19117 C 1807.29 -2.84887 2.22535 0
M  V30 19118 O 1807.01 -2.52287 3.58166 0
M  V30 19119 C 1808.51 -3.79048 2.29865 0
M  V30 19120 H 1805.73 -0.478845 0.470052 0
M  V30 19121 H 1808.28 -0.938283 1.81704 0
M  V30 19122 H 1806.43 -3.42156 1.81682 0
M  V30 19123 H 1806.84 -3.35747 4.02957 0
M  V30 19124 H 1808.32 -4.67353 2.93744 0
M  V30 19125 H 1808.8 -4.19175 1.31106 0
M  V30 19126 H 1809.4 -3.27704 2.7109 0
M  V30 19127 N 1807.72 -1.22979 -0.985586 0
M  V30 19128 C 1808.94 -1.0853 -1.7615 0
M  V30 19129 C 1809.36 0.36363 -1.85265 0
M  V30 19130 O 1808.72 1.25173 -1.32808 0
M  V30 19131 C 1808.77 -1.69872 -3.19101 0
M  V30 19132 O 1808.49 -3.09098 -3.10467 0
M  V30 19133 C 1809.99 -1.60795 -4.1311 0
M  V30 19134 H 1807.21 -0.380086 -0.55297 0
M  V30 19135 H 1809.75 -1.62724 -1.2386 0
M  V30 19136 H 1807.91 -1.19724 -3.68436 0
M  V30 19137 H 1808.32 -3.38769 -4.00419 0
M  V30 19138 H 1809.8 -2.08428 -5.11138 0
M  V30 19139 H 1810.27 -0.565817 -4.3554 0
M  V30 19140 H 1810.88 -2.10284 -3.69676 0
M  V30 19141 N 1809.19 1.18355 -1.04066 0
M  V30 19142 C 1810.42 1.92816 -0.763979 0
M  V30 19143 C 1810.84 1.75658 0.672749 0
M  V30 19144 O 1810.2 1.06671 1.46598 0
M  V30 19145 C 1810.25 3.42267 -1.13516 0
M  V30 19146 O 1809.35 4.11576 -0.260646 0
M  V30 19147 H 1808.7 0.601532 -0.281167 0
M  V30 19148 H 1811.23 1.50087 -1.3905 0
M  V30 19149 H 1811.24 3.92973 -1.09709 0
M  V30 19150 H 1809.91 3.54076 -2.18181 0
M  V30 19151 H 1808.49 3.71174 -0.358342 0
M  V30 19152 N 1810.67 0.820125 1.3458 0
M  V30 19153 C 1811.92 0.406871 1.9837 0
M  V30 19154 C 1812.25 -1.02936 1.65028 0
M  V30 19155 O 1811.5 -1.73122 0.912538 0
M  V30 19156 C 1811.8 0.552817 3.53099 0
M  V30 19157 C 1811.47 1.95436 4.06344 0
M  V30 19158 C 1810.13 2.33776 4.20597 0
M  V30 19159 C 1812.48 2.87068 4.35019 0
M  V30 19160 C 1809.81 3.6309 4.6085 0
M  V30 19161 C 1812.16 4.15841 4.76716 0
M  V30 19162 C 1810.83 4.54163 4.89175 0
M  V30 19163 H 1810.1 0.148884 0.725889 0
M  V30 19164 H 1812.74 1.04353 1.6057 0
M  V30 19165 H 1811.05 -0.167245 3.91443 0
M  V30 19166 H 1812.74 0.213635 4.00431 0
M  V30 19167 H 1809.33 1.64652 3.95712 0
M  V30 19168 H 1813.52 2.5869 4.23548 0
M  V30 19169 H 1808.77 3.92611 4.68686 0
M  V30 19170 H 1812.95 4.86934 4.97863 0
M  V30 19171 H 1810.58 5.54415 5.20123 0
M  V30 19172 N 1812.15 -1.46743 0.574835 0
M  V30 19173 C 1813.08 -2.33012 -0.150836 0
M  V30 19174 C 1814.06 -1.44868 -0.891472 0
M  V30 19175 O 1815.25 -1.73698 -0.868481 0
M  V30 19176 C 1812.38 -3.26995 -1.17012 0
M  V30 19177 C 1811.33 -4.24518 -0.544829 0
M  V30 19178 C 1810.66 -5.07951 -1.67002 0
M  V30 19179 C 1811.96 -5.19776 0.512891 0
M  V30 19180 H 1813.65 -2.93935 0.569433 0
M  V30 19181 H 1811.2 -1.41344 0.275289 0
M  V30 19182 H 1813.15 -3.86198 -1.68609 0
M  V30 19183 H 1811.87 -2.64163 -1.92056 0
M  V30 19184 H 1810.53 -3.66566 -0.0500133 0
M  V30 19185 H 1810.18 -4.4151 -2.40993 0
M  V30 19186 H 1809.88 -5.73991 -1.25732 0
M  V30 19187 H 1811.4 -5.70017 -2.1889 0
M  V30 19188 H 1812.82 -5.73241 0.0823064 0
M  V30 19189 H 1811.22 -5.94114 0.845462 0
M  V30 19190 H 1812.29 -4.64184 1.40217 0
M  V30 19191 N 1813.63 -0.312197 -1.54477 0
M  V30 19192 C 1814.59 0.54612 -2.22599 0
M  V30 19193 C 1815.59 1.05252 -1.21568 0
M  V30 19194 O 1816.78 0.946756 -1.46226 0
M  V30 19195 C 1813.91 1.75733 -2.92114 0
M  V30 19196 H 1815.11 -0.0492216 -2.9986 0
M  V30 19197 H 1812.66 -0.063149 -1.56172 0
M  V30 19198 H 1813.39 2.39221 -2.18961 0
M  V30 19199 H 1813.18 1.40175 -3.66188 0
M  V30 19200 H 1814.67 2.36685 -3.44049 0
M  V30 19201 N 1815.11 1.57549 -0.040136 0
M  V30 19202 C 1816.52 1.56434 0.316341 0
M  V30 19203 C 1816.72 1.04679 1.72176 0
M  V30 19204 O 1815.78 0.698444 2.42648 0
M  V30 19205 C 1817.09 3.00301 0.154883 0
M  V30 19206 C 1818.64 3.12177 0.226821 0
M  V30 19207 C 1819.11 4.57903 0.0940219 0
M  V30 19208 N 1820.61 4.62955 0.150654 0
M  V30 19209 C 1821.34 5.73355 0.0718466 0
M  V30 19210 N 1820.84 6.92775 -0.0586777 0
M  V30 19211 N 1822.63 5.61957 0.126632 0
M  V30 19212 H 1814.78 1.89516 -0.959032 0
M  V30 19213 H 1817.04 0.872251 -0.371324 0
M  V30 19214 H 1816.75 3.42158 -0.813674 0
M  V30 19215 H 1816.62 3.65795 0.920521 0
M  V30 19216 H 1819.01 2.70225 1.18584 0
M  V30 19217 H 1819.09 2.49383 -0.569384 0
M  V30 19218 H 1818.74 5.00538 -0.861629 0
M  V30 19219 H 1818.67 5.18691 0.909231 0
M  V30 19220 H 1821.16 3.77064 0.251232 0
M  V30 19221 H 1821.47 7.72719 -0.111818 0
M  V30 19222 H 1819.81 6.94937 -0.0936119 0
M  V30 19223 H 1823.01 4.67549 0.227081 0
M  V30 19224 H 1823.18 6.47971 0.0617551 0
M  V30 19225 N 1816.58 -0.233136 1.55866 0
M  V30 19226 C 1817.52 -1.31564 1.86457 0
M  V30 19227 C 1818.5 -1.45747 0.720872 0
M  V30 19228 O 1819.68 -1.61744 0.968051 0
M  V30 19229 C 1816.81 -2.68745 2.0614 0
M  V30 19230 C 1815.85 -2.71639 3.28808 0
M  V30 19231 S 1816.69 -2.26866 4.85069 0
M  V30 19232 C 1817.84 -3.65945 5.07774 0
M  V30 19233 H 1818.07 -1.05419 2.77982 0
M  V30 19234 H 1815.61 -0.434809 1.48151 0
M  V30 19235 H 1817.57 -3.47728 2.18164 0
M  V30 19236 H 1816.23 -2.9212 1.15433 0
M  V30 19237 H 1815.42 -3.72418 3.39589 0
M  V30 19238 H 1815.02 -2.00711 3.15581 0
M  V30 19239 H 1817.31 -4.61549 4.95962 0
M  V30 19240 H 1818.26 -3.60088 6.09706 0
M  V30 19241 H 1818.66 -3.59096 4.35557 0
M  V30 19242 N 1818.06 -1.49479 -0.499372 0
M  V30 19243 C 1819.31 -1.58295 -1.25003 0
M  V30 19244 C 1819.63 -0.275616 -1.93648 0
M  V30 19245 O 1820.83 -0.24234 -2.70416 0
M  V30 19246 C 1819.29 -2.793 -2.26979 0
M  V30 19247 C 1818.9 -4.16799 -1.64264 0
M  V30 19248 C 1820.64 -2.97447 -3.02862 0
M  V30 19249 C 1818.55 -5.29025 -2.6436 0
M  V30 19250 H 1817.48 -0.589398 -0.470241 0
M  V30 19251 H 1820.13 -1.75868 -0.523698 0
M  V30 19252 H 1818.51 -2.55225 -3.02781 0
M  V30 19253 H 1819.68 -4.51018 -0.944432 0
M  V30 19254 H 1818 -4.04024 -1.00765 0
M  V30 19255 H 1820.6 -3.78461 -3.77719 0
M  V30 19256 H 1820.94 -2.08071 -3.60572 0
M  V30 19257 H 1821.47 -3.2157 -2.34175 0
M  V30 19258 H 1818.21 -6.20466 -2.11429 0
M  V30 19259 H 1817.73 -4.99258 -3.32417 0
M  V30 19260 H 1819.41 -5.58427 -3.26755 0
M  V30 19261 N 1819.54 0.750537 -1.38581 0
M  V30 19262 C 1820.77 1.53978 -1.38196 0
M  V30 19263 C 1821.18 1.8878 0.0274976 0
M  V30 19264 O 1820.54 1.52997 0.994894 0
M  V30 19265 C 1820.59 2.83702 -2.24043 0
M  V30 19266 O 1820.31 2.50384 -3.59499 0
M  V30 19267 C 1821.81 3.77823 -2.31872 0
M  V30 19268 H 1819.03 0.476345 -0.472585 0
M  V30 19269 H 1821.58 0.928634 -1.82199 0
M  V30 19270 H 1819.73 3.41187 -1.83494 0
M  V30 19271 H 1820.15 3.33605 -4.04732 0
M  V30 19272 H 1821.62 4.65788 -2.96218 0
M  V30 19273 H 1822.1 4.18474 -1.33327 0
M  V30 19274 H 1822.7 3.26262 -2.72824 0
M  V30 19275 N 1821.02 1.235 0.979051 0
M  V30 19276 C 1821.97 1.01485 2.09293 0
M  V30 19277 C 1822.96 -0.0465937 1.69336 0
M  V30 19278 O 1824.17 0.107021 1.79682 0
M  V30 19279 H 1820.54 0.311087 0.684638 0
M  V30 19280 H 1822.51 1.95972 2.25028 0
M  V30 19281 C 1821.26 0.624167 3.42052 0
M  V30 19282 H 1820.59 1.43265 3.73249 0
M  V30 19283 H 1822.03 0.509648 4.20926 0
M  V30 19284 C 1820.48 -0.667694 3.30217 0
M  V30 19285 O 1821.01 -1.71648 3.6318 0
M  V30 19286 N 1819.22 -0.644122 2.83372 0
M  V30 19287 H 1818.77 0.20969 2.56745 0
M  V30 19288 H 1818.73 -1.50872 2.75835 0
M  V30 19289 N 1822.5 -1.17802 1.04693 0
M  V30 19290 C 1823.41 -2.25298 0.654072 0
M  V30 19291 C 1824.42 -1.70984 -0.32255 0
M  V30 19292 O 1825.6 -2.0063 -0.175904 0
M  V30 19293 C 1822.66 -3.46687 0.0296345 0
M  V30 19294 C 1821.73 -4.16108 1.05606 0
M  V30 19295 C 1820.96 -5.31702 0.461329 0
M  V30 19296 O 1821.18 -5.65701 -0.730679 0
M  V30 19297 O 1820.12 -5.89956 1.19312 0
M  V30 19298 H 1823.94 -2.61179 1.54982 0
M  V30 19299 H 1821.53 -1.25005 0.818182 0
M  V30 19300 H 1823.41 -4.20201 -0.317654 0
M  V30 19301 H 1822.08 -3.12615 -0.839839 0
M  V30 19302 H 1820.99 -3.44635 1.45526 0
M  V30 19303 H 1822.32 -4.54195 1.89651 0
M  V30 19304 N 1823.98 -0.827251 -1.34143 0
M  V30 19305 C 1825.2 -0.429514 -2.02904 0
M  V30 19306 C 1825.63 0.958033 -1.61874 0
M  V30 19307 O 1824.98 1.62422 -0.805528 0
M  V30 19308 C 1825.03 -0.544592 -3.56464 0
M  V30 19309 O 1824.14 0.433849 -4.10112 0
M  V30 19310 H 1823.48 -0.176216 -0.64019 0
M  V30 19311 H 1826.01 -1.11887 -1.71297 0
M  V30 19312 H 1826.02 -0.421949 -4.05812 0
M  V30 19313 H 1824.69 -1.55657 -3.85673 0
M  V30 19314 H 1823.27 0.269729 -3.71923 0
M  V30 19315 N 1825.45 1.46436 -0.582609 0
M  V30 19316 C 1826.73 1.956 -0.00129167 0
M  V30 19317 C 1827.11 1.52526 1.45942 0
M  V30 19318 O 1826.46 0.775911 2.14923 0
M  V30 19319 C 1826.67 3.4857 -0.173243 0
M  V30 19320 C 1828.02 4.2458 -0.0410173 0
M  V30 19321 O 1829.04 3.56054 -0.102074 0
M  V30 19322 O 1827.9 5.46418 0.0947564 0
M  V30 19323 H 1824.99 0.825495 0.0498706 0
M  V30 19324 H 1827.54 1.5672 -0.650921 0
M  V30 19325 H 1826.31 3.72808 -1.1887 0
M  V30 19326 H 1825.93 3.94279 0.512822 0
M  V30 19327 N 1826.93 0.320385 1.54309 0
M  V30 19328 C 1828.18 -0.284021 1.9969 0
M  V30 19329 C 1828.49 -1.53496 1.21237 0
M  V30 19330 O 1829.7 -2.21517 1.5698 0
M  V30 19331 C 1828.16 -0.556621 3.5557 0
M  V30 19332 C 1827.76 0.677086 4.42854 0
M  V30 19333 C 1829.51 -1.12116 4.09427 0
M  V30 19334 C 1827.41 0.376566 5.902 0
M  V30 19335 H 1826.34 -0.109905 0.745947 0
M  V30 19336 H 1829 0.432113 1.7834 0
M  V30 19337 H 1827.38 -1.33286 3.72895 0
M  V30 19338 H 1828.55 1.45266 4.37304 0
M  V30 19339 H 1826.87 1.16161 3.99869 0
M  V30 19340 H 1829.46 -1.36057 5.171 0
M  V30 19341 H 1829.81 -2.06954 3.61215 0
M  V30 19342 H 1830.34 -0.406174 3.95721 0
M  V30 19343 H 1827.08 1.29403 6.426 0
M  V30 19344 H 1826.6 -0.36136 5.9871 0
M  V30 19345 H 1828.28 -0.014773 6.46998 0
M  V30 19346 N 1828.41 -1.57525 0.0484906 0
M  V30 19347 C 1829.64 -1.96611 -0.634631 0
M  V30 19348 C 1830.05 -0.924571 -1.65071 0
M  V30 19349 O 1829.39 0.0999398 -1.83428 0
M  V30 19350 C 1829.45 -3.31924 -1.38082 0
M  V30 19351 C 1829.12 -4.54022 -0.520883 0
M  V30 19352 C 1830.11 -5.19468 0.21192 0
M  V30 19353 C 1827.8 -5.00257 -0.452595 0
M  V30 19354 C 1829.79 -6.29483 1.00148 0
M  V30 19355 C 1827.48 -6.1015 0.340652 0
M  V30 19356 C 1828.48 -6.74624 1.06638 0
M  V30 19357 O 1828.17 -7.82404 1.84659 0
M  V30 19358 H 1827.9 -0.652007 -0.178503 0
M  V30 19359 H 1830.45 -2.05103 0.110397 0
M  V30 19360 H 1828.68 -3.19979 -2.17142 0
M  V30 19361 H 1830.37 -3.55777 -1.95392 0
M  V30 19362 H 1831.14 -4.84707 0.168615 0
M  V30 19363 H 1827.02 -4.49866 -1.00706 0
M  V30 19364 H 1830.56 -6.79739 1.56844 0
M  V30 19365 H 1826.46 -6.44347 0.385605 0
M  V30 19366 H 1827.22 -7.99168 1.76842 0
M  V30 19367 N 1829.89 0.224867 -1.55988 0
M  V30 19368 C 1831.11 0.970897 -1.83271 0
M  V30 19369 C 1831.54 1.77293 -0.628399 0
M  V30 19370 O 1830.9 1.76301 0.422804 0
M  V30 19371 C 1830.94 1.86686 -3.08514 0
M  V30 19372 O 1830.05 2.96174 -2.86975 0
M  V30 19373 H 1829.39 0.275093 -0.604334 0
M  V30 19374 H 1831.92 0.239183 -2.03197 0
M  V30 19375 H 1831.93 2.27731 -3.3853 0
M  V30 19376 H 1830.6 1.27733 -3.95799 0
M  V30 19377 H 1829.18 2.59099 -2.68183 0
M  V30 19378 N 1831.37 1.49742 0.491438 0
M  V30 19379 C 1832.3 1.70033 1.60034 0
M  V30 19380 C 1833.28 0.549076 1.60994 0
M  V30 19381 O 1834.46 0.785983 1.77584 0
M  V30 19382 C 1831.59 1.7757 2.98473 0
M  V30 19383 C 1830.55 2.9258 3.12379 0
M  V30 19384 C 1829.87 2.85239 4.52264 0
M  V30 19385 C 1831.17 4.33385 2.91504 0
M  V30 19386 H 1832.87 2.62875 1.43307 0
M  V30 19387 H 1830.41 1.26502 0.687989 0
M  V30 19388 H 1832.36 1.90351 3.75958 0
M  V30 19389 H 1831.09 0.813343 3.1631 0
M  V30 19390 H 1829.75 2.79417 2.37322 0
M  V30 19391 H 1829.4 1.86892 4.66991 0
M  V30 19392 H 1829.1 3.62437 4.62508 0
M  V30 19393 H 1830.62 3.00041 5.31797 0
M  V30 19394 H 1832.03 4.4718 3.58752 0
M  V30 19395 H 1830.43 5.11878 3.13211 0
M  V30 19396 H 1831.5 4.47166 1.87539 0
M  V30 19397 N 1832.84 -0.743177 1.38977 0
M  V30 19398 C 1834.26 -1.32104 1.3193 0
M  V30 19399 C 1834.61 -1.9619 -0.0201331 0
M  V30 19400 O 1833.73 -1.95764 -0.922245 0
M  V30 19401 C 1834.33 -2.40204 2.3893 0
M  V30 19402 C 1832.89 -2.93684 2.35428 0
M  V30 19403 C 1832.03 -1.67168 2.21247 0
M  V30 19404 H 1834.98 -0.541283 1.49184 0
M  V30 19405 H 1835 -3.20397 2.05246 0
M  V30 19406 H 1834.52 -1.93532 3.36403 0
M  V30 19407 H 1832.62 -3.44658 1.41568 0
M  V30 19408 H 1832.73 -3.47355 3.29971 0
M  V30 19409 H 1831.09 -1.91193 1.68278 0
M  V30 19410 H 1831.88 -1.22559 3.20678 0
M  V30 19411 N 1834.32 -1.24018 -0.972487 0
M  V30 19412 C 1835.73 -1.07076 -1.52943 0
M  V30 19413 C 1836.08 0.35937 -1.92881 0
M  V30 19414 O 1835.21 1.24713 -1.76849 0
M  V30 19415 C 1835.8 -1.93753 -2.7793 0
M  V30 19416 C 1834.36 -1.81048 -3.29998 0
M  V30 19417 C 1833.51 -1.88977 -2.02936 0
M  V30 19418 H 1836.46 -1.37565 -0.791304 0
M  V30 19419 H 1836.48 -1.46699 -3.51084 0
M  V30 19420 H 1835.99 -2.97833 -2.48832 0
M  V30 19421 H 1834.1 -0.797825 -3.63958 0
M  V30 19422 H 1834.21 -2.64876 -3.99221 0
M  V30 19423 H 1832.57 -1.32649 -2.17431 0
M  V30 19424 H 1833.36 -2.94627 -1.76209 0
M  V30 19425 N 1835.8 1.17245 -1.05316 0
M  V30 19426 C 1837.08 1.83482 -0.677779 0
M  V30 19427 C 1837.46 1.93592 0.841753 0
M  V30 19428 O 1836.81 1.47142 1.74818 0
M  V30 19429 C 1837.02 3.21062 -1.36823 0
M  V30 19430 C 1838.36 3.96954 -1.50708 0
M  V30 19431 O 1839.39 3.30545 -1.32734 0
M  V30 19432 O 1838.25 5.15967 -1.80111 0
M  V30 19433 H 1835.34 0.79179 -0.238741 0
M  V30 19434 H 1837.89 1.24531 -1.15283 0
M  V30 19435 H 1836.66 3.08679 -2.40484 0
M  V30 19436 H 1836.28 3.8768 -0.882617 0
M  V30 19437 N 1837.28 0.834353 1.33702 0
M  V30 19438 C 1838.69 0.485213 1.80285 0
M  V30 19439 C 1839.04 -0.995397 1.69075 0
M  V30 19440 O 1838.17 -1.77532 1.23738 0
M  V30 19441 C 1838.76 0.873959 3.27334 0
M  V30 19442 C 1837.32 0.577023 3.71951 0
M  V30 19443 C 1836.47 1.08473 2.55204 0
M  V30 19444 H 1839.42 1.02347 1.21288 0
M  V30 19445 H 1839.44 0.182218 3.80063 0
M  V30 19446 H 1838.95 1.95161 3.35461 0
M  V30 19447 H 1837.05 -0.490747 3.69354 0
M  V30 19448 H 1837.16 1.12909 4.65605 0
M  V30 19449 H 1835.53 0.505779 2.49628 0
M  V30 19450 H 1836.31 2.16906 2.66095 0
M  V30 19451 N 1838.76 -1.46125 0.590367 0
M  V30 19452 C 1839.7 -2.30384 -0.138481 0
M  V30 19453 C 1840.67 -1.41078 -0.876715 0
M  V30 19454 O 1841.86 -1.70022 -0.86587 0
M  V30 19455 C 1839 -3.25684 -1.14122 0
M  V30 19456 C 1838.11 -4.30091 -0.405639 0
M  V30 19457 C 1837.25 -5.12513 -1.39657 0
M  V30 19458 C 1836.29 -6.08662 -0.647833 0
M  V30 19459 N 1835.42 -6.83924 -1.5872 0
M  V30 19460 H 1840.26 -2.9218 0.586086 0
M  V30 19461 H 1837.8 -1.43991 0.300835 0
M  V30 19462 H 1839.76 -3.79388 -1.73553 0
M  V30 19463 H 1838.39 -2.6568 -1.8334 0
M  V30 19464 H 1837.44 -3.79184 0.303858 0
M  V30 19465 H 1838.75 -4.98477 0.179348 0
M  V30 19466 H 1837.91 -5.70531 -2.06346 0
M  V30 19467 H 1836.64 -4.44105 -2.01549 0
M  V30 19468 H 1835.65 -5.4979 0.0327878 0
M  V30 19469 H 1836.87 -6.79091 -0.0342018 0
M  V30 19470 H 1834.82 -6.1822 -2.19408 0
M  V30 19471 H 1834.74 -7.48599 -1.05522 0
M  V30 19472 H 1836.01 -7.46496 -2.2442 0
M  V30 19473 N 1840.23 -0.328564 -1.54137 0
M  V30 19474 C 1841.46 0.273928 -2.04776 0
M  V30 19475 C 1841.87 1.45942 -1.20406 0
M  V30 19476 O 1841.22 1.82271 -0.228693 0
M  V30 19477 C 1841.28 0.766914 -3.51225 0
M  V30 19478 C 1840.94 -0.296932 -4.56034 0
M  V30 19479 C 1841.94 -1.13468 -5.07367 0
M  V30 19480 C 1839.62 -0.446557 -5.00311 0
M  V30 19481 C 1841.62 -2.10773 -6.01543 0
M  V30 19482 C 1839.3 -1.42302 -5.94301 0
M  V30 19483 C 1840.3 -2.25207 -6.44803 0
M  V30 19484 O 1839.99 -3.21194 -7.36946 0
M  V30 19485 H 1839.72 0.0593978 -0.673385 0
M  V30 19486 H 1842.28 -0.474303 -1.99849 0
M  V30 19487 H 1840.51 1.56614 -3.53566 0
M  V30 19488 H 1842.2 1.2883 -3.84912 0
M  V30 19489 H 1842.96 -1.03009 -4.73935 0
M  V30 19490 H 1838.84 0.188865 -4.60613 0
M  V30 19491 H 1842.38 -2.75521 -6.40885 0
M  V30 19492 H 1838.28 -1.52822 -6.27149 0
M  V30 19493 H 1839.05 -3.16491 -7.54835 0
M  V30 19494 N 1841.71 1.57497 -0.0568439 0
M  V30 19495 C 1842.96 1.92914 0.615668 0
M  V30 19496 C 1843.29 0.935677 1.70515 0
M  V30 19497 O 1842.54 -0.0511255 1.95633 0
M  V30 19498 C 1842.84 3.35 1.24538 0
M  V30 19499 C 1842.51 4.50008 0.283536 0
M  V30 19500 C 1841.17 4.81196 0.0188809 0
M  V30 19501 C 1843.52 5.19847 -0.375336 0
M  V30 19502 C 1840.85 5.79569 -0.911986 0
M  V30 19503 C 1843.2 6.19215 -1.29443 0
M  V30 19504 C 1841.87 6.48829 -1.5677 0
M  V30 19505 H 1841.14 0.705922 0.225289 0
M  V30 19506 H 1843.78 1.91095 -0.124533 0
M  V30 19507 H 1842.09 3.33213 2.06098 0
M  V30 19508 H 1843.78 3.59686 1.77277 0
M  V30 19509 H 1840.37 4.25674 0.499994 0
M  V30 19510 H 1844.56 4.95959 -0.183967 0
M  V30 19511 H 1839.81 6.00846 -1.13112 0
M  V30 19512 H 1843.99 6.7244 -1.811 0
M  V30 19513 H 1841.62 7.24868 -2.29063 0
M  V30 19514 N 1843.19 -0.216591 1.56105 0
M  V30 19515 C 1844.47 -0.964874 1.70146 0
M  V30 19516 C 1844.85 -2.02229 0.605524 0
M  V30 19517 O 1844.2 -2.25203 -0.386742 0
M  V30 19518 C 1844.41 -1.57082 3.11651 0
M  V30 19519 C 1845.75 -2.06118 3.71215 0
M  V30 19520 O 1846.78 -1.66966 3.14644 0
M  V30 19521 O 1845.64 -2.78095 4.70452 0
M  V30 19522 H 1842.73 -0.451047 0.693171 0
M  V30 19523 H 1845.28 -0.207982 1.68421 0
M  V30 19524 H 1844.05 -0.80754 3.82877 0
M  V30 19525 H 1843.67 -2.39312 3.17515 0
M  V30 19526 N 1844.67 -1.5 -0.48349 0
M  V30 19527 C 1845.92 -1.60052 -1.23401 0
M  V30 19528 C 1846.24 -0.297159 -1.92723 0
M  V30 19529 O 1845.51 0.684629 -1.83547 0
M  V30 19530 H 1844.09 -0.589753 -0.458477 0
M  V30 19531 H 1846.75 -1.86716 -0.558835 0
M  V30 19532 H 1845.85 -2.40545 -1.98858 0
M  V30 19533 N 1846.15 0.735796 -1.39369 0
M  V30 19534 C 1847.38 1.52283 -1.39619 0
M  V30 19535 C 1847.78 1.89197 0.0112732 0
M  V30 19536 O 1847.13 1.54562 0.992786 0
M  V30 19537 C 1847.19 2.83993 -2.20427 0
M  V30 19538 C 1846.85 2.69518 -3.69065 0
M  V30 19539 C 1847.85 2.38119 -4.62164 0
M  V30 19540 C 1845.54 2.86414 -4.12641 0
M  V30 19541 C 1847.53 2.23797 -5.9682 0
M  V30 19542 C 1845.22 2.7171 -5.47373 0
M  V30 19543 C 1846.21 2.40447 -6.39277 0
M  V30 19544 O 1845.9 2.25833 -7.71527 0
M  V30 19545 H 1845.63 0.477218 -0.478789 0
M  V30 19546 H 1848.19 0.916936 -1.83797 0
M  V30 19547 H 1846.42 3.46839 -1.70996 0
M  V30 19548 H 1848.11 3.45606 -2.12865 0
M  V30 19549 H 1848.87 2.24717 -4.29799 0
M  V30 19550 H 1844.75 3.0974 -3.41441 0
M  V30 19551 H 1848.3 1.99316 -6.6852 0
M  V30 19552 H 1844.19 2.8469 -5.79329 0
M  V30 19553 H 1844.96 2.40909 -7.82244 0
M  V30 19554 N 1847.63 1.24532 0.965897 0
M  V30 19555 C 1848.9 0.994047 1.68458 0
M  V30 19556 C 1849.28 -0.483115 2.05497 0
M  V30 19557 O 1848.63 -1.45784 1.75953 0
M  V30 19558 C 1848.84 1.91872 2.91524 0
M  V30 19559 C 1850.19 2.19066 3.63724 0
M  V30 19560 O 1851.21 1.8954 3.01584 0
M  V30 19561 O 1850.07 2.69217 4.75589 0
M  V30 19562 H 1847.17 0.376083 0.73654 0
M  V30 19563 H 1849.71 1.35638 1.01982 0
M  V30 19564 H 1848.48 2.91665 2.60858 0
M  V30 19565 H 1848.11 1.55966 3.65732 0
M  V30 19566 N 1849.1 -1.16685 1.05936 0
M  V30 19567 C 1850.05 -2.2301 0.66101 0
M  V30 19568 C 1851.05 -1.66324 -0.321334 0
M  V30 19569 O 1852.25 -1.7903 -0.186587 0
M  V30 19570 H 1848.63 -0.726112 0.195616 0
M  V30 19571 H 1850.6 -2.539 1.56772 0
M  V30 19572 C 1849.35 -3.47649 0.0596424 0
M  V30 19573 H 1848.67 -3.91578 0.806635 0
M  V30 19574 H 1850.11 -4.23611 -0.18161 0
M  V30 19575 C 1848.57 -3.14965 -1.19578 0
M  V30 19576 O 1849.1 -3.30434 -2.28421 0
M  V30 19577 N 1847.3 -2.69126 -1.09634 0
M  V30 19578 H 1846.85 -2.56738 -0.210599 0
M  V30 19579 H 1846.81 -2.4763 -1.93718 0
M  V30 19580 N 1850.58 -0.841432 -1.33258 0
M  V30 19581 C 1851.51 -0.233859 -2.28004 0
M  V30 19582 C 1852.53 0.586872 -1.51854 0
M  V30 19583 O 1853.72 0.413523 -1.73644 0
M  V30 19584 C 1850.82 0.68919 -3.31818 0
M  V30 19585 C 1849.99 -0.0927681 -4.37302 0
M  V30 19586 C 1849.05 0.754015 -5.2077 0
M  V30 19587 O 1848.07 0.192293 -5.68875 0
M  V30 19588 N 1849.28 2.07095 -5.42302 0
M  V30 19589 H 1852.04 -1.04794 -2.80782 0
M  V30 19590 H 1849.6 -0.70014 -1.45978 0
M  V30 19591 H 1851.59 1.26071 -3.84562 0
M  V30 19592 H 1850.16 1.40397 -2.79298 0
M  V30 19593 H 1849.38 -0.845677 -3.85022 0
M  V30 19594 H 1850.67 -0.63036 -5.0488 0
M  V30 19595 H 1850.07 2.55082 -5.04925 0
M  V30 19596 H 1848.63 2.5909 -5.98093 0
M  V30 19597 N 1852.06 1.4581 -0.598108 0
M  V30 19598 C 1853.28 2.07188 -0.0938515 0
M  V30 19599 C 1853.71 1.44141 1.20851 0
M  V30 19600 O 1853.07 0.530689 1.73359 0
M  V30 19601 C 1853.12 3.60575 0.0423086 0
M  V30 19602 O 1852.22 3.97598 1.09496 0
M  V30 19603 H 1851.56 0.660324 -0.0697682 0
M  V30 19604 H 1854.09 1.87211 -0.825426 0
M  V30 19605 H 1854.1 4.07272 0.243566 0
M  V30 19606 H 1852.78 4.05852 -0.9087 0
M  V30 19607 H 1851.35 3.62587 0.87093 0
M  V30 19608 N 1853.54 0.336733 1.53961 0
M  V30 19609 C 1854.78 -0.262248 2.01097 0
M  V30 19610 C 1855.12 -1.50745 1.22431 0
M  V30 19611 O 1854.39 -1.92012 0.310103 0
M  V30 19612 C 1854.67 -0.583219 3.55346 0
M  V30 19613 C 1854.53 0.67361 4.44727 0
M  V30 19614 C 1855.85 -1.39558 4.17386 0
M  V30 19615 H 1852.97 -0.0938423 0.731001 0
M  V30 19616 H 1855.61 0.455921 1.84449 0
M  V30 19617 H 1853.76 -1.19505 3.69663 0
M  V30 19618 H 1855.43 1.31168 4.42258 0
M  V30 19619 H 1853.67 1.29987 4.13867 0
M  V30 19620 H 1854.34 0.404382 5.50517 0
M  V30 19621 H 1856.82 -0.878292 4.06725 0
M  V30 19622 H 1855.7 -1.58892 5.25399 0
M  V30 19623 H 1855.96 -2.39567 3.71564 0
M  V30 19624 N 1855.02 -1.57465 0.0651956 0
M  V30 19625 C 1856.26 -1.93524 -0.606325 0
M  V30 19626 C 1856.59 -0.944947 -1.6966 0
M  V30 19627 O 1855.87 0.0268871 -1.94481 0
M  V30 19628 C 1856.15 -3.3989 -1.18941 0
M  V30 19629 C 1856.01 -4.49675 -0.106235 0
M  V30 19630 C 1857.32 -3.86935 -2.09689 0
M  V30 19631 H 1854.44 -0.703729 -0.218939 0
M  V30 19632 H 1857.09 -1.89556 0.12982 0
M  V30 19633 H 1855.24 -3.43402 -1.81679 0
M  V30 19634 H 1856.91 -4.58286 0.526483 0
M  V30 19635 H 1855.15 -4.30118 0.563985 0
M  V30 19636 H 1855.82 -5.49208 -0.554488 0
M  V30 19637 H 1858.3 -3.85387 -1.56895 0
M  V30 19638 H 1857.17 -4.89972 -2.47424 0
M  V30 19639 H 1857.43 -3.24496 -3.00258 0
M  V30 19640 N 1856.49 0.20831 -1.56217 0
M  V30 19641 C 1857.74 0.928839 -1.7904 0
M  V30 19642 C 1858.06 1.84968 -0.636108 0
M  V30 19643 O 1859.26 2.60984 -0.748302 0
M  V30 19644 C 1857.72 1.70192 -3.17116 0
M  V30 19645 C 1857.33 0.826564 -4.40309 0
M  V30 19646 C 1859.07 2.41287 -3.49257 0
M  V30 19647 C 1856.98 1.59775 -5.69408 0
M  V30 19648 H 1855.91 0.350563 -0.667549 0
M  V30 19649 H 1858.56 0.182398 -1.82591 0
M  V30 19650 H 1856.94 2.49176 -3.07778 0
M  V30 19651 H 1858.11 0.076324 -4.60737 0
M  V30 19652 H 1856.43 0.227092 -4.1578 0
M  V30 19653 H 1859.03 2.99511 -4.42942 0
M  V30 19654 H 1859.37 3.14827 -2.72377 0
M  V30 19655 H 1859.9 1.69282 -3.59984 0
M  V30 19656 H 1856.64 0.905384 -6.49217 0
M  V30 19657 H 1856.16 2.32227 -5.5302 0
M  V30 19658 H 1857.84 2.155 -6.10056 0
M  V30 19659 N 1857.97 1.50255 0.475528 0
M  V30 19660 C 1858.9 1.63428 1.59268 0
M  V30 19661 C 1859.88 0.482517 1.55276 0
M  V30 19662 O 1861.07 0.70144 1.74963 0
M  V30 19663 C 1858.19 1.61277 2.97838 0
M  V30 19664 C 1857.24 2.81961 3.20001 0
M  V30 19665 S 1858.07 4.43321 3.00378 0
M  V30 19666 C 1859.23 4.43855 4.41297 0
M  V30 19667 H 1859.46 2.57928 1.47853 0
M  V30 19668 H 1856.99 1.39462 0.662547 0
M  V30 19669 H 1858.95 1.60721 3.77729 0
M  V30 19670 H 1857.61 0.680212 3.06646 0
M  V30 19671 H 1856.81 2.76747 4.21221 0
M  V30 19672 H 1856.41 2.80061 2.47875 0
M  V30 19673 H 1858.7 4.17145 5.33851 0
M  V30 19674 H 1859.64 5.45439 4.51555 0
M  V30 19675 H 1860.05 3.73616 4.23168 0
M  V30 19676 N 1859.45 -0.728395 1.39758 0
M  V30 19677 C 1860.73 -1.48036 1.27846 0
M  V30 19678 C 1861.11 -2.10818 -0.108996 0
M  V30 19679 O 1860.45 -1.99125 -1.12078 0
M  V30 19680 C 1860.66 -2.52644 2.40774 0
M  V30 19681 C 1862.01 -3.1884 2.80404 0
M  V30 19682 O 1863.04 -2.6296 2.40272 0
M  V30 19683 O 1861.9 -4.19971 3.49696 0
M  V30 19684 H 1858.99 -0.657688 0.501374 0
M  V30 19685 H 1861.54 -0.761658 1.51647 0
M  V30 19686 H 1860.31 -2.04678 3.335 0
M  V30 19687 H 1859.93 -3.32066 2.18674 0
M  V30 19688 N 1860.93 -1.25042 -0.959279 0
M  V30 19689 C 1862.2 -1.00297 -1.67928 0
M  V30 19690 C 1862.58 0.47221 -2.05751 0
M  V30 19691 O 1861.93 1.44849 -1.76723 0
M  V30 19692 C 1862.14 -1.93416 -2.90502 0
M  V30 19693 C 1863.49 -2.20992 -3.62557 0
M  V30 19694 O 1864.51 -1.91136 -3.00575 0
M  V30 19695 O 1863.37 -2.71735 -4.74154 0
M  V30 19696 H 1860.47 -0.379984 -0.734535 0
M  V30 19697 H 1863.01 -1.36177 -1.01262 0
M  V30 19698 H 1861.79 -2.93045 -2.59308 0
M  V30 19699 H 1861.41 -1.57904 -3.649 0
M  V30 19700 N 1862.41 1.16121 -1.06553 0
M  V30 19701 C 1863.66 1.86055 -0.778871 0
M  V30 19702 C 1863.97 1.82747 0.697357 0
M  V30 19703 O 1865.17 2.48285 1.09849 0
M  V30 19704 C 1863.63 3.33897 -1.34315 0
M  V30 19705 C 1863.24 3.45673 -2.84981 0
M  V30 19706 C 1864.98 4.09069 -1.13415 0
M  V30 19707 C 1862.89 4.87616 -3.34641 0
M  V30 19708 H 1861.82 0.696963 -0.287678 0
M  V30 19709 H 1864.47 1.31038 -1.28458 0
M  V30 19710 H 1862.85 3.88536 -0.765208 0
M  V30 19711 H 1864.03 3.01181 -3.4875 0
M  V30 19712 H 1862.34 2.83938 -3.04579 0
M  V30 19713 H 1864.94 5.13809 -1.48002 0
M  V30 19714 H 1865.28 4.16237 -0.0726719 0
M  V30 19715 H 1865.81 3.60676 -1.67802 0
M  V30 19716 H 1862.55 4.85629 -4.40278 0
M  V30 19717 H 1862.07 5.32722 -2.75622 0
M  V30 19718 H 1863.75 5.56443 -3.30122 0
M  V30 19719 N 1863.88 0.848487 1.3281 0
M  V30 19720 C 1864.82 0.233527 2.27002 0
M  V30 19721 C 1865.8 -0.624927 1.50111 0
M  V30 19722 O 1866.98 -0.583083 1.79255 0
M  V30 19723 C 1864.11 -0.671187 3.31983 0
M  V30 19724 C 1863.15 0.113068 4.2635 0
M  V30 19725 S 1863.99 1.47738 5.14717 0
M  V30 19726 C 1865.14 0.578218 6.23223 0
M  V30 19727 H 1865.37 1.03203 2.78813 0
M  V30 19728 H 1862.91 0.645772 1.40247 0
M  V30 19729 H 1864.87 -1.18754 3.92948 0
M  V30 19730 H 1863.53 -1.44344 2.78969 0
M  V30 19731 H 1862.72 -0.575751 5.00701 0
M  V30 19732 H 1862.32 0.560799 3.69772 0
M  V30 19733 H 1864.61 -0.220055 6.77143 0
M  V30 19734 H 1865.56 1.29218 6.9621 0
M  V30 19735 H 1865.96 0.155296 5.64286 0
M  V30 19736 N 1865.36 -1.4549 0.605832 0
M  V30 19737 C 1866.29 -2.28694 -0.152145 0
M  V30 19738 C 1867.31 -1.3985 -0.833422 0
M  V30 19739 O 1868.5 -1.6424 -0.699105 0
M  V30 19740 C 1865.6 -3.15544 -1.23634 0
M  V30 19741 C 1864.77 -4.32655 -0.642525 0
M  V30 19742 C 1863.83 -5.00726 -1.61739 0
M  V30 19743 O 1862.85 -5.57577 -1.14438 0
M  V30 19744 N 1864.06 -4.9985 -2.95178 0
M  V30 19745 H 1866.82 -2.94387 0.561801 0
M  V30 19746 H 1864.38 -1.55659 0.445195 0
M  V30 19747 H 1866.37 -3.57947 -1.88828 0
M  V30 19748 H 1864.94 -2.51771 -1.85284 0
M  V30 19749 H 1864.16 -3.93754 0.187451 0
M  V30 19750 H 1865.45 -5.08298 -0.225985 0
M  V30 19751 H 1864.85 -4.54949 -3.36211 0
M  V30 19752 H 1863.41 -5.46123 -3.558 0
M  V30 19753 N 1866.84 -0.344893 -1.5378 0
M  V30 19754 C 1867.79 0.526591 -2.26561 0
M  V30 19755 C 1868.78 1.10083 -1.28756 0
M  V30 19756 O 1869.99 1.04641 -1.46459 0
M  V30 19757 H 1866.36 0.188505 -0.72799 0
M  V30 19758 H 1868.33 -0.109269 -2.982 0
M  V30 19759 C 1867.08 1.66505 -3.0524 0
M  V30 19760 H 1866.41 1.23246 -3.80329 0
M  V30 19761 H 1867.85 2.24998 -3.59377 0
M  V30 19762 C 1866.31 2.59527 -2.14819 0
M  V30 19763 O 1866.84 3.6181 -1.74517 0
M  V30 19764 N 1865.04 2.28243 -1.79871 0
M  V30 19765 H 1864.59 1.45106 -2.12843 0
M  V30 19766 H 1864.55 2.90741 -1.19654 0
M  V30 19767 N 1868.32 1.57428 -0.0735454 0
M  V30 19768 C 1869.73 1.80973 0.458858 0
M  V30 19769 C 1870.08 0.987586 1.69532 0
M  V30 19770 O 1869.21 0.210611 2.15373 0
M  V30 19771 C 1869.8 3.28241 0.839246 0
M  V30 19772 C 1868.36 3.52626 1.3165 0
M  V30 19773 C 1867.51 2.75645 0.302533 0
M  V30 19774 H 1870.46 1.55854 -0.299225 0
M  V30 19775 H 1870.48 3.40386 1.70052 0
M  V30 19776 H 1869.99 3.88052 -0.0608625 0
M  V30 19777 H 1868.09 2.98121 2.23505 0
M  V30 19778 H 1868.2 4.61316 1.29322 0
M  V30 19779 H 1866.57 2.42457 0.780179 0
M  V30 19780 H 1867.35 3.38194 -0.589878 0
M  V30 19781 N 1869.8 -0.200022 1.56326 0
M  V30 19782 C 1871.04 -0.919355 1.79979 0
M  V30 19783 C 1871.37 -1.83997 0.645767 0
M  V30 19784 O 1870.64 -1.92994 -0.336186 0
M  V30 19785 H 1869.22 -0.342469 0.66387 0
M  V30 19786 H 1871.88 -0.206713 1.93801 0
M  V30 19787 H 1870.97 -1.51341 2.72951 0
M  V30 19788 N 1871.27 -1.50505 -0.467553 0
M  V30 19789 C 1872.52 -1.61352 -1.21697 0
M  V30 19790 C 1872.84 -0.317583 -1.92396 0
M  V30 19791 O 1872.11 0.665123 -1.84263 0
M  V30 19792 H 1870.69 -0.594582 -0.452196 0
M  V30 19793 H 1873.36 -1.87299 -0.539 0
M  V30 19794 H 1872.45 -2.4264 -1.96296 0
M  V30 19795 N 1872.75 0.720973 -1.40142 0
M  V30 19796 C 1873.66 1.86527 -1.42284 0
M  V30 19797 C 1874.68 1.71106 -0.316044 0
M  V30 19798 O 1875.85 1.93465 -0.55977 0
M  V30 19799 C 1872.92 3.2227 -1.27841 0
M  V30 19800 C 1871.98 3.49984 -2.48616 0
M  V30 19801 C 1871.21 4.7925 -2.34852 0
M  V30 19802 O 1871.44 5.53963 -1.35945 0
M  V30 19803 O 1870.37 5.07179 -3.24119 0
M  V30 19804 H 1874.2 1.87675 -2.38771 0
M  V30 19805 H 1871.78 0.870677 -1.21407 0
M  V30 19806 H 1873.66 4.03362 -1.21973 0
M  V30 19807 H 1872.34 3.21861 -0.344566 0
M  V30 19808 H 1871.25 2.68922 -2.60061 0
M  V30 19809 H 1872.58 3.55184 -3.40742 0
M  V30 19810 N 1874.23 1.25549 0.952634 0
M  V30 19811 C 1875.51 1.01186 1.67394 0
M  V30 19812 C 1875.89 -0.461292 2.05998 0
M  V30 19813 O 1875.24 -1.43909 1.77489 0
M  V30 19814 C 1875.45 1.94954 2.89472 0
M  V30 19815 C 1876.79 2.22911 3.6138 0
M  V30 19816 O 1877.82 1.92728 2.99557 0
M  V30 19817 O 1876.68 2.74246 4.72706 0
M  V30 19818 H 1873.77 0.383874 0.732509 0
M  V30 19819 H 1876.32 1.36712 1.00538 0
M  V30 19820 H 1875.09 2.94416 2.5775 0
M  V30 19821 H 1874.71 1.59837 3.64058 0
M  V30 19822 N 1875.71 -1.15554 1.07168 0
M  V30 19823 C 1876.64 -2.19201 0.634504 0
M  V30 19824 C 1877.62 -1.58848 -0.347283 0
M  V30 19825 O 1878.8 -1.86779 -0.25415 0
M  V30 19826 C 1875.93 -3.38631 -0.0685456 0
M  V30 19827 C 1874.98 -4.17503 0.87139 0
M  V30 19828 S 1875.81 -4.8013 2.37139 0
M  V30 19829 C 1876.97 -6.02929 1.68009 0
M  V30 19830 H 1877.2 -2.55946 1.51259 0
M  V30 19831 H 1874.73 -1.26486 0.88547 0
M  V30 19832 H 1876.69 -4.07824 -0.467933 0
M  V30 19833 H 1875.35 -3.00234 -0.922944 0
M  V30 19834 H 1874.54 -5.02943 0.326166 0
M  V30 19835 H 1874.15 -3.53849 1.21107 0
M  V30 19836 H 1876.44 -6.70217 0.990739 0
M  V30 19837 H 1877.38 -6.62017 2.51274 0
M  V30 19838 H 1877.79 -5.52477 1.15887 0
M  V30 19839 N 1877.19 -0.855519 -1.32358 0
M  V30 19840 C 1878.42 -0.473331 -2.01413 0
M  V30 19841 C 1878.83 0.930206 -1.64294 0
M  V30 19842 O 1878.19 1.60714 -0.864705 0
M  V30 19843 C 1878.24 -0.603815 -3.56422 0
M  V30 19844 O 1877.96 -1.95207 -3.92207 0
M  V30 19845 C 1879.46 -0.220748 -4.4275 0
M  V30 19846 H 1876.68 -0.185962 -0.644716 0
M  V30 19847 H 1879.22 -1.1527 -1.68918 0
M  V30 19848 H 1877.38 0.0278263 -3.8739 0
M  V30 19849 H 1877.79 -1.94946 -4.86925 0
M  V30 19850 H 1879.27 -0.363048 -5.50805 0
M  V30 19851 H 1879.74 0.838881 -4.31114 0
M  V30 19852 H 1880.35 -0.827498 -4.17172 0
M  V30 19853 N 1878.67 1.45167 -0.61354 0
M  V30 19854 C 1879.6 2.3333 0.089004 0
M  V30 19855 C 1880.58 1.47181 0.85275 0
M  V30 19856 O 1881.76 1.7594 0.822122 0
M  V30 19857 C 1878.89 3.29982 1.08301 0
M  V30 19858 C 1877.85 4.25813 0.432084 0
M  V30 19859 C 1877.17 5.122 1.53476 0
M  V30 19860 C 1878.47 5.18233 -0.65052 0
M  V30 19861 H 1880.17 2.92322 -0.647165 0
M  V30 19862 H 1877.71 1.40565 -0.312667 0
M  V30 19863 H 1879.66 3.90533 1.5831 0
M  V30 19864 H 1878.39 2.69162 1.84985 0
M  V30 19865 H 1877.05 3.6657 -0.0471927 0
M  V30 19866 H 1876.7 4.47744 2.29203 0
M  V30 19867 H 1876.4 5.77122 1.10469 0
M  V30 19868 H 1877.92 5.7562 2.037 0
M  V30 19869 H 1879.33 5.72821 -0.234262 0
M  V30 19870 H 1877.73 5.91664 -1.00268 0
M  V30 19871 H 1878.8 4.60304 -1.52475 0
M  V30 19872 N 1880.14 0.353044 1.53595 0
M  V30 19873 C 1881.39 -0.240548 2.01066 0
M  V30 19874 C 1881.72 -1.49793 1.24065 0
M  V30 19875 O 1880.97 -1.93083 0.318982 0
M  V30 19876 C 1881.27 -0.590811 3.52483 0
M  V30 19877 C 1880.94 0.570791 4.47273 0
M  V30 19878 C 1879.6 0.889548 4.72906 0
M  V30 19879 C 1881.95 1.34962 5.03423 0
M  V30 19880 C 1879.28 1.98933 5.51944 0
M  V30 19881 C 1881.63 2.43972 5.83661 0
M  V30 19882 C 1880.3 2.76397 6.07586 0
M  V30 19883 H 1879.57 -0.0880227 0.735753 0
M  V30 19884 H 1882.21 0.48292 1.85311 0
M  V30 19885 H 1880.52 -1.39512 3.6612 0
M  V30 19886 H 1882.22 -1.06213 3.86678 0
M  V30 19887 H 1878.81 0.3123 4.27461 0
M  V30 19888 H 1882.99 1.11661 4.83576 0
M  V30 19889 H 1878.25 2.24468 5.68704 0
M  V30 19890 H 1882.42 3.04746 6.26181 0
M  V30 19891 H 1880.05 3.61741 6.68616 0
M  V30 19892 N 1881.62 -1.57387 0.0818932 0
M  V30 19893 C 1882.86 -1.95747 -0.58843 0
M  V30 19894 C 1883.23 -0.961967 -1.66163 0
M  V30 19895 O 1884.43 -1.23358 -2.38822 0
M  V30 19896 C 1882.7 -3.38689 -1.14126 0
M  V30 19897 S 1884.26 -3.99034 -1.8253 0
M  V30 19898 H 1881.07 -0.684474 -0.192395 0
M  V30 19899 H 1883.68 -1.94859 0.158155 0
M  V30 19900 H 1882.38 -4.08918 -0.348477 0
M  V30 19901 H 1881.91 -3.43143 -1.92397 0
M  V30 19902 H 1883.93 -3.86762 -3.10854 0
M  V30 19903 N 1883.1 0.191729 -1.56429 0
M  V30 19904 C 1884.03 1.26174 -1.91345 0
M  V30 19905 C 1885.04 1.41536 -0.804451 0
M  V30 19906 O 1886.23 1.41902 -1.08287 0
M  V30 19907 C 1883.33 2.63341 -2.13319 0
M  V30 19908 C 1882.51 2.69543 -3.44479 0
M  V30 19909 C 1881.57 3.87929 -3.55524 0
M  V30 19910 O 1880.59 3.74875 -4.28319 0
M  V30 19911 N 1881.79 5.03527 -2.88861 0
M  V30 19912 H 1884.56 0.965364 -2.83727 0
M  V30 19913 H 1882.12 0.381628 -1.57338 0
M  V30 19914 H 1884.11 3.40971 -2.17993 0
M  V30 19915 H 1882.68 2.85452 -1.2742 0
M  V30 19916 H 1881.9 1.78161 -3.51642 0
M  V30 19917 H 1883.19 2.7068 -4.30824 0
M  V30 19918 H 1882.59 5.17032 -2.29553 0
M  V30 19919 H 1881.14 5.79092 -2.99159 0
M  V30 19920 N 1884.58 1.50751 0.459565 0
M  V30 19921 C 1885.51 1.65108 1.57526 0
M  V30 19922 C 1886.49 0.498959 1.54755 0
M  V30 19923 O 1887.67 0.719958 1.74209 0
M  V30 19924 C 1884.8 1.64427 2.96111 0
M  V30 19925 C 1883.85 2.85339 3.16992 0
M  V30 19926 S 1884.68 4.46482 2.95659 0
M  V30 19927 C 1885.83 4.48511 4.36565 0
M  V30 19928 H 1886.07 2.59481 1.45109 0
M  V30 19929 H 1883.6 1.40157 0.647718 0
M  V30 19930 H 1885.56 1.64718 3.76003 0
M  V30 19931 H 1884.22 0.712698 3.05908 0
M  V30 19932 H 1883.41 2.81199 4.18262 0
M  V30 19933 H 1883.01 2.82674 2.4489 0
M  V30 19934 H 1885.31 4.22783 5.29396 0
M  V30 19935 H 1886.25 5.50198 4.45744 0
M  V30 19936 H 1886.66 3.78084 4.19181 0
M  V30 19937 N 1886.06 -0.713531 1.40522 0
M  V30 19938 C 1887.3 -1.47561 1.39117 0
M  V30 19939 C 1887.63 -1.94199 -0.00592038 0
M  V30 19940 O 1886.91 -1.68301 -0.974941 0
M  V30 19941 C 1887.19 -2.70023 2.38242 0
M  V30 19942 C 1887.05 -2.29266 3.86984 0
M  V30 19943 C 1888.36 -3.72185 2.34875 0
M  V30 19944 H 1885.48 -0.535243 0.50664 0
M  V30 19945 H 1888.13 -0.814172 1.71672 0
M  V30 19946 H 1886.28 -3.26458 2.10611 0
M  V30 19947 H 1887.95 -1.78297 4.2545 0
M  V30 19948 H 1886.19 -1.61246 4.02719 0
M  V30 19949 H 1886.86 -3.17057 4.51862 0
M  V30 19950 H 1889.34 -3.25384 2.59354 0
M  V30 19951 H 1888.21 -4.55507 3.06276 0
M  V30 19952 H 1888.47 -4.20627 1.36108 0
M  V30 19953 N 1887.53 -1.26053 -0.945962 0
M  V30 19954 C 1888.76 -1.14181 -1.7314 0
M  V30 19955 C 1889.18 0.299663 -1.85698 0
M  V30 19956 O 1888.54 1.21711 -1.34373 0
M  V30 19957 C 1888.59 -1.81052 -3.11854 0
M  V30 19958 O 1887.69 -1.09606 -3.97568 0
M  V30 19959 H 1887.03 -0.398138 -0.531397 0
M  V30 19960 H 1889.56 -1.66782 -1.18511 0
M  V30 19961 H 1889.57 -1.87685 -3.62269 0
M  V30 19962 H 1888.25 -2.85921 -3.0203 0
M  V30 19963 H 1886.83 -1.10915 -3.56023 0
M  V30 19964 N 1889.01 1.14984 -1.07779 0
M  V30 19965 C 1890.24 1.90288 -0.824935 0
M  V30 19966 C 1890.66 1.77709 0.616524 0
M  V30 19967 O 1890.02 1.11281 1.4313 0
M  V30 19968 C 1890.07 3.38482 -1.24348 0
M  V30 19969 O 1889.17 4.10538 -0.391454 0
M  V30 19970 H 1888.51 0.592283 -0.300162 0
M  V30 19971 H 1891.04 1.45588 -1.43755 0
M  V30 19972 H 1891.05 3.89284 -1.22155 0
M  V30 19973 H 1889.73 3.46956 -2.29335 0
M  V30 19974 H 1888.3 3.69846 -0.476247 0
M  V30 19975 N 1890.49 0.862526 1.31902 0
M  V30 19976 C 1891.74 0.470471 1.97267 0
M  V30 19977 C 1892.07 -0.973153 1.68058 0
M  V30 19978 O 1891.34 -1.68411 0.973035 0
M  V30 19979 C 1891.63 0.719362 3.52842 0
M  V30 19980 C 1891.48 2.21198 3.91652 0
M  V30 19981 C 1892.8 0.18092 4.39728 0
M  V30 19982 H 1889.92 0.172408 0.71655 0
M  V30 19983 H 1892.56 1.0824 1.56154 0
M  V30 19984 H 1890.71 0.198516 3.87992 0
M  V30 19985 H 1892.38 2.79951 3.66641 0
M  V30 19986 H 1890.62 2.68744 3.40528 0
M  V30 19987 H 1891.3 2.33679 5.00098 0
M  V30 19988 H 1893.77 0.626421 4.11358 0
M  V30 19989 H 1892.65 0.384575 5.47551 0
M  V30 19990 H 1892.91 -0.916756 4.3249 0
M  V30 19991 N 1891.97 -1.4484 0.62123 0
M  V30 19992 C 1893.2 -2.065 0.128561 0
M  V30 19993 C 1893.61 -1.46351 -1.19277 0
M  V30 19994 O 1892.97 -0.582692 -1.72948 0
M  V30 19995 C 1893.02 -3.615 -0.00297622 0
M  V30 19996 O 1892.74 -4.19407 1.26609 0
M  V30 19997 C 1894.24 -4.40174 -0.525505 0
M  V30 19998 H 1891.46 -0.666783 0.0751128 0
M  V30 19999 H 1894.01 -1.85868 0.852829 0
M  V30 20000 H 1892.16 -3.81427 -0.677635 0
M  V30 20001 H 1892.57 -5.12738 1.10454 0
M  V30 20002 H 1894.05 -5.49085 -0.566585 0
M  V30 20003 H 1894.53 -4.10918 -1.55057 0
M  V30 20004 H 1895.13 -4.25143 0.115568 0
M  V30 20005 N 1893.45 -0.361184 -1.53405 0
M  V30 20006 C 1894.69 0.229881 -2.01191 0
M  V30 20007 C 1895.02 1.49133 -1.24858 0
M  V30 20008 O 1894.28 1.92911 -0.329218 0
M  V30 20009 C 1894.58 0.572109 -3.52791 0
M  V30 20010 C 1894.24 -0.594503 -4.46964 0
M  V30 20011 C 1892.9 -0.914615 -4.72428 0
M  V30 20012 C 1895.26 -1.3763 -5.027 0
M  V30 20013 C 1892.58 -2.01858 -5.50881 0
M  V30 20014 C 1894.94 -2.47064 -5.82359 0
M  V30 20015 C 1893.6 -2.79615 -6.06112 0
M  V30 20016 H 1892.87 0.0841196 -0.73621 0
M  V30 20017 H 1895.52 -0.49274 -1.85052 0
M  V30 20018 H 1893.82 1.37569 -3.66854 0
M  V30 20019 H 1895.52 1.04161 -3.87236 0
M  V30 20020 H 1892.11 -0.334965 -4.27289 0
M  V30 20021 H 1896.29 -1.14224 -4.82977 0
M  V30 20022 H 1891.55 -2.27481 -5.67505 0
M  V30 20023 H 1895.72 -3.08062 -6.24556 0
M  V30 20024 H 1893.35 -3.65282 -6.66688 0
M  V30 20025 N 1894.92 1.57341 -0.0902386 0
M  V30 20026 C 1896.17 1.93352 0.574273 0
M  V30 20027 C 1896.49 0.97374 1.6964 0
M  V30 20028 O 1897.69 1.22737 2.42173 0
M  V30 20029 C 1896.15 3.43536 1.07289 0
M  V30 20030 C 1895.76 4.47996 -0.0192163 0
M  V30 20031 C 1897.5 3.88516 1.71042 0
M  V30 20032 C 1895.41 5.89329 0.494487 0
M  V30 20033 H 1894.34 0.721711 0.218287 0
M  V30 20034 H 1896.99 1.82753 -0.165456 0
M  V30 20035 H 1895.37 3.49271 1.86616 0
M  V30 20036 H 1896.54 4.53899 -0.794527 0
M  V30 20037 H 1894.86 4.12595 -0.561628 0
M  V30 20038 H 1897.46 4.91505 2.1054 0
M  V30 20039 H 1897.8 3.26896 2.57769 0
M  V30 20040 H 1898.33 3.85462 0.983058 0
M  V30 20041 H 1895.07 6.54638 -0.336054 0
M  V30 20042 H 1894.59 5.86908 1.23691 0
M  V30 20043 H 1896.27 6.39763 0.965014 0
M  V30 20044 N 1896.4 -0.183431 1.56529 0
M  V30 20045 C 1897.81 -0.747035 1.71103 0
M  V30 20046 C 1898.16 -1.83335 0.698762 0
M  V30 20047 O 1897.29 -2.15931 -0.142414 0
M  V30 20048 C 1897.88 -1.36183 3.10225 0
M  V30 20049 C 1896.44 -1.87239 3.26525 0
M  V30 20050 C 1895.59 -0.746737 2.67056 0
M  V30 20051 H 1898.54 0.0418058 1.58645 0
M  V30 20052 H 1898.56 -2.2314 3.08203 0
M  V30 20053 H 1898.07 -0.570966 3.83877 0
M  V30 20054 H 1896.18 -2.69008 2.57809 0
M  V30 20055 H 1896.29 -2.02616 4.34147 0
M  V30 20056 H 1894.65 -1.16406 2.26543 0
M  V30 20057 H 1895.44 0.0320833 3.43285 0
M  V30 20058 N 1897.88 -1.50992 -0.451564 0
M  V30 20059 C 1899.29 -1.55592 -1.03189 0
M  V30 20060 C 1899.64 -0.370923 -1.92662 0
M  V30 20061 O 1898.77 0.513972 -2.10208 0
M  V30 20062 C 1899.36 -2.81975 -1.87818 0
M  V30 20063 C 1897.92 -2.89192 -2.40925 0
M  V30 20064 C 1897.07 -2.50103 -1.19766 0
M  V30 20065 H 1900.02 -1.56974 -0.233388 0
M  V30 20066 H 1900.04 -2.64934 -2.73112 0
M  V30 20067 H 1899.55 -3.68203 -1.22672 0
M  V30 20068 H 1897.65 -2.07362 -3.09567 0
M  V30 20069 H 1897.77 -3.92529 -2.74696 0
M  V30 20070 H 1896.13 -2.02978 -1.53857 0
M  V30 20071 H 1896.91 -3.3866 -0.562517 0
M  V30 20072 N 1899.36 0.706069 -1.40899 0
M  V30 20073 C 1900.29 1.83004 -1.36327 0
M  V30 20074 C 1901.27 1.60934 -0.232136 0
M  V30 20075 O 1902.45 1.83822 -0.417348 0
M  V30 20076 C 1899.58 3.19508 -1.12395 0
M  V30 20077 C 1898.63 3.60387 -2.28086 0
M  V30 20078 S 1899.46 3.66403 -3.90524 0
M  V30 20079 C 1900.62 5.0565 -3.68874 0
M  V30 20080 H 1900.85 1.86603 -2.31445 0
M  V30 20081 H 1898.38 0.873772 -1.27297 0
M  V30 20082 H 1900.34 3.98315 -0.992725 0
M  V30 20083 H 1899 3.1353 -0.189145 0
M  V30 20084 H 1898.19 4.59526 -2.07008 0
M  V30 20085 H 1897.8 2.88861 -2.37561 0
M  V30 20086 H 1900.09 5.92847 -3.27931 0
M  V30 20087 H 1901.03 5.31767 -4.67578 0
M  V30 20088 H 1901.44 4.76693 -3.02364 0
M  V30 20089 N 1900.84 1.26553 0.939264 0
M  V30 20090 C 1901.8 1.08335 2.01981 0
M  V30 20091 C 1902.8 0.0310501 1.6077 0
M  V30 20092 O 1903.99 0.274627 1.72022 0
M  V30 20093 C 1901.12 0.648208 3.34681 0
M  V30 20094 H 1902.31 2.04272 2.19574 0
M  V30 20095 H 1899.87 1.09177 1.11849 0
M  V30 20096 H 1900.6 -0.313074 3.22785 0
M  V30 20097 H 1900.39 1.40806 3.65946 0
M  V30 20098 H 1901.88 0.54264 4.14059 0
M  V30 20099 N 1902.31 -1.14411 1.08387 0
M  V30 20100 C 1903.59 -1.8162 0.726188 0
M  V30 20101 C 1903.97 -1.95755 -0.790129 0
M  V30 20102 O 1903.32 -1.51725 -1.70856 0
M  V30 20103 C 1903.53 -3.17321 1.45287 0
M  V30 20104 C 1904.88 -3.92818 1.6118 0
M  V30 20105 O 1905.9 -3.2691 1.41451 0
M  V30 20106 O 1904.76 -5.1101 1.93728 0
M  V30 20107 H 1901.85 -0.785182 0.25965 0
M  V30 20108 H 1904.4 -1.21431 1.18544 0
M  V30 20109 H 1903.17 -3.02195 2.48584 0
M  V30 20110 H 1902.8 -3.85203 0.985093 0
M  V30 20111 N 1903.79 -0.869509 -1.31443 0
M  V30 20112 C 1904.72 -0.340679 -2.31001 0
M  V30 20113 C 1905.7 0.568186 -1.6033 0
M  V30 20114 O 1906.89 0.485305 -1.88038 0
M  V30 20115 C 1904.02 0.45909 -3.44252 0
M  V30 20116 C 1902.97 -0.356639 -4.26512 0
M  V30 20117 C 1902.3 0.568786 -5.31666 0
M  V30 20118 C 1903.6 -1.59045 -4.97496 0
M  V30 20119 H 1905.29 -1.1726 -2.75482 0
M  V30 20120 H 1902.84 -0.5653 -1.3244 0
M  V30 20121 H 1904.79 0.839573 -4.12952 0
M  V30 20122 H 1903.52 1.32451 -2.98537 0
M  V30 20123 H 1902.17 -0.719063 -3.59479 0
M  V30 20124 H 1901.82 1.43148 -4.82201 0
M  V30 20125 H 1901.52 0.0268906 -5.87594 0
M  V30 20126 H 1903.05 0.946122 -6.03225 0
M  V30 20127 H 1904.46 -1.28144 -5.58795 0
M  V30 20128 H 1902.86 -2.07139 -5.63217 0
M  V30 20129 H 1903.93 -2.34354 -4.24507 0
M  V30 20130 N 1905.27 1.44508 -0.628902 0
M  V30 20131 C 1906.68 1.85457 -0.215122 0
M  V30 20132 C 1907.03 1.52619 1.23296 0
M  V30 20133 O 1906.16 0.963178 1.93783 0
M  V30 20134 C 1906.75 3.36621 -0.383645 0
M  V30 20135 C 1905.31 3.76392 -0.0243904 0
M  V30 20136 C 1904.46 2.68369 -0.698081 0
M  V30 20137 H 1907.41 1.35006 -0.834208 0
M  V30 20138 H 1907.43 3.78617 0.378049 0
M  V30 20139 H 1906.94 3.6049 -1.43767 0
M  V30 20140 H 1905.04 3.58139 1.02798 0
M  V30 20141 H 1905.16 4.7714 -0.432898 0
M  V30 20142 H 1903.52 2.54349 -0.133605 0
M  V30 20143 H 1904.3 2.95071 -1.75465 0
M  V30 20144 N 1906.75 0.369315 1.53212 0
M  V30 20145 C 1908.03 -0.275781 1.93646 0
M  V30 20146 C 1908.41 -1.66075 1.30316 0
M  V30 20147 O 1907.75 -2.23746 0.463658 0
M  V30 20148 C 1907.96 -0.322239 3.47509 0
M  V30 20149 C 1909.31 -0.560798 4.2088 0
M  V30 20150 O 1910.34 -0.403291 3.5391 0
M  V30 20151 O 1909.2 -0.86778 5.39566 0
M  V30 20152 H 1906.29 -0.166296 0.810108 0
M  V30 20153 H 1908.84 0.42237 1.6436 0
M  V30 20154 H 1907.61 0.648648 3.85886 0
M  V30 20155 H 1907.23 -1.06613 3.8304 0
M  V30 20156 N 1908.23 -1.57291 0.0985816 0
M  V30 20157 C 1909.17 -2.14215 -0.8591 0
M  V30 20158 C 1910.14 -1.06162 -1.27745 0
M  V30 20159 O 1911.33 -1.33967 -1.35858 0
M  V30 20160 C 1908.47 -2.72963 -2.11152 0
M  V30 20161 C 1907.58 -3.95259 -1.74339 0
M  V30 20162 C 1906.72 -4.4216 -2.94394 0
M  V30 20163 C 1905.76 -5.57038 -2.53723 0
M  V30 20164 N 1904.89 -5.98775 -3.66624 0
M  V30 20165 H 1909.73 -2.95734 -0.366821 0
M  V30 20166 H 1907.27 -1.46121 -0.169388 0
M  V30 20167 H 1909.23 -3.05145 -2.84504 0
M  V30 20168 H 1907.86 -1.94167 -2.57874 0
M  V30 20169 H 1906.91 -3.69369 -0.90942 0
M  V30 20170 H 1908.22 -4.78622 -1.40436 0
M  V30 20171 H 1907.38 -4.76144 -3.75994 0
M  V30 20172 H 1906.12 -3.57705 -3.31509 0
M  V30 20173 H 1905.12 -5.22678 -1.7055 0
M  V30 20174 H 1906.35 -6.43244 -2.17748 0
M  V30 20175 H 1904.29 -5.17265 -4.03451 0
M  V30 20176 H 1904.21 -6.76943 -3.36578 0
M  V30 20177 H 1905.48 -6.3739 -4.48725 0
M  V30 20178 N 1909.71 0.175127 -1.56624 0
M  V30 20179 C 1910.95 0.890605 -1.81418 0
M  V30 20180 C 1911.27 1.82946 -0.674958 0
M  V30 20181 O 1910.54 1.93504 0.305439 0
M  V30 20182 H 1909.12 0.331864 -0.669235 0
M  V30 20183 H 1911.79 0.175855 -1.94105 0
M  V30 20184 H 1910.88 1.46979 -2.75325 0
M  V30 20185 N 1911.18 1.5123 0.44355 0
M  V30 20186 C 1912.13 1.72095 1.53792 0
M  V30 20187 C 1913.1 0.562529 1.56284 0
M  V30 20188 O 1914.29 0.796259 1.73391 0
M  V30 20189 C 1911.43 1.84627 2.9156 0
M  V30 20190 C 1910.54 3.12147 2.98644 0
M  V30 20191 C 1909.67 3.1531 4.27496 0
M  V30 20192 C 1908.71 4.37171 4.28425 0
M  V30 20193 N 1907.85 4.37919 5.48791 0
M  V30 20194 H 1912.69 2.65512 1.35304 0
M  V30 20195 H 1910.23 1.31593 0.657387 0
M  V30 20196 H 1912.18 1.89874 3.71488 0
M  V30 20197 H 1910.81 0.946232 3.0862 0
M  V30 20198 H 1909.87 3.16239 2.11417 0
M  V30 20199 H 1911.18 4.02074 2.95192 0
M  V30 20200 H 1910.33 3.19439 5.15794 0
M  V30 20201 H 1909.07 2.23261 4.33596 0
M  V30 20202 H 1908.08 4.33225 3.38521 0
M  V30 20203 H 1909.3 5.30477 4.23994 0
M  V30 20204 H 1907.25 3.48737 5.55624 0
M  V30 20205 H 1907.16 5.21647 5.47193 0
M  V30 20206 H 1908.43 4.46232 6.39138 0
M  V30 20207 N 1912.66 -0.698586 1.41271 0
M  V30 20208 C 1914.07 -1.2784 1.36066 0
M  V30 20209 C 1914.42 -1.96154 0.0422934 0
M  V30 20210 O 1913.55 -1.98599 -0.859498 0
M  V30 20211 C 1914.14 -2.32481 2.46451 0
M  V30 20212 C 1912.7 -2.86046 2.44652 0
M  V30 20213 C 1911.85 -1.60045 2.26453 0
M  V30 20214 H 1914.8 -0.493547 1.5083 0
M  V30 20215 H 1914.82 -3.13705 2.15335 0
M  V30 20216 H 1914.33 -1.82732 3.4239 0
M  V30 20217 H 1912.43 -3.3998 1.52461 0
M  V30 20218 H 1912.55 -3.36682 3.40855 0
M  V30 20219 H 1910.91 -1.85742 1.74275 0
M  V30 20220 H 1911.69 -1.12295 3.24414 0
M  V30 20221 N 1914.14 -1.27049 -0.93254 0
M  V30 20222 C 1915.39 -1.13103 -1.6797 0
M  V30 20223 C 1915.71 0.324047 -1.91782 0
M  V30 20224 O 1914.97 1.25381 -1.5026 0
M  V30 20225 C 1915.27 -1.8547 -3.05509 0
M  V30 20226 C 1914.93 -3.35342 -3.01424 0
M  V30 20227 C 1913.6 -3.76222 -3.00017 0
M  V30 20228 C 1915.95 -4.30993 -2.93078 0
M  V30 20229 C 1913.28 -5.11125 -2.88041 0
M  V30 20230 C 1915.63 -5.65946 -2.82644 0
M  V30 20231 C 1914.29 -6.06126 -2.79585 0
M  V30 20232 H 1913.56 -0.413872 -0.614647 0
M  V30 20233 H 1916.21 -1.57598 -1.08789 0
M  V30 20234 H 1914.51 -1.33469 -3.68366 0
M  V30 20235 H 1916.21 -1.72112 -3.62186 0
M  V30 20236 H 1912.8 -3.02828 -3.03303 0
M  V30 20237 H 1916.99 -4.00385 -2.93267 0
M  V30 20238 H 1912.24 -5.41408 -2.84056 0
M  V30 20239 H 1916.42 -6.39738 -2.75151 0
M  V30 20240 H 1914.04 -7.10613 -2.70061 0
M  V30 20241 N 1915.62 1.13835 -1.08993 0
M  V30 20242 C 1916.89 1.81232 -0.735809 0
M  V30 20243 C 1917.27 1.96172 0.779737 0
M  V30 20244 O 1916.62 1.52629 1.70049 0
M  V30 20245 C 1916.83 3.16546 -1.46968 0
M  V30 20246 C 1918.18 3.91958 -1.6326 0
M  V30 20247 O 1919.2 3.26155 -1.43183 0
M  V30 20248 O 1918.06 5.09976 -1.96435 0
M  V30 20249 H 1915.16 0.783794 -0.26381 0
M  V30 20250 H 1917.7 1.20801 -1.19186 0
M  V30 20251 H 1916.48 3.00872 -2.50183 0
M  V30 20252 H 1916.1 3.84676 -1.00551 0
M  V30 20253 N 1917.1 0.876467 1.3098 0
M  V30 20254 C 1918.32 0.504524 2.0117 0
M  V30 20255 C 1918.75 -0.897295 1.65319 0
M  V30 20256 O 1918.1 -1.59321 0.865255 0
M  V30 20257 C 1918.15 0.676516 3.54197 0
M  V30 20258 O 1917.26 -0.28134 4.11439 0
M  V30 20259 H 1916.6 0.199855 0.633209 0
M  V30 20260 H 1919.13 1.18167 1.67026 0
M  V30 20261 H 1919.14 0.572273 4.03967 0
M  V30 20262 H 1917.81 1.69864 3.7963 0
M  V30 20263 H 1916.39 -0.131506 3.72668 0
M  V30 20264 N 1918.57 -1.44173 0.636557 0
M  V30 20265 C 1919.99 -1.56704 0.302646 0
M  V30 20266 C 1920.19 -1.62316 -1.19398 0
M  V30 20267 O 1919.25 -1.56914 -1.97824 0
M  V30 20268 C 1920.56 -2.83608 0.999346 0
M  V30 20269 C 1922.11 -2.97328 0.978005 0
M  V30 20270 C 1922.58 -4.27042 1.65527 0
M  V30 20271 N 1924.07 -4.33868 1.62212 0
M  V30 20272 C 1924.81 -5.32966 2.11505 0
M  V30 20273 N 1924.3 -6.38439 2.69012 0
M  V30 20274 N 1926.1 -5.24511 2.02102 0
M  V30 20275 H 1918.25 -1.38773 1.60797 0
M  V30 20276 H 1920.51 -0.665369 0.675269 0
M  V30 20277 H 1920.22 -2.85466 2.05432 0
M  V30 20278 H 1920.09 -3.73308 0.540484 0
M  V30 20279 H 1922.48 -2.9502 -0.0685065 0
M  V30 20280 H 1922.56 -2.08963 1.47541 0
M  V30 20281 H 1922.2 -4.30109 2.70126 0
M  V30 20282 H 1922.13 -5.14275 1.13266 0
M  V30 20283 H 1924.62 -3.58264 1.20231 0
M  V30 20284 H 1924.94 -7.10348 3.04344 0
M  V30 20285 H 1923.28 -6.39109 2.73066 0
M  V30 20286 H 1926.47 -4.41024 1.56892 0
M  V30 20287 H 1926.65 -6.01586 2.40828 0
M  V30 20288 N 1920.05 -0.377435 -1.53014 0
M  V30 20289 C 1921.3 0.20853 -2.01423 0
M  V30 20290 C 1921.63 1.47801 -1.26433 0
M  V30 20291 O 1920.88 1.92551 -0.34966 0
M  V30 20292 C 1921.18 0.534659 -3.53378 0
M  V30 20293 C 1920.85 -0.641876 -4.46308 0
M  V30 20294 C 1919.51 -0.964671 -4.71431 0
M  V30 20295 C 1921.86 -1.42954 -5.01212 0
M  V30 20296 C 1919.19 -2.07689 -5.4871 0
M  V30 20297 C 1921.54 -2.53227 -5.79706 0
M  V30 20298 C 1920.2 -2.86028 -6.03112 0
M  V30 20299 H 1919.47 0.0763064 -0.737061 0
M  V30 20300 H 1922.12 -0.51234 -1.84519 0
M  V30 20301 H 1920.43 1.3367 -3.68293 0
M  V30 20302 H 1922.12 1.00048 -3.88319 0
M  V30 20303 H 1918.71 -0.380266 -4.2691 0
M  V30 20304 H 1922.9 -1.1934 -4.81738 0
M  V30 20305 H 1918.15 -2.33487 -5.65061 0
M  V30 20306 H 1922.33 -3.14669 -6.21254 0
M  V30 20307 H 1919.95 -3.72332 -6.62777 0
M  V30 20308 N 1921.53 1.57237 -0.106922 0
M  V30 20309 C 1922.78 1.95064 0.554803 0
M  V30 20310 C 1923.11 0.989597 1.67095 0
M  V30 20311 O 1922.38 0.0246857 1.94484 0
M  V30 20312 C 1922.67 3.42924 1.09887 0
M  V30 20313 C 1922.52 4.49798 -0.0130257 0
M  V30 20314 C 1923.84 3.92358 1.99356 0
M  V30 20315 H 1920.96 0.709287 0.200204 0
M  V30 20316 H 1923.6 1.89145 -0.180032 0
M  V30 20317 H 1921.75 3.48098 1.7251 0
M  V30 20318 H 1923.42 4.56729 -0.647804 0
M  V30 20319 H 1921.67 4.28472 -0.677825 0
M  V30 20320 H 1922.34 5.50485 0.40868 0
M  V30 20321 H 1924.81 3.89411 1.46622 0
M  V30 20322 H 1923.69 4.9636 2.34346 0
M  V30 20323 H 1923.95 3.32343 2.91549 0
M  V30 20324 N 1923.01 -0.166818 1.56715 0
M  V30 20325 C 1923.94 -1.2086 1.99787 0
M  V30 20326 C 1924.92 -1.45918 0.874178 0
M  V30 20327 O 1926.1 -1.57176 1.14058 0
M  V30 20328 C 1923.23 -2.54648 2.3616 0
M  V30 20329 C 1922.19 -2.44151 3.51532 0
M  V30 20330 C 1921.51 -3.82469 3.7366 0
M  V30 20331 C 1922.81 -1.9424 4.84838 0
M  V30 20332 H 1924.51 -0.850538 2.87065 0
M  V30 20333 H 1922.05 -0.407696 1.38108 0
M  V30 20334 H 1924.01 -3.27736 2.64891 0
M  V30 20335 H 1922.73 -2.92251 1.45797 0
M  V30 20336 H 1921.39 -1.73516 3.22936 0
M  V30 20337 H 1921.04 -4.17473 2.8058 0
M  V30 20338 H 1920.74 -3.76312 4.5129 0
M  V30 20339 H 1922.26 -4.57136 4.04796 0
M  V30 20340 H 1923.68 -2.57105 5.12416 0
M  V30 20341 H 1922.07 -1.99021 5.66137 0
M  V30 20342 H 1923.14 -0.89695 4.76532 0
M  V30 20343 N 1924.49 -1.51463 -0.435524 0
M  V30 20344 C 1925.73 -1.65881 -1.19427 0
M  V30 20345 C 1926.09 -0.367896 -1.88442 0
M  V30 20346 O 1927.29 -0.387877 -2.65987 0
M  V30 20347 C 1925.56 -2.83001 -2.18278 0
M  V30 20348 S 1927.12 -3.17758 -3.02614 0
M  V30 20349 H 1923.94 -0.584398 -0.404969 0
M  V30 20350 H 1926.54 -1.89374 -0.485553 0
M  V30 20351 H 1925.25 -3.75233 -1.66217 0
M  V30 20352 H 1924.78 -2.61702 -2.93727 0
M  V30 20353 H 1926.79 -2.64333 -4.19932 0
M  V30 20354 N 1925.96 0.691085 -1.4164 0
M  V30 20355 C 1927.19 1.48481 -1.44804 0
M  V30 20356 C 1927.61 1.88016 -0.0561606 0
M  V30 20357 O 1926.97 1.54927 0.941657 0
M  V30 20358 C 1927.02 2.72083 -2.3665 0
M  V30 20359 O 1926.12 3.6974 -1.82663 0
M  V30 20360 H 1925.47 0.446714 -0.491267 0
M  V30 20361 H 1928 0.849076 -1.8615 0
M  V30 20362 H 1928.01 3.2034 -2.52678 0
M  V30 20363 H 1926.68 2.42645 -3.37781 0
M  V30 20364 H 1925.26 3.28695 -1.76108 0
M  V30 20365 N 1927.44 1.27542 0.925789 0
M  V30 20366 C 1928.67 1.1681 1.70772 0
M  V30 20367 C 1929.09 -0.274824 1.86789 0
M  V30 20368 O 1928.44 -1.18694 1.38629 0
M  V30 20369 C 1928.49 1.84904 3.10633 0
M  V30 20370 O 1928.21 3.23559 2.95366 0
M  V30 20371 C 1929.72 1.80322 4.04968 0
M  V30 20372 H 1926.94 0.406036 0.534206 0
M  V30 20373 H 1929.48 1.68448 1.15955 0
M  V30 20374 H 1927.63 1.37166 3.62304 0
M  V30 20375 H 1928.05 3.57488 3.838 0
M  V30 20376 H 1929.52 2.32577 5.00611 0
M  V30 20377 H 1930 0.772975 4.32344 0
M  V30 20378 H 1930.61 2.27683 3.59222 0
M  V30 20379 N 1928.92 -1.13255 1.09595 0
M  V30 20380 C 1929.87 -2.20794 0.731624 0
M  V30 20381 C 1930.86 -1.67263 -0.268256 0
M  V30 20382 O 1932.07 -1.79533 -0.129535 0
M  V30 20383 H 1928.44 -0.719521 0.218618 0
M  V30 20384 H 1930.41 -2.48784 1.6477 0
M  V30 20385 C 1929.16 -3.47283 0.170214 0
M  V30 20386 H 1928.49 -3.88814 0.930805 0
M  V30 20387 H 1929.93 -4.23974 -0.0467499 0
M  V30 20388 C 1928.39 -3.18609 -1.09497 0
M  V30 20389 O 1928.92 -3.37534 -2.17793 0
M  V30 20390 N 1927.12 -2.72477 -1.01017 0
M  V30 20391 H 1926.67 -2.57278 -0.128814 0
M  V30 20392 H 1926.63 -2.53668 -1.85741 0
M  V30 20393 N 1930.4 -0.883401 -1.30514 0
M  V30 20394 C 1931.35 -0.320484 -2.25736 0
M  V30 20395 C 1932.33 0.550165 -1.51202 0
M  V30 20396 O 1933.52 0.394846 -1.7254 0
M  V30 20397 C 1930.65 0.465347 -3.40131 0
M  V30 20398 C 1929.74 -0.419301 -4.22022 0
M  V30 20399 N 1930.13 -1.51903 -4.82451 0
M  V30 20400 C 1928.43 -0.214132 -4.45486 0
M  V30 20401 C 1929.13 -2.06567 -5.43788 0
M  V30 20402 N 1928.11 -1.36084 -5.26291 0
M  V30 20403 H 1931.91 -1.1608 -2.70005 0
M  V30 20404 H 1929.42 -0.732634 -1.44935 0
M  V30 20405 H 1931.42 0.885249 -4.07393 0
M  V30 20406 H 1930.08 1.30312 -2.97403 0
M  V30 20407 H 1931.09 -1.90189 -4.81714 0
M  V30 20408 H 1927.77 0.586602 -4.13358 0
M  V30 20409 H 1929.16 -2.98909 -6.0175 0
M  V30 20410 N 1931.88 1.43833 -0.644194 0
M  V30 20411 C 1933.1 2.06784 -0.159719 0
M  V30 20412 C 1933.53 1.47913 1.16204 0
M  V30 20413 O 1932.88 0.585574 1.71583 0
M  V30 20414 C 1932.93 3.60527 -0.0724271 0
M  V30 20415 O 1932.04 4.0088 0.967917 0
M  V30 20416 H 1931.38 0.657771 -0.0907406 0
M  V30 20417 H 1933.91 1.8449 -0.884568 0
M  V30 20418 H 1933.92 4.07841 0.113872 0
M  V30 20419 H 1932.59 4.02755 -1.03736 0
M  V30 20420 H 1931.17 3.65174 0.755135 0
M  V30 20421 N 1933.35 0.385544 1.52811 0
M  V30 20422 C 1934.28 -0.442951 2.2926 0
M  V30 20423 C 1935.27 -1.06674 1.32494 0
M  V30 20424 O 1936.45 -1.08022 1.61384 0
M  V30 20425 C 1933.58 -1.57243 3.09664 0
M  V30 20426 C 1932.53 -1.07488 4.14283 0
M  V30 20427 C 1931.86 -2.29614 4.82889 0
M  V30 20428 C 1933.16 -0.145479 5.22097 0
M  V30 20429 H 1934.85 0.1949 2.98765 0
M  V30 20430 H 1932.4 0.0951762 1.43685 0
M  V30 20431 H 1934.35 -2.15882 3.61902 0
M  V30 20432 H 1933.08 -2.23781 2.37885 0
M  V30 20433 H 1931.74 -0.511047 3.6302 0
M  V30 20434 H 1931.38 -2.94653 4.07662 0
M  V30 20435 H 1931.08 -1.96985 5.53598 0
M  V30 20436 H 1932.61 -2.88902 5.37929 0
M  V30 20437 H 1934.02 -0.639941 5.69717 0
M  V30 20438 H 1932.42 0.0908687 6.00031 0
M  V30 20439 H 1933.49 0.806707 4.78142 0
M  V30 20440 N 1934.83 -1.57178 0.115259 0
M  V30 20441 C 1935.76 -2.18134 -0.833042 0
M  V30 20442 C 1936.74 -1.12033 -1.27995 0
M  V30 20443 O 1937.93 -1.40254 -1.34323 0
M  V30 20444 C 1935.06 -2.77778 -2.08463 0
M  V30 20445 C 1934.01 -3.89429 -1.77565 0
M  V30 20446 C 1933.34 -4.35863 -3.09722 0
M  V30 20447 C 1934.64 -5.11701 -1.04687 0
M  V30 20448 H 1936.33 -2.9763 -0.325107 0
M  V30 20449 H 1933.88 -1.43164 -0.154933 0
M  V30 20450 H 1935.83 -3.19079 -2.75258 0
M  V30 20451 H 1934.56 -1.95566 -2.61575 0
M  V30 20452 H 1933.21 -3.48698 -1.13161 0
M  V30 20453 H 1932.86 -3.50515 -3.6076 0
M  V30 20454 H 1932.56 -5.11152 -2.89823 0
M  V30 20455 H 1934.09 -4.79812 -3.77641 0
M  V30 20456 H 1935.5 -5.50045 -1.61628 0
M  V30 20457 H 1933.9 -5.92549 -0.948964 0
M  V30 20458 H 1934.97 -4.84889 -0.032977 0
M  V30 20459 N 1936.31 0.158505 -1.56801 0
M  V30 20460 C 1937.27 1.17986 -1.96499 0
M  V30 20461 C 1938.27 1.3649 -0.850127 0
M  V30 20462 O 1939.46 1.33678 -1.11696 0
M  V30 20463 C 1936.6 2.54245 -2.27095 0
M  V30 20464 H 1937.79 0.839577 -2.87908 0
M  V30 20465 H 1935.34 0.401431 -1.51057 0
M  V30 20466 H 1936.08 2.93266 -1.38441 0
M  V30 20467 H 1935.86 2.42179 -3.0837 0
M  V30 20468 H 1937.35 3.27829 -2.58686 0
M  V30 20469 N 1937.79 1.51692 0.427485 0
M  V30 20470 C 1939.2 1.57214 1.007 0
M  V30 20471 C 1939.55 0.401527 1.92047 0
M  V30 20472 O 1938.68 -0.480464 2.10999 0
M  V30 20473 C 1939.27 2.84927 1.83309 0
M  V30 20474 C 1937.83 2.92989 2.36294 0
M  V30 20475 C 1936.98 2.51977 1.15772 0
M  V30 20476 H 1939.93 1.57326 0.208386 0
M  V30 20477 H 1939.95 2.69245 2.68863 0
M  V30 20478 H 1939.46 3.70108 1.16799 0
M  V30 20479 H 1937.56 2.1226 3.06229 0
M  V30 20480 H 1937.68 3.9685 2.68416 0
M  V30 20481 H 1936.04 2.054 1.50608 0
M  V30 20482 H 1936.82 3.39512 0.508568 0
M  V30 20483 N 1939.27 -0.683564 1.42004 0
M  V30 20484 C 1940.68 -1.26389 1.37414 0
M  V30 20485 C 1941.03 -1.96099 0.0630958 0
M  V30 20486 O 1940.15 -1.995 -0.838385 0
M  V30 20487 C 1940.75 -2.29854 2.48903 0
M  V30 20488 C 1939.31 -2.83435 2.47673 0
M  V30 20489 C 1938.46 -1.57634 2.28138 0
M  V30 20490 H 1941.41 -0.477522 1.51345 0
M  V30 20491 H 1941.43 -3.11404 2.18651 0
M  V30 20492 H 1940.94 -1.7909 3.44309 0
M  V30 20493 H 1939.04 -3.38344 1.56059 0
M  V30 20494 H 1939.15 -3.33048 3.44407 0
M  V30 20495 H 1937.52 -1.83883 1.76236 0
M  V30 20496 H 1938.3 -1.08848 3.25587 0
M  V30 20497 N 1940.75 -1.28031 -0.919012 0
M  V30 20498 C 1941.97 -1.17714 -1.7015 0
M  V30 20499 C 1942.39 0.264914 -1.86932 0
M  V30 20500 O 1941.75 1.17957 -1.39256 0
M  V30 20501 C 1941.8 -1.86548 -3.09648 0
M  V30 20502 O 1941.52 -3.25121 -2.93646 0
M  V30 20503 C 1943.02 -1.82467 -4.04006 0
M  V30 20504 H 1940.24 -0.408863 -0.532045 0
M  V30 20505 H 1942.78 -1.69061 -1.1506 0
M  V30 20506 H 1940.94 -1.39085 -3.61572 0
M  V30 20507 H 1941.35 -3.59518 -3.81899 0
M  V30 20508 H 1942.83 -2.35229 -4.99371 0
M  V30 20509 H 1943.3 -0.795892 -4.31928 0
M  V30 20510 H 1943.91 -2.29585 -3.5801 0
M  V30 20511 N 1942.22 1.12672 -1.10194 0
M  V30 20512 C 1943.47 1.83483 -0.837668 0
M  V30 20513 C 1943.79 1.84873 0.638864 0
M  V30 20514 O 1944.99 2.51654 1.01895 0
M  V30 20515 C 1943.45 3.29455 -1.4487 0
M  V30 20516 C 1943.06 3.36431 -2.95834 0
M  V30 20517 C 1944.8 4.05254 -1.26371 0
M  V30 20518 C 1942.71 4.76723 -3.49984 0
M  V30 20519 H 1941.64 0.687458 -0.309706 0
M  V30 20520 H 1944.29 1.26884 -1.32562 0
M  V30 20521 H 1942.67 3.85905 -0.88843 0
M  V30 20522 H 1943.84 2.89934 -3.58155 0
M  V30 20523 H 1942.16 2.74104 -3.13458 0
M  V30 20524 H 1944.76 5.0884 -1.64274 0
M  V30 20525 H 1945.1 4.15795 -0.205058 0
M  V30 20526 H 1945.63 3.55155 -1.79192 0
M  V30 20527 H 1942.37 4.71376 -4.55505 0
M  V30 20528 H 1941.89 5.23684 -2.9243 0
M  V30 20529 H 1943.57 5.45659 -3.47657 0
M  V30 20530 N 1943.7 0.89031 1.30043 0
M  V30 20531 C 1944.93 0.525833 2.00623 0
M  V30 20532 C 1945.35 -0.87971 1.66261 0
M  V30 20533 O 1944.71 -1.58394 0.882105 0
M  V30 20534 C 1944.76 0.714046 3.5346 0
M  V30 20535 O 1943.86 -0.237685 4.11714 0
M  V30 20536 H 1943.2 0.20656 0.631054 0
M  V30 20537 H 1945.73 1.19932 1.65763 0
M  V30 20538 H 1945.74 0.615086 4.03337 0
M  V30 20539 H 1944.42 1.73881 3.77807 0
M  V30 20540 H 1942.99 -0.0919722 3.72787 0
M  V30 20541 N 1945.18 -1.43489 0.651812 0
M  V30 20542 C 1946.4 -2.06696 0.170683 0
M  V30 20543 C 1946.83 -1.48527 -1.15418 0
M  V30 20544 O 1946.19 -0.594665 -1.7127 0
M  V30 20545 C 1946.24 -3.60484 0.0915457 0
M  V30 20546 O 1945.34 -4.01388 -0.946644 0
M  V30 20547 H 1944.68 -0.65728 0.0942276 0
M  V30 20548 H 1947.21 -1.84018 0.89434 0
M  V30 20549 H 1947.22 -4.07896 -0.0922419 0
M  V30 20550 H 1945.9 -4.02199 1.0587 0
M  V30 20551 H 1944.47 -3.65569 -0.735758 0
M  V30 20552 N 1946.66 -0.393643 -1.52605 0
M  V30 20553 C 1947.59 0.430786 -2.29492 0
M  V30 20554 C 1948.57 1.0597 -1.33058 0
M  V30 20555 O 1949.75 1.07165 -1.61955 0
M  V30 20556 C 1946.88 1.55599 -3.10494 0
M  V30 20557 C 1945.84 1.05289 -4.14847 0
M  V30 20558 C 1945.16 2.2705 -4.841 0
M  V30 20559 C 1946.46 0.117789 -5.22167 0
M  V30 20560 H 1948.16 -0.210741 -2.98657 0
M  V30 20561 H 1945.7 -0.102795 -1.43633 0
M  V30 20562 H 1947.66 2.1396 -3.63042 0
M  V30 20563 H 1946.38 2.22517 -2.39069 0
M  V30 20564 H 1945.04 0.491788 -3.63286 0
M  V30 20565 H 1944.69 2.92487 -4.09219 0
M  V30 20566 H 1944.39 1.94047 -5.54635 0
M  V30 20567 H 1945.91 2.86045 -5.39454 0
M  V30 20568 H 1947.33 0.609718 -5.70049 0
M  V30 20569 H 1945.72 -0.122689 -5.99975 0
M  V30 20570 H 1946.79 -0.832053 -4.77708 0
M  V30 20571 N 1948.14 1.57115 -0.123593 0
M  V30 20572 C 1949.55 1.82342 0.401051 0
M  V30 20573 C 1949.9 1.04102 1.66304 0
M  V30 20574 O 1949.02 0.279024 2.14594 0
M  V30 20575 C 1949.62 3.30745 0.734394 0
M  V30 20576 C 1948.18 3.56636 1.20365 0
M  V30 20577 C 1947.32 2.76468 0.214686 0
M  V30 20578 H 1950.27 1.54823 -0.348657 0
M  V30 20579 H 1950.3 3.45624 1.59137 0
M  V30 20580 H 1949.81 3.87662 -0.184288 0
M  V30 20581 H 1947.91 3.05081 2.13908 0
M  V30 20582 H 1948.02 4.65197 1.1458 0
M  V30 20583 H 1946.39 2.44816 0.702648 0
M  V30 20584 H 1947.17 3.36146 -0.697174 0
M  V30 20585 N 1949.61 -0.150187 1.56883 0
M  V30 20586 C 1950.58 -1.16943 1.97122 0
M  V30 20587 C 1951.58 -1.36037 0.857354 0
M  V30 20588 O 1952.77 -1.33083 1.12403 0
M  V30 20589 C 1949.9 -2.53037 2.2844 0
M  V30 20590 H 1951.09 -0.824297 2.88349 0
M  V30 20591 H 1948.64 -0.393414 1.51268 0
M  V30 20592 H 1949.38 -2.92527 1.39994 0
M  V30 20593 H 1949.16 -2.4054 3.0965 0
M  V30 20594 H 1950.65 -3.26452 2.6042 0
M  V30 20595 N 1951.09 -1.51916 -0.419434 0
M  V30 20596 C 1952.03 -1.69227 -1.53093 0
M  V30 20597 C 1953 -0.539814 -1.53378 0
M  V30 20598 O 1954.19 -0.765893 -1.72239 0
M  V30 20599 C 1951.31 -1.7222 -2.91647 0
M  V30 20600 C 1950.36 -2.93643 -3.09315 0
M  V30 20601 S 1951.19 -4.54164 -2.83717 0
M  V30 20602 C 1952.35 -4.59928 -4.2452 0
M  V30 20603 H 1952.58 -2.63237 -1.38179 0
M  V30 20604 H 1950.12 -1.41825 -0.61033 0
M  V30 20605 H 1952.07 -1.7463 -3.71503 0
M  V30 20606 H 1950.73 -0.793553 -3.0391 0
M  V30 20607 H 1949.93 -2.9219 -4.10659 0
M  V30 20608 H 1949.53 -2.89068 -2.3731 0
M  V30 20609 H 1951.82 -4.36671 -5.18001 0
M  V30 20610 H 1952.76 -5.61822 -4.31 0
M  V30 20611 H 1953.17 -3.89064 -4.0901 0
M  V30 20612 N 1952.57 0.676023 -1.42365 0
M  V30 20613 C 1953.52 1.81087 -1.4598 0
M  V30 20614 C 1954.51 1.66041 -0.335662 0
M  V30 20615 O 1955.72 1.72665 -0.508618 0
M  V30 20616 H 1952.09 0.597073 -0.457173 0
M  V30 20617 H 1954.06 1.75156 -2.41584 0
M  V30 20618 C 1952.81 3.19233 -1.37789 0
M  V30 20619 H 1952.14 3.31437 -2.23584 0
M  V30 20620 H 1953.58 3.98661 -1.4438 0
M  V30 20621 C 1952.04 3.36773 -0.0925272 0
M  V30 20622 O 1952.57 3.92491 0.855181 0
M  V30 20623 N 1950.77 2.90598 -0.0100772 0
M  V30 20624 H 1950.32 2.45441 -0.782071 0
M  V30 20625 H 1950.28 3.02711 0.849301 0
M  V30 20626 N 1954.05 1.28517 0.912209 0
M  V30 20627 C 1955.46 1.06257 1.19087 0
M  V30 20628 C 1955.66 -0.194098 2.00563 0
M  V30 20629 O 1954.72 -0.895341 2.36093 0
M  V30 20630 C 1956.03 2.31094 1.92396 0
M  V30 20631 C 1957.58 2.36288 2.05273 0
M  V30 20632 C 1958.06 3.60896 2.8199 0
M  V30 20633 N 1959.55 3.61545 2.89551 0
M  V30 20634 C 1960.28 4.54639 3.49416 0
M  V30 20635 N 1959.78 5.58053 4.10547 0
M  V30 20636 N 1961.57 4.42231 3.46969 0
M  V30 20637 H 1953.72 2.09183 0.368283 0
M  V30 20638 H 1955.99 0.920767 0.225593 0
M  V30 20639 H 1955.69 3.22653 1.39956 0
M  V30 20640 H 1955.57 2.37627 2.92939 0
M  V30 20641 H 1957.95 1.45225 2.56893 0
M  V30 20642 H 1958.03 2.33748 1.03901 0
M  V30 20643 H 1957.68 4.52304 2.31049 0
M  V30 20644 H 1957.61 3.6069 3.8368 0
M  V30 20645 H 1960.1 2.86764 2.46119 0
M  V30 20646 H 1960.41 6.25229 4.54212 0
M  V30 20647 H 1958.76 5.61877 4.09047 0
M  V30 20648 H 1961.95 3.60641 2.98422 0
M  V30 20649 H 1962.12 5.1497 3.93332 0
M  V30 20650 N 1955.53 -1.12086 1.1079 0
M  V30 20651 C 1956.94 -1.35679 0.840432 0
M  V30 20652 C 1957.14 -1.94177 -0.538279 0
M  V30 20653 O 1956.2 -2.17035 -1.29043 0
M  V30 20654 C 1957.51 -2.29487 1.94309 0
M  V30 20655 C 1959.06 -2.43069 1.97197 0
M  V30 20656 C 1959.53 -3.40194 3.06646 0
M  V30 20657 N 1961.03 -3.47753 3.05977 0
M  V30 20658 C 1961.76 -4.22826 3.87305 0
M  V30 20659 N 1961.26 -5.00933 4.78579 0
M  V30 20660 N 1963.05 -4.1827 3.75509 0
M  V30 20661 H 1955.2 -0.724754 1.99652 0
M  V30 20662 H 1957.46 -0.381544 0.86783 0
M  V30 20663 H 1957.17 -1.93685 2.93563 0
M  V30 20664 H 1957.04 -3.29644 1.83343 0
M  V30 20665 H 1959.43 -2.7815 0.985735 0
M  V30 20666 H 1959.51 -1.42788 2.12239 0
M  V30 20667 H 1959.16 -3.05842 4.05491 0
M  V30 20668 H 1959.09 -4.40314 2.88845 0
M  V30 20669 H 1961.58 -2.92035 2.39841 0
M  V30 20670 H 1961.89 -5.55565 5.37185 0
M  V30 20671 H 1960.23 -5.00117 4.82605 0
M  V30 20672 H 1963.43 -3.56334 3.03551 0
M  V30 20673 H 1963.6 -4.76521 4.39126 0
M  V30 20674 N 1957 -0.897194 -1.29569 0
M  V30 20675 C 1958.25 -0.521834 -1.95661 0
M  V30 20676 C 1958.58 0.931396 -1.70749 0
M  V30 20677 O 1957.83 1.67507 -1.01192 0
M  V30 20678 C 1958.13 -0.757743 -3.49275 0
M  V30 20679 C 1957.8 -2.18794 -3.94259 0
M  V30 20680 C 1956.46 -2.57901 -4.06252 0
M  V30 20681 C 1958.81 -3.11942 -4.17542 0
M  V30 20682 C 1956.14 -3.89341 -4.38897 0
M  V30 20683 C 1958.49 -4.42928 -4.51661 0
M  V30 20684 C 1957.16 -4.81911 -4.61864 0
M  V30 20685 H 1956.43 -0.190953 -0.715974 0
M  V30 20686 H 1959.07 -1.13537 -1.54212 0
M  V30 20687 H 1957.38 -0.0612622 -3.91752 0
M  V30 20688 H 1959.08 -0.446734 -3.98504 0
M  V30 20689 H 1955.67 -1.87443 -3.85439 0
M  V30 20690 H 1959.85 -2.82944 -4.07745 0
M  V30 20691 H 1955.11 -4.19269 -4.44998 0
M  V30 20692 H 1959.28 -5.15133 -4.68627 0
M  V30 20693 H 1956.91 -5.83797 -4.86914 0
M  V30 20694 N 1958.48 1.43142 -0.659413 0
M  V30 20695 C 1959.71 2.05788 -0.183 0
M  V30 20696 C 1960.12 1.49547 1.15898 0
M  V30 20697 O 1959.46 0.623841 1.72783 0
M  V30 20698 C 1959.53 3.59492 -0.0240613 0
M  V30 20699 C 1959.19 4.38347 -1.29231 0
M  V30 20700 C 1960.19 4.70005 -2.22242 0
M  V30 20701 C 1957.87 4.78251 -1.53562 0
M  V30 20702 C 1959.87 5.40482 -3.37872 0
M  V30 20703 C 1957.55 5.48472 -2.69484 0
M  V30 20704 C 1958.55 5.79511 -3.61464 0
M  V30 20705 O 1958.24 6.48295 -4.75361 0
M  V30 20706 H 1957.97 0.669968 -0.0901075 0
M  V30 20707 H 1960.52 1.84531 -0.902089 0
M  V30 20708 H 1958.75 3.79348 0.75046 0
M  V30 20709 H 1960.44 4.03819 0.410502 0
M  V30 20710 H 1961.21 4.3969 -2.04689 0
M  V30 20711 H 1957.09 4.53495 -0.828469 0
M  V30 20712 H 1960.63 5.64627 -4.09686 0
M  V30 20713 H 1956.53 5.78203 -2.86969 0
M  V30 20714 H 1957.3 6.66781 -4.74706 0
M  V30 20715 N 1959.96 0.40173 1.52394 0
M  V30 20716 C 1960.89 -0.41861 2.29717 0
M  V30 20717 C 1961.87 -1.05263 1.33618 0
M  V30 20718 O 1963.06 -1.06304 1.62521 0
M  V30 20719 C 1960.19 -1.5395 3.11314 0
M  V30 20720 C 1959.14 -1.03088 4.154 0
M  V30 20721 C 1958.47 -2.2448 4.85297 0
M  V30 20722 C 1959.77 -0.0900956 5.22222 0
M  V30 20723 H 1961.46 0.226577 2.98541 0
M  V30 20724 H 1959.01 0.110411 1.43576 0
M  V30 20725 H 1960.96 -2.12031 3.64171 0
M  V30 20726 H 1959.68 -2.21246 2.40246 0
M  V30 20727 H 1958.34 -0.472515 3.63542 0
M  V30 20728 H 1957.99 -2.90313 4.10764 0
M  V30 20729 H 1957.69 -1.91103 5.55656 0
M  V30 20730 H 1959.21 -2.83181 5.40963 0
M  V30 20731 H 1960.63 -0.579479 5.70364 0
M  V30 20732 H 1959.03 0.154505 5.99901 0
M  V30 20733 H 1960.1 0.857375 4.7726 0
M  V30 20734 N 1961.44 -1.57047 0.131923 0
M  V30 20735 C 1962.72 -1.87196 -0.567179 0
M  V30 20736 C 1963.1 -1.03533 -1.83968 0
M  V30 20737 O 1962.44 -0.117858 -2.28196 0
M  V30 20738 C 1962.65 -3.38561 -0.847179 0
M  V30 20739 C 1964 -4.07449 -1.19459 0
M  V30 20740 O 1965.03 -3.43654 -0.937026 0
M  V30 20741 O 1963.88 -5.20083 -1.67856 0
M  V30 20742 H 1960.98 -0.775378 -0.287608 0
M  V30 20743 H 1963.52 -1.68872 0.167401 0
M  V30 20744 H 1962.3 -3.91263 0.05402 0
M  V30 20745 H 1961.92 -3.62361 -1.63647 0
M  V30 20746 N 1962.92 0.141865 -1.5696 0
M  V30 20747 C 1963.85 1.17667 -2.01685 0
M  V30 20748 C 1964.83 1.44509 -0.897282 0
M  V30 20749 O 1966.01 1.55342 -1.16544 0
M  V30 20750 C 1963.14 2.50859 -2.40182 0
M  V30 20751 C 1962.1 2.38527 -3.55371 0
M  V30 20752 C 1961.42 3.76476 -3.79697 0
M  V30 20753 C 1962.72 1.86502 -4.87867 0
M  V30 20754 H 1964.42 0.804761 -2.88382 0
M  V30 20755 H 1961.96 0.385672 -1.38739 0
M  V30 20756 H 1963.92 3.2348 -2.70071 0
M  V30 20757 H 1962.64 2.89895 -1.50428 0
M  V30 20758 H 1961.3 1.68357 -3.25656 0
M  V30 20759 H 1960.95 4.12957 -2.87186 0
M  V30 20760 H 1960.65 3.69085 -4.5722 0
M  V30 20761 H 1962.17 4.50638 -4.12017 0
M  V30 20762 H 1963.58 2.48921 -5.16441 0
M  V30 20763 H 1961.98 1.89989 -5.69231 0
M  V30 20764 H 1963.05 0.821025 -4.77899 0
M  V30 20765 N 1964.39 1.52136 0.411372 0
M  V30 20766 C 1965.67 1.56646 1.17138 0
M  V30 20767 C 1966.05 0.346143 2.08243 0
M  V30 20768 O 1965.4 -0.66715 2.18544 0
M  V30 20769 C 1965.61 2.89399 1.95063 0
M  V30 20770 C 1966.96 3.42316 2.51207 0
M  V30 20771 O 1967.98 2.91123 2.05245 0
M  V30 20772 O 1966.84 4.31703 3.35104 0
M  V30 20773 H 1963.93 0.63088 0.534715 0
M  V30 20774 H 1966.48 1.64463 0.418334 0
M  V30 20775 H 1965.25 3.69666 1.28308 0
M  V30 20776 H 1964.88 2.84864 2.77377 0
M  V30 20777 N 1965.87 -0.668464 1.42721 0
M  V30 20778 C 1967.12 -1.42428 1.42819 0
M  V30 20779 C 1967.44 -1.95535 0.0504025 0
M  V30 20780 O 1968.64 -2.71407 -0.0712036 0
M  V30 20781 C 1967.1 -2.57681 2.51254 0
M  V30 20782 C 1966.71 -2.11246 3.95069 0
M  V30 20783 C 1968.45 -3.35151 2.60527 0
M  V30 20784 C 1966.36 -3.23619 4.95 0
M  V30 20785 H 1965.29 -0.535089 0.531221 0
M  V30 20786 H 1967.94 -0.723067 1.68653 0
M  V30 20787 H 1966.32 -3.302 2.18595 0
M  V30 20788 H 1967.49 -1.45838 4.37113 0
M  V30 20789 H 1965.81 -1.46697 3.89704 0
M  V30 20790 H 1968.41 -4.18853 3.32364 0
M  V30 20791 H 1968.75 -3.82166 1.6509 0
M  V30 20792 H 1969.28 -2.69705 2.92411 0
M  V30 20793 H 1966.02 -2.81588 5.91936 0
M  V30 20794 H 1965.54 -3.87788 4.57581 0
M  V30 20795 H 1967.22 -3.88988 5.17008 0
M  V30 20796 N 1967.35 -1.28999 -0.905381 0
M  V30 20797 C 1968.28 -1.16189 -2.0254 0
M  V30 20798 C 1969.26 -0.0575293 -1.70003 0
M  V30 20799 O 1970.45 -0.236004 -1.92761 0
M  V30 20800 C 1967.58 -0.831704 -3.37194 0
M  V30 20801 C 1966.53 -1.89176 -3.83922 0
M  V30 20802 C 1965.86 -1.41501 -5.15637 0
M  V30 20803 C 1967.16 -3.29971 -4.04866 0
M  V30 20804 H 1968.85 -2.09886 -2.13514 0
M  V30 20805 H 1966.4 -1.0105 -1.02591 0
M  V30 20806 H 1968.35 -0.728825 -4.1505 0
M  V30 20807 H 1967.07 0.140958 -3.26296 0
M  V30 20808 H 1965.73 -1.98393 -3.08279 0
M  V30 20809 H 1965.38 -0.431182 -5.01149 0
M  V30 20810 H 1965.08 -2.12391 -5.47872 0
M  V30 20811 H 1966.61 -1.32552 -5.96039 0
M  V30 20812 H 1968.02 -3.23628 -4.73221 0
M  V30 20813 H 1966.42 -3.98768 -4.48447 0
M  V30 20814 H 1967.49 -3.73369 -3.09393 0
M  V30 20815 N 1968.83 1.11497 -1.11383 0
M  V30 20816 C 1970.08 1.83494 -0.863592 0
M  V30 20817 C 1970.41 1.84395 0.609259 0
M  V30 20818 O 1969.68 1.2966 1.44978 0
M  V30 20819 C 1969.97 3.30701 -1.42509 0
M  V30 20820 C 1969.82 3.38197 -2.96552 0
M  V30 20821 C 1971.14 4.26756 -1.07553 0
M  V30 20822 H 1968.26 0.666209 -0.315173 0
M  V30 20823 H 1970.9 1.30745 -1.37861 0
M  V30 20824 H 1969.05 3.75752 -0.987053 0
M  V30 20825 H 1970.72 3.01709 -3.48955 0
M  V30 20826 H 1968.96 2.78436 -3.3265 0
M  V30 20827 H 1969.64 4.41804 -3.30927 0
M  V30 20828 H 1972.11 3.89882 -1.45367 0
M  V30 20829 H 1970.99 5.28143 -1.49519 0
M  V30 20830 H 1971.25 4.42098 0.0137773 0
M  V30 20831 N 1970.31 0.904053 1.29092 0
M  V30 20832 C 1971.26 0.356356 2.25198 0
M  V30 20833 C 1972.24 -0.526041 1.52058 0
M  V30 20834 O 1973.43 -0.367347 1.73146 0
M  V30 20835 C 1970.56 -0.411177 3.40829 0
M  V30 20836 C 1969.65 0.486388 4.21302 0
M  V30 20837 N 1970.04 1.59559 4.79974 0
M  V30 20838 C 1968.34 0.284978 4.45089 0
M  V30 20839 C 1969.04 2.15192 5.40433 0
M  V30 20840 N 1968.01 1.4444 5.24059 0
M  V30 20841 H 1971.82 1.20361 2.68124 0
M  V30 20842 H 1969.33 0.755599 1.43751 0
M  V30 20843 H 1971.33 -0.820324 4.0875 0
M  V30 20844 H 1969.99 -1.25564 2.99439 0
M  V30 20845 H 1971 1.97828 4.78628 0
M  V30 20846 H 1967.68 -0.520766 4.14239 0
M  V30 20847 H 1969.07 3.08444 5.96919 0
M  V30 20848 N 1971.79 -1.4279 0.666995 0
M  V30 20849 C 1973.06 -1.9526 0.11533 0
M  V30 20850 C 1973.44 -1.60776 -1.36801 0
M  V30 20851 O 1972.79 -0.899897 -2.10034 0
M  V30 20852 C 1973 -3.46967 0.376175 0
M  V30 20853 C 1974.35 -4.23619 0.28849 0
M  V30 20854 O 1975.37 -3.54853 0.30949 0
M  V30 20855 O 1974.23 -5.46041 0.223982 0
M  V30 20856 H 1971.33 -0.826998 -0.00165705 0
M  V30 20857 H 1973.87 -1.52658 0.741186 0
M  V30 20858 H 1972.64 -3.65243 1.40404 0
M  V30 20859 H 1972.27 -3.96598 -0.282074 0
M  V30 20860 N 1973.26 -0.409806 -1.52179 0
M  V30 20861 C 1974.21 0.430025 -2.2859 0
M  V30 20862 C 1975.21 1.04523 -1.33309 0
M  V30 20863 O 1976.41 0.98335 -1.50765 0
M  V30 20864 H 1972.79 0.157459 -0.73533 0
M  V30 20865 H 1974.76 -0.235647 -2.97468 0
M  V30 20866 C 1973.51 1.53409 -3.12027 0
M  V30 20867 H 1972.83 1.07004 -3.85214 0
M  V30 20868 H 1974.27 2.09553 -3.68597 0
M  V30 20869 C 1972.73 2.50183 -2.25633 0
M  V30 20870 O 1973.26 3.54083 -1.89705 0
M  V30 20871 N 1971.46 2.20409 -1.8939 0
M  V30 20872 H 1971.01 1.35948 -2.18806 0
M  V30 20873 H 1970.97 2.85404 -1.31878 0
M  V30 20874 N 1974.74 1.56975 -0.14025 0
M  V30 20875 C 1975.97 1.99977 0.518922 0
M  V30 20876 C 1976.38 1.01924 1.59399 0
M  V30 20877 O 1975.72 0.007174 1.83699 0
M  V30 20878 C 1975.78 3.3941 1.18495 0
M  V30 20879 C 1975.45 4.56286 0.255289 0
M  V30 20880 C 1976.45 5.17349 -0.514424 0
M  V30 20881 C 1974.13 5.02045 0.160162 0
M  V30 20882 C 1976.12 6.22574 -1.36678 0
M  V30 20883 C 1973.81 6.07126 -0.695808 0
M  V30 20884 C 1974.81 6.67259 -1.45789 0
M  V30 20885 O 1974.5 7.70307 -2.29961 0
M  V30 20886 H 1974.23 0.661305 0.140186 0
M  V30 20887 H 1976.78 2.04111 -0.22979 0
M  V30 20888 H 1975.01 3.32095 1.98116 0
M  V30 20889 H 1976.7 3.66563 1.74316 0
M  V30 20890 H 1977.47 4.82899 -0.450926 0
M  V30 20891 H 1973.35 4.54972 0.743062 0
M  V30 20892 H 1976.89 6.69439 -1.96208 0
M  V30 20893 H 1972.79 6.41003 -0.760622 0
M  V30 20894 H 1973.56 7.87498 -2.23135 0
M  V30 20895 N 1976.22 -0.133539 1.57033 0
M  V30 20896 C 1977.17 -1.16445 1.99272 0
M  V30 20897 C 1978.14 -1.41954 0.862458 0
M  V30 20898 O 1979.32 -1.54063 1.12557 0
M  V30 20899 C 1976.46 -2.48958 2.38985 0
M  V30 20900 C 1975.57 -2.30509 3.65362 0
M  V30 20901 C 1974.71 -3.56151 3.94119 0
M  V30 20902 C 1973.75 -3.32796 5.13725 0
M  V30 20903 N 1972.89 -4.50603 5.38425 0
M  V30 20904 H 1977.73 -0.797257 2.87137 0
M  V30 20905 H 1975.26 -0.382194 1.42048 0
M  V30 20906 H 1977.22 -3.26242 2.60043 0
M  V30 20907 H 1975.85 -2.83599 1.54181 0
M  V30 20908 H 1974.9 -1.44214 3.52004 0
M  V30 20909 H 1976.21 -2.0922 4.52801 0
M  V30 20910 H 1975.37 -4.41858 4.15748 0
M  V30 20911 H 1974.11 -3.80458 3.05128 0
M  V30 20912 H 1973.11 -2.45478 4.91956 0
M  V30 20913 H 1974.34 -3.09875 6.0428 0
M  V30 20914 H 1972.28 -4.75058 4.5239 0
M  V30 20915 H 1972.2 -4.32365 6.20158 0
M  V30 20916 H 1973.47 -5.37486 5.64561 0
M  V30 20917 N 1977.7 -1.52352 -0.403298 0
M  V30 20918 C 1978.97 -1.57265 -1.16305 0
M  V30 20919 C 1979.35 -0.357181 -2.08056 0
M  V30 20920 O 1978.7 0.655551 -2.18894 0
M  V30 20921 C 1978.91 -2.90429 -1.93525 0
M  V30 20922 C 1980.26 -3.43643 -2.49388 0
M  V30 20923 O 1981.28 -2.92208 -2.03699 0
M  V30 20924 O 1980.14 -4.33474 -3.32809 0
M  V30 20925 H 1977.24 -0.633707 -0.531361 0
M  V30 20926 H 1979.78 -1.64682 -0.409607 0
M  V30 20927 H 1978.56 -3.70341 -1.26346 0
M  V30 20928 H 1978.18 -2.86331 -2.75862 0
M  V30 20929 N 1979.18 0.660885 -1.43074 0
M  V30 20930 C 1980.12 1.79529 -1.47892 0
M  V30 20931 C 1981.12 1.65676 -0.353254 0
M  V30 20932 O 1982.32 1.72115 -0.526903 0
M  V30 20933 H 1978.7 0.592191 -0.46348 0
M  V30 20934 H 1980.67 1.72584 -2.43428 0
M  V30 20935 C 1979.42 3.17753 -1.41167 0
M  V30 20936 H 1978.74 3.29047 -2.27087 0
M  V30 20937 H 1980.18 3.97107 -1.486 0
M  V30 20938 C 1978.64 3.36656 -0.128241 0
M  V30 20939 O 1979.17 3.93376 0.813504 0
M  V30 20940 N 1977.38 2.90571 -0.0408985 0
M  V30 20941 H 1976.92 2.44598 -0.808059 0
M  V30 20942 H 1976.88 3.03595 0.817147 0
M  V30 20943 N 1980.65 1.29477 0.898527 0
M  V30 20944 C 1981.59 1.10513 2.00797 0
M  V30 20945 C 1982.6 0.0522996 1.62716 0
M  V30 20946 O 1983.79 0.296941 1.76013 0
M  V30 20947 C 1980.89 0.660433 3.32403 0
M  V30 20948 C 1980.06 1.79205 3.99004 0
M  V30 20949 C 1979.12 1.33816 5.089 0
M  V30 20950 O 1978.15 2.04308 5.31269 0
M  V30 20951 N 1979.35 0.209692 5.80121 0
M  V30 20952 H 1982.11 2.06063 2.17619 0
M  V30 20953 H 1979.67 1.21432 1.07078 0
M  V30 20954 H 1981.67 0.340075 4.03269 0
M  V30 20955 H 1980.24 -0.20264 3.11943 0
M  V30 20956 H 1979.46 2.28123 3.21487 0
M  V30 20957 H 1980.74 2.55075 4.40244 0
M  V30 20958 H 1980.14 -0.377998 5.64436 0
M  V30 20959 H 1978.7 -0.0512922 6.5178 0
M  V30 20960 N 1982.13 -1.10905 1.11972 0
M  V30 20961 C 1983.38 -1.82401 0.870296 0
M  V30 20962 C 1983.7 -1.85356 -0.605649 0
M  V30 20963 O 1982.97 -1.32812 -1.44006 0
M  V30 20964 H 1981.55 -0.675471 0.318979 0
M  V30 20965 H 1984.21 -1.34216 1.41323 0
M  V30 20966 H 1983.31 -2.86086 1.24746 0
M  V30 20967 N 1983.61 -0.910886 -1.2861 0
M  V30 20968 C 1984.56 -0.395575 -2.27385 0
M  V30 20969 C 1985.53 0.528415 -1.57471 0
M  V30 20970 O 1986.71 0.451232 -1.85388 0
M  V30 20971 C 1983.85 0.360855 -3.43208 0
M  V30 20972 C 1982.97 -0.59531 -4.27879 0
M  V30 20973 C 1982.1 0.179282 -5.30897 0
M  V30 20974 C 1981.14 -0.770684 -6.07229 0
M  V30 20975 N 1980.28 -0.0297918 -7.02094 0
M  V30 20976 H 1985.12 -1.24293 -2.70842 0
M  V30 20977 H 1982.65 -0.624218 -1.33199 0
M  V30 20978 H 1984.61 0.815583 -4.0915 0
M  V30 20979 H 1983.24 1.17258 -3.0075 0
M  V30 20980 H 1982.29 -1.16857 -3.62006 0
M  V30 20981 H 1983.61 -1.32201 -4.80962 0
M  V30 20982 H 1982.76 0.694702 -6.0271 0
M  V30 20983 H 1981.5 0.93905 -4.78574 0
M  V30 20984 H 1980.5 -1.29751 -5.3427 0
M  V30 20985 H 1981.73 -1.52996 -6.61641 0
M  V30 20986 H 1979.67 0.712039 -6.52124 0
M  V30 20987 H 1979.59 -0.69637 -7.52786 0
M  V30 20988 H 1980.86 0.465527 -7.78109 0
M  V30 20989 N 1985.09 1.42434 -0.674558 0
M  V30 20990 C 1986.02 2.33498 -0.0100395 0
M  V30 20991 C 1987 1.50665 0.789558 0
M  V30 20992 O 1988.18 1.79268 0.74676 0
M  V30 20993 C 1985.31 3.34279 0.942081 0
M  V30 20994 C 1984.27 4.27263 0.251094 0
M  V30 20995 C 1983.59 5.18249 1.31614 0
M  V30 20996 C 1984.89 5.15008 -0.869735 0
M  V30 20997 H 1986.59 2.89314 -0.770566 0
M  V30 20998 H 1984.13 1.39112 -0.372004 0
M  V30 20999 H 1986.09 3.96896 1.41604 0
M  V30 21000 H 1984.81 2.76765 1.73403 0
M  V30 21001 H 1983.47 3.6604 -0.202625 0
M  V30 21002 H 1983.12 4.57063 2.10006 0
M  V30 21003 H 1982.82 5.81288 0.858923 0
M  V30 21004 H 1984.34 5.83742 1.79103 0
M  V30 21005 H 1985.76 5.71312 -0.477004 0
M  V30 21006 H 1984.15 5.86879 -1.25273 0
M  V30 21007 H 1985.22 4.53422 -1.71861 0
M  V30 21008 N 1986.57 0.417871 1.51959 0
M  V30 21009 C 1987.84 -0.214034 1.94425 0
M  V30 21010 C 1988.22 -1.61845 1.35534 0
M  V30 21011 O 1987.57 -2.22158 0.534606 0
M  V30 21012 C 1987.78 -0.211518 3.48358 0
M  V30 21013 C 1989.13 -0.426614 4.22451 0
M  V30 21014 O 1990.15 -0.290493 3.55013 0
M  V30 21015 O 1989.01 -0.695682 5.42054 0
M  V30 21016 H 1986.11 -0.140439 0.814988 0
M  V30 21017 H 1988.65 0.474446 1.62933 0
M  V30 21018 H 1987.42 0.771087 3.83627 0
M  V30 21019 H 1987.05 -0.943731 3.86238 0
M  V30 21020 N 1988.04 -1.56898 0.148573 0
M  V30 21021 C 1989.29 -1.96466 -0.50289 0
M  V30 21022 C 1989.62 -1.03355 -1.64412 0
M  V30 21023 O 1988.9 -0.0762411 -1.94351 0
M  V30 21024 C 1989.18 -3.45717 -1.00757 0
M  V30 21025 C 1989.03 -4.49605 0.132277 0
M  V30 21026 C 1990.35 -3.97506 -1.88883 0
M  V30 21027 H 1987.47 -0.714345 -0.181328 0
M  V30 21028 H 1990.11 -1.88601 0.230117 0
M  V30 21029 H 1988.26 -3.5255 -1.6322 0
M  V30 21030 H 1989.94 -4.54851 0.76867 0
M  V30 21031 H 1988.18 -4.26524 0.791189 0
M  V30 21032 H 1988.85 -5.51375 -0.262585 0
M  V30 21033 H 1991.33 -3.93162 -1.36246 0
M  V30 21034 H 1990.2 -5.02399 -2.21104 0
M  V30 21035 H 1990.46 -3.39956 -2.82635 0
M  V30 21036 N 1989.52 0.125209 -1.57102 0
M  V30 21037 C 1990.75 0.852378 -1.89075 0
M  V30 21038 C 1991.17 1.72938 -0.739878 0
M  V30 21039 O 1990.53 1.78633 0.309828 0
M  V30 21040 C 1990.58 1.66688 -3.19762 0
M  V30 21041 O 1989.68 2.77324 -3.0523 0
M  V30 21042 H 1989.02 0.236103 -0.620606 0
M  V30 21043 H 1991.55 0.109473 -2.04307 0
M  V30 21044 H 1991.56 2.0574 -3.52328 0
M  V30 21045 H 1990.24 1.02303 -4.03121 0
M  V30 21046 H 1988.82 2.41519 -2.84118 0
M  V30 21047 N 1991 1.52564 0.395213 0
M  V30 21048 C 1992.42 1.41677 0.73484 0
M  V30 21049 C 1992.62 0.53226 1.94343 0
M  V30 21050 O 1991.67 0.00333606 2.525 0
M  V30 21051 C 1992.99 2.84429 0.975749 0
M  V30 21052 C 1994.53 2.93865 1.07761 0
M  V30 21053 C 1995.01 4.37615 1.35119 0
M  V30 21054 N 1996.5 4.40912 1.41954 0
M  V30 21055 C 1997.23 5.49215 1.64775 0
M  V30 21056 N 1996.73 6.67613 1.85109 0
M  V30 21057 N 1998.52 5.36749 1.66904 0
M  V30 21058 H 1990.67 2.08597 -0.400145 0
M  V30 21059 H 1992.94 0.940777 -0.116804 0
M  V30 21060 H 1992.64 3.51336 0.159881 0
M  V30 21061 H 1992.52 3.2631 1.89213 0
M  V30 21062 H 1994.9 2.27129 1.88405 0
M  V30 21063 H 1994.99 2.55421 0.139278 0
M  V30 21064 H 1994.63 5.04915 0.549865 0
M  V30 21065 H 1994.56 4.73607 2.30226 0
M  V30 21066 H 1997.05 3.55572 1.27973 0
M  V30 21067 H 1997.36 7.4593 2.02012 0
M  V30 21068 H 1995.71 6.70653 1.82346 0
M  V30 21069 H 1998.9 4.43224 1.50566 0
M  V30 21070 H 1999.07 6.21224 1.8435 0
M  V30 21071 N 1992.48 -0.653289 1.43422 0
M  V30 21072 C 1993.44 -1.74802 1.48246 0
M  V30 21073 C 1994.44 -1.56552 0.367179 0
M  V30 21074 O 1995.63 -1.62451 0.628923 0
M  V30 21075 C 1992.76 -3.13673 1.33499 0
M  V30 21076 H 1993.96 -1.71906 2.4574 0
M  V30 21077 H 1991.51 -0.864936 1.30187 0
M  V30 21078 H 1992.24 -3.22181 0.370118 0
M  V30 21079 H 1992.03 -3.28325 2.14348 0
M  V30 21080 H 1993.52 -3.93502 1.39806 0
M  V30 21081 N 1993.96 -1.29952 -0.891648 0
M  V30 21082 C 1995.2 -1.18389 -1.64287 0
M  V30 21083 C 1995.53 0.262869 -1.92715 0
M  V30 21084 O 1994.79 1.20538 -1.54173 0
M  V30 21085 C 1995.09 -1.95096 -2.99453 0
M  V30 21086 C 1994.75 -3.44762 -2.90603 0
M  V30 21087 C 1993.41 -3.85577 -2.87896 0
M  V30 21088 C 1995.77 -4.40098 -2.79218 0
M  V30 21089 C 1993.09 -5.2003 -2.71635 0
M  V30 21090 C 1995.45 -5.74652 -2.64496 0
M  V30 21091 C 1994.11 -6.14714 -2.6016 0
M  V30 21092 H 1993.38 -0.433217 -0.601169 0
M  V30 21093 H 1996.03 -1.60979 -1.0372 0
M  V30 21094 H 1994.33 -1.45121 -3.63933 0
M  V30 21095 H 1996.03 -1.83547 -3.56527 0
M  V30 21096 H 1992.62 -3.12324 -2.93516 0
M  V30 21097 H 1996.8 -4.09512 -2.80381 0
M  V30 21098 H 1992.06 -5.50171 -2.66688 0
M  V30 21099 H 1996.23 -6.48168 -2.54659 0
M  V30 21100 H 1993.86 -7.18845 -2.47317 0
M  V30 21101 N 1995.44 1.1031 -1.12559 0
M  V30 21102 C 1996.85 1.34325 -0.861911 0
M  V30 21103 C 1997.05 1.95009 0.507319 0
M  V30 21104 O 1996.11 2.1906 1.25574 0
M  V30 21105 C 1997.42 2.26367 -1.97935 0
M  V30 21106 C 1998.97 2.39901 -2.01039 0
M  V30 21107 C 1999.44 3.35273 -3.1202 0
M  V30 21108 N 2000.93 3.42841 -3.11471 0
M  V30 21109 C 2001.67 4.16611 -3.93983 0
M  V30 21110 N 2001.17 4.93256 -4.86488 0
M  V30 21111 N 2002.96 4.12243 -3.82116 0
M  V30 21112 H 1995.11 0.692899 -2.0078 0
M  V30 21113 H 1997.37 0.367689 -0.87379 0
M  V30 21114 H 1997.08 1.8899 -2.96607 0
M  V30 21115 H 1996.95 3.26685 -1.88565 0
M  V30 21116 H 1999.34 2.76546 -1.02986 0
M  V30 21117 H 1999.42 1.39393 -2.14484 0
M  V30 21118 H 1999.06 2.99352 -4.10306 0
M  V30 21119 H 1998.99 4.35663 -2.95813 0
M  V30 21120 H 2001.49 2.88182 -2.44457 0
M  V30 21121 H 2001.8 5.46948 -5.45956 0
M  V30 21122 H 2000.14 4.92376 -4.90501 0
M  V30 21123 H 2003.33 3.5146 -3.09182 0
M  V30 21124 H 2003.51 4.69475 -4.46651 0
M  V30 21125 N 1996.91 0.917694 1.28125 0
M  V30 21126 C 1997.84 0.426179 2.29578 0
M  V30 21127 C 1998.82 -0.508289 1.62328 0
M  V30 21128 O 2000.01 -0.415181 1.8971 0
M  V30 21129 C 1997.14 -0.331007 3.45719 0
M  V30 21130 C 1996.09 0.51469 4.24894 0
M  V30 21131 C 1995.42 -0.371069 5.33411 0
M  V30 21132 C 1996.72 1.774 4.9125 0
M  V30 21133 H 1998.41 1.27403 2.7094 0
M  V30 21134 H 1995.96 0.614065 1.30251 0
M  V30 21135 H 1997.91 -0.68573 4.15783 0
M  V30 21136 H 1996.64 -1.2128 3.03247 0
M  V30 21137 H 1995.3 0.851986 3.56562 0
M  V30 21138 H 1994.94 -1.25152 4.87182 0
M  V30 21139 H 1994.64 0.19121 5.87289 0
M  V30 21140 H 1996.17 -0.721587 6.06321 0
M  V30 21141 H 1997.58 1.48795 5.53654 0
M  V30 21142 H 1995.98 2.27899 5.55141 0
M  V30 21143 H 1997.05 2.49947 4.15517 0
M  V30 21144 N 1998.39 -1.42074 0.682102 0
M  V30 21145 C 1999.63 -2.03304 0.211386 0
M  V30 21146 C 2000 -1.52802 -1.16256 0
M  V30 21147 O 2001.2 -2.05867 -1.72836 0
M  V30 21148 C 1999.47 -3.5651 0.252125 0
M  V30 21149 S 2001.03 -4.38555 -0.146519 0
M  V30 21150 H 1997.84 -0.70575 0.0862467 0
M  V30 21151 H 2000.45 -1.73713 0.896882 0
M  V30 21152 H 1999.15 -3.90762 1.25432 0
M  V30 21153 H 1998.68 -3.90784 -0.452966 0
M  V30 21154 H 2000.7 -4.76684 -1.37794 0
M  V30 21155 N 1999.87 -0.425924 -1.51735 0
M  V30 21156 C 2001.15 0.203721 -1.94536 0
M  V30 21157 C 2001.53 1.61124 -1.3639 0
M  V30 21158 O 2000.87 2.21871 -0.54638 0
M  V30 21159 C 2001.08 0.193041 -3.48466 0
M  V30 21160 C 2002.43 0.404204 -4.22672 0
M  V30 21161 O 2003.46 0.271662 -3.55163 0
M  V30 21162 O 2002.32 0.666926 -5.42415 0
M  V30 21163 H 1999.41 0.136115 -0.815722 0
M  V30 21164 H 2001.96 -0.48308 -1.62679 0
M  V30 21165 H 2000.73 -0.791421 -3.83213 0
M  V30 21166 H 2000.35 0.923235 -3.86733 0
M  V30 21167 N 2001.35 1.56817 -0.156891 0
M  V30 21168 C 2002.59 1.9673 0.492464 0
M  V30 21169 C 2002.93 1.04226 1.63862 0
M  V30 21170 O 2002.2 0.0865469 1.94307 0
M  V30 21171 C 2002.48 3.46246 0.989218 0
M  V30 21172 C 2002.34 4.49529 -0.156119 0
M  V30 21173 C 2003.66 3.98502 1.86773 0
M  V30 21174 H 2000.78 0.715297 0.177537 0
M  V30 21175 H 2003.42 1.88477 -0.240116 0
M  V30 21176 H 2001.57 3.53411 1.61348 0
M  V30 21177 H 2003.24 4.54437 -0.792781 0
M  V30 21178 H 2001.48 4.26098 -0.813797 0
M  V30 21179 H 2002.15 5.51507 0.233341 0
M  V30 21180 H 2004.63 3.93879 1.34159 0
M  V30 21181 H 2003.51 5.03564 2.18436 0
M  V30 21182 H 2003.77 3.4145 2.80828 0
M  V30 21183 N 2002.83 -0.116876 1.57166 0
M  V30 21184 C 2004.1 -0.854715 1.75937 0
M  V30 21185 C 2004.48 -1.97969 0.732908 0
M  V30 21186 O 2003.83 -2.27207 -0.242738 0
M  V30 21187 C 2004.04 -1.36944 3.2101 0
M  V30 21188 C 2005.39 -1.82093 3.83572 0
M  V30 21189 O 2006.41 -1.46618 3.24625 0
M  V30 21190 O 2005.27 -2.47614 4.87186 0
M  V30 21191 H 2002.37 -0.40605 0.720453 0
M  V30 21192 H 2004.91 -0.100451 1.69402 0
M  V30 21193 H 2003.68 -0.56241 3.87237 0
M  V30 21194 H 2003.31 -2.18635 3.32091 0
M  V30 21195 N 2004.3 -1.52772 -0.387116 0
M  V30 21196 C 2005.53 -1.72086 -1.15763 0
M  V30 21197 C 2005.95 -0.43912 -1.82903 0
M  V30 21198 O 2005.31 0.605254 -1.70899 0
M  V30 21199 C 2005.36 -2.87248 -2.17992 0
M  V30 21200 O 2004.46 -2.54353 -3.2462 0
M  V30 21201 H 2003.8 -0.572174 -0.336918 0
M  V30 21202 H 2006.33 -1.99571 -0.450833 0
M  V30 21203 H 2006.34 -3.12798 -2.61957 0
M  V30 21204 H 2005.02 -3.80232 -1.68513 0
M  V30 21205 H 2003.6 -2.39551 -2.8578 0
M  V30 21206 N 2005.78 0.645673 -1.43767 0
M  V30 21207 C 2006.73 1.75828 -1.4951 0
M  V30 21208 C 2007.7 1.62496 -0.344109 0
M  V30 21209 O 2008.88 1.82631 -0.552323 0
M  V30 21210 C 2006.02 3.14017 -1.43134 0
M  V30 21211 C 2005.14 3.38428 -2.68496 0
M  V30 21212 C 2004.27 4.66507 -2.54056 0
M  V30 21213 C 2003.31 4.84049 -3.74651 0
M  V30 21214 N 2002.45 6.03392 -3.58974 0
M  V30 21215 H 2007.29 1.70254 -2.44576 0
M  V30 21216 H 2004.82 0.830729 -1.21397 0
M  V30 21217 H 2006.78 3.93915 -1.37431 0
M  V30 21218 H 2005.41 3.18642 -0.516449 0
M  V30 21219 H 2004.46 2.52574 -2.84448 0
M  V30 21220 H 2005.78 3.47274 -3.58054 0
M  V30 21221 H 2004.93 5.54543 -2.46103 0
M  V30 21222 H 2003.67 4.59996 -1.62035 0
M  V30 21223 H 2002.67 3.94447 -3.83004 0
M  V30 21224 H 2003.9 4.92385 -4.67689 0
M  V30 21225 H 2001.85 5.97998 -2.69694 0
M  V30 21226 H 2001.76 6.13229 -4.42138 0
M  V30 21227 H 2003.03 6.94029 -3.54887 0
M  V30 21228 N 2007.26 1.30423 0.884744 0
M  V30 21229 C 2008.51 1.18625 1.63129 0
M  V30 21230 C 2008.82 -0.257953 1.93892 0
M  V30 21231 O 2010.03 -0.497448 2.66904 0
M  V30 21232 C 2008.48 2.0757 2.94011 0
M  V30 21233 C 2008.09 3.569 2.70788 0
M  V30 21234 C 2009.84 2.04535 3.71975 0
M  V30 21235 C 2007.74 4.37901 3.97488 0
M  V30 21236 H 2006.67 0.440391 0.612023 0
M  V30 21237 H 2009.32 1.55172 0.979478 0
M  V30 21238 H 2007.71 1.63905 3.60487 0
M  V30 21239 H 2008.88 4.08715 2.12812 0
M  V30 21240 H 2007.19 3.61761 2.06199 0
M  V30 21241 H 2009.79 2.62305 4.6594 0
M  V30 21242 H 2010.13 1.02888 4.03385 0
M  V30 21243 H 2010.67 2.46322 3.12362 0
M  V30 21244 H 2007.41 5.40244 3.71236 0
M  V30 21245 H 2006.93 3.9085 4.54968 0
M  V30 21246 H 2008.61 4.49347 4.65506 0
M  V30 21247 N 2008.74 -1.09711 1.13142 0
M  V30 21248 C 2009.99 -1.81468 0.889593 0
M  V30 21249 C 2010.31 -1.85988 -0.585956 0
M  V30 21250 O 2009.58 -1.34332 -1.42589 0
M  V30 21251 H 2008.16 -0.67205 0.326125 0
M  V30 21252 H 2010.82 -1.32709 1.42739 0
M  V30 21253 H 2009.91 -2.84746 1.27773 0
M  V30 21254 N 2010.22 -0.924476 -1.27637 0
M  V30 21255 C 2011.16 -0.411501 -2.28931 0
M  V30 21256 C 2012.16 0.502472 -1.61776 0
M  V30 21257 O 2013.36 0.382531 -1.75888 0
M  V30 21258 H 2009.74 -0.114496 -0.743233 0
M  V30 21259 H 2011.71 -1.27869 -2.69615 0
M  V30 21260 C 2010.46 0.323415 -3.46193 0
M  V30 21261 H 2009.78 -0.37068 -3.98078 0
M  V30 21262 H 2011.22 0.646821 -4.19037 0
M  V30 21263 C 2009.68 1.53523 -2.99887 0
M  V30 21264 O 2010.21 2.63407 -3.03281 0
M  V30 21265 N 2008.42 1.38594 -2.55421 0
M  V30 21266 H 2007.96 0.491939 -2.52859 0
M  V30 21267 H 2007.92 2.198 -2.24801 0
M  V30 21268 N 2011.69 1.41711 -0.689627 0
M  V30 21269 C 2012.66 2.29181 -0.02958 0
M  V30 21270 C 2013.66 1.44079 0.714004 0
M  V30 21271 O 2014.85 1.65297 0.549783 0
M  V30 21272 C 2011.98 3.26851 0.968583 0
M  V30 21273 H 2013.17 2.89042 -0.799656 0
M  V30 21274 H 2010.73 1.49598 -0.45279 0
M  V30 21275 H 2011.46 2.71957 1.76663 0
M  V30 21276 H 2011.25 3.89639 0.4386 0
M  V30 21277 H 2012.74 3.92412 1.42839 0
M  V30 21278 N 2013.17 0.433965 1.51507 0
M  V30 21279 C 2014.12 -0.37918 2.27664 0
M  V30 21280 C 2015.09 -1.01975 1.31112 0
M  V30 21281 O 2016.27 -1.0393 1.6001 0
M  V30 21282 C 2013.41 -1.47628 3.1193 0
M  V30 21283 C 2012.53 -0.854176 4.23471 0
M  V30 21284 C 2011.66 -1.92604 4.95053 0
M  V30 21285 C 2010.7 -1.28219 5.9852 0
M  V30 21286 N 2009.84 -2.29527 6.63522 0
M  V30 21287 H 2014.68 0.276629 2.96713 0
M  V30 21288 H 2012.22 0.148264 1.46351 0
M  V30 21289 H 2014.17 -2.1236 3.59109 0
M  V30 21290 H 2012.8 -2.10176 2.45002 0
M  V30 21291 H 2011.86 -0.0952329 3.80281 0
M  V30 21292 H 2013.17 -0.344086 4.97612 0
M  V30 21293 H 2012.32 -2.65006 5.45762 0
M  V30 21294 H 2011.06 -2.46985 4.20535 0
M  V30 21295 H 2010.07 -0.543619 5.47106 0
M  V30 21296 H 2011.29 -0.745758 6.74993 0
M  V30 21297 H 2009.24 -2.82995 5.91819 0
M  V30 21298 H 2009.15 -1.834 7.33417 0
M  V30 21299 H 2010.42 -3.01423 7.18863 0
M  V30 21300 N 2014.65 -1.56732 0.165206 0
M  V30 21301 C 2015.89 -1.98591 -0.483841 0
M  V30 21302 C 2016.25 -1.04869 -1.6083 0
M  V30 21303 O 2017.46 -1.35844 -2.31948 0
M  V30 21304 C 2015.73 -3.44262 -0.960121 0
M  V30 21305 S 2017.29 -4.08149 -1.61121 0
M  V30 21306 H 2014.1 -0.693711 -0.155842 0
M  V30 21307 H 2016.71 -1.93747 0.261223 0
M  V30 21308 H 2015.41 -4.1019 -0.131229 0
M  V30 21309 H 2014.94 -3.52859 -1.73937 0
M  V30 21310 H 2016.96 -4.02695 -2.89915 0
M  V30 21311 N 2016.13 0.10854 -1.57226 0
M  V30 21312 C 2017.37 0.820237 -1.8722 0
M  V30 21313 C 2017.73 1.76553 -0.754524 0
M  V30 21314 O 2018.93 2.51958 -0.936519 0
M  V30 21315 C 2017.2 1.54144 -3.22451 0
M  V30 21316 S 2018.76 2.29327 -3.74105 0
M  V30 21317 H 2015.58 0.273549 -0.656271 0
M  V30 21318 H 2018.18 0.0780325 -1.95344 0
M  V30 21319 H 2016.89 0.839156 -4.01729 0
M  V30 21320 H 2016.42 2.32381 -3.17431 0
M  V30 21321 H 2018.43 3.55234 -3.46444 0
M  V30 21322 N 2017.61 1.52975 0.379009 0
M  V30 21323 C 2019.02 1.60338 0.956477 0
M  V30 21324 C 2019.37 0.462422 1.90673 0
M  V30 21325 O 2018.49 -0.413093 2.12421 0
M  V30 21326 C 2019.09 2.90615 1.74151 0
M  V30 21327 C 2017.65 3.00358 2.26853 0
M  V30 21328 C 2016.79 2.55532 1.07697 0
M  V30 21329 H 2019.75 1.57909 0.158228 0
M  V30 21330 H 2019.77 2.77662 2.60161 0
M  V30 21331 H 2019.28 3.73636 1.04965 0
M  V30 21332 H 2017.38 2.21895 2.99321 0
M  V30 21333 H 2017.49 4.05188 2.55655 0
M  V30 21334 H 2015.86 2.10088 1.43997 0
M  V30 21335 H 2016.64 3.40958 0.400297 0
M  V30 21336 N 2019.08 -0.63804 1.44107 0
M  V30 21337 C 2020.33 -1.39772 1.46526 0
M  V30 21338 C 2020.66 -1.94267 0.0952359 0
M  V30 21339 O 2019.91 -1.73674 -0.901993 0
M  V30 21340 C 2020.21 -2.58567 2.46734 0
M  V30 21341 C 2019.88 -2.22403 3.92234 0
M  V30 21342 C 2018.54 -2.12252 4.31859 0
M  V30 21343 C 2020.89 -1.93717 4.83863 0
M  V30 21344 C 2018.22 -1.71594 5.61046 0
M  V30 21345 C 2020.57 -1.54553 6.1343 0
M  V30 21346 C 2019.24 -1.42939 6.52016 0
M  V30 21347 H 2018.51 -0.511463 0.536177 0
M  V30 21348 H 2021.15 -0.724184 1.77279 0
M  V30 21349 H 2019.46 -3.31123 2.0944 0
M  V30 21350 H 2021.16 -3.16791 2.45855 0
M  V30 21351 H 2017.75 -2.31219 3.60882 0
M  V30 21352 H 2021.93 -2.00472 4.5401 0
M  V30 21353 H 2017.19 -1.612 5.89766 0
M  V30 21354 H 2021.36 -1.31393 6.83892 0
M  V30 21355 H 2018.99 -1.11206 7.52022 0
M  V30 21356 N 2020.56 -1.3089 -0.877815 0
M  V30 21357 C 2021.81 -1.20303 -1.63264 0
M  V30 21358 C 2022.14 0.240114 -1.9271 0
M  V30 21359 O 2021.42 1.17082 -1.55313 0
M  V30 21360 C 2021.7 -2.03934 -2.96788 0
M  V30 21361 C 2021.55 -3.56506 -2.74269 0
M  V30 21362 C 2022.87 -1.88268 -3.97798 0
M  V30 21363 H 2019.99 -0.438382 -0.592445 0
M  V30 21364 H 2022.63 -1.60598 -1.01529 0
M  V30 21365 H 2020.78 -1.69698 -3.49478 0
M  V30 21366 H 2022.45 -4.00838 -2.28312 0
M  V30 21367 H 2020.7 -3.8033 -2.08643 0
M  V30 21368 H 2021.37 -4.1032 -3.69244 0
M  V30 21369 H 2023.84 -2.18214 -3.54291 0
M  V30 21370 H 2022.72 -2.49098 -4.89123 0
M  V30 21371 H 2022.98 -0.843802 -4.33973 0
M  V30 21372 N 2022.04 1.0911 -1.13723 0
M  V30 21373 C 2023.28 1.82962 -0.911268 0
M  V30 21374 C 2023.64 1.83878 0.552529 0
M  V30 21375 O 2024.85 2.53421 0.896168 0
M  V30 21376 C 2023.12 3.24999 -1.48696 0
M  V30 21377 S 2024.68 4.15816 -1.40153 0
M  V30 21378 H 2021.49 0.630622 -0.328386 0
M  V30 21379 H 2024.1 1.31201 -1.44936 0
M  V30 21380 H 2022.8 3.2191 -2.54562 0
M  V30 21381 H 2022.33 3.81833 -0.946951 0
M  V30 21382 H 2024.35 4.94726 -0.382175 0
M  V30 21383 N 2023.52 0.931232 1.27145 0
M  V30 21384 C 2024.77 0.572394 1.93825 0
M  V30 21385 C 2025.09 -0.88981 1.73515 0
M  V30 21386 O 2024.36 -1.63113 1.08494 0
M  V30 21387 H 2022.94 0.2087 0.717254 0
M  V30 21388 H 2025.6 1.18439 1.54784 0
M  V30 21389 H 2024.7 0.781679 3.02153 0
M  V30 21390 N 2025 -1.41343 0.697132 0
M  V30 21391 C 2025.94 -2.30777 0.0327941 0
M  V30 21392 C 2026.91 -1.47192 -0.769652 0
M  V30 21393 O 2028.1 -1.75976 -0.737366 0
M  V30 21394 C 2025.24 -3.33252 -0.896488 0
M  V30 21395 C 2024.35 -4.31915 -0.0854899 0
M  V30 21396 C 2023.49 -5.2146 -1.01256 0
M  V30 21397 C 2022.53 -6.11791 -0.194558 0
M  V30 21398 N 2021.66 -6.93813 -1.07551 0
M  V30 21399 H 2026.5 -2.87027 0.801203 0
M  V30 21400 H 2024.04 -1.41363 0.406815 0
M  V30 21401 H 2026 -3.91216 -1.44933 0
M  V30 21402 H 2024.63 -2.78548 -1.63128 0
M  V30 21403 H 2023.68 -3.75886 0.58429 0
M  V30 21404 H 2024.99 -4.95774 0.548612 0
M  V30 21405 H 2024.15 -5.84266 -1.63457 0
M  V30 21406 H 2022.89 -4.57832 -1.68051 0
M  V30 21407 H 2021.89 -5.48032 0.440518 0
M  V30 21408 H 2023.12 -6.77474 0.469626 0
M  V30 21409 H 2021.06 -6.32792 -1.72946 0
M  V30 21410 H 2020.98 -7.54364 -0.497018 0
M  V30 21411 H 2022.25 -7.61086 -1.68429 0
M  V30 21412 N 2026.48 -0.441993 -1.51275 0
M  V30 21413 C 2027.44 0.355502 -2.26426 0
M  V30 21414 C 2028.44 0.945699 -1.30051 0
M  V30 21415 O 2029.63 0.819422 -1.53724 0
M  V30 21416 C 2026.76 1.50344 -3.05957 0
M  V30 21417 H 2027.95 -0.303177 -2.98364 0
M  V30 21418 H 2025.51 -0.195279 -1.55075 0
M  V30 21419 H 2026.24 2.19803 -2.38447 0
M  V30 21420 H 2026.03 1.08636 -3.7675 0
M  V30 21421 H 2027.52 2.06676 -3.6287 0
M  V30 21422 N 2027.95 1.56642 -0.173515 0
M  V30 21423 C 2029.2 1.97241 0.47157 0
M  V30 21424 C 2029.53 1.05958 1.62747 0
M  V30 21425 O 2028.81 0.107151 1.94205 0
M  V30 21426 C 2029.09 3.47276 0.952439 0
M  V30 21427 C 2028.94 4.49338 -0.203789 0
M  V30 21428 C 2030.26 4.00461 1.82535 0
M  V30 21429 H 2027.38 0.71714 0.169941 0
M  V30 21430 H 2030.02 1.88211 -0.260093 0
M  V30 21431 H 2028.17 3.55102 1.57591 0
M  V30 21432 H 2029.85 4.5357 -0.840936 0
M  V30 21433 H 2028.09 4.25211 -0.858945 0
M  V30 21434 H 2028.76 5.51723 0.174833 0
M  V30 21435 H 2031.24 3.9528 1.29974 0
M  V30 21436 H 2030.11 5.05853 2.13083 0
M  V30 21437 H 2030.37 3.44409 2.7719 0
M  V30 21438 N 2029.43 -0.1002 1.57281 0
M  V30 21439 C 2030.66 -0.818307 1.9003 0
M  V30 21440 C 2031.07 -1.72531 0.766704 0
M  V30 21441 O 2030.43 -1.80616 -0.261577 0
M  V30 21442 C 2030.48 -1.63596 3.22364 0
M  V30 21443 O 2030.2 -0.765449 4.31361 0
M  V30 21444 C 2031.7 -2.45758 3.68942 0
M  V30 21445 H 2028.92 -0.234253 0.628782 0
M  V30 21446 H 2031.47 -0.0789616 2.04347 0
M  V30 21447 H 2029.62 -2.32787 3.09659 0
M  V30 21448 H 2030.04 -1.33126 5.07324 0
M  V30 21449 H 2031.51 -2.9863 4.64246 0
M  V30 21450 H 2031.99 -3.23987 2.96528 0
M  V30 21451 H 2032.59 -1.81776 3.84497 0
M  V30 21452 N 2030.91 -1.53174 -0.370891 0
M  V30 21453 C 2032.16 -1.69098 -1.11409 0
M  V30 21454 C 2032.48 -0.440066 -1.89456 0
M  V30 21455 O 2031.74 0.577901 -1.86973 0
M  V30 21456 C 2032.04 -2.88881 -2.10435 0
M  V30 21457 C 2031.7 -4.25602 -1.48908 0
M  V30 21458 C 2030.37 -4.62782 -1.31856 0
M  V30 21459 C 2032.72 -5.10648 -1.04346 0
M  V30 21460 C 2030.05 -5.8265 -0.688168 0
M  V30 21461 C 2032.4 -6.31157 -0.427093 0
M  V30 21462 C 2031.06 -6.67054 -0.244019 0
M  V30 21463 H 2030.33 -0.618775 -0.407674 0
M  V30 21464 H 2032.98 -1.8735 -0.396513 0
M  V30 21465 H 2031.28 -2.65119 -2.88477 0
M  V30 21466 H 2032.98 -2.98396 -2.67882 0
M  V30 21467 H 2029.57 -3.96324 -1.63173 0
M  V30 21468 H 2033.76 -4.82477 -1.16315 0
M  V30 21469 H 2029.01 -6.09057 -0.53469 0
M  V30 21470 H 2033.19 -6.96361 -0.0735755 0
M  V30 21471 H 2030.81 -7.598 0.246525 0
M  V30 21472 N 2032.39 0.630389 -1.44443 0
M  V30 21473 C 2033.33 1.74232 -1.51367 0
M  V30 21474 C 2034.3 1.62122 -0.361324 0
M  V30 21475 O 2035.49 1.82035 -0.571662 0
M  V30 21476 C 2032.63 3.12481 -1.46457 0
M  V30 21477 C 2031.74 3.35561 -2.72071 0
M  V30 21478 C 2030.88 4.63787 -2.58989 0
M  V30 21479 C 2029.92 4.80048 -3.79764 0
M  V30 21480 N 2029.05 5.99551 -3.65354 0
M  V30 21481 H 2033.89 1.6765 -2.46368 0
M  V30 21482 H 2031.43 0.817807 -1.22272 0
M  V30 21483 H 2033.39 3.92435 -1.41601 0
M  V30 21484 H 2032.02 3.18076 -0.550216 0
M  V30 21485 H 2031.07 2.49543 -2.8711 0
M  V30 21486 H 2032.38 3.43456 -3.61717 0
M  V30 21487 H 2031.54 5.51902 -2.51971 0
M  V30 21488 H 2030.28 4.58251 -1.66905 0
M  V30 21489 H 2029.28 3.90362 -3.87166 0
M  V30 21490 H 2030.51 4.87397 -4.72886 0
M  V30 21491 H 2028.45 5.95104 -2.76021 0
M  V30 21492 H 2028.37 6.08505 -4.48617 0
M  V30 21493 H 2029.64 6.90226 -3.62228 0
M  V30 21494 N 2033.87 1.31354 0.870861 0
M  V30 21495 C 2035.14 1.11627 1.6062 0
M  V30 21496 C 2035.52 -0.329351 2.08515 0
M  V30 21497 O 2034.87 -1.3233 1.86282 0
M  V30 21498 C 2035.08 2.12968 2.76488 0
M  V30 21499 C 2036.43 2.45442 3.46473 0
M  V30 21500 O 2037.45 2.11388 2.86694 0
M  V30 21501 O 2036.31 3.03753 4.54309 0
M  V30 21502 H 2033.41 0.429682 0.706614 0
M  V30 21503 H 2035.95 1.42829 0.916402 0
M  V30 21504 H 2034.72 3.10212 2.38504 0
M  V30 21505 H 2034.35 1.82666 3.53156 0
M  V30 21506 N 2035.34 -1.08505 1.143 0
M  V30 21507 C 2036.76 -1.32937 0.883172 0
M  V30 21508 C 2036.96 -1.95791 -0.47623 0
M  V30 21509 O 2036.02 -2.2103 -1.22073 0
M  V30 21510 C 2037.33 -2.23189 2.01512 0
M  V30 21511 C 2038.88 -2.36672 2.0483 0
M  V30 21512 C 2039.35 -3.30266 3.17314 0
M  V30 21513 N 2040.84 -3.37843 3.16886 0
M  V30 21514 C 2041.58 -4.1029 4.00561 0
M  V30 21515 N 2041.07 -4.85454 4.94274 0
M  V30 21516 N 2042.87 -4.06111 3.88626 0
M  V30 21517 H 2035.02 -0.660869 2.01857 0
M  V30 21518 H 2037.28 -0.353741 0.879529 0
M  V30 21519 H 2036.99 -1.84248 2.99576 0
M  V30 21520 H 2036.86 -3.23644 1.93738 0
M  V30 21521 H 2039.25 -2.74873 1.07373 0
M  V30 21522 H 2039.33 -1.35963 2.16674 0
M  V30 21523 H 2038.97 -2.92787 4.15016 0
M  V30 21524 H 2038.9 -4.30901 3.02707 0
M  V30 21525 H 2041.39 -2.84257 2.49011 0
M  V30 21526 H 2041.71 -5.38193 5.54588 0
M  V30 21527 H 2040.05 -4.8451 4.98272 0
M  V30 21528 H 2043.24 -3.46497 3.14734 0
M  V30 21529 H 2043.42 -4.6231 4.54064 0
M  V30 21530 N 2036.82 -0.937962 -1.26649 0
M  V30 21531 C 2037.77 -0.435759 -2.28482 0
M  V30 21532 C 2038.76 0.485286 -1.623 0
M  V30 21533 O 2039.97 0.363854 -1.76284 0
M  V30 21534 H 2036.34 -0.122373 -0.741976 0
M  V30 21535 H 2038.32 -1.30722 -2.68243 0
M  V30 21536 C 2037.06 0.286679 -3.46516 0
M  V30 21537 H 2036.39 -0.412881 -3.97662 0
M  V30 21538 H 2037.83 0.602341 -4.197 0
M  V30 21539 C 2036.29 1.50334 -3.01499 0
M  V30 21540 O 2036.82 2.60176 -3.06058 0
M  V30 21541 N 2035.02 1.35877 -2.56877 0
M  V30 21542 H 2034.57 0.465092 -2.53367 0
M  V30 21543 H 2034.53 2.17403 -2.27119 0
M  V30 21544 N 2038.3 1.40971 -0.704618 0
M  V30 21545 C 2039.53 2.05399 -0.248738 0
M  V30 21546 C 2039.94 1.53056 1.10541 0
M  V30 21547 O 2039.3 0.682534 1.69256 0
M  V30 21548 C 2039.35 3.60902 -0.207794 0
M  V30 21549 O 2039.07 4.11311 -1.50846 0
M  V30 21550 C 2040.57 4.42489 0.267977 0
M  V30 21551 H 2037.79 0.661269 -0.11386 0
M  V30 21552 H 2040.34 1.8058 -0.959745 0
M  V30 21553 H 2038.49 3.84729 0.4541 0
M  V30 21554 H 2038.91 5.05426 -1.4016 0
M  V30 21555 H 2040.38 5.51454 0.245489 0
M  V30 21556 H 2040.86 4.1926 1.30836 0
M  V30 21557 H 2041.46 4.23746 -0.363242 0
M  V30 21558 N 2039.78 0.45001 1.51039 0
M  V30 21559 C 2041.02 -0.111202 2.04097 0
M  V30 21560 C 2041.38 -1.38855 1.32602 0
M  V30 21561 O 2042.58 -2.03081 1.76101 0
M  V30 21562 C 2040.85 -0.312081 3.56035 0
M  V30 21563 S 2042.41 -0.834878 4.30784 0
M  V30 21564 H 2039.23 -0.0258967 0.710528 0
M  V30 21565 H 2041.83 0.612321 1.85663 0
M  V30 21566 H 2040.54 0.623717 4.05633 0
M  V30 21567 H 2040.07 -1.06232 3.78785 0
M  V30 21568 H 2042.08 -2.11096 4.49058 0
M  V30 21569 N 2041.26 -1.56548 0.18182 0
M  V30 21570 C 2042.67 -1.58646 -0.174214 0
M  V30 21571 C 2042.87 -1.19756 -1.62052 0
M  V30 21572 O 2041.93 -0.914071 -2.35374 0
M  V30 21573 C 2043.24 -3.00476 0.116117 0
M  V30 21574 C 2044.79 -3.12951 0.0551643 0
M  V30 21575 C 2045.26 -4.5689 0.318626 0
M  V30 21576 N 2046.76 -4.62431 0.266773 0
M  V30 21577 C 2047.49 -5.71673 0.444657 0
M  V30 21578 N 2046.99 -6.89433 0.682169 0
M  V30 21579 N 2048.78 -5.60815 0.379832 0
M  V30 21580 H 2040.93 -1.80112 1.12576 0
M  V30 21581 H 2043.19 -0.835277 0.448348 0
M  V30 21582 H 2042.9 -3.33443 1.11843 0
M  V30 21583 H 2042.77 -3.72598 -0.587444 0
M  V30 21584 H 2045.16 -2.79805 -0.937734 0
M  V30 21585 H 2045.24 -2.43243 0.791599 0
M  V30 21586 H 2044.89 -4.90748 1.30878 0
M  V30 21587 H 2044.82 -5.24771 -0.438543 0
M  V30 21588 H 2047.31 -3.77795 0.0892717 0
M  V30 21589 H 2047.62 -7.68574 0.80707 0
M  V30 21590 H 2045.96 -6.91272 0.718908 0
M  V30 21591 H 2049.16 -4.67695 0.194792 0
M  V30 21592 H 2049.33 -6.45895 0.521886 0
M  V30 21593 N 2042.73 0.0918577 -1.57332 0
M  V30 21594 C 2043.96 0.808218 -1.90461 0
M  V30 21595 C 2044.38 1.72122 -0.775843 0
M  V30 21596 O 2043.73 1.80752 0.251995 0
M  V30 21597 C 2043.79 1.61885 -3.23227 0
M  V30 21598 O 2043.51 0.742563 -4.31761 0
M  V30 21599 C 2045.01 2.43798 -3.7024 0
M  V30 21600 H 2042.23 0.230915 -0.630015 0
M  V30 21601 H 2044.77 0.0681235 -2.04387 0
M  V30 21602 H 2042.93 2.31142 -3.1089 0
M  V30 21603 H 2043.34 1.30433 -5.08023 0
M  V30 21604 H 2044.81 2.96164 -4.65823 0
M  V30 21605 H 2045.29 3.2241 -2.98242 0
M  V30 21606 H 2045.9 1.79734 -3.85455 0
M  V30 21607 N 2044.21 1.53368 0.362763 0
M  V30 21608 C 2045.44 1.73348 1.12402 0
M  V30 21609 C 2045.85 0.463567 1.83433 0
M  V30 21610 O 2045.19 -0.573438 1.7452 0
M  V30 21611 C 2045.26 2.84605 2.19637 0
M  V30 21612 C 2044.92 4.24862 1.68348 0
M  V30 21613 C 2045.92 5.07111 1.14605 0
M  V30 21614 C 2043.6 4.71283 1.73776 0
M  V30 21615 C 2045.6 6.33872 0.669702 0
M  V30 21616 C 2043.28 5.98021 1.25753 0
M  V30 21617 C 2044.28 6.79148 0.724405 0
M  V30 21618 O 2043.97 8.03507 0.251275 0
M  V30 21619 H 2043.7 0.583168 0.341893 0
M  V30 21620 H 2046.25 2.00919 0.426694 0
M  V30 21621 H 2044.48 2.52514 2.92871 0
M  V30 21622 H 2046.17 2.92735 2.81177 0
M  V30 21623 H 2046.94 4.7242 1.09748 0
M  V30 21624 H 2042.82 4.08208 2.14213 0
M  V30 21625 H 2046.36 6.97141 0.252909 0
M  V30 21626 H 2042.26 6.32211 1.30304 0
M  V30 21627 H 2043.03 8.17662 0.370343 0
M  V30 21628 N 2045.69 -0.62272 1.44776 0
M  V30 21629 C 2046.92 -1.41403 1.51723 0
M  V30 21630 C 2047.34 -1.87534 0.145802 0
M  V30 21631 O 2046.7 -1.59244 -0.866667 0
M  V30 21632 C 2046.75 -2.60482 2.49362 0
M  V30 21633 O 2045.85 -3.60604 2.00096 0
M  V30 21634 H 2045.19 -0.422766 0.51202 0
M  V30 21635 H 2047.72 -0.759294 1.89989 0
M  V30 21636 H 2047.73 -3.0792 2.67674 0
M  V30 21637 H 2046.41 -2.26253 3.48974 0
M  V30 21638 H 2044.98 -3.19918 1.9159 0
M  V30 21639 N 2047.17 -1.31814 -0.863883 0
M  V30 21640 C 2048.1 -1.22574 -1.98741 0
M  V30 21641 C 2049.08 -0.111585 -1.69734 0
M  V30 21642 O 2050.26 -0.29721 -1.91912 0
M  V30 21643 C 2047.39 -0.938559 -3.34378 0
M  V30 21644 C 2046.35 -2.01295 -3.7771 0
M  V30 21645 C 2045.67 -1.57834 -5.10874 0
M  V30 21646 C 2046.97 -3.42684 -3.94164 0
M  V30 21647 H 2048.67 -2.16572 -2.06729 0
M  V30 21648 H 2046.21 -1.04262 -0.993246 0
M  V30 21649 H 2048.17 -0.860501 -4.12521 0
M  V30 21650 H 2046.89 0.0370783 -3.26579 0
M  V30 21651 H 2045.55 -2.081 -3.01811 0
M  V30 21652 H 2045.2 -0.5904 -4.99523 0
M  V30 21653 H 2044.9 -2.29713 -5.40838 0
M  V30 21654 H 2046.42 -1.51448 -5.9152 0
M  V30 21655 H 2047.84 -3.38519 -4.62685 0
M  V30 21656 H 2046.23 -4.12833 -4.35533 0
M  V30 21657 H 2047.3 -3.83023 -2.97358 0
M  V30 21658 N 2048.65 1.07897 -1.14873 0
M  V30 21659 C 2049.87 1.84657 -0.944281 0
M  V30 21660 C 2050.3 1.8127 0.50226 0
M  V30 21661 O 2049.65 1.20159 1.35763 0
M  V30 21662 C 2049.7 3.29889 -1.45622 0
M  V30 21663 O 2048.81 4.07217 -0.651748 0
M  V30 21664 H 2048.15 0.571994 -0.337222 0
M  V30 21665 H 2050.68 1.36151 -1.52723 0
M  V30 21666 H 2050.69 3.80727 -1.46665 0
M  V30 21667 H 2049.36 3.31668 -2.50936 0
M  V30 21668 H 2047.94 3.66069 -0.710491 0
M  V30 21669 N 2050.12 0.944665 1.2615 0
M  V30 21670 C 2051.06 0.414303 2.25424 0
M  V30 21671 C 2052.07 -0.464345 1.56037 0
M  V30 21672 O 2053.26 -0.274229 1.76381 0
M  V30 21673 C 2050.36 -0.423331 3.36246 0
M  V30 21674 C 2049.53 0.439977 4.35182 0
M  V30 21675 C 2048.59 -0.337801 5.25115 0
M  V30 21676 O 2047.62 0.260373 5.68604 0
M  V30 21677 N 2048.82 -1.63346 5.57044 0
M  V30 21678 H 2051.58 1.26775 2.71566 0
M  V30 21679 H 2049.14 0.813928 1.39953 0
M  V30 21680 H 2051.14 -0.951131 3.93364 0
M  V30 21681 H 2049.71 -1.17759 2.89571 0
M  V30 21682 H 2048.93 1.14896 3.77084 0
M  V30 21683 H 2050.21 1.02957 4.98274 0
M  V30 21684 H 2049.61 -2.14152 5.23599 0
M  V30 21685 H 2048.17 -2.10743 6.16791 0
M  V30 21686 N 2051.6 -1.40596 0.712085 0
M  V30 21687 C 2052.85 -2.00181 0.247097 0
M  V30 21688 C 2053.16 -1.57102 -1.16526 0
M  V30 21689 O 2054.37 -2.09361 -1.72858 0
M  V30 21690 C 2052.83 -3.57771 0.390856 0
M  V30 21691 C 2052.43 -4.09825 1.80964 0
M  V30 21692 C 2054.18 -4.24498 -0.0135164 0
M  V30 21693 C 2052.09 -5.59907 1.90417 0
M  V30 21694 H 2051.02 -0.748773 0.0886278 0
M  V30 21695 H 2053.67 -1.60876 0.882669 0
M  V30 21696 H 2052.05 -3.94759 -0.313241 0
M  V30 21697 H 2053.22 -3.84221 2.54383 0
M  V30 21698 H 2051.54 -3.55682 2.16516 0
M  V30 21699 H 2054.13 -5.34688 0.0364444 0
M  V30 21700 H 2054.48 -4.02714 -1.05487 0
M  V30 21701 H 2055.01 -3.92603 0.640898 0
M  V30 21702 H 2051.75 -5.86541 2.92661 0
M  V30 21703 H 2051.27 -5.87385 1.21404 0
M  V30 21704 H 2052.95 -6.24951 1.67466 0
M  V30 21705 N 2053.08 -0.458013 -1.50798 0
M  V30 21706 C 2054.31 0.0993936 -2.06361 0
M  V30 21707 C 2054.72 1.35212 -1.32341 0
M  V30 21708 O 2054.06 1.79677 -0.382345 0
M  V30 21709 C 2054.12 0.46649 -3.56461 0
M  V30 21710 C 2053.79 -0.682355 -4.51877 0
M  V30 21711 C 2054.78 -1.56059 -4.95925 0
M  V30 21712 C 2052.47 -0.868966 -4.94726 0
M  V30 21713 C 2054.46 -2.60996 -5.81515 0
M  V30 21714 C 2052.15 -1.92158 -5.80102 0
M  V30 21715 C 2053.15 -2.79044 -6.23397 0
M  V30 21716 O 2052.84 -3.82495 -7.07073 0
M  V30 21717 H 2052.57 0.00211436 -0.675997 0
M  V30 21718 H 2055.12 -0.64197 -1.9511 0
M  V30 21719 H 2053.35 1.26086 -3.65567 0
M  V30 21720 H 2055.04 0.957452 -3.94446 0
M  V30 21721 H 2055.81 -1.42805 -4.635 0
M  V30 21722 H 2051.69 -0.202186 -4.60556 0
M  V30 21723 H 2055.23 -3.28845 -6.15229 0
M  V30 21724 H 2051.13 -2.05424 -6.11941 0
M  V30 21725 H 2051.9 -3.79325 -7.25296 0
M  V30 21726 N 2054.56 1.56449 -0.190119 0
M  V30 21727 C 2055.51 2.20194 0.749479 0
M  V30 21728 C 2056.5 1.1716 1.22352 0
M  V30 21729 O 2057.71 1.35317 1.18699 0
M  V30 21730 H 2054.08 0.705613 0.260028 0
M  V30 21731 H 2056.05 2.97807 0.18808 0
M  V30 21732 C 2054.8 2.87151 1.9606 0
M  V30 21733 H 2054.13 3.66174 1.60489 0
M  V30 21734 H 2055.57 3.35198 2.5965 0
M  V30 21735 C 2054.02 1.87921 2.7962 0
M  V30 21736 O 2054.55 1.37638 3.77384 0
M  V30 21737 N 2052.76 1.5626 2.45013 0
M  V30 21738 H 2052.31 1.97343 1.6557 0
M  V30 21739 H 2052.27 0.901217 3.01207 0
M  V30 21740 N 2056.04 -0.0835127 1.57379 0
M  V30 21741 C 2056.97 -1.12692 1.99582 0
M  V30 21742 C 2057.98 -1.35658 0.900041 0
M  V30 21743 O 2059.17 -1.34105 1.17805 0
M  V30 21744 C 2056.27 -2.4802 2.30953 0
M  V30 21745 C 2055.44 -2.45172 3.62228 0
M  V30 21746 C 2054.5 -3.62516 3.81403 0
M  V30 21747 O 2053.53 -3.44479 4.53126 0
M  V30 21748 N 2054.73 -4.82432 3.22862 0
M  V30 21749 H 2057.5 -0.767618 2.89703 0
M  V30 21750 H 2055.06 -0.272335 1.59593 0
M  V30 21751 H 2057.05 -3.25144 2.40964 0
M  V30 21752 H 2055.62 -2.75996 1.46781 0
M  V30 21753 H 2054.84 -1.53514 3.6308 0
M  V30 21754 H 2056.13 -2.40359 4.48448 0
M  V30 21755 H 2055.53 -4.9999 2.64625 0
M  V30 21756 H 2054.08 -5.57108 3.3834 0
M  V30 21757 N 2057.52 -1.53558 -0.354624 0
M  V30 21758 C 2058.76 -1.69489 -1.09346 0
M  V30 21759 C 2059.08 -0.458936 -1.9014 0
M  V30 21760 O 2060.28 -0.498981 -2.66875 0
M  V30 21761 C 2058.74 -2.99663 -1.99324 0
M  V30 21762 C 2058.35 -4.30558 -1.2379 0
M  V30 21763 C 2060.09 -3.2496 -2.73132 0
M  V30 21764 C 2058 -5.51814 -2.12733 0
M  V30 21765 H 2056.93 -0.631535 -0.411922 0
M  V30 21766 H 2059.58 -1.80059 -0.353687 0
M  V30 21767 H 2057.96 -2.82922 -2.77076 0
M  V30 21768 H 2059.14 -4.57966 -0.51025 0
M  V30 21769 H 2057.45 -4.11789 -0.617973 0
M  V30 21770 H 2060.05 -4.12739 -3.39927 0
M  V30 21771 H 2060.39 -2.41491 -3.39099 0
M  V30 21772 H 2060.92 -3.42426 -2.02458 0
M  V30 21773 H 2057.66 -6.37793 -1.51327 0
M  V30 21774 H 2057.18 -5.28669 -2.83317 0
M  V30 21775 H 2058.86 -5.87028 -2.72041 0
M  V30 21776 N 2058.99 0.615033 -1.45104 0
M  V30 21777 C 2059.92 1.73703 -1.56043 0
M  V30 21778 C 2060.9 1.65025 -0.412413 0
M  V30 21779 O 2062.09 1.83539 -0.634606 0
M  V30 21780 C 2059.22 3.12287 -1.51968 0
M  V30 21781 C 2058.17 3.35769 -2.65411 0
M  V30 21782 C 2057.5 4.74549 -2.46389 0
M  V30 21783 C 2058.8 3.26752 -4.07469 0
M  V30 21784 H 2060.49 1.64805 -2.4996 0
M  V30 21785 H 2058.04 0.791445 -1.203 0
M  V30 21786 H 2059.99 3.9057 -1.58219 0
M  V30 21787 H 2058.72 3.22008 -0.545769 0
M  V30 21788 H 2057.38 2.59874 -2.58575 0
M  V30 21789 H 2057.02 4.80994 -1.47153 0
M  V30 21790 H 2056.72 4.91217 -3.22458 0
M  V30 21791 H 2058.25 5.55041 -2.54482 0
M  V30 21792 H 2059.66 3.94918 -4.15587 0
M  V30 21793 H 2058.06 3.54952 -4.83869 0
M  V30 21794 H 2059.13 2.24305 -4.29902 0
M  V30 21795 N 2060.47 1.3227 0.85688 0
M  V30 21796 C 2061.38 1.23012 1.99763 0
M  V30 21797 C 2062.4 0.144168 1.73402 0
M  V30 21798 O 2063.57 0.364429 1.98075 0
M  V30 21799 C 2060.64 0.951293 3.33394 0
M  V30 21800 C 2059.7 2.12547 3.72991 0
M  V30 21801 C 2058.93 1.85984 5.00245 0
M  V30 21802 O 2059.16 0.801321 5.64743 0
M  V30 21803 O 2058.09 2.72029 5.36921 0
M  V30 21804 H 2061.92 2.18906 2.10509 0
M  V30 21805 H 2059.5 1.12138 0.987193 0
M  V30 21806 H 2061.38 0.812192 4.13499 0
M  V30 21807 H 2060.06 0.0224976 3.23692 0
M  V30 21808 H 2058.96 2.32003 2.93471 0
M  V30 21809 H 2060.3 3.03697 3.87336 0
M  V30 21810 N 2061.95 -1.07287 1.15444 0
M  V30 21811 C 2062.86 -2.18038 0.865835 0
M  V30 21812 C 2063.88 -1.7328 -0.15811 0
M  V30 21813 O 2065.05 -2.01394 0.016125 0
M  V30 21814 C 2062.12 -3.44827 0.359941 0
M  V30 21815 C 2061.18 -4.04148 1.44786 0
M  V30 21816 C 2060.41 -5.24885 0.966015 0
M  V30 21817 O 2060.63 -5.7009 -0.188161 0
M  V30 21818 O 2059.57 -5.75898 1.75 0
M  V30 21819 H 2063.39 -2.45218 1.7917 0
M  V30 21820 H 2060.98 -1.16637 0.933604 0
M  V30 21821 H 2062.86 -4.21316 0.0843019 0
M  V30 21822 H 2061.54 -3.19197 -0.538049 0
M  V30 21823 H 2060.44 -3.29195 1.77711 0
M  V30 21824 H 2061.78 -4.34051 2.32079 0
M  V30 21825 N 2063.43 -0.951342 -1.25647 0
M  V30 21826 C 2064.7 -0.521845 -1.8851 0
M  V30 21827 C 2065.08 1.00082 -1.85868 0
M  V30 21828 O 2064.43 1.86519 -1.31995 0
M  V30 21829 C 2064.64 -1.09473 -3.31386 0
M  V30 21830 C 2065.99 -1.16958 -4.08174 0
M  V30 21831 O 2067.01 -1.04605 -3.40494 0
M  V30 21832 O 2065.87 -1.36298 -5.29231 0
M  V30 21833 H 2062.97 -0.171638 -0.808993 0
M  V30 21834 H 2065.51 -1.04456 -1.33742 0
M  V30 21835 H 2064.29 -2.13807 -3.27723 0
M  V30 21836 H 2063.91 -0.555071 -3.93706 0
M  V30 21837 N 2064.91 1.40216 -0.719531 0
M  V30 21838 C 2065.85 2.30695 -0.0695046 0
M  V30 21839 C 2066.82 1.48398 0.746138 0
M  V30 21840 O 2068.01 1.77127 0.709277 0
M  V30 21841 C 2065.15 3.34636 0.843357 0
M  V30 21842 C 2064.26 4.31997 0.0167651 0
M  V30 21843 C 2063.4 5.23005 0.929469 0
M  V30 21844 C 2062.43 6.12023 0.0972024 0
M  V30 21845 N 2061.57 6.95437 0.964997 0
M  V30 21846 H 2066.41 2.85716 -0.846765 0
M  V30 21847 H 2063.95 1.40698 -0.429253 0
M  V30 21848 H 2065.91 3.93473 1.38691 0
M  V30 21849 H 2064.54 2.81108 1.58676 0
M  V30 21850 H 2063.59 3.74909 -0.644016 0
M  V30 21851 H 2064.9 4.94838 -0.627416 0
M  V30 21852 H 2064.05 5.86792 1.54141 0
M  V30 21853 H 2062.79 4.60447 1.60746 0
M  V30 21854 H 2061.8 5.47262 -0.52765 0
M  V30 21855 H 2063.02 6.76641 -0.577347 0
M  V30 21856 H 2060.97 6.35463 1.62857 0
M  V30 21857 H 2060.89 7.5506 0.376943 0
M  V30 21858 H 2062.15 7.63669 1.56299 0
M  V30 21859 N 2066.38 0.466004 1.50553 0
M  V30 21860 C 2067.8 0.119867 1.59149 0
M  V30 21861 C 2068 -1.37324 1.47459 0
M  V30 21862 O 2067.06 -2.14604 1.33047 0
M  V30 21863 C 2068.37 0.665532 2.93243 0
M  V30 21864 C 2069.92 0.628507 3.06625 0
M  V30 21865 C 2070.39 1.15163 4.43285 0
M  V30 21866 N 2071.88 1.11082 4.49683 0
M  V30 21867 C 2072.62 1.48615 5.53806 0
M  V30 21868 N 2072.11 1.93573 6.65208 0
M  V30 21869 N 2073.91 1.4025 5.44322 0
M  V30 21870 H 2066.06 1.43716 1.56395 0
M  V30 21871 H 2068.32 0.594011 0.73882 0
M  V30 21872 H 2068.03 1.71132 3.07257 0
M  V30 21873 H 2067.9 0.106264 3.7705 0
M  V30 21874 H 2070.29 -0.408356 2.92261 0
M  V30 21875 H 2070.37 1.22452 2.24587 0
M  V30 21876 H 2070.01 2.1871 4.58398 0
M  V30 21877 H 2069.94 0.531882 5.23907 0
M  V30 21878 H 2072.43 0.781025 3.69741 0
M  V30 21879 H 2072.75 2.20373 7.40713 0
M  V30 21880 H 2071.09 1.97521 6.66341 0
M  V30 21881 H 2074.28 1.04972 4.56178 0
M  V30 21882 H 2074.46 1.69827 6.2535 0
M  V30 21883 N 2067.86 -1.56346 0.198413 0
M  V30 21884 C 2069.28 -1.58822 -0.157378 0
M  V30 21885 C 2069.48 -1.21468 -1.60773 0
M  V30 21886 O 2068.53 -0.938985 -2.34391 0
M  V30 21887 C 2069.85 -3.00336 0.14798 0
M  V30 21888 C 2071.39 -3.12875 0.0883539 0
M  V30 21889 C 2071.87 -4.56527 0.367068 0
M  V30 21890 N 2073.36 -4.62122 0.315805 0
M  V30 21891 C 2074.1 -5.7117 0.505265 0
M  V30 21892 N 2073.59 -6.88671 0.755254 0
M  V30 21893 N 2075.38 -5.60381 0.439293 0
M  V30 21894 H 2067.54 -1.78908 1.1448 0
M  V30 21895 H 2069.8 -0.830475 0.457182 0
M  V30 21896 H 2069.5 -3.32238 1.15373 0
M  V30 21897 H 2069.38 -3.732 -0.547892 0
M  V30 21898 H 2071.77 -2.80783 -0.908004 0
M  V30 21899 H 2071.85 -2.4239 0.817354 0
M  V30 21900 H 2071.49 -4.89332 1.36076 0
M  V30 21901 H 2071.42 -5.25206 -0.382859 0
M  V30 21902 H 2073.91 -3.77679 0.129337 0
M  V30 21903 H 2074.22 -7.67675 0.888542 0
M  V30 21904 H 2072.57 -6.9047 0.792186 0
M  V30 21905 H 2075.76 -4.67462 0.244386 0
M  V30 21906 H 2075.93 -6.45305 0.590363 0
M  V30 21907 N 2069.34 0.0751653 -1.57421 0
M  V30 21908 C 2070.76 0.429873 -1.53702 0
M  V30 21909 C 2070.96 1.79369 -0.918103 0
M  V30 21910 O 2070.01 2.47105 -0.519159 0
M  V30 21911 C 2071.33 0.374037 -2.98365 0
M  V30 21912 C 2072.87 0.454466 -3.09683 0
M  V30 21913 C 2073.35 0.428572 -4.5599 0
M  V30 21914 N 2074.84 0.488746 -4.60614 0
M  V30 21915 C 2075.57 0.49087 -5.71295 0
M  V30 21916 N 2075.07 0.448011 -6.9135 0
M  V30 21917 N 2076.86 0.537175 -5.59527 0
M  V30 21918 H 2069.01 -0.817897 -1.96021 0
M  V30 21919 H 2071.28 -0.306554 -0.897067 0
M  V30 21920 H 2070.98 -0.561323 -3.47192 0
M  V30 21921 H 2070.86 1.18551 -3.58086 0
M  V30 21922 H 2073.24 1.38025 -2.60832 0
M  V30 21923 H 2073.33 -0.385521 -2.52878 0
M  V30 21924 H 2072.97 -0.493347 -5.05498 0
M  V30 21925 H 2072.9 1.28605 -5.10655 0
M  V30 21926 H 2075.39 0.526255 -3.74218 0
M  V30 21927 H 2075.7 0.453464 -7.71468 0
M  V30 21928 H 2074.05 0.414751 -6.93761 0
M  V30 21929 H 2077.24 0.568327 -4.64637 0
M  V30 21930 H 2077.41 0.535362 -6.45785 0
M  V30 21931 N 2070.82 1.53744 0.346476 0
M  V30 21932 C 2071.75 1.77836 1.44592 0
M  V30 21933 C 2072.76 0.659581 1.4884 0
M  V30 21934 O 2073.95 0.936252 1.51976 0
M  V30 21935 C 2071.05 1.86049 2.83265 0
M  V30 21936 C 2070.23 3.1594 3.02491 0
M  V30 21937 C 2069.28 3.15147 4.21389 0
M  V30 21938 O 2068.31 3.88879 4.15646 0
M  V30 21939 N 2069.51 2.37309 5.29778 0
M  V30 21940 H 2072.28 2.72709 1.24297 0
M  V30 21941 H 2069.84 1.52758 0.536336 0
M  V30 21942 H 2071.83 1.82973 3.60975 0
M  V30 21943 H 2070.4 0.983753 2.96717 0
M  V30 21944 H 2069.62 3.32163 2.12277 0
M  V30 21945 H 2070.91 4.01743 3.12217 0
M  V30 21946 H 2070.31 1.76952 5.37312 0
M  V30 21947 H 2068.86 2.40034 6.05992 0
M  V30 21948 N 2072.3 -0.607329 1.45428 0
M  V30 21949 C 2073.54 -1.36835 1.49679 0
M  V30 21950 C 2073.88 -1.93708 0.138148 0
M  V30 21951 O 2073.15 -1.75069 -0.847414 0
M  V30 21952 C 2073.43 -2.51607 2.57616 0
M  V30 21953 C 2073.29 -1.99929 4.02925 0
M  V30 21954 C 2074.61 -3.53738 2.61835 0
M  V30 21955 H 2071.72 -0.496187 0.544947 0
M  V30 21956 H 2074.37 -0.684587 1.77238 0
M  V30 21957 H 2072.52 -3.09936 2.34247 0
M  V30 21958 H 2074.19 -1.46247 4.37504 0
M  V30 21959 H 2072.43 -1.30929 4.1357 0
M  V30 21960 H 2073.1 -2.82666 4.74135 0
M  V30 21961 H 2075.58 -3.0525 2.82775 0
M  V30 21962 H 2074.45 -4.31533 3.39221 0
M  V30 21963 H 2074.72 -4.09372 1.66935 0
M  V30 21964 N 2073.77 -1.32722 -0.849853 0
M  V30 21965 C 2075.02 -1.23739 -1.60675 0
M  V30 21966 C 2075.35 0.199183 -1.93176 0
M  V30 21967 O 2074.63 1.13761 -1.57761 0
M  V30 21968 C 2074.91 -2.10183 -2.92395 0
M  V30 21969 C 2074.76 -3.62243 -2.66646 0
M  V30 21970 C 2076.08 -1.96664 -3.93715 0
M  V30 21971 H 2073.2 -0.45085 -0.583013 0
M  V30 21972 H 2075.84 -1.62716 -0.980999 0
M  V30 21973 H 2073.99 -1.77072 -3.458 0
M  V30 21974 H 2075.67 -4.05591 -2.19758 0
M  V30 21975 H 2073.91 -3.8467 -2.00529 0
M  V30 21976 H 2074.58 -4.1806 -3.60458 0
M  V30 21977 H 2077.06 -2.25679 -3.49583 0
M  V30 21978 H 2075.93 -2.59417 -4.83729 0
M  V30 21979 H 2076.19 -0.935664 -4.32085 0
M  V30 21980 N 2075.25 1.06673 -1.16011 0
M  V30 21981 C 2076.53 1.76186 -0.849577 0
M  V30 21982 C 2076.91 2.00733 0.653401 0
M  V30 21983 O 2076.26 1.63135 1.59998 0
M  V30 21984 C 2076.47 3.06559 -1.66802 0
M  V30 21985 C 2077.82 3.80782 -1.87857 0
M  V30 21986 O 2078.84 3.16389 -1.63635 0
M  V30 21987 O 2077.7 4.96451 -2.2847 0
M  V30 21988 H 2074.79 0.76543 -0.313123 0
M  V30 21989 H 2077.34 1.12976 -1.26627 0
M  V30 21990 H 2076.11 2.84353 -2.68811 0
M  V30 21991 H 2075.73 3.77502 -1.24811 0
M  V30 21992 N 2076.73 0.957992 1.25141 0
M  V30 21993 C 2077.98 0.615503 1.93234 0
M  V30 21994 C 2078.31 -0.845811 1.74813 0
M  V30 21995 O 2077.58 -1.60729 1.09528 0
M  V30 21996 C 2077.87 0.979109 3.46533 0
M  V30 21997 C 2077.72 2.4964 3.74165 0
M  V30 21998 C 2079.04 0.506601 4.37175 0
M  V30 21999 H 2076.16 0.225085 0.701787 0
M  V30 22000 H 2078.8 1.19525 1.47695 0
M  V30 22001 H 2076.95 0.485773 3.85451 0
M  V30 22002 H 2078.62 3.06376 3.44865 0
M  V30 22003 H 2076.87 2.93263 3.19655 0
M  V30 22004 H 2077.54 2.70132 4.81386 0
M  V30 22005 H 2080.01 0.929831 4.05578 0
M  V30 22006 H 2078.89 0.789676 5.4319 0
M  V30 22007 H 2079.15 -0.59342 4.38099 0
M  V30 22008 N 2078.21 -1.39832 0.726957 0
M  V30 22009 C 2079.14 -2.28179 0.0306291 0
M  V30 22010 C 2080.12 -1.43956 -0.756008 0
M  V30 22011 O 2081.3 -1.73356 -0.74026 0
M  V30 22012 C 2078.43 -3.24695 -0.963903 0
M  V30 22013 C 2077.48 -4.25665 -0.266719 0
M  V30 22014 S 2078.31 -5.2582 1.01356 0
M  V30 22015 C 2079.47 -6.25896 0.0214211 0
M  V30 22016 H 2079.7 -2.86889 0.779868 0
M  V30 22017 H 2077.23 -1.45436 0.518429 0
M  V30 22018 H 2079.19 -3.80823 -1.53245 0
M  V30 22019 H 2077.85 -2.6502 -1.68592 0
M  V30 22020 H 2077.04 -4.93592 -1.01896 0
M  V30 22021 H 2076.65 -3.73295 0.229576 0
M  V30 22022 H 2078.94 -6.72499 -0.82166 0
M  V30 22023 H 2079.88 -7.04946 0.667612 0
M  V30 22024 H 2080.29 -5.6343 -0.347386 0
M  V30 22025 N 2079.69 -0.473982 -1.50304 0
M  V30 22026 C 2080.91 0.0798733 -2.07246 0
M  V30 22027 C 2081.34 1.3249 -1.33521 0
M  V30 22028 O 2080.69 1.77192 -0.383743 0
M  V30 22029 C 2080.74 0.343926 -3.58956 0
M  V30 22030 O 2079.85 1.42387 -3.8704 0
M  V30 22031 H 2079.19 -0.0142608 -0.663847 0
M  V30 22032 H 2081.72 -0.665854 -1.93462 0
M  V30 22033 H 2081.73 0.583558 -4.03805 0
M  V30 22034 H 2080.4 -0.565855 -4.12033 0
M  V30 22035 H 2078.98 1.17132 -3.54026 0
M  V30 22036 N 2081.16 1.56239 -0.206702 0
M  V30 22037 C 2082.13 2.18382 0.695843 0
M  V30 22038 C 2083.13 1.14149 1.13255 0
M  V30 22039 O 2084.32 1.39468 1.04376 0
M  V30 22040 C 2081.45 2.79522 1.95141 0
M  V30 22041 H 2082.64 2.99503 0.154275 0
M  V30 22042 H 2080.2 1.56241 0.0429222 0
M  V30 22043 H 2080.93 2.02231 2.53521 0
M  V30 22044 H 2080.72 3.55837 1.64689 0
M  V30 22045 H 2082.21 3.27203 2.59476 0
M  V30 22046 N 2082.64 -0.0668159 1.57458 0
M  V30 22047 C 2083.89 -0.76387 1.86676 0
M  V30 22048 C 2084.2 -1.78489 0.800057 0
M  V30 22049 O 2085.41 -2.53187 0.980236 0
M  V30 22050 C 2083.87 -1.4095 3.31151 0
M  V30 22051 C 2083.47 -0.426782 4.45963 0
M  V30 22052 C 2085.22 -2.08863 3.69563 0
M  V30 22053 C 2083.13 -1.07861 5.81481 0
M  V30 22054 H 2082.06 -0.289037 0.6964 0
M  V30 22055 H 2084.71 -0.0172645 1.83492 0
M  V30 22056 H 2083.09 -2.20453 3.28962 0
M  V30 22057 H 2084.26 0.338803 4.59553 0
M  V30 22058 H 2082.58 0.148171 4.16136 0
M  V30 22059 H 2085.17 -2.58415 4.68109 0
M  V30 22060 H 2085.52 -2.89026 2.99616 0
M  V30 22061 H 2086.05 -1.36184 3.73763 0
M  V30 22062 H 2082.79 -0.317194 6.54732 0
M  V30 22063 H 2082.31 -1.81493 5.71682 0
M  V30 22064 H 2083.99 -1.597 6.26981 0
M  V30 22065 N 2084.12 -1.53926 -0.338317 0
M  V30 22066 C 2085.37 -1.71424 -1.07797 0
M  V30 22067 C 2085.7 -0.480153 -1.8848 0
M  V30 22068 O 2084.95 0.538111 -1.88156 0
M  V30 22069 C 2085.25 -2.93279 -2.0426 0
M  V30 22070 C 2084.92 -4.28665 -1.39847 0
M  V30 22071 C 2083.58 -4.65475 -1.2201 0
M  V30 22072 C 2085.93 -5.12746 -0.934908 0
M  V30 22073 C 2083.26 -5.83979 -0.564424 0
M  V30 22074 C 2085.61 -6.31921 -0.293119 0
M  V30 22075 C 2084.27 -6.67421 -0.102472 0
M  V30 22076 H 2083.54 -0.627283 -0.394458 0
M  V30 22077 H 2086.19 -1.88149 -0.356684 0
M  V30 22078 H 2084.5 -2.71179 -2.82788 0
M  V30 22079 H 2086.19 -3.04011 -2.61492 0
M  V30 22080 H 2082.78 -3.99696 -1.54729 0
M  V30 22081 H 2086.97 -4.84836 -1.06055 0
M  V30 22082 H 2082.22 -6.10055 -0.40538 0
M  V30 22083 H 2086.4 -6.96361 0.0741496 0
M  V30 22084 H 2084.02 -7.59106 0.407635 0
M  V30 22085 N 2085.6 0.599608 -1.45748 0
M  V30 22086 C 2086.53 1.72389 -1.51045 0
M  V30 22087 C 2087.54 1.57799 -0.400408 0
M  V30 22088 O 2088.73 1.65534 -0.667891 0
M  V30 22089 C 2085.83 3.10473 -1.35865 0
M  V30 22090 C 2085.01 3.51228 -2.60687 0
M  V30 22091 C 2084.07 4.68306 -2.39949 0
M  V30 22092 O 2083.09 4.7502 -3.136 0
M  V30 22093 N 2084.29 5.62093 -1.45024 0
M  V30 22094 H 2087.06 1.68306 -2.47978 0
M  V30 22095 H 2084.62 0.78512 -1.41589 0
M  V30 22096 H 2086.61 3.86565 -1.1979 0
M  V30 22097 H 2085.18 3.09019 -0.471781 0
M  V30 22098 H 2084.4 2.65016 -2.91822 0
M  V30 22099 H 2085.69 3.75218 -3.43641 0
M  V30 22100 H 2085.09 5.5939 -0.842577 0
M  V30 22101 H 2083.64 6.37684 -1.34918 0
M  V30 22102 N 2087.08 1.33171 0.842803 0
M  V30 22103 C 2088.33 1.24159 1.59464 0
M  V30 22104 C 2088.65 -0.193595 1.94037 0
M  V30 22105 O 2087.92 -1.12135 1.60632 0
M  V30 22106 H 2086.5 0.456555 0.591241 0
M  V30 22107 H 2089.16 1.66842 1.00746 0
M  V30 22108 H 2088.25 1.83255 2.52634 0
M  V30 22109 N 2088.56 -1.06056 1.16576 0
M  V30 22110 C 2089.97 -1.60363 0.956067 0
M  V30 22111 C 2090.32 -1.89737 -0.499436 0
M  V30 22112 O 2089.44 -1.67257 -1.3731 0
M  V30 22113 C 2090.04 -2.91353 1.72913 0
M  V30 22114 C 2088.6 -3.42352 1.56436 0
M  V30 22115 C 2087.74 -2.1621 1.73633 0
M  V30 22116 H 2090.69 -0.889768 1.31411 0
M  V30 22117 H 2090.72 -3.6087 1.20636 0
M  V30 22118 H 2090.23 -2.69942 2.78842 0
M  V30 22119 H 2088.33 -3.68817 0.529577 0
M  V30 22120 H 2088.44 -4.17519 2.34978 0
M  V30 22121 H 2086.81 -2.26548 1.16396 0
M  V30 22122 H 2087.59 -1.97279 2.80955 0
M  V30 22123 N 2090.03 -0.964615 -1.24631 0
M  V30 22124 C 2091.28 -0.620429 -1.91921 0
M  V30 22125 C 2091.6 0.847851 -1.76269 0
M  V30 22126 O 2092.8 1.30243 -2.38221 0
M  V30 22127 C 2091.26 -1.059 -3.43967 0
M  V30 22128 C 2090.87 -2.55052 -3.6831 0
M  V30 22129 C 2092.61 -0.787818 -4.17126 0
M  V30 22130 C 2090.52 -2.92658 -5.13912 0
M  V30 22131 H 2089.45 -0.22834 -0.718594 0
M  V30 22132 H 2092.1 -1.17041 -1.41328 0
M  V30 22133 H 2090.48 -0.437357 -3.93577 0
M  V30 22134 H 2091.65 -3.2232 -3.29312 0
M  V30 22135 H 2089.97 -2.79748 -3.08432 0
M  V30 22136 H 2092.57 -1.04483 -5.24392 0
M  V30 22137 H 2092.91 0.275932 -4.15385 0
M  V30 22138 H 2093.44 -1.37028 -3.73454 0
M  V30 22139 H 2090.18 -3.98091 -5.20772 0
M  V30 22140 H 2089.7 -2.30071 -5.5392 0
M  V30 22141 H 2091.38 -2.82395 -5.82119 0
M  V30 22142 N 2091.51 1.39445 -0.734362 0
M  V30 22143 C 2092.74 2.0535 -0.290903 0
M  V30 22144 C 2093.16 1.55004 1.06562 0
M  V30 22145 O 2092.52 0.693509 1.67512 0
M  V30 22146 C 2092.57 3.59337 -0.301562 0
M  V30 22147 O 2091.67 4.06225 0.711013 0
M  V30 22148 H 2091.01 0.650668 -0.132389 0
M  V30 22149 H 2093.54 1.78491 -1.00011 0
M  V30 22150 H 2093.55 4.0774 -0.14573 0
M  V30 22151 H 2092.23 3.95343 -1.2914 0
M  V30 22152 H 2090.8 3.69237 0.521369 0
M  V30 22153 N 2092.99 0.481946 1.5005 0
M  V30 22154 C 2093.92 -0.352787 2.25457 0
M  V30 22155 C 2094.9 -0.986902 1.29225 0
M  V30 22156 O 2096.08 -1.02072 1.58472 0
M  V30 22157 C 2093.21 -1.4952 3.0391 0
M  V30 22158 C 2092.26 -0.977381 4.1515 0
M  V30 22159 S 2093.09 0.116634 5.35373 0
M  V30 22160 C 2094.25 -1.0294 6.17377 0
M  V30 22161 H 2094.48 0.287284 2.95909 0
M  V30 22162 H 2092.01 0.266971 1.52074 0
M  V30 22163 H 2093.97 -2.14989 3.497 0
M  V30 22164 H 2092.63 -2.10682 2.32963 0
M  V30 22165 H 2091.82 -1.83296 4.69488 0
M  V30 22166 H 2091.43 -0.400227 3.71852 0
M  V30 22167 H 2093.72 -1.93874 6.49168 0
M  V30 22168 H 2094.66 -0.525055 7.06151 0
M  V30 22169 H 2095.07 -1.28813 5.49607 0
M  V30 22170 N 2094.47 -1.56127 0.214985 0
M  V30 22171 C 2095.74 -1.8994 -0.467153 0
M  V30 22172 C 2096.12 -1.13139 -1.78221 0
M  V30 22173 O 2095.47 -0.238654 -2.2725 0
M  V30 22174 C 2095.68 -3.42576 -0.666524 0
M  V30 22175 C 2097.03 -4.13209 -0.976927 0
M  V30 22176 O 2098.05 -3.48138 -0.753545 0
M  V30 22177 O 2096.91 -5.2825 -1.40052 0
M  V30 22178 H 2094.01 -0.789533 -0.246102 0
M  V30 22179 H 2096.55 -1.67748 0.256681 0
M  V30 22180 H 2095.33 -3.90426 0.261344 0
M  V30 22181 H 2094.95 -3.70526 -1.44209 0
M  V30 22182 N 2095.95 0.0584645 -1.57492 0
M  V30 22183 C 2096.89 1.06805 -2.04601 0
M  V30 22184 C 2097.86 1.37677 -0.929204 0
M  V30 22185 O 2099.05 1.48518 -1.19779 0
M  V30 22186 C 2096.19 2.37272 -2.50591 0
M  V30 22187 C 2095.3 2.12815 -3.75944 0
M  V30 22188 C 2094.44 3.36941 -4.10663 0
M  V30 22189 C 2093.47 3.07907 -5.29018 0
M  V30 22190 N 2092.61 4.24401 -5.5931 0
M  V30 22191 H 2097.45 0.659352 -2.90614 0
M  V30 22192 H 2094.99 0.313985 -1.4371 0
M  V30 22193 H 2096.95 3.13463 -2.75312 0
M  V30 22194 H 2095.58 2.75919 -1.67536 0
M  V30 22195 H 2094.63 1.27255 -3.58483 0
M  V30 22196 H 2095.94 1.87378 -4.62267 0
M  V30 22197 H 2095.09 4.21519 -4.36356 0
M  V30 22198 H 2093.83 3.65466 -3.22933 0
M  V30 22199 H 2092.84 2.21727 -5.03108 0
M  V30 22200 H 2094.06 2.80691 -6.18377 0
M  V30 22201 H 2092.01 4.52933 -4.7454 0
M  V30 22202 H 2091.93 4.02284 -6.40081 0
M  V30 22203 H 2093.19 5.09938 -5.89562 0
M  V30 22204 N 2097.42 1.54103 0.330149 0
M  V30 22205 C 2098.83 1.633 0.904982 0
M  V30 22206 C 2099.19 0.522849 1.89105 0
M  V30 22207 O 2098.31 -0.345304 2.13627 0
M  V30 22208 C 2098.91 2.96008 1.64817 0
M  V30 22209 C 2097.46 3.07423 2.17182 0
M  V30 22210 C 2096.61 2.58829 0.995126 0
M  V30 22211 H 2099.56 1.58333 0.10791 0
M  V30 22212 H 2099.58 2.85799 2.51196 0
M  V30 22213 H 2099.1 3.76786 0.930246 0
M  V30 22214 H 2097.2 2.31306 2.9211 0
M  V30 22215 H 2097.31 4.13117 2.42635 0
M  V30 22216 H 2095.67 2.14563 1.3724 0
M  V30 22217 H 2096.46 3.42059 0.291621 0
M  V30 22218 N 2098.9 -0.59187 1.46064 0
M  V30 22219 C 2100.31 -1.17395 1.45174 0
M  V30 22220 C 2100.66 -1.953 0.187679 0
M  V30 22221 O 2099.79 -2.04428 -0.709814 0
M  V30 22222 C 2100.38 -2.1356 2.63017 0
M  V30 22223 C 2098.94 -2.6711 2.65197 0
M  V30 22224 C 2098.09 -1.42806 2.37701 0
M  V30 22225 H 2101.04 -0.380305 1.54076 0
M  V30 22226 H 2101.06 -2.96868 2.38012 0
M  V30 22227 H 2100.57 -1.5683 3.55001 0
M  V30 22228 H 2098.68 -3.27734 1.7726 0
M  V30 22229 H 2098.79 -3.1047 3.6489 0
M  V30 22230 H 2097.15 -1.72303 1.87573 0
M  V30 22231 H 2097.94 -0.879215 3.3185 0
M  V30 22232 N 2100.38 -1.33616 -0.835729 0
M  V30 22233 C 2101.79 -1.22666 -1.40748 0
M  V30 22234 C 2102.14 0.153155 -1.95601 0
M  V30 22235 O 2101.27 1.0529 -1.89058 0
M  V30 22236 C 2101.86 -2.22087 -2.55857 0
M  V30 22237 C 2100.42 -2.14967 -3.08976 0
M  V30 22238 C 2099.57 -2.09399 -1.81789 0
M  V30 22239 H 2102.52 -1.45169 -0.641222 0
M  V30 22240 H 2102.54 -1.83042 -3.3358 0
M  V30 22241 H 2102.05 -3.22502 -2.15903 0
M  V30 22242 H 2100.15 -1.17865 -3.53466 0
M  V30 22243 H 2100.27 -3.05652 -3.68936 0
M  V30 22244 H 2098.63 -1.54922 -2.02166 0
M  V30 22245 H 2099.41 -3.11626 -1.44027 0
M  V30 22246 N 2101.86 1.05436 -1.17136 0
M  V30 22247 C 2103.27 1.59854 -0.964558 0
M  V30 22248 C 2103.62 1.89999 0.489367 0
M  V30 22249 O 2102.75 1.67983 1.36421 0
M  V30 22250 C 2103.34 2.90432 -1.74455 0
M  V30 22251 C 2101.9 3.41518 -1.58249 0
M  V30 22252 C 2101.05 2.15286 -1.74777 0
M  V30 22253 H 2104 0.882787 -1.31881 0
M  V30 22254 H 2104.02 3.60225 -1.22548 0
M  V30 22255 H 2103.53 2.6846 -2.80269 0
M  V30 22256 H 2101.63 3.68531 -0.549129 0
M  V30 22257 H 2101.74 4.16267 -2.37188 0
M  V30 22258 H 2100.11 2.25927 -1.17596 0
M  V30 22259 H 2100.89 1.95787 -2.81997 0
M  V30 22260 N 2103.34 0.971211 1.24118 0
M  V30 22261 C 2104.3 0.509064 2.23475 0
M  V30 22262 C 2105.3 -0.39631 1.5584 0
M  V30 22263 O 2106.49 -0.191281 1.73147 0
M  V30 22264 C 2103.62 -0.262327 3.39889 0
M  V30 22265 H 2104.81 1.38746 2.65875 0
M  V30 22266 H 2102.37 0.756154 1.36792 0
M  V30 22267 H 2103.1 -1.15767 3.02933 0
M  V30 22268 H 2102.89 0.387439 3.90181 0
M  V30 22269 H 2104.38 -0.574574 4.13628 0
M  V30 22270 N 2104.81 -1.39054 0.741747 0
M  V30 22271 C 2106.06 -1.99612 0.289503 0
M  V30 22272 C 2106.38 -1.59538 -1.13168 0
M  V30 22273 O 2107.58 -2.12981 -1.68379 0
M  V30 22274 C 2106.04 -3.56862 0.466657 0
M  V30 22275 C 2105.65 -4.05894 1.89616 0
M  V30 22276 C 2107.39 -4.24431 0.0765289 0
M  V30 22277 C 2105.3 -5.55742 2.0225 0
M  V30 22278 H 2104.23 -0.746725 0.10449 0
M  V30 22279 H 2106.88 -1.58968 0.916594 0
M  V30 22280 H 2105.26 -3.95335 -0.229437 0
M  V30 22281 H 2106.43 -3.78739 2.62475 0
M  V30 22282 H 2104.75 -3.5101 2.24011 0
M  V30 22283 H 2107.35 -5.3449 0.149851 0
M  V30 22284 H 2107.69 -4.04861 -0.969208 0
M  V30 22285 H 2108.22 -3.91156 0.724031 0
M  V30 22286 H 2104.96 -5.80201 3.05036 0
M  V30 22287 H 2104.48 -5.84678 1.33836 0
M  V30 22288 H 2106.16 -6.21258 1.80685 0
M  V30 22289 N 2106.29 -0.489897 -1.49792 0
M  V30 22290 C 2107.52 0.0556798 -2.06825 0
M  V30 22291 C 2107.94 1.31825 -1.35158 0
M  V30 22292 O 2107.29 1.77446 -0.426503 0
M  V30 22293 C 2107.34 0.324604 -3.6004 0
M  V30 22294 O 2107.06 -0.887904 -4.29008 0
M  V30 22295 C 2108.57 0.91506 -4.33753 0
M  V30 22296 H 2105.79 -0.0154889 -0.670821 0
M  V30 22297 H 2108.33 -0.684073 -1.92719 0
M  V30 22298 H 2106.48 1.01432 -3.73885 0
M  V30 22299 H 2106.9 -0.643954 -5.20532 0
M  V30 22300 H 2108.37 1.05288 -5.41866 0
M  V30 22301 H 2108.85 1.91003 -3.95493 0
M  V30 22302 H 2109.46 0.263155 -4.24485 0
M  V30 22303 N 2107.77 1.56011 -0.223262 0
M  V30 22304 C 2109.05 1.90185 0.457074 0
M  V30 22305 C 2109.43 1.14083 1.77618 0
M  V30 22306 O 2108.78 0.250703 2.27121 0
M  V30 22307 C 2108.99 3.42925 0.648347 0
M  V30 22308 C 2110.33 4.13721 0.955 0
M  V30 22309 O 2111.36 3.48533 0.735072 0
M  V30 22310 O 2110.22 5.28985 1.37248 0
M  V30 22311 H 2107.31 0.790827 0.241912 0
M  V30 22312 H 2109.86 1.67609 -0.265573 0
M  V30 22313 H 2108.63 3.90282 -0.282045 0
M  V30 22314 H 2108.25 3.71286 1.42242 0
M  V30 22315 N 2109.25 -0.0501116 1.5752 0
M  V30 22316 C 2110.18 -1.05708 2.08202 0
M  V30 22317 C 2111.16 -1.39032 0.980009 0
M  V30 22318 O 2112.34 -1.48283 1.25403 0
M  V30 22319 C 2109.47 -2.36429 2.54399 0
M  V30 22320 C 2108.43 -2.17402 3.68674 0
M  V30 22321 C 2107.75 -3.53698 4.01001 0
M  V30 22322 C 2109.05 -1.57741 4.97911 0
M  V30 22323 H 2110.75 -0.635258 2.92583 0
M  V30 22324 H 2108.29 -0.304127 1.40752 0
M  V30 22325 H 2110.25 -3.07184 2.88472 0
M  V30 22326 H 2108.97 -2.80631 1.67074 0
M  V30 22327 H 2107.63 -1.49084 3.34917 0
M  V30 22328 H 2107.28 -3.9551 3.10774 0
M  V30 22329 H 2106.98 -3.418 4.77961 0
M  V30 22330 H 2108.5 -4.25849 4.3759 0
M  V30 22331 H 2109.92 -2.18387 5.30075 0
M  V30 22332 H 2108.31 -1.56478 5.7934 0
M  V30 22333 H 2109.38 -0.540999 4.81873 0
M  V30 22334 N 2110.73 -1.54276 -0.321972 0
M  V30 22335 C 2111.66 -1.86766 -1.40146 0
M  V30 22336 C 2112.64 -0.724601 -1.53895 0
M  V30 22337 O 2113.82 -0.978478 -1.67748 0
M  V30 22338 C 2110.95 -2.09642 -2.76889 0
M  V30 22339 C 2109.91 -3.25485 -2.77927 0
M  V30 22340 C 2109.23 -3.33736 -4.17761 0
M  V30 22341 C 2110.53 -4.63097 -2.41533 0
M  V30 22342 H 2112.23 -2.77174 -1.13204 0
M  V30 22343 H 2109.77 -1.33364 -0.543134 0
M  V30 22344 H 2111.73 -2.30955 -3.52474 0
M  V30 22345 H 2110.45 -1.15985 -3.05311 0
M  V30 22346 H 2109.11 -3.04062 -2.04798 0
M  V30 22347 H 2108.76 -2.37634 -4.43327 0
M  V30 22348 H 2108.46 -4.11594 -4.19362 0
M  V30 22349 H 2109.98 -3.57285 -4.95156 0
M  V30 22350 H 2111.39 -4.84281 -3.06831 0
M  V30 22351 H 2109.79 -5.43516 -2.54382 0
M  V30 22352 H 2110.86 -4.65238 -1.3668 0
M  V30 22353 N 2112.2 0.584116 -1.46376 0
M  V30 22354 C 2113.62 0.907336 -1.313 0
M  V30 22355 C 2113.82 1.99497 -0.283388 0
M  V30 22356 O 2112.88 2.50533 0.314536 0
M  V30 22357 C 2114.19 1.32602 -2.69883 0
M  V30 22358 C 2115.74 1.43895 -2.77963 0
M  V30 22359 C 2116.21 1.89131 -4.17125 0
M  V30 22360 N 2117.7 1.96326 -4.19536 0
M  V30 22361 C 2118.44 2.32599 -5.24104 0
M  V30 22362 N 2117.93 2.67675 -6.39001 0
M  V30 22363 N 2119.73 2.33142 -5.1147 0
M  V30 22364 H 2111.88 -0.134382 -2.11974 0
M  V30 22365 H 2114.14 0.00254953 -0.947997 0
M  V30 22366 H 2113.85 0.600869 -3.46529 0
M  V30 22367 H 2113.72 2.28783 -2.99897 0
M  V30 22368 H 2116.11 2.15497 -2.01606 0
M  V30 22369 H 2116.19 0.459692 -2.51636 0
M  V30 22370 H 2115.83 1.18108 -4.93977 0
M  V30 22371 H 2115.76 2.88012 -4.40859 0
M  V30 22372 H 2118.25 1.71715 -3.36634 0
M  V30 22373 H 2118.57 2.94302 -7.14567 0
M  V30 22374 H 2116.91 2.65317 -6.42364 0
M  V30 22375 H 2120.1 2.05161 -4.20745 0
M  V30 22376 H 2120.28 2.61083 -5.93077 0
M  V30 22377 N 2113.68 1.34058 0.828631 0
M  V30 22378 C 2114.91 1.29306 1.62156 0
M  V30 22379 C 2115.33 -0.131256 1.87641 0
M  V30 22380 O 2114.69 -1.09118 1.44786 0
M  V30 22381 C 2114.74 2.08394 2.94286 0
M  V30 22382 O 2113.84 1.44955 3.86085 0
M  V30 22383 H 2113.18 0.444364 0.493393 0
M  V30 22384 H 2115.71 1.76775 1.03014 0
M  V30 22385 H 2115.72 2.19539 3.43899 0
M  V30 22386 H 2114.4 3.11953 2.7506 0
M  V30 22387 H 2112.98 1.42518 3.44591 0
M  V30 22388 N 2115.16 -1.04814 1.17694 0
M  V30 22389 C 2116.41 -1.78147 0.969105 0
M  V30 22390 C 2116.74 -1.87634 -0.500715 0
M  V30 22391 O 2116.02 -1.37892 -1.37172 0
M  V30 22392 C 2116.3 -3.2183 1.61548 0
M  V30 22393 C 2116.15 -3.20332 3.15765 0
M  V30 22394 C 2117.47 -4.19759 1.32251 0
M  V30 22395 H 2114.59 -0.646701 0.353479 0
M  V30 22396 H 2117.23 -1.22485 1.45249 0
M  V30 22397 H 2115.38 -3.69358 1.20445 0
M  V30 22398 H 2117.05 -2.8085 3.65952 0
M  V30 22399 H 2115.3 -2.58568 3.48318 0
M  V30 22400 H 2115.97 -4.21759 3.56123 0
M  V30 22401 H 2118.44 -3.80743 1.67851 0
M  V30 22402 H 2117.32 -5.18527 1.80057 0
M  V30 22403 H 2117.58 -4.41426 0.244002 0
M  V30 22404 N 2116.64 -0.977779 -1.23601 0
M  V30 22405 C 2118.06 -0.685968 -1.44106 0
M  V30 22406 C 2118.26 0.748759 -1.87072 0
M  V30 22407 O 2117.31 1.5215 -2.01511 0
M  V30 22408 C 2118.62 -1.67866 -2.49482 0
M  V30 22409 C 2120.17 -1.69241 -2.63299 0
M  V30 22410 C 2120.65 -2.67334 -3.71883 0
M  V30 22411 N 2122.14 -2.65836 -3.79322 0
M  V30 22412 C 2122.87 -3.38406 -4.62892 0
M  V30 22413 N 2122.37 -4.20527 -5.50571 0
M  V30 22414 N 2124.16 -3.27183 -4.57064 0
M  V30 22415 H 2116.31 -1.90461 -0.940129 0
M  V30 22416 H 2118.58 -0.820555 -0.474756 0
M  V30 22417 H 2118.28 -2.70457 -2.24824 0
M  V30 22418 H 2118.16 -1.45942 -3.47823 0
M  V30 22419 H 2120.54 -0.673554 -2.8731 0
M  V30 22420 H 2120.62 -1.95231 -1.65283 0
M  V30 22421 H 2120.27 -3.6936 -3.4862 0
M  V30 22422 H 2120.2 -2.38619 -4.69434 0
M  V30 22423 H 2122.69 -2.06236 -3.16662 0
M  V30 22424 H 2123 -4.72763 -6.11322 0
M  V30 22425 H 2121.35 -4.24619 -5.50203 0
M  V30 22426 H 2124.54 -2.62481 -3.87584 0
M  V30 22427 H 2124.71 -3.84001 -5.21965 0
M  V30 22428 N 2118.12 1.38658 -0.749111 0
M  V30 22429 C 2119.35 2.04504 -0.313958 0
M  V30 22430 C 2119.76 1.56495 1.05616 0
M  V30 22431 O 2119.12 0.736036 1.66999 0
M  V30 22432 C 2119.17 3.60059 -0.322507 0
M  V30 22433 O 2118.89 4.06304 -1.63855 0
M  V30 22434 C 2120.39 4.43118 0.127067 0
M  V30 22435 H 2117.61 0.657312 -0.134841 0
M  V30 22436 H 2120.15 1.77435 -1.01671 0
M  V30 22437 H 2118.31 3.85979 0.331471 0
M  V30 22438 H 2118.72 5.00711 -1.56169 0
M  V30 22439 H 2120.2 5.51956 0.0699241 0
M  V30 22440 H 2120.67 4.2321 1.17431 0
M  V30 22441 H 2121.28 4.22376 -0.49787 0
M  V30 22442 N 2119.6 0.497834 1.49531 0
M  V30 22443 C 2121.01 0.0492618 1.86635 0
M  V30 22444 C 2121.36 -1.36386 1.41044 0
M  V30 22445 O 2120.48 -2.01584 0.786942 0
M  V30 22446 C 2121.08 0.0826203 3.38699 0
M  V30 22447 C 2119.64 -0.310596 3.75116 0
M  V30 22448 C 2118.78 0.456535 2.73516 0
M  V30 22449 H 2121.73 0.71078 1.41893 0
M  V30 22450 H 2121.76 -0.713419 3.73752 0
M  V30 22451 H 2121.27 1.11123 3.71851 0
M  V30 22452 H 2119.37 -1.34255 3.47572 0
M  V30 22453 H 2119.48 0.0066527 4.791 0
M  V30 22454 H 2117.85 -0.0932284 2.54529 0
M  V30 22455 H 2118.63 1.48516 3.09512 0
M  V30 22456 N 2121.07 -1.5589 0.231532 0
M  V30 22457 C 2121.98 -2.24359 -0.685566 0
M  V30 22458 C 2123 -1.25454 -1.20571 0
M  V30 22459 O 2124.18 -1.58292 -1.24522 0
M  V30 22460 C 2121.24 -2.91783 -1.87252 0
M  V30 22461 C 2120.3 -4.06059 -1.39337 0
M  V30 22462 C 2119.53 -4.70258 -2.52375 0
M  V30 22463 O 2119.76 -4.33477 -3.70747 0
M  V30 22464 O 2118.69 -5.59063 -2.23008 0
M  V30 22465 H 2122.52 -3.03412 -0.132235 0
M  V30 22466 H 2120.1 -1.494 0.000664697 0
M  V30 22467 H 2121.98 -3.34305 -2.56551 0
M  V30 22468 H 2120.66 -2.15683 -2.41377 0
M  V30 22469 H 2119.57 -3.68086 -0.668112 0
M  V30 22470 H 2120.9 -4.83932 -0.898393 0
M  V30 22471 N 2122.55 0.0417572 -1.57545 0
M  V30 22472 C 2123.8 0.736189 -1.88966 0
M  V30 22473 C 2124.13 1.75678 -0.827697 0
M  V30 22474 O 2123.41 1.93851 0.158734 0
M  V30 22475 C 2123.69 1.4172 -3.3104 0
M  V30 22476 C 2123.54 0.410987 -4.47918 0
M  V30 22477 C 2124.86 2.3545 -3.71822 0
M  V30 22478 H 2121.98 0.266166 -0.687259 0
M  V30 22479 H 2124.62 -0.000952352 -1.9 0
M  V30 22480 H 2122.77 2.04552 -3.30289 0
M  V30 22481 H 2124.44 -0.214433 -4.60801 0
M  V30 22482 H 2122.69 -0.270954 -4.32953 0
M  V30 22483 H 2123.36 0.925718 -5.44182 0
M  V30 22484 H 2125.83 1.82673 -3.73858 0
M  V30 22485 H 2124.71 2.80087 -4.72062 0
M  V30 22486 H 2124.97 3.21575 -3.03384 0
M  V30 22487 N 2124.03 1.54445 0.313786 0
M  V30 22488 C 2125.28 1.72328 1.04814 0
M  V30 22489 C 2125.59 0.509186 1.88856 0
M  V30 22490 O 2126.8 0.569563 2.65459 0
M  V30 22491 C 2125.25 3.04843 1.91309 0
M  V30 22492 C 2124.86 4.33689 1.12331 0
M  V30 22493 C 2126.61 3.32087 2.6442 0
M  V30 22494 C 2124.51 5.5726 1.98028 0
M  V30 22495 H 2123.44 0.642234 0.395033 0
M  V30 22496 H 2126.09 1.80934 0.305823 0
M  V30 22497 H 2124.48 2.90169 2.69477 0
M  V30 22498 H 2125.65 4.59158 0.388648 0
M  V30 22499 H 2123.96 4.13283 0.508577 0
M  V30 22500 H 2126.56 4.21607 3.28864 0
M  V30 22501 H 2126.9 2.50397 3.32577 0
M  V30 22502 H 2127.44 3.47673 1.93308 0
M  V30 22503 H 2124.18 6.41581 1.34364 0
M  V30 22504 H 2123.7 5.35995 2.69201 0
M  V30 22505 H 2125.38 5.94035 2.56382 0
M  V30 22506 N 2125.51 -0.576345 1.46683 0
M  V30 22507 C 2126.45 -1.68494 1.57729 0
M  V30 22508 C 2127.42 -1.6067 0.421246 0
M  V30 22509 O 2128.61 -1.79788 0.638829 0
M  V30 22510 C 2125.75 -3.0683 1.57953 0
M  V30 22511 C 2124.86 -3.25233 2.84337 0
M  V30 22512 C 2124 -4.53855 2.76024 0
M  V30 22513 C 2123.04 -4.65623 3.97319 0
M  V30 22514 N 2122.17 -5.85578 3.87354 0
M  V30 22515 H 2127.01 -1.58391 2.52421 0
M  V30 22516 H 2124.55 -0.771863 1.25223 0
M  V30 22517 H 2126.51 -3.86909 1.56068 0
M  V30 22518 H 2125.14 -3.15815 0.667889 0
M  V30 22519 H 2124.19 -2.38715 2.96174 0
M  V30 22520 H 2125.5 -3.29795 3.74215 0
M  V30 22521 H 2124.66 -5.4217 2.72281 0
M  V30 22522 H 2123.4 -4.51741 1.83797 0
M  V30 22523 H 2122.4 -3.75724 4.01387 0
M  V30 22524 H 2123.63 -4.69511 4.90649 0
M  V30 22525 H 2121.57 -5.84449 2.97918 0
M  V30 22526 H 2121.49 -5.91436 4.70892 0
M  V30 22527 H 2122.76 -6.76306 3.87596 0
M  V30 22528 N 2126.99 -1.34495 -0.82151 0
M  V30 22529 C 2128.22 -1.29823 -1.60716 0
M  V30 22530 C 2128.62 0.129564 -1.88756 0
M  V30 22531 O 2127.97 1.0875 -1.48051 0
M  V30 22532 C 2128.03 -2.02237 -2.97221 0
M  V30 22533 C 2127.69 -3.51489 -2.92069 0
M  V30 22534 C 2128.69 -4.46369 -2.66554 0
M  V30 22535 C 2126.37 -3.93923 -3.11657 0
M  V30 22536 C 2128.37 -5.81657 -2.6068 0
M  V30 22537 C 2126.06 -5.2931 -3.05408 0
M  V30 22538 C 2127.05 -6.22989 -2.79953 0
M  V30 22539 O 2126.74 -7.55895 -2.73638 0
M  V30 22540 H 2126.47 -0.44801 -0.506225 0
M  V30 22541 H 2129.03 -1.77704 -1.03008 0
M  V30 22542 H 2127.26 -1.48972 -3.56853 0
M  V30 22543 H 2128.95 -1.90836 -3.58241 0
M  V30 22544 H 2129.71 -4.14905 -2.51155 0
M  V30 22545 H 2125.59 -3.21403 -3.30486 0
M  V30 22546 H 2129.14 -6.54747 -2.40732 0
M  V30 22547 H 2125.03 -5.60392 -3.20361 0
M  V30 22548 H 2125.8 -7.65647 -2.89355 0
M  V30 22549 N 2128.46 1.04188 -1.18248 0
M  V30 22550 C 2129.7 1.78933 -0.988049 0
M  V30 22551 C 2130.07 1.86056 0.474043 0
M  V30 22552 O 2131.27 2.56994 0.787877 0
M  V30 22553 C 2129.54 3.184 -1.62347 0
M  V30 22554 S 2131.1 4.09497 -1.57663 0
M  V30 22555 H 2127.92 0.616126 -0.354837 0
M  V30 22556 H 2130.52 1.24936 -1.5037 0
M  V30 22557 H 2129.22 3.10824 -2.67986 0
M  V30 22558 H 2128.75 3.77473 -1.10805 0
M  V30 22559 H 2130.77 4.9266 -0.591661 0
M  V30 22560 N 2129.94 0.98432 1.23081 0
M  V30 22561 C 2130.87 0.48581 2.23992 0
M  V30 22562 C 2131.89 -0.414468 1.57436 0
M  V30 22563 O 2133.08 -0.217976 1.77164 0
M  V30 22564 C 2130.18 -0.316143 3.37422 0
M  V30 22565 C 2129.35 0.578204 4.33561 0
M  V30 22566 C 2128.41 -0.170568 5.25923 0
M  V30 22567 O 2127.43 0.441138 5.67488 0
M  V30 22568 N 2128.64 -1.45541 5.61959 0
M  V30 22569 H 2131.4 1.3535 2.67396 0
M  V30 22570 H 2128.96 0.858041 1.37293 0
M  V30 22571 H 2130.95 -0.825504 3.96191 0
M  V30 22572 H 2129.52 -1.08487 2.93171 0
M  V30 22573 H 2128.74 1.26835 3.73238 0
M  V30 22574 H 2130.03 1.18757 4.94747 0
M  V30 22575 H 2129.43 -1.97385 5.30147 0
M  V30 22576 H 2127.99 -1.91013 6.23183 0
M  V30 22577 N 2131.42 -1.38259 0.756453 0
M  V30 22578 C 2132.7 -1.94131 0.239274 0
M  V30 22579 C 2133.08 -1.6915 -1.26299 0
M  V30 22580 O 2132.43 -1.03165 -2.03885 0
M  V30 22581 C 2132.64 -3.43872 0.596071 0
M  V30 22582 C 2133.98 -4.20927 0.557312 0
M  V30 22583 O 2135.01 -3.52166 0.534537 0
M  V30 22584 O 2133.87 -5.43511 0.57079 0
M  V30 22585 H 2130.96 -0.82543 0.0509403 0
M  V30 22586 H 2133.51 -1.47636 0.83677 0
M  V30 22587 H 2132.28 -3.55575 1.63348 0
M  V30 22588 H 2131.9 -3.97589 -0.0292809 0
M  V30 22589 N 2132.9 -0.505757 -1.49264 0
M  V30 22590 C 2133.85 0.28378 -2.30862 0
M  V30 22591 C 2134.84 0.958332 -1.39687 0
M  V30 22592 O 2136.05 0.885479 -1.56714 0
M  V30 22593 H 2132.42 0.110376 -0.743856 0
M  V30 22594 H 2134.39 -0.424349 -2.95367 0
M  V30 22595 C 2133.14 1.33255 -3.21152 0
M  V30 22596 H 2132.46 0.822894 -3.9124 0
M  V30 22597 H 2133.9 1.85687 -3.81177 0
M  V30 22598 C 2132.36 2.35327 -2.41087 0
M  V30 22599 O 2132.89 3.41302 -2.1184 0
M  V30 22600 N 2131.1 2.07918 -2.03023 0
M  V30 22601 H 2130.65 1.21758 -2.27009 0
M  V30 22602 H 2130.6 2.7644 -1.49762 0
M  V30 22603 N 2134.38 1.55765 -0.239796 0
M  V30 22604 C 2135.32 2.2108 0.662746 0
M  V30 22605 C 2136.29 1.17233 1.17668 0
M  V30 22606 O 2137.48 1.45655 1.23245 0
M  V30 22607 C 2134.62 2.90865 1.85719 0
M  V30 22608 C 2133.73 4.0935 1.38044 0
M  V30 22609 C 2132.87 4.6687 2.53389 0
M  V30 22610 C 2131.91 5.77619 2.02541 0
M  V30 22611 N 2131.04 6.29351 3.11225 0
M  V30 22612 H 2135.88 2.97835 0.0990722 0
M  V30 22613 H 2133.42 1.47053 0.0371415 0
M  V30 22614 H 2135.38 3.2952 2.55875 0
M  V30 22615 H 2134.01 2.16596 2.39345 0
M  V30 22616 H 2133.06 3.76057 0.573171 0
M  V30 22617 H 2134.37 4.89322 0.96774 0
M  V30 22618 H 2133.53 5.08062 3.31598 0
M  V30 22619 H 2132.26 3.861 2.97957 0
M  V30 22620 H 2131.27 5.35911 1.22799 0
M  V30 22621 H 2132.49 6.60236 1.5895 0
M  V30 22622 H 2130.44 5.51488 3.55241 0
M  V30 22623 H 2130.36 7.04497 2.74263 0
M  V30 22624 H 2131.63 6.75202 3.89516 0
M  V30 22625 N 2135.85 -0.0334016 1.57565 0
M  V30 22626 C 2137.1 -0.720703 1.90204 0
M  V30 22627 C 2137.46 -1.73196 0.837914 0
M  V30 22628 O 2136.75 -1.90981 -0.153879 0
M  V30 22629 C 2136.94 -1.4351 3.27322 0
M  V30 22630 C 2136.77 -0.494547 4.46972 0
M  V30 22631 C 2135.54 -0.117196 5.05164 0
M  V30 22632 C 2137.74 0.225215 5.13807 0
M  V30 22633 N 2135.72 0.825061 6.0833 0
M  V30 22634 C 2137.09 1.02328 6.11497 0
M  V30 22635 C 2139.15 0.292619 4.97039 0
M  V30 22636 C 2137.85 1.88256 6.94228 0
M  V30 22637 C 2139.88 1.139 5.80328 0
M  V30 22638 C 2139.24 1.92501 6.77586 0
M  V30 22639 H 2135.34 -0.237957 0.744917 0
M  V30 22640 H 2137.92 0.0190891 1.94691 0
M  V30 22641 H 2136.09 -2.14538 3.23772 0
M  V30 22642 H 2137.82 -2.07444 3.4749 0
M  V30 22643 H 2134.58 -0.478444 4.71177 0
M  V30 22644 H 2135 1.29057 6.64585 0
M  V30 22645 H 2139.65 -0.30076 4.21729 0
M  V30 22646 H 2137.36 2.48675 7.68886 0
M  V30 22647 H 2140.95 1.19463 5.69403 0
M  V30 22648 H 2139.83 2.56935 7.40914 0
M  V30 22649 N 2137.33 -1.54609 -0.305591 0
M  V30 22650 C 2138.58 -1.72882 -1.03898 0
M  V30 22651 C 2138.89 -0.519195 -1.88583 0
M  V30 22652 O 2140.1 -0.583633 -2.65153 0
M  V30 22653 C 2138.56 -3.05853 -1.89689 0
M  V30 22654 C 2138.16 -4.34278 -1.10029 0
M  V30 22655 C 2139.91 -3.33485 -2.62656 0
M  V30 22656 C 2137.82 -5.58302 -1.9507 0
M  V30 22657 H 2136.75 -0.64432 -0.391621 0
M  V30 22658 H 2139.4 -1.81093 -0.296223 0
M  V30 22659 H 2137.78 -2.91594 -2.67935 0
M  V30 22660 H 2138.95 -4.59358 -0.364293 0
M  V30 22661 H 2137.27 -4.13546 -0.486653 0
M  V30 22662 H 2139.86 -4.23345 -3.26624 0
M  V30 22663 H 2140.21 -2.52157 -3.31244 0
M  V30 22664 H 2140.74 -3.48694 -1.91462 0
M  V30 22665 H 2137.48 -6.42285 -1.3096 0
M  V30 22666 H 2137 -5.37415 -2.66355 0
M  V30 22667 H 2138.68 -5.95386 -2.53228 0
M  V30 22668 N 2138.81 0.568558 -1.46987 0
M  V30 22669 C 2140.06 1.32819 -1.53255 0
M  V30 22670 C 2140.39 1.93274 -0.189458 0
M  V30 22671 O 2139.66 1.77254 0.800699 0
M  V30 22672 C 2139.95 2.44688 -2.64196 0
M  V30 22673 C 2139.8 1.89176 -4.08084 0
M  V30 22674 C 2141.12 3.46671 -2.71122 0
M  V30 22675 H 2138.24 0.481565 -0.557911 0
M  V30 22676 H 2140.88 0.637355 -1.78991 0
M  V30 22677 H 2139.03 3.03617 -2.42382 0
M  V30 22678 H 2140.7 1.34596 -4.41227 0
M  V30 22679 H 2138.95 1.19918 -4.16896 0
M  V30 22680 H 2139.62 2.69995 -4.81463 0
M  V30 22681 H 2142.09 2.97645 -2.90769 0
M  V30 22682 H 2140.97 4.22387 -3.50543 0
M  V30 22683 H 2141.23 4.04802 -1.7773 0
M  V30 22684 N 2140.29 1.34929 0.814366 0
M  V30 22685 C 2141.7 1.24889 1.38779 0
M  V30 22686 C 2142.05 -0.122017 1.9582 0
M  V30 22687 O 2141.18 -1.02269 1.90709 0
M  V30 22688 C 2141.77 2.2613 2.52291 0
M  V30 22689 C 2140.33 2.19855 3.05517 0
M  V30 22690 C 2139.48 2.12265 1.78435 0
M  V30 22691 H 2142.43 1.46171 0.618046 0
M  V30 22692 H 2142.45 1.88326 3.30626 0
M  V30 22693 H 2141.96 3.25896 2.10745 0
M  V30 22694 H 2140.06 1.23474 3.51547 0
M  V30 22695 H 2140.17 3.11482 3.64027 0
M  V30 22696 H 2138.54 1.58119 1.99676 0
M  V30 22697 H 2139.32 3.13878 1.39051 0
M  V30 22698 N 2141.77 -1.0356 1.18799 0
M  V30 22699 C 2142.73 -2.09853 0.921649 0
M  V30 22700 C 2143.73 -1.60519 -0.095096 0
M  V30 22701 O 2144.92 -1.73645 0.138909 0
M  V30 22702 C 2142.05 -3.38733 0.383809 0
M  V30 22703 H 2143.24 -2.34914 1.86428 0
M  V30 22704 H 2140.8 -1.20064 1.00071 0
M  V30 22705 H 2141.53 -3.19337 -0.565188 0
M  V30 22706 H 2141.32 -3.75859 1.11681 0
M  V30 22707 H 2142.81 -4.17039 0.216329 0
M  V30 22708 N 2143.25 -0.990834 -1.22557 0
M  V30 22709 C 2144.52 -0.581554 -1.86755 0
M  V30 22710 C 2144.9 0.941178 -1.88958 0
M  V30 22711 O 2144.25 1.82226 -1.37862 0
M  V30 22712 C 2144.46 -1.19961 -3.27735 0
M  V30 22713 C 2145.81 -1.29885 -4.04246 0
M  V30 22714 O 2146.83 -1.15385 -3.36994 0
M  V30 22715 O 2145.69 -1.53066 -5.24626 0
M  V30 22716 H 2142.79 -0.197289 -0.803123 0
M  V30 22717 H 2145.33 -1.08658 -1.30351 0
M  V30 22718 H 2144.1 -2.24125 -3.20755 0
M  V30 22719 H 2143.73 -0.680045 -3.91741 0
M  V30 22720 N 2144.72 1.37856 -0.763775 0
M  V30 22721 C 2145.96 2.01726 -0.329558 0
M  V30 22722 C 2146.33 1.5932 1.0715 0
M  V30 22723 O 2147.53 2.15594 1.60539 0
M  V30 22724 C 2145.8 3.54433 -0.459551 0
M  V30 22725 S 2147.36 4.38664 -0.10942 0
M  V30 22726 H 2144.18 0.699521 -0.127247 0
M  V30 22727 H 2146.78 1.68189 -0.996636 0
M  V30 22728 H 2145.48 3.82784 -1.48001 0
M  V30 22729 H 2145.01 3.9276 0.224357 0
M  V30 22730 H 2147.03 4.83907 1.09767 0
M  V30 22731 N 2146.2 0.513665 1.48994 0
M  V30 22732 C 2147.13 -0.29486 2.27295 0
M  V30 22733 C 2148.15 -0.919245 1.34364 0
M  V30 22734 O 2149.34 -0.800442 1.59547 0
M  V30 22735 C 2146.44 -1.43125 3.07195 0
M  V30 22736 C 2145.61 -0.911824 4.2779 0
M  V30 22737 C 2144.67 -1.92735 4.89632 0
M  V30 22738 O 2143.69 -1.49081 5.4933 0
M  V30 22739 N 2144.9 -3.25858 4.80413 0
M  V30 22740 H 2147.66 0.376609 2.97324 0
M  V30 22741 H 2145.22 0.346983 1.58138 0
M  V30 22742 H 2147.21 -2.10843 3.45438 0
M  V30 22743 H 2145.78 -2.00665 2.39692 0
M  V30 22744 H 2145 -0.059147 3.94156 0
M  V30 22745 H 2146.29 -0.543402 5.0589 0
M  V30 22746 H 2145.69 -3.64003 4.33034 0
M  V30 22747 H 2144.25 -3.89255 5.22804 0
M  V30 22748 N 2147.68 -1.55636 0.248053 0
M  V30 22749 C 2148.93 -1.98148 -0.376864 0
M  V30 22750 C 2149.24 -1.13944 -1.58984 0
M  V30 22751 O 2150.45 -1.46475 -2.28598 0
M  V30 22752 C 2148.9 -3.52586 -0.721883 0
M  V30 22753 C 2148.51 -4.4553 0.469765 0
M  V30 22754 C 2150.26 -4.03751 -1.31093 0
M  V30 22755 C 2148.16 -5.91314 0.100837 0
M  V30 22756 H 2147.09 -0.740008 -0.144582 0
M  V30 22757 H 2149.74 -1.80161 0.348451 0
M  V30 22758 H 2148.13 -3.66272 -1.50536 0
M  V30 22759 H 2149.3 -4.43604 1.24708 0
M  V30 22760 H 2147.61 -4.04853 0.973816 0
M  V30 22761 H 2150.21 -5.10191 -1.6003 0
M  V30 22762 H 2150.55 -3.51167 -2.23578 0
M  V30 22763 H 2151.09 -3.93395 -0.590329 0
M  V30 22764 H 2147.83 -6.47937 0.992861 0
M  V30 22765 H 2147.35 -5.96373 -0.640255 0
M  V30 22766 H 2149.03 -6.46225 -0.316571 0
M  V30 22767 N 2149.16 0.0250451 -1.5758 0
M  V30 22768 C 2150.07 1.04128 -2.10225 0
M  V30 22769 C 2151.08 1.39367 -1.04178 0
M  V30 22770 O 2152.26 1.48605 -1.35936 0
M  V30 22771 C 2149.32 2.32208 -2.5745 0
M  V30 22772 C 2148.39 2.03512 -3.77996 0
M  V30 22773 C 2147.62 3.25486 -4.22959 0
M  V30 22774 O 2147.84 4.36301 -3.6742 0
M  V30 22775 O 2146.78 3.1095 -5.15358 0
M  V30 22776 H 2150.6 0.623859 -2.97223 0
M  V30 22777 H 2148.19 0.242286 -1.47422 0
M  V30 22778 H 2150.07 3.07498 -2.88137 0
M  V30 22779 H 2148.74 2.73237 -1.73561 0
M  V30 22780 H 2147.65 1.25777 -3.52322 0
M  V30 22781 H 2148.98 1.67337 -4.62882 0
M  V30 22782 N 2150.64 1.54769 0.297388 0
M  V30 22783 C 2152.05 1.46063 0.643251 0
M  V30 22784 C 2152.25 0.654777 1.90565 0
M  V30 22785 O 2151.31 0.16391 2.51967 0
M  V30 22786 C 2152.62 2.90058 0.792888 0
M  V30 22787 C 2154.17 3.00123 0.888538 0
M  V30 22788 C 2154.64 4.45322 1.07014 0
M  V30 22789 N 2156.13 4.49047 1.13626 0
M  V30 22790 C 2156.87 5.58582 1.29514 0
M  V30 22791 N 2156.37 6.78033 1.42276 0
M  V30 22792 N 2158.16 5.46277 1.32431 0
M  V30 22793 H 2150.31 2.0563 -0.531995 0
M  V30 22794 H 2152.57 0.931444 -0.176397 0
M  V30 22795 H 2152.28 3.51642 -0.0638796 0
M  V30 22796 H 2152.15 3.37683 1.68077 0
M  V30 22797 H 2154.54 2.38651 1.73579 0
M  V30 22798 H 2154.62 2.55789 -0.0234414 0
M  V30 22799 H 2154.26 5.0739 0.227645 0
M  V30 22800 H 2154.19 4.8729 1.9964 0
M  V30 22801 H 2156.69 3.62991 1.05101 0
M  V30 22802 H 2157 7.57267 1.54165 0
M  V30 22803 H 2155.34 6.80892 1.39325 0
M  V30 22804 H 2158.53 4.51902 1.22074 0
M  V30 22805 H 2158.71 6.3169 1.44469 0
M  V30 22806 N 2152.11 -0.560755 1.47286 0
M  V30 22807 C 2153.39 -1.32148 1.4421 0
M  V30 22808 C 2153.77 -2.10654 0.137154 0
M  V30 22809 O 2153.12 -2.10818 -0.88136 0
M  V30 22810 C 2153.33 -2.22899 2.68546 0
M  V30 22811 C 2154.68 -2.84031 3.15613 0
M  V30 22812 O 2155.7 -2.33202 2.69249 0
M  V30 22813 O 2154.56 -3.76408 3.96206 0
M  V30 22814 H 2151.65 -0.594853 0.574525 0
M  V30 22815 H 2154.2 -0.579952 1.59482 0
M  V30 22816 H 2152.97 -1.64465 3.55059 0
M  V30 22817 H 2152.59 -3.04353 2.55842 0
M  V30 22818 N 2153.59 -1.35359 -0.807199 0
M  V30 22819 C 2154.52 -1.30893 -1.93363 0
M  V30 22820 C 2155.5 -0.183475 -1.69108 0
M  V30 22821 O 2156.69 -0.378339 -1.90479 0
M  V30 22822 C 2153.82 -1.07954 -3.30096 0
M  V30 22823 C 2152.77 -2.17133 -3.68832 0
M  V30 22824 C 2152.1 -1.7936 -5.0372 0
M  V30 22825 C 2153.4 -3.59094 -3.79274 0
M  V30 22826 H 2155.09 -2.25145 -1.97357 0
M  V30 22827 H 2152.64 -1.08381 -0.948131 0
M  V30 22828 H 2154.59 -1.03469 -4.085 0
M  V30 22829 H 2153.31 -0.101468 -3.26442 0
M  V30 22830 H 2151.97 -2.20714 -2.92713 0
M  V30 22831 H 2151.62 -0.801733 -4.96569 0
M  V30 22832 H 2151.32 -2.52445 -5.30608 0
M  V30 22833 H 2152.85 -1.764 -5.84564 0
M  V30 22834 H 2154.26 -3.57839 -4.47911 0
M  V30 22835 H 2152.66 -4.30934 -4.17632 0
M  V30 22836 H 2153.73 -3.9529 -2.80845 0
M  V30 22837 N 2155.07 1.02928 -1.19346 0
M  V30 22838 C 2156.02 2.1331 -0.927441 0
M  V30 22839 C 2157.01 1.68998 0.116575 0
M  V30 22840 O 2158.22 1.7997 -0.0326311 0
M  V30 22841 H 2154.59 0.696916 -0.282511 0
M  V30 22842 H 2156.56 2.32939 -1.865 0
M  V30 22843 C 2155.31 3.4434 -0.482194 0
M  V30 22844 H 2154.64 3.78854 -1.27709 0
M  V30 22845 H 2156.08 4.22673 -0.335159 0
M  V30 22846 C 2154.53 3.27174 0.803669 0
M  V30 22847 O 2155.06 3.55772 1.86519 0
M  V30 22848 N 2153.27 2.80466 0.760745 0
M  V30 22849 H 2152.82 2.57393 -0.103346 0
M  V30 22850 H 2152.78 2.69361 1.62149 0
M  V30 22851 N 2156.55 0.997319 1.2203 0
M  V30 22852 C 2157.8 0.671095 1.90208 0
M  V30 22853 C 2158.11 -0.800818 1.78455 0
M  V30 22854 O 2159.32 -1.23881 2.4159 0
M  V30 22855 C 2157.77 1.14983 3.41038 0
M  V30 22856 C 2157.38 2.64727 3.61419 0
M  V30 22857 C 2159.12 0.898134 4.1489 0
M  V30 22858 C 2157.03 3.06181 5.05972 0
M  V30 22859 H 2155.96 0.247312 0.712287 0
M  V30 22860 H 2158.61 1.20747 1.38176 0
M  V30 22861 H 2156.99 0.541553 3.92279 0
M  V30 22862 H 2158.17 3.30938 3.2065 0
M  V30 22863 H 2156.48 2.87827 3.00906 0
M  V30 22864 H 2159.08 1.18349 5.21438 0
M  V30 22865 H 2159.42 -0.165703 4.1597 0
M  V30 22866 H 2159.96 1.46882 3.6969 0
M  V30 22867 H 2156.69 4.11759 5.10034 0
M  V30 22868 H 2156.21 2.44676 5.47625 0
M  V30 22869 H 2157.89 2.97729 5.74427 0
M  V30 22870 N 2158.03 -1.37449 0.771075 0
M  V30 22871 C 2158.99 -2.28619 0.163149 0
M  V30 22872 C 2159.99 -1.47996 -0.628787 0
M  V30 22873 O 2161.18 -1.68221 -0.452475 0
M  V30 22874 C 2158.31 -3.31942 -0.776372 0
M  V30 22875 H 2159.5 -2.83888 0.966816 0
M  V30 22876 H 2157.06 -1.46703 0.53924 0
M  V30 22877 H 2157.79 -2.81794 -1.60507 0
M  V30 22878 H 2157.58 -3.91534 -0.210683 0
M  V30 22879 H 2159.07 -4.00072 -1.19717 0
M  V30 22880 N 2159.5 -0.52156 -1.4872 0
M  V30 22881 C 2160.45 0.259278 -2.3115 0
M  V30 22882 C 2161.45 0.943463 -1.40695 0
M  V30 22883 O 2162.65 0.868807 -1.57644 0
M  V30 22884 H 2159.03 0.10248 -0.744984 0
M  V30 22885 H 2161 -0.455653 -2.94901 0
M  V30 22886 C 2159.75 1.29841 -3.22547 0
M  V30 22887 H 2159.07 0.781352 -3.9209 0
M  V30 22888 H 2160.51 1.81634 -3.83125 0
M  V30 22889 C 2158.97 2.32757 -2.43569 0
M  V30 22890 O 2159.5 3.39036 -2.15448 0
M  V30 22891 N 2157.71 2.05753 -2.05217 0
M  V30 22892 H 2157.25 1.19343 -2.28287 0
M  V30 22893 H 2157.21 2.74836 -1.52685 0
M  V30 22894 N 2160.98 1.55502 -0.256304 0
M  V30 22895 C 2162.21 2.04025 0.372624 0
M  V30 22896 C 2162.63 1.13408 1.50067 0
M  V30 22897 O 2161.99 0.128888 1.80841 0
M  V30 22898 C 2162.04 3.50465 0.848906 0
M  V30 22899 O 2161.14 3.62969 1.95774 0
M  V30 22900 H 2160.48 0.659174 0.0799143 0
M  V30 22901 H 2163.01 2.00943 -0.385109 0
M  V30 22902 H 2163.02 3.91468 1.14965 0
M  V30 22903 H 2161.7 4.15893 0.0234786 0
M  V30 22904 H 2160.28 3.33865 1.66098 0
M  V30 22905 N 2162.46 -0.0166879 1.57591 0
M  V30 22906 C 2163.71 -0.704094 1.89012 0
M  V30 22907 C 2164.02 -1.75854 0.856437 0
M  V30 22908 O 2165.23 -2.4994 1.06029 0
M  V30 22909 C 2163.68 -1.30343 3.35468 0
M  V30 22910 C 2163.29 -0.284687 4.47095 0
M  V30 22911 C 2165.04 -1.96999 3.76021 0
M  V30 22912 C 2162.94 -0.893068 5.84618 0
M  V30 22913 H 2161.87 -0.266736 0.705243 0
M  V30 22914 H 2164.52 0.0411208 1.83454 0
M  V30 22915 H 2162.91 -2.09876 3.3581 0
M  V30 22916 H 2164.08 0.484835 4.58242 0
M  V30 22917 H 2162.4 0.280487 4.15454 0
M  V30 22918 H 2164.99 -2.43392 4.76093 0
M  V30 22919 H 2165.34 -2.79347 3.0866 0
M  V30 22920 H 2165.87 -1.24224 3.77906 0
M  V30 22921 H 2162.61 -0.108736 6.5541 0
M  V30 22922 H 2162.13 -1.63214 5.77167 0
M  V30 22923 H 2163.81 -1.39672 6.31744 0
M  V30 22924 N 2163.94 -1.54924 -0.289176 0
M  V30 22925 C 2165.19 -1.73974 -1.02059 0
M  V30 22926 C 2165.5 -0.539167 -1.88022 0
M  V30 22927 O 2166.71 -0.611723 -2.64519 0
M  V30 22928 C 2165.16 -3.07847 -1.86435 0
M  V30 22929 C 2164.77 -4.35421 -1.05417 0
M  V30 22930 C 2166.51 -3.36252 -2.59104 0
M  V30 22931 C 2164.42 -5.6034 -1.89138 0
M  V30 22932 H 2163.35 -0.648438 -0.384766 0
M  V30 22933 H 2166 -1.81397 -0.276999 0
M  V30 22934 H 2164.38 -2.94419 -2.64827 0
M  V30 22935 H 2165.56 -4.59718 -0.315551 0
M  V30 22936 H 2163.87 -4.14039 -0.442763 0
M  V30 22937 H 2166.47 -4.26785 -3.22115 0
M  V30 22938 H 2166.81 -2.55656 -3.28551 0
M  V30 22939 H 2167.35 -3.50705 -1.87753 0
M  V30 22940 H 2164.09 -6.43638 -1.2414 0
M  V30 22941 H 2163.61 -5.4021 -2.6064 0
M  V30 22942 H 2165.28 -5.98038 -2.46899 0
M  V30 22943 N 2165.42 0.552936 -1.47582 0
M  V30 22944 C 2166.64 1.33522 -1.58049 0
M  V30 22945 C 2167.06 1.87366 -0.232239 0
M  V30 22946 O 2166.42 1.6522 0.775159 0
M  V30 22947 C 2166.47 2.50216 -2.60911 0
M  V30 22948 O 2166.19 1.98596 -3.90502 0
M  V30 22949 C 2167.69 3.42367 -2.81602 0
M  V30 22950 H 2164.91 0.406868 -0.533572 0
M  V30 22951 H 2167.45 0.669389 -1.93234 0
M  V30 22952 H 2165.61 3.12728 -2.28648 0
M  V30 22953 H 2166.02 2.74809 -4.46744 0
M  V30 22954 H 2167.5 4.20653 -3.57429 0
M  V30 22955 H 2167.97 3.96177 -1.8958 0
M  V30 22956 H 2168.58 2.85666 -3.15079 0
M  V30 22957 N 2166.89 1.35785 0.800009 0
M  V30 22958 C 2168.14 1.28759 1.55255 0
M  V30 22959 C 2168.46 -0.134123 1.9514 0
M  V30 22960 O 2169.66 -0.3267 2.69527 0
M  V30 22961 C 2168.12 2.25848 2.80215 0
M  V30 22962 C 2167.73 3.73399 2.47542 0
M  V30 22963 C 2169.47 2.27777 3.58215 0
M  V30 22964 C 2167.38 4.62293 3.68834 0
M  V30 22965 H 2166.31 0.478422 0.582777 0
M  V30 22966 H 2168.96 1.61087 0.878812 0
M  V30 22967 H 2167.34 1.86499 3.49334 0
M  V30 22968 H 2168.51 4.21421 1.86389 0
M  V30 22969 H 2166.83 3.74142 1.82775 0
M  V30 22970 H 2169.43 2.91406 4.48315 0
M  V30 22971 H 2169.77 1.28334 3.96025 0
M  V30 22972 H 2170.3 2.65688 2.96065 0
M  V30 22973 H 2167.04 5.6276 3.36127 0
M  V30 22974 H 2166.56 4.18993 4.29191 0
M  V30 22975 H 2168.24 4.78042 4.35987 0
M  V30 22976 N 2168.37 -1.02294 1.19891 0
M  V30 22977 C 2169.62 -1.75196 0.999463 0
M  V30 22978 C 2169.93 -1.89874 -0.469823 0
M  V30 22979 O 2171.14 -2.59806 -0.788235 0
M  V30 22980 C 2169.6 -3.15074 1.73944 0
M  V30 22981 C 2169.2 -3.0843 3.24923 0
M  V30 22982 C 2170.95 -3.9223 1.62345 0
M  V30 22983 C 2168.86 -4.43277 3.91484 0
M  V30 22984 H 2167.79 -0.656782 0.370342 0
M  V30 22985 H 2170.44 -1.14434 1.43447 0
M  V30 22986 H 2168.82 -3.76339 1.23227 0
M  V30 22987 H 2169.99 -2.5651 3.82804 0
M  V30 22988 H 2168.31 -2.44769 3.36864 0
M  V30 22989 H 2170.9 -4.91983 2.09419 0
M  V30 22990 H 2171.25 -4.1226 0.578579 0
M  V30 22991 H 2171.78 -3.37579 2.1044 0
M  V30 22992 H 2168.52 -4.28451 4.96095 0
M  V30 22993 H 2168.04 -4.95228 3.38392 0
M  V30 22994 H 2169.72 -5.12142 3.95373 0
M  V30 22995 N 2169.85 -1.00378 -1.21499 0
M  V30 22996 C 2170.81 -0.568136 -2.22047 0
M  V30 22997 C 2171.81 0.354852 -1.56836 0
M  V30 22998 O 2173 0.145307 -1.73593 0
M  V30 22999 C 2170.14 0.172119 -3.40465 0
M  V30 23000 H 2171.33 -1.45747 -2.62103 0
M  V30 23001 H 2168.88 -0.792156 -1.34739 0
M  V30 23002 H 2169.62 1.07695 -3.05896 0
M  V30 23003 H 2169.4 -0.490752 -3.89017 0
M  V30 23004 H 2170.89 0.464705 -4.15006 0
M  V30 23005 N 2171.33 1.37038 -0.778354 0
M  V30 23006 C 2172.28 2.3207 -0.156991 0
M  V30 23007 C 2173.27 1.55262 0.677503 0
M  V30 23008 O 2174.48 1.70608 0.573826 0
M  V30 23009 H 2170.85 0.75132 -0.0319844 0
M  V30 23010 H 2172.82 2.82052 -0.974127 0
M  V30 23011 C 2171.57 3.40528 0.702542 0
M  V30 23012 H 2170.89 3.99739 0.0697802 0
M  V30 23013 H 2172.33 4.0937 1.10417 0
M  V30 23014 C 2170.79 2.81165 1.85602 0
M  V30 23015 O 2171.32 2.72442 2.95192 0
M  V30 23016 N 2169.53 2.38613 1.65868 0
M  V30 23017 H 2169.08 2.45907 0.767299 0
M  V30 23018 H 2169.03 1.99239 2.4321 0
M  V30 23019 N 2172.81 0.529439 1.48441 0
M  V30 23020 C 2174.06 -0.00685445 2.01699 0
M  V30 23021 C 2174.37 -1.35375 1.41184 0
M  V30 23022 O 2175.58 -1.97838 1.85937 0
M  V30 23023 C 2174.03 -0.0626135 3.59846 0
M  V30 23024 C 2173.64 1.27936 4.29344 0
M  V30 23025 C 2175.38 -0.547764 4.20951 0
M  V30 23026 C 2173.29 1.18421 5.79422 0
M  V30 23027 H 2172.22 -0.00633228 0.753973 0
M  V30 23028 H 2174.87 0.673137 1.70708 0
M  V30 23029 H 2173.25 -0.80767 3.87676 0
M  V30 23030 H 2174.43 2.03994 4.13187 0
M  V30 23031 H 2172.74 1.7002 3.80108 0
M  V30 23032 H 2175.34 -0.636907 5.30893 0
M  V30 23033 H 2175.68 -1.55341 3.86232 0
M  V30 23034 H 2176.22 0.141593 3.97548 0
M  V30 23035 H 2172.95 2.16499 6.18715 0
M  V30 23036 H 2172.47 0.464988 5.97995 0
M  V30 23037 H 2174.15 0.874656 6.41061 0
M  V30 23038 N 2174.29 -1.55364 0.264547 0
M  V30 23039 C 2175.53 -1.98537 -0.355827 0
M  V30 23040 C 2175.85 -1.15624 -1.57767 0
M  V30 23041 O 2177.05 -1.48892 -2.27032 0
M  V30 23042 C 2175.51 -3.53332 -0.684446 0
M  V30 23043 C 2175.12 -4.45007 0.516993 0
M  V30 23044 C 2176.86 -4.05119 -1.26803 0
M  V30 23045 C 2174.77 -5.91174 0.163548 0
M  V30 23046 H 2173.7 -0.7415 -0.136725 0
M  V30 23047 H 2176.35 -1.79782 0.367539 0
M  V30 23048 H 2174.73 -3.67848 -1.46643 0
M  V30 23049 H 2175.91 -4.42256 1.29406 0
M  V30 23050 H 2174.22 -4.03797 1.0167 0
M  V30 23051 H 2176.82 -5.11859 -1.5461 0
M  V30 23052 H 2177.16 -3.53519 -2.19841 0
M  V30 23053 H 2177.69 -3.93999 -0.548571 0
M  V30 23054 H 2174.43 -6.46848 1.06153 0
M  V30 23055 H 2173.95 -5.97019 -0.576966 0
M  V30 23056 H 2175.63 -6.46524 -0.248012 0
M  V30 23057 N 2175.76 0.00833021 -1.57598 0
M  V30 23058 C 2176.99 0.709778 -1.94877 0
M  V30 23059 C 2177.41 1.66973 -0.866121 0
M  V30 23060 O 2176.77 1.80439 0.176468 0
M  V30 23061 C 2176.82 1.42509 -3.31245 0
M  V30 23062 O 2175.92 2.53918 -3.2496 0
M  V30 23063 H 2175.26 0.189418 -0.636409 0
M  V30 23064 H 2177.79 -0.0423784 -2.04556 0
M  V30 23065 H 2177.8 1.79039 -3.66618 0
M  V30 23066 H 2176.48 0.72119 -4.09599 0
M  V30 23067 H 2175.06 2.19778 -3.01251 0
M  V30 23068 N 2177.24 1.55075 0.280956 0
M  V30 23069 C 2178.49 1.74513 1.01135 0
M  V30 23070 C 2178.8 0.549131 1.87734 0
M  V30 23071 O 2180.01 0.625743 2.64191 0
M  V30 23072 C 2178.47 3.08832 1.848 0
M  V30 23073 C 2178.07 4.35974 1.03106 0
M  V30 23074 C 2179.82 3.37621 2.57317 0
M  V30 23075 C 2177.72 5.61335 1.86163 0
M  V30 23076 H 2176.65 0.650469 0.381321 0
M  V30 23077 H 2179.31 1.81542 0.267376 0
M  V30 23078 H 2177.69 2.9582 2.63262 0
M  V30 23079 H 2178.86 4.59879 0.291167 0
M  V30 23080 H 2177.18 4.14268 0.4208 0
M  V30 23081 H 2179.77 4.28488 3.19847 0
M  V30 23082 H 2180.12 2.57395 3.27191 0
M  V30 23083 H 2180.65 3.51695 1.8589 0
M  V30 23084 H 2177.39 6.44287 1.20725 0
M  V30 23085 H 2176.91 5.41585 2.57771 0
M  V30 23086 H 2178.59 5.99339 2.43724 0
M  V30 23087 N 2178.72 -0.545102 1.47873 0
M  V30 23088 C 2179.68 -1.63324 1.60804 0
M  V30 23089 C 2180.68 -1.53397 0.482294 0
M  V30 23090 O 2181.87 -1.57338 0.747692 0
M  V30 23091 C 2179 -3.02906 1.56399 0
M  V30 23092 H 2180.2 -1.53204 2.57815 0
M  V30 23093 H 2177.75 -0.765983 1.36244 0
M  V30 23094 H 2178.49 -3.18548 0.608084 0
M  V30 23095 H 2178.27 -3.11521 2.38112 0
M  V30 23096 H 2179.76 -3.82048 1.6861 0
M  V30 23097 N 2180.2 -1.36208 -0.792797 0
M  V30 23098 C 2181.45 -1.29992 -1.54746 0
M  V30 23099 C 2181.77 0.121446 -1.94621 0
M  V30 23100 O 2181.04 1.06096 -1.64683 0
M  V30 23101 H 2179.62 -0.478184 -0.573889 0
M  V30 23102 H 2182.28 -1.70466 -0.944845 0
M  V30 23103 H 2181.37 -1.92505 -2.45658 0
M  V30 23104 N 2181.68 1.01656 -1.20431 0
M  V30 23105 C 2182.92 1.74663 -1.00874 0
M  V30 23106 C 2183.24 1.9012 0.459746 0
M  V30 23107 O 2184.44 2.6022 0.774445 0
M  V30 23108 C 2182.9 3.14147 -1.75612 0
M  V30 23109 C 2182.51 3.06703 -3.26554 0
M  V30 23110 C 2184.25 3.91364 -1.64422 0
M  V30 23111 C 2182.16 4.41194 -3.93829 0
M  V30 23112 H 2181.09 0.654809 -0.37382 0
M  V30 23113 H 2183.74 1.13672 -1.44052 0
M  V30 23114 H 2182.12 3.7568 -1.25221 0
M  V30 23115 H 2183.3 2.54477 -3.84159 0
M  V30 23116 H 2181.61 2.42979 -3.38157 0
M  V30 23117 H 2184.21 4.90866 -2.12026 0
M  V30 23118 H 2184.55 4.11947 -0.600434 0
M  V30 23119 H 2185.08 3.36459 -2.12227 0
M  V30 23120 H 2181.82 4.25814 -4.9836 0
M  V30 23121 H 2181.34 4.93427 -3.41013 0
M  V30 23122 H 2183.02 5.10038 -3.98084 0
M  V30 23123 N 2183.15 1.01021 1.20965 0
M  V30 23124 C 2184.4 0.691231 1.89486 0
M  V30 23125 C 2184.72 -0.781846 1.79295 0
M  V30 23126 O 2185.92 -1.21312 2.4289 0
M  V30 23127 C 2184.38 1.18593 3.39799 0
M  V30 23128 C 2183.99 2.68546 3.5859 0
M  V30 23129 C 2185.73 0.942088 4.13914 0
M  V30 23130 C 2183.64 3.1153 5.02696 0
M  V30 23131 H 2182.57 0.254853 0.709624 0
M  V30 23132 H 2185.22 1.22205 1.36887 0
M  V30 23133 H 2183.6 0.583129 3.91683 0
M  V30 23134 H 2184.77 3.3432 3.17122 0
M  V30 23135 H 2183.09 2.91002 2.97837 0
M  V30 23136 H 2185.69 1.23873 5.20153 0
M  V30 23137 H 2186.03 -0.121574 4.16122 0
M  V30 23138 H 2186.56 1.50794 3.68111 0
M  V30 23139 H 2183.3 4.17145 5.05638 0
M  V30 23140 H 2182.82 2.50471 5.44999 0
M  V30 23141 H 2184.5 3.03805 5.71237 0
M  V30 23142 N 2184.63 -1.36623 0.78561 0
M  V30 23143 C 2185.86 -2.03305 0.367534 0
M  V30 23144 C 2186.27 -1.59374 -1.01963 0
M  V30 23145 O 2185.61 -0.77687 -1.66464 0
M  V30 23146 C 2185.67 -3.57815 0.347627 0
M  V30 23147 C 2185.34 -4.24932 1.68172 0
M  V30 23148 C 2186.34 -4.48087 2.63656 0
M  V30 23149 C 2184.02 -4.62483 1.95997 0
M  V30 23150 C 2186.01 -5.07868 3.85161 0
M  V30 23151 C 2183.7 -5.21982 3.17771 0
M  V30 23152 C 2184.7 -5.44613 4.12172 0
M  V30 23153 O 2184.39 -6.02864 5.31799 0
M  V30 23154 H 2184.12 -0.659134 0.150061 0
M  V30 23155 H 2186.67 -1.75659 1.06456 0
M  V30 23156 H 2184.9 -3.84564 -0.405872 0
M  V30 23157 H 2186.59 -4.05875 -0.0452626 0
M  V30 23158 H 2187.36 -4.19476 2.43444 0
M  V30 23159 H 2183.24 -4.44194 1.2334 0
M  V30 23160 H 2186.78 -5.25448 4.58857 0
M  V30 23161 H 2182.68 -5.50018 3.37861 0
M  V30 23162 H 2183.45 -6.21333 5.32811 0
M  V30 23163 N 2186.11 -0.537304 -1.48158 0
M  V30 23164 C 2187.36 -0.00384223 -2.017 0
M  V30 23165 C 2187.67 1.34625 -1.419 0
M  V30 23166 O 2188.88 1.96849 -1.86983 0
M  V30 23167 C 2187.33 0.0435291 -3.59874 0
M  V30 23168 C 2186.94 -1.30211 -4.2866 0
M  V30 23169 C 2188.69 0.525433 -4.21236 0
M  V30 23170 C 2186.59 -1.21492 -5.78786 0
M  V30 23171 H 2185.52 0.00233368 -0.753996 0
M  V30 23172 H 2188.17 -0.682181 -1.70348 0
M  V30 23173 H 2186.56 0.7871 -3.88099 0
M  V30 23174 H 2187.73 -2.06182 -4.12099 0
M  V30 23175 H 2186.04 -1.72034 -3.79201 0
M  V30 23176 H 2188.64 0.608744 -5.31223 0
M  V30 23177 H 2188.98 1.5329 -3.8705 0
M  V30 23178 H 2189.52 -0.162674 -3.97467 0
M  V30 23179 H 2186.26 -2.19778 -6.17558 0
M  V30 23180 H 2185.78 -0.496694 -5.9774 0
M  V30 23181 H 2187.46 -0.908641 -6.40588 0
M  V30 23182 N 2187.59 1.55221 -0.272782 0
M  V30 23183 C 2188.84 1.98722 0.345293 0
M  V30 23184 C 2189.15 1.16459 1.57151 0
M  V30 23185 O 2190.36 1.50094 2.26239 0
M  V30 23186 C 2188.81 3.5369 0.665698 0
M  V30 23187 C 2188.42 4.44727 -0.540586 0
M  V30 23188 C 2190.16 4.05786 1.24653 0
M  V30 23189 C 2188.07 5.91079 -0.194898 0
M  V30 23190 H 2187 0.742215 0.132791 0
M  V30 23191 H 2189.65 1.79584 -0.377069 0
M  V30 23192 H 2188.03 3.6862 1.4469 0
M  V30 23193 H 2189.21 4.41564 -1.3175 0
M  V30 23194 H 2187.52 4.03252 -1.0381 0
M  V30 23195 H 2190.12 5.12672 1.51893 0
M  V30 23196 H 2190.46 3.5468 2.17963 0
M  V30 23197 H 2191 3.94285 0.527668 0
M  V30 23198 H 2187.74 6.46276 -1.09582 0
M  V30 23199 H 2187.26 5.97316 0.545296 0
M  V30 23200 H 2188.93 6.46647 0.213722 0
M  V30 23201 N 2189.07 2.77022e-05 1.576 0
M  V30 23202 C 2190.3 -0.69479 1.94567 0
M  V30 23203 C 2190.7 -1.67836 0.873374 0
M  V30 23204 O 2190.05 -1.83034 -0.156298 0
M  V30 23205 C 2190.11 -1.48224 3.27521 0
M  V30 23206 C 2189.77 -0.660251 4.52205 0
M  V30 23207 C 2190.77 0.0520805 5.19874 0
M  V30 23208 C 2188.46 -0.606213 4.98628 0
M  V30 23209 C 2190.45 0.807435 6.32265 0
M  V30 23210 C 2188.14 0.152866 6.10909 0
M  V30 23211 C 2189.13 0.858424 6.77584 0
M  V30 23212 O 2188.82 1.60512 7.87713 0
M  V30 23213 H 2188.55 -0.198468 0.646209 0
M  V30 23214 H 2191.11 0.0472739 2.05346 0
M  V30 23215 H 2189.34 -2.26878 3.1315 0
M  V30 23216 H 2191.03 -2.0624 3.496 0
M  V30 23217 H 2191.79 0.0194852 4.84996 0
M  V30 23218 H 2187.67 -1.14492 4.46556 0
M  V30 23219 H 2191.22 1.35868 6.84241 0
M  V30 23220 H 2187.11 0.187282 6.45228 0
M  V30 23221 H 2187.88 1.52183 8.04228 0
M  V30 23222 N 2190.54 -1.55222 -0.272728 0
M  V30 23223 C 2191.49 -1.88121 -1.33713 0
M  V30 23224 C 2192.46 -0.732736 -1.49064 0
M  V30 23225 O 2193.65 -0.98403 -1.63467 0
M  V30 23226 C 2190.79 -2.15886 -2.69234 0
M  V30 23227 C 2189.9 -3.43404 -2.62102 0
M  V30 23228 C 2189.03 -3.60868 -3.89804 0
M  V30 23229 C 2188.07 -4.82077 -3.77184 0
M  V30 23230 N 2187.21 -4.96198 -4.96722 0
M  V30 23231 H 2192.05 -2.78905 -1.04957 0
M  V30 23232 H 2189.59 -1.38084 -0.507063 0
M  V30 23233 H 2191.55 -2.29984 -3.48085 0
M  V30 23234 H 2190.18 -1.28337 -2.96192 0
M  V30 23235 H 2189.23 -3.37776 -1.74961 0
M  V30 23236 H 2190.54 -4.3239 -2.48677 0
M  V30 23237 H 2189.69 -3.74785 -4.77096 0
M  V30 23238 H 2188.43 -2.70068 -4.06097 0
M  V30 23239 H 2187.44 -4.68164 -2.88276 0
M  V30 23240 H 2188.66 -5.74313 -3.62411 0
M  V30 23241 H 2186.61 -4.08328 -5.13424 0
M  V30 23242 H 2186.53 -5.7923 -4.85828 0
M  V30 23243 H 2187.79 -5.145 -5.85585 0
M  V30 23244 N 2192.02 0.537252 -1.4816 0
M  V30 23245 C 2192.95 1.65187 -1.65032 0
M  V30 23246 C 2193.93 1.62607 -0.499309 0
M  V30 23247 O 2195.12 1.79917 -0.731003 0
M  V30 23248 C 2192.25 3.03792 -1.68308 0
M  V30 23249 C 2191.2 3.21229 -2.82836 0
M  V30 23250 C 2190.53 4.60821 -2.71197 0
M  V30 23251 C 2191.83 3.04693 -4.24216 0
M  V30 23252 H 2193.52 1.51323 -2.58344 0
M  V30 23253 H 2191.07 0.726563 -1.24326 0
M  V30 23254 H 2193.02 3.81634 -1.787 0
M  V30 23255 H 2191.75 3.18662 -0.715691 0
M  V30 23256 H 2190.4 2.45802 -2.71987 0
M  V30 23257 H 2190.05 4.72517 -1.72443 0
M  V30 23258 H 2189.75 4.73434 -3.48043 0
M  V30 23259 H 2191.28 5.40772 -2.83546 0
M  V30 23260 H 2192.69 3.72334 -4.35936 0
M  V30 23261 H 2191.09 3.28804 -5.02004 0
M  V30 23262 H 2192.16 2.01201 -4.41187 0
M  V30 23263 N 2193.5 1.36626 0.785562 0
M  V30 23264 C 2194.75 1.3107 1.5436 0
M  V30 23265 C 2195.08 -0.108896 1.94195 0
M  V30 23266 O 2194.33 -1.07905 1.63264 0
M  V30 23267 C 2194.63 2.18275 2.83003 0
M  V30 23268 C 2194.3 3.66765 2.62287 0
M  V30 23269 C 2192.96 4.07235 2.56346 0
M  V30 23270 C 2195.31 4.60895 2.43363 0
M  V30 23271 C 2192.64 5.39971 2.29451 0
M  V30 23272 C 2194.99 5.93853 2.17994 0
M  V30 23273 C 2193.65 6.33444 2.10489 0
M  V30 23274 H 2192.92 0.479619 0.564842 0
M  V30 23275 H 2195.57 1.68713 0.905999 0
M  V30 23276 H 2193.88 1.73582 3.5125 0
M  V30 23277 H 2195.57 2.11298 3.40814 0
M  V30 23278 H 2192.16 3.34661 2.67769 0
M  V30 23279 H 2196.35 4.30498 2.46952 0
M  V30 23280 H 2191.6 5.69623 2.22125 0
M  V30 23281 H 2195.78 6.66355 2.02347 0
M  V30 23282 H 2193.4 7.36225 1.89412 0
M  V30 23283 N 2194.98 -1.01016 1.20969 0
M  V30 23284 C 2196.22 -1.7625 1.03514 0
M  V30 23285 C 2196.58 -1.87247 -0.424547 0
M  V30 23286 O 2197.78 -2.58993 -0.719463 0
M  V30 23287 C 2196.05 -3.13983 1.70731 0
M  V30 23288 S 2197.61 -4.05173 1.68465 0
M  V30 23289 H 2194.43 -0.606502 0.371048 0
M  V30 23290 H 2197.03 -1.20905 1.5363 0
M  V30 23291 H 2195.74 -3.0361 2.76133 0
M  V30 23292 H 2195.27 -3.74403 1.20774 0
M  V30 23293 H 2197.28 -4.90918 0.722074 0
M  V30 23294 N 2196.46 -1.01661 -1.20428 0
M  V30 23295 C 2197.68 -0.724976 -1.94316 0
M  V30 23296 C 2198.11 0.708003 -1.74267 0
M  V30 23297 O 2197.46 1.48717 -1.03696 0
M  V30 23298 C 2197.51 -1.06597 -3.44484 0
M  V30 23299 O 2196.62 -0.177671 -4.12017 0
M  V30 23300 H 2195.96 -0.268991 -0.607075 0
M  V30 23301 H 2198.49 -1.35998 -1.52858 0
M  V30 23302 H 2198.5 -1.01769 -3.95104 0
M  V30 23303 H 2197.17 -2.11003 -3.584 0
M  V30 23304 H 2195.75 -0.283486 -3.71821 0
M  V30 23305 N 2197.93 1.36205 -0.792844 0
M  V30 23306 C 2198.86 2.32573 -0.207894 0
M  V30 23307 C 2199.85 1.56815 0.659028 0
M  V30 23308 O 2201.03 1.84952 0.592143 0
M  V30 23309 C 2198.16 3.4106 0.655389 0
M  V30 23310 C 2197.11 4.27854 -0.111917 0
M  V30 23311 C 2196.44 5.27539 0.872181 0
M  V30 23312 C 2197.74 5.05784 -1.30308 0
M  V30 23313 H 2199.43 2.81743 -1.01299 0
M  V30 23314 H 2196.98 1.35459 -0.488564 0
M  V30 23315 H 2198.93 4.07469 1.07457 0
M  V30 23316 H 2197.66 2.90466 1.49323 0
M  V30 23317 H 2196.32 3.63005 -0.512116 0
M  V30 23318 H 2195.96 4.73217 1.70514 0
M  V30 23319 H 2195.66 5.86477 0.363188 0
M  V30 23320 H 2197.19 5.96821 1.28986 0
M  V30 23321 H 2198.6 5.65214 -0.959478 0
M  V30 23322 H 2197 5.7415 -1.7456 0
M  V30 23323 H 2198.07 4.37226 -2.0967 0
M  V30 23324 N 2199.41 0.545154 1.47871 0
M  V30 23325 C 2200.34 -0.246581 2.2787 0
M  V30 23326 C 2201.36 -0.890537 1.36284 0
M  V30 23327 O 2202.55 -0.76642 1.61209 0
M  V30 23328 C 2199.65 -1.36576 3.10161 0
M  V30 23329 C 2198.82 -0.820879 4.29628 0
M  V30 23330 C 2197.88 -1.82306 4.9361 0
M  V30 23331 O 2196.9 -1.37396 5.52369 0
M  V30 23332 N 2198.11 -3.15595 4.87217 0
M  V30 23333 H 2200.87 0.439591 2.96459 0
M  V30 23334 H 2198.43 0.380449 1.57366 0
M  V30 23335 H 2200.42 -2.03468 3.49833 0
M  V30 23336 H 2198.99 -1.95536 2.43894 0
M  V30 23337 H 2198.21 0.0244725 3.94192 0
M  V30 23338 H 2199.5 -0.435973 5.06929 0
M  V30 23339 H 2198.9 -3.54736 4.40657 0
M  V30 23340 H 2197.46 -3.78078 5.30943 0
M  V30 23341 N 2200.89 -1.55074 0.28101 0
M  V30 23342 C 2202.14 -1.99331 -0.33342 0
M  V30 23343 C 2202.46 -1.17087 -1.55934 0
M  V30 23344 O 2201.73 -0.261839 -1.94142 0
M  V30 23345 H 2200.31 -0.736265 -0.126184 0
M  V30 23346 H 2202.97 -1.91005 0.387712 0
M  V30 23347 H 2202.07 -3.05895 -0.619238 0
M  V30 23348 N 2202.37 -0.00838561 -1.57598 0
M  V30 23349 C 2203.78 0.533299 -1.78921 0
M  V30 23350 C 2204.13 1.73471 -0.916639 0
M  V30 23351 O 2203.26 2.16059 -0.121374 0
M  V30 23352 C 2203.85 0.974256 -3.2449 0
M  V30 23353 C 2202.41 1.46119 -3.46881 0
M  V30 23354 C 2201.56 0.416254 -2.74158 0
M  V30 23355 H 2204.51 -0.234523 -1.56958 0
M  V30 23356 H 2204.53 1.83982 -3.33063 0
M  V30 23357 H 2204.04 0.0996498 -3.87972 0
M  V30 23358 H 2202.14 2.35641 -2.88624 0
M  V30 23359 H 2202.26 1.48287 -4.55574 0
M  V30 23360 H 2200.62 0.879768 -2.39023 0
M  V30 23361 H 2201.4 -0.44953 -3.40344 0
M  V30 23362 N 2203.85 1.55365 0.264492 0
M  V30 23363 C 2205.08 1.80145 1.0115 0
M  V30 23364 C 2205.49 0.579285 1.80114 0
M  V30 23365 O 2204.83 -0.461288 1.77814 0
M  V30 23366 C 2204.89 2.97997 2.01093 0
M  V30 23367 C 2204.55 4.34709 1.40988 0
M  V30 23368 C 2205.55 5.13373 0.821226 0
M  V30 23369 C 2203.24 4.8138 1.43452 0
M  V30 23370 C 2205.23 6.36848 0.265227 0
M  V30 23371 C 2202.92 6.04808 0.874665 0
M  V30 23372 C 2203.92 6.8238 0.291026 0
M  V30 23373 O 2203.6 8.03479 -0.260235 0
M  V30 23374 H 2203.34 0.603731 0.304114 0
M  V30 23375 H 2205.89 2.03226 0.298053 0
M  V30 23376 H 2204.12 2.70628 2.7622 0
M  V30 23377 H 2205.81 3.10025 2.61991 0
M  V30 23378 H 2206.57 4.78443 0.794819 0
M  V30 23379 H 2202.45 4.21005 1.87819 0
M  V30 23380 H 2206 6.97339 -0.190959 0
M  V30 23381 H 2201.89 6.39218 0.89834 0
M  V30 23382 H 2202.66 8.18362 -0.150409 0
M  V30 23383 N 2205.33 -0.529387 1.48443 0
M  V30 23384 C 2206.55 -1.31468 1.60409 0
M  V30 23385 C 2206.98 -1.86227 0.264771 0
M  V30 23386 O 2206.33 -1.64433 -0.763639 0
M  V30 23387 C 2206.38 -2.44096 2.65423 0
M  V30 23388 O 2205.49 -3.47149 2.22624 0
M  V30 23389 H 2204.83 -0.389348 0.53787 0
M  V30 23390 H 2207.36 -0.636931 1.94433 0
M  V30 23391 H 2207.37 -2.90274 2.86715 0
M  V30 23392 H 2206.04 -2.03601 3.62656 0
M  V30 23393 H 2204.62 -3.07086 2.11548 0
M  V30 23394 N 2206.8 -1.37041 -0.778305 0
M  V30 23395 C 2208.05 -1.31626 -1.53359 0
M  V30 23396 C 2208.37 0.100797 -1.94739 0
M  V30 23397 O 2207.64 1.04344 -1.65799 0
M  V30 23398 H 2206.22 -0.484244 -0.568785 0
M  V30 23399 H 2208.88 -1.71459 -0.926712 0
M  V30 23400 H 2207.98 -1.951 -2.43603 0
M  V30 23401 N 2208.28 1.00373 -1.21503 0
M  V30 23402 C 2209.19 2.12619 -0.991484 0
M  V30 23403 C 2210.21 1.73907 0.056814 0
M  V30 23404 O 2211.38 2.00957 -0.133516 0
M  V30 23405 C 2208.45 3.42141 -0.560372 0
M  V30 23406 C 2207.51 3.95019 -1.68103 0
M  V30 23407 C 2206.74 5.1836 -1.27039 0
M  V30 23408 O 2206.97 5.70217 -0.144538 0
M  V30 23409 O 2205.9 5.64715 -2.08279 0
M  V30 23410 H 2209.73 2.34354 -1.93162 0
M  V30 23411 H 2207.31 1.10995 -1.00002 0
M  V30 23412 H 2209.19 4.20107 -0.329798 0
M  V30 23413 H 2207.87 3.21791 0.351033 0
M  V30 23414 H 2206.77 3.18274 -1.96602 0
M  V30 23415 H 2208.11 4.19782 -2.56991 0
M  V30 23416 N 2209.76 1.02298 1.19887 0
M  V30 23417 C 2211.17 0.746598 1.71122 0
M  V30 23418 C 2211.52 -0.734303 1.81941 0
M  V30 23419 O 2210.65 -1.57272 1.48642 0
M  V30 23420 C 2211.24 1.34862 3.10802 0
M  V30 23421 C 2209.8 1.12096 3.59321 0
M  V30 23422 C 2208.95 1.45035 2.36347 0
M  V30 23423 H 2211.9 1.19165 1.04811 0
M  V30 23424 H 2211.92 0.742503 3.73185 0
M  V30 23425 H 2211.43 2.42643 3.02896 0
M  V30 23426 H 2209.53 0.0610992 3.7255 0
M  V30 23427 H 2209.65 1.80551 4.43777 0
M  V30 23428 H 2208.01 0.869529 2.39398 0
M  V30 23429 H 2208.79 2.53887 2.31076 0
M  V30 23430 N 2211.24 -1.35782 0.800057 0
M  V30 23431 C 2212.18 -2.29898 0.203888 0
M  V30 23432 C 2213.15 -1.52496 -0.658348 0
M  V30 23433 O 2214.34 -1.80961 -0.6048 0
M  V30 23434 C 2211.48 -3.38984 -0.64682 0
M  V30 23435 C 2210.59 -4.3136 0.23513 0
M  V30 23436 C 2209.73 -5.27534 -0.622961 0
M  V30 23437 C 2208.77 -6.11548 0.25979 0
M  V30 23438 N 2207.9 -6.9988 -0.557896 0
M  V30 23439 H 2212.74 -2.80294 1.01191 0
M  V30 23440 H 2210.28 -1.37956 0.510554 0
M  V30 23441 H 2212.24 -4.00889 -1.15514 0
M  V30 23442 H 2210.87 -2.89881 -1.42016 0
M  V30 23443 H 2209.92 -3.70516 0.861504 0
M  V30 23444 H 2211.23 -4.90339 0.914854 0
M  V30 23445 H 2210.39 -5.94781 -1.19667 0
M  V30 23446 H 2209.13 -4.69036 -1.33628 0
M  V30 23447 H 2208.13 -5.43255 0.845822 0
M  V30 23448 H 2209.36 -6.72124 0.970866 0
M  V30 23449 H 2207.3 -6.43877 -1.2553 0
M  V30 23450 H 2207.22 -7.55973 0.06392 0
M  V30 23451 H 2208.49 -7.71483 -1.11509 0
M  V30 23452 N 2212.72 -0.552988 -1.4758 0
M  V30 23453 C 2214.13 -0.118496 -1.86324 0
M  V30 23454 C 2214.48 1.31057 -1.46008 0
M  V30 23455 O 2213.6 1.98525 -0.861217 0
M  V30 23456 C 2214.2 -0.208269 -3.38159 0
M  V30 23457 C 2212.76 0.17116 -3.76011 0
M  V30 23458 C 2211.9 -0.557734 -2.71633 0
M  V30 23459 H 2214.85 -0.762953 -1.39157 0
M  V30 23460 H 2214.88 0.574212 -3.76142 0
M  V30 23461 H 2214.39 -1.24847 -3.67471 0
M  V30 23462 H 2212.49 1.21263 -3.52315 0
M  V30 23463 H 2212.6 -0.184463 -4.78745 0
M  V30 23464 H 2210.97 -0.00130269 -2.547 0
M  V30 23465 H 2211.75 -1.59901 -3.03787 0
M  V30 23466 N 2214.19 1.54923 -0.28923 0
M  V30 23467 C 2215.14 2.23076 0.592075 0
M  V30 23468 C 2216.11 1.20917 1.13879 0
M  V30 23469 O 2217.3 1.49502 1.18549 0
M  V30 23470 C 2214.44 2.96626 1.76371 0
M  V30 23471 C 2213.55 4.13535 1.24951 0
M  V30 23472 C 2212.68 4.74695 2.38407 0
M  V30 23473 C 2211.72 5.8377 1.84062 0
M  V30 23474 N 2210.86 6.38934 2.91045 0
M  V30 23475 H 2215.7 2.98 0.00426799 0
M  V30 23476 H 2213.24 1.47097 -0.00966114 0
M  V30 23477 H 2215.19 3.37494 2.45262 0
M  V30 23478 H 2213.82 2.24101 2.32333 0
M  V30 23479 H 2212.88 3.7769 0.453241 0
M  V30 23480 H 2214.19 4.92153 0.811576 0
M  V30 23481 H 2213.34 5.18355 3.15267 0
M  V30 23482 H 2212.08 3.95383 2.85523 0
M  V30 23483 H 2211.09 5.39546 1.05687 0
M  V30 23484 H 2212.31 6.64959 1.37865 0
M  V30 23485 H 2210.26 5.62511 3.37516 0
M  V30 23486 H 2210.17 7.12866 2.51712 0
M  V30 23487 H 2211.44 6.87252 3.67838 0
M  V30 23488 N 2215.67 0.0167433 1.57591 0
M  V30 23489 C 2216.9 -0.675094 1.95576 0
M  V30 23490 C 2217.31 -1.66369 0.892571 0
M  V30 23491 O 2216.67 -1.82058 -0.12688 0
M  V30 23492 C 2216.72 -1.39234 3.33611 0
M  V30 23493 O 2216.44 -0.443367 4.35851 0
M  V30 23494 C 2217.94 -2.17714 3.86155 0
M  V30 23495 H 2215.16 -0.186966 0.644426 0
M  V30 23496 H 2217.71 0.0728359 2.0437 0
M  V30 23497 H 2215.86 -2.09176 3.26074 0
M  V30 23498 H 2216.28 -0.951268 5.15801 0
M  V30 23499 H 2217.75 -2.63371 4.85118 0
M  V30 23500 H 2218.23 -3.01099 3.19744 0
M  V30 23501 H 2218.83 -1.52754 3.96921 0
M  V30 23502 N 2217.15 -1.55503 -0.256249 0
M  V30 23503 C 2218.1 -1.89528 -1.3171 0
M  V30 23504 C 2219.07 -0.748505 -1.48279 0
M  V30 23505 O 2220.25 -1.00131 -1.62414 0
M  V30 23506 C 2217.39 -2.1873 -2.66929 0
M  V30 23507 C 2216.51 -3.46165 -2.58445 0
M  V30 23508 C 2215.64 -3.64982 -3.85955 0
M  V30 23509 C 2214.68 -4.86051 -3.7205 0
M  V30 23510 N 2213.82 -5.01438 -4.91431 0
M  V30 23511 H 2218.66 -2.80003 -1.01993 0
M  V30 23512 H 2216.19 -1.38614 -0.492389 0
M  V30 23513 H 2218.15 -2.33663 -3.45626 0
M  V30 23514 H 2216.78 -1.31471 -2.94814 0
M  V30 23515 H 2215.83 -3.39613 -1.71368 0
M  V30 23516 H 2217.15 -4.35003 -2.44077 0
M  V30 23517 H 2216.3 -3.79824 -4.73095 0
M  V30 23518 H 2215.04 -2.7436 -4.0321 0
M  V30 23519 H 2214.04 -4.71195 -2.83294 0
M  V30 23520 H 2215.27 -5.78125 -3.56299 0
M  V30 23521 H 2213.21 -4.1375 -5.09065 0
M  V30 23522 H 2213.13 -5.8435 -4.79658 0
M  V30 23523 H 2214.4 -5.20682 -5.80095 0
M  V30 23524 N 2218.63 0.521507 -1.48721 0
M  V30 23525 C 2219.87 1.27876 -1.57403 0
M  V30 23526 C 2220.21 1.92573 -0.25085 0
M  V30 23527 O 2219.48 1.79712 0.743902 0
M  V30 23528 C 2219.77 2.36159 -2.71847 0
M  V30 23529 C 2219.62 1.76098 -4.13896 0
M  V30 23530 C 2220.94 3.3787 -2.82014 0
M  V30 23531 H 2218.06 0.463571 -0.572949 0
M  V30 23532 H 2220.7 0.580088 -1.80928 0
M  V30 23533 H 2218.85 2.95752 -2.51919 0
M  V30 23534 H 2220.52 1.20491 -4.45286 0
M  V30 23535 H 2218.76 1.06594 -4.205 0
M  V30 23536 H 2219.43 2.54541 -4.89809 0
M  V30 23537 H 2221.91 2.88244 -3.00091 0
M  V30 23538 H 2220.79 4.11021 -3.63803 0
M  V30 23539 H 2221.05 3.98943 -1.90518 0
M  V30 23540 N 2220.11 1.37452 0.771027 0
M  V30 23541 C 2221.52 1.29241 1.34735 0
M  V30 23542 C 2221.87 -0.0596564 1.96109 0
M  V30 23543 O 2220.99 -0.9615 1.93866 0
M  V30 23544 C 2221.59 2.34042 2.44969 0
M  V30 23545 C 2220.15 2.29463 2.98368 0
M  V30 23546 C 2219.29 2.17834 1.71592 0
M  V30 23547 H 2222.25 1.48063 0.57123 0
M  V30 23548 H 2222.27 1.98749 3.24467 0
M  V30 23549 H 2221.78 3.32436 2.0027 0
M  V30 23550 H 2219.88 1.34595 3.4744 0
M  V30 23551 H 2219.99 3.22906 3.53933 0
M  V30 23552 H 2218.36 1.64392 1.94544 0
M  V30 23553 H 2219.14 3.18143 1.28995 0
M  V30 23554 N 2221.58 -0.997276 1.22033 0
M  V30 23555 C 2222.49 -2.1209 1.00275 0
M  V30 23556 C 2223.51 -1.73935 -0.0475905 0
M  V30 23557 O 2224.69 -2.00883 0.144171 0
M  V30 23558 C 2221.75 -3.41839 0.578509 0
M  V30 23559 C 2220.81 -3.94122 1.70196 0
M  V30 23560 C 2220.05 -5.17679 1.29787 0
M  V30 23561 O 2220.27 -5.70132 0.174776 0
M  V30 23562 O 2219.2 -5.63603 2.11271 0
M  V30 23563 H 2223.03 -2.33327 1.94402 0
M  V30 23564 H 2220.61 -1.10464 1.00589 0
M  V30 23565 H 2222.5 -4.19927 0.352072 0
M  V30 23566 H 2221.17 -3.21973 -0.333962 0
M  V30 23567 H 2220.08 -3.17227 1.98287 0
M  V30 23568 H 2221.41 -4.18413 2.59213 0
M  V30 23569 N 2223.06 -1.02932 -1.19343 0
M  V30 23570 C 2224.48 -0.746471 -1.41067 0
M  V30 23571 C 2224.68 0.668742 -1.90079 0
M  V30 23572 O 2223.73 1.43467 -2.07783 0
M  V30 23573 C 2225.05 -1.78296 -2.42138 0
M  V30 23574 C 2226.6 -1.80256 -2.55884 0
M  V30 23575 C 2227.07 -2.82866 -3.60209 0
M  V30 23576 N 2228.56 -2.81686 -3.67706 0
M  V30 23577 C 2229.3 -3.57735 -4.48122 0
M  V30 23578 N 2228.79 -4.435 -5.3224 0
M  V30 23579 N 2230.59 -3.46275 -4.42776 0
M  V30 23580 H 2222.74 -1.94277 -0.858502 0
M  V30 23581 H 2225 -0.839953 -0.439527 0
M  V30 23582 H 2224.71 -2.7975 -2.1315 0
M  V30 23583 H 2224.58 -1.60563 -3.4132 0
M  V30 23584 H 2226.97 -0.794807 -2.84195 0
M  V30 23585 H 2227.05 -2.02065 -1.56854 0
M  V30 23586 H 2226.69 -3.83813 -3.32641 0
M  V30 23587 H 2226.62 -2.58315 -4.58891 0
M  V30 23588 H 2229.11 -2.19482 -3.0763 0
M  V30 23589 H 2229.43 -4.98266 -5.9072 0
M  V30 23590 H 2227.77 -4.47573 -5.31699 0
M  V30 23591 H 2230.96 -2.78684 -3.76102 0
M  V30 23592 H 2231.13 -4.05794 -5.05208 0
M  V30 23593 N 2224.54 1.35356 -0.807246 0
M  V30 23594 C 2225.96 1.51858 -0.491064 0
M  V30 23595 C 2226.16 1.75637 0.987617 0
M  V30 23596 O 2225.21 1.79818 1.77262 0
M  V30 23597 C 2226.53 2.69342 -1.337 0
M  V30 23598 C 2228.07 2.83219 -1.33251 0
M  V30 23599 C 2228.55 4.03729 -2.16257 0
M  V30 23600 N 2230.04 4.10908 -2.13797 0
M  V30 23601 C 2230.77 5.03272 -2.74781 0
M  V30 23602 N 2230.27 6.00964 -3.44694 0
M  V30 23603 N 2232.06 4.96023 -2.64419 0
M  V30 23604 H 2224.21 1.18178 -1.76487 0
M  V30 23605 H 2226.48 0.578263 -0.75121 0
M  V30 23606 H 2226.18 2.5835 -2.38639 0
M  V30 23607 H 2226.06 3.63958 -0.990682 0
M  V30 23608 H 2228.44 2.93662 -0.290963 0
M  V30 23609 H 2228.53 1.89458 -1.7187 0
M  V30 23610 H 2228.17 3.94047 -3.20452 0
M  V30 23611 H 2228.1 4.96672 -1.74998 0
M  V30 23612 H 2230.59 3.40973 -1.62929 0
M  V30 23613 H 2230.9 6.6804 -3.88513 0
M  V30 23614 H 2229.25 6.01136 -3.48799 0
M  V30 23615 H 2232.44 4.18658 -2.09387 0
M  V30 23616 H 2232.61 5.67814 -3.12235 0
M  V30 23617 N 2226.02 0.560807 1.47284 0
M  V30 23618 C 2227.26 0.038154 2.02764 0
M  V30 23619 C 2227.6 -1.30973 1.43386 0
M  V30 23620 O 2226.87 -1.85311 0.590766 0
M  V30 23621 C 2227.16 -0.0510795 3.60064 0
M  V30 23622 C 2227.01 1.32416 4.29868 0
M  V30 23623 C 2228.33 -0.762719 4.3344 0
M  V30 23624 H 2225.45 0.0153393 0.73684 0
M  V30 23625 H 2228.09 0.723789 1.75674 0
M  V30 23626 H 2226.24 -0.634998 3.83275 0
M  V30 23627 H 2227.91 1.95155 4.17986 0
M  V30 23628 H 2226.15 1.89787 3.90081 0
M  V30 23629 H 2226.82 1.2144 5.38476 0
M  V30 23630 H 2229.3 -0.266892 4.15243 0
M  V30 23631 H 2228.18 -0.794125 5.43125 0
M  V30 23632 H 2228.44 -1.81959 4.02919 0
M  V30 23633 N 2227.5 -1.54768 0.297442 0
M  V30 23634 C 2228.74 -2.00365 -0.313341 0
M  V30 23635 C 2229.08 -1.18555 -1.53812 0
M  V30 23636 O 2228.35 -0.261137 -1.92739 0
M  V30 23637 C 2228.63 -3.53746 -0.673463 0
M  V30 23638 C 2228.49 -4.46298 0.560211 0
M  V30 23639 C 2229.81 -4.137 -1.50136 0
M  V30 23640 H 2226.92 -0.728376 -0.112415 0
M  V30 23641 H 2229.57 -1.85549 0.408833 0
M  V30 23642 H 2227.72 -3.66502 -1.28874 0
M  V30 23643 H 2229.39 -4.45453 1.19871 0
M  V30 23644 H 2227.63 -4.17041 1.19412 0
M  V30 23645 H 2228.3 -5.51368 0.264147 0
M  V30 23646 H 2230.78 -4.04358 -0.981517 0
M  V30 23647 H 2229.65 -5.21186 -1.72212 0
M  V30 23648 H 2229.92 -3.65347 -2.48945 0
M  V30 23649 N 2228.97 -0.0251005 -1.5758 0
M  V30 23650 C 2229.94 0.943102 -2.08898 0
M  V30 23651 C 2230.94 1.25666 -1.00323 0
M  V30 23652 O 2232.13 1.19767 -1.26498 0
M  V30 23653 C 2229.26 2.26081 -2.55147 0
M  V30 23654 H 2230.45 0.498723 -2.95724 0
M  V30 23655 H 2228.01 0.22286 -1.54703 0
M  V30 23656 H 2228.74 2.75156 -1.71638 0
M  V30 23657 H 2228.53 2.04636 -3.34465 0
M  V30 23658 H 2230.02 2.95487 -2.95089 0
M  V30 23659 N 2230.45 1.55637 0.247999 0
M  V30 23660 C 2231.38 1.86672 1.3299 0
M  V30 23661 C 2232.4 0.752903 1.44344 0
M  V30 23662 O 2233.59 1.03101 1.45714 0
M  V30 23663 C 2230.69 2.03687 2.7086 0
M  V30 23664 C 2229.86 3.34537 2.81786 0
M  V30 23665 C 2228.92 3.41308 4.00494 0
M  V30 23666 O 2227.94 4.14526 3.90073 0
M  V30 23667 N 2229.15 2.70521 5.13613 0
M  V30 23668 H 2231.91 2.80062 1.06702 0
M  V30 23669 H 2229.47 1.5586 0.438101 0
M  V30 23670 H 2231.46 2.05559 3.48608 0
M  V30 23671 H 2230.03 1.17046 2.8986 0
M  V30 23672 H 2229.25 3.44991 1.90723 0
M  V30 23673 H 2230.54 4.20786 2.86036 0
M  V30 23674 H 2229.94 2.10765 5.24971 0
M  V30 23675 H 2228.5 2.78087 5.895 0
M  V30 23676 N 2231.93 -0.513613 1.48996 0
M  V30 23677 C 2233.18 -1.26601 1.57533 0
M  V30 23678 C 2233.5 -1.93282 0.25827 0
M  V30 23679 O 2232.77 -1.82131 -0.72147 0
M  V30 23680 H 2231.35 -0.470266 0.580396 0
M  V30 23681 H 2234.01 -0.596341 1.85553 0
M  V30 23682 H 2233.11 -2.03664 2.36489 0
M  V30 23683 N 2233.41 -1.37859 -0.763727 0
M  V30 23684 C 2234.82 -1.29954 -1.34048 0
M  V30 23685 C 2235.17 0.0492554 -1.96138 0
M  V30 23686 O 2234.3 0.951205 -1.94373 0
M  V30 23687 C 2234.89 -2.35338 -2.43725 0
M  V30 23688 C 2233.45 -2.31043 -2.97147 0
M  V30 23689 C 2232.6 -2.18741 -1.70434 0
M  V30 23690 H 2235.55 -1.48364 -0.56337 0
M  V30 23691 H 2235.57 -2.00467 -3.23409 0
M  V30 23692 H 2235.08 -3.33493 -1.98505 0
M  V30 23693 H 2233.18 -1.36436 -3.46722 0
M  V30 23694 H 2233.3 -3.24778 -3.52215 0
M  V30 23695 H 2231.66 -1.65421 -1.9367 0
M  V30 23696 H 2232.44 -3.18823 -1.27306 0
M  V30 23697 N 2234.89 0.990791 -1.22561 0
M  V30 23698 C 2235.8 2.11555 -1.01398 0
M  V30 23699 C 2236.81 1.73958 0.0383656 0
M  V30 23700 O 2237.99 2.00804 -0.154822 0
M  V30 23701 C 2235.05 3.41528 -0.596629 0
M  V30 23702 C 2234.12 3.93214 -1.72283 0
M  V30 23703 C 2233.35 5.16983 -1.3253 0
M  V30 23704 O 2233.57 5.70031 -0.205009 0
M  V30 23705 O 2232.51 5.62475 -2.14257 0
M  V30 23706 H 2236.33 2.32293 -1.95637 0
M  V30 23707 H 2233.92 1.09929 -1.01174 0
M  V30 23708 H 2235.8 4.19734 -0.374337 0
M  V30 23709 H 2234.47 3.22145 0.316883 0
M  V30 23710 H 2233.38 3.16171 -1.99967 0
M  V30 23711 H 2234.71 4.17032 -2.61429 0
M  V30 23712 N 2236.37 1.03564 1.18795 0
M  V30 23713 C 2237.28 0.632544 2.25912 0
M  V30 23714 C 2238.29 -0.338852 1.70669 0
M  V30 23715 O 2239.47 -0.195041 2.00453 0
M  V30 23716 C 2236.53 -0.00344848 3.467 0
M  V30 23717 C 2235.59 1.01631 4.17097 0
M  V30 23718 C 2234.83 0.410571 5.32118 0
M  V30 23719 O 2235.05 -0.784626 5.64978 0
M  V30 23720 O 2233.98 1.13677 5.91068 0
M  V30 23721 H 2237.81 1.52483 2.62646 0
M  V30 23722 H 2235.39 0.806217 1.2578 0
M  V30 23723 H 2237.28 -0.357736 4.19879 0
M  V30 23724 H 2235.95 -0.869631 3.118 0
M  V30 23725 H 2234.86 1.4223 3.46008 0
M  V30 23726 H 2236.19 1.85309 4.55984 0
M  V30 23727 N 2237.84 -1.34926 0.814413 0
M  V30 23728 C 2238.75 -2.3345 0.232019 0
M  V30 23729 C 2239.77 -1.62229 -0.629111 0
M  V30 23730 O 2240.95 -1.94053 -0.539018 0
M  V30 23731 C 2238.01 -3.41408 -0.603422 0
M  V30 23732 C 2237.07 -4.28392 0.279113 0
M  V30 23733 C 2236.3 -5.31194 -0.51655 0
M  V30 23734 O 2236.53 -5.42873 -1.75058 0
M  V30 23735 O 2235.46 -6.01822 0.096671 0
M  V30 23736 H 2239.29 -2.85072 1.04726 0
M  V30 23737 H 2236.87 -1.37835 0.576367 0
M  V30 23738 H 2238.75 -4.07352 -1.07901 0
M  V30 23739 H 2237.43 -2.92044 -1.39613 0
M  V30 23740 H 2236.34 -3.65402 0.802013 0
M  V30 23741 H 2237.67 -4.81174 1.03596 0
M  V30 23742 N 2239.32 -0.56861 -1.46985 0
M  V30 23743 C 2240.57 -0.0488342 -2.02441 0
M  V30 23744 C 2240.9 1.30556 -1.44171 0
M  V30 23745 O 2240.15 1.86555 -0.591246 0
M  V30 23746 C 2240.45 0.0817731 -3.57306 0
M  V30 23747 C 2240.12 -1.2032 -4.3455 0
M  V30 23748 C 2238.78 -1.55528 -4.55373 0
M  V30 23749 C 2241.13 -2.05419 -4.79012 0
M  V30 23750 C 2238.46 -2.7566 -5.17908 0
M  V30 23751 C 2240.81 -3.24764 -5.42873 0
M  V30 23752 C 2239.47 -3.60271 -5.61926 0
M  V30 23753 H 2238.74 -0.0178697 -0.740784 0
M  V30 23754 H 2241.39 -0.742415 -1.76523 0
M  V30 23755 H 2239.7 0.858396 -3.82281 0
M  V30 23756 H 2241.39 0.499476 -3.97877 0
M  V30 23757 H 2237.98 -0.919088 -4.1863 0
M  V30 23758 H 2242.17 -1.79524 -4.62693 0
M  V30 23759 H 2237.42 -3.03324 -5.30852 0
M  V30 23760 H 2241.6 -3.90983 -5.76286 0
M  V30 23761 H 2239.22 -4.5345 -6.10153 0
M  V30 23762 N 2240.8 1.54608 -0.305646 0
M  V30 23763 C 2242.05 1.99836 0.301666 0
M  V30 23764 C 2242.37 1.19553 1.54052 0
M  V30 23765 O 2241.64 0.292692 1.93701 0
M  V30 23766 H 2240.22 0.73818 0.114455 0
M  V30 23767 H 2242.88 1.90364 -0.41805 0
M  V30 23768 H 2241.98 3.06842 0.570494 0
M  V30 23769 N 2242.28 0.033457 1.57564 0
M  V30 23770 C 2243.21 -0.98183 2.05998 0
M  V30 23771 C 2244.19 -1.31478 0.956671 0
M  V30 23772 O 2245.37 -1.43071 1.22732 0
M  V30 23773 C 2242.5 -2.30069 2.48568 0
M  V30 23774 C 2241.55 -2.12204 3.69962 0
M  V30 23775 S 2242.38 -1.41683 5.16417 0
M  V30 23776 C 2243.53 -2.7493 5.62285 0
M  V30 23777 H 2243.77 -0.56956 2.91793 0
M  V30 23778 H 2241.3 -0.178349 1.53366 0
M  V30 23779 H 2243.26 -3.05887 2.73758 0
M  V30 23780 H 2241.92 -2.68428 1.63111 0
M  V30 23781 H 2241.11 -3.09715 3.97609 0
M  V30 23782 H 2240.71 -1.44529 3.44946 0
M  V30 23783 H 2243.01 -3.71155 5.66789 0
M  V30 23784 H 2243.95 -2.51942 6.61764 0
M  V30 23785 H 2244.36 -2.80376 4.89949 0
M  V30 23786 N 2243.76 -1.55766 -0.239741 0
M  V30 23787 C 2244.98 -1.82336 -0.988341 0
M  V30 23788 C 2245.41 -0.611452 -1.77884 0
M  V30 23789 O 2244.76 0.439608 -1.7589 0
M  V30 23790 C 2244.81 -3.06718 -1.89621 0
M  V30 23791 O 2243.92 -2.84136 -2.98899 0
M  V30 23792 H 2243.26 -0.601681 -0.280848 0
M  V30 23793 H 2245.79 -2.0296 -0.258562 0
M  V30 23794 H 2245.8 -3.36342 -2.30951 0
M  V30 23795 H 2244.47 -3.94562 -1.31504 0
M  V30 23796 H 2243.05 -2.65699 -2.61646 0
M  V30 23797 N 2245.23 0.505704 -1.49266 0
M  V30 23798 C 2246.48 1.25672 -1.57764 0
M  V30 23799 C 2246.8 1.93764 -0.267405 0
M  V30 23800 O 2248 2.70517 -0.230875 0
M  V30 23801 C 2246.46 2.2816 -2.78336 0
M  V30 23802 C 2246.07 1.6603 -4.16099 0
M  V30 23803 C 2247.81 3.0412 -2.96161 0
M  V30 23804 C 2245.72 2.66601 -5.279 0
M  V30 23805 H 2244.65 0.472735 -0.587399 0
M  V30 23806 H 2247.3 0.531149 -1.75645 0
M  V30 23807 H 2245.68 3.0386 -2.53939 0
M  V30 23808 H 2246.85 0.963543 -4.50613 0
M  V30 23809 H 2245.17 1.02477 -4.03593 0
M  V30 23810 H 2247.77 3.7932 -3.76856 0
M  V30 23811 H 2248.11 3.61451 -2.0654 0
M  V30 23812 H 2248.64 2.35536 -3.20574 0
M  V30 23813 H 2245.38 2.14057 -6.19564 0
M  V30 23814 H 2244.9 3.34531 -4.97845 0
M  V30 23815 H 2246.58 3.29119 -5.57036 0
M  V30 23816 N 2246.71 1.38262 0.756405 0
M  V30 23817 C 2247.96 1.33633 1.5108 0
M  V30 23818 C 2248.27 -0.0719725 1.95468 0
M  V30 23819 O 2249.48 -0.240786 2.7043 0
M  V30 23820 C 2247.94 2.34648 2.72888 0
M  V30 23821 C 2247.54 3.81085 2.35537 0
M  V30 23822 C 2249.29 2.39058 3.50787 0
M  V30 23823 C 2247.2 4.73794 3.5394 0
M  V30 23824 H 2246.13 0.49672 0.567261 0
M  V30 23825 H 2248.78 1.63802 0.827118 0
M  V30 23826 H 2247.16 1.97519 3.43223 0
M  V30 23827 H 2248.33 4.27138 1.72887 0
M  V30 23828 H 2246.65 3.79767 1.7078 0
M  V30 23829 H 2249.24 3.05521 4.38818 0
M  V30 23830 H 2249.59 1.40868 3.91742 0
M  V30 23831 H 2250.12 2.74973 2.87462 0
M  V30 23832 H 2246.86 5.73169 3.18053 0
M  V30 23833 H 2246.38 4.32436 4.15643 0
M  V30 23834 H 2248.06 4.91671 4.20558 0
M  V30 23835 N 2248.19 -0.984277 1.23084 0
M  V30 23836 C 2249.14 -2.07597 1.00858 0
M  V30 23837 C 2250.11 -1.65941 -0.0726418 0
M  V30 23838 O 2251.29 -1.90638 0.078687 0
M  V30 23839 C 2248.43 -3.39814 0.601704 0
M  V30 23840 C 2247.55 -3.94762 1.75463 0
M  V30 23841 C 2246.68 -5.15175 1.29491 0
M  V30 23842 C 2245.72 -5.6228 2.41883 0
M  V30 23843 N 2244.86 -6.73926 1.96897 0
M  V30 23844 H 2249.7 -2.25943 1.94303 0
M  V30 23845 H 2247.23 -1.1076 0.968021 0
M  V30 23846 H 2249.19 -4.15755 0.346927 0
M  V30 23847 H 2247.82 -3.21442 -0.295746 0
M  V30 23848 H 2246.87 -3.15612 2.12351 0
M  V30 23849 H 2248.19 -4.25694 2.59973 0
M  V30 23850 H 2247.34 -5.98435 0.998029 0
M  V30 23851 H 2246.08 -4.85887 0.420131 0
M  V30 23852 H 2245.08 -4.77604 2.7235 0
M  V30 23853 H 2246.31 -5.93589 3.29891 0
M  V30 23854 H 2244.25 -6.46404 1.11793 0
M  V30 23855 H 2244.17 -7.04222 2.74968 0
M  V30 23856 H 2245.44 -7.60669 1.70302 0
M  V30 23857 N 2249.67 -1.04192 -1.18244 0
M  V30 23858 C 2250.62 -0.627831 -2.23967 0
M  V30 23859 C 2251.61 0.345989 -1.65829 0
M  V30 23860 O 2252.82 0.213143 -1.78734 0
M  V30 23861 H 2249.19 -0.184815 -0.728936 0
M  V30 23862 H 2251.16 -1.52985 -2.56199 0
M  V30 23863 C 2249.91 -0.00802703 -3.47699 0
M  V30 23864 H 2249.23 -0.748416 -3.92732 0
M  V30 23865 H 2250.67 0.244476 -4.23295 0
M  V30 23866 C 2249.13 1.2424 -3.13155 0
M  V30 23867 O 2249.66 2.33301 -3.27007 0
M  V30 23868 N 2247.87 1.13618 -2.67469 0
M  V30 23869 H 2247.42 0.248689 -2.56397 0
M  V30 23870 H 2247.37 1.97372 -2.44727 0
M  V30 23871 N 2251.15 1.34492 -0.821557 0
M  V30 23872 C 2252.09 2.31453 -0.230743 0
M  V30 23873 C 2253.09 1.57339 0.627765 0
M  V30 23874 O 2254.29 1.72348 0.519257 0
M  V30 23875 H 2250.67 0.749922 -0.0558709 0
M  V30 23876 H 2252.64 2.7881 -1.06337 0
M  V30 23877 C 2251.39 3.42591 0.593849 0
M  V30 23878 H 2250.71 3.99759 -0.057429 0
M  V30 23879 H 2252.15 4.12676 0.973374 0
M  V30 23880 C 2250.61 2.86927 1.76563 0
M  V30 23881 O 2251.14 2.81696 2.86375 0
M  V30 23882 N 2249.35 2.43769 1.58193 0
M  V30 23883 H 2248.89 2.48224 0.688677 0
M  V30 23884 H 2248.85 2.06876 2.36749 0
M  V30 23885 N 2252.62 0.576397 1.46681 0
M  V30 23886 C 2253.85 0.0649999 2.06798 0
M  V30 23887 C 2254.27 -1.23721 1.42614 0
M  V30 23888 O 2253.62 -1.74658 0.529234 0
M  V30 23889 C 2253.68 -0.114138 3.6132 0
M  V30 23890 O 2253.4 1.13652 4.23102 0
M  V30 23891 C 2254.9 -0.660613 4.3835 0
M  V30 23892 H 2252.12 0.0545733 0.668777 0
M  V30 23893 H 2254.66 0.79527 1.88403 0
M  V30 23894 H 2252.82 -0.794606 3.79163 0
M  V30 23895 H 2253.23 0.946343 5.15892 0
M  V30 23896 H 2254.7 -0.735164 5.47083 0
M  V30 23897 H 2255.18 -1.6762 4.05956 0
M  V30 23898 H 2255.79 -0.0152203 4.25297 0
M  V30 23899 N 2254.1 -1.54444 0.313841 0
M  V30 23900 C 2255.34 -2.02298 -0.292354 0
M  V30 23901 C 2255.71 -1.19721 -1.50103 0
M  V30 23902 O 2256.91 -1.57334 -2.17944 0
M  V30 23903 C 2255.18 -3.51846 -0.62762 0
M  V30 23904 S 2256.74 -4.21648 -1.21485 0
M  V30 23905 H 2253.56 -0.705406 -0.0890123 0
M  V30 23906 H 2256.16 -1.90375 0.444702 0
M  V30 23907 H 2254.86 -4.09573 0.260337 0
M  V30 23908 H 2254.39 -3.67831 -1.39513 0
M  V30 23909 H 2256.41 -4.28495 -2.50213 0
M  V30 23910 N 2255.58 -0.0418125 -1.57545 0
M  V30 23911 C 2256.83 0.634987 -1.92603 0
M  V30 23912 C 2257.16 1.71044 -0.919657 0
M  V30 23913 O 2256.43 1.9442 0.055755 0
M  V30 23914 C 2256.72 1.23973 -3.38087 0
M  V30 23915 C 2256.57 0.172978 -4.49467 0
M  V30 23916 C 2257.89 2.1541 -3.83779 0
M  V30 23917 H 2255.01 0.229362 -0.700401 0
M  V30 23918 H 2257.65 -0.101666 -1.89728 0
M  V30 23919 H 2255.8 1.86756 -3.40667 0
M  V30 23920 H 2257.47 -0.458392 -4.59017 0
M  V30 23921 H 2255.72 -0.500072 -4.30908 0
M  V30 23922 H 2256.39 0.635957 -5.48324 0
M  V30 23923 H 2258.86 1.62599 -3.83016 0
M  V30 23924 H 2257.74 2.5467 -4.86245 0
M  V30 23925 H 2258 3.05042 -3.20003 0
M  V30 23926 N 2257.06 1.55891 0.231477 0
M  V30 23927 C 2258.3 1.78707 0.958738 0
M  V30 23928 C 2258.64 0.609757 1.84379 0
M  V30 23929 O 2257.91 -0.391392 1.90521 0
M  V30 23930 C 2258.2 3.11529 1.80614 0
M  V30 23931 C 2258.05 4.39691 0.948251 0
M  V30 23932 C 2259.37 3.40708 2.78579 0
M  V30 23933 H 2256.49 0.650137 0.347118 0
M  V30 23934 H 2259.13 1.88624 0.228226 0
M  V30 23935 H 2257.28 3.03205 2.42897 0
M  V30 23936 H 2258.95 4.60024 0.342936 0
M  V30 23937 H 2257.19 4.3306 0.253237 0
M  V30 23938 H 2257.86 5.29044 1.57533 0
M  V30 23939 H 2260.34 3.49095 2.26433 0
M  V30 23940 H 2259.22 4.34832 3.34981 0
M  V30 23941 H 2259.48 2.62381 3.55821 0
M  V30 23942 N 2258.54 -0.497781 1.49532 0
M  V30 23943 C 2259.76 -1.27564 1.62896 0
M  V30 23944 C 2260.18 -1.86375 0.301618 0
M  V30 23945 O 2259.54 -1.67983 -0.713305 0
M  V30 23946 C 2259.59 -2.4036 2.70018 0
M  V30 23947 O 2259.31 -1.83965 3.97603 0
M  V30 23948 C 2260.81 -3.3168 2.94115 0
M  V30 23949 H 2258.03 -0.386785 0.548305 0
M  V30 23950 H 2260.57 -0.597211 1.95585 0
M  V30 23951 H 2258.73 -3.04027 2.40097 0
M  V30 23952 H 2259.14 -2.58039 4.56635 0
M  V30 23953 H 2260.62 -4.07097 3.72795 0
M  V30 23954 H 2261.09 -3.88868 2.04153 0
M  V30 23955 H 2261.7 -2.73775 3.25464 0
M  V30 23956 N 2260.01 -1.38661 -0.749062 0
M  V30 23957 C 2261.24 -1.3836 -1.53831 0
M  V30 23958 C 2261.66 0.0254887 -1.88783 0
M  V30 23959 O 2261.01 0.993265 -1.53103 0
M  V30 23960 C 2261.07 -2.24345 -2.83464 0
M  V30 23961 O 2260.79 -3.59765 -2.50002 0
M  V30 23962 C 2262.29 -2.32274 -3.77576 0
M  V30 23963 H 2259.51 -0.473091 -0.475842 0
M  V30 23964 H 2262.05 -1.82298 -0.926694 0
M  V30 23965 H 2260.21 -1.83857 -3.40992 0
M  V30 23966 H 2260.62 -4.05086 -3.33174 0
M  V30 23967 H 2262.09 -2.96714 -4.65473 0
M  V30 23968 H 2262.57 -1.33772 -4.18332 0
M  V30 23969 H 2263.18 -2.73171 -3.25972 0
M  V30 23970 N 2261.49 0.977736 -1.23605 0
M  V30 23971 C 2262.72 1.75456 -1.09649 0
M  V30 23972 C 2263.14 1.85493 0.351826 0
M  V30 23973 O 2262.49 1.33602 1.24325 0
M  V30 23974 C 2262.54 3.18013 -1.71901 0
M  V30 23975 O 2262.27 3.08493 -3.11069 0
M  V30 23976 C 2263.77 4.12078 -1.63422 0
M  V30 23977 H 2260.99 0.550538 -0.383599 0
M  V30 23978 H 2263.53 1.22821 -1.63509 0
M  V30 23979 H 2261.69 3.67666 -1.22067 0
M  V30 23980 H 2262.1 3.98254 -3.41312 0
M  V30 23981 H 2263.57 5.098 -2.11678 0
M  V30 23982 H 2264.05 4.35171 -0.593538 0
M  V30 23983 H 2264.66 3.6833 -2.12634 0
M  V30 23984 N 2262.97 1.04818 1.1769 0
M  V30 23985 C 2263.92 0.6397 2.23631 0
M  V30 23986 C 2264.91 -0.33719 1.6601 0
M  V30 23987 O 2266.12 -0.203662 1.78844 0
M  V30 23988 H 2262.49 0.188678 0.727945 0
M  V30 23989 H 2264.47 1.54342 2.55384 0
M  V30 23990 C 2263.21 0.0264662 3.4769 0
M  V30 23991 H 2262.54 0.769233 3.9233 0
M  V30 23992 H 2263.98 -0.222024 4.23418 0
M  V30 23993 C 2262.44 -1.22578 3.13809 0
M  V30 23994 O 2262.97 -2.31563 3.2824 0
M  V30 23995 N 2261.17 -1.12197 2.68067 0
M  V30 23996 H 2260.72 -0.235088 2.56525 0
M  V30 23997 H 2260.68 -1.96072 2.45771 0
M  V30 23998 N 2264.45 -1.34055 0.828678 0
M  V30 23999 C 2265.7 -1.97716 0.418665 0
M  V30 24000 C 2266.02 -1.66004 -1.02311 0
M  V30 24001 O 2265.29 -0.953713 -1.71117 0
M  V30 24002 H 2263.87 -0.731409 0.151822 0
M  V30 24003 H 2266.53 -1.63594 1.05939 0
M  V30 24004 H 2265.63 -3.07351 0.542372 0
M  V30 24005 N 2265.93 -0.584167 -1.46374 0
M  V30 24006 C 2266.87 0.148246 -2.30323 0
M  V30 24007 C 2267.84 0.882688 -1.40705 0
M  V30 24008 O 2269.03 0.873069 -1.69653 0
M  V30 24009 C 2266.17 1.15501 -3.25198 0
M  V30 24010 C 2265.28 0.423867 -4.29916 0
M  V30 24011 C 2264.42 1.41829 -5.11916 0
M  V30 24012 C 2263.46 0.673629 -6.08382 0
M  V30 24013 N 2262.59 1.61618 -6.83245 0
M  V30 24014 H 2267.43 -0.573695 -2.92426 0
M  V30 24015 H 2264.97 -0.294728 -1.44117 0
M  V30 24016 H 2266.93 1.7516 -3.78649 0
M  V30 24017 H 2265.56 1.84465 -2.64901 0
M  V30 24018 H 2264.61 -0.287781 -3.7931 0
M  V30 24019 H 2265.92 -0.158215 -4.98549 0
M  V30 24020 H 2265.08 2.08763 -5.69652 0
M  V30 24021 H 2263.82 2.0343 -4.43247 0
M  V30 24022 H 2262.82 -0.00948147 -5.49799 0
M  V30 24023 H 2264.05 0.0629888 -6.79071 0
M  V30 24024 H 2261.99 2.22027 -6.17284 0
M  V30 24025 H 2261.91 1.08694 -7.48145 0
M  V30 24026 H 2263.18 2.27583 -7.45538 0
M  V30 24027 N 2267.41 1.54275 -0.322027 0
M  V30 24028 C 2268.65 2.00541 0.281009 0
M  V30 24029 C 2268.98 1.21022 1.52263 0
M  V30 24030 O 2268.24 0.280016 1.93686 0
M  V30 24031 C 2268.53 3.51221 0.661707 0
M  V30 24032 C 2268.2 4.48332 -0.48056 0
M  V30 24033 C 2266.86 4.74603 -0.794088 0
M  V30 24034 C 2269.21 5.0604 -1.24792 0
M  V30 24035 C 2266.54 5.5584 -1.87773 0
M  V30 24036 C 2268.89 5.88458 -2.32164 0
M  V30 24037 C 2267.56 6.13031 -2.641 0
M  V30 24038 H 2266.83 0.733831 0.102828 0
M  V30 24039 H 2269.48 1.86246 -0.445486 0
M  V30 24040 H 2267.78 3.63234 1.4686 0
M  V30 24041 H 2269.48 3.84459 1.13982 0
M  V30 24042 H 2266.07 4.28003 -0.226114 0
M  V30 24043 H 2270.25 4.85727 -1.01896 0
M  V30 24044 H 2265.51 5.73111 -2.12964 0
M  V30 24045 H 2269.68 6.32194 -2.92068 0
M  V30 24046 H 2267.31 6.75769 -3.48196 0
M  V30 24047 N 2268.88 0.0501669 1.5752 0
M  V30 24048 C 2270.11 -0.633457 1.96964 0
M  V30 24049 C 2270.53 -1.64438 0.92766 0
M  V30 24050 O 2269.88 -1.82287 -0.0882344 0
M  V30 24051 C 2269.93 -1.32126 3.36489 0
M  V30 24052 O 2269.66 -0.350817 4.36693 0
M  V30 24053 C 2271.16 -2.09474 3.90686 0
M  V30 24054 H 2268.38 -0.173255 0.648247 0
M  V30 24055 H 2270.92 0.116169 2.0417 0
M  V30 24056 H 2269.08 -2.02212 3.30437 0
M  V30 24057 H 2269.49 -0.841644 5.17703 0
M  V30 24058 H 2270.96 -2.53021 4.90596 0
M  V30 24059 H 2271.44 -2.94249 3.26059 0
M  V30 24060 H 2272.05 -1.443 4.00072 0
M  V30 24061 N 2270.36 -1.56011 -0.223207 0
M  V30 24062 C 2271.61 -1.78594 -0.945971 0
M  V30 24063 C 2271.93 -0.618381 -1.84935 0
M  V30 24064 O 2271.2 0.364799 -1.92473 0
M  V30 24065 H 2269.78 -0.658713 -0.352287 0
M  V30 24066 H 2272.44 -1.93472 -0.23546 0
M  V30 24067 H 2271.54 -2.70675 -1.55376 0
M  V30 24068 N 2271.84 0.489844 -1.49794 0
M  V30 24069 C 2272.77 1.59853 -1.70203 0
M  V30 24070 C 2273.75 1.60936 -0.550789 0
M  V30 24071 O 2274.94 1.775 -0.787872 0
M  V30 24072 C 2272.07 2.98284 -1.77888 0
M  V30 24073 C 2271.02 3.12068 -2.92912 0
M  V30 24074 C 2270.35 4.5196 -2.8572 0
M  V30 24075 C 2271.65 2.91043 -4.33695 0
M  V30 24076 H 2273.34 1.43027 -2.63028 0
M  V30 24077 H 2270.89 0.686642 -1.26575 0
M  V30 24078 H 2272.84 3.75755 -1.90751 0
M  V30 24079 H 2271.56 3.16224 -0.816708 0
M  V30 24080 H 2270.22 2.37024 -2.79669 0
M  V30 24081 H 2269.87 4.66792 -1.87388 0
M  V30 24082 H 2269.57 4.62122 -3.62929 0
M  V30 24083 H 2271.09 5.31477 -3.00607 0
M  V30 24084 H 2272.51 3.58276 -4.47561 0
M  V30 24085 H 2270.9 3.12666 -5.12211 0
M  V30 24086 H 2271.97 1.87063 -4.47365 0
M  V30 24087 N 2273.32 1.39056 0.741698 0
M  V30 24088 C 2274.57 1.35646 1.49815 0
M  V30 24089 C 2274.89 -0.0491299 1.94938 0
M  V30 24090 O 2274.16 -0.999111 1.68507 0
M  V30 24091 H 2272.74 0.499154 0.555746 0
M  V30 24092 H 2275.4 1.73855 0.880927 0
M  V30 24093 H 2274.49 2.0149 2.38344 0
M  V30 24094 N 2274.8 -0.971167 1.24121 0
M  V30 24095 C 2276.04 -1.70799 1.07287 0
M  V30 24096 C 2276.36 -1.91696 -0.388868 0
M  V30 24097 O 2277.56 -2.62915 -0.677333 0
M  V30 24098 C 2276.02 -3.07413 1.8715 0
M  V30 24099 C 2275.63 -2.94371 3.37712 0
M  V30 24100 C 2277.37 -3.84992 1.78834 0
M  V30 24101 C 2275.28 -4.26274 4.09933 0
M  V30 24102 H 2274.21 -0.640483 0.397865 0
M  V30 24103 H 2276.86 -1.08247 1.48172 0
M  V30 24104 H 2275.24 -3.70774 1.39078 0
M  V30 24105 H 2276.42 -2.40044 3.93339 0
M  V30 24106 H 2274.73 -2.30261 3.46942 0
M  V30 24107 H 2277.33 -4.82658 2.30098 0
M  V30 24108 H 2277.67 -4.09435 0.752912 0
M  V30 24109 H 2278.2 -3.2835 2.24568 0
M  V30 24110 H 2274.94 -4.07024 5.13821 0
M  V30 24111 H 2274.46 -4.8043 3.59091 0
M  V30 24112 H 2276.14 -4.94912 4.16739 0
M  V30 24113 N 2276.27 -1.05441 -1.17133 0
M  V30 24114 C 2277.5 -0.785307 -1.91093 0
M  V30 24115 C 2277.91 0.66311 -1.77199 0
M  V30 24116 O 2277.26 1.46495 -1.10838 0
M  V30 24117 C 2277.32 -1.08955 -3.42592 0
M  V30 24118 C 2276.98 -2.53465 -3.80269 0
M  V30 24119 C 2277.98 -3.5168 -3.82906 0
M  V30 24120 C 2275.66 -2.88539 -4.11157 0
M  V30 24121 C 2277.66 -4.83014 -4.15905 0
M  V30 24122 C 2275.34 -4.20076 -4.43824 0
M  V30 24123 C 2276.34 -5.17123 -4.46176 0
M  V30 24124 O 2276.03 -6.46299 -4.78072 0
M  V30 24125 H 2275.76 -0.284821 -0.613068 0
M  V30 24126 H 2278.32 -1.40895 -1.49458 0
M  V30 24127 H 2276.55 -0.408809 -3.84533 0
M  V30 24128 H 2278.24 -0.806061 -3.97816 0
M  V30 24129 H 2279 -3.25923 -3.59164 0
M  V30 24130 H 2274.88 -2.13663 -4.08496 0
M  V30 24131 H 2278.42 -5.58757 -4.17655 0
M  V30 24132 H 2274.32 -4.45594 -4.67029 0
M  V30 24133 H 2275.09 -6.51158 -4.95919 0
M  V30 24134 N 2277.75 1.33613 -0.835776 0
M  V30 24135 C 2279.03 1.92406 -0.352051 0
M  V30 24136 C 2279.41 1.76226 1.16222 0
M  V30 24137 O 2278.76 1.14877 1.97524 0
M  V30 24138 C 2278.97 3.39812 -0.795545 0
M  V30 24139 C 2280.32 4.16961 -0.801776 0
M  V30 24140 O 2281.34 3.48451 -0.738951 0
M  V30 24141 O 2280.2 5.39259 -0.886702 0
M  V30 24142 H 2277.29 0.821056 -0.0989786 0
M  V30 24143 H 2279.84 1.42506 -0.921422 0
M  V30 24144 H 2278.61 3.45446 -1.83801 0
M  V30 24145 H 2278.23 3.97084 -0.202575 0
M  V30 24146 N 2279.23 0.591922 1.46062 0
M  V30 24147 C 2280.65 0.254316 1.57561 0
M  V30 24148 C 2280.85 -1.24333 1.58567 0
M  V30 24149 O 2279.9 -2.02556 1.50756 0
M  V30 24150 C 2281.22 0.911662 2.86547 0
M  V30 24151 C 2282.76 0.886112 3.00195 0
M  V30 24152 C 2283.24 1.52317 4.3193 0
M  V30 24153 N 2284.73 1.48794 4.38651 0
M  V30 24154 C 2285.46 1.95016 5.39218 0
M  V30 24155 N 2284.96 2.49253 6.46409 0
M  V30 24156 N 2286.75 1.85877 5.30477 0
M  V30 24157 H 2278.9 1.56454 1.43652 0
M  V30 24158 H 2281.17 0.65449 0.685819 0
M  V30 24159 H 2280.87 1.96556 2.91648 0
M  V30 24160 H 2280.75 0.425434 3.74793 0
M  V30 24161 H 2283.13 -0.159195 2.9467 0
M  V30 24162 H 2283.22 1.41045 2.13401 0
M  V30 24163 H 2282.86 2.56773 4.38213 0
M  V30 24164 H 2282.79 0.973982 5.17514 0
M  V30 24165 H 2285.28 1.09157 3.61792 0
M  V30 24166 H 2285.59 2.82356 7.19371 0
M  V30 24167 H 2283.94 2.53283 6.47204 0
M  V30 24168 H 2287.13 1.43256 4.4564 0
M  V30 24169 H 2287.3 2.22215 6.08707 0
M  V30 24170 N 2280.71 -1.54102 0.330204 0
M  V30 24171 C 2281.96 -1.99867 -0.271301 0
M  V30 24172 C 2282.27 -1.22212 -1.52721 0
M  V30 24173 O 2283.48 -1.58387 -2.20513 0
M  V30 24174 C 2281.93 -3.55917 -0.53397 0
M  V30 24175 C 2281.54 -4.42414 0.705271 0
M  V30 24176 C 2283.28 -4.10132 -1.09506 0
M  V30 24177 C 2281.19 -5.89948 0.414138 0
M  V30 24178 H 2280.12 -0.746632 -0.105153 0
M  V30 24179 H 2282.77 -1.78061 0.44346 0
M  V30 24180 H 2281.15 -3.73736 -1.30909 0
M  V30 24181 H 2282.33 -4.3637 1.48047 0
M  V30 24182 H 2280.64 -3.99122 1.18705 0
M  V30 24183 H 2283.24 -5.17956 -1.32761 0
M  V30 24184 H 2283.58 -3.62525 -2.04649 0
M  V30 24185 H 2284.12 -3.95972 -0.380969 0
M  V30 24186 H 2280.86 -6.41763 1.33492 0
M  V30 24187 H 2280.38 -5.98928 -0.323231 0
M  V30 24188 H 2282.05 -6.46995 0.0264242 0
M  V30 24189 N 2282.19 -0.0585199 -1.57491 0
M  V30 24190 C 2283.12 0.91114 -2.1499 0
M  V30 24191 C 2284.1 1.3195 -1.07346 0
M  V30 24192 O 2285.28 1.39292 -1.3532 0
M  V30 24193 C 2282.41 2.18342 -2.70082 0
M  V30 24194 C 2281.37 1.91489 -3.82774 0
M  V30 24195 C 2280.69 3.25234 -4.24414 0
M  V30 24196 C 2281.99 1.23066 -5.07594 0
M  V30 24197 H 2283.69 0.432194 -2.96264 0
M  V30 24198 H 2281.23 0.206444 -1.42512 0
M  V30 24199 H 2283.19 2.86582 -3.08948 0
M  V30 24200 H 2281.91 2.68455 -1.86009 0
M  V30 24201 H 2280.57 1.25658 -3.44392 0
M  V30 24202 H 2280.22 3.73162 -3.37282 0
M  V30 24203 H 2279.92 3.08062 -5.00371 0
M  V30 24204 H 2281.44 3.94693 -4.65886 0
M  V30 24205 H 2282.85 1.81353 -5.4386 0
M  V30 24206 H 2281.25 1.16197 -5.88743 0
M  V30 24207 H 2282.32 0.207762 -4.84455 0
M  V30 24208 N 2283.66 1.56128 0.21493 0
M  V30 24209 C 2284.91 1.78645 0.93642 0
M  V30 24210 C 2285.23 0.628261 1.85236 0
M  V30 24211 O 2286.43 0.737232 2.61299 0
M  V30 24212 C 2284.89 3.16392 1.71535 0
M  V30 24213 C 2284.5 4.39955 0.845222 0
M  V30 24214 C 2286.24 3.48231 2.42766 0
M  V30 24215 C 2284.15 5.68726 1.62188 0
M  V30 24216 H 2283.08 0.666057 0.35339 0
M  V30 24217 H 2285.73 1.82512 0.190137 0
M  V30 24218 H 2284.11 3.06719 2.50478 0
M  V30 24219 H 2285.28 4.607 0.0958543 0
M  V30 24220 H 2283.6 4.1568 0.244716 0
M  V30 24221 H 2286.2 4.41668 3.01386 0
M  V30 24222 H 2286.54 2.7104 3.15979 0
M  V30 24223 H 2287.07 3.59263 1.70806 0
M  V30 24224 H 2283.81 6.48828 0.932897 0
M  V30 24225 H 2283.33 5.5203 2.34569 0
M  V30 24226 H 2285.01 6.09137 2.18084 0
M  V30 24227 N 2285.14 -0.481893 1.50052 0
M  V30 24228 C 2286.07 -1.58948 1.71049 0
M  V30 24229 C 2287.05 -1.60641 0.559316 0
M  V30 24230 O 2288.24 -1.7708 0.797274 0
M  V30 24231 C 2285.37 -2.97336 1.79467 0
M  V30 24232 C 2284.32 -3.1051 2.94563 0
M  V30 24233 C 2283.65 -4.50439 2.88113 0
M  V30 24234 C 2284.95 -2.88739 4.35232 0
M  V30 24235 H 2286.64 -1.41631 2.63782 0
M  V30 24236 H 2284.19 -0.67992 1.26937 0
M  V30 24237 H 2286.14 -3.74738 1.92741 0
M  V30 24238 H 2284.87 -3.15786 0.833467 0
M  V30 24239 H 2283.52 -2.35538 2.80923 0
M  V30 24240 H 2283.17 -4.65791 1.89861 0
M  V30 24241 H 2282.87 -4.6019 3.65375 0
M  V30 24242 H 2284.4 -5.29875 3.03421 0
M  V30 24243 H 2285.81 -3.55898 4.49455 0
M  V30 24244 H 2284.21 -3.09946 5.13862 0
M  V30 24245 H 2285.28 -1.84688 4.48351 0
M  V30 24246 N 2286.62 -1.39448 -0.734313 0
M  V30 24247 C 2288.03 -1.32768 -1.31261 0
M  V30 24248 C 2288.38 0.00764048 -1.96199 0
M  V30 24249 O 2287.51 0.909762 -1.96347 0
M  V30 24250 C 2288.1 -2.40454 -2.38678 0
M  V30 24251 C 2286.66 -2.37293 -2.92179 0
M  V30 24252 C 2285.81 -2.22307 -1.65756 0
M  V30 24253 H 2288.76 -1.49525 -0.531773 0
M  V30 24254 H 2288.78 -2.07282 -3.19084 0
M  V30 24255 H 2288.29 -3.37629 -1.91386 0
M  V30 24256 H 2286.39 -1.4376 -3.4375 0
M  V30 24257 H 2286.51 -3.32176 -3.45247 0
M  V30 24258 H 2284.87 -1.69492 -1.90117 0
M  V30 24259 H 2285.65 -3.21451 -1.20515 0
M  V30 24260 N 2288.1 0.964571 -1.24635 0
M  V30 24261 C 2289.33 1.74283 -1.11504 0
M  V30 24262 C 2289.74 1.85856 0.332133 0
M  V30 24263 O 2289.1 1.34913 1.22901 0
M  V30 24264 C 2289.15 3.16172 -1.75264 0
M  V30 24265 O 2288.87 3.05176 -3.14323 0
M  V30 24266 C 2290.37 4.10321 -1.67784 0
M  V30 24267 H 2287.59 0.546439 -0.389417 0
M  V30 24268 H 2290.14 1.2108 -1.64803 0
M  V30 24269 H 2288.29 3.66351 -1.2596 0
M  V30 24270 H 2288.7 3.94612 -3.45517 0
M  V30 24271 H 2290.18 5.07527 -2.17073 0
M  V30 24272 H 2290.66 4.34517 -0.639661 0
M  V30 24273 H 2291.26 3.66054 -2.16529 0
M  V30 24274 N 2289.58 1.0606 1.16572 0
M  V30 24275 C 2290.53 0.639329 2.18853 0
M  V30 24276 C 2291.51 -0.328771 1.57505 0
M  V30 24277 O 2292.7 -0.144592 1.76408 0
M  V30 24278 C 2289.83 0.0247806 3.43291 0
M  V30 24279 C 2288.92 1.01723 4.1172 0
M  V30 24280 N 2289.31 2.19194 4.55837 0
M  V30 24281 C 2287.61 0.847646 4.37871 0
M  V30 24282 C 2288.31 2.82051 5.08746 0
M  V30 24283 N 2287.28 2.09793 5.01486 0
M  V30 24284 H 2291.09 1.53422 2.50677 0
M  V30 24285 H 2288.6 0.931958 1.32997 0
M  V30 24286 H 2290.6 -0.294842 4.15856 0
M  V30 24287 H 2289.26 -0.865393 3.12955 0
M  V30 24288 H 2290.27 2.56983 4.49645 0
M  V30 24289 H 2286.94 0.00926187 4.17499 0
M  V30 24290 H 2288.33 3.81719 5.52938 0
M  V30 24291 N 2291.06 -1.33168 0.84285 0
M  V30 24292 C 2292.02 -2.27432 0.284105 0
M  V30 24293 C 2293.02 -1.51121 -0.549454 0
M  V30 24294 O 2294.21 -1.70383 -0.362669 0
M  V30 24295 C 2291.34 -3.3559 -0.599325 0
M  V30 24296 H 2292.53 -2.78364 1.11594 0
M  V30 24297 H 2290.09 -1.43639 0.616246 0
M  V30 24298 H 2290.82 -2.89906 -1.45344 0
M  V30 24299 H 2290.61 -3.921 -0.00284374 0
M  V30 24300 H 2292.1 -4.05855 -0.983417 0
M  V30 24301 N 2292.53 -0.599659 -1.45746 0
M  V30 24302 C 2293.81 -0.024119 -1.95585 0
M  V30 24303 C 2294.19 1.44152 -1.54219 0
M  V30 24304 O 2293.54 2.14003 -0.800941 0
M  V30 24305 C 2293.75 -0.213911 -3.48344 0
M  V30 24306 C 2295.1 -0.0905648 -4.24503 0
M  V30 24307 O 2296.12 -0.14362 -3.5591 0
M  V30 24308 O 2294.98 0.0309806 -5.46491 0
M  V30 24309 H 2292.07 0.0402333 -0.826021 0
M  V30 24310 H 2294.62 -0.669166 -1.5595 0
M  V30 24311 H 2293.39 -1.23213 -3.71395 0
M  V30 24312 H 2293.01 0.466773 -3.94851 0
M  V30 24313 N 2294.01 1.53925 -0.338371 0
M  V30 24314 C 2295.42 1.86123 0.146619 0
M  V30 24315 C 2295.77 1.25972 1.50417 0
M  V30 24316 O 2294.9 0.571331 2.08722 0
M  V30 24317 C 2295.49 3.377 0.27282 0
M  V30 24318 C 2294.05 3.69795 0.702038 0
M  V30 24319 C 2293.2 2.76795 -0.167352 0
M  V30 24320 H 2296.15 1.48561 -0.558149 0
M  V30 24321 H 2296.17 3.64216 1.10121 0
M  V30 24322 H 2295.68 3.8145 -0.715374 0
M  V30 24323 H 2293.78 3.31587 1.69944 0
M  V30 24324 H 2293.9 4.76531 0.49552 0
M  V30 24325 H 2292.26 2.5215 0.359483 0
M  V30 24326 H 2293.04 3.23373 -1.15258 0
M  V30 24327 N 2295.49 0.0668712 1.57458 0
M  V30 24328 C 2296.74 -0.60218 1.9292 0
M  V30 24329 C 2297.06 -1.70447 0.947245 0
M  V30 24330 O 2296.33 -1.95899 -0.00540674 0
M  V30 24331 H 2294.91 -0.225428 0.712174 0
M  V30 24332 H 2297.57 0.123569 1.94508 0
M  V30 24333 H 2296.67 -1.03067 2.9459 0
M  V30 24334 N 2296.97 -1.56239 -0.206647 0
M  V30 24335 C 2298.19 -1.84392 -0.949442 0
M  V30 24336 C 2298.62 -0.649047 -1.76547 0
M  V30 24337 O 2297.98 0.4022 -1.76782 0
M  V30 24338 C 2298.02 -3.10672 -1.83073 0
M  V30 24339 O 2297.13 -2.90412 -2.92805 0
M  V30 24340 H 2296.47 -0.607503 -0.268022 0
M  V30 24341 H 2299 -2.03462 -0.215453 0
M  V30 24342 H 2299.01 -3.41165 -2.23764 0
M  V30 24343 H 2297.68 -3.97263 -1.23105 0
M  V30 24344 H 2296.26 -2.71189 -2.55951 0
M  V30 24345 N 2298.45 0.473929 -1.50305 0
M  V30 24346 C 2299.36 1.59817 -1.71743 0
M  V30 24347 C 2300.37 1.6331 -0.600486 0
M  V30 24348 O 2301.55 1.81231 -0.878473 0
M  V30 24349 C 2298.61 2.96049 -1.80433 0
M  V30 24350 C 2297.67 3.02967 -3.04154 0
M  V30 24351 C 2296.91 4.32701 -3.12419 0
M  V30 24352 O 2297.13 5.23045 -2.27551 0
M  V30 24353 O 2296.06 4.45152 -4.05121 0
M  V30 24354 H 2299.89 1.44653 -2.67038 0
M  V30 24355 H 2297.47 0.653124 -1.34368 0
M  V30 24356 H 2299.36 3.76967 -1.88345 0
M  V30 24357 H 2298.03 3.11418 -0.883211 0
M  V30 24358 H 2296.94 2.21137 -3.01744 0
M  V30 24359 H 2298.27 2.92534 -3.95834 0
M  V30 24360 N 2299.92 1.39835 0.726907 0
M  V30 24361 C 2301.17 1.36808 1.48211 0
M  V30 24362 C 2301.49 -0.0304947 1.95576 0
M  V30 24363 O 2302.69 -0.18337 2.7088 0
M  V30 24364 C 2301.15 2.40384 2.6785 0
M  V30 24365 C 2300.76 3.85996 2.27401 0
M  V30 24366 C 2302.5 2.46445 3.45637 0
M  V30 24367 C 2300.41 4.81195 3.43811 0
M  V30 24368 H 2299.34 0.508641 0.556597 0
M  V30 24369 H 2301.99 1.65519 0.792187 0
M  V30 24370 H 2300.37 2.04755 3.38957 0
M  V30 24371 H 2301.54 4.30709 1.63788 0
M  V30 24372 H 2299.86 3.83304 1.62686 0
M  V30 24373 H 2302.46 3.1476 4.32238 0
M  V30 24374 H 2302.8 1.49146 3.88666 0
M  V30 24375 H 2303.33 2.81009 2.81565 0
M  V30 24376 H 2300.07 5.79786 3.05824 0
M  V30 24377 H 2299.59 4.41155 4.06377 0
M  V30 24378 H 2301.27 5.00481 4.10034 0
M  V30 24379 N 2301.4 -0.957948 1.25144 0
M  V30 24380 C 2302.33 -2.05734 1.01026 0
M  V30 24381 C 2303.35 -1.62783 -0.0236616 0
M  V30 24382 O 2304.54 -1.77206 0.214511 0
M  V30 24383 C 2301.64 -3.35122 0.504654 0
M  V30 24384 C 2300.81 -4.06929 1.60397 0
M  V30 24385 C 2299.87 -5.14589 1.09931 0
M  V30 24386 O 2298.89 -5.40221 1.79303 0
M  V30 24387 N 2300.1 -5.80468 -0.0611525 0
M  V30 24388 H 2302.86 -2.26995 1.95687 0
M  V30 24389 H 2300.42 -1.12627 1.16305 0
M  V30 24390 H 2302.41 -4.04416 0.151587 0
M  V30 24391 H 2300.98 -3.10658 -0.347935 0
M  V30 24392 H 2300.2 -3.31778 2.12877 0
M  V30 24393 H 2301.49 -4.51663 2.3426 0
M  V30 24394 H 2300.89 -5.62058 -0.640887 0
M  V30 24395 H 2299.45 -6.50831 -0.355281 0
M  V30 24396 N 2302.88 -1.06677 -1.16008 0
M  V30 24397 C 2304.13 -0.786978 -1.86908 0
M  V30 24398 C 2304.46 0.684986 -1.81718 0
M  V30 24399 O 2303.73 1.50215 -1.23554 0
M  V30 24400 C 2304.02 -1.28713 -3.36311 0
M  V30 24401 C 2303.87 -2.82314 -3.5017 0
M  V30 24402 C 2305.19 -0.898147 -4.30838 0
M  V30 24403 H 2302.31 -0.287355 -0.678672 0
M  V30 24404 H 2304.95 -1.32337 -1.36334 0
M  V30 24405 H 2303.1 -0.830835 -3.79512 0
M  V30 24406 H 2304.77 -3.36181 -3.1588 0
M  V30 24407 H 2303.01 -3.20852 -2.91953 0
M  V30 24408 H 2303.69 -3.12376 -4.5511 0
M  V30 24409 H 2306.16 -1.29121 -3.95559 0
M  V30 24410 H 2305.04 -1.27552 -5.33874 0
M  V30 24411 H 2305.3 0.196574 -4.41663 0
M  V30 24412 N 2304.36 1.32719 -0.8499 0
M  V30 24413 C 2305.31 2.30911 -0.279785 0
M  V30 24414 C 2306.3 1.58635 0.59425 0
M  V30 24415 O 2307.51 1.7341 0.482583 0
M  V30 24416 H 2303.88 0.748568 -0.0717653 0
M  V30 24417 H 2305.85 2.76492 -1.12227 0
M  V30 24418 C 2304.6 3.43774 0.521047 0
M  V30 24419 H 2303.92 3.99547 -0.142211 0
M  V30 24420 H 2305.36 4.14648 0.88562 0
M  V30 24421 C 2303.82 2.90608 1.70437 0
M  V30 24422 O 2304.35 2.87707 2.80335 0
M  V30 24423 N 2302.56 2.4707 1.52987 0
M  V30 24424 H 2302.11 2.49629 0.63587 0
M  V30 24425 H 2302.06 2.11851 2.32307 0
M  V30 24426 N 2305.84 0.60738 1.45426 0
M  V30 24427 C 2307.08 0.102288 2.01841 0
M  V30 24428 C 2307.41 -1.27162 1.47834 0
M  V30 24429 O 2306.68 -1.83994 0.672529 0
M  V30 24430 H 2305.26 0.0348232 0.746188 0
M  V30 24431 H 2307.92 0.788731 1.78228 0
M  V30 24432 H 2307.01 0.0519134 3.12057 0
M  V30 24433 N 2307.31 -1.53743 0.34653 0
M  V30 24434 C 2308.56 -2.00144 -0.250087 0
M  V30 24435 C 2308.88 -1.23825 -1.51416 0
M  V30 24436 O 2310.08 -1.60717 -2.1882 0
M  V30 24437 C 2308.54 -3.56463 -0.49619 0
M  V30 24438 C 2308.15 -4.41641 0.752155 0
M  V30 24439 C 2309.89 -4.11271 -1.0515 0
M  V30 24440 C 2307.8 -5.89476 0.476687 0
M  V30 24441 H 2306.73 -0.747705 -0.0972278 0
M  V30 24442 H 2309.38 -1.77581 0.462321 0
M  V30 24443 H 2307.76 -3.75104 -1.26938 0
M  V30 24444 H 2308.93 -4.34775 1.52667 0
M  V30 24445 H 2307.25 -3.9784 1.22932 0
M  V30 24446 H 2309.85 -5.19335 -1.2726 0
M  V30 24447 H 2310.19 -3.64675 -2.00793 0
M  V30 24448 H 2310.72 -3.96353 -0.338949 0
M  V30 24449 H 2307.46 -6.40311 1.40292 0
M  V30 24450 H 2306.98 -5.99238 -0.259688 0
M  V30 24451 H 2308.66 -6.4693 0.0950452 0
M  V30 24452 N 2308.79 -0.0752207 -1.5742 0
M  V30 24453 C 2309.74 0.900988 -2.09443 0
M  V30 24454 C 2310.73 1.25662 -1.00489 0
M  V30 24455 O 2311.92 1.23502 -1.26792 0
M  V30 24456 C 2309.05 2.16732 -2.66237 0
M  V30 24457 C 2308.13 1.83801 -3.82201 0
M  V30 24458 N 2308.52 1.21337 -4.91031 0
M  V30 24459 C 2306.82 2.13531 -3.91561 0
M  V30 24460 C 2307.52 1.06575 -5.71854 0
M  V30 24461 N 2306.5 1.57658 -5.20236 0
M  V30 24462 H 2310.3 0.413763 -2.90973 0
M  V30 24463 H 2307.82 0.128572 -1.6189 0
M  V30 24464 H 2309.81 2.8759 -3.01824 0
M  V30 24465 H 2308.47 2.66039 -1.86155 0
M  V30 24466 H 2309.48 0.88259 -5.10324 0
M  V30 24467 H 2306.16 2.65191 -3.22459 0
M  V30 24468 H 2307.55 0.578816 -6.69402 0
M  V30 24469 N 2310.27 1.56347 0.198358 0
M  V30 24470 C 2311.5 1.84541 0.93554 0
M  V30 24471 C 2311.91 0.657312 1.76988 0
M  V30 24472 O 2311.27 -0.374012 1.78626 0
M  V30 24473 C 2311.32 3.11503 1.83435 0
M  V30 24474 O 2311.04 4.2573 1.0337 0
M  V30 24475 C 2312.54 3.52851 2.68349 0
M  V30 24476 H 2309.76 0.612902 0.273115 0
M  V30 24477 H 2312.31 2.03454 0.206594 0
M  V30 24478 H 2310.46 2.94496 2.51696 0
M  V30 24479 H 2310.88 4.98006 1.6459 0
M  V30 24480 H 2312.35 4.44662 3.27077 0
M  V30 24481 H 2312.83 2.75687 3.41896 0
M  V30 24482 H 2313.43 3.72377 2.05464 0
M  V30 24483 N 2311.75 -0.465951 1.50554 0
M  V30 24484 C 2312.7 -1.5633 1.69793 0
M  V30 24485 C 2313.67 -1.57102 0.539266 0
M  V30 24486 O 2314.85 -1.74554 0.770432 0
M  V30 24487 C 2311.99 -2.94268 1.80278 0
M  V30 24488 C 2311.1 -3.03245 3.07679 0
M  V30 24489 C 2310.24 -4.3213 3.08929 0
M  V30 24490 C 2309.28 -4.34868 4.30763 0
M  V30 24491 N 2308.41 -5.55232 4.29723 0
M  V30 24492 H 2313.25 -1.39231 2.63475 0
M  V30 24493 H 2310.79 -0.67685 1.30603 0
M  V30 24494 H 2312.75 -3.74266 1.84338 0
M  V30 24495 H 2311.38 -3.09991 0.900312 0
M  V30 24496 H 2310.43 -2.16088 3.13066 0
M  V30 24497 H 2311.74 -3.01128 3.97647 0
M  V30 24498 H 2310.9 -5.20479 3.11747 0
M  V30 24499 H 2309.64 -4.36863 2.168 0
M  V30 24500 H 2308.64 -3.44915 4.28152 0
M  V30 24501 H 2309.87 -4.31822 5.24125 0
M  V30 24502 H 2307.81 -5.6074 3.4045 0
M  V30 24503 H 2307.73 -5.54877 5.13466 0
M  V30 24504 H 2309 -6.45692 4.36694 0
M  V30 24505 N 2313.23 -1.40218 -0.719481 0
M  V30 24506 C 2314.47 -1.3849 -1.4815 0
M  V30 24507 C 2314.81 0.0141526 -1.94195 0
M  V30 24508 O 2314.08 0.982067 -1.67886 0
M  V30 24509 C 2314.36 -2.37096 -2.71031 0
M  V30 24510 C 2314.22 -3.86009 -2.30905 0
M  V30 24511 C 2315.54 -2.33295 -3.73178 0
M  V30 24512 H 2312.65 -0.504366 -0.537386 0
M  V30 24513 H 2315.3 -1.71325 -0.821442 0
M  V30 24514 H 2313.45 -2.09226 -3.27348 0
M  V30 24515 H 2315.12 -4.2469 -1.80099 0
M  V30 24516 H 2313.36 -4.02031 -1.62951 0
M  V30 24517 H 2314.03 -4.50513 -3.1897 0
M  V30 24518 H 2316.51 -2.57972 -3.26481 0
M  V30 24519 H 2315.38 -3.04342 -4.56801 0
M  V30 24520 H 2315.65 -1.34324 -4.212 0
M  V30 24521 N 2314.7 0.951297 -1.25651 0
M  V30 24522 C 2315.63 2.06597 -1.08812 0
M  V30 24523 C 2316.62 1.701 0.00379557 0
M  V30 24524 O 2317.8 1.93486 -0.166359 0
M  V30 24525 C 2314.93 3.39973 -0.709602 0
M  V30 24526 C 2313.88 3.90493 -1.75212 0
M  V30 24527 C 2313.21 5.20403 -1.2282 0
M  V30 24528 C 2314.51 4.16499 -3.1516 0
M  V30 24529 H 2316.2 2.20942 -2.02052 0
M  V30 24530 H 2313.75 1.06168 -0.972854 0
M  V30 24531 H 2315.7 4.17407 -0.578722 0
M  V30 24532 H 2314.43 3.25575 0.258499 0
M  V30 24533 H 2313.09 3.15231 -1.8715 0
M  V30 24534 H 2312.73 5.02377 -0.250233 0
M  V30 24535 H 2312.43 5.55173 -1.92501 0
M  V30 24536 H 2313.96 6.0043 -1.10978 0
M  V30 24537 H 2315.37 4.8458 -3.06357 0
M  V30 24538 H 2313.77 4.62531 -3.82342 0
M  V30 24539 H 2314.84 3.22652 -3.61972 0
M  V30 24540 N 2316.18 1.07291 1.1544 0
M  V30 24541 C 2317.46 0.708824 1.82305 0
M  V30 24542 C 2317.84 -0.808773 1.94992 0
M  V30 24543 O 2317.19 -1.72296 1.50088 0
M  V30 24544 C 2317.4 1.42253 3.18693 0
M  V30 24545 C 2318.75 1.57424 3.94339 0
M  V30 24546 O 2319.77 1.38325 3.28245 0
M  V30 24547 O 2318.63 1.88843 5.12836 0
M  V30 24548 H 2315.72 0.252146 0.787624 0
M  V30 24549 H 2318.27 1.1738 1.22557 0
M  V30 24550 H 2317.04 2.45689 3.04553 0
M  V30 24551 H 2316.66 0.948291 3.86126 0
M  V30 24552 N 2317.66 -1.32267 0.856927 0
M  V30 24553 C 2318.89 -2.01897 0.474605 0
M  V30 24554 C 2319.31 -1.63968 -0.921738 0
M  V30 24555 O 2318.67 -0.841509 -1.60587 0
M  V30 24556 C 2318.72 -3.55162 0.623861 0
M  V30 24557 O 2317.82 -4.10976 -0.342387 0
M  V30 24558 H 2317.16 -0.636106 0.190433 0
M  V30 24559 H 2319.69 -1.68762 1.15675 0
M  V30 24560 H 2319.7 -4.04772 0.51224 0
M  V30 24561 H 2318.38 -3.8211 1.64209 0
M  V30 24562 H 2316.95 -3.72432 -0.186814 0
M  V30 24563 N 2319.14 -0.615084 -1.45102 0
M  V30 24564 C 2320.37 -0.119632 -2.06253 0
M  V30 24565 C 2320.78 1.20442 -1.45912 0
M  V30 24566 O 2320.12 1.74619 -0.570415 0
M  V30 24567 C 2320.18 0.086496 -3.59396 0
M  V30 24568 C 2319.85 -1.15691 -4.42114 0
M  V30 24569 C 2320.84 -2.07684 -4.76617 0
M  V30 24570 C 2318.53 -1.38783 -4.82747 0
M  V30 24571 C 2320.52 -3.21092 -5.50617 0
M  V30 24572 C 2318.21 -2.52491 -5.56499 0
M  V30 24573 C 2319.21 -3.43473 -5.90352 0
M  V30 24574 O 2318.89 -4.55201 -6.62607 0
M  V30 24575 H 2318.63 -0.069463 -0.672422 0
M  V30 24576 H 2321.18 -0.844918 -1.87217 0
M  V30 24577 H 2319.41 0.866757 -3.76861 0
M  V30 24578 H 2321.1 0.534484 -4.02366 0
M  V30 24579 H 2321.87 -1.91071 -4.45777 0
M  V30 24580 H 2317.74 -0.688625 -4.55828 0
M  V30 24581 H 2321.29 -3.9213 -5.76958 0
M  V30 24582 H 2317.19 -2.69053 -5.86754 0
M  V30 24583 H 2317.95 -4.53978 -6.81063 0
M  V30 24584 N 2320.62 1.53557 -0.354678 0
M  V30 24585 C 2321.89 1.93374 0.294247 0
M  V30 24586 C 2322.27 1.28726 1.67311 0
M  V30 24587 O 2321.62 0.442286 2.24179 0
M  V30 24588 C 2321.83 3.47186 0.355384 0
M  V30 24589 C 2323.18 4.20326 0.600933 0
M  V30 24590 O 2324.2 3.53509 0.437044 0
M  V30 24591 O 2323.06 5.38714 0.919228 0
M  V30 24592 H 2320.16 0.808484 0.174019 0
M  V30 24593 H 2322.7 1.64755 -0.406667 0
M  V30 24594 H 2321.48 3.86488 -0.611797 0
M  V30 24595 H 2321.1 3.82005 1.10263 0
M  V30 24596 N 2322.1 0.083568 1.57378 0
M  V30 24597 C 2323.03 -0.876822 2.16412 0
M  V30 24598 C 2324.01 -1.30226 1.09431 0
M  V30 24599 O 2325.19 -1.37121 1.37519 0
M  V30 24600 C 2322.32 -2.14017 2.73521 0
M  V30 24601 C 2321.28 -1.85375 3.85772 0
M  V30 24602 C 2320.6 -3.1844 4.29534 0
M  V30 24603 C 2321.9 -1.14975 5.09488 0
M  V30 24604 H 2323.6 -0.385006 2.96914 0
M  V30 24605 H 2321.14 -0.183745 1.42823 0
M  V30 24606 H 2323.09 -2.81631 3.13468 0
M  V30 24607 H 2321.82 -2.65462 1.90257 0
M  V30 24608 H 2320.48 -1.20163 3.46347 0
M  V30 24609 H 2320.13 -3.67749 3.43176 0
M  V30 24610 H 2319.83 -3.00063 5.05209 0
M  V30 24611 H 2321.35 -3.87231 4.72106 0
M  V30 24612 H 2322.76 -1.72677 5.46677 0
M  V30 24613 H 2321.16 -1.06816 5.90517 0
M  V30 24614 H 2322.23 -0.130663 4.84724 0
M  V30 24615 N 2323.57 -1.5645 -0.190064 0
M  V30 24616 C 2324.82 -1.80918 -0.909673 0
M  V30 24617 C 2325.15 -0.657615 -1.83046 0
M  V30 24618 O 2324.4 0.356322 -1.92429 0
M  V30 24619 C 2324.7 -3.11413 -1.75376 0
M  V30 24620 C 2324.37 -4.40043 -0.983528 0
M  V30 24621 C 2323.03 -4.74985 -0.770883 0
M  V30 24622 C 2325.38 -5.19323 -0.441933 0
M  V30 24623 C 2322.71 -5.867 -0.00524167 0
M  V30 24624 C 2325.06 -6.31837 0.310523 0
M  V30 24625 C 2323.73 -6.65359 0.53414 0
M  V30 24626 H 2323 -0.662025 -0.332873 0
M  V30 24627 H 2325.64 -1.90692 -0.175728 0
M  V30 24628 H 2323.95 -2.96898 -2.55654 0
M  V30 24629 H 2325.65 -3.27551 -2.31325 0
M  V30 24630 H 2322.24 -4.12624 -1.15928 0
M  V30 24631 H 2326.42 -4.92737 -0.593607 0
M  V30 24632 H 2321.68 -6.11141 0.177933 0
M  V30 24633 H 2325.85 -6.92483 0.73754 0
M  V30 24634 H 2323.48 -7.51765 1.12931 0
M  V30 24635 N 2325.05 0.45796 -1.50799 0
M  V30 24636 C 2326 1.57497 -1.71165 0
M  V30 24637 C 2326.99 1.59248 -0.57762 0
M  V30 24638 O 2328.2 1.6324 -0.758472 0
M  V30 24639 H 2324.57 0.522866 -0.540477 0
M  V30 24640 H 2326.55 1.37487 -2.64839 0
M  V30 24641 C 2325.29 2.95334 -1.83502 0
M  V30 24642 H 2324.62 2.94711 -2.70158 0
M  V30 24643 H 2326.06 3.72913 -2.01771 0
M  V30 24644 C 2324.52 3.31698 -0.589752 0
M  V30 24645 O 2325.05 4.00824 0.265093 0
M  V30 24646 N 2323.25 2.87251 -0.439896 0
M  V30 24647 H 2322.8 2.3117 -1.13659 0
M  V30 24648 H 2322.76 3.11945 0.392105 0
M  V30 24649 N 2326.53 1.40598 0.712035 0
M  V30 24650 C 2327.48 1.41145 1.82611 0
M  V30 24651 C 2328.45 0.267932 1.63925 0
M  V30 24652 O 2329.63 0.466527 1.85009 0
M  V30 24653 C 2326.77 1.2833 3.20352 0
M  V30 24654 C 2325.88 2.52417 3.50585 0
M  V30 24655 C 2325.02 2.32017 4.77851 0
M  V30 24656 C 2324.06 3.51663 5.00999 0
M  V30 24657 N 2323.2 3.30436 6.19481 0
M  V30 24658 H 2328.04 2.36368 1.81478 0
M  V30 24659 H 2325.57 1.1739 0.886455 0
M  V30 24660 H 2327.53 1.18906 3.99897 0
M  V30 24661 H 2326.16 0.367245 3.20704 0
M  V30 24662 H 2325.21 2.72356 2.65568 0
M  V30 24663 H 2326.52 3.41464 3.63598 0
M  V30 24664 H 2325.68 2.19966 5.6542 0
M  V30 24665 H 2324.42 1.40401 4.67054 0
M  V30 24666 H 2323.42 3.64187 4.11884 0
M  V30 24667 H 2324.65 4.44211 5.13666 0
M  V30 24668 H 2322.59 2.41505 6.09927 0
M  V30 24669 H 2322.51 4.1305 6.33187 0
M  V30 24670 H 2323.78 3.22125 7.09828 0
M  V30 24671 N 2328.01 -0.94462 1.26153 0
M  V30 24672 C 2328.92 -2.07646 1.0918 0
M  V30 24673 C 2329.93 -1.7398 0.0262241 0
M  V30 24674 O 2331.11 -2.00091 0.229243 0
M  V30 24675 C 2328.17 -3.39078 0.722974 0
M  V30 24676 C 2327.24 -3.86549 1.86758 0
M  V30 24677 C 2326.47 -5.11708 1.51626 0
M  V30 24678 O 2326.69 -5.68878 0.416431 0
M  V30 24679 O 2325.63 -5.54135 2.34985 0
M  V30 24680 H 2329.45 -2.24872 2.04124 0
M  V30 24681 H 2327.04 -1.06098 1.05184 0
M  V30 24682 H 2328.92 -4.18056 0.529861 0
M  V30 24683 H 2327.59 -3.23099 -0.197102 0
M  V30 24684 H 2326.5 -3.08531 2.11564 0
M  V30 24685 H 2327.83 -4.07042 2.76726 0
M  V30 24686 N 2329.49 -1.07901 -1.1487 0
M  V30 24687 C 2330.73 -0.803973 -1.8542 0
M  V30 24688 C 2331.05 0.672078 -1.83052 0
M  V30 24689 O 2330.32 1.487 -1.27534 0
M  V30 24690 H 2328.9 -0.29442 -0.686532 0
M  V30 24691 H 2331.57 -1.36393 -1.39223 0
M  V30 24692 H 2330.66 -1.14351 -2.90397 0
M  V30 24693 N 2330.96 1.31811 -0.863929 0
M  V30 24694 C 2332.21 1.97217 -0.47257 0
M  V30 24695 C 2332.54 1.68161 0.971364 0
M  V30 24696 O 2331.82 0.974827 1.68307 0
M  V30 24697 C 2332.1 3.52765 -0.723116 0
M  V30 24698 C 2331.95 3.91417 -2.21614 0
M  V30 24699 C 2333.27 4.39708 -0.185599 0
M  V30 24700 H 2330.39 0.716366 -0.173171 0
M  V30 24701 H 2333.03 1.56039 -1.08406 0
M  V30 24702 H 2331.18 3.87971 -0.202645 0
M  V30 24703 H 2332.86 3.66343 -2.80341 0
M  V30 24704 H 2331.1 3.40241 -2.69106 0
M  V30 24705 H 2331.77 4.99849 -2.34212 0
M  V30 24706 H 2334.25 4.11291 -0.630798 0
M  V30 24707 H 2333.12 5.4751 -0.390402 0
M  V30 24708 H 2333.38 4.32588 0.912153 0
M  V30 24709 N 2332.44 0.62277 1.44773 0
M  V30 24710 C 2333.39 -0.0871274 2.30635 0
M  V30 24711 C 2334.36 -0.845072 1.42996 0
M  V30 24712 O 2335.54 -0.827782 1.71908 0
M  V30 24713 C 2332.68 -1.06839 3.28146 0
M  V30 24714 C 2331.8 -0.309733 4.30888 0
M  V30 24715 C 2330.93 -1.28206 5.15496 0
M  V30 24716 C 2329.97 -0.51209 6.09954 0
M  V30 24717 N 2329.11 -1.43446 6.8729 0
M  V30 24718 H 2333.95 0.651025 2.90802 0
M  V30 24719 H 2331.48 0.332835 1.43285 0
M  V30 24720 H 2333.44 -1.65059 3.8316 0
M  V30 24721 H 2332.07 -1.77377 2.69699 0
M  V30 24722 H 2331.12 0.388247 3.78414 0
M  V30 24723 H 2332.44 0.290341 4.97954 0
M  V30 24724 H 2331.59 -1.93586 5.74986 0
M  V30 24725 H 2330.33 -1.91607 4.48484 0
M  V30 24726 H 2329.33 0.155248 5.49581 0
M  V30 24727 H 2330.56 0.117077 6.78999 0
M  V30 24728 H 2328.51 -2.05583 6.22954 0
M  V30 24729 H 2328.42 -0.888203 7.50764 0
M  V30 24730 H 2329.69 -2.07736 7.51309 0
M  V30 24731 N 2333.92 -1.53367 0.362817 0
M  V30 24732 C 2334.85 -2.28577 -0.476936 0
M  V30 24733 C 2335.83 -1.30896 -1.08629 0
M  V30 24734 O 2337.02 -1.59763 -1.10406 0
M  V30 24735 C 2334.15 -3.07296 -1.61823 0
M  V30 24736 C 2333.1 -4.12642 -1.13626 0
M  V30 24737 C 2332.43 -4.79427 -2.36757 0
M  V30 24738 C 2333.73 -5.21824 -0.222969 0
M  V30 24739 H 2335.42 -2.99021 0.150526 0
M  V30 24740 H 2332.97 -1.43811 0.0738356 0
M  V30 24741 H 2334.92 -3.58657 -2.21231 0
M  V30 24742 H 2333.64 -2.34537 -2.27288 0
M  V30 24743 H 2332.3 -3.62222 -0.564881 0
M  V30 24744 H 2331.95 -4.03243 -3.00673 0
M  V30 24745 H 2331.65 -5.50612 -2.05182 0
M  V30 24746 H 2333.17 -5.33581 -2.96856 0
M  V30 24747 H 2334.59 -5.68704 -0.724445 0
M  V30 24748 H 2332.98 -6.001 0.00178349 0
M  V30 24749 H 2334.05 -4.79287 0.735638 0
M  V30 24750 N 2335.4 -0.091913 -1.57332 0
M  V30 24751 C 2336.31 0.882467 -2.1737 0
M  V30 24752 C 2337.32 1.31255 -1.14228 0
M  V30 24753 O 2338.5 1.38112 -1.46585 0
M  V30 24754 C 2335.57 2.12471 -2.73965 0
M  V30 24755 C 2334.63 1.74913 -3.92051 0
M  V30 24756 C 2333.86 2.93215 -4.45938 0
M  V30 24757 O 2334.08 4.07845 -3.98771 0
M  V30 24758 O 2333.02 2.71866 -5.37003 0
M  V30 24759 H 2336.84 0.401667 -3.01032 0
M  V30 24760 H 2334.43 0.132264 -1.48813 0
M  V30 24761 H 2336.31 2.85278 -3.10152 0
M  V30 24762 H 2334.98 2.59609 -1.93351 0
M  V30 24763 H 2333.89 0.992961 -3.60681 0
M  V30 24764 H 2335.22 1.3254 -4.74019 0
M  V30 24765 N 2336.88 1.56548 0.181765 0
M  V30 24766 C 2338.13 1.80591 0.898316 0
M  V30 24767 C 2338.44 0.667411 1.83861 0
M  V30 24768 O 2339.64 0.792491 2.59676 0
M  V30 24769 C 2338.1 3.19959 1.64785 0
M  V30 24770 C 2337.71 4.41648 0.751711 0
M  V30 24771 C 2339.45 3.53302 2.35325 0
M  V30 24772 C 2337.36 5.72038 1.50088 0
M  V30 24773 H 2336.29 0.673403 0.339182 0
M  V30 24774 H 2338.94 1.82875 0.151381 0
M  V30 24775 H 2337.32 3.11963 2.43916 0
M  V30 24776 H 2338.5 4.608 -0.0018886 0
M  V30 24777 H 2336.81 4.16106 0.156489 0
M  V30 24778 H 2339.41 4.47961 2.9195 0
M  V30 24779 H 2339.75 2.77682 3.10159 0
M  V30 24780 H 2340.28 3.62805 1.63147 0
M  V30 24781 H 2337.02 6.5066 0.795061 0
M  V30 24782 H 2336.54 5.56882 2.22807 0
M  V30 24783 H 2338.22 6.13626 2.05115 0
M  V30 24784 N 2338.35 -0.449957 1.5104 0
M  V30 24785 C 2339.58 -1.22317 1.66871 0
M  V30 24786 C 2340 -1.85321 0.360759 0
M  V30 24787 O 2339.35 -1.70167 -0.659501 0
M  V30 24788 C 2339.41 -2.31648 2.77528 0
M  V30 24789 O 2339.13 -1.71223 4.03255 0
M  V30 24790 C 2340.63 -3.22155 3.04518 0
M  V30 24791 H 2337.85 -0.369145 0.560333 0
M  V30 24792 H 2340.39 -0.534684 1.97386 0
M  V30 24793 H 2338.55 -2.96234 2.49648 0
M  V30 24794 H 2338.96 -2.43381 4.64614 0
M  V30 24795 H 2340.43 -3.95031 3.85557 0
M  V30 24796 H 2340.91 -3.82176 2.16422 0
M  V30 24797 H 2341.52 -2.63282 3.3401 0
M  V30 24798 N 2339.83 -1.40974 -0.704569 0
M  V30 24799 C 2341.08 -1.40054 -1.46672 0
M  V30 24800 C 2341.41 -0.00644516 -1.94199 0
M  V30 24801 O 2340.69 0.964205 -1.68918 0
M  V30 24802 C 2340.97 -2.39957 -2.68501 0
M  V30 24803 C 2340.82 -3.88436 -2.26798 0
M  V30 24804 C 2342.14 -2.3724 -3.70682 0
M  V30 24805 H 2339.26 -0.510038 -0.532006 0
M  V30 24806 H 2341.9 -1.72187 -0.803225 0
M  V30 24807 H 2340.05 -2.12686 -3.25111 0
M  V30 24808 H 2341.72 -4.26577 -1.75585 0
M  V30 24809 H 2339.97 -4.03737 -1.58678 0
M  V30 24810 H 2340.64 -4.53871 -3.14173 0
M  V30 24811 H 2343.11 -2.6142 -3.23726 0
M  V30 24812 H 2341.99 -3.0917 -4.53547 0
M  V30 24813 H 2342.25 -1.38784 -4.19752 0
M  V30 24814 N 2341.31 0.937917 -1.26653 0
M  V30 24815 C 2342.24 2.05431 -1.10997 0
M  V30 24816 C 2343.22 1.70094 -0.014246 0
M  V30 24817 O 2344.41 1.93299 -0.186871 0
M  V30 24818 C 2341.54 3.39202 -0.745621 0
M  V30 24819 C 2340.49 3.88612 -1.79344 0
M  V30 24820 C 2339.82 5.19071 -1.28333 0
M  V30 24821 C 2341.12 4.13133 -3.1956 0
M  V30 24822 H 2342.81 2.18787 -2.04384 0
M  V30 24823 H 2340.36 1.0513 -0.98406 0
M  V30 24824 H 2342.31 4.1677 -0.622961 0
M  V30 24825 H 2341.03 3.25831 0.223953 0
M  V30 24826 H 2339.69 3.13228 -1.90483 0
M  V30 24827 H 2339.34 5.02084 -0.303503 0
M  V30 24828 H 2339.04 5.531 -1.98379 0
M  V30 24829 H 2340.56 5.99219 -1.1734 0
M  V30 24830 H 2341.98 4.81304 -3.1148 0
M  V30 24831 H 2340.38 4.5845 -3.87226 0
M  V30 24832 H 2341.45 3.18794 -3.65374 0
M  V30 24833 N 2342.79 1.08509 1.14296 0
M  V30 24834 C 2343.74 0.716003 2.19413 0
M  V30 24835 C 2344.71 -0.298297 1.634 0
M  V30 24836 O 2345.89 -0.182067 1.89929 0
M  V30 24837 C 2343.03 0.132594 3.44845 0
M  V30 24838 C 2342.14 1.1998 4.15005 0
M  V30 24839 C 2341.28 0.580141 5.28023 0
M  V30 24840 C 2340.32 1.62931 5.90017 0
M  V30 24841 N 2339.45 1.03137 6.94483 0
M  V30 24842 H 2344.29 1.6167 2.50333 0
M  V30 24843 H 2341.83 0.807904 1.22928 0
M  V30 24844 H 2343.79 -0.223381 4.16602 0
M  V30 24845 H 2342.42 -0.731412 3.14405 0
M  V30 24846 H 2341.47 1.67319 3.41626 0
M  V30 24847 H 2342.78 1.99481 4.57175 0
M  V30 24848 H 2341.94 0.172471 6.06455 0
M  V30 24849 H 2340.68 -0.246518 4.87077 0
M  V30 24850 H 2339.68 2.04663 5.10287 0
M  V30 24851 H 2340.91 2.45846 6.33037 0
M  V30 24852 H 2338.85 0.225826 6.55611 0
M  V30 24853 H 2338.77 1.76347 7.35145 0
M  V30 24854 H 2340.04 0.649594 7.76789 0
M  V30 24855 N 2344.27 -1.31351 0.870907 0
M  V30 24856 C 2345.2 -2.30965 0.343137 0
M  V30 24857 C 2346.18 -1.6039 -0.566479 0
M  V30 24858 O 2347.36 -1.8809 -0.483303 0
M  V30 24859 C 2344.49 -3.44301 -0.455426 0
M  V30 24860 C 2343.45 -4.26473 0.361178 0
M  V30 24861 C 2342.77 -5.31726 -0.563127 0
M  V30 24862 C 2344.07 -4.97326 1.59575 0
M  V30 24863 H 2345.77 -2.75357 1.17553 0
M  V30 24864 H 2343.31 -1.3238 0.566709 0
M  V30 24865 H 2345.27 -4.13041 -0.835178 0
M  V30 24866 H 2343.99 -2.98678 -1.32134 0
M  V30 24867 H 2342.65 -3.59402 0.722888 0
M  V30 24868 H 2342.3 -4.82353 -1.42634 0
M  V30 24869 H 2342 -5.87596 -0.0206376 0
M  V30 24870 H 2343.52 -6.03326 -0.939702 0
M  V30 24871 H 2344.93 -5.58659 1.28738 0
M  V30 24872 H 2343.33 -5.62996 2.07738 0
M  V30 24873 H 2344.4 -4.24258 2.34805 0
M  V30 24874 N 2345.74 -0.630439 -1.44441 0
M  V30 24875 C 2347.02 -0.0656 -1.9549 0
M  V30 24876 C 2347.4 1.40848 -1.57242 0
M  V30 24877 O 2346.75 2.12256 -0.846154 0
M  V30 24878 C 2346.96 -0.287752 -3.47812 0
M  V30 24879 C 2348.31 -0.180588 -4.24216 0
M  V30 24880 O 2349.33 -0.219082 -3.55526 0
M  V30 24881 O 2348.19 -0.0849453 -5.46434 0
M  V30 24882 H 2345.28 0.0227031 -0.826688 0
M  V30 24883 H 2347.83 -0.702095 -1.54495 0
M  V30 24884 H 2346.6 -1.31063 -3.68698 0
M  V30 24885 H 2346.23 0.382914 -3.95752 0
M  V30 24886 N 2347.22 1.53172 -0.370945 0
M  V30 24887 C 2348.64 1.59587 -0.0201098 0
M  V30 24888 C 2348.84 1.38583 1.46277 0
M  V30 24889 O 2347.89 1.19367 2.22504 0
M  V30 24890 C 2349.21 2.9683 -0.480852 0
M  V30 24891 C 2350.76 3.09955 -0.435532 0
M  V30 24892 C 2351.23 4.49619 -0.872171 0
M  V30 24893 N 2352.72 4.55749 -0.827444 0
M  V30 24894 C 2353.46 5.62016 -1.13692 0
M  V30 24895 N 2352.95 6.76011 -1.51595 0
M  V30 24896 N 2354.75 5.52027 -1.05937 0
M  V30 24897 H 2346.9 1.65076 -1.33655 0
M  V30 24898 H 2349.16 0.77452 -0.546647 0
M  V30 24899 H 2348.87 3.17357 -1.51583 0
M  V30 24900 H 2348.74 3.76977 0.129729 0
M  V30 24901 H 2351.13 2.89135 0.59032 0
M  V30 24902 H 2351.21 2.31805 -1.08168 0
M  V30 24903 H 2350.85 4.71177 -1.89616 0
M  V30 24904 H 2350.78 5.26208 -0.20322 0
M  V30 24905 H 2353.27 3.73901 -0.548282 0
M  V30 24906 H 2353.59 7.53044 -1.73622 0
M  V30 24907 H 2351.93 6.77389 -1.55466 0
M  V30 24908 H 2355.12 4.6185 -0.762402 0
M  V30 24909 H 2355.29 6.34746 -1.30389 0
M  V30 24910 N 2348.7 0.100255 1.57281 0
M  V30 24911 C 2349.65 -0.87429 2.15543 0
M  V30 24912 C 2350.64 -1.28857 1.09964 0
M  V30 24913 O 2351.85 -1.2625 1.283 0
M  V30 24914 H 2348.22 -0.299991 0.689572 0
M  V30 24915 H 2350.19 -0.358238 2.96242 0
M  V30 24916 C 2348.94 -2.12175 2.75458 0
M  V30 24917 H 2348.27 -1.81186 3.56387 0
M  V30 24918 H 2349.71 -2.78412 3.19786 0
M  V30 24919 C 2348.17 -2.89918 1.71607 0
M  V30 24920 O 2348.7 -3.84644 1.15811 0
M  V30 24921 N 2346.9 -2.53555 1.41979 0
M  V30 24922 H 2346.45 -1.76595 1.87542 0
M  V30 24923 H 2346.41 -3.05871 0.727328 0
M  V30 24924 N 2350.18 -1.56643 -0.17346 0
M  V30 24925 C 2351.09 -1.99475 -1.23479 0
M  V30 24926 C 2352.11 -0.905778 -1.48565 0
M  V30 24927 O 2353.28 -1.21324 -1.60756 0
M  V30 24928 C 2350.35 -2.34417 -2.5544 0
M  V30 24929 C 2349.41 -3.57131 -2.38234 0
M  V30 24930 C 2348.64 -3.90398 -3.63903 0
M  V30 24931 O 2348.86 -3.24661 -4.6899 0
M  V30 24932 O 2347.8 -4.83755 -3.58141 0
M  V30 24933 H 2351.62 -2.9002 -0.901228 0
M  V30 24934 H 2349.21 -1.44482 -0.38016 0
M  V30 24935 H 2351.09 -2.57871 -3.33287 0
M  V30 24936 H 2349.77 -1.47035 -2.88379 0
M  V30 24937 H 2348.67 -3.38899 -1.58425 0
M  V30 24938 H 2350.01 -4.45049 -2.1022 0
M  V30 24939 N 2351.66 0.44194 -1.51277 0
M  V30 24940 C 2352.6 1.53609 -1.72258 0
M  V30 24941 C 2353.57 1.56224 -0.564191 0
M  V30 24942 O 2354.76 1.73306 -0.798104 0
M  V30 24943 C 2351.9 2.91363 -1.84937 0
M  V30 24944 C 2351.01 2.98312 -3.12465 0
M  V30 24945 C 2350.15 4.2716 -3.15765 0
M  V30 24946 C 2349.19 4.2796 -4.37627 0
M  V30 24947 N 2348.32 5.48325 -4.38502 0
M  V30 24948 H 2353.16 1.35021 -2.65656 0
M  V30 24949 H 2350.7 0.655986 -1.31663 0
M  V30 24950 H 2352.66 3.71286 -1.90269 0
M  V30 24951 H 2351.29 3.08519 -0.949515 0
M  V30 24952 H 2350.34 2.1108 -3.16464 0
M  V30 24953 H 2351.65 2.94764 -4.02388 0
M  V30 24954 H 2350.81 5.15454 -3.19988 0
M  V30 24955 H 2349.55 4.33358 -2.23723 0
M  V30 24956 H 2348.55 3.3806 -4.33585 0
M  V30 24957 H 2349.78 4.23429 -5.30928 0
M  V30 24958 H 2347.72 5.55253 -3.49328 0
M  V30 24959 H 2347.64 5.46638 -5.22229 0
M  V30 24960 H 2348.91 6.38663 -4.46912 0
M  V30 24961 N 2353.14 1.41345 0.697083 0
M  V30 24962 C 2354.38 1.40621 1.45712 0
M  V30 24963 C 2354.71 0.0148248 1.94494 0
M  V30 24964 O 2353.97 -0.973036 1.69795 0
M  V30 24965 C 2354.26 2.35831 2.68549 0
M  V30 24966 C 2353.93 3.82703 2.38431 0
M  V30 24967 C 2352.59 4.22713 2.29928 0
M  V30 24968 C 2354.94 4.75439 2.13559 0
M  V30 24969 C 2352.27 5.5347 1.94647 0
M  V30 24970 C 2354.62 6.06514 1.79786 0
M  V30 24971 C 2353.29 6.45548 1.69778 0
M  V30 24972 H 2352.56 0.51457 0.533197 0
M  V30 24973 H 2355.21 1.74133 0.79687 0
M  V30 24974 H 2353.51 1.95569 3.395 0
M  V30 24975 H 2355.21 2.32545 3.26686 0
M  V30 24976 H 2351.8 3.51013 2.45943 0
M  V30 24977 H 2355.98 4.45332 2.19074 0
M  V30 24978 H 2351.24 5.82596 1.85449 0
M  V30 24979 H 2355.41 6.77874 1.5956 0
M  V30 24980 H 2353.04 7.46781 1.42207 0
M  V30 24981 N 2354.61 -0.931187 1.27148 0
M  V30 24982 C 2356.03 -1.20651 1.04477 0
M  V30 24983 C 2356.23 -2.00253 -0.22385 0
M  V30 24984 O 2355.29 -2.34738 -0.93029 0
M  V30 24985 C 2356.6 -1.95805 2.28212 0
M  V30 24986 C 2358.15 -2.08758 2.33215 0
M  V30 24987 C 2358.62 -2.87316 3.5667 0
M  V30 24988 N 2360.11 -2.94886 3.57206 0
M  V30 24989 C 2360.85 -3.56126 4.49401 0
M  V30 24990 N 2360.34 -4.18786 5.51896 0
M  V30 24991 N 2362.14 -3.53496 4.37032 0
M  V30 24992 H 2354.29 -0.399296 2.08613 0
M  V30 24993 H 2356.55 -0.239237 0.917317 0
M  V30 24994 H 2356.26 -1.44731 3.2054 0
M  V30 24995 H 2356.13 -2.96434 2.33253 0
M  V30 24996 H 2358.52 -2.5902 1.41395 0
M  V30 24997 H 2358.6 -1.0736 2.3218 0
M  V30 24998 H 2358.24 -2.37738 4.48824 0
M  V30 24999 H 2358.17 -3.88992 3.54955 0
M  V30 25000 H 2360.66 -2.50349 2.83079 0
M  V30 25001 H 2360.98 -4.63443 6.18418 0
M  V30 25002 H 2359.32 -4.17343 5.55743 0
M  V30 25003 H 2362.51 -3.03743 3.56171 0
M  V30 25004 H 2362.69 -4.00933 5.09074 0
M  V30 25005 N 2356.09 -1.09114 -1.13719 0
M  V30 25006 C 2357.37 -0.737737 -1.81154 0
M  V30 25007 C 2357.75 0.777649 -1.96255 0
M  V30 25008 O 2357.1 1.69886 -1.5281 0
M  V30 25009 C 2357.31 -1.47305 -3.16389 0
M  V30 25010 C 2358.65 -1.63677 -3.91784 0
M  V30 25011 O 2359.68 -1.4353 -3.26003 0
M  V30 25012 O 2358.54 -1.96978 -5.09767 0
M  V30 25013 H 2355.63 -0.264644 -0.783513 0
M  V30 25014 H 2358.18 -1.19315 -1.20674 0
M  V30 25015 H 2356.95 -2.50503 -3.00606 0
M  V30 25016 H 2356.57 -1.0096 -3.84568 0
M  V30 25017 N 2357.57 1.30887 -0.877861 0
M  V30 25018 C 2358.82 1.95687 -0.488827 0
M  V30 25019 C 2359.13 1.70113 0.965455 0
M  V30 25020 O 2360.34 2.28838 1.461 0
M  V30 25021 C 2358.79 3.50358 -0.823263 0
M  V30 25022 C 2358.4 3.84761 -2.29484 0
M  V30 25023 C 2360.15 4.21508 -0.503083 0
M  V30 25024 C 2358.05 5.32578 -2.57127 0
M  V30 25025 H 2356.98 0.732426 -0.179075 0
M  V30 25026 H 2359.63 1.48941 -1.07185 0
M  V30 25027 H 2358.02 3.95638 -0.169401 0
M  V30 25028 H 2359.19 3.50415 -2.99242 0
M  V30 25029 H 2357.5 3.26696 -2.58184 0
M  V30 25030 H 2360.1 5.30272 -0.686744 0
M  V30 25031 H 2360.44 4.12556 0.557036 0
M  V30 25032 H 2360.98 3.81888 -1.11383 0
M  V30 25033 H 2357.72 5.46574 -3.61853 0
M  V30 25034 H 2357.24 5.68249 -1.91971 0
M  V30 25035 H 2358.92 5.99932 -2.42262 0
M  V30 25036 N 2359.05 0.638091 1.44105 0
M  V30 25037 C 2360.46 0.304314 1.56672 0
M  V30 25038 C 2360.66 -1.19225 1.62442 0
M  V30 25039 O 2359.72 -1.97657 1.57124 0
M  V30 25040 C 2361.03 1.00236 2.83502 0
M  V30 25041 C 2362.58 0.981168 2.97224 0
M  V30 25042 C 2363.06 1.65982 4.26865 0
M  V30 25043 N 2364.55 1.62674 4.33695 0
M  V30 25044 C 2365.28 2.12072 5.32741 0
M  V30 25045 N 2364.78 2.69692 6.38152 0
M  V30 25046 N 2366.57 2.0266 5.24295 0
M  V30 25047 H 2358.72 1.60945 1.38602 0
M  V30 25048 H 2360.98 0.675977 0.66465 0
M  V30 25049 H 2360.69 2.05735 2.85247 0
M  V30 25050 H 2360.56 0.544456 3.7325 0
M  V30 25051 H 2362.95 -0.065367 2.95028 0
M  V30 25052 H 2363.03 1.47763 2.08806 0
M  V30 25053 H 2362.68 2.70584 4.29822 0
M  V30 25054 H 2362.61 1.13813 5.14154 0
M  V30 25055 H 2365.1 1.20612 3.58136 0
M  V30 25056 H 2365.41 3.05099 7.10024 0
M  V30 25057 H 2363.76 2.73746 6.38818 0
M  V30 25058 H 2366.95 1.57361 4.40857 0
M  V30 25059 H 2367.12 2.41468 6.0133 0
M  V30 25060 N 2360.53 -1.52973 0.379063 0
M  V30 25061 C 2361.47 -2.26149 -0.461008 0
M  V30 25062 C 2362.44 -1.2735 -1.06635 0
M  V30 25063 O 2363.63 -1.56159 -1.09631 0
M  V30 25064 C 2360.77 -3.06405 -1.58777 0
M  V30 25065 C 2359.88 -4.20117 -1.00629 0
M  V30 25066 C 2359.02 -4.87787 -2.10326 0
M  V30 25067 C 2358.05 -5.93509 -1.49713 0
M  V30 25068 N 2357.19 -6.54816 -2.53299 0
M  V30 25069 H 2362.03 -2.97518 0.169482 0
M  V30 25070 H 2359.57 -1.4679 0.0954064 0
M  V30 25071 H 2361.53 -3.51219 -2.25168 0
M  V30 25072 H 2360.16 -2.37265 -2.18872 0
M  V30 25073 H 2359.21 -3.7969 -0.232266 0
M  V30 25074 H 2360.52 -4.96048 -0.523256 0
M  V30 25075 H 2359.67 -5.35854 -2.84509 0
M  V30 25076 H 2358.41 -4.11358 -2.61985 0
M  V30 25077 H 2357.42 -5.4479 -0.740502 0
M  V30 25078 H 2358.64 -6.71865 -0.988614 0
M  V30 25079 H 2356.59 -5.81232 -3.04146 0
M  V30 25080 H 2356.51 -7.26328 -2.09721 0
M  V30 25081 H 2357.77 -7.07529 -3.27143 0
M  V30 25082 N 2362 -0.108595 -1.57225 0
M  V30 25083 C 2363.23 0.559107 -1.98891 0
M  V30 25084 C 2363.64 1.6142 -0.986918 0
M  V30 25085 O 2362.98 1.83676 0.0298382 0
M  V30 25086 C 2363.05 1.25309 -3.36954 0
M  V30 25087 C 2362.71 0.347168 -4.55679 0
M  V30 25088 C 2363.71 -0.410087 -5.1828 0
M  V30 25089 C 2361.39 0.261279 -5.0162 0
M  V30 25090 C 2363.39 -1.24107 -6.25201 0
M  V30 25091 C 2361.07 -0.573345 -6.08404 0
M  V30 25092 C 2362.07 -1.32316 -6.70061 0
M  V30 25093 O 2361.76 -2.14394 -7.74784 0
M  V30 25094 H 2361.49 0.153481 -0.658346 0
M  V30 25095 H 2364.05 -0.18862 -2.04532 0
M  V30 25096 H 2362.28 2.04767 -3.28036 0
M  V30 25097 H 2363.96 1.81666 -3.62977 0
M  V30 25098 H 2364.73 -0.353542 -4.8371 0
M  V30 25099 H 2360.61 0.834577 -4.53383 0
M  V30 25100 H 2364.15 -1.82681 -6.73256 0
M  V30 25101 H 2360.05 -0.631321 -6.42405 0
M  V30 25102 H 2360.82 -2.07223 -7.91834 0
M  V30 25103 N 2363.48 1.56732 0.16515 0
M  V30 25104 C 2364.73 1.81534 0.879111 0
M  V30 25105 C 2365.04 0.686874 1.83143 0
M  V30 25106 O 2366.25 0.819989 2.58821 0
M  V30 25107 C 2364.71 3.21689 1.61382 0
M  V30 25108 C 2364.31 4.42421 0.704826 0
M  V30 25109 C 2366.06 3.55778 2.31564 0
M  V30 25110 C 2363.96 5.73598 1.44012 0
M  V30 25111 H 2362.89 0.676963 0.332021 0
M  V30 25112 H 2365.55 1.83025 0.131976 0
M  V30 25113 H 2363.93 3.14533 2.40593 0
M  V30 25114 H 2365.1 4.60772 -0.0507625 0
M  V30 25115 H 2363.42 4.16248 0.112346 0
M  V30 25116 H 2366.01 4.51033 2.87182 0
M  V30 25117 H 2366.36 2.80956 3.07196 0
M  V30 25118 H 2366.89 3.64515 1.5929 0
M  V30 25119 H 2363.63 6.51467 0.726005 0
M  V30 25120 H 2363.15 5.59213 2.16888 0
M  V30 25121 H 2364.83 6.15767 1.98595 0
M  V30 25122 N 2364.96 -0.433911 1.51509 0
M  V30 25123 C 2366.37 -1.01366 1.56786 0
M  V30 25124 C 2366.72 -1.92216 0.393383 0
M  V30 25125 O 2365.85 -2.10793 -0.489404 0
M  V30 25126 C 2366.44 -1.84515 2.84147 0
M  V30 25127 C 2365 -2.37533 2.91984 0
M  V30 25128 C 2364.15 -1.16839 2.51484 0
M  V30 25129 H 2367.1 -0.215053 1.57236 0
M  V30 25130 H 2367.12 -2.70002 2.68103 0
M  V30 25131 H 2366.63 -1.18366 3.69609 0
M  V30 25132 H 2364.73 -3.07126 2.1096 0
M  V30 25133 H 2364.85 -2.70096 3.95708 0
M  V30 25134 H 2363.21 -1.51477 2.0476 0
M  V30 25135 H 2363.99 -0.522955 3.39293 0
M  V30 25136 N 2366.44 -1.41713 -0.689577 0
M  V30 25137 C 2367.35 -1.46404 -1.83311 0
M  V30 25138 C 2368.36 -0.35408 -1.70359 0
M  V30 25139 O 2369.54 -0.602726 -1.9217 0
M  V30 25140 C 2366.61 -1.34988 -3.19342 0
M  V30 25141 C 2365.67 -2.5635 -3.44359 0
M  V30 25142 C 2364.9 -2.45469 -4.73899 0
M  V30 25143 O 2365.12 -1.48251 -5.50798 0
M  V30 25144 O 2364.06 -3.35336 -4.99833 0
M  V30 25145 H 2367.88 -2.42893 -1.8231 0
M  V30 25146 H 2365.47 -1.23316 -0.843417 0
M  V30 25147 H 2367.35 -1.30927 -4.00545 0
M  V30 25148 H 2366.02 -0.416176 -3.21013 0
M  V30 25149 H 2364.93 -2.65987 -2.63063 0
M  V30 25150 H 2366.26 -3.48569 -3.47506 0
M  V30 25151 N 2367.92 0.924431 -1.2764 0
M  V30 25152 C 2369.14 1.71177 -1.17104 0
M  V30 25153 C 2369.57 1.8618 0.268101 0
M  V30 25154 O 2368.92 1.3642 1.19413 0
M  V30 25155 C 2368.97 3.08736 -1.86319 0
M  V30 25156 O 2368.08 3.9565 -1.16338 0
M  V30 25157 H 2367.42 0.524562 -0.4071 0
M  V30 25158 H 2369.95 1.15663 -1.68769 0
M  V30 25159 H 2369.96 3.59031 -1.93806 0
M  V30 25160 H 2368.63 2.97133 -2.91006 0
M  V30 25161 H 2367.21 3.54089 -1.16941 0
M  V30 25162 N 2369.39 1.09715 1.13139 0
M  V30 25163 C 2370.3 0.751406 2.22241 0
M  V30 25164 C 2371.32 -0.247907 1.72225 0
M  V30 25165 O 2372.5 -0.0885109 2.01205 0
M  V30 25166 C 2369.56 0.180334 3.46231 0
M  V30 25167 C 2368.62 1.23597 4.11123 0
M  V30 25168 C 2367.86 0.692059 5.29194 0
M  V30 25169 O 2368.08 -0.48404 5.68343 0
M  V30 25170 O 2367.01 1.44849 5.84211 0
M  V30 25171 H 2370.84 1.6619 2.54194 0
M  V30 25172 H 2368.42 0.871757 1.21329 0
M  V30 25173 H 2370.31 -0.134665 4.21185 0
M  V30 25174 H 2368.98 -0.70313 3.15971 0
M  V30 25175 H 2367.89 1.60371 3.37982 0
M  V30 25176 H 2369.22 2.09219 4.4552 0
M  V30 25177 N 2370.87 -1.30419 0.88479 0
M  V30 25178 C 2372.15 -1.90967 0.423219 0
M  V30 25179 C 2372.53 -1.80418 -1.09601 0
M  V30 25180 O 2371.88 -1.22128 -1.93124 0
M  V30 25181 C 2372.09 -3.36625 0.921115 0
M  V30 25182 C 2373.44 -4.13698 0.955976 0
M  V30 25183 O 2374.46 -3.45468 0.867767 0
M  V30 25184 O 2373.32 -5.35596 1.08623 0
M  V30 25185 H 2370.41 -0.816816 0.129383 0
M  V30 25186 H 2372.96 -1.38988 0.973678 0
M  V30 25187 H 2371.73 -3.38386 1.96495 0
M  V30 25188 H 2371.35 -3.96058 0.34981 0
M  V30 25189 N 2372.35 -0.645724 -1.43764 0
M  V30 25190 C 2373.63 -0.0863307 -1.95409 0
M  V30 25191 C 2374.01 1.39172 -1.58727 0
M  V30 25192 O 2373.36 2.11346 -0.868619 0
M  V30 25193 C 2373.57 -0.324626 -3.47487 0
M  V30 25194 C 2374.91 -0.225572 -4.24 0
M  V30 25195 O 2375.94 -0.256778 -3.55273 0
M  V30 25196 O 2374.8 -0.142897 -5.46313 0
M  V30 25197 H 2371.89 0.0139337 -0.826883 0
M  V30 25198 H 2374.44 -0.718442 -1.53742 0
M  V30 25199 H 2373.21 -1.34966 -3.67287 0
M  V30 25200 H 2372.83 0.340918 -3.96136 0
M  V30 25201 N 2373.83 1.5277 -0.38717 0
M  V30 25202 C 2375.06 2.05672 0.195549 0
M  V30 25203 C 2375.47 1.2589 1.41239 0
M  V30 25204 O 2374.81 0.298113 1.81265 0
M  V30 25205 C 2374.87 3.53896 0.632265 0
M  V30 25206 C 2374.54 4.54568 -0.470819 0
M  V30 25207 C 2375.53 5.02665 -1.32755 0
M  V30 25208 C 2373.22 4.98241 -0.637239 0
M  V30 25209 C 2375.21 5.93057 -2.33585 0
M  V30 25210 C 2372.9 5.88435 -1.64888 0
M  V30 25211 C 2373.9 6.35735 -2.4966 0
M  V30 25212 O 2373.58 7.24146 -3.49095 0
M  V30 25213 H 2373.32 0.675162 0.0336462 0
M  V30 25214 H 2375.87 1.97892 -0.550255 0
M  V30 25215 H 2374.1 3.59287 1.43001 0
M  V30 25216 H 2375.79 3.8955 1.14041 0
M  V30 25217 H 2376.56 4.69657 -1.21028 0
M  V30 25218 H 2372.43 4.60998 0.0128757 0
M  V30 25219 H 2375.98 6.29899 -2.99788 0
M  V30 25220 H 2371.88 6.20857 -1.76654 0
M  V30 25221 H 2372.64 7.42202 -3.45078 0
M  V30 25222 N 2375.31 0.116931 1.57166 0
M  V30 25223 C 2376.72 -0.408777 1.8217 0
M  V30 25224 C 2377.07 -1.66744 1.03396 0
M  V30 25225 O 2376.19 -2.1471 0.269924 0
M  V30 25226 C 2376.79 -0.748408 3.3043 0
M  V30 25227 C 2375.35 -1.21876 3.56122 0
M  V30 25228 C 2374.49 -0.226403 2.76374 0
M  V30 25229 H 2377.45 0.342091 1.54969 0
M  V30 25230 H 2377.47 -1.60601 3.44946 0
M  V30 25231 H 2376.98 0.167853 3.87737 0
M  V30 25232 H 2375.08 -2.15199 3.04171 0
M  V30 25233 H 2375.19 -1.16551 4.64707 0
M  V30 25234 H 2373.56 -0.71302 2.44516 0
M  V30 25235 H 2374.34 0.682918 3.36439 0
M  V30 25236 N 2376.78 -1.56818 -0.156836 0
M  V30 25237 C 2377.69 -2.00773 -1.21356 0
M  V30 25238 C 2378.71 -0.921485 -1.47596 0
M  V30 25239 O 2379.89 -1.23022 -1.5946 0
M  V30 25240 C 2376.95 -2.37113 -2.52939 0
M  V30 25241 C 2376.01 -3.59638 -2.34433 0
M  V30 25242 C 2375.25 -3.94236 -3.59741 0
M  V30 25243 O 2375.47 -3.29617 -4.6552 0
M  V30 25244 O 2374.4 -4.87526 -3.5299 0
M  V30 25245 H 2378.23 -2.9096 -0.870417 0
M  V30 25246 H 2375.81 -1.44877 -0.364814 0
M  V30 25247 H 2377.7 -2.61391 -3.30534 0
M  V30 25248 H 2376.37 -1.50085 -2.86803 0
M  V30 25249 H 2375.28 -3.4056 -1.54822 0
M  V30 25250 H 2376.61 -4.47253 -2.05488 0
M  V30 25251 N 2378.26 0.425871 -1.51737 0
M  V30 25252 C 2379.5 1.18368 -1.66638 0
M  V30 25253 C 2379.87 1.88204 -0.379887 0
M  V30 25254 O 2381.07 2.65734 -0.404805 0
M  V30 25255 C 2379.34 2.16471 -2.84385 0
M  V30 25256 S 2380.9 3.00584 -3.19679 0
M  V30 25257 H 2377.72 0.40124 -0.586965 0
M  V30 25258 H 2380.32 0.473484 -1.8968 0
M  V30 25259 H 2379.02 1.63824 -3.76284 0
M  V30 25260 H 2378.55 2.92054 -2.63567 0
M  V30 25261 H 2380.57 4.1824 -2.67001 0
M  V30 25262 N 2379.74 1.42077 0.682052 0
M  V30 25263 C 2380.69 1.45211 1.81705 0
M  V30 25264 C 2381.68 0.32862 1.66182 0
M  V30 25265 O 2382.89 0.501294 1.72879 0
M  V30 25266 H 2379.26 0.454638 0.599006 0
M  V30 25267 H 2381.23 2.4084 1.76179 0
M  V30 25268 C 2379.98 1.36434 3.19814 0
M  V30 25269 H 2379.31 2.22177 3.32382 0
M  V30 25270 H 2380.75 1.42688 3.99269 0
M  V30 25271 C 2379.21 0.0782502 3.36809 0
M  V30 25272 O 2379.74 -0.871811 3.92125 0
M  V30 25273 N 2377.94 -0.00224158 2.906 0
M  V30 25274 H 2377.49 0.77166 2.45771 0
M  V30 25275 H 2377.45 -0.862126 3.02349 0
M  V30 25276 N 2381.22 -0.917649 1.28129 0
M  V30 25277 C 2382.15 -2.03639 1.14251 0
M  V30 25278 C 2383.13 -1.7005 0.0413047 0
M  V30 25279 O 2384.32 -1.92977 0.217599 0
M  V30 25280 C 2381.45 -3.37973 0.799491 0
M  V30 25281 C 2380.4 -3.8571 1.85504 0
M  V30 25282 C 2379.73 -5.16964 1.36575 0
M  V30 25283 C 2381.03 -4.07997 3.26092 0
M  V30 25284 H 2382.72 -2.15508 2.07839 0
M  V30 25285 H 2380.27 -1.03551 1.00066 0
M  V30 25286 H 2382.22 -4.15726 0.689187 0
M  V30 25287 H 2380.94 -3.26146 -0.172088 0
M  V30 25288 H 2379.6 -3.10158 1.95442 0
M  V30 25289 H 2379.25 -5.01537 0.383341 0
M  V30 25290 H 2378.95 -5.49874 2.07153 0
M  V30 25291 H 2380.47 -5.97277 1.26859 0
M  V30 25292 H 2381.89 -4.76287 3.19098 0
M  V30 25293 H 2380.28 -4.52231 3.9447 0
M  V30 25294 H 2381.35 -3.12941 3.70399 0
M  V30 25295 N 2382.7 -1.10314 -1.12555 0
M  V30 25296 C 2383.66 -0.754278 -2.16433 0
M  V30 25297 C 2384.66 0.220657 -1.59279 0
M  V30 25298 O 2385.85 -0.00233653 -1.742 0
M  V30 25299 C 2382.98 -0.117046 -3.40699 0
M  V30 25300 H 2384.18 -1.67436 -2.48808 0
M  V30 25301 H 2381.73 -0.903498 -1.27541 0
M  V30 25302 H 2382.46 0.813822 -3.13923 0
M  V30 25303 H 2382.25 -0.81868 -3.83458 0
M  V30 25304 H 2383.74 0.111314 -4.17452 0
M  V30 25305 N 2384.18 1.29948 -0.891694 0
M  V30 25306 C 2385.11 2.3039 -0.379838 0
M  V30 25307 C 2386.09 1.61271 0.540891 0
M  V30 25308 O 2387.27 1.88835 0.453319 0
M  V30 25309 C 2384.4 3.44982 0.400593 0
M  V30 25310 C 2383.36 4.25845 -0.42898 0
M  V30 25311 C 2382.68 5.32555 0.478463 0
M  V30 25312 C 2383.98 4.94724 -1.67467 0
M  V30 25313 H 2385.68 2.73452 -1.21919 0
M  V30 25314 H 2383.22 1.31461 -0.587698 0
M  V30 25315 H 2385.17 4.14317 0.769361 0
M  V30 25316 H 2383.9 3.00742 1.27365 0
M  V30 25317 H 2382.56 3.58207 -0.779974 0
M  V30 25318 H 2382.21 4.84561 1.34943 0
M  V30 25319 H 2381.91 5.87555 -0.0728465 0
M  V30 25320 H 2383.43 6.04744 0.843599 0
M  V30 25321 H 2384.84 5.5654 -1.3761 0
M  V30 25322 H 2383.24 5.5962 -2.16668 0
M  V30 25323 H 2384.31 4.20468 -2.41525 0
M  V30 25324 N 2385.65 0.653339 1.4342 0
M  V30 25325 C 2386.9 0.167027 2.02111 0
M  V30 25326 C 2387.23 -1.21589 1.51425 0
M  V30 25327 O 2386.51 -1.81179 0.707421 0
M  V30 25328 C 2386.79 0.178011 3.5966 0
M  V30 25329 C 2386.64 1.59485 4.20576 0
M  V30 25330 C 2387.96 -0.485523 4.37414 0
M  V30 25331 H 2385.08 0.0621686 0.734373 0
M  V30 25332 H 2387.72 0.834046 1.70715 0
M  V30 25333 H 2385.87 -0.389964 3.86538 0
M  V30 25334 H 2387.55 2.21343 4.04728 0
M  V30 25335 H 2385.79 2.1421 3.77222 0
M  V30 25336 H 2386.46 1.55439 5.29663 0
M  V30 25337 H 2388.94 -0.00227214 4.161 0
M  V30 25338 H 2387.81 -0.44711 5.47076 0
M  V30 25339 H 2388.07 -1.55966 4.13675 0
M  V30 25340 N 2387.13 -1.52563 0.395266 0
M  V30 25341 C 2388.09 -2.25226 -0.424961 0
M  V30 25342 C 2389.09 -1.27081 -0.985244 0
M  V30 25343 O 2390.28 -1.51132 -0.866305 0
M  V30 25344 C 2387.42 -3.01189 -1.59681 0
M  V30 25345 H 2388.61 -2.99155 0.211285 0
M  V30 25346 H 2386.16 -1.55602 0.1475 0
M  V30 25347 H 2386.9 -2.31576 -2.27031 0
M  V30 25348 H 2386.68 -3.73231 -1.2017 0
M  V30 25349 H 2388.17 -3.56343 -2.17736 0
M  V30 25350 N 2388.61 -0.125265 -1.57101 0
M  V30 25351 C 2389.56 0.839889 -2.16907 0
M  V30 25352 C 2390.55 1.27092 -1.12 0
M  V30 25353 O 2391.76 1.24193 -1.30293 0
M  V30 25354 H 2388.13 0.288982 -0.694257 0
M  V30 25355 H 2390.1 0.311063 -2.96774 0
M  V30 25356 C 2388.85 2.07766 -2.78799 0
M  V30 25357 H 2388.18 1.75494 -3.59224 0
M  V30 25358 H 2389.62 2.73289 -3.24175 0
M  V30 25359 C 2388.07 2.87152 -1.76198 0
M  V30 25360 O 2388.6 3.82752 -1.21916 0
M  V30 25361 N 2386.81 2.51264 -1.45995 0
M  V30 25362 H 2386.36 1.73589 -1.90328 0
M  V30 25363 H 2386.32 3.04676 -0.775897 0
M  V30 25364 N 2390.09 1.56899 0.148518 0
M  V30 25365 C 2391.02 1.94752 1.20849 0
M  V30 25366 C 2392.03 0.843176 1.39264 0
M  V30 25367 O 2393.22 1.12159 1.38862 0
M  V30 25368 C 2390.32 2.205 2.57358 0
M  V30 25369 C 2389.49 3.51781 2.59941 0
M  V30 25370 C 2388.55 3.66087 3.77977 0
M  V30 25371 O 2387.58 4.38494 3.62921 0
M  V30 25372 N 2388.78 3.02637 4.95369 0
M  V30 25373 H 2391.55 2.86281 0.886754 0
M  V30 25374 H 2389.11 1.5833 0.338094 0
M  V30 25375 H 2391.1 2.27313 3.34829 0
M  V30 25376 H 2389.67 1.35243 2.8183 0
M  V30 25377 H 2388.89 3.56422 1.68396 0
M  V30 25378 H 2390.18 4.38125 2.58696 0
M  V30 25379 H 2389.58 2.43724 5.10505 0
M  V30 25380 H 2388.13 3.15014 5.70622 0
M  V30 25381 N 2391.57 -0.417818 1.51961 0
M  V30 25382 C 2392.79 -1.1875 1.69428 0
M  V30 25383 C 2393.21 -1.84514 0.399988 0
M  V30 25384 O 2392.57 -1.71528 -0.623258 0
M  V30 25385 C 2392.62 -2.25709 2.82379 0
M  V30 25386 O 2392.34 -1.62631 4.06796 0
M  V30 25387 C 2393.84 -3.15623 3.11283 0
M  V30 25388 H 2391.06 -0.357176 0.568037 0
M  V30 25389 H 2393.6 -0.492695 1.98476 0
M  V30 25390 H 2391.76 -2.90872 2.55875 0
M  V30 25391 H 2392.17 -2.33471 4.69672 0
M  V30 25392 H 2393.65 -3.86764 3.9385 0
M  V30 25393 H 2394.12 -3.77499 2.24479 0
M  V30 25394 H 2394.73 -2.56138 3.39519 0
M  V30 25395 N 2393.04 -1.42436 -0.674508 0
M  V30 25396 C 2393.95 -1.4834 -1.81748 0
M  V30 25397 C 2394.97 -0.372129 -1.69974 0
M  V30 25398 O 2396.15 -0.623074 -1.9152 0
M  V30 25399 C 2393.21 -1.38367 -3.17892 0
M  V30 25400 C 2392.27 -2.59988 -3.41621 0
M  V30 25401 C 2391.5 -2.50481 -4.71269 0
M  V30 25402 O 2391.73 -1.54084 -5.49194 0
M  V30 25403 O 2390.66 -3.40619 -4.96248 0
M  V30 25404 H 2394.49 -2.44813 -1.79723 0
M  V30 25405 H 2392.07 -1.24204 -0.83029 0
M  V30 25406 H 2393.95 -1.35168 -3.99133 0
M  V30 25407 H 2392.63 -0.450201 -3.20554 0
M  V30 25408 H 2391.54 -2.68762 -2.60227 0
M  V30 25409 H 2392.87 -3.52235 -3.43789 0
M  V30 25410 N 2394.52 0.910841 -1.28614 0
M  V30 25411 C 2395.93 1.47539 -1.14408 0
M  V30 25412 C 2396.28 1.94404 0.264867 0
M  V30 25413 O 2395.41 1.82721 1.15939 0
M  V30 25414 C 2396 2.6815 -2.07078 0
M  V30 25415 C 2394.56 3.20774 -1.96928 0
M  V30 25416 C 2393.71 1.93477 -1.9865 0
M  V30 25417 H 2396.66 0.723266 -1.41261 0
M  V30 25418 H 2396.68 3.43511 -1.63648 0
M  V30 25419 H 2396.19 2.34009 -3.09615 0
M  V30 25420 H 2394.29 3.59634 -0.974393 0
M  V30 25421 H 2394.41 3.85827 -2.84032 0
M  V30 25422 H 2392.77 2.10702 -1.43096 0
M  V30 25423 H 2393.55 1.61629 -3.02871 0
M  V30 25424 N 2396 1.10909 1.11969 0
M  V30 25425 C 2397.23 0.876857 1.874 0
M  V30 25426 C 2397.64 -0.572993 1.79895 0
M  V30 25427 O 2397 -1.39532 1.17631 0
M  V30 25428 C 2397.05 1.32288 3.36426 0
M  V30 25429 O 2396.77 2.71588 3.43761 0
M  V30 25430 C 2398.27 1.12526 4.28781 0
M  V30 25431 H 2395.49 0.314395 0.592788 0
M  V30 25432 H 2398.04 1.47501 1.41646 0
M  V30 25433 H 2396.19 0.768295 3.79705 0
M  V30 25434 H 2396.61 2.90784 4.36515 0
M  V30 25435 H 2398.08 1.48642 5.3161 0
M  V30 25436 H 2398.56 0.0643166 4.39153 0
M  V30 25437 H 2399.16 1.66655 3.91288 0
M  V30 25438 N 2397.48 -1.29474 0.898573 0
M  V30 25439 C 2398.73 -1.94884 0.519898 0
M  V30 25440 C 2399.04 -1.71627 -0.93827 0
M  V30 25441 O 2400.25 -2.31134 -1.42441 0
M  V30 25442 C 2398.7 -3.49003 0.878898 0
M  V30 25443 C 2398.31 -3.81062 2.35576 0
M  V30 25444 C 2400.05 -4.20655 0.570078 0
M  V30 25445 C 2397.96 -5.2842 2.65568 0
M  V30 25446 H 2396.89 -0.729485 0.190704 0
M  V30 25447 H 2399.54 -1.47217 1.09541 0
M  V30 25448 H 2397.92 -3.95318 0.232322 0
M  V30 25449 H 2399.1 -3.4561 3.04779 0
M  V30 25450 H 2397.41 -3.22547 2.63349 0
M  V30 25451 H 2400.01 -5.29112 0.771018 0
M  V30 25452 H 2400.35 -4.1339 -0.491331 0
M  V30 25453 H 2400.89 -3.80068 1.17444 0
M  V30 25454 H 2397.63 -5.40748 3.70502 0
M  V30 25455 H 2397.15 -5.65123 2.00987 0
M  V30 25456 H 2398.82 -5.96002 2.51775 0
M  V30 25457 N 2398.96 -0.660936 -1.43071 0
M  V30 25458 C 2400.21 -0.17477 -2.00941 0
M  V30 25459 C 2400.52 1.22114 -1.52799 0
M  V30 25460 O 2401.72 1.80294 -2.02994 0
M  V30 25461 C 2400.18 -0.261622 -3.58948 0
M  V30 25462 C 2399.79 -1.66071 -4.16082 0
M  V30 25463 C 2401.53 0.166543 -4.24173 0
M  V30 25464 C 2399.44 -1.70108 -5.66407 0
M  V30 25465 H 2398.37 -0.0615763 -0.751481 0
M  V30 25466 H 2401.02 -0.824098 -1.63954 0
M  V30 25467 H 2399.4 0.455352 -3.93373 0
M  V30 25468 H 2400.58 -2.40366 -3.93142 0
M  V30 25469 H 2398.89 -2.03552 -3.63257 0
M  V30 25470 H 2401.49 0.156339 -5.34471 0
M  V30 25471 H 2401.83 1.19936 -3.98649 0
M  V30 25472 H 2402.36 -0.498945 -3.94659 0
M  V30 25473 H 2399.1 -2.71325 -5.9671 0
M  V30 25474 H 2398.62 -1.00149 -5.9138 0
M  V30 25475 H 2400.3 -1.44827 -6.30582 0
M  V30 25476 N 2400.43 1.52351 -0.403352 0
M  V30 25477 C 2401.38 2.26854 0.424972 0
M  V30 25478 C 2402.35 1.29031 1.04596 0
M  V30 25479 O 2403.54 1.57884 1.07132 0
M  V30 25480 C 2400.68 3.08892 1.53882 0
M  V30 25481 C 2399.79 4.21664 0.939322 0
M  V30 25482 C 2398.92 4.91072 2.02539 0
M  V30 25483 C 2397.96 5.95815 1.40252 0
M  V30 25484 N 2397.1 6.58763 2.42849 0
M  V30 25485 H 2401.94 2.9721 -0.216793 0
M  V30 25486 H 2399.48 1.4662 -0.118747 0
M  V30 25487 H 2401.44 3.54757 2.19552 0
M  V30 25488 H 2400.07 2.40717 2.1507 0
M  V30 25489 H 2399.12 3.80012 0.171831 0
M  V30 25490 H 2400.43 4.96818 0.444273 0
M  V30 25491 H 2399.58 5.40312 2.75948 0
M  V30 25492 H 2398.32 4.15473 2.55408 0
M  V30 25493 H 2397.33 5.459 0.653737 0
M  V30 25494 H 2398.55 6.73353 0.881601 0
M  V30 25495 H 2396.5 5.85998 2.94861 0
M  V30 25496 H 2396.42 7.29573 1.98139 0
M  V30 25497 H 2397.68 7.12644 3.15845 0
M  V30 25498 N 2401.91 0.133594 1.57033 0
M  V30 25499 C 2403.16 -0.521614 1.95977 0
M  V30 25500 C 2403.49 -1.65391 1.01782 0
M  V30 25501 O 2402.77 -1.94414 0.0576923 0
M  V30 25502 C 2403.05 -1.04051 3.4474 0
M  V30 25503 C 2402.9 0.0893688 4.49711 0
M  V30 25504 C 2404.22 -1.92668 3.95686 0
M  V30 25505 H 2401.34 -0.188136 0.712582 0
M  V30 25506 H 2403.98 0.21211 1.88812 0
M  V30 25507 H 2402.13 -1.66577 3.50976 0
M  V30 25508 H 2403.8 0.725232 4.55563 0
M  V30 25509 H 2402.05 0.750453 4.27259 0
M  V30 25510 H 2402.72 -0.315187 5.51099 0
M  V30 25511 H 2405.19 -1.39991 3.91844 0
M  V30 25512 H 2404.07 -2.25888 5.00266 0
M  V30 25513 H 2404.33 -2.85866 3.37244 0
M  V30 25514 N 2403.39 -1.56975 -0.140195 0
M  V30 25515 C 2404.64 -1.83357 -0.849973 0
M  V30 25516 C 2404.96 -0.715542 -1.81397 0
M  V30 25517 O 2404.23 0.26226 -1.94137 0
M  V30 25518 H 2402.81 -0.676461 -0.316874 0
M  V30 25519 H 2405.47 -1.94449 -0.132573 0
M  V30 25520 H 2404.57 -2.7853 -1.4081 0
M  V30 25521 N 2404.87 0.409753 -1.5218 0
M  V30 25522 C 2406.15 1.16971 -1.56771 0
M  V30 25523 C 2406.53 2.08206 -0.348358 0
M  V30 25524 O 2405.87 2.18615 0.664824 0
M  V30 25525 C 2406.08 1.94755 -2.89606 0
M  V30 25526 C 2407.43 2.50843 -3.42583 0
M  V30 25527 O 2408.46 2.04935 -2.91342 0
M  V30 25528 O 2407.31 3.34644 -4.3206 0
M  V30 25529 H 2404.41 0.534043 -0.631448 0
M  V30 25530 H 2406.95 0.416584 -1.64507 0
M  V30 25531 H 2405.73 1.27914 -3.69802 0
M  V30 25532 H 2405.35 2.77074 -2.8516 0
M  V30 25533 N 2406.35 1.42792 0.666944 0
M  V30 25534 C 2407.59 1.43893 1.42908 0
M  V30 25535 C 2407.93 0.0579313 1.94114 0
M  V30 25536 O 2407.2 -0.91908 1.71415 0
M  V30 25537 C 2407.48 2.46991 2.62044 0
M  V30 25538 C 2407.34 3.94313 2.16419 0
M  V30 25539 C 2408.66 2.46984 3.64262 0
M  V30 25540 H 2405.77 0.523963 0.518297 0
M  V30 25541 H 2408.42 1.74256 0.75729 0
M  V30 25542 H 2406.57 2.21231 3.19357 0
M  V30 25543 H 2408.24 4.31082 1.64213 0
M  V30 25544 H 2406.48 4.07802 1.47918 0
M  V30 25545 H 2407.15 4.62041 3.02029 0
M  V30 25546 H 2409.63 2.69911 3.16681 0
M  V30 25547 H 2408.5 3.21087 4.45191 0
M  V30 25548 H 2408.77 1.49864 4.15924 0
M  V30 25549 N 2407.82 -0.904008 1.29095 0
M  V30 25550 C 2409.07 -1.65654 1.16989 0
M  V30 25551 C 2409.4 -1.92187 -0.278891 0
M  V30 25552 O 2408.68 -1.52922 -1.20188 0
M  V30 25553 C 2408.96 -3.00836 1.97913 0
M  V30 25554 C 2408.81 -2.81396 3.50908 0
M  V30 25555 C 2410.13 -4.0151 1.80215 0
M  V30 25556 H 2407.25 -0.601157 0.426356 0
M  V30 25557 H 2409.89 -1.04744 1.5852 0
M  V30 25558 H 2408.04 -3.52826 1.62622 0
M  V30 25559 H 2409.72 -2.36341 3.96157 0
M  V30 25560 H 2407.96 -2.16263 3.76049 0
M  V30 25561 H 2408.63 -3.77436 4.02798 0
M  V30 25562 H 2411.11 -3.58615 2.11031 0
M  V30 25563 H 2409.98 -4.94042 2.39193 0
M  V30 25564 H 2410.24 -4.35585 0.756196 0
M  V30 25565 N 2409.3 -1.11501 -1.11379 0
M  V30 25566 C 2410.53 -0.887052 -1.87473 0
M  V30 25567 C 2410.95 0.557764 -1.7964 0
M  V30 25568 O 2410.31 1.39394 -1.15927 0
M  V30 25569 C 2410.36 -1.35409 -3.34211 0
M  V30 25570 O 2409.46 -0.526218 -4.09029 0
M  V30 25571 H 2408.8 -0.319473 -0.582094 0
M  V30 25572 H 2411.33 -1.48464 -1.40782 0
M  V30 25573 H 2411.34 -1.34888 -3.85057 0
M  V30 25574 H 2410.02 -2.40618 -3.39228 0
M  V30 25575 H 2408.6 -0.597587 -3.68081 0
M  V30 25576 N 2410.78 1.28995 -0.905426 0
M  V30 25577 C 2412.01 1.9917 -0.549084 0
M  V30 25578 C 2412.42 1.67907 0.872001 0
M  V30 25579 O 2411.76 0.923589 1.58794 0
M  V30 25580 C 2411.82 3.53232 -0.668368 0
M  V30 25581 C 2411.49 4.08065 -2.05747 0
M  V30 25582 C 2412.49 4.22529 -3.02928 0
M  V30 25583 C 2410.17 4.42958 -2.3684 0
M  V30 25584 C 2412.16 4.71128 -4.29322 0
M  V30 25585 C 2409.85 4.91252 -3.63476 0
M  V30 25586 C 2410.85 5.05292 -4.59531 0
M  V30 25587 O 2410.54 5.52536 -5.83917 0
M  V30 25588 H 2410.27 0.642947 -0.208796 0
M  V30 25589 H 2412.82 1.65361 -1.21839 0
M  V30 25590 H 2411.05 3.86657 0.0579868 0
M  V30 25591 H 2412.74 4.04634 -0.320344 0
M  V30 25592 H 2413.51 3.95854 -2.80223 0
M  V30 25593 H 2409.39 4.31285 -1.62832 0
M  V30 25594 H 2412.93 4.82002 -5.04302 0
M  V30 25595 H 2408.83 5.17365 -3.86009 0
M  V30 25596 H 2409.6 5.70839 -5.86588 0
M  V30 25597 N 2412.26 0.668514 1.42719 0
M  V30 25598 C 2413.51 0.187804 2.01226 0
M  V30 25599 C 2413.83 -1.20777 1.53094 0
M  V30 25600 O 2413.1 -1.80976 0.749962 0
M  V30 25601 H 2411.68 0.0664403 0.744039 0
M  V30 25602 H 2414.34 0.863614 1.74722 0
M  V30 25603 H 2413.44 0.184221 3.11556 0
M  V30 25604 N 2413.74 -1.52135 0.411426 0
M  V30 25605 C 2414.69 -2.28636 -0.427593 0
M  V30 25606 C 2415.68 -1.3342 -1.04381 0
M  V30 25607 O 2416.89 -1.5087 -0.981746 0
M  V30 25608 H 2413.26 -0.735498 -0.156676 0
M  V30 25609 H 2415.23 -2.97443 0.238813 0
M  V30 25610 C 2413.98 -3.1219 -1.53077 0
M  V30 25611 H 2413.3 -3.85328 -1.06594 0
M  V30 25612 H 2414.74 -3.6882 -2.09161 0
M  V30 25613 C 2413.2 -2.25899 -2.49942 0
M  V30 25614 O 2413.73 -1.90082 -3.53881 0
M  V30 25615 N 2411.94 -1.89624 -2.20207 0
M  V30 25616 H 2411.49 -2.1895 -1.35715 0
M  V30 25617 H 2411.44 -1.32181 -2.85264 0
M  V30 25618 N 2415.22 -0.14192 -1.5696 0
M  V30 25619 C 2416.46 0.510393 -1.95136 0
M  V30 25620 C 2416.78 1.66347 -1.02899 0
M  V30 25621 O 2417.98 2.38007 -1.30633 0
M  V30 25622 C 2416.44 0.959366 -3.46878 0
M  V30 25623 C 2416.05 -0.166497 -4.47691 0
M  V30 25624 C 2417.79 1.58176 -3.9393 0
M  V30 25625 C 2415.7 0.300461 -5.90636 0
M  V30 25626 H 2414.63 0.194441 -0.728498 0
M  V30 25627 H 2417.28 -0.225452 -1.8211 0
M  V30 25628 H 2415.66 1.75032 -3.55218 0
M  V30 25629 H 2416.84 -0.943329 -4.51041 0
M  V30 25630 H 2415.15 -0.696977 -4.10526 0
M  V30 25631 H 2417.75 1.94266 -4.98161 0
M  V30 25632 H 2418.09 2.46882 -3.35194 0
M  V30 25633 H 2418.62 0.855795 -3.88486 0
M  V30 25634 H 2415.36 -0.551104 -6.53179 0
M  V30 25635 H 2414.88 1.04328 -5.90657 0
M  V30 25636 H 2416.56 0.754152 -6.4259 0
M  V30 25637 N 2416.69 1.57047 0.131868 0
M  V30 25638 C 2417.62 2.0243 1.1638 0
M  V30 25639 C 2418.6 0.906465 1.43935 0
M  V30 25640 O 2419.79 1.17531 1.54596 0
M  V30 25641 C 2416.92 2.41774 2.49324 0
M  V30 25642 C 2415.87 3.56883 2.36259 0
M  V30 25643 C 2415.2 3.82087 3.74051 0
M  V30 25644 C 2416.5 4.89045 1.83392 0
M  V30 25645 H 2418.19 2.88888 0.786383 0
M  V30 25646 H 2415.74 1.38982 0.37683 0
M  V30 25647 H 2417.69 2.72126 3.21754 0
M  V30 25648 H 2416.42 1.52271 2.88931 0
M  V30 25649 H 2415.08 3.26721 1.6628 0
M  V30 25650 H 2414.72 2.8981 4.1112 0
M  V30 25651 H 2414.42 4.59561 3.66166 0
M  V30 25652 H 2415.95 4.14878 4.48005 0
M  V30 25653 H 2417.36 5.18016 2.45627 0
M  V30 25654 H 2415.76 5.70429 1.8636 0
M  V30 25655 H 2416.83 4.78412 0.790578 0
M  V30 25656 N 2418.17 -0.401677 1.52395 0
M  V30 25657 C 2419.1 -1.49658 1.79234 0
M  V30 25658 C 2420.08 -1.57451 0.643682 0
M  V30 25659 O 2421.27 -1.72604 0.89002 0
M  V30 25660 C 2418.4 -2.87405 1.94976 0
M  V30 25661 C 2417.35 -2.94459 3.10609 0
M  V30 25662 C 2416.68 -4.34533 3.11585 0
M  V30 25663 C 2417.98 -2.65262 4.49926 0
M  V30 25664 H 2419.67 -1.27449 2.70919 0
M  V30 25665 H 2417.22 -0.611677 1.30363 0
M  V30 25666 H 2419.17 -3.63995 2.12334 0
M  V30 25667 H 2417.89 -3.10924 0.999687 0
M  V30 25668 H 2416.55 -2.20316 2.93013 0
M  V30 25669 H 2416.2 -4.55072 2.14285 0
M  V30 25670 H 2415.9 -4.40176 3.89255 0
M  V30 25671 H 2417.43 -5.13047 3.31082 0
M  V30 25672 H 2418.84 -3.31573 4.67689 0
M  V30 25673 H 2417.24 -2.82271 5.29569 0
M  V30 25674 H 2418.31 -1.60663 4.5751 0
M  V30 25675 N 2419.65 -1.43144 -0.659362 0
M  V30 25676 C 2420.87 -1.48075 -1.45219 0
M  V30 25677 C 2421.3 -0.098028 -1.87844 0
M  V30 25678 O 2420.66 0.906913 -1.56987 0
M  V30 25679 C 2420.71 -2.42652 -2.66744 0
M  V30 25680 O 2419.81 -1.90854 -3.6558 0
M  V30 25681 H 2419.15 -0.501095 -0.43566 0
M  V30 25682 H 2421.68 -1.87995 -0.807399 0
M  V30 25683 H 2421.69 -2.59751 -3.14632 0
M  V30 25684 H 2420.37 -3.43103 -2.35061 0
M  V30 25685 H 2418.94 -1.83387 -3.2469 0
M  V30 25686 N 2421.13 0.897149 -1.29572 0
M  V30 25687 C 2422.38 1.64462 -1.17459 0
M  V30 25688 C 2422.7 1.9307 0.273664 0
M  V30 25689 O 2421.97 1.55857 1.18682 0
M  V30 25690 H 2420.55 0.609614 -0.431717 0
M  V30 25691 H 2423.21 1.07559 -1.62533 0
M  V30 25692 H 2422.3 2.59995 -1.72652 0
M  V30 25693 N 2422.61 1.1209 1.10786 0
M  V30 25694 C 2423.83 0.896684 1.8646 0
M  V30 25695 C 2424.25 -0.55388 1.80493 0
M  V30 25696 O 2423.61 -1.38276 1.19105 0
M  V30 25697 C 2423.66 1.35849 3.35004 0
M  V30 25698 O 2423.38 2.75219 3.40861 0
M  V30 25699 C 2424.88 1.17067 4.27563 0
M  V30 25700 H 2422.1 0.320664 0.58942 0
M  V30 25701 H 2424.64 1.48995 1.40074 0
M  V30 25702 H 2422.8 0.808525 3.78869 0
M  V30 25703 H 2423.21 2.95397 4.33406 0
M  V30 25704 H 2424.69 1.54272 5.30004 0
M  V30 25705 H 2425.16 0.110891 4.3906 0
M  V30 25706 H 2425.77 1.70796 3.89498 0
M  V30 25707 N 2424.08 -1.28513 0.912254 0
M  V30 25708 C 2425.02 -2.26406 0.3568 0
M  V30 25709 C 2426.03 -1.54805 -0.503905 0
M  V30 25710 O 2427.22 -1.75626 -0.319028 0
M  V30 25711 C 2424.32 -3.35059 -0.508767 0
M  V30 25712 C 2423.49 -4.3616 0.329083 0
M  V30 25713 C 2422.55 -5.24085 -0.47133 0
M  V30 25714 O 2421.58 -5.69083 0.115582 0
M  V30 25715 N 2422.78 -5.52707 -1.77469 0
M  V30 25716 H 2425.54 -2.74705 1.19822 0
M  V30 25717 H 2423.1 -1.41979 0.778047 0
M  V30 25718 H 2425.1 -3.90816 -1.05093 0
M  V30 25719 H 2423.67 -2.86481 -1.2509 0
M  V30 25720 H 2422.89 -3.79886 1.05262 0
M  V30 25721 H 2424.17 -5.00733 0.902428 0
M  V30 25722 H 2423.57 -5.17979 -2.27408 0
M  V30 25723 H 2422.13 -6.11228 -2.26372 0
M  V30 25724 N 2425.56 -0.676073 -1.42362 0
M  V30 25725 C 2426.79 -0.207304 -2.05859 0
M  V30 25726 C 2427.21 1.13602 -1.50798 0
M  V30 25727 O 2426.56 1.70597 -0.648295 0
M  V30 25728 C 2426.61 -0.135039 -3.61248 0
M  V30 25729 O 2426.33 -1.42528 -4.14267 0
M  V30 25730 C 2427.84 0.357073 -4.4186 0
M  V30 25731 H 2425.06 -0.100514 -0.663429 0
M  V30 25732 H 2427.6 -0.923168 -1.82477 0
M  V30 25733 H 2425.75 0.531521 -3.83736 0
M  V30 25734 H 2426.17 -1.29948 -5.08147 0
M  V30 25735 H 2427.64 0.356544 -5.50847 0
M  V30 25736 H 2428.12 1.39256 -4.16539 0
M  V30 25737 H 2428.73 -0.277794 -4.24392 0
M  V30 25738 N 2427.04 1.51915 -0.419488 0
M  V30 25739 C 2428 2.25874 0.389076 0
M  V30 25740 C 2429 1.28632 0.964901 0
M  V30 25741 O 2430.19 1.52491 0.842152 0
M  V30 25742 C 2427.33 3.03691 1.54869 0
M  V30 25743 H 2428.52 2.98781 -0.258851 0
M  V30 25744 H 2426.07 1.55348 -0.172236 0
M  V30 25745 H 2426.81 2.35158 2.23318 0
M  V30 25746 H 2426.59 3.75096 1.14217 0
M  V30 25747 H 2428.08 3.59762 2.1204 0
M  V30 25748 N 2428.52 0.150242 1.56882 0
M  V30 25749 C 2429.93 -0.206142 1.58263 0
M  V30 25750 C 2430.13 -1.64432 1.16467 0
M  V30 25751 O 2429.19 -2.37168 0.866464 0
M  V30 25752 C 2430.5 0.0555554 3.00649 0
M  V30 25753 C 2432.05 -0.00789886 3.12999 0
M  V30 25754 C 2432.53 0.226509 4.5744 0
M  V30 25755 N 2434.02 0.17355 4.62875 0
M  V30 25756 C 2434.75 0.329388 5.72453 0
M  V30 25757 N 2434.25 0.543127 6.90668 0
M  V30 25758 N 2436.04 0.266765 5.61467 0
M  V30 25759 H 2428.19 1.08925 1.82343 0
M  V30 25760 H 2430.46 0.431428 0.844141 0
M  V30 25761 H 2430.16 1.05102 3.35628 0
M  V30 25762 H 2430.04 -0.662394 3.71338 0
M  V30 25763 H 2432.42 -0.993917 2.77858 0
M  V30 25764 H 2432.5 0.742431 2.44789 0
M  V30 25765 H 2432.15 1.20964 4.93285 0
M  V30 25766 H 2432.08 -0.544182 5.23781 0
M  V30 25767 H 2434.57 0.0131373 3.77898 0
M  V30 25768 H 2434.88 0.652057 7.70044 0
M  V30 25769 H 2433.23 0.579487 6.9258 0
M  V30 25770 H 2436.42 0.100523 4.67992 0
M  V30 25771 H 2436.59 0.391648 6.46815 0
M  V30 25772 N 2430 -1.57115 -0.123538 0
M  V30 25773 C 2430.93 -1.95203 -1.18199 0
M  V30 25774 C 2431.91 -0.821056 -1.40348 0
M  V30 25775 O 2433.09 -1.07882 -1.54576 0
M  V30 25776 C 2430.22 -2.24434 -2.53667 0
M  V30 25777 C 2429.26 -3.47003 -2.47974 0
M  V30 25778 S 2430.1 -4.9975 -1.9238 0
M  V30 25779 C 2431.25 -5.32128 -3.2953 0
M  V30 25780 H 2431.49 -2.84675 -0.857162 0
M  V30 25781 H 2429.02 -1.5083 -0.330113 0
M  V30 25782 H 2430.98 -2.41953 -3.31616 0
M  V30 25783 H 2429.64 -1.35584 -2.8333 0
M  V30 25784 H 2428.83 -3.64807 -3.47752 0
M  V30 25785 H 2428.43 -3.28847 -1.78145 0
M  V30 25786 H 2430.73 -5.27032 -4.25727 0
M  V30 25787 H 2431.67 -6.33401 -3.16558 0
M  V30 25788 H 2432.08 -4.59609 -3.2775 0
M  V30 25789 N 2431.47 0.393589 -1.52606 0
M  V30 25790 C 2432.4 1.48705 -1.80025 0
M  V30 25791 C 2433.39 1.57107 -0.652023 0
M  V30 25792 O 2434.57 1.7213 -0.899161 0
M  V30 25793 C 2431.7 2.86367 -1.96497 0
M  V30 25794 C 2430.65 2.92808 -3.12166 0
M  V30 25795 C 2429.98 4.32874 -3.13885 0
M  V30 25796 C 2431.28 2.62872 -4.51326 0
M  V30 25797 H 2432.97 1.2601 -2.71591 0
M  V30 25798 H 2430.52 0.604755 -1.30686 0
M  V30 25799 H 2432.47 3.62864 -2.14261 0
M  V30 25800 H 2431.2 3.1039 -1.01616 0
M  V30 25801 H 2429.86 2.18759 -2.94177 0
M  V30 25802 H 2429.5 4.5393 -2.16695 0
M  V30 25803 H 2429.2 4.38105 -3.91583 0
M  V30 25804 H 2430.73 5.11284 -3.33798 0
M  V30 25805 H 2432.14 3.29088 -4.6944 0
M  V30 25806 H 2430.54 2.79459 -5.31058 0
M  V30 25807 H 2431.61 1.58234 -4.58356 0
M  V30 25808 N 2432.95 1.43492 0.651762 0
M  V30 25809 C 2433.9 1.48763 1.7646 0
M  V30 25810 C 2434.87 0.337217 1.62641 0
M  V30 25811 O 2436.05 0.544576 1.82863 0
M  V30 25812 C 2433.19 1.41802 3.14621 0
M  V30 25813 C 2432.31 2.67059 3.39563 0
M  V30 25814 C 2431.44 2.52076 4.6758 0
M  V30 25815 C 2430.48 3.72595 4.85633 0
M  V30 25816 N 2429.62 3.56413 6.04908 0
M  V30 25817 H 2434.46 2.43852 1.71289 0
M  V30 25818 H 2432 1.21044 0.835868 0
M  V30 25819 H 2433.95 1.3576 3.94494 0
M  V30 25820 H 2432.58 0.502936 3.18858 0
M  V30 25821 H 2431.64 2.83374 2.53778 0
M  V30 25822 H 2432.95 3.56578 3.48788 0
M  V30 25823 H 2432.1 2.4375 5.55582 0
M  V30 25824 H 2430.84 1.60084 4.60678 0
M  V30 25825 H 2429.85 3.81328 3.96067 0
M  V30 25826 H 2431.07 4.65598 4.94364 0
M  V30 25827 H 2429.02 2.67156 5.99136 0
M  V30 25828 H 2428.93 4.39534 6.15098 0
M  V30 25829 H 2430.2 3.51941 6.95527 0
M  V30 25830 N 2434.43 -0.890264 1.30046 0
M  V30 25831 C 2435.66 -1.67242 1.21299 0
M  V30 25832 C 2436.07 -1.87828 -0.227438 0
M  V30 25833 O 2435.41 -1.42202 -1.16293 0
M  V30 25834 C 2435.47 -3.07325 1.86524 0
M  V30 25835 C 2435.14 -3.09933 3.35843 0
M  V30 25836 C 2436.13 -2.89381 4.3192 0
M  V30 25837 C 2433.82 -3.31699 3.77202 0
M  V30 25838 C 2435.81 -2.90543 5.6733 0
M  V30 25839 C 2433.5 -3.3249 5.12731 0
M  V30 25840 C 2434.5 -3.11936 6.07606 0
M  V30 25841 O 2434.19 -3.12534 7.4066 0
M  V30 25842 H 2433.92 -0.528813 0.421109 0
M  V30 25843 H 2436.47 -1.121 1.72113 0
M  V30 25844 H 2434.7 -3.6411 1.30234 0
M  V30 25845 H 2436.39 -3.6767 1.71969 0
M  V30 25846 H 2437.16 -2.72368 4.01299 0
M  V30 25847 H 2433.04 -3.46735 3.03802 0
M  V30 25848 H 2436.58 -2.74418 6.41359 0
M  V30 25849 H 2432.48 -3.49038 5.42994 0
M  V30 25850 H 2433.25 -3.28736 7.49583 0
M  V30 25851 N 2435.91 -1.12676 -1.1019 0
M  V30 25852 C 2436.86 -0.792234 -2.18692 0
M  V30 25853 C 2437.85 0.222028 -1.67939 0
M  V30 25854 O 2439.06 0.0799758 -1.79822 0
M  V30 25855 H 2435.43 -0.238377 -0.713218 0
M  V30 25856 H 2437.4 -1.71568 -2.44146 0
M  V30 25857 C 2436.15 -0.26592 -3.46682 0
M  V30 25858 H 2435.47 -1.03767 -3.86099 0
M  V30 25859 H 2436.91 -0.0701873 -4.23942 0
M  V30 25860 C 2435.37 1.00669 -3.21508 0
M  V30 25861 O 2435.9 2.08402 -3.43412 0
M  V30 25862 N 2434.11 0.934644 -2.7516 0
M  V30 25863 H 2433.66 0.0578151 -2.57535 0
M  V30 25864 H 2433.61 1.78675 -2.58694 0
M  V30 25865 N 2437.39 1.28028 -0.919057 0
M  V30 25866 C 2438.62 1.98576 -0.570178 0
M  V30 25867 C 2439.02 1.68823 0.854143 0
M  V30 25868 O 2438.37 0.940379 1.57805 0
M  V30 25869 C 2438.43 3.52504 -0.705796 0
M  V30 25870 C 2438.09 4.0586 -2.10064 0
M  V30 25871 C 2439.09 4.19292 -3.07392 0
M  V30 25872 C 2436.78 4.40421 -2.41525 0
M  V30 25873 C 2438.77 4.66548 -4.34295 0
M  V30 25874 C 2436.46 4.87369 -3.68666 0
M  V30 25875 C 2437.45 5.0039 -4.64865 0
M  V30 25876 O 2437.14 5.46312 -5.89745 0
M  V30 25877 H 2436.87 0.640696 -0.215603 0
M  V30 25878 H 2439.43 1.6406 -1.23586 0
M  V30 25879 H 2437.66 3.86696 0.0169734 0
M  V30 25880 H 2439.35 4.04271 -0.363243 0
M  V30 25881 H 2440.11 3.9286 -2.84405 0
M  V30 25882 H 2435.99 4.29534 -1.67397 0
M  V30 25883 H 2439.54 4.76626 -5.09386 0
M  V30 25884 H 2435.43 5.13242 -3.91475 0
M  V30 25885 H 2436.2 5.64585 -5.92609 0
M  V30 25886 N 2438.86 0.683613 1.42002 0
M  V30 25887 C 2440.28 0.285769 1.845 0
M  V30 25888 C 2440.63 -1.17379 1.57215 0
M  V30 25889 O 2439.75 -1.89965 1.03646 0
M  V30 25890 C 2440.35 0.51188 3.34911 0
M  V30 25891 C 2438.91 0.168071 3.76025 0
M  V30 25892 C 2438.05 0.80003 2.65509 0
M  V30 25893 H 2441 0.885142 1.31723 0
M  V30 25894 H 2441.02 -0.233226 3.79785 0
M  V30 25895 H 2440.54 1.57425 3.54738 0
M  V30 25896 H 2438.64 -0.890504 3.61802 0
M  V30 25897 H 2438.75 0.614744 4.7514 0
M  V30 25898 H 2437.11 0.230613 2.53654 0
M  V30 25899 H 2437.9 1.86603 2.88157 0
M  V30 25900 N 2440.34 -1.5169 0.427538 0
M  V30 25901 C 2441.57 -2.06418 -0.141155 0
M  V30 25902 C 2441.99 -1.29591 -1.37301 0
M  V30 25903 O 2441.34 -0.352764 -1.79058 0
M  V30 25904 C 2441.39 -3.5839 -0.473203 0
M  V30 25905 O 2441.12 -4.32313 0.709749 0
M  V30 25906 C 2442.62 -4.29598 -1.09363 0
M  V30 25907 H 2439.84 -0.670888 -0.012263 0
M  V30 25908 H 2442.38 -1.95383 0.603798 0
M  V30 25909 H 2440.54 -3.69371 -1.16805 0
M  V30 25910 H 2440.95 -5.22749 0.428162 0
M  V30 25911 H 2442.42 -5.37049 -1.27604 0
M  V30 25912 H 2442.9 -3.87256 -2.07193 0
M  V30 25913 H 2443.51 -4.23034 -0.438455 0
M  V30 25914 N 2441.82 -0.15856 -1.568 0
M  V30 25915 C 2442.77 0.776691 -2.17339 0
M  V30 25916 C 2443.74 1.23599 -1.10962 0
M  V30 25917 O 2444.92 1.30645 -1.39056 0
M  V30 25918 C 2442.06 2.00577 -2.80825 0
M  V30 25919 C 2441.18 1.59122 -4.01627 0
M  V30 25920 C 2440.31 2.77298 -4.53077 0
M  V30 25921 C 2439.35 2.32272 -5.66318 0
M  V30 25922 N 2438.49 3.43497 -6.12335 0
M  V30 25923 H 2443.33 0.253649 -2.96919 0
M  V30 25924 H 2440.86 0.113478 -1.46662 0
M  V30 25925 H 2442.82 2.72647 -3.15784 0
M  V30 25926 H 2441.45 2.50273 -2.03871 0
M  V30 25927 H 2440.5 0.76774 -3.72572 0
M  V30 25928 H 2441.82 1.22061 -4.83635 0
M  V30 25929 H 2440.97 3.57542 -4.90152 0
M  V30 25930 H 2439.71 3.17611 -3.70101 0
M  V30 25931 H 2438.71 1.50471 -5.28809 0
M  V30 25932 H 2439.94 1.93032 -6.51088 0
M  V30 25933 H 2437.89 3.83409 -5.32291 0
M  V30 25934 H 2437.8 3.10488 -6.89299 0
M  V30 25935 H 2439.07 4.24063 -6.54057 0
M  V30 25936 N 2443.3 1.57178 0.115204 0
M  V30 25937 C 2444.52 1.89614 0.840321 0
M  V30 25938 C 2444.95 0.750875 1.72463 0
M  V30 25939 O 2444.31 -0.298447 1.78827 0
M  V30 25940 C 2444.36 3.20817 1.64648 0
M  V30 25941 O 2443.46 3.0699 2.75375 0
M  V30 25942 H 2442.8 0.622096 0.232147 0
M  V30 25943 H 2445.33 2.04372 0.0964618 0
M  V30 25944 H 2445.34 3.53631 2.03493 0
M  V30 25945 H 2444.02 4.03765 0.997345 0
M  V30 25946 H 2442.59 2.8565 2.39705 0
M  V30 25947 N 2444.78 -0.38549 1.52813 0
M  V30 25948 C 2446.03 -1.12794 1.67696 0
M  V30 25949 C 2446.35 -1.90398 0.421148 0
M  V30 25950 O 2445.62 -1.8759 -0.564518 0
M  V30 25951 H 2444.2 -0.419385 0.618163 0
M  V30 25952 H 2446.86 -0.436938 1.89939 0
M  V30 25953 H 2445.95 -1.82889 2.52899 0
M  V30 25954 N 2446.26 -1.43835 -0.644143 0
M  V30 25955 C 2447.49 -1.49173 -1.42937 0
M  V30 25956 C 2447.89 -0.111082 -1.88874 0
M  V30 25957 O 2447.24 0.890771 -1.60658 0
M  V30 25958 C 2447.3 -2.38329 -2.69146 0
M  V30 25959 C 2446.96 -3.8572 -2.45091 0
M  V30 25960 C 2447.96 -4.76593 -2.07738 0
M  V30 25961 C 2445.64 -4.30296 -2.59134 0
M  V30 25962 C 2447.64 -6.10041 -1.84739 0
M  V30 25963 C 2445.33 -5.63796 -2.35749 0
M  V30 25964 C 2446.32 -6.53486 -1.98609 0
M  V30 25965 O 2446.01 -7.84515 -1.75475 0
M  V30 25966 H 2445.74 -0.508643 -0.445262 0
M  V30 25967 H 2448.3 -1.89341 -0.796177 0
M  V30 25968 H 2446.53 -1.93064 -3.35057 0
M  V30 25969 H 2448.22 -2.34766 -3.31119 0
M  V30 25970 H 2448.98 -4.43429 -1.96457 0
M  V30 25971 H 2444.86 -3.60754 -2.87015 0
M  V30 25972 H 2448.41 -6.80008 -1.55674 0
M  V30 25973 H 2444.3 -5.96524 -2.46636 0
M  V30 25974 H 2445.07 -7.96183 -1.89827 0
M  V30 25975 N 2447.73 0.883355 -1.30517 0
M  V30 25976 C 2448.97 1.64944 -1.20718 0
M  V30 25977 C 2449.34 1.90568 0.234038 0
M  V30 25978 O 2450.54 2.64916 0.455289 0
M  V30 25979 C 2448.81 2.95217 -2.01449 0
M  V30 25980 S 2450.37 3.86172 -2.08367 0
M  V30 25981 H 2447.19 0.566101 -0.430175 0
M  V30 25982 H 2449.79 1.04838 -1.65013 0
M  V30 25983 H 2448.49 2.74293 -3.05273 0
M  V30 25984 H 2448.02 3.60355 -1.57823 0
M  V30 25985 H 2450.04 4.81165 -1.21223 0
M  V30 25986 N 2449.21 1.13259 1.09591 0
M  V30 25987 C 2450.46 0.891524 1.81373 0
M  V30 25988 C 2450.78 -0.583976 1.8605 0
M  V30 25989 O 2450.05 -1.42446 1.34484 0
M  V30 25990 H 2448.63 0.32684 0.671703 0
M  V30 25991 H 2451.29 1.4288 1.32557 0
M  V30 25992 H 2450.39 1.28076 2.8461 0
M  V30 25993 N 2450.69 -1.27539 0.925834 0
M  V30 25994 C 2451.94 -1.94066 0.564172 0
M  V30 25995 C 2452.26 -1.73136 -0.897157 0
M  V30 25996 O 2451.53 -1.07802 -1.63571 0
M  V30 25997 H 2450.11 -0.718132 0.205658 0
M  V30 25998 H 2452.77 -1.55285 1.17782 0
M  V30 25999 H 2451.87 -3.02481 0.768863 0
M  V30 26000 N 2452.17 -0.691135 -1.41637 0
M  V30 26001 C 2453.41 -0.220555 -2.01597 0
M  V30 26002 C 2453.75 1.17532 -1.54596 0
M  V30 26003 O 2453.02 1.7924 -0.755209 0
M  V30 26004 C 2453.3 -0.273306 -3.59061 0
M  V30 26005 C 2453.16 -1.7058 -4.162 0
M  V30 26006 C 2454.48 0.36938 -4.38547 0
M  V30 26007 H 2451.6 -0.0816173 -0.732467 0
M  V30 26008 H 2454.24 -0.879015 -1.68444 0
M  V30 26009 H 2452.39 0.287343 -3.87436 0
M  V30 26010 H 2454.06 -2.31996 -3.98718 0
M  V30 26011 H 2452.3 -2.24136 -3.7141 0
M  V30 26012 H 2452.97 -1.69428 -5.25355 0
M  V30 26013 H 2455.45 -0.10805 -4.1596 0
M  V30 26014 H 2454.33 0.301906 -5.48069 0
M  V30 26015 H 2454.59 1.44944 -4.17665 0
M  V30 26016 N 2453.65 1.51461 -0.435577 0
M  V30 26017 C 2454.58 2.30592 0.367336 0
M  V30 26018 C 2455.56 1.3593 1.0226 0
M  V30 26019 O 2456.74 1.64848 1.02658 0
M  V30 26020 C 2453.87 3.14667 1.46977 0
M  V30 26021 C 2452.83 4.17593 0.938088 0
M  V30 26022 C 2452.15 4.90177 2.13614 0
M  V30 26023 C 2453.45 5.22293 -0.0262539 0
M  V30 26024 H 2455.15 2.97963 -0.293022 0
M  V30 26025 H 2452.69 1.43295 -0.142365 0
M  V30 26026 H 2454.64 3.68804 2.03867 0
M  V30 26027 H 2453.37 2.45114 2.15839 0
M  V30 26028 H 2452.03 3.64504 0.391417 0
M  V30 26029 H 2451.68 4.17129 2.81091 0
M  V30 26030 H 2451.38 5.59775 1.78678 0
M  V30 26031 H 2452.9 5.47137 2.7106 0
M  V30 26032 H 2454.31 5.71513 0.452284 0
M  V30 26033 H 2452.71 5.99408 -0.288097 0
M  V30 26034 H 2453.78 4.75232 -0.963474 0
M  V30 26035 N 2455.12 0.166873 1.56714 0
M  V30 26036 C 2456.35 -0.484905 2.00829 0
M  V30 26037 C 2456.76 -1.57646 1.04615 0
M  V30 26038 O 2456.11 -1.8366 0.0383524 0
M  V30 26039 C 2456.17 -1.12717 3.41372 0
M  V30 26040 C 2455.83 -0.177806 4.56654 0
M  V30 26041 C 2456.83 0.602161 5.16401 0
M  V30 26042 C 2454.51 -0.0749256 5.02244 0
M  V30 26043 C 2456.51 1.47225 6.20164 0
M  V30 26044 C 2454.19 0.798756 6.05857 0
M  V30 26045 C 2455.19 1.57093 6.64688 0
M  V30 26046 O 2454.88 2.43002 7.66293 0
M  V30 26047 H 2454.61 -0.128941 0.663589 0
M  V30 26048 H 2457.17 0.264401 2.03691 0
M  V30 26049 H 2455.4 -1.92451 3.35409 0
M  V30 26050 H 2457.09 -1.6807 3.69469 0
M  V30 26051 H 2457.85 0.532825 4.82064 0
M  V30 26052 H 2453.73 -0.665732 4.56168 0
M  V30 26053 H 2457.27 2.07543 6.66012 0
M  V30 26054 H 2453.17 0.869311 6.3962 0
M  V30 26055 H 2453.94 2.36469 7.83597 0
M  V30 26056 N 2456.6 -1.57237 -0.106866 0
M  V30 26057 C 2457.55 -2.01219 -1.13046 0
M  V30 26058 C 2458.52 -0.886428 -1.40469 0
M  V30 26059 O 2459.7 -1.15156 -1.52131 0
M  V30 26060 C 2456.84 -2.43176 -2.44866 0
M  V30 26061 C 2455.96 -3.69222 -2.24275 0
M  V30 26062 C 2455.09 -4.00108 -3.4941 0
M  V30 26063 C 2454.13 -5.19299 -3.24029 0
M  V30 26064 N 2453.27 -5.45995 -4.414 0
M  V30 26065 H 2458.11 -2.88449 -0.748406 0
M  V30 26066 H 2455.65 -1.42676 -0.358029 0
M  V30 26067 H 2457.6 -2.65543 -3.21781 0
M  V30 26068 H 2456.23 -1.58972 -2.80941 0
M  V30 26069 H 2455.29 -3.54401 -1.38218 0
M  V30 26070 H 2456.6 -4.56287 -2.01504 0
M  V30 26071 H 2455.75 -4.23188 -4.34738 0
M  V30 26072 H 2454.49 -3.11542 -3.75224 0
M  V30 26073 H 2453.5 -4.96051 -2.37093 0
M  V30 26074 H 2454.72 -6.09453 -2.99573 0
M  V30 26075 H 2452.67 -4.60388 -4.67311 0
M  V30 26076 H 2452.58 -6.27407 -4.21777 0
M  V30 26077 H 2453.85 -5.73603 -5.27826 0
M  V30 26078 N 2458.08 0.377381 -1.53015 0
M  V30 26079 C 2459.33 1.1185 -1.67847 0
M  V30 26080 C 2459.64 1.908 -0.430659 0
M  V30 26081 O 2460.85 2.67587 -0.459308 0
M  V30 26082 C 2459.3 2.0375 -2.96671 0
M  V30 26083 C 2458.91 1.30168 -4.28673 0
M  V30 26084 C 2460.66 2.77926 -3.2087 0
M  V30 26085 C 2458.56 2.20902 -5.48595 0
M  V30 26086 H 2457.49 0.421252 -0.62535 0
M  V30 26087 H 2460.14 0.380378 -1.79514 0
M  V30 26088 H 2458.53 2.81245 -2.78778 0
M  V30 26089 H 2459.7 0.578179 -4.57158 0
M  V30 26090 H 2458.02 0.679035 -4.10826 0
M  V30 26091 H 2460.61 3.46017 -4.07648 0
M  V30 26092 H 2460.96 3.42646 -2.3643 0
M  V30 26093 H 2461.49 2.07519 -3.39383 0
M  V30 26094 H 2458.23 1.60778 -6.35477 0
M  V30 26095 H 2457.75 2.91134 -5.24405 0
M  V30 26096 H 2459.43 2.80726 -5.82925 0
M  V30 26097 N 2459.56 1.44175 0.636506 0
M  V30 26098 C 2460.81 1.46385 1.39341 0
M  V30 26099 C 2461.13 0.0956057 1.94765 0
M  V30 26100 O 2460.4 -0.871365 1.75454 0
M  V30 26101 H 2458.98 0.539003 0.517189 0
M  V30 26102 H 2461.64 1.79911 0.749538 0
M  V30 26103 H 2460.74 2.18615 2.22742 0
M  V30 26104 N 2461.04 -0.876421 1.30983 0
M  V30 26105 C 2461.97 -1.98892 1.13906 0
M  V30 26106 C 2462.98 -1.62604 0.0799101 0
M  V30 26107 O 2464.17 -1.75483 0.326773 0
M  V30 26108 C 2461.27 -3.31234 0.716757 0
M  V30 26109 C 2460.44 -3.95905 1.85951 0
M  V30 26110 C 2459.5 -5.06556 1.42434 0
M  V30 26111 O 2458.53 -5.27725 2.13296 0
M  V30 26112 N 2459.73 -5.79682 0.308127 0
M  V30 26113 H 2462.5 -2.1409 2.09727 0
M  V30 26114 H 2460.06 -1.05002 1.23232 0
M  V30 26115 H 2462.05 -4.02633 0.408473 0
M  V30 26116 H 2460.62 -3.12242 -0.149664 0
M  V30 26117 H 2459.84 -3.17569 2.33546 0
M  V30 26118 H 2461.13 -4.35851 2.6251 0
M  V30 26119 H 2460.52 -5.64996 -0.282141 0
M  V30 26120 H 2459.08 -6.51773 0.0593428 0
M  V30 26121 N 2462.51 -1.13839 -1.08989 0
M  V30 26122 C 2463.76 -0.897541 -1.8063 0
M  V30 26123 C 2464.08 0.577737 -1.86873 0
M  V30 26124 O 2465.28 0.935656 -2.54868 0
M  V30 26125 C 2463.74 -1.55623 -3.24514 0
M  V30 26126 C 2463.35 -3.06735 -3.26523 0
M  V30 26127 C 2465.09 -1.39627 -4.0088 0
M  V30 26128 C 2463 -3.65469 -4.64959 0
M  V30 26129 H 2461.93 -0.332141 -0.676904 0
M  V30 26130 H 2464.58 -1.36662 -1.22457 0
M  V30 26131 H 2462.96 -1.01483 -3.82776 0
M  V30 26132 H 2464.13 -3.67494 -2.78002 0
M  V30 26133 H 2462.45 -3.22301 -2.6365 0
M  V30 26134 H 2465.05 -1.80915 -5.03164 0
M  V30 26135 H 2465.39 -0.341651 -4.14896 0
M  V30 26136 H 2465.92 -1.90772 -3.49072 0
M  V30 26137 H 2462.66 -4.70757 -4.56145 0
M  V30 26138 H 2462.18 -3.0949 -5.13786 0
M  V30 26139 H 2463.86 -3.6541 -5.33933 0
M  V30 26140 N 2463.99 1.27046 -0.932584 0
M  V30 26141 C 2464.92 2.29065 -0.452942 0
M  V30 26142 C 2465.9 1.6291 0.48931 0
M  V30 26143 O 2467.09 1.90182 0.393013 0
M  V30 26144 C 2464.22 3.46082 0.290637 0
M  V30 26145 C 2463.17 4.24264 -0.564242 0
M  V30 26146 C 2462.5 5.33808 0.308793 0
M  V30 26147 C 2463.8 4.89146 -1.83121 0
M  V30 26148 H 2465.49 2.69435 -1.30557 0
M  V30 26149 H 2463.04 1.29525 -0.629224 0
M  V30 26150 H 2464.99 4.16555 0.63716 0
M  V30 26151 H 2463.72 3.04642 1.17733 0
M  V30 26152 H 2462.37 3.55544 -0.89354 0
M  V30 26153 H 2462.02 4.88609 1.19458 0
M  V30 26154 H 2461.72 5.87026 -0.259736 0
M  V30 26155 H 2463.25 6.07122 0.650777 0
M  V30 26156 H 2464.66 5.5188 -1.55246 0
M  V30 26157 H 2463.06 5.52444 -2.34363 0
M  V30 26158 H 2464.13 4.12572 -2.5478 0
M  V30 26159 N 2465.47 0.698636 1.41269 0
M  V30 26160 C 2466.72 0.230445 2.00782 0
M  V30 26161 C 2467.04 -1.17503 1.55622 0
M  V30 26162 O 2466.31 -1.79345 0.788181 0
M  V30 26163 H 2464.89 0.0822075 0.742463 0
M  V30 26164 H 2467.55 0.90048 1.72851 0
M  V30 26165 H 2466.65 0.250265 3.11095 0
M  V30 26166 N 2466.95 -1.51228 0.443603 0
M  V30 26167 C 2468.2 -2.01329 -0.122297 0
M  V30 26168 C 2468.51 -1.33203 -1.43235 0
M  V30 26169 O 2469.72 -1.74308 -2.08156 0
M  V30 26170 C 2468.17 -3.58897 -0.268488 0
M  V30 26171 C 2467.78 -4.35963 1.0315 0
M  V30 26172 C 2469.52 -4.17125 -0.787821 0
M  V30 26173 C 2467.43 -5.85251 0.850607 0
M  V30 26174 H 2466.36 -0.752375 -0.0494797 0
M  V30 26175 H 2469.01 -1.74281 0.57432 0
M  V30 26176 H 2467.39 -3.82417 -1.02825 0
M  V30 26177 H 2468.57 -4.24186 1.80008 0
M  V30 26178 H 2466.88 -3.89217 1.47984 0
M  V30 26179 H 2469.48 -5.26377 -0.939749 0
M  V30 26180 H 2469.82 -3.76707 -1.77194 0
M  V30 26181 H 2470.36 -3.97707 -0.086197 0
M  V30 26182 H 2467.1 -6.30093 1.80729 0
M  V30 26183 H 2466.62 -5.99676 0.12193 0
M  V30 26184 H 2468.29 -6.45016 0.506276 0
M  V30 26185 N 2468.43 -0.175182 -1.56623 0
M  V30 26186 C 2469.38 0.765966 -2.14749 0
M  V30 26187 C 2470.36 1.19017 -1.08277 0
M  V30 26188 O 2471.55 1.15188 -1.3439 0
M  V30 26189 C 2468.68 1.99361 -2.79481 0
M  V30 26190 C 2467.77 1.59123 -3.93117 0
M  V30 26191 N 2468.16 0.898633 -4.97753 0
M  V30 26192 C 2466.46 1.88197 -4.04349 0
M  V30 26193 C 2467.16 0.699911 -5.77474 0
M  V30 26194 N 2466.13 1.24253 -5.29209 0
M  V30 26195 H 2469.94 0.227878 -2.93015 0
M  V30 26196 H 2467.45 0.0253558 -1.6238 0
M  V30 26197 H 2469.45 2.67813 -3.19503 0
M  V30 26198 H 2468.11 2.53661 -2.02697 0
M  V30 26199 H 2469.12 0.556257 -5.14904 0
M  V30 26200 H 2465.79 2.44147 -3.38671 0
M  V30 26201 H 2467.18 0.151929 -6.71728 0
M  V30 26202 N 2469.91 1.57292 0.0985263 0
M  V30 26203 C 2471.15 1.86189 0.803834 0
M  V30 26204 C 2471.48 0.763826 1.78548 0
M  V30 26205 O 2470.76 -0.228516 1.93153 0
M  V30 26206 C 2471.04 3.25716 1.53562 0
M  V30 26207 C 2470.9 4.46146 0.572199 0
M  V30 26208 C 2472.21 3.63092 2.48702 0
M  V30 26209 H 2469.33 0.677216 0.290769 0
M  V30 26210 H 2471.98 1.8988 0.067545 0
M  V30 26211 H 2470.13 3.227 2.16326 0
M  V30 26212 H 2471.8 4.61275 -0.0481705 0
M  V30 26213 H 2470.04 4.33648 -0.114694 0
M  V30 26214 H 2470.71 5.40491 1.1213 0
M  V30 26215 H 2473.19 3.67029 1.96032 0
M  V30 26216 H 2472.06 4.61658 2.96923 0
M  V30 26217 H 2472.32 2.91593 3.32304 0
M  V30 26218 N 2471.38 -0.369261 1.53213 0
M  V30 26219 C 2472.63 -1.11009 1.68883 0
M  V30 26220 C 2472.95 -1.8994 0.441319 0
M  V30 26221 O 2472.22 -1.88178 -0.54459 0
M  V30 26222 H 2470.8 -0.412805 0.622576 0
M  V30 26223 H 2473.46 -0.416768 1.90392 0
M  V30 26224 H 2472.56 -1.80196 2.54825 0
M  V30 26225 N 2472.86 -1.4451 -0.628851 0
M  V30 26226 C 2474.11 -1.47122 -1.38562 0
M  V30 26227 C 2474.43 -0.105933 -1.94712 0
M  V30 26228 O 2473.7 0.862048 -1.75913 0
M  V30 26229 H 2472.28 -0.541738 -0.514324 0
M  V30 26230 H 2474.94 -1.80306 -0.739986 0
M  V30 26231 H 2474.04 -2.19793 -2.21579 0
M  V30 26232 N 2474.34 0.869463 -1.31446 0
M  V30 26233 C 2475.29 1.99812 -1.1907 0
M  V30 26234 C 2476.28 1.69111 -0.0988866 0
M  V30 26235 O 2477.49 1.781 -0.260813 0
M  V30 26236 H 2473.86 0.655418 -0.368688 0
M  V30 26237 H 2475.83 2.07381 -2.14559 0
M  V30 26238 C 2474.58 3.35434 -0.915382 0
M  V30 26239 H 2473.91 3.59579 -1.74766 0
M  V30 26240 H 2475.35 4.15 -0.868968 0
M  V30 26241 C 2473.8 3.34729 0.38187 0
M  V30 26242 O 2474.33 3.7657 1.3985 0
M  V30 26243 N 2472.54 2.87854 0.398582 0
M  V30 26244 H 2472.09 2.53999 -0.429231 0
M  V30 26245 H 2472.05 2.87764 1.26646 0
M  V30 26246 N 2475.82 1.14415 1.08383 0
M  V30 26247 C 2477.07 0.910711 1.80417 0
M  V30 26248 C 2477.39 -0.56421 1.86659 0
M  V30 26249 O 2476.66 -1.41012 1.35987 0
M  V30 26250 H 2475.24 0.333946 0.668198 0
M  V30 26251 H 2477.9 1.44278 1.31034 0
M  V30 26252 H 2476.99 1.31087 2.83236 0
M  V30 26253 N 2477.3 -1.26549 0.939309 0
M  V30 26254 C 2478.71 -1.46148 0.64133 0
M  V30 26255 C 2478.91 -1.84681 -0.805931 0
M  V30 26256 O 2477.97 -1.96737 -1.58275 0
M  V30 26257 C 2479.28 -2.54526 1.60115 0
M  V30 26258 C 2480.83 -2.68379 1.61064 0
M  V30 26259 C 2481.3 -3.79927 2.55772 0
M  V30 26260 N 2482.79 -3.87317 2.54046 0
M  V30 26261 C 2483.53 -4.73079 3.24012 0
M  V30 26262 N 2483.03 -5.63242 4.03398 0
M  V30 26263 N 2484.82 -4.66909 3.12974 0
M  V30 26264 H 2476.97 -0.998252 1.8748 0
M  V30 26265 H 2479.23 -0.499764 0.805568 0
M  V30 26266 H 2478.94 -2.33034 2.63416 0
M  V30 26267 H 2478.81 -3.52146 1.35177 0
M  V30 26268 H 2481.2 -2.89246 0.584886 0
M  V30 26269 H 2481.28 -1.71209 1.90056 0
M  V30 26270 H 2480.92 -3.59813 3.58465 0
M  V30 26271 H 2480.85 -4.7655 2.24071 0
M  V30 26272 H 2483.35 -3.22854 1.96401 0
M  V30 26273 H 2483.66 -6.25571 4.53741 0
M  V30 26274 H 2482 -5.63 4.07499 0
M  V30 26275 H 2485.19 -3.95472 2.50439 0
M  V30 26276 H 2485.37 -5.33526 3.67769 0
M  V30 26277 N 2478.77 -0.706118 -1.40896 0
M  V30 26278 C 2480.05 -0.169133 -1.94867 0
M  V30 26279 C 2480.43 1.32315 -1.64487 0
M  V30 26280 O 2479.78 2.07472 -0.957476 0
M  V30 26281 C 2479.99 -0.471715 -3.45797 0
M  V30 26282 C 2481.34 -0.405202 -4.22662 0
M  V30 26283 O 2482.36 -0.40723 -3.53864 0
M  V30 26284 O 2481.22 -0.374479 -5.45215 0
M  V30 26285 H 2478.31 -0.0211497 -0.82673 0
M  V30 26286 H 2480.86 -0.783002 -1.50556 0
M  V30 26287 H 2479.63 -1.50423 -3.61232 0
M  V30 26288 H 2479.25 0.172596 -3.97225 0
M  V30 26289 N 2480.25 1.50991 -0.451617 0
M  V30 26290 C 2481.5 2.01801 0.109821 0
M  V30 26291 C 2481.82 1.33692 1.41956 0
M  V30 26292 O 2481.09 0.475984 1.90029 0
M  V30 26293 H 2479.67 0.745728 0.0435753 0
M  V30 26294 H 2482.33 1.85512 -0.59759 0
M  V30 26295 H 2481.43 3.10882 0.275434 0
M  V30 26296 N 2481.73 0.183486 1.56528 0
M  V30 26297 C 2482.98 -0.458323 1.97245 0
M  V30 26298 C 2483.3 -1.62427 1.06995 0
M  V30 26299 O 2482.56 -1.9541 0.106576 0
M  V30 26300 C 2482.86 -0.971577 3.43941 0
M  V30 26301 C 2482.52 0.0797577 4.50829 0
M  V30 26302 C 2481.19 0.368668 4.79786 0
M  V30 26303 C 2483.54 0.792729 5.15136 0
M  V30 26304 C 2480.87 1.37573 5.70343 0
M  V30 26305 C 2483.22 1.78886 6.06781 0
M  V30 26306 C 2481.88 2.08509 6.34098 0
M  V30 26307 H 2481.15 -0.167712 0.721771 0
M  V30 26308 H 2483.8 0.278009 1.89471 0
M  V30 26309 H 2482.1 -1.78596 3.48727 0
M  V30 26310 H 2483.8 -1.47737 3.72793 0
M  V30 26311 H 2480.39 -0.155593 4.28317 0
M  V30 26312 H 2484.58 0.582745 4.92867 0
M  V30 26313 H 2479.83 1.61128 5.89786 0
M  V30 26314 H 2484.01 2.34661 6.55673 0
M  V30 26315 H 2481.63 2.8669 7.04069 0
M  V30 26316 N 2483.21 -1.57342 -0.0901833 0
M  V30 26317 C 2484.43 -1.90927 -0.810049 0
M  V30 26318 C 2484.86 -0.778217 -1.71247 0
M  V30 26319 O 2484.22 0.269959 -1.79279 0
M  V30 26320 C 2484.26 -3.23396 -1.59523 0
M  V30 26321 O 2483.37 -3.11332 -2.70456 0
M  V30 26322 H 2482.71 -0.625711 -0.22222 0
M  V30 26323 H 2485.24 -2.045 -0.0639357 0
M  V30 26324 H 2485.25 -3.56823 -1.97841 0
M  V30 26325 H 2483.92 -4.053 -0.932983 0
M  V30 26326 H 2482.5 -2.89428 -2.3513 0
M  V30 26327 N 2484.69 0.36113 -1.53407 0
M  V30 26328 C 2485.91 1.12826 -1.74026 0
M  V30 26329 C 2486.34 1.82131 -0.470101 0
M  V30 26330 O 2485.69 1.71901 0.57616 0
M  V30 26331 C 2485.74 2.13085 -2.90907 0
M  V30 26332 O 2484.85 3.20256 -2.59826 0
M  V30 26333 H 2484.19 0.327157 -0.57781 0
M  V30 26334 H 2486.72 0.416895 -2.00308 0
M  V30 26335 H 2486.73 2.5661 -3.17199 0
M  V30 26336 H 2485.4 1.62035 -3.83037 0
M  V30 26337 H 2483.98 2.81672 -2.44367 0
M  V30 26338 N 2486.16 1.44842 0.621179 0
M  V30 26339 C 2487.1 1.4695 1.74588 0
M  V30 26340 C 2488.08 0.327266 1.59273 0
M  V30 26341 O 2489.26 0.525738 1.8102 0
M  V30 26342 C 2486.39 1.31164 3.12272 0
M  V30 26343 C 2485.43 2.49078 3.46211 0
M  V30 26344 S 2486.27 4.11587 3.42573 0
M  V30 26345 C 2487.42 3.98242 4.8286 0
M  V30 26346 H 2487.65 2.42114 1.72534 0
M  V30 26347 H 2485.19 1.3226 0.79666 0
M  V30 26348 H 2487.15 1.22744 3.9172 0
M  V30 26349 H 2485.81 0.374939 3.11854 0
M  V30 26350 H 2485 2.33923 4.46426 0
M  V30 26351 H 2484.6 2.5429 2.74249 0
M  V30 26352 H 2486.89 3.62547 5.72334 0
M  V30 26353 H 2487.84 4.98322 5.03072 0
M  V30 26354 H 2488.24 3.30129 4.57903 0
M  V30 26355 N 2487.64 -0.862479 1.31905 0
M  V30 26356 C 2488.57 -1.9861 1.22785 0
M  V30 26357 C 2489.55 -1.69722 0.113391 0
M  V30 26358 O 2490.74 -1.9188 0.299252 0
M  V30 26359 C 2487.87 -3.34278 0.942117 0
M  V30 26360 C 2486.82 -3.77495 2.01696 0
M  V30 26361 C 2486.15 -5.10706 1.58378 0
M  V30 26362 C 2487.45 -3.93799 3.43103 0
M  V30 26363 H 2489.14 -2.06498 2.16792 0
M  V30 26364 H 2486.69 -0.992136 1.04368 0
M  V30 26365 H 2488.64 -4.12429 0.86489 0
M  V30 26366 H 2487.37 -3.26583 -0.0336029 0
M  V30 26367 H 2486.02 -3.01589 2.08421 0
M  V30 26368 H 2485.67 -4.9946 0.595715 0
M  V30 26369 H 2485.37 -5.40593 2.30289 0
M  V30 26370 H 2486.9 -5.91359 1.52077 0
M  V30 26371 H 2488.31 -4.62325 3.39011 0
M  V30 26372 H 2486.71 -4.35094 4.13296 0
M  V30 26373 H 2487.78 -2.9695 3.83339 0
M  V30 26374 N 2489.12 -1.14988 -1.07775 0
M  V30 26375 C 2490.05 -0.865595 -2.16863 0
M  V30 26376 C 2491.03 0.182053 -1.69123 0
M  V30 26377 O 2492.22 0.0373473 -1.94164 0
M  V30 26378 C 2489.35 -0.349373 -3.45538 0
M  V30 26379 C 2488.3 -1.3332 -4.06706 0
M  V30 26380 C 2487.63 -0.676011 -5.30409 0
M  V30 26381 C 2488.93 -2.69772 -4.47236 0
M  V30 26382 H 2490.62 -1.77782 -2.40902 0
M  V30 26383 H 2488.17 -0.856223 -1.15779 0
M  V30 26384 H 2490.12 -0.138057 -4.21174 0
M  V30 26385 H 2488.84 0.598306 -3.21073 0
M  V30 26386 H 2487.5 -1.53081 -3.33109 0
M  V30 26387 H 2487.15 0.277679 -5.02233 0
M  V30 26388 H 2486.85 -1.33254 -5.72291 0
M  V30 26389 H 2488.37 -0.474369 -6.08755 0
M  V30 26390 H 2489.79 -2.53882 -5.1402 0
M  V30 26391 H 2488.19 -3.31759 -5.00056 0
M  V30 26392 H 2489.26 -3.26162 -3.58812 0
M  V30 26393 N 2490.6 1.26049 -0.946007 0
M  V30 26394 C 2492.01 1.45805 -0.649071 0
M  V30 26395 C 2492.21 1.85106 0.796126 0
M  V30 26396 O 2491.27 1.97573 1.57229 0
M  V30 26397 C 2492.58 2.53674 -1.61462 0
M  V30 26398 C 2494.13 2.67521 -1.62485 0
M  V30 26399 C 2494.61 3.78566 -2.57783 0
M  V30 26400 N 2496.1 3.85965 -2.56097 0
M  V30 26401 C 2496.83 4.71354 -3.26517 0
M  V30 26402 N 2496.33 5.61095 -4.06379 0
M  V30 26403 N 2498.12 4.65243 -3.15445 0
M  V30 26404 H 2490.27 0.988295 -1.88007 0
M  V30 26405 H 2492.54 0.495485 -0.808207 0
M  V30 26406 H 2492.24 2.31634 -2.64648 0
M  V30 26407 H 2492.12 3.51425 -1.37042 0
M  V30 26408 H 2494.5 2.88931 -0.600217 0
M  V30 26409 H 2494.58 1.70198 -1.90961 0
M  V30 26410 H 2494.23 3.57907 -3.60368 0
M  V30 26411 H 2494.16 4.75355 -2.26595 0
M  V30 26412 H 2496.65 3.21808 -1.98111 0
M  V30 26413 H 2496.96 6.23156 -4.57053 0
M  V30 26414 H 2495.31 5.60831 -4.10479 0
M  V30 26415 H 2498.5 3.94138 -2.52532 0
M  V30 26416 H 2498.67 5.31568 -3.70593 0
M  V30 26417 N 2492.08 0.71358 1.4052 0
M  V30 26418 C 2493.3 0.260386 2.05759 0
M  V30 26419 C 2493.73 -1.08851 1.53405 0
M  V30 26420 O 2493.08 -1.68523 0.668565 0
M  V30 26421 C 2493.13 0.248185 3.59745 0
M  V30 26422 O 2492.24 -0.771239 4.05124 0
M  V30 26423 H 2491.58 0.122715 0.652562 0
M  V30 26424 H 2494.11 0.973499 1.79956 0
M  V30 26425 H 2494.12 0.0851846 4.07911 0
M  V30 26426 H 2492.79 1.23256 3.97216 0
M  V30 26427 H 2491.37 -0.576125 3.68423 0
M  V30 26428 N 2493.55 -1.50749 0.459618 0
M  V30 26429 C 2494.78 -2.06371 -0.0971975 0
M  V30 26430 C 2495.19 -1.32485 -1.35071 0
M  V30 26431 O 2494.54 -0.384257 -1.79636 0
M  V30 26432 C 2494.6 -3.5651 -0.462697 0
M  V30 26433 C 2494.26 -4.51804 0.687163 0
M  V30 26434 C 2495.26 -4.95759 1.56587 0
M  V30 26435 C 2492.94 -4.94634 0.874231 0
M  V30 26436 C 2494.94 -5.81237 2.61614 0
M  V30 26437 C 2492.62 -5.79898 1.92775 0
M  V30 26438 C 2493.62 -6.23099 2.79707 0
M  V30 26439 O 2493.31 -7.06666 3.83247 0
M  V30 26440 H 2493.04 -0.675999 -0.00139498 0
M  V30 26441 H 2495.6 -1.95042 0.644046 0
M  V30 26442 H 2493.83 -3.65701 -1.25696 0
M  V30 26443 H 2495.52 -3.94548 -0.953254 0
M  V30 26444 H 2496.28 -4.63347 1.43298 0
M  V30 26445 H 2492.16 -4.60535 0.207087 0
M  V30 26446 H 2495.7 -6.14879 3.295 0
M  V30 26447 H 2491.6 -6.11722 2.06075 0
M  V30 26448 H 2492.37 -7.24892 3.80096 0
M  V30 26449 N 2495.03 -0.191784 -1.56429 0
M  V30 26450 C 2496.28 0.447856 -1.97485 0
M  V30 26451 C 2496.61 1.61857 -1.07855 0
M  V30 26452 O 2495.86 1.9535 -0.116938 0
M  V30 26453 C 2496.16 0.953323 -3.44451 0
M  V30 26454 C 2495.83 -0.103665 -4.50781 0
M  V30 26455 C 2494.49 -0.394107 -4.79583 0
M  V30 26456 C 2496.84 -0.820037 -5.14708 0
M  V30 26457 C 2494.17 -1.40595 -5.69605 0
M  V30 26458 C 2496.52 -1.82101 -6.05823 0
M  V30 26459 C 2495.19 -2.11868 -6.32983 0
M  V30 26460 H 2494.46 0.163882 -0.72265 0
M  V30 26461 H 2497.1 -0.288054 -1.89321 0
M  V30 26462 H 2495.41 1.76744 -3.49669 0
M  V30 26463 H 2497.1 1.45758 -3.73571 0
M  V30 26464 H 2493.69 0.132876 -4.28394 0
M  V30 26465 H 2497.88 -0.608875 -4.92551 0
M  V30 26466 H 2493.13 -1.64253 -5.88923 0
M  V30 26467 H 2497.31 -2.38135 -6.54419 0
M  V30 26468 H 2494.94 -2.9042 -7.02539 0
M  V30 26469 N 2496.51 1.57387 0.0818378 0
M  V30 26470 C 2497.74 1.90972 0.796074 0
M  V30 26471 C 2498.15 0.786787 1.71625 0
M  V30 26472 O 2497.51 -0.240481 1.80909 0
M  V30 26473 C 2497.56 3.24251 1.59823 0
M  V30 26474 O 2497.28 4.32225 0.715056 0
M  V30 26475 C 2498.78 3.71785 2.41436 0
M  V30 26476 H 2496 0.631473 0.226899 0
M  V30 26477 H 2498.55 2.04426 0.055108 0
M  V30 26478 H 2496.7 3.12355 2.29157 0
M  V30 26479 H 2497.12 5.08843 1.27196 0
M  V30 26480 H 2498.59 4.67699 2.93192 0
M  V30 26481 H 2499.07 3.00289 3.20505 0
M  V30 26482 H 2499.67 3.86592 1.77276 0
M  V30 26483 N 2497.99 -0.35299 1.53596 0
M  V30 26484 C 2498.9 -1.45664 1.839 0
M  V30 26485 C 2499.91 -1.58022 0.728362 0
M  V30 26486 O 2501.09 -1.73677 1.01971 0
M  V30 26487 C 2498.16 -2.80775 2.03388 0
M  V30 26488 C 2497.22 -2.77839 3.27267 0
M  V30 26489 C 2496.45 -4.06506 3.45816 0
M  V30 26490 O 2496.67 -5.03309 2.68396 0
M  V30 26491 O 2495.61 -4.11551 4.39214 0
M  V30 26492 H 2499.43 -1.22975 2.77688 0
M  V30 26493 H 2497.02 -0.544283 1.39133 0
M  V30 26494 H 2498.9 -3.60808 2.17705 0
M  V30 26495 H 2497.57 -3.03415 1.12789 0
M  V30 26496 H 2496.48 -1.9646 3.18362 0
M  V30 26497 H 2497.81 -2.60154 4.17829 0
M  V30 26498 N 2499.47 -1.45169 -0.613489 0
M  V30 26499 C 2500.4 -1.49393 -1.73823 0
M  V30 26500 C 2501.41 -0.385332 -1.58174 0
M  V30 26501 O 2502.6 -0.652065 -1.66164 0
M  V30 26502 C 2499.7 -1.32897 -3.11756 0
M  V30 26503 C 2498.87 -2.57324 -3.537 0
M  V30 26504 C 2497.93 -2.3547 -4.70575 0
M  V30 26505 O 2496.96 -3.09053 -4.77991 0
M  V30 26506 N 2498.16 -1.39654 -5.63451 0
M  V30 26507 H 2500.93 -2.46361 -1.70665 0
M  V30 26508 H 2498.49 -1.40833 -0.798595 0
M  V30 26509 H 2500.48 -1.16096 -3.8769 0
M  V30 26510 H 2499.05 -0.442272 -3.09456 0
M  V30 26511 H 2498.27 -2.8928 -2.67789 0
M  V30 26512 H 2499.56 -3.40045 -3.7848 0
M  V30 26513 H 2498.96 -0.78916 -5.60169 0
M  V30 26514 H 2497.51 -1.28827 -6.38942 0
M  V30 26515 N 2500.95 0.855472 -1.32361 0
M  V30 26516 C 2501.88 1.97055 -1.17056 0
M  V30 26517 C 2502.89 1.62456 -0.105769 0
M  V30 26518 O 2504.08 1.74941 -0.35465 0
M  V30 26519 C 2501.18 3.30052 -0.769363 0
M  V30 26520 C 2500.35 3.92897 -1.92226 0
M  V30 26521 C 2499.41 5.04226 -1.50475 0
M  V30 26522 O 2498.44 5.24265 -2.21664 0
M  V30 26523 N 2499.64 5.79118 -0.40031 0
M  V30 26524 H 2502.4 2.10726 -2.13107 0
M  V30 26525 H 2499.97 1.03028 -1.24887 0
M  V30 26526 H 2501.96 4.01933 -0.472477 0
M  V30 26527 H 2500.53 3.1244 0.09997 0
M  V30 26528 H 2499.75 3.13813 -2.38569 0
M  V30 26529 H 2501.04 4.31619 -2.69411 0
M  V30 26530 H 2500.43 5.65373 0.19222 0
M  V30 26531 H 2498.99 6.51596 -0.163027 0
M  V30 26532 N 2502.42 1.15558 1.07164 0
M  V30 26533 C 2503.67 0.929795 1.79441 0
M  V30 26534 C 2503.99 -0.544381 1.87247 0
M  V30 26535 O 2503.26 -1.39562 1.37475 0
M  V30 26536 H 2501.84 0.341014 0.664619 0
M  V30 26537 H 2504.5 1.45659 1.29497 0
M  V30 26538 H 2503.6 1.34084 2.8183 0
M  V30 26539 N 2503.9 -1.25546 0.952678 0
M  V30 26540 C 2504.83 -2.25156 0.428648 0
M  V30 26541 C 2505.85 -1.5633 -0.4544 0
M  V30 26542 O 2507.04 -1.76552 -0.262992 0
M  V30 26543 C 2504.14 -3.36508 -0.401912 0
M  V30 26544 C 2503.31 -4.34893 0.467678 0
M  V30 26545 C 2502.37 -5.25319 -0.304358 0
M  V30 26546 O 2501.39 -5.68427 0.296573 0
M  V30 26547 N 2502.6 -5.58073 -1.59796 0
M  V30 26548 H 2505.36 -2.70754 1.28501 0
M  V30 26549 H 2502.92 -1.39432 0.822823 0
M  V30 26550 H 2504.91 -3.93962 -0.926065 0
M  V30 26551 H 2503.48 -2.90315 -1.15913 0
M  V30 26552 H 2502.7 -3.76345 1.17295 0
M  V30 26553 H 2503.99 -4.97609 1.06128 0
M  V30 26554 H 2503.39 -5.24952 -2.10813 0
M  V30 26555 H 2501.95 -6.1812 -2.06811 0
M  V30 26556 N 2505.38 -0.721022 -1.40139 0
M  V30 26557 C 2506.63 -0.259839 -2.00019 0
M  V30 26558 C 2506.94 1.15524 -1.57841 0
M  V30 26559 O 2508.15 1.71522 -2.10458 0
M  V30 26560 C 2506.6 -0.413629 -3.57515 0
M  V30 26561 C 2506.21 -1.83569 -4.08664 0
M  V30 26562 C 2507.96 -0.0135133 -4.24498 0
M  V30 26563 C 2505.86 -1.93978 -5.58683 0
M  V30 26564 H 2504.79 -0.0933938 -0.748194 0
M  V30 26565 H 2507.44 -0.892894 -1.60311 0
M  V30 26566 H 2505.83 0.288099 -3.94951 0
M  V30 26567 H 2507 -2.56824 -3.82594 0
M  V30 26568 H 2505.31 -2.18776 -3.54297 0
M  V30 26569 H 2507.91 -0.0704894 -5.34654 0
M  V30 26570 H 2508.25 1.0292 -4.03377 0
M  V30 26571 H 2508.79 -0.665884 -3.92187 0
M  V30 26572 H 2505.53 -2.9639 -5.84665 0
M  V30 26573 H 2505.05 -1.25142 -5.866 0
M  V30 26574 H 2506.73 -1.71442 -6.23872 0
M  V30 26575 N 2506.86 1.50503 -0.467606 0
M  V30 26576 C 2507.79 2.26281 0.364615 0
M  V30 26577 C 2508.8 1.31474 0.960128 0
M  V30 26578 O 2509.99 1.5701 0.849126 0
M  V30 26579 C 2507.09 3.02648 1.52503 0
M  V30 26580 C 2506.26 4.24784 1.04294 0
M  V30 26581 C 2505.32 4.83474 2.077 0
M  V30 26582 O 2504.35 5.44486 1.65903 0
M  V30 26583 N 2505.55 4.70165 3.40477 0
M  V30 26584 H 2508.32 2.98342 -0.285002 0
M  V30 26585 H 2505.88 1.5913 -0.298191 0
M  V30 26586 H 2507.87 3.38791 2.21365 0
M  V30 26587 H 2506.44 2.33408 2.07941 0
M  V30 26588 H 2505.66 3.93787 0.180324 0
M  V30 26589 H 2506.95 5.0398 0.69871 0
M  V30 26590 H 2506.35 4.21636 3.77147 0
M  V30 26591 H 2504.9 5.10587 4.05147 0
M  V30 26592 N 2508.34 0.200077 1.56325 0
M  V30 26593 C 2509.58 -0.437618 1.96895 0
M  V30 26594 C 2509.9 -1.62413 1.09002 0
M  V30 26595 O 2511.1 -2.32995 1.39376 0
M  V30 26596 C 2509.56 -0.829963 3.50199 0
M  V30 26597 C 2509.17 0.33254 4.46764 0
M  V30 26598 C 2510.91 -1.43446 3.99529 0
M  V30 26599 C 2508.82 -0.0810429 5.91344 0
M  V30 26600 H 2507.75 -0.167269 0.735212 0
M  V30 26601 H 2510.4 0.292885 1.81148 0
M  V30 26602 H 2508.78 -1.61728 3.61469 0
M  V30 26603 H 2509.96 1.11008 4.47229 0
M  V30 26604 H 2508.27 0.84886 4.07656 0
M  V30 26605 H 2510.87 -1.75643 5.05028 0
M  V30 26606 H 2511.21 -2.34271 3.44126 0
M  V30 26607 H 2511.74 -0.711021 3.91394 0
M  V30 26608 H 2508.48 0.793147 6.50684 0
M  V30 26609 H 2508 -0.823341 5.94122 0
M  V30 26610 H 2509.68 -0.515139 6.44946 0
M  V30 26611 N 2509.81 -1.57429 -0.0734901 0
M  V30 26612 C 2511.04 -1.91775 -0.789753 0
M  V30 26613 C 2511.46 -0.796336 -1.70412 0
M  V30 26614 O 2510.82 0.250929 -1.79555 0
M  V30 26615 C 2510.87 -3.25069 -1.56084 0
M  V30 26616 O 2509.97 -3.14183 -2.67138 0
M  V30 26617 H 2509.31 -0.628033 -0.215571 0
M  V30 26618 H 2511.84 -2.04556 -0.0422421 0
M  V30 26619 H 2511.85 -3.58902 -1.94045 0
M  V30 26620 H 2510.53 -4.06267 -0.889943 0
M  V30 26621 H 2509.11 -2.91905 -2.32047 0
M  V30 26622 N 2511.29 0.344839 -1.53781 0
M  V30 26623 C 2512.24 1.42343 -1.81679 0
M  V30 26624 C 2513.21 1.5232 -0.662402 0
M  V30 26625 O 2514.39 1.67879 -0.906705 0
M  V30 26626 C 2511.53 2.79012 -2.03092 0
M  V30 26627 C 2510.65 2.77836 -3.30804 0
M  V30 26628 C 2509.78 4.06214 -3.42292 0
M  V30 26629 C 2508.82 3.99262 -4.63957 0
M  V30 26630 N 2507.96 5.19328 -4.72486 0
M  V30 26631 H 2512.8 1.17853 -2.73705 0
M  V30 26632 H 2510.33 0.570925 -1.35569 0
M  V30 26633 H 2512.29 3.58434 -2.13497 0
M  V30 26634 H 2510.92 3.01856 -1.1438 0
M  V30 26635 H 2509.97 1.90527 -3.29247 0
M  V30 26636 H 2511.29 2.68577 -4.20319 0
M  V30 26637 H 2510.44 4.9406 -3.52121 0
M  V30 26638 H 2509.18 4.18253 -2.5083 0
M  V30 26639 H 2508.18 3.09801 -4.54206 0
M  V30 26640 H 2509.41 3.88807 -5.56782 0
M  V30 26641 H 2507.36 5.31913 -3.83933 0
M  V30 26642 H 2507.27 5.1232 -5.55936 0
M  V30 26643 H 2508.54 6.08948 -4.86623 0
M  V30 26644 N 2512.77 1.45492 0.605781 0
M  V30 26645 C 2513.72 1.50727 1.71071 0
M  V30 26646 C 2514.7 0.370358 1.5658 0
M  V30 26647 O 2515.9 0.617328 1.65886 0
M  V30 26648 C 2513.02 1.47857 3.09828 0
M  V30 26649 C 2512.11 2.66757 3.29699 0
M  V30 26650 N 2512.5 3.9185 3.19824 0
M  V30 26651 C 2510.8 2.62492 3.60574 0
M  V30 26652 C 2511.5 4.71214 3.41075 0
M  V30 26653 N 2510.48 4.02699 3.6515 0
M  V30 26654 H 2514.28 2.45265 1.61932 0
M  V30 26655 H 2511.79 1.4081 0.809096 0
M  V30 26656 H 2513.79 1.49692 3.89099 0
M  V30 26657 H 2512.45 0.54377 3.20114 0
M  V30 26658 H 2513.46 4.23444 2.98187 0
M  V30 26659 H 2510.14 1.77928 3.77687 0
M  V30 26660 H 2511.53 5.80217 3.38818 0
M  V30 26661 N 2514.25 -0.848441 1.32813 0
M  V30 26662 C 2515.49 -1.60543 1.2391 0
M  V30 26663 C 2515.83 -1.93197 -0.197127 0
M  V30 26664 O 2515.1 -1.57882 -1.13593 0
M  V30 26665 C 2515.39 -2.92172 2.10494 0
M  V30 26666 C 2515.24 -2.6626 3.62527 0
M  V30 26667 C 2516.56 -3.93505 1.97082 0
M  V30 26668 H 2513.68 -0.582532 0.45147 0
M  V30 26669 H 2516.32 -0.979267 1.6282 0
M  V30 26670 H 2514.47 -3.45611 1.7744 0
M  V30 26671 H 2516.14 -2.19326 4.05825 0
M  V30 26672 H 2514.38 -2.00119 3.84883 0
M  V30 26673 H 2515.05 -3.60013 4.18443 0
M  V30 26674 H 2517.53 -3.49342 2.26051 0
M  V30 26675 H 2516.41 -4.83453 2.59932 0
M  V30 26676 H 2516.67 -4.31986 0.940262 0
M  V30 26677 N 2515.73 -1.16125 -1.06549 0
M  V30 26678 C 2516.67 -0.865451 -2.13959 0
M  V30 26679 C 2517.64 0.185026 -1.65066 0
M  V30 26680 O 2518.83 0.0507965 -1.90732 0
M  V30 26681 C 2515.97 -0.369836 -3.43113 0
M  V30 26682 C 2515.08 -1.48284 -4.05754 0
M  V30 26683 C 2514.22 -0.942506 -5.22772 0
M  V30 26684 C 2513.26 -2.03189 -5.77391 0
M  V30 26685 N 2512.39 -1.50734 -6.85729 0
M  V30 26686 H 2517.23 -1.78531 -2.38601 0
M  V30 26687 H 2514.77 -0.890667 -1.17071 0
M  V30 26688 H 2516.73 -0.0641377 -4.17151 0
M  V30 26689 H 2515.36 0.513087 -3.18696 0
M  V30 26690 H 2514.41 -1.90455 -3.29289 0
M  V30 26691 H 2515.72 -2.30501 -4.42347 0
M  V30 26692 H 2514.88 -0.589835 -6.03826 0
M  V30 26693 H 2513.61 -0.0896048 -4.87618 0
M  V30 26694 H 2512.62 -2.39329 -4.94976 0
M  V30 26695 H 2513.84 -2.88871 -6.14598 0
M  V30 26696 H 2511.79 -0.676926 -6.52498 0
M  V30 26697 H 2511.71 -2.2657 -7.2125 0
M  V30 26698 H 2512.98 -1.18316 -7.70468 0
M  V30 26699 N 2517.2 1.25039 -0.959323 0
M  V30 26700 C 2518.48 1.88174 -0.533838 0
M  V30 26701 C 2518.86 1.86501 0.988962 0
M  V30 26702 O 2518.21 1.3318 1.85675 0
M  V30 26703 C 2518.42 3.30682 -1.11581 0
M  V30 26704 C 2519.77 4.07421 -1.19555 0
M  V30 26705 O 2520.79 3.39821 -1.06771 0
M  V30 26706 O 2519.65 5.28352 -1.39665 0
M  V30 26707 H 2516.74 0.807883 -0.176786 0
M  V30 26708 H 2519.29 1.33075 -1.05306 0
M  V30 26709 H 2518.06 3.26355 -2.1589 0
M  V30 26710 H 2517.69 3.93345 -0.580128 0
M  V30 26711 N 2518.68 0.728444 1.39755 0
M  V30 26712 C 2519.93 0.273927 2.00941 0
M  V30 26713 C 2520.26 -1.13392 1.57658 0
M  V30 26714 O 2519.54 -1.77174 0.802465 0
M  V30 26715 C 2519.82 0.368409 3.5821 0
M  V30 26716 C 2519.67 1.81555 4.11531 0
M  V30 26717 C 2520.99 -0.252977 4.39372 0
M  V30 26718 H 2518.11 0.101009 0.730045 0
M  V30 26719 H 2520.75 0.923366 1.66054 0
M  V30 26720 H 2518.9 -0.18452 3.88062 0
M  V30 26721 H 2520.57 2.42485 3.92426 0
M  V30 26722 H 2518.82 2.33905 3.65337 0
M  V30 26723 H 2519.49 1.83297 5.20679 0
M  V30 26724 H 2521.96 0.218297 4.15527 0
M  V30 26725 H 2520.84 -0.156489 5.48677 0
M  V30 26726 H 2521.1 -1.33819 4.21361 0
M  V30 26727 N 2520.16 -1.50253 0.475581 0
M  V30 26728 C 2521.41 -2.01951 -0.0777025 0
M  V30 26729 C 2521.73 -1.35934 -1.39811 0
M  V30 26730 O 2521 -0.506156 -1.89248 0
M  V30 26731 H 2519.58 -0.746327 -0.0317059 0
M  V30 26732 H 2522.24 -1.84538 0.627028 0
M  V30 26733 H 2521.34 -3.11281 -0.225941 0
M  V30 26734 N 2521.64 -0.208365 -1.56217 0
M  V30 26735 C 2522.57 0.702077 -2.22695 0
M  V30 26736 C 2523.55 1.21118 -1.19434 0
M  V30 26737 O 2524.73 1.2576 -1.4798 0
M  V30 26738 C 2521.86 1.91605 -2.89663 0
M  V30 26739 C 2520.82 1.54133 -3.99283 0
M  V30 26740 C 2520.14 2.833 -4.53481 0
M  V30 26741 C 2521.44 0.741248 -5.17013 0
M  V30 26742 H 2523.14 0.147846 -2.99035 0
M  V30 26743 H 2520.68 0.0696698 -1.43831 0
M  V30 26744 H 2522.64 2.5583 -3.34857 0
M  V30 26745 H 2521.36 2.49504 -2.1075 0
M  V30 26746 H 2520.02 0.922606 -3.54801 0
M  V30 26747 H 2519.67 3.39316 -3.71314 0
M  V30 26748 H 2519.37 2.58967 -5.27456 0
M  V30 26749 H 2520.89 3.48491 -5.01385 0
M  V30 26750 H 2522.31 1.2869 -5.5867 0
M  V30 26751 H 2520.7 0.595522 -5.97138 0
M  V30 26752 H 2521.77 -0.254936 -4.84229 0
M  V30 26753 N 2523.12 1.57465 0.0651402 0
M  V30 26754 C 2524.53 1.76239 0.616182 0
M  V30 26755 C 2524.88 0.83472 1.77558 0
M  V30 26756 O 2524 0.0204537 2.1639 0
M  V30 26757 C 2524.6 3.19592 1.12456 0
M  V30 26758 C 2523.16 3.39687 1.62141 0
M  V30 26759 C 2522.3 2.71918 0.543691 0
M  V30 26760 H 2525.26 1.57881 -0.16105 0
M  V30 26761 H 2525.28 3.24118 1.99318 0
M  V30 26762 H 2524.79 3.87085 0.280524 0
M  V30 26763 H 2522.89 2.77318 2.48849 0
M  V30 26764 H 2523 4.48161 1.69377 0
M  V30 26765 H 2521.37 2.34659 0.99031 0
M  V30 26766 H 2522.15 3.42071 -0.290276 0
M  V30 26767 N 2524.59 -0.336679 1.53962 0
M  V30 26768 C 2525.82 -1.10043 1.75799 0
M  V30 26769 C 2526.24 -1.8136 0.499017 0
M  V30 26770 O 2525.6 -1.72796 -0.548739 0
M  V30 26771 C 2525.65 -2.0843 2.9426 0
M  V30 26772 O 2524.75 -3.16082 2.64889 0
M  V30 26773 H 2524.1 -0.317924 0.582941 0
M  V30 26774 H 2526.63 -0.384975 2.00946 0
M  V30 26775 H 2526.64 -2.51531 3.21241 0
M  V30 26776 H 2525.31 -1.55921 3.85567 0
M  V30 26777 H 2523.89 -2.77749 2.48817 0
M  V30 26778 N 2526.07 -1.45812 -0.598057 0
M  V30 26779 C 2527.32 -1.49596 -1.35292 0
M  V30 26780 C 2527.63 -0.145713 -1.95056 0
M  V30 26781 O 2528.84 -0.0612576 -2.71431 0
M  V30 26782 C 2527.3 -2.63523 -2.45119 0
M  V30 26783 C 2526.9 -4.04902 -1.91725 0
M  V30 26784 C 2528.65 -2.76563 -3.22045 0
M  V30 26785 C 2526.56 -5.10195 -2.99091 0
M  V30 26786 H 2525.49 -0.556687 -0.508542 0
M  V30 26787 H 2528.14 -1.71979 -0.639947 0
M  V30 26788 H 2526.52 -2.3444 -3.19145 0
M  V30 26789 H 2527.69 -4.43706 -1.24344 0
M  V30 26790 H 2526.01 -3.96395 -1.27515 0
M  V30 26791 H 2528.6 -3.52398 -4.02144 0
M  V30 26792 H 2528.95 -1.83533 -3.73659 0
M  V30 26793 H 2529.48 -3.05218 -2.55121 0
M  V30 26794 H 2526.22 -6.04966 -2.52382 0
M  V30 26795 H 2525.74 -4.75951 -3.65008 0
M  V30 26796 H 2527.42 -5.35365 -3.63309 0
M  V30 26797 N 2527.55 0.841385 -1.33261 0
M  V30 26798 C 2528.5 1.93943 -1.19876 0
M  V30 26799 C 2529.48 1.60574 -0.102297 0
M  V30 26800 O 2530.68 1.73894 -0.330144 0
M  V30 26801 C 2527.81 3.30249 -0.937575 0
M  V30 26802 C 2526.89 3.69795 -2.07636 0
M  V30 26803 N 2527.28 3.81056 -3.32611 0
M  V30 26804 C 2525.58 3.99516 -1.98249 0
M  V30 26805 C 2526.28 4.15326 -4.07283 0
M  V30 26806 N 2525.26 4.2756 -3.35699 0
M  V30 26807 H 2529.06 2.00801 -2.14607 0
M  V30 26808 H 2526.57 1.03396 -1.25232 0
M  V30 26809 H 2528.57 4.08704 -0.822617 0
M  V30 26810 H 2527.23 3.247 0.0012309 0
M  V30 26811 H 2528.24 3.65028 -3.67389 0
M  V30 26812 H 2524.92 4.02193 -1.12012 0
M  V30 26813 H 2526.31 4.31397 -5.15118 0
M  V30 26814 N 2529.03 1.16688 1.05932 0
M  V30 26815 C 2530.26 0.974961 1.82489 0
M  V30 26816 C 2530.67 -0.476829 1.82679 0
M  V30 26817 O 2530.03 -1.331 1.24862 0
M  V30 26818 C 2530.08 1.49935 3.2894 0
M  V30 26819 O 2529.8 2.89428 3.28881 0
M  V30 26820 C 2531.3 1.35096 4.22213 0
M  V30 26821 H 2528.52 0.345375 0.575289 0
M  V30 26822 H 2531.07 1.54802 1.33628 0
M  V30 26823 H 2529.22 0.968489 3.75099 0
M  V30 26824 H 2529.64 3.13514 4.20487 0
M  V30 26825 H 2531.11 1.76613 5.22984 0
M  V30 26826 H 2531.59 0.297012 4.38195 0
M  V30 26827 H 2532.19 1.87162 3.81904 0
M  V30 26828 N 2530.51 -1.24529 0.96594 0
M  V30 26829 C 2531.92 -1.74419 0.66596 0
M  V30 26830 C 2532.27 -1.78317 -0.818376 0
M  V30 26831 O 2531.39 -1.41144 -1.64035 0
M  V30 26832 C 2531.99 -3.16754 1.20217 0
M  V30 26833 C 2530.55 -3.64159 0.952123 0
M  V30 26834 C 2529.7 -2.42856 1.33852 0
M  V30 26835 H 2532.65 -1.10256 1.14146 0
M  V30 26836 H 2532.67 -3.76243 0.56761 0
M  V30 26837 H 2532.18 -3.13885 2.2825 0
M  V30 26838 H 2530.28 -3.72429 -0.112756 0
M  V30 26839 H 2530.39 -4.51716 1.59653 0
M  V30 26840 H 2528.76 -2.43193 0.756907 0
M  V30 26841 H 2529.54 -2.42668 2.42831 0
M  V30 26842 N 2531.99 -0.735845 -1.39367 0
M  V30 26843 C 2533.21 -0.294429 -2.04794 0
M  V30 26844 C 2533.63 1.07104 -1.5548 0
M  V30 26845 O 2532.99 1.67694 -0.720067 0
M  V30 26846 C 2533.04 -0.288134 -3.6035 0
M  V30 26847 O 2532.76 -1.59971 -4.07849 0
M  V30 26848 C 2534.26 0.169344 -4.42976 0
M  V30 26849 H 2531.48 -0.128562 -0.658569 0
M  V30 26850 H 2534.02 -0.999732 -1.78397 0
M  V30 26851 H 2532.18 0.368287 -3.85645 0
M  V30 26852 H 2532.59 -1.51384 -5.02179 0
M  V30 26853 H 2534.07 0.12259 -5.51864 0
M  V30 26854 H 2534.54 1.21464 -4.2207 0
M  V30 26855 H 2535.15 -0.457543 -4.22832 0
M  V30 26856 N 2533.46 1.49999 -0.483543 0
M  V30 26857 C 2534.41 2.28788 0.304124 0
M  V30 26858 C 2535.38 1.34394 0.97609 0
M  V30 26859 O 2536.57 1.63341 0.986128 0
M  V30 26860 C 2533.71 3.16615 1.37292 0
M  V30 26861 C 2532.82 4.26051 0.714486 0
M  V30 26862 C 2531.95 5.01117 1.76223 0
M  V30 26863 C 2530.99 6.02412 1.08472 0
M  V30 26864 N 2530.13 6.7071 2.07588 0
M  V30 26865 H 2534.97 2.95643 -0.374033 0
M  V30 26866 H 2532.51 1.45784 -0.1963 0
M  V30 26867 H 2534.46 3.65896 2.00439 0
M  V30 26868 H 2533.09 2.51779 2.02007 0
M  V30 26869 H 2532.15 3.80388 -0.0298467 0
M  V30 26870 H 2533.46 4.98474 0.180296 0
M  V30 26871 H 2532.61 5.5418 2.46919 0
M  V30 26872 H 2531.35 4.28428 2.33025 0
M  V30 26873 H 2530.36 5.48597 0.363448 0
M  V30 26874 H 2531.58 6.7708 0.523432 0
M  V30 26875 H 2529.53 6.00804 2.63384 0
M  V30 26876 H 2529.44 7.3905 1.59188 0
M  V30 26877 H 2530.71 7.28385 2.77626 0
M  V30 26878 N 2534.94 0.216646 1.56104 0
M  V30 26879 C 2536.17 -0.421378 2.02564 0
M  V30 26880 C 2536.58 -1.53693 1.09653 0
M  V30 26881 O 2535.94 -1.82196 0.105242 0
M  V30 26882 C 2535.99 -0.957604 3.48586 0
M  V30 26883 O 2535.71 0.113466 4.37953 0
M  V30 26884 C 2537.21 -1.66936 4.10667 0
M  V30 26885 H 2534.43 -0.103654 0.662946 0
M  V30 26886 H 2536.98 0.331664 2.01793 0
M  V30 26887 H 2535.13 -1.66094 3.49988 0
M  V30 26888 H 2535.55 -0.28884 5.23704 0
M  V30 26889 H 2537.02 -1.99662 5.14625 0
M  V30 26890 H 2537.5 -2.58077 3.55377 0
M  V30 26891 H 2538.1 -1.01135 4.131 0
M  V30 26892 N 2536.42 -1.57498 -0.0567885 0
M  V30 26893 C 2537.37 -2.04714 -1.06587 0
M  V30 26894 C 2538.34 -0.930668 -1.37578 0
M  V30 26895 O 2539.52 -1.19937 -1.4839 0
M  V30 26896 C 2536.66 -2.50843 -2.37006 0
M  V30 26897 C 2535.77 -3.7617 -2.12414 0
M  V30 26898 C 2534.91 -4.11021 -3.36504 0
M  V30 26899 C 2533.95 -5.29345 -3.07344 0
M  V30 26900 N 2533.09 -5.59762 -4.23806 0
M  V30 26901 H 2537.93 -2.90684 -0.656259 0
M  V30 26902 H 2535.46 -1.43743 -0.312456 0
M  V30 26903 H 2537.42 -2.75645 -3.1317 0
M  V30 26904 H 2536.05 -1.6783 -2.75741 0
M  V30 26905 H 2535.1 -3.58619 -1.26873 0
M  V30 26906 H 2536.41 -4.62466 -1.86886 0
M  V30 26907 H 2535.57 -4.36804 -4.21055 0
M  V30 26908 H 2534.31 -3.23322 -3.65122 0
M  V30 26909 H 2533.31 -5.03343 -2.21191 0
M  V30 26910 H 2534.54 -6.18675 -2.80032 0
M  V30 26911 H 2532.48 -4.75022 -4.52427 0
M  V30 26912 H 2532.4 -6.40508 -4.01603 0
M  V30 26913 H 2533.67 -5.90105 -5.0931 0
M  V30 26914 N 2537.9 0.328509 -1.54138 0
M  V30 26915 C 2538.83 1.40936 -1.8617 0
M  V30 26916 C 2539.81 1.542 -0.718071 0
M  V30 26917 O 2540.99 1.68161 -0.971358 0
M  V30 26918 C 2538.12 2.77775 -2.08466 0
M  V30 26919 C 2537.08 2.79304 -3.24304 0
M  V30 26920 C 2536.4 4.19172 -3.31962 0
M  V30 26921 C 2537.7 2.43494 -4.62069 0
M  V30 26922 H 2539.4 1.14378 -2.76691 0
M  V30 26923 H 2536.94 0.548783 -1.33133 0
M  V30 26924 H 2538.9 3.5345 -2.29459 0
M  V30 26925 H 2537.62 3.058 -1.14689 0
M  V30 26926 H 2536.28 2.06085 -3.03191 0
M  V30 26927 H 2535.93 4.4433 -2.35753 0
M  V30 26928 H 2535.63 4.21103 -4.09813 0
M  V30 26929 H 2537.15 4.96666 -3.55183 0
M  V30 26930 H 2538.57 3.08881 -4.82976 0
M  V30 26931 H 2536.96 2.56683 -5.42433 0
M  V30 26932 H 2538.03 1.38651 -4.64655 0
M  V30 26933 N 2539.38 1.46127 0.590316 0
M  V30 26934 C 2540.31 1.52139 1.71424 0
M  V30 26935 C 2541.32 0.410447 1.57541 0
M  V30 26936 O 2542.51 0.678418 1.65105 0
M  V30 26937 C 2539.61 1.3784 3.09602 0
M  V30 26938 C 2538.78 2.62918 3.49561 0
M  V30 26939 C 2537.84 2.42927 4.66769 0
M  V30 26940 O 2536.87 3.16618 4.73013 0
M  V30 26941 N 2538.07 1.486 5.61158 0
M  V30 26942 H 2540.83 2.49045 1.66724 0
M  V30 26943 H 2538.4 1.42086 0.776088 0
M  V30 26944 H 2540.39 1.22249 3.85794 0
M  V30 26945 H 2538.96 0.491448 3.08713 0
M  V30 26946 H 2538.18 2.93504 2.63153 0
M  V30 26947 H 2539.47 3.46023 3.73022 0
M  V30 26948 H 2538.86 0.878178 5.58842 0
M  V30 26949 H 2537.42 1.38976 6.36812 0
M  V30 26950 N 2540.85 -0.834306 1.33705 0
M  V30 26951 C 2542.26 -1.40617 1.22815 0
M  V30 26952 C 2542.62 -1.95618 -0.151073 0
M  V30 26953 O 2541.74 -1.8917 -1.05089 0
M  V30 26954 C 2542.34 -2.5562 2.2236 0
M  V30 26955 C 2540.89 -3.08747 2.15295 0
M  V30 26956 C 2540.04 -1.81566 2.09592 0
M  V30 26957 H 2542.99 -0.639677 1.45237 0
M  V30 26958 H 2543.01 -3.33385 1.83397 0
M  V30 26959 H 2542.53 -2.1556 3.22731 0
M  V30 26960 H 2540.63 -3.53341 1.18241 0
M  V30 26961 H 2540.74 -3.68611 3.06044 0
M  V30 26962 H 2539.1 -2.02001 1.55138 0
M  V30 26963 H 2539.89 -1.43696 3.11779 0
M  V30 26964 N 2542.33 -1.17248 -1.05312 0
M  V30 26965 C 2543.56 -0.98518 -1.82507 0
M  V30 26966 C 2543.98 0.461756 -1.82344 0
M  V30 26967 O 2543.34 1.33053 -1.23153 0
M  V30 26968 C 2543.39 -1.52935 -3.26563 0
M  V30 26969 O 2542.49 -0.742296 -4.05665 0
M  V30 26970 H 2541.83 -0.349879 -0.564341 0
M  V30 26971 H 2544.36 -1.55718 -1.32715 0
M  V30 26972 H 2544.37 -1.5511 -3.77366 0
M  V30 26973 H 2543.05 -2.58262 -3.25996 0
M  V30 26974 H 2541.62 -0.791858 -3.64395 0
M  V30 26975 N 2543.81 1.24015 -0.972531 0
M  V30 26976 C 2545.06 1.92503 -0.638012 0
M  V30 26977 C 2545.39 1.75788 0.825352 0
M  V30 26978 O 2544.66 1.11396 1.5944 0
M  V30 26979 C 2544.95 3.45367 -1.01948 0
M  V30 26980 C 2544.8 3.71227 -2.5399 0
M  V30 26981 C 2546.12 4.36554 -0.557587 0
M  V30 26982 H 2543.24 0.699113 -0.23326 0
M  V30 26983 H 2545.88 1.4629 -1.2124 0
M  V30 26984 H 2544.03 3.84858 -0.530723 0
M  V30 26985 H 2545.7 3.41266 -3.1038 0
M  V30 26986 H 2543.95 3.1621 -2.96974 0
M  V30 26987 H 2544.62 4.78201 -2.75731 0
M  V30 26988 H 2547.09 4.04465 -0.9771 0
M  V30 26989 H 2545.97 5.42231 -0.853015 0
M  V30 26990 H 2546.23 4.38762 0.542251 0
M  V30 26991 N 2545.29 0.743226 1.38974 0
M  V30 26992 C 2546.54 0.294787 2.00343 0
M  V30 26993 C 2546.86 -1.12045 1.58985 0
M  V30 26994 O 2546.12 -1.77975 0.81384 0
M  V30 26995 C 2546.42 0.35358 3.55647 0
M  V30 26996 C 2546.08 1.723 4.16682 0
M  V30 26997 C 2544.75 2.09779 4.33066 0
M  V30 26998 C 2547.1 2.62176 4.50459 0
M  V30 26999 C 2544.43 3.36627 4.8052 0
M  V30 27000 C 2546.78 3.88404 4.99325 0
M  V30 27001 C 2545.44 4.25965 5.13916 0
M  V30 27002 H 2544.71 0.10787 0.733106 0
M  V30 27003 H 2547.36 0.95168 1.66179 0
M  V30 27004 H 2545.66 -0.386885 3.89885 0
M  V30 27005 H 2547.36 -0.0116564 4.00998 0
M  V30 27006 H 2543.95 1.42162 4.04336 0
M  V30 27007 H 2548.13 2.34488 4.37412 0
M  V30 27008 H 2543.39 3.65661 4.90002 0
M  V30 27009 H 2547.56 4.58196 5.24432 0
M  V30 27010 H 2545.19 5.2432 5.50447 0
M  V30 27011 N 2546.77 -1.4974 0.491491 0
M  V30 27012 C 2548 -2.06531 -0.0534012 0
M  V30 27013 C 2548.4 -1.35321 -1.32231 0
M  V30 27014 O 2547.75 -0.422274 -1.78781 0
M  V30 27015 C 2547.81 -3.57411 -0.386971 0
M  V30 27016 C 2547.47 -4.50245 0.782843 0
M  V30 27017 C 2548.47 -4.92326 1.67067 0
M  V30 27018 C 2546.16 -4.92668 0.978953 0
M  V30 27019 C 2548.15 -5.75557 2.73884 0
M  V30 27020 C 2545.84 -5.75678 2.05032 0
M  V30 27021 C 2546.83 -6.17026 2.92861 0
M  V30 27022 O 2546.52 -6.98378 3.9815 0
M  V30 27023 H 2546.25 -0.675876 0.0129443 0
M  V30 27024 H 2548.81 -1.93632 0.685272 0
M  V30 27025 H 2547.04 -3.68285 -1.17911 0
M  V30 27026 H 2548.73 -3.96481 -0.86935 0
M  V30 27027 H 2549.49 -4.60204 1.53094 0
M  V30 27028 H 2545.37 -4.59992 0.304727 0
M  V30 27029 H 2548.92 -6.07751 3.42468 0
M  V30 27030 H 2544.81 -6.07213 2.19004 0
M  V30 27031 H 2545.58 -7.16667 3.95387 0
M  V30 27032 N 2548.24 -0.224922 -1.55987 0
M  V30 27033 C 2549.52 0.455049 -1.90233 0
M  V30 27034 C 2549.9 1.77497 -1.14272 0
M  V30 27035 O 2549.25 2.27094 -0.253119 0
M  V30 27036 C 2549.46 0.644698 -3.42994 0
M  V30 27037 C 2550.81 0.950596 -4.13822 0
M  V30 27038 O 2551.83 0.731362 -3.48611 0
M  V30 27039 O 2550.69 1.36685 -5.29131 0
M  V30 27040 H 2547.78 0.24107 -0.791084 0
M  V30 27041 H 2550.33 -0.267357 -1.67581 0
M  V30 27042 H 2549.1 -0.286199 -3.90252 0
M  V30 27043 H 2548.73 1.41847 -3.71437 0
M  V30 27044 N 2549.72 1.57526 0.0484352 0
M  V30 27045 C 2550.97 1.87555 0.742032 0
M  V30 27046 C 2551.28 0.820833 1.77543 0
M  V30 27047 O 2552.49 1.00972 2.52026 0
M  V30 27048 C 2550.95 3.32774 1.37075 0
M  V30 27049 C 2550.55 4.4643 0.374707 0
M  V30 27050 C 2552.3 3.71975 2.04535 0
M  V30 27051 C 2550.21 5.827 1.01067 0
M  V30 27052 H 2549.14 0.699726 0.28089 0
M  V30 27053 H 2551.79 1.835 -0.00415102 0
M  V30 27054 H 2550.17 3.31513 2.16599 0
M  V30 27055 H 2551.34 4.59126 -0.392412 0
M  V30 27056 H 2549.66 4.15935 -0.196726 0
M  V30 27057 H 2552.25 4.71093 2.52934 0
M  V30 27058 H 2552.6 3.02969 2.85509 0
M  V30 27059 H 2553.13 3.75327 1.31812 0
M  V30 27060 H 2549.87 6.55058 0.240763 0
M  V30 27061 H 2549.39 5.73761 1.74809 0
M  V30 27062 H 2551.07 6.28802 1.52372 0
M  V30 27063 N 2551.2 -0.32033 1.5431 0
M  V30 27064 C 2552.45 -1.05789 1.7267 0
M  V30 27065 C 2552.78 -1.87907 0.502117 0
M  V30 27066 O 2552.03 -1.88772 -0.516116 0
M  V30 27067 C 2552.33 -2.00823 2.95643 0
M  V30 27068 C 2552 -1.34835 4.30268 0
M  V30 27069 C 2550.66 -1.16569 4.66867 0
M  V30 27070 C 2553.01 -0.875005 5.13803 0
M  V30 27071 C 2550.34 -0.496233 5.84598 0
M  V30 27072 C 2552.69 -0.219351 6.3222 0
M  V30 27073 C 2551.35 -0.0245742 6.67495 0
M  V30 27074 H 2550.62 -0.38711 0.631844 0
M  V30 27075 H 2553.27 -0.334702 1.88552 0
M  V30 27076 H 2551.58 -2.79604 2.74461 0
M  V30 27077 H 2553.27 -2.57927 3.07042 0
M  V30 27078 H 2549.86 -1.50054 4.01474 0
M  V30 27079 H 2554.05 -1.0039 4.86041 0
M  V30 27080 H 2549.3 -0.334156 6.10486 0
M  V30 27081 H 2553.48 0.155413 6.96227 0
M  V30 27082 H 2551.1 0.496198 7.58579 0
M  V30 27083 N 2552.68 -1.46438 -0.582558 0
M  V30 27084 C 2554.09 -1.45918 -1.16468 0
M  V30 27085 C 2554.44 -0.200111 -1.95177 0
M  V30 27086 O 2553.57 0.696783 -2.04875 0
M  V30 27087 C 2554.16 -2.64371 -2.11881 0
M  V30 27088 C 2552.72 -2.66892 -2.65416 0
M  V30 27089 C 2551.87 -2.38605 -1.4129 0
M  V30 27090 H 2554.82 -1.54315 -0.370487 0
M  V30 27091 H 2554.84 -2.39898 -2.95346 0
M  V30 27092 H 2554.35 -3.55993 -1.54567 0
M  V30 27093 H 2552.45 -1.79343 -3.26599 0
M  V30 27094 H 2552.56 -3.6686 -3.08141 0
M  V30 27095 H 2550.93 -1.88666 -1.71105 0
M  V30 27096 H 2551.71 -3.32404 -0.858067 0
M  V30 27097 N 2554.16 0.827204 -1.34146 0
M  V30 27098 C 2555.4 1.58004 -1.26012 0
M  V30 27099 C 2555.73 1.94249 0.170937 0
M  V30 27100 O 2555 1.61929 1.10253 0
M  V30 27101 H 2553.58 0.585873 -0.463424 0
M  V30 27102 H 2556.24 0.987922 -1.68006 0
M  V30 27103 H 2555.33 2.50478 -1.86191 0
M  V30 27104 N 2555.63 1.17805 1.04688 0
M  V30 27105 C 2556.86 0.994845 1.81982 0
M  V30 27106 C 2557.28 -0.45208 1.82587 0
M  V30 27107 O 2556.64 -1.32398 1.23857 0
M  V30 27108 C 2556.69 1.54664 3.25747 0
M  V30 27109 O 2555.79 0.763799 4.05265 0
M  V30 27110 H 2555.14 0.352867 0.562477 0
M  V30 27111 H 2557.67 1.56419 1.31887 0
M  V30 27112 H 2557.68 1.57109 3.76538 0
M  V30 27113 H 2556.35 2.59987 3.24622 0
M  V30 27114 H 2554.93 0.811172 3.6397 0
M  V30 27115 N 2557.11 -1.23497 0.979094 0
M  V30 27116 C 2558.06 -2.24913 0.517944 0
M  V30 27117 C 2559.03 -1.60097 -0.442496 0
M  V30 27118 O 2560.21 -1.87556 -0.350332 0
M  V30 27119 C 2557.35 -3.44657 -0.174753 0
M  V30 27120 C 2556.47 -4.24034 0.825795 0
M  V30 27121 C 2555.6 -5.3109 0.108039 0
M  V30 27122 C 2554.64 -6.02173 1.09789 0
M  V30 27123 N 2553.78 -7.00906 0.409374 0
M  V30 27124 H 2558.62 -2.63725 1.38756 0
M  V30 27125 H 2556.16 -1.29629 0.695326 0
M  V30 27126 H 2558.11 -4.12962 -0.59316 0
M  V30 27127 H 2556.74 -3.0665 -1.00825 0
M  V30 27128 H 2555.8 -3.55158 1.3626 0
M  V30 27129 H 2557.11 -4.7311 1.58013 0
M  V30 27130 H 2556.26 -6.05584 -0.367798 0
M  V30 27131 H 2555 -4.82951 -0.678909 0
M  V30 27132 H 2554.01 -5.26473 1.58449 0
M  V30 27133 H 2555.23 -6.52401 1.88548 0
M  V30 27134 H 2553.18 -6.5502 -0.35839 0
M  V30 27135 H 2553.09 -7.47919 1.10239 0
M  V30 27136 H 2554.36 -7.79488 -0.0441187 0
M  V30 27137 N 2558.59 -0.750586 -1.38578 0
M  V30 27138 C 2559.5 -0.122866 -2.34278 0
M  V30 27139 C 2560.52 0.704103 -1.59118 0
M  V30 27140 O 2561.69 0.628954 -1.91327 0
M  V30 27141 C 2558.76 0.762027 -3.38222 0
M  V30 27142 C 2557.82 -0.0789714 -4.29227 0
M  V30 27143 C 2557.05 0.763781 -5.28206 0
M  V30 27144 O 2557.28 2.00192 -5.34116 0
M  V30 27145 O 2556.21 0.184174 -6.01618 0
M  V30 27146 H 2560.04 -0.913139 -2.89647 0
M  V30 27147 H 2557.62 -0.511442 -1.40373 0
M  V30 27148 H 2559.5 1.26786 -4.01875 0
M  V30 27149 H 2558.18 1.53085 -2.85214 0
M  V30 27150 H 2557.08 -0.630686 -3.68745 0
M  V30 27151 H 2558.42 -0.810375 -4.85483 0
M  V30 27152 N 2560.07 1.49477 -0.499425 0
M  V30 27153 C 2561.48 1.8663 -0.0512479 0
M  V30 27154 C 2561.83 1.41189 1.36236 0
M  V30 27155 O 2560.96 0.789087 2.015 0
M  V30 27156 C 2561.55 3.3869 -0.0862246 0
M  V30 27157 C 2560.11 3.75149 0.306604 0
M  V30 27158 C 2559.26 2.73467 -0.459445 0
M  V30 27159 H 2562.21 1.41817 -0.712289 0
M  V30 27160 H 2562.23 3.73828 0.709441 0
M  V30 27161 H 2561.74 3.71733 -1.11518 0
M  V30 27162 H 2559.84 3.47715 1.33885 0
M  V30 27163 H 2559.96 4.79099 -0.0117511 0
M  V30 27164 H 2558.32 2.54539 0.0905198 0
M  V30 27165 H 2559.1 3.09354 -1.48845 0
M  V30 27166 N 2561.55 0.233191 1.55865 0
M  V30 27167 C 2562.51 -0.658676 2.19532 0
M  V30 27168 C 2563.51 -1.11301 1.16055 0
M  V30 27169 O 2564.7 -1.01993 1.4122 0
M  V30 27170 C 2561.83 -1.90368 2.82794 0
M  V30 27171 H 2563.03 -0.103418 2.99722 0
M  V30 27172 H 2560.58 -0.016397 1.56291 0
M  V30 27173 H 2561.31 -2.50052 2.06505 0
M  V30 27174 H 2561.1 -1.58626 3.58581 0
M  V30 27175 H 2562.59 -2.53885 3.3156 0
M  V30 27176 N 2563.03 -1.57549 -0.0400806 0
M  V30 27177 C 2564.27 -1.89044 -0.734178 0
M  V30 27178 C 2564.6 -0.829566 -1.7559 0
M  V30 27179 O 2563.88 0.156672 -1.93868 0
M  V30 27180 C 2564.16 -3.3119 -1.41368 0
M  V30 27181 C 2564.02 -4.47962 -0.406221 0
M  V30 27182 C 2565.33 -3.72072 -2.35054 0
M  V30 27183 H 2562.45 -0.687542 -0.265435 0
M  V30 27184 H 2565.1 -1.9 0.00297427 0
M  V30 27185 H 2563.25 -3.30506 -2.042 0
M  V30 27186 H 2564.92 -4.60778 0.219336 0
M  V30 27187 H 2563.16 -4.32924 0.275561 0
M  V30 27188 H 2563.83 -5.44281 -0.919927 0
M  V30 27189 H 2566.31 -3.74052 -1.82275 0
M  V30 27190 H 2565.18 -4.7236 -2.79585 0
M  V30 27191 H 2565.44 -3.03726 -3.21252 0
M  V30 27192 N 2564.5 0.312142 -1.54478 0
M  V30 27193 C 2565.43 1.38954 -1.87654 0
M  V30 27194 C 2566.41 1.5343 -0.734385 0
M  V30 27195 O 2567.6 1.67122 -0.989139 0
M  V30 27196 C 2564.73 2.75549 -2.11401 0
M  V30 27197 C 2563.68 2.75849 -3.27248 0
M  V30 27198 C 2563.01 4.15628 -3.36389 0
M  V30 27199 C 2564.31 2.38579 -4.64626 0
M  V30 27200 H 2566 1.11437 -2.77889 0
M  V30 27201 H 2563.55 0.534631 -1.33707 0
M  V30 27202 H 2565.5 3.50996 -2.33195 0
M  V30 27203 H 2564.23 3.04567 -1.17926 0
M  V30 27204 H 2562.89 2.02857 -3.0536 0
M  V30 27205 H 2562.53 4.41805 -2.40452 0
M  V30 27206 H 2562.23 4.16732 -4.14256 0
M  V30 27207 H 2563.76 4.92871 -3.60431 0
M  V30 27208 H 2565.17 3.03741 -4.86225 0
M  V30 27209 H 2563.57 2.50916 -5.45125 0
M  V30 27210 H 2564.64 1.33715 -4.66099 0
M  V30 27211 N 2565.98 1.46745 0.574784 0
M  V30 27212 C 2567.21 1.56049 1.35854 0
M  V30 27213 C 2567.62 0.204398 1.8769 0
M  V30 27214 O 2566.98 -0.799601 1.64051 0
M  V30 27215 C 2567.03 2.57168 2.54061 0
M  V30 27216 O 2566.75 3.8751 2.04371 0
M  V30 27217 C 2568.25 2.76489 3.4651 0
M  V30 27218 H 2565.47 0.527473 0.414744 0
M  V30 27219 H 2568.02 1.92219 0.698001 0
M  V30 27220 H 2566.17 2.2398 3.16088 0
M  V30 27221 H 2566.59 4.42615 2.81411 0
M  V30 27222 H 2568.06 3.51145 4.25912 0
M  V30 27223 H 2568.54 1.83678 3.98947 0
M  V30 27224 H 2569.14 3.10804 2.90312 0
M  V30 27225 N 2567.46 -0.820078 1.34583 0
M  V30 27226 C 2568.37 -1.96294 1.28474 0
M  V30 27227 C 2569.39 -1.72938 0.191932 0
M  V30 27228 O 2570.56 -1.96995 0.418914 0
M  V30 27229 C 2567.63 -3.30643 1.04287 0
M  V30 27230 C 2566.69 -3.66988 2.22752 0
M  V30 27231 C 2565.92 -4.94926 1.99709 0
M  V30 27232 O 2566.14 -5.62319 0.956755 0
M  V30 27233 O 2565.08 -5.29215 2.86732 0
M  V30 27234 H 2568.9 -2.04392 2.24628 0
M  V30 27235 H 2566.49 -0.955893 1.14817 0
M  V30 27236 H 2568.37 -4.11102 0.925914 0
M  V30 27237 H 2567.05 -3.23507 0.111754 0
M  V30 27238 H 2565.95 -2.86962 2.40008 0
M  V30 27239 H 2567.29 -3.78813 3.14263 0
M  V30 27240 N 2568.94 -1.18359 -1.04062 0
M  V30 27241 C 2569.88 -0.91064 -2.12075 0
M  V30 27242 C 2570.85 0.149971 -1.65422 0
M  V30 27243 O 2572.04 0.0103279 -1.90797 0
M  V30 27244 C 2569.18 -0.442532 -3.42251 0
M  V30 27245 C 2568.29 -1.56857 -4.02517 0
M  V30 27246 C 2567.43 -1.05318 -5.20655 0
M  V30 27247 C 2566.47 -2.1539 -5.72951 0
M  V30 27248 N 2565.6 -1.65245 -6.82377 0
M  V30 27249 H 2570.44 -1.83552 -2.34761 0
M  V30 27250 H 2567.98 -0.915299 -1.15155 0
M  V30 27251 H 2569.94 -0.152607 -4.16921 0
M  V30 27252 H 2568.57 0.445372 -3.19713 0
M  V30 27253 H 2567.62 -1.97397 -3.25175 0
M  V30 27254 H 2568.93 -2.39832 -4.37358 0
M  V30 27255 H 2568.09 -0.717782 -6.02439 0
M  V30 27256 H 2566.83 -0.193016 -4.87318 0
M  V30 27257 H 2565.83 -2.49775 -4.89788 0
M  V30 27258 H 2567.06 -3.01842 -6.08332 0
M  V30 27259 H 2565 -0.815178 -6.50915 0
M  V30 27260 H 2564.92 -2.41818 -7.16282 0
M  V30 27261 H 2566.19 -1.34633 -7.67785 0
M  V30 27262 N 2570.42 1.22976 -0.98563 0
M  V30 27263 C 2571.69 1.87 -0.573632 0
M  V30 27264 C 2572.07 1.88557 0.949179 0
M  V30 27265 O 2571.42 1.37089 1.82808 0
M  V30 27266 C 2571.63 3.28241 -1.1857 0
M  V30 27267 C 2572.98 4.04793 -1.2817 0
M  V30 27268 O 2574 3.3748 -1.13955 0
M  V30 27269 O 2572.86 5.25271 -1.50841 0
M  V30 27270 H 2569.96 0.803952 -0.193883 0
M  V30 27271 H 2572.5 1.30811 -1.08105 0
M  V30 27272 H 2571.27 3.21702 -2.22764 0
M  V30 27273 H 2570.9 3.92026 -0.663432 0
M  V30 27274 N 2571.89 0.757924 1.38178 0
M  V30 27275 C 2573.3 0.383166 1.82726 0
M  V30 27276 C 2573.66 -1.08881 1.63216 0
M  V30 27277 O 2572.78 -1.84203 1.1357 0
M  V30 27278 C 2573.38 0.688689 3.31727 0
M  V30 27279 C 2571.93 0.367157 3.74605 0
M  V30 27280 C 2571.08 0.939645 2.60895 0
M  V30 27281 H 2574.03 0.953721 1.26846 0
M  V30 27282 H 2574.05 -0.0315823 3.80487 0
M  V30 27283 H 2573.57 1.76007 3.45895 0
M  V30 27284 H 2571.67 -0.697468 3.66014 0
M  V30 27285 H 2571.78 0.865741 4.71213 0
M  V30 27286 H 2570.14 0.364745 2.52075 0
M  V30 27287 H 2570.93 2.01615 2.7786 0
M  V30 27288 N 2573.37 -1.4921 0.507345 0
M  V30 27289 C 2574.79 -1.58758 0.16371 0
M  V30 27290 C 2574.99 -1.5119 -1.33206 0
M  V30 27291 O 2574.04 -1.38915 -2.10853 0
M  V30 27292 C 2575.36 -2.91296 0.746146 0
M  V30 27293 C 2576.91 -3.04775 0.712826 0
M  V30 27294 C 2577.38 -4.3994 1.27344 0
M  V30 27295 N 2578.87 -4.46449 1.23441 0
M  V30 27296 C 2579.61 -5.49497 1.63831 0
M  V30 27297 N 2579.1 -6.59617 2.11843 0
M  V30 27298 N 2580.9 -5.40247 1.55208 0
M  V30 27299 H 2573.05 -1.52372 1.47974 0
M  V30 27300 H 2575.31 -0.722158 0.61416 0
M  V30 27301 H 2575.02 -3.02421 1.7954 0
M  V30 27302 H 2574.89 -3.76614 0.210203 0
M  V30 27303 H 2577.28 -2.93276 -0.327604 0
M  V30 27304 H 2577.36 -2.21124 1.28599 0
M  V30 27305 H 2577 -4.52192 2.31268 0
M  V30 27306 H 2576.93 -5.22241 0.676157 0
M  V30 27307 H 2579.42 -3.67447 0.882692 0
M  V30 27308 H 2579.74 -7.34354 2.40716 0
M  V30 27309 H 2578.08 -6.60641 2.15822 0
M  V30 27310 H 2581.27 -4.5311 1.17513 0
M  V30 27311 H 2581.44 -6.20429 1.87008 0
M  V30 27312 N 2574.85 -0.241454 -1.55739 0
M  V30 27313 C 2575.78 0.654682 -2.24134 0
M  V30 27314 C 2576.76 1.18558 -1.21976 0
M  V30 27315 O 2577.95 1.22592 -1.50615 0
M  V30 27316 C 2575.08 1.85418 -2.93662 0
M  V30 27317 C 2574.03 1.45629 -4.02463 0
M  V30 27318 C 2573.36 2.73618 -4.59388 0
M  V30 27319 C 2574.66 0.631415 -5.18469 0
M  V30 27320 H 2576.35 0.0843827 -2.99281 0
M  V30 27321 H 2573.9 0.0391454 -1.43947 0
M  V30 27322 H 2575.85 2.4867 -3.40208 0
M  V30 27323 H 2574.57 2.44977 -2.15995 0
M  V30 27324 H 2573.23 0.84714 -3.56678 0
M  V30 27325 H 2572.88 3.31363 -3.78428 0
M  V30 27326 H 2572.58 2.47721 -5.3283 0
M  V30 27327 H 2574.1 3.37777 -5.08664 0
M  V30 27328 H 2575.52 1.1681 -5.61274 0
M  V30 27329 H 2573.92 0.468726 -5.98267 0
M  V30 27330 H 2574.99 -0.357591 -4.8358 0
M  V30 27331 N 2576.33 1.57568 0.0317248 0
M  V30 27332 C 2577.28 2.06384 1.03317 0
M  V30 27333 C 2578.25 0.952438 1.3608 0
M  V30 27334 O 2579.43 1.22283 1.46463 0
M  V30 27335 C 2576.57 2.54582 2.32985 0
M  V30 27336 C 2575.68 3.79502 2.06403 0
M  V30 27337 C 2574.82 4.16323 3.29922 0
M  V30 27338 C 2573.86 5.34168 2.98883 0
M  V30 27339 N 2572.99 5.66433 4.14847 0
M  V30 27340 H 2577.83 2.91691 0.609931 0
M  V30 27341 H 2575.37 1.44222 0.289548 0
M  V30 27342 H 2577.33 2.80593 3.08745 0
M  V30 27343 H 2575.96 1.72195 2.73036 0
M  V30 27344 H 2575.01 3.60592 1.21152 0
M  V30 27345 H 2576.32 4.65381 1.79504 0
M  V30 27346 H 2575.48 4.43447 4.14052 0
M  V30 27347 H 2574.22 3.2909 3.59932 0
M  V30 27348 H 2573.22 5.06799 2.13156 0
M  V30 27349 H 2574.45 6.23052 2.70154 0
M  V30 27350 H 2572.39 4.82159 4.44813 0
M  V30 27351 H 2572.31 6.46816 3.91362 0
M  V30 27352 H 2573.58 5.98133 4.99857 0
M  V30 27353 N 2577.81 -0.303946 1.54641 0
M  V30 27354 C 2579.05 -1.04106 1.7404 0
M  V30 27355 C 2579.39 -1.87023 0.523084 0
M  V30 27356 O 2578.66 -1.88488 -0.479841 0
M  V30 27357 C 2578.94 -1.9495 3.02765 0
M  V30 27358 C 2578.8 -1.15233 4.34789 0
M  V30 27359 C 2580.12 -2.94169 3.27342 0
M  V30 27360 H 2577.23 -0.377068 0.633237 0
M  V30 27361 H 2579.88 -0.315968 1.87354 0
M  V30 27362 H 2578.03 -2.56776 2.91544 0
M  V30 27363 H 2579.7 -0.557155 4.57923 0
M  V30 27364 H 2577.94 -0.454977 4.31407 0
M  V30 27365 H 2578.61 -1.82041 5.21119 0
M  V30 27366 H 2581.09 -2.42471 3.38152 0
M  V30 27367 H 2579.96 -3.549 4.18733 0
M  V30 27368 H 2580.23 -3.67673 2.45497 0
M  V30 27369 N 2579.28 -1.47047 -0.566994 0
M  V30 27370 C 2580.56 -1.43648 -1.32758 0
M  V30 27371 C 2580.94 -0.128223 -2.1071 0
M  V30 27372 O 2580.29 0.890289 -2.10443 0
M  V30 27373 C 2580.5 -2.67599 -2.24035 0
M  V30 27374 C 2581.85 -3.14406 -2.85367 0
M  V30 27375 O 2582.87 -2.68258 -2.34342 0
M  V30 27376 O 2581.73 -3.94607 -3.78084 0
M  V30 27377 H 2578.82 -0.571998 -0.597283 0
M  V30 27378 H 2581.37 -1.59235 -0.586707 0
M  V30 27379 H 2580.14 -3.54359 -1.65968 0
M  V30 27380 H 2579.77 -2.54549 -3.05435 0
M  V30 27381 N 2580.76 0.812929 -1.35016 0
M  V30 27382 C 2582.01 1.56969 -1.27933 0
M  V30 27383 C 2582.34 1.93936 0.148 0
M  V30 27384 O 2581.59 1.61056 1.11172 0
M  V30 27385 C 2581.89 2.87343 -2.12529 0
M  V30 27386 C 2581.56 2.69623 -3.61406 0
M  V30 27387 C 2580.22 2.64498 -4.01988 0
M  V30 27388 C 2582.57 2.52599 -4.55898 0
M  V30 27389 C 2579.9 2.40284 -5.35239 0
M  V30 27390 C 2582.25 2.29915 -5.8934 0
M  V30 27391 C 2580.92 2.23208 -6.29074 0
M  V30 27392 H 2580.19 0.574391 -0.468141 0
M  V30 27393 H 2582.83 0.939806 -1.66853 0
M  V30 27394 H 2581.14 3.54676 -1.6647 0
M  V30 27395 H 2582.83 3.45002 -2.04389 0
M  V30 27396 H 2579.42 2.74457 -3.29198 0
M  V30 27397 H 2583.61 2.55575 -4.25435 0
M  V30 27398 H 2578.86 2.33556 -5.65032 0
M  V30 27399 H 2583.04 2.15731 -6.62143 0
M  V30 27400 H 2580.67 2.04207 -7.32259 0
M  V30 27401 N 2582.24 1.18909 1.03433 0
M  V30 27402 C 2583.52 0.897841 1.73776 0
M  V30 27403 C 2583.9 -0.597796 2.02459 0
M  V30 27404 O 2583.25 -1.55438 1.67485 0
M  V30 27405 C 2583.46 1.75192 3.01842 0
M  V30 27406 C 2584.8 1.98286 3.75457 0
M  V30 27407 O 2585.83 1.72298 3.11756 0
M  V30 27408 O 2584.69 2.42074 4.89962 0
M  V30 27409 H 2581.78 0.334112 0.756504 0
M  V30 27410 H 2584.33 1.29695 1.09441 0
M  V30 27411 H 2583.1 2.7655 2.76831 0
M  V30 27412 H 2582.72 1.35174 3.73917 0
M  V30 27413 N 2583.72 -1.22452 0.992137 0
M  V30 27414 C 2584.94 -1.95738 0.685679 0
M  V30 27415 C 2585.37 -1.72805 -0.74297 0
M  V30 27416 O 2584.73 -1.00679 -1.50776 0
M  V30 27417 C 2584.77 -3.46562 0.996354 0
M  V30 27418 O 2583.88 -4.12291 0.0946236 0
M  V30 27419 H 2583.22 -0.612371 0.256705 0
M  V30 27420 H 2585.75 -1.55567 1.32891 0
M  V30 27421 H 2585.76 -3.97074 0.93788 0
M  V30 27422 H 2584.43 -3.62579 2.03739 0
M  V30 27423 H 2583.01 -3.72317 0.208516 0
M  V30 27424 N 2585.2 -0.765242 -1.37774 0
M  V30 27425 C 2586.16 -0.153456 -2.28686 0
M  V30 27426 C 2587.16 0.635055 -1.47728 0
M  V30 27427 O 2588.35 0.459602 -1.68028 0
M  V30 27428 C 2585.48 0.790436 -3.3161 0
M  V30 27429 H 2586.67 -0.954773 -2.84296 0
M  V30 27430 H 2584.23 -0.533016 -1.46931 0
M  V30 27431 H 2584.96 1.617 -2.81111 0
M  V30 27432 H 2584.75 0.227279 -3.91441 0
M  V30 27433 H 2586.24 1.21412 -3.99561 0
M  V30 27434 N 2586.67 1.48939 -0.515251 0
M  V30 27435 C 2587.6 2.32215 0.244587 0
M  V30 27436 C 2588.59 1.41159 0.949111 0
M  V30 27437 O 2589.77 1.70058 0.937753 0
M  V30 27438 C 2586.9 3.22015 1.30091 0
M  V30 27439 C 2585.85 4.21978 0.715412 0
M  V30 27440 C 2585.18 5.00811 1.8733 0
M  V30 27441 C 2586.48 5.2142 -0.303073 0
M  V30 27442 H 2588.17 2.95991 -0.450553 0
M  V30 27443 H 2585.72 1.42338 -0.218123 0
M  V30 27444 H 2587.67 3.79092 1.84031 0
M  V30 27445 H 2586.4 2.56211 2.02543 0
M  V30 27446 H 2585.06 3.66067 0.197651 0
M  V30 27447 H 2584.7 4.31443 2.58585 0
M  V30 27448 H 2584.4 5.68459 1.48754 0
M  V30 27449 H 2585.93 5.60736 2.41677 0
M  V30 27450 H 2587.34 5.73107 0.148701 0
M  V30 27451 H 2585.74 5.97038 -0.605425 0
M  V30 27452 H 2586.81 4.69456 -1.21403 0
M  V30 27453 N 2588.15 0.249709 1.55609 0
M  V30 27454 C 2589.4 -0.374252 1.99012 0
M  V30 27455 C 2589.73 -1.57742 1.13788 0
M  V30 27456 O 2588.98 -1.94782 0.18936 0
M  V30 27457 C 2589.28 -0.824826 3.47752 0
M  V30 27458 C 2588.95 0.270898 4.50085 0
M  V30 27459 C 2587.61 0.57183 4.7779 0
M  V30 27460 C 2589.96 1.0105 5.1131 0
M  V30 27461 C 2587.29 1.61639 5.63994 0
M  V30 27462 C 2589.64 2.0446 5.98647 0
M  V30 27463 C 2588.31 2.35215 6.24684 0
M  V30 27464 H 2587.58 -0.136948 0.728235 0
M  V30 27465 H 2590.22 0.35812 1.88122 0
M  V30 27466 H 2588.53 -1.63645 3.55988 0
M  V30 27467 H 2590.23 -1.31793 3.78724 0
M  V30 27468 H 2586.82 0.0262114 4.28592 0
M  V30 27469 H 2591 0.791263 4.89952 0
M  V30 27470 H 2586.26 1.85998 5.82421 0
M  V30 27471 H 2590.43 2.62259 6.4513 0
M  V30 27472 H 2588.06 3.16294 6.91276 0
M  V30 27473 N 2589.63 -1.57583 -0.0233682 0
M  V30 27474 C 2590.86 -1.9419 -0.728341 0
M  V30 27475 C 2591.28 -0.850148 -1.67792 0
M  V30 27476 O 2590.64 0.193678 -1.80263 0
M  V30 27477 C 2590.69 -3.2987 -1.45663 0
M  V30 27478 O 2589.79 -3.22523 -2.57008 0
M  V30 27479 H 2589.13 -0.634573 -0.195482 0
M  V30 27480 H 2591.66 -2.04587 0.0228573 0
M  V30 27481 H 2591.67 -3.64893 -1.82529 0
M  V30 27482 H 2590.35 -4.08893 -0.760242 0
M  V30 27483 H 2588.92 -2.9914 -2.22643 0
M  V30 27484 N 2591.11 0.29574 -1.548 0
M  V30 27485 C 2592.06 1.36491 -1.86115 0
M  V30 27486 C 2593.03 1.50136 -0.710527 0
M  V30 27487 O 2594.21 1.6491 -0.959655 0
M  V30 27488 C 2591.35 2.72409 -2.11866 0
M  V30 27489 C 2590.46 2.67171 -3.39475 0
M  V30 27490 C 2589.6 3.95119 -3.55042 0
M  V30 27491 C 2588.64 3.84299 -4.76425 0
M  V30 27492 N 2587.78 5.04033 -4.88769 0
M  V30 27493 H 2592.62 1.09086 -2.77316 0
M  V30 27494 H 2590.15 0.527506 -1.37316 0
M  V30 27495 H 2592.11 3.51461 -2.24792 0
M  V30 27496 H 2590.74 2.98064 -1.23925 0
M  V30 27497 H 2589.79 1.79956 -3.35142 0
M  V30 27498 H 2591.1 2.55069 -4.28651 0
M  V30 27499 H 2590.26 4.82608 -3.67661 0
M  V30 27500 H 2589 4.10061 -2.64009 0
M  V30 27501 H 2588 2.95194 -4.63833 0
M  V30 27502 H 2589.23 3.70896 -5.6887 0
M  V30 27503 H 2587.17 5.19429 -4.00661 0
M  V30 27504 H 2587.09 4.94374 -5.71954 0
M  V30 27505 H 2588.36 5.93158 -5.0575 0
M  V30 27506 N 2592.59 1.47346 0.559187 0
M  V30 27507 C 2593.82 1.57253 1.33996 0
M  V30 27508 C 2594.23 0.221011 1.87905 0
M  V30 27509 O 2593.57 -0.795588 1.65578 0
M  V30 27510 C 2593.63 2.53615 2.54793 0
M  V30 27511 C 2593.29 3.99353 2.22185 0
M  V30 27512 C 2594.29 4.87894 1.79598 0
M  V30 27513 C 2591.98 4.44673 2.33605 0
M  V30 27514 C 2593.97 6.19774 1.48858 0
M  V30 27515 C 2591.66 5.76581 2.02477 0
M  V30 27516 C 2592.66 6.63954 1.60171 0
M  V30 27517 O 2592.34 7.93411 1.29437 0
M  V30 27518 H 2592.08 0.533738 0.414849 0
M  V30 27519 H 2594.63 1.93661 0.684431 0
M  V30 27520 H 2592.86 2.1227 3.23231 0
M  V30 27521 H 2594.55 2.53671 3.16868 0
M  V30 27522 H 2595.31 4.54129 1.7027 0
M  V30 27523 H 2591.19 3.76874 2.65494 0
M  V30 27524 H 2594.74 6.87928 1.15763 0
M  V30 27525 H 2590.63 6.09889 2.11437 0
M  V30 27526 H 2591.4 8.05897 1.43084 0
M  V30 27527 N 2594.07 -0.805758 1.35445 0
M  V30 27528 C 2595.01 -1.91763 1.28434 0
M  V30 27529 C 2595.98 -1.65365 0.156131 0
M  V30 27530 O 2597.17 -1.87747 0.339969 0
M  V30 27531 C 2594.31 -3.28318 1.06306 0
M  V30 27532 C 2593.42 -3.66898 2.28057 0
M  V30 27533 C 2592.56 -4.92487 1.99072 0
M  V30 27534 C 2591.59 -5.23697 3.16872 0
M  V30 27535 N 2590.73 -6.40466 2.87658 0
M  V30 27536 H 2595.57 -1.97092 2.23515 0
M  V30 27537 H 2593.11 -0.964034 1.11107 0
M  V30 27538 H 2595.07 -4.07041 0.915084 0
M  V30 27539 H 2593.7 -3.22456 0.148878 0
M  V30 27540 H 2592.75 -2.8343 2.53716 0
M  V30 27541 H 2594.06 -3.85921 3.16016 0
M  V30 27542 H 2593.21 -5.79037 1.8111 0
M  V30 27543 H 2591.95 -4.75501 1.08399 0
M  V30 27544 H 2590.96 -4.35637 3.35411 0
M  V30 27545 H 2592.18 -5.42613 4.08348 0
M  V30 27546 H 2590.13 -6.24903 1.99579 0
M  V30 27547 H 2590.05 -6.59744 3.69153 0
M  V30 27548 H 2591.31 -7.30042 2.73238 0
M  V30 27549 N 2595.54 -1.19456 -1.02801 0
M  V30 27550 C 2596.79 -0.995753 -1.75867 0
M  V30 27551 C 2597.11 0.47451 -1.89139 0
M  V30 27552 O 2596.38 1.34363 -1.4256 0
M  V30 27553 H 2594.96 -0.365446 -0.651504 0
M  V30 27554 H 2597.62 -1.50365 -1.24001 0
M  V30 27555 H 2596.72 -1.44452 -2.76659 0
M  V30 27556 N 2597.02 1.21924 -0.998617 0
M  V30 27557 C 2597.97 2.26084 -0.546681 0
M  V30 27558 C 2598.96 1.64474 0.405547 0
M  V30 27559 O 2600.17 1.77849 0.27744 0
M  V30 27560 H 2596.54 0.735125 -0.158416 0
M  V30 27561 H 2598.52 2.61548 -1.43649 0
M  V30 27562 C 2597.26 3.47502 0.117327 0
M  V30 27563 H 2596.59 3.95175 -0.606346 0
M  V30 27564 H 2598.03 4.22138 0.396918 0
M  V30 27565 C 2596.49 3.08472 1.35449 0
M  V30 27566 O 2597.02 3.18384 2.44938 0
M  V30 27567 N 2595.22 2.63199 1.23186 0
M  V30 27568 H 2594.77 2.55334 0.340961 0
M  V30 27569 H 2594.73 2.37453 2.06067 0
M  V30 27570 N 2598.5 0.772537 1.37367 0
M  V30 27571 C 2599.73 0.348623 2.03942 0
M  V30 27572 C 2600.14 -1.02944 1.58265 0
M  V30 27573 O 2599.5 -1.65726 0.764275 0
M  V30 27574 C 2599.55 0.383574 3.59459 0
M  V30 27575 O 2599.27 1.70728 4.03465 0
M  V30 27576 C 2600.77 -0.0518373 4.4327 0
M  V30 27577 H 2597.99 0.145978 0.654929 0
M  V30 27578 H 2600.54 1.04668 1.75684 0
M  V30 27579 H 2598.69 -0.26591 3.86486 0
M  V30 27580 H 2599.11 1.64645 4.97988 0
M  V30 27581 H 2600.58 0.0237703 5.51995 0
M  V30 27582 H 2601.06 -1.10231 4.25142 0
M  V30 27583 H 2601.66 0.569489 4.2147 0
M  V30 27584 N 2599.98 -1.48664 0.523142 0
M  V30 27585 C 2600.89 -2.33292 -0.247365 0
M  V30 27586 C 2601.9 -1.46054 -0.945743 0
M  V30 27587 O 2603.08 -1.79045 -0.922221 0
M  V30 27588 C 2600.14 -3.22015 -1.28481 0
M  V30 27589 C 2599.21 -4.25121 -0.597517 0
M  V30 27590 C 2598.44 -5.09604 -1.58554 0
M  V30 27591 O 2598.66 -4.95954 -2.81754 0
M  V30 27592 O 2597.6 -5.91223 -1.12869 0
M  V30 27593 H 2601.42 -3.00408 0.445922 0
M  V30 27594 H 2599.01 -1.46673 0.284154 0
M  V30 27595 H 2600.89 -3.76914 -1.88452 0
M  V30 27596 H 2599.56 -2.57567 -1.96063 0
M  V30 27597 H 2598.47 -3.74076 0.0425064 0
M  V30 27598 H 2599.8 -4.92187 0.0362382 0
M  V30 27599 N 2601.46 -0.257958 -1.55475 0
M  V30 27600 C 2602.7 0.365094 -2.01113 0
M  V30 27601 C 2603.06 1.54321 -1.14232 0
M  V30 27602 O 2604.26 2.23474 -1.49375 0
M  V30 27603 C 2602.53 0.754055 -3.49355 0
M  V30 27604 S 2604.09 1.36607 -4.16994 0
M  V30 27605 H 2600.91 0.114385 -0.701739 0
M  V30 27606 H 2603.51 -0.375781 -1.91854 0
M  V30 27607 H 2602.21 -0.112513 -4.10246 0
M  V30 27608 H 2601.75 1.52683 -3.62562 0
M  V30 27609 H 2603.76 2.65498 -4.19196 0
M  V30 27610 N 2602.93 1.57593 0.0150108 0
M  V30 27611 C 2604.16 1.94574 0.718033 0
M  V30 27612 C 2604.58 0.859035 1.67339 0
M  V30 27613 O 2603.94 -0.184116 1.80363 0
M  V30 27614 C 2603.99 3.30638 1.43912 0
M  V30 27615 O 2603.09 3.23881 2.55294 0
M  V30 27616 H 2602.44 0.635601 0.192114 0
M  V30 27617 H 2604.97 2.04572 -0.0337068 0
M  V30 27618 H 2604.98 3.65856 1.80591 0
M  V30 27619 H 2603.65 4.0929 0.738547 0
M  V30 27620 H 2602.23 3.00316 2.21053 0
M  V30 27621 N 2604.41 -0.287527 1.54955 0
M  V30 27622 C 2605.34 -1.35951 1.89841 0
M  V30 27623 C 2606.32 -1.52242 0.758702 0
M  V30 27624 O 2607.51 -1.65527 1.0156 0
M  V30 27625 C 2604.64 -2.72151 2.15758 0
M  V30 27626 C 2603.59 -2.70608 3.31595 0
M  V30 27627 C 2602.92 -4.10223 3.42959 0
M  V30 27628 C 2604.22 -2.31157 4.68363 0
M  V30 27629 H 2605.91 -1.07002 2.79627 0
M  V30 27630 H 2603.46 -0.513292 1.34541 0
M  V30 27631 H 2605.41 -3.47242 2.38749 0
M  V30 27632 H 2604.14 -3.02652 1.22757 0
M  V30 27633 H 2602.79 -1.97974 3.08548 0
M  V30 27634 H 2602.44 -4.37924 2.47451 0
M  V30 27635 H 2602.14 -4.10089 4.20833 0
M  V30 27636 H 2603.67 -4.87074 3.68227 0
M  V30 27637 H 2605.08 -2.95967 4.90995 0
M  V30 27638 H 2603.48 -2.42212 5.49048 0
M  V30 27639 H 2604.55 -1.26283 4.68167 0
M  V30 27640 N 2605.89 -1.47641 -0.551365 0
M  V30 27641 C 2606.84 -1.60981 -1.67893 0
M  V30 27642 C 2607.83 -0.476905 -1.62548 0
M  V30 27643 O 2609.04 -0.654907 -1.67663 0
M  V30 27644 H 2605.41 -0.506722 -0.555641 0
M  V30 27645 H 2607.38 -2.55723 -1.53779 0
M  V30 27646 C 2606.13 -1.64674 -3.06232 0
M  V30 27647 H 2605.46 -2.512 -3.11028 0
M  V30 27648 H 2606.9 -1.78056 -3.84801 0
M  V30 27649 C 2605.36 -0.381173 -3.34737 0
M  V30 27650 O 2605.89 0.515226 -3.98382 0
M  V30 27651 N 2604.09 -0.259405 -2.8944 0
M  V30 27652 H 2603.64 -0.989802 -2.37825 0
M  V30 27653 H 2603.6 0.58641 -3.08883 0
M  V30 27654 N 2607.37 0.798563 -1.3587 0
M  V30 27655 C 2608.28 1.94226 -1.31581 0
M  V30 27656 C 2609.29 1.72611 -0.219421 0
M  V30 27657 O 2610.47 1.96304 -0.450201 0
M  V30 27658 C 2607.54 3.28942 -1.09534 0
M  V30 27659 C 2606.6 3.63398 -2.28562 0
M  V30 27660 C 2605.83 4.91686 -2.07558 0
M  V30 27661 O 2606.05 5.60725 -1.04609 0
M  V30 27662 O 2604.99 5.24586 -2.95115 0
M  V30 27663 H 2608.81 2.00792 -2.27851 0
M  V30 27664 H 2606.4 0.937505 -1.16324 0
M  V30 27665 H 2608.28 4.09577 -0.991199 0
M  V30 27666 H 2606.95 3.23288 -0.163207 0
M  V30 27667 H 2605.86 2.83107 -2.44543 0
M  V30 27668 H 2607.19 3.73766 -3.2025 0
M  V30 27669 N 2608.85 1.19999 1.02166 0
M  V30 27670 C 2609.8 0.911958 2.08967 0
M  V30 27671 C 2610.78 -0.126182 1.60404 0
M  V30 27672 O 2611.97 0.0805016 1.76817 0
M  V30 27673 C 2609.1 0.460337 3.402 0
M  V30 27674 C 2608.19 1.53162 3.95477 0
M  V30 27675 N 2608.58 2.75282 4.24327 0
M  V30 27676 C 2606.88 1.3966 4.23569 0
M  V30 27677 C 2607.58 3.44347 4.68828 0
M  V30 27678 N 2606.55 2.71752 4.70799 0
M  V30 27679 H 2610.36 1.84001 2.29175 0
M  V30 27680 H 2607.87 1.09324 1.20092 0
M  V30 27681 H 2609.87 0.23541 4.16235 0
M  V30 27682 H 2608.53 -0.461143 3.21409 0
M  V30 27683 H 2609.54 3.1198 4.13387 0
M  V30 27684 H 2606.21 0.53914 4.14004 0
M  V30 27685 H 2607.6 4.48819 5.00011 0
M  V30 27686 N 2610.32 -1.21392 1.00507 0
M  V30 27687 C 2611.57 -1.89777 0.683193 0
M  V30 27688 C 2611.89 -1.78961 -0.789439 0
M  V30 27689 O 2613.09 -2.42374 -1.2234 0
M  V30 27690 C 2611.55 -3.40299 1.17152 0
M  V30 27691 C 2611.16 -3.59726 2.67023 0
M  V30 27692 C 2612.9 -4.1431 0.924534 0
M  V30 27693 C 2610.81 -5.04012 3.09396 0
M  V30 27694 H 2609.74 -0.710698 0.251842 0
M  V30 27695 H 2612.39 -1.37404 1.21624 0
M  V30 27696 H 2610.77 -3.91927 0.56652 0
M  V30 27697 H 2611.94 -3.18537 3.32973 0
M  V30 27698 H 2610.26 -2.99067 2.89737 0
M  V30 27699 H 2612.86 -5.20674 1.21667 0
M  V30 27700 H 2613.2 -4.16067 -0.139213 0
M  V30 27701 H 2613.73 -3.68747 1.49233 0
M  V30 27702 H 2610.47 -5.07402 4.14998 0
M  V30 27703 H 2609.99 -5.46056 2.48158 0
M  V30 27704 H 2611.67 -5.72519 3.01381 0
M  V30 27705 N 2611.8 -0.779811 -1.36955 0
M  V30 27706 C 2612.73 -0.12968 -2.28833 0
M  V30 27707 C 2613.75 0.655485 -1.49021 0
M  V30 27708 O 2614.94 0.492249 -1.71578 0
M  V30 27709 C 2612.04 0.839734 -3.28332 0
M  V30 27710 C 2611.21 0.106673 -4.3727 0
M  V30 27711 C 2610.27 0.990626 -5.16791 0
M  V30 27712 O 2609.29 0.451416 -5.67407 0
M  V30 27713 N 2610.5 2.31601 -5.32298 0
M  V30 27714 H 2613.26 -0.918853 -2.85267 0
M  V30 27715 H 2610.82 -0.632868 -1.49018 0
M  V30 27716 H 2612.81 1.4347 -3.78416 0
M  V30 27717 H 2611.38 1.52983 -2.72607 0
M  V30 27718 H 2610.6 -0.669285 -3.88477 0
M  V30 27719 H 2611.89 -0.399553 -5.07229 0
M  V30 27720 H 2611.29 2.77834 -4.92772 0
M  V30 27721 H 2609.85 2.86085 -5.85661 0
M  V30 27722 N 2613.28 1.48384 -0.531019 0
M  V30 27723 C 2614.53 2.028 0.00270571 0
M  V30 27724 C 2614.86 1.40718 1.33836 0
M  V30 27725 O 2614.13 0.55331 1.86464 0
M  V30 27726 C 2614.42 3.59888 0.123613 0
M  V30 27727 C 2614.27 4.32448 -1.23728 0
M  V30 27728 C 2615.59 4.31816 0.849892 0
M  V30 27729 H 2612.71 0.737 -0.000490713 0
M  V30 27730 H 2615.35 1.77096 -0.688249 0
M  V30 27731 H 2613.5 3.81918 0.71209 0
M  V30 27732 H 2615.17 4.21833 -1.86694 0
M  V30 27733 H 2613.42 3.93826 -1.81889 0
M  V30 27734 H 2614.09 5.40813 -1.10567 0
M  V30 27735 H 2616.56 4.14621 0.350499 0
M  V30 27736 H 2615.44 5.41415 0.90339 0
M  V30 27737 H 2615.7 3.99171 1.9004 0
M  V30 27738 N 2614.76 0.2662 1.55336 0
M  V30 27739 C 2615.72 -0.611962 2.20879 0
M  V30 27740 C 2616.72 -1.08814 1.1839 0
M  V30 27741 O 2617.91 -0.989749 1.43351 0
M  V30 27742 C 2615.04 -1.84327 2.86769 0
M  V30 27743 H 2616.24 -0.0398191 2.99874 0
M  V30 27744 H 2613.79 0.0167584 1.56291 0
M  V30 27745 H 2614.52 -2.45615 2.11763 0
M  V30 27746 H 2614.31 -1.50984 3.61865 0
M  V30 27747 H 2615.8 -2.46795 3.36871 0
M  V30 27748 N 2616.24 -1.57599 -0.0066531 0
M  V30 27749 C 2617.48 -1.90559 -0.693914 0
M  V30 27750 C 2617.82 -0.866625 -1.73791 0
M  V30 27751 O 2617.09 0.115514 -1.94157 0
M  V30 27752 C 2617.37 -3.34115 -1.34311 0
M  V30 27753 C 2617.23 -4.48723 -0.31111 0
M  V30 27754 C 2618.55 -3.76974 -2.27109 0
M  V30 27755 H 2615.66 -0.693017 -0.250791 0
M  V30 27756 H 2618.31 -1.89951 0.0432754 0
M  V30 27757 H 2616.46 -3.34763 -1.97144 0
M  V30 27758 H 2618.13 -4.60209 0.317025 0
M  V30 27759 H 2616.37 -4.32242 0.367329 0
M  V30 27760 H 2617.04 -5.46109 -0.80427 0
M  V30 27761 H 2619.52 -3.77834 -1.743 0
M  V30 27762 H 2618.39 -4.78184 -2.69502 0
M  V30 27763 H 2618.66 -3.10472 -3.14738 0
M  V30 27764 N 2617.72 0.279305 -1.55105 0
M  V30 27765 C 2618.68 1.32831 -1.86785 0
M  V30 27766 C 2619.68 1.42656 -0.742015 0
M  V30 27767 O 2620.87 1.41916 -1.01022 0
M  V30 27768 C 2618 2.71048 -2.0675 0
M  V30 27769 H 2619.19 1.05974 -2.80552 0
M  V30 27770 H 2616.75 0.517061 -1.475 0
M  V30 27771 H 2617.48 3.03095 -1.15344 0
M  V30 27772 H 2617.27 2.65303 -2.88715 0
M  V30 27773 H 2618.76 3.46854 -2.32555 0
M  V30 27774 N 2619.19 1.47931 0.543528 0
M  V30 27775 C 2620.14 1.57847 1.64525 0
M  V30 27776 C 2621.13 0.436435 1.54868 0
M  V30 27777 O 2622.32 0.68713 1.63118 0
M  V30 27778 C 2619.45 1.60865 3.03278 0
M  V30 27779 C 2618.53 2.80501 3.18088 0
M  V30 27780 N 2618.93 4.05062 3.02916 0
M  V30 27781 C 2617.22 2.77549 3.49117 0
M  V30 27782 C 2617.92 4.85256 3.20782 0
M  V30 27783 N 2616.9 4.17824 3.47741 0
M  V30 27784 H 2620.7 2.51913 1.51384 0
M  V30 27785 H 2618.22 1.44115 0.748645 0
M  V30 27786 H 2620.21 1.66061 3.824 0
M  V30 27787 H 2618.87 0.679052 3.1752 0
M  V30 27788 H 2619.88 4.3571 2.79959 0
M  V30 27789 H 2616.56 1.93787 3.69801 0
M  V30 27790 H 2617.95 5.94065 3.13904 0
M  V30 27791 N 2620.67 -0.791347 1.36292 0
M  V30 27792 C 2621.9 -1.57784 1.33371 0
M  V30 27793 C 2622.31 -1.88998 -0.0874856 0
M  V30 27794 O 2621.65 -1.50437 -1.05425 0
M  V30 27795 C 2621.71 -2.92643 2.08807 0
M  V30 27796 C 2621.38 -2.84167 3.57908 0
M  V30 27797 C 2622.38 -2.56545 4.52195 0
M  V30 27798 C 2620.06 -3.02805 4.00767 0
M  V30 27799 C 2622.05 -2.47659 5.87319 0
M  V30 27800 C 2619.74 -2.93541 5.35982 0
M  V30 27801 C 2620.74 -2.66006 6.29071 0
M  V30 27802 O 2620.43 -2.56732 7.61803 0
M  V30 27803 H 2620.16 -0.496119 0.459175 0
M  V30 27804 H 2622.71 -0.990238 1.79954 0
M  V30 27805 H 2620.94 -3.53446 1.56884 0
M  V30 27806 H 2622.63 -3.53901 1.98769 0
M  V30 27807 H 2623.4 -2.4185 4.20397 0
M  V30 27808 H 2619.28 -3.23244 3.28685 0
M  V30 27809 H 2622.82 -2.26087 6.59947 0
M  V30 27810 H 2618.72 -3.07798 5.67389 0
M  V30 27811 H 2619.49 -2.72228 7.71903 0
M  V30 27812 N 2622.15 -1.2054 -1.01528 0
M  V30 27813 C 2623.37 -1.04274 -1.79281 0
M  V30 27814 C 2623.8 0.403511 -1.83721 0
M  V30 27815 O 2623.16 1.29067 -1.27324 0
M  V30 27816 C 2623.21 -1.63247 -3.21532 0
M  V30 27817 O 2622.31 -0.870979 -4.03098 0
M  V30 27818 H 2621.65 -0.367656 -0.552924 0
M  V30 27819 H 2624.18 -1.59861 -1.27694 0
M  V30 27820 H 2624.19 -1.67037 -3.7224 0
M  V30 27821 H 2622.87 -2.68502 -3.17615 0
M  V30 27822 H 2621.44 -0.907387 -3.61692 0
M  V30 27823 N 2623.63 1.20858 -1.01149 0
M  V30 27824 C 2624.59 2.21681 -0.582263 0
M  V30 27825 C 2625.59 1.57058 0.344859 0
M  V30 27826 O 2626.78 1.73682 0.134251 0
M  V30 27827 C 2623.91 3.40568 0.150437 0
M  V30 27828 H 2625.11 2.6117 -1.47413 0
M  V30 27829 H 2622.66 1.34232 -0.800719 0
M  V30 27830 H 2623.39 3.06576 1.05745 0
M  V30 27831 H 2623.18 3.88696 -0.515512 0
M  V30 27832 H 2624.67 4.15294 0.438271 0
M  V30 27833 N 2625.11 0.787064 1.3654 0
M  V30 27834 C 2626.04 0.141813 2.28761 0
M  V30 27835 C 2627.05 -0.647573 1.49366 0
M  V30 27836 O 2628.24 -0.483143 1.71837 0
M  V30 27837 C 2625.34 -0.82231 3.28772 0
M  V30 27838 C 2624.51 -0.0834825 4.3732 0
M  V30 27839 C 2623.57 -0.963205 5.17309 0
M  V30 27840 O 2622.6 -0.421319 5.67639 0
M  V30 27841 N 2623.8 -2.28774 5.33519 0
M  V30 27842 H 2626.56 0.933969 2.84776 0
M  V30 27843 H 2624.13 0.640761 1.4868 0
M  V30 27844 H 2626.12 -1.41462 3.79171 0
M  V30 27845 H 2624.69 -1.51536 2.73415 0
M  V30 27846 H 2623.91 0.689877 3.88116 0
M  V30 27847 H 2625.2 0.426447 5.0701 0
M  V30 27848 H 2624.59 -2.75217 4.94239 0
M  V30 27849 H 2623.15 -2.82975 5.8717 0
M  V30 27850 N 2626.58 -1.48101 0.53888 0
M  V30 27851 C 2627.51 -2.32575 -0.207613 0
M  V30 27852 C 2628.49 -1.42651 -0.926534 0
M  V30 27853 O 2629.68 -1.71529 -0.91058 0
M  V30 27854 C 2626.81 -3.24044 -1.24951 0
M  V30 27855 C 2625.76 -4.23063 -0.648189 0
M  V30 27856 C 2625.09 -5.03728 -1.79339 0
M  V30 27857 C 2626.39 -5.20872 0.385988 0
M  V30 27858 H 2628.08 -2.95236 0.497586 0
M  V30 27859 H 2625.63 -1.41973 0.24074 0
M  V30 27860 H 2627.58 -3.81972 -1.77976 0
M  V30 27861 H 2626.31 -2.59401 -1.98441 0
M  V30 27862 H 2624.97 -3.66335 -0.139388 0
M  V30 27863 H 2624.61 -4.35502 -2.51688 0
M  V30 27864 H 2624.31 -5.70754 -1.39692 0
M  V30 27865 H 2625.84 -5.6451 -2.32725 0
M  V30 27866 H 2627.25 -5.73271 -0.0575062 0
M  V30 27867 H 2625.65 -5.95999 0.700332 0
M  V30 27868 H 2626.72 -4.67466 1.28856 0
M  V30 27869 N 2628.06 -0.274434 -1.55192 0
M  V30 27870 C 2629.02 0.60024 -2.21201 0
M  V30 27871 C 2630.02 1.08185 -1.18965 0
M  V30 27872 O 2631.21 0.982132 -1.43874 0
M  V30 27873 C 2628.35 1.82804 -2.87742 0
M  V30 27874 H 2629.54 0.0239155 -2.9989 0
M  V30 27875 H 2627.09 -0.0250467 -1.5628 0
M  V30 27876 H 2627.83 2.44489 -2.13062 0
M  V30 27877 H 2627.61 1.49063 -3.62661 0
M  V30 27878 H 2629.1 2.45005 -3.38175 0
M  V30 27879 N 2629.54 1.576 -0.00170483 0
M  V30 27880 C 2630.77 1.94923 0.693725 0
M  V30 27881 C 2631.18 0.876655 1.67213 0
M  V30 27882 O 2630.54 -0.144247 1.81929 0
M  V30 27883 C 2630.59 3.32267 1.42411 0
M  V30 27884 O 2630.31 4.35408 0.484937 0
M  V30 27885 C 2631.81 3.8406 2.21389 0
M  V30 27886 H 2629.03 0.642612 0.193107 0
M  V30 27887 H 2631.58 2.0443 -0.0533311 0
M  V30 27888 H 2629.73 3.24063 2.12278 0
M  V30 27889 H 2630.15 5.1487 1.00044 0
M  V30 27890 H 2631.62 4.82583 2.67988 0
M  V30 27891 H 2632.1 3.16856 3.04136 0
M  V30 27892 H 2632.7 3.95445 1.56535 0
M  V30 27893 N 2631.02 -0.271076 1.55251 0
M  V30 27894 C 2631.95 -1.33929 1.91272 0
M  V30 27895 C 2632.93 -1.51429 0.774806 0
M  V30 27896 O 2634.11 -1.6444 1.0331 0
M  V30 27897 C 2631.24 -2.69847 2.18632 0
M  V30 27898 C 2630.2 -2.67076 3.34447 0
M  V30 27899 C 2629.52 -4.06563 3.47291 0
M  V30 27900 C 2630.82 -2.26176 4.70788 0
M  V30 27901 H 2632.52 -1.0403 2.80746 0
M  V30 27902 H 2630.06 -0.498993 1.35078 0
M  V30 27903 H 2632.02 -3.4469 2.42419 0
M  V30 27904 H 2630.74 -3.01333 1.2596 0
M  V30 27905 H 2629.4 -1.9469 3.10631 0
M  V30 27906 H 2629.05 -4.35274 2.52082 0
M  V30 27907 H 2628.75 -4.05603 4.25159 0
M  V30 27908 H 2630.27 -4.83142 3.73372 0
M  V30 27909 H 2631.69 -2.90743 4.94107 0
M  V30 27910 H 2630.08 -2.36375 5.51586 0
M  V30 27911 H 2631.15 -1.2131 4.6948 0
M  V30 27912 N 2632.5 -1.48217 -0.535675 0
M  V30 27913 C 2633.77 -1.46432 -1.29681 0
M  V30 27914 C 2634.15 -0.172889 -2.10391 0
M  V30 27915 O 2633.5 0.845451 -2.12284 0
M  V30 27916 C 2633.71 -2.72291 -2.18309 0
M  V30 27917 C 2635.06 -3.20388 -2.78633 0
M  V30 27918 O 2636.08 -2.73168 -2.28599 0
M  V30 27919 O 2634.94 -4.02538 -3.69629 0
M  V30 27920 H 2632.04 -0.584539 -0.585016 0
M  V30 27921 H 2634.58 -1.60444 -0.552799 0
M  V30 27922 H 2633.35 -3.578 -1.58415 0
M  V30 27923 H 2632.98 -2.60971 -2.99967 0
M  V30 27924 N 2633.97 0.784108 -1.3671 0
M  V30 27925 C 2635.22 1.53742 -1.30562 0
M  V30 27926 C 2635.54 1.95283 0.11134 0
M  V30 27927 O 2636.74 2.6989 0.295222 0
M  V30 27928 C 2635.2 2.77561 -2.29103 0
M  V30 27929 C 2634.81 2.43168 -3.76263 0
M  V30 27930 C 2636.55 3.55532 -2.31942 0
M  V30 27931 C 2634.46 3.63414 -4.66566 0
M  V30 27932 H 2633.39 0.577154 -0.48519 0
M  V30 27933 H 2636.04 0.859952 -1.62102 0
M  V30 27934 H 2634.42 3.47133 -1.90564 0
M  V30 27935 H 2635.59 1.81458 -4.23568 0
M  V30 27936 H 2633.91 1.78396 -3.7625 0
M  V30 27937 H 2636.51 4.44884 -2.96618 0
M  V30 27938 H 2636.85 3.94501 -1.32947 0
M  V30 27939 H 2637.38 2.92944 -2.69126 0
M  V30 27940 H 2634.12 3.29537 -5.66644 0
M  V30 27941 H 2633.64 4.24272 -4.23974 0
M  V30 27942 H 2635.32 4.30378 -4.83098 0
M  V30 27943 N 2635.45 1.21076 1.00888 0
M  V30 27944 C 2636.73 0.934499 1.71833 0
M  V30 27945 C 2637.11 -0.554717 2.03681 0
M  V30 27946 O 2636.46 -1.51851 1.70744 0
M  V30 27947 C 2636.67 1.81555 2.98058 0
M  V30 27948 C 2638.02 2.06206 3.71166 0
M  V30 27949 O 2639.04 1.78872 3.08031 0
M  V30 27950 O 2637.9 2.52412 4.84717 0
M  V30 27951 H 2634.99 0.350083 0.749247 0
M  V30 27952 H 2637.54 1.31987 1.06666 0
M  V30 27953 H 2636.31 2.8236 2.70903 0
M  V30 27954 H 2635.93 1.43075 3.70965 0
M  V30 27955 N 2636.93 -1.2032 1.01789 0
M  V30 27956 C 2638.34 -1.71437 0.739337 0
M  V30 27957 C 2638.69 -1.81628 -0.742009 0
M  V30 27958 O 2637.82 -1.47974 -1.57901 0
M  V30 27959 C 2638.41 -3.11371 1.33543 0
M  V30 27960 C 2636.97 -3.59793 1.10572 0
M  V30 27961 C 2636.12 -2.3696 1.44032 0
M  V30 27962 H 2639.07 -1.05315 1.1872 0
M  V30 27963 H 2639.09 -3.73497 0.726676 0
M  V30 27964 H 2638.6 -3.03921 2.41357 0
M  V30 27965 H 2636.7 -3.72572 0.045306 0
M  V30 27966 H 2636.82 -4.44538 1.78668 0
M  V30 27967 H 2635.18 -2.39764 0.859373 0
M  V30 27968 H 2635.96 -2.32151 2.52905 0
M  V30 27969 N 2638.41 -0.794293 -1.3612 0
M  V30 27970 C 2639.34 -0.153943 -2.28682 0
M  V30 27971 C 2640.35 0.639643 -1.49708 0
M  V30 27972 O 2641.54 0.474023 -1.72091 0
M  V30 27973 C 2638.64 0.804863 -3.29204 0
M  V30 27974 C 2637.82 0.0602892 -4.37358 0
M  V30 27975 C 2636.87 0.935758 -5.17813 0
M  V30 27976 O 2635.9 0.39121 -5.67854 0
M  V30 27977 N 2637.1 2.25942 -5.34725 0
M  V30 27978 H 2639.87 -0.949058 -2.84276 0
M  V30 27979 H 2637.43 -0.648637 -1.48338 0
M  V30 27980 H 2639.42 1.39449 -3.79916 0
M  V30 27981 H 2637.99 1.50083 -2.74215 0
M  V30 27982 H 2637.21 -0.71045 -3.87745 0
M  V30 27983 H 2638.5 -0.453329 -5.06776 0
M  V30 27984 H 2637.9 2.72592 -4.95691 0
M  V30 27985 H 2636.45 2.79857 -5.88662 0
M  V30 27986 N 2639.89 1.47813 -0.546727 0
M  V30 27987 C 2641.3 1.86372 -0.110597 0
M  V30 27988 C 2641.65 1.45451 1.31675 0
M  V30 27989 O 2640.77 0.852793 1.98888 0
M  V30 27990 C 2641.37 3.38244 -0.193933 0
M  V30 27991 C 2639.93 3.75935 0.187098 0
M  V30 27992 C 2639.07 2.71867 -0.546214 0
M  V30 27993 H 2642.03 1.39479 -0.757047 0
M  V30 27994 H 2642.05 3.75896 0.590152 0
M  V30 27995 H 2641.56 3.67997 -1.23288 0
M  V30 27996 H 2639.66 3.51798 1.22755 0
M  V30 27997 H 2639.77 4.78819 -0.164167 0
M  V30 27998 H 2638.14 2.54698 0.00949427 0
M  V30 27999 H 2638.92 3.04462 -1.58612 0
M  V30 28000 N 2641.36 0.28266 1.55044 0
M  V30 28001 C 2642.61 -0.332633 1.98938 0
M  V30 28002 C 2642.93 -1.56407 1.17458 0
M  V30 28003 O 2644.13 -2.25279 1.51531 0
M  V30 28004 C 2642.59 -0.643164 3.54107 0
M  V30 28005 C 2642.2 0.568892 4.44373 0
M  V30 28006 C 2643.94 -1.22066 4.06571 0
M  V30 28007 C 2641.85 0.23253 5.90943 0
M  V30 28008 H 2640.78 -0.128062 0.743045 0
M  V30 28009 H 2643.43 0.388496 1.7934 0
M  V30 28010 H 2641.81 -1.4234 3.69534 0
M  V30 28011 H 2642.98 1.34559 4.40716 0
M  V30 28012 H 2641.3 1.06376 4.02583 0
M  V30 28013 H 2643.9 -1.48626 5.13629 0
M  V30 28014 H 2644.24 -2.157 3.5606 0
M  V30 28015 H 2644.77 -0.502552 3.94613 0
M  V30 28016 H 2641.51 1.13695 6.45565 0
M  V30 28017 H 2641.03 -0.507252 5.97651 0
M  V30 28018 H 2642.71 -0.172543 6.4677 0
M  V30 28019 N 2642.84 -1.57597 0.0100627 0
M  V30 28020 C 2643.81 -2.07988 -0.962993 0
M  V30 28021 C 2644.81 -0.991195 -1.26617 0
M  V30 28022 O 2646 -1.25349 -1.20968 0
M  V30 28023 C 2643.13 -2.52978 -2.28506 0
M  V30 28024 H 2644.32 -2.95235 -0.526919 0
M  V30 28025 H 2641.87 -1.54483 -0.237612 0
M  V30 28026 H 2642.61 -1.69004 -2.76782 0
M  V30 28027 H 2642.39 -3.32497 -2.07818 0
M  V30 28028 H 2643.88 -2.92256 -2.98289 0
M  V30 28029 N 2644.32 0.262839 -1.55393 0
M  V30 28030 C 2645.25 1.35098 -1.83912 0
M  V30 28031 C 2646.23 1.47096 -0.692927 0
M  V30 28032 O 2647.42 1.63562 -0.937008 0
M  V30 28033 C 2644.54 2.7263 -2.00974 0
M  V30 28034 C 2643.59 2.77864 -3.23564 0
M  V30 28035 S 2644.42 2.36082 -4.80651 0
M  V30 28036 C 2645.58 3.75569 -5.00698 0
M  V30 28037 H 2645.81 1.10705 -2.7592 0
M  V30 28038 H 2643.34 0.463003 -1.47294 0
M  V30 28039 H 2645.3 3.51828 -2.11488 0
M  V30 28040 H 2643.96 2.9427 -1.09837 0
M  V30 28041 H 2643.16 3.78831 -3.3242 0
M  V30 28042 H 2642.76 2.06697 -3.11693 0
M  V30 28043 H 2645.05 4.7093 -4.87064 0
M  V30 28044 H 2645.99 3.71658 -6.02724 0
M  V30 28045 H 2646.4 3.67343 -4.28625 0
M  V30 28046 N 2645.8 1.48499 0.527807 0
M  V30 28047 C 2646.71 1.6587 1.65905 0
M  V30 28048 C 2647.72 0.541221 1.65369 0
M  V30 28049 O 2648.9 0.812566 1.84281 0
M  V30 28050 C 2645.97 1.69642 3.02361 0
M  V30 28051 C 2645.03 2.93034 3.13735 0
M  V30 28052 C 2644.26 2.96617 4.43683 0
M  V30 28053 O 2644.48 2.08547 5.30909 0
M  V30 28054 O 2643.42 3.8881 4.59468 0
M  V30 28055 H 2647.24 2.6165 1.54186 0
M  V30 28056 H 2644.83 1.31926 0.70114 0
M  V30 28057 H 2646.71 1.74632 3.83512 0
M  V30 28058 H 2645.38 0.770368 3.14399 0
M  V30 28059 H 2644.29 2.93575 2.31871 0
M  V30 28060 H 2645.62 3.85031 3.06614 0
M  V30 28061 N 2647.28 -0.776847 1.37123 0
M  V30 28062 C 2648.55 -1.52419 1.22588 0
M  V30 28063 C 2648.93 -2.10308 -0.182689 0
M  V30 28064 O 2648.28 -1.95082 -1.18976 0
M  V30 28065 C 2648.49 -2.60914 2.31787 0
M  V30 28066 C 2649.84 -3.28455 2.69077 0
M  V30 28067 O 2650.86 -2.71205 2.30925 0
M  V30 28068 O 2649.72 -4.31948 3.34788 0
M  V30 28069 H 2646.82 -0.674827 0.478056 0
M  V30 28070 H 2649.36 -0.814249 1.48889 0
M  V30 28071 H 2648.14 -2.16221 3.26135 0
M  V30 28072 H 2647.76 -3.39513 2.06922 0
M  V30 28073 N 2648.76 -1.2161 -1.00244 0
M  V30 28074 C 2649.98 -1.0617 -1.78165 0
M  V30 28075 C 2650.41 0.384002 -1.84139 0
M  V30 28076 O 2649.76 1.2771 -1.28685 0
M  V30 28077 C 2649.81 -1.66648 -3.19783 0
M  V30 28078 O 2648.92 -0.913684 -4.02151 0
M  V30 28079 H 2648.26 -0.3735 -0.548993 0
M  V30 28080 H 2650.79 -1.61206 -1.25991 0
M  V30 28081 H 2650.8 -1.70975 -3.70448 0
M  V30 28082 H 2649.47 -2.71856 -3.14749 0
M  V30 28083 H 2648.05 -0.945698 -3.60709 0
M  V30 28084 N 2650.23 1.19778 -1.02425 0
M  V30 28085 C 2651.48 1.89623 -0.719085 0
M  V30 28086 C 2651.81 1.79131 0.750052 0
M  V30 28087 O 2651.09 1.18058 1.54572 0
M  V30 28088 C 2651.37 3.40732 -1.16505 0
M  V30 28089 C 2651.22 3.6012 -2.69506 0
M  V30 28090 C 2652.54 4.33796 -0.742242 0
M  V30 28091 H 2649.66 0.68859 -0.262702 0
M  V30 28092 H 2652.3 1.41016 -1.27336 0
M  V30 28093 H 2650.45 3.82261 -0.693477 0
M  V30 28094 H 2652.13 3.27794 -3.24575 0
M  V30 28095 H 2650.37 3.0333 -3.10118 0
M  V30 28096 H 2651.04 4.66076 -2.95765 0
M  V30 28097 H 2653.52 3.99957 -1.14777 0
M  V30 28098 H 2652.39 5.38126 -1.08223 0
M  V30 28099 H 2652.65 4.40667 0.355669 0
M  V30 28100 N 2651.71 0.801501 1.35697 0
M  V30 28101 C 2652.96 0.379494 1.98912 0
M  V30 28102 C 2653.29 -1.05201 1.63594 0
M  V30 28103 O 2652.54 -1.74363 0.888593 0
M  V30 28104 C 2652.84 0.504103 3.53827 0
M  V30 28105 C 2652.51 1.89817 4.08999 0
M  V30 28106 C 2651.17 2.27958 4.23779 0
M  V30 28107 C 2653.52 2.81045 4.38934 0
M  V30 28108 C 2650.85 3.56704 4.6581 0
M  V30 28109 C 2653.2 4.09232 4.82402 0
M  V30 28110 C 2651.86 4.47379 4.95387 0
M  V30 28111 H 2651.13 0.138867 0.727872 0
M  V30 28112 H 2653.78 1.02131 1.61993 0
M  V30 28113 H 2652.09 -0.221174 3.91175 0
M  V30 28114 H 2653.78 0.158431 4.00687 0
M  V30 28115 H 2650.37 1.59183 3.97943 0
M  V30 28116 H 2654.56 2.52829 4.27073 0
M  V30 28117 H 2649.81 3.86115 4.74052 0
M  V30 28118 H 2653.99 4.80027 5.04527 0
M  V30 28119 H 2651.61 5.47195 5.27714 0
M  V30 28120 N 2653.19 -1.47521 0.554558 0
M  V30 28121 C 2654.44 -2.02079 0.0294563 0
M  V30 28122 C 2654.76 -1.43154 -1.32409 0
M  V30 28123 O 2654.03 -0.605761 -1.86299 0
M  V30 28124 H 2652.61 -0.746958 0.00789985 0
M  V30 28125 H 2655.27 -1.80955 0.723966 0
M  V30 28126 H 2654.37 -3.12041 -0.0606196 0
M  V30 28127 N 2654.67 -0.290879 -1.54892 0
M  V30 28128 C 2655.6 0.631451 -2.1929 0
M  V30 28129 C 2656.58 1.14049 -1.15895 0
M  V30 28130 O 2657.76 1.21055 -1.44492 0
M  V30 28131 C 2654.89 1.86286 -2.8287 0
M  V30 28132 C 2653.94 1.48794 -3.99703 0
M  V30 28133 S 2654.77 0.552551 -5.32642 0
M  V30 28134 C 2655.92 1.79198 -5.99699 0
M  V30 28135 H 2656.16 0.0843269 -2.9718 0
M  V30 28136 H 2653.69 -0.0750581 -1.54217 0
M  V30 28137 H 2655.65 2.56959 -3.20129 0
M  V30 28138 H 2654.31 2.38114 -2.04843 0
M  V30 28139 H 2653.5 2.40466 -4.42936 0
M  V30 28140 H 2653.1 0.861257 -3.63948 0
M  V30 28141 H 2655.4 2.73389 -6.19891 0
M  V30 28142 H 2656.34 1.40239 -6.94074 0
M  V30 28143 H 2656.75 1.9641 -5.29229 0
M  V30 28144 N 2656.15 1.57589 -0.0184203 0
M  V30 28145 C 2657.42 1.82623 0.700589 0
M  V30 28146 C 2657.8 0.900084 1.90949 0
M  V30 28147 O 2657.15 -0.0468744 2.28452 0
M  V30 28148 C 2657.36 3.31577 1.08893 0
M  V30 28149 C 2658.71 3.97782 1.48507 0
M  V30 28150 O 2659.73 3.36009 1.18221 0
M  V30 28151 O 2658.59 5.06636 2.04894 0
M  V30 28152 H 2655.69 0.752639 0.34273 0
M  V30 28153 H 2658.23 1.6964 -0.0452846 0
M  V30 28154 H 2657 3.90635 0.228044 0
M  V30 28155 H 2656.63 3.49628 1.89331 0
M  V30 28156 N 2657.62 -0.254594 1.5553 0
M  V30 28157 C 2658.87 -0.981762 1.76652 0
M  V30 28158 C 2659.19 -1.86144 0.580996 0
M  V30 28159 O 2658.46 -1.91699 -0.403503 0
M  V30 28160 H 2657.04 -0.365487 0.651482 0
M  V30 28161 H 2659.7 -0.274392 1.92959 0
M  V30 28162 H 2658.8 -1.60798 2.67489 0
M  V30 28163 N 2659.1 -1.48777 -0.519925 0
M  V30 28164 C 2660.03 -1.66948 -1.6325 0
M  V30 28165 C 2661.01 -0.518252 -1.62013 0
M  V30 28166 O 2662.2 -0.75195 -1.79051 0
M  V30 28167 C 2659.33 -1.71842 -3.01807 0
M  V30 28168 C 2658.28 -2.86566 -3.17906 0
M  V30 28169 C 2657.61 -2.76556 -4.57625 0
M  V30 28170 C 2658.91 -4.27743 -2.99722 0
M  V30 28171 H 2660.6 -2.60093 -1.48298 0
M  V30 28172 H 2658.15 -1.25166 -0.712004 0
M  V30 28173 H 2660.1 -1.83142 -3.79522 0
M  V30 28174 H 2658.82 -0.752831 -3.17805 0
M  V30 28175 H 2657.48 -2.74837 -2.42611 0
M  V30 28176 H 2657.13 -1.77946 -4.70472 0
M  V30 28177 H 2656.83 -3.53545 -4.6934 0
M  V30 28178 H 2658.36 -2.89838 -5.37426 0
M  V30 28179 H 2659.77 -4.40252 -3.67221 0
M  V30 28180 H 2658.17 -5.05807 -3.22923 0
M  V30 28181 H 2659.24 -4.43505 -1.96039 0
M  V30 28182 N 2660.58 0.769564 -1.37534 0
M  V30 28183 C 2661.49 1.91391 -1.35671 0
M  V30 28184 C 2662.51 1.72107 -0.255985 0
M  V30 28185 O 2663.68 1.95305 -0.491739 0
M  V30 28186 C 2660.75 3.26545 -1.16487 0
M  V30 28187 C 2659.81 3.58468 -2.36219 0
M  V30 28188 C 2659.04 4.87173 -2.1794 0
M  V30 28189 O 2659.26 5.5838 -1.1648 0
M  V30 28190 O 2658.2 5.18208 -3.06176 0
M  V30 28191 H 2662.02 1.95914 -2.32059 0
M  V30 28192 H 2659.61 0.912621 -1.18286 0
M  V30 28193 H 2661.49 4.07382 -1.07785 0
M  V30 28194 H 2660.17 3.22869 -0.231744 0
M  V30 28195 H 2659.07 2.77856 -2.50493 0
M  V30 28196 H 2660.41 3.66889 -3.28106 0
M  V30 28197 N 2662.06 1.22139 0.995977 0
M  V30 28198 C 2663.02 0.990145 2.06709 0
M  V30 28199 C 2664.02 -0.0422696 1.60744 0
M  V30 28200 O 2665.21 0.195925 1.73095 0
M  V30 28201 C 2662.34 0.494969 3.37288 0
M  V30 28202 H 2663.54 1.94051 2.28658 0
M  V30 28203 H 2661.09 1.03965 1.16709 0
M  V30 28204 H 2661.82 -0.459891 3.21023 0
M  V30 28205 H 2661.61 1.23978 3.71984 0
M  V30 28206 H 2663.1 0.353326 4.16103 0
M  V30 28207 N 2663.54 -1.19233 1.03059 0
M  V30 28208 C 2664.47 -2.24741 0.633537 0
M  V30 28209 C 2665.45 -1.66283 -0.358306 0
M  V30 28210 O 2666.63 -1.92703 -0.240642 0
M  V30 28211 C 2663.76 -3.47297 -0.0147038 0
M  V30 28212 C 2662.72 -4.18439 0.8996 0
M  V30 28213 C 2662.04 -5.34573 0.116375 0
M  V30 28214 C 2663.34 -4.73048 2.21412 0
M  V30 28215 H 2665.04 -2.58208 1.51555 0
M  V30 28216 H 2662.58 -1.24115 0.730161 0
M  V30 28217 H 2664.54 -4.20301 -0.304128 0
M  V30 28218 H 2663.26 -3.13034 -0.931522 0
M  V30 28219 H 2661.92 -3.47319 1.17325 0
M  V30 28220 H 2661.57 -4.96557 -0.802531 0
M  V30 28221 H 2661.27 -5.83105 0.725395 0
M  V30 28222 H 2662.79 -6.10374 -0.166269 0
M  V30 28223 H 2664.2 -5.37798 1.9861 0
M  V30 28224 H 2662.6 -5.32073 2.77521 0
M  V30 28225 H 2663.67 -3.91021 2.86759 0
M  V30 28226 N 2665.01 -0.808686 -1.3527 0
M  V30 28227 C 2666.29 -0.313215 -1.93076 0
M  V30 28228 C 2666.67 1.19749 -1.73849 0
M  V30 28229 O 2666.02 1.99798 -1.10874 0
M  V30 28230 C 2666.23 -0.726919 -3.41346 0
M  V30 28231 C 2667.58 -0.717606 -4.18492 0
M  V30 28232 O 2668.6 -0.668596 -3.49869 0
M  V30 28233 O 2667.46 -0.777874 -5.40936 0
M  V30 28234 H 2664.55 -0.0824162 -0.822883 0
M  V30 28235 H 2667.1 -0.892524 -1.44333 0
M  V30 28236 H 2665.87 -1.76804 -3.49079 0
M  V30 28237 H 2665.5 -0.122531 -3.97411 0
M  V30 28238 N 2666.49 1.47225 -0.562374 0
M  V30 28239 C 2667.42 2.32876 0.170586 0
M  V30 28240 C 2668.4 1.44107 0.903722 0
M  V30 28241 O 2669.59 1.72956 0.883176 0
M  V30 28242 C 2666.72 3.25991 1.1978 0
M  V30 28243 C 2665.67 4.24041 0.580801 0
M  V30 28244 C 2665 5.06517 1.71302 0
M  V30 28245 C 2666.3 5.20192 -0.468806 0
M  V30 28246 H 2667.99 2.94407 -0.544492 0
M  V30 28247 H 2665.54 1.41572 -0.263296 0
M  V30 28248 H 2667.49 3.84755 1.71877 0
M  V30 28249 H 2666.22 2.62525 1.94289 0
M  V30 28250 H 2664.87 3.6651 0.0810894 0
M  V30 28251 H 2664.52 4.39451 2.44728 0
M  V30 28252 H 2664.22 5.72904 1.30594 0
M  V30 28253 H 2665.75 5.68141 2.23715 0
M  V30 28254 H 2667.16 5.7329 -0.0337035 0
M  V30 28255 H 2665.56 5.9481 -0.795062 0
M  V30 28256 H 2666.63 4.65356 -1.36277 0
M  V30 28257 N 2667.97 0.299089 1.54736 0
M  V30 28258 C 2668.92 -0.593618 2.24898 0
M  V30 28259 C 2669.91 -1.13857 1.25431 0
M  V30 28260 O 2671.12 -1.08943 1.43288 0
M  V30 28261 H 2667.49 -0.210033 0.722073 0
M  V30 28262 H 2669.46 0.0206945 2.98393 0
M  V30 28263 C 2668.21 -1.75493 3.00162 0
M  V30 28264 H 2667.54 -1.34483 3.76503 0
M  V30 28265 H 2668.98 -2.35567 3.52539 0
M  V30 28266 C 2667.44 -2.6579 2.0702 0
M  V30 28267 O 2667.97 -3.66832 1.63699 0
M  V30 28268 N 2666.17 -2.33482 1.73016 0
M  V30 28269 H 2665.72 -1.51361 2.08441 0
M  V30 28270 H 2665.68 -2.94165 1.1097 0
M  V30 28271 N 2669.45 -1.57577 0.0267774 0
M  V30 28272 C 2670.68 -1.96002 -0.662627 0
M  V30 28273 C 2671.09 -0.903146 -1.65797 0
M  V30 28274 O 2670.45 0.115285 -1.82136 0
M  V30 28275 C 2670.5 -3.34491 -1.37107 0
M  V30 28276 O 2670.22 -4.36124 -0.415606 0
M  V30 28277 C 2671.72 -3.87533 -2.15251 0
M  V30 28278 H 2668.94 -0.645603 -0.182859 0
M  V30 28279 H 2671.49 -2.0432 0.0858475 0
M  V30 28280 H 2669.64 -3.27399 -2.07096 0
M  V30 28281 H 2670.05 -5.16397 -0.918405 0
M  V30 28282 H 2671.53 -4.86786 -2.60277 0
M  V30 28283 H 2672.01 -3.21654 -2.99057 0
M  V30 28284 H 2672.61 -3.97886 -1.50224 0
M  V30 28285 N 2670.93 0.246342 -1.55663 0
M  V30 28286 C 2672.15 0.996061 -1.81916 0
M  V30 28287 C 2672.58 1.78142 -0.603906 0
M  V30 28288 O 2671.93 1.75702 0.44706 0
M  V30 28289 C 2671.98 1.9092 -3.05912 0
M  V30 28290 O 2671.09 3.001 -2.82866 0
M  V30 28291 H 2670.43 0.283396 -0.600486 0
M  V30 28292 H 2672.96 0.267163 -2.02848 0
M  V30 28293 H 2672.97 2.32374 -3.3536 0
M  V30 28294 H 2671.64 1.33176 -3.94001 0
M  V30 28295 H 2670.22 2.6277 -2.64587 0
M  V30 28296 N 2672.4 1.4905 0.512027 0
M  V30 28297 C 2673.37 1.64402 1.59702 0
M  V30 28298 C 2674.37 0.516344 1.52284 0
M  V30 28299 O 2675.56 0.782554 1.55633 0
M  V30 28300 C 2672.69 1.63107 2.99347 0
M  V30 28301 H 2673.88 2.61164 1.47423 0
M  V30 28302 H 2671.44 1.37916 0.735445 0
M  V30 28303 H 2672.17 0.678891 3.17114 0
M  V30 28304 H 2671.96 2.44992 3.0614 0
M  V30 28305 H 2673.45 1.77079 3.78197 0
M  V30 28306 N 2673.88 -0.762259 1.3794 0
M  V30 28307 C 2675.13 -1.51812 1.33407 0
M  V30 28308 C 2675.45 -1.94844 -0.0780633 0
M  V30 28309 O 2674.72 -1.67005 -1.02402 0
M  V30 28310 H 2673.3 -0.563095 0.490849 0
M  V30 28311 H 2675.96 -0.906638 1.72528 0
M  V30 28312 H 2675.06 -2.41309 1.9793 0
M  V30 28313 N 2675.36 -1.22666 -0.989486 0
M  V30 28314 C 2676.59 -1.07813 -1.76238 0
M  V30 28315 C 2677 0.374003 -1.85467 0
M  V30 28316 O 2676.34 1.27085 -1.32647 0
M  V30 28317 C 2676.4 -1.61855 -3.21004 0
M  V30 28318 C 2676.07 -3.10509 -3.35311 0
M  V30 28319 C 2677.06 -4.07901 -3.22354 0
M  V30 28320 C 2674.75 -3.50034 -3.60252 0
M  V30 28321 C 2676.74 -5.42804 -3.34129 0
M  V30 28322 C 2674.43 -4.85084 -3.71667 0
M  V30 28323 C 2675.43 -5.81278 -3.58615 0
M  V30 28324 O 2675.12 -7.13876 -3.69643 0
M  V30 28325 H 2674.85 -0.378351 -0.560202 0
M  V30 28326 H 2677.4 -1.62794 -1.25249 0
M  V30 28327 H 2675.63 -1.01285 -3.732 0
M  V30 28328 H 2677.32 -1.42613 -3.80021 0
M  V30 28329 H 2678.09 -3.78709 -3.02993 0
M  V30 28330 H 2673.97 -2.75682 -3.69487 0
M  V30 28331 H 2677.51 -6.17869 -3.23858 0
M  V30 28332 H 2673.41 -5.13957 -3.90536 0
M  V30 28333 H 2674.18 -7.21501 -3.86494 0
M  V30 28334 N 2676.84 1.18685 -1.0369 0
M  V30 28335 C 2678.25 1.70239 -0.766518 0
M  V30 28336 C 2678.6 1.82785 0.713019 0
M  V30 28337 O 2677.73 1.50467 1.55527 0
M  V30 28338 C 2678.32 3.09207 -1.3848 0
M  V30 28339 C 2676.88 3.57988 -1.16282 0
M  V30 28340 C 2676.03 2.34639 -1.47784 0
M  V30 28341 H 2678.98 1.03413 -1.2038 0
M  V30 28342 H 2679 3.72293 -0.786004 0
M  V30 28343 H 2678.51 3.00043 -2.46162 0
M  V30 28344 H 2676.61 3.72453 -0.104573 0
M  V30 28345 H 2676.73 4.4164 -1.85718 0
M  V30 28346 H 2675.09 2.38367 -0.897408 0
M  V30 28347 H 2675.87 2.28098 -2.56566 0
M  V30 28348 N 2678.32 0.815849 1.34839 0
M  V30 28349 C 2679.55 0.41273 2.02435 0
M  V30 28350 C 2679.96 -0.983878 1.61606 0
M  V30 28351 O 2679.3 -1.64693 0.813758 0
M  V30 28352 C 2679.36 0.427245 3.56952 0
M  V30 28353 C 2679.02 1.77596 4.2108 0
M  V30 28354 C 2680.02 2.73571 4.42103 0
M  V30 28355 C 2677.71 2.06251 4.58002 0
M  V30 28356 C 2679.7 3.96379 4.99162 0
M  V30 28357 C 2677.39 3.29319 5.14774 0
M  V30 28358 C 2678.39 4.24201 5.35297 0
M  V30 28359 O 2678.07 5.45096 5.90869 0
M  V30 28360 H 2677.81 0.164706 0.655628 0
M  V30 28361 H 2680.36 1.10343 1.73244 0
M  V30 28362 H 2678.59 -0.320108 3.85373 0
M  V30 28363 H 2680.28 0.0451588 4.05875 0
M  V30 28364 H 2681.04 2.52728 4.13949 0
M  V30 28365 H 2676.92 1.33204 4.41336 0
M  V30 28366 H 2680.47 4.70448 5.15096 0
M  V30 28367 H 2676.36 3.5003 5.42356 0
M  V30 28368 H 2677.13 5.46519 6.0931 0
M  V30 28369 N 2679.8 -1.46924 0.570174 0
M  V30 28370 C 2681.04 -2.02736 0.051064 0
M  V30 28371 C 2681.37 -1.44217 -1.30058 0
M  V30 28372 O 2680.65 -0.602553 -1.84931 0
M  V30 28373 C 2680.93 -3.60089 -0.0281517 0
M  V30 28374 C 2680.79 -4.29016 1.3515 0
M  V30 28375 C 2682.1 -4.33917 -0.735104 0
M  V30 28376 H 2679.22 -0.736728 0.0200308 0
M  V30 28377 H 2681.87 -1.75209 0.734961 0
M  V30 28378 H 2680.02 -3.83672 -0.61058 0
M  V30 28379 H 2681.69 -4.16735 1.97813 0
M  V30 28380 H 2679.93 -3.88865 1.92267 0
M  V30 28381 H 2680.6 -5.37692 1.24866 0
M  V30 28382 H 2683.08 -4.15405 -0.240446 0
M  V30 28383 H 2681.95 -5.4362 -0.759526 0
M  V30 28384 H 2682.21 -4.04069 -1.7939 0
M  V30 28385 N 2681.27 -0.307291 -1.54575 0
M  V30 28386 C 2682.5 0.302561 -2.04676 0
M  V30 28387 C 2682.92 1.47039 -1.18427 0
M  V30 28388 O 2682.27 1.81273 -0.211289 0
M  V30 28389 C 2682.32 0.752739 -3.53576 0
M  V30 28390 O 2682.05 -0.368613 -4.36547 0
M  V30 28391 C 2683.55 1.42709 -4.19701 0
M  V30 28392 H 2680.77 0.0648257 -0.667861 0
M  V30 28393 H 2683.31 -0.448751 -1.99516 0
M  V30 28394 H 2681.47 1.45406 -3.59076 0
M  V30 28395 H 2681.88 -0.0169859 -5.24497 0
M  V30 28396 H 2683.35 1.69318 -5.25391 0
M  V30 28397 H 2683.83 2.36918 -3.69819 0
M  V30 28398 H 2684.44 0.768782 -4.18294 0
M  V30 28399 N 2682.75 1.57561 -0.0351337 0
M  V30 28400 C 2683.68 2.13613 0.942955 0
M  V30 28401 C 2684.66 1.05375 1.33529 0
M  V30 28402 O 2685.85 1.33237 1.41285 0
M  V30 28403 C 2682.98 2.66811 2.22327 0
M  V30 28404 C 2681.93 3.79889 1.9715 0
M  V30 28405 C 2681.26 4.19539 3.31498 0
M  V30 28406 C 2682.56 5.05712 1.30588 0
M  V30 28407 H 2684.25 2.9559 0.476127 0
M  V30 28408 H 2681.8 1.4219 0.227577 0
M  V30 28409 H 2683.75 3.04659 2.91137 0
M  V30 28410 H 2682.47 1.82004 2.71187 0
M  V30 28411 H 2681.13 3.42488 1.30757 0
M  V30 28412 H 2680.78 3.31705 3.78128 0
M  V30 28413 H 2680.48 4.95743 3.15456 0
M  V30 28414 H 2682.01 4.59975 4.01566 0
M  V30 28415 H 2683.42 5.41108 1.89406 0
M  V30 28416 H 2681.82 5.86953 1.24924 0
M  V30 28417 H 2682.89 4.84093 0.279657 0
M  V30 28418 N 2684.23 -0.238084 1.55791 0
M  V30 28419 C 2685.48 -0.96297 1.77683 0
M  V30 28420 C 2685.8 -1.85517 0.600706 0
M  V30 28421 O 2685.07 -1.92117 -0.383148 0
M  V30 28422 H 2683.65 -0.358556 0.655322 0
M  V30 28423 H 2686.31 -0.253911 1.93239 0
M  V30 28424 H 2685.41 -1.57952 2.6918 0
M  V30 28425 N 2685.71 -1.4932 -0.504115 0
M  V30 28426 C 2686.96 -1.57897 -1.25504 0
M  V30 28427 C 2687.27 -0.269467 -1.93735 0
M  V30 28428 O 2688.48 -0.233754 -2.70492 0
M  V30 28429 C 2686.93 -2.78578 -2.27864 0
M  V30 28430 C 2686.54 -4.16275 -1.65587 0
M  V30 28431 C 2688.28 -2.96484 -3.03805 0
M  V30 28432 C 2686.19 -5.28183 -2.66039 0
M  V30 28433 H 2685.12 -0.587902 -0.472109 0
M  V30 28434 H 2687.77 -1.75701 -0.529279 0
M  V30 28435 H 2686.15 -2.54262 -3.0359 0
M  V30 28436 H 2687.33 -4.50716 -0.958747 0
M  V30 28437 H 2685.64 -4.03702 -1.02047 0
M  V30 28438 H 2688.24 -3.77259 -3.78919 0
M  V30 28439 H 2688.58 -2.06925 -3.61231 0
M  V30 28440 H 2689.12 -3.20825 -2.35194 0
M  V30 28441 H 2685.85 -6.19792 -2.13398 0
M  V30 28442 H 2685.37 -4.982 -3.34001 0
M  V30 28443 H 2687.05 -5.57386 -3.28526 0
M  V30 28444 N 2687.19 0.754933 -1.38342 0
M  V30 28445 C 2688.13 1.86865 -1.35463 0
M  V30 28446 C 2689.1 1.64671 -0.217398 0
M  V30 28447 O 2690.29 1.86356 -0.409416 0
M  V30 28448 C 2687.43 3.24147 -1.18418 0
M  V30 28449 C 2686.54 3.58181 -2.41517 0
M  V30 28450 C 2685.68 4.8476 -2.17213 0
M  V30 28451 C 2684.71 5.11576 -3.3609 0
M  V30 28452 N 2683.85 6.29349 -3.1123 0
M  V30 28453 H 2688.69 1.8866 -2.30676 0
M  V30 28454 H 2686.23 0.922134 -1.14608 0
M  V30 28455 H 2688.19 4.03364 -1.06552 0
M  V30 28456 H 2686.82 3.21682 -0.268453 0
M  V30 28457 H 2685.87 2.73818 -2.64061 0
M  V30 28458 H 2687.18 3.73926 -3.30122 0
M  V30 28459 H 2686.33 5.71917 -2.02475 0
M  V30 28460 H 2685.07 4.7115 -1.25972 0
M  V30 28461 H 2684.08 4.22888 -3.51349 0
M  V30 28462 H 2685.3 5.27083 -4.28206 0
M  V30 28463 H 2683.25 6.17065 -2.22635 0
M  V30 28464 H 2683.17 6.45589 -3.93384 0
M  V30 28465 H 2684.43 7.19398 -3.00145 0
M  V30 28466 N 2688.66 1.23189 0.982967 0
M  V30 28467 C 2689.61 1.01079 2.07489 0
M  V30 28468 C 2690.58 -0.0708758 1.65949 0
M  V30 28469 O 2691.77 0.0807157 1.90629 0
M  V30 28470 C 2688.91 0.60532 3.3975 0
M  V30 28471 C 2688.02 1.75883 3.94575 0
M  V30 28472 C 2687.15 1.30039 5.15037 0
M  V30 28473 C 2686.19 2.42481 5.62022 0
M  V30 28474 N 2685.33 1.97614 6.73716 0
M  V30 28475 H 2690.17 1.94544 2.25736 0
M  V30 28476 H 2687.71 0.969199 1.10657 0
M  V30 28477 H 2689.66 0.351352 4.15718 0
M  V30 28478 H 2688.29 -0.292325 3.21474 0
M  V30 28479 H 2687.35 2.12687 3.15386 0
M  V30 28480 H 2688.66 2.60426 4.25417 0
M  V30 28481 H 2687.81 1.0044 5.98328 0
M  V30 28482 H 2686.55 0.425301 4.85842 0
M  V30 28483 H 2685.56 2.72858 4.77314 0
M  V30 28484 H 2686.78 3.30523 5.93238 0
M  V30 28485 H 2684.73 1.12481 6.46285 0
M  V30 28486 H 2684.64 2.75717 7.03929 0
M  V30 28487 H 2685.91 1.71111 7.60487 0
M  V30 28488 N 2690.14 -1.18133 1.04318 0
M  V30 28489 C 2691.09 -2.21852 0.636437 0
M  V30 28490 C 2692.06 -1.62218 -0.35701 0
M  V30 28491 O 2693.24 -1.8915 -0.25042 0
M  V30 28492 C 2690.38 -3.45099 0.00818845 0
M  V30 28493 C 2689.5 -4.1906 1.04941 0
M  V30 28494 C 2688.63 -5.29771 0.389407 0
M  V30 28495 C 2687.67 -5.95507 1.41554 0
M  V30 28496 N 2686.81 -6.9775 0.780333 0
M  V30 28497 H 2691.65 -2.55999 1.5254 0
M  V30 28498 H 2689.18 -1.25761 0.763062 0
M  V30 28499 H 2691.14 -4.15525 -0.373424 0
M  V30 28500 H 2689.77 -3.11563 -0.844282 0
M  V30 28501 H 2688.82 -3.47436 1.54894 0
M  V30 28502 H 2690.14 -4.64069 1.8287 0
M  V30 28503 H 2689.29 -6.06682 -0.0462739 0
M  V30 28504 H 2688.03 -4.85871 -0.421953 0
M  V30 28505 H 2687.03 -5.17334 1.86133 0
M  V30 28506 H 2688.26 -6.41489 2.22865 0
M  V30 28507 H 2686.21 -6.55999 -0.0106746 0
M  V30 28508 H 2686.12 -7.41024 1.49729 0
M  V30 28509 H 2687.39 -7.78625 0.369133 0
M  V30 28510 N 2691.62 -0.822988 -1.34405 0
M  V30 28511 C 2692.9 -0.333675 -1.92733 0
M  V30 28512 C 2693.28 1.17898 -1.75109 0
M  V30 28513 O 2692.63 1.98611 -1.12986 0
M  V30 28514 C 2692.84 -0.763083 -3.40555 0
M  V30 28515 C 2694.18 -0.761952 -4.17707 0
M  V30 28516 O 2695.21 -0.705667 -3.4914 0
M  V30 28517 O 2694.07 -0.835204 -5.4008 0
M  V30 28518 H 2691.16 -0.0911394 -0.821963 0
M  V30 28519 H 2693.71 -0.907782 -1.43379 0
M  V30 28520 H 2692.48 -1.80496 -3.47184 0
M  V30 28521 H 2692.1 -0.164675 -3.97259 0
M  V30 28522 N 2693.1 1.4662 -0.577957 0
M  V30 28523 C 2694.03 2.33044 0.145876 0
M  V30 28524 C 2695.01 1.45058 0.888387 0
M  V30 28525 O 2696.19 1.73883 0.864782 0
M  V30 28526 C 2693.32 3.27243 1.16316 0
M  V30 28527 C 2692.28 4.24633 0.535793 0
M  V30 28528 C 2691.6 5.08306 1.6592 0
M  V30 28529 C 2692.9 5.19665 -0.523953 0
M  V30 28530 H 2694.6 2.93813 -0.575688 0
M  V30 28531 H 2692.14 1.41285 -0.278297 0
M  V30 28532 H 2694.1 3.86556 1.67786 0
M  V30 28533 H 2692.82 2.64571 1.91494 0
M  V30 28534 H 2691.48 3.66576 0.0422115 0
M  V30 28535 H 2691.13 4.42022 2.40053 0
M  V30 28536 H 2690.83 5.74257 1.2451 0
M  V30 28537 H 2692.35 5.70482 2.17676 0
M  V30 28538 H 2693.77 5.73222 -0.0945067 0
M  V30 28539 H 2692.16 5.93933 -0.858105 0
M  V30 28540 H 2693.23 4.63885 -1.41205 0
M  V30 28541 N 2694.58 0.315484 1.5441 0
M  V30 28542 C 2695.83 -0.29036 1.99599 0
M  V30 28543 C 2696.14 -1.5388 1.20749 0
M  V30 28544 O 2697.34 -2.22014 1.56275 0
M  V30 28545 C 2695.8 -0.567908 3.55391 0
M  V30 28546 C 2695.41 0.663023 4.43067 0
M  V30 28547 C 2697.15 -1.13415 4.09069 0
M  V30 28548 C 2695.06 0.357825 5.90317 0
M  V30 28549 H 2693.99 -0.112272 0.745594 0
M  V30 28550 H 2696.64 0.426449 1.78476 0
M  V30 28551 H 2695.02 -1.34469 3.7247 0
M  V30 28552 H 2696.2 1.43877 4.37763 0
M  V30 28553 H 2694.51 1.14891 4.00236 0
M  V30 28554 H 2697.11 -1.37698 5.16666 0
M  V30 28555 H 2697.45 -2.08099 3.60556 0
M  V30 28556 H 2697.98 -0.418736 3.9559 0
M  V30 28557 H 2694.72 1.27362 6.43008 0
M  V30 28558 H 2694.24 -0.380367 5.98593 0
M  V30 28559 H 2695.92 -0.0353146 6.4699 0
M  V30 28560 N 2696.05 -1.5754 0.0434891 0
M  V30 28561 C 2697 -2.12251 -0.951427 0
M  V30 28562 C 2698 -1.05247 -1.32738 0
M  V30 28563 O 2699.2 -1.23665 -1.30793 0
M  V30 28564 H 2695.58 -0.678309 -0.324656 0
M  V30 28565 H 2697.55 -2.94758 -0.464803 0
M  V30 28566 C 2696.3 -2.6763 -2.21967 0
M  V30 28567 H 2695.62 -3.49623 -1.93917 0
M  V30 28568 H 2697.06 -3.09541 -2.89759 0
M  V30 28569 C 2695.52 -1.61044 -2.95917 0
M  V30 28570 O 2696.05 -1.01869 -3.88569 0
M  V30 28571 N 2694.26 -1.32746 -2.58509 0
M  V30 28572 H 2693.8 -1.81054 -1.83241 0
M  V30 28573 H 2693.76 -0.616586 -3.08295 0
M  V30 28574 N 2697.53 0.229818 -1.55915 0
M  V30 28575 C 2698.48 1.30441 -1.92582 0
M  V30 28576 C 2699.47 1.4895 -0.806865 0
M  V30 28577 O 2700.68 1.50222 -0.991633 0
M  V30 28578 H 2697.06 0.43715 -0.611886 0
M  V30 28579 H 2699.03 0.96792 -2.82266 0
M  V30 28580 C 2697.78 2.64936 -2.25176 0
M  V30 28581 H 2697.1 2.51499 -3.10787 0
M  V30 28582 H 2698.54 3.38958 -2.54722 0
M  V30 28583 C 2697 3.19323 -1.074 0
M  V30 28584 O 2697.53 4.00335 -0.330829 0
M  V30 28585 N 2695.73 2.77582 -0.860033 0
M  V30 28586 H 2695.28 2.1181 -1.46609 0
M  V30 28587 H 2695.24 3.14314 -0.0737224 0
M  V30 28588 N 2699.01 1.49585 0.49619 0
M  V30 28589 C 2699.96 1.66609 1.59719 0
M  V30 28590 C 2700.93 0.507504 1.58157 0
M  V30 28591 O 2702.11 0.735107 1.7607 0
M  V30 28592 C 2699.25 1.74313 2.97841 0
M  V30 28593 C 2698.37 3.01507 3.09382 0
M  V30 28594 C 2697.5 3.0016 4.38266 0
M  V30 28595 C 2696.54 4.21914 4.43458 0
M  V30 28596 N 2695.68 4.1845 5.63777 0
M  V30 28597 H 2700.52 2.60616 1.44511 0
M  V30 28598 H 2698.05 1.29213 0.703026 0
M  V30 28599 H 2700.01 1.7676 3.77904 0
M  V30 28600 H 2698.64 0.837674 3.11742 0
M  V30 28601 H 2697.69 3.08648 2.22352 0
M  V30 28602 H 2699.01 3.915 3.09079 0
M  V30 28603 H 2698.16 3.01198 5.26654 0
M  V30 28604 H 2696.9 2.07954 4.41142 0
M  V30 28605 H 2695.9 4.21116 3.53471 0
M  V30 28606 H 2697.13 5.15318 4.42294 0
M  V30 28607 H 2695.07 3.29084 5.67486 0
M  V30 28608 H 2694.99 5.02183 5.65109 0
M  V30 28609 H 2696.26 4.23597 6.54359 0
M  V30 28610 N 2700.49 -0.747586 1.3874 0
M  V30 28611 C 2701.72 -1.53684 1.38524 0
M  V30 28612 C 2702.13 -1.88785 -0.0234797 0
M  V30 28613 O 2701.49 -1.53208 -0.991635 0
M  V30 28614 C 2701.54 -2.83225 2.24646 0
M  V30 28615 O 2701.26 -2.49619 3.60031 0
M  V30 28616 C 2702.76 -3.77329 2.32675 0
M  V30 28617 H 2699.98 -0.475338 0.473597 0
M  V30 28618 H 2702.53 -0.924754 1.82397 0
M  V30 28619 H 2700.68 -3.40796 1.84219 0
M  V30 28620 H 2701.09 -3.32743 4.05441 0
M  V30 28621 H 2702.57 -4.65157 2.97209 0
M  V30 28622 H 2703.05 -4.18189 1.34217 0
M  V30 28623 H 2703.65 -3.25681 2.73518 0
M  V30 28624 N 2701.97 -1.23709 -0.97642 0
M  V30 28625 C 2702.91 -1.02178 -2.0695 0
M  V30 28626 C 2703.88 0.0620742 -1.65984 0
M  V30 28627 O 2705.07 -0.0908241 -1.90584 0
M  V30 28628 C 2702.21 -0.62333 -3.39424 0
M  V30 28629 C 2701.32 -1.77973 -3.93636 0
M  V30 28630 C 2700.46 -1.32769 -5.1434 0
M  V30 28631 C 2699.5 -2.45459 -5.60729 0
M  V30 28632 N 2698.63 -2.01184 -6.72658 0
M  V30 28633 H 2703.47 -1.95738 -2.24701 0
M  V30 28634 H 2701.01 -0.975053 -1.10141 0
M  V30 28635 H 2702.97 -0.373393 -4.15526 0
M  V30 28636 H 2701.6 0.275273 -3.21624 0
M  V30 28637 H 2700.65 -2.14356 -3.14254 0
M  V30 28638 H 2701.96 -2.62678 -4.2403 0
M  V30 28639 H 2701.12 -1.03611 -5.97787 0
M  V30 28640 H 2699.85 -0.451061 -4.8561 0
M  V30 28641 H 2698.86 -2.75386 -4.7586 0
M  V30 28642 H 2700.08 -3.33664 -5.91477 0
M  V30 28643 H 2698.03 -1.15907 -6.45679 0
M  V30 28644 H 2697.95 -2.79447 -7.02457 0
M  V30 28645 H 2699.22 -1.75142 -7.59569 0
M  V30 28646 N 2703.44 1.17579 -1.04943 0
M  V30 28647 C 2704.72 1.83696 -0.67195 0
M  V30 28648 C 2705.1 1.93323 0.847895 0
M  V30 28649 O 2704.45 1.46586 1.75285 0
M  V30 28650 C 2704.66 3.21494 -1.35803 0
M  V30 28651 C 2706.01 3.9743 -1.49447 0
M  V30 28652 O 2707.03 3.30965 -1.31684 0
M  V30 28653 O 2705.89 5.16536 -1.78472 0
M  V30 28654 H 2702.98 0.792544 -0.236226 0
M  V30 28655 H 2705.53 1.24897 -1.14887 0
M  V30 28656 H 2704.3 3.09441 -2.39503 0
M  V30 28657 H 2703.93 3.87958 -0.870304 0
M  V30 28658 N 2704.92 0.830104 1.33967 0
M  V30 28659 C 2706.17 0.417963 1.97322 0
M  V30 28660 C 2706.48 -1.02615 1.66522 0
M  V30 28661 O 2707.69 -1.54255 2.23422 0
M  V30 28662 C 2706.15 0.696421 3.53098 0
M  V30 28663 C 2705.75 2.15463 3.92784 0
M  V30 28664 C 2707.5 0.350798 4.23048 0
M  V30 28665 C 2705.41 2.3776 5.41502 0
M  V30 28666 H 2704.34 0.152554 0.738406 0
M  V30 28667 H 2706.99 1.01746 1.52709 0
M  V30 28668 H 2705.37 0.02666 3.95991 0
M  V30 28669 H 2706.54 2.86415 3.60975 0
M  V30 28670 H 2704.86 2.46238 3.35791 0
M  V30 28671 H 2707.45 0.49513 5.32403 0
M  V30 28672 H 2707.8 -0.705404 4.1028 0
M  V30 28673 H 2708.33 0.97543 3.85656 0
M  V30 28674 H 2705.07 3.41913 5.59264 0
M  V30 28675 H 2704.59 1.7136 5.74801 0
M  V30 28676 H 2706.27 2.20476 6.08276 0
M  V30 28677 N 2706.4 -1.46311 0.585725 0
M  V30 28678 C 2707.63 -2.0726 0.0762826 0
M  V30 28679 C 2708.05 -1.43111 -1.22069 0
M  V30 28680 O 2707.41 -0.515973 -1.73803 0
M  V30 28681 C 2707.46 -3.60526 -0.072877 0
M  V30 28682 O 2706.56 -3.96656 -1.12863 0
M  V30 28683 H 2705.9 -0.660892 0.0641674 0
M  V30 28684 H 2708.43 -1.87904 0.809525 0
M  V30 28685 H 2708.44 -4.07051 -0.278086 0
M  V30 28686 H 2707.12 -4.06607 0.874259 0
M  V30 28687 H 2705.69 -3.61835 -0.901639 0
M  V30 28688 N 2707.88 -0.323668 -1.54241 0
M  V30 28689 C 2708.83 0.542237 -2.2434 0
M  V30 28690 C 2709.8 1.11157 -1.23423 0
M  V30 28691 O 2710.98 1.15189 -1.52106 0
M  V30 28692 C 2708.12 1.6972 -3.00482 0
M  V30 28693 C 2707.23 1.15709 -4.16216 0
M  V30 28694 C 2706.37 2.27774 -4.79888 0
M  V30 28695 C 2705.41 1.71012 -5.87725 0
M  V30 28696 N 2704.55 2.76741 -6.45259 0
M  V30 28697 H 2709.39 -0.0621137 -2.97935 0
M  V30 28698 H 2706.92 -0.0424252 -1.47039 0
M  V30 28699 H 2708.88 2.37684 -3.42874 0
M  V30 28700 H 2707.51 2.27283 -2.29221 0
M  V30 28701 H 2706.56 0.368996 -3.78606 0
M  V30 28702 H 2707.87 0.701745 -4.93839 0
M  V30 28703 H 2707.03 3.03642 -5.25249 0
M  V30 28704 H 2705.77 2.76645 -4.01645 0
M  V30 28705 H 2704.77 0.936422 -5.41767 0
M  V30 28706 H 2706 1.23018 -6.67865 0
M  V30 28707 H 2703.94 3.24902 -5.6989 0
M  V30 28708 H 2703.86 2.3577 -7.18296 0
M  V30 28709 H 2705.13 3.52437 -6.95276 0
M  V30 28710 N 2709.36 1.57515 -0.0518432 0
M  V30 28711 C 2710.29 2.14601 0.920246 0
M  V30 28712 C 2711.27 1.06785 1.32404 0
M  V30 28713 O 2712.45 1.34728 1.39864 0
M  V30 28714 C 2709.58 2.69154 2.19485 0
M  V30 28715 C 2708.54 3.81959 1.93109 0
M  V30 28716 C 2707.86 4.23031 3.2703 0
M  V30 28717 C 2709.16 5.07068 1.25217 0
M  V30 28718 H 2710.86 2.96078 0.444749 0
M  V30 28719 H 2708.4 1.42424 0.212483 0
M  V30 28720 H 2710.36 3.0773 2.87889 0
M  V30 28721 H 2709.08 1.8487 2.69241 0
M  V30 28722 H 2707.74 3.43856 1.27117 0
M  V30 28723 H 2707.39 3.35697 3.74589 0
M  V30 28724 H 2707.09 4.99061 3.1018 0
M  V30 28725 H 2708.61 4.64209 3.96665 0
M  V30 28726 H 2710.03 5.43087 1.83656 0
M  V30 28727 H 2708.42 5.88245 1.18691 0
M  V30 28728 H 2709.49 4.84362 0.228297 0
M  V30 28729 N 2710.84 -0.221546 1.56035 0
M  V30 28730 C 2711.78 -1.27456 1.92415 0
M  V30 28731 C 2712.75 -1.46575 0.781349 0
M  V30 28732 O 2713.94 -1.60143 1.03724 0
M  V30 28733 C 2711.08 -2.61991 2.24622 0
M  V30 28734 C 2710.19 -2.5067 3.51836 0
M  V30 28735 C 2709.33 -3.77729 3.73489 0
M  V30 28736 C 2708.36 -3.61131 4.94217 0
M  V30 28737 N 2707.5 -4.80139 5.1226 0
M  V30 28738 H 2712.34 -0.957306 2.82205 0
M  V30 28739 H 2709.88 -0.46139 1.39677 0
M  V30 28740 H 2711.84 -3.40335 2.41304 0
M  V30 28741 H 2710.47 -2.91812 1.38005 0
M  V30 28742 H 2709.52 -1.63761 3.43346 0
M  V30 28743 H 2710.83 -2.34327 4.40332 0
M  V30 28744 H 2709.98 -4.64516 3.90268 0
M  V30 28745 H 2708.72 -3.96998 2.83273 0
M  V30 28746 H 2707.73 -2.72728 4.77388 0
M  V30 28747 H 2708.95 -3.43332 5.85918 0
M  V30 28748 H 2706.9 -4.99722 4.24987 0
M  V30 28749 H 2706.82 -4.66522 5.94889 0
M  V30 28750 H 2708.08 -5.68353 5.33475 0
M  V30 28751 N 2712.31 -1.49846 -0.48825 0
M  V30 28752 C 2713.24 -1.70373 -1.59672 0
M  V30 28753 C 2714.22 -0.552501 -1.60877 0
M  V30 28754 O 2715.41 -0.789761 -1.77416 0
M  V30 28755 C 2712.54 -1.78205 -2.98094 0
M  V30 28756 C 2711.49 -2.93244 -3.11756 0
M  V30 28757 C 2710.82 -2.86201 -4.51656 0
M  V30 28758 C 2712.12 -4.34004 -2.90581 0
M  V30 28759 H 2713.81 -2.6318 -1.42747 0
M  V30 28760 H 2711.36 -1.26648 -0.685295 0
M  V30 28761 H 2713.31 -1.91151 -3.75552 0
M  V30 28762 H 2712.04 -0.820073 -3.16137 0
M  V30 28763 H 2710.7 -2.79922 -2.36727 0
M  V30 28764 H 2710.34 -1.87885 -4.66592 0
M  V30 28765 H 2710.04 -3.6342 -4.61735 0
M  V30 28766 H 2711.57 -3.01172 -5.31157 0
M  V30 28767 H 2712.98 -4.47942 -3.578 0
M  V30 28768 H 2711.38 -5.12543 -3.12121 0
M  V30 28769 H 2712.45 -4.47564 -1.86587 0
M  V30 28770 N 2713.79 0.740218 -1.39135 0
M  V30 28771 C 2714.75 1.83585 -1.3722 0
M  V30 28772 C 2715.75 1.58513 -0.270249 0
M  V30 28773 O 2716.94 1.66009 -0.527872 0
M  V30 28774 C 2714.08 3.21286 -1.13964 0
M  V30 28775 H 2715.27 1.86687 -2.34708 0
M  V30 28776 H 2712.82 0.943328 -1.24623 0
M  V30 28777 H 2713.56 3.23847 -0.171367 0
M  V30 28778 H 2713.34 3.40881 -1.9376 0
M  V30 28779 H 2714.83 4.01352 -1.15353 0
M  V30 28780 N 2715.27 1.24225 0.969846 0
M  V30 28781 C 2716.2 1.05733 2.08189 0
M  V30 28782 C 2717.18 -0.0290466 1.70075 0
M  V30 28783 O 2718.37 0.137617 1.93712 0
M  V30 28784 C 2715.5 0.659055 3.40989 0
M  V30 28785 C 2714.45 1.69396 3.93051 0
M  V30 28786 C 2713.78 1.15081 5.22169 0
M  V30 28787 C 2715.08 3.08943 4.21132 0
M  V30 28788 H 2716.77 1.9875 2.23917 0
M  V30 28789 H 2714.32 0.956986 1.076 0
M  V30 28790 H 2716.27 0.516694 4.1822 0
M  V30 28791 H 2714.99 -0.306802 3.25156 0
M  V30 28792 H 2713.65 1.8245 3.17974 0
M  V30 28793 H 2713.3 0.175627 5.02693 0
M  V30 28794 H 2713 1.84238 5.57969 0
M  V30 28795 H 2714.52 1.02053 6.02011 0
M  V30 28796 H 2715.94 2.9913 4.89075 0
M  V30 28797 H 2714.33 3.75433 4.68156 0
M  V30 28798 H 2715.4 3.57142 3.2799 0
M  V30 28799 N 2716.75 -1.1702 1.05565 0
M  V30 28800 C 2718.02 -1.83337 0.681683 0
M  V30 28801 C 2718.4 -1.9377 -0.837631 0
M  V30 28802 O 2717.75 -1.47514 -1.74505 0
M  V30 28803 C 2717.96 -3.2077 1.37506 0
M  V30 28804 C 2719.31 -3.96632 1.51552 0
M  V30 28805 O 2720.33 -3.30262 1.33437 0
M  V30 28806 O 2719.19 -5.15583 1.81209 0
M  V30 28807 H 2716.29 -0.79128 0.240425 0
M  V30 28808 H 2718.83 -1.24286 1.15547 0
M  V30 28809 H 2717.61 -3.08167 2.41141 0
M  V30 28810 H 2717.23 -3.87491 0.890866 0
M  V30 28811 N 2718.23 -0.837197 -1.33524 0
M  V30 28812 C 2719.17 -0.26721 -2.29248 0
M  V30 28813 C 2720.14 0.616044 -1.54253 0
M  V30 28814 O 2721.33 0.554667 -1.8256 0
M  V30 28815 C 2718.47 0.553092 -3.40639 0
M  V30 28816 C 2717.58 -0.353997 -4.30547 0
M  V30 28817 C 2716.72 0.477246 -5.29052 0
M  V30 28818 C 2715.75 -0.428338 -6.10599 0
M  V30 28819 N 2714.89 0.364678 -7.01152 0
M  V30 28820 H 2719.73 -1.08882 -2.77396 0
M  V30 28821 H 2717.27 -0.548404 -1.36495 0
M  V30 28822 H 2719.23 1.04415 -4.03923 0
M  V30 28823 H 2717.86 1.33968 -2.93687 0
M  V30 28824 H 2716.91 -0.963353 -3.68 0
M  V30 28825 H 2718.22 -1.04973 -4.87629 0
M  V30 28826 H 2717.37 1.0322 -5.97855 0
M  V30 28827 H 2716.11 1.20642 -4.72543 0
M  V30 28828 H 2715.12 -0.995314 -5.40716 0
M  V30 28829 H 2716.34 -1.15585 -6.69191 0
M  V30 28830 H 2714.29 1.07726 -6.47094 0
M  V30 28831 H 2714.21 -0.27237 -7.55509 0
M  V30 28832 H 2715.47 0.901918 -7.74265 0
M  V30 28833 N 2719.7 1.45999 -0.593476 0
M  V30 28834 C 2720.93 2.06408 -0.0890005 0
M  V30 28835 C 2721.34 1.44108 1.22595 0
M  V30 28836 O 2720.68 0.544429 1.75447 0
M  V30 28837 C 2720.75 3.59228 0.139839 0
M  V30 28838 C 2720.41 4.43783 -1.09115 0
M  V30 28839 C 2721.41 4.79647 -2.00586 0
M  V30 28840 C 2719.09 4.84754 -1.31602 0
M  V30 28841 C 2721.09 5.55323 -3.12883 0
M  V30 28842 C 2718.77 5.60186 -2.44202 0
M  V30 28843 C 2719.77 5.95386 -3.34671 0
M  V30 28844 O 2719.46 6.69291 -4.45314 0
M  V30 28845 H 2719.19 0.673379 -0.0594732 0
M  V30 28846 H 2721.75 1.88451 -0.817033 0
M  V30 28847 H 2719.98 3.75533 0.922606 0
M  V30 28848 H 2721.66 4.01528 0.594157 0
M  V30 28849 H 2722.43 4.48564 -1.84433 0
M  V30 28850 H 2718.31 4.568 -0.620881 0
M  V30 28851 H 2721.85 5.82715 -3.83521 0
M  V30 28852 H 2717.75 5.90684 -2.60313 0
M  V30 28853 H 2718.52 6.87727 -4.43817 0
M  V30 28854 N 2721.18 0.331843 1.54067 0
M  V30 28855 C 2722.46 -0.322921 1.92916 0
M  V30 28856 C 2722.84 -1.69203 1.26228 0
M  V30 28857 O 2722.19 -2.24811 0.408958 0
M  V30 28858 C 2722.4 -0.406885 3.4662 0
M  V30 28859 C 2723.75 -0.663265 4.19388 0
M  V30 28860 O 2724.77 -0.489474 3.52821 0
M  V30 28861 O 2723.63 -0.999099 5.3729 0
M  V30 28862 H 2720.72 -0.186001 0.805812 0
M  V30 28863 H 2723.27 0.382164 1.65341 0
M  V30 28864 H 2722.04 0.554355 3.87353 0
M  V30 28865 H 2721.66 -1.15922 3.80326 0
M  V30 28866 N 2722.66 -1.57485 0.0601958 0
M  V30 28867 C 2723.91 -1.93331 -0.612467 0
M  V30 28868 C 2724.24 -0.939556 -1.69959 0
M  V30 28869 O 2723.51 0.0330616 -1.94472 0
M  V30 28870 C 2723.8 -3.39511 -1.20019 0
M  V30 28871 C 2723.65 -4.49639 -0.120511 0
M  V30 28872 C 2724.97 -3.86267 -2.10916 0
M  V30 28873 H 2722.09 -0.70303 -0.221172 0
M  V30 28874 H 2724.73 -1.89596 0.123801 0
M  V30 28875 H 2722.88 -3.42824 -1.82768 0
M  V30 28876 H 2724.55 -4.58451 0.51193 0
M  V30 28877 H 2722.8 -4.30295 0.550327 0
M  V30 28878 H 2723.47 -5.49029 -0.571922 0
M  V30 28879 H 2725.94 -3.84887 -1.58118 0
M  V30 28880 H 2724.82 -4.89184 -2.48978 0
M  V30 28881 H 2725.08 -3.23541 -3.01286 0
M  V30 28882 N 2724.14 0.213268 -1.5615 0
M  V30 28883 C 2725.42 0.961251 -1.70351 0
M  V30 28884 C 2725.8 2.021 -0.609827 0
M  V30 28885 O 2725.14 2.25285 0.381948 0
M  V30 28886 C 2725.35 1.56418 -3.11985 0
M  V30 28887 C 2726.7 2.05328 -3.71653 0
M  V30 28888 O 2727.73 1.66296 -3.14998 0
M  V30 28889 O 2726.58 2.77094 -4.71043 0
M  V30 28890 H 2723.68 0.44957 -0.694129 0
M  V30 28891 H 2726.22 0.204397 -1.68465 0
M  V30 28892 H 2725 0.799389 -3.83048 0
M  V30 28893 H 2724.62 2.38636 -3.18023 0
M  V30 28894 N 2725.62 1.50103 0.480296 0
M  V30 28895 C 2726.55 1.71218 1.58766 0
M  V30 28896 C 2727.53 0.561025 1.60582 0
M  V30 28897 O 2728.71 0.799158 1.76995 0
M  V30 28898 C 2725.84 1.79783 2.97145 0
M  V30 28899 C 2724.8 2.94894 3.10196 0
M  V30 28900 C 2724.12 2.88592 4.50132 0
M  V30 28901 C 2725.42 4.35539 2.88276 0
M  V30 28902 H 2727.12 2.63933 1.4135 0
M  V30 28903 H 2724.66 1.2701 0.678569 0
M  V30 28904 H 2726.62 1.9314 3.74533 0
M  V30 28905 H 2725.34 0.836827 3.15697 0
M  V30 28906 H 2724 2.81173 2.35239 0
M  V30 28907 H 2723.65 1.90357 4.65589 0
M  V30 28908 H 2723.35 3.65864 4.59801 0
M  V30 28909 H 2724.87 3.03985 5.29552 0
M  V30 28910 H 2726.28 4.49834 3.55419 0
M  V30 28911 H 2724.68 5.14191 3.09399 0
M  V30 28912 H 2725.75 4.48547 1.84211 0
M  V30 28913 N 2727.09 -0.732829 1.39526 0
M  V30 28914 C 2728.51 -1.3112 1.32908 0
M  V30 28915 C 2728.86 -1.96199 -0.00555259 0
M  V30 28916 O 2727.98 -1.96444 -0.907672 0
M  V30 28917 C 2728.58 -2.38422 2.40708 0
M  V30 28918 C 2727.14 -2.91927 2.37604 0
M  V30 28919 C 2726.28 -1.65519 2.22483 0
M  V30 28920 H 2729.23 -0.530181 1.49582 0
M  V30 28921 H 2729.25 -3.18863 2.07622 0
M  V30 28922 H 2728.77 -1.91027 3.37832 0
M  V30 28923 H 2726.87 -3.43597 1.44125 0
M  V30 28924 H 2726.98 -3.44894 3.32544 0
M  V30 28925 H 2725.34 -1.89937 1.69694 0
M  V30 28926 H 2726.13 -1.20173 3.2158 0
M  V30 28927 N 2728.57 -1.24737 -0.963244 0
M  V30 28928 C 2729.51 -0.986888 -2.05757 0
M  V30 28929 C 2730.48 0.0808987 -1.62399 0
M  V30 28930 O 2731.67 -0.0569678 -1.88414 0
M  V30 28931 C 2728.79 -0.490154 -3.35135 0
M  V30 28932 C 2727.84 -1.54716 -3.97448 0
M  V30 28933 S 2728.67 -3.12983 -4.34513 0
M  V30 28934 C 2729.83 -2.65024 -5.67021 0
M  V30 28935 H 2730.06 -1.9135 -2.27536 0
M  V30 28936 H 2727.6 -1.08171 -1.10174 0
M  V30 28937 H 2729.55 -0.210192 -4.09962 0
M  V30 28938 H 2728.21 0.415818 -3.11335 0
M  V30 28939 H 2727.41 -1.15012 -4.90702 0
M  V30 28940 H 2727.01 -1.77736 -3.29068 0
M  V30 28941 H 2729.3 -2.08113 -6.44744 0
M  V30 28942 H 2730.24 -3.56884 -6.11588 0
M  V30 28943 H 2730.65 -2.05303 -5.25843 0
M  V30 28944 N 2730.05 1.16459 -1.06184 0
M  V30 28945 C 2731.3 1.86301 -0.77296 0
M  V30 28946 C 2731.61 1.82524 0.703155 0
M  V30 28947 O 2732.82 2.47935 1.10637 0
M  V30 28948 C 2731.27 3.34322 -1.33254 0
M  V30 28949 C 2730.88 3.46576 -2.83882 0
M  V30 28950 C 2732.63 4.09427 -1.12115 0
M  V30 28951 C 2730.53 4.88676 -3.33091 0
M  V30 28952 H 2729.46 0.697873 -0.285464 0
M  V30 28953 H 2732.11 1.31445 -1.28041 0
M  V30 28954 H 2730.5 3.88777 -0.752868 0
M  V30 28955 H 2731.67 3.02287 -3.47792 0
M  V30 28956 H 2729.99 2.84903 -3.03676 0
M  V30 28957 H 2732.58 5.14276 -1.4637 0
M  V30 28958 H 2732.93 4.16258 -0.0594564 0
M  V30 28959 H 2733.46 3.61207 -1.66656 0
M  V30 28960 H 2730.2 4.87024 -4.38734 0
M  V30 28961 H 2729.72 5.33594 -2.73929 0
M  V30 28962 H 2731.4 5.57488 -3.28353 0
M  V30 28963 N 2731.53 0.844266 1.33079 0
M  V30 28964 C 2732.76 0.456238 2.01807 0
M  V30 28965 C 2733.17 -0.944102 1.635 0
M  V30 28966 O 2732.53 -1.61442 0.851049 0
M  V30 28967 C 2732.58 0.573576 3.56921 0
M  V30 28968 O 2732.3 1.91874 3.93847 0
M  V30 28969 C 2733.8 0.183203 4.42921 0
M  V30 28970 H 2731.02 0.180489 0.64627 0
M  V30 28971 H 2733.57 1.13833 1.69889 0
M  V30 28972 H 2731.72 -0.0606686 3.87352 0
M  V30 28973 H 2732.13 1.90811 4.88561 0
M  V30 28974 H 2733.61 0.316337 5.51093 0
M  V30 28975 H 2734.09 -0.875401 4.30387 0
M  V30 28976 H 2734.69 0.7921 4.17859 0
M  V30 28977 N 2733.01 -1.45682 0.60121 0
M  V30 28978 C 2734.25 -2.02282 0.0939167 0
M  V30 28979 C 2734.58 -1.47043 -1.27313 0
M  V30 28980 O 2733.84 -0.632655 -1.85192 0
M  V30 28981 C 2734.14 -3.574 -0.00216142 0
M  V30 28982 C 2733.8 -4.31762 1.2997 0
M  V30 28983 C 2732.46 -4.51795 1.65633 0
M  V30 28984 C 2734.82 -4.74317 2.16038 0
M  V30 28985 C 2732.14 -5.11639 2.87128 0
M  V30 28986 C 2734.5 -5.35504 3.36776 0
M  V30 28987 C 2733.16 -5.53762 3.72698 0
M  V30 28988 H 2732.43 -0.740203 0.0343665 0
M  V30 28989 H 2735.08 -1.74826 0.781552 0
M  V30 28990 H 2733.38 -3.84098 -0.773028 0
M  V30 28991 H 2735.08 -3.98891 -0.410724 0
M  V30 28992 H 2731.67 -4.16478 1.01211 0
M  V30 28993 H 2735.85 -4.58579 1.89786 0
M  V30 28994 H 2731.11 -5.23964 3.15074 0
M  V30 28995 H 2735.28 -5.67434 4.03723 0
M  V30 28996 H 2732.91 -5.99901 4.66929 0
M  V30 28997 N 2734.48 -0.340009 -1.53889 0
M  V30 28998 C 2735.41 0.510816 -2.27844 0
M  V30 28999 C 2736.4 1.1056 -1.29269 0
M  V30 29000 O 2737.58 1.12766 -1.58106 0
M  V30 29001 C 2734.71 1.66367 -3.0486 0
M  V30 29002 C 2733.66 1.19739 -4.10909 0
M  V30 29003 C 2732.99 2.43848 -4.75859 0
M  V30 29004 C 2734.29 0.30041 -5.21435 0
M  V30 29005 H 2735.98 -0.10612 -2.99212 0
M  V30 29006 H 2733.53 -0.0524786 -1.43904 0
M  V30 29007 H 2735.48 2.26531 -3.55333 0
M  V30 29008 H 2734.21 2.30745 -2.31137 0
M  V30 29009 H 2732.87 0.618591 -3.61343 0
M  V30 29010 H 2732.51 3.06626 -3.98735 0
M  V30 29011 H 2732.21 2.13333 -5.47506 0
M  V30 29012 H 2733.74 3.04744 -5.29115 0
M  V30 29013 H 2735.15 0.80879 -5.67566 0
M  V30 29014 H 2733.55 0.0873021 -6.00036 0
M  V30 29015 H 2734.62 -0.664406 -4.80327 0
M  V30 29016 N 2735.96 1.57451 -0.0685468 0
M  V30 29017 C 2736.91 2.12537 0.899824 0
M  V30 29018 C 2737.88 1.03705 1.29748 0
M  V30 29019 O 2739.07 1.3135 1.3839 0
M  V30 29020 C 2736.21 2.68884 2.16323 0
M  V30 29021 C 2735.32 3.9186 1.8185 0
M  V30 29022 C 2734.45 4.36462 3.02778 0
M  V30 29023 C 2733.49 5.52094 2.64307 0
M  V30 29024 N 2732.63 5.91669 3.77984 0
M  V30 29025 H 2737.47 2.9498 0.423191 0
M  V30 29026 H 2735.01 1.45772 0.197242 0
M  V30 29027 H 2736.96 2.9966 2.90275 0
M  V30 29028 H 2735.59 1.89211 2.61532 0
M  V30 29029 H 2734.65 3.67567 0.979743 0
M  V30 29030 H 2735.96 4.75855 1.49545 0
M  V30 29031 H 2735.11 4.68882 3.85012 0
M  V30 29032 H 2733.85 3.51314 3.38275 0
M  V30 29033 H 2732.86 5.19329 1.80494 0
M  V30 29034 H 2734.08 6.38971 2.29984 0
M  V30 29035 H 2732.03 5.09472 4.13249 0
M  V30 29036 H 2731.94 6.70396 3.49435 0
M  V30 29037 H 2733.21 6.28711 4.60807 0
M  V30 29038 N 2737.44 -0.204984 1.56261 0
M  V30 29039 C 2738.72 -0.952203 1.70858 0
M  V30 29040 C 2739.1 -2.01774 0.620536 0
M  V30 29041 O 2738.45 -2.25485 -0.369995 0
M  V30 29042 C 2738.66 -1.54761 3.1281 0
M  V30 29043 C 2740 -2.03354 3.72736 0
M  V30 29044 O 2741.03 -1.64623 3.15876 0
M  V30 29045 O 2739.89 -2.74592 4.72506 0
M  V30 29046 H 2736.98 -0.445883 0.696504 0
M  V30 29047 H 2739.53 -0.19546 1.68571 0
M  V30 29048 H 2738.3 -0.779064 3.83466 0
M  V30 29049 H 2737.92 -2.36946 3.19284 0
M  V30 29050 N 2738.92 -1.50356 -0.472329 0
M  V30 29051 C 2739.83 -1.71913 -1.59634 0
M  V30 29052 C 2740.85 -0.602224 -1.63246 0
M  V30 29053 O 2742.02 -0.880401 -1.81138 0
M  V30 29054 C 2739.09 -1.80748 -2.95857 0
M  V30 29055 C 2738.15 -3.04476 -3.02643 0
M  V30 29056 C 2737.38 -3.12879 -4.32368 0
M  V30 29057 O 2737.6 -2.28108 -5.22803 0
M  V30 29058 O 2736.54 -4.05595 -4.44721 0
M  V30 29059 H 2740.36 -2.67192 -1.44369 0
M  V30 29060 H 2737.95 -1.34437 -0.651694 0
M  V30 29061 H 2739.83 -1.88746 -3.76767 0
M  V30 29062 H 2738.51 -0.886524 -3.11324 0
M  V30 29063 H 2737.41 -3.01979 -2.20816 0
M  V30 29064 H 2738.75 -3.96145 -2.92112 0
M  V30 29065 N 2740.4 0.725419 -1.39912 0
M  V30 29066 C 2741.33 1.85252 -1.42141 0
M  V30 29067 C 2742.31 1.6772 -0.283542 0
M  V30 29068 O 2743.49 1.87897 -0.49075 0
M  V30 29069 C 2740.62 3.23105 -1.27359 0
M  V30 29070 C 2739.58 3.55291 -2.38646 0
M  V30 29071 C 2738.9 4.92184 -2.08947 0
M  V30 29072 C 2740.2 3.57288 -3.80976 0
M  V30 29073 H 2741.9 1.83644 -2.36464 0
M  V30 29074 H 2739.44 0.882118 -1.13819 0
M  V30 29075 H 2741.4 4.01637 -1.27537 0
M  V30 29076 H 2740.12 3.25264 -0.295083 0
M  V30 29077 H 2738.78 2.79094 -2.37701 0
M  V30 29078 H 2738.43 4.90934 -1.09511 0
M  V30 29079 H 2738.13 5.14686 -2.835 0
M  V30 29080 H 2739.65 5.73061 -2.10791 0
M  V30 29081 H 2741.07 4.25878 -3.83798 0
M  V30 29082 H 2739.46 3.91312 -4.54967 0
M  V30 29083 H 2740.53 2.56883 -4.11265 0
M  V30 29084 N 2741.88 1.25246 0.956615 0
M  V30 29085 C 2743.29 1.02025 1.22732 0
M  V30 29086 C 2743.49 -0.264151 1.99761 0
M  V30 29087 O 2742.55 -0.977395 2.32816 0
M  V30 29088 C 2743.86 2.24221 2.00363 0
M  V30 29089 C 2745.41 2.28962 2.13414 0
M  V30 29090 C 2745.88 3.50809 2.94444 0
M  V30 29091 N 2747.37 3.51193 3.02023 0
M  V30 29092 C 2748.11 4.42135 3.65108 0
M  V30 29093 N 2747.61 5.43347 4.29821 0
M  V30 29094 N 2749.4 4.29821 3.62229 0
M  V30 29095 H 2741.55 2.07766 0.441246 0
M  V30 29096 H 2743.81 0.91231 0.25767 0
M  V30 29097 H 2743.52 3.17559 1.51159 0
M  V30 29098 H 2743.39 2.27233 3.01073 0
M  V30 29099 H 2745.78 1.36148 2.61816 0
M  V30 29100 H 2745.86 2.2997 1.12016 0
M  V30 29101 H 2745.5 4.43943 2.46733 0
M  V30 29102 H 2745.43 3.47046 3.96064 0
M  V30 29103 H 2747.93 2.77977 2.56002 0
M  V30 29104 H 2748.24 6.08955 4.75809 0
M  V30 29105 H 2746.58 5.47221 4.28455 0
M  V30 29106 H 2749.77 3.49979 3.10857 0
M  V30 29107 H 2749.95 5.00893 4.11109 0
M  V30 29108 N 2743.35 -1.15894 1.068 0
M  V30 29109 C 2744.3 -2.20452 0.683352 0
M  V30 29110 C 2745.27 -1.62939 -0.322521 0
M  V30 29111 O 2746.46 -1.89638 -0.210242 0
M  V30 29112 C 2743.6 -3.45004 0.0813872 0
M  V30 29113 C 2742.71 -4.1674 1.13806 0
M  V30 29114 C 2741.84 -5.28826 0.501691 0
M  V30 29115 C 2740.88 -5.92371 1.54154 0
M  V30 29116 N 2740.02 -6.95938 0.92816 0
M  V30 29117 H 2744.86 -2.52706 1.57936 0
M  V30 29118 H 2742.4 -1.24114 0.789566 0
M  V30 29119 H 2744.35 -4.16224 -0.285201 0
M  V30 29120 H 2742.98 -3.13284 -0.778005 0
M  V30 29121 H 2742.04 -3.44073 1.62229 0
M  V30 29122 H 2743.35 -4.60086 1.92672 0
M  V30 29123 H 2742.5 -6.06644 0.0824228 0
M  V30 29124 H 2741.24 -4.86657 -0.318797 0
M  V30 29125 H 2740.25 -5.13269 1.97065 0
M  V30 29126 H 2741.47 -6.36617 2.36422 0
M  V30 29127 H 2739.42 -6.55874 0.128475 0
M  V30 29128 H 2739.33 -7.37682 1.65414 0
M  V30 29129 H 2740.6 -7.77667 0.534208 0
M  V30 29130 N 2744.83 -0.851312 -1.32629 0
M  V30 29131 C 2745.78 -0.291509 -2.28952 0
M  V30 29132 C 2746.75 0.599649 -1.54898 0
M  V30 29133 O 2747.93 0.535272 -1.83138 0
M  V30 29134 C 2745.07 0.516932 -3.41206 0
M  V30 29135 C 2744.19 -0.399642 -4.30147 0
M  V30 29136 C 2743.32 0.421106 -5.29528 0
M  V30 29137 C 2742.36 -0.493076 -6.10111 0
M  V30 29138 N 2741.5 0.29029 -7.015 0
M  V30 29139 H 2746.34 -1.11818 -2.76226 0
M  V30 29140 H 2743.87 -0.56285 -1.35906 0
M  V30 29141 H 2745.83 1.00125 -4.05007 0
M  V30 29142 H 2744.46 1.30846 -2.95092 0
M  V30 29143 H 2743.51 -1.00233 -3.66957 0
M  V30 29144 H 2744.83 -1.10139 -4.86488 0
M  V30 29145 H 2743.98 0.968727 -5.98916 0
M  V30 29146 H 2742.72 1.15623 -4.73796 0
M  V30 29147 H 2741.72 -1.05261 -5.3963 0
M  V30 29148 H 2742.95 -1.22676 -6.67928 0
M  V30 29149 H 2740.9 1.00857 -6.482 0
M  V30 29150 H 2740.81 -0.352487 -7.55178 0
M  V30 29151 H 2742.08 0.819746 -7.75178 0
M  V30 29152 N 2746.31 1.45361 -0.608928 0
M  V30 29153 C 2747.59 1.95566 -0.0365721 0
M  V30 29154 C 2747.97 1.55134 1.43167 0
M  V30 29155 O 2747.31 0.814551 2.13488 0
M  V30 29156 C 2747.52 3.48201 -0.236087 0
M  V30 29157 C 2748.87 4.24437 -0.117593 0
M  V30 29158 O 2749.9 3.55812 -0.16628 0
M  V30 29159 O 2748.76 5.465 -0.00381733 0
M  V30 29160 H 2745.85 0.82626 0.0349729 0
M  V30 29161 H 2748.4 1.5552 -0.679083 0
M  V30 29162 H 2747.17 3.70603 -1.25575 0
M  V30 29163 H 2746.79 3.9514 0.441622 0
M  V30 29164 N 2747.79 0.348166 1.53706 0
M  V30 29165 C 2748.73 -0.506478 2.25174 0
M  V30 29166 C 2749.7 -1.09179 1.25176 0
M  V30 29167 O 2750.89 -1.12755 1.53919 0
M  V30 29168 C 2748.03 -1.64918 3.03144 0
M  V30 29169 C 2747.14 -1.09073 4.18004 0
M  V30 29170 C 2746.28 -2.20111 4.83451 0
M  V30 29171 C 2745.32 -1.61641 5.90372 0
M  V30 29172 N 2744.45 -2.6644 6.4958 0
M  V30 29173 H 2749.29 0.109505 2.97799 0
M  V30 29174 H 2746.83 0.0658124 1.46953 0
M  V30 29175 H 2748.79 -2.32199 3.46612 0
M  V30 29176 H 2747.42 -2.23608 2.32807 0
M  V30 29177 H 2746.47 -0.308717 3.79145 0
M  V30 29178 H 2747.78 -0.623091 4.94893 0
M  V30 29179 H 2746.94 -2.95248 5.30013 0
M  V30 29180 H 2745.68 -2.7022 4.05996 0
M  V30 29181 H 2744.68 -0.850114 5.43188 0
M  V30 29182 H 2745.91 -1.12378 6.69737 0
M  V30 29183 H 2743.85 -3.15795 5.74987 0
M  V30 29184 H 2743.77 -2.24312 7.21956 0
M  V30 29185 H 2745.04 -3.41332 7.00795 0
M  V30 29186 N 2749.27 -1.57412 0.0768958 0
M  V30 29187 C 2750.51 -1.92858 -0.590645 0
M  V30 29188 C 2750.83 -0.959323 -1.70459 0
M  V30 29189 O 2752.03 -1.2068 -2.43205 0
M  V30 29190 C 2750.49 -3.42614 -1.10198 0
M  V30 29191 C 2750.1 -4.47996 -0.018766 0
M  V30 29192 C 2751.84 -3.87052 -1.74329 0
M  V30 29193 C 2749.75 -5.88889 -0.544433 0
M  V30 29194 H 2748.68 -0.719834 -0.224398 0
M  V30 29195 H 2751.33 -1.82886 0.149956 0
M  V30 29196 H 2749.71 -3.47677 -1.89571 0
M  V30 29197 H 2750.89 -4.54556 0.756016 0
M  V30 29198 H 2749.2 -4.13056 0.526628 0
M  V30 29199 H 2751.8 -4.89702 -2.14699 0
M  V30 29200 H 2752.14 -3.24699 -2.60531 0
M  V30 29201 H 2752.67 -3.84615 -1.0157 0
M  V30 29202 H 2749.41 -6.54899 0.280541 0
M  V30 29203 H 2748.93 -5.85838 -1.28662 0
M  V30 29204 H 2750.61 -6.38922 -1.01922 0
M  V30 29205 N 2750.74 0.196695 -1.56368 0
M  V30 29206 C 2751.71 1.22743 -1.93563 0
M  V30 29207 C 2752.71 1.38522 -0.81659 0
M  V30 29208 O 2753.9 1.36362 -1.08403 0
M  V30 29209 C 2751.03 2.59708 -2.20827 0
M  V30 29210 H 2752.22 0.909536 -2.85775 0
M  V30 29211 H 2749.78 0.438148 -1.50033 0
M  V30 29212 H 2750.51 2.96554 -1.31248 0
M  V30 29213 H 2750.3 2.49626 -3.02372 0
M  V30 29214 H 2751.79 3.34039 -2.50614 0
M  V30 29215 N 2752.22 1.50604 0.464349 0
M  V30 29216 C 2753.19 1.694 1.5439 0
M  V30 29217 C 2754.19 0.56453 1.50565 0
M  V30 29218 O 2755.38 0.831672 1.53065 0
M  V30 29219 C 2752.51 1.72548 2.94007 0
M  V30 29220 H 2753.7 2.65722 1.3904 0
M  V30 29221 H 2751.25 1.40186 0.691195 0
M  V30 29222 H 2751.99 0.779435 3.14794 0
M  V30 29223 H 2751.77 2.54607 2.9819 0
M  V30 29224 H 2753.26 1.89021 3.72372 0
M  V30 29225 N 2753.7 -0.717989 1.40295 0
M  V30 29226 C 2754.95 -1.47491 1.38169 0
M  V30 29227 C 2755.27 -1.94993 -0.0160357 0
M  V30 29228 O 2754.54 -1.70178 -0.970367 0
M  V30 29229 H 2753.12 -0.547194 0.508515 0
M  V30 29230 H 2755.78 -0.851291 1.75326 0
M  V30 29231 H 2754.88 -2.3489 2.05507 0
M  V30 29232 N 2755.18 -1.25752 -0.94996 0
M  V30 29233 C 2756.13 -1.06544 -2.04736 0
M  V30 29234 C 2757.1 0.0268526 -1.66078 0
M  V30 29235 O 2758.28 -0.131229 -1.90348 0
M  V30 29236 C 2755.42 -0.695186 -3.38025 0
M  V30 29237 C 2754.53 -1.86282 -3.89773 0
M  V30 29238 C 2753.67 -1.43649 -5.11408 0
M  V30 29239 C 2752.71 -2.57297 -5.55396 0
M  V30 29240 N 2751.84 -2.15407 -6.6824 0
M  V30 29241 H 2756.68 -2.0046 -2.20499 0
M  V30 29242 H 2754.22 -0.998197 -1.08048 0
M  V30 29243 H 2756.18 -0.461448 -4.1464 0
M  V30 29244 H 2754.81 0.20699 -3.22136 0
M  V30 29245 H 2753.86 -2.20974 -3.09636 0
M  V30 29246 H 2755.17 -2.71613 -4.18363 0
M  V30 29247 H 2754.33 -1.16268 -5.95455 0
M  V30 29248 H 2753.07 -0.553964 -4.84544 0
M  V30 29249 H 2752.07 -2.85418 -4.69911 0
M  V30 29250 H 2753.3 -3.46135 -5.84266 0
M  V30 29251 H 2751.24 -1.29577 -6.43075 0
M  V30 29252 H 2751.16 -2.94284 -6.96371 0
M  V30 29253 H 2752.43 -1.91214 -7.55683 0
M  V30 29254 N 2756.66 1.15326 -1.07413 0
M  V30 29255 C 2757.88 1.90008 -0.818816 0
M  V30 29256 C 2758.3 1.78048 0.628041 0
M  V30 29257 O 2757.66 1.13285 1.43083 0
M  V30 29258 C 2757.71 3.40334 -1.2188 0
M  V30 29259 O 2757.43 3.5195 -2.60889 0
M  V30 29260 C 2758.93 4.32038 -0.992872 0
M  V30 29261 H 2756.15 0.602175 -0.296017 0
M  V30 29262 H 2758.69 1.46115 -1.43076 0
M  V30 29263 H 2756.85 3.81888 -0.651171 0
M  V30 29264 H 2757.26 4.4525 -2.77223 0
M  V30 29265 H 2758.74 5.3593 -1.32225 0
M  V30 29266 H 2759.21 4.39143 0.0707559 0
M  V30 29267 H 2759.82 3.96228 -1.54544 0
M  V30 29268 N 2758.13 0.858334 1.32176 0
M  V30 29269 C 2759.55 0.548682 1.49872 0
M  V30 29270 C 2759.75 -0.919842 1.7928 0
M  V30 29271 O 2758.81 -1.70268 1.86454 0
M  V30 29272 C 2760.12 1.43885 2.64041 0
M  V30 29273 C 2761.67 1.43966 2.77926 0
M  V30 29274 C 2762.14 2.31513 3.95178 0
M  V30 29275 N 2763.63 2.29329 4.02446 0
M  V30 29276 C 2764.37 2.93795 4.92415 0
M  V30 29277 N 2763.86 3.67387 5.87366 0
M  V30 29278 N 2765.66 2.83163 4.85567 0
M  V30 29279 H 2757.81 1.8087 1.11354 0
M  V30 29280 H 2760.07 0.772739 0.549162 0
M  V30 29281 H 2759.78 2.48328 2.4905 0
M  V30 29282 H 2759.65 1.12891 3.5991 0
M  V30 29283 H 2762.04 0.402864 2.92337 0
M  V30 29284 H 2762.12 1.78977 1.82759 0
M  V30 29285 H 2761.76 3.35262 3.81525 0
M  V30 29286 H 2761.69 1.93832 4.89629 0
M  V30 29287 H 2764.18 1.75827 3.34504 0
M  V30 29288 H 2764.5 4.13734 6.52721 0
M  V30 29289 H 2762.84 3.71495 5.87381 0
M  V30 29290 H 2766.03 2.25218 4.10359 0
M  V30 29291 H 2766.21 3.33685 5.5548 0
M  V30 29292 N 2759.61 -1.45036 0.616628 0
M  V30 29293 C 2760.86 -2.02471 0.115537 0
M  V30 29294 C 2761.19 -1.48282 -1.25404 0
M  V30 29295 O 2760.47 -0.661083 -1.82921 0
M  V30 29296 C 2760.75 -3.59996 0.0864221 0
M  V30 29297 C 2760.6 -4.24499 1.4873 0
M  V30 29298 C 2761.92 -4.36036 -0.596685 0
M  V30 29299 H 2759.04 -0.735718 0.0434591 0
M  V30 29300 H 2761.68 -1.72782 0.79033 0
M  V30 29301 H 2759.83 -3.8542 -0.488209 0
M  V30 29302 H 2761.5 -4.1023 2.10971 0
M  V30 29303 H 2759.75 -3.82551 2.04541 0
M  V30 29304 H 2760.42 -5.33447 1.41909 0
M  V30 29305 H 2762.89 -4.15959 -0.108166 0
M  V30 29306 H 2761.77 -5.45761 -0.586193 0
M  V30 29307 H 2762.03 -4.09572 -1.66444 0
M  V30 29308 N 2761.09 -0.356312 -1.53519 0
M  V30 29309 C 2762.34 0.237338 -2.00299 0
M  V30 29310 C 2762.65 1.50625 -1.24786 0
M  V30 29311 O 2763.86 2.17793 -1.62107 0
M  V30 29312 C 2762.31 0.473482 -3.56772 0
M  V30 29313 C 2761.92 -0.780261 -4.41153 0
M  V30 29314 C 2763.67 1.02529 -4.11932 0
M  V30 29315 C 2761.57 -0.514211 -5.8916 0
M  V30 29316 H 2760.5 0.0924649 -0.748309 0
M  V30 29317 H 2763.15 -0.473619 -1.77283 0
M  V30 29318 H 2761.54 1.24547 -3.75904 0
M  V30 29319 H 2762.71 -1.55433 -4.33794 0
M  V30 29320 H 2761.03 -1.25462 -3.97049 0
M  V30 29321 H 2763.62 1.23951 -5.20135 0
M  V30 29322 H 2763.97 1.98467 -3.65946 0
M  V30 29323 H 2764.5 0.313705 -3.96561 0
M  V30 29324 H 2761.24 -1.44366 -6.39405 0
M  V30 29325 H 2760.76 0.221527 -5.99391 0
M  V30 29326 H 2762.44 -0.136236 -6.46857 0
M  V30 29327 N 2762.57 1.57369 -0.0852427 0
M  V30 29328 C 2763.48 2.16994 0.891674 0
M  V30 29329 C 2764.49 1.13671 1.31738 0
M  V30 29330 O 2765.67 1.45998 1.38732 0
M  V30 29331 C 2762.74 2.73062 2.1363 0
M  V30 29332 C 2761.8 3.91306 1.76573 0
M  V30 29333 C 2761.03 4.44691 2.95103 0
M  V30 29334 O 2761.25 3.97039 4.09532 0
M  V30 29335 O 2760.19 5.35846 2.7414 0
M  V30 29336 H 2764.01 3.00859 0.414424 0
M  V30 29337 H 2761.6 1.48756 0.138572 0
M  V30 29338 H 2763.48 3.0894 2.8659 0
M  V30 29339 H 2762.15 1.92249 2.60427 0
M  V30 29340 H 2761.06 3.60257 1.00824 0
M  V30 29341 H 2762.39 4.73453 1.34548 0
M  V30 29342 N 2764.05 -0.188399 1.5647 0
M  V30 29343 C 2765.01 -1.21715 1.94212 0
M  V30 29344 C 2766.01 -1.38087 0.823925 0
M  V30 29345 O 2767.2 -1.35785 1.09124 0
M  V30 29346 C 2764.33 -2.58533 2.22202 0
M  V30 29347 H 2765.52 -0.894367 2.86254 0
M  V30 29348 H 2763.08 -0.430185 1.50263 0
M  V30 29349 H 2763.81 -2.95854 1.32819 0
M  V30 29350 H 2763.6 -2.48019 3.03692 0
M  V30 29351 H 2765.09 -3.32705 2.52382 0
M  V30 29352 N 2765.53 -1.50848 -0.456355 0
M  V30 29353 C 2766.75 -1.6663 -1.23488 0
M  V30 29354 C 2767.18 -0.355287 -1.84714 0
M  V30 29355 O 2766.53 0.682529 -1.67962 0
M  V30 29356 C 2766.58 -2.77013 -2.3086 0
M  V30 29357 O 2765.69 -2.39291 -3.35877 0
M  V30 29358 H 2765.03 -0.55622 -0.36265 0
M  V30 29359 H 2767.56 -1.97309 -0.54134 0
M  V30 29360 H 2767.57 -3.00531 -2.75944 0
M  V30 29361 H 2766.24 -3.72155 -1.85671 0
M  V30 29362 H 2764.82 -2.26274 -2.96402 0
M  V30 29363 N 2767 0.710538 -1.40674 0
M  V30 29364 C 2768.23 1.50462 -1.42744 0
M  V30 29365 C 2768.65 1.88076 -0.0302447 0
M  V30 29366 O 2768.01 1.53615 0.962918 0
M  V30 29367 C 2768.06 2.75318 -2.32878 0
M  V30 29368 O 2767.16 3.72222 -1.77551 0
M  V30 29369 H 2766.5 0.453441 -0.485064 0
M  V30 29370 H 2769.03 0.874648 -1.84962 0
M  V30 29371 H 2769.04 3.23792 -2.48239 0
M  V30 29372 H 2767.72 2.47277 -3.34405 0
M  V30 29373 H 2766.3 3.3109 -1.71562 0
M  V30 29374 N 2768.48 1.26254 0.943277 0
M  V30 29375 C 2769.73 1.11065 1.68367 0
M  V30 29376 C 2770.04 -0.34607 1.92514 0
M  V30 29377 O 2771.25 -0.618599 2.64359 0
M  V30 29378 C 2769.71 1.93952 3.03168 0
M  V30 29379 C 2769.31 3.44186 2.86776 0
M  V30 29380 C 2771.06 1.87366 3.80912 0
M  V30 29381 C 2768.96 4.19326 4.17036 0
M  V30 29382 H 2767.89 0.412034 0.631462 0
M  V30 29383 H 2770.55 1.50546 1.0492 0
M  V30 29384 H 2768.93 1.47302 3.67584 0
M  V30 29385 H 2770.1 3.98589 2.31222 0
M  V30 29386 H 2768.42 3.51985 2.22476 0
M  V30 29387 H 2771.01 2.40792 4.77413 0
M  V30 29388 H 2771.36 0.843928 4.07656 0
M  V30 29389 H 2771.89 2.31827 3.23266 0
M  V30 29390 H 2768.63 5.2276 3.95478 0
M  V30 29391 H 2768.15 3.69704 4.72312 0
M  V30 29392 H 2769.83 4.2766 4.85506 0
M  V30 29393 N 2769.96 -1.14755 1.08024 0
M  V30 29394 C 2770.91 -2.21781 0.701127 0
M  V30 29395 C 2771.9 -1.66877 -0.291281 0
M  V30 29396 O 2773.11 -1.79338 -0.154264 0
M  V30 29397 H 2769.48 -0.722465 0.208681 0
M  V30 29398 H 2771.45 -2.51031 1.61326 0
M  V30 29399 C 2770.2 -3.47485 0.122339 0
M  V30 29400 H 2769.53 -3.90059 0.877134 0
M  V30 29401 H 2770.97 -4.2387 -0.105173 0
M  V30 29402 C 2769.42 -3.1707 -1.13877 0
M  V30 29403 O 2769.95 -3.34501 -2.22424 0
M  V30 29404 N 2768.16 -2.71059 -1.04762 0
M  V30 29405 H 2767.71 -2.57076 -0.164257 0
M  V30 29406 H 2767.67 -2.51084 -1.8922 0
M  V30 29407 N 2771.44 -0.865331 -1.31719 0
M  V30 29408 C 2772.71 -0.394823 -1.91574 0
M  V30 29409 C 2773.09 1.12268 -1.78771 0
M  V30 29410 O 2772.44 1.94916 -1.19248 0
M  V30 29411 C 2772.65 -0.871042 -3.37955 0
M  V30 29412 C 2774 -0.894457 -4.15072 0
M  V30 29413 O 2775.02 -0.816386 -3.46718 0
M  V30 29414 O 2773.88 -1.0066 -5.3715 0
M  V30 29415 H 2770.98 -0.117243 -0.818647 0
M  V30 29416 H 2773.52 -0.952938 -1.40418 0
M  V30 29417 H 2772.3 -1.9145 -3.41266 0
M  V30 29418 H 2771.92 -0.290977 -3.96534 0
M  V30 29419 N 2772.92 1.44707 -0.624311 0
M  V30 29420 C 2774.14 2.06472 -0.132955 0
M  V30 29421 C 2774.56 1.46604 1.18965 0
M  V30 29422 O 2773.92 0.586371 1.72823 0
M  V30 29423 C 2773.97 3.615 -0.00471772 0
M  V30 29424 O 2773.69 4.19136 -1.27501 0
M  V30 29425 C 2775.19 4.40285 0.516135 0
M  V30 29426 H 2772.41 0.666621 -0.0765318 0
M  V30 29427 H 2774.95 1.85686 -0.856783 0
M  V30 29428 H 2773.11 3.81571 0.669516 0
M  V30 29429 H 2773.52 5.12502 -1.11545 0
M  V30 29430 H 2775 5.49204 0.554897 0
M  V30 29431 H 2775.47 4.11247 1.54182 0
M  V30 29432 H 2776.08 4.25117 -0.124616 0
M  V30 29433 N 2774.39 0.364449 1.53328 0
M  V30 29434 C 2775.64 -0.226712 2.00422 0
M  V30 29435 C 2775.96 -1.49961 1.25583 0
M  V30 29436 O 2777.16 -2.1693 1.6326 0
M  V30 29437 C 2775.62 -0.454555 3.57018 0
M  V30 29438 C 2775.23 0.803645 4.40733 0
M  V30 29439 C 2776.97 -1.00343 4.1247 0
M  V30 29440 C 2774.88 0.545449 5.88879 0
M  V30 29441 H 2773.81 -0.0884951 0.748789 0
M  V30 29442 H 2776.46 0.483014 1.77029 0
M  V30 29443 H 2774.84 -1.22551 3.7656 0
M  V30 29444 H 2776.01 1.57731 4.32964 0
M  V30 29445 H 2774.33 1.27566 3.96378 0
M  V30 29446 H 2776.93 -1.21191 5.20785 0
M  V30 29447 H 2777.27 -1.96523 3.66994 0
M  V30 29448 H 2777.8 -0.29267 3.96722 0
M  V30 29449 H 2774.54 1.47755 6.3863 0
M  V30 29450 H 2774.06 -0.189737 5.995 0
M  V30 29451 H 2775.74 0.170538 6.46775 0
M  V30 29452 N 2775.87 -1.57322 0.0935872 0
M  V30 29453 C 2776.8 -2.16966 -0.863024 0
M  V30 29454 C 2777.78 -1.10258 -1.29527 0
M  V30 29455 O 2778.97 -1.38389 -1.36243 0
M  V30 29456 C 2776.1 -2.74878 -2.12272 0
M  V30 29457 C 2775.05 -3.86945 -1.82915 0
M  V30 29458 C 2774.38 -4.31553 -3.15699 0
M  V30 29459 C 2775.68 -5.1021 -1.11728 0
M  V30 29460 H 2777.37 -2.97153 -0.366093 0
M  V30 29461 H 2774.92 -1.42937 -0.174647 0
M  V30 29462 H 2776.87 -3.15255 -2.79629 0
M  V30 29463 H 2775.59 -1.91943 -2.64245 0
M  V30 29464 H 2774.25 -3.47105 -1.17955 0
M  V30 29465 H 2773.9 -3.4551 -3.65557 0
M  V30 29466 H 2773.6 -5.07109 -2.9684 0
M  V30 29467 H 2775.13 -4.74562 -3.84217 0
M  V30 29468 H 2776.54 -5.47765 -1.69193 0
M  V30 29469 H 2774.94 -5.91185 -1.03053 0
M  V30 29470 H 2776.01 -4.84797 -0.0997966 0
M  V30 29471 N 2777.35 0.180099 -1.56568 0
M  V30 29472 C 2778.6 0.898135 -1.81493 0
M  V30 29473 C 2778.92 1.82623 -0.669257 0
M  V30 29474 O 2778.18 1.92652 0.344062 0
M  V30 29475 C 2778.48 1.7339 -3.12523 0
M  V30 29476 C 2778.14 0.955489 -4.4066 0
M  V30 29477 C 2776.81 0.740623 -4.75466 0
M  V30 29478 C 2779.16 0.408857 -5.19594 0
M  V30 29479 C 2776.49 -0.0321159 -5.86691 0
M  V30 29480 C 2778.84 -0.350749 -6.31627 0
M  V30 29481 C 2777.5 -0.576495 -6.65006 0
M  V30 29482 H 2776.77 0.328651 -0.664131 0
M  V30 29483 H 2779.42 0.163583 -1.908 0
M  V30 29484 H 2777.72 2.53758 -2.9852 0
M  V30 29485 H 2779.42 2.29235 -3.29017 0
M  V30 29486 H 2776.01 1.13299 -4.13354 0
M  V30 29487 H 2780.2 0.56222 -4.93105 0
M  V30 29488 H 2775.45 -0.216843 -6.11015 0
M  V30 29489 H 2779.63 -0.781619 -6.92 0
M  V30 29490 H 2777.25 -1.17716 -7.51031 0
M  V30 29491 N 2778.83 1.51088 0.448349 0
M  V30 29492 C 2780.24 1.39019 0.783959 0
M  V30 29493 C 2780.44 0.463938 1.96086 0
M  V30 29494 O 2779.5 -0.0850091 2.52357 0
M  V30 29495 C 2780.81 2.80841 1.07467 0
M  V30 29496 C 2782.36 2.89915 1.17976 0
M  V30 29497 C 2782.84 4.3262 1.50347 0
M  V30 29498 N 2784.33 4.35675 1.57293 0
M  V30 29499 C 2785.06 5.43113 1.8389 0
M  V30 29500 N 2784.56 6.60727 2.08353 0
M  V30 29501 N 2786.35 5.30581 1.85581 0
M  V30 29502 H 2778.5 2.09869 -0.326918 0
M  V30 29503 H 2780.76 0.944287 -0.0838172 0
M  V30 29504 H 2780.47 3.50562 0.282706 0
M  V30 29505 H 2780.34 3.1949 2.00514 0
M  V30 29506 H 2782.73 2.20398 1.96236 0
M  V30 29507 H 2782.81 2.54777 0.228558 0
M  V30 29508 H 2782.46 5.02682 0.726185 0
M  V30 29509 H 2782.39 4.65262 2.46655 0
M  V30 29510 H 2784.88 3.50876 1.40336 0
M  V30 29511 H 2785.19 7.38405 2.27986 0
M  V30 29512 H 2783.54 6.63862 2.05698 0
M  V30 29513 H 2786.73 4.37685 1.65981 0
M  V30 29514 H 2786.9 6.14394 2.05972 0
M  V30 29515 N 2780.31 -0.703068 1.41049 0
M  V30 29516 C 2781.53 -1.49199 1.43343 0
M  V30 29517 C 2781.95 -1.88765 0.0365928 0
M  V30 29518 O 2781.31 -1.56286 -0.942391 0
M  V30 29519 C 2781.36 -2.75935 2.33543 0
M  V30 29520 O 2781.08 -2.38038 3.6779 0
M  V30 29521 C 2782.58 -3.69736 2.44562 0
M  V30 29522 H 2779.8 -0.460031 0.48848 0
M  V30 29523 H 2782.34 -0.866257 1.85246 0
M  V30 29524 H 2780.5 -3.34763 1.94968 0
M  V30 29525 H 2780.91 -3.19676 4.15822 0
M  V30 29526 H 2782.39 -4.55466 3.11857 0
M  V30 29527 H 2782.86 -4.13708 1.47454 0
M  V30 29528 H 2783.47 -3.16814 2.83741 0
M  V30 29529 N 2781.78 -1.26752 -0.936569 0
M  V30 29530 C 2783.03 -1.12736 -1.68578 0
M  V30 29531 C 2783.36 0.327711 -1.91415 0
M  V30 29532 O 2782.64 1.2404 -1.49814 0
M  V30 29533 C 2782.92 -1.90193 -3.05776 0
M  V30 29534 C 2782.77 -3.43632 -2.90236 0
M  V30 29535 C 2784.09 -1.69939 -4.05967 0
M  V30 29536 H 2781.21 -0.410919 -0.611812 0
M  V30 29537 H 2783.85 -1.55803 -1.08745 0
M  V30 29538 H 2782 -1.5359 -3.56851 0
M  V30 29539 H 2783.68 -3.90014 -2.46347 0
M  V30 29540 H 2781.92 -3.70423 -2.25763 0
M  V30 29541 H 2782.59 -3.93062 -3.87565 0
M  V30 29542 H 2785.07 -2.01836 -3.6387 0
M  V30 29543 H 2783.94 -2.26543 -4.9997 0
M  V30 29544 H 2784.2 -0.645097 -4.37368 0
M  V30 29545 N 2783.26 1.1418 -1.08631 0
M  V30 29546 C 2784.49 1.88855 -0.837706 0
M  V30 29547 C 2784.9 1.7896 0.613992 0
M  V30 29548 O 2784.24 1.14836 1.43382 0
M  V30 29549 C 2784.31 3.39457 -1.18361 0
M  V30 29550 C 2783.97 3.73135 -2.63855 0
M  V30 29551 C 2784.97 3.73062 -3.62106 0
M  V30 29552 C 2782.65 4.03044 -2.99768 0
M  V30 29553 C 2784.65 4.02426 -4.94299 0
M  V30 29554 C 2782.33 4.32071 -4.32155 0
M  V30 29555 C 2783.33 4.31746 -5.2923 0
M  V30 29556 O 2783.02 4.60067 -6.59237 0
M  V30 29557 H 2782.75 0.604981 -0.30162 0
M  V30 29558 H 2785.3 1.45516 -1.44963 0
M  V30 29559 H 2783.53 3.83259 -0.514696 0
M  V30 29560 H 2785.22 3.95442 -0.91546 0
M  V30 29561 H 2785.99 3.5004 -3.35704 0
M  V30 29562 H 2781.87 4.02449 -2.24847 0
M  V30 29563 H 2785.41 4.02088 -5.70062 0
M  V30 29564 H 2781.31 4.54563 -4.58304 0
M  V30 29565 H 2782.08 4.77773 -6.64586 0
M  V30 29566 N 2784.74 0.872304 1.31258 0
M  V30 29567 C 2785.99 0.483443 1.96233 0
M  V30 29568 C 2786.31 -0.967982 1.69278 0
M  V30 29569 O 2785.58 -1.67889 1.00946 0
M  V30 29570 H 2784.16 0.175787 0.726022 0
M  V30 29571 H 2786.82 1.1126 1.60022 0
M  V30 29572 H 2785.92 0.643129 3.05402 0
M  V30 29573 N 2786.22 -1.44374 0.631976 0
M  V30 29574 C 2787.17 -2.32446 -0.0846284 0
M  V30 29575 C 2788.16 -1.47395 -0.834931 0
M  V30 29576 O 2789.37 -1.63734 -0.747735 0
M  V30 29577 H 2785.74 -0.750583 -0.0461376 0
M  V30 29578 H 2787.71 -2.90636 0.676241 0
M  V30 29579 C 2786.46 -3.31402 -1.05205 0
M  V30 29580 H 2785.78 -3.96858 -0.484133 0
M  V30 29581 H 2787.22 -3.95705 -1.52293 0
M  V30 29582 C 2785.68 -2.60391 -2.13771 0
M  V30 29583 O 2786.21 -2.40346 -3.21865 0
M  V30 29584 N 2784.42 -2.20116 -1.89729 0
M  V30 29585 H 2783.97 -2.36619 -1.01829 0
M  V30 29586 H 2783.92 -1.72931 -2.62569 0
M  V30 29587 N 2787.7 -0.372575 -1.53133 0
M  V30 29588 C 2788.63 0.462372 -2.28876 0
M  V30 29589 C 2789.61 1.07793 -1.31585 0
M  V30 29590 O 2790.79 1.09387 -1.60462 0
M  V30 29591 C 2787.92 1.59863 -3.0832 0
M  V30 29592 C 2786.88 1.10996 -4.13357 0
M  V30 29593 C 2786.2 2.337 -4.80925 0
M  V30 29594 C 2787.5 0.189738 -5.21955 0
M  V30 29595 H 2789.2 -0.169563 -2.98919 0
M  V30 29596 H 2786.74 -0.0829911 -1.43761 0
M  V30 29597 H 2788.7 2.18942 -3.60059 0
M  V30 29598 H 2787.42 2.2579 -2.3598 0
M  V30 29599 H 2786.08 0.541805 -3.62574 0
M  V30 29600 H 2785.73 2.98099 -4.05149 0
M  V30 29601 H 2785.43 2.01672 -5.51908 0
M  V30 29602 H 2786.95 2.93453 -5.35461 0
M  V30 29603 H 2788.36 0.688219 -5.69154 0
M  V30 29604 H 2786.76 -0.0399942 -6.00087 0
M  V30 29605 H 2787.83 -0.766141 -4.78809 0
M  V30 29606 N 2789.17 1.5727 -0.101929 0
M  V30 29607 C 2790.42 1.94598 0.560163 0
M  V30 29608 C 2790.75 0.98413 1.67765 0
M  V30 29609 O 2790 0.00492633 1.95699 0
M  V30 29610 C 2790.3 3.38429 1.14893 0
M  V30 29611 C 2789.97 4.50635 0.154534 0
M  V30 29612 C 2788.63 4.81053 -0.118945 0
M  V30 29613 C 2790.98 5.18559 -0.524071 0
M  V30 29614 C 2788.31 5.76719 -1.07761 0
M  V30 29615 C 2790.66 6.15254 -1.47125 0
M  V30 29616 C 2789.33 6.44073 -1.75289 0
M  V30 29617 H 2788.6 0.712085 0.204978 0
M  V30 29618 H 2791.24 1.9066 -0.179213 0
M  V30 29619 H 2789.55 3.38979 1.9647 0
M  V30 29620 H 2791.25 3.64616 1.66902 0
M  V30 29621 H 2787.84 4.26931 0.377873 0
M  V30 29622 H 2792.02 4.95229 -0.325938 0
M  V30 29623 H 2787.28 5.9736 -1.30274 0
M  V30 29624 H 2791.45 6.66977 -2.00285 0
M  V30 29625 H 2789.08 7.1801 -2.4973 0
M  V30 29626 N 2790.65 -0.171793 1.56661 0
M  V30 29627 C 2791.88 -0.908132 1.86461 0
M  V30 29628 C 2792.3 -1.75058 0.688212 0
M  V30 29629 O 2791.66 -1.77635 -0.362722 0
M  V30 29630 C 2791.71 -1.76107 3.14672 0
M  V30 29631 O 2790.81 -2.86263 2.96863 0
M  V30 29632 H 2790.15 -0.254423 0.613323 0
M  V30 29633 H 2792.68 -0.170077 2.03892 0
M  V30 29634 H 2792.69 -2.16109 3.46065 0
M  V30 29635 H 2791.37 -1.14226 3.99907 0
M  V30 29636 H 2789.95 -2.49847 2.76823 0
M  V30 29637 N 2792.13 -1.51324 -0.44033 0
M  V30 29638 C 2793.08 -1.72422 -1.53426 0
M  V30 29639 C 2794.05 -0.565854 -1.56164 0
M  V30 29640 O 2795.23 -0.799948 -1.73221 0
M  V30 29641 C 2792.37 -1.85247 -2.91166 0
M  V30 29642 C 2791.49 -3.12782 -2.97979 0
M  V30 29643 C 2790.62 -3.1622 -4.26824 0
M  V30 29644 C 2789.66 -4.38082 -4.27494 0
M  V30 29645 N 2788.8 -4.39086 -5.47858 0
M  V30 29646 H 2793.64 -2.658 -1.34739 0
M  V30 29647 H 2791.17 -1.31733 -0.654585 0
M  V30 29648 H 2793.13 -1.90664 -3.71084 0
M  V30 29649 H 2791.76 -0.952798 -3.08418 0
M  V30 29650 H 2790.81 -3.16688 -2.10743 0
M  V30 29651 H 2792.13 -4.02701 -2.94335 0
M  V30 29652 H 2791.28 -3.20537 -5.15113 0
M  V30 29653 H 2790.02 -2.24184 -4.3312 0
M  V30 29654 H 2789.02 -4.33944 -3.37598 0
M  V30 29655 H 2790.25 -5.31378 -4.22864 0
M  V30 29656 H 2788.19 -3.49919 -5.54881 0
M  V30 29657 H 2788.11 -5.2281 -5.46082 0
M  V30 29658 H 2789.38 -4.47591 -6.38187 0
M  V30 29659 N 2793.61 0.695578 -1.41419 0
M  V30 29660 C 2794.86 1.45562 -1.40776 0
M  V30 29661 C 2795.18 1.94493 -0.0168946 0
M  V30 29662 O 2794.44 1.69899 0.971229 0
M  V30 29663 C 2794.74 2.68298 -2.36117 0
M  V30 29664 C 2794.4 2.38024 -3.82956 0
M  V30 29665 C 2793.07 2.29478 -4.22958 0
M  V30 29666 C 2795.42 2.13053 -4.75666 0
M  V30 29667 C 2792.75 1.94058 -5.53677 0
M  V30 29668 C 2795.1 1.79141 -6.06705 0
M  V30 29669 C 2793.76 1.69091 -6.45728 0
M  V30 29670 H 2793.03 0.532649 -0.515137 0
M  V30 29671 H 2795.68 0.795016 -1.74218 0
M  V30 29672 H 2793.98 3.39292 -1.9593 0
M  V30 29673 H 2795.68 3.26438 -2.32893 0
M  V30 29674 H 2792.27 2.4557 -3.51274 0
M  V30 29675 H 2796.45 2.186 -4.45565 0
M  V30 29676 H 2791.71 1.84829 -5.82793 0
M  V30 29677 H 2795.88 1.58838 -6.78044 0
M  V30 29678 H 2793.51 1.41413 -7.46931 0
M  V30 29679 N 2795.09 1.27247 0.929833 0
M  V30 29680 C 2796.04 1.06445 2.01627 0
M  V30 29681 C 2797.02 -0.00685014 1.60899 0
M  V30 29682 O 2798.21 0.211438 1.75733 0
M  V30 29683 C 2795.34 0.71142 3.35848 0
M  V30 29684 C 2794.43 1.82076 3.83026 0
M  V30 29685 N 2794.82 3.06 4.02738 0
M  V30 29686 C 2793.12 1.70695 4.12043 0
M  V30 29687 C 2793.82 3.78175 4.41994 0
M  V30 29688 N 2792.79 3.05926 4.49344 0
M  V30 29689 H 2796.6 2.00493 2.14895 0
M  V30 29690 H 2794.11 1.17931 1.11652 0
M  V30 29691 H 2796.11 0.543514 4.13342 0
M  V30 29692 H 2794.77 -0.22146 3.23944 0
M  V30 29693 H 2795.78 3.41784 3.89106 0
M  V30 29694 H 2792.46 0.844752 4.08865 0
M  V30 29695 H 2793.85 4.84672 4.65342 0
M  V30 29696 N 2796.57 -1.13603 1.09235 0
M  V30 29697 C 2797.5 -2.21067 0.751776 0
M  V30 29698 C 2798.48 -1.67949 -0.269659 0
M  V30 29699 O 2799.66 -1.93708 -0.138156 0
M  V30 29700 C 2796.79 -3.46887 0.169411 0
M  V30 29701 C 2795.75 -4.13082 1.12014 0
M  V30 29702 C 2795.07 -5.33205 0.399577 0
M  V30 29703 C 2796.37 -4.60646 2.46176 0
M  V30 29704 H 2798.07 -2.49812 1.65029 0
M  V30 29705 H 2795.61 -1.20071 0.794926 0
M  V30 29706 H 2797.56 -4.21322 -0.0809084 0
M  V30 29707 H 2796.29 -3.17532 -0.76428 0
M  V30 29708 H 2794.95 -3.40612 1.3557 0
M  V30 29709 H 2794.6 -5.00113 -0.538189 0
M  V30 29710 H 2794.3 -5.7844 1.03347 0
M  V30 29711 H 2795.82 -6.10397 0.157511 0
M  V30 29712 H 2797.23 -5.26514 2.26838 0
M  V30 29713 H 2795.63 -5.16614 3.05335 0
M  V30 29714 H 2796.7 -3.75271 3.07083 0
M  V30 29715 N 2798.04 -0.879253 -1.30793 0
M  V30 29716 C 2798.99 -0.331152 -2.30231 0
M  V30 29717 C 2799.99 0.558766 -1.59919 0
M  V30 29718 O 2801.19 0.443835 -1.74442 0
M  V30 29719 H 2797.57 -0.0884221 -0.746783 0
M  V30 29720 H 2799.54 -1.18358 -2.73923 0
M  V30 29721 C 2798.29 0.444341 -3.44849 0
M  V30 29722 H 2797.61 -0.231176 -3.99131 0
M  V30 29723 H 2799.05 0.793036 -4.16518 0
M  V30 29724 C 2797.51 1.63921 -2.94332 0
M  V30 29725 O 2798.04 2.73857 -2.9388 0
M  V30 29726 N 2796.24 1.47445 -2.50416 0
M  V30 29727 H 2795.79 0.580106 -2.50983 0
M  V30 29728 H 2795.75 2.2753 -2.16973 0
M  V30 29729 N 2799.52 1.44037 -0.639624 0
M  V30 29730 C 2800.93 1.85292 -0.228899 0
M  V30 29731 C 2801.28 1.53531 1.22158 0
M  V30 29732 O 2800.41 0.977552 1.93062 0
M  V30 29733 C 2801 3.36326 -0.408651 0
M  V30 29734 C 2799.56 3.76364 -0.0523615 0
M  V30 29735 C 2798.71 2.67843 -0.718006 0
M  V30 29736 H 2801.66 1.34382 -0.844218 0
M  V30 29737 H 2801.68 3.78888 0.349901 0
M  V30 29738 H 2801.19 3.59411 -1.46442 0
M  V30 29739 H 2799.29 3.58893 1.00134 0
M  V30 29740 H 2799.41 4.76805 -0.468345 0
M  V30 29741 H 2797.77 2.54243 -0.152504 0
M  V30 29742 H 2798.55 2.93759 -1.77653 0
M  V30 29743 N 2801 0.380691 1.52933 0
M  V30 29744 C 2802.25 -0.203839 2.01069 0
M  V30 29745 C 2802.57 -1.48038 1.26925 0
M  V30 29746 O 2801.84 -1.92043 0.38682 0
M  V30 29747 H 2800.42 -0.0783148 0.742883 0
M  V30 29748 H 2803.08 0.510401 1.88098 0
M  V30 29749 H 2802.18 -0.420156 3.09259 0
M  V30 29750 N 2802.48 -1.57214 0.110268 0
M  V30 29751 C 2803.72 -1.95181 -0.55065 0
M  V30 29752 C 2804.06 -0.993151 -1.66884 0
M  V30 29753 O 2803.33 -0.0288249 -1.94479 0
M  V30 29754 C 2803.61 -3.43157 -1.09157 0
M  V30 29755 C 2803.47 -4.49794 0.0225989 0
M  V30 29756 C 2804.79 -3.92782 -1.98521 0
M  V30 29757 H 2801.91 -0.709711 -0.198694 0
M  V30 29758 H 2804.55 -1.89106 0.184057 0
M  V30 29759 H 2802.7 -3.48465 -1.71769 0
M  V30 29760 H 2804.37 -4.5659 0.657524 0
M  V30 29761 H 2802.61 -4.28326 0.686943 0
M  V30 29762 H 2803.28 -5.50571 -0.396963 0
M  V30 29763 H 2805.76 -3.89723 -1.45793 0
M  V30 29764 H 2804.64 -4.96857 -2.33289 0
M  V30 29765 H 2804.9 -3.32963 -2.90841 0
M  V30 29766 N 2803.96 0.163482 -1.5675 0
M  V30 29767 C 2805.2 0.880136 -1.82706 0
M  V30 29768 C 2805.53 1.81554 -0.689342 0
M  V30 29769 O 2804.81 1.92043 0.30819 0
M  V30 29770 C 2805.09 1.66899 -3.19087 0
M  V30 29771 C 2804.95 0.756191 -4.43398 0
M  V30 29772 C 2806.26 2.63503 -3.52497 0
M  V30 29773 H 2803.38 0.318524 -0.664614 0
M  V30 29774 H 2806.03 0.146003 -1.89438 0
M  V30 29775 H 2804.18 2.29485 -3.13479 0
M  V30 29776 H 2805.85 0.142609 -4.6108 0
M  V30 29777 H 2804.09 0.0647181 -4.33752 0
M  V30 29778 H 2804.76 1.34383 -5.35392 0
M  V30 29779 H 2807.24 2.11041 -3.5861 0
M  V30 29780 H 2806.11 3.15759 -4.48985 0
M  V30 29781 H 2806.37 3.44077 -2.77603 0
M  V30 29782 N 2805.43 1.51555 0.432299 0
M  V30 29783 C 2806.66 1.68288 1.20361 0
M  V30 29784 C 2807.08 0.382363 1.84888 0
M  V30 29785 O 2806.43 -0.639597 1.70925 0
M  V30 29786 C 2806.48 2.80212 2.28393 0
M  V30 29787 O 2806.21 4.05225 1.66505 0
M  V30 29788 C 2807.71 3.08257 3.18579 0
M  V30 29789 H 2804.93 0.564603 0.362581 0
M  V30 29790 H 2807.47 1.97997 0.511612 0
M  V30 29791 H 2805.63 2.53088 2.93301 0
M  V30 29792 H 2806.04 4.67422 2.37942 0
M  V30 29793 H 2807.51 3.90141 3.90504 0
M  V30 29794 H 2807.99 2.20867 3.79624 0
M  V30 29795 H 2808.6 3.3706 2.59366 0
M  V30 29796 N 2806.91 -0.688069 1.41786 0
M  V30 29797 C 2808.16 -1.44527 1.41267 0
M  V30 29798 C 2808.48 -1.94984 0.0253289 0
M  V30 29799 O 2807.75 -1.72198 -0.934051 0
M  V30 29800 H 2806.33 -0.536285 0.520007 0
M  V30 29801 H 2808.99 -0.81391 1.77092 0
M  V30 29802 H 2808.09 -2.30478 2.10443 0
M  V30 29803 N 2808.39 -1.27739 -0.923072 0
M  V30 29804 C 2809.63 -1.15589 -1.68578 0
M  V30 29805 C 2809.99 0.292528 -1.89758 0
M  V30 29806 O 2811.19 0.536537 -2.63391 0
M  V30 29807 C 2809.47 -1.92276 -3.01272 0
M  V30 29808 S 2811.02 -1.96394 -3.92396 0
M  V30 29809 H 2807.84 -0.412564 -0.579061 0
M  V30 29810 H 2810.44 -1.61711 -1.09863 0
M  V30 29811 H 2809.15 -2.96694 -2.8355 0
M  V30 29812 H 2808.68 -1.46667 -3.65037 0
M  V30 29813 H 2810.69 -1.0637 -4.84665 0
M  V30 29814 N 2809.87 1.13022 -1.09836 0
M  V30 29815 C 2810.83 2.16751 -0.745096 0
M  V30 29816 C 2811.83 1.59184 0.227407 0
M  V30 29817 O 2813.02 1.74199 0.00504798 0
M  V30 29818 C 2810.15 3.40746 -0.102603 0
M  V30 29819 H 2811.35 2.49515 -1.66379 0
M  V30 29820 H 2808.9 1.27922 -0.898083 0
M  V30 29821 H 2809.63 3.13575 0.827122 0
M  V30 29822 H 2809.42 3.83802 -0.802418 0
M  V30 29823 H 2810.91 4.17401 0.129009 0
M  V30 29824 N 2811.35 0.886177 1.30325 0
M  V30 29825 C 2812.59 0.505975 1.96387 0
M  V30 29826 C 2812.93 -0.942682 1.69786 0
M  V30 29827 O 2812.2 -1.66629 1.00325 0
M  V30 29828 C 2812.48 0.782887 3.51487 0
M  V30 29829 C 2812.34 2.28226 3.87599 0
M  V30 29830 C 2813.66 0.260205 4.3933 0
M  V30 29831 H 2810.77 0.185305 0.713324 0
M  V30 29832 H 2813.42 1.11039 1.54176 0
M  V30 29833 H 2811.57 0.268467 3.87571 0
M  V30 29834 H 2813.24 2.86518 3.61532 0
M  V30 29835 H 2811.48 2.74843 3.35625 0
M  V30 29836 H 2812.15 2.42662 4.95802 0
M  V30 29837 H 2814.63 0.700517 4.10161 0
M  V30 29838 H 2813.5 0.483276 5.46768 0
M  V30 29839 H 2813.77 -0.838598 4.34074 0
M  V30 29840 N 2812.82 -1.43695 0.647253 0
M  V30 29841 C 2814.07 -2.01482 0.157911 0
M  V30 29842 C 2814.39 -1.51285 -1.23036 0
M  V30 29843 O 2813.66 -0.723014 -1.8207 0
M  V30 29844 H 2812.24 -0.744944 0.0553876 0
M  V30 29845 H 2814.91 -1.75985 0.837581 0
M  V30 29846 H 2814 -3.11795 0.13795 0
M  V30 29847 N 2814.3 -0.388796 -1.52729 0
M  V30 29848 C 2815.54 0.193336 -2.03484 0
M  V30 29849 C 2815.91 1.44085 -1.269 0
M  V30 29850 O 2817.11 2.10011 -1.67777 0
M  V30 29851 C 2815.38 0.455263 -3.54489 0
M  V30 29852 S 2816.94 1.00775 -4.27071 0
M  V30 29853 H 2813.76 0.0545007 -0.708908 0
M  V30 29854 H 2816.36 -0.537026 -1.87979 0
M  V30 29855 H 2815.06 -0.459794 -4.07816 0
M  V30 29856 H 2814.59 1.21406 -3.74198 0
M  V30 29857 H 2816.61 2.29015 -4.40189 0
M  V30 29858 N 2815.78 1.57153 -0.118604 0
M  V30 29859 C 2817.06 1.86709 0.583029 0
M  V30 29860 C 2817.44 1.0197 1.84839 0
M  V30 29861 O 2816.79 0.0985074 2.28288 0
M  V30 29862 C 2817 3.37831 0.875853 0
M  V30 29863 C 2818.34 4.06422 1.22909 0
M  V30 29864 O 2819.37 3.42848 0.966127 0
M  V30 29865 O 2818.23 5.18641 1.72259 0
M  V30 29866 H 2815.32 0.772912 0.294171 0
M  V30 29867 H 2817.87 1.69008 -0.153077 0
M  V30 29868 H 2816.64 3.91294 -0.0208464 0
M  V30 29869 H 2816.26 3.60961 1.66713 0
M  V30 29870 N 2817.26 -0.155167 1.56834 0
M  V30 29871 C 2818.67 -0.716052 1.72423 0
M  V30 29872 C 2819.02 -1.82045 0.731717 0
M  V30 29873 O 2818.15 -2.16153 -0.103443 0
M  V30 29874 C 2818.74 -1.30566 3.12631 0
M  V30 29875 C 2817.3 -1.81319 3.29849 0
M  V30 29876 C 2816.45 -0.698447 2.6836 0
M  V30 29877 H 2819.4 0.070414 1.58544 0
M  V30 29878 H 2819.42 -2.17544 3.12177 0
M  V30 29879 H 2818.93 -0.501633 3.84844 0
M  V30 29880 H 2817.03 -2.64314 2.62619 0
M  V30 29881 H 2817.14 -1.94752 4.37731 0
M  V30 29882 H 2815.51 -1.12301 2.28606 0
M  V30 29883 H 2816.29 0.0939969 3.43171 0
M  V30 29884 N 2818.74 -1.51782 -0.424256 0
M  V30 29885 C 2819.65 -1.76905 -1.54084 0
M  V30 29886 C 2820.66 -0.653854 -1.61247 0
M  V30 29887 O 2821.84 -0.937583 -1.78245 0
M  V30 29888 C 2818.9 -1.90068 -2.89957 0
M  V30 29889 C 2817.96 -3.1395 -2.92803 0
M  V30 29890 C 2817.2 -3.26476 -4.22195 0
M  V30 29891 O 2817.42 -2.44625 -5.15281 0
M  V30 29892 O 2816.35 -4.19538 -4.31592 0
M  V30 29893 H 2820.18 -2.71649 -1.35795 0
M  V30 29894 H 2817.77 -1.36442 -0.608594 0
M  V30 29895 H 2819.65 -2.00637 -3.70571 0
M  V30 29896 H 2818.32 -0.985121 -3.08346 0
M  V30 29897 H 2817.23 -3.08851 -2.11097 0
M  V30 29898 H 2818.56 -4.05238 -2.79361 0
M  V30 29899 N 2820.21 0.68054 -1.42149 0
M  V30 29900 C 2821.44 1.469 -1.45699 0
M  V30 29901 C 2821.86 1.88682 -0.066619 0
M  V30 29902 O 2821.21 1.57765 0.917408 0
M  V30 29903 C 2821.27 2.72184 -2.37903 0
M  V30 29904 O 2820.99 2.32157 -3.7153 0
M  V30 29905 C 2822.49 3.65798 -2.50413 0
M  V30 29906 H 2819.71 0.452201 -0.495737 0
M  V30 29907 H 2822.25 0.836677 -1.86601 0
M  V30 29908 H 2820.41 3.31619 -2.00269 0
M  V30 29909 H 2820.82 3.1302 -4.20855 0
M  V30 29910 H 2822.29 4.50447 -3.19064 0
M  V30 29911 H 2822.77 4.11309 -1.54017 0
M  V30 29912 H 2823.38 3.1226 -2.88745 0
M  V30 29913 N 2821.69 1.28226 0.916285 0
M  V30 29914 C 2822.94 1.15232 1.66516 0
M  V30 29915 C 2823.27 -0.299598 1.92179 0
M  V30 29916 O 2822.52 -1.23458 1.51844 0
M  V30 29917 C 2822.82 1.89346 3.03122 0
M  V30 29918 C 2822.49 3.39154 2.97129 0
M  V30 29919 C 2821.15 3.80012 2.95202 0
M  V30 29920 C 2823.5 4.3469 2.87566 0
M  V30 29921 C 2820.83 5.14752 2.81509 0
M  V30 29922 C 2823.18 5.695 2.75414 0
M  V30 29923 C 2821.85 6.09637 2.71843 0
M  V30 29924 H 2821.12 0.421665 0.609327 0
M  V30 29925 H 2823.76 1.58971 1.06773 0
M  V30 29926 H 2822.07 1.38149 3.66636 0
M  V30 29927 H 2823.76 1.7671 3.59965 0
M  V30 29928 H 2820.35 3.06666 2.99422 0
M  V30 29929 H 2824.54 4.04087 2.88144 0
M  V30 29930 H 2819.79 5.44981 2.77138 0
M  V30 29931 H 2823.97 6.4319 2.66982 0
M  V30 29932 H 2821.6 7.13994 2.6099 0
M  V30 29933 N 2823.17 -1.12438 1.10433 0
M  V30 29934 C 2824.42 -1.84423 0.857897 0
M  V30 29935 C 2824.77 -1.82475 -0.609963 0
M  V30 29936 O 2824.06 -1.25935 -1.44399 0
M  V30 29937 C 2824.26 -3.31318 1.34028 0
M  V30 29938 C 2824.09 -3.47571 2.8535 0
M  V30 29939 C 2822.86 -3.61207 3.53352 0
M  V30 29940 C 2825.06 -3.42738 3.83452 0
M  V30 29941 N 2823.04 -3.65825 4.92996 0
M  V30 29942 C 2824.41 -3.53851 5.09107 0
M  V30 29943 C 2826.46 -3.26203 3.7616 0
M  V30 29944 C 2825.17 -3.50135 6.28329 0
M  V30 29945 C 2827.19 -3.238 4.94881 0
M  V30 29946 C 2826.55 -3.35474 6.19384 0
M  V30 29947 H 2822.65 -0.69057 0.366929 0
M  V30 29948 H 2825.24 -1.34611 1.4067 0
M  V30 29949 H 2823.41 -3.79671 0.818793 0
M  V30 29950 H 2825.14 -3.9116 1.03808 0
M  V30 29951 H 2821.9 -3.63324 3.03797 0
M  V30 29952 H 2822.32 -3.71799 5.65769 0
M  V30 29953 H 2826.96 -3.16071 2.80818 0
M  V30 29954 H 2824.68 -3.59037 7.2396 0
M  V30 29955 H 2828.27 -3.12188 4.90948 0
M  V30 29956 H 2827.15 -3.33589 7.0971 0
M  V30 29957 N 2824.65 -0.893076 -1.29853 0
M  V30 29958 C 2825.87 -0.530101 -2.00511 0
M  V30 29959 C 2826.3 0.876169 -1.66448 0
M  V30 29960 O 2825.66 1.58206 -0.885474 0
M  V30 29961 C 2825.71 -0.721567 -3.53307 0
M  V30 29962 O 2824.81 0.228922 -4.11764 0
M  V30 29963 H 2824.15 -0.207902 -0.630613 0
M  V30 29964 H 2826.68 -1.20285 -1.65508 0
M  V30 29965 H 2826.69 -0.623669 -4.03205 0
M  V30 29966 H 2825.37 -1.74684 -3.77436 0
M  V30 29967 H 2823.94 0.0840379 -3.72805 0
M  V30 29968 N 2826.13 1.4335 -0.654865 0
M  V30 29969 C 2827.07 2.30772 0.0357308 0
M  V30 29970 C 2828.04 1.44843 0.81301 0
M  V30 29971 O 2829.23 1.73709 0.789283 0
M  V30 29972 C 2826.37 3.30444 0.995025 0
M  V30 29973 C 2825.48 4.31471 0.213675 0
M  V30 29974 C 2824.62 5.18224 1.16692 0
M  V30 29975 C 2823.66 6.10943 0.376094 0
M  V30 29976 N 2822.79 6.90315 1.28101 0
M  V30 29977 H 2827.63 2.89279 -0.71564 0
M  V30 29978 H 2825.17 1.42508 -0.36467 0
M  V30 29979 H 2827.13 3.86741 1.56483 0
M  V30 29980 H 2825.76 2.73583 1.71325 0
M  V30 29981 H 2824.81 3.77455 -0.472444 0
M  V30 29982 H 2826.12 4.97184 -0.401191 0
M  V30 29983 H 2825.28 5.79156 1.8073 0
M  V30 29984 H 2824.02 4.52641 1.81569 0
M  V30 29985 H 2823.02 5.49099 -0.27763 0
M  V30 29986 H 2824.25 6.7857 -0.268298 0
M  V30 29987 H 2822.19 6.27379 1.91655 0
M  V30 29988 H 2822.11 7.52556 0.720747 0
M  V30 29989 H 2823.38 7.5575 1.90949 0
M  V30 29990 N 2827.61 0.39689 1.52521 0
M  V30 29991 C 2828.85 -0.184149 2.00858 0
M  V30 29992 C 2829.17 -1.47263 1.28736 0
M  V30 29993 O 2830.37 -2.13418 1.67824 0
M  V30 29994 C 2828.83 -0.378724 3.57902 0
M  V30 29995 C 2828.44 0.89695 4.38929 0
M  V30 29996 C 2830.18 -0.915717 4.14506 0
M  V30 29997 C 2828.09 0.670236 5.8759 0
M  V30 29998 H 2827.02 -0.0725923 0.750497 0
M  V30 29999 H 2829.67 0.520456 1.75965 0
M  V30 30000 H 2828.05 -1.14536 3.79074 0
M  V30 30001 H 2829.23 1.66879 4.29521 0
M  V30 30002 H 2827.54 1.35945 3.93583 0
M  V30 30003 H 2830.14 -1.10117 5.23238 0
M  V30 30004 H 2830.48 -1.88694 3.7108 0
M  V30 30005 H 2831.01 -0.208453 3.97253 0
M  V30 30006 H 2827.75 1.61268 6.35353 0
M  V30 30007 H 2827.27 -0.0625314 5.99767 0
M  V30 30008 H 2828.95 0.307691 6.46268 0
M  V30 30009 N 2829.08 -1.57088 0.126936 0
M  V30 30010 C 2830.49 -1.82427 -0.397169 0
M  V30 30011 C 2830.85 -1.04456 -1.66083 0
M  V30 30012 O 2829.97 -0.28359 -2.14534 0
M  V30 30013 C 2830.57 -3.309 -0.727353 0
M  V30 30014 C 2829.12 -3.56891 -1.19606 0
M  V30 30015 C 2828.27 -2.76513 -0.208801 0
M  V30 30016 H 2831.22 -1.54748 0.351951 0
M  V30 30017 H 2831.24 -3.45961 -1.58401 0
M  V30 30018 H 2830.76 -3.87622 0.192538 0
M  V30 30019 H 2828.86 -3.05535 -2.13258 0
M  V30 30020 H 2828.97 -4.6544 -1.1359 0
M  V30 30021 H 2827.33 -2.44965 -0.697436 0
M  V30 30022 H 2828.12 -3.35997 0.704326 0
M  V30 30023 N 2830.56 0.146848 -1.56914 0
M  V30 30024 C 2831.49 1.18306 -2.0131 0
M  V30 30025 C 2832.47 1.44793 -0.89269 0
M  V30 30026 O 2833.66 1.55711 -1.16051 0
M  V30 30027 C 2830.79 2.5162 -2.39384 0
M  V30 30028 C 2829.74 2.39654 -3.54612 0
M  V30 30029 C 2829.07 3.77679 -3.785 0
M  V30 30030 C 2830.37 1.8805 -4.87273 0
M  V30 30031 H 2832.06 0.813913 -2.88125 0
M  V30 30032 H 2829.61 0.390075 -1.38616 0
M  V30 30033 H 2831.56 3.24336 -2.69043 0
M  V30 30034 H 2830.28 2.90371 -1.49507 0
M  V30 30035 H 2828.94 1.6939 -3.25119 0
M  V30 30036 H 2828.59 4.13866 -2.85874 0
M  V30 30037 H 2828.29 3.70535 -4.56046 0
M  V30 30038 H 2829.82 4.51944 -4.10584 0
M  V30 30039 H 2831.23 2.50559 -5.15648 0
M  V30 30040 H 2829.63 1.91795 -5.68625 0
M  V30 30041 H 2830.7 0.836193 -4.77636 0
M  V30 30042 N 2832.04 1.52005 0.4162 0
M  V30 30043 C 2832.97 1.69552 1.52733 0
M  V30 30044 C 2833.95 0.543077 1.53263 0
M  V30 30045 O 2835.13 0.769557 1.72076 0
M  V30 30046 C 2832.26 1.7284 2.9128 0
M  V30 30047 C 2831.31 2.94301 3.0869 0
M  V30 30048 S 2832.14 4.54767 2.8275 0
M  V30 30049 C 2833.3 4.60831 4.2354 0
M  V30 30050 H 2833.53 2.63531 1.37618 0
M  V30 30051 H 2831.06 1.41955 0.60731 0
M  V30 30052 H 2833.02 1.7542 3.71131 0
M  V30 30053 H 2831.68 0.80002 3.03741 0
M  V30 30054 H 2830.87 2.93063 4.10037 0
M  V30 30055 H 2830.48 2.89572 2.36694 0
M  V30 30056 H 2832.77 4.37772 5.1707 0
M  V30 30057 H 2833.71 5.62738 4.29803 0
M  V30 30058 H 2834.12 3.89934 4.08181 0
M  V30 30059 N 2833.52 -0.672992 1.42508 0
M  V30 30060 C 2834.45 -1.79848 1.48919 0
M  V30 30061 C 2835.43 -1.66552 0.345595 0
M  V30 30062 O 2836.61 -1.85946 0.560148 0
M  V30 30063 C 2833.74 -3.18156 1.39263 0
M  V30 30064 C 2832.7 -3.46189 2.51668 0
M  V30 30065 C 2832.02 -4.8409 2.2707 0
M  V30 30066 C 2833.32 -3.42902 3.93974 0
M  V30 30067 H 2835.02 -1.74741 2.43117 0
M  V30 30068 H 2832.56 -0.839267 1.17014 0
M  V30 30069 H 2834.52 -3.96627 1.42356 0
M  V30 30070 H 2833.24 -3.23945 0.415599 0
M  V30 30071 H 2831.9 -2.7008 2.47896 0
M  V30 30072 H 2831.55 -4.86532 1.27656 0
M  V30 30073 H 2831.25 -5.03809 3.02407 0
M  V30 30074 H 2832.77 -5.64843 2.31915 0
M  V30 30075 H 2834.19 -4.1134 3.9934 0
M  V30 30076 H 2832.58 -3.74157 4.69176 0
M  V30 30077 H 2833.65 -2.41442 4.20516 0
M  V30 30078 N 2835 -1.2871 -0.909472 0
M  V30 30079 C 2836.27 -1.06809 -1.63863 0
M  V30 30080 C 2836.65 0.391107 -2.07445 0
M  V30 30081 O 2836 1.37802 -1.82271 0
M  V30 30082 C 2836.21 -2.04666 -2.82688 0
M  V30 30083 C 2837.56 -2.35048 -3.53606 0
M  V30 30084 O 2838.58 -2.02784 -2.92843 0
M  V30 30085 O 2837.44 -2.90132 -4.63126 0
M  V30 30086 H 2834.54 -0.408515 -0.719058 0
M  V30 30087 H 2837.08 -1.40046 -0.9584 0
M  V30 30088 H 2835.85 -3.02995 -2.47609 0
M  V30 30089 H 2835.48 -1.72101 -3.58423 0
M  V30 30090 N 2836.47 1.1185 -1.11028 0
M  V30 30091 C 2837.72 1.83133 -0.854801 0
M  V30 30092 C 2838.04 1.84836 0.621342 0
M  V30 30093 O 2837.31 1.31587 1.45127 0
M  V30 30094 H 2835.89 0.678151 -0.313241 0
M  V30 30095 H 2838.55 1.35409 -1.4018 0
M  V30 30096 H 2837.65 2.87133 -1.22316 0
M  V30 30097 N 2837.95 0.89995 1.29378 0
M  V30 30098 C 2839.23 0.445477 1.9046 0
M  V30 30099 C 2839.61 -1.07488 1.81685 0
M  V30 30100 O 2838.96 -1.91686 1.24374 0
M  V30 30101 C 2839.17 0.960338 3.35527 0
M  V30 30102 C 2840.51 1.00419 4.12554 0
M  V30 30103 O 2841.54 0.908025 3.44432 0
M  V30 30104 O 2840.4 1.14867 5.34292 0
M  V30 30105 H 2837.49 0.138907 0.815251 0
M  V30 30106 H 2840.04 0.989832 1.37842 0
M  V30 30107 H 2838.81 2.00431 3.3607 0
M  V30 30108 H 2838.43 0.396008 3.95623 0
M  V30 30109 N 2839.43 -1.43001 0.662458 0
M  V30 30110 C 2840.67 -2.03576 0.183348 0
M  V30 30111 C 2841.03 -1.51185 -1.18351 0
M  V30 30112 O 2842.24 -2.03465 -1.75657 0
M  V30 30113 C 2840.51 -3.56823 0.20297 0
M  V30 30114 S 2842.07 -4.38312 -0.206943 0
M  V30 30115 H 2838.88 -0.706871 0.0765126 0
M  V30 30116 H 2841.49 -1.74933 0.872858 0
M  V30 30117 H 2840.19 -3.92454 1.20035 0
M  V30 30118 H 2839.72 -3.90122 -0.506777 0
M  V30 30119 H 2841.74 -4.74739 -1.4435 0
M  V30 30120 N 2840.91 -0.404973 -1.52308 0
M  V30 30121 C 2842.16 0.173494 -2.00952 0
M  V30 30122 C 2842.47 1.46578 -1.29515 0
M  V30 30123 O 2843.68 2.12525 -1.68954 0
M  V30 30124 C 2842.13 0.359738 -3.58098 0
M  V30 30125 C 2841.74 -0.920215 -4.38447 0
M  V30 30126 C 2843.48 0.893721 -4.14985 0
M  V30 30127 C 2841.39 -0.701388 -5.87226 0
M  V30 30128 H 2840.32 0.0686112 -0.750872 0
M  V30 30129 H 2842.97 -0.52978 -1.75686 0
M  V30 30130 H 2841.35 1.12524 -3.79677 0
M  V30 30131 H 2842.53 -1.69155 -4.2863 0
M  V30 30132 H 2840.84 -1.38031 -3.92857 0
M  V30 30133 H 2843.44 1.0734 -5.23815 0
M  V30 30134 H 2843.78 1.86724 -3.72075 0
M  V30 30135 H 2844.32 0.187383 -3.97358 0
M  V30 30136 H 2841.06 -1.64635 -6.34488 0
M  V30 30137 H 2840.58 0.0307234 -5.99792 0
M  V30 30138 H 2842.25 -0.341959 -6.46096 0
M  V30 30139 N 2842.39 1.57018 -0.135265 0
M  V30 30140 C 2843.32 2.11916 0.84658 0
M  V30 30141 C 2844.3 1.03968 1.25018 0
M  V30 30142 O 2845.48 1.31725 1.34836 0
M  V30 30143 C 2842.61 2.62923 2.13516 0
M  V30 30144 C 2841.65 3.82908 1.87839 0
M  V30 30145 S 2842.49 5.24497 1.07996 0
M  V30 30146 C 2843.64 5.78885 2.37998 0
M  V30 30147 H 2843.88 2.94865 0.3797 0
M  V30 30148 H 2841.41 1.54199 0.0788116 0
M  V30 30149 H 2843.37 2.92963 2.87546 0
M  V30 30150 H 2842.03 1.80126 2.5732 0
M  V30 30151 H 2841.22 4.16802 2.83358 0
M  V30 30152 H 2840.82 3.53569 1.21923 0
M  V30 30153 H 2843.12 5.89601 3.33731 0
M  V30 30154 H 2844.06 6.76669 2.08626 0
M  V30 30155 H 2844.47 5.07052 2.4811 0
M  V30 30156 N 2843.86 -0.138524 1.5699 0
M  V30 30157 C 2844.83 -1.15474 1.97986 0
M  V30 30158 C 2845.83 -1.35396 0.86744 0
M  V30 30159 O 2847.02 -1.32244 1.13389 0
M  V30 30160 C 2844.15 -2.51333 2.30314 0
M  V30 30161 H 2845.34 -0.802845 2.88954 0
M  V30 30162 H 2842.9 -0.382162 1.51556 0
M  V30 30163 H 2843.63 -2.91479 1.42164 0
M  V30 30164 H 2843.42 -2.38232 3.11429 0
M  V30 30165 H 2844.91 -3.24508 2.62839 0
M  V30 30166 N 2845.34 -1.52224 -0.408133 0
M  V30 30167 C 2846.59 -1.66331 -1.15499 0
M  V30 30168 C 2846.92 -0.393735 -1.90473 0
M  V30 30169 O 2846.17 0.623324 -1.85508 0
M  V30 30170 C 2846.47 -2.83663 -2.17417 0
M  V30 30171 C 2846.14 -4.21844 -1.59243 0
M  V30 30172 C 2844.8 -4.59429 -1.43102 0
M  V30 30173 C 2847.15 -5.07952 -1.16767 0
M  V30 30174 C 2844.48 -5.80799 -0.830046 0
M  V30 30175 C 2846.83 -6.29927 -0.580877 0
M  V30 30176 C 2845.5 -6.6626 -0.406611 0
M  V30 30177 H 2844.77 -0.60865 -0.422642 0
M  V30 30178 H 2847.41 -1.86327 -0.442082 0
M  V30 30179 H 2845.72 -2.58006 -2.94856 0
M  V30 30180 H 2847.41 -2.91775 -2.75079 0
M  V30 30181 H 2844 -3.92227 -1.72789 0
M  V30 30182 H 2848.19 -4.79497 -1.28046 0
M  V30 30183 H 2843.44 -6.07572 -0.683054 0
M  V30 30184 H 2847.62 -6.95975 -0.243365 0
M  V30 30185 H 2845.25 -7.60175 0.0611703 0
M  V30 30186 N 2846.82 0.665425 -1.42863 0
M  V30 30187 C 2848.1 1.42195 -1.34313 0
M  V30 30188 C 2848.48 2.11095 0.0149894 0
M  V30 30189 O 2847.83 2.0392 1.03097 0
M  V30 30190 C 2848.04 2.41669 -2.51787 0
M  V30 30191 C 2849.38 3.06034 -2.94327 0
M  V30 30192 O 2850.41 2.51997 -2.51746 0
M  V30 30193 O 2849.27 4.03978 -3.68054 0
M  V30 30194 H 2846.36 0.634704 -0.53017 0
M  V30 30195 H 2848.91 0.693359 -1.54889 0
M  V30 30196 H 2847.68 1.89621 -3.42286 0
M  V30 30197 H 2847.3 3.21997 -2.33247 0
M  V30 30198 N 2848.3 1.29191 0.902633 0
M  V30 30199 C 2849.53 1.19698 1.68392 0
M  V30 30200 C 2849.94 -0.245351 1.87602 0
M  V30 30201 O 2849.28 -1.17645 1.41086 0
M  V30 30202 C 2849.34 1.83583 3.09091 0
M  V30 30203 C 2849.01 3.3287 3.13124 0
M  V30 30204 C 2850 4.29139 2.93489 0
M  V30 30205 C 2847.69 3.74019 3.35283 0
M  V30 30206 C 2849.68 5.64532 2.95943 0
M  V30 30207 C 2847.37 5.09535 3.37368 0
M  V30 30208 C 2848.37 6.04602 3.1772 0
M  V30 30209 O 2848.05 7.37644 3.19587 0
M  V30 30210 H 2847.79 0.416044 0.532807 0
M  V30 30211 H 2850.34 1.71035 1.13737 0
M  V30 30212 H 2848.57 1.26754 3.65336 0
M  V30 30213 H 2850.26 1.68453 3.69294 0
M  V30 30214 H 2851.03 3.98681 2.76185 0
M  V30 30215 H 2846.9 3.0048 3.49618 0
M  V30 30216 H 2850.45 6.38711 2.80525 0
M  V30 30217 H 2846.35 5.39639 3.54203 0
M  V30 30218 H 2847.11 7.46412 3.35874 0
M  V30 30219 N 2849.78 -1.1126 1.1162 0
M  V30 30220 C 2851 -1.86838 0.888772 0
M  V30 30221 C 2851.42 -1.80256 -0.561527 0
M  V30 30222 O 2850.78 -1.18517 -1.3878 0
M  V30 30223 C 2850.83 -3.35576 1.34427 0
M  V30 30224 O 2850.55 -3.42024 2.73772 0
M  V30 30225 C 2852.05 -4.28055 1.15254 0
M  V30 30226 H 2849.27 -0.590774 0.318163 0
M  V30 30227 H 2851.81 -1.40704 1.484 0
M  V30 30228 H 2849.97 -3.79208 0.792457 0
M  V30 30229 H 2850.38 -4.34654 2.93558 0
M  V30 30230 H 2851.86 -5.30653 1.52024 0
M  V30 30231 H 2852.33 -4.39103 0.0922779 0
M  V30 30232 H 2852.94 -3.90219 1.69143 0
M  V30 30233 N 2851.25 -0.906798 -1.28899 0
M  V30 30234 C 2852.2 -0.379913 -2.29476 0
M  V30 30235 C 2853.2 0.524719 -1.61068 0
M  V30 30236 O 2854.4 0.406734 -1.75344 0
M  V30 30237 H 2850.78 -0.104243 -0.74474 0
M  V30 30238 H 2852.75 -1.24141 -2.71351 0
M  V30 30239 C 2851.5 0.371093 -3.45714 0
M  V30 30240 H 2850.82 -0.315786 -3.98551 0
M  V30 30241 H 2852.26 0.704508 -4.18106 0
M  V30 30242 C 2850.72 1.57641 -2.97743 0
M  V30 30243 O 2851.25 2.67562 -2.99623 0
M  V30 30244 N 2849.46 1.42101 -2.53487 0
M  V30 30245 H 2849 0.526739 -2.52157 0
M  V30 30246 H 2848.96 2.22877 -2.2175 0
M  V30 30247 N 2852.73 1.42648 -0.670032 0
M  V30 30248 C 2853.96 2.05646 -0.198288 0
M  V30 30249 C 2854.37 1.50404 1.14784 0
M  V30 30250 O 2853.71 0.636665 1.72314 0
M  V30 30251 C 2853.78 3.59464 -0.0507764 0
M  V30 30252 C 2853.44 4.37375 -1.32485 0
M  V30 30253 C 2854.44 4.6834 -2.25729 0
M  V30 30254 C 2852.12 4.77096 -1.57112 0
M  V30 30255 C 2854.12 5.37957 -3.41879 0
M  V30 30256 C 2851.8 5.46454 -2.73553 0
M  V30 30257 C 2852.8 5.76808 -3.65761 0
M  V30 30258 O 2852.49 6.44745 -4.80166 0
M  V30 30259 H 2852.22 0.66928 -0.0950839 0
M  V30 30260 H 2854.77 1.83855 -0.915778 0
M  V30 30261 H 2853 3.79895 0.722248 0
M  V30 30262 H 2854.69 4.04113 0.380481 0
M  V30 30263 H 2855.46 4.38157 -2.07951 0
M  V30 30264 H 2851.34 4.52866 -0.862148 0
M  V30 30265 H 2854.88 5.61566 -4.13871 0
M  V30 30266 H 2850.78 5.76055 -2.91258 0
M  V30 30267 H 2851.55 6.63234 -4.79648 0
M  V30 30268 N 2854.21 0.413044 1.52091 0
M  V30 30269 C 2855.49 -0.220206 1.94357 0
M  V30 30270 C 2855.87 -1.62274 1.35019 0
M  V30 30271 O 2855.22 -2.22327 0.52755 0
M  V30 30272 C 2855.43 -0.222577 3.4829 0
M  V30 30273 C 2856.77 -0.440024 4.22314 0
M  V30 30274 O 2857.8 -0.301763 3.54919 0
M  V30 30275 O 2856.66 -0.712889 5.4183 0
M  V30 30276 H 2853.75 -0.143026 0.814538 0
M  V30 30277 H 2856.3 0.469271 1.63083 0
M  V30 30278 H 2855.07 0.758903 3.8387 0
M  V30 30279 H 2854.69 -0.955989 3.85936 0
M  V30 30280 N 2855.69 -1.56945 0.143591 0
M  V30 30281 C 2856.94 -1.95628 -0.507368 0
M  V30 30282 C 2857.26 -1.02925 -1.65624 0
M  V30 30283 O 2856.53 -0.090148 -1.95692 0
M  V30 30284 H 2855.11 -0.722321 -0.190424 0
M  V30 30285 H 2857.77 -1.93674 0.218292 0
M  V30 30286 H 2856.87 -2.99267 -0.885764 0
M  V30 30287 N 2857.17 0.130197 -1.57061 0
M  V30 30288 C 2858.39 0.858376 -1.88803 0
M  V30 30289 C 2858.82 1.73172 -0.734384 0
M  V30 30290 O 2858.18 1.78534 0.315497 0
M  V30 30291 C 2858.22 1.67702 -3.19231 0
M  V30 30292 O 2857.33 2.78291 -3.04348 0
M  V30 30293 H 2856.67 0.238072 -0.619853 0
M  V30 30294 H 2859.2 0.115959 -2.04271 0
M  V30 30295 H 2859.21 2.06858 -3.51673 0
M  V30 30296 H 2857.88 1.03583 -4.02795 0
M  V30 30297 H 2856.46 2.4242 -2.8335 0
M  V30 30298 N 2858.65 1.52438 0.400055 0
M  V30 30299 C 2859.89 1.66168 1.14329 0
M  V30 30300 C 2860.21 0.402287 1.91418 0
M  V30 30301 O 2861.41 0.419534 2.68239 0
M  V30 30302 C 2859.87 2.93614 2.08132 0
M  V30 30303 C 2859.48 4.26693 1.36517 0
M  V30 30304 C 2861.22 3.16708 2.82659 0
M  V30 30305 C 2859.13 5.45255 2.29021 0
M  V30 30306 H 2858.06 0.619028 0.430489 0
M  V30 30307 H 2860.71 1.7893 0.406985 0
M  V30 30308 H 2859.09 2.74572 2.85353 0
M  V30 30309 H 2860.27 4.5625 0.645981 0
M  V30 30310 H 2858.58 4.09773 0.739948 0
M  V30 30311 H 2861.18 4.02466 3.5203 0
M  V30 30312 H 2861.52 2.31318 3.46118 0
M  V30 30313 H 2862.05 3.36265 2.12535 0
M  V30 30314 H 2858.79 6.3302 1.70194 0
M  V30 30315 H 2858.31 5.20025 2.98887 0
M  V30 30316 H 2859.99 5.78694 2.89349 0
M  V30 30317 N 2860.12 -0.657839 1.43214 0
M  V30 30318 C 2861.07 -1.76394 1.44462 0
M  V30 30319 C 2862.06 -1.57813 0.313668 0
M  V30 30320 O 2863.25 -1.68003 0.557123 0
M  V30 30321 C 2860.38 -3.14957 1.36591 0
M  V30 30322 C 2859.46 -3.39101 2.54698 0
M  V30 30323 N 2859.86 -3.33742 3.80065 0
M  V30 30324 C 2858.15 -3.69803 2.49323 0
M  V30 30325 C 2858.85 -3.57841 4.58612 0
M  V30 30326 N 2857.83 -3.7943 3.89273 0
M  V30 30327 H 2861.63 -1.70669 2.39268 0
M  V30 30328 H 2859.15 -0.859333 1.37801 0
M  V30 30329 H 2861.14 -3.94242 1.35568 0
M  V30 30330 H 2859.8 -3.21867 0.428013 0
M  V30 30331 H 2860.81 -3.13259 4.12419 0
M  V30 30332 H 2857.49 -3.83856 1.64197 0
M  V30 30333 H 2858.88 -3.59515 5.67625 0
M  V30 30334 N 2861.6 -1.29668 -0.895769 0
M  V30 30335 C 2863.01 -1.16122 -1.46193 0
M  V30 30336 C 2863.36 0.242161 -1.947 0
M  V30 30337 O 2862.49 1.13799 -1.84062 0
M  V30 30338 C 2863.08 -2.10193 -2.65715 0
M  V30 30339 C 2861.64 -2.00658 -3.18454 0
M  V30 30340 C 2860.79 -2.00894 -1.91146 0
M  V30 30341 H 2863.74 -1.42095 -0.706731 0
M  V30 30342 H 2863.76 -1.67646 -3.41578 0
M  V30 30343 H 2863.27 -3.12325 -2.3038 0
M  V30 30344 H 2861.37 -1.0163 -3.58472 0
M  V30 30345 H 2861.49 -2.88516 -3.82486 0
M  V30 30346 H 2859.85 -1.45546 -2.09018 0
M  V30 30347 H 2860.63 -3.04737 -1.58083 0
M  V30 30348 N 2863.08 1.10667 -1.12208 0
M  V30 30349 C 2864.33 1.81942 -0.870627 0
M  V30 30350 C 2864.64 1.85995 0.605415 0
M  V30 30351 O 2865.85 2.53451 0.973389 0
M  V30 30352 C 2864.3 3.26789 -1.50789 0
M  V30 30353 C 2863.91 3.31041 -3.01854 0
M  V30 30354 C 2865.66 4.02908 -1.33661 0
M  V30 30355 C 2863.56 4.70333 -3.58526 0
M  V30 30356 H 2862.49 0.68176 -0.322055 0
M  V30 30357 H 2865.14 1.24473 -1.34829 0
M  V30 30358 H 2863.53 3.8424 -0.957892 0
M  V30 30359 H 2864.7 2.83427 -3.63326 0
M  V30 30360 H 2863.01 2.68405 -3.18351 0
M  V30 30361 H 2865.61 5.05794 -1.73425 0
M  V30 30362 H 2865.95 4.15357 -0.280022 0
M  V30 30363 H 2866.49 3.51865 -1.85569 0
M  V30 30364 H 2863.23 4.63083 -4.63933 0
M  V30 30365 H 2862.75 5.18324 -3.01828 0
M  V30 30366 H 2864.43 5.39299 -3.57443 0
M  V30 30367 N 2864.56 0.913621 1.28416 0
M  V30 30368 C 2865.8 0.556967 1.95626 0
M  V30 30369 C 2866.16 -0.889535 1.70602 0
M  V30 30370 O 2865.45 -1.62419 1.0164 0
M  V30 30371 C 2865.65 0.80216 3.48282 0
M  V30 30372 C 2865.47 2.27094 3.88147 0
M  V30 30373 C 2864.24 2.92103 4.12315 0
M  V30 30374 C 2866.44 3.24735 3.98813 0
M  V30 30375 N 2864.42 4.2928 4.38853 0
M  V30 30376 C 2865.8 4.47075 4.29563 0
M  V30 30377 C 2867.85 3.20135 3.81337 0
M  V30 30378 C 2866.55 5.65396 4.44657 0
M  V30 30379 C 2868.58 4.37756 3.97648 0
M  V30 30380 C 2867.94 5.5887 4.2877 0
M  V30 30381 H 2864.04 0.253677 0.739711 0
M  V30 30382 H 2866.62 1.17732 1.55072 0
M  V30 30383 H 2864.8 0.211075 3.87826 0
M  V30 30384 H 2866.53 0.409549 4.02622 0
M  V30 30385 H 2863.28 2.42833 4.06607 0
M  V30 30386 H 2863.71 5.00206 4.56205 0
M  V30 30387 H 2868.35 2.27576 3.56327 0
M  V30 30388 H 2866.07 6.58434 4.68498 0
M  V30 30389 H 2869.65 4.35699 3.85562 0
M  V30 30390 H 2868.53 6.48366 4.41124 0
M  V30 30391 N 2866.04 -1.4229 0.677588 0
M  V30 30392 C 2867.28 -2.015 0.20101 0
M  V30 30393 C 2867.61 -1.53585 -1.19339 0
M  V30 30394 O 2866.87 -0.729932 -1.81578 0
M  V30 30395 C 2867.16 -3.56909 0.187292 0
M  V30 30396 C 2866.83 -4.24266 1.52674 0
M  V30 30397 C 2865.49 -4.4238 1.89349 0
M  V30 30398 C 2867.84 -4.62199 2.40877 0
M  V30 30399 C 2865.17 -4.957 3.13845 0
M  V30 30400 C 2867.52 -5.169 3.64688 0
M  V30 30401 C 2866.19 -5.33227 4.01528 0
M  V30 30402 H 2865.46 -0.73734 0.0735548 0
M  V30 30403 H 2868.11 -1.70437 0.873125 0
M  V30 30404 H 2866.41 -3.87656 -0.568339 0
M  V30 30405 H 2868.11 -4.00507 -0.198703 0
M  V30 30406 H 2864.7 -4.10528 1.23145 0
M  V30 30407 H 2868.88 -4.47874 2.13828 0
M  V30 30408 H 2864.14 -5.06526 3.42405 0
M  V30 30409 H 2868.31 -5.45235 4.33234 0
M  V30 30410 H 2865.94 -5.74307 4.98072 0
M  V30 30411 N 2867.51 -0.421104 -1.5187 0
M  V30 30412 C 2868.46 0.398468 -2.27334 0
M  V30 30413 C 2869.43 1.03083 -1.30243 0
M  V30 30414 O 2870.62 1.05283 -1.59123 0
M  V30 30415 C 2867.76 1.50267 -3.10667 0
M  V30 30416 C 2866.87 0.890048 -4.22732 0
M  V30 30417 C 2866 1.96794 -4.93402 0
M  V30 30418 C 2865.04 1.33289 -5.97411 0
M  V30 30419 N 2864.18 2.35144 -6.61552 0
M  V30 30420 H 2869.02 -0.251464 -2.96937 0
M  V30 30421 H 2866.56 -0.13585 -1.46471 0
M  V30 30422 H 2868.51 2.15397 -3.57295 0
M  V30 30423 H 2867.14 2.12246 -2.43211 0
M  V30 30424 H 2866.2 0.12747 -3.80186 0
M  V30 30425 H 2867.51 0.386262 -4.97302 0
M  V30 30426 H 2866.66 2.69624 -5.43496 0
M  V30 30427 H 2865.4 2.50542 -4.18426 0
M  V30 30428 H 2864.41 0.589983 -5.46625 0
M  V30 30429 H 2865.63 0.802958 -6.74336 0
M  V30 30430 H 2863.58 2.88002 -5.89399 0
M  V30 30431 H 2863.49 1.89612 -7.31836 0
M  V30 30432 H 2864.76 3.07507 -7.16282 0
M  V30 30433 N 2868.99 1.56866 -0.151912 0
M  V30 30434 C 2869.96 2.15814 0.771823 0
M  V30 30435 C 2870.96 1.10117 1.17179 0
M  V30 30436 O 2872.15 1.35731 1.09191 0
M  V30 30437 C 2869.28 2.72524 2.04801 0
M  V30 30438 H 2870.47 2.9878 0.258969 0
M  V30 30439 H 2868.02 1.55995 0.0975606 0
M  V30 30440 H 2868.76 1.93238 2.60441 0
M  V30 30441 H 2868.54 3.49857 1.77038 0
M  V30 30442 H 2870.03 3.17925 2.70765 0
M  V30 30443 N 2870.47 -0.121866 1.57128 0
M  V30 30444 C 2871.4 -1.15089 2.03167 0
M  V30 30445 C 2872.38 -1.43355 0.915612 0
M  V30 30446 O 2873.57 -1.53845 1.18513 0
M  V30 30447 C 2870.7 -2.4778 2.43357 0
M  V30 30448 C 2869.65 -2.33982 3.5838 0
M  V30 30449 C 2868.98 -3.7161 3.84461 0
M  V30 30450 C 2870.28 -1.80274 4.90203 0
M  V30 30451 H 2871.97 -0.767972 2.89383 0
M  V30 30452 H 2869.52 -0.367973 1.39219 0
M  V30 30453 H 2871.47 -3.20015 2.74169 0
M  V30 30454 H 2870.19 -2.87955 1.54108 0
M  V30 30455 H 2868.85 -1.64196 3.27773 0
M  V30 30456 H 2868.5 -4.09266 2.92422 0
M  V30 30457 H 2868.2 -3.63232 4.61883 0
M  V30 30458 H 2869.72 -4.45354 4.17722 0
M  V30 30459 H 2871.14 -2.42324 5.19569 0
M  V30 30460 H 2869.54 -1.82725 5.71605 0
M  V30 30461 H 2870.61 -0.7601 4.78906 0
M  V30 30462 N 2871.95 -1.52648 -0.391965 0
M  V30 30463 C 2873.2 -1.67216 -1.13504 0
M  V30 30464 C 2873.52 -0.413073 -1.90575 0
M  V30 30465 O 2872.79 0.572465 -1.87349 0
M  V30 30466 H 2871.37 -0.616379 -0.422002 0
M  V30 30467 H 2874.03 -1.89752 -0.444986 0
M  V30 30468 H 2873.13 -2.52122 -1.8396 0
M  V30 30469 N 2873.43 0.650235 -1.43561 0
M  V30 30470 C 2874.36 1.77513 -1.43403 0
M  V30 30471 C 2875.34 1.599 -0.29511 0
M  V30 30472 O 2876.52 1.82043 -0.48916 0
M  V30 30473 C 2873.65 3.14851 -1.24846 0
M  V30 30474 C 2872.69 3.51159 -2.42053 0
M  V30 30475 S 2873.53 3.50796 -4.04601 0
M  V30 30476 C 2874.68 4.90786 -3.88433 0
M  V30 30477 H 2874.92 1.77377 -2.38589 0
M  V30 30478 H 2872.45 0.823146 -1.30628 0
M  V30 30479 H 2874.41 3.94113 -1.14826 0
M  V30 30480 H 2873.07 3.12546 -0.312032 0
M  V30 30481 H 2872.26 4.51048 -2.24881 0
M  V30 30482 H 2871.86 2.79316 -2.48713 0
M  V30 30483 H 2874.16 5.79522 -3.50942 0
M  V30 30484 H 2875.1 5.1301 -4.88085 0
M  V30 30485 H 2875.51 4.64461 -3.20837 0
M  V30 30486 N 2874.9 1.30141 0.88888 0
M  V30 30487 C 2876.15 1.18915 1.64278 0
M  V30 30488 C 2876.48 -0.256443 1.92499 0
M  V30 30489 O 2875.76 -1.18395 1.54314 0
M  V30 30490 C 2876.04 2.0141 2.98506 0
M  V30 30491 C 2875.89 3.54168 2.77282 0
M  V30 30492 C 2877.21 1.84889 3.9938 0
M  V30 30493 H 2874.33 0.433343 0.59614 0
M  V30 30494 H 2876.97 1.59732 1.02887 0
M  V30 30495 H 2875.12 1.66729 3.50904 0
M  V30 30496 H 2876.8 3.98888 2.31702 0
M  V30 30497 H 2875.04 3.78547 2.1186 0
M  V30 30498 H 2875.71 4.07175 3.7271 0
M  V30 30499 H 2878.19 2.15202 3.56128 0
M  V30 30500 H 2877.06 2.44943 4.91217 0
M  V30 30501 H 2877.32 0.806979 4.34673 0
M  V30 30502 N 2876.38 -1.1007 1.12794 0
M  V30 30503 C 2877.31 -2.18563 0.821727 0
M  V30 30504 C 2878.29 -1.68722 -0.21609 0
M  V30 30505 O 2879.48 -1.94049 -0.076459 0
M  V30 30506 C 2876.61 -3.46172 0.279685 0
M  V30 30507 C 2875.56 -4.09309 1.25099 0
M  V30 30508 C 2874.89 -5.31664 0.56901 0
M  V30 30509 C 2876.19 -4.52581 2.60706 0
M  V30 30510 H 2877.88 -2.44435 1.72893 0
M  V30 30511 H 2875.43 -1.17481 0.832723 0
M  V30 30512 H 2877.38 -4.21366 0.0531731 0
M  V30 30513 H 2876.11 -3.19802 -0.662872 0
M  V30 30514 H 2874.76 -3.36126 1.46338 0
M  V30 30515 H 2874.41 -5.01572 -0.37881 0
M  V30 30516 H 2874.11 -5.7486 1.21697 0
M  V30 30517 H 2875.64 -6.09587 0.351624 0
M  V30 30518 H 2877.05 -5.19031 2.43474 0
M  V30 30519 H 2875.45 -5.06639 3.21616 0
M  V30 30520 H 2876.52 -3.65311 3.18867 0
M  V30 30521 N 2877.86 -0.920419 -1.2793 0
M  V30 30522 C 2879.14 -0.475721 -1.89727 0
M  V30 30523 C 2879.52 1.04584 -1.83372 0
M  V30 30524 O 2878.87 1.89683 -1.27408 0
M  V30 30525 C 2879.08 -1.0136 -3.33957 0
M  V30 30526 C 2880.42 -1.0697 -4.10905 0
M  V30 30527 O 2881.45 -0.962707 -3.42944 0
M  V30 30528 O 2880.31 -1.23352 -5.32397 0
M  V30 30529 H 2877.4 -0.151859 -0.812938 0
M  V30 30530 H 2879.95 -1.01164 -1.3625 0
M  V30 30531 H 2878.72 -2.05752 -3.32839 0
M  V30 30532 H 2878.34 -0.458898 -3.94943 0
M  V30 30533 N 2879.34 1.41929 -0.685124 0
M  V30 30534 C 2880.29 2.326 -0.00170073 0
M  V30 30535 C 2881.28 1.50392 0.779652 0
M  V30 30536 O 2882.49 1.66397 0.686451 0
M  V30 30537 H 2878.86 0.751779 0.0182484 0
M  V30 30538 H 2880.83 2.87926 -0.783643 0
M  V30 30539 C 2879.58 3.35078 0.928326 0
M  V30 30540 H 2878.9 3.98381 0.336508 0
M  V30 30541 H 2880.34 4.01085 1.37502 0
M  V30 30542 C 2878.8 2.68146 2.03959 0
M  V30 30543 O 2879.33 2.52126 3.12723 0
M  V30 30544 N 2877.54 2.27006 1.81429 0
M  V30 30545 H 2877.09 2.40236 0.929765 0
M  V30 30546 H 2877.04 1.82557 2.5597 0
M  V30 30547 N 2880.82 0.429152 1.51644 0
M  V30 30548 C 2881.75 -0.377107 2.30435 0
M  V30 30549 C 2882.73 -1.02836 1.35495 0
M  V30 30550 O 2883.91 -1.03356 1.64412 0
M  V30 30551 C 2881.04 -1.4831 3.14041 0
M  V30 30552 C 2880 -0.955782 4.17192 0
M  V30 30553 C 2879.32 -2.1569 4.89267 0
M  V30 30554 C 2880.62 0.00411317 5.223 0
M  V30 30555 H 2882.32 0.280388 2.98084 0
M  V30 30556 H 2879.86 0.13629 1.43354 0
M  V30 30557 H 2881.82 -2.05428 3.67936 0
M  V30 30558 H 2880.54 -2.16876 2.44197 0
M  V30 30559 H 2879.2 -0.406865 3.64335 0
M  V30 30560 H 2878.85 -2.82857 4.15934 0
M  V30 30561 H 2878.55 -1.81049 5.59012 0
M  V30 30562 H 2880.07 -2.73377 5.45983 0
M  V30 30563 H 2881.48 -0.476507 5.71316 0
M  V30 30564 H 2879.88 0.262685 5.99525 0
M  V30 30565 H 2880.95 0.94332 4.75636 0
M  V30 30566 N 2882.29 -1.56783 0.160229 0
M  V30 30567 C 2883.52 -2.01349 -0.497338 0
M  V30 30568 C 2883.94 -1.03969 -1.56755 0
M  V30 30569 O 2883.3 -0.0174773 -1.81292 0
M  V30 30570 C 2883.35 -3.44584 -1.06274 0
M  V30 30571 O 2882.45 -3.50247 -2.17717 0
M  V30 30572 H 2881.8 -0.653014 -0.120284 0
M  V30 30573 H 2884.33 -2.0293 0.260857 0
M  V30 30574 H 2884.34 -3.8366 -1.38812 0
M  V30 30575 H 2883.01 -4.14963 -0.279093 0
M  V30 30576 H 2881.59 -3.23023 -1.86307 0
M  V30 30577 N 2883.77 0.113531 -1.57191 0
M  V30 30578 C 2885.02 0.820349 -1.85139 0
M  V30 30579 C 2885.35 1.7962 -0.746111 0
M  V30 30580 O 2884.6 1.93938 0.262043 0
M  V30 30581 C 2884.9 1.59979 -3.19596 0
M  V30 30582 C 2884.57 0.76773 -4.44316 0
M  V30 30583 C 2883.23 0.538295 -4.7818 0
M  V30 30584 C 2885.58 0.188111 -5.2086 0
M  V30 30585 C 2882.91 -0.280923 -5.86027 0
M  V30 30586 C 2885.26 -0.618328 -6.29571 0
M  V30 30587 C 2883.93 -0.858028 -6.61962 0
M  V30 30588 H 2883.2 0.300187 -0.677472 0
M  V30 30589 H 2885.84 0.0825106 -1.91322 0
M  V30 30590 H 2884.15 2.40869 -3.09014 0
M  V30 30591 H 2885.85 2.15074 -3.38444 0
M  V30 30592 H 2882.44 0.956651 -4.17787 0
M  V30 30593 H 2886.62 0.352571 -4.95046 0
M  V30 30594 H 2881.88 -0.4758 -6.09546 0
M  V30 30595 H 2886.05 -1.07442 -6.88062 0
M  V30 30596 H 2883.68 -1.49464 -7.45362 0
M  V30 30597 N 2885.25 1.52854 0.383864 0
M  V30 30598 C 2886.2 1.78643 1.48961 0
M  V30 30599 C 2887.19 0.654605 1.56241 0
M  V30 30600 O 2888.4 0.837188 1.59346 0
M  V30 30601 H 2884.77 0.565336 0.495882 0
M  V30 30602 H 2886.75 2.7123 1.24406 0
M  V30 30603 C 2885.49 1.97688 2.86033 0
M  V30 30604 H 2884.82 2.84211 2.81183 0
M  V30 30605 H 2886.26 2.1972 3.62628 0
M  V30 30606 C 2884.72 0.750834 3.28427 0
M  V30 30607 O 2885.25 -0.0692785 4.0164 0
M  V30 30608 N 2883.45 0.579477 2.84764 0
M  V30 30609 H 2883 1.24798 2.25351 0
M  V30 30610 H 2882.96 -0.239489 3.13487 0
M  V30 30611 N 2886.73 -0.642612 1.43904 0
M  V30 30612 C 2888.14 -1.22402 1.40977 0
M  V30 30613 C 2888.49 -1.95837 0.119234 0
M  V30 30614 O 2887.62 -2.01819 -0.780903 0
M  V30 30615 C 2888.21 -2.22631 2.55384 0
M  V30 30616 C 2886.77 -2.76225 2.55689 0
M  V30 30617 C 2885.92 -1.51035 2.32559 0
M  V30 30618 H 2888.87 -0.433979 1.52651 0
M  V30 30619 H 2888.89 -3.05013 2.2748 0
M  V30 30620 H 2888.4 -1.69155 3.49297 0
M  V30 30621 H 2886.5 -3.33735 1.65685 0
M  V30 30622 H 2886.62 -3.23047 3.53804 0
M  V30 30623 H 2884.98 -1.7876 1.8143 0
M  V30 30624 H 2885.76 -0.994783 3.28571 0
M  V30 30625 N 2888.21 -1.30611 -0.881966 0
M  V30 30626 C 2889.44 -1.22539 -1.66708 0
M  V30 30627 C 2889.85 0.211267 -1.87614 0
M  V30 30628 O 2889.21 1.1392 -1.42578 0
M  V30 30629 C 2889.26 -1.9534 -3.04178 0
M  V30 30630 O 2888.98 -3.33398 -2.84214 0
M  V30 30631 C 2890.48 -1.93963 -3.98614 0
M  V30 30632 H 2887.7 -0.423934 -0.520116 0
M  V30 30633 H 2890.24 -1.72287 -1.10171 0
M  V30 30634 H 2888.4 -1.49384 -3.5744 0
M  V30 30635 H 2888.81 -3.70309 -3.71446 0
M  V30 30636 H 2890.29 -2.49435 -4.92429 0
M  V30 30637 H 2890.76 -0.919273 -4.29472 0
M  V30 30638 H 2891.37 -2.39744 -3.51287 0
M  V30 30639 N 2889.69 1.0947 -1.13376 0
M  V30 30640 C 2890.62 2.18124 -0.833306 0
M  V30 30641 C 2891.6 1.68834 0.20714 0
M  V30 30642 O 2892.78 1.94087 0.0661671 0
M  V30 30643 C 2889.91 3.46019 -0.298039 0
M  V30 30644 C 2888.87 4.0864 -1.27268 0
M  V30 30645 C 2888.19 5.31355 -0.597197 0
M  V30 30646 C 2889.49 4.51192 -2.63103 0
M  V30 30647 H 2891.19 2.43515 -1.74186 0
M  V30 30648 H 2888.73 1.17037 -0.838941 0
M  V30 30649 H 2890.68 4.21332 -0.0755184 0
M  V30 30650 H 2889.41 3.20149 0.645903 0
M  V30 30651 H 2888.07 3.35345 -1.48119 0
M  V30 30652 H 2887.72 5.01765 0.352205 0
M  V30 30653 H 2887.42 5.74206 -1.24744 0
M  V30 30654 H 2888.94 6.09392 -0.383947 0
M  V30 30655 H 2890.35 5.17732 -2.46223 0
M  V30 30656 H 2888.75 5.04926 -3.24299 0
M  V30 30657 H 2889.82 3.63615 -3.20799 0
M  V30 30658 N 2891.16 0.92719 1.2744 0
M  V30 30659 C 2892.41 0.56318 1.93678 0
M  V30 30660 C 2892.73 -0.899806 1.73675 0
M  V30 30661 O 2893.93 -1.37257 2.34249 0
M  V30 30662 C 2892.39 0.956421 3.46959 0
M  V30 30663 C 2892 2.44006 3.7572 0
M  V30 30664 C 2893.74 0.663639 4.1928 0
M  V30 30665 C 2891.65 2.77273 5.22373 0
M  V30 30666 H 2890.58 0.206907 0.725056 0
M  V30 30667 H 2893.23 1.12793 1.44741 0
M  V30 30668 H 2891.61 0.320323 3.94702 0
M  V30 30669 H 2892.78 3.12402 3.38735 0
M  V30 30670 H 2891.1 2.70468 3.16601 0
M  V30 30671 H 2893.7 0.888689 5.27263 0
M  V30 30672 H 2894.04 -0.399125 4.14382 0
M  V30 30673 H 2894.57 1.25881 3.77358 0
M  V30 30674 H 2891.31 3.82456 5.32361 0
M  V30 30675 H 2890.83 2.13526 5.60506 0
M  V30 30676 H 2892.51 2.64989 5.90246 0
M  V30 30677 N 2892.64 -1.41564 0.692641 0
M  V30 30678 C 2893.59 -2.32596 0.0140361 0
M  V30 30679 C 2894.58 -1.50803 -0.771665 0
M  V30 30680 O 2895.79 -1.66758 -0.677617 0
M  V30 30681 H 2892.16 -0.751865 -0.0142612 0
M  V30 30682 H 2894.14 -2.87507 0.798901 0
M  V30 30683 C 2892.88 -3.35566 -0.910543 0
M  V30 30684 H 2892.21 -3.98554 -0.315376 0
M  V30 30685 H 2893.65 -4.01809 -1.35373 0
M  V30 30686 C 2892.11 -2.69224 -2.02534 0
M  V30 30687 O 2892.64 -2.53781 -3.11381 0
M  V30 30688 N 2890.84 -2.27965 -1.80223 0
M  V30 30689 H 2890.39 -2.40725 -0.917012 0
M  V30 30690 H 2890.35 -1.83911 -2.54998 0
M  V30 30691 N 2894.12 -0.437188 -1.51415 0
M  V30 30692 C 2895.54 -0.0894739 -1.59349 0
M  V30 30693 C 2895.74 1.40113 -1.44812 0
M  V30 30694 O 2894.79 2.17104 -1.28928 0
M  V30 30695 C 2896.1 -0.609449 -2.94459 0
M  V30 30696 C 2897.65 -0.569878 -3.07768 0
M  V30 30697 C 2898.13 -1.06683 -4.45402 0
M  V30 30698 N 2899.62 -1.02481 -4.51721 0
M  V30 30699 C 2900.35 -1.38019 -5.56541 0
M  V30 30700 N 2899.85 -1.80843 -6.68781 0
M  V30 30701 N 2901.64 -1.29837 -5.46899 0
M  V30 30702 H 2893.79 -1.40705 -1.59109 0
M  V30 30703 H 2896.06 -0.579804 -0.750021 0
M  V30 30704 H 2895.76 -1.65237 -3.10467 0
M  V30 30705 H 2895.64 -0.0342899 -3.77184 0
M  V30 30706 H 2898.02 0.464056 -2.91428 0
M  V30 30707 H 2898.1 -1.18144 -2.26883 0
M  V30 30708 H 2897.75 -2.09922 -4.62488 0
M  V30 30709 H 2897.68 -0.431805 -5.24827 0
M  V30 30710 H 2900.17 -0.710323 -3.71164 0
M  V30 30711 H 2900.48 -2.06198 -7.44783 0
M  V30 30712 H 2898.83 -1.84769 -6.69989 0
M  V30 30713 H 2902.02 -0.962478 -4.58098 0
M  V30 30714 H 2902.19 -1.57862 -6.28477 0
M  V30 30715 N 2895.6 1.56696 -0.168541 0
M  V30 30716 C 2896.53 2.20836 0.758524 0
M  V30 30717 C 2897.51 1.16313 1.24118 0
M  V30 30718 O 2898.69 1.44732 1.29485 0
M  V30 30719 C 2895.82 2.84693 1.98915 0
M  V30 30720 C 2894.78 3.95231 1.64245 0
M  V30 30721 C 2894.1 4.46124 2.94749 0
M  V30 30722 C 2895.4 5.14959 0.872585 0
M  V30 30723 H 2897.1 2.98562 0.2239 0
M  V30 30724 H 2894.64 1.43607 0.106252 0
M  V30 30725 H 2896.6 3.28237 2.64269 0
M  V30 30726 H 2895.32 2.04332 2.54786 0
M  V30 30727 H 2893.98 3.52338 1.0126 0
M  V30 30728 H 2893.63 3.62558 3.48655 0
M  V30 30729 H 2893.33 5.20695 2.72307 0
M  V30 30730 H 2894.85 4.92353 3.61138 0
M  V30 30731 H 2896.27 5.55214 1.42866 0
M  V30 30732 H 2894.66 5.95429 0.747297 0
M  V30 30733 H 2895.73 4.84721 -0.13162 0
M  V30 30734 N 2897.08 -0.105193 1.57249 0
M  V30 30735 C 2898.32 -0.81625 1.87395 0
M  V30 30736 C 2898.68 -1.76392 0.75828 0
M  V30 30737 O 2899.88 -2.51758 0.941879 0
M  V30 30738 C 2898.15 -1.53457 3.22778 0
M  V30 30739 S 2899.71 -2.2853 3.74592 0
M  V30 30740 H 2896.53 -0.272152 0.656852 0
M  V30 30741 H 2899.13 -0.0738747 1.9536 0
M  V30 30742 H 2897.83 -0.830604 4.01907 0
M  V30 30743 H 2897.37 -2.31705 3.17925 0
M  V30 30744 H 2899.38 -3.54496 3.47199 0
M  V30 30745 N 2898.55 -1.53055 -0.375752 0
M  V30 30746 C 2899.5 -1.7943 -1.48012 0
M  V30 30747 C 2900.5 -0.662881 -1.55892 0
M  V30 30748 O 2901.7 -0.845627 -1.589 0
M  V30 30749 H 2898.08 -0.567958 -0.492877 0
M  V30 30750 H 2900.05 -2.71886 -1.22966 0
M  V30 30751 C 2898.8 -1.99202 -2.8498 0
M  V30 30752 H 2898.12 -2.85698 -2.79672 0
M  V30 30753 H 2899.56 -2.2164 -3.61458 0
M  V30 30754 C 2898.02 -0.76824 -3.28024 0
M  V30 30755 O 2898.55 0.0479776 -4.01671 0
M  V30 30756 N 2896.76 -0.594571 -2.84452 0
M  V30 30757 H 2896.3 -1.25992 -2.24686 0
M  V30 30758 H 2896.26 0.222861 -3.13609 0
M  V30 30759 N 2900.03 0.634971 -1.44242 0
M  V30 30760 C 2901.26 1.42684 -1.50519 0
M  V30 30761 C 2901.68 1.87651 -0.129897 0
M  V30 30762 O 2901.04 1.58503 0.880136 0
M  V30 30763 C 2901.09 2.62587 -2.47145 0
M  V30 30764 O 2900.19 3.62288 -1.97032 0
M  V30 30765 H 2899.53 0.427092 -0.508418 0
M  V30 30766 H 2902.06 0.775374 -1.89339 0
M  V30 30767 H 2902.07 3.10178 -2.65054 0
M  V30 30768 H 2900.75 2.29203 -3.47043 0
M  V30 30769 H 2899.33 3.21531 -1.88871 0
M  V30 30770 N 2901.51 1.31076 0.875027 0
M  V30 30771 C 2902.46 1.183 1.98176 0
M  V30 30772 C 2903.43 0.0700215 1.65952 0
M  V30 30773 O 2904.61 0.241984 1.89259 0
M  V30 30774 C 2901.75 0.891082 3.33397 0
M  V30 30775 C 2900.87 2.0869 3.78249 0
M  V30 30776 C 2900 1.73221 5.02163 0
M  V30 30777 C 2899.04 2.89241 5.3945 0
M  V30 30778 N 2898.18 2.54001 6.54544 0
M  V30 30779 H 2903.02 2.12975 2.08436 0
M  V30 30780 H 2900.55 1.05949 1.02045 0
M  V30 30781 H 2902.51 0.70241 4.11244 0
M  V30 30782 H 2901.14 -0.0188232 3.22795 0
M  V30 30783 H 2900.19 2.38651 2.96226 0
M  V30 30784 H 2901.51 2.95543 4.01816 0
M  V30 30785 H 2900.66 1.50787 5.87663 0
M  V30 30786 H 2899.4 0.835525 4.8049 0
M  V30 30787 H 2898.4 3.12329 4.52471 0
M  V30 30788 H 2899.63 3.79611 5.63092 0
M  V30 30789 H 2897.57 1.66849 6.34427 0
M  V30 30790 H 2897.49 3.34384 6.78029 0
M  V30 30791 H 2898.76 2.34947 7.4325 0
M  V30 30792 N 2902.99 -1.08867 1.13955 0
M  V30 30793 C 2903.94 -2.13845 0.790849 0
M  V30 30794 C 2904.92 -1.59419 -0.217791 0
M  V30 30795 O 2906.11 -1.76988 -0.0208412 0
M  V30 30796 C 2903.24 -3.42277 0.26485 0
M  V30 30797 C 2902.33 -4.03596 1.30274 0
M  V30 30798 N 2902.72 -4.39388 2.50542 0
M  V30 30799 C 2901.02 -4.30869 1.15186 0
M  V30 30800 C 2901.72 -4.8777 3.16946 0
M  V30 30801 N 2900.7 -4.85582 2.44358 0
M  V30 30802 H 2904.5 -2.39331 1.70581 0
M  V30 30803 H 2902.01 -1.26153 1.02271 0
M  V30 30804 H 2904.01 -4.169 -0.0032307 0
M  V30 30805 H 2902.67 -3.18242 -0.644363 0
M  V30 30806 H 2903.68 -4.30567 2.87806 0
M  V30 30807 H 2900.36 -4.16412 0.301278 0
M  V30 30808 H 2901.75 -5.24882 4.19462 0
M  V30 30809 N 2904.47 -0.933936 -1.26946 0
M  V30 30810 C 2905.72 -0.573443 -1.93377 0
M  V30 30811 C 2906.03 0.890583 -1.74149 0
M  V30 30812 O 2907.23 1.36013 -2.34974 0
M  V30 30813 C 2905.69 -0.974808 -3.46447 0
M  V30 30814 C 2905.3 -2.45995 -3.7442 0
M  V30 30815 C 2907.04 -0.685865 -4.18923 0
M  V30 30816 C 2904.95 -2.80039 -5.20896 0
M  V30 30817 H 2903.88 -0.210749 -0.723948 0
M  V30 30818 H 2906.53 -1.13559 -1.44141 0
M  V30 30819 H 2904.91 -0.341251 -3.94527 0
M  V30 30820 H 2906.09 -3.14194 -3.37074 0
M  V30 30821 H 2904.4 -2.72143 -3.15162 0
M  V30 30822 H 2907 -0.916638 -5.26784 0
M  V30 30823 H 2907.34 0.377144 -4.14588 0
M  V30 30824 H 2907.87 -1.27881 -3.76685 0
M  V30 30825 H 2904.61 -3.85274 -5.30325 0
M  V30 30826 H 2904.13 -2.16495 -5.59366 0
M  V30 30827 H 2905.81 -2.68116 -5.88832 0
M  V30 30828 N 2905.94 1.41194 -0.700139 0
M  V30 30829 C 2907.19 2.01155 -0.233041 0
M  V30 30830 C 2907.52 1.55464 1.16881 0
M  V30 30831 O 2906.77 0.758727 1.80394 0
M  V30 30832 C 2907.07 3.56566 -0.244049 0
M  V30 30833 C 2906.74 4.21783 -1.59405 0
M  V30 30834 C 2905.4 4.39312 -1.96363 0
M  V30 30835 C 2907.75 4.58308 -2.482 0
M  V30 30836 C 2905.08 4.90644 -3.21691 0
M  V30 30837 C 2907.43 5.11032 -3.72866 0
M  V30 30838 C 2906.1 5.26772 -4.09961 0
M  V30 30839 H 2905.37 0.736077 -0.0852759 0
M  V30 30840 H 2908.01 1.69026 -0.900129 0
M  V30 30841 H 2906.32 3.88511 0.506595 0
M  V30 30842 H 2908.02 4.00773 0.13496 0
M  V30 30843 H 2904.61 4.08517 -1.29661 0
M  V30 30844 H 2908.79 4.44416 -2.20926 0
M  V30 30845 H 2904.05 5.01014 -3.5042 0
M  V30 30846 H 2908.22 5.38274 -4.41853 0
M  V30 30847 H 2905.85 5.6631 -5.07146 0
M  V30 30848 N 2907.42 0.445212 1.51181 0
M  V30 30849 C 2908.37 -0.36225 2.27939 0
M  V30 30850 C 2909.34 -1.00998 1.31866 0
M  V30 30851 O 2910.52 -1.02738 1.60778 0
M  V30 30852 C 2907.66 -1.45305 3.13018 0
M  V30 30853 C 2906.78 -0.822682 4.24094 0
M  V30 30854 C 2905.91 -1.8892 4.9647 0
M  V30 30855 C 2904.95 -1.23768 5.99456 0
M  V30 30856 N 2904.09 -2.2459 6.6521 0
M  V30 30857 H 2908.93 0.298672 2.96499 0
M  V30 30858 H 2906.47 0.159136 1.46237 0
M  V30 30859 H 2908.42 -2.09686 3.60677 0
M  V30 30860 H 2907.05 -2.0835 2.46557 0
M  V30 30861 H 2906.11 -0.0669696 3.80341 0
M  V30 30862 H 2907.42 -0.307096 4.97854 0
M  V30 30863 H 2906.57 -2.60943 5.47717 0
M  V30 30864 H 2905.31 -2.43853 4.22359 0
M  V30 30865 H 2904.32 -0.502945 5.47495 0
M  V30 30866 H 2905.54 -0.695575 6.75528 0
M  V30 30867 H 2903.49 -2.78589 5.93906 0
M  V30 30868 H 2903.4 -1.77945 7.3476 0
M  V30 30869 H 2904.67 -2.96073 7.21083 0
M  V30 30870 N 2908.9 -1.56605 0.176849 0
M  V30 30871 C 2910.13 -2.01865 -0.475954 0
M  V30 30872 C 2910.55 -1.05626 -1.55643 0
M  V30 30873 O 2909.91 -0.0367048 -1.81263 0
M  V30 30874 C 2909.96 -3.45692 -1.02613 0
M  V30 30875 O 2909.06 -3.52537 -2.13989 0
M  V30 30876 H 2908.4 -0.654253 -0.113351 0
M  V30 30877 H 2910.93 -2.02642 0.282365 0
M  V30 30878 H 2910.94 -3.85111 -1.34735 0
M  V30 30879 H 2909.62 -4.15235 -0.235065 0
M  V30 30880 H 2908.19 -3.24981 -1.8287 0
M  V30 30881 N 2910.38 0.0968524 -1.57302 0
M  V30 30882 C 2911.61 0.814261 -1.90204 0
M  V30 30883 C 2912.02 1.72368 -0.770374 0
M  V30 30884 O 2911.38 1.80671 0.257732 0
M  V30 30885 C 2911.43 1.6291 -3.22711 0
M  V30 30886 O 2911.15 0.756267 -4.31523 0
M  V30 30887 C 2912.65 2.44972 -3.69464 0
M  V30 30888 H 2909.87 0.232914 -0.629279 0
M  V30 30889 H 2912.42 0.0746122 -2.04364 0
M  V30 30890 H 2910.57 2.32128 -3.10154 0
M  V30 30891 H 2910.98 1.32046 -5.07606 0
M  V30 30892 H 2912.46 2.97641 -4.6488 0
M  V30 30893 H 2912.94 3.23355 -2.97217 0
M  V30 30894 H 2913.54 1.80957 -3.84883 0
M  V30 30895 N 2911.86 1.53252 0.36763 0
M  V30 30896 C 2913.09 1.7299 1.12951 0
M  V30 30897 C 2913.49 0.457741 1.83579 0
M  V30 30898 O 2912.84 -0.578976 1.74337 0
M  V30 30899 C 2912.9 2.83906 2.2054 0
M  V30 30900 C 2912.56 4.24326 1.69696 0
M  V30 30901 C 2913.56 5.06745 1.16214 0
M  V30 30902 C 2911.25 4.70728 1.75271 0
M  V30 30903 C 2913.24 6.33656 0.689824 0
M  V30 30904 C 2910.93 5.97619 1.27651 0
M  V30 30905 C 2911.92 6.78914 0.745963 0
M  V30 30906 O 2911.61 8.03423 0.276784 0
M  V30 30907 H 2911.34 0.58208 0.343743 0
M  V30 30908 H 2913.9 2.00783 0.433071 0
M  V30 30909 H 2912.13 2.51583 2.93672 0
M  V30 30910 H 2913.82 2.91841 2.82105 0
M  V30 30911 H 2914.58 4.72069 1.11248 0
M  V30 30912 H 2910.46 4.07526 2.15508 0
M  V30 30913 H 2914.01 6.97058 0.275041 0
M  V30 30914 H 2909.9 6.31794 1.32311 0
M  V30 30915 H 2910.67 8.1754 0.396302 0
M  V30 30916 N 2913.34 -0.627313 1.44577 0
M  V30 30917 C 2914.57 -1.41186 1.50831 0
M  V30 30918 C 2914.97 -1.88731 0.133116 0
M  V30 30919 O 2914.32 -1.61687 -0.871961 0
M  V30 30920 C 2914.38 -2.66347 2.41453 0
M  V30 30921 C 2914.04 -2.40572 3.88554 0
M  V30 30922 C 2915.04 -2.02162 4.78985 0
M  V30 30923 C 2912.72 -2.54094 4.33291 0
M  V30 30924 C 2914.72 -1.77607 6.12156 0
M  V30 30925 C 2912.41 -2.29153 5.66509 0
M  V30 30926 C 2913.4 -1.90969 6.55759 0
M  V30 30927 O 2913.09 -1.66307 7.86509 0
M  V30 30928 H 2912.82 -0.439295 0.513805 0
M  V30 30929 H 2915.38 -0.774026 1.90258 0
M  V30 30930 H 2913.61 -3.32781 1.96961 0
M  V30 30931 H 2915.3 -3.28357 2.38614 0
M  V30 30932 H 2916.06 -1.91269 4.45692 0
M  V30 30933 H 2911.94 -2.82785 3.64079 0
M  V30 30934 H 2915.49 -1.47727 6.81779 0
M  V30 30935 H 2911.38 -2.39657 5.99362 0
M  V30 30936 H 2912.15 -1.80522 7.98345 0
M  V30 30937 N 2914.81 -1.31539 -0.868063 0
M  V30 30938 C 2915.72 -1.21314 -2.00798 0
M  V30 30939 C 2916.74 -0.129462 -1.73518 0
M  V30 30940 O 2917.92 -0.347623 -1.98377 0
M  V30 30941 C 2914.98 -0.922994 -3.34188 0
M  V30 30942 C 2914.04 -2.09377 -3.7478 0
M  V30 30943 C 2913.27 -1.81737 -5.01804 0
M  V30 30944 O 2913.5 -0.753412 -5.65402 0
M  V30 30945 O 2912.43 -2.67467 -5.39208 0
M  V30 30946 H 2916.26 -2.17113 -2.12357 0
M  V30 30947 H 2913.84 -1.11297 -0.996664 0
M  V30 30948 H 2915.72 -0.777106 -4.14173 0
M  V30 30949 H 2914.4 0.00494611 -3.237 0
M  V30 30950 H 2913.31 -2.29506 -2.95428 0
M  V30 30951 H 2914.64 -3.00402 -3.89896 0
M  V30 30952 N 2916.29 1.08262 -1.1453 0
M  V30 30953 C 2917.54 1.80945 -0.915791 0
M  V30 30954 C 2917.87 1.86065 0.556197 0
M  V30 30955 O 2917.15 1.33759 1.41205 0
M  V30 30956 C 2917.43 3.26484 -1.51922 0
M  V30 30957 C 2917.28 3.29565 -3.06116 0
M  V30 30958 C 2918.6 4.235 -1.19732 0
M  V30 30959 H 2915.72 0.656909 -0.334124 0
M  V30 30960 H 2918.36 1.26743 -1.41549 0
M  V30 30961 H 2916.51 3.72771 -1.09427 0
M  V30 30962 H 2918.18 2.9159 -3.57453 0
M  V30 30963 H 2916.43 2.68794 -3.40488 0
M  V30 30964 H 2917.1 4.32145 -3.43445 0
M  V30 30965 H 2919.57 3.85558 -1.56474 0
M  V30 30966 H 2918.45 5.23644 -1.64584 0
M  V30 30967 H 2918.71 4.41956 -0.112849 0
M  V30 30968 N 2917.77 0.940655 1.26449 0
M  V30 30969 C 2918.68 0.455922 2.30127 0
M  V30 30970 C 2919.7 -0.469837 1.67537 0
M  V30 30971 O 2920.87 -0.349494 1.98344 0
M  V30 30972 C 2917.94 -0.271587 3.45635 0
M  V30 30973 C 2917 0.690668 4.23708 0
M  V30 30974 C 2916.23 -0.00221666 5.337 0
M  V30 30975 O 2916.45 -1.21925 5.57217 0
M  V30 30976 O 2915.39 0.676216 5.98089 0
M  V30 30977 H 2919.21 1.31712 2.73652 0
M  V30 30978 H 2916.8 0.70652 1.31638 0
M  V30 30979 H 2918.68 -0.681413 4.15854 0
M  V30 30980 H 2917.36 -1.10818 3.0414 0
M  V30 30981 H 2916.26 1.15043 3.55972 0
M  V30 30982 H 2917.6 1.49486 4.68951 0
M  V30 30983 N 2919.25 -1.40821 0.707617 0
M  V30 30984 C 2920.5 -2.00631 0.243224 0
M  V30 30985 C 2920.82 -1.56367 -1.16509 0
M  V30 30986 O 2920.09 -0.799585 -1.78839 0
M  V30 30987 H 2918.67 -0.741924 0.0869334 0
M  V30 30988 H 2921.33 -1.72274 0.911468 0
M  V30 30989 H 2920.42 -3.10929 0.270068 0
M  V30 30990 N 2920.73 -0.453223 -1.50943 0
M  V30 30991 C 2921.97 0.107674 -2.01813 0
M  V30 30992 C 2922.29 1.41813 -1.33843 0
M  V30 30993 O 2921.56 1.89979 -0.478006 0
M  V30 30994 H 2920.14 0.0427817 -0.745774 0
M  V30 30995 H 2922.81 -0.599564 -1.85449 0
M  V30 30996 H 2921.9 0.272126 -3.10911 0
M  V30 30997 N 2922.2 1.56509 -0.185151 0
M  V30 30998 C 2923.45 1.97586 0.456899 0
M  V30 30999 C 2923.78 1.07164 1.61955 0
M  V30 31000 O 2923.06 0.12158 1.9412 0
M  V30 31001 C 2923.34 3.47974 0.926604 0
M  V30 31002 C 2923.19 4.49174 -0.237176 0
M  V30 31003 C 2924.51 4.01806 1.79554 0
M  V30 31004 H 2921.63 0.718383 0.164606 0
M  V30 31005 H 2924.27 1.88013 -0.274072 0
M  V30 31006 H 2922.42 3.56263 1.54947 0
M  V30 31007 H 2924.1 4.52933 -0.87462 0
M  V30 31008 H 2922.34 4.24561 -0.890521 0
M  V30 31009 H 2923.01 5.51838 0.133827 0
M  V30 31010 H 2925.49 3.96235 1.27033 0
M  V30 31011 H 2924.36 5.07422 2.09318 0
M  V30 31012 H 2924.62 3.4646 2.74623 0
M  V30 31013 N 2923.68 -0.0885089 1.57351 0
M  V30 31014 C 2925.09 -0.642277 1.75305 0
M  V30 31015 C 2925.44 -1.78778 0.80827 0
M  V30 31016 O 2924.57 -2.16397 -0.0116719 0
M  V30 31017 C 2925.16 -1.17188 3.17887 0
M  V30 31018 C 2923.72 -1.67166 3.37242 0
M  V30 31019 C 2922.87 -0.583997 2.71081 0
M  V30 31020 H 2925.82 0.137594 1.58102 0
M  V30 31021 H 2925.84 -2.04108 3.21123 0
M  V30 31022 H 2925.35 -0.337956 3.86626 0
M  V30 31023 H 2923.45 -2.52938 2.73593 0
M  V30 31024 H 2923.57 -1.76012 4.45597 0
M  V30 31025 H 2921.93 -1.02504 2.33163 0
M  V30 31026 H 2922.71 0.239463 3.42464 0
M  V30 31027 N 2925.16 -1.53445 -0.359498 0
M  V30 31028 C 2926.38 -1.74146 -1.12641 0
M  V30 31029 C 2926.81 -0.472039 -1.82081 0
M  V30 31030 O 2926.17 0.57433 -1.71963 0
M  V30 31031 C 2926.22 -2.91134 -2.12776 0
M  V30 31032 O 2925.32 -2.60167 -3.19979 0
M  V30 31033 H 2924.66 -0.578157 -0.326542 0
M  V30 31034 H 2927.19 -2.00352 -0.414763 0
M  V30 31035 H 2927.2 -3.17472 -2.56273 0
M  V30 31036 H 2925.88 -3.83209 -1.61627 0
M  V30 31037 H 2924.45 -2.44666 -2.81412 0
M  V30 31038 N 2926.64 0.619637 -1.44908 0
M  V30 31039 C 2927.89 1.37623 -1.48001 0
M  V30 31040 C 2928.21 1.94641 -0.118329 0
M  V30 31041 O 2927.48 1.76459 0.850829 0
M  V30 31042 H 2926.06 0.510864 -0.545002 0
M  V30 31043 H 2928.72 0.728491 -1.80773 0
M  V30 31044 H 2927.81 2.20175 -2.212 0
M  V30 31045 N 2928.12 1.31997 0.861075 0
M  V30 31046 C 2929.36 1.23501 1.62871 0
M  V30 31047 C 2929.72 -0.201659 1.90938 0
M  V30 31048 O 2930.92 -0.410258 2.65651 0
M  V30 31049 C 2929.19 2.06431 2.91755 0
M  V30 31050 S 2930.75 2.14892 3.82579 0
M  V30 31051 H 2927.57 0.439722 0.558718 0
M  V30 31052 H 2930.17 1.66768 1.02022 0
M  V30 31053 H 2928.88 3.09885 2.69072 0
M  V30 31054 H 2928.41 1.63917 3.57624 0
M  V30 31055 H 2930.42 1.29373 4.79038 0
M  V30 31056 N 2929.59 -1.07653 1.15103 0
M  V30 31057 C 2930.82 -1.84455 0.948209 0
M  V30 31058 C 2931.24 -1.81377 -0.498401 0
M  V30 31059 O 2930.6 -1.20447 -1.35507 0
M  V30 31060 C 2930.65 -3.29578 1.46324 0
M  V30 31061 O 2929.75 -4.07078 0.660414 0
M  V30 31062 H 2929.1 -0.571275 0.338438 0
M  V30 31063 H 2931.63 -1.35825 1.53012 0
M  V30 31064 H 2931.64 -3.80414 1.47475 0
M  V30 31065 H 2930.31 -3.31134 2.51641 0
M  V30 31066 H 2928.89 -3.65917 0.718281 0
M  V30 31067 N 2931.07 -0.947348 -1.25949 0
M  V30 31068 C 2932.32 -0.59703 -1.9308 0
M  V30 31069 C 2932.64 0.867641 -1.74634 0
M  V30 31070 O 2931.91 1.61718 -1.10562 0
M  V30 31071 H 2930.49 -0.217817 -0.714538 0
M  V30 31072 H 2933.15 -1.20401 -1.53263 0
M  V30 31073 H 2932.25 -0.820093 -3.01133 0
M  V30 31074 N 2932.55 1.40444 -0.715075 0
M  V30 31075 C 2933.78 2.05209 -0.263995 0
M  V30 31076 C 2934.19 1.53873 1.094 0
M  V30 31077 O 2933.55 0.695094 1.68744 0
M  V30 31078 C 2933.6 3.60738 -0.234608 0
M  V30 31079 O 2933.32 4.10179 -1.53898 0
M  V30 31080 C 2934.82 4.42676 0.235086 0
M  V30 31081 H 2932.04 0.660405 -0.118771 0
M  V30 31082 H 2934.59 1.79862 -0.973139 0
M  V30 31083 H 2932.74 3.85056 0.425496 0
M  V30 31084 H 2933.16 5.0437 -1.43912 0
M  V30 31085 H 2934.63 5.51621 0.204501 0
M  V30 31086 H 2935.11 4.2022 1.27716 0
M  V30 31087 H 2935.71 4.23464 -0.394723 0
M  V30 31088 N 2934.03 0.461222 1.507 0
M  V30 31089 C 2935.25 -0.0974409 2.07171 0
M  V30 31090 C 2935.68 -1.33617 1.32393 0
M  V30 31091 O 2935.04 -1.77511 0.368707 0
M  V30 31092 C 2935.08 -0.374346 3.58652 0
M  V30 31093 O 2934.19 -1.45664 3.85818 0
M  V30 31094 H 2933.53 0.00863214 0.663944 0
M  V30 31095 H 2936.06 0.649428 1.9402 0
M  V30 31096 H 2936.07 -0.617772 4.03296 0
M  V30 31097 H 2934.74 0.530902 4.12498 0
M  V30 31098 H 2933.32 -1.2013 3.5302 0
M  V30 31099 N 2935.51 -1.56408 0.193449 0
M  V30 31100 C 2936.76 -1.96708 -0.44596 0
M  V30 31101 C 2937.07 -1.08312 -1.62874 0
M  V30 31102 O 2938.27 -1.38388 -2.33583 0
M  V30 31103 C 2936.73 -3.49844 -0.844801 0
M  V30 31104 C 2936.34 -4.46901 0.313598 0
M  V30 31105 C 2938.08 -3.98917 -1.45139 0
M  V30 31106 C 2935.99 -5.91305 -0.10611 0
M  V30 31107 H 2934.92 -0.734496 -0.170385 0
M  V30 31108 H 2937.57 -1.8127 0.285204 0
M  V30 31109 H 2935.95 -3.60781 -1.63258 0
M  V30 31110 H 2937.13 -4.47696 1.09111 0
M  V30 31111 H 2935.44 -4.08012 0.831572 0
M  V30 31112 H 2938.04 -5.04279 -1.77783 0
M  V30 31113 H 2938.38 -3.4313 -2.35728 0
M  V30 31114 H 2938.91 -3.91089 -0.727606 0
M  V30 31115 H 2935.65 -6.51014 0.765557 0
M  V30 31116 H 2935.17 -5.93768 -0.848519 0
M  V30 31117 H 2936.85 -6.44722 -0.542474 0
M  V30 31118 N 2936.98 0.0801629 -1.57396 0
M  V30 31119 C 2938.23 0.780894 -1.86838 0
M  V30 31120 C 2938.56 1.77997 -0.784043 0
M  V30 31121 O 2937.81 1.9445 0.220847 0
M  V30 31122 C 2938.11 1.53164 -3.22917 0
M  V30 31123 C 2937.78 0.673312 -4.45845 0
M  V30 31124 C 2936.44 0.436745 -4.79214 0
M  V30 31125 C 2938.79 0.0775869 -5.21142 0
M  V30 31126 C 2936.12 -0.405165 -5.85299 0
M  V30 31127 C 2938.47 -0.75173 -6.28118 0
M  V30 31128 C 2937.14 -0.998247 -6.59993 0
M  V30 31129 H 2936.41 0.285749 -0.683687 0
M  V30 31130 H 2939.05 0.0419098 -1.91454 0
M  V30 31131 H 2937.36 2.3426 -3.14054 0
M  V30 31132 H 2939.06 2.07847 -3.4293 0
M  V30 31133 H 2935.65 0.867817 -4.19722 0
M  V30 31134 H 2939.83 0.247485 -4.95683 0
M  V30 31135 H 2935.09 -0.604987 -6.08399 0
M  V30 31136 H 2939.26 -1.22012 -6.85628 0
M  V30 31137 H 2936.89 -1.6524 -7.42024 0
M  V30 31138 N 2938.46 1.53634 0.351355 0
M  V30 31139 C 2939.41 1.81762 1.45139 0
M  V30 31140 C 2940.4 0.687598 1.54817 0
M  V30 31141 O 2941.61 0.8708 1.57534 0
M  V30 31142 H 2937.99 0.575728 0.483779 0
M  V30 31143 H 2939.96 2.73808 1.18625 0
M  V30 31144 C 2938.71 2.03711 2.81775 0
M  V30 31145 H 2938.03 2.90111 2.75092 0
M  V30 31146 H 2939.47 2.27362 3.57886 0
M  V30 31147 C 2937.93 0.820329 3.2676 0
M  V30 31148 O 2938.46 0.0159309 4.01697 0
M  V30 31149 N 2936.66 0.639749 2.83471 0
M  V30 31150 H 2936.21 1.2955 2.22653 0
M  V30 31151 H 2936.17 -0.17294 3.13924 0
M  V30 31152 N 2939.94 -0.611943 1.45234 0
M  V30 31153 C 2941.17 -1.40272 1.5277 0
M  V30 31154 C 2941.59 -1.87421 0.159734 0
M  V30 31155 O 2940.95 -1.59883 -0.854808 0
M  V30 31156 C 2941 -2.58622 2.51291 0
M  V30 31157 O 2940.1 -3.59107 2.0277 0
M  V30 31158 H 2939.44 -0.418949 0.515148 0
M  V30 31159 H 2941.97 -0.745154 1.90548 0
M  V30 31160 H 2941.98 -3.05922 2.69955 0
M  V30 31161 H 2940.66 -2.23653 3.50645 0
M  V30 31162 H 2939.23 -3.18485 1.93963 0
M  V30 31163 N 2941.42 -1.32452 -0.854063 0
M  V30 31164 C 2942.35 -1.15772 -1.96652 0
M  V30 31165 C 2943.33 -0.057026 -1.625 0
M  V30 31166 O 2944.51 -0.216445 -1.87253 0
M  V30 31167 C 2941.64 -0.772419 -3.29775 0
M  V30 31168 C 2940.69 -1.87844 -3.82906 0
M  V30 31169 S 2941.52 -3.48683 -4.06424 0
M  V30 31170 C 2942.68 -3.12126 -5.4252 0
M  V30 31171 H 2942.91 -2.09945 -2.105 0
M  V30 31172 H 2940.44 -1.17119 -1.0061 0
M  V30 31173 H 2942.4 -0.55688 -4.06705 0
M  V30 31174 H 2941.06 0.150464 -3.13739 0
M  V30 31175 H 2940.25 -1.56185 -4.79189 0
M  V30 31176 H 2939.86 -2.04986 -3.12821 0
M  V30 31177 H 2942.15 -2.62007 -6.24787 0
M  V30 31178 H 2943.09 -4.07432 -5.79141 0
M  V30 31179 H 2943.5 -2.4913 -5.06552 0
M  V30 31180 N 2942.9 1.07041 -1.15672 0
M  V30 31181 C 2944.15 1.7908 -0.92807 0
M  V30 31182 C 2944.46 1.87827 0.545935 0
M  V30 31183 O 2945.67 2.56419 0.892262 0
M  V30 31184 C 2944.12 3.21826 -1.61109 0
M  V30 31185 C 2943.73 3.2127 -3.12233 0
M  V30 31186 C 2945.47 3.98452 -1.46411 0
M  V30 31187 C 2943.38 4.58688 -3.73308 0
M  V30 31188 H 2942.31 0.671169 -0.343582 0
M  V30 31189 H 2944.96 1.2012 -1.38721 0
M  V30 31190 H 2943.34 3.80998 -1.07965 0
M  V30 31191 H 2944.52 2.71724 -3.72159 0
M  V30 31192 H 2942.83 2.58141 -3.26729 0
M  V30 31193 H 2945.43 5.00021 -1.89429 0
M  V30 31194 H 2945.77 4.14256 -0.412023 0
M  V30 31195 H 2946.31 3.45783 -1.96669 0
M  V30 31196 H 2943.04 4.48089 -4.78431 0
M  V30 31197 H 2942.56 5.08459 -3.18166 0
M  V30 31198 H 2944.24 5.27654 -3.74419 0
M  V30 31199 N 2944.38 0.954014 1.25445 0
M  V30 31200 C 2945.32 0.46482 2.27908 0
M  V30 31201 C 2946.32 -0.464578 1.62905 0
M  V30 31202 O 2947.52 -0.341376 1.76733 0
M  V30 31203 H 2943.9 0.131811 0.740358 0
M  V30 31204 H 2945.87 1.34127 2.66557 0
M  V30 31205 C 2944.62 -0.242528 3.46853 0
M  V30 31206 H 2943.94 0.463488 3.97104 0
M  V30 31207 H 2945.38 -0.548845 4.20433 0
M  V30 31208 C 2943.84 -1.46482 3.03389 0
M  V30 31209 O 2944.37 -2.56257 3.09347 0
M  V30 31210 N 2942.58 -1.32595 2.58587 0
M  V30 31211 H 2942.12 -0.432789 2.53938 0
M  V30 31212 H 2942.08 -2.14493 2.2987 0
M  V30 31213 N 2945.85 -1.40063 0.722513 0
M  V30 31214 C 2946.8 -2.32514 0.0633699 0
M  V30 31215 C 2947.8 -1.52406 -0.739504 0
M  V30 31216 O 2949 -1.68158 -0.642093 0
M  V30 31217 H 2945.38 -0.751998 0.00169014 0
M  V30 31218 H 2947.35 -2.85747 0.859706 0
M  V30 31219 C 2946.1 -3.37422 -0.83916 0
M  V30 31220 H 2945.42 -3.99133 -0.230766 0
M  V30 31221 H 2946.86 -4.0459 -1.2682 0
M  V30 31222 C 2945.32 -2.73459 -1.96778 0
M  V30 31223 O 2945.85 -2.60329 -3.05928 0
M  V30 31224 N 2944.05 -2.31737 -1.75347 0
M  V30 31225 H 2943.6 -2.42616 -0.865744 0
M  V30 31226 H 2943.56 -1.89279 -2.5104 0
M  V30 31227 N 2947.33 -0.469207 -1.50453 0
M  V30 31228 C 2948.58 0.0881071 -2.01507 0
M  V30 31229 C 2948.89 1.40953 -1.35615 0
M  V30 31230 O 2950.1 2.05168 -1.77816 0
M  V30 31231 C 2948.56 0.207533 -3.59301 0
M  V30 31232 C 2948.16 -1.10535 -4.3415 0
M  V30 31233 C 2949.91 0.716908 -4.18403 0
M  V30 31234 C 2947.81 -0.94982 -5.83723 0
M  V30 31235 H 2946.74 0.0367024 -0.753106 0
M  V30 31236 H 2949.4 -0.603818 -1.73281 0
M  V30 31237 H 2947.78 0.963197 -3.84107 0
M  V30 31238 H 2948.95 -1.87182 -4.21069 0
M  V30 31239 H 2947.27 -1.54569 -3.86649 0
M  V30 31240 H 2949.86 0.85027 -5.27896 0
M  V30 31241 H 2950.21 1.70775 -3.7966 0
M  V30 31242 H 2950.74 0.0186812 -3.97796 0
M  V30 31243 H 2947.48 -1.91398 -6.26935 0
M  V30 31244 H 2947 -0.223697 -5.99383 0
M  V30 31245 H 2948.68 -0.615683 -6.44064 0
M  V30 31246 N 2948.81 1.56303 -0.201741 0
M  V30 31247 C 2950.06 1.96942 0.435522 0
M  V30 31248 C 2950.37 1.09174 1.62297 0
M  V30 31249 O 2951.58 1.39624 2.32846 0
M  V30 31250 C 2950.03 3.50288 0.826236 0
M  V30 31251 C 2949.64 4.46728 -0.337294 0
M  V30 31252 C 2951.39 3.99681 1.43021 0
M  V30 31253 C 2949.29 5.91353 0.0747499 0
M  V30 31254 H 2948.22 0.73539 0.166487 0
M  V30 31255 H 2950.87 1.81116 -0.294813 0
M  V30 31256 H 2949.26 3.61641 1.61343 0
M  V30 31257 H 2950.43 4.47111 -1.11484 0
M  V30 31258 H 2948.74 4.07565 -0.853198 0
M  V30 31259 H 2951.34 5.05215 1.75106 0
M  V30 31260 H 2951.68 3.44375 2.33905 0
M  V30 31261 H 2952.22 3.9147 0.706856 0
M  V30 31262 H 2948.96 6.50599 -0.800071 0
M  V30 31263 H 2948.48 5.94209 0.817018 0
M  V30 31264 H 2950.16 6.45 0.508275 0
M  V30 31265 N 2950.29 -0.0718147 1.57436 0
M  V30 31266 C 2951.54 -0.769793 1.86432 0
M  V30 31267 C 2951.85 -1.78742 0.794386 0
M  V30 31268 O 2953.06 -2.53497 0.972193 0
M  V30 31269 C 2951.51 -1.42 3.30702 0
M  V30 31270 C 2951.12 -0.440939 4.45825 0
M  V30 31271 C 2952.86 -2.10035 3.68898 0
M  V30 31272 C 2950.77 -1.09706 5.81136 0
M  V30 31273 H 2949.7 -0.291247 0.695479 0
M  V30 31274 H 2952.35 -0.0230901 1.83485 0
M  V30 31275 H 2950.73 -2.21497 3.28261 0
M  V30 31276 H 2951.91 0.324211 4.59658 0
M  V30 31277 H 2950.22 0.134959 4.16181 0
M  V30 31278 H 2952.82 -2.599 4.67286 0
M  V30 31279 H 2953.16 -2.89975 2.98697 0
M  V30 31280 H 2953.7 -1.3737 3.73329 0
M  V30 31281 H 2950.43 -0.33798 6.54628 0
M  V30 31282 H 2949.95 -1.83307 5.71103 0
M  V30 31283 H 2951.63 -1.61689 6.26471 0
M  V30 31284 N 2951.77 -1.53818 -0.343203 0
M  V30 31285 C 2953.18 -1.44089 -0.68633 0
M  V30 31286 C 2953.38 -0.597916 -1.92425 0
M  V30 31287 O 2952.44 -0.0890362 -2.52343 0
M  V30 31288 C 2953.75 -2.87577 -0.878648 0
M  V30 31289 C 2955.3 -2.97353 -0.977243 0
M  V30 31290 C 2955.77 -4.41949 -1.20187 0
M  V30 31291 N 2957.26 -4.45476 -1.26907 0
M  V30 31292 C 2958 -5.54491 -1.46039 0
M  V30 31293 N 2957.5 -6.73511 -1.62342 0
M  V30 31294 N 2959.29 -5.42105 -1.4859 0
M  V30 31295 H 2951.44 -2.07118 0.470715 0
M  V30 31296 H 2953.7 -0.93627 0.148668 0
M  V30 31297 H 2953.41 -3.51677 -0.0405402 0
M  V30 31298 H 2953.28 -3.32544 -1.78028 0
M  V30 31299 H 2955.67 -2.33393 -1.80587 0
M  V30 31300 H 2955.75 -2.55746 -0.0525048 0
M  V30 31301 H 2955.39 -5.0649 -0.378173 0
M  V30 31302 H 2955.32 -4.81148 -2.14018 0
M  V30 31303 H 2957.82 -3.5971 -1.15831 0
M  V30 31304 H 2958.13 -7.52356 -1.76578 0
M  V30 31305 H 2956.47 -6.76455 -1.59478 0
M  V30 31306 H 2959.66 -4.48079 -1.35436 0
M  V30 31307 H 2959.84 -6.27123 -1.63159 0
M  V30 31308 N 2953.24 0.604233 -1.45557 0
M  V30 31309 C 2954.47 1.3897 -1.53281 0
M  V30 31310 C 2954.89 1.88064 -0.166542 0
M  V30 31311 O 2954.24 1.62406 0.832491 0
M  V30 31312 C 2954.29 2.59191 -2.51997 0
M  V30 31313 O 2954.02 2.12137 -3.83314 0
M  V30 31314 C 2955.52 3.5201 -2.69451 0
M  V30 31315 H 2952.74 0.425287 -0.51901 0
M  V30 31316 H 2955.28 0.736587 -1.90774 0
M  V30 31317 H 2953.44 3.20537 -2.17566 0
M  V30 31318 H 2953.85 2.90271 -4.36856 0
M  V30 31319 H 2955.32 4.32901 -3.42492 0
M  V30 31320 H 2955.8 4.02567 -1.75603 0
M  V30 31321 H 2956.41 2.96515 -3.04892 0
M  V30 31322 N 2954.72 1.32903 0.847027 0
M  V30 31323 C 2955.65 1.25095 1.97164 0
M  V30 31324 C 2956.63 0.133191 1.69578 0
M  V30 31325 O 2957.82 0.321625 1.91518 0
M  V30 31326 C 2954.95 0.981064 3.33155 0
M  V30 31327 C 2953.9 2.06088 3.75116 0
M  V30 31328 C 2953.23 1.64327 5.08823 0
M  V30 31329 C 2954.53 3.47676 3.89768 0
M  V30 31330 H 2956.22 2.19187 2.03954 0
M  V30 31331 H 2953.77 1.05519 0.979888 0
M  V30 31332 H 2955.72 0.912964 4.11391 0
M  V30 31333 H 2954.44 0.00451299 3.266 0
M  V30 31334 H 2953.1 2.11927 2.99137 0
M  V30 31335 H 2952.75 0.653964 4.98731 0
M  V30 31336 H 2952.45 2.36582 5.37869 0
M  V30 31337 H 2953.98 1.58968 5.89543 0
M  V30 31338 H 2955.39 3.44384 4.58337 0
M  V30 31339 H 2953.79 4.18346 4.30241 0
M  V30 31340 H 2954.86 3.86778 2.92456 0
M  V30 31341 N 2956.2 -1.06426 1.16238 0
M  V30 31342 C 2957.45 -1.79465 0.944462 0
M  V30 31343 C 2957.78 -1.86926 -0.526525 0
M  V30 31344 O 2957.05 -1.35988 -1.39059 0
M  V30 31345 C 2957.34 -3.24025 1.57097 0
M  V30 31346 C 2957.19 -3.24653 3.11321 0
M  V30 31347 C 2958.51 -4.21542 1.26454 0
M  V30 31348 H 2955.63 -0.651511 0.344533 0
M  V30 31349 H 2958.27 -1.24475 1.43548 0
M  V30 31350 H 2956.42 -3.70983 1.15343 0
M  V30 31351 H 2958.09 -2.85867 3.62047 0
M  V30 31352 H 2956.33 -2.63344 3.44721 0
M  V30 31353 H 2957.01 -4.26627 3.50277 0
M  V30 31354 H 2959.48 -3.8302 1.62588 0
M  V30 31355 H 2958.36 -5.2096 1.72894 0
M  V30 31356 H 2958.62 -4.4172 0.183146 0
M  V30 31357 N 2957.68 -0.960653 -1.24937 0
M  V30 31358 C 2958.61 -0.503855 -2.27999 0
M  V30 31359 C 2959.59 0.4529 -1.6396 0
M  V30 31360 O 2960.77 0.350552 -1.9101 0
M  V30 31361 C 2957.9 0.213474 -3.46643 0
M  V30 31362 C 2956.86 -0.658609 -4.22902 0
M  V30 31363 C 2956.18 0.189808 -5.34363 0
M  V30 31364 C 2957.48 -1.93972 -4.84946 0
M  V30 31365 H 2959.18 -1.36526 -2.6646 0
M  V30 31366 H 2956.72 -0.65792 -1.28091 0
M  V30 31367 H 2958.68 0.544212 -4.17871 0
M  V30 31368 H 2957.4 1.10918 -3.07189 0
M  V30 31369 H 2956.06 -0.972517 -3.53465 0
M  V30 31370 H 2955.71 1.08545 -4.91149 0
M  V30 31371 H 2955.41 -0.390434 -5.86301 0
M  V30 31372 H 2956.93 0.515377 -6.08421 0
M  V30 31373 H 2958.35 -1.67501 -5.48285 0
M  V30 31374 H 2956.74 -2.4661 -5.47086 0
M  V30 31375 H 2957.81 -2.63907 -4.06794 0
M  V30 31376 N 2959.16 1.39677 -0.729931 0
M  V30 31377 C 2960.43 1.94552 -0.202184 0
M  V30 31378 C 2960.81 1.66709 1.29504 0
M  V30 31379 O 2960.16 0.992553 2.05817 0
M  V30 31380 C 2960.37 3.44947 -0.53034 0
M  V30 31381 C 2961.72 4.21913 -0.476882 0
M  V30 31382 O 2962.74 3.53122 -0.467234 0
M  V30 31383 O 2961.6 5.44501 -0.466965 0
M  V30 31384 H 2958.7 0.826251 -0.0351789 0
M  V30 31385 H 2961.24 1.49205 -0.808444 0
M  V30 31386 H 2960.01 3.58627 -1.56532 0
M  V30 31387 H 2959.64 3.97461 0.10515 0
M  V30 31388 N 2960.63 0.47718 1.50202 0
M  V30 31389 C 2961.6 -0.302559 2.27194 0
M  V30 31390 C 2962.6 -0.915089 1.32222 0
M  V30 31391 O 2963.79 -0.783321 1.55595 0
M  V30 31392 C 2960.92 -1.43162 3.09382 0
M  V30 31393 H 2962.11 0.37273 2.97575 0
M  V30 31394 H 2959.67 0.231419 1.54577 0
M  V30 31395 H 2960.4 -2.14178 2.43513 0
M  V30 31396 H 2960.19 -0.99813 3.79183 0
M  V30 31397 H 2961.68 -1.9815 3.67595 0
M  V30 31398 N 2962.11 -1.56194 0.210027 0
M  V30 31399 C 2963.34 -2.0209 -0.429337 0
M  V30 31400 C 2963.75 -1.08922 -1.54701 0
M  V30 31401 O 2963.09 -0.0889858 -1.83484 0
M  V30 31402 C 2963.16 -3.44351 -1.0326 0
M  V30 31403 C 2962.82 -4.56971 -0.0518069 0
M  V30 31404 C 2963.82 -5.14544 0.74434 0
M  V30 31405 C 2961.5 -5.0226 0.0636068 0
M  V30 31406 C 2963.5 -6.15868 1.64272 0
M  V30 31407 C 2961.18 -6.03424 0.965529 0
M  V30 31408 C 2962.18 -6.60103 1.75364 0
M  V30 31409 O 2961.87 -7.593 2.64042 0
M  V30 31410 H 2961.6 -0.666892 -0.110592 0
M  V30 31411 H 2964.15 -2.02885 0.320472 0
M  V30 31412 H 2962.38 -3.40589 -1.83128 0
M  V30 31413 H 2964.07 -3.73963 -1.57817 0
M  V30 31414 H 2964.84 -4.80412 0.665561 0
M  V30 31415 H 2960.72 -4.5783 -0.539681 0
M  V30 31416 H 2964.26 -6.60035 2.2583 0
M  V30 31417 H 2960.16 -6.36979 1.04537 0
M  V30 31418 H 2960.93 -7.76778 2.57988 0
M  V30 31419 N 2963.59 0.0634645 -1.57472 0
M  V30 31420 C 2964.54 1.07454 -2.0426 0
M  V30 31421 C 2965.51 1.37972 -0.924828 0
M  V30 31422 O 2966.69 1.48897 -1.19307 0
M  V30 31423 C 2963.83 2.38067 -2.49836 0
M  V30 31424 C 2962.95 2.14007 -3.75266 0
M  V30 31425 C 2962.08 3.38243 -4.09591 0
M  V30 31426 C 2961.12 3.09585 -5.28037 0
M  V30 31427 N 2960.26 4.26175 -5.5796 0
M  V30 31428 H 2965.1 0.668575 -2.90403 0
M  V30 31429 H 2962.63 0.318546 -1.4361 0
M  V30 31430 H 2964.59 3.14336 -2.74315 0
M  V30 31431 H 2963.22 2.7645 -1.66659 0
M  V30 31432 H 2962.27 1.28392 -3.58078 0
M  V30 31433 H 2963.59 1.88844 -4.6167 0
M  V30 31434 H 2962.74 4.22903 -4.35015 0
M  V30 31435 H 2961.48 3.6649 -3.21771 0
M  V30 31436 H 2960.48 2.23323 -5.02401 0
M  V30 31437 H 2961.71 2.82653 -6.17482 0
M  V30 31438 H 2959.65 4.54437 -4.73099 0
M  V30 31439 H 2959.57 4.04315 -6.388 0
M  V30 31440 H 2960.84 5.11807 -5.8794 0
M  V30 31441 N 2965.07 1.53998 0.33504 0
M  V30 31442 C 2966.02 1.78963 1.41267 0
M  V30 31443 C 2967 0.645156 1.47399 0
M  V30 31444 O 2968.19 0.904812 1.52125 0
M  V30 31445 C 2965.32 2.01023 2.78289 0
M  V30 31446 C 2964.41 3.21559 2.76515 0
M  V30 31447 N 2964.8 4.42853 2.44366 0
M  V30 31448 C 2963.1 3.22901 3.07654 0
M  V30 31449 C 2963.8 5.24742 2.5104 0
M  V30 31450 N 2962.78 4.61655 2.87012 0
M  V30 31451 H 2966.58 2.70329 1.15322 0
M  V30 31452 H 2964.09 1.53037 0.543456 0
M  V30 31453 H 2966.09 2.17045 3.55945 0
M  V30 31454 H 2964.75 1.10903 3.05173 0
M  V30 31455 H 2965.76 4.70055 2.17414 0
M  V30 31456 H 2962.44 2.42777 3.39655 0
M  V30 31457 H 2963.83 6.31573 2.29272 0
M  V30 31458 N 2966.55 -0.596505 1.45875 0
M  V30 31459 C 2967.8 -1.35133 1.4974 0
M  V30 31460 C 2968.11 -1.95041 0.147789 0
M  V30 31461 O 2969.31 -2.71424 0.0641461 0
M  V30 31462 C 2967.77 -2.44839 2.63784 0
M  V30 31463 C 2967.38 -1.91294 4.05106 0
M  V30 31464 C 2969.12 -3.21751 2.76906 0
M  V30 31465 C 2967.03 -2.98548 5.10513 0
M  V30 31466 H 2965.96 -0.507949 0.557228 0
M  V30 31467 H 2968.61 -0.638117 1.72047 0
M  V30 31468 H 2966.99 -3.18896 2.3478 0
M  V30 31469 H 2968.17 -1.23872 4.43838 0
M  V30 31470 H 2966.48 -1.27093 3.9653 0
M  V30 31471 H 2969.08 -4.01769 3.52826 0
M  V30 31472 H 2969.42 -3.73464 1.83931 0
M  V30 31473 H 2969.95 -2.54797 3.05489 0
M  V30 31474 H 2966.69 -2.51738 6.05234 0
M  V30 31475 H 2966.21 -3.64501 4.76339 0
M  V30 31476 H 2967.89 -3.62739 5.35751 0
M  V30 31477 N 2968.02 -1.3335 -0.839967 0
M  V30 31478 C 2969.3 -1.15345 -1.57971 0
M  V30 31479 C 2969.68 0.280595 -2.09227 0
M  V30 31480 O 2969.03 1.27947 -1.8932 0
M  V30 31481 C 2969.24 -2.19363 -2.71442 0
M  V30 31482 C 2970.59 -2.53462 -3.4065 0
M  V30 31483 O 2971.61 -2.18022 -2.81682 0
M  V30 31484 O 2970.47 -3.14274 -4.47095 0
M  V30 31485 H 2967.56 -0.446056 -0.696393 0
M  V30 31486 H 2970.11 -1.44929 -0.882817 0
M  V30 31487 H 2968.88 -3.15694 -2.31199 0
M  V30 31488 H 2968.51 -1.90859 -3.48796 0
M  V30 31489 N 2969.5 1.05808 -1.16801 0
M  V30 31490 C 2970.43 2.15363 -0.902279 0
M  V30 31491 C 2971.41 1.69408 0.153321 0
M  V30 31492 O 2972.6 1.942 0.00438619 0
M  V30 31493 C 2969.73 3.44895 -0.407972 0
M  V30 31494 C 2968.68 4.04384 -1.40204 0
M  V30 31495 C 2968.01 5.29186 -0.765941 0
M  V30 31496 C 2969.31 4.42593 -2.77324 0
M  V30 31497 H 2971 2.3785 -1.81846 0
M  V30 31498 H 2968.55 1.14309 -0.875751 0
M  V30 31499 H 2970.5 4.20879 -0.209524 0
M  V30 31500 H 2969.23 3.22042 0.543723 0
M  V30 31501 H 2967.88 3.30463 -1.58712 0
M  V30 31502 H 2967.53 5.02632 0.192394 0
M  V30 31503 H 2967.23 5.69947 -1.42949 0
M  V30 31504 H 2968.76 6.07862 -0.577626 0
M  V30 31505 H 2970.17 5.09637 -2.6257 0
M  V30 31506 H 2968.57 4.94353 -3.40198 0
M  V30 31507 H 2969.64 3.53225 -3.32205 0
M  V30 31508 N 2970.98 0.967265 1.24426 0
M  V30 31509 C 2972.26 0.545809 1.8783 0
M  V30 31510 C 2972.64 -0.977066 1.87127 0
M  V30 31511 O 2971.99 -1.84823 1.3436 0
M  V30 31512 C 2972.2 1.13684 3.29965 0
M  V30 31513 C 2973.54 1.22147 4.06651 0
M  V30 31514 O 2974.57 1.08932 3.39134 0
M  V30 31515 O 2973.43 1.43027 5.27452 0
M  V30 31516 H 2970.52 0.181926 0.806741 0
M  V30 31517 H 2973.07 1.06151 1.32401 0
M  V30 31518 H 2971.84 2.17963 3.24973 0
M  V30 31519 H 2971.46 0.605163 3.92968 0
M  V30 31520 N 2972.46 -1.39288 0.737328 0
M  V30 31521 C 2973.41 -2.30588 0.0988769 0
M  V30 31522 C 2974.38 -1.49336 -0.727179 0
M  V30 31523 O 2975.56 -1.78016 -0.686663 0
M  V30 31524 C 2972.7 -3.35683 -0.800675 0
M  V30 31525 C 2971.81 -4.31983 0.038249 0
M  V30 31526 C 2970.95 -5.24146 -0.862792 0
M  V30 31527 C 2969.99 -6.12097 -0.0192563 0
M  V30 31528 N 2969.13 -6.96609 -0.876358 0
M  V30 31529 H 2973.97 -2.84615 0.883081 0
M  V30 31530 H 2971.5 -1.4014 0.447136 0
M  V30 31531 H 2973.46 -3.95207 -1.33669 0
M  V30 31532 H 2972.09 -2.83106 -1.55083 0
M  V30 31533 H 2971.14 -3.74058 0.691707 0
M  V30 31534 H 2972.45 -4.93999 0.690381 0
M  V30 31535 H 2971.61 -5.88708 -1.46656 0
M  V30 31536 H 2970.35 -4.62457 -1.5487 0
M  V30 31537 H 2969.35 -5.46546 0.597298 0
M  V30 31538 H 2970.58 -6.75851 0.663467 0
M  V30 31539 H 2968.52 -6.37486 -1.54751 0
M  V30 31540 H 2968.44 -7.55478 -0.280759 0
M  V30 31541 H 2969.71 -7.65598 -1.46562 0
M  V30 31542 N 2973.94 -0.485139 -1.49947 0
M  V30 31543 C 2974.87 0.291323 -2.31676 0
M  V30 31544 C 2975.85 0.977359 -1.39218 0
M  V30 31545 O 2977.03 0.971825 -1.68134 0
M  V30 31546 C 2974.16 1.36552 -3.19329 0
M  V30 31547 C 2973.12 0.800285 -4.20451 0
M  V30 31548 C 2972.44 1.97382 -4.96935 0
M  V30 31549 C 2973.74 -0.197959 -5.21925 0
M  V30 31550 H 2975.44 -0.390827 -2.96838 0
M  V30 31551 H 2972.98 -0.189401 -1.42749 0
M  V30 31552 H 2974.94 1.91631 -3.75307 0
M  V30 31553 H 2973.66 2.07664 -2.52078 0
M  V30 31554 H 2972.32 0.271364 -3.65594 0
M  V30 31555 H 2971.97 2.67225 -4.26145 0
M  V30 31556 H 2971.67 1.60177 -5.65347 0
M  V30 31557 H 2973.19 2.52925 -5.55753 0
M  V30 31558 H 2974.61 0.264138 -5.72691 0
M  V30 31559 H 2973 -0.485014 -5.98137 0
M  V30 31560 H 2974.07 -1.1192 -4.71807 0
M  V30 31561 N 2975.42 1.56081 -0.218307 0
M  V30 31562 C 2976.36 2.20146 0.69315 0
M  V30 31563 C 2977.33 1.156 1.19272 0
M  V30 31564 O 2978.52 1.43942 1.25241 0
M  V30 31565 C 2975.66 2.88278 1.8971 0
M  V30 31566 C 2974.77 4.07409 1.43673 0
M  V30 31567 C 2973.91 4.63334 2.59799 0
M  V30 31568 C 2972.94 5.74773 2.10482 0
M  V30 31569 N 2972.08 6.25003 3.19869 0
M  V30 31570 H 2976.92 2.9767 0.140108 0
M  V30 31571 H 2974.46 1.46988 0.0574034 0
M  V30 31572 H 2976.42 3.25963 2.60392 0
M  V30 31573 H 2975.05 2.13277 2.42307 0
M  V30 31574 H 2974.1 3.75231 0.624941 0
M  V30 31575 H 2975.41 4.87942 1.03508 0
M  V30 31576 H 2974.56 5.03444 3.38569 0
M  V30 31577 H 2973.3 3.81957 3.0325 0
M  V30 31578 H 2972.31 5.34168 1.30173 0
M  V30 31579 H 2973.53 6.57983 1.68034 0
M  V30 31580 H 2971.48 5.46541 3.62808 0
M  V30 31581 H 2971.4 7.0065 2.83946 0
M  V30 31582 H 2972.66 6.6977 3.98784 0
M  V30 31583 N 2976.89 -0.0551124 1.57504 0
M  V30 31584 C 2978.14 -0.749976 1.87238 0
M  V30 31585 C 2978.46 -1.7789 0.8133 0
M  V30 31586 O 2979.66 -2.52451 0.999025 0
M  V30 31587 C 2978.12 -1.38485 3.3219 0
M  V30 31588 C 2977.73 -0.393629 4.46267 0
M  V30 31589 C 2979.47 -2.0611 3.71105 0
M  V30 31590 C 2977.38 -1.03536 5.82266 0
M  V30 31591 H 2976.31 -0.283854 0.698529 0
M  V30 31592 H 2978.96 -0.00362772 1.835 0
M  V30 31593 H 2977.34 -2.18003 3.30592 0
M  V30 31594 H 2978.51 0.372946 4.59288 0
M  V30 31595 H 2976.83 0.179093 4.16015 0
M  V30 31596 H 2979.43 -2.54929 4.70016 0
M  V30 31597 H 2979.77 -2.86791 3.01756 0
M  V30 31598 H 2980.3 -1.33402 3.74765 0
M  V30 31599 H 2977.04 -0.268529 6.5495 0
M  V30 31600 H 2976.56 -1.7724 5.73015 0
M  V30 31601 H 2978.24 -1.55036 6.2815 0
M  V30 31602 N 2978.37 -1.54173 -0.326869 0
M  V30 31603 C 2979.62 -1.71433 -1.06271 0
M  V30 31604 C 2979.93 -0.493157 -1.89281 0
M  V30 31605 O 2981.14 -0.547037 -2.65932 0
M  V30 31606 C 2979.6 -3.0321 -1.93886 0
M  V30 31607 C 2979.2 -4.32721 -1.16003 0
M  V30 31608 C 2980.95 -3.29834 -2.67226 0
M  V30 31609 C 2978.85 -5.55561 -2.02746 0
M  V30 31610 H 2977.78 -0.638862 -0.400464 0
M  V30 31611 H 2980.44 -1.80668 -0.321152 0
M  V30 31612 H 2978.82 -2.87874 -2.71928 0
M  V30 31613 H 2979.99 -4.58812 -0.427562 0
M  V30 31614 H 2978.31 -4.12837 -0.543598 0
M  V30 31615 H 2980.9 -4.18804 -3.32427 0
M  V30 31616 H 2981.25 -2.47568 -3.34688 0
M  V30 31617 H 2981.78 -3.46022 -1.96249 0
M  V30 31618 H 2978.52 -6.40419 -1.39798 0
M  V30 31619 H 2978.04 -5.33694 -2.73736 0
M  V30 31620 H 2979.72 -5.9184 -2.61409 0
M  V30 31621 N 2979.85 0.58876 -1.4619 0
M  V30 31622 C 2980.81 1.68026 -1.55884 0
M  V30 31623 C 2981.81 1.54761 -0.436542 0
M  V30 31624 O 2983 1.59488 -0.700654 0
M  V30 31625 C 2980.13 3.07416 -1.47337 0
M  V30 31626 H 2981.33 1.6079 -2.53153 0
M  V30 31627 H 2978.88 0.806092 -1.3391 0
M  V30 31628 H 2979.62 3.20213 -0.513249 0
M  V30 31629 H 2979.4 3.18452 -2.28759 0
M  V30 31630 H 2980.89 3.86885 -1.57194 0
M  V30 31631 N 2981.33 1.33794 0.832883 0
M  V30 31632 C 2982.56 1.28456 1.61811 0
M  V30 31633 C 2982.97 -0.145562 1.88639 0
M  V30 31634 O 2982.31 -1.10001 1.47124 0
M  V30 31635 C 2982.37 1.99709 2.98925 0
M  V30 31636 C 2982.03 3.49 2.95039 0
M  V30 31637 C 2983.03 4.44093 2.70329 0
M  V30 31638 C 2980.72 3.91266 3.14986 0
M  V30 31639 C 2982.71 5.79426 2.65602 0
M  V30 31640 C 2980.4 5.26702 3.09884 0
M  V30 31641 C 2981.4 6.20593 2.85224 0
M  V30 31642 O 2981.08 7.53548 2.80037 0
M  V30 31643 H 2980.82 0.443702 0.510005 0
M  V30 31644 H 2983.37 1.76824 1.04511 0
M  V30 31645 H 2981.6 1.45941 3.58103 0
M  V30 31646 H 2983.29 1.87792 3.59846 0
M  V30 31647 H 2984.05 4.12761 2.54663 0
M  V30 31648 H 2979.93 3.1859 3.33199 0
M  V30 31649 H 2983.48 6.52683 2.46274 0
M  V30 31650 H 2979.37 5.57656 3.251 0
M  V30 31651 H 2980.14 7.63167 2.95836 0
M  V30 31652 N 2982.81 -1.05187 1.1736 0
M  V30 31653 C 2984.05 -1.77837 0.960118 0
M  V30 31654 C 2984.37 -1.88144 -0.512521 0
M  V30 31655 O 2983.64 -1.39824 -1.37208 0
M  V30 31656 H 2982.22 -0.658735 0.352246 0
M  V30 31657 H 2984.89 -1.27006 1.47836 0
M  V30 31658 H 2983.98 -2.79513 1.38848 0
M  V30 31659 N 2984.28 -0.97385 -1.23911 0
M  V30 31660 C 2985.56 -0.555762 -1.87538 0
M  V30 31661 C 2985.94 0.967129 -1.87643 0
M  V30 31662 O 2985.29 1.84108 -1.35338 0
M  V30 31663 C 2985.5 -1.15433 -3.29357 0
M  V30 31664 C 2986.85 -1.24301 -4.05998 0
M  V30 31665 O 2987.87 -1.10729 -3.38552 0
M  V30 31666 O 2986.73 -1.45822 -5.26686 0
M  V30 31667 H 2983.82 -0.186202 -0.805765 0
M  V30 31668 H 2986.37 -1.06851 -1.31837 0
M  V30 31669 H 2985.14 -2.19684 -3.23813 0
M  V30 31670 H 2984.76 -0.625994 -3.92641 0
M  V30 31671 N 2985.76 1.38895 -0.744705 0
M  V30 31672 C 2987.04 1.94327 -0.222807 0
M  V30 31673 C 2987.42 1.68073 1.27728 0
M  V30 31674 O 2986.77 1.01433 2.04753 0
M  V30 31675 C 2986.98 3.44365 -0.566896 0
M  V30 31676 C 2988.32 4.21384 -0.521605 0
M  V30 31677 O 2989.35 3.52607 -0.504661 0
M  V30 31678 O 2988.21 5.43975 -0.52469 0
M  V30 31679 H 2985.3 0.825832 -0.0439404 0
M  V30 31680 H 2987.85 1.4834 -0.824223 0
M  V30 31681 H 2986.62 3.56947 -1.60327 0
M  V30 31682 H 2986.24 3.9755 0.0629878 0
M  V30 31683 N 2987.24 0.493084 1.49688 0
M  V30 31684 C 2988.49 -0.0543162 2.02727 0
M  V30 31685 C 2988.82 -1.37373 1.37267 0
M  V30 31686 O 2988.09 -1.87811 0.505677 0
M  V30 31687 C 2988.38 -0.215162 3.59457 0
M  V30 31688 C 2988.23 1.12682 4.35457 0
M  V30 31689 C 2989.55 -0.959511 4.29513 0
M  V30 31690 H 2986.67 -0.0182657 0.736774 0
M  V30 31691 H 2989.31 0.642956 1.78791 0
M  V30 31692 H 2987.46 -0.809055 3.79982 0
M  V30 31693 H 2989.13 1.75899 4.26447 0
M  V30 31694 H 2987.38 1.71808 3.98327 0
M  V30 31695 H 2988.05 0.967673 5.43452 0
M  V30 31696 H 2990.52 -0.455904 4.13595 0
M  V30 31697 H 2989.4 -1.04088 5.3894 0
M  V30 31698 H 2989.66 -2.00137 3.94205 0
M  V30 31699 N 2988.72 -1.55963 0.226582 0
M  V30 31700 C 2989.97 -1.9761 -0.404135 0
M  V30 31701 C 2990.28 -1.11743 -1.6054 0
M  V30 31702 O 2991.49 -1.43311 -2.30595 0
M  V30 31703 C 2989.94 -3.51558 -0.770404 0
M  V30 31704 C 2989.55 -4.46135 0.408322 0
M  V30 31705 C 2991.29 -4.01906 -1.36644 0
M  V30 31706 C 2989.2 -5.91397 0.0193386 0
M  V30 31707 H 2988.13 -0.737945 -0.154767 0
M  V30 31708 H 2990.78 -1.80624 0.323589 0
M  V30 31709 H 2989.16 -3.64162 -1.55569 0
M  V30 31710 H 2990.34 -4.45281 1.18583 0
M  V30 31711 H 2988.65 -4.06156 0.91793 0
M  V30 31712 H 2991.25 -5.07937 -1.67046 0
M  V30 31713 H 2991.59 -3.48053 -2.28397 0
M  V30 31714 H 2992.13 -3.92545 -0.644487 0
M  V30 31715 H 2988.87 -6.49244 0.903474 0
M  V30 31716 H 2988.39 -5.95434 -0.722381 0
M  V30 31717 H 2990.06 -6.45727 -0.405597 0
M  V30 31718 N 2990.2 0.0467589 -1.57531 0
M  V30 31719 C 2991.44 0.741087 -1.88452 0
M  V30 31720 C 2991.77 1.76294 -0.821623 0
M  V30 31721 O 2991.03 1.94875 0.179551 0
M  V30 31722 C 2991.33 1.4628 -3.26094 0
M  V30 31723 C 2990.99 0.57859 -4.47172 0
M  V30 31724 C 2989.65 0.334999 -4.80032 0
M  V30 31725 C 2992.01 -0.0329725 -5.2119 0
M  V30 31726 C 2989.33 -0.529224 -5.84308 0
M  V30 31727 C 2991.69 -0.884794 -6.26382 0
M  V30 31728 C 2990.35 -1.13802 -6.57727 0
M  V30 31729 H 2989.62 0.271183 -0.689595 0
M  V30 31730 H 2992.27 0.00129012 -1.915 0
M  V30 31731 H 2990.57 2.27546 -3.18952 0
M  V30 31732 H 2992.27 2.00526 -3.47261 0
M  V30 31733 H 2988.86 0.778592 -4.21469 0
M  V30 31734 H 2993.04 0.142288 -4.96096 0
M  V30 31735 H 2988.3 -0.733901 -6.06979 0
M  V30 31736 H 2992.47 -1.36528 -6.82886 0
M  V30 31737 H 2990.1 -1.80942 -7.38352 0
M  V30 31738 N 2991.67 1.54344 0.318688 0
M  V30 31739 C 2992.9 1.77071 1.07984 0
M  V30 31740 C 2993.32 0.520148 1.80765 0
M  V30 31741 O 2992.68 -0.528535 1.73425 0
M  V30 31742 C 2992.73 2.96673 2.04982 0
M  V30 31743 O 2991.83 2.68559 3.12969 0
M  V30 31744 H 2991.18 0.586612 0.311099 0
M  V30 31745 H 2993.71 2.01381 0.361497 0
M  V30 31746 H 2993.72 3.24155 2.47765 0
M  V30 31747 H 2992.39 3.8736 1.5141 0
M  V30 31748 H 2990.97 2.52041 2.74826 0
M  V30 31749 N 2993.15 -0.580999 1.465 0
M  V30 31750 C 2994.38 -1.36316 1.55247 0
M  V30 31751 C 2994.79 -1.88212 0.193092 0
M  V30 31752 O 2994.13 -1.64379 -0.82008 0
M  V30 31753 C 2994.2 -2.5853 2.49805 0
M  V30 31754 C 2993.86 -2.28089 3.96011 0
M  V30 31755 C 2994.86 -1.86821 4.85174 0
M  V30 31756 C 2992.54 -2.40181 4.41156 0
M  V30 31757 C 2994.54 -1.58042 6.17496 0
M  V30 31758 C 2992.22 -2.11014 5.73512 0
M  V30 31759 C 2993.22 -1.7001 6.61503 0
M  V30 31760 O 2992.91 -1.41201 7.91402 0
M  V30 31761 H 2992.64 -0.422727 0.527521 0
M  V30 31762 H 2995.19 -0.713105 1.92624 0
M  V30 31763 H 2993.42 -3.26346 2.07449 0
M  V30 31764 H 2995.11 -3.20599 2.4894 0
M  V30 31765 H 2995.88 -1.76993 4.51551 0
M  V30 31766 H 2991.76 -2.71059 3.72891 0
M  V30 31767 H 2995.3 -1.25962 6.86134 0
M  V30 31768 H 2991.2 -2.20468 6.06683 0
M  V30 31769 H 2991.97 -1.55032 8.03684 0
M  V30 31770 N 2994.63 -1.34234 -0.825776 0
M  V30 31771 C 2995.58 -1.25574 -1.93649 0
M  V30 31772 C 2996.55 -0.131565 -1.65578 0
M  V30 31773 O 2997.73 -0.31206 -1.88231 0
M  V30 31774 C 2994.87 -1.01421 -3.2986 0
M  V30 31775 C 2993.99 -2.22585 -3.70243 0
M  V30 31776 C 2993.12 -1.91739 -4.95388 0
M  V30 31777 C 2992.16 -3.09063 -5.28343 0
M  V30 31778 N 2991.3 -2.78119 -6.44666 0
M  V30 31779 H 2996.14 -2.20564 -2.00388 0
M  V30 31780 H 2993.67 -1.09664 -0.980422 0
M  V30 31781 H 2995.63 -0.854557 -4.08354 0
M  V30 31782 H 2994.26 -0.100993 -3.22642 0
M  V30 31783 H 2993.31 -2.49481 -2.87165 0
M  V30 31784 H 2994.63 -3.10253 -3.9057 0
M  V30 31785 H 2993.78 -1.72494 -5.81662 0
M  V30 31786 H 2992.52 -1.01328 -4.77058 0
M  V30 31787 H 2991.52 -3.28907 -4.40568 0
M  V30 31788 H 2992.75 -4.00248 -5.48615 0
M  V30 31789 H 2990.69 -1.90281 -6.27797 0
M  V30 31790 H 2990.61 -3.59318 -6.65152 0
M  V30 31791 H 2991.88 -2.62371 -7.34018 0
M  V30 31792 N 2996.11 1.04563 -1.17917 0
M  V30 31793 C 2997.34 1.81075 -0.994747 0
M  V30 31794 C 2997.75 1.8352 0.460113 0
M  V30 31795 O 2997.09 1.26574 1.33134 0
M  V30 31796 C 2997.15 3.28204 -1.46704 0
M  V30 31797 C 2996.82 3.4943 -2.94529 0
M  V30 31798 C 2997.81 3.41031 -3.9242 0
M  V30 31799 C 2995.5 3.76188 -3.32848 0
M  V30 31800 C 2997.49 3.59086 -5.26627 0
M  V30 31801 C 2995.18 3.93891 -4.67218 0
M  V30 31802 C 2996.18 3.8534 -5.63917 0
M  V30 31803 O 2995.86 4.02541 -6.95856 0
M  V30 31804 H 2995.6 0.577242 -0.351807 0
M  V30 31805 H 2998.15 1.32707 -1.56774 0
M  V30 31806 H 2996.38 3.77518 -0.837658 0
M  V30 31807 H 2998.07 3.8626 -1.24731 0
M  V30 31808 H 2998.84 3.20329 -3.64162 0
M  V30 31809 H 2994.71 3.81945 -2.58146 0
M  V30 31810 H 2998.26 3.52328 -6.02089 0
M  V30 31811 H 2994.16 4.14086 -4.95179 0
M  V30 31812 H 2994.92 4.19731 -7.02687 0
M  V30 31813 N 2997.59 0.980408 1.23393 0
M  V30 31814 C 2998.53 0.520337 2.24858 0
M  V30 31815 C 2999.5 -0.440792 1.60144 0
M  V30 31816 O 3000.69 -0.348336 1.87593 0
M  V30 31817 C 2997.83 -0.171085 3.44676 0
M  V30 31818 C 2996.94 0.830307 4.23946 0
M  V30 31819 C 2996.08 0.113691 5.31078 0
M  V30 31820 C 2995.12 1.1043 6.02056 0
M  V30 31821 N 2994.25 0.416832 7.00862 0
M  V30 31822 H 2999.09 1.39037 2.63577 0
M  V30 31823 H 2996.63 0.696705 1.29555 0
M  V30 31824 H 2998.59 -0.588765 4.13025 0
M  V30 31825 H 2997.22 -1.00498 3.06757 0
M  V30 31826 H 2996.27 1.36637 3.55013 0
M  V30 31827 H 2997.58 1.58517 4.72942 0
M  V30 31828 H 2996.74 -0.361353 6.05623 0
M  V30 31829 H 2995.47 -0.673769 4.83023 0
M  V30 31830 H 2994.48 1.59009 5.26304 0
M  V30 31831 H 2995.7 1.89242 6.522 0
M  V30 31832 H 2993.65 -0.35142 6.55058 0
M  V30 31833 H 2993.57 1.11035 7.47802 0
M  V30 31834 H 2994.84 -0.0358236 7.79492 0
M  V30 31835 N 2999.06 -1.38498 0.75206 0
M  V30 31836 C 2999.99 -2.33087 0.138759 0
M  V30 31837 C 3000.98 -1.54789 -0.705291 0
M  V30 31838 O 3002.16 -1.83113 -0.646789 0
M  V30 31839 C 2999.29 -3.38964 -0.75635 0
M  V30 31840 C 2998.24 -4.27997 -0.0151486 0
M  V30 31841 C 2997.57 -5.24717 -1.02841 0
M  V30 31842 C 2998.87 -5.09429 1.15235 0
M  V30 31843 H 3000.56 -2.84626 0.928902 0
M  V30 31844 H 2998.11 -1.36849 0.448135 0
M  V30 31845 H 3000.06 -4.04099 -1.19506 0
M  V30 31846 H 2998.79 -2.85905 -1.5788 0
M  V30 31847 H 2997.45 -3.64366 0.404126 0
M  V30 31848 H 2997.09 -4.67946 -1.84488 0
M  V30 31849 H 2996.79 -5.8514 -0.537135 0
M  V30 31850 H 2998.32 -5.92728 -1.46647 0
M  V30 31851 H 2999.73 -5.67813 0.791261 0
M  V30 31852 H 2998.13 -5.7908 1.57438 0
M  V30 31853 H 2999.2 -4.43257 1.96598 0
M  V30 31854 N 3000.54 -0.501015 -1.49424 0
M  V30 31855 C 3001.82 0.106516 -1.9531 0
M  V30 31856 C 3002.2 1.54126 -1.44251 0
M  V30 31857 O 3001.55 2.18873 -0.656276 0
M  V30 31858 C 3001.76 0.0191358 -3.48995 0
M  V30 31859 C 3003.11 0.193055 -4.24161 0
M  V30 31860 O 3004.13 0.0943217 -3.56075 0
M  V30 31861 O 3002.99 0.395773 -5.45065 0
M  V30 31862 H 3000.08 0.0952924 -0.821492 0
M  V30 31863 H 3002.63 -0.563554 -1.60069 0
M  V30 31864 H 3001.4 -0.98142 -3.78793 0
M  V30 31865 H 3001.02 0.729351 -3.90853 0
M  V30 31866 N 3002.02 1.5584 -0.234849 0
M  V30 31867 C 3002.95 2.16871 0.710096 0
M  V30 31868 C 3003.93 1.11708 1.18153 0
M  V30 31869 O 3005.12 1.40034 1.26186 0
M  V30 31870 C 3002.24 2.7597 1.96363 0
M  V30 31871 C 3001.29 3.94079 1.63107 0
M  V30 31872 S 3002.12 5.30303 0.744214 0
M  V30 31873 C 3003.28 5.92849 2.00701 0
M  V30 31874 H 3003.51 2.96683 0.191408 0
M  V30 31875 H 3001.04 1.54388 -0.0194126 0
M  V30 31876 H 3003 3.10657 2.68332 0
M  V30 31877 H 3001.66 1.96126 2.45344 0
M  V30 31878 H 3000.86 4.33979 2.56277 0
M  V30 31879 H 3000.46 3.60607 0.991904 0
M  V30 31880 H 3002.75 6.09632 2.95559 0
M  V30 31881 H 3003.69 6.88567 1.6517 0
M  V30 31882 H 3004.1 5.21804 2.15361 0
M  V30 31883 N 3003.5 -0.038404 1.57553 0
M  V30 31884 C 3004.41 -1.05906 2.09335 0
M  V30 31885 C 3005.43 -1.40245 1.02992 0
M  V30 31886 O 3006.6 -1.49752 1.34671 0
M  V30 31887 C 3003.67 -2.34382 2.55472 0
M  V30 31888 C 3002.73 -2.0671 3.76257 0
M  V30 31889 C 3001.96 -3.2906 4.20185 0
M  V30 31890 O 3002.18 -4.39401 3.63708 0
M  V30 31891 O 3001.12 -3.15308 5.12703 0
M  V30 31892 H 3004.94 -0.649035 2.96684 0
M  V30 31893 H 3002.53 -0.254776 1.47212 0
M  V30 31894 H 3004.41 -3.0993 2.85519 0
M  V30 31895 H 3003.09 -2.74698 1.71238 0
M  V30 31896 H 3001.99 -1.2876 3.51243 0
M  V30 31897 H 3003.33 -1.71255 4.61446 0
M  V30 31898 N 3004.98 -1.54511 -0.310498 0
M  V30 31899 C 3005.94 -1.84071 -1.36567 0
M  V30 31900 C 3006.94 -0.713122 -1.44122 0
M  V30 31901 O 3008.13 -0.981424 -1.43923 0
M  V30 31902 C 3005.26 -2.01248 -2.75159 0
M  V30 31903 H 3006.46 -2.7836 -1.11605 0
M  V30 31904 H 3004.01 -1.46428 -0.546674 0
M  V30 31905 H 3004.74 -1.09214 -3.05357 0
M  V30 31906 H 3004.53 -2.83311 -2.71067 0
M  V30 31907 H 3006.02 -2.2552 -3.51469 0
M  V30 31908 N 3006.46 0.573222 -1.46806 0
M  V30 31909 C 3007.7 1.32733 -1.51871 0
M  V30 31910 C 3008.02 1.94781 -0.178799 0
M  V30 31911 O 3009.22 2.71288 -0.107319 0
M  V30 31912 C 3007.68 2.40611 -2.67646 0
M  V30 31913 C 3007.29 1.84825 -4.08098 0
M  V30 31914 C 3009.03 3.17305 -2.8199 0
M  V30 31915 C 3006.94 2.90388 -5.15198 0
M  V30 31916 H 3005.87 0.49902 -0.565239 0
M  V30 31917 H 3008.52 0.610665 -1.73041 0
M  V30 31918 H 3006.9 3.1512 -2.39824 0
M  V30 31919 H 3008.08 1.16795 -4.45753 0
M  V30 31920 H 3006.39 1.20768 -3.98502 0
M  V30 31921 H 3008.99 3.96105 -3.59173 0
M  V30 31922 H 3009.33 3.7049 -1.89849 0
M  V30 31923 H 3009.86 2.49904 -3.09504 0
M  V30 31924 H 3006.6 2.42077 -6.09162 0
M  V30 31925 H 3006.12 3.56877 -4.82077 0
M  V30 31926 H 3007.8 3.5417 -5.41454 0
M  V30 31927 N 3007.93 1.3467 0.818645 0
M  V30 31928 C 3008.9 1.26487 1.91138 0
M  V30 31929 C 3009.9 0.179072 1.598 0
M  V30 31930 O 3011.09 0.431982 1.68759 0
M  V30 31931 C 3008.22 0.953868 3.27283 0
M  V30 31932 H 3009.41 2.23637 1.99816 0
M  V30 31933 H 3006.96 1.19019 1.01312 0
M  V30 31934 H 3007.7 -0.0142857 3.24297 0
M  V30 31935 H 3007.48 1.7393 3.51413 0
M  V30 31936 H 3008.97 0.921899 4.07297 0
M  V30 31937 N 3009.41 -1.03936 1.1847 0
M  V30 31938 C 3010.36 -2.11978 0.912897 0
M  V30 31939 C 3011.33 -1.65437 -0.148211 0
M  V30 31940 O 3012.51 -1.90798 -0.00829747 0
M  V30 31941 C 3009.65 -3.42204 0.446174 0
M  V30 31942 C 3008.77 -4.0235 1.57285 0
M  V30 31943 C 3007.9 -5.20543 1.05872 0
M  V30 31944 C 3006.94 -5.72722 2.16 0
M  V30 31945 N 3006.08 -6.82201 1.65971 0
M  V30 31946 H 3010.92 -2.34565 1.83802 0
M  V30 31947 H 3008.45 -1.15058 0.916524 0
M  V30 31948 H 3010.41 -4.16904 0.157044 0
M  V30 31949 H 3009.04 -3.1976 -0.441969 0
M  V30 31950 H 3008.09 -3.24964 1.97743 0
M  V30 31951 H 3009.41 -4.37103 2.40297 0
M  V30 31952 H 3008.56 -6.02362 0.724193 0
M  V30 31953 H 3007.3 -4.87297 0.198201 0
M  V30 31954 H 3006.3 -4.89522 2.50296 0
M  V30 31955 H 3007.53 -6.08011 3.0249 0
M  V30 31956 H 3005.48 -6.50828 0.822105 0
M  V30 31957 H 3005.39 -7.16024 2.4258 0
M  V30 31958 H 3006.66 -7.67642 1.3545 0
M  V30 31959 N 3010.89 -0.986938 -1.22871 0
M  V30 31960 C 3011.8 -0.541018 -2.28276 0
M  V30 31961 C 3012.82 0.407334 -1.69165 0
M  V30 31962 O 3013.99 0.275639 -1.99505 0
M  V30 31963 C 3011.06 0.14312 -3.46404 0
M  V30 31964 C 3010.12 -0.847449 -4.20852 0
M  V30 31965 C 3009.35 -0.195864 -5.3334 0
M  V30 31966 O 3009.57 1.0116 -5.61358 0
M  V30 31967 O 3008.51 -0.897728 -5.95168 0
M  V30 31968 H 3012.33 -1.41778 -2.68576 0
M  V30 31969 H 3009.92 -0.75489 -1.28925 0
M  V30 31970 H 3011.8 0.526602 -4.18097 0
M  V30 31971 H 3010.48 0.994539 -3.08043 0
M  V30 31972 H 3009.38 -1.28175 -3.51457 0
M  V30 31973 H 3010.72 -1.66788 -4.63079 0
M  V30 31974 N 3012.37 1.38098 -0.759394 0
M  V30 31975 C 3013.62 1.9959 -0.31752 0
M  V30 31976 C 3013.94 1.60583 1.10626 0
M  V30 31977 O 3013.21 0.865409 1.75748 0
M  V30 31978 H 3011.79 0.738187 -0.11441 0
M  V30 31979 H 3014.45 1.68772 -0.974779 0
M  V30 31980 H 3013.54 3.09713 -0.385282 0
M  V30 31981 N 3013.85 0.508932 1.49156 0
M  V30 31982 C 3014.78 -0.302075 2.27201 0
M  V30 31983 C 3015.79 -0.923506 1.34072 0
M  V30 31984 O 3016.98 -0.805504 1.59292 0
M  V30 31985 C 3014.08 -1.44099 3.06739 0
M  V30 31986 C 3013.25 -0.925402 4.27499 0
M  V30 31987 C 3012.31 -1.94289 4.89018 0
M  V30 31988 O 3011.34 -1.50825 5.48854 0
M  V30 31989 N 3012.54 -3.27382 4.79376 0
M  V30 31990 H 3015.3 0.367167 2.97442 0
M  V30 31991 H 3012.87 0.341961 1.58247 0
M  V30 31992 H 3014.86 -2.11938 3.44767 0
M  V30 31993 H 3013.43 -2.01425 2.39053 0
M  V30 31994 H 3012.65 -0.0716609 3.94135 0
M  V30 31995 H 3013.94 -0.559461 5.05715 0
M  V30 31996 H 3013.33 -3.65376 4.31876 0
M  V30 31997 H 3011.89 -3.90912 5.21566 0
M  V30 31998 N 3015.32 -1.55714 0.243111 0
M  V30 31999 C 3016.27 -2.2122 -0.658039 0
M  V30 32000 C 3017.24 -1.17483 -1.17418 0
M  V30 32001 O 3018.43 -1.45917 -1.22935 0
M  V30 32002 C 3015.57 -2.9126 -1.85099 0
M  V30 32003 C 3014.68 -4.09643 -1.37173 0
M  V30 32004 C 3013.81 -4.67408 -2.52395 0
M  V30 32005 C 3012.85 -5.78049 -2.01311 0
M  V30 32006 N 3011.99 -6.30012 -3.09885 0
M  V30 32007 H 3016.83 -2.97856 -0.092733 0
M  V30 32008 H 3014.37 -1.47061 -0.0340116 0
M  V30 32009 H 3016.32 -3.30064 -2.55173 0
M  V30 32010 H 3014.95 -2.17105 -2.38884 0
M  V30 32011 H 3014.01 -3.76178 -0.565166 0
M  V30 32012 H 3015.32 -4.89527 -0.957323 0
M  V30 32013 H 3014.47 -5.08767 -3.30516 0
M  V30 32014 H 3013.21 -3.86733 -2.97135 0
M  V30 32015 H 3012.22 -5.36171 -1.21658 0
M  V30 32016 H 3013.44 -6.60573 -1.57545 0
M  V30 32017 H 3011.39 -5.52243 -3.54067 0
M  V30 32018 H 3011.3 -7.05079 -2.72763 0
M  V30 32019 H 3012.57 -6.76029 -3.88078 0
M  V30 32020 N 3016.8 0.030048 -1.57571 0
M  V30 32021 C 3018.03 0.731794 -1.93205 0
M  V30 32022 C 3018.44 1.69472 -0.841186 0
M  V30 32023 O 3017.78 1.82702 0.191199 0
M  V30 32024 C 3017.85 1.54447 -3.24633 0
M  V30 32025 C 3017.51 0.746428 -4.50863 0
M  V30 32026 C 3018.51 0.0471395 -5.19879 0
M  V30 32027 C 3016.19 0.701259 -4.97381 0
M  V30 32028 C 3018.19 -0.686629 -6.33691 0
M  V30 32029 C 3015.87 -0.0362554 -6.11089 0
M  V30 32030 C 3016.87 -0.72896 -6.79099 0
M  V30 32031 O 3016.56 -1.4545 -7.90632 0
M  V30 32032 H 3016.29 0.210764 -0.642304 0
M  V30 32033 H 3018.84 -0.00807804 -2.05398 0
M  V30 32034 H 3017.07 2.32813 -3.08764 0
M  V30 32035 H 3018.76 2.12874 -3.456 0
M  V30 32036 H 3019.53 0.0730729 -4.84945 0
M  V30 32037 H 3015.41 1.22993 -4.4429 0
M  V30 32038 H 3018.95 -1.22785 -6.86709 0
M  V30 32039 H 3014.85 -0.0641155 -6.45468 0
M  V30 32040 H 3015.62 -1.36808 -8.06986 0
M  V30 32041 N 3018.28 1.54674 0.3023 0
M  V30 32042 C 3019.53 1.73549 1.03562 0
M  V30 32043 C 3019.85 0.523481 1.87842 0
M  V30 32044 O 3019.12 -0.462261 1.90368 0
M  V30 32045 H 3017.7 0.639935 0.385347 0
M  V30 32046 H 3020.36 1.92024 0.333598 0
M  V30 32047 H 3019.46 2.62418 1.68947 0
M  V30 32048 N 3019.76 -0.565428 1.47108 0
M  V30 32049 C 3020.69 -1.68307 1.61849 0
M  V30 32050 C 3021.67 -1.6353 0.468187 0
M  V30 32051 O 3022.85 -1.81279 0.696536 0
M  V30 32052 C 3019.98 -3.06949 1.6248 0
M  V30 32053 C 3018.94 -3.26568 2.76654 0
M  V30 32054 C 3018.26 -4.65913 2.62353 0
M  V30 32055 C 3019.56 -3.12733 4.18324 0
M  V30 32056 H 3021.26 -1.56226 2.55409 0
M  V30 32057 H 3018.8 -0.750157 1.22917 0
M  V30 32058 H 3020.76 -3.84974 1.71385 0
M  V30 32059 H 3019.48 -3.1997 0.654748 0
M  V30 32060 H 3018.14 -2.50948 2.67247 0
M  V30 32061 H 3017.79 -4.75722 1.63394 0
M  V30 32062 H 3017.49 -4.7999 3.38945 0
M  V30 32063 H 3019.01 -5.46084 2.73175 0
M  V30 32064 H 3020.43 -3.80585 4.28752 0
M  V30 32065 H 3018.82 -3.38324 4.95638 0
M  V30 32066 H 3019.89 -2.09584 4.37267 0
M  V30 32067 N 3021.24 -1.35102 -0.811492 0
M  V30 32068 C 3022.46 -1.31204 -1.59979 0
M  V30 32069 C 3022.88 0.111519 -1.8847 0
M  V30 32070 O 3022.24 1.06203 -1.48416 0
M  V30 32071 C 3022.29 -2.1119 -2.93396 0
M  V30 32072 O 3022.01 -3.47994 -2.66142 0
M  V30 32073 C 3023.51 -2.1482 -3.87772 0
M  V30 32074 H 3020.73 -0.450908 -0.496913 0
M  V30 32075 H 3023.27 -1.77884 -1.00883 0
M  V30 32076 H 3021.43 -1.68121 -3.49019 0
M  V30 32077 H 3021.84 -3.89478 -3.51294 0
M  V30 32078 H 3023.32 -2.75187 -4.78515 0
M  V30 32079 H 3023.79 -1.14563 -4.23995 0
M  V30 32080 H 3024.4 -2.58028 -3.38085 0
M  V30 32081 N 3022.71 1.03306 -1.19019 0
M  V30 32082 C 3023.96 1.76037 -0.984573 0
M  V30 32083 C 3024.28 1.89469 0.485903 0
M  V30 32084 O 3025.48 2.59128 0.810233 0
M  V30 32085 C 3023.94 3.16537 -1.71266 0
M  V30 32086 C 3023.55 3.11174 -3.22296 0
M  V30 32087 C 3025.29 3.93592 -1.59013 0
M  V30 32088 C 3023.2 4.4658 -3.87712 0
M  V30 32089 H 3022.13 0.659898 -0.364761 0
M  V30 32090 H 3024.78 1.15646 -1.42472 0
M  V30 32091 H 3023.16 3.7737 -1.20032 0
M  V30 32092 H 3024.33 2.59747 -3.80616 0
M  V30 32093 H 3022.65 2.47616 -3.34776 0
M  V30 32094 H 3025.25 4.93741 -2.05241 0
M  V30 32095 H 3025.59 4.12736 -0.543607 0
M  V30 32096 H 3026.12 3.39351 -2.0757 0
M  V30 32097 H 3022.86 4.32641 -4.92445 0
M  V30 32098 H 3022.38 4.98079 -3.34181 0
M  V30 32099 H 3024.06 5.15475 -3.91017 0
M  V30 32100 N 3024.19 0.99344 1.22346 0
M  V30 32101 C 3025.42 0.688055 1.95124 0
M  V30 32102 C 3025.84 -0.747358 1.73378 0
M  V30 32103 O 3025.19 -1.50437 1.03319 0
M  V30 32104 C 3025.24 0.985158 3.47817 0
M  V30 32105 O 3024.96 2.36417 3.68834 0
M  V30 32106 C 3026.47 0.697551 4.37777 0
M  V30 32107 H 3023.69 0.254492 0.620866 0
M  V30 32108 H 3026.23 1.32836 1.55483 0
M  V30 32109 H 3024.38 0.390651 3.85425 0
M  V30 32110 H 3024.8 2.46385 4.63028 0
M  V30 32111 H 3026.27 0.955699 5.43664 0
M  V30 32112 H 3026.75 -0.368447 4.37652 0
M  V30 32113 H 3027.36 1.27313 4.05797 0
M  V30 32114 N 3025.67 -1.37693 0.766707 0
M  V30 32115 C 3027.08 -1.82478 0.394793 0
M  V30 32116 C 3027.43 -1.63906 -1.07839 0
M  V30 32117 O 3026.56 -1.1474 -1.83477 0
M  V30 32118 C 3027.15 -3.31281 0.709798 0
M  V30 32119 C 3025.71 -3.74364 0.391002 0
M  V30 32120 C 3024.86 -2.60291 0.956238 0
M  V30 32121 H 3027.81 -1.26236 0.961778 0
M  V30 32122 H 3027.83 -3.80499 -0.00735456 0
M  V30 32123 H 3027.34 -3.44767 1.78206 0
M  V30 32124 H 3025.44 -3.66451 -0.674148 0
M  V30 32125 H 3025.56 -4.70652 0.895728 0
M  V30 32126 H 3023.92 -2.51837 0.380788 0
M  V30 32127 H 3024.7 -2.76571 2.0338 0
M  V30 32128 N 3027.15 -0.516835 -1.48884 0
M  V30 32129 C 3028.11 0.242216 -2.27917 0
M  V30 32130 C 3029.11 0.879711 -1.34602 0
M  V30 32131 O 3030.3 0.741792 -1.57617 0
M  V30 32132 C 3027.43 1.34909 -3.13069 0
M  V30 32133 H 3028.63 -0.451496 -2.96482 0
M  V30 32134 H 3026.18 -0.272321 -1.53909 0
M  V30 32135 H 3026.91 2.07646 -2.49105 0
M  V30 32136 H 3026.7 0.897246 -3.81696 0
M  V30 32137 H 3028.19 1.88334 -3.7272 0
M  V30 32138 N 3028.63 1.55583 -0.251365 0
M  V30 32139 C 3029.9 1.90978 0.422695 0
M  V30 32140 C 3030.28 1.17268 1.75532 0
M  V30 32141 O 3029.63 0.291628 2.26631 0
M  V30 32142 C 3029.84 3.44039 0.586388 0
M  V30 32143 C 3031.19 4.15376 0.880221 0
M  V30 32144 O 3032.21 3.49802 0.672087 0
M  V30 32145 O 3031.07 5.31375 1.27685 0
M  V30 32146 H 3028.17 0.795062 0.227608 0
M  V30 32147 H 3030.71 1.67103 -0.295762 0
M  V30 32148 H 3029.48 3.8971 -0.352395 0
M  V30 32149 H 3029.11 3.73791 1.35522 0
M  V30 32150 N 3030.1 -0.0216912 1.57585 0
M  V30 32151 C 3031.05 -1.02001 2.07038 0
M  V30 32152 C 3032.02 -1.35471 0.961083 0
M  V30 32153 O 3033.21 -1.45682 1.23213 0
M  V30 32154 C 3030.35 -2.31359 2.5606 0
M  V30 32155 C 3029.46 -2.03982 3.80809 0
M  V30 32156 C 3028.59 -3.27265 4.18415 0
M  V30 32157 C 3027.63 -2.95476 5.3606 0
M  V30 32158 N 3026.77 -4.11232 5.69063 0
M  V30 32159 H 3031.61 -0.591345 2.92074 0
M  V30 32160 H 3029.15 -0.280359 1.44404 0
M  V30 32161 H 3031.11 -3.06952 2.82553 0
M  V30 32162 H 3029.74 -2.71934 1.7393 0
M  V30 32163 H 3028.79 -1.18853 3.61356 0
M  V30 32164 H 3030.1 -1.76538 4.66515 0
M  V30 32165 H 3029.25 -4.1122 4.46075 0
M  V30 32166 H 3027.99 -3.5783 3.31375 0
M  V30 32167 H 3027 -2.09924 5.08146 0
M  V30 32168 H 3028.22 -2.66182 6.24759 0
M  V30 32169 H 3026.17 -4.41734 4.84982 0
M  V30 32170 H 3026.09 -3.87236 6.49295 0
M  V30 32171 H 3027.35 -4.96039 6.01303 0
M  V30 32172 N 3031.58 -1.54832 -0.294093 0
M  V30 32173 C 3032.81 -1.78767 -1.05153 0
M  V30 32174 C 3033.23 -0.548841 -1.79915 0
M  V30 32175 O 3032.59 0.500878 -1.74244 0
M  V30 32176 C 3032.64 -2.99896 -2.00236 0
M  V30 32177 O 3031.74 -2.73504 -3.08657 0
M  V30 32178 H 3031.08 -0.591487 -0.301727 0
M  V30 32179 H 3033.61 -2.01931 -0.329414 0
M  V30 32180 H 3033.62 -3.28056 -2.42577 0
M  V30 32181 H 3032.3 -3.8972 -1.45229 0
M  V30 32182 H 3030.88 -2.56382 -2.70782 0
M  V30 32183 N 3033.06 0.557619 -1.47405 0
M  V30 32184 C 3034.29 1.34505 -1.57871 0
M  V30 32185 C 3034.71 1.86699 -0.229184 0
M  V30 32186 O 3034.07 1.62946 0.79488 0
M  V30 32187 C 3034.12 2.49117 -2.60716 0
M  V30 32188 O 3033.22 3.51334 -2.15959 0
M  V30 32189 H 3032.56 0.399541 -0.530342 0
M  V30 32190 H 3035.09 0.67392 -1.93183 0
M  V30 32191 H 3035.1 2.95692 -2.81123 0
M  V30 32192 H 3033.78 2.10485 -3.58704 0
M  V30 32193 H 3032.35 3.11067 -2.05649 0
M  V30 32194 N 3034.54 1.35531 0.804316 0
M  V30 32195 C 3035.45 1.30756 1.94782 0
M  V30 32196 C 3036.47 0.212102 1.72702 0
M  V30 32197 O 3037.64 0.441875 1.96493 0
M  V30 32198 C 3034.71 1.08139 3.29404 0
M  V30 32199 C 3033.77 2.27019 3.64363 0
M  V30 32200 C 3033 2.05471 4.92562 0
M  V30 32201 O 3033.22 1.02231 5.61164 0
M  V30 32202 O 3032.16 2.92889 5.25833 0
M  V30 32203 H 3035.98 2.26998 2.01757 0
M  V30 32204 H 3033.57 1.15925 0.942428 0
M  V30 32205 H 3035.45 0.973828 4.09993 0
M  V30 32206 H 3034.13 0.149501 3.23355 0
M  V30 32207 H 3033.03 2.4334 2.84141 0
M  V30 32208 H 3034.37 3.18663 3.7512 0
M  V30 32209 N 3036.02 -1.02674 1.19565 0
M  V30 32210 C 3037.26 -1.76109 0.999599 0
M  V30 32211 C 3037.59 -1.88751 -0.469398 0
M  V30 32212 O 3036.85 -1.40258 -1.36478 0
M  V30 32213 C 3037.15 -3.18767 1.61625 0
M  V30 32214 C 3036.81 -3.26126 3.11372 0
M  V30 32215 C 3035.47 -3.27842 3.5224 0
M  V30 32216 C 3037.83 -3.25101 4.0738 0
M  V30 32217 C 3035.15 -3.26192 4.87663 0
M  V30 32218 C 3037.51 -3.24992 5.42737 0
M  V30 32219 C 3036.17 -3.25007 5.83033 0
M  V30 32220 H 3035.44 -0.644427 0.365779 0
M  V30 32221 H 3038.09 -1.20494 1.4884 0
M  V30 32222 H 3036.39 -3.77474 1.0498 0
M  V30 32223 H 3038.09 -3.7426 1.43982 0
M  V30 32224 H 3034.68 -3.2552 2.78809 0
M  V30 32225 H 3038.86 -3.22955 3.76847 0
M  V30 32226 H 3034.12 -3.24528 5.18162 0
M  V30 32227 H 3038.29 -3.2315 6.16885 0
M  V30 32228 H 3035.92 -3.23482 6.87942 0
M  V30 32229 N 3037.5 -0.999914 -1.21817 0
M  V30 32230 C 3038.44 -0.556044 -2.24002 0
M  V30 32231 C 3039.41 0.415259 -1.60825 0
M  V30 32232 O 3040.6 0.318447 -1.88124 0
M  V30 32233 C 3037.74 0.116228 -3.44904 0
M  V30 32234 C 3036.85 -0.897648 -4.22571 0
M  V30 32235 C 3035.99 -0.198166 -5.3083 0
M  V30 32236 C 3035.02 -1.19994 -6.00223 0
M  V30 32237 N 3034.16 -0.52828 -7.0011 0
M  V30 32238 H 3039 -1.43212 -2.61332 0
M  V30 32239 H 3036.54 -0.717228 -1.2843 0
M  V30 32240 H 3038.5 0.522982 -4.13909 0
M  V30 32241 H 3037.13 0.956054 -3.08317 0
M  V30 32242 H 3036.18 -1.42268 -3.52794 0
M  V30 32243 H 3037.49 -1.66021 -4.7036 0
M  V30 32244 H 3036.64 0.264958 -6.06121 0
M  V30 32245 H 3035.38 0.596839 -4.84034 0
M  V30 32246 H 3034.39 -1.67362 -5.23708 0
M  V30 32247 H 3035.61 -1.99594 -6.49106 0
M  V30 32248 H 3033.56 0.247161 -6.55534 0
M  V30 32249 H 3033.48 -1.22917 -7.45941 0
M  V30 32250 H 3034.74 -0.0881913 -7.7945 0
M  V30 32251 N 3038.97 1.37284 -0.773999 0
M  V30 32252 C 3039.88 2.34036 -0.162612 0
M  V30 32253 C 3040.9 1.6029 0.676994 0
M  V30 32254 O 3042.08 1.92367 0.596389 0
M  V30 32255 C 3039.14 3.39467 0.70451 0
M  V30 32256 C 3038.2 4.29031 -0.151813 0
M  V30 32257 C 3037.43 5.29427 0.674017 0
M  V30 32258 O 3037.66 5.37437 1.91097 0
M  V30 32259 O 3036.59 6.01844 0.082034 0
M  V30 32260 H 3040.42 2.88056 -0.962169 0
M  V30 32261 H 3038 1.39485 -0.535194 0
M  V30 32262 H 3039.88 4.03969 1.19947 0
M  V30 32263 H 3038.56 2.87771 1.48222 0
M  V30 32264 H 3037.47 3.67622 -0.693183 0
M  V30 32265 H 3038.8 4.84038 -0.89266 0
M  V30 32266 N 3040.45 0.524724 1.48608 0
M  V30 32267 C 3041.38 -0.229796 2.32366 0
M  V30 32268 C 3042.36 -0.940104 1.41761 0
M  V30 32269 O 3043.55 -0.926906 1.70652 0
M  V30 32270 C 3040.68 -1.28038 3.22837 0
M  V30 32271 C 3039.63 -0.688529 4.22425 0
M  V30 32272 C 3038.96 -1.84137 5.01994 0
M  V30 32273 C 3040.26 0.336268 5.21216 0
M  V30 32274 H 3041.95 0.469391 2.95698 0
M  V30 32275 H 3039.5 0.227181 1.42197 0
M  V30 32276 H 3041.45 -1.81613 3.80256 0
M  V30 32277 H 3040.17 -2.00907 2.57495 0
M  V30 32278 H 3038.83 -0.174338 3.66185 0
M  V30 32279 H 3038.48 -2.55832 4.33081 0
M  V30 32280 H 3038.18 -1.45132 5.69395 0
M  V30 32281 H 3039.71 -2.38101 5.62263 0
M  V30 32282 H 3041.12 -0.112206 5.7319 0
M  V30 32283 H 3039.52 0.643429 5.96641 0
M  V30 32284 H 3040.59 1.2439 4.68674 0
M  V30 32285 N 3041.93 -1.55447 0.259613 0
M  V30 32286 C 3043.21 -1.912 -0.412561 0
M  V30 32287 C 3043.59 -1.18197 -1.74907 0
M  V30 32288 O 3042.93 -0.303643 -2.26474 0
M  V30 32289 C 3043.14 -3.44345 -0.568134 0
M  V30 32290 C 3044.49 -4.15837 -0.85818 0
M  V30 32291 O 3045.52 -3.50154 -0.653526 0
M  V30 32292 O 3044.38 -5.32044 -1.24865 0
M  V30 32293 H 3041.47 -0.796258 -0.223389 0
M  V30 32294 H 3044.02 -1.66944 0.30462 0
M  V30 32295 H 3042.79 -3.89518 0.373058 0
M  V30 32296 H 3042.41 -3.74504 -1.33537 0
M  V30 32297 N 3043.41 0.0133338 -1.57594 0
M  V30 32298 C 3044.64 0.711261 -1.93971 0
M  V30 32299 C 3045.05 1.6857 -0.859113 0
M  V30 32300 O 3044.39 1.82895 0.17181 0
M  V30 32301 C 3044.45 1.50995 -3.26253 0
M  V30 32302 C 3044.11 0.698566 -4.51629 0
M  V30 32303 C 3045.11 -0.00800323 -5.19899 0
M  V30 32304 C 3042.8 0.648466 -4.98097 0
M  V30 32305 C 3044.79 -0.753802 -6.32927 0
M  V30 32306 C 3042.48 -0.101068 -6.11016 0
M  V30 32307 C 3043.48 -0.800947 -6.78287 0
M  V30 32308 O 3043.16 -1.53828 -7.89045 0
M  V30 32309 H 3042.9 0.20394 -0.644503 0
M  V30 32310 H 3045.45 -0.0298628 -2.05378 0
M  V30 32311 H 3043.68 2.29525 -3.11216 0
M  V30 32312 H 3045.37 2.09196 -3.47839 0
M  V30 32313 H 3046.13 0.0216339 -4.84995 0
M  V30 32314 H 3042.01 1.18274 -4.4557 0
M  V30 32315 H 3045.56 -1.30062 -6.85368 0
M  V30 32316 H 3041.45 -0.132572 -6.45364 0
M  V30 32317 H 3042.22 -1.45359 -8.05489 0
M  V30 32318 N 3044.89 1.54985 0.285878 0
M  V30 32319 C 3046.13 1.74638 1.01715 0
M  V30 32320 C 3046.45 0.543375 1.87276 0
M  V30 32321 O 3045.72 -0.442044 1.90848 0
M  V30 32322 H 3044.3 0.643986 0.378538 0
M  V30 32323 H 3046.97 1.92367 0.313213 0
M  V30 32324 H 3046.06 2.64195 1.66154 0
M  V30 32325 N 3046.36 -0.549794 1.47699 0
M  V30 32326 C 3047.31 -1.67721 1.61159 0
M  V30 32327 C 3048.31 -1.62498 0.478635 0
M  V30 32328 O 3049.51 -1.67593 0.656691 0
M  V30 32329 H 3045.89 -0.555101 0.507313 0
M  V30 32330 H 3047.86 -1.53507 2.55887 0
M  V30 32331 C 3046.61 -3.06056 1.65 0
M  V30 32332 H 3045.93 -3.10761 2.51531 0
M  V30 32333 H 3047.37 -3.84611 1.78466 0
M  V30 32334 C 3045.83 -3.34696 0.384735 0
M  V30 32335 O 3046.36 -3.98437 -0.510987 0
M  V30 32336 N 3044.57 -2.89412 0.262485 0
M  V30 32337 H 3044.11 -2.37719 0.992332 0
M  V30 32338 H 3044.07 -3.08945 -0.583122 0
M  V30 32339 N 3047.84 -1.35955 -0.797117 0
M  V30 32340 C 3049.09 -1.29949 -1.55696 0
M  V30 32341 C 3049.42 0.123225 -1.93809 0
M  V30 32342 O 3048.7 1.07483 -1.62104 0
M  V30 32343 C 3048.98 -2.21495 -2.83922 0
M  V30 32344 C 3048.83 -3.72428 -2.52225 0
M  V30 32345 C 3050.15 -2.11962 -3.85694 0
M  V30 32346 H 3047.27 -0.47338 -0.564872 0
M  V30 32347 H 3049.91 -1.6644 -0.916392 0
M  V30 32348 H 3048.06 -1.90506 -3.38585 0
M  V30 32349 H 3049.73 -4.13902 -2.03673 0
M  V30 32350 H 3047.98 -3.92242 -1.85279 0
M  V30 32351 H 3048.65 -4.31883 -3.43775 0
M  V30 32352 H 3051.12 -2.39224 -3.40457 0
M  V30 32353 H 3050 -2.782 -4.73177 0
M  V30 32354 H 3050.26 -1.1045 -4.28081 0
M  V30 32355 N 3049.32 1.02038 -1.20108 0
M  V30 32356 C 3050.55 1.79185 -1.03443 0
M  V30 32357 C 3050.96 1.84148 0.41651 0
M  V30 32358 O 3050.32 1.29171 1.28923 0
M  V30 32359 C 3050.37 3.23833 -1.60669 0
M  V30 32360 O 3050.09 3.19188 -3.00085 0
M  V30 32361 C 3051.59 4.17543 -1.48905 0
M  V30 32362 H 3048.81 0.563623 -0.364102 0
M  V30 32363 H 3051.36 1.28467 -1.59112 0
M  V30 32364 H 3049.51 3.71712 -1.09129 0
M  V30 32365 H 3049.93 4.09952 -3.27169 0
M  V30 32366 H 3051.4 5.16894 -1.93712 0
M  V30 32367 H 3051.88 4.36981 -0.44092 0
M  V30 32368 H 3052.48 3.75544 -1.99617 0
M  V30 32369 N 3050.8 1.00636 1.21285 0
M  V30 32370 C 3052.05 0.689834 1.90388 0
M  V30 32371 C 3052.37 -0.779543 1.78195 0
M  V30 32372 O 3051.63 -1.58083 1.15361 0
M  V30 32373 C 3051.93 1.0583 3.41372 0
M  V30 32374 C 3051.59 2.52217 3.73761 0
M  V30 32375 C 3050.26 2.92217 3.82312 0
M  V30 32376 C 3052.61 3.47035 3.88865 0
M  V30 32377 C 3049.94 4.25997 4.03415 0
M  V30 32378 C 3052.29 4.8049 4.11476 0
M  V30 32379 C 3050.95 5.20212 4.18253 0
M  V30 32380 H 3050.22 0.252428 0.696679 0
M  V30 32381 H 3052.87 1.26505 1.43766 0
M  V30 32382 H 3051.17 0.401349 3.89739 0
M  V30 32383 H 3052.87 0.791229 3.93116 0
M  V30 32384 H 3049.46 2.20218 3.67698 0
M  V30 32385 H 3053.64 3.17296 3.81624 0
M  V30 32386 H 3048.9 4.56341 4.06894 0
M  V30 32387 H 3053.07 5.53895 4.22105 0
M  V30 32388 H 3050.7 6.23888 4.34358 0
M  V30 32389 N 3052.28 -1.36872 0.781268 0
M  V30 32390 C 3053.21 -2.32741 0.188169 0
M  V30 32391 C 3054.19 -1.5625 -0.672299 0
M  V30 32392 O 3055.37 -1.84444 -0.607802 0
M  V30 32393 C 3052.5 -3.40492 -0.684281 0
M  V30 32394 C 3051.46 -4.27933 0.0756394 0
M  V30 32395 C 3050.78 -5.2678 -0.916875 0
M  V30 32396 C 3052.08 -5.0687 1.26015 0
M  V30 32397 H 3053.78 -2.82591 0.989066 0
M  V30 32398 H 3051.32 -1.35868 0.477062 0
M  V30 32399 H 3053.28 -4.06543 -1.10908 0
M  V30 32400 H 3052 -2.89189 -1.5178 0
M  V30 32401 H 3050.66 -3.63427 0.481322 0
M  V30 32402 H 3050.31 -4.71754 -1.7452 0
M  V30 32403 H 3050.01 -5.86148 -0.412897 0
M  V30 32404 H 3051.53 -5.95706 -1.34041 0
M  V30 32405 H 3052.94 -5.66007 0.911524 0
M  V30 32406 H 3051.34 -5.7561 1.69686 0
M  V30 32407 H 3052.41 -4.38988 2.05956 0
M  V30 32408 N 3053.75 -0.532597 -1.48328 0
M  V30 32409 C 3054.7 0.228739 -2.29664 0
M  V30 32410 C 3055.67 0.931376 -1.3753 0
M  V30 32411 O 3056.86 0.931892 -1.66494 0
M  V30 32412 C 3054 1.26808 -3.20957 0
M  V30 32413 C 3053.11 0.574024 -4.28169 0
M  V30 32414 C 3052.24 1.59653 -5.0664 0
M  V30 32415 C 3051.28 0.886073 -6.05653 0
M  V30 32416 N 3050.42 1.85424 -6.77172 0
M  V30 32417 H 3055.26 -0.471032 -2.94254 0
M  V30 32418 H 3052.8 -0.244125 -1.4506 0
M  V30 32419 H 3054.76 1.883 -3.72289 0
M  V30 32420 H 3053.39 1.9362 -2.58285 0
M  V30 32421 H 3052.44 -0.154894 -3.80085 0
M  V30 32422 H 3053.75 0.0163108 -4.98797 0
M  V30 32423 H 3052.9 2.28566 -5.61999 0
M  V30 32424 H 3051.64 2.18813 -4.35858 0
M  V30 32425 H 3050.65 0.182885 -5.49496 0
M  V30 32426 H 3051.87 0.300539 -6.78435 0
M  V30 32427 H 3049.82 2.43488 -6.09138 0
M  V30 32428 H 3049.74 1.34803 -7.43884 0
M  V30 32429 H 3051 2.53528 -7.37119 0
M  V30 32430 N 3055.23 1.55307 -0.267853 0
M  V30 32431 C 3056.65 1.59366 0.0864827 0
M  V30 32432 C 3056.85 1.28508 1.55203 0
M  V30 32433 O 3055.9 1.04245 2.29977 0
M  V30 32434 C 3057.22 2.99379 -0.281602 0
M  V30 32435 C 3058.77 3.12171 -0.22762 0
M  V30 32436 C 3059.24 4.54439 -0.570039 0
M  V30 32437 N 3060.73 4.60257 -0.521319 0
M  V30 32438 C 3061.47 5.68352 -0.759161 0
M  V30 32439 N 3060.96 6.84624 -1.06124 0
M  V30 32440 N 3062.76 5.57868 -0.688449 0
M  V30 32441 H 3054.91 1.73631 -1.22335 0
M  V30 32442 H 3057.17 0.809288 -0.493717 0
M  V30 32443 H 3056.88 3.26769 -1.30056 0
M  V30 32444 H 3056.75 3.7527 0.381126 0
M  V30 32445 H 3059.14 2.84549 0.782043 0
M  V30 32446 H 3059.22 2.38509 -0.924503 0
M  V30 32447 H 3058.86 4.82786 -1.57735 0
M  V30 32448 H 3058.79 5.2639 0.148554 0
M  V30 32449 H 3061.28 3.76728 -0.297426 0
M  V30 32450 H 3061.6 7.62956 -1.22958 0
M  V30 32451 H 3059.94 6.86257 -1.09893 0
M  V30 32452 H 3063.13 4.65909 -0.45235 0
M  V30 32453 H 3063.3 6.42035 -0.877194 0
M  V30 32454 N 3056.71 -0.00497598 1.57599 0
M  V30 32455 C 3057.96 -0.689497 1.89975 0
M  V30 32456 C 3058.28 -1.74588 0.868561 0
M  V30 32457 O 3057.55 -1.95671 -0.0947023 0
M  V30 32458 H 3056.13 -0.257658 0.701157 0
M  V30 32459 H 3058.79 0.0347735 1.94869 0
M  V30 32460 H 3057.89 -1.16389 2.89586 0
M  V30 32461 N 3058.19 -1.55135 -0.277654 0
M  V30 32462 C 3059.44 -1.75522 -1.00987 0
M  V30 32463 C 3059.76 -0.553745 -1.86451 0
M  V30 32464 O 3059.02 0.463862 -1.90123 0
M  V30 32465 C 3059.32 -3.01069 -1.92594 0
M  V30 32466 C 3058.98 -4.33822 -1.22918 0
M  V30 32467 C 3057.65 -4.69904 -1.0365 0
M  V30 32468 C 3060 -5.1602 -0.732981 0
M  V30 32469 C 3057.33 -5.85744 -0.33483 0
M  V30 32470 C 3059.68 -6.32584 -0.0449207 0
M  V30 32471 C 3058.34 -6.67309 0.15951 0
M  V30 32472 H 3057.61 -0.642279 -0.369538 0
M  V30 32473 H 3060.26 -1.89404 -0.282578 0
M  V30 32474 H 3058.56 -2.82067 -2.71929 0
M  V30 32475 H 3060.26 -3.14038 -2.49361 0
M  V30 32476 H 3056.85 -4.0546 -1.38926 0
M  V30 32477 H 3061.03 -4.88624 -0.869479 0
M  V30 32478 H 3056.29 -6.11175 -0.165675 0
M  V30 32479 H 3060.46 -6.95533 0.347352 0
M  V30 32480 H 3058.09 -7.56922 0.705203 0
M  V30 32481 N 3059.67 0.541953 -1.47989 0
M  V30 32482 C 3061.08 0.869359 -1.33844 0
M  V30 32483 C 3061.28 1.98604 -0.340409 0
M  V30 32484 O 3060.34 2.51331 0.242652 0
M  V30 32485 C 3061.65 1.24818 -2.73571 0
M  V30 32486 C 3063.2 1.35875 -2.8197 0
M  V30 32487 C 3063.67 1.77106 -4.22371 0
M  V30 32488 N 3065.17 1.8423 -4.24987 0
M  V30 32489 C 3065.9 2.17493 -5.30551 0
M  V30 32490 N 3065.4 2.49264 -6.46405 0
M  V30 32491 N 3067.19 2.18397 -5.17937 0
M  V30 32492 H 3059.34 -0.195038 -2.11503 0
M  V30 32493 H 3061.6 -0.0246029 -0.947681 0
M  V30 32494 H 3061.31 0.501374 -3.48108 0
M  V30 32495 H 3061.18 2.201 -3.06326 0
M  V30 32496 H 3063.57 2.09635 -2.07695 0
M  V30 32497 H 3063.65 0.387434 -2.52849 0
M  V30 32498 H 3063.3 1.03911 -4.97157 0
M  V30 32499 H 3063.23 2.75267 -4.48927 0
M  V30 32500 H 3065.72 1.62003 -3.41414 0
M  V30 32501 H 3066.03 2.73716 -7.22703 0
M  V30 32502 H 3064.37 2.4681 -6.497 0
M  V30 32503 H 3067.57 1.93026 -4.26449 0
M  V30 32504 H 3067.74 2.4399 -6.00311 0
M  V30 32505 N 3061.15 1.36376 0.789896 0
M  V30 32506 C 3062.08 1.26527 1.91111 0
M  V30 32507 C 3063.09 0.18488 1.61747 0
M  V30 32508 O 3064.28 0.439554 1.73003 0
M  V30 32509 C 3061.38 0.929428 3.25906 0
M  V30 32510 C 3060.55 2.11161 3.83053 0
M  V30 32511 C 3059.61 1.74889 4.96286 0
M  V30 32512 O 3058.64 2.46971 5.12829 0
M  V30 32513 N 3059.84 0.682294 5.76476 0
M  V30 32514 H 3062.6 2.23131 2.00081 0
M  V30 32515 H 3060.17 1.29764 0.968142 0
M  V30 32516 H 3062.16 0.667954 3.9915 0
M  V30 32517 H 3060.73 0.0525392 3.12556 0
M  V30 32518 H 3059.95 2.53591 3.01803 0
M  V30 32519 H 3061.24 2.90142 4.17965 0
M  V30 32520 H 3060.63 0.0837655 5.65638 0
M  V30 32521 H 3059.19 0.480644 6.50025 0
M  V30 32522 N 3062.62 -1.014 1.20647 0
M  V30 32523 C 3063.9 -1.72227 0.927206 0
M  V30 32524 C 3064.28 -2.03444 -0.563346 0
M  V30 32525 O 3063.63 -1.70099 -1.52573 0
M  V30 32526 C 3063.84 -2.98825 1.8029 0
M  V30 32527 C 3065.19 -3.72037 2.04631 0
M  V30 32528 O 3066.21 -3.08787 1.77565 0
M  V30 32529 O 3065.07 -4.85782 2.50355 0
M  V30 32530 H 3062.16 -0.750724 0.346904 0
M  V30 32531 H 3064.71 -1.07224 1.31533 0
M  V30 32532 H 3063.48 -2.72098 2.81209 0
M  V30 32533 H 3063.1 -3.71569 1.41501 0
M  V30 32534 N 3064.1 -1.01278 -1.2075 0
M  V30 32535 C 3065.38 -0.615145 -1.85675 0
M  V30 32536 C 3065.76 0.906942 -1.90625 0
M  V30 32537 O 3065.11 1.79709 -1.41127 0
M  V30 32538 C 3065.32 -1.25852 -3.25518 0
M  V30 32539 C 3066.66 -1.37155 -4.01838 0
M  V30 32540 O 3067.69 -1.21444 -3.34858 0
M  V30 32541 O 3066.55 -1.62504 -5.2178 0
M  V30 32542 H 3063.64 -0.211743 -0.799434 0
M  V30 32543 H 3066.19 -1.10992 -1.2837 0
M  V30 32544 H 3064.96 -2.29874 -3.1666 0
M  V30 32545 H 3064.58 -0.750593 -3.90451 0
M  V30 32546 N 3065.58 1.36456 -0.788516 0
M  V30 32547 C 3066.53 2.30062 -0.18439 0
M  V30 32548 C 3067.5 1.51932 0.671253 0
M  V30 32549 O 3068.68 1.80442 0.62012 0
M  V30 32550 C 3065.82 3.38424 0.675536 0
M  V30 32551 C 3064.93 4.31543 -0.19855 0
M  V30 32552 C 3064.07 5.26987 0.667664 0
M  V30 32553 C 3063.11 6.11747 -0.207933 0
M  V30 32554 N 3062.25 6.99382 0.617212 0
M  V30 32555 H 3067.09 2.81141 -0.988106 0
M  V30 32556 H 3064.62 1.38384 -0.498839 0
M  V30 32557 H 3066.58 3.99896 1.18909 0
M  V30 32558 H 3065.21 2.88667 1.44469 0
M  V30 32559 H 3064.26 3.71233 -0.83006 0
M  V30 32560 H 3065.57 4.91097 -0.87325 0
M  V30 32561 H 3064.73 5.93745 1.24706 0
M  V30 32562 H 3063.47 4.67886 1.37599 0
M  V30 32563 H 3062.47 5.43952 -0.799734 0
M  V30 32564 H 3063.7 6.72923 -0.913848 0
M  V30 32565 H 3061.64 6.4279 1.30985 0
M  V30 32566 H 3061.56 7.56 0.000174369 0
M  V30 32567 H 3062.83 7.7051 1.18046 0
M  V30 32568 N 3067.06 0.540456 1.48043 0
M  V30 32569 C 3068.29 0.0145306 2.06595 0
M  V30 32570 C 3068.7 -1.2771 1.39595 0
M  V30 32571 O 3068.04 -1.77296 0.480825 0
M  V30 32572 C 3068.1 -0.269253 3.5849 0
M  V30 32573 C 3067.76 0.930451 4.47428 0
M  V30 32574 C 3068.76 1.83164 4.86567 0
M  V30 32575 C 3066.45 1.1404 4.89183 0
M  V30 32576 C 3068.44 2.92659 5.66241 0
M  V30 32577 C 3066.13 2.23848 5.68626 0
M  V30 32578 C 3067.13 3.1299 6.07064 0
M  V30 32579 O 3066.81 4.20896 6.8491 0
M  V30 32580 H 3066.55 0.0351586 0.675085 0
M  V30 32581 H 3069.1 0.748563 1.91274 0
M  V30 32582 H 3067.33 -1.05739 3.71963 0
M  V30 32583 H 3069.02 -0.738525 3.99125 0
M  V30 32584 H 3069.78 1.68142 4.54921 0
M  V30 32585 H 3065.66 0.455797 4.58741 0
M  V30 32586 H 3069.21 3.62265 5.96163 0
M  V30 32587 H 3065.1 2.3885 5.99684 0
M  V30 32588 H 3065.87 4.18736 7.0328 0
M  V30 32589 N 3068.54 -1.55163 0.276085 0
M  V30 32590 C 3069.48 -2.22566 -0.610967 0
M  V30 32591 C 3070.45 -1.19947 -1.149 0
M  V30 32592 O 3071.64 -1.48492 -1.19812 0
M  V30 32593 C 3068.78 -2.9512 -1.7888 0
M  V30 32594 C 3067.89 -4.12461 -1.28453 0
M  V30 32595 C 3067.03 -4.72657 -2.42423 0
M  V30 32596 C 3066.06 -5.82189 -1.89004 0
M  V30 32597 N 3065.2 -6.36444 -2.96452 0
M  V30 32598 H 3070.04 -2.97985 -0.0295325 0
M  V30 32599 H 3067.58 -1.471 -0.00281021 0
M  V30 32600 H 3069.54 -3.35403 -2.48115 0
M  V30 32601 H 3068.17 -2.22123 -2.34225 0
M  V30 32602 H 3067.22 -3.77292 -0.485245 0
M  V30 32603 H 3068.53 -4.91448 -0.853272 0
M  V30 32604 H 3067.68 -5.15663 -3.1965 0
M  V30 32605 H 3066.42 -3.92948 -2.88865 0
M  V30 32606 H 3065.43 -5.38631 -1.10258 0
M  V30 32607 H 3066.65 -6.63766 -1.43498 0
M  V30 32608 H 3064.6 -5.59629 -3.42273 0
M  V30 32609 H 3064.52 -7.10706 -2.57746 0
M  V30 32610 H 3065.78 -6.84109 -3.73651 0
M  V30 32611 N 3070.01 -0.00338196 -1.576 0
M  V30 32612 C 3071.26 0.680757 -1.90714 0
M  V30 32613 C 3071.59 1.73591 -0.877294 0
M  V30 32614 O 3070.84 1.95347 0.117462 0
M  V30 32615 C 3071.14 1.35831 -3.30582 0
M  V30 32616 C 3070.81 0.436033 -4.48787 0
M  V30 32617 C 3069.47 0.18211 -4.80855 0
M  V30 32618 C 3071.82 -0.198768 -5.20821 0
M  V30 32619 C 3069.15 -0.714849 -5.82329 0
M  V30 32620 C 3071.5 -1.08362 -6.2325 0
M  V30 32621 C 3070.17 -1.34669 -6.53774 0
M  V30 32622 H 3069.44 0.249107 -0.697873 0
M  V30 32623 H 3072.08 -0.0596348 -1.91407 0
M  V30 32624 H 3070.39 2.17283 -3.2603 0
M  V30 32625 H 3072.09 1.89377 -3.53465 0
M  V30 32626 H 3068.68 0.644111 -4.23732 0
M  V30 32627 H 3072.86 -0.0156132 -4.96298 0
M  V30 32628 H 3068.12 -0.926635 -6.04337 0
M  V30 32629 H 3072.29 -1.58184 -6.78197 0
M  V30 32630 H 3069.92 -2.04341 -7.32222 0
M  V30 32631 N 3071.49 1.5528 0.269423 0
M  V30 32632 C 3072.42 1.91415 1.33726 0
M  V30 32633 C 3073.4 0.776417 1.51347 0
M  V30 32634 O 3074.59 1.03485 1.6433 0
M  V30 32635 C 3071.72 2.18919 2.69614 0
M  V30 32636 C 3070.67 3.34731 2.6672 0
M  V30 32637 C 3070 3.47723 4.06193 0
M  V30 32638 C 3071.3 4.71029 2.25675 0
M  V30 32639 H 3072.99 2.80856 1.03731 0
M  V30 32640 H 3070.54 1.35131 0.497555 0
M  V30 32641 H 3072.49 2.42786 3.44432 0
M  V30 32642 H 3071.21 1.26281 3.01199 0
M  V30 32643 H 3069.87 3.10838 1.94359 0
M  V30 32644 H 3069.52 2.52545 4.35006 0
M  V30 32645 H 3069.22 4.25591 4.0515 0
M  V30 32646 H 3070.75 3.73886 4.82744 0
M  V30 32647 H 3072.16 4.94416 2.90217 0
M  V30 32648 H 3070.56 5.51837 2.35787 0
M  V30 32649 H 3071.63 4.69609 1.20811 0
M  V30 32650 N 3072.97 -0.534097 1.48274 0
M  V30 32651 C 3074.22 -1.2866 1.55337 0
M  V30 32652 C 3074.53 -1.94239 0.230379 0
M  V30 32653 O 3075.74 -2.70908 0.179209 0
M  V30 32654 C 3074.19 -2.33431 2.73931 0
M  V30 32655 C 3073.8 -1.7394 4.12855 0
M  V30 32656 C 3075.55 -3.09717 2.90303 0
M  V30 32657 C 3073.45 -2.76626 5.22716 0
M  V30 32658 H 3072.38 -0.483858 0.578271 0
M  V30 32659 H 3075.03 -0.564571 1.74599 0
M  V30 32660 H 3073.42 -3.08651 2.48094 0
M  V30 32661 H 3074.59 -1.04936 4.48693 0
M  V30 32662 H 3072.9 -1.1016 4.01564 0
M  V30 32663 H 3075.5 -3.86443 3.69549 0
M  V30 32664 H 3075.84 -3.65327 1.99605 0
M  V30 32665 H 3076.38 -2.4161 3.16021 0
M  V30 32666 H 3073.12 -2.25841 6.15366 0
M  V30 32667 H 3072.64 -3.4397 4.9137 0
M  V30 32668 H 3074.32 -3.39689 5.50654 0
M  V30 32669 N 3074.45 -1.36793 -0.782652 0
M  V30 32670 C 3075.4 -1.28194 -1.88548 0
M  V30 32671 C 3076.38 -0.172013 -1.59978 0
M  V30 32672 O 3077.57 -0.405435 -1.72294 0
M  V30 32673 C 3074.7 -1.08027 -3.25861 0
M  V30 32674 C 3073.79 -2.23517 -3.60418 0
M  V30 32675 N 3074.18 -3.48864 -3.66235 0
M  V30 32676 C 3072.48 -2.15431 -3.90519 0
M  V30 32677 C 3073.18 -4.24955 -3.97226 0
M  V30 32678 N 3072.15 -3.5397 -4.1256 0
M  V30 32679 H 3075.96 -2.23134 -1.91281 0
M  V30 32680 H 3073.47 -1.29609 -0.978532 0
M  V30 32681 H 3075.47 -0.999529 -4.04741 0
M  V30 32682 H 3074.13 -0.139939 -3.24398 0
M  V30 32683 H 3075.14 -3.82912 -3.48711 0
M  V30 32684 H 3071.82 -1.29393 -3.96943 0
M  V30 32685 H 3073.21 -5.33387 -4.08593 0
M  V30 32686 N 3075.93 1.00759 -1.21184 0
M  V30 32687 C 3077.34 1.55945 -1.02654 0
M  V30 32688 C 3077.69 1.91773 0.414432 0
M  V30 32689 O 3076.81 1.73207 1.29724 0
M  V30 32690 C 3077.41 2.83362 -1.85718 0
M  V30 32691 C 3075.97 3.35045 -1.71529 0
M  V30 32692 C 3075.11 2.08262 -1.83091 0
M  V30 32693 H 3078.07 0.830355 -1.35243 0
M  V30 32694 H 3078.09 3.55139 -1.36589 0
M  V30 32695 H 3077.6 2.57255 -2.90588 0
M  V30 32696 H 3075.7 3.66093 -0.693322 0
M  V30 32697 H 3075.81 4.06639 -2.53341 0
M  V30 32698 H 3074.18 2.21139 -1.26371 0
M  V30 32699 H 3074.96 1.8457 -2.89463 0
M  V30 32700 N 3077.4 1.01917 1.20211 0
M  V30 32701 C 3078.63 0.729289 1.93621 0
M  V30 32702 C 3079.05 -0.710413 1.74924 0
M  V30 32703 O 3078.4 -1.48212 1.06487 0
M  V30 32704 C 3078.46 1.05871 3.45649 0
M  V30 32705 O 3078.18 2.44187 3.63737 0
M  V30 32706 C 3079.68 0.790253 4.36199 0
M  V30 32707 H 3076.9 0.267605 0.615328 0
M  V30 32708 H 3079.44 1.36104 1.5263 0
M  V30 32709 H 3077.6 0.472317 3.8451 0
M  V30 32710 H 3078.01 2.56151 4.57697 0
M  V30 32711 H 3079.48 1.0708 5.41514 0
M  V30 32712 H 3079.96 -0.275532 4.38335 0
M  V30 32713 H 3080.57 1.35892 4.03005 0
M  V30 32714 N 3078.88 -1.36036 0.795742 0
M  V30 32715 C 3080.13 -1.99071 0.371059 0
M  V30 32716 C 3080.46 -1.63147 -1.05893 0
M  V30 32717 O 3079.71 -0.881194 -1.74738 0
M  V30 32718 C 3080.01 -3.54038 0.4891 0
M  V30 32719 C 3079.68 -4.098 1.88082 0
M  V30 32720 C 3078.34 -4.24741 2.2616 0
M  V30 32721 C 3080.69 -4.40121 2.79182 0
M  V30 32722 C 3078.02 -4.67318 3.54727 0
M  V30 32723 C 3080.37 -4.84132 4.07184 0
M  V30 32724 C 3079.04 -4.97279 4.45275 0
M  V30 32725 H 3078.31 -0.728454 0.13578 0
M  V30 32726 H 3080.95 -1.62424 1.01443 0
M  V30 32727 H 3079.26 -3.91078 -0.237754 0
M  V30 32728 H 3080.95 -4.0075 0.141444 0
M  V30 32729 H 3077.54 -3.98614 1.57495 0
M  V30 32730 H 3081.73 -4.28141 2.51016 0
M  V30 32731 H 3076.98 -4.75685 3.84102 0
M  V30 32732 H 3081.16 -5.06557 4.77884 0
M  V30 32733 H 3078.79 -5.30029 5.44953 0
M  V30 32734 N 3080.36 -0.5483 -1.47755 0
M  V30 32735 C 3081.77 -0.11258 -1.8636 0
M  V30 32736 C 3082.12 1.3152 -1.45591 0
M  V30 32737 O 3081.25 1.98797 -0.854909 0
M  V30 32738 C 3081.84 -0.197532 -3.38224 0
M  V30 32739 C 3080.4 0.183097 -3.75954 0
M  V30 32740 C 3079.55 -0.549107 -2.71809 0
M  V30 32741 H 3082.5 -0.758531 -1.39399 0
M  V30 32742 H 3082.52 0.586151 -3.75958 0
M  V30 32743 H 3082.03 -1.2368 -3.67865 0
M  V30 32744 H 3080.13 1.22381 -3.51928 0
M  V30 32745 H 3080.25 -0.169262 -4.78801 0
M  V30 32746 H 3078.61 0.00678385 -2.54699 0
M  V30 32747 H 3079.39 -1.58936 -3.04293 0
M  V30 32748 N 3081.84 1.55014 -0.28431 0
M  V30 32749 C 3083.08 2.00092 0.330317 0
M  V30 32750 C 3083.42 1.17247 1.54812 0
M  V30 32751 O 3082.69 0.244787 1.92953 0
M  V30 32752 C 3082.98 3.53163 0.70343 0
M  V30 32753 C 3082.83 4.46757 -0.522354 0
M  V30 32754 C 3084.15 4.12412 1.53638 0
M  V30 32755 H 3081.27 0.727397 0.118587 0
M  V30 32756 H 3083.91 1.85889 -0.393087 0
M  V30 32757 H 3082.06 3.65396 1.31977 0
M  V30 32758 H 3083.73 4.46454 -1.1609 0
M  V30 32759 H 3081.97 4.18038 -1.15872 0
M  V30 32760 H 3082.64 5.51572 -0.217392 0
M  V30 32761 H 3085.12 4.03511 1.01576 0
M  V30 32762 H 3084 5.19707 1.76624 0
M  V30 32763 H 3084.26 3.63224 2.52034 0
M  V30 32764 N 3083.32 0.0117398 1.57596 0
M  V30 32765 C 3084.23 -0.991927 2.12598 0
M  V30 32766 C 3085.24 -1.36897 1.07402 0
M  V30 32767 O 3086.42 -1.45392 1.39367 0
M  V30 32768 C 3083.48 -2.26136 2.628 0
M  V30 32769 C 3082.54 -1.94635 3.82643 0
M  V30 32770 C 3081.78 -3.15526 4.30441 0
M  V30 32771 O 3082 -4.27607 3.77503 0
M  V30 32772 O 3080.93 -2.98837 5.22475 0
M  V30 32773 H 3084.76 -0.554319 2.98598 0
M  V30 32774 H 3082.35 -0.207813 1.47948 0
M  V30 32775 H 3084.23 -3.0069 2.95235 0
M  V30 32776 H 3082.9 -2.69111 1.79891 0
M  V30 32777 H 3081.81 -1.1752 3.55162 0
M  V30 32778 H 3083.14 -1.56488 4.66661 0
M  V30 32779 N 3084.79 -1.55421 -0.261185 0
M  V30 32780 C 3085.7 -1.92223 -1.3449 0
M  V30 32781 C 3086.72 -0.820887 -1.53419 0
M  V30 32782 O 3087.9 -1.12102 -1.67318 0
M  V30 32783 C 3084.96 -2.19697 -2.68205 0
M  V30 32784 C 3084.02 -3.43184 -2.57921 0
M  V30 32785 C 3083.26 -3.69338 -3.8526 0
M  V30 32786 O 3083.48 -2.97801 -4.86488 0
M  V30 32787 O 3082.41 -4.62871 -3.84752 0
M  V30 32788 H 3086.24 -2.84499 -1.06273 0
M  V30 32789 H 3083.82 -1.42119 -0.460727 0
M  V30 32790 H 3085.71 -2.3874 -3.47248 0
M  V30 32791 H 3084.38 -1.30602 -2.96184 0
M  V30 32792 H 3083.29 -3.29463 -1.77214 0
M  V30 32793 H 3084.62 -4.32536 -2.3489 0
M  V30 32794 N 3086.27 0.526227 -1.48555 0
M  V30 32795 C 3087.52 1.27835 -1.56017 0
M  V30 32796 C 3087.83 1.94114 -0.240677 0
M  V30 32797 O 3089.04 2.70809 -0.193573 0
M  V30 32798 C 3087.5 2.31975 -2.75165 0
M  V30 32799 C 3087.1 1.71748 -4.13771 0
M  V30 32800 C 3088.85 3.08173 -2.91942 0
M  V30 32801 C 3086.76 2.7385 -5.24175 0
M  V30 32802 H 3085.69 0.480785 -0.580829 0
M  V30 32803 H 3088.34 0.555304 -1.74896 0
M  V30 32804 H 3086.72 3.07331 -2.49727 0
M  V30 32805 H 3087.89 1.02555 -4.49243 0
M  V30 32806 H 3086.21 1.08029 -4.02143 0
M  V30 32807 H 3088.8 3.84477 -3.71593 0
M  V30 32808 H 3089.15 3.64263 -2.0154 0
M  V30 32809 H 3089.68 2.39931 -3.17298 0
M  V30 32810 H 3086.42 2.22575 -6.16555 0
M  V30 32811 H 3085.94 3.4136 -4.93187 0
M  V30 32812 H 3087.62 3.36764 -5.52448 0
M  V30 32813 N 3087.75 1.37206 0.775387 0
M  V30 32814 C 3088.98 1.35203 1.56217 0
M  V30 32815 C 3089.39 -0.0654227 1.89087 0
M  V30 32816 O 3088.73 -1.03662 1.51657 0
M  V30 32817 C 3088.79 2.12208 2.90186 0
M  V30 32818 C 3088.46 3.612 2.79971 0
M  V30 32819 C 3089.45 4.55159 2.5125 0
M  V30 32820 C 3087.14 4.04274 2.98107 0
M  V30 32821 C 3089.13 5.90169 2.40788 0
M  V30 32822 C 3086.82 5.39371 2.87266 0
M  V30 32823 C 3087.82 6.32132 2.58646 0
M  V30 32824 O 3087.51 7.64747 2.47824 0
M  V30 32825 H 3087.24 0.464933 0.490727 0
M  V30 32826 H 3089.79 1.81097 0.969169 0
M  V30 32827 H 3088.02 1.60998 3.51591 0
M  V30 32828 H 3089.71 2.02885 3.51557 0
M  V30 32829 H 3090.48 4.23191 2.36928 0
M  V30 32830 H 3086.36 3.32435 3.19387 0
M  V30 32831 H 3089.9 6.62541 2.1837 0
M  V30 32832 H 3085.8 5.70943 3.01156 0
M  V30 32833 H 3086.57 7.75027 2.63201 0
M  V30 32834 N 3089.23 -1.00115 1.21716 0
M  V30 32835 C 3090.14 -2.12407 0.996007 0
M  V30 32836 C 3091.15 -1.73919 -0.0531125 0
M  V30 32837 O 3092.33 -2.00928 0.137793 0
M  V30 32838 C 3089.4 -3.42021 0.567653 0
M  V30 32839 C 3088.46 -3.9466 1.68943 0
M  V30 32840 C 3087.69 -5.18088 1.28142 0
M  V30 32841 O 3087.91 -5.70185 0.156674 0
M  V30 32842 O 3086.85 -5.64271 2.0948 0
M  V30 32843 H 3090.67 -2.33943 1.93661 0
M  V30 32844 H 3088.26 -1.10782 1.00238 0
M  V30 32845 H 3090.14 -4.20036 0.338738 0
M  V30 32846 H 3088.81 -3.21865 -0.344183 0
M  V30 32847 H 3087.72 -3.17855 1.97279 0
M  V30 32848 H 3089.05 -4.19234 2.57884 0
M  V30 32849 N 3090.71 -1.02553 -1.19669 0
M  V30 32850 C 3091.93 -0.739397 -1.93772 0
M  V30 32851 C 3092.36 0.695033 -1.74788 0
M  V30 32852 O 3091.72 1.47942 -1.04798 0
M  V30 32853 C 3091.76 -1.09155 -3.43682 0
M  V30 32854 O 3090.87 -0.208285 -4.11874 0
M  V30 32855 H 3090.21 -0.273495 -0.605059 0
M  V30 32856 H 3092.74 -1.3713 -1.51843 0
M  V30 32857 H 3092.75 -1.04702 -3.94337 0
M  V30 32858 H 3091.42 -2.1366 -3.56822 0
M  V30 32859 H 3090 -0.311111 -3.716 0
M  V30 32860 N 3092.19 1.35612 -0.802945 0
M  V30 32861 C 3093.43 1.98124 -0.378122 0
M  V30 32862 C 3093.75 1.6442 1.0595 0
M  V30 32863 O 3094.95 2.20269 1.58725 0
M  V30 32864 C 3093.41 3.54429 -0.625139 0
M  V30 32865 C 3093.02 3.97046 -2.07506 0
M  V30 32866 C 3094.76 4.23669 -0.265493 0
M  V30 32867 C 3092.67 5.46182 -2.26802 0
M  V30 32868 H 3091.6 0.74133 -0.137646 0
M  V30 32869 H 3094.25 1.54728 -0.986489 0
M  V30 32870 H 3092.63 3.95964 0.0531279 0
M  V30 32871 H 3093.81 3.66673 -2.79084 0
M  V30 32872 H 3092.12 3.40684 -2.39423 0
M  V30 32873 H 3094.72 5.33292 -0.387763 0
M  V30 32874 H 3095.06 4.08776 0.787922 0
M  V30 32875 H 3095.59 3.87543 -0.897532 0
M  V30 32876 H 3092.33 5.66039 -3.30576 0
M  V30 32877 H 3091.85 5.78136 -1.59745 0
M  V30 32878 H 3093.53 6.12594 -2.08176 0
M  V30 32879 N 3093.66 0.556128 1.47462 0
M  V30 32880 C 3095.08 0.215818 1.58134 0
M  V30 32881 C 3095.28 -1.28163 1.55488 0
M  V30 32882 O 3094.34 -2.06172 1.45772 0
M  V30 32883 C 3095.65 0.841515 2.88685 0
M  V30 32884 C 3097.2 0.812644 3.02267 0
M  V30 32885 C 3097.67 1.41739 4.35516 0
M  V30 32886 N 3099.16 1.38053 4.42149 0
M  V30 32887 C 3099.9 1.81809 5.43814 0
M  V30 32888 N 3099.39 2.33416 6.52295 0
M  V30 32889 N 3101.19 1.72886 5.34852 0
M  V30 32890 H 3093.34 1.52904 1.47425 0
M  V30 32891 H 3095.6 0.637571 0.701575 0
M  V30 32892 H 3095.31 1.89386 2.96354 0
M  V30 32893 H 3095.18 0.333912 3.75719 0
M  V30 32894 H 3097.57 -0.231004 2.94194 0
M  V30 32895 H 3097.65 1.35799 2.16777 0
M  V30 32896 H 3097.29 2.4601 4.44344 0
M  V30 32897 H 3097.22 0.847493 5.19736 0
M  V30 32898 H 3099.71 1.00302 3.64346 0
M  V30 32899 H 3100.03 2.6473 7.26043 0
M  V30 32900 H 3098.37 2.37426 6.53188 0
M  V30 32901 H 3101.56 1.32346 4.49001 0
M  V30 32902 H 3101.74 2.07305 6.13945 0
M  V30 32903 N 3095.14 -1.54861 0.292527 0
M  V30 32904 C 3096.39 -2.00983 -0.31261 0
M  V30 32905 C 3096.74 -1.17734 -1.52172 0
M  V30 32906 O 3096.04 -0.243614 -1.90045 0
M  V30 32907 C 3096.23 -3.49894 -0.728612 0
M  V30 32908 C 3096.06 -4.47556 0.438641 0
M  V30 32909 C 3094.83 -4.96706 0.927973 0
M  V30 32910 C 3097.03 -4.98095 1.28085 0
M  V30 32911 N 3095.01 -5.78203 2.06287 0
M  V30 32912 C 3096.38 -5.7721 2.26337 0
M  V30 32913 C 3098.43 -4.80298 1.31219 0
M  V30 32914 C 3097.14 -6.40424 3.27489 0
M  V30 32915 C 3099.16 -5.44324 2.31226 0
M  V30 32916 C 3098.53 -6.23265 3.28208 0
M  V30 32917 H 3094.62 -0.777991 -0.0790842 0
M  V30 32918 H 3097.21 -1.90105 0.420514 0
M  V30 32919 H 3095.38 -3.6108 -1.43093 0
M  V30 32920 H 3097.11 -3.82823 -1.31257 0
M  V30 32921 H 3093.87 -4.70907 0.504355 0
M  V30 32922 H 3094.29 -6.23638 2.63447 0
M  V30 32923 H 3098.93 -4.18856 0.576153 0
M  V30 32924 H 3096.65 -7.01005 4.02017 0
M  V30 32925 H 3100.24 -5.32486 2.34414 0
M  V30 32926 H 3099.12 -6.7193 4.04326 0
M  V30 32927 N 3096.62 -0.0200973 -1.57587 0
M  V30 32928 C 3097.85 0.67093 -1.9572 0
M  V30 32929 C 3098.26 1.66179 -0.89611 0
M  V30 32930 O 3097.62 1.82085 0.123005 0
M  V30 32931 C 3097.67 1.38523 -3.33907 0
M  V30 32932 O 3097.39 0.43409 -4.35944 0
M  V30 32933 C 3098.89 2.16891 -3.86617 0
M  V30 32934 H 3096.11 0.185594 -0.644822 0
M  V30 32935 H 3098.66 -0.0771854 -2.04354 0
M  V30 32936 H 3096.81 2.08482 -3.26518 0
M  V30 32937 H 3097.23 0.940287 -5.16003 0
M  V30 32938 H 3098.7 2.62338 -4.85678 0
M  V30 32939 H 3099.18 3.00418 -3.20384 0
M  V30 32940 H 3099.78 1.51909 -3.97245 0
M  V30 32941 N 3098.1 1.55557 0.252939 0
M  V30 32942 C 3099.04 1.89808 1.31307 0
M  V30 32943 C 3100.01 0.751659 1.48119 0
M  V30 32944 O 3101.2 1.00477 1.62201 0
M  V30 32945 C 3098.34 2.19298 2.66463 0
M  V30 32946 C 3097.45 3.46714 2.57708 0
M  V30 32947 C 3096.59 3.65803 3.85177 0
M  V30 32948 C 3095.63 4.86841 3.71015 0
M  V30 32949 N 3094.76 5.02483 4.90363 0
M  V30 32950 H 3099.6 2.80219 1.01397 0
M  V30 32951 H 3097.14 1.38719 0.489438 0
M  V30 32952 H 3099.1 2.34399 3.45128 0
M  V30 32953 H 3097.73 1.32098 2.94533 0
M  V30 32954 H 3096.78 3.39977 1.70645 0
M  V30 32955 H 3098.09 4.35522 2.43151 0
M  V30 32956 H 3097.25 3.8083 4.72285 0
M  V30 32957 H 3095.99 2.75217 4.02625 0
M  V30 32958 H 3094.99 4.71797 2.8229 0
M  V30 32959 H 3096.22 5.78882 3.55068 0
M  V30 32960 H 3094.16 4.14833 5.08183 0
M  V30 32961 H 3094.08 5.85369 4.78413 0
M  V30 32962 H 3095.35 5.21916 5.78986 0
M  V30 32963 N 3099.58 -0.518341 1.48832 0
M  V30 32964 C 3100.52 -1.62175 1.64219 0
M  V30 32965 C 3101.49 -1.58893 0.48397 0
M  V30 32966 O 3102.68 -1.77142 0.708888 0
M  V30 32967 C 3099.82 -3.00396 1.69872 0
M  V30 32968 C 3098.93 -3.13824 2.96881 0
M  V30 32969 C 3098.07 -4.42674 2.93621 0
M  V30 32970 C 3097.1 -4.49673 4.15284 0
M  V30 32971 N 3096.24 -5.69927 4.10034 0
M  V30 32972 H 3101.08 -1.48364 2.58442 0
M  V30 32973 H 3098.62 -0.72213 1.28155 0
M  V30 32974 H 3100.58 -3.80487 1.71131 0
M  V30 32975 H 3099.21 -3.12951 0.791304 0
M  V30 32976 H 3098.26 -2.26909 3.05314 0
M  V30 32977 H 3099.57 -3.14856 3.86868 0
M  V30 32978 H 3098.72 -5.31068 2.93346 0
M  V30 32979 H 3097.46 -4.4418 2.01383 0
M  V30 32980 H 3096.47 -3.59684 4.15822 0
M  V30 32981 H 3097.69 -4.49895 5.08695 0
M  V30 32982 H 3095.64 -5.72308 3.20623 0
M  V30 32983 H 3095.56 -5.72502 4.93738 0
M  V30 32984 H 3096.82 -6.60576 4.13836 0
M  V30 32985 N 3101.05 -1.37615 -0.7681 0
M  V30 32986 C 3102.46 -1.29528 -1.3446 0
M  V30 32987 C 3102.82 0.0554824 -1.96122 0
M  V30 32988 O 3101.94 0.957371 -1.94071 0
M  V30 32989 C 3102.54 -2.34563 -2.44471 0
M  V30 32990 C 3101.09 -2.30098 -2.97879 0
M  V30 32991 C 3100.24 -2.18199 -1.71128 0
M  V30 32992 H 3103.19 -1.48184 -0.568077 0
M  V30 32993 H 3103.21 -1.99439 -3.24043 0
M  V30 32994 H 3102.73 -3.32861 -1.99562 0
M  V30 32995 H 3100.83 -1.35334 -3.47153 0
M  V30 32996 H 3100.94 -3.23659 -3.53245 0
M  V30 32997 H 3099.3 -1.64805 -1.94194 0
M  V30 32998 H 3100.09 -3.18417 -1.28318 0
M  V30 32999 N 3102.53 0.994677 -1.22245 0
M  V30 33000 C 3103.76 1.77485 -1.07302 0
M  V30 33001 C 3104.18 1.84379 0.37227 0
M  V30 33002 O 3103.54 1.29496 1.26888 0
M  V30 33003 C 3103.59 3.18715 -1.6868 0
M  V30 33004 O 3102.69 4.01561 -0.939272 0
M  V30 33005 H 3102.03 0.546604 -0.376988 0
M  V30 33006 H 3104.56 1.24962 -1.62005 0
M  V30 33007 H 3104.57 3.69351 -1.73331 0
M  V30 33008 H 3103.25 3.13012 -2.73855 0
M  V30 33009 H 3101.82 3.60099 -0.968647 0
M  V30 33010 N 3104.01 1.03186 1.19123 0
M  V30 33011 C 3104.94 0.573333 2.21913 0
M  V30 33012 C 3105.95 -0.352369 1.58941 0
M  V30 33013 O 3107.14 -0.148287 1.77883 0
M  V30 33014 C 3104.24 -0.183491 3.38403 0
M  V30 33015 C 3103.42 0.747893 4.30959 0
M  V30 33016 C 3102.48 0.0359414 5.26188 0
M  V30 33017 O 3101.5 0.663487 5.6532 0
M  V30 33018 N 3102.7 -1.23377 5.67237 0
M  V30 33019 H 3105.47 1.45739 2.61878 0
M  V30 33020 H 3103.03 0.911255 1.3382 0
M  V30 33021 H 3105.02 -0.669398 3.99125 0
M  V30 33022 H 3103.59 -0.96899 2.97203 0
M  V30 33023 H 3102.81 1.41383 3.67973 0
M  V30 33024 H 3104.1 1.3808 4.89705 0
M  V30 33025 H 3103.5 -1.7643 5.37484 0
M  V30 33026 H 3102.05 -1.66412 6.30199 0
M  V30 33027 N 3105.49 -1.35184 0.810125 0
M  V30 33028 C 3106.42 -2.27577 0.168456 0
M  V30 33029 C 3107.4 -1.48261 -0.667637 0
M  V30 33030 O 3108.58 -1.77513 -0.634153 0
M  V30 33031 C 3105.71 -3.29926 -0.765936 0
M  V30 33032 C 3104.76 -4.26499 -0.00901305 0
M  V30 33033 S 3105.59 -5.18735 1.32945 0
M  V30 33034 C 3106.75 -6.24623 0.399595 0
M  V30 33035 H 3106.98 -2.81652 0.951803 0
M  V30 33036 H 3104.51 -1.42038 0.605365 0
M  V30 33037 H 3106.47 -3.89387 -1.29953 0
M  V30 33038 H 3105.13 -2.74723 -1.5227 0
M  V30 33039 H 3104.32 -4.98847 -0.718831 0
M  V30 33040 H 3103.93 -3.71225 0.454729 0
M  V30 33041 H 3106.22 -6.76235 -0.413785 0
M  V30 33042 H 3107.16 -6.99623 1.09237 0
M  V30 33043 H 3107.57 -5.645 -0.00628436 0
M  V30 33044 N 3106.97 -0.56394 -1.47165 0
M  V30 33045 C 3107.9 0.217543 -2.28165 0
M  V30 33046 C 3108.91 0.87311 -1.37407 0
M  V30 33047 O 3110.1 0.745829 -1.62172 0
M  V30 33048 C 3107.2 1.32616 -3.11875 0
M  V30 33049 C 3106.37 0.766101 -4.30639 0
M  V30 33050 C 3105.43 1.76005 -4.95892 0
M  V30 33051 O 3104.46 1.3035 -5.54073 0
M  V30 33052 N 3105.66 3.09365 -4.91196 0
M  V30 33053 H 3108.43 -0.477308 -2.95875 0
M  V30 33054 H 3105.99 -0.400458 -1.56869 0
M  V30 33055 H 3107.98 1.98997 -3.52395 0
M  V30 33056 H 3106.55 1.92414 -2.46365 0
M  V30 33057 H 3105.77 -0.0746691 -3.94129 0
M  V30 33058 H 3107.06 0.371383 -5.07443 0
M  V30 33059 H 3106.45 3.49096 -4.45139 0
M  V30 33060 H 3105.01 3.71286 -5.35715 0
M  V30 33061 N 3108.44 1.54704 -0.300735 0
M  V30 33062 C 3109.35 2.2719 0.584956 0
M  V30 33063 C 3110.37 1.30699 1.14864 0
M  V30 33064 O 3111.55 1.63681 1.17348 0
M  V30 33065 C 3108.61 2.99834 1.74071 0
M  V30 33066 C 3107.67 4.11862 1.21113 0
M  V30 33067 C 3106.91 4.81032 2.3118 0
M  V30 33068 O 3107.13 4.4956 3.51072 0
M  V30 33069 O 3106.06 5.6844 1.97887 0
M  V30 33070 H 3109.89 3.037 -0.00303516 0
M  V30 33071 H 3107.47 1.49249 -0.0672064 0
M  V30 33072 H 3109.36 3.454 2.41407 0
M  V30 33073 H 3108.03 2.26219 2.31531 0
M  V30 33074 H 3106.94 3.70696 0.503505 0
M  V30 33075 H 3108.27 4.87453 0.68196 0
M  V30 33076 N 3109.92 0.0284543 1.57574 0
M  V30 33077 C 3110.87 -0.962768 2.06676 0
M  V30 33078 C 3111.86 -1.28589 0.967138 0
M  V30 33079 O 3113.05 -1.27212 1.2307 0
M  V30 33080 C 3110.18 -2.2454 2.59686 0
M  V30 33081 C 3109.26 -1.95067 3.76576 0
M  V30 33082 N 3109.65 -1.3586 4.87212 0
M  V30 33083 C 3107.95 -2.25061 3.8505 0
M  V30 33084 C 3108.65 -1.23504 5.68438 0
M  V30 33085 N 3107.63 -1.73032 5.15326 0
M  V30 33086 H 3111.43 -0.499962 2.89616 0
M  V30 33087 H 3108.95 -0.176576 1.61437 0
M  V30 33088 H 3110.94 -2.96423 2.93153 0
M  V30 33089 H 3109.6 -2.71448 1.78175 0
M  V30 33090 H 3110.61 -1.0337 5.07479 0
M  V30 33091 H 3107.29 -2.74647 3.14444 0
M  V30 33092 H 3108.68 -0.777285 6.67389 0
M  V30 33093 N 3111.4 -1.55689 -0.244686 0
M  V30 33094 C 3112.65 -1.77887 -0.973855 0
M  V30 33095 C 3112.98 -0.594104 -1.84889 0
M  V30 33096 O 3112.25 0.407531 -1.90183 0
M  V30 33097 C 3112.54 -3.09987 -1.83249 0
M  V30 33098 C 3112.39 -4.38871 -0.985494 0
M  V30 33099 C 3113.71 -3.38334 -2.81458 0
M  V30 33100 H 3110.83 -0.647171 -0.352617 0
M  V30 33101 H 3113.47 -1.88424 -0.24421 0
M  V30 33102 H 3111.62 -3.01135 -2.45459 0
M  V30 33103 H 3113.29 -4.59716 -0.381924 0
M  V30 33104 H 3111.54 -4.3283 -0.289944 0
M  V30 33105 H 3112.21 -5.27689 -1.62013 0
M  V30 33106 H 3114.68 -3.47163 -2.29384 0
M  V30 33107 H 3113.56 -4.31977 -3.38655 0
M  V30 33108 H 3113.82 -2.59355 -3.58033 0
M  V30 33109 N 3112.88 0.510441 -1.49105 0
M  V30 33110 C 3113.81 1.62184 -1.67984 0
M  V30 33111 C 3114.79 1.6168 -0.528558 0
M  V30 33112 O 3115.97 1.78569 -0.763336 0
M  V30 33113 C 3113.1 3.00707 -1.7376 0
M  V30 33114 C 3112.06 3.16075 -2.88584 0
M  V30 33115 C 3111.38 4.55855 -2.79465 0
M  V30 33116 C 3112.68 2.96992 -4.29643 0
M  V30 33117 H 3114.38 1.46639 -2.61032 0
M  V30 33118 H 3111.92 0.70402 -1.25617 0
M  V30 33119 H 3113.88 3.78348 -1.85554 0
M  V30 33120 H 3112.6 3.17319 -0.773052 0
M  V30 33121 H 3111.26 2.40856 -2.76376 0
M  V30 33122 H 3110.91 4.6933 -1.80938 0
M  V30 33123 H 3110.61 4.67079 -3.56526 0
M  V30 33124 H 3112.13 5.35569 -2.93254 0
M  V30 33125 H 3113.55 3.6441 -4.42581 0
M  V30 33126 H 3111.94 3.19696 -5.07853 0
M  V30 33127 H 3113.01 1.93211 -4.44744 0
M  V30 33128 N 3114.36 1.38021 0.760791 0
M  V30 33129 C 3115.58 1.37227 1.55511 0
M  V30 33130 C 3116.01 -0.0375779 1.88062 0
M  V30 33131 O 3115.36 -1.01767 1.50044 0
M  V30 33132 C 3115.41 2.22801 2.83535 0
M  V30 33133 O 3114.52 1.64016 3.78381 0
M  V30 33134 H 3113.86 0.468401 0.470634 0
M  V30 33135 H 3116.39 1.81689 0.94076 0
M  V30 33136 H 3116.4 2.36405 3.32531 0
M  V30 33137 H 3115.07 3.25273 2.59172 0
M  V30 33138 H 3113.65 1.59514 3.3706 0
M  V30 33139 N 3115.83 -0.98818 1.22771 0
M  V30 33140 C 3116.76 -2.09736 1.02631 0
M  V30 33141 C 3117.75 -1.70013 -0.0542912 0
M  V30 33142 O 3118.93 -1.93895 0.108845 0
M  V30 33143 C 3116.06 -3.4193 0.608362 0
M  V30 33144 C 3115.01 -3.95522 1.63543 0
M  V30 33145 C 3114.34 -5.2382 1.07317 0
M  V30 33146 C 3115.64 -4.25671 3.02657 0
M  V30 33147 H 3117.33 -2.26843 1.95404 0
M  V30 33148 H 3114.88 -1.09009 0.940907 0
M  V30 33149 H 3116.83 -4.18941 0.454552 0
M  V30 33150 H 3115.56 -3.24665 -0.355038 0
M  V30 33151 H 3114.22 -3.20648 1.77709 0
M  V30 33152 H 3113.86 -5.02899 0.100982 0
M  V30 33153 H 3113.56 -5.60643 1.75935 0
M  V30 33154 H 3115.09 -6.0346 0.931044 0
M  V30 33155 H 3116.5 -4.93461 2.91837 0
M  V30 33156 H 3114.9 -4.73678 3.68442 0
M  V30 33157 H 3115.97 -3.33255 3.52234 0
M  V30 33158 N 3117.31 -1.03816 -1.18575 0
M  V30 33159 C 3118.55 -0.748915 -1.90186 0
M  V30 33160 C 3118.92 0.710145 -1.78384 0
M  V30 33161 O 3120.12 1.11289 -2.4468 0
M  V30 33162 C 3118.39 -1.19907 -3.36685 0
M  V30 33163 S 3119.95 -1.03508 -4.26417 0
M  V30 33164 H 3116.77 -0.272373 -0.65676 0
M  V30 33165 H 3119.37 -1.32993 -1.43294 0
M  V30 33166 H 3118.07 -2.25641 -3.42804 0
M  V30 33167 H 3117.6 -0.611737 -3.88615 0
M  V30 33168 H 3119.62 0.0489559 -4.96176 0
M  V30 33169 N 3118.79 1.34753 -0.817283 0
M  V30 33170 C 3119.74 2.27053 -0.207625 0
M  V30 33171 C 3120.72 1.48273 0.62481 0
M  V30 33172 O 3121.92 1.70358 0.480314 0
M  V30 33173 C 3119.05 3.37391 0.634221 0
M  V30 33174 C 3118.13 4.23587 -0.208531 0
M  V30 33175 N 3118.52 4.8942 -1.27679 0
M  V30 33176 C 3116.82 4.45999 0.00807256 0
M  V30 33177 C 3117.52 5.53404 -1.79219 0
M  V30 33178 N 3116.5 5.32417 -1.09696 0
M  V30 33179 H 3120.3 2.75453 -1.02485 0
M  V30 33180 H 3117.81 1.48405 -0.659518 0
M  V30 33181 H 3119.81 4.02477 1.08711 0
M  V30 33182 H 3118.47 2.90542 1.44967 0
M  V30 33183 H 3119.48 4.90591 -1.65954 0
M  V30 33184 H 3116.16 4.09923 0.791806 0
M  V30 33185 H 3117.55 6.15894 -2.68559 0
M  V30 33186 N 3120.27 0.571737 1.46864 0
M  V30 33187 C 3121.2 -0.155754 2.3298 0
M  V30 33188 C 3122.18 -0.894528 1.4468 0
M  V30 33189 O 3123.37 -0.872145 1.73514 0
M  V30 33190 C 3120.5 -1.17702 3.26747 0
M  V30 33191 C 3119.45 -0.553789 4.24402 0
M  V30 33192 C 3118.78 -1.68074 5.07598 0
M  V30 33193 C 3120.08 0.501919 5.19883 0
M  V30 33194 H 3121.77 0.563228 2.94055 0
M  V30 33195 H 3119.32 0.272305 1.41402 0
M  V30 33196 H 3121.27 -1.69423 3.85841 0
M  V30 33197 H 3119.99 -1.92614 2.63757 0
M  V30 33198 H 3118.65 -0.0577506 3.66555 0
M  V30 33199 H 3118.3 -2.41925 4.41 0
M  V30 33200 H 3118 -1.26943 5.73724 0
M  V30 33201 H 3119.52 -2.20093 5.69554 0
M  V30 33202 H 3120.94 0.0702065 5.73257 0
M  V30 33203 H 3119.33 0.832919 5.94292 0
M  V30 33204 H 3120.4 1.39237 4.64479 0
M  V30 33205 N 3121.75 -1.54542 0.308935 0
M  V30 33206 C 3122.68 -2.20012 -0.605816 0
M  V30 33207 C 3123.66 -1.17218 -1.12688 0
M  V30 33208 O 3124.84 -1.45895 -1.19361 0
M  V30 33209 C 3121.97 -2.85024 -1.82972 0
M  V30 33210 C 3121.02 -4.01412 -1.44119 0
M  V30 33211 S 3121.85 -5.3325 -0.490351 0
M  V30 33212 C 3123 -6.01749 -1.72187 0
M  V30 33213 H 3123.24 -2.97259 -0.0496389 0
M  V30 33214 H 3120.77 -1.54119 0.0930509 0
M  V30 33215 H 3122.73 -3.23106 -2.53205 0
M  V30 33216 H 3121.39 -2.07608 -2.35707 0
M  V30 33217 H 3120.58 -4.45712 -2.3528 0
M  V30 33218 H 3120.18 -3.64929 -0.818724 0
M  V30 33219 H 3122.48 -6.23039 -2.66136 0
M  V30 33220 H 3123.42 -6.95663 -1.32129 0
M  V30 33221 H 3123.83 -5.31485 -1.9022 0
M  V30 33222 N 3123.23 -0.0368104 -1.57557 0
M  V30 33223 C 3124.47 0.635272 -1.93225 0
M  V30 33224 C 3124.83 1.69292 -0.914224 0
M  V30 33225 O 3124.12 1.91477 0.0686637 0
M  V30 33226 C 3124.31 1.28788 -3.33389 0
M  V30 33227 C 3124.14 0.294976 -4.48732 0
M  V30 33228 C 3122.91 -0.107919 -5.05185 0
M  V30 33229 C 3125.11 -0.453839 -5.12294 0
M  V30 33230 N 3123.09 -1.09519 -6.04052 0
M  V30 33231 C 3124.46 -1.29463 -6.06333 0
M  V30 33232 C 3126.52 -0.513709 -4.95243 0
M  V30 33233 C 3125.22 -2.1899 -6.85154 0
M  V30 33234 C 3127.25 -1.39634 -5.74679 0
M  V30 33235 C 3126.61 -2.22489 -6.6834 0
M  V30 33236 H 3122.71 0.204542 -0.754776 0
M  V30 33237 H 3125.29 -0.105785 -1.94412 0
M  V30 33238 H 3123.46 1.99904 -3.33006 0
M  V30 33239 H 3125.2 1.91761 -3.56384 0
M  V30 33240 H 3121.95 0.268108 -4.72841 0
M  V30 33241 H 3122.37 -1.58529 -6.58177 0
M  V30 33242 H 3127.02 0.112625 -4.2265 0
M  V30 33243 H 3124.73 -2.82674 -7.57047 0
M  V30 33244 H 3128.32 -1.44706 -5.63517 0
M  V30 33245 H 3127.2 -2.8968 -7.28735 0
M  V30 33246 N 3124.7 1.55817 0.236426 0
M  V30 33247 C 3125.65 1.87584 1.296 0
M  V30 33248 C 3126.64 0.737591 1.42998 0
M  V30 33249 O 3127.83 0.999726 1.46063 0
M  V30 33250 C 3124.96 2.18314 2.64941 0
M  V30 33251 C 3124.04 3.38494 2.55505 0
M  V30 33252 N 3124.44 4.57497 2.15708 0
M  V30 33253 C 3122.73 3.41813 2.86496 0
M  V30 33254 C 3123.43 5.39645 2.1716 0
M  V30 33255 N 3122.41 4.78973 2.57071 0
M  V30 33256 H 3126.21 2.77116 0.978968 0
M  V30 33257 H 3123.73 1.56183 0.445031 0
M  V30 33258 H 3125.72 2.39242 3.41422 0
M  V30 33259 H 3124.38 1.30087 2.97502 0
M  V30 33260 H 3125.39 4.8293 1.8708 0
M  V30 33261 H 3122.07 2.63886 3.23528 0
M  V30 33262 H 3123.46 6.44875 1.88642 0
M  V30 33263 N 3126.18 -0.502526 1.49373 0
M  V30 33264 C 3127.13 -1.62509 1.66414 0
M  V30 33265 C 3128.12 -1.60893 0.53009 0
M  V30 33266 O 3129.33 -1.65419 0.709677 0
M  V30 33267 H 3125.7 -0.53868 0.524717 0
M  V30 33268 H 3127.68 -1.45289 2.60641 0
M  V30 33269 C 3126.42 -3.00652 1.74653 0
M  V30 33270 H 3125.75 -3.02601 2.6129 0
M  V30 33271 H 3127.19 -3.78739 1.90612 0
M  V30 33272 C 3125.65 -3.33303 0.491022 0
M  V30 33273 O 3126.18 -3.99861 -0.383968 0
M  V30 33274 N 3124.38 -2.88431 0.354426 0
M  V30 33275 H 3123.93 -2.34442 1.06746 0
M  V30 33276 H 3123.89 -3.10644 -0.484539 0
M  V30 33277 N 3127.66 -1.38422 -0.75346 0
M  V30 33278 C 3128.91 -1.34371 -1.5096 0
M  V30 33279 C 3129.23 0.0656552 -1.94889 0
M  V30 33280 O 3128.5 1.01336 -1.67654 0
M  V30 33281 H 3127.08 -0.494425 -0.559958 0
M  V30 33282 H 3129.74 -1.73102 -0.895635 0
M  V30 33283 H 3128.84 -1.99462 -2.40044 0
M  V30 33284 N 3129.14 0.981655 -1.23294 0
M  V30 33285 C 3130.55 1.53733 -1.05939 0
M  V30 33286 C 3130.9 1.92609 0.373661 0
M  V30 33287 O 3130.02 1.75919 1.26021 0
M  V30 33288 C 3130.62 2.79359 -1.91687 0
M  V30 33289 C 3129.18 3.31331 -1.78597 0
M  V30 33290 C 3128.33 2.04332 -1.87467 0
M  V30 33291 H 3131.28 0.801481 -1.36974 0
M  V30 33292 H 3131.3 3.52162 -1.44092 0
M  V30 33293 H 3130.81 2.51033 -2.9598 0
M  V30 33294 H 3128.91 3.6454 -0.770819 0
M  V30 33295 H 3129.02 4.01174 -2.61909 0
M  V30 33296 H 3127.39 2.18409 -1.31034 0
M  V30 33297 H 3128.17 1.78388 -2.93313 0
M  V30 33298 N 3130.62 1.04444 1.18022 0
M  V30 33299 C 3131.53 0.649315 2.25435 0
M  V30 33300 C 3132.54 -0.326159 1.70916 0
M  V30 33301 O 3133.72 -0.180139 2.00593 0
M  V30 33302 C 3130.78 0.0223167 3.46693 0
M  V30 33303 C 3129.84 1.04728 4.1633 0
M  V30 33304 C 3129.08 0.450105 5.31799 0
M  V30 33305 O 3129.3 -0.742618 5.65545 0
M  V30 33306 O 3128.23 1.18067 5.90207 0
M  V30 33307 H 3132.06 1.5443 2.61505 0
M  V30 33308 H 3129.64 0.815542 1.25177 0
M  V30 33309 H 3131.53 -0.326523 4.20133 0
M  V30 33310 H 3130.2 -0.846435 3.12437 0
M  V30 33311 H 3129.11 1.44798 3.44941 0
M  V30 33312 H 3130.44 1.88692 4.54594 0
M  V30 33313 N 3132.09 -1.34317 0.824418 0
M  V30 33314 C 3133.34 -1.97497 0.409594 0
M  V30 33315 C 3133.66 -1.66085 -1.0332 0
M  V30 33316 O 3134.86 -2.22766 -1.55201 0
M  V30 33317 C 3133.32 -3.5339 0.681446 0
M  V30 33318 C 3132.93 -3.93694 2.13796 0
M  V30 33319 C 3134.67 -4.23193 0.332862 0
M  V30 33320 C 3132.58 -5.42505 2.35463 0
M  V30 33321 H 3131.51 -0.739046 0.149422 0
M  V30 33322 H 3134.16 -1.53139 1.01098 0
M  V30 33323 H 3132.54 -3.95999 0.00987336 0
M  V30 33324 H 3133.71 -3.62186 2.84882 0
M  V30 33325 H 3132.03 -3.36832 2.44813 0
M  V30 33326 H 3134.63 -5.32608 0.472556 0
M  V30 33327 H 3134.97 -4.09977 -0.72279 0
M  V30 33328 H 3135.5 -3.86066 0.959073 0
M  V30 33329 H 3132.24 -5.60708 3.39539 0
M  V30 33330 H 3131.76 -5.75522 1.68922 0
M  V30 33331 H 3133.44 -6.09205 2.17896 0
M  V30 33332 N 3133.57 -0.579517 -1.46558 0
M  V30 33333 C 3134.8 -0.0693005 -2.06484 0
M  V30 33334 C 3135.21 1.23964 -1.42932 0
M  V30 33335 O 3134.55 1.75959 -0.527663 0
M  V30 33336 C 3134.61 0.174111 -3.59078 0
M  V30 33337 C 3134.28 -1.04875 -4.44804 0
M  V30 33338 C 3135.28 -1.96 -4.81539 0
M  V30 33339 C 3132.96 -1.2697 -4.85988 0
M  V30 33340 C 3134.95 -3.07569 -5.58283 0
M  V30 33341 C 3132.64 -2.38845 -5.62491 0
M  V30 33342 C 3133.64 -3.28975 -5.98552 0
M  V30 33343 O 3133.33 -4.38907 -6.7351 0
M  V30 33344 H 3133.06 -0.0530449 -0.673916 0
M  V30 33345 H 3135.61 -0.799013 -1.89222 0
M  V30 33346 H 3133.84 0.958399 -3.74635 0
M  V30 33347 H 3135.53 0.632445 -4.00943 0
M  V30 33348 H 3136.3 -1.80144 -4.50303 0
M  V30 33349 H 3132.18 -0.577264 -4.57371 0
M  V30 33350 H 3135.72 -3.77943 -5.86348 0
M  V30 33351 H 3131.62 -2.54665 -5.93141 0
M  V30 33352 H 3132.39 -4.37235 -6.91931 0
M  V30 33353 N 3135.05 1.54376 -0.317127 0
M  V30 33354 C 3136 2.24108 0.551742 0
M  V30 33355 C 3136.97 1.22951 1.11679 0
M  V30 33356 O 3138.15 1.51616 1.15833 0
M  V30 33357 C 3135.29 2.99759 1.70992 0
M  V30 33358 C 3134.41 4.15721 1.17472 0
M  V30 33359 C 3133.54 4.78918 2.29806 0
M  V30 33360 C 3132.58 5.86995 1.73502 0
M  V30 33361 N 3131.72 6.4408 2.79473 0
M  V30 33362 H 3136.56 2.97959 -0.0494834 0
M  V30 33363 H 3134.09 1.47055 -0.0361917 0
M  V30 33364 H 3136.05 3.41863 2.39135 0
M  V30 33365 H 3134.68 2.28255 2.28253 0
M  V30 33366 H 3133.73 3.78446 0.385043 0
M  V30 33367 H 3135.05 4.93537 0.722673 0
M  V30 33368 H 3134.2 5.23957 3.05866 0
M  V30 33369 H 3132.94 4.00469 2.78345 0
M  V30 33370 H 3131.94 5.41365 0.95938 0
M  V30 33371 H 3133.17 6.67337 1.25849 0
M  V30 33372 H 3131.11 5.68507 3.27315 0
M  V30 33373 H 3131.03 7.1729 2.38813 0
M  V30 33374 H 3132.3 6.93775 3.55382 0
M  V30 33375 N 3136.53 0.0451655 1.57535 0
M  V30 33376 C 3137.81 -0.669491 1.83786 0
M  V30 33377 C 3138.19 -1.89394 0.932364 0
M  V30 33378 O 3137.53 -2.28499 -0.00809212 0
M  V30 33379 C 3137.74 -1.03249 3.33378 0
M  V30 33380 C 3139.09 -1.41734 4.00246 0
M  V30 33381 O 3140.12 -1.12501 3.37967 0
M  V30 33382 O 3138.97 -1.96266 5.10041 0
M  V30 33383 H 3136.07 -0.329906 0.758348 0
M  V30 33384 H 3138.61 0.0740713 1.69538 0
M  V30 33385 H 3137.39 -0.161709 3.90966 0
M  V30 33386 H 3137.01 -1.8337 3.52791 0
M  V30 33387 N 3138.01 -1.5594 -0.228159 0
M  V30 33388 C 3139.25 -1.78646 -0.95352 0
M  V30 33389 C 3139.58 -0.612783 -1.84595 0
M  V30 33390 O 3138.84 0.403141 -1.91503 0
M  V30 33391 C 3139.14 -3.07043 -1.82918 0
M  V30 33392 C 3138.8 -4.37513 -1.09054 0
M  V30 33393 C 3137.46 -4.72964 -0.886482 0
M  V30 33394 C 3139.82 -5.18091 -0.568442 0
M  V30 33395 C 3137.14 -5.86513 -0.14831 0
M  V30 33396 C 3139.5 -6.32407 0.156354 0
M  V30 33397 C 3138.16 -6.66464 0.371729 0
M  V30 33398 H 3137.43 -0.65371 -0.348918 0
M  V30 33399 H 3140.08 -1.90207 -0.222177 0
M  V30 33400 H 3138.38 -2.90575 -2.62818 0
M  V30 33401 H 3140.08 -3.21812 -2.39244 0
M  V30 33402 H 3136.67 -4.09674 -1.25956 0
M  V30 33403 H 3140.85 -4.91143 -0.713587 0
M  V30 33404 H 3136.11 -6.11393 0.0288493 0
M  V30 33405 H 3140.28 -6.94076 0.568455 0
M  V30 33406 H 3137.91 -7.54295 0.945655 0
M  V30 33407 N 3139.48 0.494597 -1.49638 0
M  V30 33408 C 3140.39 1.62169 -1.69524 0
M  V30 33409 C 3141.41 1.64122 -0.577923 0
M  V30 33410 O 3142.59 1.82425 -0.853414 0
M  V30 33411 C 3139.65 2.98507 -1.76336 0
M  V30 33412 C 3138.71 3.0713 -2.9995 0
M  V30 33413 C 3137.95 4.36965 -3.06426 0
M  V30 33414 O 3138.17 5.26132 -2.20322 0
M  V30 33415 O 3137.1 4.50693 -3.98948 0
M  V30 33416 H 3140.93 1.48319 -2.65019 0
M  V30 33417 H 3138.51 0.671579 -1.33455 0
M  V30 33418 H 3140.4 3.79527 -1.83132 0
M  V30 33419 H 3139.07 3.12605 -0.84021 0
M  V30 33420 H 3137.98 2.25274 -2.98667 0
M  V30 33421 H 3139.31 2.97961 -3.91765 0
M  V30 33422 N 3140.96 1.3882 0.746109 0
M  V30 33423 C 3142.19 1.38687 1.53536 0
M  V30 33424 C 3142.61 -0.0214707 1.88788 0
M  V30 33425 O 3141.96 -0.990005 1.53314 0
M  V30 33426 C 3142.01 2.24947 2.82986 0
M  V30 33427 O 3141.73 3.60296 2.49235 0
M  V30 33428 C 3143.24 2.33077 3.77081 0
M  V30 33429 H 3140.46 0.474103 0.474834 0
M  V30 33430 H 3143 1.82495 0.922812 0
M  V30 33431 H 3141.15 1.84582 3.406 0
M  V30 33432 H 3141.57 4.05795 3.32311 0
M  V30 33433 H 3143.04 2.97704 4.6484 0
M  V30 33434 H 3143.52 1.34662 4.18046 0
M  V30 33435 H 3144.13 2.73865 3.25389 0
M  V30 33436 N 3142.44 -0.975103 1.23812 0
M  V30 33437 C 3143.39 -2.06841 1.02398 0
M  V30 33438 C 3144.36 -1.6599 -0.0603078 0
M  V30 33439 O 3145.54 -1.90574 0.0928522 0
M  V30 33440 C 3142.68 -3.39357 0.626941 0
M  V30 33441 C 3141.8 -3.93447 1.78392 0
M  V30 33442 C 3140.93 -5.14199 1.33316 0
M  V30 33443 C 3139.97 -5.60467 2.46055 0
M  V30 33444 N 3139.11 -6.72444 2.019 0
M  V30 33445 H 3143.95 -2.24493 1.95977 0
M  V30 33446 H 3141.48 -1.10038 0.976225 0
M  V30 33447 H 3143.44 -4.15486 0.377815 0
M  V30 33448 H 3142.07 -3.21653 -0.27185 0
M  V30 33449 H 3141.12 -3.14026 2.14691 0
M  V30 33450 H 3142.44 -4.2375 2.63129 0
M  V30 33451 H 3141.59 -5.97677 1.04247 0
M  V30 33452 H 3140.33 -4.85561 0.456228 0
M  V30 33453 H 3139.33 -4.75567 2.75892 0
M  V30 33454 H 3140.56 -5.91121 3.34294 0
M  V30 33455 H 3138.5 -6.45555 1.16594 0
M  V30 33456 H 3138.42 -7.02159 2.80194 0
M  V30 33457 H 3139.69 -7.59383 1.7595 0
M  V30 33458 N 3143.92 -1.05068 -1.17467 0
M  V30 33459 C 3145.17 -0.755147 -1.87031 0
M  V30 33460 C 3145.48 0.72054 -1.81845 0
M  V30 33461 O 3146.69 1.12998 -2.46868 0
M  V30 33462 C 3145.14 -1.30058 -3.35578 0
M  V30 33463 C 3144.75 -2.80562 -3.49269 0
M  V30 33464 C 3146.49 -1.08203 -4.10478 0
M  V30 33465 C 3144.4 -3.28413 -4.91832 0
M  V30 33466 H 3143.33 -0.278792 -0.700565 0
M  V30 33467 H 3145.98 -1.26781 -1.3266 0
M  V30 33468 H 3144.36 -0.715736 -3.89478 0
M  V30 33469 H 3145.54 -3.44891 -3.05592 0
M  V30 33470 H 3143.85 -3.00944 -2.87788 0
M  V30 33471 H 3146.45 -1.41456 -5.15649 0
M  V30 33472 H 3146.79 -0.0197334 -4.16295 0
M  V30 33473 H 3147.33 -1.63202 -3.62781 0
M  V30 33474 H 3144.07 -4.34067 -4.91189 0
M  V30 33475 H 3143.59 -2.68825 -5.36184 0
M  V30 33476 H 3145.26 -3.23019 -5.60596 0
M  V30 33477 N 3145.4 1.33878 -0.831529 0
M  V30 33478 C 3146.81 1.50947 -0.518375 0
M  V30 33479 C 3147.01 1.7739 0.955776 0
M  V30 33480 O 3146.07 1.82986 1.7399 0
M  V30 33481 C 3147.38 2.66886 -1.38536 0
M  V30 33482 C 3148.93 2.8077 -1.38337 0
M  V30 33483 C 3149.4 3.99762 -2.23504 0
M  V30 33484 N 3150.9 4.06985 -2.21174 0
M  V30 33485 C 3151.63 4.98234 -2.83814 0
M  V30 33486 N 3151.13 5.94649 -3.55478 0
M  V30 33487 N 3152.92 4.91173 -2.73323 0
M  V30 33488 H 3145.07 1.14975 -1.7859 0
M  V30 33489 H 3147.33 0.564619 -0.761518 0
M  V30 33490 H 3147.04 2.54003 -2.4326 0
M  V30 33491 H 3146.91 3.62112 -1.05617 0
M  V30 33492 H 3149.3 2.93089 -0.343884 0
M  V30 33493 H 3149.38 1.86328 -1.75259 0
M  V30 33494 H 3149.03 3.88203 -3.27507 0
M  V30 33495 H 3148.96 4.93435 -1.83928 0
M  V30 33496 H 3151.45 3.37979 -1.69052 0
M  V30 33497 H 3151.76 6.60924 -4.00499 0
M  V30 33498 H 3150.1 5.94747 -3.59585 0
M  V30 33499 H 3153.3 4.14813 -2.16904 0
M  V30 33500 H 3153.47 5.6209 -3.22426 0
M  V30 33501 N 3146.87 0.587281 1.46249 0
M  V30 33502 C 3148.1 0.0784881 2.07251 0
M  V30 33503 C 3148.52 -1.21916 1.43241 0
M  V30 33504 O 3147.88 -1.73748 0.517822 0
M  V30 33505 C 3147.93 -0.0690403 3.60534 0
M  V30 33506 O 3147.03 -1.12441 3.96775 0
M  V30 33507 H 3146.38 0.0648707 0.660824 0
M  V30 33508 H 3148.91 0.811524 1.87818 0
M  V30 33509 H 3148.92 -0.273754 4.07081 0
M  V30 33510 H 3147.59 0.878586 4.06514 0
M  V30 33511 H 3146.17 -0.897788 3.61931 0
M  V30 33512 N 3148.35 -1.54206 0.325309 0
M  V30 33513 C 3149.6 -2.00897 -0.27715 0
M  V30 33514 C 3149.93 -1.2131 -1.51649 0
M  V30 33515 O 3149.21 -0.295859 -1.92237 0
M  V30 33516 C 3149.49 -3.54904 -0.609548 0
M  V30 33517 C 3149.34 -4.45215 0.64062 0
M  V30 33518 C 3150.66 -4.1634 -1.42649 0
M  V30 33519 H 3147.78 -0.730285 -0.0992594 0
M  V30 33520 H 3150.42 -1.84782 0.442234 0
M  V30 33521 H 3148.57 -3.68767 -1.22243 0
M  V30 33522 H 3150.24 -4.43219 1.27886 0
M  V30 33523 H 3148.49 -4.14819 1.26915 0
M  V30 33524 H 3149.16 -5.50801 0.363555 0
M  V30 33525 H 3151.63 -4.06063 -0.908422 0
M  V30 33526 H 3150.51 -5.24207 -1.62783 0
M  V30 33527 H 3150.77 -3.69778 -2.42315 0
M  V30 33528 N 3149.83 -0.0535194 -1.57509 0
M  V30 33529 C 3151.06 0.63276 -1.97512 0
M  V30 33530 C 3151.48 1.63446 -0.930976 0
M  V30 33531 O 3150.84 1.80993 0.105526 0
M  V30 33532 C 3150.89 1.29401 -3.36582 0
M  V30 33533 O 3149.99 2.40971 -3.34674 0
M  V30 33534 H 3149.33 0.164298 -0.643352 0
M  V30 33535 H 3151.86 -0.122616 -2.04232 0
M  V30 33536 H 3151.87 1.64514 -3.73362 0
M  V30 33537 H 3150.55 0.559903 -4.12114 0
M  V30 33538 H 3149.12 2.07787 -3.09643 0
M  V30 33539 N 3151.31 1.56059 0.219886 0
M  V30 33540 C 3152.27 1.9172 1.25603 0
M  V30 33541 C 3153.27 0.795937 1.39719 0
M  V30 33542 O 3154.46 1.06367 1.37956 0
M  V30 33543 C 3151.59 2.16948 2.62957 0
M  V30 33544 H 3152.79 2.84393 0.951859 0
M  V30 33545 H 3150.34 1.49366 0.460372 0
M  V30 33546 H 3151.08 1.26831 2.9847 0
M  V30 33547 H 3150.86 2.98633 2.54088 0
M  V30 33548 H 3152.35 2.45628 3.37723 0
M  V30 33549 N 3152.79 -0.486655 1.49898 0
M  V30 33550 C 3154.04 -1.23739 1.59791 0
M  V30 33551 C 3154.36 -1.92785 0.29309 0
M  V30 33552 O 3153.63 -1.83402 -0.688502 0
M  V30 33553 H 3152.21 -0.459721 0.588783 0
M  V30 33554 H 3154.87 -0.562775 1.86598 0
M  V30 33555 H 3153.96 -1.99366 2.40124 0
M  V30 33556 N 3154.27 -1.39214 -0.738737 0
M  V30 33557 C 3155.68 -1.20736 -1.04379 0
M  V30 33558 C 3155.88 -0.0663436 -2.01391 0
M  V30 33559 O 3154.94 0.583186 -2.45673 0
M  V30 33560 C 3156.25 -2.53989 -1.60965 0
M  V30 33561 C 3157.8 -2.60802 -1.73064 0
M  V30 33562 C 3158.27 -3.94268 -2.3306 0
M  V30 33563 N 3159.76 -3.95887 -2.40474 0
M  V30 33564 C 3160.5 -4.95928 -2.87825 0
M  V30 33565 N 3160 -6.06366 -3.351 0
M  V30 33566 N 3161.79 -4.83309 -2.87 0
M  V30 33567 H 3153.94 -2.12186 -0.0952623 0
M  V30 33568 H 3156.2 -0.94218 -0.104885 0
M  V30 33569 H 3155.91 -3.38016 -0.971488 0
M  V30 33570 H 3155.78 -2.73443 -2.59824 0
M  V30 33571 H 3158.17 -1.77161 -2.36004 0
M  V30 33572 H 3158.25 -2.45202 -0.728684 0
M  V30 33573 H 3157.89 -4.78338 -1.70749 0
M  V30 33574 H 3157.82 -4.07187 -3.33926 0
M  V30 33575 H 3160.32 -3.16127 -2.07056 0
M  V30 33576 H 3160.63 -6.78616 -3.6973 0
M  V30 33577 H 3158.97 -6.09965 -3.33119 0
M  V30 33578 H 3162.16 -3.96136 -2.49388 0
M  V30 33579 H 3162.34 -5.61422 -3.23588 0
M  V30 33580 N 3155.74 0.968523 -1.24328 0
M  V30 33581 C 3156.71 2.04452 -1.03595 0
M  V30 33582 C 3157.71 1.60799 0.00645263 0
M  V30 33583 O 3158.9 1.72615 -0.234434 0
M  V30 33584 C 3156.03 3.36101 -0.569979 0
M  V30 33585 H 3157.22 2.24279 -1.99096 0
M  V30 33586 H 3154.77 1.14364 -1.06539 0
M  V30 33587 H 3155.51 3.21967 0.388268 0
M  V30 33588 H 3155.29 3.6913 -1.32233 0
M  V30 33589 H 3156.78 4.15212 -0.445927 0
M  V30 33590 N 3157.22 1.0569 1.16908 0
M  V30 33591 C 3158.15 0.683442 2.23274 0
M  V30 33592 C 3159.13 -0.321176 1.6704 0
M  V30 33593 O 3160.32 -0.197657 1.93192 0
M  V30 33594 C 3157.45 0.0626616 3.47243 0
M  V30 33595 C 3156.4 0.992586 4.16331 0
M  V30 33596 C 3155.73 0.235424 5.34181 0
M  V30 33597 C 3157.03 2.31894 4.67998 0
M  V30 33598 H 3158.72 1.57269 2.54768 0
M  V30 33599 H 3156.27 0.757627 1.22458 0
M  V30 33600 H 3158.22 -0.210429 4.20874 0
M  V30 33601 H 3156.94 -0.861561 3.15031 0
M  V30 33602 H 3155.6 1.25032 3.44619 0
M  V30 33603 H 3155.25 -0.691722 4.98221 0
M  V30 33604 H 3154.95 0.855104 5.81345 0
M  V30 33605 H 3156.48 -0.0302644 6.10592 0
M  V30 33606 H 3157.89 2.10541 5.33241 0
M  V30 33607 H 3156.29 2.89305 5.25759 0
M  V30 33608 H 3157.36 2.95398 3.84536 0
M  V30 33609 N 3158.7 -1.33435 0.838617 0
M  V30 33610 C 3159.93 -2.01706 0.44703 0
M  V30 33611 C 3160.34 -1.63253 -0.956306 0
M  V30 33612 O 3159.68 -0.841594 -1.63288 0
M  V30 33613 C 3159.74 -3.56176 0.48777 0
M  V30 33614 C 3159.41 -4.18005 1.84718 0
M  V30 33615 C 3160.4 -4.37395 2.81036 0
M  V30 33616 C 3158.09 -4.54435 2.13995 0
M  V30 33617 C 3160.08 -4.92362 4.04794 0
M  V30 33618 C 3157.77 -5.0911 3.38009 0
M  V30 33619 C 3158.77 -5.2802 4.33225 0
M  V30 33620 O 3158.46 -5.81531 5.55046 0
M  V30 33621 H 3158.19 -0.652738 0.175811 0
M  V30 33622 H 3160.74 -1.71346 1.13268 0
M  V30 33623 H 3158.97 -3.85861 -0.254652 0
M  V30 33624 H 3160.66 -4.0574 0.114042 0
M  V30 33625 H 3161.43 -4.096 2.59718 0
M  V30 33626 H 3157.31 -4.39012 1.40676 0
M  V30 33627 H 3160.85 -5.07037 4.79123 0
M  V30 33628 H 3156.75 -5.36336 3.59185 0
M  V30 33629 H 3157.51 -5.99946 5.56782 0
M  V30 33630 N 3160.18 -0.595029 -1.45935 0
M  V30 33631 C 3161.43 -0.0829885 -2.01529 0
M  V30 33632 C 3161.74 1.28953 -1.47073 0
M  V30 33633 O 3162.95 1.8936 -1.94564 0
M  V30 33634 C 3161.4 -0.0977229 -3.59767 0
M  V30 33635 C 3161.01 -1.46932 -4.2322 0
M  V30 33636 C 3162.75 0.35973 -4.22973 0
M  V30 33637 C 3160.66 -1.44111 -5.73573 0
M  V30 33638 H 3159.59 -0.0272558 -0.753507 0
M  V30 33639 H 3162.24 -0.748502 -1.6754 0
M  V30 33640 H 3160.62 0.634199 -3.90889 0
M  V30 33641 H 3161.8 -2.22194 -4.03691 0
M  V30 33642 H 3160.11 -1.86781 -3.72158 0
M  V30 33643 H 3162.71 0.399817 -5.33203 0
M  V30 33644 H 3163.05 1.37984 -3.92767 0
M  V30 33645 H 3163.59 -0.31852 -3.96523 0
M  V30 33646 H 3160.32 -2.43842 -6.08458 0
M  V30 33647 H 3159.84 -0.730872 -5.9533 0
M  V30 33648 H 3161.52 -1.15932 -6.36529 0
M  V30 33649 N 3161.66 1.54031 -0.333483 0
M  V30 33650 C 3163.07 1.86076 0.152527 0
M  V30 33651 C 3163.42 1.25494 1.50817 0
M  V30 33652 O 3162.54 0.564701 2.08902 0
M  V30 33653 C 3163.14 3.37611 0.28354 0
M  V30 33654 C 3161.7 3.6957 0.713776 0
M  V30 33655 C 3160.84 2.76846 -0.158564 0
M  V30 33656 H 3163.79 1.48738 -0.55343 0
M  V30 33657 H 3163.82 3.63865 1.11277 0
M  V30 33658 H 3163.33 3.81675 -0.70326 0
M  V30 33659 H 3161.43 3.31045 1.70996 0
M  V30 33660 H 3161.54 4.76371 0.510647 0
M  V30 33661 H 3159.91 2.52035 0.367487 0
M  V30 33662 H 3160.69 3.23738 -1.14231 0
M  V30 33663 N 3163.13 0.0618717 1.57479 0
M  V30 33664 C 3164.54 -0.472263 1.80628 0
M  V30 33665 C 3164.9 -1.7026 0.97499 0
M  V30 33666 O 3164.02 -2.15523 0.194638 0
M  V30 33667 C 3164.62 -0.863558 3.2761 0
M  V30 33668 C 3163.17 -1.34261 3.5164 0
M  V30 33669 C 3162.32 -0.322961 2.75413 0
M  V30 33670 H 3165.27 0.287662 1.56071 0
M  V30 33671 H 3165.29 -1.72571 3.39116 0
M  V30 33672 H 3164.81 0.0320908 3.88087 0
M  V30 33673 H 3162.91 -2.25709 2.96456 0
M  V30 33674 H 3163.02 -1.32739 4.60345 0
M  V30 33675 H 3161.38 -0.798133 2.41872 0
M  V30 33676 H 3162.17 0.564788 3.38622 0
M  V30 33677 N 3164.61 -1.56173 -0.211607 0
M  V30 33678 C 3165.84 -1.83474 -0.949772 0
M  V30 33679 C 3166.25 -0.640084 -1.78044 0
M  V30 33680 O 3165.59 0.40067 -1.79277 0
M  V30 33681 C 3165.66 -3.0465 -1.90862 0
M  V30 33682 C 3165.32 -4.39243 -1.26152 0
M  V30 33683 C 3166.32 -5.15865 -0.646507 0
M  V30 33684 C 3164 -4.85972 -1.27031 0
M  V30 33685 C 3166 -6.37381 -0.0489192 0
M  V30 33686 C 3163.68 -6.07428 -0.66888 0
M  V30 33687 C 3164.68 -6.82974 -0.0592487 0
M  V30 33688 O 3164.37 -8.02132 0.532797 0
M  V30 33689 H 3164.1 -0.613705 -0.283447 0
M  V30 33690 H 3166.65 -2.04121 -0.228904 0
M  V30 33691 H 3164.88 -2.79847 -2.66875 0
M  V30 33692 H 3166.57 -3.18738 -2.51318 0
M  V30 33693 H 3167.34 -4.80865 -0.631971 0
M  V30 33694 H 3163.22 -4.27137 -1.73421 0
M  V30 33695 H 3166.76 -6.96289 0.427536 0
M  V30 33696 H 3162.66 -6.41899 -0.680862 0
M  V30 33697 H 3163.43 -8.1738 0.428086 0
M  V30 33698 N 3166.09 0.478699 -1.50154 0
M  V30 33699 C 3167 1.60361 -1.71235 0
M  V30 33700 C 3168.02 1.635 -0.595298 0
M  V30 33701 O 3169.19 1.81509 -0.872715 0
M  V30 33702 C 3166.26 2.9662 -1.79492 0
M  V30 33703 C 3165.32 3.03931 -3.0319 0
M  V30 33704 C 3164.55 4.33691 -3.11044 0
M  V30 33705 O 3164.77 5.23765 -2.25889 0
M  V30 33706 O 3163.71 4.46436 -4.03706 0
M  V30 33707 H 3167.53 1.455 -2.66577 0
M  V30 33708 H 3165.12 0.657387 -1.3416 0
M  V30 33709 H 3167 3.77563 -1.87147 0
M  V30 33710 H 3165.68 3.11697 -0.873319 0
M  V30 33711 H 3164.58 2.22094 -3.0104 0
M  V30 33712 H 3165.92 2.93789 -3.94904 0
M  V30 33713 N 3167.57 1.39603 0.731343 0
M  V30 33714 C 3168.5 1.41355 1.85852 0
M  V30 33715 C 3169.48 0.27643 1.67839 0
M  V30 33716 O 3170.66 0.48278 1.88103 0
M  V30 33717 C 3167.79 1.25989 3.23642 0
M  V30 33718 C 3166.75 2.37138 3.563 0
M  V30 33719 C 3166.07 2.06859 4.93065 0
M  V30 33720 C 3167.37 3.79458 3.589 0
M  V30 33721 H 3169.07 2.35684 1.84644 0
M  V30 33722 H 3166.61 1.13444 0.886935 0
M  V30 33723 H 3168.57 1.25834 4.02174 0
M  V30 33724 H 3167.29 0.281292 3.25386 0
M  V30 33725 H 3165.95 2.36516 2.80099 0
M  V30 33726 H 3165.6 1.07429 4.91394 0
M  V30 33727 H 3165.3 2.81315 5.15883 0
M  V30 33728 H 3166.82 2.0836 5.7395 0
M  V30 33729 H 3168.24 3.81989 4.27501 0
M  V30 33730 H 3166.63 4.53304 3.93238 0
M  V30 33731 H 3167.7 4.10173 2.58624 0
M  V30 33732 N 3169.05 -0.961916 1.2484 0
M  V30 33733 C 3169.98 -2.07512 1.07056 0
M  V30 33734 C 3170.96 -1.7009 -0.0182166 0
M  V30 33735 O 3172.14 -1.9362 0.149949 0
M  V30 33736 C 3169.27 -3.40563 0.680753 0
M  V30 33737 C 3168.23 -3.91964 1.71895 0
M  V30 33738 C 3167.55 -5.21426 1.18404 0
M  V30 33739 C 3168.85 -4.19156 3.11618 0
M  V30 33740 H 3170.55 -2.22647 2.00171 0
M  V30 33741 H 3168.09 -1.06989 0.963818 0
M  V30 33742 H 3170.05 -4.17883 0.543313 0
M  V30 33743 H 3168.77 -3.25345 -0.286092 0
M  V30 33744 H 3167.43 -3.16806 1.84471 0
M  V30 33745 H 3167.08 -5.02571 0.207632 0
M  V30 33746 H 3166.78 -5.56785 1.87788 0
M  V30 33747 H 3168.3 -6.01349 1.05884 0
M  V30 33748 H 3169.71 -4.8716 3.02238 0
M  V30 33749 H 3168.11 -4.65756 3.78406 0
M  V30 33750 H 3169.18 -3.25709 3.59224 0
M  V30 33751 N 3170.52 -1.06308 -1.16346 0
M  V30 33752 C 3171.94 -0.786567 -1.38871 0
M  V30 33753 C 3172.14 0.614028 -1.91917 0
M  V30 33754 O 3171.2 1.37457 -2.11806 0
M  V30 33755 C 3172.51 -1.85158 -2.36932 0
M  V30 33756 C 3174.06 -1.87511 -2.50617 0
M  V30 33757 C 3174.53 -2.93067 -3.5196 0
M  V30 33758 N 3176.02 -2.92101 -3.59487 0
M  V30 33759 C 3176.76 -3.70423 -4.37692 0
M  V30 33760 N 3176.25 -4.58562 -5.19319 0
M  V30 33761 N 3178.05 -3.58814 -4.32677 0
M  V30 33762 H 3170.2 -1.96656 -0.802507 0
M  V30 33763 H 3172.46 -0.852196 -0.41529 0
M  V30 33764 H 3172.17 -2.8574 -2.05051 0
M  V30 33765 H 3172.04 -1.70272 -3.36582 0
M  V30 33766 H 3174.43 -0.875876 -2.81802 0
M  V30 33767 H 3174.51 -2.06475 -1.51003 0
M  V30 33768 H 3174.15 -3.93183 -3.21511 0
M  V30 33769 H 3174.08 -2.71352 -4.51304 0
M  V30 33770 H 3176.57 -2.28202 -3.01218 0
M  V30 33771 H 3176.89 -5.14981 -5.76207 0
M  V30 33772 H 3175.23 -4.62618 -5.18662 0
M  V30 33773 H 3178.42 -2.89341 -3.67966 0
M  V30 33774 H 3178.6 -4.20097 -4.93379 0
M  V30 33775 N 3172 1.32989 -0.845682 0
M  V30 33776 C 3172.95 2.26561 -0.25574 0
M  V30 33777 C 3173.94 1.49565 0.593219 0
M  V30 33778 O 3175.13 1.71339 0.444071 0
M  V30 33779 C 3172.26 3.3866 0.562513 0
M  V30 33780 C 3171.34 4.23049 -0.298333 0
M  V30 33781 N 3171.73 4.86601 -1.38031 0
M  V30 33782 C 3170.03 4.45916 -0.0865323 0
M  V30 33783 C 3170.73 5.49478 -1.90917 0
M  V30 33784 N 3169.71 5.2997 -1.20964 0
M  V30 33785 H 3173.51 2.73217 -1.08304 0
M  V30 33786 H 3171.03 1.46973 -0.690849 0
M  V30 33787 H 3173.02 4.04692 1.0015 0
M  V30 33788 H 3171.68 2.93552 1.38771 0
M  V30 33789 H 3172.69 4.86961 -1.76323 0
M  V30 33790 H 3169.37 4.1151 0.704678 0
M  V30 33791 H 3170.76 6.10059 -2.81562 0
M  V30 33792 N 3173.48 0.60276 1.45618 0
M  V30 33793 C 3174.39 -0.120861 2.34288 0
M  V30 33794 C 3175.41 -0.865388 1.50954 0
M  V30 33795 O 3176.58 -0.824062 1.83769 0
M  V30 33796 C 3173.65 -1.10882 3.28491 0
M  V30 33797 C 3172.71 -0.366778 4.2773 0
M  V30 33798 C 3171.94 -1.30767 5.17432 0
M  V30 33799 O 3172.16 -2.54526 5.10463 0
M  V30 33800 O 3171.1 -0.807359 5.96461 0
M  V30 33801 H 3174.92 0.607702 2.97558 0
M  V30 33802 H 3172.51 0.363045 1.44922 0
M  V30 33803 H 3174.39 -1.67796 3.86552 0
M  V30 33804 H 3173.07 -1.81849 2.67792 0
M  V30 33805 H 3171.97 0.244709 3.73299 0
M  V30 33806 H 3173.31 0.302313 4.91271 0
M  V30 33807 N 3174.96 -1.53852 0.341647 0
M  V30 33808 C 3176.2 -2.01876 -0.248511 0
M  V30 33809 C 3176.56 -1.22516 -1.4835 0
M  V30 33810 O 3175.85 -0.303952 -1.89174 0
M  V30 33811 C 3176.05 -3.52035 -0.616927 0
M  V30 33812 C 3175.88 -4.45934 0.580805 0
M  V30 33813 C 3174.65 -4.93502 1.08553 0
M  V30 33814 C 3176.84 -4.93768 1.43867 0
M  V30 33815 N 3174.83 -5.71347 2.24578 0
M  V30 33816 C 3176.2 -5.69717 2.44585 0
M  V30 33817 C 3178.25 -4.7588 1.46433 0
M  V30 33818 C 3176.95 -6.29681 3.47698 0
M  V30 33819 C 3178.98 -5.36692 2.48426 0
M  V30 33820 C 3178.34 -6.12508 3.4787 0
M  V30 33821 H 3174.44 -0.780113 -0.054293 0
M  V30 33822 H 3177.03 -1.88671 0.480782 0
M  V30 33823 H 3175.2 -3.6545 -1.31533 0
M  V30 33824 H 3176.93 -3.86806 -1.19011 0
M  V30 33825 H 3173.68 -4.69064 0.653915 0
M  V30 33826 H 3174.11 -6.14941 2.83154 0
M  V30 33827 H 3178.75 -4.16811 0.709117 0
M  V30 33828 H 3176.47 -6.8786 4.24115 0
M  V30 33829 H 3180.05 -5.24759 2.51236 0
M  V30 33830 H 3178.93 -6.58727 4.25498 0
M  V30 33831 N 3176.44 -0.0702223 -1.57443 0
M  V30 33832 C 3177.67 0.607441 -1.97468 0
M  V30 33833 C 3178.07 1.63779 -0.947261 0
M  V30 33834 O 3177.42 1.83548 0.0746197 0
M  V30 33835 C 3177.48 1.33489 -3.33798 0
M  V30 33836 C 3177.14 0.458185 -4.54697 0
M  V30 33837 C 3178.14 -0.283579 -5.19126 0
M  V30 33838 C 3175.83 0.383524 -5.00834 0
M  V30 33839 C 3177.82 -1.08824 -6.28041 0
M  V30 33840 C 3175.51 -0.424812 -6.09622 0
M  V30 33841 C 3176.5 -1.15937 -6.73088 0
M  V30 33842 O 3176.19 -1.95437 -7.79782 0
M  V30 33843 H 3175.92 0.169489 -0.654408 0
M  V30 33844 H 3178.48 -0.138687 -2.04931 0
M  V30 33845 H 3176.71 2.12706 -3.22945 0
M  V30 33846 H 3178.4 1.90464 -3.58439 0
M  V30 33847 H 3179.16 -0.235482 -4.84428 0
M  V30 33848 H 3175.04 0.944889 -4.51213 0
M  V30 33849 H 3178.59 -1.66209 -6.7751 0
M  V30 33850 H 3174.48 -0.474479 -6.43754 0
M  V30 33851 H 3175.25 -1.87852 -7.96652 0
M  V30 33852 N 3177.91 1.56283 0.203321 0
M  V30 33853 C 3178.82 1.97082 1.27263 0
M  V30 33854 C 3179.84 0.877262 1.50267 0
M  V30 33855 O 3181.02 1.18234 1.63042 0
M  V30 33856 C 3178.08 2.295 2.59867 0
M  V30 33857 C 3177.14 3.5252 2.45006 0
M  V30 33858 C 3176.38 3.83382 3.71287 0
M  V30 33859 O 3176.6 3.15652 4.751 0
M  V30 33860 O 3175.53 4.76832 3.67307 0
M  V30 33861 H 3179.36 2.88247 0.95641 0
M  V30 33862 H 3176.94 1.43731 0.407663 0
M  V30 33863 H 3178.83 2.51464 3.38148 0
M  V30 33864 H 3177.5 1.41505 2.91132 0
M  V30 33865 H 3176.41 3.35814 1.64864 0
M  V30 33866 H 3177.74 4.40956 2.18675 0
M  V30 33867 N 3179.39 -0.470729 1.50406 0
M  V30 33868 C 3180.34 -1.56868 1.69296 0
M  V30 33869 C 3181.31 -1.57273 0.534276 0
M  V30 33870 O 3182.5 -1.74797 0.764886 0
M  V30 33871 C 3179.64 -2.94839 1.79343 0
M  V30 33872 C 3178.75 -3.0422 3.06715 0
M  V30 33873 C 3177.88 -4.33108 3.07556 0
M  V30 33874 C 3176.92 -4.36233 4.2938 0
M  V30 33875 N 3176.06 -5.56593 4.27958 0
M  V30 33876 H 3180.9 -1.40066 2.63031 0
M  V30 33877 H 3178.44 -0.680993 1.30387 0
M  V30 33878 H 3180.39 -3.7485 1.83149 0
M  V30 33879 H 3179.02 -3.10275 0.890466 0
M  V30 33880 H 3178.08 -2.17081 3.12378 0
M  V30 33881 H 3179.39 -3.02389 3.96689 0
M  V30 33882 H 3178.54 -5.21466 3.10093 0
M  V30 33883 H 3177.28 -4.37549 2.15412 0
M  V30 33884 H 3176.29 -3.46272 4.27054 0
M  V30 33885 H 3177.51 -4.33484 5.22751 0
M  V30 33886 H 3175.46 -5.61818 3.38668 0
M  V30 33887 H 3175.37 -5.56504 5.11702 0
M  V30 33888 H 3176.64 -6.47075 4.34642 0
M  V30 33889 N 3180.87 -1.39989 -0.72393 0
M  V30 33890 C 3182.12 -1.37815 -1.48369 0
M  V30 33891 C 3182.45 0.0222943 -1.94487 0
M  V30 33892 O 3181.7 1.00526 -1.67908 0
M  V30 33893 C 3182 -2.30663 -2.73 0
M  V30 33894 C 3181.67 -3.78083 -2.45691 0
M  V30 33895 C 3180.33 -4.18248 -2.37953 0
M  V30 33896 C 3182.68 -4.71277 -2.22593 0
M  V30 33897 C 3180.01 -5.49655 -2.05173 0
M  V30 33898 C 3182.36 -6.02973 -1.91328 0
M  V30 33899 C 3181.02 -6.4219 -1.82066 0
M  V30 33900 H 3180.29 -0.504301 -0.54292 0
M  V30 33901 H 3182.94 -1.7258 -0.829956 0
M  V30 33902 H 3181.25 -1.89054 -3.4317 0
M  V30 33903 H 3182.94 -2.26268 -3.31064 0
M  V30 33904 H 3179.53 -3.46255 -2.52597 0
M  V30 33905 H 3183.72 -4.4107 -2.27533 0
M  V30 33906 H 3178.97 -5.78951 -1.96534 0
M  V30 33907 H 3183.15 -6.74706 -1.72467 0
M  V30 33908 H 3180.77 -7.43931 -1.56433 0
M  V30 33909 O 3182.39 0.865327 -1.36361 0
M  V30 33910 H 3183.08 1.50453 -1.21998 0
M  V30 END ATOM
M  V30 BEGIN BOND
M  V30 END BOND
M  V30 END CTAB
M  END
$$$$
