drugbank_target|Q13627 Dual specificity tyrosine-phosphorylation-regulated kinase 1A (DB07608; DB12010)
 OpenBabel12092120443D

  0  0  0     0  0            999 V3000
M  V30 BEGIN CTAB
M  V30 COUNTS 11823 11972 0 0 0
M  V30 BEGIN ATOM
M  V30 1 H -0.908 1.98254 -0.117106 0
M  V30 2 N 0 1.576 0 0
M  V30 3 C 0.933 2.03868 1.02534 0
M  V30 4 C 1.911 0.928543 1.3348 0
M  V30 5 O 3.095 1.19667 1.45644 0
M  V30 6 C 0.222 2.43627 2.35294 0
M  V30 7 C -0.732 3.65373 2.2001 0
M  V30 8 S 0.101 5.13292 1.52614 0
M  V30 9 C 1.257 5.56322 2.86805 0
M  V30 10 H 1.49 2.90518 0.631377 0
M  V30 11 H -0.977 1.52953 0.210867 0
M  V30 12 H 0.981 2.67203 3.11629 0
M  V30 13 H -0.358 1.57376 2.7183 0
M  V30 14 H -1.165 3.90944 3.18086 0
M  V30 15 H -1.563 3.418 1.51819 0
M  V30 16 H 0.729 5.58782 3.83104 0
M  V30 17 H 1.672 6.56266 2.65933 0
M  V30 18 H 2.08 4.83886 2.90714 0
M  V30 19 N 1.4781 -0.272755 1.55222 0
M  V30 20 C 2.4281 -1.33946 1.84506 0
M  V30 21 C 3.4121 -1.44682 0.70399 0
M  V30 22 O 4.6041 -1.48358 0.965338 0
M  V30 23 C 1.7331 -2.69968 2.12067 0
M  V30 24 C 0.8191 -2.63341 3.32434 0
M  V30 25 N 1.2101 -2.26335 4.52334 0
M  V30 26 C -0.4919 -2.94402 3.35028 0
M  V30 27 C 0.2091 -2.29705 5.34425 0
M  V30 28 N -0.8149 -2.68188 4.72838 0
M  V30 29 H 2.9871 -1.04343 2.74754 0
M  V30 30 H 0.5011 -0.481389 1.55101 0
M  V30 31 H 2.4981 -3.46916 2.31202 0
M  V30 32 H 1.1581 -3.00459 1.23103 0
M  V30 33 H 2.1691 -1.98309 4.78429 0
M  V30 34 H -1.1539 -3.29603 2.56257 0
M  V30 35 H 0.2361 -2.03653 6.40293 0
M  V30 36 N 2.9562 -1.48159 -0.537278 0
M  V30 37 C 4.1842 -1.59454 -1.31841 0
M  V30 38 C 4.5992 -0.252065 -1.8711 0
M  V30 39 O 3.9562 0.757621 -1.66031 0
M  V30 40 C 4.0072 -2.63546 -2.47439 0
M  V30 41 O 3.7282 -3.92583 -1.94449 0
M  V30 42 C 5.2292 -2.85212 -3.39366 0
M  V30 43 H 2.4492 -0.53785 -0.401196 0
M  V30 44 H 4.9932 -1.93932 -0.648891 0
M  V30 45 H 3.1482 -2.31946 -3.1029 0
M  V30 46 H 3.5622 -4.49629 -2.70063 0
M  V30 47 H 5.0362 -3.61863 -4.16844 0
M  V30 48 H 5.5132 -1.93765 -3.94147 0
M  V30 49 H 6.1192 -3.18086 -2.82314 0
M  V30 50 N 4.4343 0.785586 -1.36625 0
M  V30 51 C 5.6823 1.54057 -1.30808 0
M  V30 52 C 6.0033 1.94683 0.111157 0
M  V30 53 O 5.2733 1.65241 1.05224 0
M  V30 54 H 3.8533 0.571354 -0.481211 0
M  V30 55 H 6.5153 0.935821 -1.70963 0
M  V30 56 H 5.6113 2.44637 -1.93801 0
M  V30 57 N 5.9124 1.20967 1.01018 0
M  V30 58 C 7.1604 1.02172 1.74371 0
M  V30 59 C 7.4814 -0.446414 1.89821 0
M  V30 60 O 6.7514 -1.32234 1.44537 0
M  V30 61 H 5.3314 0.375066 0.646014 0
M  V30 62 H 7.9934 1.52187 1.21758 0
M  V30 63 H 7.0894 1.48538 2.74487 0
M  V30 64 N 7.3905 -1.2043 1.01659 0
M  V30 65 C 8.3005 -2.2689 0.596484 0
M  V30 66 C 9.3165 -1.70107 -0.36599 0
M  V30 67 O 10.4925 -2.00117 -0.226942 0
M  V30 68 C 7.5575 -3.4665 -0.0586659 0
M  V30 69 C 6.6185 -4.18662 0.949751 0
M  V30 70 C 5.8515 -5.32705 0.32577 0
M  V30 71 O 6.0745 -5.63656 -0.874509 0
M  V30 72 O 5.0085 -5.92803 1.04249 0
M  V30 73 H 8.8345 -2.65041 1.4828 0
M  V30 74 H 6.4195 -1.27048 0.786082 0
M  V30 75 H 8.3015 -4.19256 -0.424564 0
M  V30 76 H 6.9765 -3.10375 -0.91918 0
M  V30 77 H 5.8835 -3.48229 1.36702 0
M  V30 78 H 7.2165 -4.58878 1.78023 0
M  V30 79 N 8.8686 -0.792821 -1.36206 0
M  V30 80 C 10.0966 -0.378825 -2.03402 0
M  V30 81 C 10.5116 1.00586 -1.59774 0
M  V30 82 O 9.8686 1.64574 -0.788764 0
M  V30 83 C 9.9196 -0.43683 -3.58851 0
M  V30 84 O 9.6406 -1.76691 -4.00889 0
M  V30 85 C 11.1416 -0.0138943 -4.43298 0
M  V30 86 H 8.3616 -0.155673 -0.652692 0
M  V30 87 H 10.9056 -1.07261 -1.74113 0
M  V30 88 H 9.0606 0.208575 -3.86838 0
M  V30 89 H 9.4746 -1.72011 -4.95492 0
M  V30 90 H 10.9486 -0.105615 -5.51899 0
M  V30 91 H 11.4256 1.03915 -4.2673 0
M  V30 92 H 12.0316 -0.63192 -4.20579 0
M  V30 93 N 10.3467 1.47872 -0.545128 0
M  V30 94 C 11.5717 2.07391 -0.0190611 0
M  V30 95 C 11.9967 1.39688 1.25971 0
M  V30 96 O 11.3547 0.467816 1.7516 0
M  V30 97 C 11.4027 3.60188 0.172335 0
M  V30 98 O 10.5067 3.9339 1.23766 0
M  V30 99 H 9.8477 0.662411 -0.0459059 0
M  V30 100 H 12.3777 1.90066 -0.757365 0
M  V30 101 H 12.3877 4.06129 0.390305 0
M  V30 102 H 11.0627 4.08865 -0.761725 0
M  V30 103 H 9.6397 3.5921 1.00114 0
M  V30 104 N 11.8248 0.280983 1.55075 0
M  V30 105 C 12.7878 -0.590896 2.21452 0
M  V30 106 C 13.7878 -1.07682 1.19421 0
M  V30 107 O 14.9778 -0.97605 1.44288 0
M  V30 108 C 12.1098 -1.81587 2.88511 0
M  V30 109 H 13.3028 -0.0112554 2.99898 0
M  V30 110 H 10.8558 0.0316438 1.56268 0
M  V30 111 H 11.5908 -2.43587 2.14093 0
M  V30 112 H 11.3758 -1.4753 3.63287 0
M  V30 113 H 12.8658 -2.43575 3.39206 0
M  V30 114 N 13.3029 -1.57598 0.00835791 0
M  V30 115 C 14.5429 -1.92788 -0.679136 0
M  V30 116 C 14.9069 -0.883378 -1.70471 0
M  V30 117 O 16.1079 -1.12079 -2.44319 0
M  V30 118 C 14.3789 -3.32994 -1.29807 0
M  V30 119 S 15.9379 -3.90082 -2.00952 0
M  V30 120 H 12.7559 -0.67475 -0.224127 0
M  V30 121 H 15.3579 -1.95385 0.0670497 0
M  V30 122 H 14.0619 -4.06846 -0.538922 0
M  V30 123 H 13.5929 -3.33791 -2.082 0
M  V30 124 H 15.6079 -3.71834 -3.28563 0
M  V30 125 N 14.781 0.264519 -1.55364 0
M  V30 126 C 15.728 1.32717 -1.88825 0
M  V30 127 C 16.698 1.48675 -0.740605 0
M  V30 128 O 17.883 1.62945 -0.992657 0
M  V30 129 C 15.023 2.68089 -2.17307 0
M  V30 130 C 14.136 2.60284 -3.44785 0
M  V30 131 C 13.271 3.87892 -3.62924 0
M  V30 132 C 12.31 3.74631 -4.84064 0
M  V30 133 N 11.447 4.94092 -4.98816 0
M  V30 134 H 16.287 1.03481 -2.79456 0
M  V30 135 H 13.824 0.499757 -1.3835 0
M  V30 136 H 15.782 3.46864 -2.31821 0
M  V30 137 H 14.412 2.95509 -1.299 0
M  V30 138 H 13.464 1.73173 -3.38697 0
M  V30 139 H 14.776 2.46388 -4.33698 0
M  V30 140 H 13.93 4.75109 -3.77302 0
M  V30 141 H 12.669 4.04664 -2.7221 0
M  V30 142 H 11.674 2.85797 -4.69681 0
M  V30 143 H 12.899 3.5937 -5.76221 0
M  V30 144 H 10.845 5.11259 -4.11036 0
M  V30 145 H 10.762 4.8276 -5.81789 0
M  V30 146 H 12.03 5.82857 -5.17588 0
M  V30 147 N 16.2591 1.48442 0.529413 0
M  V30 148 C 17.6701 1.5002 1.11134 0
M  V30 149 C 18.0211 0.27031 1.94329 0
M  V30 150 O 17.1461 -0.622507 2.07253 0
M  V30 151 C 17.7411 2.71834 2.02217 0
M  V30 152 C 16.3001 2.76283 2.55627 0
M  V30 153 C 15.4471 2.43542 1.326 0
M  V30 154 H 18.3981 1.5555 0.314641 0
M  V30 155 H 18.4191 2.50384 2.8651 0
M  V30 156 H 17.9311 3.61331 1.41639 0
M  V30 157 H 16.0321 1.90995 3.19924 0
M  V30 158 H 16.1451 3.77725 2.94721 0
M  V30 159 H 14.5091 1.94709 1.64196 0
M  V30 160 H 15.2921 3.3528 0.737734 0
M  V30 161 N 17.7372 -0.778329 1.37039 0
M  V30 162 C 18.9622 -1.57248 1.35233 0
M  V30 163 C 19.3872 -1.87999 -0.0615568 0
M  V30 164 O 18.7452 -1.48734 -1.03672 0
M  V30 165 C 18.7932 -2.86353 2.19167 0
M  V30 166 O 17.8972 -3.80442 1.59178 0
M  V30 167 H 17.2382 -0.476569 0.462362 0
M  V30 168 H 19.7682 -0.963853 1.80474 0
M  V30 169 H 19.7782 -3.35519 2.32145 0
M  V30 170 H 18.4532 -2.63299 3.21942 0
M  V30 171 H 17.0302 -3.39067 1.55203 0
M  V30 172 N 19.2153 -1.21501 -1.00376 0
M  V30 173 C 20.4403 -1.05977 -1.78279 0
M  V30 174 C 20.8653 0.385994 -1.84097 0
M  V30 175 O 20.2233 1.27849 -1.28547 0
M  V30 176 C 20.2713 -1.66302 -3.19963 0
M  V30 177 O 19.3753 -0.909333 -4.0225 0
M  V30 178 H 18.7163 -0.372906 -0.549397 0
M  V30 179 H 21.2463 -1.6107 -1.26165 0
M  V30 180 H 21.2563 -1.70574 -3.70632 0
M  V30 181 H 19.9313 -2.71515 -3.15043 0
M  V30 182 H 18.5083 -0.941795 -3.60811 0
M  V30 183 N 20.6934 1.19889 -1.02296 0
M  V30 184 C 21.9394 1.89701 -0.717033 0
M  V30 185 C 22.2724 1.7905 0.751989 0
M  V30 186 O 21.5474 1.17891 1.547 0
M  V30 187 C 21.8304 3.40858 -1.16136 0
M  V30 188 C 21.6834 3.60411 -2.69117 0
M  V30 189 C 23.0024 4.33876 -0.737549 0
M  V30 190 H 20.1214 0.688874 -0.261957 0
M  V30 191 H 22.7634 1.41154 -1.27183 0
M  V30 192 H 20.9134 3.82335 -0.689342 0
M  V30 193 H 22.5854 3.28145 -3.2422 0
M  V30 194 H 20.8284 3.03665 -3.0979 0
M  V30 195 H 21.4994 4.66396 -2.95261 0
M  V30 196 H 23.9754 4.00081 -1.14344 0
M  V30 197 H 22.8514 5.38242 -1.0764 0
M  V30 198 H 23.1124 4.40628 0.360436 0
M  V30 199 N 22.1715 0.800033 1.35784 0
M  V30 200 C 23.5875 0.482977 1.52117 0
M  V30 201 C 23.7875 -0.996948 1.75109 0
M  V30 202 O 22.8435 -1.78216 1.78872 0
M  V30 203 C 24.1565 1.32264 2.70049 0
M  V30 204 C 25.7045 1.31742 2.83924 0
M  V30 205 C 26.1795 2.14106 4.04874 0
M  V30 206 N 27.6705 2.11607 4.12039 0
M  V30 207 C 28.4055 2.72099 5.04727 0
M  V30 208 N 27.9015 3.41492 6.02789 0
M  V30 209 N 29.6945 2.61776 4.97423 0
M  V30 210 H 21.8455 1.75856 1.19115 0
M  V30 211 H 24.1085 0.748122 0.582252 0
M  V30 212 H 23.8145 2.37261 2.59616 0
M  V30 213 H 23.6885 0.971303 3.6448 0
M  V30 214 H 26.0755 0.275333 2.93813 0
M  V30 215 H 26.1565 1.70859 1.9037 0
M  V30 216 H 25.8005 3.18351 3.95746 0
M  V30 217 H 25.7305 1.72353 4.97596 0
M  V30 218 H 28.2215 1.61112 3.41835 0
M  V30 219 H 28.5345 3.84953 6.70098 0
M  V30 220 H 26.8795 3.45596 6.02983 0
M  V30 221 H 30.0705 2.07157 4.19766 0
M  V30 222 H 30.2435 3.0921 5.69468 0
M  V30 223 N 23.6496 -1.47581 0.552962 0
M  V30 224 C 24.5796 -2.32762 -0.185451 0
M  V30 225 C 25.5606 -1.43527 -0.912905 0
M  V30 226 O 26.7456 -1.72388 -0.894201 0
M  V30 227 C 23.8756 -3.25219 -1.21859 0
M  V30 228 C 22.8296 -4.23661 -0.607864 0
M  V30 229 C 22.1556 -5.05413 -1.74533 0
M  V30 230 C 23.4556 -5.20481 0.435582 0
M  V30 231 H 25.1496 -2.94749 0.525684 0
M  V30 232 H 22.6956 -1.41738 0.254251 0
M  V30 233 H 24.6486 -3.8365 -1.7433 0
M  V30 234 H 23.3726 -2.61279 -1.95961 0
M  V30 235 H 22.0316 -3.66451 -0.104489 0
M  V30 236 H 21.6796 -4.3788 -2.47529 0
M  V30 237 H 21.3796 -5.72059 -1.34249 0
M  V30 238 H 22.9036 -5.66701 -2.27338 0
M  V30 239 H 24.3176 -5.733 -0.00290157 0
M  V30 240 H 22.7146 -5.95305 0.757067 0
M  V30 241 H 23.7846 -4.66217 1.33303 0
M  V30 242 N 25.1277 -0.289203 -1.54924 0
M  V30 243 C 26.0907 0.579144 -2.21762 0
M  V30 244 C 27.0907 1.07047 -1.1999 0
M  V30 245 O 28.2807 0.968384 -1.44803 0
M  V30 246 C 25.4127 1.80055 -2.8947 0
M  V30 247 H 26.6057 -0.00464908 -2.999 0
M  V30 248 H 24.1587 -0.0399306 -1.56249 0
M  V30 249 H 24.8937 2.42449 -2.15381 0
M  V30 250 H 24.6787 1.45602 -3.64064 0
M  V30 251 H 26.1687 2.41773 -3.40493 0
M  V30 252 N 26.6058 1.57591 -0.0167156 0
M  V30 253 C 28.0168 1.79201 0.523834 0
M  V30 254 C 28.3678 0.925796 1.72984 0
M  V30 255 O 27.4928 0.132792 2.15992 0
M  V30 256 C 28.0878 3.25 0.957091 0
M  V30 257 C 26.6468 3.47648 1.44283 0
M  V30 258 C 25.7938 2.74374 0.401757 0
M  V30 259 H 28.7448 1.56831 -0.242816 0
M  V30 260 H 28.7658 3.34031 1.82219 0
M  V30 261 H 28.2778 3.88019 0.0791415 0
M  V30 262 H 26.3788 2.89866 2.34113 0
M  V30 263 H 26.4918 4.56352 1.45877 0
M  V30 264 H 24.8558 2.39485 0.867121 0
M  V30 265 H 25.6388 3.40102 -0.467513 0
M  V30 266 N 28.0839 -0.256276 1.55502 0
M  V30 267 C 29.3089 -1.00766 1.81276 0
M  V30 268 C 29.7339 -1.78524 0.59252 0
M  V30 269 O 29.0919 -1.75413 -0.45827 0
M  V30 270 C 29.1399 -1.92869 3.04687 0
M  V30 271 O 28.2439 -3.019 2.80945 0
M  V30 272 H 27.5849 -0.287224 0.598664 0
M  V30 273 H 30.1149 -0.280109 2.02674 0
M  V30 274 H 30.1249 -2.34511 3.33869 0
M  V30 275 H 28.7999 -1.35689 3.93143 0
M  V30 276 H 27.3769 -2.64454 2.62904 0
M  V30 277 N 29.562 -1.4872 -0.521534 0
M  V30 278 C 30.809 -1.57168 -1.27689 0
M  V30 279 C 31.137 -0.249275 -1.92896 0
M  V30 280 O 30.392 0.761162 -1.80291 0
M  V30 281 C 30.691 -2.66497 -2.38148 0
M  V30 282 C 30.357 -4.08664 -1.90538 0
M  V30 283 C 29.019 -4.47357 -1.77271 0
M  V30 284 C 31.371 -4.97724 -1.54663 0
M  V30 285 C 28.699 -5.72905 -1.26478 0
M  V30 286 C 31.051 -6.2377 -1.05329 0
M  V30 287 C 29.715 -6.61311 -0.906861 0
M  V30 288 H 28.985 -0.575117 -0.467249 0
M  V30 289 H 31.632 -1.82472 -0.581051 0
M  V30 290 H 29.937 -2.35085 -3.13437 0
M  V30 291 H 31.634 -2.70246 -2.96257 0
M  V30 292 H 28.224 -3.78111 -2.01816 0
M  V30 293 H 32.408 -4.68501 -1.63768 0
M  V30 294 H 27.664 -6.00709 -1.13835 0
M  V30 295 H 31.838 -6.9217 -0.76644 0
M  V30 296 H 29.465 -7.5848 -0.511083 0
M  V30 297 N 31.0401 0.771051 -1.3745 0
M  V30 298 C 32.2651 1.56529 -1.36065 0
M  V30 299 C 32.6901 1.88029 0.0515859 0
M  V30 300 O 32.0481 1.49282 1.02882 0
M  V30 301 C 32.0961 2.85187 -2.20683 0
M  V30 302 O 31.2001 3.79593 -1.61193 0
M  V30 303 H 30.5411 0.47411 -0.464883 0
M  V30 304 H 33.0711 0.954269 -1.80983 0
M  V30 305 H 33.0811 3.34283 -2.33921 0
M  V30 306 H 31.7561 2.61588 -3.23334 0
M  V30 307 H 30.3331 3.38239 -1.56999 0
M  V30 308 N 32.5182 1.22032 0.997298 0
M  V30 309 C 33.7652 1.04222 1.73621 0
M  V30 310 C 34.0932 -0.423264 1.89839 0
M  V30 311 O 33.3482 -1.3302 1.43542 0
M  V30 312 C 33.6472 1.69345 3.14733 0
M  V30 313 C 33.3132 3.19226 3.18442 0
M  V30 314 C 31.9752 3.60124 3.19161 0
M  V30 315 C 34.3272 4.15181 3.15078 0
M  V30 316 C 31.6552 4.95467 3.14212 0
M  V30 317 C 34.0072 5.50495 3.1167 0
M  V30 318 C 32.6712 5.90779 3.10703 0
M  V30 319 H 31.9412 0.381374 0.635323 0
M  V30 320 H 34.5882 1.51732 1.16831 0
M  V30 321 H 32.8932 1.14147 3.74803 0
M  V30 322 H 34.5902 1.53059 3.7064 0
M  V30 323 H 31.1802 2.86659 3.18629 0
M  V30 324 H 35.3642 3.84605 3.13676 0
M  V30 325 H 30.6202 5.25916 3.11805 0
M  V30 326 H 34.7942 6.24576 3.08022 0
M  V30 327 H 32.4212 6.9562 3.06622 0
M  V30 328 N 33.9963 -1.19345 1.0293 0
M  V30 329 C 34.9463 -2.20472 0.58104 0
M  V30 330 C 35.9303 -1.56578 -0.370442 0
M  V30 331 O 37.1223 -1.75963 -0.191344 0
M  V30 332 C 34.2513 -3.43236 -0.066306 0
M  V30 333 C 33.3373 -4.14274 0.907642 0
M  V30 334 N 33.7283 -4.61492 2.07023 0
M  V30 335 C 32.0263 -4.39966 0.731177 0
M  V30 336 C 32.7273 -5.1605 2.68454 0
M  V30 337 N 31.7033 -5.06875 1.96414 0
M  V30 338 H 35.5053 -2.54659 1.46717 0
M  V30 339 H 33.0193 -1.35423 0.896345 0
M  V30 340 H 35.0163 -4.14927 -0.405068 0
M  V30 341 H 33.6763 -3.10549 -0.948118 0
M  V30 342 H 34.6873 -4.56304 2.44963 0
M  V30 343 H 31.3643 -4.17377 -0.101507 0
M  V30 344 H 32.7543 -5.6287 3.66915 0
M  V30 345 N 35.4744 -0.807222 -1.35358 0
M  V30 346 C 36.4374 -0.223665 -2.28106 0
M  V30 347 C 37.4374 0.589354 -1.4961 0
M  V30 348 O 38.6274 0.407745 -1.69361 0
M  V30 349 C 35.7594 0.688149 -3.33882 0
M  V30 350 H 36.9524 -1.04169 -2.81227 0
M  V30 351 H 34.5054 -0.577921 -1.45223 0
M  V30 352 H 35.2404 1.52984 -2.85948 0
M  V30 353 H 35.0254 0.10687 -3.91954 0
M  V30 354 H 36.5154 1.09075 -4.03104 0
M  V30 355 N 36.9525 1.47285 -0.560781 0
M  V30 356 C 37.9155 2.28535 0.174488 0
M  V30 357 C 38.9155 1.37153 0.839388 0
M  V30 358 O 40.1055 1.59748 0.694702 0
M  V30 359 C 37.2375 3.16934 1.25561 0
M  V30 360 H 38.4305 2.95012 -0.539262 0
M  V30 361 H 35.9835 1.53034 -0.317865 0
M  V30 362 H 36.7185 2.55157 2.00164 0
M  V30 363 H 36.5035 3.8419 0.783604 0
M  V30 364 H 37.9935 3.78143 1.77193 0
M  V30 365 N 38.4306 0.297415 1.54768 0
M  V30 366 C 39.6786 -0.312295 1.99673 0
M  V30 367 C 39.9996 -1.54686 1.18732 0
M  V30 368 O 39.2696 -1.93854 0.282382 0
M  V30 369 H 37.8496 -0.118381 0.73756 0
M  V30 370 H 40.5116 0.407915 1.90583 0
M  V30 371 H 39.6076 -0.586813 3.06534 0
M  V30 372 N 39.9087 -1.5758 0.0250728 0
M  V30 373 C 40.8387 -2.13007 -0.956575 0
M  V30 374 C 41.8197 -1.0452 -1.342 0
M  V30 375 O 43.0047 -1.32332 -1.42133 0
M  V30 376 C 40.1347 -2.65386 -2.24026 0
M  V30 377 C 39.0887 -3.78623 -1.99571 0
M  V30 378 C 38.4147 -4.17414 -3.3417 0
M  V30 379 C 39.7147 -5.04867 -1.33814 0
M  V30 380 H 41.4087 -2.9528 -0.494991 0
M  V30 381 H 38.9547 -1.42042 -0.236651 0
M  V30 382 H 40.9077 -3.02794 -2.93076 0
M  V30 383 H 39.6317 -1.80268 -2.72343 0
M  V30 384 H 38.2907 -3.41646 -1.32941 0
M  V30 385 H 37.9387 -3.29284 -3.80238 0
M  V30 386 H 37.6387 -4.93719 -3.18615 0
M  V30 387 H 39.1627 -4.57402 -4.04495 0
M  V30 388 H 40.5767 -5.39888 -1.92857 0
M  V30 389 H 38.9737 -5.86144 -1.28669 0
M  V30 390 H 40.0437 -4.83904 -0.310561 0
M  V30 391 N 41.3868 0.248026 -1.55636 0
M  V30 392 C 42.3188 1.32993 -1.8667 0
M  V30 393 C 43.3318 1.44345 -0.752877 0
M  V30 394 O 44.5208 1.45715 -1.03098 0
M  V30 395 C 41.6208 2.70863 -2.03682 0
M  V30 396 C 40.7938 2.81792 -3.34532 0
M  V30 397 C 39.8528 4.005 -3.41301 0
M  V30 398 O 38.8788 3.9008 -4.14519 0
M  V30 399 N 40.0808 5.13618 -2.70512 0
M  V30 400 H 42.8458 1.06707 -2.8006 0
M  V30 401 H 40.4068 0.438129 -1.55859 0
M  V30 402 H 42.3988 3.48612 -2.05553 0
M  V30 403 H 40.9688 2.89862 -1.17041 0
M  V30 404 H 40.1888 1.90729 -3.44987 0
M  V30 405 H 41.4768 2.86043 -4.20781 0
M  V30 406 H 40.8748 5.24975 -2.10755 0
M  V30 407 H 39.4318 5.89505 -2.78077 0
M  V30 408 N 42.8649 1.48995 0.513639 0
M  V30 409 C 43.7979 1.59319 1.63379 0
M  V30 410 C 44.7759 0.442816 1.56454 0
M  V30 411 O 45.9599 0.656655 1.76693 0
M  V30 412 C 43.0869 1.5364 3.01848 0
M  V30 413 C 42.1329 2.7372 3.27078 0
M  V30 414 S 42.9659 4.35528 3.1157 0
M  V30 415 C 44.1219 4.32473 4.52458 0
M  V30 416 H 44.3549 2.54079 1.54374 0
M  V30 417 H 41.8879 1.3773 0.697849 0
M  V30 418 H 43.8459 1.51049 3.81699 0
M  V30 419 H 42.5069 0.601898 3.08279 0
M  V30 420 H 41.6999 2.6593 4.28132 0
M  V30 421 H 41.3019 2.73657 2.54927 0
M  V30 422 H 43.5939 4.03414 5.44301 0
M  V30 423 H 44.5369 5.33762 4.65299 0
M  V30 424 H 44.9449 3.62718 4.32546 0
M  V30 425 N 44.343 -0.763751 1.37857 0
M  V30 426 C 45.306 -1.85889 1.34081 0
M  V30 427 C 46.306 -1.58949 0.243277 0
M  V30 428 O 47.496 -1.66882 0.499589 0
M  V30 429 C 44.628 -3.23176 1.08489 0
M  V30 430 H 45.821 -1.90648 2.31502 0
M  V30 431 H 43.374 -0.964367 1.23003 0
M  V30 432 H 44.109 -3.24091 0.116318 0
M  V30 433 H 43.894 -3.44124 1.8794 0
M  V30 434 H 45.384 -4.03254 1.08517 0
M  V30 435 N 45.8211 -1.22559 -0.990812 0
M  V30 436 C 47.0691 -1.04933 -1.72724 0
M  V30 437 C 47.3901 0.416158 -1.90508 0
M  V30 438 O 46.6601 1.29918 -1.46622 0
M  V30 439 H 45.2401 -0.385296 -0.639965 0
M  V30 440 H 47.9021 -1.54105 -1.19322 0
M  V30 441 H 46.9981 -1.52886 -2.72089 0
M  V30 442 N 47.2992 1.18797 -1.03562 0
M  V30 443 C 48.2312 2.21731 -0.580337 0
M  V30 444 C 49.2442 1.59051 0.347349 0
M  V30 445 O 50.4332 1.77929 0.142669 0
M  V30 446 C 47.5332 3.38459 0.172805 0
M  V30 447 C 46.7062 4.3072 -0.761496 0
M  V30 448 C 45.7652 5.26174 -0.0525547 0
M  V30 449 O 44.7912 5.65108 -0.681333 0
M  V30 450 N 45.9932 5.67624 1.21586 0
M  V30 451 H 48.7582 2.61417 -1.46565 0
M  V30 452 H 46.3192 1.33531 -0.915476 0
M  V30 453 H 48.3112 3.99335 0.656793 0
M  V30 454 H 46.8812 2.97507 0.959602 0
M  V30 455 H 46.1012 3.67525 -1.42544 0
M  V30 456 H 47.3892 4.89267 -1.39626 0
M  V30 457 H 46.7872 5.38038 1.74732 0
M  V30 458 H 45.3442 6.30721 1.64421 0
M  V30 459 N 48.7773 0.814389 1.34928 0
M  V30 460 C 49.7103 0.175641 2.27523 0
M  V30 461 C 50.6883 -0.662953 1.48471 0
M  V30 462 O 51.8723 -0.628545 1.77712 0
M  V30 463 C 48.9993 -0.755516 3.30166 0
M  V30 464 C 48.0453 0.00445305 4.265 0
M  V30 465 S 48.8783 1.34582 5.18313 0
M  V30 466 C 50.0343 0.419315 6.24494 0
M  V30 467 H 50.2673 0.960691 2.8135 0
M  V30 468 H 47.8003 0.609846 1.41846 0
M  V30 469 H 49.7583 -1.28723 3.89796 0
M  V30 470 H 48.4193 -1.51402 2.75202 0
M  V30 471 H 47.6123 -0.703077 4.99072 0
M  V30 472 H 47.2143 0.466447 3.7108 0
M  V30 473 H 49.5063 -0.392432 6.76362 0
M  V30 474 H 50.4493 1.11446 6.99275 0
M  V30 475 H 50.8573 0.0115389 5.64499 0
M  V30 476 N 50.2554 -1.46986 0.568584 0
M  V30 477 C 51.6664 -1.86188 0.138219 0
M  V30 478 C 52.0174 -1.47388 -1.29504 0
M  V30 479 O 51.1424 -0.88219 -1.97602 0
M  V30 480 C 51.7374 -3.3792 0.244065 0
M  V30 481 C 50.2964 -3.76171 -0.131335 0
M  V30 482 C 49.4434 -2.71027 0.586465 0
M  V30 483 H 52.3944 -1.38342 0.777645 0
M  V30 484 H 52.4154 -3.76729 -0.534351 0
M  V30 485 H 51.9274 -3.66128 1.28731 0
M  V30 486 H 50.0284 -3.5358 -1.17526 0
M  V30 487 H 50.1414 -4.78523 0.235146 0
M  V30 488 H 48.5054 -2.54684 0.0282722 0
M  V30 489 H 49.2884 -3.02077 1.63109 0
M  V30 490 N 51.7335 -0.305618 -1.54608 0
M  V30 491 C 52.6835 0.583595 -2.20405 0
M  V30 492 C 53.6675 1.09539 -1.17856 0
M  V30 493 O 54.8595 1.0354 -1.43557 0
M  V30 494 C 51.9885 1.75277 -2.95183 0
M  V30 495 C 51.0745 1.25672 -4.05052 0
M  V30 496 N 51.4655 0.478998 -5.03527 0
M  V30 497 C 49.7635 1.53704 -4.18678 0
M  V30 498 C 50.4645 0.214269 -5.81305 0
M  V30 499 N 49.4405 0.795374 -5.3775 0
M  V30 500 H 53.2425 -0.0180946 -2.93894 0
M  V30 501 H 50.7565 -0.110601 -1.62023 0
M  V30 502 H 52.7535 2.4014 -3.40791 0
M  V30 503 H 51.4135 2.35812 -2.23211 0
M  V30 504 H 52.4245 0.123473 -5.17753 0
M  V30 505 H 49.1015 2.14954 -3.57912 0
M  V30 506 H 50.4915 -0.410656 -6.70644 0
M  V30 507 N 53.2116 1.57565 -0.0334293 0
M  V30 508 C 54.4366 1.96689 0.657895 0
M  V30 509 C 54.8616 0.910057 1.64619 0
M  V30 510 O 54.2196 -0.128598 1.80843 0
M  V30 511 C 54.2676 3.34905 1.33683 0
M  V30 512 O 53.3716 3.31574 2.45219 0
M  V30 513 H 52.7126 0.641205 0.172489 0
M  V30 514 H 55.2426 2.04372 -0.0965621 0
M  V30 515 H 55.2526 3.71234 1.69262 0
M  V30 516 H 53.9276 4.11366 0.612411 0
M  V30 517 H 52.5046 3.06968 2.11719 0
M  V30 518 N 54.6897 -0.239769 1.55765 0
M  V30 519 C 55.6397 -1.30002 1.87306 0
M  V30 520 C 56.6237 -1.43156 0.73452 0
M  V30 521 O 57.8157 -1.46277 0.99659 0
M  V30 522 C 54.9447 -2.65409 2.17745 0
M  V30 523 C 54.0307 -2.56231 3.37945 0
M  V30 524 N 54.4217 -2.16689 4.57033 0
M  V30 525 C 52.7197 -2.87229 3.41197 0
M  V30 526 C 53.4207 -2.18318 5.39177 0
M  V30 527 N 52.3967 -2.58098 4.78421 0
M  V30 528 H 56.1987 -0.984912 2.76906 0
M  V30 529 H 53.7127 -0.448381 1.56087 0
M  V30 530 H 55.7097 -3.41934 2.38509 0
M  V30 531 H 54.3697 -2.97781 1.29448 0
M  V30 532 H 55.3807 -1.88116 4.82528 0
M  V30 533 H 52.0577 -3.24094 2.63191 0
M  V30 534 H 53.4477 -1.90025 6.44469 0
M  V30 535 N 56.1678 -1.49265 -0.50573 0
M  V30 536 C 57.0998 -1.617 -1.62437 0
M  V30 537 C 58.1128 -0.499924 -1.54934 0
M  V30 538 O 59.3018 -0.771785 -1.60953 0
M  V30 539 C 56.4018 -1.5533 -3.01207 0
M  V30 540 C 55.5748 -2.8249 -3.33943 0
M  V30 541 C 54.6338 -2.69238 -4.52103 0
M  V30 542 O 53.6598 -3.43167 -4.5412 0
M  V30 543 N 54.8618 -1.80468 -5.51735 0
M  V30 544 H 57.6268 -2.58177 -1.52199 0
M  V30 545 H 55.1878 -1.46294 -0.693511 0
M  V30 546 H 57.1798 -1.44125 -3.78167 0
M  V30 547 H 55.7498 -0.667297 -3.05395 0
M  V30 548 H 54.9698 -3.08081 -2.45926 0
M  V30 549 H 56.2578 -3.66802 -3.5261 0
M  V30 550 H 55.6558 -1.19653 -5.52901 0
M  V30 551 H 54.2128 -1.75188 -6.27816 0
M  V30 552 N 57.6459 0.756429 -1.3826 0
M  V30 553 C 58.8759 1.54341 -1.3734 0
M  V30 554 C 59.2839 1.89159 0.0393917 0
M  V30 555 O 58.6269 1.5307 1.01565 0
M  V30 556 C 58.6889 2.87238 -2.16182 0
M  V30 557 C 58.3529 2.74973 -3.65019 0
M  V30 558 C 59.3499 2.44962 -4.58574 0
M  V30 559 C 57.0349 2.92515 -4.08338 0
M  V30 560 C 59.0289 2.32642 -5.93428 0
M  V30 561 C 56.7159 2.79815 -5.43274 0
M  V30 562 C 57.7139 2.49921 -6.35632 0
M  V30 563 O 57.4019 2.37275 -7.68086 0
M  V30 564 H 57.1339 0.484281 -0.471643 0
M  V30 565 H 59.6879 0.944152 -1.82414 0
M  V30 566 H 57.9179 3.49342 -1.65822 0
M  V30 567 H 59.6069 3.48731 -2.07705 0
M  V30 568 H 60.3729 2.31081 -4.26412 0
M  V30 569 H 56.2519 3.14781 -3.368 0
M  V30 570 H 59.7959 2.0923 -6.65484 0
M  V30 571 H 55.6929 2.93269 -5.75034 0
M  V30 572 H 56.4609 2.52509 -7.78577 0
M  V30 573 N 59.124 1.23083 0.984299 0
M  V30 574 C 60.349 1.088 1.76571 0
M  V30 575 C 60.774 -0.356657 1.84688 0
M  V30 576 O 60.132 -1.25788 1.30565 0
M  V30 577 C 60.18 1.71371 3.17277 0
M  V30 578 O 59.284 0.973213 4.00752 0
M  V30 579 H 58.625 0.381599 0.543395 0
M  V30 580 H 61.155 1.63057 1.23587 0
M  V30 581 H 61.165 1.76449 3.67872 0
M  V30 582 H 59.84 2.76493 3.10684 0
M  V30 583 H 58.417 0.999078 3.59267 0
M  V30 584 N 60.6021 -1.18246 1.0419 0
M  V30 585 C 61.8791 -1.84121 0.660208 0
M  V30 586 C 62.2591 -1.92778 -0.860221 0
M  V30 587 O 61.6071 -1.45464 -1.76217 0
M  V30 588 C 61.8171 -3.22355 1.33747 0
M  V30 589 C 63.1651 -3.98376 1.46906 0
M  V30 590 O 64.1891 -3.31799 1.29568 0
M  V30 591 O 63.0481 -5.17665 1.75171 0
M  V30 592 H 60.1421 -0.794036 0.231161 0
M  V30 593 H 62.6881 -1.25628 1.14087 0
M  V30 594 H 61.4601 -3.10964 2.37522 0
M  V30 595 H 61.0831 -3.88506 0.845515 0
M  V30 596 N 62.0802 -0.821533 -1.34494 0
M  V30 597 C 63.4962 -0.507117 -1.51329 0
M  V30 598 C 63.6962 0.968964 -1.76673 0
M  V30 599 O 62.7522 1.75348 -1.81685 0
M  V30 600 C 64.0652 -1.36544 -2.67911 0
M  V30 601 C 65.6132 -1.36242 -2.81793 0
M  V30 602 C 66.0882 -2.2052 -4.01416 0
M  V30 603 N 67.5792 -2.18136 -4.08621 0
M  V30 604 C 68.3142 -2.80095 -5.00334 0
M  V30 605 N 67.8102 -3.51039 -5.9728 0
M  V30 606 N 69.6032 -2.69656 -4.93196 0
M  V30 607 H 61.7542 -1.77729 -1.16302 0
M  V30 608 H 64.0172 -0.757291 -0.570276 0
M  V30 609 H 63.7232 -2.41361 -2.55808 0
M  V30 610 H 63.5972 -1.02917 -3.62888 0
M  V30 611 H 65.9842 -0.322041 -2.93338 0
M  V30 612 H 66.0652 -1.73866 -1.87628 0
M  V30 613 H 65.7092 -3.24607 -3.90631 0
M  V30 614 H 65.6392 -1.80247 -4.94791 0
M  V30 615 H 68.1302 -1.6653 -3.39229 0
M  V30 616 H 68.4432 -3.95565 -6.63889 0
M  V30 617 H 66.7882 -3.55145 -5.97409 0
M  V30 618 H 69.9792 -2.13808 -4.16418 0
M  V30 619 H 70.1522 -3.1823 -5.64476 0
M  V30 620 N 63.5583 1.46682 -0.576371 0
M  V30 621 C 64.9743 1.57822 -0.237562 0
M  V30 622 C 65.1743 1.57237 1.26011 0
M  V30 623 O 64.2303 1.48596 2.04146 0
M  V30 624 C 65.5433 2.87499 -0.881168 0
M  V30 625 C 67.0913 3.01119 -0.85417 0
M  V30 626 C 67.5663 4.33524 -1.4772 0
M  V30 627 N 69.0573 4.40207 -1.44125 0
M  V30 628 C 69.7923 5.4126 -1.89276 0
M  V30 629 N 69.2883 6.49021 -2.42371 0
M  V30 630 N 71.0813 5.32422 -1.80231 0
M  V30 631 H 63.2323 1.45306 -1.54919 0
M  V30 632 H 65.4953 0.692733 -0.647167 0
M  V30 633 H 65.2013 2.9372 -1.93447 0
M  V30 634 H 65.0753 3.75224 -0.385592 0
M  V30 635 H 67.4623 2.94485 0.190491 0
M  V30 636 H 67.5433 2.14887 -1.3877 0
M  V30 637 H 67.1873 4.40916 -2.52103 0
M  V30 638 H 67.1173 5.1852 -0.918947 0
M  V30 639 H 69.6083 3.62931 -1.05307 0
M  V30 640 H 69.9213 7.2233 -2.74698 0
M  V30 641 H 68.2663 6.49858 -2.46393 0
M  V30 642 H 71.4573 4.47137 -1.38514 0
M  V30 643 H 71.6303 6.11034 -2.15735 0
M  V30 644 N 65.0364 0.313813 1.54444 0
M  V30 645 C 65.9684 -0.590425 2.21465 0
M  V30 646 C 66.9814 -1.08753 1.21147 0
M  V30 647 O 68.1704 -1.00278 1.4767 0
M  V30 648 C 65.2704 -1.82179 2.85769 0
M  V30 649 C 64.4434 -1.46502 4.12136 0
M  V30 650 C 63.5024 -2.55288 4.60124 0
M  V30 651 O 62.5284 -2.19842 5.25032 0
M  V30 652 N 63.7304 -3.86053 4.33525 0
M  V30 653 H 66.4954 -0.0166033 2.99695 0
M  V30 654 H 64.0564 0.136578 1.61323 0
M  V30 655 H 66.0484 -2.54328 3.14801 0
M  V30 656 H 64.6184 -2.30369 2.11303 0
M  V30 657 H 63.8384 -0.575595 3.89975 0
M  V30 658 H 65.1264 -1.20221 4.94393 0
M  V30 659 H 64.5244 -4.17654 3.81552 0
M  V30 660 H 63.0814 -4.54461 4.67235 0
M  V30 661 N 66.5145 -1.57545 0.0417849 0
M  V30 662 C 67.9255 -1.80011 -0.495259 0
M  V30 663 C 68.2765 -0.953199 -1.71489 0
M  V30 664 O 67.4015 -0.167138 -2.15754 0
M  V30 665 C 67.9965 -3.26482 -0.905265 0
M  V30 666 C 66.5555 -3.499 -1.38734 0
M  V30 667 C 65.7025 -2.74979 -0.358056 0
M  V30 668 H 68.6535 -1.56425 0.267736 0
M  V30 669 H 68.6745 -3.36887 -1.76882 0
M  V30 670 H 68.1865 -3.88096 -0.017401 0
M  V30 671 H 66.2875 -2.93553 -2.29471 0
M  V30 672 H 66.4005 -4.58615 -1.38598 0
M  V30 673 H 64.7645 -2.40834 -0.828912 0
M  V30 674 H 65.5475 -3.39315 0.521561 0
M  V30 675 N 67.9926 0.231505 -1.5589 0
M  V30 676 C 68.9406 1.30649 -1.92441 0
M  V30 677 C 69.9346 1.49037 -0.805254 0
M  V30 678 O 71.1406 1.50329 -0.990007 0
M  V30 679 H 67.5156 0.437812 -0.611412 0
M  V30 680 H 69.4866 0.970973 -2.82161 0
M  V30 681 C 68.2356 2.65179 -2.24889 0
M  V30 682 H 67.5586 2.51835 -3.10514 0
M  V30 683 H 68.9986 3.39234 -2.54355 0
M  V30 684 C 67.4576 3.19439 -1.07054 0
M  V30 685 O 67.9876 4.00371 -0.326499 0
M  V30 686 N 66.1936 2.77675 -0.85703 0
M  V30 687 H 65.7406 2.11969 -1.46379 0
M  V30 688 H 65.6986 3.14321 -0.0703223 0
M  V30 689 N 69.4707 1.49531 0.497807 0
M  V30 690 C 70.7197 1.58426 1.24837 0
M  V30 691 C 71.0327 0.277643 1.93619 0
M  V30 692 O 72.2387 0.24517 2.70391 0
M  V30 693 C 70.6947 2.79538 2.26686 0
M  V30 694 C 70.3027 4.16971 1.63828 0
M  V30 695 C 72.0467 2.97764 3.0255 0
M  V30 696 C 69.9537 5.29301 2.63807 0
M  V30 697 H 68.8837 0.58989 0.469623 0
M  V30 698 H 71.5347 1.75923 0.521857 0
M  V30 699 H 69.9167 2.55542 3.02514 0
M  V30 700 H 71.0907 4.51116 0.939711 0
M  V30 701 H 69.4057 4.04129 1.00342 0
M  V30 702 H 72.0027 3.78856 3.77323 0
M  V30 703 H 72.3457 2.08448 3.60354 0
M  V30 704 H 72.8787 3.21815 2.33838 0
M  V30 705 H 69.6177 6.20687 2.10779 0
M  V30 706 H 69.1377 4.99606 3.31894 0
M  V30 707 H 70.8167 5.58768 3.2617 0
M  V30 708 N 70.9488 -0.749086 1.3866 0
M  V30 709 C 72.1738 -1.54344 1.38538 0
M  V30 710 C 72.5988 -1.88088 -0.0216655 0
M  V30 711 O 71.9568 -1.50899 -1.00494 0
M  V30 712 C 72.0048 -2.8164 2.25192 0
M  V30 713 O 71.1088 -3.7698 1.67212 0
M  V30 714 H 70.4498 -0.466654 0.472367 0
M  V30 715 H 72.9798 -0.925355 1.82478 0
M  V30 716 H 72.9898 -3.30519 2.3921 0
M  V30 717 H 71.6648 -2.56411 3.27454 0
M  V30 718 H 70.2418 -3.35699 1.6236 0
M  V30 719 N 72.4269 -1.23603 -0.977757 0
M  V30 720 C 73.7039 -0.977897 -1.69401 0
M  V30 721 C 74.0839 0.502738 -2.05026 0
M  V30 722 O 73.4319 1.47459 -1.74551 0
M  V30 723 C 73.6419 -1.89077 -2.93345 0
M  V30 724 C 74.9899 -2.15579 -3.65802 0
M  V30 725 O 76.0139 -1.86648 -3.03383 0
M  V30 726 O 74.8729 -2.64658 -4.78141 0
M  V30 727 H 71.9669 -0.369025 -0.740101 0
M  V30 728 H 74.5129 -1.34657 -1.03274 0
M  V30 729 H 73.2849 -2.89158 -2.63634 0
M  V30 730 H 72.9079 -1.52463 -3.67207 0
M  V30 731 N 73.905 1.17692 -1.04816 0
M  V30 732 C 74.837 2.21103 -0.603822 0
M  V30 733 C 75.85 1.59411 0.33046 0
M  V30 734 O 77.039 1.7807 0.12379 0
M  V30 735 C 74.139 3.38623 0.136898 0
M  V30 736 C 73.312 4.29888 -0.807137 0
M  V30 737 C 72.371 5.26088 -0.10836 0
M  V30 738 O 71.397 5.64353 -0.741232 0
M  V30 739 N 72.599 5.68882 1.15558 0
M  V30 740 H 75.364 2.59848 -1.49329 0
M  V30 741 H 72.925 1.32553 -0.929587 0
M  V30 742 H 74.917 4.00009 0.614401 0
M  V30 743 H 73.487 2.98508 0.927993 0
M  V30 744 H 72.707 3.65993 -1.46434 0
M  V30 745 H 73.995 4.87759 -1.44807 0
M  V30 746 H 73.393 5.39861 1.69015 0
M  V30 747 H 71.95 6.32429 1.57722 0
M  V30 748 N 75.3831 0.828654 1.34056 0
M  V30 749 C 76.3151 0.212052 2.28217 0
M  V30 750 C 77.3281 -0.601362 1.51286 0
M  V30 751 O 78.5171 -0.430104 1.73241 0
M  V30 752 C 75.6171 -0.72088 3.31144 0
M  V30 753 C 74.7901 0.0509587 4.3737 0
M  V30 754 C 73.8491 -0.803766 5.20025 0
M  V30 755 O 72.8751 -0.246667 5.68665 0
M  V30 756 N 74.0771 -2.1227 5.40298 0
M  V30 757 H 76.8421 1.02105 2.81771 0
M  V30 758 H 74.4031 0.686153 1.46641 0
M  V30 759 H 76.3951 -1.29742 3.8334 0
M  V30 760 H 74.9651 -1.43061 2.77943 0
M  V30 761 H 74.1851 0.808831 3.85813 0
M  V30 762 H 75.4731 0.582065 5.0546 0
M  V30 763 H 74.8711 -2.59898 5.02464 0
M  V30 764 H 73.4281 -2.64796 5.95589 0
M  V30 765 N 76.8612 -1.46375 0.584142 0
M  V30 766 C 78.1072 -2.02678 0.0703716 0
M  V30 767 C 78.4402 -1.4545 -1.28678 0
M  V30 768 O 77.7152 -0.62014 -1.84349 0
M  V30 769 C 77.9982 -3.60099 0.00614674 0
M  V30 770 C 77.8512 -4.27709 1.3923 0
M  V30 771 C 79.1702 -4.34598 -0.693742 0
M  V30 772 H 76.2892 -0.736504 0.027047 0
M  V30 773 H 78.9312 -1.74501 0.751615 0
M  V30 774 H 77.0812 -3.84236 -0.574009 0
M  V30 775 H 78.7532 -4.14832 2.01773 0
M  V30 776 H 76.9962 -3.87016 1.95962 0
M  V30 777 H 77.6672 -5.36478 1.29982 0
M  V30 778 H 80.1432 -4.15615 -0.200869 0
M  V30 779 H 79.0192 -5.44318 -0.707714 0
M  V30 780 H 79.2802 -4.05759 -1.75533 0
M  V30 781 N 78.3393 -0.321999 -1.54275 0
M  V30 782 C 79.5643 0.285791 -2.05422 0
M  V30 783 C 79.9893 1.45124 -1.19669 0
M  V30 784 O 79.3473 1.80132 -0.205441 0
M  V30 785 C 79.3953 0.69956 -3.53749 0
M  V30 786 O 78.4993 1.8021 -3.70942 0
M  V30 787 H 77.8403 0.0518962 -0.661969 0
M  V30 788 H 80.3703 -0.469954 -1.9913 0
M  V30 789 H 80.3803 0.982649 -3.9599 0
M  V30 790 H 79.0553 -0.152864 -4.15619 0
M  V30 791 H 77.6323 1.51794 -3.40607 0
M  V30 792 N 79.8174 1.5752 -0.0501392 0
M  V30 793 C 80.7804 2.1037 0.909786 0
M  V30 794 C 81.7804 1.02308 1.24056 0
M  V30 795 O 82.9704 1.28385 1.17741 0
M  V30 796 C 80.1024 2.58708 2.21998 0
M  V30 797 H 81.2954 2.96479 0.451665 0
M  V30 798 H 78.8484 1.55038 0.198248 0
M  V30 799 H 79.5834 1.75989 2.72394 0
M  V30 800 H 79.3684 3.37675 1.99295 0
M  V30 801 H 80.8584 2.99747 2.9076 0
M  V30 802 N 81.2955 -0.223234 1.56011 0
M  V30 803 C 82.2255 -1.27988 1.95298 0
M  V30 804 C 83.2065 -1.48976 0.820979 0
M  V30 805 O 84.3915 -1.61188 1.08315 0
M  V30 806 C 81.5215 -2.63 2.26822 0
M  V30 807 C 80.4755 -2.56671 3.42497 0
M  V30 808 C 79.8015 -3.95697 3.59622 0
M  V30 809 C 81.1015 -2.11601 4.77517 0
M  V30 810 H 82.7955 -0.953525 2.8381 0
M  V30 811 H 80.3415 -0.457244 1.36548 0
M  V30 812 H 82.2945 -3.37077 2.52898 0
M  V30 813 H 81.0185 -2.9732 1.35161 0
M  V30 814 H 79.6775 -1.85051 3.16467 0
M  V30 815 H 79.3255 -4.27322 2.6534 0
M  V30 816 H 79.0255 -3.92345 4.37424 0
M  V30 817 H 80.5495 -4.71438 3.88044 0
M  V30 818 H 81.9635 -2.7542 5.02809 0
M  V30 819 H 80.3605 -2.19311 5.5859 0
M  V30 820 H 81.4305 -1.06824 4.72987 0
M  V30 821 N 82.7736 -1.49793 -0.48987 0
M  V30 822 C 83.9986 -1.63836 -1.27172 0
M  V30 823 C 84.4236 -0.31402 -1.8546 0
M  V30 824 O 83.7816 0.719803 -1.66399 0
M  V30 825 C 83.8296 -2.71797 -2.36978 0
M  V30 826 O 82.9336 -2.31744 -3.41128 0
M  V30 827 H 82.2746 -0.547997 -0.37496 0
M  V30 828 H 84.8046 -1.96053 -0.585191 0
M  V30 829 H 84.8146 -2.94305 -2.82575 0
M  V30 830 H 83.4896 -3.67923 -1.93921 0
M  V30 831 H 82.0666 -2.1961 -3.01373 0
M  V30 832 N 84.2517 0.741722 -1.39055 0
M  V30 833 C 85.4817 1.52876 -1.3897 0
M  V30 834 C 85.8897 1.8919 0.0193266 0
M  V30 835 O 85.2327 1.54138 0.999356 0
M  V30 836 C 85.2947 2.84929 -2.19216 0
M  V30 837 C 84.9587 2.71086 -3.67915 0
M  V30 838 C 85.9557 2.40084 -4.61146 0
M  V30 839 C 83.6407 2.88168 -4.11418 0
M  V30 840 C 85.6347 2.26335 -5.95862 0
M  V30 841 C 83.3217 2.74037 -5.46211 0
M  V30 842 C 84.3197 2.43166 -6.38247 0
M  V30 843 O 84.0077 2.29115 -7.70559 0
M  V30 844 H 83.7397 0.479252 -0.476753 0
M  V30 845 H 86.2937 0.924751 -1.83405 0
M  V30 846 H 84.5237 3.47564 -1.69518 0
M  V30 847 H 86.2127 3.46509 -2.11392 0
M  V30 848 H 86.9787 2.26545 -4.28838 0
M  V30 849 H 82.8577 3.11191 -3.40119 0
M  V30 850 H 86.4017 2.0216 -6.67665 0
M  V30 851 H 82.2987 2.87153 -5.78112 0
M  V30 852 H 83.0667 2.44237 -7.81211 0
M  V30 853 N 85.7298 1.2412 0.971189 0
M  V30 854 C 86.9548 1.10667 1.75407 0
M  V30 855 C 87.3798 -0.337048 1.85056 0
M  V30 856 O 86.7378 -1.24396 1.31892 0
M  V30 857 C 86.7858 1.74726 3.15441 0
M  V30 858 O 85.8898 1.01566 3.99697 0
M  V30 859 H 85.2308 0.387341 0.539317 0
M  V30 860 H 87.7608 1.64358 1.2185 0
M  V30 861 H 87.7708 1.80341 3.6598 0
M  V30 862 H 86.4458 2.79773 3.07734 0
M  V30 863 H 85.0228 1.03713 3.58187 0
M  V30 864 N 87.2079 -1.17134 1.05439 0
M  V30 865 C 88.4849 -1.83411 0.679699 0
M  V30 866 C 88.8649 -1.9368 -0.839726 0
M  V30 867 O 88.2129 -1.47325 -1.74664 0
M  V30 868 C 88.4229 -3.20918 1.37159 0
M  V30 869 C 89.7709 -3.96796 1.51123 0
M  V30 870 O 90.7949 -3.30406 1.3308 0
M  V30 871 O 89.6539 -5.15778 1.80651 0
M  V30 872 H 86.7479 -0.79154 0.239569 0
M  V30 873 H 89.2939 -1.24411 1.15413 0
M  V30 874 H 88.0659 -3.08428 2.40807 0
M  V30 875 H 87.6889 -3.87587 0.886674 0
M  V30 876 N 88.686 -0.835752 -1.33615 0
M  V30 877 C 89.618 -0.224151 -2.28101 0
M  V30 878 C 90.631 0.593331 -1.51603 0
M  V30 879 O 91.82 0.420911 -1.73466 0
M  V30 880 C 88.92 0.703309 -3.31522 0
M  V30 881 C 88.093 -0.0741528 -4.37337 0
M  V30 882 C 87.152 0.776176 -5.20444 0
M  V30 883 O 86.178 0.216506 -5.68788 0
M  V30 884 N 87.38 2.09401 -5.41416 0
M  V30 885 H 90.145 -1.03598 -2.81225 0
M  V30 886 H 87.706 -0.69392 -1.46275 0
M  V30 887 H 89.698 1.27707 -3.84022 0
M  V30 888 H 88.268 1.41585 -2.78698 0
M  V30 889 H 87.488 -0.82928 -3.85378 0
M  V30 890 H 88.776 -0.608863 -5.05144 0
M  V30 891 H 88.174 2.57229 -5.03835 0
M  V30 892 H 86.731 2.61633 -5.96985 0
M  V30 893 N 90.1641 1.46063 -0.591896 0
M  V30 894 C 91.4131 2.01547 -0.0786637 0
M  V30 895 C 91.7261 1.46796 1.29268 0
M  V30 896 O 92.9321 1.94157 1.89777 0
M  V30 897 C 91.3881 3.59787 -0.0900024 0
M  V30 898 C 90.9961 4.23534 -1.46023 0
M  V30 899 C 92.7401 4.22895 0.368806 0
M  V30 900 C 90.6471 5.73881 -1.4288 0
M  V30 901 H 89.5771 0.753564 -0.0256388 0
M  V30 902 H 92.2281 1.677 -0.744905 0
M  V30 903 H 90.6101 3.90752 0.642586 0
M  V30 904 H 91.7841 4.04167 -2.21328 0
M  V30 905 H 90.0991 3.72558 -1.85982 0
M  V30 906 H 92.6961 5.33116 0.411258 0
M  V30 907 H 93.0391 3.9247 1.38827 0
M  V30 908 H 93.5721 3.9659 -0.31001 0
M  V30 909 H 90.3111 6.0898 -2.42536 0
M  V30 910 H 89.8311 5.95486 -0.718095 0
M  V30 911 H 91.5101 6.36776 -1.14565 0
M  V30 912 N 91.6422 0.330177 1.54103 0
M  V30 913 C 92.5742 -0.566902 2.22079 0
M  V30 914 C 93.5872 -1.07462 1.22294 0
M  V30 915 O 94.7762 -0.987065 1.48726 0
M  V30 916 C 91.8762 -1.79138 2.87685 0
M  V30 917 C 91.0492 -1.42123 4.13666 0
M  V30 918 C 90.1082 -2.50394 4.62806 0
M  V30 919 O 89.1342 -2.14261 5.27334 0
M  V30 920 N 90.3362 -3.81433 4.37595 0
M  V30 921 H 93.1012 0.0151844 2.99696 0
M  V30 922 H 90.6622 0.153681 1.61169 0
M  V30 923 H 92.6542 -2.50975 3.1748 0
M  V30 924 H 91.2242 -2.28115 2.13734 0
M  V30 925 H 90.4442 -0.534201 3.90564 0
M  V30 926 H 91.7322 -1.14971 4.9564 0
M  V30 927 H 91.1302 -4.13584 3.8596 0
M  V30 928 H 89.6872 -4.4948 4.72029 0
M  V30 929 N 93.1203 -1.57491 0.0584922 0
M  V30 930 C 94.0523 -2.08916 -0.942694 0
M  V30 931 C 95.0653 -1.0185 -1.27006 0
M  V30 932 O 96.2543 -1.29398 -1.22957 0
M  V30 933 C 93.3543 -2.52341 -2.26224 0
M  V30 934 C 92.5273 -3.82827 -2.1157 0
M  V30 935 C 91.5863 -4.12487 -3.26712 0
M  V30 936 O 90.6123 -4.82295 -3.02292 0
M  V30 937 N 91.8143 -3.64978 -4.5141 0
M  V30 938 H 94.5793 -2.95437 -0.503722 0
M  V30 939 H 92.1403 -1.61397 -0.12757 0
M  V30 940 H 94.1323 -2.69254 -3.02133 0
M  V30 941 H 92.7023 -1.7103 -2.61663 0
M  V30 942 H 91.9223 -3.75425 -1.20208 0
M  V30 943 H 93.2103 -4.68263 -1.99015 0
M  V30 944 H 92.6083 -3.08558 -4.7414 0
M  V30 945 H 91.1653 -3.87115 -5.2439 0
M  V30 946 N 94.5984 0.214957 -1.56127 0
M  V30 947 C 96.0094 0.781386 -1.69562 0
M  V30 948 C 96.3604 1.84707 -0.66165 0
M  V30 949 O 95.4854 2.156 0.185927 0
M  V30 950 C 96.0804 1.42411 -3.07416 0
M  V30 951 C 94.6394 1.93786 -3.22683 0
M  V30 952 C 93.7864 0.800438 -2.65496 0
M  V30 953 H 96.7374 -0.00980633 -1.58697 0
M  V30 954 H 96.7584 2.29309 -3.0364 0
M  V30 955 H 96.2704 0.64826 -3.82648 0
M  V30 956 H 94.3714 2.74152 -2.52332 0
M  V30 957 H 94.4844 2.1133 -4.29973 0
M  V30 958 H 92.8484 1.2095 -2.2415 0
M  V30 959 H 93.6314 0.0371471 -3.4328 0
M  V30 960 N 96.0765 1.50051 0.48192 0
M  V30 961 C 97.0065 1.71046 1.58951 0
M  V30 962 C 97.9875 0.559288 1.60642 0
M  V30 963 O 99.1725 0.797243 1.77081 0
M  V30 964 C 96.3025 1.79462 2.97339 0
M  V30 965 C 95.2565 2.94558 3.10515 0
M  V30 966 C 94.5825 2.88105 4.50444 0
M  V30 967 C 95.8825 4.35227 2.88747 0
M  V30 968 H 97.5765 2.6378 1.41635 0
M  V30 969 H 95.1225 1.26936 0.679942 0
M  V30 970 H 97.0755 1.92734 3.74742 0
M  V30 971 H 95.7995 0.833412 3.15788 0
M  V30 972 H 94.4585 2.80918 2.35543 0
M  V30 973 H 94.1065 1.89853 4.65795 0
M  V30 974 H 93.8065 3.65366 4.60197 0
M  V30 975 H 95.3305 3.03412 5.29881 0
M  V30 976 H 96.7445 4.49449 3.55905 0
M  V30 977 H 95.1415 5.13856 3.09955 0
M  V30 978 H 96.2115 4.48347 1.84696 0
M  V30 979 N 97.5546 -0.734337 1.39446 0
M  V30 980 C 98.7826 -1.52358 1.39981 0
M  V30 981 C 99.1976 -1.88799 -0.0054975 0
M  V30 982 O 98.5546 -1.54146 -0.976998 0
M  V30 983 C 98.6056 -2.81072 2.27333 0
M  V30 984 O 98.3266 -2.46178 3.62392 0
M  V30 985 C 99.8276 -3.75096 2.36259 0
M  V30 986 H 97.0476 -0.470806 0.478103 0
M  V30 987 H 99.5916 -0.907339 1.83269 0
M  V30 988 H 97.7466 -3.39026 1.87457 0
M  V30 989 H 98.1606 -3.28866 4.08592 0
M  V30 990 H 99.6346 -4.62305 3.01626 0
M  V30 991 H 100.112 -4.16892 1.38194 0
M  V30 992 H 100.718 -3.23061 2.76608 0
M  V30 993 N 99.0327 -1.24633 -0.964593 0
M  V30 994 C 99.9807 -1.03917 -2.08096 0
M  V30 995 C 100.975 0.0268581 -1.69379 0
M  V30 996 O 102.181 -0.127952 -1.79545 0
M  V30 997 H 98.5557 -0.319044 -0.680966 0
M  V30 998 H 100.527 -1.98581 -2.22729 0
M  V30 999 C 99.2757 -0.663983 -3.41301 0
M  V30 1000 H 98.5987 -1.47605 -3.71555 0
M  V30 1001 H 100.039 -0.558663 -4.20303 0
M  V30 1002 C 98.4977 0.629169 -3.30973 0
M  V30 1003 O 99.0277 1.67404 -3.65156 0
M  V30 1004 N 97.2337 0.611057 -2.84103 0
M  V30 1005 H 96.7807 -0.239593 -2.56483 0
M  V30 1006 H 96.7387 1.47647 -2.77575 0
M  V30 1007 N 100.511 1.16574 -1.06058 0
M  V30 1008 C 101.443 2.2045 -0.627239 0
M  V30 1009 C 102.456 1.59752 0.313534 0
M  V30 1010 O 103.645 1.78192 0.104896 0
M  V30 1011 C 100.745 3.3875 0.100974 0
M  V30 1012 C 99.9178 4.29008 -0.852687 0
M  V30 1013 C 98.9768 5.25944 -0.164152 0
M  V30 1014 O 98.0028 5.63535 -0.801047 0
M  V30 1015 N 99.2048 5.70075 1.09518 0
M  V30 1016 H 101.97 2.58249 -1.52077 0
M  V30 1017 H 99.5308 1.3156 -0.943594 0
M  V30 1018 H 101.523 4.00638 0.57194 0
M  V30 1019 H 100.093 2.99476 0.89628 0
M  V30 1020 H 99.3128 3.64419 -1.50308 0
M  V30 1021 H 100.601 4.86195 -1.49972 0
M  V30 1022 H 99.9988 5.41624 1.6328 0
M  V30 1023 H 98.5558 6.34067 1.51006 0
M  V30 1024 N 101.989 0.842826 1.3317 0
M  V30 1025 C 103.235 0.441099 1.97945 0
M  V30 1026 C 103.568 -0.998024 1.66593 0
M  V30 1027 O 102.843 -1.69839 0.947898 0
M  V30 1028 C 103.126 0.666841 3.53872 0
M  V30 1029 C 102.979 2.15352 3.94897 0
M  V30 1030 C 104.298 0.115544 4.39948 0
M  V30 1031 H 101.417 0.161739 0.719034 0
M  V30 1032 H 104.059 1.05907 1.57746 0
M  V30 1033 H 102.209 0.140828 3.88245 0
M  V30 1034 H 103.881 2.7447 3.70761 0
M  V30 1035 H 102.124 2.63653 3.44484 0
M  V30 1036 H 102.795 2.26221 5.03516 0
M  V30 1037 H 105.271 0.565213 4.12243 0
M  V30 1038 H 104.147 0.303152 5.48062 0
M  V30 1039 H 104.408 -0.980935 4.3108 0
M  V30 1040 N 103.467 -1.45747 0.599634 0
M  V30 1041 C 104.4 -2.27547 -0.172552 0
M  V30 1042 C 105.378 -1.36657 -0.881116 0
M  V30 1043 O 106.562 -1.66081 -0.891595 0
M  V30 1044 C 103.689 -3.14829 -1.24903 0
M  V30 1045 C 102.735 -4.21603 -0.644465 0
M  V30 1046 S 103.568 -5.32754 0.541606 0
M  V30 1047 C 104.724 -6.23604 -0.535656 0
M  V30 1048 H 104.957 -2.92691 0.521468 0
M  V30 1049 H 102.49 -1.49473 0.386947 0
M  V30 1050 H 104.448 -3.65675 -1.86527 0
M  V30 1051 H 103.109 -2.48965 -1.91508 0
M  V30 1052 H 102.302 -4.82566 -1.45417 0
M  V30 1053 H 101.904 -3.73857 -0.103534 0
M  V30 1054 H 104.196 -6.62519 -1.41686 0
M  V30 1055 H 105.139 -7.0809 0.0376246 0
M  V30 1056 H 105.547 -5.58103 -0.84741 0
M  V30 1057 N 104.945 -0.338344 -1.53925 0
M  V30 1058 C 106.356 0.146651 -1.86123 0
M  V30 1059 C 106.707 1.5042 -1.2597 0
M  V30 1060 O 105.832 2.08723 -0.571294 0
M  V30 1061 C 106.427 0.272879 -3.37699 0
M  V30 1062 C 104.986 0.702103 -3.69794 0
M  V30 1063 C 104.133 -0.167304 -2.76795 0
M  V30 1064 H 107.084 -0.558123 -1.48562 0
M  V30 1065 H 107.105 1.10128 -3.64214 0
M  V30 1066 H 106.617 -0.715307 -3.81451 0
M  V30 1067 H 104.718 1.6995 -3.31584 0
M  V30 1068 H 104.831 0.495604 -4.7653 0
M  V30 1069 H 103.195 0.359527 -2.5215 0
M  V30 1070 H 103.978 -1.15253 -3.23375 0
M  V30 1071 N 106.423 1.57458 -0.0668435 0
M  V30 1072 C 107.7 1.8469 0.644132 0
M  V30 1073 C 108.08 0.958343 1.88093 0
M  V30 1074 O 107.428 0.0233579 2.28488 0
M  V30 1075 C 107.638 3.34767 0.986509 0
M  V30 1076 C 108.986 4.02159 1.36212 0
M  V30 1077 O 110.01 3.39484 1.07839 0
M  V30 1078 O 108.869 5.12694 1.89227 0
M  V30 1079 H 105.963 0.762816 0.319437 0
M  V30 1080 H 108.509 1.6942 -0.0973986 0
M  V30 1081 H 107.281 3.91151 0.107883 0
M  V30 1082 H 106.904 3.55281 1.78497 0
M  V30 1083 N 107.901 -0.206675 1.56239 0
M  V30 1084 C 109.15 -0.926964 1.79138 0
M  V30 1085 C 109.463 -1.84901 0.638043 0
M  V30 1086 O 110.669 -2.60906 0.751033 0
M  V30 1087 C 109.125 -1.6986 3.17294 0
M  V30 1088 C 108.733 -0.821956 4.40395 0
M  V30 1089 C 110.477 -2.40922 3.4951 0
M  V30 1090 C 108.384 -1.59179 5.69575 0
M  V30 1091 H 107.314 -0.349864 0.667915 0
M  V30 1092 H 109.965 -0.180487 1.8261 0
M  V30 1093 H 108.347 -2.48853 3.08039 0
M  V30 1094 H 109.521 -0.0715019 4.60745 0
M  V30 1095 H 107.836 -0.222741 4.15804 0
M  V30 1096 H 110.433 -2.99047 4.43255 0
M  V30 1097 H 110.776 -3.14542 2.72707 0
M  V30 1098 H 111.309 -1.68905 3.60161 0
M  V30 1099 H 108.048 -0.898589 6.49312 0
M  V30 1100 H 107.568 -2.31648 5.53262 0
M  V30 1101 H 109.247 -2.14862 6.10281 0
M  V30 1102 N 109.379 -1.50304 -0.473955 0
M  V30 1103 C 110.625 -1.61389 -1.22806 0
M  V30 1104 C 110.958 -0.311955 -1.91678 0
M  V30 1105 O 110.233 0.686384 -1.81986 0
M  V30 1106 C 110.516 -2.79219 -2.27396 0
M  V30 1107 C 110.369 -4.19286 -1.62848 0
M  V30 1108 C 111.688 -2.92614 -3.28732 0
M  V30 1109 H 108.807 -0.587399 -0.445119 0
M  V30 1110 H 111.449 -1.82681 -0.522265 0
M  V30 1111 H 109.599 -2.61195 -2.87592 0
M  V30 1112 H 111.271 -4.48892 -1.06271 0
M  V30 1113 H 109.514 -4.23677 -0.931693 0
M  V30 1114 H 110.185 -4.97655 -2.38838 0
M  V30 1115 H 112.661 -3.09105 -2.78556 0
M  V30 1116 H 111.537 -3.76688 -3.99246 0
M  V30 1117 H 111.798 -2.03107 -3.92683 0
M  V30 1118 N 110.857 0.726932 -1.39834 0
M  V30 1119 C 111.79 1.8501 -1.33592 0
M  V30 1120 C 112.768 1.61262 -0.208191 0
M  V30 1121 O 113.952 1.84422 -0.389981 0
M  V30 1122 C 111.079 3.21143 -1.07633 0
M  V30 1123 C 110.125 3.63737 -2.22705 0
M  V30 1124 S 110.958 3.72167 -3.85035 0
M  V30 1125 C 112.114 5.11077 -3.61318 0
M  V30 1126 H 112.347 1.90022 -2.28646 0
M  V30 1127 H 109.88 0.892595 -1.25985 0
M  V30 1128 H 111.838 3.99747 -0.933415 0
M  V30 1129 H 110.499 3.13776 -0.142526 0
M  V30 1130 H 109.692 4.62551 -2.00155 0
M  V30 1131 H 109.294 2.9236 -2.33242 0
M  V30 1132 H 111.586 5.97656 -3.19083 0
M  V30 1133 H 112.529 5.38658 -4.59623 0
M  V30 1134 H 112.937 4.81135 -2.95245 0
M  V30 1135 N 112.336 1.25143 0.95797 0
M  V30 1136 C 113.266 1.07711 2.07173 0
M  V30 1137 C 114.247 -0.0128462 1.70095 0
M  V30 1138 O 115.432 0.156061 1.93572 0
M  V30 1139 C 112.562 0.691503 3.40346 0
M  V30 1140 C 111.516 1.73132 3.9142 0
M  V30 1141 C 110.842 1.20049 5.21049 0
M  V30 1142 C 112.142 3.1294 4.1817 0
M  V30 1143 H 113.836 2.00873 2.22014 0
M  V30 1144 H 111.382 0.967191 1.06684 0
M  V30 1145 H 113.335 0.556505 4.17709 0
M  V30 1146 H 112.059 -0.275819 3.25433 0
M  V30 1147 H 110.718 1.8547 3.16222 0
M  V30 1148 H 110.366 0.223499 5.02503 0
M  V30 1149 H 110.066 1.89545 5.56189 0
M  V30 1150 H 111.59 1.07782 6.01012 0
M  V30 1151 H 113.004 3.03775 4.86203 0
M  V30 1152 H 111.401 3.79875 4.64559 0
M  V30 1153 H 112.471 3.6025 3.24573 0
M  V30 1154 N 113.814 -1.1601 1.06675 0
M  V30 1155 C 114.746 -2.20115 0.638921 0
M  V30 1156 C 115.759 -1.59916 -0.305057 0
M  V30 1157 O 116.948 -1.78245 -0.0954446 0
M  V30 1158 C 114.048 -3.38798 -0.0830083 0
M  V30 1159 C 113.221 -4.2855 0.875426 0
M  V30 1160 C 112.28 -5.25849 0.192042 0
M  V30 1161 O 111.306 -5.63102 0.830921 0
M  V30 1162 N 112.508 -5.70648 -1.06493 0
M  V30 1163 H 115.273 -2.57439 1.53444 0
M  V30 1164 H 112.834 -1.31057 0.950557 0
M  V30 1165 H 114.826 -4.00936 -0.550685 0
M  V30 1166 H 113.396 -2.99947 -0.880386 0
M  V30 1167 H 112.616 -3.63617 1.52238 0
M  V30 1168 H 113.904 -4.85393 1.52548 0
M  V30 1169 H 113.302 -5.42482 -1.60405 0
M  V30 1170 H 111.859 -6.34859 -1.47641 0
M  V30 1171 N 115.292 -0.849877 -1.32721 0
M  V30 1172 C 116.708 -0.539102 -1.50219 0
M  V30 1173 C 116.908 0.931271 -1.78689 0
M  V30 1174 O 115.964 1.71455 -1.85363 0
M  V30 1175 C 117.277 -1.42196 -2.64954 0
M  V30 1176 C 118.825 -1.42189 -2.78839 0
M  V30 1177 C 119.3 -2.28985 -3.96648 0
M  V30 1178 N 120.791 -2.26754 -4.03902 0
M  V30 1179 C 121.526 -2.90644 -4.94281 0
M  V30 1180 N 121.022 -3.63629 -5.897 0
M  V30 1181 N 122.815 -2.80057 -4.87365 0
M  V30 1182 H 114.966 -1.80156 -1.12506 0
M  V30 1183 H 117.229 -0.769217 -0.554085 0
M  V30 1184 H 116.935 -2.46733 -2.50631 0
M  V30 1185 H 116.809 -1.10591 -3.60624 0
M  V30 1186 H 119.196 -0.38419 -2.92588 0
M  V30 1187 H 119.277 -1.77807 -1.83898 0
M  V30 1188 H 118.921 -3.32819 -3.83658 0
M  V30 1189 H 118.851 -1.90702 -4.90857 0
M  V30 1190 H 121.342 -1.73688 -3.3562 0
M  V30 1191 H 121.655 -4.09558 -6.55349 0
M  V30 1192 H 120 -3.67737 -5.89741 0
M  V30 1193 H 123.191 -2.22593 -4.11789 0
M  V30 1194 H 123.364 -3.30132 -5.57599 0
M  V30 1195 N 116.77 1.45427 -0.607355 0
M  V30 1196 C 118.186 1.57283 -0.270985 0
M  V30 1197 C 118.386 1.59875 1.22647 0
M  V30 1198 O 117.442 1.52893 2.00948 0
M  V30 1199 C 118.755 2.85566 -0.941952 0
M  V30 1200 C 120.303 2.9924 -0.917849 0
M  V30 1201 C 120.778 4.30293 -1.56882 0
M  V30 1202 N 122.269 4.37051 -1.5343 0
M  V30 1203 C 123.004 5.37123 -2.00715 0
M  V30 1204 N 122.5 6.43734 -2.56084 0
M  V30 1205 N 124.293 5.28479 -1.91484 0
M  V30 1206 H 116.444 1.41988 -1.57966 0
M  V30 1207 H 118.707 0.67885 -0.661715 0
M  V30 1208 H 118.413 2.8955 -1.99633 0
M  V30 1209 H 118.287 3.74322 -0.465096 0
M  V30 1210 H 120.674 2.94822 0.127984 0
M  V30 1211 H 120.755 2.11895 -1.43297 0
M  V30 1212 H 120.399 4.35469 -2.61398 0
M  V30 1213 H 120.329 5.16454 -1.02873 0
M  V30 1214 H 122.82 3.60615 -1.12982 0
M  V30 1215 H 123.133 7.16341 -2.89958 0
M  V30 1216 H 121.478 6.44485 -2.60122 0
M  V30 1217 H 124.669 4.44098 -1.47967 0
M  V30 1218 H 124.842 6.0632 -2.28648 0
M  V30 1219 N 118.248 0.346503 1.53744 0
M  V30 1220 C 119.181 -0.552023 2.21423 0
M  V30 1221 C 120.159 -1.09798 1.19929 0
M  V30 1222 O 121.343 -1.1577 1.4876 0
M  V30 1223 C 118.47 -1.75972 2.89398 0
M  V30 1224 C 117.516 -1.34295 4.04805 0
M  V30 1225 S 118.349 -0.360263 5.34287 0
M  V30 1226 C 119.505 -1.57473 6.05767 0
M  V30 1227 H 119.738 0.0228119 2.97291 0
M  V30 1228 H 117.271 0.130579 1.53847 0
M  V30 1229 H 119.229 -2.45256 3.2918 0
M  V30 1230 H 117.89 -2.30578 2.1329 0
M  V30 1231 H 117.083 -2.24349 4.51313 0
M  V30 1232 H 116.685 -0.729555 3.66815 0
M  V30 1233 H 118.977 -2.50875 6.29339 0
M  V30 1234 H 119.92 -1.15138 6.98676 0
M  V30 1235 H 120.328 -1.77212 5.35963 0
M  V30 1236 N 119.726 -1.57421 0.075193 0
M  V30 1237 C 121.137 -1.81021 -0.456964 0
M  V30 1238 C 121.488 -0.98936 -1.69429 0
M  V30 1239 O 120.613 -0.212865 -2.15351 0
M  V30 1240 C 121.208 -3.28329 -0.83581 0
M  V30 1241 C 119.767 -3.52764 -1.31281 0
M  V30 1242 C 118.914 -2.75676 -0.299648 0
M  V30 1243 H 121.865 -1.55822 0.300856 0
M  V30 1244 H 121.886 -3.40564 -1.69696 0
M  V30 1245 H 121.398 -3.88046 0.0649238 0
M  V30 1246 H 119.499 -2.98355 -2.23193 0
M  V30 1247 H 119.612 -4.61451 -1.28839 0
M  V30 1248 H 117.976 -2.42538 -0.777641 0
M  V30 1249 H 118.759 -3.38132 0.593417 0
M  V30 1250 N 121.204 0.198386 -1.56346 0
M  V30 1251 C 122.136 1.26987 -1.90806 0
M  V30 1252 C 123.149 1.41877 -0.798419 0
M  V30 1253 O 124.338 1.42362 -1.07682 0
M  V30 1254 C 121.438 2.64246 -2.12196 0
M  V30 1255 C 120.611 2.71007 -3.43328 0
M  V30 1256 C 119.67 3.89439 -3.5387 0
M  V30 1257 O 118.696 3.76695 -4.26719 0
M  V30 1258 N 119.898 5.04752 -2.86715 0
M  V30 1259 H 122.663 0.977433 -2.83313 0
M  V30 1260 H 120.224 0.388322 -1.57174 0
M  V30 1261 H 122.216 3.41896 -2.1654 0
M  V30 1262 H 120.786 2.85992 -1.26204 0
M  V30 1263 H 120.006 1.79657 -3.50881 0
M  V30 1264 H 121.294 2.72512 -4.29668 0
M  V30 1265 H 120.692 5.18004 -2.2735 0
M  V30 1266 H 119.249 5.8036 -2.96691 0
M  V30 1267 N 122.682 1.50554 0.465978 0
M  V30 1268 C 123.91 1.65563 1.24083 0
M  V30 1269 C 124.325 0.341051 1.85694 0
M  V30 1270 O 123.682 -0.677543 1.69457 0
M  V30 1271 C 123.733 2.75051 2.34583 0
M  V30 1272 O 123.454 4.01413 1.75497 0
M  V30 1273 C 124.955 3.01078 3.25372 0
M  V30 1274 H 122.175 0.55638 0.375077 0
M  V30 1275 H 124.719 1.96807 0.555624 0
M  V30 1276 H 122.874 2.46486 2.9887 0
M  V30 1277 H 123.288 4.62002 2.48303 0
M  V30 1278 H 124.762 3.81339 3.99105 0
M  V30 1279 H 125.239 2.12349 3.84453 0
M  V30 1280 H 125.845 3.31194 2.66816 0
M  V30 1281 N 124.16 -0.719506 1.40217 0
M  V30 1282 C 125.407 -1.47933 1.38283 0
M  V30 1283 C 125.735 -1.94493 -0.0161536 0
M  V30 1284 O 124.99 -1.68224 -0.999956 0
M  V30 1285 C 125.289 -2.72271 2.31524 0
M  V30 1286 C 124.955 -2.44496 3.78857 0
M  V30 1287 C 123.617 -2.36631 4.18998 0
M  V30 1288 C 125.969 -2.21104 4.71977 0
M  V30 1289 C 123.297 -2.03437 5.503 0
M  V30 1290 C 125.649 -1.89423 6.03574 0
M  V30 1291 C 124.313 -1.80038 6.42762 0
M  V30 1292 H 123.583 -0.541325 0.506012 0
M  V30 1293 H 126.23 -0.824502 1.72842 0
M  V30 1294 H 124.535 -3.42572 1.90137 0
M  V30 1295 H 126.232 -3.30348 2.27313 0
M  V30 1296 H 122.822 -2.51503 3.47051 0
M  V30 1297 H 127.006 -2.26139 4.41786 0
M  V30 1298 H 122.262 -1.94705 5.79569 0
M  V30 1299 H 126.436 -1.70336 6.75247 0
M  V30 1300 H 124.063 -1.54083 7.44421 0
M  V30 1301 N 125.638 -1.25649 -0.95132 0
M  V30 1302 C 127.054 -1.02542 -1.223 0
M  V30 1303 C 127.254 0.255715 -1.99871 0
M  V30 1304 O 126.31 0.967558 -2.33226 0
M  V30 1305 C 127.623 -2.25065 -1.99415 0
M  V30 1306 C 129.171 -2.29861 -2.12446 0
M  V30 1307 C 129.646 -3.52048 -2.92961 0
M  V30 1308 N 131.137 -3.52465 -3.00538 0
M  V30 1309 C 131.872 -4.43672 -3.63239 0
M  V30 1310 N 131.368 -5.45157 -4.27523 0
M  V30 1311 N 133.161 -4.31346 -3.60412 0
M  V30 1312 H 125.312 -2.07951 -0.432471 0
M  V30 1313 H 127.575 -0.91339 -0.253816 0
M  V30 1314 H 127.281 -3.18194 -1.49817 0
M  V30 1315 H 127.155 -2.28502 -3.00111 0
M  V30 1316 H 129.542 -1.37252 -2.61239 0
M  V30 1317 H 129.623 -2.3044 -1.11044 0
M  V30 1318 H 129.267 -4.44981 -2.44856 0
M  V30 1319 H 129.197 -3.48715 -3.94596 0
M  V30 1320 H 131.688 -2.79056 -2.54826 0
M  V30 1321 H 132.001 -6.10958 -4.73234 0
M  V30 1322 H 130.346 -5.49025 -4.26141 0
M  V30 1323 H 133.537 -3.51288 -3.09377 0
M  V30 1324 H 133.71 -5.02624 -4.0899 0
M  V30 1325 N 127.117 1.15442 -1.07289 0
M  V30 1326 C 128.394 1.82306 -0.708792 0
M  V30 1327 C 128.774 1.94991 0.808807 0
M  V30 1328 O 128.122 1.50085 1.72298 0
M  V30 1329 C 128.332 3.18695 -1.42247 0
M  V30 1330 C 129.68 3.94341 -1.57417 0
M  V30 1331 O 130.704 3.28247 -1.38319 0
M  V30 1332 O 129.563 5.12839 -1.88834 0
M  V30 1333 H 126.657 0.787628 -0.252132 0
M  V30 1334 H 129.203 1.22559 -1.17377 0
M  V30 1335 H 127.975 3.04557 -2.45684 0
M  V30 1336 H 127.598 3.86128 -0.948223 0
M  V30 1337 N 128.595 0.856903 1.32268 0
M  V30 1338 C 130.006 0.515711 1.79436 0
M  V30 1339 C 130.357 -0.966586 1.70738 0
M  V30 1340 O 129.482 -1.75409 1.26731 0
M  V30 1341 C 130.077 0.929335 3.25805 0
M  V30 1342 C 128.636 0.640006 3.70919 0
M  V30 1343 C 127.783 1.12784 2.53328 0
M  V30 1344 H 130.734 1.04389 1.19535 0
M  V30 1345 H 130.755 0.246633 3.797 0
M  V30 1346 H 130.267 2.00821 3.32103 0
M  V30 1347 H 128.368 -0.428051 3.70133 0
M  V30 1348 H 128.481 1.20788 4.63624 0
M  V30 1349 H 126.845 0.548033 2.48734 0
M  V30 1350 H 127.628 2.21387 2.62379 0
M  V30 1351 N 130.073 -1.45103 0.615059 0
M  V30 1352 C 131.036 -2.29025 -0.0895485 0
M  V30 1353 C 132.036 -1.40174 -0.787906 0
M  V30 1354 O 133.226 -1.62217 -0.634933 0
M  V30 1355 C 130.358 -3.21376 -1.13711 0
M  V30 1356 H 131.551 -2.92807 0.648382 0
M  V30 1357 H 129.104 -1.51749 0.374444 0
M  V30 1358 H 129.839 -2.6241 -1.90556 0
M  V30 1359 H 129.624 -3.86834 -0.640475 0
M  V30 1360 H 131.114 -3.84459 -1.63036 0
M  V30 1361 N 131.551 -0.354651 -1.53558 0
M  V30 1362 C 132.779 0.239515 -2.05509 0
M  V30 1363 C 133.194 1.4333 -1.2289 0
M  V30 1364 O 132.551 1.80538 -0.266899 0
M  V30 1365 C 132.602 0.643719 -3.55723 0
M  V30 1366 O 132.323 -0.502602 -4.35207 0
M  V30 1367 C 133.824 1.29743 -4.23889 0
M  V30 1368 H 131.044 0.0442697 -0.669538 0
M  V30 1369 H 133.588 -0.509856 -1.98042 0
M  V30 1370 H 131.743 1.34302 -3.63376 0
M  V30 1371 H 132.157 -0.178172 -5.24197 0
M  V30 1372 H 133.631 1.53091 -5.30346 0
M  V30 1373 H 134.108 2.25441 -3.76926 0
M  V30 1374 H 134.714 0.639865 -4.20459 0
M  V30 1375 N 133.029 1.57378 -0.0835403 0
M  V30 1376 C 133.992 2.12252 0.864959 0
M  V30 1377 C 134.992 1.04916 1.21858 0
M  V30 1378 O 136.182 1.30853 1.14991 0
M  V30 1379 C 133.314 2.63358 2.16461 0
M  V30 1380 H 134.507 2.97371 0.388676 0
M  V30 1381 H 132.06 1.55423 0.165317 0
M  V30 1382 H 132.795 1.81727 2.686 0
M  V30 1383 H 132.58 3.41826 1.92087 0
M  V30 1384 H 134.07 3.05847 2.84337 0
M  V30 1385 N 134.507 -0.190092 1.56449 0
M  V30 1386 C 135.918 -0.754312 1.70784 0
M  V30 1387 C 136.269 -1.83631 0.690951 0
M  V30 1388 O 135.394 -2.15868 -0.151604 0
M  V30 1389 C 135.989 -1.37503 3.09642 0
M  V30 1390 C 134.548 -1.88628 3.25725 0
M  V30 1391 C 133.695 -0.758098 2.66736 0
M  V30 1392 H 136.646 0.0350524 1.58661 0
M  V30 1393 H 136.667 -2.2445 3.0725 0
M  V30 1394 H 136.179 -0.587302 3.83631 0
M  V30 1395 H 134.28 -2.70103 2.56661 0
M  V30 1396 H 134.393 -2.04462 4.3328 0
M  V30 1397 H 132.757 -1.17369 2.26046 0
M  V30 1398 H 133.54 0.0174705 3.43296 0
M  V30 1399 N 135.985 -1.50799 -0.457987 0
M  V30 1400 C 136.915 -1.73553 -1.5621 0
M  V30 1401 C 137.896 -0.584774 -1.59732 0
M  V30 1402 O 139.081 -0.825314 -1.7579 0
M  V30 1403 C 136.211 -1.84169 -2.94447 0
M  V30 1404 C 135.165 -2.99461 -3.0579 0
M  V30 1405 C 134.491 -2.95235 -4.45803 0
M  V30 1406 C 135.791 -4.39766 -2.81786 0
M  V30 1407 H 137.485 -2.66 -1.37421 0
M  V30 1408 H 135.031 -1.28002 -0.659662 0
M  V30 1409 H 136.984 -1.98672 -3.71628 0
M  V30 1410 H 135.708 -0.883545 -3.14422 0
M  V30 1411 H 134.367 -2.8463 -2.31044 0
M  V30 1412 H 134.015 -1.97239 -4.62715 0
M  V30 1413 H 133.715 -3.72642 -4.54326 0
M  V30 1414 H 135.239 -3.11803 -5.24987 0
M  V30 1415 H 136.653 -4.55054 -3.4871 0
M  V30 1416 H 135.05 -5.18722 -3.0174 0
M  V30 1417 H 136.12 -4.51229 -1.7754 0
M  V30 1418 N 137.463 0.71206 -1.40597 0
M  V30 1419 C 138.879 1.02058 -1.22704 0
M  V30 1420 C 139.079 2.01228 -0.104729 0
M  V30 1421 O 138.135 2.4674 0.53624 0
M  V30 1422 C 139.448 1.56094 -2.57012 0
M  V30 1423 C 140.996 1.6806 -2.64054 0
M  V30 1424 C 141.471 2.25501 -3.9864 0
M  V30 1425 N 142.962 2.32882 -4.004 0
M  V30 1426 C 143.697 2.78317 -5.01325 0
M  V30 1427 N 143.193 3.23478 -6.12645 0
M  V30 1428 N 144.986 2.77733 -4.88693 0
M  V30 1429 H 137.137 0.0547896 -2.12329 0
M  V30 1430 H 139.4 0.0869027 -0.944008 0
M  V30 1431 H 139.106 0.906865 -3.39807 0
M  V30 1432 H 138.98 2.54564 -2.78347 0
M  V30 1433 H 141.367 2.32583 -1.81629 0
M  V30 1434 H 141.448 0.681802 -2.46546 0
M  V30 1435 H 141.092 1.61598 -4.81506 0
M  V30 1436 H 141.022 3.26102 -4.13479 0
M  V30 1437 H 143.513 2.00991 -3.20017 0
M  V30 1438 H 143.826 3.56725 -6.85542 0
M  V30 1439 H 142.171 3.21429 -6.16205 0
M  V30 1440 H 145.362 2.4179 -4.00818 0
M  V30 1441 H 145.535 3.12826 -5.67489 0
M  V30 1442 N 138.941 1.26152 0.944643 0
M  V30 1443 C 139.888 1.07408 2.04285 0
M  V30 1444 C 140.858 -0.0198413 1.66088 0
M  V30 1445 O 142.043 0.139264 1.90291 0
M  V30 1446 C 139.183 0.70945 3.37729 0
M  V30 1447 C 138.296 1.87926 3.88983 0
M  V30 1448 C 137.431 1.45807 5.10797 0
M  V30 1449 C 136.47 2.5964 5.54305 0
M  V30 1450 N 135.607 2.18226 6.67324 0
M  V30 1451 H 140.447 2.01389 2.1965 0
M  V30 1452 H 137.984 1.00275 1.07626 0
M  V30 1453 H 139.942 0.478948 4.14442 0
M  V30 1454 H 138.572 -0.193389 3.2222 0
M  V30 1455 H 137.624 2.22279 3.08701 0
M  V30 1456 H 138.936 2.73377 4.17213 0
M  V30 1457 H 138.09 1.18781 5.94959 0
M  V30 1458 H 136.829 0.574414 4.84305 0
M  V30 1459 H 135.834 2.87399 4.68702 0
M  V30 1460 H 137.059 3.48599 5.828 0
M  V30 1461 H 135.005 1.3229 6.42523 0
M  V30 1462 H 134.922 2.97221 6.95123 0
M  V30 1463 H 136.19 1.94403 7.54869 0
M  V30 1464 N 140.419 -1.14872 1.07899 0
M  V30 1465 C 141.349 -2.2193 0.725887 0
M  V30 1466 C 142.33 -1.67622 -0.28927 0
M  V30 1467 O 143.515 -1.93533 -0.160787 0
M  V30 1468 C 140.645 -3.47061 0.128856 0
M  V30 1469 C 139.599 -4.14363 1.07178 0
M  V30 1470 C 138.925 -5.33636 0.337229 0
M  V30 1471 C 140.225 -4.63492 2.40775 0
M  V30 1472 H 141.919 -2.51724 1.62097 0
M  V30 1473 H 139.465 -1.20991 0.780838 0
M  V30 1474 H 141.418 -4.21199 -0.130147 0
M  V30 1475 H 140.142 -3.16617 -0.80134 0
M  V30 1476 H 138.801 -3.42173 1.3158 0
M  V30 1477 H 138.449 -4.99449 -0.596606 0
M  V30 1478 H 138.149 -5.79609 0.965788 0
M  V30 1479 H 139.673 -6.10539 0.0861567 0
M  V30 1480 H 141.087 -5.2913 2.20669 0
M  V30 1481 H 139.484 -5.20148 2.99276 0
M  V30 1482 H 140.554 -3.78834 3.02676 0
M  V30 1483 N 141.898 -0.863906 -1.31812 0
M  V30 1484 C 143.123 -0.48527 -2.01643 0
M  V30 1485 C 143.548 0.913058 -1.64453 0
M  V30 1486 O 142.906 1.6014 -0.849985 0
M  V30 1487 C 142.954 -0.642625 -3.54828 0
M  V30 1488 O 142.058 0.320659 -4.11151 0
M  V30 1489 H 141.399 -0.193793 -0.635091 0
M  V30 1490 H 143.929 -1.16565 -1.68148 0
M  V30 1491 H 143.939 -0.533628 -4.04495 0
M  V30 1492 H 142.614 -1.66227 -3.81237 0
M  V30 1493 H 141.191 0.167126 -3.72525 0
M  V30 1494 N 143.376 1.44774 -0.622745 0
M  V30 1495 C 144.622 2.0242 -0.124083 0
M  V30 1496 C 144.955 1.4881 1.24777 0
M  V30 1497 O 144.23 0.668799 1.8264 0
M  V30 1498 C 144.513 3.59957 -0.101619 0
M  V30 1499 C 144.366 4.23867 -1.50521 0
M  V30 1500 C 145.685 4.36284 0.578272 0
M  V30 1501 H 142.804 0.735528 -0.0465645 0
M  V30 1502 H 145.446 1.72447 -0.797617 0
M  V30 1503 H 143.596 3.85623 0.471934 0
M  V30 1504 H 145.268 4.09336 -2.12701 0
M  V30 1505 H 143.511 3.81684 -2.06154 0
M  V30 1506 H 144.182 5.32843 -1.4416 0
M  V30 1507 H 146.658 4.16001 0.0906057 0
M  V30 1508 H 145.534 5.46004 0.563149 0
M  V30 1509 H 145.795 4.10271 1.64713 0
M  V30 1510 N 144.854 0.36279 1.53368 0
M  V30 1511 C 146.131 -0.284021 1.93527 0
M  V30 1512 C 146.511 -1.66628 1.29608 0
M  V30 1513 O 145.859 -2.23942 0.45413 0
M  V30 1514 C 146.069 -0.337028 3.47369 0
M  V30 1515 C 147.417 -0.578708 4.20638 0
M  V30 1516 O 148.441 -0.418352 3.53735 0
M  V30 1517 O 147.3 -0.89074 5.39192 0
M  V30 1518 H 144.394 -0.169743 0.809393 0
M  V30 1519 H 146.94 0.41537 1.64538 0
M  V30 1520 H 145.712 0.632217 3.86159 0
M  V30 1521 H 145.335 -1.08243 3.82582 0
M  V30 1522 N 146.332 -1.57332 0.0918853 0
M  V30 1523 C 147.262 -2.16872 -0.865371 0
M  V30 1524 C 148.243 -1.10118 -1.29646 0
M  V30 1525 O 149.428 -1.38242 -1.36392 0
M  V30 1526 C 146.558 -2.74649 -2.12569 0
M  V30 1527 C 145.512 -3.86747 -1.83333 0
M  V30 1528 C 144.838 -4.31212 -3.16166 0
M  V30 1529 C 146.138 -5.10089 -1.1228 0
M  V30 1530 H 147.832 -2.97114 -0.369307 0
M  V30 1531 H 145.378 -1.42918 -0.176194 0
M  V30 1532 H 147.331 -3.14952 -2.7997 0
M  V30 1533 H 146.055 -1.91657 -2.64452 0
M  V30 1534 H 144.714 -3.46978 -1.18331 0
M  V30 1535 H 144.362 -3.45115 -3.6593 0
M  V30 1536 H 144.062 -5.06788 -2.97388 0
M  V30 1537 H 145.586 -4.74146 -3.84731 0
M  V30 1538 H 147 -5.47582 -1.69785 0
M  V30 1539 H 145.397 -5.91073 -1.03693 0
M  V30 1540 H 146.467 -4.84786 -0.105041 0
M  V30 1541 N 147.81 0.181792 -1.56548 0
M  V30 1542 C 149.059 0.898348 -1.8059 0
M  V30 1543 C 149.372 1.83862 -0.667379 0
M  V30 1544 O 150.578 2.59678 -0.792446 0
M  V30 1545 C 149.034 1.64791 -3.19956 0
M  V30 1546 C 148.642 0.751789 -4.41647 0
M  V30 1547 C 150.386 2.35331 -3.53298 0
M  V30 1548 C 148.293 1.50098 -5.72035 0
M  V30 1549 H 147.223 0.339194 -0.673397 0
M  V30 1550 H 149.874 0.151413 -1.82874 0
M  V30 1551 H 148.256 2.43921 -3.11959 0
M  V30 1552 H 149.43 -0.0018076 -4.608 0
M  V30 1553 H 147.745 0.156562 -4.16106 0
M  V30 1554 H 150.342 2.91958 -4.47956 0
M  V30 1555 H 150.685 3.10164 -2.77676 0
M  V30 1556 H 151.218 1.63154 -3.62803 0
M  V30 1557 H 147.957 0.795175 -6.50659 0
M  V30 1558 H 147.477 2.22817 -5.56878 0
M  V30 1559 H 149.156 2.05125 -6.13622 0
M  V30 1560 N 149.288 1.51039 0.449983 0
M  V30 1561 C 150.235 1.71439 1.54523 0
M  V30 1562 C 151.205 0.555871 1.56522 0
M  V30 1563 O 152.39 0.788871 1.73728 0
M  V30 1564 C 149.53 1.83384 2.92343 0
M  V30 1565 C 148.643 3.10873 2.9997 0
M  V30 1566 C 147.778 3.13488 4.28834 0
M  V30 1567 C 146.817 4.35343 4.30282 0
M  V30 1568 N 145.954 4.35579 5.5065 0
M  V30 1569 H 150.794 2.64934 1.36433 0
M  V30 1570 H 148.331 1.31312 0.662982 0
M  V30 1571 H 150.289 1.88291 3.72293 0
M  V30 1572 H 148.919 0.933086 3.0902 0
M  V30 1573 H 147.971 3.15336 2.12761 0
M  V30 1574 H 149.283 4.00814 2.96901 0
M  V30 1575 H 148.437 3.17241 5.17149 0
M  V30 1576 H 147.176 2.21414 4.34543 0
M  V30 1577 H 146.181 4.3178 3.40362 0
M  V30 1578 H 147.406 5.28668 4.26248 0
M  V30 1579 H 145.352 3.46369 5.57104 0
M  V30 1580 H 145.269 5.19313 5.49409 0
M  V30 1581 H 146.537 4.43507 6.41032 0
M  V30 1582 N 150.766 -0.704594 1.40972 0
M  V30 1583 C 151.994 -1.49354 1.43182 0
M  V30 1584 C 152.409 -1.88768 0.0345508 0
M  V30 1585 O 151.766 -1.56184 -0.944081 0
M  V30 1586 C 151.817 -2.76187 2.33244 0
M  V30 1587 O 151.538 -2.38436 3.67532 0
M  V30 1588 C 153.039 -3.7 2.44162 0
M  V30 1589 H 150.259 -0.460559 0.487982 0
M  V30 1590 H 152.803 -0.868261 1.85153 0
M  V30 1591 H 150.958 -3.34974 1.94606 0
M  V30 1592 H 151.372 -3.20126 4.15475 0
M  V30 1593 H 152.846 -4.55803 3.11364 0
M  V30 1594 H 153.323 -4.13867 1.47006 0
M  V30 1595 H 153.929 -3.17121 2.83398 0
M  V30 1596 N 152.244 -1.26651 -0.937939 0
M  V30 1597 C 153.474 -1.15006 -1.71631 0
M  V30 1598 C 153.882 0.297026 -1.86854 0
M  V30 1599 O 153.225 1.21493 -1.37786 0
M  V30 1600 C 153.287 -1.74984 -3.14039 0
M  V30 1601 C 152.951 -3.24103 -3.2219 0
M  V30 1602 C 153.948 -4.20877 -3.05219 0
M  V30 1603 C 151.633 -3.64625 -3.45476 0
M  V30 1604 C 153.627 -5.56151 -3.11408 0
M  V30 1605 C 151.314 -5.00032 -3.513 0
M  V30 1606 C 152.312 -5.95604 -3.34282 0
M  V30 1607 O 152 -7.28545 -3.3982 0
M  V30 1608 H 151.732 -0.401183 -0.544085 0
M  V30 1609 H 154.286 -1.67832 -1.18413 0
M  V30 1610 H 152.516 -1.16624 -3.68695 0
M  V30 1611 H 154.205 -1.58199 -3.73802 0
M  V30 1612 H 154.971 -3.90908 -2.87081 0
M  V30 1613 H 150.85 -2.90718 -3.57777 0
M  V30 1614 H 154.394 -6.30727 -2.98043 0
M  V30 1615 H 150.291 -5.29659 -3.68959 0
M  V30 1616 H 151.059 -7.3686 -3.56343 0
M  V30 1617 N 153.722 1.14298 -1.08507 0
M  V30 1618 C 154.669 2.19414 -0.715965 0
M  V30 1619 C 155.639 1.63399 0.298326 0
M  V30 1620 O 156.824 1.89929 0.182101 0
M  V30 1621 C 153.964 3.44845 -0.132534 0
M  V30 1622 C 153.077 4.15007 -1.19973 0
M  V30 1623 C 152.212 5.28024 -0.580048 0
M  V30 1624 C 151.251 5.9002 -1.62921 0
M  V30 1625 N 150.388 6.94485 -1.03125 0
M  V30 1626 H 155.228 2.50336 -1.61666 0
M  V30 1627 H 152.765 1.2293 -0.807882 0
M  V30 1628 H 154.723 4.16601 0.223454 0
M  V30 1629 H 153.353 3.14403 0.731467 0
M  V30 1630 H 152.405 3.41629 -1.67313 0
M  V30 1631 H 153.717 4.57178 -1.99473 0
M  V30 1632 H 152.871 6.06455 -0.172364 0
M  V30 1633 H 151.61 4.87076 0.246603 0
M  V30 1634 H 150.615 5.10291 -2.04654 0
M  V30 1635 H 151.84 6.33042 -2.45835 0
M  V30 1636 H 149.786 6.55612 -0.225711 0
M  V30 1637 H 149.703 7.35148 -1.76334 0
M  V30 1638 H 150.971 7.7679 -0.649458 0
M  V30 1639 N 155.201 0.870884 1.31352 0
M  V30 1640 C 156.151 0.298889 2.26032 0
M  V30 1641 C 157.135 -0.564595 1.50669 0
M  V30 1642 O 158.327 -0.411323 1.72154 0
M  V30 1643 C 155.456 -0.497842 3.39671 0
M  V30 1644 C 154.542 0.378937 4.22404 0
M  V30 1645 N 154.933 1.47284 4.83881 0
M  V30 1646 C 153.231 0.171535 4.4567 0
M  V30 1647 C 153.932 2.01359 5.45738 0
M  V30 1648 N 152.908 1.31047 5.27568 0
M  V30 1649 H 156.71 1.13494 2.71102 0
M  V30 1650 H 154.224 0.718745 1.45629 0
M  V30 1651 H 156.221 -0.924155 4.06528 0
M  V30 1652 H 154.881 -1.33149 2.96144 0
M  V30 1653 H 155.892 1.85575 4.8351 0
M  V30 1654 H 152.569 -0.626091 4.12779 0
M  V30 1655 H 153.959 2.93143 6.0458 0
M  V30 1656 N 156.679 -1.44442 0.630414 0
M  V30 1657 C 157.928 -2.01267 0.132073 0
M  V30 1658 C 158.241 -1.50172 -1.25331 0
M  V30 1659 O 159.447 -1.9912 -1.84562 0
M  V30 1660 C 157.903 -3.59422 0.185362 0
M  V30 1661 C 157.511 -4.19514 1.57201 0
M  V30 1662 C 159.255 -4.23724 -0.256553 0
M  V30 1663 C 157.162 -5.69891 1.58045 0
M  V30 1664 H 156.092 -0.752619 0.0456092 0
M  V30 1665 H 158.743 -1.65666 0.789106 0
M  V30 1666 H 157.125 -3.92318 -0.538759 0
M  V30 1667 H 158.299 -3.98156 2.31966 0
M  V30 1668 H 156.614 -3.67496 1.95795 0
M  V30 1669 H 159.211 -5.34019 -0.269767 0
M  V30 1670 H 159.554 -3.96013 -1.28372 0
M  V30 1671 H 160.087 -3.95629 0.41505 0
M  V30 1672 H 156.826 -6.02336 2.58597 0
M  V30 1673 H 156.346 -5.93373 0.875725 0
M  V30 1674 H 158.025 -6.33515 1.31408 0
M  V30 1675 N 158.157 -0.370918 -1.53173 0
M  V30 1676 C 159.105 0.488101 -2.27421 0
M  V30 1677 C 160.099 1.07884 -1.30604 0
M  V30 1678 O 161.305 1.02143 -1.48212 0
M  V30 1679 H 157.68 0.176134 -0.731082 0
M  V30 1680 H 159.651 -0.159815 -2.97972 0
M  V30 1681 C 158.4 1.61306 -3.08019 0
M  V30 1682 H 157.723 1.1678 -3.82364 0
M  V30 1683 H 159.163 2.18872 -3.63141 0
M  V30 1684 C 157.622 2.55848 -2.19188 0
M  V30 1685 O 158.152 3.58799 -1.80626 0
M  V30 1686 N 156.358 2.2516 -1.83715 0
M  V30 1687 H 155.905 1.41476 -2.15273 0
M  V30 1688 H 155.863 2.8867 -1.24567 0
M  V30 1689 N 159.635 1.57281 -0.100228 0
M  V30 1690 C 160.545 2.17833 0.870965 0
M  V30 1691 C 161.561 1.14921 1.30649 0
M  V30 1692 O 162.737 1.47313 1.37335 0
M  V30 1693 C 159.802 2.75085 2.1102 0
M  V30 1694 C 158.863 3.9297 1.72838 0
M  V30 1695 C 158.096 4.47482 2.90854 0
M  V30 1696 O 158.319 4.00922 4.05731 0
M  V30 1697 O 157.253 5.38433 2.69023 0
M  V30 1698 H 161.079 3.0124 0.38575 0
M  V30 1699 H 158.664 1.48881 0.124397 0
M  V30 1700 H 160.546 3.11656 2.83634 0
M  V30 1701 H 159.221 1.94721 2.58584 0
M  V30 1702 H 158.128 3.61201 0.973883 0
M  V30 1703 H 159.461 4.74713 1.30033 0
M  V30 1704 N 161.113 -0.173488 1.56642 0
M  V30 1705 C 162.359 -0.891784 1.8214 0
M  V30 1706 C 162.692 -1.8199 0.677736 0
M  V30 1707 O 161.967 -1.91842 -0.320446 0
M  V30 1708 C 162.25 -1.68933 3.18015 0
M  V30 1709 C 162.103 -0.784487 4.42906 0
M  V30 1710 C 163.422 -2.65748 3.50808 0
M  V30 1711 H 160.541 -0.322761 0.662567 0
M  V30 1712 H 163.183 -0.158095 1.89341 0
M  V30 1713 H 161.333 -2.31482 3.12007 0
M  V30 1714 H 163.005 -0.172046 4.60979 0
M  V30 1715 H 161.248 -0.0924117 4.33702 0
M  V30 1716 H 161.919 -1.37799 5.34524 0
M  V30 1717 H 164.395 -2.13327 3.57255 0
M  V30 1718 H 163.271 -3.18619 4.4696 0
M  V30 1719 H 163.532 -3.45842 2.75401 0
M  V30 1720 N 162.591 -1.51276 -0.441967 0
M  V30 1721 C 163.821 -1.67273 -1.21257 0
M  V30 1722 C 164.229 -0.367624 -1.85594 0
M  V30 1723 O 163.572 0.663349 -1.71305 0
M  V30 1724 C 163.634 -2.72807 -2.34129 0
M  V30 1725 C 163.298 -4.1554 -1.90198 0
M  V30 1726 C 164.295 -5.00471 -1.40801 0
M  V30 1727 C 161.98 -4.61616 -1.9803 0
M  V30 1728 C 163.974 -6.29536 -0.998174 0
M  V30 1729 C 161.661 -5.90679 -1.56658 0
M  V30 1730 C 162.659 -6.74466 -1.07633 0
M  V30 1731 O 162.347 -8.01116 -0.668459 0
M  V30 1732 H 162.079 -0.564614 -0.371734 0
M  V30 1733 H 164.633 -1.9843 -0.530521 0
M  V30 1734 H 162.863 -2.36954 -3.05597 0
M  V30 1735 H 164.552 -2.77729 -2.96009 0
M  V30 1736 H 165.318 -4.66079 -1.34148 0
M  V30 1737 H 161.197 -3.96526 -2.35135 0
M  V30 1738 H 164.741 -6.94885 -0.61482 0
M  V30 1739 H 160.638 -6.24586 -1.62979 0
M  V30 1740 H 161.406 -8.14633 -0.794722 0
M  V30 1741 N 164.069 0.697108 -1.41344 0
M  V30 1742 C 165.299 1.48377 -1.43763 0
M  V30 1743 C 165.707 1.89156 -0.0408726 0
M  V30 1744 O 165.05 1.57239 0.949812 0
M  V30 1745 C 165.112 2.7781 -2.2817 0
M  V30 1746 C 164.776 2.59244 -3.76353 0
M  V30 1747 C 165.773 2.25292 -4.68551 0
M  V30 1748 C 163.458 2.74933 -4.20378 0
M  V30 1749 C 165.452 2.07264 -6.02761 0
M  V30 1750 C 163.139 2.56521 -5.54653 0
M  V30 1751 C 164.137 2.22737 -6.4566 0
M  V30 1752 O 163.825 2.04485 -7.77458 0
M  V30 1753 H 163.557 0.463842 -0.491759 0
M  V30 1754 H 166.111 0.865934 -1.86255 0
M  V30 1755 H 164.341 3.41995 -1.8049 0
M  V30 1756 H 166.03 3.39608 -2.22309 0
M  V30 1757 H 166.796 2.12787 -4.35829 0
M  V30 1758 H 162.675 3.00213 -3.49848 0
M  V30 1759 H 166.219 1.80817 -6.73759 0
M  V30 1760 H 162.116 2.68616 -5.86955 0
M  V30 1761 H 162.884 2.1926 -7.88586 0
M  V30 1762 N 165.547 1.27147 0.931209 0
M  V30 1763 C 166.51 1.09615 2.01289 0
M  V30 1764 C 167.51 0.0412581 1.60747 0
M  V30 1765 O 168.7 0.285545 1.71844 0
M  V30 1766 C 165.832 0.669447 3.34262 0
M  V30 1767 H 167.025 2.05662 2.18273 0
M  V30 1768 H 164.578 1.09885 1.11153 0
M  V30 1769 H 165.313 -0.292572 3.22978 0
M  V30 1770 H 165.098 1.43127 3.65044 0
M  V30 1771 H 166.588 0.568921 4.13706 0
M  V30 1772 N 167.025 -1.13721 1.09112 0
M  V30 1773 C 167.972 -2.19031 0.727591 0
M  V30 1774 C 168.942 -1.63555 -0.289656 0
M  V30 1775 O 170.127 -1.90023 -0.172026 0
M  V30 1776 C 167.267 -3.4477 0.15082 0
M  V30 1777 C 166.38 -4.14365 1.22172 0
M  V30 1778 C 165.515 -5.27709 0.608042 0
M  V30 1779 C 164.554 -5.89147 1.66047 0
M  V30 1780 N 163.691 -6.93929 1.06806 0
M  V30 1781 H 168.531 -2.49475 1.62991 0
M  V30 1782 H 166.068 -1.22499 0.81439 0
M  V30 1783 H 168.026 -4.16714 -0.201358 0
M  V30 1784 H 166.656 -3.14787 -0.714783 0
M  V30 1785 H 165.708 -3.40737 1.69122 0
M  V30 1786 H 167.02 -4.56114 2.01895 0
M  V30 1787 H 166.174 -6.06355 0.204523 0
M  V30 1788 H 164.913 -4.872 -0.220769 0
M  V30 1789 H 163.918 -5.09198 2.07357 0
M  V30 1790 H 165.143 -6.31729 2.49189 0
M  V30 1791 H 163.089 -6.55483 0.260476 0
M  V30 1792 H 163.006 -7.34202 1.8023 0
M  V30 1793 H 164.274 -7.76434 0.690644 0
M  V30 1794 N 168.503 -0.877838 -1.30888 0
M  V30 1795 C 169.45 -0.337538 -2.28318 0
M  V30 1796 C 170.42 0.568346 -1.56074 0
M  V30 1797 O 171.605 0.498298 -1.84178 0
M  V30 1798 C 168.745 0.448142 -3.42178 0
M  V30 1799 C 167.858 -0.48615 -4.29256 0
M  V30 1800 C 166.993 0.314427 -5.30269 0
M  V30 1801 C 166.032 -0.615791 -6.08995 0
M  V30 1802 N 165.169 0.14902 -7.01942 0
M  V30 1803 H 170.009 -1.17356 -2.73919 0
M  V30 1804 H 167.546 -0.590094 -1.34745 0
M  V30 1805 H 169.504 0.919517 -4.06941 0
M  V30 1806 H 168.134 1.24879 -2.97666 0
M  V30 1807 H 167.186 -1.076 -3.64865 0
M  V30 1808 H 168.498 -1.19909 -4.84173 0
M  V30 1809 H 167.652 0.847969 -6.00745 0
M  V30 1810 H 166.391 1.06062 -4.76027 0
M  V30 1811 H 165.396 -1.16102 -5.37401 0
M  V30 1812 H 166.621 -1.36097 -6.65323 0
M  V30 1813 H 164.567 0.877884 -6.50099 0
M  V30 1814 H 164.484 -0.504433 -7.54315 0
M  V30 1815 H 165.752 0.663537 -7.76671 0
M  V30 1816 N 169.982 1.44106 -0.638065 0
M  V30 1817 C 170.929 2.30715 0.062701 0
M  V30 1818 C 171.899 1.43882 0.829883 0
M  V30 1819 O 173.084 1.72775 0.809532 0
M  V30 1820 C 170.224 3.29258 1.03358 0
M  V30 1821 C 169.337 4.31192 0.26409 0
M  V30 1822 C 168.472 5.16825 1.22741 0
M  V30 1823 C 167.511 6.10462 0.447475 0
M  V30 1824 N 166.648 6.8877 1.36161 0
M  V30 1825 H 171.488 2.90096 -0.681781 0
M  V30 1826 H 169.025 1.42925 -0.347988 0
M  V30 1827 H 170.983 3.84886 1.60992 0
M  V30 1828 H 169.613 2.71562 1.74511 0
M  V30 1829 H 168.665 3.77981 -0.428295 0
M  V30 1830 H 169.977 4.97619 -0.343052 0
M  V30 1831 H 169.131 5.77004 1.87487 0
M  V30 1832 H 167.87 4.50488 1.86847 0
M  V30 1833 H 166.875 5.49386 -0.213433 0
M  V30 1834 H 168.1 6.78837 -0.188968 0
M  V30 1835 H 166.046 6.25096 1.98975 0
M  V30 1836 H 165.963 7.51663 0.808656 0
M  V30 1837 H 167.231 7.53467 1.99769 0
M  V30 1838 N 171.46 0.379036 1.52974 0
M  V30 1839 C 172.876 0.0285448 1.59574 0
M  V30 1840 C 173.076 -1.45542 1.39355 0
M  V30 1841 O 172.132 -2.2187 1.20541 0
M  V30 1842 C 173.445 0.496535 2.96572 0
M  V30 1843 C 174.993 0.451909 3.0972 0
M  V30 1844 C 175.468 0.895924 4.49152 0
M  V30 1845 N 176.959 0.851522 4.55306 0
M  V30 1846 C 177.694 1.16661 5.61407 0
M  V30 1847 N 177.19 1.55166 6.752 0
M  V30 1848 N 178.983 1.08853 5.51459 0
M  V30 1849 H 171.134 1.34525 1.64367 0
M  V30 1850 H 173.397 0.550733 0.771619 0
M  V30 1851 H 173.103 1.53258 3.16552 0
M  V30 1852 H 172.977 -0.109802 3.7704 0
M  V30 1853 H 175.364 -0.575029 2.89443 0
M  V30 1854 H 175.445 1.09392 2.3123 0
M  V30 1855 H 175.089 1.92104 4.70168 0
M  V30 1856 H 175.019 0.23103 5.26093 0
M  V30 1857 H 177.51 0.568038 3.73606 0
M  V30 1858 H 177.823 1.776 7.52116 0
M  V30 1859 H 176.168 1.59044 6.76557 0
M  V30 1860 H 179.359 0.786803 4.6144 0
M  V30 1861 H 179.532 1.33742 6.34048 0
M  V30 1862 N 172.938 -1.57226 0.108567 0
M  V30 1863 C 174.354 -1.5766 -0.248058 0
M  V30 1864 C 174.554 -1.12063 -1.67464 0
M  V30 1865 O 173.61 -0.803236 -2.39383 0
M  V30 1866 C 174.923 -3.0069 -0.0242287 0
M  V30 1867 C 176.471 -3.12868 -0.0909372 0
M  V30 1868 C 176.946 -4.57879 0.105067 0
M  V30 1869 N 178.437 -4.63172 0.0506846 0
M  V30 1870 C 179.172 -5.73126 0.177396 0
M  V30 1871 N 178.668 -6.91866 0.359696 0
M  V30 1872 N 180.461 -5.61977 0.117709 0
M  V30 1873 H 172.612 -1.85169 1.04049 0
M  V30 1874 H 174.875 -0.85529 0.40888 0
M  V30 1875 H 174.581 -3.38299 0.961604 0
M  V30 1876 H 174.455 -3.6945 -0.76068 0
M  V30 1877 H 176.842 -2.75124 -1.06729 0
M  V30 1878 H 176.923 -2.46672 0.677225 0
M  V30 1879 H 176.567 -4.96321 1.07834 0
M  V30 1880 H 176.497 -5.22153 -0.682954 0
M  V30 1881 H 178.988 -3.778 -0.0871266 0
M  V30 1882 H 179.301 -7.71503 0.447529 0
M  V30 1883 H 177.646 -6.93874 0.395536 0
M  V30 1884 H 180.837 -4.68094 -0.0236741 0
M  V30 1885 H 181.01 -6.47627 0.219905 0
M  V30 1886 N 174.416 0.165178 -1.56732 0
M  V30 1887 C 175.366 1.20917 -1.93295 0
M  V30 1888 C 176.35 1.39488 -0.801985 0
M  V30 1889 O 177.542 1.41356 -1.06525 0
M  V30 1890 C 174.671 2.54718 -2.3016 0
M  V30 1891 C 173.757 2.39815 -3.49785 0
M  V30 1892 N 174.148 1.94637 -4.66851 0
M  V30 1893 C 172.446 2.70623 -3.54513 0
M  V30 1894 C 173.147 1.92344 -5.4898 0
M  V30 1895 N 172.123 2.34978 -4.9019 0
M  V30 1896 H 175.925 0.851675 -2.81289 0
M  V30 1897 H 173.439 0.373399 -1.58049 0
M  V30 1898 H 175.436 3.30165 -2.54552 0
M  V30 1899 H 174.096 2.91265 -1.43508 0
M  V30 1900 H 175.107 1.6488 -4.90953 0
M  V30 1901 H 171.784 3.11167 -2.78354 0
M  V30 1902 H 173.174 1.5906 -6.52801 0
M  V30 1903 N 175.894 1.51508 0.433938 0
M  V30 1904 C 176.826 1.69266 1.54537 0
M  V30 1905 C 177.839 0.573276 1.52373 0
M  V30 1906 O 179.028 0.847698 1.57087 0
M  V30 1907 C 176.128 1.69524 2.93453 0
M  V30 1908 C 175.301 2.98101 3.20085 0
M  V30 1909 C 174.36 2.90502 4.38742 0
M  V30 1910 O 173.386 3.64442 4.3723 0
M  V30 1911 N 174.588 2.06586 5.42496 0
M  V30 1912 H 177.353 2.65145 1.39708 0
M  V30 1913 H 174.914 1.49437 0.622922 0
M  V30 1914 H 176.906 1.62004 3.70859 0
M  V30 1915 H 175.476 0.812245 3.01863 0
M  V30 1916 H 174.696 3.19464 2.30947 0
M  V30 1917 H 175.984 3.83207 3.34708 0
M  V30 1918 H 175.382 1.45896 5.46563 0
M  V30 1919 H 173.939 2.04943 6.18742 0
M  V30 1920 N 177.372 -0.689602 1.41712 0
M  V30 1921 C 178.304 -1.815 1.39966 0
M  V30 1922 C 179.317 -1.59995 0.300917 0
M  V30 1923 O 180.506 -1.69387 0.563039 0
M  V30 1924 C 177.606 -3.18364 1.16179 0
M  V30 1925 C 176.779 -3.66847 2.38206 0
M  V30 1926 C 175.838 -4.82398 2.10186 0
M  V30 1927 O 174.864 -4.93706 2.83272 0
M  V30 1928 N 176.066 -5.70064 1.0958 0
M  V30 1929 H 178.831 -1.83488 2.36965 0
M  V30 1930 H 176.392 -0.872149 1.36401 0
M  V30 1931 H 178.384 -3.93301 0.953756 0
M  V30 1932 H 176.954 -3.11365 0.27756 0
M  V30 1933 H 176.174 -2.82751 2.74673 0
M  V30 1934 H 177.462 -3.95978 3.19498 0
M  V30 1935 H 176.86 -5.63565 0.491019 0
M  V30 1936 H 175.417 -6.44874 0.947656 0
M  V30 1937 N 178.85 -1.27639 -0.924453 0
M  V30 1938 C 180.098 -1.13941 -1.66918 0
M  V30 1939 C 180.419 0.314589 -1.92446 0
M  V30 1940 O 179.689 1.21964 -1.53303 0
M  V30 1941 H 178.269 -0.418678 -0.618642 0
M  V30 1942 H 180.931 -1.60213 -1.10985 0
M  V30 1943 H 180.027 -1.67094 -2.63602 0
M  V30 1944 N 180.328 1.1314 -1.09713 0
M  V30 1945 C 181.26 2.18343 -0.697056 0
M  V30 1946 C 182.273 1.60669 0.262551 0
M  V30 1947 O 183.462 1.78435 0.0481527 0
M  V30 1948 C 180.562 3.38899 -0.00684728 0
M  V30 1949 C 179.735 4.26078 -0.988741 0
M  V30 1950 C 178.794 5.25155 -0.331394 0
M  V30 1951 O 177.82 5.60701 -0.979926 0
M  V30 1952 N 179.022 5.73271 0.913261 0
M  V30 1953 H 181.787 2.5328 -1.60216 0
M  V30 1954 H 179.348 1.28491 -0.984971 0
M  V30 1955 H 181.34 4.02255 0.444191 0
M  V30 1956 H 179.91 3.02175 0.800551 0
M  V30 1957 H 179.13 3.59453 -1.61826 0
M  V30 1958 H 180.418 4.81178 -1.65364 0
M  V30 1959 H 179.816 5.46544 1.45966 0
M  V30 1960 H 178.373 6.3855 1.30757 0
M  V30 1961 N 181.806 0.884767 1.30421 0
M  V30 1962 C 183.054 0.502112 1.95763 0
M  V30 1963 C 183.375 -0.951815 1.70192 0
M  V30 1964 O 182.645 -1.6692 1.0254 0
M  V30 1965 H 181.225 0.182694 0.724315 0
M  V30 1966 H 183.887 1.1278 1.58955 0
M  V30 1967 H 182.983 0.672188 3.04775 0
M  V30 1968 N 183.284 -1.43765 0.645699 0
M  V30 1969 C 184.561 -1.9541 0.0862963 0
M  V30 1970 C 184.941 -1.58725 -1.39175 0
M  V30 1971 O 184.289 -0.868581 -2.11348 0
M  V30 1972 C 184.499 -3.47488 0.324565 0
M  V30 1973 C 185.847 -4.24001 0.225497 0
M  V30 1974 O 186.871 -3.55274 0.256715 0
M  V30 1975 O 185.73 -5.46313 0.142801 0
M  V30 1976 H 182.824 -0.826882 -0.0139483 0
M  V30 1977 H 185.37 -1.53743 0.718415 0
M  V30 1978 H 184.142 -3.67289 1.3496 0
M  V30 1979 H 183.765 -3.96135 -0.340987 0
M  V30 1980 N 184.763 -0.387143 -1.52771 0
M  V30 1981 C 186.04 0.253197 -1.93954 0
M  V30 1982 C 186.42 1.64545 -1.32243 0
M  V30 1983 O 185.768 2.23191 -0.489699 0
M  V30 1984 C 185.978 0.281722 -3.47861 0
M  V30 1985 C 187.326 0.511715 -4.21505 0
M  V30 1986 O 188.35 0.362023 -3.54356 0
M  V30 1987 O 187.209 0.804847 -5.40541 0
M  V30 1988 H 184.303 0.156845 -0.811991 0
M  V30 1989 H 186.849 -0.441494 -1.63856 0
M  V30 1990 H 185.621 -0.693571 -3.85104 0
M  V30 1991 H 185.244 1.02142 -3.84256 0
M  V30 1992 N 186.241 1.57166 -0.116904 0
M  V30 1993 C 187.466 1.999 0.55271 0
M  V30 1994 C 187.891 0.996039 1.59564 0
M  V30 1995 O 187.249 -0.032556 1.81271 0
M  V30 1996 C 187.297 3.4152 1.15742 0
M  V30 1997 O 186.401 3.44106 2.27299 0
M  V30 1998 H 185.742 0.649447 0.138258 0
M  V30 1999 H 188.272 2.03573 -0.204759 0
M  V30 2000 H 188.282 3.79684 1.49346 0
M  V30 2001 H 186.957 4.14034 0.393493 0
M  V30 2002 H 185.534 3.17759 1.9515 0
M  V30 2003 N 187.719 -0.156864 1.56817 0
M  V30 2004 C 188.944 -0.890331 1.87318 0
M  V30 2005 C 189.369 -1.74394 0.704855 0
M  V30 2006 O 188.727 -1.77972 -0.345786 0
M  V30 2007 C 188.775 -1.73102 3.16336 0
M  V30 2008 O 187.879 -2.83422 2.99576 0
M  V30 2009 H 187.22 -0.24857 0.615718 0
M  V30 2010 H 189.75 -0.150649 2.04045 0
M  V30 2011 H 189.76 -2.12803 3.48107 0
M  V30 2012 H 188.435 -1.10412 4.00976 0
M  V30 2013 H 187.012 -2.47199 2.7919 0
M  V30 2014 N 189.197 -1.51736 -0.425897 0
M  V30 2015 C 190.147 -1.70258 -1.51645 0
M  V30 2016 C 191.131 -0.556488 -1.5097 0
M  V30 2017 O 192.323 -0.812879 -1.5723 0
M  V30 2018 C 189.452 -1.84143 -2.89735 0
M  V30 2019 C 188.538 -3.04572 -2.95122 0
M  V30 2020 N 188.929 -4.2756 -2.70233 0
M  V30 2021 C 187.227 -3.04061 -3.26286 0
M  V30 2022 C 187.928 -5.08908 -2.81757 0
M  V30 2023 N 186.904 -4.43797 -3.13919 0
M  V30 2024 H 190.706 -2.63004 -1.31172 0
M  V30 2025 H 188.22 -1.4954 -0.633375 0
M  V30 2026 H 190.217 -1.95525 -3.68206 0
M  V30 2027 H 188.877 -0.925857 -3.1122 0
M  V30 2028 H 189.888 -4.56315 -2.44943 0
M  V30 2029 H 186.565 -2.22179 -3.53473 0
M  V30 2030 H 187.955 -6.16843 -2.66372 0
M  V30 2031 N 190.675 0.682077 -1.42076 0
M  V30 2032 C 191.622 1.79578 -1.44984 0
M  V30 2033 C 192.592 1.6332 -0.302614 0
M  V30 2034 O 193.777 1.83978 -0.505633 0
M  V30 2035 C 190.917 3.1756 -1.35091 0
M  V30 2036 C 190.03 3.45156 -2.59791 0
M  V30 2037 C 189.165 4.72826 -2.42093 0
M  V30 2038 C 188.204 4.93433 -3.62202 0
M  V30 2039 N 187.341 6.12338 -3.43491 0
M  V30 2040 H 192.181 1.76427 -2.40161 0
M  V30 2041 H 189.718 0.861376 -1.19242 0
M  V30 2042 H 191.676 3.97287 -1.27354 0
M  V30 2043 H 190.306 3.19854 -0.435133 0
M  V30 2044 H 189.358 2.59736 -2.77923 0
M  V30 2045 H 190.67 3.5628 -3.49094 0
M  V30 2046 H 189.824 5.60631 -2.319 0
M  V30 2047 H 188.563 4.63973 -1.50268 0
M  V30 2048 H 187.568 4.04073 -3.72834 0
M  V30 2049 H 188.793 5.04136 -4.54998 0
M  V30 2050 H 186.739 6.04672 -2.54377 0
M  V30 2051 H 186.656 6.2429 -4.26377 0
M  V30 2052 H 187.924 7.02841 -3.37097 0
M  V30 2053 N 192.153 1.28127 0.917671 0
M  V30 2054 C 193.1 1.11717 2.0196 0
M  V30 2055 C 194.07 0.0153929 1.66093 0
M  V30 2056 O 195.255 0.179596 1.89953 0
M  V30 2057 C 192.395 0.780927 3.36148 0
M  V30 2058 C 191.508 1.96135 3.84909 0
M  V30 2059 C 190.643 1.56609 5.0759 0
M  V30 2060 C 189.682 2.71339 5.48673 0
M  V30 2061 N 188.819 2.32332 6.62545 0
M  V30 2062 H 193.659 2.06003 2.15329 0
M  V30 2063 H 191.196 1.02535 1.05475 0
M  V30 2064 H 193.154 0.56675 4.13333 0
M  V30 2065 H 191.784 -0.124998 3.22558 0
M  V30 2066 H 190.836 2.28777 3.03916 0
M  V30 2067 H 192.148 2.82165 4.1132 0
M  V30 2068 H 191.302 1.31374 5.92305 0
M  V30 2069 H 190.041 0.677014 4.82978 0
M  V30 2070 H 189.046 2.97276 4.62501 0
M  V30 2071 H 190.271 3.60882 5.75274 0
M  V30 2072 H 188.217 1.45889 6.39572 0
M  V30 2073 H 188.134 3.11899 6.88662 0
M  V30 2074 H 189.402 2.10371 7.50576 0
M  V30 2075 N 193.631 -1.12557 1.10312 0
M  V30 2076 C 194.541 -2.21841 0.763142 0
M  V30 2077 C 195.557 -1.72354 -0.238801 0
M  V30 2078 O 196.733 -2.01249 -0.0778746 0
M  V30 2079 C 193.798 -3.46131 0.198632 0
M  V30 2080 C 192.859 -4.10464 1.25769 0
M  V30 2081 C 192.092 -5.28821 0.72002 0
M  V30 2082 O 192.315 -5.6859 -0.453993 0
M  V30 2083 O 191.249 -5.83437 1.47935 0
M  V30 2084 H 195.075 -2.53312 1.67532 0
M  V30 2085 H 192.66 -1.20867 0.878157 0
M  V30 2086 H 194.542 -4.2125 -0.112401 0
M  V30 2087 H 193.217 -3.16338 -0.686419 0
M  V30 2088 H 192.124 -3.3713 1.62156 0
M  V30 2089 H 193.457 -4.44408 2.11571 0
M  V30 2090 N 195.109 -0.891671 -1.2995 0
M  V30 2091 C 196.525 -0.58662 -1.48428 0
M  V30 2092 C 196.725 0.873951 -1.81561 0
M  V30 2093 O 195.781 1.65471 -1.90724 0
M  V30 2094 C 197.094 -1.50553 -2.60296 0
M  V30 2095 C 198.642 -1.50988 -2.74175 0
M  V30 2096 C 199.117 -2.41488 -3.89163 0
M  V30 2097 N 200.608 -2.39489 -3.96483 0
M  V30 2098 C 201.343 -3.06223 -4.84784 0
M  V30 2099 N 200.839 -3.82206 -5.77833 0
M  V30 2100 N 202.632 -2.95421 -4.78208 0
M  V30 2101 H 194.783 -1.83644 -1.06718 0
M  V30 2102 H 197.046 -0.786455 -0.529332 0
M  V30 2103 H 196.752 -2.54581 -2.42654 0
M  V30 2104 H 196.626 -1.22008 -3.56923 0
M  V30 2105 H 199.013 -0.47708 -2.91218 0
M  V30 2106 H 199.094 -1.83567 -1.78148 0
M  V30 2107 H 198.738 -3.44857 -3.72876 0
M  V30 2108 H 198.668 -2.06222 -4.84541 0
M  V30 2109 H 201.159 -1.84278 -3.29924 0
M  V30 2110 H 201.472 -4.302 -6.41988 0
M  V30 2111 H 199.817 -3.86313 -5.77743 0
M  V30 2112 H 203.008 -2.35581 -4.04499 0
M  V30 2113 H 203.181 -3.47704 -5.46814 0
M  V30 2114 N 196.587 1.43421 -0.653314 0
M  V30 2115 C 197.534 2.30768 0.0382271 0
M  V30 2116 C 198.504 1.44755 0.814576 0
M  V30 2117 O 199.689 1.73624 0.791162 0
M  V30 2118 C 196.829 3.30336 0.998599 0
M  V30 2119 C 195.942 4.31448 0.218342 0
M  V30 2120 C 195.077 5.18098 1.17252 0
M  V30 2121 C 194.116 6.10902 0.382702 0
M  V30 2122 N 193.253 6.90176 1.28848 0
M  V30 2123 H 198.093 2.89357 -0.712511 0
M  V30 2124 H 195.63 1.42548 -0.363128 0
M  V30 2125 H 197.588 3.86572 1.56901 0
M  V30 2126 H 196.218 2.73397 1.71621 0
M  V30 2127 H 195.27 3.77506 -0.46836 0
M  V30 2128 H 196.582 4.97227 -0.395812 0
M  V30 2129 H 195.736 5.7896 1.81356 0
M  V30 2130 H 194.475 4.52444 1.82058 0
M  V30 2131 H 193.48 5.49128 -0.27169 0
M  V30 2132 H 194.705 6.78598 -0.260957 0
M  V30 2133 H 192.651 6.27171 1.92334 0
M  V30 2134 H 192.568 7.52478 0.728887 0
M  V30 2135 H 193.836 7.55543 1.91766 0
M  V30 2136 N 198.065 0.39524 1.52563 0
M  V30 2137 C 199.311 -0.185318 2.01952 0
M  V30 2138 C 199.644 -1.45964 1.28095 0
M  V30 2139 O 198.919 -1.90689 0.38315 0
M  V30 2140 C 199.202 -0.447193 3.57312 0
M  V30 2141 C 199.055 0.842828 4.41833 0
M  V30 2142 C 200.374 -1.23529 4.22408 0
M  V30 2143 H 197.493 -0.0658788 0.73405 0
M  V30 2144 H 200.135 0.525975 1.82575 0
M  V30 2145 H 198.285 -1.05312 3.73954 0
M  V30 2146 H 199.957 1.4795 4.36931 0
M  V30 2147 H 198.2 1.45686 4.08605 0
M  V30 2148 H 198.871 0.614165 5.48573 0
M  V30 2149 H 201.347 -0.722445 4.0978 0
M  V30 2150 H 200.223 -1.38727 5.3108 0
M  V30 2151 H 200.484 -2.25213 3.80436 0
M  V30 2152 N 199.544 -1.57102 0.125237 0
M  V30 2153 C 200.774 -1.99472 -0.538015 0
M  V30 2154 C 201.182 -1.00395 -1.60366 0
M  V30 2155 O 200.525 0.0103875 -1.83697 0
M  V30 2156 C 200.587 -3.38262 -1.21734 0
M  V30 2157 C 200.251 -4.56021 -0.298897 0
M  V30 2158 C 201.248 -5.17817 0.464943 0
M  V30 2159 C 198.933 -5.01869 -0.208149 0
M  V30 2160 C 200.927 -6.23852 1.3072 0
M  V30 2161 C 198.614 -6.07763 0.637736 0
M  V30 2162 C 199.612 -6.68622 1.39403 0
M  V30 2163 O 199.3 -7.7247 2.22586 0
M  V30 2164 H 199.032 -0.659934 -0.146501 0
M  V30 2165 H 201.586 -2.04321 0.210267 0
M  V30 2166 H 199.816 -3.30185 -2.01282 0
M  V30 2167 H 201.505 -3.6488 -1.77813 0
M  V30 2168 H 202.271 -4.83308 0.404741 0
M  V30 2169 H 198.15 -4.54241 -0.786522 0
M  V30 2170 H 201.694 -6.71284 1.898 0
M  V30 2171 H 197.591 -6.41701 0.699309 0
M  V30 2172 H 198.359 -7.89595 2.15596 0
M  V30 2173 N 201.022 0.148545 -1.56898 0
M  V30 2174 C 201.97 1.20265 -1.99096 0
M  V30 2175 C 202.964 1.44559 -0.883123 0
M  V30 2176 O 204.17 1.4487 -1.0683 0
M  V30 2177 H 200.545 0.404786 -0.63376 0
M  V30 2178 H 202.516 0.82004 -2.86911 0
M  V30 2179 C 201.265 2.52886 -2.3863 0
M  V30 2180 H 200.588 2.35021 -3.23427 0
M  V30 2181 H 202.028 3.25274 -2.7198 0
M  V30 2182 C 200.487 3.13315 -1.23837 0
M  V30 2183 O 201.017 3.98077 -0.538268 0
M  V30 2184 N 199.223 2.72742 -1.00301 0
M  V30 2185 H 198.77 2.03912 -1.5741 0
M  V30 2186 H 198.728 3.13507 -0.236838 0
M  V30 2187 N 202.5 1.5196 0.417844 0
M  V30 2188 C 203.777 1.56146 1.17803 0
M  V30 2189 C 204.157 0.337275 2.08388 0
M  V30 2190 O 203.505 -0.676447 2.18258 0
M  V30 2191 C 203.715 2.88566 1.96293 0
M  V30 2192 C 205.063 3.41244 2.52662 0
M  V30 2193 O 206.087 2.90247 2.06483 0
M  V30 2194 O 204.946 4.30273 3.36938 0
M  V30 2195 H 202.04 0.628598 0.537395 0
M  V30 2196 H 204.586 1.64283 0.425331 0
M  V30 2197 H 203.358 3.69116 1.2988 0
M  V30 2198 H 202.981 2.83681 2.78587 0
M  V30 2199 N 203.978 -0.674533 1.42435 0
M  V30 2200 C 205.226 -1.43175 1.42637 0
M  V30 2201 C 205.547 -1.94951 0.0438992 0
M  V30 2202 O 204.817 -1.7308 -0.917607 0
M  V30 2203 H 203.397 -0.531307 0.525092 0
M  V30 2204 H 206.059 -0.797006 1.77859 0
M  V30 2205 H 205.155 -2.28463 2.12629 0
M  V30 2206 N 205.456 -1.28612 -0.910864 0
M  V30 2207 C 206.686 -1.1862 -1.69153 0
M  V30 2208 C 207.094 0.257324 -1.87442 0
M  V30 2209 O 206.437 1.18543 -1.40332 0
M  V30 2210 C 206.499 -1.81606 -3.10257 0
M  V30 2211 C 206.163 -3.30864 -3.15243 0
M  V30 2212 C 207.16 -4.27256 -2.96223 0
M  V30 2213 C 204.845 -3.71871 -3.37664 0
M  V30 2214 C 206.839 -5.62631 -2.99541 0
M  V30 2215 C 204.526 -5.07371 -3.40614 0
M  V30 2216 C 205.524 -6.02561 -3.21573 0
M  V30 2217 O 205.212 -7.35589 -3.2429 0
M  V30 2218 H 204.944 -0.412633 -0.535453 0
M  V30 2219 H 207.498 -1.70306 -1.14827 0
M  V30 2220 H 205.728 -1.24418 -3.66138 0
M  V30 2221 H 207.417 -1.66092 -3.70362 0
M  V30 2222 H 208.183 -3.9691 -2.78725 0
M  V30 2223 H 204.062 -2.98241 -3.5153 0
M  V30 2224 H 207.606 -6.36907 -2.84597 0
M  V30 2225 H 203.503 -5.37366 -3.57642 0
M  V30 2226 H 204.271 -7.44252 -3.40633 0
M  V30 2227 N 206.934 1.1197 -1.10907 0
M  V30 2228 C 208.211 1.79959 -0.766432 0
M  V30 2229 C 208.591 1.97466 0.746363 0
M  V30 2230 O 207.939 1.55491 1.67436 0
M  V30 2231 C 208.149 3.14009 -1.52314 0
M  V30 2232 C 209.497 3.89134 -1.69883 0
M  V30 2233 O 210.521 3.2368 -1.48692 0
M  V30 2234 O 209.38 5.06572 -2.05054 0
M  V30 2235 H 206.474 0.779208 -0.277062 0
M  V30 2236 H 209.02 1.18762 -1.21217 0
M  V30 2237 H 207.792 2.96587 -2.55249 0
M  V30 2238 H 207.415 3.82915 -1.07059 0
M  V30 2239 N 208.412 0.89855 1.29475 0
M  V30 2240 C 209.689 0.443416 1.90508 0
M  V30 2241 C 210.069 -1.07685 1.81569 0
M  V30 2242 O 209.417 -1.9182 1.24166 0
M  V30 2243 C 209.627 0.956708 3.35631 0
M  V30 2244 C 210.975 0.999728 4.12663 0
M  V30 2245 O 211.999 0.904299 3.4453 0
M  V30 2246 O 210.858 1.14289 5.34416 0
M  V30 2247 H 207.952 0.138025 0.815401 0
M  V30 2248 H 210.498 0.98834 1.37949 0
M  V30 2249 H 209.27 2.00067 3.36287 0
M  V30 2250 H 208.893 0.391728 3.95666 0
M  V30 2251 N 209.89 -1.43072 0.660911 0
M  V30 2252 C 211.167 -1.95307 0.107017 0
M  V30 2253 C 211.547 -1.60192 -1.37484 0
M  V30 2254 O 210.895 -0.890949 -2.10415 0
M  V30 2255 C 211.105 -3.47124 0.361402 0
M  V30 2256 C 212.453 -4.23738 0.270455 0
M  V30 2257 O 213.477 -3.54981 0.294382 0
M  V30 2258 O 212.336 -5.46131 0.200737 0
M  V30 2259 H 209.43 -0.826984 -0.00517729 0
M  V30 2260 H 211.976 -1.52972 0.734681 0
M  V30 2261 H 210.748 -3.65837 1.38848 0
M  V30 2262 H 210.371 -3.96475 -0.298953 0
M  V30 2263 N 211.368 -0.403325 -1.52352 0
M  V30 2264 C 212.316 0.439752 -2.28405 0
M  V30 2265 C 213.31 1.05089 -1.32863 0
M  V30 2266 O 214.516 0.989759 -1.50345 0
M  V30 2267 H 210.891 0.160587 -0.734653 0
M  V30 2268 H 212.862 -0.222983 -2.97566 0
M  V30 2269 C 211.611 1.54736 -3.11371 0
M  V30 2270 H 210.934 1.08643 -3.84755 0
M  V30 2271 H 212.374 2.1112 -3.67701 0
M  V30 2272 C 210.833 2.51141 -2.24566 0
M  V30 2273 O 211.363 3.54887 -1.88196 0
M  V30 2274 N 209.569 2.21213 -1.8845 0
M  V30 2275 H 209.116 1.36878 -2.18225 0
M  V30 2276 H 209.074 2.85963 -1.30662 0
M  V30 2277 N 212.846 1.57033 -0.133567 0
M  V30 2278 C 214.076 1.99754 0.527429 0
M  V30 2279 C 214.484 1.01245 1.59832 0
M  V30 2280 O 213.827 -0.000645496 1.837 0
M  V30 2281 C 213.889 3.38903 1.19939 0
M  V30 2282 C 213.553 4.56174 0.274709 0
M  V30 2283 C 214.55 5.17563 -0.492398 0
M  V30 2284 C 212.235 5.01972 0.18153 0
M  V30 2285 C 214.229 6.2315 -1.34027 0
M  V30 2286 C 211.916 6.07416 -0.669958 0
M  V30 2287 C 212.914 6.67874 -1.42947 0
M  V30 2288 O 212.602 7.71279 -2.2668 0
M  V30 2289 H 212.334 0.660702 0.142999 0
M  V30 2290 H 214.888 2.04207 -0.221099 0
M  V30 2291 H 213.118 3.31248 1.99528 0
M  V30 2292 H 214.807 3.65818 1.75875 0
M  V30 2293 H 215.573 4.83087 -0.430367 0
M  V30 2294 H 211.452 4.54652 0.762422 0
M  V30 2295 H 214.996 6.70268 -1.93357 0
M  V30 2296 H 210.893 6.41321 -0.73333 0
M  V30 2297 H 211.661 7.88441 -2.1978 0
M  V30 2298 N 214.325 -0.140222 1.56975 0
M  V30 2299 C 215.602 -0.880769 1.74648 0
M  V30 2300 C 215.982 -1.99036 0.703404 0
M  V30 2301 O 215.33 -2.26821 -0.27648 0
M  V30 2302 C 215.54 -1.417 3.18939 0
M  V30 2303 C 216.888 -1.87774 3.80823 0
M  V30 2304 O 217.912 -1.51427 3.2241 0
M  V30 2305 O 216.771 -2.54827 4.83452 0
M  V30 2306 H 213.865 -0.416713 0.714338 0
M  V30 2307 H 216.411 -0.125618 1.69234 0
M  V30 2308 H 215.183 -0.619902 3.86359 0
M  V30 2309 H 214.806 -2.23546 3.28805 0
M  V30 2310 N 215.803 -1.52179 -0.40978 0
M  V30 2311 C 217.033 -1.69807 -1.17682 0
M  V30 2312 C 217.441 -0.406908 -1.84773 0
M  V30 2313 O 216.784 0.626863 -1.72673 0
M  V30 2314 C 216.846 -2.77712 -2.2829 0
M  V30 2315 C 216.51 -4.19481 -1.81341 0
M  V30 2316 C 217.507 -5.03345 -1.30154 0
M  V30 2317 C 215.192 -4.65713 -1.88194 0
M  V30 2318 C 217.186 -6.31511 -0.864416 0
M  V30 2319 C 214.873 -5.93869 -1.44093 0
M  V30 2320 C 215.871 -6.76597 -0.933023 0
M  V30 2321 O 215.559 -8.02354 -0.49838 0
M  V30 2322 H 215.291 -0.572372 -0.359675 0
M  V30 2323 H 217.845 -1.99511 -0.488311 0
M  V30 2324 H 216.075 -2.43383 -3.00502 0
M  V30 2325 H 217.764 -2.83946 -2.90051 0
M  V30 2326 H 218.53 -4.68819 -1.24232 0
M  V30 2327 H 214.409 -4.01424 -2.26671 0
M  V30 2328 H 217.953 -6.96033 -0.467286 0
M  V30 2329 H 213.85 -6.27903 -1.49694 0
M  V30 2330 H 214.618 -8.16135 -0.621747 0
M  V30 2331 N 217.281 0.66697 -1.42791 0
M  V30 2332 C 218.53 1.42278 -1.42968 0
M  V30 2333 C 218.843 1.9553 -0.0524489 0
M  V30 2334 O 220.049 2.71414 0.068363 0
M  V30 2335 C 218.505 2.57418 -2.51524 0
M  V30 2336 C 218.113 2.10832 -3.9529 0
M  V30 2337 C 219.857 3.34878 -2.60877 0
M  V30 2338 C 217.764 3.23101 -4.95338 0
M  V30 2339 H 216.694 0.534533 -0.531781 0
M  V30 2340 H 219.345 0.721302 -1.68729 0
M  V30 2341 H 217.727 3.29971 -2.18941 0
M  V30 2342 H 218.901 1.4538 -4.37266 0
M  V30 2343 H 217.216 1.46289 -3.89857 0
M  V30 2344 H 219.813 4.18505 -3.32802 0
M  V30 2345 H 220.156 3.81993 -1.6549 0
M  V30 2346 H 220.689 2.69398 -2.92693 0
M  V30 2347 H 217.428 2.80969 -5.9223 0
M  V30 2348 H 216.948 3.87309 -4.57987 0
M  V30 2349 H 218.627 3.88447 -5.17415 0
M  V30 2350 N 218.759 1.29093 0.90403 0
M  V30 2351 C 220.005 1.16986 1.65656 0
M  V30 2352 C 220.338 -0.278925 1.92186 0
M  V30 2353 O 219.613 -1.2019 1.5292 0
M  V30 2354 C 219.896 1.97908 3.0084 0
M  V30 2355 C 219.749 3.50903 2.81403 0
M  V30 2356 C 221.068 1.80208 4.01513 0
M  V30 2357 H 218.187 0.426346 0.601164 0
M  V30 2358 H 220.829 1.58518 1.04747 0
M  V30 2359 H 218.979 1.62616 3.52829 0
M  V30 2360 H 220.651 3.96153 2.36348 0
M  V30 2361 H 218.894 3.76045 2.1627 0
M  V30 2362 H 219.565 4.02791 3.77443 0
M  V30 2363 H 222.041 2.11025 3.58619 0
M  V30 2364 H 220.917 2.39184 4.94047 0
M  V30 2365 H 221.178 0.756119 4.35586 0
M  V30 2366 N 220.237 -1.11381 1.11499 0
M  V30 2367 C 221.184 -2.17439 0.773887 0
M  V30 2368 C 222.154 -1.64132 -0.254899 0
M  V30 2369 O 223.339 -1.90345 -0.13168 0
M  V30 2370 C 220.479 -3.44373 0.223917 0
M  V30 2371 C 219.592 -4.1168 1.30934 0
M  V30 2372 C 218.727 -5.263 0.71984 0
M  V30 2373 C 217.766 -5.85493 1.78507 0
M  V30 2374 N 216.903 -6.91507 1.21502 0
M  V30 2375 H 221.743 -2.45962 1.68246 0
M  V30 2376 H 219.28 -1.20744 0.840191 0
M  V30 2377 H 221.238 -4.17047 -0.112921 0
M  V30 2378 H 219.868 -3.16232 -0.647851 0
M  V30 2379 H 218.92 -3.37073 1.76312 0
M  V30 2380 H 220.232 -4.51729 2.11524 0
M  V30 2381 H 219.386 -6.05785 0.333094 0
M  V30 2382 H 218.125 -4.87559 -0.117377 0
M  V30 2383 H 217.13 -5.04686 2.18111 0
M  V30 2384 H 218.355 -6.26301 2.62533 0
M  V30 2385 H 216.301 -6.54783 0.399455 0
M  V30 2386 H 216.218 -7.30214 1.95763 0
M  V30 2387 H 217.486 -7.74795 0.855181 0
M  V30 2388 N 221.715 -0.905404 -1.28997 0
M  V30 2389 C 222.663 -0.377431 -2.29517 0
M  V30 2390 C 223.657 0.526461 -1.61012 0
M  V30 2391 O 224.863 0.40863 -1.753 0
M  V30 2392 H 221.238 -0.103437 -0.744852 0
M  V30 2393 H 223.209 -1.23848 -2.71485 0
M  V30 2394 C 221.958 0.374833 -3.45674 0
M  V30 2395 H 221.281 -0.311474 -3.98585 0
M  V30 2396 H 222.721 0.70903 -4.1803 0
M  V30 2397 C 221.18 1.57963 -2.97572 0
M  V30 2398 O 221.71 2.67886 -2.99333 0
M  V30 2399 N 219.916 1.42375 -2.53333 0
M  V30 2400 H 219.463 0.529466 -2.521 0
M  V30 2401 H 219.421 2.23117 -2.21509 0
M  V30 2402 N 223.193 1.4272 -0.668489 0
M  V30 2403 C 224.441 2.01226 -0.187769 0
M  V30 2404 C 224.762 1.53092 1.2078 0
M  V30 2405 O 224.032 0.74993 1.80977 0
M  V30 2406 H 222.612 0.744041 -0.0664272 0
M  V30 2407 H 225.274 1.74723 -0.863583 0
M  V30 2408 H 224.37 3.11556 -0.184166 0
M  V30 2409 N 224.671 0.411399 1.52136 0
M  V30 2410 C 225.581 -0.419774 2.30814 0
M  V30 2411 C 226.597 -1.0515 1.38634 0
M  V30 2412 O 227.773 -1.05252 1.71709 0
M  V30 2413 C 224.838 -1.52019 3.11594 0
M  V30 2414 C 223.899 -0.91129 4.19516 0
M  V30 2415 C 223.132 -1.95927 4.96436 0
M  V30 2416 O 223.355 -3.17775 4.73683 0
M  V30 2417 O 222.289 -1.56423 5.81219 0
M  V30 2418 H 226.115 0.221805 3.02889 0
M  V30 2419 H 223.7 0.174547 1.48377 0
M  V30 2420 H 225.582 -2.15898 3.61892 0
M  V30 2421 H 224.257 -2.14633 2.42311 0
M  V30 2422 H 223.164 -0.235157 3.7336 0
M  V30 2423 H 224.497 -0.32904 4.91099 0
M  V30 2424 N 226.149 -1.5696 0.141893 0
M  V30 2425 C 227.096 -2.16501 -0.799737 0
M  V30 2426 C 228.066 -1.09643 -1.24771 0
M  V30 2427 O 229.251 -1.3766 -1.32115 0
M  V30 2428 C 226.391 -2.78679 -2.03549 0
M  V30 2429 C 225.504 -3.99914 -1.6338 0
M  V30 2430 C 224.639 -4.50106 -2.82096 0
M  V30 2431 C 223.678 -5.63819 -2.38275 0
M  V30 2432 N 222.815 -6.08651 -3.49983 0
M  V30 2433 H 227.655 -2.96632 -0.285179 0
M  V30 2434 H 225.192 -1.46533 -0.129053 0
M  V30 2435 H 227.15 -3.1287 -2.75986 0
M  V30 2436 H 225.78 -2.012 -2.52425 0
M  V30 2437 H 224.832 -3.71735 -0.807279 0
M  V30 2438 H 226.144 -4.82311 -1.27192 0
M  V30 2439 H 225.298 -4.86325 -3.62729 0
M  V30 2440 H 224.037 -3.66706 -3.21525 0
M  V30 2441 H 223.042 -5.2718 -1.56081 0
M  V30 2442 H 224.267 -6.49 -1.99938 0
M  V30 2443 H 222.213 -5.28188 -3.89042 0
M  V30 2444 H 222.13 -6.85961 -3.17794 0
M  V30 2445 H 223.398 -6.49515 -4.30988 0
M  V30 2446 N 227.627 0.131896 -1.57047 0
M  V30 2447 C 228.873 0.838268 -1.85323 0
M  V30 2448 C 229.228 1.78098 -0.727937 0
M  V30 2449 O 228.521 1.89645 0.27304 0
M  V30 2450 C 228.715 1.63703 -3.17704 0
M  V30 2451 C 228.544 0.773167 -4.43004 0
M  V30 2452 C 227.314 0.432956 -5.03442 0
M  V30 2453 C 229.512 0.0966216 -5.14209 0
M  V30 2454 N 227.494 -0.442924 -6.123 0
M  V30 2455 C 228.865 -0.638778 -6.16701 0
M  V30 2456 C 230.92 0.018861 -4.97896 0
M  V30 2457 C 229.623 -1.44462 -7.04644 0
M  V30 2458 C 231.649 -0.773762 -5.86316 0
M  V30 2459 C 231.011 -1.4974 -6.883 0
M  V30 2460 H 227.11 0.284086 -0.728573 0
M  V30 2461 H 229.694 0.102731 -1.94429 0
M  V30 2462 H 227.865 2.3437 -3.09718 0
M  V30 2463 H 229.597 2.28774 -3.33833 0
M  V30 2464 H 226.352 0.772237 -4.67262 0
M  V30 2465 H 226.776 -0.872332 -6.71356 0
M  V30 2466 H 231.418 0.56397 -4.19022 0
M  V30 2467 H 229.136 -2.00093 -7.82936 0
M  V30 2468 H 232.722 -0.83612 -5.75761 0
M  V30 2469 H 231.602 -2.10087 -7.55535 0
M  V30 2470 N 229.106 1.52395 0.401703 0
M  V30 2471 C 230.039 1.70999 1.51111 0
M  V30 2472 C 231.017 0.55765 1.52738 0
M  V30 2473 O 232.201 0.785912 1.71335 0
M  V30 2474 C 229.328 1.75607 2.8962 0
M  V30 2475 C 228.374 2.97227 3.05873 0
M  V30 2476 S 229.207 4.57439 2.78405 0
M  V30 2477 C 230.363 4.64844 4.19131 0
M  V30 2478 H 230.596 2.6483 1.35102 0
M  V30 2479 H 228.129 1.42527 0.593762 0
M  V30 2480 H 230.087 1.78947 3.69443 0
M  V30 2481 H 228.748 0.828914 3.02965 0
M  V30 2482 H 227.941 2.96955 4.07227 0
M  V30 2483 H 227.543 2.91813 2.33925 0
M  V30 2484 H 229.835 4.42677 5.12877 0
M  V30 2485 H 230.778 5.66807 4.24424 0
M  V30 2486 H 231.186 3.93804 4.04448 0
M  V30 2487 N 230.584 -0.659388 1.43143 0
M  V30 2488 C 231.861 -1.41627 1.34912 0
M  V30 2489 C 232.241 -2.11099 -0.00607785 0
M  V30 2490 O 231.589 -2.04353 -1.02236 0
M  V30 2491 C 231.799 -2.40604 2.52805 0
M  V30 2492 C 233.147 -3.04789 2.95616 0
M  V30 2493 O 234.171 -2.50932 2.52807 0
M  V30 2494 O 233.03 -4.02421 3.69756 0
M  V30 2495 H 230.124 -0.63246 0.532844 0
M  V30 2496 H 232.67 -0.686814 1.5518 0
M  V30 2497 H 231.442 -1.88174 3.43083 0
M  V30 2498 H 231.065 -3.21009 2.34604 0
M  V30 2499 N 232.062 -1.29571 -0.897171 0
M  V30 2500 C 233.478 -1.07637 -1.17841 0
M  V30 2501 C 233.678 0.170713 -2.00776 0
M  V30 2502 O 232.734 0.867768 -2.3712 0
M  V30 2503 C 234.047 -2.3332 -1.8969 0
M  V30 2504 C 235.595 -2.38664 -2.02505 0
M  V30 2505 C 236.07 -3.64157 -2.77765 0
M  V30 2506 N 237.561 -3.64894 -2.85318 0
M  V30 2507 C 238.296 -4.58679 -3.44094 0
M  V30 2508 N 237.792 -5.62799 -4.04017 0
M  V30 2509 N 239.585 -4.46245 -3.41793 0
M  V30 2510 H 231.736 -2.09598 -0.343883 0
M  V30 2511 H 233.999 -0.923333 -0.214848 0
M  V30 2512 H 233.705 -3.24262 -1.36187 0
M  V30 2513 H 233.579 -2.41025 -2.9015 0
M  V30 2514 H 235.966 -1.48208 -2.55183 0
M  V30 2515 H 236.047 -2.34943 -1.01171 0
M  V30 2516 H 235.691 -4.54965 -2.25763 0
M  V30 2517 H 235.621 -3.65137 -3.7945 0
M  V30 2518 H 238.112 -2.89613 -2.42761 0
M  V30 2519 H 238.425 -6.3048 -4.46895 0
M  V30 2520 H 236.77 -5.66605 -4.02472 0
M  V30 2521 H 239.961 -3.64094 -2.94199 0
M  V30 2522 H 240.134 -5.19518 -3.87304 0
M  V30 2523 N 233.54 1.10788 -1.12088 0
M  V30 2524 C 234.77 1.86191 -0.895351 0
M  V30 2525 C 235.178 1.80763 0.558702 0
M  V30 2526 O 234.521 1.19188 1.39785 0
M  V30 2527 C 234.583 3.35659 -1.28737 0
M  V30 2528 C 234.247 3.64849 -2.75198 0
M  V30 2529 C 235.244 3.61757 -3.734 0
M  V30 2530 C 232.929 3.93641 -3.12013 0
M  V30 2531 C 234.923 3.87045 -5.06434 0
M  V30 2532 C 232.61 4.18585 -4.4523 0
M  V30 2533 C 233.608 4.15277 -5.42249 0
M  V30 2534 O 233.296 4.3959 -6.73065 0
M  V30 2535 H 233.028 0.595425 -0.32007 0
M  V30 2536 H 235.582 1.40992 -1.49367 0
M  V30 2537 H 233.812 3.81497 -0.63224 0
M  V30 2538 H 235.501 3.92441 -1.03656 0
M  V30 2539 H 236.267 3.39557 -3.46303 0
M  V30 2540 H 232.146 3.95348 -2.37109 0
M  V30 2541 H 235.69 3.84378 -5.82151 0
M  V30 2542 H 231.587 4.40264 -4.72057 0
M  V30 2543 H 232.355 4.57123 -6.78956 0
M  V30 2544 N 235.018 0.912232 1.28515 0
M  V30 2545 C 235.928 0.404506 2.31086 0
M  V30 2546 C 236.944 -0.50707 1.66448 0
M  V30 2547 O 238.12 -0.393624 1.97516 0
M  V30 2548 C 235.185 -0.348572 3.44943 0
M  V30 2549 C 234.246 0.59604 4.25142 0
M  V30 2550 C 233.479 -0.121194 5.33562 0
M  V30 2551 O 233.702 -1.34317 5.5436 0
M  V30 2552 O 232.636 0.542716 5.99448 0
M  V30 2553 H 236.462 1.25579 2.76521 0
M  V30 2554 H 234.047 0.676998 1.33181 0
M  V30 2555 H 235.929 -0.77395 4.14232 0
M  V30 2556 H 234.604 -1.17571 3.01594 0
M  V30 2557 H 233.511 1.07079 3.58448 0
M  V30 2558 H 234.844 1.38995 4.72167 0
M  V30 2559 N 236.496 -1.42363 0.676048 0
M  V30 2560 C 237.745 -2.00745 0.196037 0
M  V30 2561 C 238.058 -1.54083 -1.20489 0
M  V30 2562 O 239.264 -2.04891 -1.78134 0
M  V30 2563 C 237.72 -3.58651 0.299616 0
M  V30 2564 C 237.328 -4.143 1.70468 0
M  V30 2565 C 239.072 -4.24326 -0.121619 0
M  V30 2566 C 236.979 -5.64574 1.76096 0
M  V30 2567 H 235.909 -0.750787 0.0695301 0
M  V30 2568 H 238.56 -1.63072 0.841412 0
M  V30 2569 H 236.942 -3.93833 -0.413673 0
M  V30 2570 H 238.116 -3.90575 2.44515 0
M  V30 2571 H 236.431 -3.61081 2.07387 0
M  V30 2572 H 239.028 -5.34607 -0.0997362 0
M  V30 2573 H 239.371 -3.99897 -1.15708 0
M  V30 2574 H 239.904 -3.94108 0.540706 0
M  V30 2575 H 236.643 -5.93804 2.77628 0
M  V30 2576 H 236.163 -5.90286 1.06406 0
M  V30 2577 H 237.842 -6.29013 1.51496 0
M  V30 2578 N 237.974 -0.419461 -1.51915 0
M  V30 2579 C 239.251 0.211999 -1.94448 0
M  V30 2580 C 239.631 1.61703 -1.35703 0
M  V30 2581 O 238.979 2.22102 -0.536931 0
M  V30 2582 C 239.189 0.207872 -3.4838 0
M  V30 2583 C 240.537 0.422192 -4.22496 0
M  V30 2584 O 241.561 0.286778 -3.55044 0
M  V30 2585 O 240.42 0.690009 -5.42126 0
M  V30 2586 H 237.514 0.139586 -0.815135 0
M  V30 2587 H 240.06 -0.476151 -1.62883 0
M  V30 2588 H 238.832 -0.775102 -3.83546 0
M  V30 2589 H 238.455 0.939688 -3.86336 0
M  V30 2590 N 239.452 1.56882 -0.150215 0
M  V30 2591 C 240.677 2.01027 0.510184 0
M  V30 2592 C 241.102 1.02966 1.57415 0
M  V30 2593 O 240.46 0.00590158 1.81299 0
M  V30 2594 C 240.508 3.43899 1.08472 0
M  V30 2595 O 239.612 3.4885 2.19948 0
M  V30 2596 H 238.953 0.652233 0.124451 0
M  V30 2597 H 241.483 2.03093 -0.247894 0
M  V30 2598 H 241.493 3.82766 1.41259 0
M  V30 2599 H 240.168 4.14776 0.305582 0
M  V30 2600 H 238.745 3.21827 1.88366 0
M  V30 2601 N 240.93 -0.123565 1.57115 0
M  V30 2602 C 241.86 -1.15309 2.03042 0
M  V30 2603 C 242.841 -1.43454 0.914061 0
M  V30 2604 O 244.026 -1.53973 1.18347 0
M  V30 2605 C 241.156 -2.48043 2.43089 0
M  V30 2606 C 240.11 -2.3437 3.58127 0
M  V30 2607 C 239.436 -3.72026 3.84059 0
M  V30 2608 C 240.736 -1.80804 4.90007 0
M  V30 2609 H 242.43 -0.771102 2.893 0
M  V30 2610 H 239.976 -0.369479 1.39179 0
M  V30 2611 H 241.929 -3.20311 2.73823 0
M  V30 2612 H 240.653 -2.88122 1.53796 0
M  V30 2613 H 239.312 -1.64551 3.27595 0
M  V30 2614 H 238.96 -4.09582 2.91979 0
M  V30 2615 H 238.66 -3.63732 4.6149 0
M  V30 2616 H 240.184 -4.45806 4.1724 0
M  V30 2617 H 241.598 -2.42886 5.19307 0
M  V30 2618 H 239.995 -1.83343 5.71407 0
M  V30 2619 H 241.065 -0.76528 4.78823 0
M  V30 2620 N 242.408 -1.52605 -0.393616 0
M  V30 2621 C 243.657 -1.66649 -1.13627 0
M  V30 2622 C 243.97 -0.410364 -1.91247 0
M  V30 2623 O 245.176 -0.430854 -2.68059 0
M  V30 2624 C 243.632 -2.9449 -2.06891 0
M  V30 2625 C 243.24 -4.27266 -1.34714 0
M  V30 2626 C 244.984 -3.17899 -2.81319 0
M  V30 2627 C 242.891 -5.46217 -2.26717 0
M  V30 2628 H 241.821 -0.62084 -0.427871 0
M  V30 2629 H 244.472 -1.791 -0.399428 0
M  V30 2630 H 242.854 -2.75774 -2.84191 0
M  V30 2631 H 244.028 -4.56518 -0.626714 0
M  V30 2632 H 242.343 -4.10081 -0.722643 0
M  V30 2633 H 244.94 -4.03949 -3.50328 0
M  V30 2634 H 245.283 -2.32777 -3.45139 0
M  V30 2635 H 245.816 -3.37159 -2.11113 0
M  V30 2636 H 242.555 -6.33733 -1.67521 0
M  V30 2637 H 242.075 -5.21283 -2.96689 0
M  V30 2638 H 243.754 -5.7991 -2.86903 0
M  V30 2639 N 243.887 0.651787 -1.4349 0
M  V30 2640 C 245.135 1.40888 -1.44897 0
M  V30 2641 C 245.456 1.94856 -0.0749086 0
M  V30 2642 O 244.726 1.74518 0.889956 0
M  V30 2643 H 243.306 0.522887 -0.533478 0
M  V30 2644 H 245.968 0.768609 -1.79104 0
M  V30 2645 H 245.064 2.25052 -2.16236 0
M  V30 2646 N 245.365 1.30045 0.890287 0
M  V30 2647 C 246.312 1.15976 1.99545 0
M  V30 2648 C 247.282 0.0506202 1.66023 0
M  V30 2649 O 248.467 0.219847 1.89529 0
M  V30 2650 C 245.607 0.852054 3.34416 0
M  V30 2651 C 244.72 2.04255 3.80662 0
M  V30 2652 C 243.855 1.6734 5.04154 0
M  V30 2653 C 242.894 2.82916 5.42794 0
M  V30 2654 N 242.031 2.46333 6.57468 0
M  V30 2655 H 246.871 2.10524 2.10911 0
M  V30 2656 H 244.408 1.04749 1.03276 0
M  V30 2657 H 246.366 0.654296 4.12037 0
M  V30 2658 H 244.996 -0.0565502 3.2275 0
M  V30 2659 H 244.048 2.35172 2.98995 0
M  V30 2660 H 245.36 2.90826 4.05242 0
M  V30 2661 H 244.514 1.43908 5.89386 0
M  V30 2662 H 243.253 0.779308 4.81433 0
M  V30 2663 H 242.258 3.0702 4.56091 0
M  V30 2664 H 243.483 3.73004 5.6749 0
M  V30 2665 H 241.429 1.59423 6.36334 0
M  V30 2666 H 241.346 3.26436 6.81891 0
M  V30 2667 H 242.614 2.26244 7.45945 0
M  V30 2668 N 246.843 -1.10192 1.12674 0
M  V30 2669 C 248.091 -1.81845 0.881861 0
M  V30 2670 C 248.412 -1.85737 -0.593867 0
M  V30 2671 O 247.682 -1.33724 -1.4316 0
M  V30 2672 H 246.262 -0.673432 0.323261 0
M  V30 2673 H 248.924 -1.33316 1.42172 0
M  V30 2674 H 248.02 -2.85288 1.2656 0
M  V30 2675 N 248.321 -0.919034 -1.28029 0
M  V30 2676 C 249.546 -0.570357 -1.99403 0
M  V30 2677 C 249.971 0.842486 -1.68178 0
M  V30 2678 O 249.329 1.56391 -0.917141 0
M  V30 2679 C 249.377 -0.792541 -3.51783 0
M  V30 2680 O 248.481 0.145988 -4.12142 0
M  V30 2681 H 247.822 -0.220555 -0.6263 0
M  V30 2682 H 250.352 -1.23592 -1.63053 0
M  V30 2683 H 250.362 -0.704708 -4.01868 0
M  V30 2684 H 249.037 -1.82247 -3.73844 0
M  V30 2685 H 247.614 0.00897528 -3.72899 0
M  V30 2686 N 249.799 1.42003 -0.683588 0
M  V30 2687 C 251.046 2.01413 -0.209514 0
M  V30 2688 C 251.374 1.54088 1.1869 0
M  V30 2689 O 250.629 0.737591 1.81268 0
M  V30 2690 C 250.928 3.56827 -0.202357 0
M  V30 2691 C 250.594 4.23617 -1.54464 0
M  V30 2692 C 249.256 4.41577 -1.91215 0
M  V30 2693 C 251.608 4.61178 -2.42826 0
M  V30 2694 C 248.936 4.9437 -3.15935 0
M  V30 2695 C 251.288 5.15355 -3.66867 0
M  V30 2696 C 249.952 5.31528 -4.03776 0
M  V30 2697 H 249.222 0.737023 -0.0766668 0
M  V30 2698 H 251.869 1.70067 -0.880312 0
M  V30 2699 H 250.174 3.87892 0.551969 0
M  V30 2700 H 251.871 4.00588 0.181793 0
M  V30 2701 H 248.461 4.10004 -1.24877 0
M  V30 2702 H 252.645 4.46968 -2.15717 0
M  V30 2703 H 247.901 5.05076 -3.44541 0
M  V30 2704 H 252.075 5.43402 -4.35531 0
M  V30 2705 H 249.702 5.72199 -5.00492 0
M  V30 2706 N 251.277 0.427512 1.51691 0
M  V30 2707 C 252.525 -0.141948 2.01601 0
M  V30 2708 C 252.846 -1.44067 1.31414 0
M  V30 2709 O 252.116 -1.90763 0.445658 0
M  V30 2710 H 250.696 -0.0554468 0.744939 0
M  V30 2711 H 253.358 0.567968 1.86441 0
M  V30 2712 H 252.454 -0.324913 3.10404 0
M  V30 2713 N 252.755 -1.56801 0.158532 0
M  V30 2714 C 253.687 -2.14488 -0.807923 0
M  V30 2715 C 254.7 -1.09721 -1.20271 0
M  V30 2716 O 255.889 -1.36956 -1.14478 0
M  V30 2717 C 252.989 -2.66217 -2.09718 0
M  V30 2718 C 252.162 -3.95507 -1.86796 0
M  V30 2719 C 251.221 -4.3243 -2.99818 0
M  V30 2720 O 250.247 -5.00543 -2.71008 0
M  V30 2721 N 251.449 -3.92947 -4.27285 0
M  V30 2722 H 254.214 -2.98042 -0.314816 0
M  V30 2723 H 251.775 -1.61881 -0.0246692 0
M  V30 2724 H 253.767 -2.87924 -2.84398 0
M  V30 2725 H 252.337 -1.87324 -2.50257 0
M  V30 2726 H 251.557 -3.82309 -0.96089 0
M  V30 2727 H 252.845 -4.79972 -1.68833 0
M  V30 2728 H 252.243 -3.38087 -4.53557 0
M  V30 2729 H 250.8 -4.19681 -4.9871 0
M  V30 2730 N 254.233 0.115231 -1.57178 0
M  V30 2731 C 255.479 0.82357 -1.85325 0
M  V30 2732 C 255.812 1.79349 -0.744814 0
M  V30 2733 O 255.087 1.92899 0.249024 0
M  V30 2734 C 255.37 1.57014 -3.24066 0
M  V30 2735 C 255.223 0.619565 -4.45513 0
M  V30 2736 C 256.542 2.52545 -3.60429 0
M  V30 2737 H 253.661 0.297948 -0.674089 0
M  V30 2738 H 256.303 0.0877138 -1.89797 0
M  V30 2739 H 254.453 2.19742 -3.20383 0
M  V30 2740 H 256.125 0.000837639 -4.613 0
M  V30 2741 H 254.368 -0.0686174 -4.33746 0
M  V30 2742 H 255.039 1.17866 -5.3927 0
M  V30 2743 H 257.515 1.9992 -3.64926 0
M  V30 2744 H 256.391 3.01811 -4.58477 0
M  V30 2745 H 256.652 3.35383 -2.88047 0
M  V30 2746 N 255.711 1.52812 0.385517 0
M  V30 2747 C 256.957 1.68275 1.13188 0
M  V30 2748 C 257.29 0.423179 1.89533 0
M  V30 2749 O 256.565 -0.579113 1.85679 0
M  V30 2750 C 256.848 2.92001 2.1073 0
M  V30 2751 C 256.701 4.28067 1.38125 0
M  V30 2752 C 258.02 3.11283 3.11113 0
M  V30 2753 H 255.139 0.612352 0.410115 0
M  V30 2754 H 257.781 1.85415 0.414869 0
M  V30 2755 H 255.931 2.77519 2.71874 0
M  V30 2756 H 257.603 4.54324 0.799187 0
M  V30 2757 H 255.846 4.28388 0.683092 0
M  V30 2758 H 256.517 5.10733 2.09417 0
M  V30 2759 H 258.993 3.2482 2.6006 0
M  V30 2760 H 257.869 3.99325 3.76605 0
M  V30 2761 H 258.13 2.25656 3.80173 0
M  V30 2762 N 257.189 -0.644168 1.43834 0
M  V30 2763 C 258.136 -1.75671 1.49694 0
M  V30 2764 C 259.106 -1.6246 0.345809 0
M  V30 2765 O 260.291 -1.82573 0.554234 0
M  V30 2766 C 257.431 -3.13867 1.43463 0
M  V30 2767 C 256.544 -3.38147 2.6885 0
M  V30 2768 C 255.679 -4.66241 2.54544 0
M  V30 2769 C 254.718 -4.83657 3.75157 0
M  V30 2770 N 253.855 -6.03016 3.59605 0
M  V30 2771 H 258.695 -1.69998 2.44754 0
M  V30 2772 H 256.232 -0.829458 1.21484 0
M  V30 2773 H 258.19 -3.9377 1.37843 0
M  V30 2774 H 256.82 -3.18588 0.519783 0
M  V30 2775 H 255.872 -2.52276 2.84712 0
M  V30 2776 H 257.184 -3.46899 3.58417 0
M  V30 2777 H 256.338 -5.54285 2.46683 0
M  V30 2778 H 255.077 -4.59826 1.62516 0
M  V30 2779 H 254.082 -3.94046 3.83416 0
M  V30 2780 H 255.307 -4.91896 4.68204 0
M  V30 2781 H 253.253 -5.97715 2.7032 0
M  V30 2782 H 253.17 -6.12766 4.42779 0
M  V30 2783 H 254.438 -6.93657 3.55613 0
M  V30 2784 N 258.668 -1.30515 -0.883378 0
M  V30 2785 C 259.631 -1.1701 -1.97082 0
M  V30 2786 C 260.631 -0.10089 -1.60483 0
M  V30 2787 O 261.821 -0.349127 -1.70666 0
M  V30 2788 C 258.953 -0.793045 -3.31547 0
M  V30 2789 H 260.146 -2.13622 -2.10489 0
M  V30 2790 H 257.699 -1.13935 -1.06998 0
M  V30 2791 H 258.434 0.172499 -3.23841 0
M  V30 2792 H 258.219 -1.56576 -3.5948 0
M  V30 2793 H 259.709 -0.722073 -4.1131 0
M  V30 2794 N 260.146 1.09593 -1.13257 0
M  V30 2795 C 261.376 1.85231 -0.915049 0
M  V30 2796 C 261.784 1.81345 0.539498 0
M  V30 2797 O 261.127 1.20664 1.38513 0
M  V30 2798 C 261.189 3.34275 -1.3229 0
M  V30 2799 C 260.853 3.6191 -2.79052 0
M  V30 2800 C 261.85 3.57777 -3.77216 0
M  V30 2801 C 259.535 3.90309 -3.16171 0
M  V30 2802 C 261.529 3.81652 -5.1051 0
M  V30 2803 C 259.216 4.13839 -4.49644 0
M  V30 2804 C 260.214 4.09502 -5.46623 0
M  V30 2805 O 259.902 4.32426 -6.77689 0
M  V30 2806 H 259.634 0.591997 -0.326367 0
M  V30 2807 H 262.188 1.394 -1.50854 0
M  V30 2808 H 260.418 3.80805 -0.672667 0
M  V30 2809 H 262.107 3.9132 -1.07812 0
M  V30 2810 H 262.873 3.35865 -3.49885 0
M  V30 2811 H 258.752 3.92811 -2.41289 0
M  V30 2812 H 262.296 3.78182 -5.86195 0
M  V30 2813 H 258.193 4.35232 -4.767 0
M  V30 2814 H 258.961 4.49896 -6.83766 0
M  V30 2815 N 261.624 0.925811 1.2754 0
M  V30 2816 C 262.901 0.483726 1.89524 0
M  V30 2817 C 263.281 -1.03809 1.83812 0
M  V30 2818 O 262.629 -1.89143 1.28207 0
M  V30 2819 C 262.839 1.02769 3.33526 0
M  V30 2820 C 264.187 1.08703 4.10449 0
M  V30 2821 O 265.211 0.977175 3.42534 0
M  V30 2822 O 264.07 1.25599 5.31871 0
M  V30 2823 H 261.164 0.15529 0.812289 0
M  V30 2824 H 263.71 1.01738 1.35822 0
M  V30 2825 H 262.482 2.07155 3.31967 0
M  V30 2826 H 262.105 0.475567 3.94746 0
M  V30 2827 N 263.102 -1.41638 0.69111 0
M  V30 2828 C 264.518 -1.55435 0.362224 0
M  V30 2829 C 264.718 -1.66754 -1.13117 0
M  V30 2830 O 263.774 -1.64348 -1.91692 0
M  V30 2831 C 265.087 -2.79588 1.10684 0
M  V30 2832 C 266.635 -2.9338 1.09075 0
M  V30 2833 C 267.11 -4.20414 1.81703 0
M  V30 2834 N 268.601 -4.27362 1.7865 0
M  V30 2835 C 269.336 -5.24507 2.31689 0
M  V30 2836 N 268.832 -6.27708 2.93179 0
M  V30 2837 N 270.625 -5.16416 2.2197 0
M  V30 2838 H 262.776 -1.32536 1.65976 0
M  V30 2839 H 265.039 -0.639115 0.700168 0
M  V30 2840 H 264.745 -2.77419 2.16175 0
M  V30 2841 H 264.619 -3.70973 0.682545 0
M  V30 2842 H 267.006 -2.95067 0.0441238 0
M  V30 2843 H 267.087 -2.0318 1.55407 0
M  V30 2844 H 266.731 -4.19488 2.86343 0
M  V30 2845 H 266.661 -5.09578 1.32808 0
M  V30 2846 H 269.152 -3.53415 1.33815 0
M  V30 2847 H 269.465 -6.98217 3.31229 0
M  V30 2848 H 267.81 -6.28223 2.97255 0
M  V30 2849 H 271.001 -4.34716 1.73607 0
M  V30 2850 H 271.174 -5.91958 2.63609 0
M  V30 2851 N 264.58 -0.43555 -1.51462 0
M  V30 2852 C 265.826 0.131709 -2.02372 0
M  V30 2853 C 266.159 1.42516 -1.3192 0
M  V30 2854 O 265.434 1.89606 -0.433573 0
M  V30 2855 C 265.717 0.352301 -3.58373 0
M  V30 2856 C 265.57 -0.959676 -4.39443 0
M  V30 2857 C 266.889 1.12286 -4.25535 0
M  V30 2858 H 264.008 0.0463936 -0.735538 0
M  V30 2859 H 266.65 -0.574197 -1.81116 0
M  V30 2860 H 264.8 0.9536 -3.76615 0
M  V30 2861 H 266.472 -1.59482 -4.32855 0
M  V30 2862 H 264.715 -1.56468 -4.04599 0
M  V30 2863 H 265.386 -0.759394 -5.46752 0
M  V30 2864 H 267.862 0.613545 -4.11552 0
M  V30 2865 H 266.738 1.24598 -5.34571 0
M  V30 2866 H 266.999 2.15048 -3.86273 0
M  V30 2867 N 266.058 1.56714 -0.166846 0
M  V30 2868 C 266.968 2.21331 0.777791 0
M  V30 2869 C 267.984 1.20358 1.25658 0
M  V30 2870 O 269.16 1.53005 1.30964 0
M  V30 2871 C 266.225 2.83787 1.99163 0
M  V30 2872 C 265.286 3.99947 1.56016 0
M  V30 2873 C 264.519 4.59415 2.71613 0
M  V30 2874 O 264.742 4.17769 3.88362 0
M  V30 2875 O 263.676 5.49359 2.45945 0
M  V30 2876 H 267.502 3.02605 0.257636 0
M  V30 2877 H 265.087 1.49275 0.0611393 0
M  V30 2878 H 266.969 3.23405 2.70161 0
M  V30 2879 H 265.644 2.05513 2.50092 0
M  V30 2880 H 264.551 3.65007 0.819809 0
M  V30 2881 H 265.884 4.79801 1.09782 0
M  V30 2882 N 267.536 -0.106894 1.57237 0
M  V30 2883 C 268.468 -1.15646 1.97885 0
M  V30 2884 C 269.481 -1.36981 0.879779 0
M  V30 2885 O 270.67 -1.35841 1.15799 0
M  V30 2886 C 267.77 -2.51425 2.27241 0
M  V30 2887 C 266.943 -2.50529 3.58545 0
M  V30 2888 C 266.002 -3.68145 3.75973 0
M  V30 2889 O 265.028 -3.51176 4.47956 0
M  V30 2890 N 266.23 -4.87177 3.15656 0
M  V30 2891 H 268.995 -0.81059 2.8853 0
M  V30 2892 H 266.556 -0.296024 1.59171 0
M  V30 2893 H 268.548 -3.28689 2.36105 0
M  V30 2894 H 267.118 -2.78147 1.42663 0
M  V30 2895 H 266.338 -1.58894 3.60758 0
M  V30 2896 H 267.626 -2.46997 4.44826 0
M  V30 2897 H 267.024 -5.03868 2.57165 0
M  V30 2898 H 265.581 -5.62075 3.30023 0
M  V30 2899 N 269.014 -1.53014 -0.377408 0
M  V30 2900 C 269.924 -1.81557 -1.48574 0
M  V30 2901 C 270.94 -0.703102 -1.59162 0
M  V30 2902 O 272.116 -0.99192 -1.75279 0
M  V30 2903 C 269.181 -1.9889 -2.83978 0
M  V30 2904 C 268.242 -3.22801 -2.83016 0
M  V30 2905 C 267.475 -3.39298 -4.11962 0
M  V30 2906 O 267.698 -2.60345 -5.0752 0
M  V30 2907 O 266.632 -4.32604 -4.18494 0
M  V30 2908 H 270.458 -2.75695 -1.27382 0
M  V30 2909 H 268.043 -1.38248 -0.566373 0
M  V30 2910 H 269.925 -2.11931 -3.6423 0
M  V30 2911 H 268.6 -1.07942 -3.05172 0
M  V30 2912 H 267.507 -3.15193 -2.01505 0
M  V30 2913 H 268.84 -4.13632 -2.66775 0
M  V30 2914 N 270.492 0.636531 -1.44174 0
M  V30 2915 C 271.738 1.39649 -1.47884 0
M  V30 2916 C 272.093 1.92098 -0.107747 0
M  V30 2917 O 271.386 1.70391 0.876208 0
M  V30 2918 C 271.58 2.58309 -2.47005 0
M  V30 2919 C 271.409 2.17476 -3.93617 0
M  V30 2920 C 270.179 2.0501 -4.61843 0
M  V30 2921 C 272.377 1.76722 -4.82984 0
M  V30 2922 N 270.359 1.57683 -5.93304 0
M  V30 2923 C 271.73 1.40601 -6.03847 0
M  V30 2924 C 273.785 1.64054 -4.70096 0
M  V30 2925 C 272.488 0.930787 -7.13252 0
M  V30 2926 C 274.514 1.17937 -5.79521 0
M  V30 2927 C 273.876 0.827625 -6.99521 0
M  V30 2928 H 269.975 0.506027 -0.596205 0
M  V30 2929 H 272.559 0.730791 -1.80465 0
M  V30 2930 H 270.73 3.22514 -2.16423 0
M  V30 2931 H 272.462 3.25083 -2.41045 0
M  V30 2932 H 269.217 2.25294 -4.16581 0
M  V30 2933 H 269.641 1.36334 -6.63131 0
M  V30 2934 H 274.283 1.89882 -3.77762 0
M  V30 2935 H 272.001 0.660012 -8.054 0
M  V30 2936 H 275.587 1.08601 -5.71574 0
M  V30 2937 H 274.467 0.476231 -7.82753 0
M  V30 2938 N 271.97 1.30982 0.876444 0
M  V30 2939 C 273.216 1.20474 1.63138 0
M  V30 2940 C 273.549 -0.238096 1.92735 0
M  V30 2941 O 272.824 -1.1692 1.55435 0
M  V30 2942 C 273.107 2.04244 2.96574 0
M  V30 2943 C 272.96 3.56793 2.73896 0
M  V30 2944 C 274.279 1.88684 3.97601 0
M  V30 2945 H 271.398 0.439001 0.591985 0
M  V30 2946 H 274.04 1.60704 1.01361 0
M  V30 2947 H 272.19 1.70063 3.493 0
M  V30 2948 H 273.862 4.01077 2.27892 0
M  V30 2949 H 272.105 3.80548 2.08245 0
M  V30 2950 H 272.776 4.10706 3.68815 0
M  V30 2951 H 275.252 2.18584 3.54062 0
M  V30 2952 H 274.128 2.4961 4.88862 0
M  V30 2953 H 274.389 0.848343 4.33884 0
M  V30 2954 N 273.449 -1.08991 1.13837 0
M  V30 2955 C 274.412 -2.13925 0.822715 0
M  V30 2956 C 275.412 -1.599 -0.1699 0
M  V30 2957 O 276.602 -1.74104 0.0577251 0
M  V30 2958 C 273.734 -3.40155 0.225318 0
M  V30 2959 H 274.927 -2.43358 1.75262 0
M  V30 2960 H 272.48 -1.24603 0.943594 0
M  V30 2961 H 273.215 -3.16352 -0.713594 0
M  V30 2962 H 273 -3.80661 0.940193 0
M  V30 2963 H 274.49 -4.17594 0.0214784 0
M  V30 2964 N 274.927 -0.932562 -1.27047 0
M  V30 2965 C 276.176 -0.571351 -1.93439 0
M  V30 2966 C 276.489 0.892467 -1.74053 0
M  V30 2967 O 277.695 1.36267 -2.34826 0
M  V30 2968 C 276.151 -0.97106 -3.46552 0
M  V30 2969 C 275.759 -2.4559 -3.74686 0
M  V30 2970 C 277.503 -0.681333 -4.18997 0
M  V30 2971 C 275.41 -2.79475 -5.21198 0
M  V30 2972 H 274.34 -0.209966 -0.724176 0
M  V30 2973 H 276.991 -1.13403 -1.44263 0
M  V30 2974 H 275.373 -0.336983 -3.94564 0
M  V30 2975 H 276.547 -3.13829 -3.37414 0
M  V30 2976 H 274.862 -2.71802 -3.15456 0
M  V30 2977 H 277.459 -0.910939 -5.26883 0
M  V30 2978 H 277.802 0.381628 -4.14547 0
M  V30 2979 H 278.335 -1.27473 -3.76823 0
M  V30 2980 H 275.074 -3.847 -5.30741 0
M  V30 2981 H 274.594 -2.1589 -5.596 0
M  V30 2982 H 276.273 -2.67478 -5.89122 0
M  V30 2983 N 276.405 1.4127 -0.698611 0
M  V30 2984 C 277.352 2.30773 -0.0352094 0
M  V30 2985 C 278.322 1.47273 0.768111 0
M  V30 2986 O 279.507 1.76053 0.735524 0
M  V30 2987 C 276.647 3.33346 0.893 0
M  V30 2988 C 275.76 4.31924 0.0809695 0
M  V30 2989 C 274.895 5.21566 1.0071 0
M  V30 2990 C 273.934 6.11811 0.188155 0
M  V30 2991 N 273.071 6.93926 1.06825 0
M  V30 2992 H 277.911 2.86943 -0.804207 0
M  V30 2993 H 275.448 1.4132 -0.408294 0
M  V30 2994 H 277.406 3.91368 1.44523 0
M  V30 2995 H 276.036 2.78719 1.62836 0
M  V30 2996 H 275.088 3.75825 -0.588224 0
M  V30 2997 H 276.4 4.95716 -0.553801 0
M  V30 2998 H 275.554 5.84437 1.62845 0
M  V30 2999 H 274.293 4.58008 1.67572 0
M  V30 3000 H 273.298 5.47986 -0.446254 0
M  V30 3001 H 274.523 6.77425 -0.476716 0
M  V30 3002 H 272.469 6.32973 1.72283 0
M  V30 3003 H 272.386 7.54416 0.489123 0
M  V30 3004 H 273.654 7.61262 1.67632 0
M  V30 3005 N 277.883 0.443576 1.51229 0
M  V30 3006 C 279.132 -0.122332 2.01329 0
M  V30 3007 C 279.445 -1.43237 1.33201 0
M  V30 3008 O 280.651 -2.0816 1.74304 0
M  V30 3009 C 279.107 -0.268551 3.58897 0
M  V30 3010 C 278.715 1.03142 4.35965 0
M  V30 3011 C 280.459 -0.787894 4.17124 0
M  V30 3012 C 278.366 0.850504 5.85252 0
M  V30 3013 H 277.296 -0.0494929 0.752374 0
M  V30 3014 H 279.947 0.574289 1.74282 0
M  V30 3015 H 278.329 -1.02832 3.82415 0
M  V30 3016 H 279.503 1.80001 4.24189 0
M  V30 3017 H 277.818 1.47977 3.89219 0
M  V30 3018 H 280.415 -0.939841 5.26375 0
M  V30 3019 H 280.758 -1.77201 3.76703 0
M  V30 3020 H 281.291 -0.0862669 3.97706 0
M  V30 3021 H 278.03 1.80718 6.30096 0
M  V30 3022 H 277.55 0.121825 5.99676 0
M  V30 3023 H 279.229 0.506163 6.45017 0
M  V30 3024 N 279.361 -1.56624 0.175154 0
M  V30 3025 C 280.61 -1.96173 -0.468921 0
M  V30 3026 C 280.923 -1.06401 -1.64128 0
M  V30 3027 O 282.129 -1.35648 -2.35185 0
M  V30 3028 C 280.585 -3.48833 -0.885633 0
M  V30 3029 C 280.193 -4.47237 0.261343 0
M  V30 3030 C 281.937 -3.97194 -1.49791 0
M  V30 3031 C 279.844 -5.9114 -0.175214 0
M  V30 3032 H 278.774 -0.732455 -0.178958 0
M  V30 3033 H 281.425 -1.81591 0.263997 0
M  V30 3034 H 279.807 -3.58848 -1.67464 0
M  V30 3035 H 280.981 -4.4894 1.03871 0
M  V30 3036 H 279.296 -4.08956 0.783827 0
M  V30 3037 H 281.893 -5.02167 -1.83665 0
M  V30 3038 H 282.236 -3.40351 -2.39722 0
M  V30 3039 H 282.769 -3.90212 -0.773267 0
M  V30 3040 H 279.508 -6.51865 0.689414 0
M  V30 3041 H 279.028 -5.92735 -0.91786 0
M  V30 3042 H 280.707 -6.44044 -0.617792 0
M  V30 3043 N 280.839 0.0985539 -1.57292 0
M  V30 3044 C 281.786 1.11981 -2.01814 0
M  V30 3045 C 282.756 1.39999 -0.89384 0
M  V30 3046 O 283.941 1.5152 -1.15958 0
M  V30 3047 C 281.081 2.43577 -2.44467 0
M  V30 3048 C 280.194 2.2232 -3.70402 0
M  V30 3049 C 279.329 3.4729 -4.01949 0
M  V30 3050 C 278.368 3.2128 -5.21005 0
M  V30 3051 N 277.505 4.38507 -5.48321 0
M  V30 3052 H 282.345 0.733149 -2.88841 0
M  V30 3053 H 279.882 0.350482 -1.42864 0
M  V30 3054 H 281.84 3.20373 -2.6724 0
M  V30 3055 H 280.47 2.80097 -1.60455 0
M  V30 3056 H 279.522 1.36343 -3.55126 0
M  V30 3057 H 280.834 1.99089 -4.57345 0
M  V30 3058 H 279.988 4.32495 -4.25479 0
M  V30 3059 H 278.727 3.73572 -3.13521 0
M  V30 3060 H 277.732 2.34468 -4.97298 0
M  V30 3061 H 278.957 2.96348 -6.11028 0
M  V30 3062 H 276.903 4.64871 -4.62851 0
M  V30 3063 H 276.82 4.18455 -6.29628 0
M  V30 3064 H 278.088 5.24787 -5.76385 0
M  V30 3065 N 282.317 1.53212 0.369288 0
M  V30 3066 C 283.265 1.80054 1.47253 0
M  V30 3067 C 284.259 0.669456 1.55611 0
M  V30 3068 O 285.465 0.852328 1.58541 0
M  V30 3069 H 281.84 0.570034 0.490475 0
M  V30 3070 H 283.811 2.72403 1.21817 0
M  V30 3071 C 282.56 2.00403 2.84137 0
M  V30 3072 H 281.883 2.86876 2.78464 0
M  V30 3073 H 283.323 2.23164 3.60519 0
M  V30 3074 C 281.782 0.782081 3.27697 0
M  V30 3075 O 282.312 -0.0310205 4.01688 0
M  V30 3076 N 280.518 0.606573 2.84199 0
M  V30 3077 H 280.065 1.26939 2.24152 0
M  V30 3078 H 280.023 -0.20962 3.137 0
M  V30 3079 N 283.795 -0.628877 1.44509 0
M  V30 3080 C 284.742 -1.74074 1.51549 0
M  V30 3081 C 285.712 -1.62084 0.363021 0
M  V30 3082 O 286.897 -1.81975 0.573567 0
M  V30 3083 C 284.037 -3.12328 1.46784 0
M  V30 3084 C 283.15 -3.35277 2.72422 0
M  V30 3085 C 282.285 -4.63515 2.59475 0
M  V30 3086 C 281.324 -4.7965 3.80266 0
M  V30 3087 N 280.461 -5.99168 3.65981 0
M  V30 3088 H 285.301 -1.67392 2.46544 0
M  V30 3089 H 282.838 -0.816527 1.22357 0
M  V30 3090 H 284.796 -3.92286 1.42012 0
M  V30 3091 H 283.426 -3.18018 0.553544 0
M  V30 3092 H 282.478 -2.49242 2.87372 0
M  V30 3093 H 283.79 -3.43078 3.62076 0
M  V30 3094 H 282.944 -5.51638 2.52548 0
M  V30 3095 H 281.683 -4.58076 1.67384 0
M  V30 3096 H 280.688 -3.89957 3.87574 0
M  V30 3097 H 281.913 -4.86902 4.73395 0
M  V30 3098 H 279.859 -5.94814 2.76644 0
M  V30 3099 H 279.776 -6.08035 4.49254 0
M  V30 3100 H 281.044 -6.89846 3.6295 0
M  V30 3101 N 285.273 -1.31445 -0.869486 0
M  V30 3102 C 286.22 -1.19135 -1.97675 0
M  V30 3103 C 287.19 -0.0770266 -1.65921 0
M  V30 3104 O 288.375 -0.249972 -1.89155 0
M  V30 3105 C 285.515 -0.905149 -3.33018 0
M  V30 3106 C 284.628 -2.10285 -3.77365 0
M  V30 3107 C 283.763 -1.75339 -5.01427 0
M  V30 3108 C 282.802 -2.91515 -5.38224 0
M  V30 3109 N 281.939 -2.56762 -6.53466 0
M  V30 3110 H 286.779 -2.13853 -2.07535 0
M  V30 3111 H 284.316 -1.06379 -1.01597 0
M  V30 3112 H 286.274 -0.719765 -4.10944 0
M  V30 3113 H 284.904 0.00519624 -3.228 0
M  V30 3114 H 283.956 -2.39899 -2.95216 0
M  V30 3115 H 285.268 -2.97237 -4.00564 0
M  V30 3116 H 284.422 -1.53266 -5.87022 0
M  V30 3117 H 283.161 -0.855801 -4.80133 0
M  V30 3118 H 282.166 -3.14237 -4.51149 0
M  V30 3119 H 283.391 -3.81985 -5.61484 0
M  V30 3120 H 281.337 -1.69526 -6.33717 0
M  V30 3121 H 281.254 -3.37243 -6.76612 0
M  V30 3122 H 282.522 -2.38083 -7.42251 0
M  V30 3123 N 286.751 1.08385 -1.14413 0
M  V30 3124 C 287.714 2.13486 -0.834048 0
M  V30 3125 C 288.714 1.59988 0.161418 0
M  V30 3126 O 289.904 1.74071 -0.0669575 0
M  V30 3127 C 287.036 3.4003 -0.243354 0
M  V30 3128 H 288.229 2.42425 -1.7655 0
M  V30 3129 H 285.782 1.24101 -0.950189 0
M  V30 3130 H 286.517 3.16726 0.696807 0
M  V30 3131 H 286.302 3.80157 -0.960367 0
M  V30 3132 H 287.792 4.17577 -0.0436242 0
M  V30 3133 N 288.23 0.939286 1.26551 0
M  V30 3134 C 289.477 0.585847 1.9384 0
M  V30 3135 C 289.805 -0.874784 1.73718 0
M  V30 3136 O 289.06 -1.64092 1.06642 0
M  V30 3137 C 289.359 0.872106 3.46596 0
M  V30 3138 C 289.025 2.31632 3.86856 0
M  V30 3139 C 287.687 2.71111 3.97558 0
M  V30 3140 C 290.039 3.25494 4.07066 0
M  V30 3141 C 287.367 4.03553 4.25866 0
M  V30 3142 C 289.719 4.57531 4.36862 0
M  V30 3143 C 288.383 4.96828 4.45778 0
M  V30 3144 H 287.653 0.214377 0.709312 0
M  V30 3145 H 290.3 1.18544 1.50398 0
M  V30 3146 H 288.605 0.18996 3.91339 0
M  V30 3147 H 290.302 0.577442 3.96821 0
M  V30 3148 H 286.892 2.00008 3.79071 0
M  V30 3149 H 291.076 2.9619 3.98227 0
M  V30 3150 H 286.332 4.33665 4.30981 0
M  V30 3151 H 290.506 5.30254 4.51446 0
M  V30 3152 H 288.133 5.99482 4.67468 0
M  V30 3153 N 289.708 -1.40897 0.706093 0
M  V30 3154 C 290.638 -2.33418 0.0620085 0
M  V30 3155 C 291.619 -1.52385 -0.755827 0
M  V30 3156 O 292.804 -1.80886 -0.706674 0
M  V30 3157 C 289.934 -3.36293 -0.867445 0
M  V30 3158 C 288.888 -4.27716 -0.155932 0
M  V30 3159 C 288.214 -5.2105 -1.20046 0
M  V30 3160 C 289.514 -5.12944 0.984149 0
M  V30 3161 H 291.208 -2.87527 0.83477 0
M  V30 3162 H 288.754 -1.38249 0.402875 0
M  V30 3163 H 290.707 -3.99949 -1.32735 0
M  V30 3164 H 289.431 -2.80556 -1.67199 0
M  V30 3165 H 288.09 -3.65498 0.284047 0
M  V30 3166 H 287.738 -4.61624 -1.99781 0
M  V30 3167 H 287.438 -5.83056 -0.729328 0
M  V30 3168 H 288.962 -5.87584 -1.66066 0
M  V30 3169 H 290.376 -5.70109 0.604048 0
M  V30 3170 H 288.773 -5.83945 1.38304 0
M  V30 3171 H 289.843 -4.49485 1.81911 0
M  V30 3172 N 291.186 -0.45159 -1.50991 0
M  V30 3173 C 292.134 0.366864 -2.29689 0
M  V30 3174 C 293.128 1.00809 -1.36139 0
M  V30 3175 O 294.334 0.941427 -1.53418 0
M  V30 3176 H 290.709 0.137133 -0.739391 0
M  V30 3177 H 292.68 -0.317538 -2.96706 0
M  V30 3178 C 291.429 1.44751 -3.16137 0
M  V30 3179 H 290.752 0.963473 -3.88017 0
M  V30 3180 H 292.192 1.99315 -3.74232 0
M  V30 3181 C 290.651 2.43869 -2.32442 0
M  V30 3182 O 291.181 3.4872 -1.99392 0
M  V30 3183 N 289.387 2.15105 -1.95392 0
M  V30 3184 H 288.934 1.29866 -2.22469 0
M  V30 3185 H 288.892 2.81661 -1.39693 0
M  V30 3186 N 292.664 1.56529 -0.183458 0
M  V30 3187 C 293.596 2.15747 0.773697 0
M  V30 3188 C 294.609 1.1162 1.1851 0
M  V30 3189 O 295.798 1.3876 1.12285 0
M  V30 3190 C 292.898 2.6952 2.05456 0
M  V30 3191 C 292.071 3.98429 1.8048 0
M  V30 3192 C 291.13 4.37145 2.92901 0
M  V30 3193 O 290.156 5.04791 2.6301 0
M  V30 3194 N 291.358 3.99695 4.2098 0
M  V30 3195 H 294.123 2.98505 0.26736 0
M  V30 3196 H 291.684 1.619 -0.0010878 0
M  V30 3197 H 293.676 2.92412 2.79781 0
M  V30 3198 H 292.246 1.91282 2.47245 0
M  V30 3199 H 291.466 3.8379 0.899947 0
M  V30 3200 H 292.754 4.82597 1.61175 0
M  V30 3201 H 292.152 3.4526 4.48121 0
M  V30 3202 H 290.709 4.27562 4.9197 0
M  V30 3203 N 294.142 -0.090211 1.57342 0
M  V30 3204 C 295.105 -1.09335 2.01441 0
M  V30 3205 C 296.105 -1.32666 0.908641 0
M  V30 3206 O 297.295 -1.28697 1.174 0
M  V30 3207 C 294.427 -2.44136 2.3793 0
M  V30 3208 H 295.62 -0.713662 2.91285 0
M  V30 3209 H 293.173 -0.335404 1.52659 0
M  V30 3210 H 293.908 -2.86972 1.51055 0
M  V30 3211 H 293.693 -2.28548 3.18603 0
M  V30 3212 H 295.183 -3.16277 2.72688 0
M  V30 3213 N 295.62 -1.53406 -0.361157 0
M  V30 3214 C 296.552 -1.76446 -1.46286 0
M  V30 3215 C 297.565 -0.645322 -1.49464 0
M  V30 3216 O 298.754 -0.921681 -1.52864 0
M  V30 3217 C 295.854 -1.83332 -2.85031 0
M  V30 3218 C 295.027 -3.13033 -3.05498 0
M  V30 3219 C 294.086 -3.11104 -4.24383 0
M  V30 3220 O 293.112 -3.84888 -4.19344 0
M  V30 3221 N 294.314 -2.32234 -5.32022 0
M  V30 3222 H 297.079 -2.71508 -1.26899 0
M  V30 3223 H 294.64 -1.52238 -0.550915 0
M  V30 3224 H 296.632 -1.79514 -3.62708 0
M  V30 3225 H 295.202 -0.955342 -2.97644 0
M  V30 3226 H 294.422 -3.30119 -2.15442 0
M  V30 3227 H 295.71 -3.9874 -3.16044 0
M  V30 3228 H 295.108 -1.71807 -5.38979 0
M  V30 3229 H 293.665 -2.3423 -6.08259 0
M  V30 3230 N 297.098 0.621204 -1.44841 0
M  V30 3231 C 298.347 1.37658 -1.47422 0
M  V30 3232 C 298.66 1.95264 -0.114629 0
M  V30 3233 O 299.866 2.71494 -0.0180199 0
M  V30 3234 C 298.322 2.49285 -2.59586 0
M  V30 3235 C 297.93 1.98149 -4.01797 0
M  V30 3236 C 299.674 3.26409 -2.71399 0
M  V30 3237 C 297.581 3.07178 -5.05367 0
M  V30 3238 H 296.511 0.517344 -0.548517 0
M  V30 3239 H 299.162 0.667257 -1.70938 0
M  V30 3240 H 297.544 3.22839 -2.29328 0
M  V30 3241 H 298.718 1.31395 -4.41669 0
M  V30 3242 H 297.033 1.33812 -3.94314 0
M  V30 3243 H 299.63 4.07706 -3.45948 0
M  V30 3244 H 299.973 3.76535 -1.77559 0
M  V30 3245 H 300.506 2.5995 -3.01116 0
M  V30 3246 H 297.245 2.61985 -6.00869 0
M  V30 3247 H 296.765 3.72542 -4.70077 0
M  V30 3248 H 298.444 3.71789 -5.29511 0
M  V30 3249 N 298.576 1.31904 0.862503 0
M  V30 3250 C 299.486 1.22161 2.00285 0
M  V30 3251 C 300.502 0.136785 1.73462 0
M  V30 3252 O 301.678 0.355994 1.98229 0
M  V30 3253 C 298.743 0.937093 3.33796 0
M  V30 3254 C 297.804 2.10957 3.73893 0
M  V30 3255 C 297.037 1.83853 5.01033 0
M  V30 3256 O 297.26 0.777274 5.65079 0
M  V30 3257 O 296.194 2.69741 5.38074 0
M  V30 3258 H 300.02 2.18008 2.11439 0
M  V30 3259 H 297.605 1.11716 0.991957 0
M  V30 3260 H 299.487 0.794583 4.13841 0
M  V30 3261 H 298.162 0.00871894 3.23699 0
M  V30 3262 H 297.069 2.30752 2.94456 0
M  V30 3263 H 298.402 3.02046 3.88625 0
M  V30 3264 N 300.054 -1.07777 1.14986 0
M  V30 3265 C 301.3 -1.80557 0.923422 0
M  V30 3266 C 301.633 -1.86298 -0.548337 0
M  V30 3267 O 300.908 -1.34354 -1.40639 0
M  V30 3268 C 301.191 -3.25839 1.53299 0
M  V30 3269 C 301.044 -3.28269 3.07505 0
M  V30 3270 C 302.363 -4.22991 1.21518 0
M  V30 3271 H 299.482 -0.655493 0.336894 0
M  V30 3272 H 302.124 -1.26144 1.42083 0
M  V30 3273 H 300.274 -3.72306 1.10999 0
M  V30 3274 H 301.946 -2.90079 3.58681 0
M  V30 3275 H 300.189 -2.67355 3.4162 0
M  V30 3276 H 300.86 -4.30691 3.45266 0
M  V30 3277 H 303.336 -3.84894 1.581 0
M  V30 3278 H 302.212 -5.22945 1.66793 0
M  V30 3279 H 302.473 -4.41904 0.131505 0
M  V30 3280 N 301.532 -0.945985 -1.26051 0
M  V30 3281 C 302.948 -0.649045 -1.45807 0
M  V30 3282 C 303.148 0.796158 -1.85104 0
M  V30 3283 O 302.204 1.57233 -1.97571 0
M  V30 3284 C 303.517 -1.61458 -2.53677 0
M  V30 3285 C 305.065 -1.62481 -2.67524 0
M  V30 3286 C 305.54 -2.57776 -3.7857 0
M  V30 3287 N 307.031 -2.5609 -3.85969 0
M  V30 3288 C 307.766 -3.26508 -4.7136 0
M  V30 3289 N 307.262 -4.0637 -5.61102 0
M  V30 3290 N 309.055 -3.15437 -4.65248 0
M  V30 3291 H 301.206 -1.88005 -0.988328 0
M  V30 3292 H 303.469 -0.808198 -0.4955 0
M  V30 3293 H 303.175 -2.64644 -2.31638 0
M  V30 3294 H 303.049 -1.37036 -3.51427 0
M  V30 3295 H 305.436 -0.600167 -2.88933 0
M  V30 3296 H 305.517 -1.90958 -1.70202 0
M  V30 3297 H 305.161 -3.60361 -3.57913 0
M  V30 3298 H 305.091 -2.26587 -4.75359 0
M  V30 3299 H 307.582 -1.98105 -3.21812 0
M  V30 3300 H 307.895 -4.57042 -6.23164 0
M  V30 3301 H 306.24 -4.10469 -5.60839 0
M  V30 3302 H 309.431 -2.52525 -3.94143 0
M  V30 3303 H 309.604 -3.70584 -5.31575 0
M  V30 3304 N 303.011 1.40521 -0.713556 0
M  V30 3305 C 303.941 2.33381 -0.0743864 0
M  V30 3306 C 304.922 1.52784 0.747735 0
M  V30 3307 O 306.107 1.81258 0.697071 0
M  V30 3308 C 303.237 3.36748 0.849598 0
M  V30 3309 C 302.191 4.27793 0.133247 0
M  V30 3310 C 301.517 5.21679 1.17281 0
M  V30 3311 C 302.817 5.12415 -1.01134 0
M  V30 3312 H 304.511 2.87081 -0.850007 0
M  V30 3313 H 302.057 1.38034 -0.410201 0
M  V30 3314 H 304.01 4.00648 1.30612 0
M  V30 3315 H 302.734 2.81439 1.65709 0
M  V30 3316 H 301.393 3.65342 -0.303426 0
M  V30 3317 H 301.041 4.62677 1.9733 0
M  V30 3318 H 300.741 5.83435 0.698397 0
M  V30 3319 H 302.265 5.88456 1.62947 0
M  V30 3320 H 303.679 5.69781 -0.634274 0
M  V30 3321 H 302.076 5.83203 -1.41399 0
M  V30 3322 H 303.146 4.48514 -1.84292 0
M  V30 3323 N 304.489 0.459591 1.5075 0
M  V30 3324 C 305.419 -0.330644 2.31147 0
M  V30 3325 C 306.4 -1.00087 1.37538 0
M  V30 3326 O 307.585 -1.00025 1.66459 0
M  V30 3327 C 304.715 -1.41958 3.16962 0
M  V30 3328 C 303.669 -0.871608 4.19031 0
M  V30 3329 C 302.995 -2.05797 4.9351 0
M  V30 3330 C 304.295 0.109251 5.22186 0
M  V30 3331 H 305.989 0.340336 2.97459 0
M  V30 3332 H 303.535 0.165119 1.4305 0
M  V30 3333 H 305.488 -1.9798 3.71997 0
M  V30 3334 H 304.212 -2.11917 2.48513 0
M  V30 3335 H 302.871 -0.333442 3.6508 0
M  V30 3336 H 302.519 -2.74427 4.21544 0
M  V30 3337 H 302.219 -1.6976 5.62544 0
M  V30 3338 H 303.743 -2.62331 5.51375 0
M  V30 3339 H 305.157 -0.361405 5.7216 0
M  V30 3340 H 303.554 0.383316 5.98875 0
M  V30 3341 H 304.624 1.03887 4.73641 0
M  V30 3342 N 305.967 -1.56429 0.191757 0
M  V30 3343 C 306.877 -2.22541 -0.742481 0
M  V30 3344 C 307.893 -1.22342 -1.23727 0
M  V30 3345 O 309.069 -1.55069 -1.28513 0
M  V30 3346 C 306.134 -2.8692 -1.94623 0
M  V30 3347 C 305.195 -4.02378 -1.49633 0
M  V30 3348 C 304.428 -4.63678 -2.6427 0
M  V30 3349 O 304.651 -4.23895 -3.81666 0
M  V30 3350 O 303.585 -5.53202 -2.37174 0
M  V30 3351 H 307.411 -3.02977 -0.209462 0
M  V30 3352 H 304.996 -1.49353 -0.0373832 0
M  V30 3353 H 306.878 -3.27663 -2.64982 0
M  V30 3354 H 305.553 -2.09466 -2.46791 0
M  V30 3355 H 304.46 -3.66265 -0.761636 0
M  V30 3356 H 305.793 -4.81487 -1.02134 0
M  V30 3357 N 307.445 0.0818655 -1.57387 0
M  V30 3358 C 308.375 1.09885 -2.06028 0
M  V30 3359 C 309.356 1.4098 -0.951774 0
M  V30 3360 O 310.541 1.50781 -1.22387 0
M  V30 3361 C 307.671 2.4151 -2.4958 0
M  V30 3362 C 306.625 2.24792 -3.64215 0
M  V30 3363 C 305.951 3.61712 -3.93787 0
M  V30 3364 C 307.251 1.67749 -4.94629 0
M  V30 3365 H 308.945 0.694128 -2.91243 0
M  V30 3366 H 306.491 0.332448 -1.4011 0
M  V30 3367 H 308.444 3.12939 -2.82219 0
M  V30 3368 H 307.168 2.83943 -1.61381 0
M  V30 3369 H 305.827 1.55807 -3.31843 0
M  V30 3370 H 305.475 4.01697 -3.02735 0
M  V30 3371 H 305.175 3.51368 -4.70971 0
M  V30 3372 H 306.699 4.34587 -4.28913 0
M  V30 3373 H 308.113 2.29032 -5.25564 0
M  V30 3374 H 306.51 1.68128 -5.76067 0
M  V30 3375 H 307.58 0.638059 -4.80684 0
M  V30 3376 N 308.923 1.53595 0.353017 0
M  V30 3377 C 309.856 1.7572 1.45594 0
M  V30 3378 C 310.834 0.605961 1.50887 0
M  V30 3379 O 312.018 0.840023 1.68748 0
M  V30 3380 C 309.145 1.84732 2.83887 0
M  V30 3381 C 308.191 3.06808 2.96262 0
M  V30 3382 S 309.024 4.66065 2.63711 0
M  V30 3383 C 310.18 4.77943 4.04131 0
M  V30 3384 H 310.413 2.68994 1.26608 0
M  V30 3385 H 307.946 1.44343 0.548117 0
M  V30 3386 H 309.904 1.9061 3.63563 0
M  V30 3387 H 308.565 0.92488 3.00175 0
M  V30 3388 H 307.758 3.09761 3.97573 0
M  V30 3389 H 307.36 2.99108 2.24523 0
M  V30 3390 H 309.652 4.5877 4.98534 0
M  V30 3391 H 310.595 5.80022 4.06177 0
M  V30 3392 H 311.003 4.06472 3.91715 0
M  V30 3393 N 310.401 -0.613514 1.45168 0
M  V30 3394 C 311.349 -1.74572 1.53712 0
M  V30 3395 C 312.343 -1.64426 0.407505 0
M  V30 3396 O 313.549 -1.70291 0.583176 0
M  V30 3397 H 309.924 -0.576641 0.48269 0
M  V30 3398 H 311.895 -1.64492 2.48968 0
M  V30 3399 C 310.644 -3.12943 1.51532 0
M  V30 3400 H 309.967 -3.21407 2.37776 0
M  V30 3401 H 311.407 -3.9201 1.61569 0
M  V30 3402 C 309.866 -3.36053 0.238798 0
M  V30 3403 O 310.396 -3.95837 -0.6838 0
M  V30 3404 N 308.602 -2.9028 0.136359 0
M  V30 3405 H 308.149 -2.41811 0.887999 0
M  V30 3406 H 308.107 -3.06116 -0.716944 0
M  V30 3407 N 311.879 -1.3236 -0.855495 0
M  V30 3408 C 312.826 -1.21225 -1.964 0
M  V30 3409 C 313.796 -0.0946204 -1.6583 0
M  V30 3410 O 314.981 -0.27002 -1.8888 0
M  V30 3411 C 312.121 -0.940419 -3.32039 0
M  V30 3412 C 311.234 -2.14276 -3.75113 0
M  V30 3413 C 310.369 -1.80648 -4.9954 0
M  V30 3414 C 309.408 -2.97208 -5.35102 0
M  V30 3415 N 308.545 -2.63678 -6.50706 0
M  V30 3416 H 313.385 -2.16042 -2.05255 0
M  V30 3417 H 310.922 -1.07451 -1.00463 0
M  V30 3418 H 312.88 -0.763311 -4.10158 0
M  V30 3419 H 311.51 -0.0290413 -3.22787 0
M  V30 3420 H 310.562 -2.43017 -2.92655 0
M  V30 3421 H 311.874 -3.01468 -3.97389 0
M  V30 3422 H 311.028 -1.59484 -5.85363 0
M  V30 3423 H 309.767 -0.906678 -4.79198 0
M  V30 3424 H 308.772 -3.19004 -4.47791 0
M  V30 3425 H 309.997 -3.87918 -5.57401 0
M  V30 3426 H 307.943 -1.76238 -6.31883 0
M  V30 3427 H 307.86 -3.444 -6.72997 0
M  V30 3428 H 309.128 -2.45942 -7.39684 0
M  V30 3429 N 313.357 1.07166 -1.15556 0
M  V30 3430 C 314.307 2.12649 -0.82247 0
M  V30 3431 C 315.291 1.59725 0.194129 0
M  V30 3432 O 316.483 1.76999 -0.00540402 0
M  V30 3433 C 313.612 3.41847 -0.315572 0
M  V30 3434 C 312.698 4.0162 -1.36244 0
M  V30 3435 N 313.089 4.35625 -2.5703 0
M  V30 3436 C 311.387 4.29114 -1.21562 0
M  V30 3437 C 312.088 4.83017 -3.24144 0
M  V30 3438 N 311.064 4.81906 -2.51531 0
M  V30 3439 H 314.866 2.36776 -1.74111 0
M  V30 3440 H 312.38 1.24622 -1.0413 0
M  V30 3441 H 314.377 4.16859 -0.0585855 0
M  V30 3442 H 313.037 3.19163 0.597105 0
M  V30 3443 H 314.048 4.26253 -2.94158 0
M  V30 3444 H 310.725 4.15919 -0.362988 0
M  V30 3445 H 312.115 5.18605 -4.27198 0
M  V30 3446 N 314.835 0.952656 1.25548 0
M  V30 3447 C 316.112 0.523818 1.88456 0
M  V30 3448 C 316.492 -0.998871 1.85973 0
M  V30 3449 O 315.84 -1.86381 1.3219 0
M  V30 3450 C 316.05 1.0982 3.31271 0
M  V30 3451 C 317.398 1.17385 4.08051 0
M  V30 3452 O 318.422 1.04961 3.40384 0
M  V30 3453 O 317.281 1.36852 5.29088 0
M  V30 3454 H 314.375 0.172485 0.808813 0
M  V30 3455 H 316.921 1.04596 1.33633 0
M  V30 3456 H 315.693 2.1415 3.27499 0
M  V30 3457 H 315.316 0.559191 3.93648 0
M  V30 3458 N 316.313 -1.40141 0.720998 0
M  V30 3459 C 317.541 -2.05096 0.272656 0
M  V30 3460 C 317.956 -1.54334 -1.0875 0
M  V30 3461 O 317.313 -0.702211 -1.6845 0
M  V30 3462 C 317.364 -3.60636 0.249835 0
M  V30 3463 O 317.085 -4.09526 1.55629 0
M  V30 3464 C 318.586 -4.42772 -0.216396 0
M  V30 3465 H 315.806 -0.659897 0.121558 0
M  V30 3466 H 318.35 -1.79449 0.980723 0
M  V30 3467 H 316.505 -3.85232 -0.409237 0
M  V30 3468 H 316.919 -5.03758 1.4604 0
M  V30 3469 H 318.393 -5.51702 -0.181212 0
M  V30 3470 H 318.87 -4.20756 -1.25941 0
M  V30 3471 H 319.476 -4.23294 0.412596 0
M  V30 3472 N 317.792 -0.46758 -1.50504 0
M  V30 3473 C 318.702 0.33382 -2.32213 0
M  V30 3474 C 319.718 0.999323 -1.42441 0
M  V30 3475 O 320.894 0.988068 -1.75497 0
M  V30 3476 C 317.959 1.4035 -3.17022 0
M  V30 3477 C 317.02 0.754961 -4.2261 0
M  V30 3478 C 316.253 1.77367 -5.03365 0
M  V30 3479 O 316.476 2.99976 -4.8515 0
M  V30 3480 O 315.41 1.34744 -5.86624 0
M  V30 3481 H 319.236 -0.334067 -3.01857 0
M  V30 3482 H 316.821 -0.229496 -1.47627 0
M  V30 3483 H 318.703 2.02318 -3.69656 0
M  V30 3484 H 317.378 2.05492 -2.5011 0
M  V30 3485 H 316.285 0.0964244 -3.73976 0
M  V30 3486 H 317.618 0.146545 -4.91982 0
M  V30 3487 N 319.27 1.56325 -0.20005 0
M  V30 3488 C 320.203 2.15234 0.758267 0
M  V30 3489 C 321.181 1.09046 1.20614 0
M  V30 3490 O 322.365 1.37186 1.29276 0
M  V30 3491 C 319.492 2.71524 2.02466 0
M  V30 3492 C 318.538 3.90345 1.71852 0
M  V30 3493 S 319.371 5.28513 0.862249 0
M  V30 3494 C 320.527 5.88227 2.13868 0
M  V30 3495 H 320.76 2.96183 0.2575 0
M  V30 3496 H 318.293 1.54393 0.0150099 0
M  V30 3497 H 320.251 3.04598 2.75191 0
M  V30 3498 H 318.912 1.90607 2.49655 0
M  V30 3499 H 318.105 4.28158 2.65888 0
M  V30 3500 H 317.707 3.58306 1.07205 0
M  V30 3501 H 319.999 6.02891 3.09076 0
M  V30 3502 H 320.942 6.84714 1.80479 0
M  V30 3503 H 321.35 5.16874 2.2694 0
M  V30 3504 N 320.748 -0.0735177 1.57428 0
M  V30 3505 C 321.695 -1.08756 2.0357 0
M  V30 3506 C 322.665 -1.38559 0.916 0
M  V30 3507 O 323.85 -1.49656 1.18354 0
M  V30 3508 C 320.99 -2.39657 2.48311 0
M  V30 3509 C 320.103 -2.16399 3.73892 0
M  V30 3510 C 319.238 -3.40852 4.07423 0
M  V30 3511 C 318.277 -3.1295 5.2605 0
M  V30 3512 N 317.414 -4.29729 5.55228 0
M  V30 3513 H 322.254 -0.687104 2.8997 0
M  V30 3514 H 319.791 -0.327709 1.43403 0
M  V30 3515 H 321.749 -3.16081 2.72303 0
M  V30 3516 H 320.379 -2.77508 1.64891 0
M  V30 3517 H 319.431 -1.30676 3.57251 0
M  V30 3518 H 320.743 -1.91788 4.60455 0
M  V30 3519 H 319.897 -4.25671 4.32306 0
M  V30 3520 H 318.636 -3.68537 3.19425 0
M  V30 3521 H 317.641 -2.26526 5.00965 0
M  V30 3522 H 318.866 -2.86589 6.15665 0
M  V30 3523 H 316.812 -4.57448 4.70188 0
M  V30 3524 H 316.729 -4.08385 6.36206 0
M  V30 3525 H 317.997 -5.1555 5.84661 0
M  V30 3526 N 322.226 -1.5378 -0.344866 0
M  V30 3527 C 323.456 -1.74646 -1.10374 0
M  V30 3528 C 323.864 -0.48491 -1.8288 0
M  V30 3529 O 323.207 0.553062 -1.75177 0
M  V30 3530 C 323.269 -2.87145 -2.16306 0
M  V30 3531 C 322.933 -4.26795 -1.63386 0
M  V30 3532 C 323.93 -5.08412 -1.08688 0
M  V30 3533 C 321.615 -4.73276 -1.68272 0
M  V30 3534 C 323.609 -6.34609 -0.595792 0
M  V30 3535 C 321.296 -5.99446 -1.18776 0
M  V30 3536 C 322.294 -6.79946 -0.645215 0
M  V30 3537 O 321.982 -8.03745 -0.157626 0
M  V30 3538 H 321.714 -0.587112 -0.335075 0
M  V30 3539 H 324.268 -2.01403 -0.403252 0
M  V30 3540 H 322.498 -2.55909 -2.89909 0
M  V30 3541 H 324.187 -2.95992 -2.77747 0
M  V30 3542 H 324.953 -4.73666 -1.04236 0
M  V30 3543 H 320.832 -4.10677 -2.09442 0
M  V30 3544 H 324.376 -6.97389 -0.171654 0
M  V30 3545 H 320.273 -6.33687 -1.22928 0
M  V30 3546 H 321.041 -8.18038 -0.275037 0
M  V30 3547 N 323.704 0.605807 -1.45491 0
M  V30 3548 C 324.934 1.38934 -1.52908 0
M  V30 3549 C 325.342 1.88513 -0.161086 0
M  V30 3550 O 324.685 1.62962 0.847891 0
M  V30 3551 C 324.747 2.62737 -2.45376 0
M  V30 3552 C 324.411 2.34785 -3.92078 0
M  V30 3553 C 325.408 1.95038 -4.8193 0
M  V30 3554 C 323.093 2.47642 -4.37011 0
M  V30 3555 C 325.087 1.68511 -6.14722 0
M  V30 3556 C 322.774 2.20728 -5.69844 0
M  V30 3557 C 323.772 1.81225 -6.58519 0
M  V30 3558 O 323.46 1.54627 -7.88889 0
M  V30 3559 H 323.192 0.431629 -0.520262 0
M  V30 3560 H 325.746 0.74573 -1.91384 0
M  V30 3561 H 323.976 3.29824 -2.01874 0
M  V30 3562 H 325.665 3.24783 -2.43456 0
M  V30 3563 H 326.431 1.84639 -4.48479 0
M  V30 3564 H 322.31 2.77356 -3.68232 0
M  V30 3565 H 325.854 1.37602 -6.83894 0
M  V30 3566 H 321.751 2.30744 -6.02849 0
M  V30 3567 H 322.519 1.68665 -8.00933 0
M  V30 3568 N 325.182 1.32811 0.848464 0
M  V30 3569 C 326.431 1.23075 1.59798 0
M  V30 3570 C 326.744 -0.204419 1.94529 0
M  V30 3571 O 327.95 -0.423701 2.68173 0
M  V30 3572 C 326.406 2.15594 2.88179 0
M  V30 3573 C 326.014 3.64228 2.60849 0
M  V30 3574 C 327.758 2.14709 3.66197 0
M  V30 3575 C 325.665 4.48689 3.85269 0
M  V30 3576 H 324.595 0.457091 0.599653 0
M  V30 3577 H 327.246 1.57813 0.936342 0
M  V30 3578 H 325.628 1.73778 3.55833 0
M  V30 3579 H 326.802 4.14424 2.01467 0
M  V30 3580 H 325.117 3.67306 1.96151 0
M  V30 3581 H 327.714 2.75046 4.58534 0
M  V30 3582 H 328.057 1.13966 4.00397 0
M  V30 3583 H 328.59 2.54837 3.05455 0
M  V30 3584 H 325.329 5.5027 3.56207 0
M  V30 3585 H 324.849 4.03241 4.44024 0
M  V30 3586 H 326.528 4.62006 4.52946 0
M  V30 3587 N 326.66 -1.06551 1.16123 0
M  V30 3588 C 327.906 -1.79567 0.94252 0
M  V30 3589 C 328.239 -1.86869 -0.528547 0
M  V30 3590 O 327.514 -1.35838 -1.39206 0
M  V30 3591 C 327.797 -3.24195 1.56747 0
M  V30 3592 C 327.65 -3.24989 3.10969 0
M  V30 3593 C 328.969 -4.21678 1.25998 0
M  V30 3594 H 326.088 -0.651883 0.343828 0
M  V30 3595 H 328.73 -1.2463 1.43413 0
M  V30 3596 H 326.88 -3.71107 1.14942 0
M  V30 3597 H 328.552 -2.86258 3.61737 0
M  V30 3598 H 326.795 -2.63716 3.44436 0
M  V30 3599 H 327.466 -4.27005 3.49815 0
M  V30 3600 H 329.942 -3.83196 1.62174 0
M  V30 3601 H 328.818 -5.21146 1.7233 0
M  V30 3602 H 329.079 -4.4174 0.178367 0
M  V30 3603 N 328.138 -0.959301 -1.25041 0
M  V30 3604 C 329.088 -0.453888 -2.23436 0
M  V30 3605 C 330.072 0.459461 -1.542 0
M  V30 3606 O 331.264 0.291752 -1.74579 0
M  V30 3607 C 328.393 0.262667 -3.42294 0
M  V30 3608 C 327.479 -0.669022 -4.1879 0
M  V30 3609 N 327.87 -1.80267 -4.72586 0
M  V30 3610 C 326.168 -0.47814 -4.4343 0
M  V30 3611 C 326.869 -2.38475 -5.3057 0
M  V30 3612 N 325.845 -1.67078 -5.17287 0
M  V30 3613 H 329.647 -1.319 -2.6264 0
M  V30 3614 H 327.161 -0.817358 -1.40332 0
M  V30 3615 H 329.158 0.641911 -4.11929 0
M  V30 3616 H 327.818 1.12432 -3.04613 0
M  V30 3617 H 328.829 -2.18442 -4.69578 0
M  V30 3618 H 325.506 0.340249 -4.16111 0
M  V30 3619 H 326.896 -3.34094 -5.8295 0
M  V30 3620 N 329.616 1.39756 -0.72842 0
M  V30 3621 C 330.546 2.33289 -0.0991354 0
M  V30 3622 C 331.527 1.53568 0.731489 0
M  V30 3623 O 332.712 1.81987 0.677807 0
M  V30 3624 C 329.842 3.3763 0.813834 0
M  V30 3625 C 328.796 4.2791 0.0878663 0
M  V30 3626 C 328.122 5.22894 1.11741 0
M  V30 3627 C 329.422 5.11314 -1.06563 0
M  V30 3628 H 331.116 2.86163 -0.880408 0
M  V30 3629 H 328.662 1.37591 -0.424819 0
M  V30 3630 H 330.615 4.0201 1.26355 0
M  V30 3631 H 329.339 2.83181 1.62715 0
M  V30 3632 H 327.998 3.65 -0.342159 0
M  V30 3633 H 327.646 4.64744 1.92412 0
M  V30 3634 H 327.346 5.84143 0.636477 0
M  V30 3635 H 328.87 5.90151 1.56697 0
M  V30 3636 H 330.284 5.69076 -0.694671 0
M  V30 3637 H 328.681 5.81671 -1.47577 0
M  V30 3638 H 329.751 4.46534 -1.89038 0
M  V30 3639 N 331.094 0.475555 1.50254 0
M  V30 3640 C 332.041 -0.316293 2.28622 0
M  V30 3641 C 333.011 -0.983227 1.33873 0
M  V30 3642 O 334.196 -0.994805 1.62814 0
M  V30 3643 C 331.336 -1.38975 3.1588 0
M  V30 3644 C 330.449 -0.737146 4.25664 0
M  V30 3645 C 329.584 -1.78887 5.00173 0
M  V30 3646 C 328.623 -1.11676 6.01826 0
M  V30 3647 N 327.76 -2.11154 6.69596 0
M  V30 3648 H 332.6 0.358297 2.95838 0
M  V30 3649 H 330.137 0.188541 1.45887 0
M  V30 3650 H 332.095 -2.02383 3.64825 0
M  V30 3651 H 330.725 -2.03344 2.50701 0
M  V30 3652 H 329.777 0.0096065 3.80399 0
M  V30 3653 H 331.089 -0.206816 4.98371 0
M  V30 3654 H 330.243 -2.49865 5.52859 0
M  V30 3655 H 328.982 -2.35302 4.27182 0
M  V30 3656 H 327.987 -0.392633 5.48396 0
M  V30 3657 H 329.212 -0.55945 6.76792 0
M  V30 3658 H 327.158 -2.66577 5.99394 0
M  V30 3659 H 327.075 -1.63118 7.38193 0
M  V30 3660 H 328.343 -2.81497 7.26897 0
M  V30 3661 N 332.573 -1.56217 0.208337 0
M  V30 3662 C 333.989 -1.58919 -0.14729 0
M  V30 3663 C 334.189 -1.22486 -1.59998 0
M  V30 3664 O 333.245 -0.953849 -2.3379 0
M  V30 3665 C 334.558 -3.00236 0.167048 0
M  V30 3666 C 336.106 -3.12813 0.108219 0
M  V30 3667 C 336.581 -4.56284 0.396049 0
M  V30 3668 N 338.072 -4.61912 0.345142 0
M  V30 3669 C 338.807 -5.70837 0.541523 0
M  V30 3670 N 338.303 -6.88178 0.798968 0
M  V30 3671 N 340.096 -5.60091 0.474867 0
M  V30 3672 H 332.247 -1.78177 1.15614 0
M  V30 3673 H 334.51 -0.827555 0.462446 0
M  V30 3674 H 334.216 -3.31499 1.1748 0
M  V30 3675 H 334.09 -3.7354 -0.524184 0
M  V30 3676 H 336.477 -2.81354 -0.890157 0
M  V30 3677 H 336.558 -2.41866 0.832729 0
M  V30 3678 H 336.202 -4.88458 1.3918 0
M  V30 3679 H 336.132 -5.25439 -0.349502 0
M  V30 3680 H 338.623 -3.77589 0.153316 0
M  V30 3681 H 338.936 -7.67095 0.93727 0
M  V30 3682 H 337.281 -6.89953 0.836013 0
M  V30 3683 H 340.472 -4.67297 0.274064 0
M  V30 3684 H 340.645 -6.44917 0.631326 0
M  V30 3685 N 334.051 0.0651679 -1.57465 0
M  V30 3686 C 335.001 1.0838 -2.00594 0
M  V30 3687 C 335.985 1.34106 -0.889071 0
M  V30 3688 O 337.177 1.34295 -1.15299 0
M  V30 3689 C 334.306 2.39565 -2.45894 0
M  V30 3690 C 333.392 2.17085 -3.64328 0
M  V30 3691 N 333.783 1.64553 -4.78285 0
M  V30 3692 C 332.081 2.4753 -3.71006 0
M  V30 3693 C 332.782 1.57042 -5.60101 0
M  V30 3694 N 331.758 2.03328 -5.04141 0
M  V30 3695 H 335.56 0.671062 -2.86136 0
M  V30 3696 H 333.074 0.27213 -1.60104 0
M  V30 3697 H 335.071 3.13308 -2.75034 0
M  V30 3698 H 333.731 2.81549 -1.61741 0
M  V30 3699 H 334.742 1.33323 -5.00445 0
M  V30 3700 H 331.419 2.92835 -2.9758 0
M  V30 3701 H 332.809 1.17223 -6.61595 0
M  V30 3702 N 335.529 1.53961 0.336706 0
M  V30 3703 C 336.776 1.71536 1.07618 0
M  V30 3704 C 337.104 0.482125 1.8843 0
M  V30 3705 O 336.359 -0.536142 1.88213 0
M  V30 3706 C 336.658 2.93493 2.03953 0
M  V30 3707 C 336.324 4.28811 1.39399 0
M  V30 3708 C 334.986 4.65602 1.21523 0
M  V30 3709 C 337.338 5.12844 0.929541 0
M  V30 3710 C 334.666 5.84037 0.558312 0
M  V30 3711 C 337.018 6.31951 0.286505 0
M  V30 3712 C 335.682 6.67432 0.0954869 0
M  V30 3713 H 334.952 0.627696 0.393801 0
M  V30 3714 H 337.599 1.88186 0.354715 0
M  V30 3715 H 335.904 2.71475 2.82504 0
M  V30 3716 H 337.601 3.04285 2.61174 0
M  V30 3717 H 334.191 3.99858 1.54311 0
M  V30 3718 H 338.375 4.84947 1.05548 0
M  V30 3719 H 333.631 6.10097 0.398995 0
M  V30 3720 H 337.805 6.96352 -0.0814376 0
M  V30 3721 H 335.432 7.59063 -0.415579 0
M  V30 3722 N 337.007 -0.598083 1.45811 0
M  V30 3723 C 337.94 -1.7223 1.49706 0
M  V30 3724 C 338.918 -1.58732 0.352535 0
M  V30 3725 O 340.102 -1.80162 0.554438 0
M  V30 3726 C 337.229 -3.10148 1.3611 0
M  V30 3727 C 336.275 -3.42209 2.54549 0
M  V30 3728 S 337.108 -3.35989 4.16979 0
M  V30 3729 C 338.264 -4.76471 4.05865 0
M  V30 3730 H 338.497 -1.68665 2.44826 0
M  V30 3731 H 336.03 -0.775541 1.33509 0
M  V30 3732 H 337.988 -3.8972 1.28953 0
M  V30 3733 H 336.649 -3.11219 0.424451 0
M  V30 3734 H 335.842 -4.42652 2.40988 0
M  V30 3735 H 335.444 -2.70173 2.58617 0
M  V30 3736 H 337.736 -5.665 3.71596 0
M  V30 3737 H 338.679 -4.95089 5.06253 0
M  V30 3738 H 339.087 -4.52599 3.37364 0
M  V30 3739 N 338.485 -1.33259 -0.841409 0
M  V30 3740 C 339.732 -1.24572 -1.5965 0
M  V30 3741 C 340.06 0.189137 -1.93578 0
M  V30 3742 O 339.315 1.14566 -1.5866 0
M  V30 3743 C 339.614 -2.06381 -2.9179 0
M  V30 3744 C 339.28 -3.556 -2.77235 0
M  V30 3745 C 337.942 -3.96282 -2.72973 0
M  V30 3746 C 340.294 -4.50433 -2.62221 0
M  V30 3747 C 337.622 -5.30017 -2.51592 0
M  V30 3748 C 339.974 -5.84327 -2.42374 0
M  V30 3749 C 338.638 -6.24194 -2.36512 0
M  V30 3750 H 337.908 -0.455842 -0.5842 0
M  V30 3751 H 340.555 -1.6482 -0.975016 0
M  V30 3752 H 338.86 -1.58903 -3.5813 0
M  V30 3753 H 340.557 -1.97019 -3.49263 0
M  V30 3754 H 337.147 -3.23298 -2.81384 0
M  V30 3755 H 341.331 -4.19914 -2.64549 0
M  V30 3756 H 336.587 -5.59947 -2.45499 0
M  V30 3757 H 340.761 -6.57414 -2.29739 0
M  V30 3758 H 338.388 -7.27759 -2.19706 0
M  V30 3759 N 339.963 1.05934 -1.16686 0
M  V30 3760 C 341.379 1.30938 -0.912542 0
M  V30 3761 C 341.579 1.96803 0.432533 0
M  V30 3762 O 340.635 2.23693 1.17123 0
M  V30 3763 C 341.948 2.18649 -2.06429 0
M  V30 3764 C 343.496 2.32055 -2.10047 0
M  V30 3765 C 343.971 3.23122 -3.24586 0
M  V30 3766 N 345.462 3.30706 -3.24327 0
M  V30 3767 C 346.197 4.01273 -4.09594 0
M  V30 3768 N 345.693 4.74332 -5.04956 0
M  V30 3769 N 347.486 3.97361 -3.97569 0
M  V30 3770 H 339.637 0.615777 -2.03278 0
M  V30 3771 H 341.9 0.334077 -0.887185 0
M  V30 3772 H 341.606 1.77534 -3.03603 0
M  V30 3773 H 341.48 3.19252 -2.00894 0
M  V30 3774 H 343.867 2.72415 -1.13464 0
M  V30 3775 H 343.948 1.31107 -2.19647 0
M  V30 3776 H 343.592 2.83477 -4.2143 0
M  V30 3777 H 343.522 4.24057 -3.12223 0
M  V30 3778 H 346.013 2.78644 -2.55276 0
M  V30 3779 H 346.326 5.25716 -5.6643 0
M  V30 3780 H 344.671 4.733 -5.08933 0
M  V30 3781 H 347.862 3.39405 -3.22369 0
M  V30 3782 H 348.035 4.52089 -4.64241 0
M  V30 3783 N 341.441 0.965919 1.2453 0
M  V30 3784 C 342.389 0.486506 2.27455 0
M  V30 3785 C 343.383 -0.449041 1.6334 0
M  V30 3786 O 344.589 -0.324527 1.7705 0
M  V30 3787 H 340.964 0.138857 0.739069 0
M  V30 3788 H 342.935 1.3666 2.65267 0
M  V30 3789 C 341.684 -0.209481 3.47068 0
M  V30 3790 H 341.007 0.50129 3.96645 0
M  V30 3791 H 342.447 -0.508775 4.20936 0
M  V30 3792 C 340.906 -1.43586 3.0477 0
M  V30 3793 O 341.436 -2.53299 3.11773 0
M  V30 3794 N 339.642 -1.30126 2.59838 0
M  V30 3795 H 339.189 -0.408583 2.54339 0
M  V30 3796 H 339.147 -2.12294 2.31902 0
M  V30 3797 N 342.919 -1.39368 0.735821 0
M  V30 3798 C 343.869 -2.27885 0.0724287 0
M  V30 3799 C 344.853 -1.44301 -0.711756 0
M  V30 3800 O 346.045 -1.67206 -0.58063 0
M  V30 3801 C 343.174 -3.33029 -0.833454 0
M  V30 3802 C 342.26 -4.24078 -0.0433749 0
M  V30 3803 N 342.651 -4.96138 0.983903 0
M  V30 3804 C 340.949 -4.45164 -0.272905 0
M  V30 3805 C 341.65 -5.63069 1.4604 0
M  V30 3806 N 340.626 -5.37991 0.778857 0
M  V30 3807 H 344.428 -2.81052 0.859467 0
M  V30 3808 H 341.942 -1.5206 0.570227 0
M  V30 3809 H 343.939 -3.95311 -1.32419 0
M  V30 3810 H 342.599 -2.81421 -1.61964 0
M  V30 3811 H 343.61 -4.9958 1.36528 0
M  V30 3812 H 340.287 -4.04497 -1.03383 0
M  V30 3813 H 341.677 -6.30755 2.31511 0
M  V30 3814 N 344.397 -0.483516 -1.5 0
M  V30 3815 C 345.327 0.293829 -2.31644 0
M  V30 3816 C 346.308 0.978864 -1.39112 0
M  V30 3817 O 347.493 0.973644 -1.68029 0
M  V30 3818 C 344.623 1.36897 -3.19181 0
M  V30 3819 C 343.577 0.804833 -4.20365 0
M  V30 3820 C 342.903 1.9792 -4.96721 0
M  V30 3821 C 344.203 -0.192313 -5.21946 0
M  V30 3822 H 345.897 -0.387616 -2.9688 0
M  V30 3823 H 343.443 -0.187856 -1.42769 0
M  V30 3824 H 345.396 1.92037 -3.751 0
M  V30 3825 H 344.12 2.07936 -2.51853 0
M  V30 3826 H 342.779 0.275319 -3.65565 0
M  V30 3827 H 342.427 2.67686 -4.25856 0
M  V30 3828 H 342.127 1.60789 -5.65173 0
M  V30 3829 H 343.651 2.53526 -5.55479 0
M  V30 3830 H 345.065 0.270333 -5.72662 0
M  V30 3831 H 343.462 -0.478543 -5.98189 0
M  V30 3832 H 344.532 -1.11409 -4.71928 0
M  V30 3833 N 345.875 1.56104 -0.216619 0
M  V30 3834 C 347.115 2.00074 0.418322 0
M  V30 3835 C 347.479 1.10098 1.57297 0
M  V30 3836 O 348.68 1.43393 2.27359 0
M  V30 3837 C 346.951 3.47231 0.846477 0
M  V30 3838 S 348.51 4.13223 1.47622 0
M  V30 3839 H 345.328 0.698457 0.132962 0
M  V30 3840 H 347.93 1.92784 -0.324748 0
M  V30 3841 H 346.634 4.104 -0.0036319 0
M  V30 3842 H 346.165 3.58384 1.62248 0
M  V30 3843 H 348.18 4.12005 2.76526 0
M  V30 3844 N 347.353 -0.0568162 1.57498 0
M  V30 3845 C 348.283 -1.06593 2.0775 0
M  V30 3846 C 349.264 -1.39448 0.974082 0
M  V30 3847 O 350.449 -1.48815 1.24771 0
M  V30 3848 C 347.579 -2.37509 2.5339 0
M  V30 3849 C 346.533 -2.1897 3.67745 0
M  V30 3850 C 345.859 -3.55402 3.99492 0
M  V30 3851 C 347.159 -1.59859 4.97235 0
M  V30 3852 H 348.853 -0.647706 2.9231 0
M  V30 3853 H 346.399 -0.310116 1.40621 0
M  V30 3854 H 348.352 -3.08409 2.87162 0
M  V30 3855 H 347.076 -2.8134 1.65878 0
M  V30 3856 H 345.735 -1.50508 3.3428 0
M  V30 3857 H 345.383 -3.9683 3.09088 0
M  V30 3858 H 345.083 -3.43831 4.76502 0
M  V30 3859 H 346.607 -4.27708 4.35773 0
M  V30 3860 H 348.021 -2.20642 5.29141 0
M  V30 3861 H 346.418 -1.58942 5.78669 0
M  V30 3862 H 347.488 -0.561506 4.81638 0
M  V30 3863 N 348.832 -1.54138 -0.328536 0
M  V30 3864 C 350.078 -1.7236 -1.06865 0
M  V30 3865 C 350.411 -0.493231 -1.87832 0
M  V30 3866 O 349.686 0.5098 -1.877 0
M  V30 3867 C 349.969 -2.99621 -1.99747 0
M  V30 3868 C 349.822 -4.32899 -1.22143 0
M  V30 3869 C 351.141 -3.22615 -2.99345 0
M  V30 3870 H 348.26 -0.627151 -0.387105 0
M  V30 3871 H 350.902 -1.86827 -0.345767 0
M  V30 3872 H 349.052 -2.87418 -2.61387 0
M  V30 3873 H 350.724 -4.56978 -0.630017 0
M  V30 3874 H 348.967 -4.30628 -0.523628 0
M  V30 3875 H 349.638 -5.18154 -1.90318 0
M  V30 3876 H 352.114 -3.34248 -2.47826 0
M  V30 3877 H 350.99 -4.13027 -3.61524 0
M  V30 3878 H 351.251 -2.3961 -3.71536 0
M  V30 3879 N 350.31 0.590341 -1.46126 0
M  V30 3880 C 351.557 1.34882 -1.5104 0
M  V30 3881 C 351.885 1.93849 -0.159021 0
M  V30 3882 O 351.14 1.76544 0.844436 0
M  V30 3883 C 351.439 2.5032 -2.55097 0
M  V30 3884 C 351.105 2.09394 -3.99331 0
M  V30 3885 C 349.767 1.97947 -4.38601 0
M  V30 3886 C 352.119 1.77712 -4.89967 0
M  V30 3887 C 349.447 1.53065 -5.66381 0
M  V30 3888 C 351.799 1.34312 -6.18177 0
M  V30 3889 C 350.463 1.21436 -6.56361 0
M  V30 3890 H 349.733 0.493568 -0.552695 0
M  V30 3891 H 352.38 0.665539 -1.79563 0
M  V30 3892 H 350.685 3.24062 -2.20207 0
M  V30 3893 H 352.382 3.08541 -2.56132 0
M  V30 3894 H 348.972 2.19235 -3.68285 0
M  V30 3895 H 353.156 1.85445 -4.60352 0
M  V30 3896 H 348.412 1.41733 -5.94745 0
M  V30 3897 H 352.586 1.08849 -6.87841 0
M  V30 3898 H 350.213 0.864345 -7.5527 0
M  V30 3899 N 351.788 1.33704 0.83433 0
M  V30 3900 C 352.698 1.26382 1.97648 0
M  V30 3901 C 353.714 0.173548 1.73132 0
M  V30 3902 O 354.89 0.397962 1.97429 0
M  V30 3903 C 351.955 1.00769 3.31733 0
M  V30 3904 C 351.016 2.1884 3.69334 0
M  V30 3905 C 350.249 1.9444 4.9702 0
M  V30 3906 O 350.472 0.896961 5.63303 0
M  V30 3907 O 349.406 2.81093 5.32231 0
M  V30 3908 H 353.232 2.22444 2.06767 0
M  V30 3909 H 350.817 1.13795 0.968037 0
M  V30 3910 H 352.699 0.882186 4.12062 0
M  V30 3911 H 351.374 0.0773783 3.23608 0
M  V30 3912 H 350.281 2.36946 2.89495 0
M  V30 3913 H 351.614 3.10221 3.82131 0
M  V30 3914 N 353.266 -1.05314 1.17247 0
M  V30 3915 C 354.199 -2.12512 0.831507 0
M  V30 3916 C 355.177 -1.61351 -0.201168 0
M  V30 3917 O 356.361 -1.88317 -0.0829831 0
M  V30 3918 C 353.488 -3.37848 0.24015 0
M  V30 3919 C 352.534 -4.07832 1.24801 0
M  V30 3920 S 353.367 -4.56537 2.79882 0
M  V30 3921 C 354.523 -5.85122 2.22223 0
M  V30 3922 H 354.756 -2.41106 1.7394 0
M  V30 3923 H 352.289 -1.17896 0.996988 0
M  V30 3924 H 354.247 -4.10391 -0.0945588 0
M  V30 3925 H 352.908 -3.07392 -0.645668 0
M  V30 3926 H 352.101 -4.97883 0.78287 0
M  V30 3927 H 351.703 -3.41348 1.52831 0
M  V30 3928 H 353.995 -6.58408 1.59703 0
M  V30 3929 H 354.938 -6.36381 3.10523 0
M  V30 3930 H 355.346 -5.39626 1.65722 0
M  V30 3931 N 354.744 -0.972509 -1.24016 0
M  V30 3932 C 355.674 -0.525548 -2.27509 0
M  V30 3933 C 356.655 0.437262 -1.64384 0
M  V30 3934 O 357.84 0.332343 -1.91335 0
M  V30 3935 C 354.97 0.180448 -3.46831 0
M  V30 3936 C 353.924 -0.698859 -4.22256 0
M  V30 3937 C 353.25 0.138903 -5.3452 0
M  V30 3938 C 354.55 -1.98582 -4.83076 0
M  V30 3939 H 356.244 -1.39058 -2.65148 0
M  V30 3940 H 353.79 -0.67009 -1.27459 0
M  V30 3941 H 355.743 0.504387 -4.18371 0
M  V30 3942 H 354.467 1.07987 -3.08231 0
M  V30 3943 H 353.126 -1.00614 -3.52523 0
M  V30 3944 H 352.774 1.03862 -4.9216 0
M  V30 3945 H 352.474 -0.446259 -5.85903 0
M  V30 3946 H 353.998 0.457404 -6.08884 0
M  V30 3947 H 355.412 -1.72715 -5.46665 0
M  V30 3948 H 353.809 -2.5181 -5.44713 0
M  V30 3949 H 354.879 -2.67769 -4.04262 0
M  V30 3950 N 356.222 1.38976 -0.743202 0
M  V30 3951 C 357.447 2.05161 -0.303936 0
M  V30 3952 C 357.872 1.55677 1.05576 0
M  V30 3953 O 357.23 0.704131 1.67068 0
M  V30 3954 C 357.278 3.59138 -0.324373 0
M  V30 3955 O 356.382 4.06668 0.685204 0
M  V30 3956 H 355.723 0.649815 -0.136518 0
M  V30 3957 H 358.253 1.77852 -1.01142 0
M  V30 3958 H 358.263 4.07639 -0.171618 0
M  V30 3959 H 356.938 3.94515 -1.31647 0
M  V30 3960 H 355.515 3.69561 0.497913 0
M  V30 3961 N 357.7 0.491464 1.49741 0
M  V30 3962 C 358.93 -0.0534375 2.06531 0
M  V30 3963 C 359.338 -1.32233 1.35318 0
M  V30 3964 O 358.681 -1.78781 0.422243 0
M  V30 3965 C 358.743 -0.387034 3.57411 0
M  V30 3966 C 358.407 0.782764 4.50246 0
M  V30 3967 C 359.404 1.67059 4.92329 0
M  V30 3968 C 357.089 0.978866 4.9267 0
M  V30 3969 C 359.083 2.73874 5.75562 0
M  V30 3970 C 356.77 2.05022 5.75682 0
M  V30 3971 C 357.768 2.92851 6.17031 0
M  V30 3972 O 357.456 3.98138 6.98385 0
M  V30 3973 H 357.188 0.0129324 0.675876 0
M  V30 3974 H 359.742 0.685238 1.93633 0
M  V30 3975 H 357.972 -1.17918 3.68283 0
M  V30 3976 H 359.661 -0.869419 3.96479 0
M  V30 3977 H 360.427 1.53086 4.60206 0
M  V30 3978 H 356.306 0.304646 4.59992 0
M  V30 3979 H 359.85 3.42458 6.07757 0
M  V30 3980 H 355.747 2.18993 6.07217 0
M  V30 3981 H 356.515 3.95374 7.16674 0
M  V30 3982 N 359.178 -1.55987 0.224894 0
M  V30 3983 C 360.126 -2.21808 -0.700283 0
M  V30 3984 C 361.12 -1.19854 -1.19714 0
M  V30 3985 O 362.326 -1.37925 -1.15658 0
M  V30 3986 H 358.701 -0.711226 -0.244258 0
M  V30 3987 H 360.672 -2.98152 -0.121749 0
M  V30 3988 C 359.421 -2.91444 -1.8962 0
M  V30 3989 H 358.744 -3.69655 -1.52299 0
M  V30 3990 H 360.184 -3.40894 -2.52125 0
M  V30 3991 C 358.643 -1.94098 -2.75368 0
M  V30 3992 O 359.173 -1.46004 -3.74227 0
M  V30 3993 N 357.379 -1.61675 -2.41474 0
M  V30 3994 H 356.926 -2.00979 -1.61137 0
M  V30 3995 H 356.884 -0.968036 -2.99126 0
M  V30 3996 N 360.656 0.0484629 -1.57525 0
M  V30 3997 C 361.586 1.0549 -2.08313 0
M  V30 3998 C 362.567 1.38929 -0.981463 0
M  V30 3999 O 363.752 1.48151 -1.25558 0
M  V30 4000 C 360.882 2.36162 -2.54646 0
M  V30 4001 C 359.836 2.17016 -3.68901 0
M  V30 4002 C 359.162 3.53278 -4.01371 0
M  V30 4003 C 360.462 1.57219 -4.98076 0
M  V30 4004 H 362.156 0.632195 -2.92649 0
M  V30 4005 H 359.702 0.302654 -1.40784 0
M  V30 4006 H 361.655 3.06882 -2.88793 0
M  V30 4007 H 360.379 2.80456 -1.67368 0
M  V30 4008 H 359.038 1.48733 -3.35073 0
M  V30 4009 H 358.686 3.95185 -3.11188 0
M  V30 4010 H 358.386 3.41299 -4.78318 0
M  V30 4011 H 359.91 4.25391 -4.38035 0
M  V30 4012 H 361.324 2.17832 -5.30304 0
M  V30 4013 H 359.721 1.55871 -5.79503 0
M  V30 4014 H 360.791 0.535956 -4.81929 0
M  V30 4015 N 362.134 1.5431 0.320358 0
M  V30 4016 C 363.364 1.7638 1.07582 0
M  V30 4017 C 363.772 0.513944 1.82086 0
M  V30 4018 O 363.115 -0.525123 1.76035 0
M  V30 4019 C 363.177 2.9055 2.1171 0
M  V30 4020 C 362.841 4.2934 1.56575 0
M  V30 4021 C 363.838 5.10077 1.00586 0
M  V30 4022 C 361.523 4.75893 1.60722 0
M  V30 4023 C 363.517 6.35477 0.494756 0
M  V30 4024 C 361.204 6.0126 1.09224 0
M  V30 4025 C 362.202 6.80886 0.53696 0
M  V30 4026 O 361.89 8.03894 0.0297371 0
M  V30 4027 H 361.622 0.592369 0.325692 0
M  V30 4028 H 364.176 2.02019 0.37116 0
M  V30 4029 H 362.406 2.60489 2.85801 0
M  V30 4030 H 364.095 3.00373 2.73003 0
M  V30 4031 H 364.861 4.75265 0.966869 0
M  V30 4032 H 360.74 4.13957 2.02882 0
M  V30 4033 H 364.284 6.97574 0.0606842 0
M  V30 4034 H 360.181 6.35562 1.12831 0
M  V30 4035 H 360.949 8.18372 0.14486 0
M  V30 4036 N 363.613 -0.582584 1.46437 0
M  V30 4037 C 364.89 -1.34276 1.4223 0
M  V30 4038 C 365.27 -2.10835 0.10583 0
M  V30 4039 O 364.618 -2.09485 -0.912596 0
M  V30 4040 C 364.828 -2.26865 2.65204 0
M  V30 4041 C 366.176 -2.88691 3.11356 0
M  V30 4042 O 367.2 -2.37178 2.65753 0
M  V30 4043 O 366.059 -3.82255 3.90568 0
M  V30 4044 H 363.153 -0.603326 0.565621 0
M  V30 4045 H 365.699 -0.603591 1.58603 0
M  V30 4046 H 364.471 -1.69724 3.52576 0
M  V30 4047 H 364.094 -3.08122 2.5129 0
M  V30 4048 N 365.091 -1.34144 -0.827227 0
M  V30 4049 C 366.021 -1.28005 -1.95287 0
M  V30 4050 C 367.002 -0.158321 -1.69362 0
M  V30 4051 O 368.187 -0.349987 -1.9102 0
M  V30 4052 C 365.317 -1.03036 -3.31664 0
M  V30 4053 C 364.271 -2.11628 -3.72019 0
M  V30 4054 C 363.597 -1.71854 -5.0633 0
M  V30 4055 C 364.897 -3.53417 -3.8457 0
M  V30 4056 H 366.591 -2.22187 -2.00682 0
M  V30 4057 H 364.137 -1.0696 -0.964135 0
M  V30 4058 H 366.09 -0.973863 -4.09993 0
M  V30 4059 H 364.814 -0.0529391 -3.26557 0
M  V30 4060 H 363.473 -2.16339 -2.95961 0
M  V30 4061 H 363.121 -0.727841 -4.97706 0
M  V30 4062 H 362.821 -2.44531 -5.34302 0
M  V30 4063 H 364.345 -1.67692 -5.87122 0
M  V30 4064 H 365.759 -3.51142 -4.5318 0
M  V30 4065 H 364.156 -4.24679 -4.2399 0
M  V30 4066 H 365.226 -3.91072 -2.86689 0
M  V30 4067 N 366.569 1.04691 -1.17803 0
M  V30 4068 C 367.499 2.14494 -0.92275 0
M  V30 4069 C 368.48 1.69546 0.137179 0
M  V30 4070 O 369.665 1.94195 -0.0141108 0
M  V30 4071 C 366.795 3.44491 -0.440803 0
M  V30 4072 C 365.749 4.03031 -1.4405 0
M  V30 4073 C 365.075 5.28432 -0.81631 0
M  V30 4074 C 366.375 4.39932 -2.81527 0
M  V30 4075 H 368.069 2.36107 -1.84103 0
M  V30 4076 H 365.615 1.1347 -0.886599 0
M  V30 4077 H 367.568 4.2066 -0.249602 0
M  V30 4078 H 366.292 3.22546 0.513025 0
M  V30 4079 H 364.951 3.28937 -1.61853 0
M  V30 4080 H 364.599 5.02792 0.144511 0
M  V30 4081 H 364.299 5.68559 -1.48371 0
M  V30 4082 H 365.823 6.07284 -0.635496 0
M  V30 4083 H 367.237 5.07113 -2.67412 0
M  V30 4084 H 365.634 4.9109 -3.44892 0
M  V30 4085 H 366.704 3.50045 -3.35554 0
M  V30 4086 N 368.047 0.979072 1.23499 0
M  V30 4087 C 369.463 0.687475 1.44034 0
M  V30 4088 C 369.663 -0.746801 1.8715 0
M  V30 4089 O 368.719 -1.51939 2.0167 0
M  V30 4090 C 370.032 1.68127 2.49307 0
M  V30 4091 C 371.58 1.69516 2.63122 0
M  V30 4092 C 372.055 2.67723 3.71603 0
M  V30 4093 N 373.546 2.66233 3.79044 0
M  V30 4094 C 374.281 3.38891 4.62537 0
M  V30 4095 N 373.777 4.21103 5.50131 0
M  V30 4096 N 375.57 3.27661 4.56721 0
M  V30 4097 H 367.721 1.90559 0.938135 0
M  V30 4098 H 369.984 0.821051 0.473897 0
M  V30 4099 H 369.69 2.70693 2.2454 0
M  V30 4100 H 369.564 1.46306 3.4767 0
M  V30 4101 H 371.951 0.676561 2.8724 0
M  V30 4102 H 372.032 1.95404 1.65079 0
M  V30 4103 H 371.676 3.69724 3.48233 0
M  V30 4104 H 371.606 2.39111 4.69184 0
M  V30 4105 H 374.097 2.06568 3.16446 0
M  V30 4106 H 374.41 4.73403 6.10827 0
M  V30 4107 H 372.755 4.25195 5.49759 0
M  V30 4108 H 375.946 2.62887 3.87309 0
M  V30 4109 H 376.119 3.84547 5.21562 0
M  V30 4110 N 369.525 -1.3858 0.750561 0
M  V30 4111 C 370.473 -2.32339 0.110162 0
M  V30 4112 C 371.467 -1.53864 -0.708674 0
M  V30 4113 O 372.673 -1.69417 -0.608112 0
M  V30 4114 H 369.048 -0.751812 0.0168275 0
M  V30 4115 H 371.019 -2.83959 0.917053 0
M  V30 4116 C 369.768 -3.39043 -0.771067 0
M  V30 4117 H 369.091 -3.99517 -0.150374 0
M  V30 4118 H 370.531 -4.07061 -1.1865 0
M  V30 4119 C 368.99 -2.77365 -1.91234 0
M  V30 4120 O 369.52 -2.66434 -3.00626 0
M  V30 4121 N 367.726 -2.35219 -1.70646 0
M  V30 4122 H 367.273 -2.4431 -0.81673 0
M  V30 4123 H 367.231 -1.94294 -2.47178 0
M  V30 4124 N 371.003 -0.499398 -1.49478 0
M  V30 4125 C 372.231 0.0425456 -2.06856 0
M  V30 4126 C 372.646 1.30964 -1.35992 0
M  V30 4127 O 372.003 1.77172 -0.437762 0
M  V30 4128 C 372.054 0.301735 -3.60239 0
M  V30 4129 O 371.775 -0.915127 -4.28436 0
M  V30 4130 C 373.276 0.887499 -4.34325 0
M  V30 4131 H 370.496 -0.0197482 -0.670709 0
M  V30 4132 H 373.04 -0.696297 -1.92281 0
M  V30 4133 H 371.195 0.990556 -3.74522 0
M  V30 4134 H 371.609 -0.676993 -5.20113 0
M  V30 4135 H 373.083 1.01845 -5.42523 0
M  V30 4136 H 373.56 1.88488 -3.96698 0
M  V30 4137 H 374.166 0.236196 -4.24644 0
M  V30 4138 N 372.481 1.55866 -0.233164 0
M  V30 4139 C 373.429 2.22176 0.68851 0
M  V30 4140 C 374.423 1.20487 1.19076 0
M  V30 4141 O 375.629 1.38536 1.14925 0
M  V30 4142 H 372.004 0.712511 0.240483 0
M  V30 4143 H 373.975 2.98212 0.105935 0
M  V30 4144 C 372.724 2.92446 1.88071 0
M  V30 4145 H 372.047 3.70458 1.50337 0
M  V30 4146 H 373.487 3.42226 2.50314 0
M  V30 4147 C 371.946 1.95555 2.74335 0
M  V30 4148 O 372.476 1.47986 3.73447 0
M  V30 4149 N 370.682 1.62953 2.40613 0
M  V30 4150 H 370.229 2.01831 1.60069 0
M  V30 4151 H 370.187 0.983886 2.98609 0
M  V30 4152 N 373.959 -0.0401083 1.57549 0
M  V30 4153 C 375.206 -0.733125 1.88763 0
M  V30 4154 C 375.534 -1.75946 0.829058 0
M  V30 4155 O 374.789 -1.94949 -0.171323 0
M  V30 4156 C 375.088 -1.44902 3.26708 0
M  V30 4157 C 374.754 -0.559707 4.47413 0
M  V30 4158 C 373.416 -0.314731 4.8017 0
M  V30 4159 C 375.768 0.0549743 5.21171 0
M  V30 4160 C 373.096 0.553886 5.8408 0
M  V30 4161 C 375.448 0.911229 6.26003 0
M  V30 4162 C 374.112 1.16577 6.57241 0
M  V30 4163 H 373.382 -0.268269 0.690733 0
M  V30 4164 H 376.029 0.00679408 1.91499 0
M  V30 4165 H 374.334 -2.26197 3.1991 0
M  V30 4166 H 376.031 -1.99058 3.48105 0
M  V30 4167 H 372.621 -0.760793 4.21794 0
M  V30 4168 H 376.805 -0.121344 4.96152 0
M  V30 4169 H 372.061 0.759518 6.06664 0
M  V30 4170 H 376.235 1.3941 6.82303 0
M  V30 4171 H 373.862 1.84058 7.37582 0
M  V30 4172 N 375.437 -1.54477 -0.31217 0
M  V30 4173 C 376.853 -1.45442 -0.657185 0
M  V30 4174 C 377.053 -0.63653 -1.91182 0
M  V30 4175 O 376.109 -0.139815 -2.52113 0
M  V30 4176 C 377.422 -2.89287 -0.82058 0
M  V30 4177 C 378.97 -2.9926 -0.917188 0
M  V30 4178 C 379.445 -4.44279 -1.11267 0
M  V30 4179 N 380.936 -4.4794 -1.17914 0
M  V30 4180 C 381.671 -5.57318 -1.34848 0
M  V30 4181 N 381.167 -6.76642 -1.48752 0
M  V30 4182 N 382.96 -5.44986 -1.37647 0
M  V30 4183 H 375.111 -2.06129 0.512313 0
M  V30 4184 H 377.374 -0.933088 0.167485 0
M  V30 4185 H 377.08 -3.51687 0.0302604 0
M  V30 4186 H 376.954 -3.36061 -1.71298 0
M  V30 4187 H 379.341 -2.36981 -1.75852 0
M  V30 4188 H 379.422 -2.558 -0.00101257 0
M  V30 4189 H 379.066 -5.07149 -0.27614 0
M  V30 4190 H 378.996 -4.85359 -2.04289 0
M  V30 4191 H 381.487 -3.61969 -1.08567 0
M  V30 4192 H 381.8 -7.55758 -1.61397 0
M  V30 4193 H 380.145 -6.79529 -1.45828 0
M  V30 4194 H 383.336 -4.50715 -1.26388 0
M  V30 4195 H 383.509 -6.3028 -1.50501 0
M  V30 4196 N 376.915 0.57481 -1.46744 0
M  V30 4197 C 378.163 1.33009 -1.52161 0
M  V30 4198 C 378.484 1.94185 -0.178092 0
M  V30 4199 O 377.754 1.7899 0.796196 0
M  V30 4200 H 376.334 0.493873 -0.560445 0
M  V30 4201 H 378.996 0.672589 -1.82927 0
M  V30 4202 H 378.092 2.13273 -2.27862 0
M  V30 4203 N 378.394 1.34581 0.820102 0
M  V30 4204 C 379.64 1.27285 1.57881 0
M  V30 4205 C 379.973 -0.156137 1.93571 0
M  V30 4206 O 379.248 -1.10222 1.60254 0
M  V30 4207 C 379.531 2.16639 2.87645 0
M  V30 4208 C 379.384 3.68088 2.58517 0
M  V30 4209 C 380.703 2.05378 3.8924 0
M  V30 4210 H 377.822 0.463714 0.572833 0
M  V30 4211 H 380.464 1.64859 0.944539 0
M  V30 4212 H 378.614 1.84725 3.41773 0
M  V30 4213 H 380.286 4.10382 2.10676 0
M  V30 4214 H 378.529 3.89038 1.91917 0
M  V30 4215 H 379.2 4.2598 3.51063 0
M  V30 4216 H 381.676 2.33404 3.44473 0
M  V30 4217 H 380.552 2.7012 4.77835 0
M  V30 4218 H 380.813 1.0316 4.29896 0
M  V30 4219 N 379.872 -1.04064 1.18357 0
M  V30 4220 C 381.097 -1.81454 1.00445 0
M  V30 4221 C 381.522 -1.82823 -0.442423 0
M  V30 4222 O 380.88 -1.24555 -1.31741 0
M  V30 4223 C 380.928 -3.24925 1.56384 0
M  V30 4224 O 380.032 -4.04856 0.785209 0
M  V30 4225 H 379.373 -0.560604 0.355835 0
M  V30 4226 H 381.903 -1.31059 1.57114 0
M  V30 4227 H 381.913 -3.75702 1.59097 0
M  V30 4228 H 380.588 -3.23244 2.61699 0
M  V30 4229 H 379.165 -3.63537 0.830399 0
M  V30 4230 N 381.35 -0.985608 -1.22978 0
M  V30 4231 C 382.28 -0.549649 -2.26939 0
M  V30 4232 C 383.261 0.419803 -1.64838 0
M  V30 4233 O 384.446 0.31203 -1.91677 0
M  V30 4234 C 381.576 0.143652 -3.47003 0
M  V30 4235 C 380.53 -0.743606 -4.21491 0
M  V30 4236 C 379.856 0.0822027 -5.34637 0
M  V30 4237 C 381.156 -2.03694 -4.80943 0
M  V30 4238 H 382.85 -1.41862 -2.63658 0
M  V30 4239 H 380.396 -0.683571 -1.26741 0
M  V30 4240 H 382.349 0.459985 -4.18882 0
M  V30 4241 H 381.073 1.04711 -3.09359 0
M  V30 4242 H 379.732 -1.04347 -3.51436 0
M  V30 4243 H 379.38 0.986359 -4.93234 0
M  V30 4244 H 379.08 -0.508377 -5.85397 0
M  V30 4245 H 380.604 0.392797 -6.09335 0
M  V30 4246 H 382.018 -1.78504 -5.44802 0
M  V30 4247 H 380.415 -2.57573 -5.42011 0
M  V30 4248 H 381.485 -2.72042 -4.01399 0
M  V30 4249 N 382.828 1.3818 -0.7579 0
M  V30 4250 C 383.776 2.32277 -0.122482 0
M  V30 4251 C 384.77 1.54238 0.700505 0
M  V30 4252 O 385.976 1.69737 0.599119 0
M  V30 4253 H 382.351 0.751712 -0.0208143 0
M  V30 4254 H 384.322 2.83469 -0.932099 0
M  V30 4255 C 383.071 3.39447 0.753076 0
M  V30 4256 H 382.394 3.99591 0.129184 0
M  V30 4257 H 383.834 4.07684 1.16489 0
M  V30 4258 C 382.293 2.78375 1.8976 0
M  V30 4259 O 382.823 2.68025 2.99208 0
M  V30 4260 N 381.029 2.36121 1.69397 0
M  V30 4261 H 380.576 2.4474 0.803762 0
M  V30 4262 H 380.534 1.95602 2.46145 0
M  V30 4263 N 384.306 0.507319 1.49211 0
M  V30 4264 C 385.236 -0.256939 2.32082 0
M  V30 4265 C 386.217 -0.956609 1.40652 0
M  V30 4266 O 387.402 -0.946788 1.69557 0
M  V30 4267 C 384.532 -1.31802 3.21318 0
M  V30 4268 C 383.486 -0.737855 4.21592 0
M  V30 4269 C 382.812 -1.89992 4.99807 0
M  V30 4270 C 384.112 0.275325 5.21574 0
M  V30 4271 H 385.806 0.434798 2.96226 0
M  V30 4272 H 383.352 0.210546 1.42452 0
M  V30 4273 H 385.305 -1.86045 3.78107 0
M  V30 4274 H 384.029 -2.03903 2.5513 0
M  V30 4275 H 382.688 -0.217126 3.65956 0
M  V30 4276 H 382.336 -2.60877 4.30061 0
M  V30 4277 H 382.036 -1.51777 5.6766 0
M  V30 4278 H 383.56 -2.44657 5.59442 0
M  V30 4279 H 384.974 -0.179193 5.7302 0
M  V30 4280 H 383.371 0.573649 5.97352 0
M  V30 4281 H 384.441 1.18903 4.70096 0
M  V30 4282 N 385.784 -1.5574 0.241426 0
M  V30 4283 C 387.012 -2.03208 -0.389134 0
M  V30 4284 C 387.427 -1.12082 -1.51931 0
M  V30 4285 O 386.784 -0.134183 -1.82006 0
M  V30 4286 C 386.835 -3.50064 -0.902087 0
M  V30 4287 O 386.556 -4.37717 0.18305 0
M  V30 4288 C 388.057 -4.13268 -1.60389 0
M  V30 4289 H 385.277 -0.664509 -0.0931053 0
M  V30 4290 H 387.821 -2.0124 0.36369 0
M  V30 4291 H 385.976 -3.52583 -1.60511 0
M  V30 4292 H 386.39 -5.24097 -0.205579 0
M  V30 4293 H 387.864 -5.17733 -1.91458 0
M  V30 4294 H 388.341 -3.59434 -2.52397 0
M  V30 4295 H 388.947 -4.14655 -0.945576 0
M  V30 4296 N 387.262 0.0317525 -1.57568 0
M  V30 4297 C 388.678 0.38735 -1.54828 0
M  V30 4298 C 388.878 1.7677 -0.967187 0
M  V30 4299 O 387.934 2.45581 -0.587063 0
M  V30 4300 C 389.247 0.291667 -2.99282 0
M  V30 4301 C 390.795 0.368946 -3.10818 0
M  V30 4302 C 391.27 0.302741 -4.56998 0
M  V30 4303 N 392.761 0.361617 -4.61786 0
M  V30 4304 C 393.496 0.333238 -5.72431 0
M  V30 4305 N 392.992 0.257308 -6.92322 0
M  V30 4306 N 394.785 0.382769 -5.60795 0
M  V30 4307 H 386.936 -0.871609 -1.93692 0
M  V30 4308 H 389.199 -0.331161 -0.888277 0
M  V30 4309 H 388.905 -0.656794 -3.45513 0
M  V30 4310 H 388.779 1.08638 -3.61217 0
M  V30 4311 H 391.166 1.30784 -2.64536 0
M  V30 4312 H 391.247 -0.455066 -2.5172 0
M  V30 4313 H 390.891 -0.632473 -5.03947 0
M  V30 4314 H 390.821 1.14482 -5.14005 0
M  V30 4315 H 393.312 0.422923 -3.75526 0
M  V30 4316 H 393.625 0.24068 -7.72425 0
M  V30 4317 H 391.97 0.223396 -6.94641 0
M  V30 4318 H 395.161 0.44006 -4.66027 0
M  V30 4319 H 395.334 0.357184 -6.47015 0
M  V30 4320 N 388.74 1.54641 0.303973 0
M  V30 4321 C 389.687 1.85386 1.37479 0
M  V30 4322 C 390.657 0.702528 1.50512 0
M  V30 4323 O 391.842 0.950867 1.65418 0
M  V30 4324 C 388.982 2.10413 2.73533 0
M  V30 4325 C 388.095 3.38049 2.68974 0
M  V30 4326 C 387.23 3.52934 3.97002 0
M  V30 4327 C 386.269 4.74373 3.86829 0
M  V30 4328 N 385.406 4.8608 5.06627 0
M  V30 4329 H 390.246 2.76732 1.1056 0
M  V30 4330 H 387.783 1.37034 0.534805 0
M  V30 4331 H 389.741 2.22919 3.52652 0
M  V30 4332 H 388.371 1.22338 2.98719 0
M  V30 4333 H 387.423 3.3418 1.81736 0
M  V30 4334 H 388.735 4.27288 2.57346 0
M  V30 4335 H 387.889 3.65088 4.84557 0
M  V30 4336 H 386.628 2.61824 4.1146 0
M  V30 4337 H 385.633 4.62255 2.97658 0
M  V30 4338 H 386.858 5.66888 3.73918 0
M  V30 4339 H 384.804 3.97891 5.21554 0
M  V30 4340 H 384.721 5.69315 4.9741 0
M  V30 4341 H 385.989 5.02587 5.95841 0
M  V30 4342 N 390.218 -0.567019 1.47046 0
M  V30 4343 C 391.465 -1.32462 1.53167 0
M  V30 4344 C 391.793 -1.93571 0.189841 0
M  V30 4345 O 391.048 -1.77865 -0.816243 0
M  V30 4346 C 391.347 -2.4623 2.59047 0
M  V30 4347 C 391.013 -2.03014 4.02612 0
M  V30 4348 C 389.675 -1.90944 4.41694 0
M  V30 4349 C 392.027 -1.69895 4.92732 0
M  V30 4350 C 389.355 -1.44035 5.68745 0
M  V30 4351 C 391.707 -1.2446 6.20236 0
M  V30 4352 C 390.371 -1.10979 6.5821 0
M  V30 4353 H 389.641 -0.484713 0.560477 0
M  V30 4354 H 392.288 -0.636888 1.80599 0
M  V30 4355 H 390.593 -3.20517 2.25335 0
M  V30 4356 H 392.29 -3.04427 2.61008 0
M  V30 4357 H 388.88 -2.13348 3.71726 0
M  V30 4358 H 393.064 -1.78098 4.63244 0
M  V30 4359 H 388.32 -1.32254 5.96925 0
M  V30 4360 H 392.494 -0.978924 6.89485 0
M  V30 4361 H 390.121 -0.744078 7.5655 0
M  V30 4362 N 391.696 -1.35014 -0.812953 0
M  V30 4363 C 392.659 -1.27292 -1.90602 0
M  V30 4364 C 393.659 -0.185817 -1.59723 0
M  V30 4365 O 394.849 -0.439102 -1.68575 0
M  V30 4366 C 391.981 -0.967676 -3.26877 0
M  V30 4367 H 393.174 -2.24479 -1.9887 0
M  V30 4368 H 390.727 -1.19446 -1.00808 0
M  V30 4369 H 391.462 0.0005954 -3.243 0
M  V30 4370 H 391.247 -1.75412 -3.50675 0
M  V30 4371 H 392.737 -0.939085 -4.06904 0
M  V30 4372 N 393.175 1.03435 -1.18907 0
M  V30 4373 C 394.107 2.1165 -0.879595 0
M  V30 4374 C 395.12 1.62316 0.125439 0
M  V30 4375 O 396.309 1.78201 -0.103245 0
M  V30 4376 C 393.409 3.37622 -0.294042 0
M  V30 4377 C 392.582 4.16166 -1.34629 0
M  V30 4378 C 391.641 5.20457 -0.775274 0
M  V30 4379 O 390.667 5.50379 -1.4516 0
M  V30 4380 N 391.869 5.78949 0.424126 0
M  V30 4381 H 394.634 2.38791 -1.81105 0
M  V30 4382 H 392.195 1.19681 -1.09032 0
M  V30 4383 H 394.187 4.04572 0.101679 0
M  V30 4384 H 392.757 3.07873 0.541575 0
M  V30 4385 H 391.977 3.44444 -1.91707 0
M  V30 4386 H 393.265 4.65432 -2.05549 0
M  V30 4387 H 392.663 5.56948 0.991209 0
M  V30 4388 H 391.22 6.47334 0.761691 0
M  V30 4389 N 394.653 0.992116 1.22453 0
M  V30 4390 C 395.585 0.500024 2.23679 0
M  V30 4391 C 396.598 -0.404463 1.57696 0
M  V30 4392 O 397.787 -0.206722 1.77299 0
M  V30 4393 C 394.887 -0.294711 3.37616 0
M  V30 4394 C 394.06 0.605723 4.33186 0
M  V30 4395 C 393.119 -0.13717 5.26021 0
M  V30 4396 O 392.145 0.477164 5.67196 0
M  V30 4397 N 393.347 -1.4197 5.62872 0
M  V30 4398 H 396.112 1.37045 2.66531 0
M  V30 4399 H 393.673 0.866741 1.36745 0
M  V30 4400 H 395.665 -0.800329 3.96707 0
M  V30 4401 H 394.235 -1.06623 2.93854 0
M  V30 4402 H 393.455 1.29202 3.72425 0
M  V30 4403 H 394.743 1.21896 4.93983 0
M  V30 4404 H 394.141 -1.94015 5.31389 0
M  V30 4405 H 392.698 -1.87052 6.24383 0
M  V30 4406 N 396.131 -1.37776 0.765217 0
M  V30 4407 C 397.064 -2.28008 0.0935025 0
M  V30 4408 C 398.042 -1.45985 -0.716047 0
M  V30 4409 O 399.226 -1.75331 -0.692203 0
M  V30 4410 C 396.353 -3.27228 -0.874052 0
M  V30 4411 C 395.399 -4.26239 -0.149307 0
M  V30 4412 S 396.232 -5.22827 1.15809 0
M  V30 4413 C 397.388 -6.256 0.193906 0
M  V30 4414 H 397.621 -2.84631 0.858637 0
M  V30 4415 H 395.154 -1.43952 0.558313 0
M  V30 4416 H 397.112 -3.84902 -1.42691 0
M  V30 4417 H 395.773 -2.69565 -1.61225 0
M  V30 4418 H 394.966 -4.96213 -0.88254 0
M  V30 4419 H 394.568 -3.7252 0.332366 0
M  V30 4420 H 396.86 -6.74508 -0.636011 0
M  V30 4421 H 397.803 -7.02838 0.861638 0
M  V30 4422 H 398.211 -5.64173 -0.191975 0
M  V30 4423 N 397.609 -0.515225 -1.4894 0
M  V30 4424 C 398.849 0.0223983 -2.04388 0
M  V30 4425 C 399.213 1.32961 -1.38511 0
M  V30 4426 O 400.414 1.95236 -1.8476 0
M  V30 4427 C 398.685 0.157056 -3.57055 0
M  V30 4428 S 400.244 0.646875 -4.34006 0
M  V30 4429 H 397.062 -0.00500662 -0.710982 0
M  V30 4430 H 399.664 -0.69243 -1.82827 0
M  V30 4431 H 398.368 -0.799412 -4.02539 0
M  V30 4432 H 397.899 0.896704 -3.83044 0
M  V30 4433 H 399.914 1.91381 -4.57808 0
M  V30 4434 N 399.087 1.5561 -0.249682 0
M  V30 4435 C 400.315 2.03411 0.378352 0
M  V30 4436 C 400.73 1.12886 1.51335 0
M  V30 4437 O 400.087 0.143833 1.81932 0
M  V30 4438 C 400.138 3.50537 0.88351 0
M  V30 4439 O 399.859 4.37614 -0.20626 0
M  V30 4440 C 401.36 4.14113 1.58195 0
M  V30 4441 H 398.58 0.664994 0.08958 0
M  V30 4442 H 401.124 2.01044 -0.374357 0
M  V30 4443 H 399.279 3.5343 1.58639 0
M  V30 4444 H 399.693 5.24199 0.177782 0
M  V30 4445 H 401.167 5.18741 1.8871 0
M  V30 4446 H 401.644 3.60767 2.50487 0
M  V30 4447 H 402.25 4.15151 0.923573 0
M  V30 4448 N 400.565 -0.0233959 1.57583 0
M  V30 4449 C 401.528 -1.00693 2.05897 0
M  V30 4450 C 402.528 -1.28693 0.964092 0
M  V30 4451 O 403.718 -1.23602 1.22753 0
M  V30 4452 C 400.85 -2.33825 2.4807 0
M  V30 4453 H 402.043 -0.589476 2.9405 0
M  V30 4454 H 399.596 -0.270354 1.53944 0
M  V30 4455 H 400.331 -2.80307 1.6309 0
M  V30 4456 H 400.116 -2.1483 3.2801 0
M  V30 4457 H 401.606 -3.04426 2.85857 0
M  V30 4458 N 402.043 -1.548 -0.295768 0
M  V30 4459 C 402.973 -1.89115 -1.36959 0
M  V30 4460 C 403.954 -0.75059 -1.52644 0
M  V30 4461 O 405.139 -1.00678 -1.66065 0
M  V30 4462 C 402.269 -2.14307 -2.73295 0
M  V30 4463 C 401.223 -3.30151 -2.72368 0
M  V30 4464 C 400.549 -3.40772 -4.12042 0
M  V30 4465 C 401.849 -4.67126 -2.33646 0
M  V30 4466 H 403.543 -2.79053 -1.08488 0
M  V30 4467 H 401.089 -1.34266 -0.520443 0
M  V30 4468 H 403.042 -2.36898 -3.48507 0
M  V30 4469 H 401.766 -1.21145 -3.03301 0
M  V30 4470 H 400.425 -3.0749 -1.99613 0
M  V30 4471 H 400.073 -2.45117 -4.39234 0
M  V30 4472 H 399.773 -4.18645 -4.12322 0
M  V30 4473 H 401.297 -3.6563 -4.89027 0
M  V30 4474 H 402.711 -4.89414 -2.98575 0
M  V30 4475 H 401.108 -5.47751 -2.45129 0
M  V30 4476 H 402.178 -4.67489 -1.28772 0
M  V30 4477 N 403.521 0.559213 -1.47345 0
M  V30 4478 C 404.451 1.67622 -1.62558 0
M  V30 4479 C 405.432 1.63331 -0.475087 0
M  V30 4480 O 406.617 1.80983 -0.704182 0
M  V30 4481 C 403.747 3.0626 -1.63774 0
M  V30 4482 C 402.701 3.25397 -2.7803 0
M  V30 4483 C 402.027 4.64801 -2.64318 0
M  V30 4484 C 403.327 3.10965 -4.19641 0
M  V30 4485 H 405.021 1.55146 -2.56067 0
M  V30 4486 H 402.567 0.744961 -1.23233 0
M  V30 4487 H 404.52 3.84247 -1.73008 0
M  V30 4488 H 403.244 3.1969 -0.66825 0
M  V30 4489 H 401.903 2.49817 -2.68304 0
M  V30 4490 H 401.551 4.75028 -1.65401 0
M  V30 4491 H 401.251 4.78555 -3.40968 0
M  V30 4492 H 402.775 5.44926 -2.75478 0
M  V30 4493 H 404.189 3.78772 -4.30354 0
M  V30 4494 H 402.586 3.36229 -4.97062 0
M  V30 4495 H 403.656 2.07736 -4.38148 0
M  V30 4496 N 404.999 1.35443 0.805782 0
M  V30 4497 C 406.246 1.28761 1.56291 0
M  V30 4498 C 406.574 -0.137747 1.94012 0
M  V30 4499 O 405.829 -1.1032 1.61642 0
M  V30 4500 C 406.128 2.14045 2.86216 0
M  V30 4501 C 405.794 3.62826 2.67709 0
M  V30 4502 C 404.456 4.0338 2.6237 0
M  V30 4503 C 406.808 4.57227 2.50186 0
M  V30 4504 C 404.136 5.36501 2.37451 0
M  V30 4505 C 406.488 5.90547 2.26797 0
M  V30 4506 C 405.152 6.30245 2.1988 0
M  V30 4507 H 404.422 0.471171 0.571908 0
M  V30 4508 H 407.069 1.67347 0.930974 0
M  V30 4509 H 405.374 1.68342 3.53791 0
M  V30 4510 H 407.071 2.0621 3.43917 0
M  V30 4511 H 403.661 3.30644 2.72713 0
M  V30 4512 H 407.845 4.2678 2.53323 0
M  V30 4513 H 403.101 5.66259 2.30567 0
M  V30 4514 H 407.275 6.63274 2.12228 0
M  V30 4515 H 404.902 7.33328 2.00333 0
M  V30 4516 N 406.477 -1.02803 1.19454 0
M  V30 4517 C 407.407 -2.12999 0.956758 0
M  V30 4518 C 408.388 -1.69743 -0.110188 0
M  V30 4519 O 409.573 -1.94148 0.0450038 0
M  V30 4520 C 406.703 -3.43746 0.495553 0
M  V30 4521 C 405.657 -4.00688 1.50443 0
M  V30 4522 C 404.983 -5.27067 0.900275 0
M  V30 4523 C 406.283 -4.35397 2.8849 0
M  V30 4524 H 407.977 -2.33148 1.87836 0
M  V30 4525 H 405.523 -1.12045 0.904539 0
M  V30 4526 H 407.476 -4.2021 0.316493 0
M  V30 4527 H 406.2 -3.23321 -0.461646 0
M  V30 4528 H 404.859 -3.2632 1.67065 0
M  V30 4529 H 404.507 -5.02959 -0.064503 0
M  V30 4530 H 404.207 -5.66127 1.57397 0
M  V30 4531 H 405.731 -6.06196 0.73203 0
M  V30 4532 H 407.145 -5.02795 2.75446 0
M  V30 4533 H 405.542 -4.85541 3.52661 0
M  V30 4534 H 406.612 -3.44662 3.41081 0
M  V30 4535 N 407.956 -0.998596 -1.21925 0
M  V30 4536 C 408.919 -0.558679 -2.22287 0
M  V30 4537 C 409.919 0.361525 -1.56683 0
M  V30 4538 O 411.109 0.152695 -1.73529 0
M  V30 4539 C 408.241 0.18661 -3.40389 0
M  V30 4540 H 409.434 -1.4463 -2.62721 0
M  V30 4541 H 406.987 -0.786413 -1.35075 0
M  V30 4542 H 407.722 1.08996 -3.05435 0
M  V30 4543 H 407.507 -0.474188 -3.89222 0
M  V30 4544 H 408.997 0.482367 -4.14805 0
M  V30 4545 N 409.434 1.37368 -0.772513 0
M  V30 4546 C 410.662 2.03942 -0.348588 0
M  V30 4547 C 411.077 1.58264 1.02947 0
M  V30 4548 O 410.434 0.764246 1.65727 0
M  V30 4549 C 410.485 3.5946 -0.38351 0
M  V30 4550 O 410.206 4.03468 -1.70721 0
M  V30 4551 C 411.707 4.4327 0.0519152 0
M  V30 4552 H 408.927 0.654931 -0.145966 0
M  V30 4553 H 411.471 1.75686 -1.04665 0
M  V30 4554 H 409.626 3.86486 0.265978 0
M  V30 4555 H 410.04 4.97991 -1.64636 0
M  V30 4556 H 411.514 5.51995 -0.0236733 0
M  V30 4557 H 411.991 4.2514 1.10238 0
M  V30 4558 H 412.597 4.21471 -0.569415 0
M  V30 4559 N 410.912 0.523116 1.48665 0
M  V30 4560 C 412.323 0.0808997 1.86525 0
M  V30 4561 C 412.674 -1.33975 1.43336 0
M  V30 4562 O 411.799 -2.00221 0.821009 0
M  V30 4563 C 412.394 0.140037 3.3851 0
M  V30 4564 C 410.953 -0.246948 3.75589 0
M  V30 4565 C 410.1 0.502845 2.72703 0
M  V30 4566 H 413.051 0.734736 1.40667 0
M  V30 4567 H 413.072 -0.649945 3.74908 0
M  V30 4568 H 412.584 1.17412 3.69914 0
M  V30 4569 H 410.685 -1.28343 3.49798 0
M  V30 4570 H 410.798 0.0878859 4.79019 0
M  V30 4571 H 409.162 -0.0500581 2.54651 0
M  V30 4572 H 409.945 1.53743 3.0695 0
M  V30 4573 N 412.39 -1.55475 0.257931 0
M  V30 4574 C 413.3 -2.2549 -0.647425 0
M  V30 4575 C 414.316 -1.2748 -1.18427 0
M  V30 4576 O 415.492 -1.6038 -1.2182 0
M  V30 4577 C 412.557 -2.94916 -1.82278 0
M  V30 4578 C 411.618 -4.08363 -1.32432 0
M  V30 4579 C 410.851 -4.74469 -2.44366 0
M  V30 4580 O 411.074 -4.39701 -3.63344 0
M  V30 4581 O 410.008 -5.62763 -2.13497 0
M  V30 4582 H 413.834 -3.03593 -0.0807707 0
M  V30 4583 H 411.419 -1.49377 0.0259962 0
M  V30 4584 H 413.301 -3.38606 -2.50846 0
M  V30 4585 H 411.976 -2.19744 -2.37685 0
M  V30 4586 H 410.883 -3.69166 -0.605605 0
M  V30 4587 H 412.216 -4.85385 -0.816211 0
M  V30 4588 N 413.868 0.0150385 -1.57593 0
M  V30 4589 C 414.798 1.01047 -2.10503 0
M  V30 4590 C 415.779 1.36816 -1.01071 0
M  V30 4591 O 416.964 1.45455 -1.28672 0
M  V30 4592 C 414.094 2.30708 -2.59598 0
M  V30 4593 C 413.048 2.09142 -3.73421 0
M  V30 4594 C 412.374 3.44685 -4.08774 0
M  V30 4595 C 413.674 1.46619 -5.01298 0
M  V30 4596 H 415.368 0.569978 -2.93925 0
M  V30 4597 H 412.914 0.272724 -1.41394 0
M  V30 4598 H 414.867 3.00687 -2.95238 0
M  V30 4599 H 413.591 2.76843 -1.73279 0
M  V30 4600 H 412.25 1.41592 -3.38153 0
M  V30 4601 H 411.898 3.88495 -3.195 0
M  V30 4602 H 411.598 3.31077 -4.8545 0
M  V30 4603 H 413.122 4.16004 -4.4696 0
M  V30 4604 H 414.536 2.06535 -5.34805 0
M  V30 4605 H 412.933 1.43544 -5.82679 0
M  V30 4606 H 414.003 0.433611 -4.82957 0
M  V30 4607 N 415.346 1.54954 0.287554 0
M  V30 4608 C 416.571 1.79209 1.04397 0
M  V30 4609 C 416.996 0.556431 1.79682 0
M  V30 4610 O 416.354 -0.493518 1.74454 0
M  V30 4611 C 416.402 3.00739 1.98969 0
M  V30 4612 O 415.506 2.74805 3.075 0
M  V30 4613 H 414.847 0.592755 0.299227 0
M  V30 4614 H 417.377 2.02068 0.320886 0
M  V30 4615 H 417.387 3.29077 2.4119 0
M  V30 4616 H 416.062 3.90329 1.43582 0
M  V30 4617 H 414.639 2.57523 2.69697 0
M  V30 4618 N 416.824 -0.551391 1.4764 0
M  V30 4619 C 418.073 -1.30467 1.53822 0
M  V30 4620 C 418.386 -1.94495 0.207661 0
M  V30 4621 O 419.592 -2.71099 0.147533 0
M  V30 4622 C 418.048 -2.36616 2.71184 0
M  V30 4623 C 417.656 -1.78754 4.10793 0
M  V30 4624 C 419.4 -3.13088 2.86663 0
M  V30 4625 C 417.307 -2.82717 5.19447 0
M  V30 4626 H 416.237 -0.490584 0.572576 0
M  V30 4627 H 418.888 -0.58494 1.73927 0
M  V30 4628 H 417.27 -3.11529 2.4447 0
M  V30 4629 H 418.444 -1.10173 4.47435 0
M  V30 4630 H 416.759 -1.14846 4.00249 0
M  V30 4631 H 419.356 -3.90736 3.65007 0
M  V30 4632 H 419.699 -3.67635 1.95321 0
M  V30 4633 H 420.232 -2.45288 3.13175 0
M  V30 4634 H 416.971 -2.33018 6.12685 0
M  V30 4635 H 416.491 -3.4969 4.87316 0
M  V30 4636 H 418.17 -3.46102 5.46646 0
M  V30 4637 N 418.302 -1.35869 -0.798587 0
M  V30 4638 C 419.551 -1.28921 -1.5512 0
M  V30 4639 C 419.864 0.13208 -1.95154 0
M  V30 4640 O 421.07 0.323879 -2.69561 0
M  V30 4641 C 419.526 -2.26141 -2.79979 0
M  V30 4642 C 419.134 -3.73658 -2.47151 0
M  V30 4643 C 420.878 -2.28152 -3.57976 0
M  V30 4644 C 418.785 -4.62679 -3.6835 0
M  V30 4645 H 417.715 -0.479031 -0.582276 0
M  V30 4646 H 420.366 -1.61179 -0.877125 0
M  V30 4647 H 418.748 -1.86865 -3.49138 0
M  V30 4648 H 419.922 -4.21616 -1.85947 0
M  V30 4649 H 418.237 -3.74333 -1.82383 0
M  V30 4650 H 420.834 -2.91875 -4.4801 0
M  V30 4651 H 421.177 -1.28748 -3.95891 0
M  V30 4652 H 421.71 -2.65998 -2.95787 0
M  V30 4653 H 418.449 -5.63111 -3.35538 0
M  V30 4654 H 417.969 -4.19442 -4.28752 0
M  V30 4655 H 419.648 -4.78498 -4.35487 0
M  V30 4656 N 419.78 1.02168 -1.19998 0
M  V30 4657 C 420.73 2.08969 -0.911921 0
M  V30 4658 C 421.714 1.60404 0.12621 0
M  V30 4659 O 422.906 1.76817 -0.0804706 0
M  V30 4660 C 420.035 3.402 -0.460277 0
M  V30 4661 C 419.121 3.9548 -1.53155 0
M  V30 4662 N 419.512 4.24332 -2.75275 0
M  V30 4663 C 417.81 4.23572 -1.39653 0
M  V30 4664 C 418.511 4.68834 -3.44339 0
M  V30 4665 N 417.487 4.70804 -2.71744 0
M  V30 4666 H 421.289 2.29178 -1.83997 0
M  V30 4667 H 418.803 1.20094 -1.09322 0
M  V30 4668 H 420.8 4.16235 -0.235337 0
M  V30 4669 H 419.46 3.21408 0.4612 0
M  V30 4670 H 420.471 4.13393 -3.11973 0
M  V30 4671 H 417.148 4.14005 -0.539067 0
M  V30 4672 H 418.538 5.00019 -4.4881 0
M  V30 4673 N 421.258 1.00505 1.21394 0
M  V30 4674 C 422.498 0.696149 1.9218 0
M  V30 4675 C 422.862 -0.759099 1.76357 0
M  V30 4676 O 424.063 -1.17998 2.41516 0
M  V30 4677 C 422.334 1.10571 3.39866 0
M  V30 4678 S 423.893 0.91702 4.29111 0
M  V30 4679 H 420.711 0.254147 0.664026 0
M  V30 4680 H 423.313 1.28988 1.46909 0
M  V30 4681 H 422.017 2.16096 3.489 0
M  V30 4682 H 421.548 0.504268 3.90155 0
M  V30 4683 H 423.563 -0.185855 4.95852 0
M  V30 4684 N 422.737 -1.36956 0.779787 0
M  V30 4685 C 424.014 -1.93697 0.272156 0
M  V30 4686 C 424.394 -1.71267 -1.23413 0
M  V30 4687 O 423.742 -1.06607 -2.02107 0
M  V30 4688 C 423.952 -3.42812 0.654291 0
M  V30 4689 C 425.3 -4.19921 0.628602 0
M  V30 4690 O 426.324 -3.51209 0.594172 0
M  V30 4691 O 425.183 -5.42465 0.662864 0
M  V30 4692 H 422.277 -0.824447 0.0649286 0
M  V30 4693 H 424.823 -1.46196 0.861682 0
M  V30 4694 H 423.595 -3.52754 1.69353 0
M  V30 4695 H 423.218 -3.97582 0.0381369 0
M  V30 4696 N 424.215 -0.530993 -1.48385 0
M  V30 4697 C 425.145 0.219985 -2.32461 0
M  V30 4698 C 426.126 0.934111 -1.42156 0
M  V30 4699 O 427.311 0.919694 -1.71042 0
M  V30 4700 C 424.441 1.26674 -3.23375 0
M  V30 4701 C 423.395 0.67069 -4.22712 0
M  V30 4702 C 422.721 1.82017 -5.02766 0
M  V30 4703 C 424.021 -0.358268 -5.2107 0
M  V30 4704 H 425.715 -0.48187 -2.95497 0
M  V30 4705 H 423.261 -0.233182 -1.42099 0
M  V30 4706 H 425.214 1.80006 -3.81019 0
M  V30 4707 H 423.938 1.99818 -2.58341 0
M  V30 4708 H 422.597 0.158878 -3.66256 0
M  V30 4709 H 422.245 2.54002 -4.34157 0
M  V30 4710 H 421.945 1.42727 -5.70003 0
M  V30 4711 H 423.469 2.35725 -5.63264 0
M  V30 4712 H 424.883 0.0880081 -5.73232 0
M  V30 4713 H 423.28 -0.66861 -5.96364 0
M  V30 4714 H 424.35 -1.26367 -4.68145 0
M  V30 4715 N 425.693 1.55336 -0.266172 0
M  V30 4716 C 426.64 2.22172 0.625165 0
M  V30 4717 C 427.61 1.19211 1.15663 0
M  V30 4718 O 428.795 1.47723 1.20758 0
M  V30 4719 C 425.935 2.93972 1.8076 0
M  V30 4720 C 425.048 4.11632 1.31084 0
M  V30 4721 C 424.183 4.71099 2.45436 0
M  V30 4722 C 423.222 5.8097 1.92718 0
M  V30 4723 N 422.359 6.34538 3.00509 0
M  V30 4724 H 427.199 2.9796 0.0485582 0
M  V30 4725 H 424.736 1.47095 0.0122024 0
M  V30 4726 H 426.694 3.33811 2.50251 0
M  V30 4727 H 425.324 2.20623 2.35638 0
M  V30 4728 H 424.376 3.76975 0.509326 0
M  V30 4729 H 425.688 4.90893 0.884633 0
M  V30 4730 H 424.842 5.13612 3.22936 0
M  V30 4731 H 423.581 3.91096 2.91368 0
M  V30 4732 H 422.586 5.37916 1.13695 0
M  V30 4733 H 423.811 6.62836 1.47733 0
M  V30 4734 H 421.757 5.57433 3.45839 0
M  V30 4735 H 421.674 7.09046 2.62279 0
M  V30 4736 H 422.942 6.81709 3.78011 0
M  V30 4737 N 427.171 -0.0066808 1.57599 0
M  V30 4738 C 428.582 -0.550379 1.78403 0
M  V30 4739 C 428.933 -1.74339 0.900014 0
M  V30 4740 O 428.058 -2.16166 0.100713 0
M  V30 4741 C 428.653 -1.00523 3.23544 0
M  V30 4742 C 427.212 -1.49428 3.45468 0
M  V30 4743 C 426.359 -0.442444 2.73748 0
M  V30 4744 H 429.31 0.219508 1.57175 0
M  V30 4745 H 429.331 -1.87157 3.31289 0
M  V30 4746 H 428.843 -0.136735 3.87859 0
M  V30 4747 H 426.944 -2.3839 2.86358 0
M  V30 4748 H 427.057 -1.52635 4.54136 0
M  V30 4749 H 425.421 -0.902578 2.38171 0
M  V30 4750 H 426.204 0.416973 3.40758 0
M  V30 4751 N 428.649 -1.55105 -0.279332 0
M  V30 4752 C 429.559 -1.90638 -1.36727 0
M  V30 4753 C 430.575 -0.802899 -1.54368 0
M  V30 4754 O 431.751 -1.10138 -1.68616 0
M  V30 4755 C 428.816 -2.16547 -2.70755 0
M  V30 4756 C 427.877 -3.40146 -2.61915 0
M  V30 4757 C 427.11 -3.6481 -3.8955 0
M  V30 4758 O 427.333 -2.92095 -4.89935 0
M  V30 4759 O 426.267 -4.58343 -3.90135 0
M  V30 4760 H 430.093 -2.83237 -1.09591 0
M  V30 4761 H 427.678 -1.4157 -0.477306 0
M  V30 4762 H 429.56 -2.34665 -3.50014 0
M  V30 4763 H 428.235 -1.27131 -2.9769 0
M  V30 4764 H 427.142 -3.2737 -1.81052 0
M  V30 4765 H 428.475 -4.29761 -2.3993 0
M  V30 4766 N 430.127 0.543554 -1.4793 0
M  V30 4767 C 431.075 1.67039 -1.61866 0
M  V30 4768 C 432.069 1.62294 -0.48549 0
M  V30 4769 O 433.275 1.67315 -0.66376 0
M  V30 4770 H 429.65 0.552954 -0.509652 0
M  V30 4771 H 431.621 1.52426 -2.56533 0
M  V30 4772 C 430.37 3.05357 -1.6629 0
M  V30 4773 H 429.693 3.09696 -2.5284 0
M  V30 4774 H 431.133 3.83855 -1.80088 0
M  V30 4775 C 429.592 3.34531 -0.398861 0
M  V30 4776 O 430.122 3.98649 0.494162 0
M  V30 4777 N 428.328 2.89299 -0.2747 0
M  V30 4778 H 427.875 2.37298 -1.00236 0
M  V30 4779 H 427.833 3.09188 0.570075 0
M  V30 4780 N 431.605 1.3629 0.791371 0
M  V30 4781 C 432.854 1.29742 1.54434 0
M  V30 4782 C 433.167 -0.121729 1.95221 0
M  V30 4783 O 434.373 -0.309579 2.69729 0
M  V30 4784 C 432.829 2.27623 2.78776 0
M  V30 4785 C 432.437 3.74963 2.45166 0
M  V30 4786 C 434.181 2.30047 3.56761 0
M  V30 4787 C 432.088 4.64626 3.65891 0
M  V30 4788 H 431.018 0.482113 0.579727 0
M  V30 4789 H 433.669 1.61642 0.868565 0
M  V30 4790 H 432.051 1.88714 3.48142 0
M  V30 4791 H 433.225 4.22596 1.83709 0
M  V30 4792 H 431.54 3.75295 1.80396 0
M  V30 4793 H 434.137 2.94247 4.46456 0
M  V30 4794 H 434.48 1.30846 3.95203 0
M  V30 4795 H 435.013 2.67563 2.94372 0
M  V30 4796 H 431.752 5.64883 3.32547 0
M  V30 4797 H 431.272 4.2171 4.26521 0
M  V30 4798 H 432.951 4.80801 4.32943 0
M  V30 4799 N 433.083 -1.0153 1.20538 0
M  V30 4800 C 434.013 -2.11972 0.979295 0
M  V30 4801 C 434.994 -1.6985 -0.0921787 0
M  V30 4802 O 436.179 -1.94089 0.0655932 0
M  V30 4803 C 433.309 -3.43201 0.531984 0
M  V30 4804 C 432.263 -3.9907 1.54685 0
M  V30 4805 C 431.589 -5.26082 0.956127 0
M  V30 4806 C 432.889 -4.32313 2.93092 0
M  V30 4807 H 434.583 -2.31143 1.90298 0
M  V30 4808 H 432.129 -1.11079 0.916372 0
M  V30 4809 H 434.082 -4.1985 0.361044 0
M  V30 4810 H 432.806 -3.23792 -0.427327 0
M  V30 4811 H 431.465 -3.2453 1.70517 0
M  V30 4812 H 431.113 -5.02999 -0.0111538 0
M  V30 4813 H 430.813 -5.64426 1.63393 0
M  V30 4814 H 432.337 -6.05386 0.796284 0
M  V30 4815 H 433.751 -4.99845 2.80763 0
M  V30 4816 H 432.148 -4.81774 3.57791 0
M  V30 4817 H 433.218 -3.41025 3.44717 0
M  V30 4818 N 434.561 -1.01147 -1.20859 0
M  V30 4819 C 435.491 -0.597663 -2.25722 0
M  V30 4820 C 436.472 0.384744 -1.65692 0
M  V30 4821 O 437.657 0.271303 -1.92296 0
M  V30 4822 C 434.787 0.0700149 -3.47229 0
M  V30 4823 C 433.741 -0.832843 -4.19819 0
M  V30 4824 C 433.067 -0.0312202 -5.34691 0
M  V30 4825 C 434.367 -2.1385 -4.76514 0
M  V30 4826 H 436.061 -1.47423 -2.60589 0
M  V30 4827 H 433.607 -0.710301 -1.25263 0
M  V30 4828 H 435.56 0.37103 -4.19763 0
M  V30 4829 H 434.284 0.981259 -3.11511 0
M  V30 4830 H 432.943 -1.11778 -3.49144 0
M  V30 4831 H 432.591 0.881515 -4.95215 0
M  V30 4832 H 432.291 -0.632434 -5.84187 0
M  V30 4833 H 433.815 0.26346 -6.10031 0
M  V30 4834 H 435.229 -1.9002 -5.40893 0
M  V30 4835 H 433.626 -2.69012 -5.36426 0
M  V30 4836 H 434.696 -2.80495 -3.95538 0
M  V30 4837 N 436.039 1.36541 -0.78704 0
M  V30 4838 C 437.279 2.01138 -0.363714 0
M  V30 4839 C 437.643 1.61114 1.04433 0
M  V30 4840 O 438.844 2.18285 1.56861 0
M  V30 4841 C 437.115 3.53603 -0.519582 0
M  V30 4842 S 438.674 4.38415 -0.183782 0
M  V30 4843 H 435.492 0.697263 -0.13909 0
M  V30 4844 H 438.094 1.66475 -1.02501 0
M  V30 4845 H 436.798 3.8022 -1.5447 0
M  V30 4846 H 436.329 3.93084 0.15773 0
M  V30 4847 H 438.344 4.85698 1.01547 0
M  V30 4848 N 437.518 0.538854 1.48102 0
M  V30 4849 C 438.466 -0.232325 2.31437 0
M  V30 4850 C 439.46 -0.927004 1.41785 0
M  V30 4851 O 440.666 -0.850378 1.58646 0
M  V30 4852 H 437.041 -0.0937916 0.746128 0
M  V30 4853 H 439.012 0.489986 2.9435 0
M  V30 4854 C 437.761 -1.26074 3.24038 0
M  V30 4855 H 437.084 -0.735609 3.92974 0
M  V30 4856 H 438.524 -1.77157 3.85216 0
M  V30 4857 C 436.983 -2.29902 2.46265 0
M  V30 4858 O 437.513 -3.36502 2.19384 0
M  V30 4859 N 435.719 -2.03348 2.07601 0
M  V30 4860 H 435.266 -1.16675 2.29662 0
M  V30 4861 H 435.224 -2.73038 1.55877 0
M  V30 4862 N 438.996 -1.55193 0.274407 0
M  V30 4863 C 440.407 -1.85358 -0.223488 0
M  V30 4864 C 440.758 -1.19642 -1.555 0
M  V30 4865 O 439.883 -0.484498 -2.10907 0
M  V30 4866 C 440.478 -3.36282 -0.412285 0
M  V30 4867 C 439.037 -3.66574 -0.854413 0
M  V30 4868 C 438.184 -2.7725 0.0527056 0
M  V30 4869 H 441.135 -1.50743 0.496215 0
M  V30 4870 H 441.156 -3.59349 -1.25094 0
M  V30 4871 H 440.668 -3.84083 0.556965 0
M  V30 4872 H 438.769 -3.24273 -1.83516 0
M  V30 4873 H 438.882 -4.74073 -0.692226 0
M  V30 4874 H 437.246 -2.50447 -0.463484 0
M  V30 4875 H 438.029 -3.27865 1.01783 0
M  V30 4876 N 440.474 -0.00167713 -1.576 0
M  V30 4877 C 441.421 0.989195 -2.08527 0
M  V30 4878 C 442.391 1.34031 -0.981065 0
M  V30 4879 O 443.576 1.43839 -1.2536 0
M  V30 4880 C 440.716 2.27537 -2.59463 0
M  V30 4881 C 439.829 1.98314 -3.83791 0
M  V30 4882 C 438.964 3.21025 -4.23222 0
M  V30 4883 C 438.003 2.87495 -5.40382 0
M  V30 4884 N 437.14 4.02749 -5.75098 0
M  V30 4885 H 441.98 0.547973 -2.92919 0
M  V30 4886 H 439.517 0.258917 -1.44803 0
M  V30 4887 H 441.475 3.02729 -2.87073 0
M  V30 4888 H 440.105 2.69325 -1.77943 0
M  V30 4889 H 439.157 1.13482 -3.63078 0
M  V30 4890 H 440.469 1.69601 -4.69081 0
M  V30 4891 H 439.623 4.04561 -4.52123 0
M  V30 4892 H 438.362 3.52877 -3.36644 0
M  V30 4893 H 437.367 2.02367 -5.11202 0
M  V30 4894 H 438.592 2.56889 -6.28637 0
M  V30 4895 H 436.538 4.34494 -4.91478 0
M  V30 4896 H 436.455 3.77566 -6.54966 0
M  V30 4897 H 437.723 4.87068 -6.08592 0
M  V30 4898 N 441.952 1.55251 0.271103 0
M  V30 4899 C 443.368 1.47133 0.618393 0
M  V30 4900 C 443.568 0.686994 1.89427 0
M  V30 4901 O 442.624 0.206609 2.51653 0
M  V30 4902 C 443.937 2.91361 0.743593 0
M  V30 4903 C 445.485 3.01587 0.837522 0
M  V30 4904 C 445.96 4.47073 0.994483 0
M  V30 4905 N 447.451 4.50909 1.05996 0
M  V30 4906 C 448.186 5.60698 1.20024 0
M  V30 4907 N 447.682 6.80348 1.30759 0
M  V30 4908 N 449.475 5.48444 1.23149 0
M  V30 4909 H 441.626 2.04698 -0.566784 0
M  V30 4910 H 443.889 0.928319 -0.192165 0
M  V30 4911 H 443.595 3.51483 -0.123493 0
M  V30 4912 H 443.469 3.40484 1.62328 0
M  V30 4913 H 445.856 2.4156 1.69507 0
M  V30 4914 H 445.937 2.55713 -0.0668086 0
M  V30 4915 H 445.581 5.07703 0.141582 0
M  V30 4916 H 445.511 4.90605 1.91349 0
M  V30 4917 H 448.002 3.6472 0.989316 0
M  V30 4918 H 448.315 7.59772 1.41303 0
M  V30 4919 H 446.66 6.83156 1.27761 0
M  V30 4920 H 449.851 4.53907 1.14394 0
M  V30 4921 H 450.024 6.34049 1.33738 0
M  V30 4922 N 443.43 -0.535701 1.48216 0
M  V30 4923 C 444.655 -1.32149 1.59848 0
M  V30 4924 C 445.08 -1.86338 0.256842 0
M  V30 4925 O 444.438 -1.64107 -0.770632 0
M  V30 4926 C 444.486 -2.45224 2.64381 0
M  V30 4927 O 443.59 -3.48093 2.21144 0
M  V30 4928 H 442.931 -0.391634 0.536208 0
M  V30 4929 H 445.461 -0.645202 1.94161 0
M  V30 4930 H 445.471 -2.91491 2.85476 0
M  V30 4931 H 444.146 -2.05143 3.61786 0
M  V30 4932 H 442.723 -3.07984 2.10239 0
M  V30 4933 N 444.908 -1.36708 -0.784132 0
M  V30 4934 C 445.871 -1.31307 -1.87859 0
M  V30 4935 C 446.871 -0.219654 -1.59293 0
M  V30 4936 O 448.061 -0.47476 -1.67606 0
M  V30 4937 C 445.193 -1.03679 -3.24751 0
M  V30 4938 H 446.386 -2.28647 -1.94064 0
M  V30 4939 H 443.939 -1.21558 -0.98252 0
M  V30 4940 H 444.674 -0.0681936 -3.24228 0
M  V30 4941 H 444.459 -1.82811 -3.46876 0
M  V30 4942 H 445.949 -1.02518 -4.04821 0
M  V30 4943 N 446.386 1.0089 -1.21074 0
M  V30 4944 C 447.635 1.74019 -1.01981 0
M  V30 4945 C 447.948 1.90408 0.447665 0
M  V30 4946 O 449.154 2.60707 0.757906 0
M  V30 4947 C 447.61 3.13026 -1.77603 0
M  V30 4948 C 447.218 3.04623 -3.28495 0
M  V30 4949 C 448.962 3.90312 -1.66904 0
M  V30 4950 C 446.869 4.38685 -3.96623 0
M  V30 4951 H 445.799 0.652422 -0.377971 0
M  V30 4952 H 448.45 1.12755 -1.44771 0
M  V30 4953 H 446.832 3.74878 -1.27604 0
M  V30 4954 H 448.006 2.52032 -3.85767 0
M  V30 4955 H 446.321 2.40827 -3.39693 0
M  V30 4956 H 448.918 4.8951 -2.15138 0
M  V30 4957 H 449.261 4.11558 -0.62658 0
M  V30 4958 H 449.794 3.35104 -2.14359 0
M  V30 4959 H 446.533 4.22641 -5.01054 0
M  V30 4960 H 446.053 4.91252 -3.4414 0
M  V30 4961 H 447.732 5.075 -4.01314 0
M  V30 4962 N 447.864 1.01787 1.20321 0
M  V30 4963 C 448.811 0.589197 2.23153 0
M  V30 4964 C 449.781 -0.391367 1.61423 0
M  V30 4965 O 450.966 -0.290518 1.88575 0
M  V30 4966 C 448.106 -0.0650747 3.45039 0
M  V30 4967 C 447.219 0.960207 4.21194 0
M  V30 4968 C 446.354 0.276854 5.30478 0
M  V30 4969 C 445.393 1.2888 5.98378 0
M  V30 4970 N 444.53 0.632031 6.99249 0
M  V30 4971 H 449.37 1.47071 2.59179 0
M  V30 4972 H 446.907 0.736192 1.27352 0
M  V30 4973 H 448.865 -0.461552 4.14639 0
M  V30 4974 H 447.495 -0.910233 3.09701 0
M  V30 4975 H 446.547 1.47484 3.50646 0
M  V30 4976 H 447.859 1.72977 4.67847 0
M  V30 4977 H 447.013 -0.175056 6.06447 0
M  V30 4978 H 445.752 -0.525004 4.84866 0
M  V30 4979 H 444.757 1.75109 5.21169 0
M  V30 4980 H 445.982 2.09196 6.46076 0
M  V30 4981 H 443.928 -0.149935 6.55829 0
M  V30 4982 H 443.845 1.33964 7.44036 0
M  V30 4983 H 445.113 0.203755 7.79234 0
M  V30 4984 N 449.342 -1.36122 0.79427 0
M  V30 4985 C 450.591 -1.98361 0.365464 0
M  V30 4986 C 450.904 -1.6374 -1.06997 0
M  V30 4987 O 452.11 -2.19251 -1.60129 0
M  V30 4988 C 450.566 -3.54821 0.602496 0
M  V30 4989 C 450.174 -3.98362 2.04967 0
M  V30 4990 C 451.918 -4.2383 0.238437 0
M  V30 4991 C 449.825 -5.47619 2.2331 0
M  V30 4992 H 448.755 -0.742193 0.13291 0
M  V30 4993 H 451.406 -1.55354 0.976589 0
M  V30 4994 H 449.788 -3.95922 -0.078409 0
M  V30 4995 H 450.962 -3.68447 2.76737 0
M  V30 4996 H 449.277 -3.42206 2.37243 0
M  V30 4997 H 451.874 -5.33529 0.353705 0
M  V30 4998 H 452.217 -4.08264 -0.814006 0
M  V30 4999 H 452.75 -3.88108 0.872769 0
M  V30 5000 H 449.489 -5.68138 3.26955 0
M  V30 5001 H 449.009 -5.79145 1.5605 0
M  V30 5002 H 450.688 -6.13911 2.0426 0
M  V30 5003 N 450.82 -0.546701 -1.47814 0
M  V30 5004 C 452.066 -0.0187684 -2.02791 0
M  V30 5005 C 452.399 1.32338 -1.42128 0
M  V30 5006 O 451.674 1.85867 -0.573023 0
M  V30 5007 C 451.957 0.0854985 -3.59998 0
M  V30 5008 C 451.81 -1.283 -4.31114 0
M  V30 5009 C 453.129 0.80412 -4.32691 0
M  V30 5010 H 450.248 -0.0082946 -0.736953 0
M  V30 5011 H 452.89 -0.706962 -1.76358 0
M  V30 5012 H 451.04 0.671609 -3.82651 0
M  V30 5013 H 452.712 -1.91151 -4.19832 0
M  V30 5014 H 450.955 -1.86049 -3.91878 0
M  V30 5015 H 451.626 -1.16287 -5.39612 0
M  V30 5016 H 454.102 0.306576 -4.14969 0
M  V30 5017 H 452.978 0.846011 -5.42341 0
M  V30 5018 H 453.239 1.85802 -4.01161 0
M  V30 5019 N 452.299 1.55045 -0.282633 0
M  V30 5020 C 453.576 1.9179 0.384166 0
M  V30 5021 C 453.956 1.20778 1.73136 0
M  V30 5022 O 453.304 0.33719 2.25998 0
M  V30 5023 C 453.514 3.45149 0.517014 0
M  V30 5024 C 454.862 4.17064 0.796427 0
M  V30 5025 O 455.886 3.51084 0.601535 0
M  V30 5026 O 454.745 5.33837 1.16962 0
M  V30 5027 H 451.839 0.799483 0.211558 0
M  V30 5028 H 454.385 1.66474 -0.32934 0
M  V30 5029 H 453.157 3.88922 -0.430772 0
M  V30 5030 H 452.78 3.76443 1.2797 0
M  V30 5031 N 453.777 0.010035 1.57597 0
M  V30 5032 C 455.024 -0.6727 1.91 0
M  V30 5033 C 455.352 -1.73219 0.884614 0
M  V30 5034 O 454.607 -1.95395 -0.109215 0
M  V30 5035 C 454.906 -1.34434 3.31153 0
M  V30 5036 C 454.572 -0.417083 4.48967 0
M  V30 5037 C 453.234 -0.161809 4.80928 0
M  V30 5038 C 455.586 0.220753 5.20732 0
M  V30 5039 C 452.914 0.739426 5.82022 0
M  V30 5040 C 455.266 1.10993 6.22787 0
M  V30 5041 C 453.93 1.37428 6.532 0
M  V30 5042 H 453.2 -0.246158 0.698918 0
M  V30 5043 H 455.847 0.0677145 1.9138 0
M  V30 5044 H 454.152 -2.15905 3.26944 0
M  V30 5045 H 455.849 -1.87883 3.54261 0
M  V30 5046 H 452.439 -0.626217 4.24001 0
M  V30 5047 H 456.623 0.0365643 4.96287 0
M  V30 5048 H 451.879 0.952139 6.03941 0
M  V30 5049 H 456.053 1.61046 6.77523 0
M  V30 5050 H 453.68 2.0743 7.31353 0
M  V30 5051 N 455.255 -1.55392 -0.262866 0
M  V30 5052 C 456.503 -1.76127 -0.991147 0
M  V30 5053 C 456.824 -0.571083 -1.8645 0
M  V30 5054 O 456.094 0.413698 -1.91482 0
M  V30 5055 H 454.674 -0.649528 -0.368948 0
M  V30 5056 H 457.336 -1.9281 -0.284655 0
M  V30 5057 H 456.432 -2.6663 -1.62219 0
M  V30 5058 N 456.733 0.527833 -1.48498 0
M  V30 5059 C 457.958 1.313 -1.60546 0
M  V30 5060 C 458.383 1.86199 -0.26672 0
M  V30 5061 O 457.741 1.64513 0.761918 0
M  V30 5062 C 457.789 2.43818 -2.65678 0
M  V30 5063 O 456.893 3.46916 -2.22987 0
M  V30 5064 H 456.234 0.388784 -0.538277 0
M  V30 5065 H 458.764 0.634896 -1.945 0
M  V30 5066 H 458.774 2.89973 -2.87018 0
M  V30 5067 H 457.449 2.03222 -3.62869 0
M  V30 5068 H 456.026 3.06864 -2.11869 0
M  V30 5069 N 458.211 1.37122 0.776871 0
M  V30 5070 C 459.436 1.354 1.57104 0
M  V30 5071 C 459.861 -0.0595562 1.88006 0
M  V30 5072 O 459.219 -1.03514 1.48844 0
M  V30 5073 C 459.267 2.19472 2.8612 0
M  V30 5074 O 458.371 1.59582 3.80273 0
M  V30 5075 H 457.712 0.462869 0.476076 0
M  V30 5076 H 460.242 1.80577 0.961932 0
M  V30 5077 H 460.252 2.32502 3.35271 0
M  V30 5078 H 458.927 3.22222 2.62956 0
M  V30 5079 H 457.504 1.55564 3.38902 0
M  V30 5080 N 459.689 -1.00246 1.21608 0
M  V30 5081 C 460.929 -1.75589 1.04631 0
M  V30 5082 C 461.293 -1.87513 -0.412648 0
M  V30 5083 O 462.494 -2.59444 -0.703003 0
M  V30 5084 C 460.765 -3.12893 1.72722 0
M  V30 5085 S 462.324 -4.04095 1.71034 0
M  V30 5086 H 459.142 -0.604133 0.374892 0
M  V30 5087 H 461.744 -1.19927 1.54395 0
M  V30 5088 H 460.448 -3.0185 2.78055 0
M  V30 5089 H 459.979 -3.73628 1.23149 0
M  V30 5090 H 461.994 -4.9045 0.753231 0
M  V30 5091 N 461.167 -1.02423 -1.1978 0
M  V30 5092 C 462.099 -0.559152 -2.22275 0
M  V30 5093 C 463.112 0.36251 -1.58713 0
M  V30 5094 O 464.301 0.159641 -1.77785 0
M  V30 5095 C 461.401 0.205094 -3.38279 0
M  V30 5096 C 460.574 -0.720361 -4.31427 0
M  V30 5097 C 459.633 -0.00234368 -5.262 0
M  V30 5098 O 458.659 -0.627378 -5.65732 0
M  V30 5099 N 459.861 1.26996 -5.66438 0
M  V30 5100 H 462.626 -1.44064 -2.62804 0
M  V30 5101 H 460.187 -0.902692 -1.34399 0
M  V30 5102 H 462.179 0.694868 -3.9869 0
M  V30 5103 H 460.749 0.987947 -2.96578 0
M  V30 5104 H 459.969 -1.39031 -3.68869 0
M  V30 5105 H 461.257 -1.3495 -4.90577 0
M  V30 5106 H 460.655 1.79858 -5.36347 0
M  V30 5107 H 459.212 1.70432 -6.29123 0
M  V30 5108 N 462.645 1.35699 -0.801477 0
M  V30 5109 C 463.575 2.32436 -0.222658 0
M  V30 5110 C 464.556 1.5723 0.649057 0
M  V30 5111 O 465.741 1.85324 0.580387 0
M  V30 5112 C 462.871 3.41469 0.633719 0
M  V30 5113 C 461.825 4.27774 -0.139083 0
M  V30 5114 C 461.151 5.28082 0.838666 0
M  V30 5115 C 462.451 5.04946 -1.33517 0
M  V30 5116 H 464.145 2.81094 -1.03086 0
M  V30 5117 H 461.691 1.35146 -0.497155 0
M  V30 5118 H 463.644 4.08143 1.04868 0
M  V30 5119 H 462.368 2.91408 1.47475 0
M  V30 5120 H 461.027 3.62673 -0.535156 0
M  V30 5121 H 460.675 4.7429 1.67506 0
M  V30 5122 H 460.375 5.86695 0.32594 0
M  V30 5123 H 461.899 5.97628 1.25194 0
M  V30 5124 H 463.313 5.64593 -0.995349 0
M  V30 5125 H 461.71 5.7303 -1.78202 0
M  V30 5126 H 462.78 4.35886 -2.12442 0
M  V30 5127 N 464.123 0.554532 1.47522 0
M  V30 5128 C 465.371 0.0294208 2.02079 0
M  V30 5129 C 465.692 -1.32411 1.43151 0
M  V30 5130 O 464.962 -1.863 0.605728 0
M  V30 5131 H 463.542 0.00788672 0.746958 0
M  V30 5132 H 466.204 0.723934 1.80956 0
M  V30 5133 H 465.3 -0.0606745 3.12041 0
M  V30 5134 N 465.601 -1.54893 0.290851 0
M  V30 5135 C 466.533 -2.20564 -0.623236 0
M  V30 5136 C 467.546 -1.19519 -1.1054 0
M  V30 5137 O 468.735 -1.46165 -1.02459 0
M  V30 5138 C 465.835 -2.83033 -1.86401 0
M  V30 5139 C 465.008 -4.09916 -1.52604 0
M  V30 5140 C 464.067 -4.56284 -2.62091 0
M  V30 5141 O 463.093 -5.2171 -2.27612 0
M  V30 5142 N 464.295 -4.27746 -3.92446 0
M  V30 5143 H 467.06 -2.99638 -0.0610915 0
M  V30 5144 H 464.621 -1.61508 0.112615 0
M  V30 5145 H 466.613 -3.1099 -2.58973 0
M  V30 5146 H 465.183 -2.0786 -2.33481 0
M  V30 5147 H 464.403 -3.89078 -0.633424 0
M  V30 5148 H 465.691 -4.92554 -1.27547 0
M  V30 5149 H 465.089 -3.7531 -4.23272 0
M  V30 5150 H 463.646 -4.60437 -4.61347 0
M  V30 5151 N 467.08 -0.0183926 -1.57589 0
M  V30 5152 C 468.496 0.337897 -1.55982 0
M  V30 5153 C 468.696 1.73604 -1.02294 0
M  V30 5154 O 467.752 2.43589 -0.664895 0
M  V30 5155 C 469.065 0.196305 -3.00059 0
M  V30 5156 C 470.613 0.269875 -3.11834 0
M  V30 5157 C 471.088 0.157197 -4.5773 0
M  V30 5158 N 472.579 0.214521 -4.62703 0
M  V30 5159 C 473.314 0.150955 -5.73201 0
M  V30 5160 N 472.81 0.0369212 -6.9279 0
M  V30 5161 N 474.603 0.204162 -5.61729 0
M  V30 5162 H 466.754 -0.93279 -1.90821 0
M  V30 5163 H 469.017 -0.359253 -0.877292 0
M  V30 5164 H 468.723 -0.766383 -3.43248 0
M  V30 5165 H 468.597 0.970908 -3.6449 0
M  V30 5166 H 470.984 1.22302 -2.68563 0
M  V30 5167 H 471.065 -0.534918 -2.50144 0
M  V30 5168 H 470.709 -0.792479 -5.01679 0
M  V30 5169 H 470.639 0.980717 -5.17387 0
M  V30 5170 H 473.13 0.303238 -3.76681 0
M  V30 5171 H 473.443 -0.00518321 -7.728 0
M  V30 5172 H 471.788 0.0022886 -6.95 0
M  V30 5173 H 474.979 0.291575 -4.67191 0
M  V30 5174 H 475.152 0.15116 -6.47824 0
M  V30 5175 N 468.558 1.5553 0.254621 0
M  V30 5176 C 469.807 1.76202 0.981612 0
M  V30 5177 C 470.12 0.580883 1.86776 0
M  V30 5178 O 471.326 0.670448 2.63092 0
M  V30 5179 C 469.782 3.11921 1.79537 0
M  V30 5180 C 469.39 4.37659 0.956991 0
M  V30 5181 C 471.134 3.41936 2.51555 0
M  V30 5182 C 469.041 5.64411 1.76619 0
M  V30 5183 H 467.971 0.656841 0.370237 0
M  V30 5184 H 470.622 1.81969 0.236556 0
M  V30 5185 H 469.004 3.00241 2.58208 0
M  V30 5186 H 470.178 4.60307 0.21315 0
M  V30 5187 H 468.493 4.14922 0.350497 0
M  V30 5188 H 471.09 4.33849 3.12536 0
M  V30 5189 H 471.433 2.62905 3.22779 0
M  V30 5190 H 471.966 3.54797 1.799 0
M  V30 5191 H 468.705 6.46241 1.09783 0
M  V30 5192 H 468.225 5.45877 2.48551 0
M  V30 5193 H 469.904 6.03386 2.33527 0
M  V30 5194 N 470.036 -0.519951 1.48776 0
M  V30 5195 C 471.266 -1.29783 1.60748 0
M  V30 5196 C 471.674 -1.87253 0.27072 0
M  V30 5197 O 471.017 -1.67628 -0.751438 0
M  V30 5198 C 471.079 -2.47984 2.60277 0
M  V30 5199 C 470.743 -2.11526 4.051 0
M  V30 5200 C 471.74 -1.66608 4.92481 0
M  V30 5201 C 469.425 -2.21742 4.50706 0
M  V30 5202 C 471.419 -1.32384 6.23501 0
M  V30 5203 C 469.106 -1.87129 5.81744 0
M  V30 5204 C 470.104 -1.42523 6.67964 0
M  V30 5205 O 469.792 -1.0837 7.96562 0
M  V30 5206 H 469.524 -0.400562 0.544542 0
M  V30 5207 H 472.078 -0.632879 1.95407 0
M  V30 5208 H 470.308 -3.17493 2.2076 0
M  V30 5209 H 471.997 -3.10036 2.61978 0
M  V30 5210 H 472.763 -1.58178 4.58481 0
M  V30 5211 H 468.642 -2.55415 3.83776 0
M  V30 5212 H 472.186 -0.974949 6.90754 0
M  V30 5213 H 468.083 -1.95204 6.15277 0
M  V30 5214 H 468.851 -1.21681 8.09405 0
M  V30 5215 N 471.514 -1.37532 -0.769588 0
M  V30 5216 C 472.446 -1.29347 -1.89214 0
M  V30 5217 C 473.459 -0.208842 -1.61455 0
M  V30 5218 O 474.648 -0.465158 -1.72333 0
M  V30 5219 C 471.748 -0.977649 -3.24492 0
M  V30 5220 C 470.921 -2.16817 -3.7988 0
M  V30 5221 C 469.98 -1.82229 -4.93639 0
M  V30 5222 O 469.006 -2.54548 -5.09111 0
M  V30 5223 N 470.208 -0.767696 -5.75401 0
M  V30 5224 H 472.973 -2.26073 -1.96751 0
M  V30 5225 H 470.534 -1.31185 -0.948795 0
M  V30 5226 H 472.526 -0.727065 -3.98115 0
M  V30 5227 H 471.096 -0.0988777 -3.12444 0
M  V30 5228 H 470.316 -2.58038 -2.9801 0
M  V30 5229 H 471.604 -2.96308 -4.13617 0
M  V30 5230 H 471.002 -0.167626 -5.65452 0
M  V30 5231 H 469.559 -0.576973 -6.49241 0
M  V30 5232 N 472.992 0.995999 -1.22138 0
M  V30 5233 C 474.222 1.76809 -1.06874 0
M  V30 5234 C 474.63 1.85265 0.383866 0
M  V30 5235 O 473.973 1.31969 1.27789 0
M  V30 5236 C 474.035 3.2186 -1.60144 0
M  V30 5237 C 473.699 3.36958 -3.0872 0
M  V30 5238 C 474.696 3.2452 -4.0618 0
M  V30 5239 C 472.381 3.62109 -3.48112 0
M  V30 5240 C 474.375 3.37013 -5.41019 0
M  V30 5241 C 472.062 3.74243 -4.831 0
M  V30 5242 C 473.06 3.61702 -5.79362 0
M  V30 5243 O 472.748 3.73436 -7.119 0
M  V30 5244 H 472.48 0.562207 -0.375365 0
M  V30 5245 H 475.034 1.26113 -1.62125 0
M  V30 5246 H 473.264 3.73734 -0.992981 0
M  V30 5247 H 474.953 3.80775 -1.40589 0
M  V30 5248 H 475.719 3.05004 -3.77091 0
M  V30 5249 H 471.598 3.70949 -2.73712 0
M  V30 5250 H 475.142 3.27141 -6.16137 0
M  V30 5251 H 471.039 3.93266 -5.11872 0
M  V30 5252 H 471.807 3.90328 -7.19435 0
M  V30 5253 N 474.47 1.03057 1.19235 0
M  V30 5254 C 475.719 0.72326 1.88287 0
M  V30 5255 C 476.032 -0.751333 1.80594 0
M  V30 5256 O 477.238 -1.17176 2.44912 0
M  V30 5257 C 475.694 1.24338 3.3774 0
M  V30 5258 C 475.302 2.74587 3.53986 0
M  V30 5259 C 477.046 1.01213 4.12257 0
M  V30 5260 C 474.953 3.20009 4.97341 0
M  V30 5261 H 473.883 0.266848 0.705201 0
M  V30 5262 H 476.534 1.24509 1.34795 0
M  V30 5263 H 474.916 0.649457 3.90638 0
M  V30 5264 H 476.09 3.39649 3.11408 0
M  V30 5265 H 474.405 2.9601 2.9286 0
M  V30 5266 H 477.002 1.32675 5.17978 0
M  V30 5267 H 477.345 -0.051001 4.16269 0
M  V30 5268 H 477.878 1.57014 3.65501 0
M  V30 5269 H 474.617 4.25659 4.98493 0
M  V30 5270 H 474.137 2.59676 5.40674 0
M  V30 5271 H 475.816 3.13447 5.66003 0
M  V30 5272 N 475.948 -1.35272 0.808662 0
M  V30 5273 C 476.88 -2.28507 0.178149 0
M  V30 5274 C 477.893 -1.50377 -0.623754 0
M  V30 5275 O 479.082 -1.72583 -0.455774 0
M  V30 5276 C 476.182 -3.30038 -0.769959 0
M  V30 5277 C 475.355 -4.37398 -0.0139749 0
M  V30 5278 C 474.414 -5.18775 -0.880875 0
M  V30 5279 O 473.44 -5.68236 -0.331059 0
M  V30 5280 N 474.642 -5.37087 -2.20267 0
M  V30 5281 H 477.407 -2.83255 0.979106 0
M  V30 5282 H 474.968 -1.47643 0.664308 0
M  V30 5283 H 476.96 -3.81371 -1.35418 0
M  V30 5284 H 475.53 -2.75789 -1.47171 0
M  V30 5285 H 474.75 -3.86971 0.751468 0
M  V30 5286 H 476.038 -5.06268 0.506965 0
M  V30 5287 H 475.436 -4.9855 -2.67328 0
M  V30 5288 H 473.993 -5.91593 -2.73608 0
M  V30 5289 N 477.426 -0.562348 -1.47226 0
M  V30 5290 C 478.651 -0.0432632 -2.07355 0
M  V30 5291 C 479.076 1.24332 -1.41149 0
M  V30 5292 O 478.434 1.74603 -0.488226 0
M  V30 5293 C 478.482 0.130288 -3.60365 0
M  V30 5294 O 477.586 1.19166 -3.94808 0
M  V30 5295 H 476.927 -0.0536334 -0.66183 0
M  V30 5296 H 479.457 -0.779495 -1.89169 0
M  V30 5297 H 479.467 0.342881 -4.06557 0
M  V30 5298 H 478.142 -0.809389 -4.07948 0
M  V30 5299 H 476.719 0.959153 -3.60354 0
M  V30 5300 N 478.904 1.54736 -0.299062 0
M  V30 5301 C 480.32 1.59507 0.0543849 0
M  V30 5302 C 480.52 1.31606 1.52585 0
M  V30 5303 O 479.576 1.08853 2.27832 0
M  V30 5304 C 480.889 2.98751 -0.34181 0
M  V30 5305 C 482.437 3.1165 -0.290414 0
M  V30 5306 C 482.912 4.53199 -0.661402 0
M  V30 5307 N 484.403 4.59114 -0.613863 0
M  V30 5308 C 485.138 5.66709 -0.873417 0
M  V30 5309 N 484.634 6.82349 -1.19884 0
M  V30 5310 N 486.427 5.56369 -0.800608 0
M  V30 5311 H 478.578 1.71133 -1.25806 0
M  V30 5312 H 480.841 0.799186 -0.509908 0
M  V30 5313 H 480.547 3.24085 -1.36608 0
M  V30 5314 H 480.421 3.75961 0.305508 0
M  V30 5315 H 482.808 2.86066 0.724605 0
M  V30 5316 H 482.889 2.366 -0.972327 0
M  V30 5317 H 482.533 4.79513 -1.67422 0
M  V30 5318 H 482.463 5.26583 0.0425612 0
M  V30 5319 H 484.954 3.76053 -0.3732 0
M  V30 5320 H 485.267 7.60326 -1.38291 0
M  V30 5321 H 483.612 6.83906 -1.23685 0
M  V30 5322 H 486.803 4.64904 -0.546045 0
M  V30 5323 H 486.976 6.40139 -1.00626 0
M  V30 5324 N 480.382 0.0267497 1.57577 0
M  V30 5325 C 481.629 -0.652404 1.91703 0
M  V30 5326 C 481.957 -1.72271 0.902936 0
M  V30 5327 O 481.212 -1.955 -0.0884843 0
M  V30 5328 C 481.511 -1.30914 3.3256 0
M  V30 5329 C 481.177 -0.369441 4.49384 0
M  V30 5330 C 479.839 -0.110791 4.81072 0
M  V30 5331 C 482.191 0.275971 5.20469 0
M  V30 5332 C 479.519 0.801116 5.81205 0
M  V30 5333 C 481.871 1.17592 6.21575 0
M  V30 5334 C 480.535 1.44348 6.51705 0
M  V30 5335 H 479.805 -0.238732 0.70149 0
M  V30 5336 H 482.452 0.0880091 1.91298 0
M  V30 5337 H 480.757 -2.12425 3.29216 0
M  V30 5338 H 482.454 -1.84115 3.56234 0
M  V30 5339 H 479.044 -0.581211 4.24641 0
M  V30 5340 H 483.228 0.0892 4.9622 0
M  V30 5341 H 478.484 1.01614 6.02897 0
M  V30 5342 H 482.658 1.68223 6.75777 0
M  V30 5343 H 480.285 2.15176 7.29111 0
M  V30 5344 N 481.861 -1.55662 -0.24637 0
M  V30 5345 C 483.091 -1.81312 -0.990438 0
M  V30 5346 C 483.499 -0.600234 -1.79426 0
M  V30 5347 O 482.842 0.440537 -1.78339 0
M  V30 5348 C 482.904 -3.0032 -1.97607 0
M  V30 5349 C 482.568 -4.36322 -1.35912 0
M  V30 5350 C 483.565 -5.14295 -0.761348 0
M  V30 5351 C 481.25 -4.83019 -1.37833 0
M  V30 5352 C 483.244 -6.37114 -0.190998 0
M  V30 5353 C 480.931 -6.05786 -0.804128 0
M  V30 5354 C 481.929 -6.82672 -0.211489 0
M  V30 5355 O 481.617 -8.03121 0.353845 0
M  V30 5356 H 481.349 -0.607233 -0.297058 0
M  V30 5357 H 483.903 -2.0356 -0.274351 0
M  V30 5358 H 482.133 -2.73829 -2.73047 0
M  V30 5359 H 483.822 -3.13057 -2.58361 0
M  V30 5360 H 484.588 -4.79337 -0.739013 0
M  V30 5361 H 480.467 -4.23165 -1.829 0
M  V30 5362 H 484.011 -6.97069 0.272206 0
M  V30 5363 H 479.908 -6.40222 -0.823792 0
M  V30 5364 H 480.676 -8.18131 0.245761 0
M  V30 5365 N 483.339 0.512053 -1.4905 0
M  V30 5366 C 484.755 0.84224 -1.35567 0
M  V30 5367 C 484.955 1.97878 -0.380319 0
M  V30 5368 O 484.011 2.51769 0.19201 0
M  V30 5369 C 485.324 1.19286 -2.76028 0
M  V30 5370 C 486.872 1.30171 -2.84648 0
M  V30 5371 C 487.347 1.68568 -4.25851 0
M  V30 5372 N 488.838 1.75638 -4.28609 0
M  V30 5373 C 489.573 2.06769 -5.34821 0
M  V30 5374 N 489.069 2.36201 -6.51292 0
M  V30 5375 N 490.862 2.07927 -5.22229 0
M  V30 5376 H 483.013 -0.237574 -2.11067 0
M  V30 5377 H 485.276 -0.0436747 -0.946993 0
M  V30 5378 H 484.982 0.431199 -3.49047 0
M  V30 5379 H 484.856 2.13889 -3.10695 0
M  V30 5380 H 487.243 2.05411 -2.11873 0
M  V30 5381 H 487.324 0.336457 -2.53578 0
M  V30 5382 H 486.968 0.938824 -4.99148 0
M  V30 5383 H 486.898 2.66174 -4.54377 0
M  V30 5384 H 489.389 1.55097 -3.44606 0
M  V30 5385 H 489.702 2.59112 -7.28066 0
M  V30 5386 H 488.047 2.33681 -6.54536 0
M  V30 5387 H 491.238 1.84403 -4.30248 0
M  V30 5388 H 491.411 2.31856 -6.05101 0
M  V30 5389 N 484.817 1.37938 0.762283 0
M  V30 5390 C 486.042 1.37059 1.55659 0
M  V30 5391 C 486.467 -0.0396123 1.88058 0
M  V30 5392 O 485.825 -1.01929 1.49934 0
M  V30 5393 C 485.873 2.22494 2.83776 0
M  V30 5394 O 484.977 1.63607 3.78559 0
M  V30 5395 H 484.318 0.467892 0.47114 0
M  V30 5396 H 486.848 1.81587 0.942725 0
M  V30 5397 H 486.858 2.36045 3.32786 0
M  V30 5398 H 485.533 3.24993 2.59524 0
M  V30 5399 H 484.11 1.5915 3.37233 0
M  V30 5400 N 486.295 -0.989507 1.22664 0
M  V30 5401 C 487.706 -1.54406 1.04955 0
M  V30 5402 C 488.057 -1.92366 -0.385951 0
M  V30 5403 O 487.182 -1.75111 -1.27142 0
M  V30 5404 C 487.777 -2.80578 1.89899 0
M  V30 5405 C 486.336 -3.32464 1.76478 0
M  V30 5406 C 485.483 -2.05524 1.86159 0
M  V30 5407 H 488.434 -0.810211 1.3646 0
M  V30 5408 H 488.455 -3.53075 1.4184 0
M  V30 5409 H 487.967 -2.52918 2.94371 0
M  V30 5410 H 486.068 -3.65024 0.747528 0
M  V30 5411 H 486.181 -4.02838 2.59342 0
M  V30 5412 H 484.545 -2.19241 1.29636 0
M  V30 5413 H 485.328 -1.80258 2.92168 0
M  V30 5414 N 487.773 -1.03688 -1.18687 0
M  V30 5415 C 488.683 -0.634908 -2.25845 0
M  V30 5416 C 489.699 0.337065 -1.70704 0
M  V30 5417 O 490.875 0.192943 -2.00474 0
M  V30 5418 C 487.94 -0.000180054 -3.467 0
M  V30 5419 C 487.001 -1.02067 -4.1699 0
M  V30 5420 C 486.234 -0.41614 -5.32075 0
M  V30 5421 O 486.457 0.778712 -5.65059 0
M  V30 5422 O 485.391 -1.14296 -5.90948 0
M  V30 5423 H 489.217 -1.52757 -2.62486 0
M  V30 5424 H 486.802 -0.807533 -1.25695 0
M  V30 5425 H 488.684 0.353342 -4.19916 0
M  V30 5426 H 487.359 0.866367 -3.11891 0
M  V30 5427 H 486.266 -1.42592 -3.45859 0
M  V30 5428 H 487.599 -1.85786 -4.5579 0
M  V30 5429 N 489.251 1.34841 -0.815825 0
M  V30 5430 C 490.497 1.98793 -0.401129 0
M  V30 5431 C 490.83 1.64548 1.03139 0
M  V30 5432 O 490.105 0.913487 1.71714 0
M  V30 5433 C 490.388 3.55143 -0.595409 0
M  V30 5434 C 490.241 3.99155 -2.07352 0
M  V30 5435 C 491.56 4.40092 -0.0268823 0
M  V30 5436 H 488.679 0.722146 -0.14722 0
M  V30 5437 H 491.321 1.59847 -1.02707 0
M  V30 5438 H 489.471 3.8845 -0.0625779 0
M  V30 5439 H 491.143 3.76216 -2.66945 0
M  V30 5440 H 489.386 3.49726 -2.56659 0
M  V30 5441 H 490.057 5.07971 -2.1603 0
M  V30 5442 H 492.533 4.13298 -0.482042 0
M  V30 5443 H 491.409 5.48562 -0.19267 0
M  V30 5444 H 491.67 4.29016 1.06759 0
M  V30 5445 N 490.729 0.570148 1.46925 0
M  V30 5446 C 491.659 -0.158274 2.32963 0
M  V30 5447 C 492.64 -0.896093 1.44583 0
M  V30 5448 O 493.825 -0.874022 1.7342 0
M  V30 5449 C 490.955 -1.18055 3.26619 0
M  V30 5450 C 489.909 -0.558379 4.24342 0
M  V30 5451 C 489.235 -1.68623 5.07415 0
M  V30 5452 C 490.535 0.496295 5.19937 0
M  V30 5453 H 492.229 0.560046 2.94115 0
M  V30 5454 H 489.775 0.270775 1.41431 0
M  V30 5455 H 491.728 -1.69841 3.85658 0
M  V30 5456 H 490.452 -1.92899 2.63548 0
M  V30 5457 H 489.111 -0.0617157 3.66548 0
M  V30 5458 H 488.759 -2.42402 4.40738 0
M  V30 5459 H 488.459 -1.27564 5.73586 0
M  V30 5460 H 489.983 -2.20709 5.69315 0
M  V30 5461 H 491.397 0.0640052 5.73264 0
M  V30 5462 H 489.794 0.82649 5.94381 0
M  V30 5463 H 490.864 1.38735 4.6463 0
M  V30 5464 N 492.207 -1.54576 0.307264 0
M  V30 5465 C 493.137 -2.26708 -0.55907 0
M  V30 5466 C 494.118 -1.26893 -1.1328 0
M  V30 5467 O 495.303 -1.55677 -1.16097 0
M  V30 5468 C 492.433 -3.01259 -1.72801 0
M  V30 5469 C 491.387 -4.08275 -1.28435 0
M  V30 5470 C 490.713 -4.70575 -2.53895 0
M  V30 5471 C 492.013 -5.2068 -0.411038 0
M  V30 5472 H 493.707 -2.9937 0.042576 0
M  V30 5473 H 491.253 -1.43983 0.0219173 0
M  V30 5474 H 493.206 -3.50444 -2.34023 0
M  V30 5475 H 491.93 -2.26187 -2.356 0
M  V30 5476 H 490.589 -3.59949 -0.695161 0
M  V30 5477 H 490.237 -3.92136 -3.15021 0
M  V30 5478 H 489.937 -5.42854 -2.24908 0
M  V30 5479 H 491.461 -5.22527 -3.15908 0
M  V30 5480 H 492.875 -5.65721 -0.929097 0
M  V30 5481 H 491.272 -5.99716 -0.214664 0
M  V30 5482 H 492.342 -4.81629 0.562287 0
M  V30 5483 N 493.685 -0.035106 -1.57561 0
M  V30 5484 C 494.933 0.64096 -1.91667 0
M  V30 5485 C 495.254 1.72323 -0.912681 0
M  V30 5486 O 494.524 1.95849 0.0449089 0
M  V30 5487 H 493.104 0.239743 -0.707483 0
M  V30 5488 H 495.766 -0.084321 -1.94718 0
M  V30 5489 H 494.862 1.08987 -2.92452 0
M  V30 5490 N 495.163 1.55791 0.238111 0
M  V30 5491 C 496.096 1.86036 1.32158 0
M  V30 5492 C 497.074 0.716216 1.45976 0
M  V30 5493 O 498.258 0.962882 1.62052 0
M  V30 5494 C 495.385 2.05281 2.69402 0
M  V30 5495 C 494.431 3.27939 2.72687 0
M  V30 5496 S 495.264 4.84342 2.28413 0
M  V30 5497 C 496.42 5.06604 3.67565 0
M  V30 5498 H 496.653 2.77644 1.06306 0
M  V30 5499 H 494.186 1.48012 0.439537 0
M  V30 5500 H 496.144 2.17053 3.48423 0
M  V30 5501 H 494.805 1.14499 2.92487 0
M  V30 5502 H 493.998 3.38398 3.73501 0
M  V30 5503 H 493.6 3.14938 2.01717 0
M  V30 5504 H 495.892 4.94486 4.6313 0
M  V30 5505 H 496.835 6.08554 3.62033 0
M  V30 5506 H 497.243 4.34409 3.60485 0
M  V30 5507 N 496.642 -0.504142 1.49319 0
M  V30 5508 C 498.053 -1.08572 1.51885 0
M  V30 5509 C 498.404 -1.93842 0.303255 0
M  V30 5510 O 497.529 -2.0828 -0.58724 0
M  V30 5511 C 498.124 -1.97574 2.75227 0
M  V30 5512 C 496.683 -2.509 2.80581 0
M  V30 5513 C 495.83 -1.28447 2.45757 0
M  V30 5514 H 498.781 -0.288194 1.56061 0
M  V30 5515 H 498.802 -2.82219 2.55211 0
M  V30 5516 H 498.314 -1.35486 3.63683 0
M  V30 5517 H 496.415 -3.16636 1.96398 0
M  V30 5518 H 496.528 -2.88268 3.82673 0
M  V30 5519 H 494.892 -1.60868 1.97468 0
M  V30 5520 H 495.675 -0.68072 3.36483 0
M  V30 5521 N 498.12 -1.38341 -0.754957 0
M  V30 5522 C 499.35 -1.37504 -1.54195 0
M  V30 5523 C 499.758 0.0373787 -1.89163 0
M  V30 5524 O 499.101 1.01402 -1.53178 0
M  V30 5525 C 499.163 -2.16488 -2.87008 0
M  V30 5526 C 498.827 -3.65311 -2.74585 0
M  V30 5527 C 499.824 -4.58834 -2.44474 0
M  V30 5528 C 497.509 -4.08649 -2.9208 0
M  V30 5529 C 499.503 -5.93675 -2.32011 0
M  V30 5530 C 497.19 -5.43571 -2.79237 0
M  V30 5531 C 498.188 -6.35898 -2.49245 0
M  V30 5532 O 497.876 -7.68338 -2.36458 0
M  V30 5533 H 497.608 -0.472159 -0.483779 0
M  V30 5534 H 500.162 -1.82515 -0.94221 0
M  V30 5535 H 498.392 -1.66194 -3.49166 0
M  V30 5536 H 500.081 -2.08076 -3.4851 0
M  V30 5537 H 500.847 -4.26657 -2.30627 0
M  V30 5538 H 496.726 -3.37134 -3.14422 0
M  V30 5539 H 500.27 -6.65706 -2.08522 0
M  V30 5540 H 496.167 -5.75345 -2.92657 0
M  V30 5541 H 496.935 -7.78845 -2.5168 0
M  V30 5542 N 499.598 0.982988 -1.23187 0
M  V30 5543 C 500.875 1.69814 -0.970707 0
M  V30 5544 C 501.255 2.04811 0.511424 0
M  V30 5545 O 500.603 1.73924 1.48198 0
M  V30 5546 C 500.813 2.94143 -1.87831 0
M  V30 5547 C 502.161 3.66712 -2.14026 0
M  V30 5548 O 503.185 3.04171 -1.8536 0
M  V30 5549 O 502.044 4.79258 -2.62629 0
M  V30 5550 H 499.138 0.741659 -0.365884 0
M  V30 5551 H 501.684 1.03844 -1.34218 0
M  V30 5552 H 500.456 2.64858 -2.88038 0
M  V30 5553 H 500.079 3.6785 -1.50905 0
M  V30 5554 N 501.076 1.04316 1.18135 0
M  V30 5555 C 502.006 0.657299 2.24058 0
M  V30 5556 C 502.987 -0.340678 1.66654 0
M  V30 5557 O 504.172 -0.220223 1.92947 0
M  V30 5558 C 501.302 0.0220715 3.47293 0
M  V30 5559 C 500.256 0.943857 4.17463 0
M  V30 5560 C 499.582 0.172973 5.3442 0
M  V30 5561 C 500.882 2.26409 4.70677 0
M  V30 5562 H 502.576 1.5428 2.56589 0
M  V30 5563 H 500.122 0.743263 1.23335 0
M  V30 5564 H 502.075 -0.259607 4.206 0
M  V30 5565 H 500.799 -0.898323 3.14003 0
M  V30 5566 H 499.458 1.20996 3.46057 0
M  V30 5567 H 499.106 -0.749907 4.97379 0
M  V30 5568 H 498.806 0.787098 5.82304 0
M  V30 5569 H 500.33 -0.101628 6.10515 0
M  V30 5570 H 501.744 2.04294 5.35665 0
M  V30 5571 H 500.141 2.8314 5.29105 0
M  V30 5572 H 501.211 2.90883 3.87962 0
M  V30 5573 N 502.554 -1.34406 0.822964 0
M  V30 5574 C 503.517 -2.2783 0.250271 0
M  V30 5575 C 504.517 -1.50288 -0.571854 0
M  V30 5576 O 505.707 -1.69825 -0.387952 0
M  V30 5577 C 502.839 -3.34663 -0.649137 0
M  V30 5578 H 504.032 -2.79992 1.07444 0
M  V30 5579 H 501.585 -1.44539 0.594829 0
M  V30 5580 H 502.32 -2.87714 -1.49637 0
M  V30 5581 H 502.105 -3.92052 -0.0611199 0
M  V30 5582 H 503.595 -4.04349 -1.04363 0
M  V30 5583 N 504.032 -0.577932 -1.46621 0
M  V30 5584 C 505.281 -0.0594281 -2.01612 0
M  V30 5585 C 505.594 1.30663 -1.45556 0
M  V30 5586 O 506.8 1.91621 -1.92337 0
M  V30 5587 C 505.256 -0.0556666 -3.59857 0
M  V30 5588 C 504.864 -1.41975 -4.24908 0
M  V30 5589 C 506.608 0.409143 -4.22524 0
M  V30 5590 C 504.515 -1.37397 -5.75218 0
M  V30 5591 H 503.445 -0.0184469 -0.753774 0
M  V30 5592 H 506.096 -0.728869 -1.68404 0
M  V30 5593 H 504.478 0.679843 -3.90121 0
M  V30 5594 H 505.652 -2.17461 -4.0626 0
M  V30 5595 H 503.967 -1.82419 -3.74316 0
M  V30 5596 H 506.564 0.46211 -5.32699 0
M  V30 5597 H 506.907 1.42565 -3.91128 0
M  V30 5598 H 507.44 -0.272152 -3.96868 0
M  V30 5599 H 504.179 -2.36714 -6.11267 0
M  V30 5600 H 503.699 -0.661239 -5.96144 0
M  V30 5601 H 505.378 -1.08484 -6.3784 0
M  V30 5602 N 505.51 1.54411 -0.315457 0
M  V30 5603 C 506.787 1.92562 0.343398 0
M  V30 5604 C 507.167 1.24423 1.70535 0
M  V30 5605 O 506.515 0.385051 2.25232 0
M  V30 5606 C 506.725 3.46168 0.443687 0
M  V30 5607 C 508.073 4.18659 0.707783 0
M  V30 5608 O 509.097 3.52281 0.52693 0
M  V30 5609 O 507.956 5.36198 1.05612 0
M  V30 5610 H 505.05 0.80379 0.194552 0
M  V30 5611 H 507.596 1.65738 -0.364577 0
M  V30 5612 H 506.368 3.8792 -0.513172 0
M  V30 5613 H 505.991 3.79073 1.19956 0
M  V30 5614 N 506.988 0.0434614 1.5754 0
M  V30 5615 C 507.921 -0.968729 2.06618 0
M  V30 5616 C 508.899 -1.30868 0.965 0
M  V30 5617 O 510.083 -1.42288 1.23638 0
M  V30 5618 C 507.21 -2.28486 2.50023 0
M  V30 5619 C 506.256 -2.09851 3.71302 0
M  V30 5620 S 507.089 -1.38401 5.17306 0
M  V30 5621 C 508.245 -2.71354 5.64019 0
M  V30 5622 H 508.478 -0.551021 2.92149 0
M  V30 5623 H 506.011 -0.168607 1.53477 0
M  V30 5624 H 507.969 -3.04142 2.75695 0
M  V30 5625 H 506.63 -2.67387 1.64812 0
M  V30 5626 H 505.823 -3.07184 3.99567 0
M  V30 5627 H 505.425 -1.42336 3.45856 0
M  V30 5628 H 507.717 -3.67549 5.69134 0
M  V30 5629 H 508.66 -2.47734 6.6335 0
M  V30 5630 H 509.068 -2.77259 4.91719 0
M  V30 5631 N 508.466 -1.55915 -0.229846 0
M  V30 5632 C 509.712 -1.79718 -0.952517 0
M  V30 5633 C 510.067 -0.61514 -1.82301 0
M  V30 5634 O 509.36 0.391098 -1.87566 0
M  V30 5635 C 509.554 -3.06845 -1.8325 0
M  V30 5636 C 509.383 -4.37302 -1.04868 0
M  V30 5637 C 508.153 -4.99749 -0.746932 0
M  V30 5638 C 510.351 -5.12599 -0.417989 0
M  V30 5639 N 508.333 -6.13871 0.0591596 0
M  V30 5640 C 509.704 -6.19488 0.251879 0
M  V30 5641 C 511.759 -4.96804 -0.33018 0
M  V30 5642 C 510.462 -7.12299 1.00115 0
M  V30 5643 C 512.488 -5.90007 0.4056 0
M  V30 5644 C 511.85 -6.96317 1.06404 0
M  V30 5645 H 507.949 -0.709382 -0.329091 0
M  V30 5646 H 510.533 -1.93406 -0.224114 0
M  V30 5647 H 508.704 -2.94456 -2.53279 0
M  V30 5648 H 510.436 -3.18874 -2.49202 0
M  V30 5649 H 507.191 -4.61518 -1.06292 0
M  V30 5650 H 507.615 -6.75497 0.450798 0
M  V30 5651 H 512.257 -4.14675 -0.824898 0
M  V30 5652 H 509.975 -7.93916 1.50741 0
M  V30 5653 H 513.561 -5.79862 0.474436 0
M  V30 5654 H 512.441 -7.67194 1.62429 0
M  V30 5655 N 509.944 0.496216 -1.49584 0
M  V30 5656 C 511.169 1.27865 -1.63295 0
M  V30 5657 C 511.594 1.85592 -0.306156 0
M  V30 5658 O 510.952 1.66092 0.726851 0
M  V30 5659 C 511 2.38128 -2.7079 0
M  V30 5660 O 510.104 3.42108 -2.30296 0
M  V30 5661 H 509.445 0.377279 -0.546403 0
M  V30 5662 H 511.975 0.593497 -1.95803 0
M  V30 5663 H 511.985 2.8382 -2.93104 0
M  V30 5664 H 510.66 1.95479 -3.67098 0
M  V30 5665 H 509.237 3.02301 -2.18331 0
M  V30 5666 N 511.423 1.38739 0.74761 0
M  V30 5667 C 512.353 1.39173 1.87492 0
M  V30 5668 C 513.334 0.256794 1.6815 0
M  V30 5669 O 514.519 0.460762 1.88655 0
M  V30 5670 C 511.649 1.22197 3.25093 0
M  V30 5671 C 510.603 2.32957 3.59047 0
M  V30 5672 C 509.929 2.01082 4.95449 0
M  V30 5673 C 511.229 3.75237 3.6331 0
M  V30 5674 H 512.923 2.3351 1.87386 0
M  V30 5675 H 510.469 1.12399 0.900134 0
M  V30 5676 H 512.422 1.21124 4.03617 0
M  V30 5677 H 511.146 0.243241 3.25693 0
M  V30 5678 H 509.805 2.33226 2.82845 0
M  V30 5679 H 509.453 1.01678 4.92616 0
M  V30 5680 H 509.153 2.75267 5.19136 0
M  V30 5681 H 510.677 2.01638 5.76346 0
M  V30 5682 H 512.091 3.76966 4.31937 0
M  V30 5683 H 510.488 4.48677 3.98509 0
M  V30 5684 H 511.558 4.07122 2.634 0
M  V30 5685 N 512.901 -0.976442 1.23707 0
M  V30 5686 C 514.149 -1.71487 1.06942 0
M  V30 5687 C 514.47 -1.9098 -0.393897 0
M  V30 5688 O 513.74 -1.48128 -1.28198 0
M  V30 5689 H 512.32 -0.635425 0.392739 0
M  V30 5690 H 514.982 -1.17515 1.55487 0
M  V30 5691 H 514.078 -2.70286 1.56051 0
M  V30 5692 N 514.379 -1.04941 -1.1758 0
M  V30 5693 C 515.619 -0.766996 -1.89464 0
M  V30 5694 C 515.983 0.693123 -1.79053 0
M  V30 5695 O 517.184 1.08953 -2.45729 0
M  V30 5696 C 515.455 -1.23108 -3.35528 0
M  V30 5697 S 517.014 -1.07565 -4.25412 0
M  V30 5698 H 513.832 -0.278616 -0.654136 0
M  V30 5699 H 516.434 -1.34352 -1.4202 0
M  V30 5700 H 515.138 -2.28896 -3.40639 0
M  V30 5701 H 514.669 -0.648724 -3.88014 0
M  V30 5702 H 516.684 0.00169467 -4.962 0
M  V30 5703 N 515.857 1.33968 -0.830081 0
M  V30 5704 C 517.106 1.97323 -0.417928 0
M  V30 5705 C 517.419 1.6652 1.02618 0
M  V30 5706 O 518.625 2.2342 1.54259 0
M  V30 5707 C 517.081 3.53099 -0.696359 0
M  V30 5708 C 516.689 3.92788 -2.15457 0
M  V30 5709 C 518.433 4.23049 -0.350724 0
M  V30 5710 C 516.34 5.41506 -2.37751 0
M  V30 5711 H 515.27 0.738409 -0.152541 0
M  V30 5712 H 517.921 1.52711 -1.01744 0
M  V30 5713 H 516.303 3.95991 -0.0265904 0
M  V30 5714 H 517.477 3.6098 -2.86408 0
M  V30 5715 H 515.792 3.35795 -2.46232 0
M  V30 5716 H 518.389 5.32403 -0.495036 0
M  V30 5717 H 518.732 4.10279 0.705476 0
M  V30 5718 H 519.265 3.85657 -0.975362 0
M  V30 5719 H 516.004 5.5927 -3.41903 0
M  V30 5720 H 515.524 5.74804 -1.7135 0
M  V30 5721 H 517.203 6.0828 -2.20465 0
M  V30 5722 N 517.335 0.585699 1.46312 0
M  V30 5723 C 518.265 -0.133556 2.33118 0
M  V30 5724 C 519.246 -0.880707 1.45525 0
M  V30 5725 O 520.431 -0.855579 1.74337 0
M  V30 5726 C 517.561 -1.14585 3.27853 0
M  V30 5727 C 516.515 -0.513341 4.2491 0
M  V30 5728 C 515.841 -1.63231 5.09175 0
M  V30 5729 C 517.141 0.551413 5.19381 0
M  V30 5730 H 518.835 0.59121 2.93505 0
M  V30 5731 H 516.381 0.285761 1.41136 0
M  V30 5732 H 518.334 -1.65741 3.87438 0
M  V30 5733 H 517.058 -1.90093 2.65579 0
M  V30 5734 H 515.717 -0.0228349 3.66593 0
M  V30 5735 H 515.365 -2.37713 4.43285 0
M  V30 5736 H 515.065 -1.21473 5.74907 0
M  V30 5737 H 516.589 -2.14658 5.71624 0
M  V30 5738 H 518.003 0.124804 5.73164 0
M  V30 5739 H 516.4 0.889486 5.93471 0
M  V30 5740 H 517.47 1.43655 4.63132 0
M  V30 5741 N 518.813 -1.54241 0.323641 0
M  V30 5742 C 520.059 -2.00867 -0.279323 0
M  V30 5743 C 520.392 -1.21146 -1.5178 0
M  V30 5744 O 519.667 -0.29378 -1.92269 0
M  V30 5745 C 519.95 -3.54837 -0.613387 0
M  V30 5746 C 519.803 -4.45284 0.635803 0
M  V30 5747 C 521.122 -4.16186 -1.43099 0
M  V30 5748 H 518.241 -0.730177 -0.100049 0
M  V30 5749 H 520.883 -1.84829 0.440235 0
M  V30 5750 H 519.033 -3.68634 -1.22641 0
M  V30 5751 H 520.705 -4.43357 1.27406 0
M  V30 5752 H 518.948 -4.14956 1.26466 0
M  V30 5753 H 519.619 -5.5084 0.357597 0
M  V30 5754 H 522.095 -4.05964 -0.912814 0
M  V30 5755 H 520.971 -5.24031 -1.6335 0
M  V30 5756 H 521.232 -3.69516 -2.42715 0
M  V30 5757 N 520.291 -0.0518155 -1.57515 0
M  V30 5758 C 521.201 0.937539 -2.15052 0
M  V30 5759 C 522.217 1.34121 -1.10849 0
M  V30 5760 O 523.393 1.418 -1.4302 0
M  V30 5761 C 520.458 2.19379 -2.68466 0
M  V30 5762 C 519.519 1.84841 -3.87469 0
M  V30 5763 C 518.752 3.04477 -4.38326 0
M  V30 5764 O 518.975 4.17868 -3.88256 0
M  V30 5765 O 517.909 2.85453 -5.29906 0
M  V30 5766 H 521.735 0.478201 -2.99912 0
M  V30 5767 H 519.32 0.17012 -1.48428 0
M  V30 5768 H 521.202 2.93084 -3.02787 0
M  V30 5769 H 519.877 2.64449 -1.86677 0
M  V30 5770 H 518.784 1.08449 -3.58036 0
M  V30 5771 H 520.117 1.44569 -4.7049 0
M  V30 5772 N 521.769 1.56035 0.221574 0
M  V30 5773 C 522.702 1.87427 1.30178 0
M  V30 5774 C 523.68 0.731658 1.45209 0
M  V30 5775 O 524.864 0.980016 1.61022 0
M  V30 5776 C 521.991 2.08127 2.67209 0
M  V30 5777 C 521.037 3.30813 2.69194 0
M  V30 5778 S 521.87 4.86738 2.23263 0
M  V30 5779 C 523.026 5.10474 3.62171 0
M  V30 5780 H 523.259 2.78756 1.03355 0
M  V30 5781 H 520.792 1.48469 0.423813 0
M  V30 5782 H 522.75 2.20736 3.46101 0
M  V30 5783 H 521.411 1.17595 2.91256 0
M  V30 5784 H 520.604 3.42341 3.6989 0
M  V30 5785 H 520.206 3.1706 1.98366 0
M  V30 5786 H 522.498 4.9937 4.5786 0
M  V30 5787 H 523.441 6.12359 3.55558 0
M  V30 5788 H 523.849 4.38208 3.55857 0
M  V30 5789 N 523.247 -0.488276 1.49845 0
M  V30 5790 C 524.197 -1.58556 1.63842 0
M  V30 5791 C 525.181 -1.53142 0.493586 0
M  V30 5792 O 526.373 -1.60457 0.747169 0
M  V30 5793 C 523.502 -2.97101 1.72005 0
M  V30 5794 C 522.588 -3.07463 2.92108 0
M  V30 5795 N 522.979 -2.87681 4.16021 0
M  V30 5796 C 521.277 -3.3858 2.90309 0
M  V30 5797 C 521.978 -3.0256 4.96822 0
M  V30 5798 N 520.954 -3.32002 4.30437 0
M  V30 5799 H 524.756 -1.41935 2.57355 0
M  V30 5800 H 522.27 -0.694668 1.46793 0
M  V30 5801 H 524.267 -3.75976 1.80132 0
M  V30 5802 H 522.927 -3.14782 0.796375 0
M  V30 5803 H 523.938 -2.63603 4.45796 0
M  V30 5804 H 520.615 -3.62357 2.07372 0
M  V30 5805 H 522.005 -2.9165 6.05301 0
M  V30 5806 N 524.725 -1.39134 -0.740242 0
M  V30 5807 C 525.953 -1.39334 -1.5295 0
M  V30 5808 C 526.368 0.0135008 -1.88795 0
M  V30 5809 O 525.725 0.983524 -1.5373 0
M  V30 5810 C 525.776 -2.2614 -2.82034 0
M  V30 5811 O 525.497 -3.61345 -2.47712 0
M  V30 5812 C 526.998 -2.34666 -3.76094 0
M  V30 5813 H 524.218 -0.476103 -0.472828 0
M  V30 5814 H 526.762 -1.82883 -0.9151 0
M  V30 5815 H 524.917 -1.86018 -3.39818 0
M  V30 5816 H 525.331 -4.07194 -3.30595 0
M  V30 5817 H 526.805 -2.99663 -4.63579 0
M  V30 5818 H 527.282 -1.36426 -4.17474 0
M  V30 5819 H 527.888 -2.75236 -3.2423 0
M  V30 5820 N 526.204 0.969867 -1.24223 0
M  V30 5821 C 527.452 1.70918 -1.0785 0
M  V30 5822 C 527.773 1.91186 0.383763 0
M  V30 5823 O 527.043 1.48806 1.27411 0
M  V30 5824 H 525.623 0.633334 -0.396103 0
M  V30 5825 H 528.285 1.16689 -1.56108 0
M  V30 5826 H 527.381 2.69455 -1.57482 0
M  V30 5827 N 527.682 1.05563 1.17022 0
M  V30 5828 C 528.592 0.670758 2.24807 0
M  V30 5829 C 529.608 -0.309865 1.71219 0
M  V30 5830 O 530.784 -0.161025 2.00755 0
M  V30 5831 C 527.849 0.055337 3.46656 0
M  V30 5832 C 526.91 1.08688 4.15314 0
M  V30 5833 C 526.143 0.500736 5.31346 0
M  V30 5834 O 526.366 -0.688718 5.66227 0
M  V30 5835 O 525.3 1.23683 5.89055 0
M  V30 5836 H 529.126 1.56914 2.60023 0
M  V30 5837 H 526.711 0.827428 1.24395 0
M  V30 5838 H 528.593 -0.286492 4.20425 0
M  V30 5839 H 527.268 -0.816638 3.13229 0
M  V30 5840 H 526.175 1.48077 3.43546 0
M  V30 5841 H 527.508 1.93014 4.52777 0
M  V30 5842 N 529.16 -1.33526 0.837174 0
M  V30 5843 C 530.571 -1.80182 0.489017 0
M  V30 5844 C 530.922 -1.69285 -0.991826 0
M  V30 5845 O 530.047 -1.24113 -1.77271 0
M  V30 5846 C 530.642 -3.27149 0.880866 0
M  V30 5847 C 529.201 -3.71828 0.584872 0
M  V30 5848 C 528.348 -2.54974 1.09011 0
M  V30 5849 H 531.299 -1.21071 1.02603 0
M  V30 5850 H 531.32 -3.80024 0.190239 0
M  V30 5851 H 530.832 -3.35048 1.95869 0
M  V30 5852 H 528.933 -3.69457 -0.48295 0
M  V30 5853 H 529.046 -4.65366 1.13892 0
M  V30 5854 H 527.41 -2.4952 0.511047 0
M  V30 5855 H 528.193 -2.65637 2.17467 0
M  V30 5856 N 530.638 -0.59345 -1.46 0
M  V30 5857 C 531.568 0.121192 -2.33185 0
M  V30 5858 C 532.549 0.872977 -1.4599 0
M  V30 5859 O 533.734 0.846321 -1.74789 0
M  V30 5860 C 530.864 1.12844 -3.28456 0
M  V30 5861 C 529.818 0.4908 -4.25177 0
M  V30 5862 C 529.144 1.60529 -5.10034 0
M  V30 5863 C 530.444 -0.578949 -5.19081 0
M  V30 5864 H 532.138 -0.606767 -2.93187 0
M  V30 5865 H 529.684 -0.293242 -1.40983 0
M  V30 5866 H 531.637 1.63684 -3.88311 0
M  V30 5867 H 530.361 1.88681 -2.66584 0
M  V30 5868 H 529.02 0.00339328 -3.666 0
M  V30 5869 H 528.668 2.35359 -4.44539 0
M  V30 5870 H 528.368 1.18422 -5.75543 0
M  V30 5871 H 529.892 2.11623 -5.72755 0
M  V30 5872 H 531.306 -0.155199 -5.7309 0
M  V30 5873 H 529.703 -0.920947 -5.92991 0
M  V30 5874 H 530.773 -1.46109 -4.62364 0
M  V30 5875 N 532.116 1.54067 -0.331816 0
M  V30 5876 C 533.363 2.00715 0.268269 0
M  V30 5877 C 533.691 1.21986 1.51491 0
M  V30 5878 O 532.946 0.292309 1.93505 0
M  V30 5879 C 533.245 3.51634 0.639392 0
M  V30 5880 C 532.911 4.48018 -0.509019 0
M  V30 5881 C 531.573 4.74089 -0.824209 0
M  V30 5882 C 533.925 5.05237 -1.28003 0
M  V30 5883 C 531.253 5.54637 -1.91298 0
M  V30 5884 C 533.605 5.86972 -2.35895 0
M  V30 5885 C 532.269 6.11342 -2.67987 0
M  V30 5886 H 531.539 0.734469 0.0981667 0
M  V30 5887 H 534.186 1.8596 -0.457304 0
M  V30 5888 H 532.491 3.6416 1.44551 0
M  V30 5889 H 534.188 3.85175 1.11539 0
M  V30 5890 H 530.778 4.27851 -0.253287 0
M  V30 5891 H 534.962 4.8507 -1.04978 0
M  V30 5892 H 530.218 5.71747 -2.16599 0
M  V30 5893 H 534.392 6.30327 -2.96076 0
M  V30 5894 H 532.019 6.73544 -3.5248 0
M  V30 5895 N 533.594 0.0601682 1.57485 0
M  V30 5896 C 534.819 -0.624416 1.97777 0
M  V30 5897 C 535.244 -1.63051 0.937867 0
M  V30 5898 O 534.602 -1.81036 -0.0978845 0
M  V30 5899 C 534.65 -1.27979 3.37126 0
M  V30 5900 O 533.754 -2.39556 3.35688 0
M  V30 5901 H 533.095 -0.161581 0.64404 0
M  V30 5902 H 535.625 0.131237 2.04179 0
M  V30 5903 H 535.635 -1.62937 3.74053 0
M  V30 5904 H 534.31 -0.542501 4.12347 0
M  V30 5905 H 532.887 -2.06478 3.10517 0
M  V30 5906 N 535.072 -1.5615 -0.213296 0
M  V30 5907 C 536.32 -1.79191 -0.934612 0
M  V30 5908 C 536.641 -0.630112 -1.84539 0
M  V30 5909 O 535.911 0.35257 -1.92701 0
M  V30 5910 H 534.491 -0.660937 -0.348097 0
M  V30 5911 H 537.153 -1.93618 -0.22317 0
M  V30 5912 H 536.249 -2.71656 -1.53654 0
M  V30 5913 N 536.55 0.480323 -1.50102 0
M  V30 5914 C 537.513 1.56181 -1.6775 0
M  V30 5915 C 538.513 1.51156 -0.548503 0
M  V30 5916 O 539.703 1.5394 -0.815363 0
M  V30 5917 C 536.835 2.95823 -1.69415 0
M  V30 5918 H 538.028 1.41855 -2.6423 0
M  V30 5919 H 535.581 0.70605 -1.39444 0
M  V30 5920 H 536.316 3.15604 -0.745948 0
M  V30 5921 H 536.101 3.00878 -2.51425 0
M  V30 5922 H 537.591 3.74359 -1.85054 0
M  V30 5923 N 538.028 1.39524 0.732853 0
M  V30 5924 C 538.976 1.38563 1.86824 0
M  V30 5925 C 539.97 0.268467 1.67259 0
M  V30 5926 O 541.176 0.438613 1.74574 0
M  V30 5927 H 537.551 0.432737 0.615014 0
M  V30 5928 H 539.522 2.34328 1.84751 0
M  V30 5929 C 538.271 1.2481 3.24527 0
M  V30 5930 H 537.594 2.10044 3.40179 0
M  V30 5931 H 539.034 1.28194 4.04156 0
M  V30 5932 C 537.493 -0.0432825 3.36872 0
M  V30 5933 O 538.023 -1.01268 3.88726 0
M  V30 5934 N 536.229 -0.107055 2.90403 0
M  V30 5935 H 535.776 0.682512 2.48394 0
M  V30 5936 H 535.734 -0.970618 2.99042 0
M  V30 5937 N 539.506 -0.963266 1.24736 0
M  V30 5938 C 540.416 -2.09246 1.06082 0
M  V30 5939 C 541.432 -1.74 0.000363101 0
M  V30 5940 O 542.608 -2.0041 0.199479 0
M  V30 5941 C 539.673 -3.40115 0.672498 0
M  V30 5942 C 538.734 -3.89282 1.80993 0
M  V30 5943 C 537.967 -5.13905 1.44004 0
M  V30 5944 O 538.19 -5.69434 0.331835 0
M  V30 5945 O 537.124 -5.57566 2.26723 0
M  V30 5946 H 540.95 -2.27881 2.00759 0
M  V30 5947 H 538.535 -1.07649 1.03595 0
M  V30 5948 H 540.417 -4.18797 0.467668 0
M  V30 5949 H 539.092 -3.22771 -0.245102 0
M  V30 5950 H 537.999 -3.11642 2.06955 0
M  V30 5951 H 539.332 -4.1111 2.70646 0
M  V30 5952 N 540.985 -1.06182 -1.16461 0
M  V30 5953 C 542.231 -0.779015 -1.87241 0
M  V30 5954 C 542.564 0.692715 -1.81425 0
M  V30 5955 O 541.839 1.5074 -1.22913 0
M  V30 5956 C 542.122 -1.2728 -3.36856 0
M  V30 5957 C 541.975 -2.80821 -3.51368 0
M  V30 5958 C 543.294 -0.879799 -4.31216 0
M  V30 5959 H 540.413 -0.284464 -0.679889 0
M  V30 5960 H 543.055 -1.31755 -1.36896 0
M  V30 5961 H 541.205 -0.814673 -3.79862 0
M  V30 5962 H 542.877 -3.34833 -3.17308 0
M  V30 5963 H 541.12 -3.19606 -2.93316 0
M  V30 5964 H 541.791 -3.10435 -4.56436 0
M  V30 5965 H 544.267 -1.27436 -3.96105 0
M  V30 5966 H 543.143 -1.25278 -5.34412 0
M  V30 5967 H 543.404 0.215372 -4.41575 0
M  V30 5968 N 542.463 1.3308 -0.844243 0
M  V30 5969 C 543.74 1.92178 -0.364261 0
M  V30 5970 C 544.12 1.76961 1.15101 0
M  V30 5971 O 543.468 1.16128 1.9679 0
M  V30 5972 C 543.678 3.393 -0.817106 0
M  V30 5973 C 545.026 4.16444 -0.828236 0
M  V30 5974 O 546.05 3.47975 -0.761062 0
M  V30 5975 O 544.909 5.38685 -0.920926 0
M  V30 5976 H 542.003 0.820411 -0.10419 0
M  V30 5977 H 544.549 1.41918 -0.930453 0
M  V30 5978 H 543.321 3.44272 -1.85991 0
M  V30 5979 H 542.944 3.96947 -0.227785 0
M  V30 5980 N 543.941 0.601185 1.45683 0
M  V30 5981 C 544.873 -0.159446 2.28645 0
M  V30 5982 C 545.886 -0.837882 1.39583 0
M  V30 5983 O 547.075 -0.704344 1.64016 0
M  V30 5984 C 544.175 -1.24641 3.15147 0
M  V30 5985 C 543.348 -0.656334 4.32448 0
M  V30 5986 C 542.407 -1.63337 5.00208 0
M  V30 5987 O 541.433 -1.16217 5.57209 0
M  V30 5988 N 542.635 -2.96773 4.98905 0
M  V30 5989 H 545.4 0.5524 2.94565 0
M  V30 5990 H 542.961 0.440223 1.558 0
M  V30 5991 H 544.953 -1.8997 3.57342 0
M  V30 5992 H 543.523 -1.86087 2.51178 0
M  V30 5993 H 542.743 0.174879 3.93812 0
M  V30 5994 H 544.031 -0.242211 5.08223 0
M  V30 5995 H 543.429 -3.37662 4.53873 0
M  V30 5996 H 541.986 -3.57541 5.44984 0
M  V30 5997 N 545.419 -1.53889 0.339982 0
M  V30 5998 C 546.352 -2.21187 -0.561405 0
M  V30 5999 C 547.33 -1.19463 -1.10306 0
M  V30 6000 O 548.514 -1.48268 -1.164 0
M  V30 6001 C 545.641 -2.8865 -1.77198 0
M  V30 6002 C 544.687 -4.04232 -1.3601 0
M  V30 6003 S 545.52 -5.34129 -0.382909 0
M  V30 6004 C 546.676 -6.05094 -1.60039 0
M  V30 6005 H 546.909 -2.97298 0.0102092 0
M  V30 6006 H 544.442 -1.53901 0.124056 0
M  V30 6007 H 546.4 -3.28138 -2.4665 0
M  V30 6008 H 545.061 -2.12311 -2.3148 0
M  V30 6009 H 544.254 -4.50358 -2.2626 0
M  V30 6010 H 543.856 -3.66503 -0.745098 0
M  V30 6011 H 546.148 -6.2827 -2.53541 0
M  V30 6012 H 547.091 -6.98182 -1.18099 0
M  V30 6013 H 547.499 -5.35207 -1.79483 0
M  V30 6014 N 546.897 -0.0685191 -1.57451 0
M  V30 6015 C 547.845 0.917577 -2.13736 0
M  V30 6016 C 548.839 1.31049 -1.07344 0
M  V30 6017 O 550.045 1.28811 -1.25728 0
M  V30 6018 H 546.42 0.313835 -0.683382 0
M  V30 6019 H 548.391 0.417903 -2.95459 0
M  V30 6020 C 547.14 2.17686 -2.71123 0
M  V30 6021 H 546.463 1.88336 -3.52661 0
M  V30 6022 H 547.903 2.84803 -3.14107 0
M  V30 6023 C 546.362 2.9332 -1.65726 0
M  V30 6024 O 546.892 3.86901 -1.08031 0
M  V30 6025 N 545.098 2.56367 -1.36837 0
M  V30 6026 H 544.645 1.80341 -1.83943 0
M  V30 6027 H 544.603 3.07276 -0.665501 0
M  V30 6028 N 548.375 1.56261 0.205012 0
M  V30 6029 C 549.322 1.93754 1.25411 0
M  V30 6030 C 550.292 0.796826 1.45739 0
M  V30 6031 O 551.477 1.05414 1.59036 0
M  V30 6032 C 548.617 2.27383 2.59598 0
M  V30 6033 C 547.73 3.5447 2.46931 0
M  V30 6034 C 546.865 3.77468 3.73753 0
M  V30 6035 C 545.904 4.98014 3.55877 0
M  V30 6036 N 545.041 5.17316 4.74688 0
M  V30 6037 H 549.881 2.83203 0.92737 0
M  V30 6038 H 547.418 1.40158 0.446574 0
M  V30 6039 H 549.376 2.44895 3.37761 0
M  V30 6040 H 548.006 1.41088 2.90335 0
M  V30 6041 H 547.058 3.45061 1.60116 0
M  V30 6042 H 548.37 4.42789 2.29651 0
M  V30 6043 H 547.524 3.95165 4.60358 0
M  V30 6044 H 546.263 2.87461 3.93976 0
M  V30 6045 H 545.268 4.80249 2.67657 0
M  V30 6046 H 546.493 5.8952 3.37109 0
M  V30 6047 H 544.439 4.30255 4.95194 0
M  V30 6048 H 544.356 5.99796 4.60197 0
M  V30 6049 H 545.624 5.39463 5.62672 0
M  V30 6050 N 549.853 -0.472356 1.50355 0
M  V30 6051 C 551.102 -1.2213 1.60522 0
M  V30 6052 C 551.415 -1.9312 0.310466 0
M  V30 6053 O 552.621 -2.69936 0.291029 0
M  V30 6054 C 551.077 -2.21909 2.83345 0
M  V30 6055 C 550.685 -1.56727 4.19691 0
M  V30 6056 C 552.429 -2.97453 3.02856 0
M  V30 6057 C 550.336 -2.54785 5.33703 0
M  V30 6058 H 549.266 -0.459543 0.597776 0
M  V30 6059 H 551.917 -0.491922 1.76783 0
M  V30 6060 H 550.299 -2.98133 2.60639 0
M  V30 6061 H 551.473 -0.863007 4.52646 0
M  V30 6062 H 549.788 -0.934685 4.05774 0
M  V30 6063 H 552.385 -3.70838 3.85205 0
M  V30 6064 H 552.728 -3.56764 2.14534 0
M  V30 6065 H 553.261 -2.28342 3.25737 0
M  V30 6066 H 550 -2.00214 6.24175 0
M  V30 6067 H 549.52 -3.23367 5.05167 0
M  V30 6068 H 551.199 -3.16639 5.64224 0
M  V30 6069 N 551.331 -1.39911 -0.725443 0
M  V30 6070 C 552.577 -1.37858 -1.48738 0
M  V30 6071 C 552.91 0.0224187 -1.94187 0
M  V30 6072 O 552.185 0.989204 -1.67466 0
M  V30 6073 C 552.468 -2.3594 -2.72038 0
M  V30 6074 C 552.321 -3.85023 -2.32546 0
M  V30 6075 C 553.64 -2.31704 -3.74167 0
M  V30 6076 H 550.759 -0.502074 -0.539528 0
M  V30 6077 H 553.401 -1.70974 -0.828728 0
M  V30 6078 H 551.551 -2.0783 -3.28236 0
M  V30 6079 H 553.223 -4.2392 -1.81905 0
M  V30 6080 H 551.466 -4.01334 -1.64661 0
M  V30 6081 H 552.137 -4.49152 -3.20884 0
M  V30 6082 H 554.613 -2.5658 -3.27576 0
M  V30 6083 H 553.489 -3.02395 -4.58092 0
M  V30 6084 H 553.75 -1.3253 -4.21768 0
M  V30 6085 N 552.809 0.956637 -1.25245 0
M  V30 6086 C 553.719 2.0868 -1.0719 0
M  V30 6087 C 554.735 1.73997 -0.00959074 0
M  V30 6088 O 555.911 2.00301 -0.210104 0
M  V30 6089 C 552.976 3.39754 -0.690526 0
M  V30 6090 C 552.037 3.88316 -1.83055 0
M  V30 6091 C 551.27 5.13134 -1.46728 0
M  V30 6092 O 551.493 5.6925 -0.362029 0
M  V30 6093 O 550.427 5.56356 -2.29677 0
M  V30 6094 H 554.253 2.26813 -2.01965 0
M  V30 6095 H 551.838 1.07098 -1.04165 0
M  V30 6096 H 553.72 4.18543 -0.489871 0
M  V30 6097 H 552.395 3.22896 0.227981 0
M  V30 6098 H 551.302 3.1054 -2.08604 0
M  V30 6099 H 552.635 4.09669 -2.72822 0
M  V30 6100 N 554.287 1.06798 1.15896 0
M  V30 6101 C 555.533 0.788934 1.86825 0
M  V30 6102 C 555.866 -0.683084 1.8179 0
M  V30 6103 O 555.141 -1.50086 1.23711 0
M  V30 6104 C 555.424 1.29065 3.36176 0
M  V30 6105 C 555.277 2.8268 3.49874 0
M  V30 6106 C 556.596 0.902655 4.30744 0
M  V30 6107 H 553.715 0.288066 0.678371 0
M  V30 6108 H 556.357 1.32479 1.36195 0
M  V30 6109 H 554.507 0.834806 3.79425 0
M  V30 6110 H 556.179 3.36511 3.15528 0
M  V30 6111 H 554.422 3.21157 2.91617 0
M  V30 6112 H 555.093 3.12852 4.54783 0
M  V30 6113 H 557.569 1.29535 3.95424 0
M  V30 6114 H 556.445 1.28111 5.3374 0
M  V30 6115 H 556.706 -0.191951 4.41683 0
M  V30 6116 N 555.766 -1.3263 0.851289 0
M  V30 6117 C 556.696 -2.31449 0.308771 0
M  V30 6118 C 557.677 -1.59531 -0.590255 0
M  V30 6119 O 558.862 -1.87351 -0.511205 0
M  V30 6120 C 555.992 -3.43586 -0.506548 0
M  V30 6121 C 554.946 -4.26963 0.297753 0
M  V30 6122 C 554.272 -5.30831 -0.642094 0
M  V30 6123 C 555.572 -4.99643 1.52166 0
M  V30 6124 H 557.266 -2.77074 1.13447 0
M  V30 6125 H 554.812 -1.33207 0.546971 0
M  V30 6126 H 556.765 -4.11754 -0.896474 0
M  V30 6127 H 555.489 -2.96681 -1.36558 0
M  V30 6128 H 554.148 -3.60437 0.669391 0
M  V30 6129 H 553.796 -4.8018 -1.49788 0
M  V30 6130 H 553.496 -5.87501 -0.107968 0
M  V30 6131 H 555.02 -6.01862 -1.02927 0
M  V30 6132 H 556.434 -5.6051 1.20421 0
M  V30 6133 H 554.831 -5.66022 1.99347 0
M  V30 6134 H 555.901 -4.27701 2.28474 0
M  V30 6135 N 557.244 -0.608902 -1.45362 0
M  V30 6136 C 558.492 -0.104401 -2.0183 0
M  V30 6137 C 558.813 1.27007 -1.47967 0
M  V30 6138 O 558.083 1.83924 -0.674455 0
M  V30 6139 H 556.663 -0.0356042 -0.746151 0
M  V30 6140 H 559.325 -0.790596 -1.78145 0
M  V30 6141 H 558.421 -0.0551793 -3.12051 0
M  V30 6142 N 558.722 1.53707 -0.348139 0
M  V30 6143 C 559.971 2.0017 0.247992 0
M  V30 6144 C 560.284 1.23983 1.51286 0
M  V30 6145 O 561.49 1.60946 2.18652 0
M  V30 6146 C 559.946 3.56515 0.492459 0
M  V30 6147 C 559.554 4.41562 -0.756777 0
M  V30 6148 C 561.298 4.11381 1.0472 0
M  V30 6149 C 559.205 5.89426 -0.482856 0
M  V30 6150 H 558.135 0.747806 0.0964452 0
M  V30 6151 H 560.786 1.77532 -0.464179 0
M  V30 6152 H 559.168 3.75236 1.26545 0
M  V30 6153 H 560.342 4.34615 -1.53122 0
M  V30 6154 H 558.657 3.97711 -1.23348 0
M  V30 6155 H 561.254 5.19468 1.26717 0
M  V30 6156 H 561.597 3.64885 2.00411 0
M  V30 6157 H 562.13 3.96389 0.334801 0
M  V30 6158 H 558.869 6.40164 -1.40962 0
M  V30 6159 H 558.389 5.99264 0.253416 0
M  V30 6160 H 560.068 6.4692 -0.101816 0
M  V30 6161 N 560.2 0.0768682 1.57412 0
M  V30 6162 C 561.611 -0.455037 1.8107 0
M  V30 6163 C 561.962 -1.69323 0.991162 0
M  V30 6164 O 561.087 -2.15328 0.215156 0
M  V30 6165 C 561.682 -0.832316 3.28417 0
M  V30 6166 C 560.241 -1.30906 3.52903 0
M  V30 6167 C 559.388 -0.296714 2.75708 0
M  V30 6168 H 562.339 0.302514 1.5579 0
M  V30 6169 H 562.36 -1.69333 3.40744 0
M  V30 6170 H 561.872 0.0690532 3.88039 0
M  V30 6171 H 559.973 -2.22875 2.98592 0
M  V30 6172 H 560.086 -1.28348 4.61588 0
M  V30 6173 H 558.45 -0.775059 2.42621 0
M  V30 6174 H 559.233 0.597015 3.38069 0
M  V30 6175 N 561.678 -1.56367 -0.196722 0
M  V30 6176 C 563.089 -1.70462 -0.761545 0
M  V30 6177 C 563.44 -0.683161 -1.83922 0
M  V30 6178 O 562.565 0.160753 -2.15802 0
M  V30 6179 C 563.16 -3.09057 -1.38814 0
M  V30 6180 C 561.719 -3.24922 -1.90007 0
M  V30 6181 C 560.866 -2.66412 -0.769399 0
M  V30 6182 H 563.817 -1.58675 0.0283263 0
M  V30 6183 H 563.838 -3.06296 -2.2575 0
M  V30 6184 H 563.35 -3.83378 -0.603559 0
M  V30 6185 H 561.451 -2.55514 -2.71189 0
M  V30 6186 H 561.564 -4.3241 -2.06297 0
M  V30 6187 H 559.928 -2.25546 -1.18326 0
M  V30 6188 H 560.711 -3.433 0.00291773 0
M  V30 6189 N 563.156 0.464375 -1.50603 0
M  V30 6190 C 564.119 1.54393 -1.69397 0
M  V30 6191 C 565.119 1.50566 -0.564504 0
M  V30 6192 O 566.309 1.53066 -0.831645 0
M  V30 6193 C 563.441 2.9401 -1.72543 0
M  V30 6194 H 564.634 1.39044 -2.65719 0
M  V30 6195 H 562.187 0.69122 -1.40185 0
M  V30 6196 H 562.922 3.14795 -0.77938 0
M  V30 6197 H 562.707 2.98195 -2.54602 0
M  V30 6198 H 564.197 3.72375 -1.89015 0
M  V30 6199 N 564.634 1.40294 0.718013 0
M  V30 6200 C 565.584 1.36847 1.82365 0
M  V30 6201 C 566.568 0.246424 1.59002 0
M  V30 6202 O 567.76 0.485336 1.70216 0
M  V30 6203 C 564.889 1.23105 3.20469 0
M  V30 6204 C 563.975 2.4008 3.49603 0
M  V30 6205 N 564.366 3.65562 3.49568 0
M  V30 6206 C 562.664 2.33407 3.80049 0
M  V30 6207 C 563.365 4.43015 3.76978 0
M  V30 6208 N 562.341 3.72823 3.95606 0
M  V30 6209 H 566.143 2.31811 1.80668 0
M  V30 6210 H 563.657 1.34031 0.91703 0
M  V30 6211 H 565.654 1.18718 3.9964 0
M  V30 6212 H 564.314 0.291056 3.23393 0
M  V30 6213 H 565.325 3.98756 3.30476 0
M  V30 6214 H 562.002 1.47762 3.90478 0
M  V30 6215 H 563.392 5.51859 3.83276 0
M  V30 6216 N 566.112 -0.949982 1.2575 0
M  V30 6217 C 567.361 -1.68956 1.10168 0
M  V30 6218 C 567.674 -1.92327 -0.356309 0
M  V30 6219 O 568.88 -2.64026 -0.632657 0
M  V30 6220 C 567.336 -3.04196 1.92336 0
M  V30 6221 C 566.944 -2.88603 3.42655 0
M  V30 6222 C 568.688 -3.81904 1.85336 0
M  V30 6223 C 566.595 -4.19262 4.17101 0
M  V30 6224 H 565.525 -0.633645 0.408668 0
M  V30 6225 H 568.176 -1.05719 1.49986 0
M  V30 6226 H 566.558 -3.68363 1.45344 0
M  V30 6227 H 567.732 -2.3334 3.97353 0
M  V30 6228 H 566.047 -2.24345 3.50796 0
M  V30 6229 H 568.644 -4.78688 2.38248 0
M  V30 6230 H 568.987 -4.08099 0.822226 0
M  V30 6231 H 569.52 -3.24495 2.30104 0
M  V30 6232 H 566.259 -3.98254 5.20648 0
M  V30 6233 H 565.779 -4.74273 3.67186 0
M  V30 6234 H 567.458 -4.87775 4.25071 0
M  V30 6235 N 567.59 -1.07411 -1.15328 0
M  V30 6236 C 568.52 -0.716472 -2.22236 0
M  V30 6237 C 569.501 0.296373 -1.67498 0
M  V30 6238 O 570.686 0.168989 -1.93463 0
M  V30 6239 C 567.816 -0.114142 -3.47112 0
M  V30 6240 C 566.77 -1.05421 -4.14814 0
M  V30 6241 C 566.096 -0.314604 -5.33774 0
M  V30 6242 C 567.396 -2.38808 -4.64508 0
M  V30 6243 H 569.09 -1.61029 -2.52408 0
M  V30 6244 H 566.636 -0.775702 -1.21321 0
M  V30 6245 H 568.589 0.148001 -4.2114 0
M  V30 6246 H 567.313 0.814755 -3.16274 0
M  V30 6247 H 565.972 -1.30128 -3.42728 0
M  V30 6248 H 565.62 0.617772 -4.99192 0
M  V30 6249 H 565.32 -0.941209 -5.80013 0
M  V30 6250 H 566.844 -0.0602747 -6.1057 0
M  V30 6251 H 568.258 -2.18424 -5.3006 0
M  V30 6252 H 566.655 -2.97069 -5.21412 0
M  V30 6253 H 567.725 -3.01067 -3.80114 0
M  V30 6254 N 569.068 1.32177 -0.85831 0
M  V30 6255 C 570.345 1.91781 -0.384624 0
M  V30 6256 C 570.725 1.78171 1.13217 0
M  V30 6257 O 570.073 1.18209 1.95548 0
M  V30 6258 C 570.283 3.38414 -0.853047 0
M  V30 6259 C 571.631 4.15542 -0.872359 0
M  V30 6260 O 572.655 3.47148 -0.797926 0
M  V30 6261 O 571.514 5.37678 -0.978009 0
M  V30 6262 H 568.608 0.819259 -0.112886 0
M  V30 6263 H 571.154 1.40923 -0.945453 0
M  V30 6264 H 569.926 3.4228 -1.89632 0
M  V30 6265 H 569.549 3.96683 -0.269874 0
M  V30 6266 N 570.547 0.616602 1.45037 0
M  V30 6267 C 571.479 -0.135186 2.28801 0
M  V30 6268 C 572.492 -0.82303 1.40464 0
M  V30 6269 O 573.681 -0.686909 1.64754 0
M  V30 6270 C 570.781 -1.21292 3.16451 0
M  V30 6271 C 569.954 -0.61043 4.3312 0
M  V30 6272 C 569.013 -1.58022 5.01912 0
M  V30 6273 O 568.039 -1.10301 5.58411 0
M  V30 6274 N 569.241 -2.91464 5.02025 0
M  V30 6275 H 572.006 0.583612 2.93963 0
M  V30 6276 H 569.567 0.456723 1.55324 0
M  V30 6277 H 571.559 -1.86169 3.59337 0
M  V30 6278 H 570.129 -1.83412 2.53138 0
M  V30 6279 H 569.349 0.216638 3.93604 0
M  V30 6280 H 570.637 -0.188293 5.08451 0
M  V30 6281 H 570.035 -3.32829 4.57429 0
M  V30 6282 H 568.592 -3.51741 5.48745 0
M  V30 6283 N 572.025 -1.5352 0.356285 0
M  V30 6284 C 572.988 -2.24071 -0.482182 0
M  V30 6285 C 573.988 -1.24531 -1.01729 0
M  V30 6286 O 575.178 -1.48876 -0.904513 0
M  V30 6287 C 572.31 -2.97025 -1.67299 0
M  V30 6288 H 573.503 -2.99596 0.135031 0
M  V30 6289 H 571.056 -1.55928 0.107825 0
M  V30 6290 H 571.791 -2.25719 -2.32855 0
M  V30 6291 H 571.576 -3.7005 -1.29636 0
M  V30 6292 H 573.066 -3.50683 -2.26741 0
M  V30 6293 N 573.503 -0.0852151 -1.57369 0
M  V30 6294 C 574.914 0.445428 -1.81309 0
M  V30 6295 C 575.265 1.68795 -1.00013 0
M  V30 6296 O 574.39 2.15211 -0.226573 0
M  V30 6297 C 574.985 0.814887 -3.28854 0
M  V30 6298 C 573.544 1.29032 -3.53592 0
M  V30 6299 C 572.691 0.282089 -2.75861 0
M  V30 6300 H 575.642 -0.310771 -1.55627 0
M  V30 6301 H 575.663 1.67524 -3.41637 0
M  V30 6302 H 575.175 -0.0896309 -3.87996 0
M  V30 6303 H 573.276 2.21289 -2.9977 0
M  V30 6304 H 573.389 1.25898 -4.62262 0
M  V30 6305 H 571.753 0.762182 -2.43029 0
M  V30 6306 H 572.536 -0.614936 -3.37748 0
M  V30 6307 N 574.981 1.5647 0.188427 0
M  V30 6308 C 575.928 1.95073 1.23349 0
M  V30 6309 C 576.898 0.812238 1.44886 0
M  V30 6310 O 578.083 1.07095 1.57909 0
M  V30 6311 C 575.223 2.30124 2.57171 0
M  V30 6312 C 574.336 3.57069 2.43157 0
M  V30 6313 C 573.471 3.81411 3.69729 0
M  V30 6314 C 572.51 5.0176 3.50575 0
M  V30 6315 N 571.647 5.22321 4.69175 0
M  V30 6316 H 576.487 2.84171 0.89728 0
M  V30 6317 H 574.024 1.40623 0.431683 0
M  V30 6318 H 575.982 2.48463 3.35145 0
M  V30 6319 H 574.612 1.44159 2.88822 0
M  V30 6320 H 573.664 3.4674 1.56447 0
M  V30 6321 H 574.976 4.452 2.24942 0
M  V30 6322 H 574.13 4.00026 4.56141 0
M  V30 6323 H 572.869 2.91624 3.90905 0
M  V30 6324 H 571.874 4.83061 2.62549 0
M  V30 6325 H 573.099 5.93063 3.30837 0
M  V30 6326 H 571.045 4.35483 4.90602 0
M  V30 6327 H 570.962 6.04643 4.53809 0
M  V30 6328 H 572.23 5.45401 5.56919 0
M  V30 6329 N 576.459 -0.456382 1.50847 0
M  V30 6330 C 577.422 -1.53493 1.70213 0
M  V30 6331 C 578.422 -1.50264 0.572481 0
M  V30 6332 O 579.612 -1.52623 0.839751 0
M  V30 6333 C 576.744 -2.93091 1.741 0
M  V30 6334 H 577.937 -1.37633 2.66453 0
M  V30 6335 H 575.49 -0.683776 1.4055 0
M  V30 6336 H 576.225 -3.14378 0.796063 0
M  V30 6337 H 576.01 -2.9684 2.5618 0
M  V30 6338 H 577.5 -3.71368 1.90987 0
M  V30 6339 N 577.937 -1.40673 -0.710563 0
M  V30 6340 C 579.353 -1.22813 -1.01928 0
M  V30 6341 C 579.553 -0.10687 -2.01216 0
M  V30 6342 O 578.609 0.533614 -2.46797 0
M  V30 6343 C 579.922 -2.57178 -1.5582 0
M  V30 6344 C 581.47 -2.64233 -1.67779 0
M  V30 6345 C 581.945 -3.98879 -2.25076 0
M  V30 6346 N 583.436 -4.00647 -2.32456 0
M  V30 6347 C 584.171 -5.01621 -2.77784 0
M  V30 6348 N 583.667 -6.12989 -3.22826 0
M  V30 6349 N 585.46 -4.88988 -2.77213 0
M  V30 6350 H 577.611 -2.12335 -0.05253 0
M  V30 6351 H 579.874 -0.9441 -0.085898 0
M  V30 6352 H 579.58 -3.39903 -0.903249 0
M  V30 6353 H 579.454 -2.78618 -2.54267 0
M  V30 6354 H 581.841 -1.81876 -2.3239 0
M  V30 6355 H 581.922 -2.46619 -0.679178 0
M  V30 6356 H 581.566 -4.81678 -1.61086 0
M  V30 6357 H 581.496 -4.13826 -3.25661 0
M  V30 6358 H 583.987 -3.20231 -2.0065 0
M  V30 6359 H 584.3 -6.85921 -3.55995 0
M  V30 6360 H 582.645 -6.16547 -3.20773 0
M  V30 6361 H 585.836 -4.01075 -2.41363 0
M  V30 6362 H 586.009 -5.67822 -3.12221 0
M  V30 6363 N 579.415 0.9433 -1.26252 0
M  V30 6364 C 580.362 2.0417 -1.07625 0
M  V30 6365 C 581.332 1.6609 0.0180738 0
M  V30 6366 O 582.517 1.90276 -0.141289 0
M  V30 6367 C 579.657 3.37653 -0.713043 0
M  V30 6368 C 578.77 3.88783 -1.8834 0
M  V30 6369 C 577.905 5.10642 -1.4635 0
M  V30 6370 C 576.944 5.54028 -2.60229 0
M  V30 6371 N 576.081 6.67092 -2.18936 0
M  V30 6372 H 580.921 2.19436 -2.01623 0
M  V30 6373 H 578.458 1.07519 -1.00389 0
M  V30 6374 H 580.416 4.14391 -0.483358 0
M  V30 6375 H 579.046 3.22241 0.18996 0
M  V30 6376 H 578.098 3.08464 -2.22608 0
M  V30 6377 H 579.41 4.16922 -2.73821 0
M  V30 6378 H 578.564 5.94832 -1.19414 0
M  V30 6379 H 577.303 4.84244 -0.579568 0
M  V30 6380 H 576.308 4.68396 -2.87898 0
M  V30 6381 H 577.533 5.82429 -3.49219 0
M  V30 6382 H 575.479 6.42381 -1.32974 0
M  V30 6383 H 575.396 6.94806 -2.97961 0
M  V30 6384 H 576.664 7.54662 -1.95206 0
M  V30 6385 N 580.893 1.08022 1.14757 0
M  V30 6386 C 582.14 0.807509 1.85703 0
M  V30 6387 C 582.468 -0.666617 1.8272 0
M  V30 6388 O 581.723 -1.50562 1.25018 0
M  V30 6389 C 582.022 1.26964 3.34088 0
M  V30 6390 C 581.688 2.7509 3.57262 0
M  V30 6391 C 580.35 3.15547 3.63296 0
M  V30 6392 C 582.702 3.70667 3.66409 0
M  V30 6393 C 580.03 4.50384 3.75994 0
M  V30 6394 C 582.382 5.05274 3.80632 0
M  V30 6395 C 581.046 5.45342 3.84913 0
M  V30 6396 H 580.316 0.295488 0.679535 0
M  V30 6397 H 582.963 1.35245 1.35577 0
M  V30 6398 H 581.268 0.644216 3.86467 0
M  V30 6399 H 582.965 1.03544 3.87401 0
M  V30 6400 H 579.555 2.42775 3.53212 0
M  V30 6401 H 583.739 3.40533 3.61041 0
M  V30 6402 H 578.995 4.80886 3.77569 0
M  V30 6403 H 583.169 5.79201 3.86652 0
M  V30 6404 H 580.796 6.49823 3.94505 0
M  V30 6405 N 582.371 -1.3172 0.865308 0
M  V30 6406 C 583.618 -1.96876 0.473931 0
M  V30 6407 C 583.946 -1.68425 -0.972786 0
M  V30 6408 O 583.201 -0.970742 -1.69927 0
M  V30 6409 C 583.5 -3.5102 0.672283 0
M  V30 6410 C 583.166 -3.9948 2.09108 0
M  V30 6411 C 581.828 -4.12425 2.4791 0
M  V30 6412 C 584.18 -4.2503 3.0166 0
M  V30 6413 C 581.508 -4.48267 3.78515 0
M  V30 6414 C 583.86 -4.62335 4.31774 0
M  V30 6415 C 582.524 -4.73486 4.70497 0
M  V30 6416 H 581.794 -0.72042 0.173424 0
M  V30 6417 H 584.441 -1.56937 1.0974 0
M  V30 6418 H 582.746 -3.91785 -0.034356 0
M  V30 6419 H 584.443 -3.99475 0.349353 0
M  V30 6420 H 581.033 -3.89898 1.77981 0
M  V30 6421 H 585.217 -4.14529 2.7291 0
M  V30 6422 H 580.473 -4.55097 4.08285 0
M  V30 6423 H 584.647 -4.81058 5.03543 0
M  V30 6424 H 582.274 -5.01016 5.71741 0
M  V30 6425 N 583.85 -0.624285 -1.44708 0
M  V30 6426 C 584.76 0.0861083 -2.34442 0
M  V30 6427 C 585.776 0.84291 -1.5222 0
M  V30 6428 O 586.952 0.796723 -1.84971 0
M  V30 6429 C 584.017 1.05999 -3.30099 0
M  V30 6430 C 583.077 0.303316 -4.28227 0
M  V30 6431 C 582.311 1.23081 -5.19314 0
M  V30 6432 O 582.534 2.46929 -5.14181 0
M  V30 6433 O 581.468 0.71883 -5.97592 0
M  V30 6434 H 585.293 -0.651756 -2.96624 0
M  V30 6435 H 582.879 -0.384493 -1.44368 0
M  V30 6436 H 584.76 1.62046 -3.88997 0
M  V30 6437 H 583.436 1.77859 -2.70459 0
M  V30 6438 H 582.343 -0.300033 -3.72895 0
M  V30 6439 H 583.676 -0.375123 -4.90768 0
M  V30 6440 N 585.328 1.53329 -0.364422 0
M  V30 6441 C 586.275 2.25698 0.482607 0
M  V30 6442 C 587.245 1.26325 1.07848 0
M  V30 6443 O 588.43 1.55104 1.11119 0
M  V30 6444 C 585.57 3.04873 1.61699 0
M  V30 6445 C 584.683 4.19135 1.0464 0
M  V30 6446 C 583.818 4.85754 2.14979 0
M  V30 6447 C 582.857 5.9205 1.5538 0
M  V30 6448 N 581.994 6.52365 2.59547 0
M  V30 6449 H 586.834 2.97666 -0.141032 0
M  V30 6450 H 584.371 1.46875 -0.0813692 0
M  V30 6451 H 586.329 3.49051 2.28516 0
M  V30 6452 H 584.959 2.35162 2.2113 0
M  V30 6453 H 584.011 3.79451 0.268553 0
M  V30 6454 H 585.323 4.95525 0.570653 0
M  V30 6455 H 584.477 5.3311 2.89619 0
M  V30 6456 H 583.216 4.08834 2.65906 0
M  V30 6457 H 582.221 5.44058 0.792549 0
M  V30 6458 H 583.446 6.7089 1.0528 0
M  V30 6459 H 581.392 5.78298 3.09689 0
M  V30 6460 H 581.309 7.2429 2.16655 0
M  V30 6461 H 582.577 7.0437 3.33892 0
M  V30 6462 N 586.806 0.0935595 1.57322 0
M  V30 6463 C 587.736 -0.863062 2.16964 0
M  V30 6464 C 588.717 -1.29528 1.10256 0
M  V30 6465 O 589.902 -1.36245 1.38387 0
M  V30 6466 C 587.032 -2.12276 2.74875 0
M  V30 6467 C 585.986 -1.82921 3.86942 0
M  V30 6468 C 585.312 -3.15707 4.31548 0
M  V30 6469 C 586.612 -1.11737 5.10208 0
M  V30 6470 H 588.306 -0.366145 2.97153 0
M  V30 6471 H 585.852 -0.174673 1.42937 0
M  V30 6472 H 587.805 -2.79634 3.1525 0
M  V30 6473 H 586.529 -2.64248 1.91938 0
M  V30 6474 H 585.188 -1.17961 3.47103 0
M  V30 6475 H 584.836 -3.65563 3.45504 0
M  V30 6476 H 584.536 -2.96849 5.07104 0
M  V30 6477 H 586.06 -3.84226 4.74555 0
M  V30 6478 H 587.474 -1.69203 5.47762 0
M  V30 6479 H 585.871 -1.03064 5.91183 0
M  V30 6480 H 586.941 -0.0998818 4.84797 0
M  V30 6481 N 588.284 -1.56567 -0.180126 0
M  V30 6482 C 589.695 -1.7126 -0.743422 0
M  V30 6483 C 590.046 -0.70263 -1.83187 0
M  V30 6484 O 589.171 0.137856 -2.1596 0
M  V30 6485 C 589.766 -3.10512 -1.35528 0
M  V30 6486 C 588.325 -3.26919 -1.8655 0
M  V30 6487 C 587.472 -2.67213 -0.741099 0
M  V30 6488 H 590.423 -1.58636 0.0451543 0
M  V30 6489 H 590.444 -3.08673 -2.22489 0
M  V30 6490 H 589.956 -3.83997 -0.562862 0
M  V30 6491 H 588.057 -2.58376 -2.68464 0
M  V30 6492 H 588.17 -4.34574 -2.01699 0
M  V30 6493 H 586.534 -2.26788 -1.15927 0
M  V30 6494 H 587.317 -3.43277 0.0393291 0
M  V30 6495 N 589.762 0.448376 -1.51087 0
M  V30 6496 C 591.039 1.20926 -1.53741 0
M  V30 6497 C 591.419 2.09025 -0.295222 0
M  V30 6498 O 590.767 2.16851 0.720283 0
M  V30 6499 C 590.977 2.02067 -2.84552 0
M  V30 6500 C 592.325 2.59486 -3.36084 0
M  V30 6501 O 593.349 2.12289 -2.86028 0
M  V30 6502 O 592.208 3.45539 -4.23397 0
M  V30 6503 H 589.302 0.549951 -0.617643 0
M  V30 6504 H 591.848 0.458344 -1.63393 0
M  V30 6505 H 590.62 1.37291 -3.66425 0
M  V30 6506 H 590.243 2.84246 -2.78011 0
M  V30 6507 N 591.24 1.41047 0.703093 0
M  V30 6508 C 592.488 1.39723 1.4602 0
M  V30 6509 C 592.809 0.00461257 1.94999 0
M  V30 6510 O 592.079 -0.952292 1.71196 0
M  V30 6511 H 590.659 0.514281 0.541779 0
M  V30 6512 H 593.321 1.76217 0.832678 0
M  V30 6513 H 592.417 2.07982 2.32701 0
M  V30 6514 N 592.718 -0.936591 1.26751 0
M  V30 6515 C 593.946 -1.71758 1.15355 0
M  V30 6516 C 594.361 -1.86549 -0.290683 0
M  V30 6517 O 593.718 -1.37616 -1.19868 0
M  V30 6518 C 593.769 -3.12193 1.82258 0
M  V30 6519 O 593.49 -2.98105 3.21038 0
M  V30 6520 C 594.991 -4.06485 1.76875 0
M  V30 6521 H 592.211 -0.537636 0.401483 0
M  V30 6522 H 594.755 -1.17382 1.67457 0
M  V30 6523 H 592.91 -3.63456 1.34083 0
M  V30 6524 H 593.324 -3.86824 3.54214 0
M  V30 6525 H 594.798 -5.02569 2.28316 0
M  V30 6526 H 595.275 -4.32986 0.736216 0
M  V30 6527 H 595.881 -3.61144 2.24623 0
M  V30 6528 N 594.196 -1.08629 -1.14182 0
M  V30 6529 C 595.442 -0.828415 -1.85766 0
M  V30 6530 C 595.797 0.638947 -1.81481 0
M  V30 6531 O 595.09 1.46386 -1.23619 0
M  V30 6532 C 595.284 -1.28734 -3.3341 0
M  V30 6533 C 595.113 -2.79778 -3.52071 0
M  V30 6534 C 593.883 -3.47554 -3.66789 0
M  V30 6535 C 596.081 -3.77945 -3.48801 0
M  V30 6536 N 594.063 -4.87107 -3.73631 0
M  V30 6537 C 595.434 -5.03406 -3.61914 0
M  V30 6538 C 597.489 -3.70917 -3.32152 0
M  V30 6539 C 596.192 -6.22673 -3.60098 0
M  V30 6540 C 598.218 -4.89662 -3.31641 0
M  V30 6541 C 597.58 -6.13962 -3.45296 0
M  V30 6542 H 593.679 -0.355884 -0.696327 0
M  V30 6543 H 596.263 -1.38508 -1.36834 0
M  V30 6544 H 594.434 -0.75822 -3.80927 0
M  V30 6545 H 596.166 -0.975649 -3.92764 0
M  V30 6546 H 592.921 -2.97972 -3.68116 0
M  V30 6547 H 593.345 -5.59775 -3.80763 0
M  V30 6548 H 597.987 -2.75749 -3.20504 0
M  V30 6549 H 595.705 -7.1815 -3.70522 0
M  V30 6550 H 599.291 -4.85914 -3.19968 0
M  V30 6551 H 598.171 -7.04307 -3.44851 0
M  V30 6552 N 595.674 1.31259 -0.872281 0
M  V30 6553 C 596.622 2.30404 -0.318897 0
M  V30 6554 C 597.616 1.5962 0.567267 0
M  V30 6555 O 598.822 1.74204 0.453111 0
M  V30 6556 H 595.197 0.747243 -0.0844474 0
M  V30 6557 H 597.168 2.74549 -1.16899 0
M  V30 6558 C 595.917 3.44608 0.462683 0
M  V30 6559 H 595.24 3.99248 -0.209936 0
M  V30 6560 H 596.68 4.1609 0.815187 0
M  V30 6561 C 595.139 2.93456 1.65485 0
M  V30 6562 O 595.669 2.92418 2.75417 0
M  V30 6563 N 593.875 2.49628 1.48776 0
M  V30 6564 H 593.422 2.50671 0.593452 0
M  V30 6565 H 593.38 2.15759 2.28682 0
M  V30 6566 N 597.152 0.631951 1.44375 0
M  V30 6567 C 598.082 -0.0593243 2.33425 0
M  V30 6568 C 599.063 -0.833964 1.48253 0
M  V30 6569 O 600.248 -0.799682 1.76971 0
M  V30 6570 C 597.378 -1.04096 3.31333 0
M  V30 6571 C 596.332 -0.377899 4.26328 0
M  V30 6572 C 595.658 -1.4695 5.14111 0
M  V30 6573 C 596.958 0.716371 5.17364 0
M  V30 6574 H 598.652 0.684287 2.91475 0
M  V30 6575 H 596.198 0.330518 1.40156 0
M  V30 6576 H 598.151 -1.53331 3.92514 0
M  V30 6577 H 596.875 -1.81547 2.71493 0
M  V30 6578 H 595.534 0.0938054 3.6648 0
M  V30 6579 H 595.182 -2.2349 4.50623 0
M  V30 6580 H 594.882 -1.03121 5.78481 0
M  V30 6581 H 596.406 -1.96363 5.78164 0
M  V30 6582 H 597.82 0.307089 5.72477 0
M  V30 6583 H 596.217 1.07784 5.90341 0
M  V30 6584 H 597.287 1.58316 4.58327 0
M  V30 6585 N 598.631 -1.53133 0.372548 0
M  V30 6586 C 599.578 -2.25951 -0.470631 0
M  V30 6587 C 600.548 -1.26895 -1.07176 0
M  V30 6588 O 601.733 -1.55691 -1.10294 0
M  V30 6589 C 598.873 -3.05726 -1.6008 0
M  V30 6590 C 597.986 -4.19684 -1.02416 0
M  V30 6591 C 597.121 -4.86888 -2.124 0
M  V30 6592 C 596.16 -5.92866 -1.52238 0
M  V30 6593 N 595.297 -6.53732 -2.56084 0
M  V30 6594 H 600.137 -2.97587 0.156816 0
M  V30 6595 H 597.674 -1.4683 0.0891571 0
M  V30 6596 H 599.632 -3.50258 -2.26661 0
M  V30 6597 H 598.262 -2.36331 -2.1988 0
M  V30 6598 H 597.314 -3.79588 -0.248426 0
M  V30 6599 H 598.626 -4.95821 -0.544366 0
M  V30 6600 H 597.78 -5.34638 -2.86787 0
M  V30 6601 H 596.519 -4.10239 -2.63734 0
M  V30 6602 H 595.524 -5.4447 -0.763685 0
M  V30 6603 H 596.749 -6.71439 -1.0172 0
M  V30 6604 H 594.695 -5.79932 -3.06618 0
M  V30 6605 H 594.612 -7.25429 -2.12811 0
M  V30 6606 H 595.88 -7.0613 -3.30152 0
M  V30 6607 N 600.109 -0.101901 -1.5727 0
M  V30 6608 C 601.056 0.854577 -2.14396 0
M  V30 6609 C 602.026 1.27521 -1.06432 0
M  V30 6610 O 603.211 1.35575 -1.34253 0
M  V30 6611 C 600.351 2.10576 -2.73408 0
M  V30 6612 C 599.464 1.73504 -3.95626 0
M  V30 6613 C 598.599 2.9346 -4.42781 0
M  V30 6614 C 597.638 2.52547 -5.57572 0
M  V30 6615 N 596.775 3.65359 -5.99547 0
M  V30 6616 H 601.615 0.360578 -2.9581 0
M  V30 6617 H 599.152 0.166303 -1.46157 0
M  V30 6618 H 601.11 2.83859 -3.05745 0
M  V30 6619 H 599.74 2.57463 -1.94711 0
M  V30 6620 H 598.792 0.901622 -3.6956 0
M  V30 6621 H 600.104 1.39426 -4.78917 0
M  V30 6622 H 599.258 3.74988 -4.76937 0
M  V30 6623 H 597.997 3.30753 -3.58404 0
M  V30 6624 H 597.002 1.69446 -5.23037 0
M  V30 6625 H 598.227 2.1639 -6.43702 0
M  V30 6626 H 596.173 4.02358 -5.18116 0
M  V30 6627 H 596.09 3.35148 -6.77652 0
M  V30 6628 H 597.358 4.47378 -6.38336 0
M  V30 6629 N 601.587 1.56661 0.17182 0
M  V30 6630 C 602.815 1.861 0.904115 0
M  V30 6631 C 603.23 0.687227 1.75848 0
M  V30 6632 O 602.587 -0.343671 1.79235 0
M  V30 6633 C 602.638 3.14568 1.78127 0
M  V30 6634 O 602.359 4.27422 0.961366 0
M  V30 6635 C 603.86 3.5735 2.62327 0
M  V30 6636 H 601.08 0.617445 0.262684 0
M  V30 6637 H 603.624 2.03775 0.172068 0
M  V30 6638 H 601.779 2.98721 2.46666 0
M  V30 6639 H 602.193 5.00725 1.56123 0
M  V30 6640 H 603.667 4.50144 3.1949 0
M  V30 6641 H 604.144 2.81445 3.37173 0
M  V30 6642 H 604.75 3.75807 1.99121 0
M  V30 6643 N 603.065 -0.440357 1.51323 0
M  V30 6644 C 604.012 -1.53429 1.72419 0
M  V30 6645 C 604.982 -1.56165 0.565826 0
M  V30 6646 O 606.167 -1.73222 0.799917 0
M  V30 6647 C 603.307 -2.91169 1.85242 0
M  V30 6648 C 602.42 -2.97985 3.12777 0
M  V30 6649 C 601.555 -4.26829 3.16212 0
M  V30 6650 C 600.594 -4.27501 4.38074 0
M  V30 6651 N 599.731 -5.47866 4.39076 0
M  V30 6652 H 604.571 -1.34743 2.65797 0
M  V30 6653 H 602.108 -0.654608 1.31732 0
M  V30 6654 H 604.066 -3.71087 1.90658 0
M  V30 6655 H 602.696 -3.0842 0.952744 0
M  V30 6656 H 601.748 -2.10749 3.16685 0
M  V30 6657 H 603.06 -2.94342 4.02696 0
M  V30 6658 H 602.214 -5.15118 3.20527 0
M  V30 6659 H 600.953 -4.33124 2.24176 0
M  V30 6660 H 599.958 -3.37606 4.33938 0
M  V30 6661 H 601.183 -4.22873 5.31371 0
M  V30 6662 H 599.129 -5.54887 3.49909 0
M  V30 6663 H 599.046 -5.46091 5.22801 0
M  V30 6664 H 600.314 -6.38195 4.4758 0
M  V30 6665 N 604.543 -1.41418 -0.695603 0
M  V30 6666 C 605.82 -1.31264 -1.45014 0
M  V30 6667 C 606.2 0.0597994 -2.11015 0
M  V30 6668 O 605.548 1.07403 -2.01685 0
M  V30 6669 C 605.758 -2.466 -2.4696 0
M  V30 6670 C 607.106 -2.87763 -3.12214 0
M  V30 6671 O 608.13 -2.46339 -2.57285 0
M  V30 6672 O 606.989 -3.59395 -4.11701 0
M  V30 6673 H 604.083 -0.516576 -0.645816 0
M  V30 6674 H 606.629 -1.53382 -0.726084 0
M  V30 6675 H 605.401 -3.38183 -1.96845 0
M  V30 6676 H 605.024 -2.26358 -3.26876 0
M  V30 6677 N 606.021 0.929856 -1.27246 0
M  V30 6678 C 607.269 1.674 -1.13233 0
M  V30 6679 C 607.59 1.92311 0.322744 0
M  V30 6680 O 606.86 1.52784 1.22612 0
M  V30 6681 H 605.44 0.620411 -0.416052 0
M  V30 6682 H 608.102 1.11663 -1.59741 0
M  V30 6683 H 607.198 2.64308 -1.65975 0
M  V30 6684 N 607.499 1.09233 1.13605 0
M  V30 6685 C 608.446 0.729921 2.18954 0
M  V30 6686 C 609.416 -0.287916 1.63586 0
M  V30 6687 O 610.601 -0.170003 1.90041 0
M  V30 6688 C 607.741 0.154489 3.44754 0
M  V30 6689 C 606.854 1.22613 4.14234 0
M  V30 6690 C 605.989 0.613657 5.27644 0
M  V30 6691 C 605.028 1.66674 5.8897 0
M  V30 6692 N 604.165 1.07545 6.93814 0
M  V30 6693 H 609.005 1.63257 2.49302 0
M  V30 6694 H 606.542 0.815693 1.22413 0
M  V30 6695 H 608.5 -0.196923 4.16735 0
M  V30 6696 H 607.13 -0.711433 3.14863 0
M  V30 6697 H 606.182 1.69485 3.40557 0
M  V30 6698 H 607.494 2.0238 4.55899 0
M  V30 6699 H 606.648 0.210976 6.06333 0
M  V30 6700 H 605.387 -0.215584 4.87223 0
M  V30 6701 H 604.392 2.07899 5.08978 0
M  V30 6702 H 605.617 2.49861 6.31464 0
M  V30 6703 H 603.563 0.267451 6.55455 0
M  V30 6704 H 603.48 1.81011 7.3401 0
M  V30 6705 H 604.748 0.698906 7.7636 0
M  V30 6706 N 608.977 -1.30795 0.87923 0
M  V30 6707 C 610.393 -1.48981 0.57243 0
M  V30 6708 C 610.593 -1.80719 -0.891236 0
M  V30 6709 O 609.649 -1.89136 -1.67283 0
M  V30 6710 C 610.962 -2.61721 1.48063 0
M  V30 6711 C 612.51 -2.75603 1.48365 0
M  V30 6712 C 612.985 -3.91449 2.37763 0
M  V30 6713 N 614.476 -3.98751 2.35695 0
M  V30 6714 C 615.211 -4.87684 3.01583 0
M  V30 6715 N 614.707 -5.81454 3.76674 0
M  V30 6716 N 616.5 -4.81005 2.90844 0
M  V30 6717 H 608.651 -1.08465 1.82617 0
M  V30 6718 H 610.914 -0.536813 0.781368 0
M  V30 6719 H 610.62 -2.45073 2.52254 0
M  V30 6720 H 610.494 -3.58071 1.18596 0
M  V30 6721 H 612.881 -2.9166 0.44927 0
M  V30 6722 H 612.962 -1.79891 1.81859 0
M  V30 6723 H 612.606 -3.76149 3.41283 0
M  V30 6724 H 612.536 -4.86487 2.01589 0
M  V30 6725 H 615.027 -3.31668 1.81121 0
M  V30 6726 H 615.34 -6.46063 4.24054 0
M  V30 6727 H 613.685 -5.81403 3.80782 0
M  V30 6728 H 616.876 -4.06728 2.31711 0
M  V30 6729 H 617.049 -5.50107 3.42471 0
M  V30 6730 N 610.455 -0.639598 -1.44038 0
M  V30 6731 C 611.365 0.0612377 -2.3452 0
M  V30 6732 C 612.381 0.826717 -1.53106 0
M  V30 6733 O 613.557 0.777059 -1.85806 0
M  V30 6734 C 610.622 1.02492 -3.31204 0
M  V30 6735 C 609.683 0.25788 -4.28525 0
M  V30 6736 C 608.916 1.17566 -5.2059 0
M  V30 6737 O 609.139 2.41461 -5.16771 0
M  V30 6738 O 608.073 0.655407 -5.98321 0
M  V30 6739 H 611.899 -0.68318 -2.95916 0
M  V30 6740 H 609.484 -0.399784 -1.43952 0
M  V30 6741 H 611.366 1.57911 -3.90694 0
M  V30 6742 H 610.041 1.7498 -2.7233 0
M  V30 6743 H 608.948 -0.339566 -3.72556 0
M  V30 6744 H 610.281 -0.427154 -4.90343 0
M  V30 6745 N 611.933 1.52934 -0.380664 0
M  V30 6746 C 613.163 2.05587 0.204302 0
M  V30 6747 C 613.571 1.25288 1.41773 0
M  V30 6748 O 612.914 0.290394 1.8139 0
M  V30 6749 C 612.976 3.53624 0.647324 0
M  V30 6750 C 612.64 4.54765 -0.451465 0
M  V30 6751 C 613.637 5.03226 -1.30614 0
M  V30 6752 C 611.322 4.98508 -0.616025 0
M  V30 6753 C 613.316 5.94046 -2.31058 0
M  V30 6754 C 611.003 5.89131 -1.62381 0
M  V30 6755 C 612.001 6.36792 -2.46952 0
M  V30 6756 O 611.689 7.25626 -3.46009 0
M  V30 6757 H 611.421 0.675013 0.0365198 0
M  V30 6758 H 613.975 1.98125 -0.541827 0
M  V30 6759 H 612.205 3.58676 1.44529 0
M  V30 6760 H 613.894 3.89061 1.15698 0
M  V30 6761 H 614.66 4.70167 -1.19027 0
M  V30 6762 H 610.539 4.60989 0.0324987 0
M  V30 6763 H 614.083 6.3117 -2.97104 0
M  V30 6764 H 609.98 6.21603 -1.7401 0
M  V30 6765 H 610.748 7.43664 -3.41916 0
M  V30 6766 N 613.412 0.11024 1.57214 0
M  V30 6767 C 614.359 -0.843195 2.14846 0
M  V30 6768 C 615.329 -1.26954 1.07107 0
M  V30 6769 O 616.514 -1.34861 1.34971 0
M  V30 6770 C 613.654 -2.09123 2.74521 0
M  V30 6771 C 612.767 -1.71404 3.96541 0
M  V30 6772 C 611.902 -2.91107 4.44331 0
M  V30 6773 C 610.941 -2.49586 5.58903 0
M  V30 6774 N 610.078 -3.62175 6.01477 0
M  V30 6775 H 614.918 -0.344886 2.95998 0
M  V30 6776 H 612.455 -0.15855 1.46243 0
M  V30 6777 H 614.413 -2.82234 3.07246 0
M  V30 6778 H 613.043 -2.56427 1.96074 0
M  V30 6779 H 612.095 -0.88201 3.70033 0
M  V30 6780 H 613.407 -1.36884 4.7965 0
M  V30 6781 H 612.561 -3.72454 4.78919 0
M  V30 6782 H 611.3 -3.28848 3.60153 0
M  V30 6783 H 610.305 -1.6667 5.23929 0
M  V30 6784 H 611.53 -2.12973 6.4484 0
M  V30 6785 H 609.476 -3.99605 5.20242 0
M  V30 6786 H 609.393 -3.3155 6.79419 0
M  V30 6787 H 610.661 -4.43987 6.407 0
M  V30 6788 N 614.89 -1.56749 -0.16351 0
M  V30 6789 C 616.301 -1.72039 -0.725216 0
M  V30 6790 C 616.652 -0.72202 -1.82432 0
M  V30 6791 O 615.777 0.114942 -2.16095 0
M  V30 6792 C 616.372 -3.11932 -1.32227 0
M  V30 6793 C 614.931 -3.28879 -1.83072 0
M  V30 6794 C 614.078 -2.67984 -0.712716 0
M  V30 6795 H 617.029 -1.58579 0.0619772 0
M  V30 6796 H 617.05 -3.11015 -2.19202 0
M  V30 6797 H 616.562 -3.84572 -0.522103 0
M  V30 6798 H 614.663 -2.61209 -2.65708 0
M  V30 6799 H 614.776 -4.36688 -1.97079 0
M  V30 6800 H 613.14 -2.28005 -1.13515 0
M  V30 6801 H 613.923 -3.43216 0.0757361 0
M  V30 6802 N 616.368 0.432326 -1.51554 0
M  V30 6803 C 617.779 1.01202 -1.56892 0
M  V30 6804 C 618.13 1.92175 -0.395394 0
M  V30 6805 O 617.255 2.10844 0.487198 0
M  V30 6806 C 617.85 1.84217 -2.8434 0
M  V30 6807 C 616.409 2.37228 -2.92233 0
M  V30 6808 C 615.556 1.16576 -2.51606 0
M  V30 6809 H 618.507 0.213407 -1.57259 0
M  V30 6810 H 618.528 2.69721 -2.68385 0
M  V30 6811 H 618.04 1.17979 -3.69733 0
M  V30 6812 H 616.141 3.06905 -2.11282 0
M  V30 6813 H 616.254 2.69682 -3.95991 0
M  V30 6814 H 614.618 1.51263 -2.04919 0
M  V30 6815 H 615.401 0.519404 -3.39348 0
M  V30 6816 N 617.846 1.41785 0.688094 0
M  V30 6817 C 619.094 1.41264 1.4453 0
M  V30 6818 C 619.415 0.0252946 1.94984 0
M  V30 6819 O 618.685 -0.934081 1.72197 0
M  V30 6820 H 617.265 0.519998 0.536294 0
M  V30 6821 H 619.927 1.7709 0.813941 0
M  V30 6822 H 619.023 2.10439 2.30482 0
M  V30 6823 N 619.324 -0.923095 1.27737 0
M  V30 6824 C 620.552 -1.70525 1.17171 0
M  V30 6825 C 620.967 -1.86847 -0.270881 0
M  V30 6826 O 620.324 -1.38879 -1.18401 0
M  V30 6827 C 620.375 -3.10242 1.85559 0
M  V30 6828 O 620.096 -2.94683 3.24182 0
M  V30 6829 C 621.597 -4.04586 1.81176 0
M  V30 6830 H 618.817 -0.533347 0.407163 0
M  V30 6831 H 621.361 -1.15599 1.68692 0
M  V30 6832 H 619.516 -3.62014 1.3793 0
M  V30 6833 H 619.93 -3.83045 3.58297 0
M  V30 6834 H 621.404 -5.00119 2.33633 0
M  V30 6835 H 621.881 -4.3218 0.782099 0
M  V30 6836 H 622.487 -3.58741 2.2844 0
M  V30 6837 N 620.802 -1.09834 -1.13024 0
M  V30 6838 C 622.218 -0.828875 -1.36388 0
M  V30 6839 C 622.418 0.554756 -1.93713 0
M  V30 6840 O 621.474 1.30882 -2.15931 0
M  V30 6841 C 622.787 -1.92352 -2.3113 0
M  V30 6842 C 624.335 -1.95124 -2.44735 0
M  V30 6843 C 624.81 -3.03745 -3.42787 0
M  V30 6844 N 626.301 -3.03012 -3.5034 0
M  V30 6845 C 627.036 -3.83699 -4.26101 0
M  V30 6846 N 626.532 -4.74306 -5.04981 0
M  V30 6847 N 628.325 -3.71942 -4.21445 0
M  V30 6848 H 620.476 -1.99029 -0.74169 0
M  V30 6849 H 622.739 -0.864557 -0.388903 0
M  V30 6850 H 622.445 -2.91906 -1.96172 0
M  V30 6851 H 622.319 -1.80536 -3.3119 0
M  V30 6852 H 624.706 -0.962069 -2.78977 0
M  V30 6853 H 624.787 -2.11018 -1.44586 0
M  V30 6854 H 624.431 -4.02878 -3.09276 0
M  V30 6855 H 624.361 -2.85094 -4.42752 0
M  V30 6856 H 626.852 -2.37352 -2.94062 0
M  V30 6857 H 627.165 -5.32446 -5.60108 0
M  V30 6858 H 625.51 -4.78339 -5.04199 0
M  V30 6859 H 628.701 -3.00513 -3.589 0
M  V30 6860 H 628.874 -4.35062 -4.80235 0
M  V30 6861 N 622.28 1.30327 -0.886154 0
M  V30 6862 C 623.227 2.28099 -0.352069 0
M  V30 6863 C 624.197 1.56433 0.558397 0
M  V30 6864 O 625.382 1.84492 0.486561 0
M  V30 6865 C 622.522 3.42456 0.426346 0
M  V30 6866 C 621.635 4.28938 -0.513472 0
M  V30 6867 C 620.77 5.30458 0.280657 0
M  V30 6868 C 619.809 6.0859 -0.654556 0
M  V30 6869 N 618.946 7.02022 0.104322 0
M  V30 6870 H 623.786 2.73166 -1.19097 0
M  V30 6871 H 621.323 1.34367 -0.598662 0
M  V30 6872 H 623.281 4.07518 0.893587 0
M  V30 6873 H 621.911 2.98455 1.22981 0
M  V30 6874 H 620.963 3.64173 -1.09921 0
M  V30 6875 H 622.275 4.83399 -1.2299 0
M  V30 6876 H 621.429 6.01273 0.8097 0
M  V30 6877 H 620.168 4.76693 1.03029 0
M  V30 6878 H 619.173 5.36651 -1.19522 0
M  V30 6879 H 620.398 6.64443 -1.4033 0
M  V30 6880 H 618.344 6.50645 0.836472 0
M  V30 6881 H 618.261 7.53979 -0.552453 0
M  V30 6882 H 619.529 7.77077 0.614069 0
M  V30 6883 N 623.758 0.647228 1.43697 0
M  V30 6884 C 624.688 -0.0345631 2.33474 0
M  V30 6885 C 625.669 -0.818193 1.4913 0
M  V30 6886 O 626.854 -0.780867 1.77809 0
M  V30 6887 C 623.984 -1.00576 3.32418 0
M  V30 6888 C 622.938 -0.33266 4.26705 0
M  V30 6889 C 622.264 -1.41489 5.1564 0
M  V30 6890 C 623.564 0.771204 5.16575 0
M  V30 6891 H 625.258 0.715163 2.90733 0
M  V30 6892 H 622.804 0.345364 1.39797 0
M  V30 6893 H 624.757 -1.49159 3.94119 0
M  V30 6894 H 623.481 -1.78657 2.73403 0
M  V30 6895 H 622.14 0.13267 3.6636 0
M  V30 6896 H 621.788 -2.18698 4.52968 0
M  V30 6897 H 621.488 -0.969799 5.79542 0
M  V30 6898 H 623.012 -1.9022 5.80214 0
M  V30 6899 H 624.426 0.36779 5.72119 0
M  V30 6900 H 622.823 1.1404 5.89165 0
M  V30 6901 H 623.893 1.63169 4.56622 0
M  V30 6902 N 625.236 -1.5273 0.388769 0
M  V30 6903 C 626.186 -2.23238 -0.463567 0
M  V30 6904 C 627.17 -1.23606 -1.03007 0
M  V30 6905 O 628.362 -1.48945 -0.956261 0
M  V30 6906 C 625.491 -3.04228 -1.5906 0
M  V30 6907 C 624.577 -4.11255 -1.03587 0
M  V30 6908 N 624.968 -5.0538 -0.206038 0
M  V30 6909 C 623.266 -4.26376 -1.30841 0
M  V30 6910 C 623.967 -5.81613 0.100359 0
M  V30 6911 N 622.943 -5.41264 -0.503447 0
M  V30 6912 H 626.745 -2.93367 0.176978 0
M  V30 6913 H 624.259 -1.61188 0.198046 0
M  V30 6914 H 626.256 -3.53277 -2.21362 0
M  V30 6915 H 624.916 -2.35634 -2.23398 0
M  V30 6916 H 625.927 -5.17663 0.156659 0
M  V30 6917 H 622.604 -3.69011 -1.95287 0
M  V30 6918 H 623.994 -6.67442 0.772676 0
M  V30 6919 N 626.714 -0.118576 -1.57153 0
M  V30 6920 C 627.662 0.849114 -2.16547 0
M  V30 6921 C 628.656 1.27567 -1.11458 0
M  V30 6922 O 629.862 1.24746 -1.29763 0
M  V30 6923 H 626.237 0.291935 -0.693021 0
M  V30 6924 H 628.208 0.323693 -2.96639 0
M  V30 6925 C 626.957 2.08951 -2.77912 0
M  V30 6926 H 626.28 1.77021 -3.58474 0
M  V30 6927 H 627.72 2.74666 -3.23008 0
M  V30 6928 C 626.179 2.87899 -1.74974 0
M  V30 6929 O 626.709 3.83268 -1.20285 0
M  V30 6930 N 624.915 2.51884 -1.44924 0
M  V30 6931 H 624.462 1.74397 -1.89587 0
M  V30 6932 H 624.42 3.05003 -0.762921 0
M  V30 6933 N 628.193 1.56834 0.155195 0
M  V30 6934 C 629.442 1.82088 0.867567 0
M  V30 6935 C 629.755 0.69849 1.82703 0
M  V30 6936 O 630.961 0.836407 2.58295 0
M  V30 6937 C 629.417 3.22707 1.59336 0
M  V30 6938 C 629.025 4.42859 0.676719 0
M  V30 6939 C 630.769 3.57242 2.293 0
M  V30 6940 C 628.676 5.74501 1.40367 0
M  V30 6941 H 627.606 0.679057 0.327715 0
M  V30 6942 H 630.257 1.83105 0.120351 0
M  V30 6943 H 628.639 3.16054 2.38591 0
M  V30 6944 H 629.813 4.60731 -0.0800196 0
M  V30 6945 H 628.128 4.16311 0.0859129 0
M  V30 6946 H 630.725 4.52847 2.84312 0
M  V30 6947 H 631.068 2.82901 3.05406 0
M  V30 6948 H 631.601 3.6552 1.56972 0
M  V30 6949 H 628.34 6.51915 0.684623 0
M  V30 6950 H 627.86 5.60579 2.13332 0
M  V30 6951 H 629.539 6.17016 1.94681 0
M  V30 6952 N 629.671 -0.424282 1.51781 0
M  V30 6953 C 630.601 -1.52305 1.7699 0
M  V30 6954 C 631.582 -1.5839 0.620209 0
M  V30 6955 O 632.767 -1.73908 0.864268 0
M  V30 6956 C 629.897 -2.90271 1.90683 0
M  V30 6957 C 628.851 -2.99043 3.06198 0
M  V30 6958 C 628.177 -4.39116 3.05092 0
M  V30 6959 C 629.477 -2.7192 4.45934 0
M  V30 6960 H 631.171 -1.31461 2.68995 0
M  V30 6961 H 628.717 -0.630985 1.29439 0
M  V30 6962 H 630.67 -3.6711 2.06901 0
M  V30 6963 H 629.394 -3.12376 0.953365 0
M  V30 6964 H 628.053 -2.24646 2.89706 0
M  V30 6965 H 627.701 -4.58207 2.07498 0
M  V30 6966 H 627.401 -4.45912 3.82669 0
M  V30 6967 H 628.925 -5.17911 3.2342 0
M  V30 6968 H 630.339 -3.38487 4.62709 0
M  V30 6969 H 628.736 -2.90111 5.25315 0
M  V30 6970 H 629.806 -1.67445 4.55072 0
M  V30 6971 N 631.149 -1.42148 -0.680565 0
M  V30 6972 C 632.397 -1.42029 -1.43779 0
M  V30 6973 C 632.718 -0.0356347 -1.94967 0
M  V30 6974 O 631.988 0.924936 -1.7269 0
M  V30 6975 H 630.568 -0.522835 -0.533529 0
M  V30 6976 H 633.23 -1.7752 -0.804538 0
M  V30 6977 H 632.326 -2.11658 -2.29363 0
M  V30 6978 N 632.627 0.916307 -1.28225 0
M  V30 6979 C 633.873 1.66765 -1.154 0
M  V30 6980 C 634.206 1.91912 0.297251 0
M  V30 6981 O 633.481 1.51766 1.21644 0
M  V30 6982 C 633.764 3.02715 -1.95028 0
M  V30 6983 C 633.617 2.84738 -3.48201 0
M  V30 6984 C 634.936 4.03215 -1.76369 0
M  V30 6985 H 632.055 0.605205 -0.42059 0
M  V30 6986 H 634.697 1.06255 -1.57512 0
M  V30 6987 H 632.847 3.54365 -1.59242 0
M  V30 6988 H 634.519 2.40118 -3.9388 0
M  V30 6989 H 632.762 2.19848 -3.73964 0
M  V30 6990 H 633.433 3.8127 -3.99171 0
M  V30 6991 H 635.909 3.60617 -2.07593 0
M  V30 6992 H 634.785 4.96306 -2.34459 0
M  V30 6993 H 635.046 4.36288 -0.71452 0
M  V30 6994 N 634.105 1.10431 1.1244 0
M  V30 6995 C 635.015 0.765502 2.21759 0
M  V30 6996 C 636.031 -0.236966 1.72379 0
M  V30 6997 O 637.207 -0.0757329 2.01258 0
M  V30 6998 C 634.272 0.202316 3.46109 0
M  V30 6999 C 633.333 1.26205 4.1033 0
M  V30 7000 C 632.566 0.725648 5.28744 0
M  V30 7001 O 632.789 -0.447942 5.68638 0
M  V30 7002 O 631.723 1.48555 5.83279 0
M  V30 7003 H 635.549 1.67801 2.53133 0
M  V30 7004 H 633.134 0.879443 1.20773 0
M  V30 7005 H 635.016 -0.107918 4.21262 0
M  V30 7006 H 633.691 -0.683052 3.16411 0
M  V30 7007 H 632.598 1.62514 3.36957 0
M  V30 7008 H 633.931 2.12044 4.44183 0
M  V30 7009 N 635.583 -1.29855 0.893053 0
M  V30 7010 C 636.811 -1.99976 0.530788 0
M  V30 7011 C 637.226 -1.66889 -0.882799 0
M  V30 7012 O 636.583 -0.910352 -1.58173 0
M  V30 7013 C 636.634 -3.54547 0.705587 0
M  V30 7014 O 636.355 -3.86458 2.06353 0
M  V30 7015 C 637.856 -4.41937 0.347387 0
M  V30 7016 H 635.076 -0.639129 0.204339 0
M  V30 7017 H 637.62 -1.65549 1.20057 0
M  V30 7018 H 635.775 -3.87311 0.0830685 0
M  V30 7019 H 636.189 -4.81146 2.08803 0
M  V30 7020 H 637.663 -5.4954 0.520557 0
M  V30 7021 H 638.14 -4.33339 -0.715139 0
M  V30 7022 H 638.746 -4.14633 0.946567 0
M  V30 7023 N 637.061 -0.65484 -1.43351 0
M  V30 7024 C 638.309 -0.168559 -2.01396 0
M  V30 7025 C 638.63 1.22235 -1.51933 0
M  V30 7026 O 637.9 1.81685 -0.732627 0
M  V30 7027 H 636.48 -0.0593244 -0.744641 0
M  V30 7028 H 639.142 -0.846871 -1.75539 0
M  V30 7029 H 638.238 -0.154428 -3.11718 0
M  V30 7030 N 638.539 1.52521 -0.396863 0
M  V30 7031 C 639.787 2.01274 0.182536 0
M  V30 7032 C 640.108 1.28485 1.46685 0
M  V30 7033 O 639.378 0.407134 1.91623 0
M  V30 7034 H 637.958 0.743671 0.0704442 0
M  V30 7035 H 640.62 1.87547 -0.530289 0
M  V30 7036 H 639.716 3.09687 0.387385 0
M  V30 7037 N 640.017 0.126909 1.57088 0
M  V30 7038 C 641.428 -0.397201 1.82426 0
M  V30 7039 C 641.779 -1.66084 1.04453 0
M  V30 7040 O 640.904 -2.14534 0.283552 0
M  V30 7041 C 641.499 -0.727411 3.30899 0
M  V30 7042 C 640.058 -1.19612 3.56889 0
M  V30 7043 C 639.205 -0.20885 2.76512 0
M  V30 7044 H 642.156 0.351924 1.54749 0
M  V30 7045 H 642.177 -1.58407 3.45959 0
M  V30 7046 H 641.689 0.19247 3.87622 0
M  V30 7047 H 639.79 -2.13263 3.05532 0
M  V30 7048 H 639.903 -1.13598 4.65438 0
M  V30 7049 H 638.267 -0.697479 2.44964 0
M  V30 7050 H 639.05 0.704267 3.35998 0
M  V30 7051 N 641.495 -1.56914 -0.146875 0
M  V30 7052 C 642.743 -1.82994 -0.85777 0
M  V30 7053 C 643.064 -0.707814 -1.817 0
M  V30 7054 O 642.334 0.270521 -1.94023 0
M  V30 7055 H 640.914 -0.675106 -0.319751 0
M  V30 7056 H 643.576 -1.9439 -0.140849 0
M  V30 7057 H 642.672 -2.77928 -1.41994 0
M  V30 7058 N 642.974 0.416227 -1.52004 0
M  V30 7059 C 644.222 1.16153 -1.65387 0
M  V30 7060 C 644.543 1.91208 -0.382669 0
M  V30 7061 O 643.813 1.86413 0.602231 0
M  V30 7062 H 642.393 0.431765 -0.60958 0
M  V30 7063 H 645.055 0.475151 -1.89019 0
M  V30 7064 H 644.151 1.87952 -2.4916 0
M  V30 7065 N 644.452 1.42507 0.673017 0
M  V30 7066 C 645.868 1.25472 0.986355 0
M  V30 7067 C 646.068 0.160181 2.00862 0
M  V30 7068 O 645.124 -0.467993 2.48125 0
M  V30 7069 C 646.437 2.61219 1.48947 0
M  V30 7070 C 647.985 2.68589 1.60715 0
M  V30 7071 C 648.46 4.04707 2.14422 0
M  V30 7072 N 649.951 4.0667 2.21752 0
M  V30 7073 C 650.686 5.0881 2.64386 0
M  V30 7074 N 650.182 6.21332 3.0646 0
M  V30 7075 N 651.975 4.96166 2.64151 0
M  V30 7076 H 644.126 2.124 -0.00378532 0
M  V30 7077 H 646.389 0.946046 0.0608367 0
M  V30 7078 H 646.095 3.42179 0.812812 0
M  V30 7079 H 645.969 2.85261 2.46791 0
M  V30 7080 H 648.356 1.87974 2.27486 0
M  V30 7081 H 648.437 2.48333 0.613552 0
M  V30 7082 H 648.081 4.8578 1.48258 0
M  V30 7083 H 648.011 4.22315 3.14575 0
M  V30 7084 H 650.502 3.25438 1.92089 0
M  V30 7085 H 650.815 6.95118 3.37684 0
M  V30 7086 H 649.16 6.24835 3.04313 0
M  V30 7087 H 652.351 4.07334 2.30644 0
M  V30 7088 H 652.524 5.759 2.97057 0
M  V30 7089 N 645.93 -0.909495 1.28709 0
M  V30 7090 C 647.346 -1.18862 1.06508 0
M  V30 7091 C 647.546 -2.00604 -0.189864 0
M  V30 7092 O 646.602 -2.36281 -0.890355 0
M  V30 7093 C 647.915 -1.91908 2.31499 0
M  V30 7094 C 649.463 -2.04773 2.36721 0
M  V30 7095 C 649.938 -2.81228 3.6149 0
M  V30 7096 N 651.429 -2.88787 3.62155 0
M  V30 7097 C 652.164 -3.48455 4.55375 0
M  V30 7098 N 651.66 -4.09369 5.58918 0
M  V30 7099 N 653.453 -3.46035 4.42963 0
M  V30 7100 H 645.604 -0.363867 2.0926 0
M  V30 7101 H 647.867 -0.223649 0.921241 0
M  V30 7102 H 647.573 -1.39275 3.22948 0
M  V30 7103 H 647.447 -2.92436 2.38245 0
M  V30 7104 H 649.834 -2.56585 1.45767 0
M  V30 7105 H 649.915 -1.03408 2.33967 0
M  V30 7106 H 649.559 -2.30094 4.5279 0
M  V30 7107 H 649.489 -3.82917 3.61499 0
M  V30 7108 H 651.98 -2.45514 2.87283 0
M  V30 7109 H 652.293 -4.52891 6.26187 0
M  V30 7110 H 650.638 -4.0786 5.62739 0
M  V30 7111 H 653.829 -2.9766 3.6127 0
M  V30 7112 H 654.002 -3.92244 5.15799 0
M  V30 7113 N 647.408 -1.11026 -1.11852 0
M  V30 7114 C 648.371 -0.768006 -2.1595 0
M  V30 7115 C 649.371 0.210538 -1.59416 0
M  V30 7116 O 650.561 -0.0133978 -1.74195 0
M  V30 7117 C 647.693 -0.138678 -3.40618 0
M  V30 7118 H 648.886 -1.69012 -2.4774 0
M  V30 7119 H 646.439 -0.911578 -1.26964 0
M  V30 7120 H 647.174 0.793872 -3.14433 0
M  V30 7121 H 646.959 -0.843012 -3.8293 0
M  V30 7122 H 648.449 0.0848039 -4.17514 0
M  V30 7123 N 648.886 1.2938 -0.899927 0
M  V30 7124 C 650.134 1.95164 -0.524924 0
M  V30 7125 C 650.455 1.71292 0.931888 0
M  V30 7126 O 649.725 1.04481 1.65712 0
M  V30 7127 H 648.305 0.722133 -0.191135 0
M  V30 7128 H 650.967 1.57628 -1.14627 0
M  V30 7129 H 650.063 3.0397 -0.707711 0
M  V30 7130 N 650.364 0.662433 1.43002 0
M  V30 7131 C 651.274 -0.0239199 2.34588 0
M  V30 7132 C 652.29 -0.802255 1.54402 0
M  V30 7133 O 653.466 -0.747401 1.87018 0
M  V30 7134 C 650.531 -0.972098 3.32793 0
M  V30 7135 C 649.592 -0.189673 4.28881 0
M  V30 7136 C 648.825 -1.09269 5.22395 0
M  V30 7137 O 649.048 -2.33209 5.20547 0
M  V30 7138 O 647.982 -0.560136 5.99288 0
M  V30 7139 H 651.808 0.730171 2.94792 0
M  V30 7140 H 649.393 0.422635 1.43297 0
M  V30 7141 H 651.275 -1.51676 3.93157 0
M  V30 7142 H 649.95 -1.70626 2.75079 0
M  V30 7143 H 648.857 0.398794 3.71968 0
M  V30 7144 H 650.19 0.50511 4.89601 0
M  V30 7145 N 651.842 -1.52309 0.404946 0
M  V30 7146 C 653.067 -2.06666 -0.1743 0
M  V30 7147 C 653.492 -1.27341 -1.38441 0
M  V30 7148 O 652.85 -0.302539 -1.78758 0
M  V30 7149 C 652.898 -3.57014 -0.507262 0
M  V30 7150 O 652.002 -3.80144 -1.59889 0
M  V30 7151 H 651.343 -0.663807 -0.0160273 0
M  V30 7152 H 653.873 -1.96297 0.576937 0
M  V30 7153 H 653.883 -4.00724 -0.767098 0
M  V30 7154 H 652.558 -4.14184 0.377368 0
M  V30 7155 H 651.135 -3.48316 -1.33155 0
M  V30 7156 N 653.32 -0.135238 -1.57019 0
M  V30 7157 C 654.568 0.51777 -1.95355 0
M  V30 7158 C 654.889 1.6617 -1.02042 0
M  V30 7159 O 654.159 1.95738 -0.0797343 0
M  V30 7160 H 652.739 0.194264 -0.721298 0
M  V30 7161 H 655.401 -0.207983 -1.93787 0
M  V30 7162 H 654.497 0.901675 -2.98791 0
M  V30 7163 N 654.798 1.5699 0.138552 0
M  V30 7164 C 655.748 1.9532 1.17619 0
M  V30 7165 C 656.732 0.825545 1.38107 0
M  V30 7166 O 657.924 1.08908 1.39528 0
M  V30 7167 C 655.053 2.34451 2.50774 0
M  V30 7168 C 654.139 3.53805 2.33844 0
M  V30 7169 N 654.53 4.70088 1.86685 0
M  V30 7170 C 652.828 3.59055 2.64567 0
M  V30 7171 C 653.529 5.52165 1.82998 0
M  V30 7172 N 652.505 4.94108 2.26624 0
M  V30 7173 H 656.307 2.82694 0.803809 0
M  V30 7174 H 653.821 1.5866 0.346519 0
M  V30 7175 H 655.818 2.60119 3.25797 0
M  V30 7176 H 654.478 1.48431 2.88788 0
M  V30 7177 H 655.489 4.93681 1.56523 0
M  V30 7178 H 652.166 2.83596 3.06398 0
M  V30 7179 H 653.556 6.55407 1.47957 0
M  V30 7180 N 656.276 -0.40816 1.52223 0
M  V30 7181 C 657.504 -1.17672 1.70179 0
M  V30 7182 C 657.919 -1.84257 0.411696 0
M  V30 7183 O 657.276 -1.7192 -0.612354 0
M  V30 7184 C 657.327 -2.23911 2.83806 0
M  V30 7185 O 657.048 -1.60044 4.0782 0
M  V30 7186 C 658.549 -3.1364 3.13281 0
M  V30 7187 H 655.769 -0.353562 0.570293 0
M  V30 7188 H 658.313 -0.480083 1.98785 0
M  V30 7189 H 656.468 -2.89242 2.57717 0
M  V30 7190 H 656.882 -2.30484 4.71145 0
M  V30 7191 H 658.356 -3.84255 3.96298 0
M  V30 7192 H 658.833 -3.76066 2.26872 0
M  V30 7193 H 659.439 -2.53977 3.41139 0
M  V30 7194 N 657.755 -1.42862 -0.66545 0
M  V30 7195 C 659.001 -1.44043 -1.42757 0
M  V30 7196 C 659.334 -0.0599629 -1.94107 0
M  V30 7197 O 658.609 0.917286 -1.71511 0
M  V30 7198 C 658.892 -2.47266 -2.61786 0
M  V30 7199 C 658.745 -3.94539 -2.16007 0
M  V30 7200 C 660.064 -2.47365 -3.64003 0
M  V30 7201 H 657.183 -0.524506 -0.517748 0
M  V30 7202 H 659.825 -1.74335 -0.755466 0
M  V30 7203 H 657.975 -2.21565 -3.19126 0
M  V30 7204 H 659.647 -4.31254 -1.63762 0
M  V30 7205 H 657.89 -4.07957 -1.47491 0
M  V30 7206 H 658.561 -4.62357 -3.01546 0
M  V30 7207 H 661.037 -2.70243 -3.16399 0
M  V30 7208 H 659.913 -3.21552 -4.44854 0
M  V30 7209 H 660.174 -1.50299 -4.15767 0
M  V30 7210 N 659.233 0.902656 -1.29189 0
M  V30 7211 C 660.196 1.98797 -1.14071 0
M  V30 7212 C 661.196 1.60615 -0.0770549 0
M  V30 7213 O 662.386 1.71165 -0.323753 0
M  V30 7214 C 659.518 3.32688 -0.743739 0
M  V30 7215 H 660.711 2.13637 -2.10473 0
M  V30 7216 H 658.264 1.08678 -1.12334 0
M  V30 7217 H 658.999 3.23549 0.220554 0
M  V30 7218 H 658.784 3.61765 -1.51223 0
M  V30 7219 H 660.274 4.12337 -0.660935 0
M  V30 7220 N 660.711 1.11618 1.11262 0
M  V30 7221 C 661.988 0.777876 1.79467 0
M  V30 7222 C 662.368 -0.733774 1.97937 0
M  V30 7223 O 661.716 -1.66443 1.56554 0
M  V30 7224 C 661.926 1.5431 3.13032 0
M  V30 7225 C 663.274 1.72357 3.88044 0
M  V30 7226 O 664.298 1.5075 3.22727 0
M  V30 7227 O 663.157 2.08276 5.05256 0
M  V30 7228 H 660.251 0.282018 0.777428 0
M  V30 7229 H 662.797 1.21971 1.17988 0
M  V30 7230 H 661.569 2.57132 2.94956 0
M  V30 7231 H 661.192 1.09495 3.82226 0
M  V30 7232 N 662.189 -1.289 0.906776 0
M  V30 7233 C 663.419 -1.99112 0.551168 0
M  V30 7234 C 663.827 -1.67998 -0.870243 0
M  V30 7235 O 663.17 -0.92525 -1.58697 0
M  V30 7236 C 663.232 -3.53162 0.672065 0
M  V30 7237 C 662.896 -4.07849 2.06174 0
M  V30 7238 C 663.893 -4.22212 3.0337 0
M  V30 7239 C 661.578 -4.4271 2.37304 0
M  V30 7240 C 663.572 -4.70678 4.29815 0
M  V30 7241 C 661.259 -4.90871 3.6399 0
M  V30 7242 C 662.257 -5.04811 4.6006 0
M  V30 7243 O 661.945 -5.51925 5.84495 0
M  V30 7244 H 661.677 -0.642728 0.209469 0
M  V30 7245 H 664.231 -1.65234 1.22012 0
M  V30 7246 H 662.461 -3.86662 -0.05394 0
M  V30 7247 H 664.15 -4.046 0.324579 0
M  V30 7248 H 664.916 -3.9556 2.80637 0
M  V30 7249 H 660.795 -4.31114 1.63283 0
M  V30 7250 H 664.339 -4.81474 5.04806 0
M  V30 7251 H 660.236 -5.16961 3.86551 0
M  V30 7252 H 661.004 -5.70225 5.87185 0
M  V30 7253 N 663.667 -0.670007 -1.42649 0
M  V30 7254 C 664.597 -0.00258501 -2.335 0
M  V30 7255 C 665.578 0.794364 -1.50412 0
M  V30 7256 O 666.763 0.75248 -1.79029 0
M  V30 7257 C 663.893 0.952748 -3.33976 0
M  V30 7258 C 662.847 0.264733 -4.2718 0
M  V30 7259 C 662.173 1.33267 -5.17826 0
M  V30 7260 C 663.473 -0.853289 -5.15283 0
M  V30 7261 H 665.167 -0.761326 -2.89559 0
M  V30 7262 H 662.713 -0.367561 -1.3923 0
M  V30 7263 H 664.666 1.4287 -3.96442 0
M  V30 7264 H 663.39 1.74285 -2.7621 0
M  V30 7265 H 662.049 -0.190938 -3.66102 0
M  V30 7266 H 661.697 2.11464 -4.5639 0
M  V30 7267 H 661.397 0.877476 -5.81011 0
M  V30 7268 H 662.921 1.80965 -5.83167 0
M  V30 7269 H 664.335 -0.458763 -5.71462 0
M  V30 7270 H 662.732 -1.23398 -5.87276 0
M  V30 7271 H 663.802 -1.70412 -4.53969 0
M  V30 7272 N 665.145 1.52092 -0.413018 0
M  V30 7273 C 666.092 2.27119 0.410558 0
M  V30 7274 C 667.062 1.29692 1.03774 0
M  V30 7275 O 668.247 1.58561 1.06128 0
M  V30 7276 C 665.387 3.09863 1.51918 0
M  V30 7277 C 664.5 4.22252 0.912528 0
M  V30 7278 C 663.635 4.92348 1.99417 0
M  V30 7279 C 662.674 5.96694 1.36466 0
M  V30 7280 N 661.811 6.60292 2.38661 0
M  V30 7281 H 666.651 2.97067 -0.235661 0
M  V30 7282 H 664.188 1.46542 -0.128055 0
M  V30 7283 H 666.146 3.56144 2.17295 0
M  V30 7284 H 664.776 2.42078 2.13537 0
M  V30 7285 H 663.828 3.80113 0.147697 0
M  V30 7286 H 665.14 4.9709 0.412717 0
M  V30 7287 H 664.294 5.42054 2.72512 0
M  V30 7288 H 663.033 4.17087 2.52764 0
M  V30 7289 H 662.038 5.46304 0.61906 0
M  V30 7290 H 663.263 6.73899 0.838827 0
M  V30 7291 H 661.209 5.87858 2.91134 0
M  V30 7292 H 661.126 7.30816 1.93503 0
M  V30 7293 H 662.394 7.14635 3.11314 0
M  V30 7294 N 666.623 0.143563 1.56945 0
M  V30 7295 C 667.87 -0.508407 1.96014 0
M  V30 7296 C 668.198 -1.65099 1.02824 0
M  V30 7297 O 667.453 -1.95618 0.0567764 0
M  V30 7298 C 667.752 -1.05885 3.41355 0
M  V30 7299 C 667.418 -0.0350809 4.50886 0
M  V30 7300 C 666.08 0.246362 4.80569 0
M  V30 7301 C 668.432 0.661282 5.16988 0
M  V30 7302 C 665.76 1.23003 5.73661 0
M  V30 7303 C 668.112 1.63375 6.11139 0
M  V30 7304 C 666.776 1.92292 6.39203 0
M  V30 7305 H 666.046 -0.186039 0.717266 0
M  V30 7306 H 668.693 0.229667 1.90118 0
M  V30 7307 H 666.998 -1.87419 3.44066 0
M  V30 7308 H 668.695 -1.57183 3.6891 0
M  V30 7309 H 665.285 -0.264622 4.27782 0
M  V30 7310 H 669.469 0.457038 4.94191 0
M  V30 7311 H 664.725 1.46056 5.93698 0
M  V30 7312 H 668.899 2.17887 6.61436 0
M  V30 7313 H 666.526 2.68666 7.11142 0
M  V30 7314 N 668.101 -1.57061 -0.130224 0
M  V30 7315 C 669.048 -1.99517 -1.16024 0
M  V30 7316 C 670.018 -0.865452 -1.41771 0
M  V30 7317 O 671.203 -1.12882 -1.53826 0
M  V30 7318 C 668.343 -2.3951 -2.48453 0
M  V30 7319 C 667.456 -3.65848 -2.29737 0
M  V30 7320 C 666.591 -3.9487 -3.55318 0
M  V30 7321 C 665.63 -5.14426 -3.31711 0
M  V30 7322 N 664.767 -5.39375 -4.49466 0
M  V30 7323 H 669.607 -2.87305 -0.791194 0
M  V30 7324 H 667.144 -1.42129 -0.379195 0
M  V30 7325 H 669.102 -2.60731 -3.25692 0
M  V30 7326 H 667.732 -1.54779 -2.83272 0
M  V30 7327 H 666.784 -3.52307 -1.4347 0
M  V30 7328 H 668.096 -4.53241 -2.08263 0
M  V30 7329 H 667.25 -4.16679 -4.4098 0
M  V30 7330 H 665.989 -3.05931 -3.79813 0
M  V30 7331 H 664.994 -4.92473 -2.44439 0
M  V30 7332 H 666.219 -6.04933 -3.08598 0
M  V30 7333 H 664.165 -4.53391 -4.74102 0
M  V30 7334 H 664.082 -6.21069 -4.31055 0
M  V30 7335 H 665.35 -5.65694 -5.36293 0
M  V30 7336 N 669.579 0.400081 -1.52437 0
M  V30 7337 C 670.856 1.15973 -1.57511 0
M  V30 7338 C 671.236 2.0798 -0.361572 0
M  V30 7339 O 670.584 2.19032 0.650929 0
M  V30 7340 C 670.794 1.92912 -2.90837 0
M  V30 7341 C 672.142 2.48662 -3.44169 0
M  V30 7342 O 673.166 2.03081 -2.92637 0
M  V30 7343 O 672.025 3.31894 -4.34176 0
M  V30 7344 H 669.119 0.530023 -0.634827 0
M  V30 7345 H 671.665 0.40613 -1.64769 0
M  V30 7346 H 670.437 1.25564 -3.70607 0
M  V30 7347 H 670.06 2.75257 -2.86913 0
M  V30 7348 N 671.057 1.43213 0.657864 0
M  V30 7349 C 671.987 1.50815 1.78262 0
M  V30 7350 C 672.968 0.363211 1.66177 0
M  V30 7351 O 674.153 0.579806 1.85343 0
M  V30 7352 C 671.283 1.42625 3.16663 0
M  V30 7353 C 670.237 2.5532 3.43505 0
M  V30 7354 C 669.563 2.32184 4.81658 0
M  V30 7355 C 670.863 3.97583 3.38711 0
M  V30 7356 H 672.557 2.44954 1.72157 0
M  V30 7357 H 670.103 1.17896 0.82683 0
M  V30 7358 H 672.056 1.46548 3.95097 0
M  V30 7359 H 670.78 0.449877 3.23487 0
M  V30 7360 H 669.439 2.50742 2.6744 0
M  V30 7361 H 669.087 1.32801 4.85153 0
M  V30 7362 H 668.787 3.07724 5.00579 0
M  V30 7363 H 670.311 2.37883 5.62356 0
M  V30 7364 H 671.725 4.03673 4.07089 0
M  V30 7365 H 670.122 4.73112 3.69168 0
M  V30 7366 H 671.192 4.23049 2.36976 0
M  V30 7367 N 672.536 -0.895792 1.29666 0
M  V30 7368 C 673.785 -1.64131 1.17234 0
M  V30 7369 C 674.098 -1.93665 -0.274416 0
M  V30 7370 O 675.304 -2.66472 -0.520105 0
M  V30 7371 C 673.76 -2.95764 2.05065 0
M  V30 7372 C 673.368 -2.7381 3.54587 0
M  V30 7373 C 675.112 -3.737 2.01367 0
M  V30 7374 C 673.019 -4.01194 4.34508 0
M  V30 7375 H 671.949 -0.615742 0.435175 0
M  V30 7376 H 674.6 -0.992626 1.54335 0
M  V30 7377 H 672.982 -3.61867 1.60837 0
M  V30 7378 H 674.156 -2.16277 4.06892 0
M  V30 7379 H 672.471 -2.09265 3.59996 0
M  V30 7380 H 675.068 -4.68152 2.58337 0
M  V30 7381 H 675.411 -4.04245 0.994575 0
M  V30 7382 H 675.944 -3.14444 2.43659 0
M  V30 7383 H 672.683 -3.75813 5.37071 0
M  V30 7384 H 672.203 -4.58272 3.86971 0
M  V30 7385 H 673.882 -4.69307 4.45376 0
M  V30 7386 N 674.014 -1.12206 -1.10668 0
M  V30 7387 C 674.944 -0.810086 -2.18997 0
M  V30 7388 C 675.925 0.225065 -1.68604 0
M  V30 7389 O 677.11 0.086783 -1.94006 0
M  V30 7390 C 674.24 -0.261262 -3.46316 0
M  V30 7391 C 673.194 -1.2292 -4.09969 0
M  V30 7392 C 672.52 -0.540713 -5.31959 0
M  V30 7393 C 673.82 -2.58295 -4.53962 0
M  V30 7394 H 675.514 -1.7159 -2.45352 0
M  V30 7395 H 673.06 -0.82646 -1.17922 0
M  V30 7396 H 675.013 -0.0307522 -4.21389 0
M  V30 7397 H 673.737 0.679879 -3.19445 0
M  V30 7398 H 672.396 -1.44548 -3.369 0
M  V30 7399 H 672.044 0.405492 -5.01363 0
M  V30 7400 H 671.744 -1.18637 -5.75499 0
M  V30 7401 H 673.268 -0.319184 -6.09765 0
M  V30 7402 H 674.682 -2.40709 -5.20319 0
M  V30 7403 H 673.079 -3.18916 -5.08343 0
M  V30 7404 H 674.149 -3.16918 -3.67002 0
M  V30 7405 N 675.492 1.28418 -0.913599 0
M  V30 7406 C 676.908 1.47411 -0.611728 0
M  V30 7407 C 677.108 1.83018 0.843008 0
M  V30 7408 O 676.164 1.93505 1.6221 0
M  V30 7409 C 677.477 2.57703 -1.5495 0
M  V30 7410 C 679.025 2.71572 -1.5562 0
M  V30 7411 C 679.5 3.85008 -2.48058 0
M  V30 7412 N 680.991 3.92361 -2.46184 0
M  V30 7413 C 681.726 4.79516 -3.14407 0
M  V30 7414 N 681.222 5.71262 -3.91958 0
M  V30 7415 N 683.015 4.73125 -3.03495 0
M  V30 7416 H 675.166 1.03585 -1.85429 0
M  V30 7417 H 677.429 0.515907 -0.795326 0
M  V30 7418 H 677.135 2.38298 -2.58663 0
M  V30 7419 H 677.009 3.54801 -1.28048 0
M  V30 7420 H 679.396 2.90366 -0.526441 0
M  V30 7421 H 679.477 1.75006 -1.86565 0
M  V30 7422 H 679.121 3.66969 -3.51136 0
M  V30 7423 H 679.051 4.80971 -2.14416 0
M  V30 7424 H 681.542 3.26749 -1.89851 0
M  V30 7425 H 681.855 6.34593 -4.41034 0
M  V30 7426 H 680.2 5.71103 -3.96063 0
M  V30 7427 H 683.391 4.00442 -2.42413 0
M  V30 7428 H 683.564 5.40834 -3.56935 0
M  V30 7429 N 676.97 0.677563 1.42291 0
M  V30 7430 C 677.903 -0.0492638 2.28147 0
M  V30 7431 C 678.881 -0.805936 1.41221 0
M  V30 7432 O 680.065 -0.80049 1.70659 0
M  V30 7433 C 677.192 -1.07697 3.21122 0
M  V30 7434 C 676.238 -0.41556 4.24471 0
M  V30 7435 S 677.071 0.828876 5.29046 0
M  V30 7436 C 678.227 -0.197687 6.25588 0
M  V30 7437 H 678.46 0.678965 2.89443 0
M  V30 7438 H 675.993 0.467201 1.47162 0
M  V30 7439 H 677.951 -1.66482 3.75225 0
M  V30 7440 H 676.612 -1.77766 2.58956 0
M  V30 7441 H 675.805 -1.19112 4.89723 0
M  V30 7442 H 675.407 0.0987632 3.7387 0
M  V30 7443 H 677.699 -1.05656 6.69211 0
M  V30 7444 H 678.642 0.420437 7.06851 0
M  V30 7445 H 679.05 -0.544401 5.61869 0
M  V30 7446 N 678.448 -1.51871 0.421078 0
M  V30 7447 C 679.378 -2.30231 -0.389363 0
M  V30 7448 C 680.359 -1.34946 -1.03555 0
M  V30 7449 O 681.544 -1.63859 -1.04229 0
M  V30 7450 C 678.674 -3.13247 -1.49979 0
M  V30 7451 C 677.628 -4.16677 -0.977966 0
M  V30 7452 C 676.954 -4.88112 -2.1829 0
M  V30 7453 C 678.254 -5.22295 -0.0236775 0
M  V30 7454 H 679.948 -2.98229 0.264524 0
M  V30 7455 H 677.494 -1.43424 0.12866 0
M  V30 7456 H 679.447 -3.66838 -2.07383 0
M  V30 7457 H 678.171 -2.4304 -2.18173 0
M  V30 7458 H 676.83 -3.64114 -0.426245 0
M  V30 7459 H 676.478 -4.14423 -2.85066 0
M  V30 7460 H 676.178 -5.58041 -1.84021 0
M  V30 7461 H 677.702 -5.44521 -2.76278 0
M  V30 7462 H 679.116 -5.71055 -0.506899 0
M  V30 7463 H 677.513 -5.99656 0.230782 0
M  V30 7464 H 678.583 -4.76131 0.917999 0
M  V30 7465 N 679.926 -0.151884 -1.56866 0
M  V30 7466 C 681.203 0.543328 -1.87902 0
M  V30 7467 C 681.583 1.82636 -1.05864 0
M  V30 7468 O 680.931 2.28028 -0.146868 0
M  V30 7469 C 681.141 0.804056 -3.39611 0
M  V30 7470 C 682.489 1.14267 -4.08935 0
M  V30 7471 O 683.513 0.893248 -3.44818 0
M  V30 7472 O 682.372 1.61229 -5.22176 0
M  V30 7473 H 679.466 0.277724 -0.778973 0
M  V30 7474 H 682.012 -0.188862 -1.68646 0
M  V30 7475 H 680.784 -0.103772 -3.91162 0
M  V30 7476 H 680.407 1.59025 -3.64413 0
M  V30 7477 N 681.404 1.57128 0.121893 0
M  V30 7478 C 682.634 1.88609 0.843227 0
M  V30 7479 C 683.042 0.740917 1.74089 0
M  V30 7480 O 682.385 -0.297426 1.81276 0
M  V30 7481 C 682.447 3.15073 1.73117 0
M  V30 7482 C 682.111 4.45742 1.0081 0
M  V30 7483 C 683.108 5.18719 0.350255 0
M  V30 7484 C 680.793 4.92444 0.99014 0
M  V30 7485 C 682.787 6.36617 -0.315889 0
M  V30 7486 C 680.474 6.10261 0.320196 0
M  V30 7487 C 681.472 6.82194 -0.331666 0
M  V30 7488 O 681.16 7.97769 -0.990927 0
M  V30 7489 H 680.892 0.628919 0.247865 0
M  V30 7490 H 683.446 2.05096 0.111725 0
M  V30 7491 H 681.676 2.9466 2.50424 0
M  V30 7492 H 683.365 3.32597 2.32667 0
M  V30 7493 H 684.131 4.83693 0.35577 0
M  V30 7494 H 680.01 4.36361 1.48695 0
M  V30 7495 H 683.554 6.92701 -0.825272 0
M  V30 7496 H 679.451 6.44743 0.312433 0
M  V30 7497 H 680.219 8.13591 -0.895113 0
M  V30 7498 N 682.882 -0.391992 1.52647 0
M  V30 7499 C 684.159 -1.15136 1.58123 0
M  V30 7500 C 684.539 -2.07786 0.372597 0
M  V30 7501 O 683.887 -2.19374 -0.639304 0
M  V30 7502 C 684.097 -1.91367 2.91856 0
M  V30 7503 C 685.445 -2.46833 3.45483 0
M  V30 7504 O 686.469 -2.01527 2.9371 0
M  V30 7505 O 685.328 -3.29587 4.3593 0
M  V30 7506 H 682.422 -0.526649 0.637629 0
M  V30 7507 H 684.968 -0.397386 1.64982 0
M  V30 7508 H 683.74 -1.23597 3.71268 0
M  V30 7509 H 683.363 -2.73732 2.88369 0
M  V30 7510 N 684.36 -1.4356 -0.65026 0
M  V30 7511 C 685.771 -1.40324 -1.2315 0
M  V30 7512 C 686.122 -0.108812 -1.95898 0
M  V30 7513 O 685.247 0.79163 -2.01401 0
M  V30 7514 C 685.842 -2.54195 -2.23987 0
M  V30 7515 C 684.401 -2.54215 -2.77582 0
M  V30 7516 C 683.548 -2.31752 -1.5227 0
M  V30 7517 H 686.499 -1.52418 -0.442095 0
M  V30 7518 H 686.52 -2.25854 -3.0622 0
M  V30 7519 H 686.032 -3.48392 -1.71011 0
M  V30 7520 H 684.133 -1.63907 -3.34612 0
M  V30 7521 H 684.246 -3.52081 -3.24925 0
M  V30 7522 H 682.61 -1.80476 -1.79723 0
M  V30 7523 H 683.393 -3.28037 -1.01225 0
M  V30 7524 N 685.838 0.888903 -1.30139 0
M  V30 7525 C 686.785 1.99422 -1.16188 0
M  V30 7526 C 687.755 1.66017 -0.0523869 0
M  V30 7527 O 688.94 1.89506 -0.221864 0
M  V30 7528 C 686.08 3.34325 -0.855612 0
M  V30 7529 C 685.193 3.80445 -2.0466 0
M  V30 7530 C 684.328 5.03975 -1.67876 0
M  V30 7531 C 683.367 5.42492 -2.83493 0
M  V30 7532 N 682.504 6.57206 -2.47032 0
M  V30 7533 H 687.344 2.10687 -2.10749 0
M  V30 7534 H 684.881 1.03165 -1.04859 0
M  V30 7535 H 686.839 4.11968 -0.658681 0
M  V30 7536 H 685.469 3.22756 0.0531155 0
M  V30 7537 H 684.521 2.98745 -2.3549 0
M  V30 7538 H 685.833 4.04933 -2.91257 0
M  V30 7539 H 684.987 5.89232 -1.44535 0
M  V30 7540 H 683.726 4.8135 -0.784431 0
M  V30 7541 H 682.731 4.55764 -3.07505 0
M  V30 7542 H 683.956 5.67093 -3.73607 0
M  V30 7543 H 681.902 6.36164 -1.601 0
M  V30 7544 H 681.819 6.81543 -3.27161 0
M  V30 7545 H 683.087 7.45704 -2.27038 0
M  V30 7546 N 687.317 1.12792 1.10072 0
M  V30 7547 C 688.545 0.908506 1.85886 0
M  V30 7548 C 688.96 -0.542408 1.80841 0
M  V30 7549 O 688.317 -1.37517 1.1998 0
M  V30 7550 C 688.368 1.37973 3.34134 0
M  V30 7551 O 688.089 2.77378 3.39106 0
M  V30 7552 C 689.59 1.1978 4.26811 0
M  V30 7553 H 686.81 0.3244 0.587372 0
M  V30 7554 H 689.354 1.49882 1.39125 0
M  V30 7555 H 687.509 0.832566 3.78348 0
M  V30 7556 H 687.923 2.98144 4.31521 0
M  V30 7557 H 689.397 1.57635 5.29014 0
M  V30 7558 H 689.874 0.138768 4.38981 0
M  V30 7559 H 690.48 1.73266 3.88406 0
M  V30 7560 N 688.795 -1.27931 0.920396 0
M  V30 7561 C 690.211 -1.47085 0.619537 0
M  V30 7562 C 690.411 -1.83463 -0.833291 0
M  V30 7563 O 689.467 -1.94363 -1.61181 0
M  V30 7564 C 690.78 -2.56878 1.56314 0
M  V30 7565 C 692.328 -2.70743 1.57058 0
M  V30 7566 C 692.803 -3.83687 2.50097 0
M  V30 7567 N 694.294 -3.9105 2.48262 0
M  V30 7568 C 695.029 -4.77842 3.16945 0
M  V30 7569 N 694.525 -5.69176 3.94982 0
M  V30 7570 N 696.318 -4.71509 3.06 0
M  V30 7571 H 688.469 -1.02601 1.85975 0
M  V30 7572 H 690.732 -0.511682 0.798051 0
M  V30 7573 H 690.438 -2.36923 2.59923 0
M  V30 7574 H 690.312 -3.54117 1.29928 0
M  V30 7575 H 692.699 -2.90083 0.541832 0
M  V30 7576 H 692.78 -1.74015 1.8749 0
M  V30 7577 H 692.424 -3.65101 3.53077 0
M  V30 7578 H 692.354 -4.79827 2.16964 0
M  V30 7579 H 694.845 -3.25738 1.91581 0
M  V30 7580 H 695.158 -6.32245 4.44394 0
M  V30 7581 H 693.503 -5.68995 3.99086 0
M  V30 7582 H 696.694 -3.99151 2.44533 0
M  V30 7583 H 696.867 -5.38933 3.59799 0
M  V30 7584 N 690.273 -0.685099 -1.4193 0
M  V30 7585 C 691.522 -0.208816 -2.00616 0
M  V30 7586 C 691.835 1.19506 -1.54847 0
M  V30 7587 O 693.041 1.76826 -2.06021 0
M  V30 7588 C 691.497 -0.322446 -3.58453 0
M  V30 7589 C 691.105 -1.73102 -4.13206 0
M  V30 7590 C 692.849 0.0945979 -4.24395 0
M  V30 7591 C 690.756 -1.79687 -5.63442 0
M  V30 7592 H 689.686 -0.0743092 -0.750329 0
M  V30 7593 H 692.337 -0.851778 -1.62533 0
M  V30 7594 H 690.719 0.388588 -3.94089 0
M  V30 7595 H 691.893 -2.46997 -3.8901 0
M  V30 7596 H 690.208 -2.09682 -3.59753 0
M  V30 7597 H 692.805 0.0656937 -5.3466 0
M  V30 7598 H 693.148 1.1316 -4.00625 0
M  V30 7599 H 693.681 -0.56579 -3.93756 0
M  V30 7600 H 690.42 -2.81404 -5.92024 0
M  V30 7601 H 689.94 -1.10162 -5.89597 0
M  V30 7602 H 691.619 -1.55498 -6.28036 0
M  V30 7603 N 691.751 1.51645 -0.429126 0
M  V30 7604 C 692.683 2.25279 0.422124 0
M  V30 7605 C 693.696 1.28986 0.993299 0
M  V30 7606 O 694.885 1.54797 0.888836 0
M  V30 7607 C 691.985 2.98666 1.60162 0
M  V30 7608 C 691.158 4.2199 1.15078 0
M  V30 7609 C 690.217 4.78028 2.19946 0
M  V30 7610 O 689.243 5.40084 1.79716 0
M  V30 7611 N 690.445 4.61342 3.5234 0
M  V30 7612 H 693.21 2.98971 -0.208931 0
M  V30 7613 H 690.771 1.59838 -0.257568 0
M  V30 7614 H 692.763 3.33044 2.29922 0
M  V30 7615 H 691.333 2.28036 2.13818 0
M  V30 7616 H 690.553 3.932 0.280552 0
M  V30 7617 H 691.841 5.02037 0.826831 0
M  V30 7618 H 691.239 4.11894 3.87763 0
M  V30 7619 H 689.796 5.00104 4.18019 0
M  V30 7620 N 693.229 0.160201 1.56784 0
M  V30 7621 C 694.64 -0.358417 1.83227 0
M  V30 7622 C 694.991 -1.63831 1.07952 0
M  V30 7623 O 694.116 -2.13885 0.328995 0
M  V30 7624 C 694.711 -0.657058 3.32368 0
M  V30 7625 C 693.27 -1.12015 3.59346 0
M  V30 7626 C 692.417 -0.15015 2.76893 0
M  V30 7627 H 695.368 0.384669 1.53967 0
M  V30 7628 H 695.389 -1.51033 3.49241 0
M  V30 7629 H 694.901 0.274647 3.87127 0
M  V30 7630 H 693.002 -2.06734 3.09987 0
M  V30 7631 H 693.115 -1.037 4.67743 0
M  V30 7632 H 691.479 -0.645361 2.46388 0
M  V30 7633 H 692.262 0.775379 3.34429 0
M  V30 7634 N 694.707 -1.5719 -0.113559 0
M  V30 7635 C 695.937 -1.89053 -0.833212 0
M  V30 7636 C 696.345 -0.750139 -1.73694 0
M  V30 7637 O 695.688 0.287808 -1.81431 0
M  V30 7638 C 695.75 -3.15986 -1.71443 0
M  V30 7639 C 695.414 -4.46271 -0.984449 0
M  V30 7640 C 696.411 -5.18897 -0.322741 0
M  V30 7641 C 694.096 -4.92963 -0.964011 0
M  V30 7642 C 696.09 -6.3644 0.349646 0
M  V30 7643 C 693.777 -6.10422 -0.287828 0
M  V30 7644 C 694.775 -6.82009 0.36784 0
M  V30 7645 O 694.463 -7.97233 1.03322 0
M  V30 7646 H 694.195 -0.630225 -0.244526 0
M  V30 7647 H 696.749 -2.05152 -0.100847 0
M  V30 7648 H 694.979 -2.95984 -2.48858 0
M  V30 7649 H 696.668 -3.33826 -2.309 0
M  V30 7650 H 697.434 -4.83875 -0.330114 0
M  V30 7651 H 693.313 -4.37143 -1.46379 0
M  V30 7652 H 696.857 -6.92254 0.861996 0
M  V30 7653 H 692.754 -6.449 -0.278237 0
M  V30 7654 H 693.522 -8.13105 0.938247 0
M  V30 7655 N 696.185 0.383891 -1.52853 0
M  V30 7656 C 697.415 1.14783 -1.7178 0
M  V30 7657 C 697.823 1.84055 -0.438211 0
M  V30 7658 O 697.166 1.73713 0.597465 0
M  V30 7659 C 697.228 2.23543 -2.81547 0
M  V30 7660 C 696.892 1.74195 -4.22499 0
M  V30 7661 C 697.889 1.21591 -5.05481 0
M  V30 7662 C 695.574 1.80262 -4.6884 0
M  V30 7663 C 697.568 0.757104 -6.32888 0
M  V30 7664 C 695.255 1.33993 -5.96229 0
M  V30 7665 C 696.253 0.818049 -6.78083 0
M  V30 7666 O 695.941 0.362123 -8.03084 0
M  V30 7667 H 695.673 0.349908 -0.578395 0
M  V30 7668 H 698.227 0.454377 -2.00311 0
M  V30 7669 H 696.457 2.96328 -2.48449 0
M  V30 7670 H 698.146 2.8519 -2.88828 0
M  V30 7671 H 698.912 1.16257 -4.7086 0
M  V30 7672 H 694.791 2.19825 -4.05213 0
M  V30 7673 H 698.335 0.34908 -6.96726 0
M  V30 7674 H 694.232 1.39015 -6.30353 0
M  V30 7675 H 695 0.483134 -8.17073 0
M  V30 7676 N 697.663 1.43903 0.642637 0
M  V30 7677 C 698.626 1.49538 1.73698 0
M  V30 7678 C 699.626 0.378776 1.56275 0
M  V30 7679 O 700.816 0.64095 1.6198 0
M  V30 7680 C 697.948 1.35821 3.12675 0
M  V30 7681 H 699.141 2.47008 1.70079 0
M  V30 7682 H 696.694 1.30824 0.85526 0
M  V30 7683 H 697.429 0.393994 3.21898 0
M  V30 7684 H 697.214 2.16776 3.26727 0
M  V30 7685 H 698.704 1.4272 3.92455 0
M  V30 7686 N 699.141 -0.881989 1.30609 0
M  V30 7687 C 700.071 -2.00413 1.1982 0
M  V30 7688 C 701.052 -1.69871 0.0881538 0
M  V30 7689 O 702.237 -1.92304 0.2707 0
M  V30 7690 C 699.367 -3.35641 0.89233 0
M  V30 7691 C 698.321 -3.80451 1.96064 0
M  V30 7692 C 697.647 -5.13003 1.5077 0
M  V30 7693 C 698.947 -3.98855 3.37213 0
M  V30 7694 H 700.641 -2.09698 2.13699 0
M  V30 7695 H 698.187 -1.00754 1.02882 0
M  V30 7696 H 700.14 -4.13669 0.803497 0
M  V30 7697 H 698.864 -3.26497 -0.0821381 0
M  V30 7698 H 697.523 -3.04654 2.03916 0
M  V30 7699 H 697.171 -5.0029 0.521417 0
M  V30 7700 H 696.871 -5.43956 2.22229 0
M  V30 7701 H 698.395 -5.93554 1.43271 0
M  V30 7702 H 699.809 -4.67312 3.32103 0
M  V30 7703 H 698.206 -4.41188 4.06784 0
M  V30 7704 H 699.276 -3.02614 3.78883 0
M  V30 7705 N 700.619 -1.13374 -1.09472 0
M  V30 7706 C 701.551 -0.768466 -2.15933 0
M  V30 7707 C 702.564 0.209585 -1.61445 0
M  V30 7708 O 703.753 -0.010539 -1.78497 0
M  V30 7709 C 700.853 -0.118266 -3.38694 0
M  V30 7710 C 700.026 -1.12829 -4.22597 0
M  V30 7711 C 699.085 -0.503875 -5.23782 0
M  V30 7712 O 698.111 -1.16374 -5.57177 0
M  V30 7713 N 699.313 0.724288 -5.75964 0
M  V30 7714 H 702.078 -1.68457 -2.47876 0
M  V30 7715 H 699.639 -1.02668 -1.25183 0
M  V30 7716 H 701.631 0.311698 -4.03498 0
M  V30 7717 H 700.201 0.700769 -3.04644 0
M  V30 7718 H 699.421 -1.73556 -3.53938 0
M  V30 7719 H 700.709 -1.81095 -4.75481 0
M  V30 7720 H 700.107 1.27918 -5.51048 0
M  V30 7721 H 698.664 1.09692 -6.42504 0
M  V30 7722 N 702.098 1.27442 -0.927168 0
M  V30 7723 C 703.048 2.24519 -0.396878 0
M  V30 7724 C 704.032 1.52981 0.498555 0
M  V30 7725 O 705.224 1.7378 0.336087 0
M  V30 7726 C 702.353 3.41514 0.349694 0
M  V30 7727 C 701.439 4.20357 -0.562226 0
M  V30 7728 N 701.83 4.7702 -1.68182 0
M  V30 7729 C 700.128 4.44503 -0.365135 0
M  V30 7730 C 700.829 5.36467 -2.24895 0
M  V30 7731 N 699.805 5.21371 -1.5386 0
M  V30 7732 H 703.607 2.65911 -1.25173 0
M  V30 7733 H 701.121 1.42366 -0.78138 0
M  V30 7734 H 703.118 4.10161 0.746536 0
M  V30 7735 H 701.778 3.01653 1.20148 0
M  V30 7736 H 702.789 4.74985 -2.06421 0
M  V30 7737 H 699.466 4.15111 0.446037 0
M  V30 7738 H 700.856 5.91264 -3.1915 0
M  V30 7739 N 703.576 0.692616 1.41565 0
M  V30 7740 C 704.801 0.229776 2.06123 0
M  V30 7741 C 705.226 -1.11119 1.5177 0
M  V30 7742 O 704.584 -1.69498 0.643444 0
M  V30 7743 C 704.632 0.19469 3.60074 0
M  V30 7744 O 703.736 -0.831366 4.03933 0
M  V30 7745 H 703.077 0.113002 0.654314 0
M  V30 7746 H 705.607 0.946645 1.81383 0
M  V30 7747 H 705.617 0.0245487 4.07993 0
M  V30 7748 H 704.292 1.17339 3.99004 0
M  V30 7749 H 702.869 -0.630819 3.67526 0
M  V30 7750 N 705.054 -1.51416 0.437162 0
M  V30 7751 C 706.301 -2.02086 -0.129364 0
M  V30 7752 C 706.629 -1.32133 -1.42728 0
M  V30 7753 O 705.884 -0.424916 -1.91031 0
M  V30 7754 C 706.183 -3.55203 -0.39564 0
M  V30 7755 C 705.849 -4.43447 0.81644 0
M  V30 7756 C 704.511 -4.67285 1.14884 0
M  V30 7757 C 706.863 -4.95219 1.62503 0
M  V30 7758 C 704.191 -5.40141 2.29052 0
M  V30 7759 C 706.543 -5.69327 2.7577 0
M  V30 7760 C 705.207 -5.91429 3.09464 0
M  V30 7761 H 704.477 -0.739486 -0.0473375 0
M  V30 7762 H 707.124 -1.82368 0.584321 0
M  V30 7763 H 705.429 -3.73252 -1.19121 0
M  V30 7764 H 707.126 -3.91944 -0.847399 0
M  V30 7765 H 703.716 -4.2509 0.547422 0
M  V30 7766 H 707.9 -4.76686 1.38144 0
M  V30 7767 H 703.156 -5.55468 2.55471 0
M  V30 7768 H 707.33 -6.08433 3.38795 0
M  V30 7769 H 704.957 -6.47662 3.98042 0
M  V30 7770 N 706.532 -0.168513 -1.56696 0
M  V30 7771 C 707.779 0.477158 -1.96798 0
M  V30 7772 C 708.107 1.63442 -1.05437 0
M  V30 7773 O 707.362 1.95503 -0.0878903 0
M  V30 7774 C 707.661 1.00441 -3.42996 0
M  V30 7775 C 707.327 -0.0366556 -4.50885 0
M  V30 7776 C 705.989 -0.322785 -4.80116 0
M  V30 7777 C 708.341 -0.743447 -5.1587 0
M  V30 7778 C 705.669 -1.32114 -5.71632 0
M  V30 7779 C 708.021 -1.73077 -6.08463 0
M  V30 7780 C 706.685 -2.02437 -6.36062 0
M  V30 7781 H 705.955 0.174604 -0.720135 0
M  V30 7782 H 708.602 -0.259884 -1.89728 0
M  V30 7783 H 706.907 1.81922 -3.47004 0
M  V30 7784 H 708.604 1.51294 -3.71364 0
M  V30 7785 H 705.194 0.196532 -4.28149 0
M  V30 7786 H 709.378 -0.535602 -4.93401 0
M  V30 7787 H 704.634 -1.55482 -5.913 0
M  V30 7788 H 708.808 -2.28382 -6.57886 0
M  V30 7789 H 706.435 -2.79946 -7.06777 0
M  V30 7790 N 708.01 1.57248 0.105221 0
M  V30 7791 C 708.957 2.01338 1.12835 0
M  V30 7792 C 709.927 0.887897 1.40377 0
M  V30 7793 O 711.112 1.15315 1.5201 0
M  V30 7794 C 708.252 2.43432 2.44611 0
M  V30 7795 C 707.365 3.69457 2.23888 0
M  V30 7796 C 706.5 4.00473 3.48991 0
M  V30 7797 C 705.539 5.19638 3.23485 0
M  V30 7798 N 704.676 5.46457 4.40828 0
M  V30 7799 H 709.516 2.88527 0.745386 0
M  V30 7800 H 707.053 1.42714 0.356535 0
M  V30 7801 H 709.011 2.65879 3.21503 0
M  V30 7802 H 707.641 1.59266 2.80774 0
M  V30 7803 H 706.693 3.54545 1.37847 0
M  V30 7804 H 708.005 4.56497 2.01026 0
M  V30 7805 H 707.159 4.23642 4.34295 0
M  V30 7806 H 705.898 3.11935 3.74897 0
M  V30 7807 H 704.903 4.96299 2.36574 0
M  V30 7808 H 706.128 6.09766 2.98935 0
M  V30 7809 H 704.074 4.60876 4.66829 0
M  V30 7810 H 703.991 6.27849 4.2112 0
M  V30 7811 H 705.259 5.74155 5.27225 0
M  V30 7812 N 709.488 -0.375779 1.53054 0
M  V30 7813 C 710.435 -1.45978 1.78771 0
M  V30 7814 C 711.405 -1.53625 0.631552 0
M  V30 7815 O 712.59 -1.69674 0.872667 0
M  V30 7816 C 709.73 -2.8305 1.97425 0
M  V30 7817 C 708.843 -2.84451 3.25134 0
M  V30 7818 C 707.978 -4.13034 3.34031 0
M  V30 7819 C 707.017 -4.08536 4.55812 0
M  V30 7820 N 706.154 -5.2875 4.61918 0
M  V30 7821 H 710.994 -1.23349 2.71273 0
M  V30 7822 H 708.531 -0.598147 1.3439 0
M  V30 7823 H 710.489 -3.62666 2.06225 0
M  V30 7824 H 709.119 -3.04101 1.0827 0
M  V30 7825 H 708.171 -1.97127 3.25338 0
M  V30 7826 H 709.483 -2.76998 4.14818 0
M  V30 7827 H 708.637 -5.0106 3.42087 0
M  V30 7828 H 707.376 -4.23226 2.42345 0
M  V30 7829 H 706.381 -3.18897 4.47867 0
M  V30 7830 H 707.606 -3.99955 5.48828 0
M  V30 7831 H 705.552 -5.39547 3.73129 0
M  V30 7832 H 705.469 -5.23426 5.45492 0
M  V30 7833 H 706.737 -6.18637 4.74245 0
M  V30 7834 N 710.966 -1.44241 -0.634997 0
M  V30 7835 C 712.194 -1.50296 -1.42193 0
M  V30 7836 C 712.609 -0.12658 -1.88375 0
M  V30 7837 O 711.966 0.86678 -1.60603 0
M  V30 7838 C 712.017 -2.46437 -2.64482 0
M  V30 7839 O 711.738 -3.78724 -2.20226 0
M  V30 7840 C 713.239 -2.61918 -3.57651 0
M  V30 7841 H 710.459 -0.509865 -0.43621 0
M  V30 7842 H 713.003 -1.89167 -0.776921 0
M  V30 7843 H 711.158 -2.10712 -3.25083 0
M  V30 7844 H 711.572 -4.30595 -2.9948 0
M  V30 7845 H 713.046 -3.33225 -4.40074 0
M  V30 7846 H 713.523 -1.67017 -4.06204 0
M  V30 7847 H 714.129 -2.98528 -3.02921 0
M  V30 7848 N 712.444 0.87505 -1.31075 0
M  V30 7849 C 713.407 1.96333 -1.18263 0
M  V30 7850 C 714.407 1.60416 -0.111106 0
M  V30 7851 O 715.597 1.7044 -0.359987 0
M  V30 7852 C 712.729 3.31036 -0.81414 0
M  V30 7853 H 713.922 2.09125 -2.14958 0
M  V30 7854 H 711.475 1.06271 -1.14614 0
M  V30 7855 H 712.21 3.23944 0.151875 0
M  V30 7856 H 711.995 3.58476 -1.58862 0
M  V30 7857 H 713.485 4.10842 -0.748249 0
M  V30 7858 N 713.922 1.13953 1.08869 0
M  V30 7859 C 715.199 0.815768 1.77777 0
M  V30 7860 C 715.579 -0.691624 1.99449 0
M  V30 7861 O 714.927 -1.63085 1.60049 0
M  V30 7862 C 715.137 1.60916 3.09689 0
M  V30 7863 C 716.485 1.80549 3.84301 0
M  V30 7864 O 717.509 1.57562 3.19457 0
M  V30 7865 O 716.368 2.18946 5.00724 0
M  V30 7866 H 713.462 0.298445 0.771271 0
M  V30 7867 H 716.008 1.24446 1.15374 0
M  V30 7868 H 714.78 2.6333 2.89435 0
M  V30 7869 H 714.403 1.17578 3.79817 0
M  V30 7870 N 715.4 -1.26948 0.933913 0
M  V30 7871 C 716.31 -2.30366 0.443671 0
M  V30 7872 C 717.326 -1.67284 -0.478745 0
M  V30 7873 O 718.502 -1.98156 -0.360043 0
M  V30 7874 C 715.567 -3.45485 -0.289974 0
M  V30 7875 C 714.628 -4.24069 0.668114 0
M  V30 7876 C 713.861 -5.33691 -0.0306138 0
M  V30 7877 O 714.084 -5.5656 -1.24888 0
M  V30 7878 O 713.018 -5.98441 0.644384 0
M  V30 7879 H 716.844 -2.74349 1.30254 0
M  V30 7880 H 714.429 -1.32012 0.699506 0
M  V30 7881 H 716.311 -4.15486 -0.70353 0
M  V30 7882 H 714.986 -3.03546 -1.12435 0
M  V30 7883 H 713.893 -3.56579 1.13147 0
M  V30 7884 H 715.226 -4.69739 1.46989 0
M  V30 7885 N 716.879 -0.700114 -1.41195 0
M  V30 7886 C 718.127 -0.232546 -2.00758 0
M  V30 7887 C 718.448 1.1734 -1.55745 0
M  V30 7888 O 717.718 1.79262 -0.790058 0
M  V30 7889 H 716.298 -0.0829845 -0.742376 0
M  V30 7890 H 718.96 -0.902289 -1.72756 0
M  V30 7891 H 718.056 -0.253521 -3.11069 0
M  V30 7892 N 718.357 1.51182 -0.445186 0
M  V30 7893 C 719.585 2.06568 0.117091 0
M  V30 7894 C 720 1.31182 1.35781 0
M  V30 7895 O 719.357 0.373605 1.78635 0
M  V30 7896 C 719.408 3.58917 0.431408 0
M  V30 7897 O 719.129 4.31456 -0.760078 0
M  V30 7898 C 720.63 4.30843 1.0435 0
M  V30 7899 H 717.85 0.670985 0.00444436 0
M  V30 7900 H 720.394 1.94666 -0.626525 0
M  V30 7901 H 718.549 3.70708 1.12493 0
M  V30 7902 H 718.963 5.22215 -0.489048 0
M  V30 7903 H 720.437 5.38499 1.21337 0
M  V30 7904 H 720.914 3.89644 2.02667 0
M  V30 7905 H 721.52 4.23516 0.38913 0
M  V30 7906 N 719.835 0.176821 1.56605 0
M  V30 7907 C 720.783 -0.768159 2.1955 0
M  V30 7908 C 721.777 -1.23343 1.16116 0
M  V30 7909 O 722.983 -1.19844 1.34303 0
M  V30 7910 H 719.358 -0.266013 0.703378 0
M  V30 7911 H 721.329 -0.213374 2.97636 0
M  V30 7912 C 720.078 -1.98492 2.85475 0
M  V30 7913 H 719.401 -1.63595 3.64797 0
M  V30 7914 H 720.841 -2.62489 3.3298 0
M  V30 7915 C 719.3 -2.81207 1.85538 0
M  V30 7916 O 719.83 -3.7854 1.34427 0
M  V30 7917 N 718.036 -2.46331 1.54173 0
M  V30 7918 H 717.583 -1.67241 1.95929 0
M  V30 7919 H 717.541 -3.01961 0.875595 0
M  V30 7920 N 721.313 -1.57302 -0.09688 0
M  V30 7921 C 722.541 -1.90202 -0.814295 0
M  V30 7922 C 722.956 -0.770344 -1.72369 0
M  V30 7923 O 722.313 0.257764 -1.8067 0
M  V30 7924 C 722.364 -3.22708 -1.62916 0
M  V30 7925 O 722.085 -4.31522 -0.756343 0
M  V30 7926 C 723.586 -3.69459 -2.44979 0
M  V30 7927 H 720.806 -0.629275 -0.232925 0
M  V30 7928 H 723.35 -2.04364 -0.0746482 0
M  V30 7929 H 721.505 -3.1015 -2.32133 0
M  V30 7930 H 721.919 -5.07604 -1.32054 0
M  V30 7931 H 723.393 -4.64875 -2.9765 0
M  V30 7932 H 723.87 -2.97211 -3.23361 0
M  V30 7933 H 724.476 -3.84879 -1.80964 0
M  V30 7934 N 722.791 0.367657 -1.53252 0
M  V30 7935 C 724.016 1.13566 -1.73544 0
M  V30 7936 C 724.441 1.82329 -0.462344 0
M  V30 7937 O 723.799 1.71655 0.583472 0
M  V30 7938 C 723.847 2.14322 -2.89997 0
M  V30 7939 O 722.951 3.21359 -2.58461 0
M  V30 7940 H 722.292 0.329614 -0.576412 0
M  V30 7941 H 724.822 0.425417 -2.00128 0
M  V30 7942 H 724.832 2.57958 -3.16104 0
M  V30 7943 H 723.507 1.63664 -3.82344 0
M  V30 7944 H 722.084 2.8271 -2.43165 0
M  V30 7945 N 724.269 1.44576 0.627338 0
M  V30 7946 C 725.217 1.52039 1.76031 0
M  V30 7947 C 726.211 0.391796 1.64807 0
M  V30 7948 O 727.417 0.5669 1.7084 0
M  V30 7949 H 723.792 0.477165 0.581221 0
M  V30 7950 H 725.763 2.47387 1.6686 0
M  V30 7951 C 724.512 1.48539 3.14375 0
M  V30 7952 H 723.835 2.34699 3.23661 0
M  V30 7953 H 725.275 1.57821 3.93534 0
M  V30 7954 C 723.734 0.20672 3.36265 0
M  V30 7955 O 724.264 -0.72154 3.95167 0
M  V30 7956 N 722.47 0.108654 2.90397 0
M  V30 7957 H 722.017 0.864884 2.42647 0
M  V30 7958 H 721.975 -0.746121 3.05418 0
M  V30 7959 N 725.747 -0.868086 1.31537 0
M  V30 7960 C 726.972 -1.65926 1.24432 0
M  V30 7961 C 727.397 -1.87169 -0.186936 0
M  V30 7962 O 726.755 -1.4148 -1.13371 0
M  V30 7963 C 726.803 -3.00347 1.9956 0
M  V30 7964 O 725.907 -3.90221 1.33422 0
M  V30 7965 H 725.248 -0.506375 0.429512 0
M  V30 7966 H 727.778 -1.0822 1.73637 0
M  V30 7967 H 727.788 -3.50269 2.09226 0
M  V30 7968 H 726.463 -2.84205 3.03645 0
M  V30 7969 H 725.04 -3.48672 1.32219 0
M  V30 7970 N 727.225 -1.14528 -1.08264 0
M  V30 7971 C 728.471 -0.91576 -1.80947 0
M  V30 7972 C 728.804 0.55623 -1.86064 0
M  V30 7973 O 728.079 1.41207 -1.33756 0
M  V30 7974 C 728.362 -1.51917 -3.26486 0
M  V30 7975 C 728.215 -3.06111 -3.2957 0
M  V30 7976 C 729.534 -1.19724 -4.23502 0
M  V30 7977 H 726.653 -0.334113 -0.656915 0
M  V30 7978 H 729.295 -1.41547 -1.26746 0
M  V30 7979 H 727.445 -1.0942 -3.72773 0
M  V30 7980 H 729.117 -3.57448 -2.91597 0
M  V30 7981 H 727.36 -3.40483 -2.688 0
M  V30 7982 H 728.031 -3.43438 -4.32151 0
M  V30 7983 H 730.507 -1.56467 -3.85561 0
M  V30 7984 H 729.383 -1.64575 -5.23647 0
M  V30 7985 H 729.644 -0.112771 -4.41956 0
M  V30 7986 N 728.703 1.26451 -0.940633 0
M  V30 7987 C 729.928 1.98407 -0.60412 0
M  V30 7988 C 730.353 1.69584 0.81382 0
M  V30 7989 O 729.711 0.943553 1.54812 0
M  V30 7990 C 729.759 3.50387 -0.852136 0
M  V30 7991 O 728.863 4.1233 0.076013 0
M  V30 7992 H 728.204 0.622466 -0.231153 0
M  V30 7993 H 730.734 1.60932 -1.26342 0
M  V30 7994 H 730.744 4.00614 -0.772816 0
M  V30 7995 H 729.419 3.70696 -1.88566 0
M  V30 7996 H 727.996 3.7286 -0.0543187 0
M  V30 7997 N 730.181 0.707592 1.40822 0
M  V30 7998 C 731.409 0.253073 2.05346 0
M  V30 7999 C 731.824 -1.10218 1.53289 0
M  V30 8000 O 731.181 -1.69112 0.686105 0
M  V30 8001 C 731.232 0.215411 3.60858 0
M  V30 8002 O 730.953 1.51714 4.10992 0
M  V30 8003 C 732.454 -0.258636 4.42545 0
M  V30 8004 H 729.674 0.115256 0.661027 0
M  V30 8005 H 732.218 0.963555 1.80377 0
M  V30 8006 H 730.373 -0.445978 3.84824 0
M  V30 8007 H 730.787 1.41226 5.05129 0
M  V30 8008 H 732.261 -0.233849 5.51504 0
M  V30 8009 H 732.738 -1.2995 4.19535 0
M  V30 8010 H 733.344 0.372186 4.23668 0
M  V30 8011 N 731.66 -1.50943 0.453197 0
M  V30 8012 C 732.885 -2.07116 -0.108463 0
M  V30 8013 C 733.31 -1.31681 -1.3432 0
M  V30 8014 O 732.668 -0.359256 -1.77705 0
M  V30 8015 C 732.716 -3.58447 -0.393424 0
M  V30 8016 O 731.82 -3.85038 -1.47714 0
M  V30 8017 H 731.161 -0.66398 0.0050993 0
M  V30 8018 H 733.691 -1.94362 0.639095 0
M  V30 8019 H 733.701 -4.02961 -0.639222 0
M  V30 8020 H 732.376 -4.12774 0.508946 0
M  V30 8021 H 730.953 -3.52376 -1.22006 0
M  V30 8022 N 733.138 -0.185124 -1.56509 0
M  V30 8023 C 734.549 0.329221 -1.83774 0
M  V30 8024 C 734.9 1.62093 -1.10545 0
M  V30 8025 O 734.025 2.13334 -0.36298 0
M  V30 8026 C 734.62 0.604099 -3.33371 0
M  V30 8027 C 733.179 1.06284 -3.61083 0
M  V30 8028 C 732.326 0.10608 -2.77097 0
M  V30 8029 H 735.277 -0.409116 -1.53336 0
M  V30 8030 H 735.298 1.45458 -3.51599 0
M  V30 8031 H 734.81 -0.336201 -3.86641 0
M  V30 8032 H 732.911 2.01777 -3.13236 0
M  V30 8033 H 733.024 0.962453 -4.69333 0
M  V30 8034 H 731.388 0.606082 -2.47384 0
M  V30 8035 H 732.171 -0.828486 -3.33153 0
M  V30 8036 N 734.616 1.57351 0.0885366 0
M  V30 8037 C 735.579 2.01557 1.09121 0
M  V30 8038 C 736.579 0.910052 1.3257 0
M  V30 8039 O 737.769 1.17537 1.28572 0
M  V30 8040 C 734.901 2.38189 2.43883 0
M  V30 8041 H 736.094 2.91361 0.710562 0
M  V30 8042 H 733.647 1.52694 0.333779 0
M  V30 8043 H 734.382 1.5136 2.86811 0
M  V30 8044 H 734.167 3.18846 2.28209 0
M  V30 8045 H 735.657 2.73025 3.15986 0
M  V30 8046 N 736.094 -0.359525 1.53444 0
M  V30 8047 C 737.027 -1.46338 1.75101 0
M  V30 8048 C 738.005 -1.51142 0.599559 0
M  V30 8049 O 739.189 -1.69102 0.832862 0
M  V30 8050 C 736.316 -2.84667 1.83527 0
M  V30 8051 C 735.362 -2.9756 3.05549 0
M  V30 8052 S 736.195 -2.65685 4.64943 0
M  V30 8053 C 737.351 -4.06153 4.76225 0
M  V30 8054 H 737.584 -1.27747 2.68455 0
M  V30 8055 H 735.117 -0.554231 1.4411 0
M  V30 8056 H 737.075 -3.64368 1.89067 0
M  V30 8057 H 735.736 -3.00564 0.912147 0
M  V30 8058 H 734.929 -3.98883 3.08072 0
M  V30 8059 H 734.531 -2.25789 2.98153 0
M  V30 8060 H 736.823 -5.00475 4.56652 0
M  V30 8061 H 737.766 -4.08632 5.78295 0
M  V30 8062 H 738.174 -3.93435 4.04808 0
M  V30 8063 N 737.572 -1.44907 -0.619662 0
M  V30 8064 C 738.482 -1.55168 -1.75955 0
M  V30 8065 C 739.498 -0.43672 -1.6843 0
M  V30 8066 O 740.674 -0.695704 -1.89002 0
M  V30 8067 C 737.739 -1.50397 -3.12381 0
M  V30 8068 C 736.8 -2.72835 -3.31451 0
M  V30 8069 C 736.033 -2.68283 -4.61368 0
M  V30 8070 O 736.256 -1.74929 -5.42914 0
M  V30 8071 O 735.19 -3.59308 -4.82889 0
M  V30 8072 H 739.016 -2.51493 -1.7025 0
M  V30 8073 H 736.601 -1.27282 -0.782289 0
M  V30 8074 H 738.483 -1.50301 -3.93685 0
M  V30 8075 H 737.158 -0.572197 -3.18603 0
M  V30 8076 H 736.065 -2.78496 -2.49781 0
M  V30 8077 H 737.398 -3.65098 -3.30098 0
M  V30 8078 N 739.05 0.861098 -1.31996 0
M  V30 8079 C 739.982 1.97551 -1.16216 0
M  V30 8080 C 740.995 1.625 -0.0988527 0
M  V30 8081 O 742.184 1.75091 -0.3472 0
M  V30 8082 C 739.284 3.30376 -0.755307 0
M  V30 8083 C 738.457 3.93711 -1.90552 0
M  V30 8084 C 737.516 5.04862 -1.48328 0
M  V30 8085 O 736.542 5.25204 -2.19431 0
M  V30 8086 N 737.744 5.79283 -0.375656 0
M  V30 8087 H 740.509 2.11632 -2.12208 0
M  V30 8088 H 738.07 1.03559 -1.24448 0
M  V30 8089 H 740.062 4.0213 -0.455364 0
M  V30 8090 H 738.632 3.12395 0.113269 0
M  V30 8091 H 737.852 3.14825 -2.37231 0
M  V30 8092 H 739.14 4.32762 -2.67571 0
M  V30 8093 H 738.538 5.65286 0.216284 0
M  V30 8094 H 737.095 6.5166 -0.135289 0
M  V30 8095 N 740.528 1.15101 1.07655 0
M  V30 8096 C 741.753 0.948177 1.84457 0
M  V30 8097 C 742.178 -0.498432 1.81376 0
M  V30 8098 O 741.536 -1.35509 1.20445 0
M  V30 8099 C 741.584 1.46318 3.29581 0
M  V30 8100 O 740.688 0.660342 4.07079 0
M  V30 8101 H 740.029 0.338428 0.571281 0
M  V30 8102 H 742.559 1.5301 1.35828 0
M  V30 8103 H 742.569 1.47468 3.80417 0
M  V30 8104 H 741.244 2.51635 3.31138 0
M  V30 8105 H 739.821 0.718216 3.65918 0
M  V30 8106 N 742.006 -1.2595 0.947325 0
M  V30 8107 C 742.938 -2.25336 0.41906 0
M  V30 8108 C 743.951 -1.56135 -0.461051 0
M  V30 8109 O 745.14 -1.76438 -0.270505 0
M  V30 8110 C 742.24 -3.36334 -0.416233 0
M  V30 8111 C 741.413 -4.35088 0.449162 0
M  V30 8112 C 740.472 -5.25185 -0.326716 0
M  V30 8113 O 739.498 -5.68548 0.272374 0
M  V30 8114 N 740.7 -5.57388 -1.6217 0
M  V30 8115 H 743.465 -2.71298 1.27348 0
M  V30 8116 H 741.026 -1.39781 0.81688 0
M  V30 8117 H 743.018 -3.93564 -0.942826 0
M  V30 8118 H 741.588 -2.89819 -1.17148 0
M  V30 8119 H 740.808 -3.76841 1.15692 0
M  V30 8120 H 742.096 -4.98056 1.04008 0
M  V30 8121 H 741.494 -5.2405 -2.13046 0
M  V30 8122 H 740.051 -6.17234 -2.0944 0
M  V30 8123 N 743.484 -0.715051 -1.40445 0
M  V30 8124 C 744.709 -0.26254 -2.05732 0
M  V30 8125 C 745.134 1.08691 -1.53519 0
M  V30 8126 O 744.492 1.68453 -0.670328 0
M  V30 8127 C 744.54 -0.25195 -3.59719 0
M  V30 8128 O 743.644 0.766998 -4.05205 0
M  V30 8129 H 742.985 -0.123398 -0.652433 0
M  V30 8130 H 745.515 -0.975382 -1.79854 0
M  V30 8131 H 745.525 -0.0894537 -4.07902 0
M  V30 8132 H 744.2 -1.23672 -3.97087 0
M  V30 8133 H 742.777 0.572269 -3.68483 0
M  V30 8134 N 744.962 1.50701 -0.461195 0
M  V30 8135 C 746.187 2.07171 0.0974773 0
M  V30 8136 C 746.612 1.32391 1.3362 0
M  V30 8137 O 745.97 0.368676 1.77512 0
M  V30 8138 C 746.018 3.58651 0.374409 0
M  V30 8139 O 745.122 3.85816 1.4567 0
M  V30 8140 H 744.463 0.663944 -0.00862047 0
M  V30 8141 H 746.993 1.94021 -0.649394 0
M  V30 8142 H 747.003 4.03295 0.617843 0
M  V30 8143 H 745.678 4.12498 -0.530829 0
M  V30 8144 H 744.255 3.53018 1.20136 0
M  V30 8145 N 746.441 0.193421 1.56409 0
M  V30 8146 C 747.689 -0.444908 1.97142 0
M  V30 8147 C 748.01 -1.62268 1.08139 0
M  V30 8148 O 747.28 -1.95307 0.152326 0
M  V30 8149 H 745.86 -0.16736 0.728011 0
M  V30 8150 H 748.522 0.279763 1.92882 0
M  V30 8151 H 747.618 -0.790159 3.01932 0
M  V30 8152 N 747.919 -1.57396 -0.0801906 0
M  V30 8153 C 749.147 -1.91055 -0.794075 0
M  V30 8154 C 749.562 -0.788583 -1.71542 0
M  V30 8155 O 748.919 0.238587 -1.80934 0
M  V30 8156 C 748.97 -3.24418 -1.59484 0
M  V30 8157 O 748.691 -4.323 -0.710532 0
M  V30 8158 C 750.192 -3.72037 -2.41046 0
M  V30 8159 H 747.412 -0.63171 -0.226238 0
M  V30 8160 H 749.956 -2.04431 -0.0529685 0
M  V30 8161 H 748.111 -3.12595 -2.2883 0
M  V30 8162 H 748.525 -5.08976 -1.26663 0
M  V30 8163 H 749.999 -4.68006 -2.92702 0
M  V30 8164 H 750.476 -3.00624 -3.2019 0
M  V30 8165 H 751.082 -3.86777 -1.76871 0
M  V30 8166 N 749.397 0.351382 -1.53633 0
M  V30 8167 C 750.625 1.11275 -1.74429 0
M  V30 8168 C 751.04 1.82602 -0.479798 0
M  V30 8169 O 750.397 1.74074 0.548125 0
M  V30 8170 C 750.448 2.13223 -2.91921 0
M  V30 8171 O 750.169 1.44798 -4.13479 0
M  V30 8172 C 751.67 3.01797 -3.24706 0
M  V30 8173 H 748.89 0.332153 -0.583023 0
M  V30 8174 H 751.434 0.405974 -2.0043 0
M  V30 8175 H 749.589 2.79477 -2.68274 0
M  V30 8176 H 750.003 2.12839 -4.79374 0
M  V30 8177 H 751.477 3.69282 -4.10286 0
M  V30 8178 H 751.954 3.67387 -2.40673 0
M  V30 8179 H 752.56 2.41141 -3.5033 0
M  V30 8180 N 750.875 1.45233 0.611969 0
M  V30 8181 C 752.1 1.52767 1.40274 0
M  V30 8182 C 752.525 0.159701 1.87421 0
M  V30 8183 O 751.883 -0.854837 1.59882 0
M  V30 8184 C 751.931 2.51286 2.58626 0
M  V30 8185 O 751.035 2.02764 3.59111 0
M  V30 8186 H 750.376 0.515141 0.418958 0
M  V30 8187 H 752.906 1.90547 0.745188 0
M  V30 8188 H 752.916 2.69949 3.05927 0
M  V30 8189 H 751.591 3.50641 2.23659 0
M  V30 8190 H 750.168 1.93957 3.18489 0
M  V30 8191 N 752.353 -0.854086 1.3245 0
M  V30 8192 C 753.578 -1.64597 1.26185 0
M  V30 8193 C 754.003 -1.87357 -0.167074 0
M  V30 8194 O 753.361 -1.42675 -1.11864 0
M  V30 8195 C 753.409 -2.98213 2.02734 0
M  V30 8196 O 752.513 -3.88784 1.37554 0
M  V30 8197 H 751.854 -0.50179 0.434859 0
M  V30 8198 H 754.384 -1.06372 1.74775 0
M  V30 8199 H 754.394 -3.4803 2.1293 0
M  V30 8200 H 753.069 -2.80969 3.06642 0
M  V30 8201 H 751.646 -3.4725 1.3591 0
M  V30 8202 N 753.831 -1.1567 -1.07043 0
M  V30 8203 C 755.059 -0.957471 -1.83412 0
M  V30 8204 C 755.474 0.494271 -1.82215 0
M  V30 8205 O 754.831 1.34288 -1.23584 0
M  V30 8206 C 754.882 -1.46784 -3.30359 0
M  V30 8207 O 754.603 -2.86271 -3.31633 0
M  V30 8208 C 756.104 -1.31054 -4.23485 0
M  V30 8209 H 753.324 -0.33986 -0.578564 0
M  V30 8210 H 755.868 -1.53518 -1.35102 0
M  V30 8211 H 754.023 -0.932586 -3.76007 0
M  V30 8212 H 754.437 -3.0948 -4.23465 0
M  V30 8213 H 755.911 -1.71605 -5.24648 0
M  V30 8214 H 756.388 -0.255107 -4.38458 0
M  V30 8215 H 756.994 -1.83503 -3.83676 0
M  V30 8216 N 755.309 1.25446 -0.953992 0
M  V30 8217 C 756.534 1.97755 -0.625129 0
M  V30 8218 C 756.959 1.70437 0.795787 0
M  V30 8219 O 756.317 0.95992 1.53803 0
M  V30 8220 C 756.365 3.49463 -0.889251 0
M  V30 8221 O 755.469 4.12387 0.0322757 0
M  V30 8222 H 754.81 0.61998 -0.237742 0
M  V30 8223 H 757.34 1.59582 -1.28041 0
M  V30 8224 H 757.35 3.99772 -0.815263 0
M  V30 8225 H 756.025 3.68676 -1.92487 0
M  V30 8226 H 754.602 3.72782 -0.0938625 0
M  V30 8227 N 756.787 0.722489 1.40064 0
M  V30 8228 C 758.012 0.273446 2.05589 0
M  V30 8229 C 758.437 -1.07875 1.54093 0
M  V30 8230 O 757.795 -1.68095 0.679252 0
M  V30 8231 C 757.843 0.271023 3.5958 0
M  V30 8232 O 756.947 -0.745499 4.05606 0
M  V30 8233 H 756.288 0.126856 0.65177 0
M  V30 8234 H 758.818 0.984906 1.79334 0
M  V30 8235 H 758.828 0.111084 4.07849 0
M  V30 8236 H 757.503 1.25776 3.96425 0
M  V30 8237 H 756.08 -0.552719 3.68781 0
M  V30 8238 N 758.265 -1.50454 0.469181 0
M  V30 8239 C 759.49 -2.0722 -0.0864892 0
M  V30 8240 C 759.915 -1.33098 -1.32916 0
M  V30 8241 O 759.273 -0.378084 -1.77314 0
M  V30 8242 C 759.321 -3.58845 -0.355384 0
M  V30 8243 O 758.425 -3.86583 -1.43622 0
M  V30 8244 H 757.766 -0.663889 0.0121414 0
M  V30 8245 H 760.296 -1.93674 0.659674 0
M  V30 8246 H 760.306 -4.03617 -0.596447 0
M  V30 8247 H 758.981 -4.12211 0.552698 0
M  V30 8248 H 757.558 -3.5365 -1.18262 0
M  V30 8249 N 759.743 -0.201713 -1.56304 0
M  V30 8250 C 760.968 0.443815 -2.02596 0
M  V30 8251 C 761.393 1.53945 -1.08086 0
M  V30 8252 O 760.751 1.81182 -0.0655056 0
M  V30 8253 C 760.799 0.971066 -3.47279 0
M  V30 8254 O 759.903 2.0836 -3.55893 0
M  V30 8255 H 759.244 0.10294 -0.655972 0
M  V30 8256 H 761.774 -0.314533 -2.02168 0
M  V30 8257 H 761.784 1.28598 -3.87204 0
M  V30 8258 H 760.459 0.169048 -4.15556 0
M  V30 8259 H 759.036 1.77683 -3.27846 0
M  V30 8260 N 761.222 1.57436 0.0718424 0
M  V30 8261 C 762.47 1.86878 0.769484 0
M  V30 8262 C 762.791 0.7937 1.78116 0
M  V30 8263 O 762.061 -0.177642 1.95093 0
M  V30 8264 H 760.641 0.689593 0.287177 0
M  V30 8265 H 763.303 1.94841 0.0479427 0
M  V30 8266 H 762.399 2.84387 1.28572 0
M  V30 8267 N 762.7 -0.34323 1.53817 0
M  V30 8268 C 763.948 -1.0813 1.70741 0
M  V30 8269 C 764.269 -1.89165 0.473461 0
M  V30 8270 O 763.539 -1.89075 -0.512605 0
M  V30 8271 H 762.119 -0.40219 0.629486 0
M  V30 8272 H 764.781 -0.384426 1.91071 0
M  V30 8273 H 763.877 -1.7585 2.57843 0
M  V30 8274 N 764.178 -1.45556 -0.604258 0
M  V30 8275 C 765.403 -1.53509 -1.39462 0
M  V30 8276 C 765.828 -0.169638 -1.87333 0
M  V30 8277 O 765.186 0.846346 -1.60333 0
M  V30 8278 C 765.234 -2.52654 -2.5729 0
M  V30 8279 O 764.338 -2.04666 -3.5803 0
M  V30 8280 H 763.679 -0.517355 -0.416221 0
M  V30 8281 H 766.209 -1.90939 -0.735072 0
M  V30 8282 H 766.219 -2.71568 -3.04491 0
M  V30 8283 H 764.894 -3.51823 -2.21797 0
M  V30 8284 H 763.471 -1.95643 -3.17456 0
M  V30 8285 N 765.656 0.84705 -1.32902 0
M  V30 8286 C 766.881 1.63925 -1.27056 0
M  V30 8287 C 767.306 1.87443 0.157136 0
M  V30 8288 O 766.664 1.43266 1.11106 0
M  V30 8289 C 766.712 2.97134 -2.04313 0
M  V30 8290 O 765.816 3.88049 -1.39614 0
M  V30 8291 H 765.157 0.499477 -0.437514 0
M  V30 8292 H 767.687 1.05443 -1.75336 0
M  V30 8293 H 767.697 3.46896 -2.14772 0
M  V30 8294 H 766.372 2.79339 -3.08128 0
M  V30 8295 H 764.949 3.46525 -1.3775 0
M  V30 8296 N 767.134 1.16236 1.06428 0
M  V30 8297 C 768.382 0.941171 1.78847 0
M  V30 8298 C 768.703 -0.53248 1.87589 0
M  V30 8299 O 767.973 -1.38686 1.38358 0
M  V30 8300 H 766.553 0.345228 0.66244 0
M  V30 8301 H 769.215 1.46479 1.28569 0
M  V30 8302 H 768.311 1.35871 2.80972 0
M  V30 8303 N 768.612 -1.24939 0.960631 0
M  V30 8304 C 769.84 -1.96881 0.636045 0
M  V30 8305 C 770.255 -1.71334 -0.793093 0
M  V30 8306 O 769.612 -0.992917 -1.53125 0
M  V30 8307 C 769.663 -3.50309 0.892533 0
M  V30 8308 O 769.384 -3.74977 2.26548 0
M  V30 8309 C 770.885 -4.39474 0.581159 0
M  V30 8310 H 768.105 -0.627399 0.237931 0
M  V30 8311 H 770.649 -1.58952 1.28664 0
M  V30 8312 H 768.804 -3.86326 0.288257 0
M  V30 8313 H 769.218 -4.69401 2.34014 0
M  V30 8314 H 770.692 -5.46008 0.811125 0
M  V30 8315 H 771.169 -4.3652 -0.48443 0
M  V30 8316 H 771.775 -4.09032 1.16502 0
M  V30 8317 N 770.09 -0.729906 -1.39679 0
M  V30 8318 C 771.315 -0.284345 -2.05442 0
M  V30 8319 C 771.74 1.07056 -1.54663 0
M  V30 8320 O 771.098 1.67732 -0.688157 0
M  V30 8321 C 771.146 -0.290089 -3.59431 0
M  V30 8322 O 770.25 0.723978 -4.05995 0
M  V30 8323 H 769.591 -0.130311 -0.651088 0
M  V30 8324 H 772.121 -0.994403 -1.78809 0
M  V30 8325 H 772.131 -0.132712 -4.07784 0
M  V30 8326 H 770.806 -1.27877 -3.95753 0
M  V30 8327 H 769.383 0.533154 -3.69069 0
M  V30 8328 N 771.568 1.50203 -0.477153 0
M  V30 8329 C 772.516 2.30278 0.327826 0
M  V30 8330 C 773.51 1.37831 0.984839 0
M  V30 8331 O 774.716 1.54994 0.915251 0
M  V30 8332 H 771.091 0.741612 0.124564 0
M  V30 8333 H 773.062 2.96124 -0.367853 0
M  V30 8334 C 771.811 3.18548 1.39365 0
M  V30 8335 H 771.134 3.89596 0.897475 0
M  V30 8336 H 772.574 3.77561 1.92934 0
M  V30 8337 C 771.033 2.36548 2.39889 0
M  V30 8338 O 771.563 2.05282 3.45286 0
M  V30 8339 N 769.769 1.99015 2.11758 0
M  V30 8340 H 769.316 2.24641 1.26071 0
M  V30 8341 H 769.274 1.44454 2.7925 0
M  V30 8342 N 773.046 0.209999 1.56195 0
M  V30 8343 C 774.271 -0.433064 2.02828 0
M  V30 8344 C 774.696 -1.5337 1.08901 0
M  V30 8345 O 774.054 -1.81144 0.0751132 0
M  V30 8346 C 774.102 -0.952635 3.47789 0
M  V30 8347 O 773.206 -2.0647 3.56993 0
M  V30 8348 H 772.547 -0.0994594 0.656509 0
M  V30 8349 H 775.077 0.32525 2.01998 0
M  V30 8350 H 775.087 -1.26542 3.8788 0
M  V30 8351 H 773.762 -0.147007 4.1564 0
M  V30 8352 H 772.339 -1.75942 3.28784 0
M  V30 8353 N 774.524 -1.57472 -0.0634922 0
M  V30 8354 C 775.772 -1.87283 -0.759563 0
M  V30 8355 C 776.093 -0.803135 -1.77693 0
M  V30 8356 O 775.363 0.167293 -1.95184 0
M  V30 8357 H 773.943 -0.691106 -0.283516 0
M  V30 8358 H 776.605 -1.94864 -0.0376091 0
M  V30 8359 H 775.701 -2.85064 -1.27062 0
M  V30 8360 N 776.003 0.335068 -1.53997 0
M  V30 8361 C 777.419 0.678704 -1.4445 0
M  V30 8362 C 777.619 1.92106 -0.608078 0
M  V30 8363 O 776.675 2.52292 -0.102373 0
M  V30 8364 C 777.988 0.863435 -2.88037 0
M  V30 8365 C 779.536 0.961513 -2.97866 0
M  V30 8366 C 780.011 1.1785 -4.42578 0
M  V30 8367 N 781.502 1.2455 -4.46141 0
M  V30 8368 C 782.237 1.43106 -5.55255 0
M  V30 8369 N 781.733 1.5878 -6.74359 0
M  V30 8370 N 783.526 1.45722 -5.42883 0
M  V30 8371 H 775.677 -0.481656 -2.06867 0
M  V30 8372 H 777.94 -0.153615 -0.935471 0
M  V30 8373 H 777.646 0.0219511 -3.51693 0
M  V30 8374 H 777.52 1.76268 -3.33481 0
M  V30 8375 H 779.907 1.79351 -2.34344 0
M  V30 8376 H 779.988 0.0389862 -2.5577 0
M  V30 8377 H 779.632 0.351397 -5.06683 0
M  V30 8378 H 779.562 2.11472 -4.82273 0
M  V30 8379 H 782.053 1.13928 -3.60318 0
M  V30 8380 H 782.366 1.72599 -7.53279 0
M  V30 8381 H 780.711 1.559 -6.77289 0
M  V30 8382 H 783.902 1.33065 -4.48789 0
M  V30 8383 H 784.075 1.59841 -6.27977 0
M  V30 8384 N 777.481 1.45874 0.596531 0
M  V30 8385 C 778.444 1.54988 1.68853 0
M  V30 8386 C 779.444 0.428302 1.54991 0
M  V30 8387 O 780.634 0.692158 1.59859 0
M  V30 8388 C 777.766 1.457 3.08195 0
M  V30 8389 H 778.959 2.52294 1.62135 0
M  V30 8390 H 776.512 1.33479 0.813206 0
M  V30 8391 H 777.247 0.496204 3.20481 0
M  V30 8392 H 777.032 2.27061 3.19665 0
M  V30 8393 H 778.522 1.55133 3.87716 0
M  V30 8394 N 778.959 -0.83999 1.33349 0
M  V30 8395 C 780.375 -1.13049 1.12659 0
M  V30 8396 C 780.575 -2.01328 -0.0832613 0
M  V30 8397 O 779.631 -2.40669 -0.763856 0
M  V30 8398 C 780.944 -1.79366 2.41347 0
M  V30 8399 C 782.492 -1.91937 2.47243 0
M  V30 8400 C 782.967 -2.6167 3.75889 0
M  V30 8401 N 784.458 -2.69184 3.76954 0
M  V30 8402 C 785.193 -3.23827 4.73206 0
M  V30 8403 N 784.689 -3.79166 5.79832 0
M  V30 8404 N 786.482 -3.22068 4.60683 0
M  V30 8405 H 778.633 -0.252432 2.10895 0
M  V30 8406 H 780.896 -0.174501 0.931801 0
M  V30 8407 H 780.602 -1.2196 3.29877 0
M  V30 8408 H 780.476 -2.79396 2.53412 0
M  V30 8409 H 782.863 -2.48498 1.59163 0
M  V30 8410 H 782.944 -0.908604 2.39119 0
M  V30 8411 H 782.588 -2.05769 4.64351 0
M  V30 8412 H 782.518 -3.63217 3.81289 0
M  V30 8413 H 785.009 -2.2994 2.99893 0
M  V30 8414 H 785.322 -4.19061 6.49313 0
M  V30 8415 H 783.667 -3.77457 5.83568 0
M  V30 8416 H 786.858 -2.78092 3.7654 0
M  V30 8417 H 787.031 -3.64351 5.35866 0
M  V30 8418 N 780.437 -1.16799 -1.0581 0
M  V30 8419 C 781.662 -0.977402 -1.82925 0
M  V30 8420 C 782.087 0.469514 -1.82146 0
M  V30 8421 O 781.445 1.33576 -1.22585 0
M  V30 8422 C 781.493 -1.51543 -3.27211 0
M  V30 8423 O 780.597 -0.725021 -4.05977 0
M  V30 8424 H 779.938 -0.347474 -0.565825 0
M  V30 8425 H 782.468 -1.55151 -1.33376 0
M  V30 8426 H 782.478 -1.53502 -3.78023 0
M  V30 8427 H 781.153 -2.56872 -3.27093 0
M  V30 8428 H 779.73 -0.77634 -3.64729 0
M  V30 8429 N 781.915 1.24427 -0.967243 0
M  V30 8430 C 783.192 1.87831 -0.545776 0
M  V30 8431 C 783.572 1.87126 0.977099 0
M  V30 8432 O 782.92 1.34357 1.84826 0
M  V30 8433 C 783.13 3.29967 -1.13679 0
M  V30 8434 C 784.478 4.06654 -1.22139 0
M  V30 8435 O 785.502 3.39136 -1.08926 0
M  V30 8436 O 784.361 5.27455 -1.43017 0
M  V30 8437 H 781.455 0.806745 -0.181912 0
M  V30 8438 H 784.001 1.32403 -1.06148 0
M  V30 8439 H 782.773 3.24977 -2.17958 0
M  V30 8440 H 782.396 3.92969 -0.605093 0
M  V30 8441 N 783.393 0.737304 1.3929 0
M  V30 8442 C 784.804 0.355966 1.83275 0
M  V30 8443 C 785.155 -1.11295 1.6158 0
M  V30 8444 O 784.28 -1.85871 1.10819 0
M  V30 8445 C 784.875 0.63931 3.32713 0
M  V30 8446 C 783.434 0.31144 3.75109 0
M  V30 8447 C 782.581 0.900765 2.62262 0
M  V30 8448 H 785.532 0.934763 1.28249 0
M  V30 8449 H 785.553 -0.0881293 3.80398 0
M  V30 8450 H 785.065 1.70847 3.48472 0
M  V30 8451 H 783.166 -0.751791 3.64937 0
M  V30 8452 H 783.279 0.795611 4.72448 0
M  V30 8453 H 781.643 0.327239 2.52589 0
M  V30 8454 H 782.426 1.97463 2.80826 0
M  V30 8455 N 784.871 -1.49948 0.485112 0
M  V30 8456 C 786.099 -2.06806 -0.0622824 0
M  V30 8457 C 786.514 -1.34736 -1.32256 0
M  V30 8458 O 785.871 -0.420836 -1.77582 0
M  V30 8459 C 785.922 -3.59934 -0.336096 0
M  V30 8460 O 785.643 -4.29289 0.874203 0
M  V30 8461 C 787.144 -4.33459 -0.928903 0
M  V30 8462 H 784.364 -0.670867 0.0133472 0
M  V30 8463 H 786.908 -1.92937 0.677917 0
M  V30 8464 H 785.063 -3.7356 -1.02625 0
M  V30 8465 H 785.477 -5.20735 0.627332 0
M  V30 8466 H 786.951 -5.41527 -1.07017 0
M  V30 8467 H 787.428 -3.94881 -1.92265 0
M  V30 8468 H 788.034 -4.24399 -0.276705 0
M  V30 8469 N 786.349 -0.21828 -1.56081 0
M  V30 8470 C 787.299 0.706492 -2.16778 0
M  V30 8471 C 788.283 1.15987 -1.11516 0
M  V30 8472 O 789.475 1.11441 -1.37513 0
M  V30 8473 C 786.604 1.91583 -2.8487 0
M  V30 8474 C 785.69 1.48228 -3.97353 0
M  V30 8475 N 786.081 0.761113 -5.00041 0
M  V30 8476 C 784.379 1.76982 -4.09382 0
M  V30 8477 C 785.08 0.540496 -5.79184 0
M  V30 8478 N 784.056 1.09622 -5.32432 0
M  V30 8479 H 787.858 0.147038 -2.93532 0
M  V30 8480 H 785.372 -0.0194049 -1.62388 0
M  V30 8481 H 787.369 2.58906 -3.26762 0
M  V30 8482 H 786.029 2.47979 -2.09611 0
M  V30 8483 H 787.04 0.414141 -5.16241 0
M  V30 8484 H 783.717 2.34721 -3.45271 0
M  V30 8485 H 785.107 -0.0332531 -6.71892 0
M  V30 8486 N 787.827 1.57504 0.0551401 0
M  V30 8487 C 788.759 2.0158 1.09078 0
M  V30 8488 C 789.772 0.92434 1.34014 0
M  V30 8489 O 790.961 1.20202 1.31961 0
M  V30 8490 C 788.061 2.35385 2.43818 0
M  V30 8491 C 787.234 3.66588 2.38605 0
M  V30 8492 C 786.293 3.87874 3.55585 0
M  V30 8493 O 785.319 4.59259 3.36258 0
M  V30 8494 N 786.521 3.31503 4.76536 0
M  V30 8495 H 789.286 2.91039 0.71529 0
M  V30 8496 H 786.847 1.60058 0.243532 0
M  V30 8497 H 788.839 2.46784 3.20749 0
M  V30 8498 H 787.409 1.51731 2.73307 0
M  V30 8499 H 786.629 3.65787 1.46947 0
M  V30 8500 H 787.917 4.52706 2.32239 0
M  V30 8501 H 787.315 2.73592 4.9514 0
M  V30 8502 H 785.872 3.48324 5.50921 0
M  V30 8503 N 789.305 -0.326896 1.54172 0
M  V30 8504 C 790.255 -1.40319 1.79707 0
M  V30 8505 C 791.239 -1.47056 0.652938 0
M  V30 8506 O 792.431 -1.51645 0.91284 0
M  V30 8507 C 789.56 -2.77222 2.02491 0
M  V30 8508 C 788.646 -2.74811 3.23016 0
M  V30 8509 N 789.037 -2.42022 4.44138 0
M  V30 8510 C 787.335 -3.05943 3.24522 0
M  V30 8511 C 788.036 -2.48263 5.26061 0
M  V30 8512 N 787.012 -2.84567 4.63166 0
M  V30 8513 H 790.814 -1.13892 2.70935 0
M  V30 8514 H 788.328 -0.53536 1.53322 0
M  V30 8515 H 790.325 -3.54793 2.18923 0
M  V30 8516 H 788.985 -3.04582 1.12515 0
M  V30 8517 H 789.996 -2.14926 4.71197 0
M  V30 8518 H 786.673 -3.38367 2.44569 0
M  V30 8519 H 788.063 -2.2593 6.32776 0
M  V30 8520 N 790.784 -1.46188 -0.588786 0
M  V30 8521 C 792.2 -1.31009 -0.911524 0
M  V30 8522 C 792.4 -0.277017 -1.99587 0
M  V30 8523 O 791.456 0.322532 -2.50432 0
M  V30 8524 C 792.769 -2.69459 -1.33463 0
M  V30 8525 C 794.317 -2.77502 -1.44782 0
M  V30 8526 C 794.792 -4.1652 -1.90461 0
M  V30 8527 N 796.283 -4.18907 -1.97665 0
M  V30 8528 C 797.018 -5.23359 -2.34271 0
M  V30 8529 N 796.514 -6.38143 -2.69714 0
M  V30 8530 N 798.307 -5.10723 -2.34774 0
M  V30 8531 H 790.458 -2.12016 0.127614 0
M  V30 8532 H 792.721 -0.947984 -0.00557599 0
M  V30 8533 H 792.427 -3.46336 -0.611929 0
M  V30 8534 H 792.301 -2.99165 -2.2974 0
M  V30 8535 H 794.688 -2.00917 -2.1614 0
M  V30 8536 H 794.769 -2.51488 -0.467724 0
M  V30 8537 H 794.413 -4.93597 -1.19684 0
M  V30 8538 H 794.343 -4.39937 -2.89418 0
M  V30 8539 H 796.834 -3.36084 -1.72789 0
M  V30 8540 H 797.147 -7.13624 -2.96582 0
M  V30 8541 H 795.492 -6.41514 -2.67366 0
M  V30 8542 H 798.683 -4.20088 -2.06503 0
M  V30 8543 H 798.856 -5.9224 -2.62975 0
M  V30 8544 N 792.262 0.832906 -1.33792 0
M  V30 8545 C 793.212 1.93178 -1.21105 0
M  V30 8546 C 794.196 1.60506 -0.112491 0
M  V30 8547 O 795.388 1.73681 -0.341179 0
M  V30 8548 C 792.517 3.29647 -0.958526 0
M  V30 8549 C 791.603 3.68469 -2.0998 0
M  V30 8550 N 791.994 3.78936 -3.35024 0
M  V30 8551 C 790.292 3.98249 -2.00782 0
M  V30 8552 C 790.993 4.12731 -4.09912 0
M  V30 8553 N 789.969 4.25419 -3.38407 0
M  V30 8554 H 793.771 1.99434 -2.15878 0
M  V30 8555 H 791.285 1.02598 -1.25886 0
M  V30 8556 H 793.282 4.08173 -0.848552 0
M  V30 8557 H 791.942 3.24694 -0.019387 0
M  V30 8558 H 792.953 3.62688 -3.69699 0
M  V30 8559 H 789.63 4.01474 -1.14564 0
M  V30 8560 H 791.02 4.28117 -5.17847 0
M  V30 8561 N 793.74 1.17359 1.05189 0
M  V30 8562 C 794.965 0.98709 1.82404 0
M  V30 8563 C 795.39 -0.459848 1.82392 0
M  V30 8564 O 794.748 -1.32924 1.23292 0
M  V30 8565 C 794.796 1.53276 3.26403 0
M  V30 8566 O 793.9 0.746541 4.05587 0
M  V30 8567 H 793.241 0.35047 0.563974 0
M  V30 8568 H 795.771 1.55856 1.32552 0
M  V30 8569 H 795.781 1.55504 3.77203 0
M  V30 8570 H 794.456 2.58603 3.25726 0
M  V30 8571 H 793.033 0.795671 3.64312 0
M  V30 8572 N 795.218 -1.23913 0.973828 0
M  V30 8573 C 796.466 -1.91771 0.637817 0
M  V30 8574 C 796.787 -1.76434 -0.830435 0
M  V30 8575 O 796.057 -1.13965 -1.59339 0
M  V30 8576 H 794.637 -0.709761 0.232912 0
M  V30 8577 H 797.299 -1.50677 1.23622 0
M  V30 8578 H 796.395 -2.99327 0.883731 0
M  V30 8579 N 796.696 -0.74468 -1.38897 0
M  V30 8580 C 797.944 -0.296298 -1.99916 0
M  V30 8581 C 798.265 1.12325 -1.59399 0
M  V30 8582 O 797.535 1.76658 -0.846689 0
M  V30 8583 H 796.115 -0.106561 -0.73936 0
M  V30 8584 H 798.777 -0.956793 -1.69798 0
M  V30 8585 H 797.873 -0.352356 -3.10105 0
M  V30 8586 N 798.174 1.49689 -0.493057 0
M  V30 8587 C 799.124 2.25901 0.308682 0
M  V30 8588 C 800.108 1.30408 0.94247 0
M  V30 8589 O 801.3 1.55179 0.851384 0
M  V30 8590 C 798.429 3.14463 1.37725 0
M  V30 8591 C 797.515 4.17414 0.7501 0
M  V30 8592 N 797.906 5.05599 -0.142597 0
M  V30 8593 C 796.204 4.34377 1.01159 0
M  V30 8594 C 796.905 5.7954 -0.500782 0
M  V30 8595 N 795.881 5.43446 0.129386 0
M  V30 8596 H 799.683 2.91451 -0.378652 0
M  V30 8597 H 797.197 1.59441 -0.308614 0
M  V30 8598 H 799.194 3.67687 1.965 0
M  V30 8599 H 797.854 2.50464 2.06635 0
M  V30 8600 H 798.865 5.15354 -0.512894 0
M  V30 8601 H 795.542 3.81588 1.69402 0
M  V30 8602 H 796.932 6.60534 -1.23063 0
M  V30 8603 N 799.652 0.226554 1.55963 0
M  V30 8604 C 800.899 -0.403789 1.98433 0
M  V30 8605 C 801.227 -1.59416 1.1143 0
M  V30 8606 O 800.482 -1.95042 0.160389 0
M  V30 8607 C 800.781 -0.87642 3.46488 0
M  V30 8608 C 800.447 0.203973 4.50438 0
M  V30 8609 C 799.109 0.500754 4.78587 0
M  V30 8610 C 801.461 0.934396 5.12756 0
M  V30 8611 C 798.789 1.53239 5.66334 0
M  V30 8612 C 801.141 1.9554 6.0162 0
M  V30 8613 C 799.805 2.25905 6.28111 0
M  V30 8614 H 799.075 -0.147757 0.726119 0
M  V30 8615 H 801.722 0.330121 1.88633 0
M  V30 8616 H 800.027 -1.68918 3.53517 0
M  V30 8617 H 801.724 -1.37407 3.76723 0
M  V30 8618 H 798.314 -0.0374917 4.28584 0
M  V30 8619 H 802.498 0.718355 4.91074 0
M  V30 8620 H 797.754 1.77321 5.85122 0
M  V30 8621 H 801.928 2.52642 6.48957 0
M  V30 8622 H 799.555 3.05985 6.959 0
M  V30 8623 N 801.13 -1.57531 -0.0467866 0
M  V30 8624 C 802.358 -1.92696 -0.753371 0
M  V30 8625 C 802.773 -0.824792 -1.69831 0
M  V30 8626 O 802.13 0.200155 -1.81399 0
M  V30 8627 C 802.181 -3.27728 -1.52566 0
M  V30 8628 O 801.902 -4.3371 -0.618674 0
M  V30 8629 C 803.403 -3.77066 -2.33101 0
M  V30 8630 H 800.623 -0.636367 -0.212788 0
M  V30 8631 H 803.167 -2.04498 -0.00959361 0
M  V30 8632 H 801.322 -3.17378 -2.22148 0
M  V30 8633 H 801.736 -5.11548 -1.15839 0
M  V30 8634 H 803.21 -4.74109 -2.82709 0
M  V30 8635 H 803.687 -3.07348 -3.13741 0
M  V30 8636 H 804.293 -3.90442 -1.68628 0
M  V30 8637 N 802.608 0.318715 -1.54344 0
M  V30 8638 C 803.571 1.37545 -1.83342 0
M  V30 8639 C 804.571 1.445 -0.705444 0
M  V30 8640 O 805.761 1.44443 -0.973752 0
M  V30 8641 C 802.893 2.76225 -1.99781 0
M  V30 8642 H 804.086 1.13084 -2.77762 0
M  V30 8643 H 801.639 0.554457 -1.46135 0
M  V30 8644 H 802.374 3.05934 -1.07588 0
M  V30 8645 H 802.159 2.7257 -2.81865 0
M  V30 8646 H 803.649 3.52664 -2.23647 0
M  V30 8647 N 804.086 1.46499 0.581025 0
M  V30 8648 C 805.049 1.5677 1.672 0
M  V30 8649 C 806.049 0.444716 1.54528 0
M  V30 8650 O 807.239 0.709074 1.59116 0
M  V30 8651 C 804.371 1.4896 3.06633 0
M  V30 8652 H 805.564 2.54 1.5945 0
M  V30 8653 H 803.117 1.34334 0.799003 0
M  V30 8654 H 803.852 0.530168 3.19937 0
M  V30 8655 H 803.637 2.30439 3.17239 0
M  V30 8656 H 805.127 1.59237 3.86048 0
M  V30 8657 N 805.565 -0.825799 1.34232 0
M  V30 8658 C 806.811 -1.58419 1.26614 0
M  V30 8659 C 807.144 -1.93503 -0.164341 0
M  V30 8660 O 806.419 -1.59785 -1.109 0
M  V30 8661 C 806.702 -2.8856 2.15418 0
M  V30 8662 C 806.555 -2.60075 3.66989 0
M  V30 8663 C 807.874 -3.90107 2.03726 0
M  V30 8664 H 804.993 -0.574794 0.461282 0
M  V30 8665 H 807.635 -0.951519 1.64457 0
M  V30 8666 H 805.785 -3.42553 1.83275 0
M  V30 8667 H 807.457 -2.12414 4.09485 0
M  V30 8668 H 805.7 -1.93565 3.88221 0
M  V30 8669 H 806.371 -3.52866 4.24488 0
M  V30 8670 H 808.847 -3.45459 2.31942 0
M  V30 8671 H 807.723 -4.78976 2.68092 0
M  V30 8672 H 807.984 -4.30329 1.01337 0
M  V30 8673 N 807.043 -1.17915 -1.04565 0
M  V30 8674 C 807.975 -0.859359 -2.1248 0
M  V30 8675 C 808.988 0.140922 -1.62189 0
M  V30 8676 O 810.177 -0.0862361 -1.78292 0
M  V30 8677 C 807.277 -0.261811 -3.37887 0
M  V30 8678 C 806.45 -1.30651 -4.17431 0
M  V30 8679 C 805.509 -0.725575 -5.21174 0
M  V30 8680 O 804.535 -1.39901 -5.51739 0
M  V30 8681 N 805.737 0.479351 -5.78517 0
M  V30 8682 H 808.502 -1.78818 -2.40508 0
M  V30 8683 H 806.063 -1.07885 -1.20716 0
M  V30 8684 H 808.055 0.14028 -4.04457 0
M  V30 8685 H 806.625 0.570929 -3.07342 0
M  V30 8686 H 805.845 -1.88412 -3.46258 0
M  V30 8687 H 807.133 -2.01099 -4.67372 0
M  V30 8688 H 806.531 1.04431 -5.55977 0
M  V30 8689 H 805.088 0.823427 -6.46578 0
M  V30 8690 N 808.521 1.23394 -0.980386 0
M  V30 8691 C 809.484 2.23092 -0.525619 0
M  V30 8692 C 810.484 1.56129 0.384745 0
M  V30 8693 O 811.674 1.73284 0.178439 0
M  V30 8694 C 808.806 3.40074 0.23712 0
M  V30 8695 H 809.999 2.64839 -1.40714 0
M  V30 8696 H 807.552 1.36227 -0.766275 0
M  V30 8697 H 808.287 3.03783 1.13518 0
M  V30 8698 H 808.072 3.89883 -0.416356 0
M  V30 8699 H 809.562 4.14043 0.543892 0
M  V30 8700 N 809.999 0.752036 1.385 0
M  V30 8701 C 810.932 0.0717411 2.28087 0
M  V30 8702 C 811.91 -0.729945 1.45295 0
M  V30 8703 O 813.094 -0.708902 1.74662 0
M  V30 8704 C 810.221 -0.905237 3.26379 0
M  V30 8705 C 809.267 -0.189973 4.26077 0
M  V30 8706 S 810.1 1.10815 5.23909 0
M  V30 8707 C 811.256 0.134202 6.25756 0
M  V30 8708 H 811.489 0.831438 2.85437 0
M  V30 8709 H 809.022 0.544552 1.44478 0
M  V30 8710 H 810.98 -1.46358 3.83523 0
M  V30 8711 H 809.641 -1.63789 2.68015 0
M  V30 8712 H 808.834 -0.92985 4.95348 0
M  V30 8713 H 808.436 0.296804 3.7282 0
M  V30 8714 H 810.728 -0.700345 6.7387 0
M  V30 8715 H 811.671 0.794532 7.03628 0
M  V30 8716 H 812.079 -0.245801 5.63965 0
M  V30 8717 N 811.477 -1.49425 0.500989 0
M  V30 8718 C 812.754 -1.9531 -0.106551 0
M  V30 8719 C 813.134 -1.44248 -1.54129 0
M  V30 8720 O 812.482 -0.656237 -2.18874 0
M  V30 8721 C 812.692 -3.48995 -0.0191972 0
M  V30 8722 C 814.04 -4.24161 -0.193129 0
M  V30 8723 O 815.064 -3.56075 -0.0943843 0
M  V30 8724 O 813.923 -5.45064 -0.395869 0
M  V30 8725 H 811.017 -0.82149 -0.0953068 0
M  V30 8726 H 813.563 -1.6007 0.563526 0
M  V30 8727 H 812.335 -3.78794 0.981353 0
M  V30 8728 H 811.958 -3.90852 -0.72942 0
M  V30 8729 N 812.955 -0.234822 -1.55841 0
M  V30 8730 C 814.195 0.394944 -2.00548 0
M  V30 8731 C 814.559 1.56002 -1.11926 0
M  V30 8732 O 815.76 2.2567 -1.46037 0
M  V30 8733 C 814.031 0.805896 -3.48195 0
M  V30 8734 S 815.59 1.4279 -4.14918 0
M  V30 8735 H 812.408 0.124802 -0.699961 0
M  V30 8736 H 815.01 -0.347224 -1.92392 0
M  V30 8737 H 813.714 -0.0515271 -4.10368 0
M  V30 8738 H 813.245 1.58055 -3.60253 0
M  V30 8739 H 815.26 2.71699 -4.15204 0
M  V30 8740 N 814.433 1.57553 0.0384317 0
M  V30 8741 C 815.343 2.09333 1.0591 0
M  V30 8742 C 816.359 1.0299 1.40247 0
M  V30 8743 O 817.535 1.34669 1.49754 0
M  V30 8744 C 814.6 2.55468 2.34386 0
M  V30 8745 C 813.661 3.76254 2.06716 0
M  V30 8746 C 812.894 4.20179 3.29067 0
M  V30 8747 O 813.117 3.637 4.39407 0
M  V30 8748 O 812.051 5.12697 3.15317 0
M  V30 8749 H 815.877 2.96683 0.649087 0
M  V30 8750 H 813.462 1.47211 0.254802 0
M  V30 8751 H 815.344 2.85514 3.09935 0
M  V30 8752 H 814.019 1.71234 2.74701 0
M  V30 8753 H 812.926 3.51241 1.28766 0
M  V30 8754 H 814.259 4.61443 1.71263 0
M  V30 8755 N 815.911 -0.310526 1.54511 0
M  V30 8756 C 817.139 -1.06611 1.77318 0
M  V30 8757 C 817.554 -1.81265 0.528043 0
M  V30 8758 O 816.911 -1.75466 -0.50178 0
M  V30 8759 C 816.962 -2.05409 2.97472 0
M  V30 8760 O 816.683 -1.33785 4.17173 0
M  V30 8761 C 818.184 -2.93082 3.32593 0
M  V30 8762 H 815.404 -0.316578 0.591624 0
M  V30 8763 H 817.948 -0.352691 2.01436 0
M  V30 8764 H 816.103 -2.72266 2.7559 0
M  V30 8765 H 816.517 -2.00055 4.84849 0
M  V30 8766 H 817.991 -3.58274 4.19933 0
M  V30 8767 H 818.468 -3.60877 2.50329 0
M  V30 8768 H 819.074 -2.31768 3.566 0
M  V30 8769 N 817.389 -1.46805 -0.573248 0
M  V30 8770 C 818.339 -1.54497 -1.67674 0
M  V30 8771 C 819.323 -0.405117 -1.55716 0
M  V30 8772 O 820.515 -0.654097 -1.64471 0
M  V30 8773 C 817.644 -1.54717 -3.0646 0
M  V30 8774 C 816.73 -2.7403 -3.2368 0
M  V30 8775 N 817.121 -3.98871 -3.11023 0
M  V30 8776 C 815.419 -2.70453 -3.54642 0
M  V30 8777 C 816.12 -4.78689 -3.30502 0
M  V30 8778 N 815.096 -4.10727 -3.56096 0
M  V30 8779 H 818.898 -2.48809 -1.56433 0
M  V30 8780 H 816.412 -1.42576 -0.777554 0
M  V30 8781 H 818.409 -1.58316 -3.8567 0
M  V30 8782 H 817.069 -0.614886 -3.18825 0
M  V30 8783 H 818.08 -4.29976 -2.88688 0
M  V30 8784 H 814.757 -1.86291 -3.73633 0
M  V30 8785 H 816.147 -5.87615 -3.2582 0
M  V30 8786 N 818.867 0.818669 -1.34668 0
M  V30 8787 C 820.092 1.61193 -1.30505 0
M  V30 8788 C 820.517 1.87734 0.117341 0
M  V30 8789 O 819.875 1.45591 1.08042 0
M  V30 8790 C 819.923 2.92733 -2.1057 0
M  V30 8791 O 819.027 3.85 -1.47813 0
M  V30 8792 H 818.368 0.490085 -0.44801 0
M  V30 8793 H 820.898 1.01701 -1.77534 0
M  V30 8794 H 820.908 3.42262 -2.22082 0
M  V30 8795 H 819.583 2.7274 -3.13984 0
M  V30 8796 H 818.16 3.43525 -1.45069 0
M  V30 8797 N 820.346 1.18468 1.03938 0
M  V30 8798 C 821.757 0.984808 1.58614 0
M  V30 8799 C 822.108 -0.465165 1.90606 0
M  V30 8800 O 821.233 -1.34274 1.69704 0
M  V30 8801 C 821.828 1.78135 2.8819 0
M  V30 8802 C 820.387 1.62579 3.39478 0
M  V30 8803 C 819.534 1.77501 2.13046 0
M  V30 8804 H 822.485 1.32993 0.865944 0
M  V30 8805 H 822.506 1.27119 3.58638 0
M  V30 8806 H 822.018 2.83661 2.64874 0
M  V30 8807 H 820.119 0.59595 3.67803 0
M  V30 8808 H 820.232 2.42463 4.13217 0
M  V30 8809 H 818.596 1.2046 2.24414 0
M  V30 8810 H 819.379 2.84464 1.92185 0
M  V30 8811 N 821.824 -1.22873 0.986916 0
M  V30 8812 C 822.756 -2.23889 0.490537 0
M  V30 8813 C 823.769 -1.57523 -0.411144 0
M  V30 8814 O 824.958 -1.7721 -0.214236 0
M  V30 8815 C 822.058 -3.37488 -0.30902 0
M  V30 8816 C 821.231 -4.33438 0.587354 0
M  V30 8817 C 820.29 -5.25958 -0.159467 0
M  V30 8818 O 819.316 -5.67394 0.453115 0
M  V30 8819 N 820.518 -5.62265 -1.44355 0
M  V30 8820 H 823.283 -2.67109 1.35914 0
M  V30 8821 H 820.844 -1.37111 0.860937 0
M  V30 8822 H 822.836 -3.96365 -0.817139 0
M  V30 8823 H 821.406 -2.934 -1.07868 0
M  V30 8824 H 820.626 -3.72969 1.27622 0
M  V30 8825 H 821.914 -4.94495 1.19801 0
M  V30 8826 H 821.312 -5.30562 -1.96266 0
M  V30 8827 H 819.869 -6.23585 -1.89698 0
M  V30 8828 N 823.302 -0.75937 -1.38099 0
M  V30 8829 C 824.548 -0.318584 -2.00282 0
M  V30 8830 C 824.881 1.09854 -1.60143 0
M  V30 8831 O 824.156 1.75344 -0.841702 0
M  V30 8832 C 824.439 -0.448047 -3.57302 0
M  V30 8833 C 824.292 -1.9067 -4.07388 0
M  V30 8834 C 825.611 0.155119 -4.39827 0
M  V30 8835 H 822.73 -0.117233 -0.727616 0
M  V30 8836 H 825.372 -0.960097 -1.63958 0
M  V30 8837 H 823.522 0.0981003 -3.88376 0
M  V30 8838 H 825.194 -2.5116 -3.86932 0
M  V30 8839 H 823.437 -2.41979 -3.6004 0
M  V30 8840 H 824.108 -1.94841 -5.1647 0
M  V30 8841 H 826.584 -0.31073 -4.14938 0
M  V30 8842 H 825.46 0.0343264 -5.48889 0
M  V30 8843 H 825.721 1.24407 -4.24235 0
M  V30 8844 N 824.78 1.49157 -0.508906 0
M  V30 8845 C 826.196 1.58741 -0.165372 0
M  V30 8846 C 826.396 1.5133 1.33047 0
M  V30 8847 O 825.452 1.39135 2.10707 0
M  V30 8848 C 826.765 2.91217 -0.749194 0
M  V30 8849 C 828.313 3.047 -0.716015 0
M  V30 8850 C 828.788 4.39807 -1.27804 0
M  V30 8851 N 830.279 4.46319 -1.23908 0
M  V30 8852 C 831.014 5.49325 -1.64406 0
M  V30 8853 N 830.51 6.59395 -2.12534 0
M  V30 8854 N 832.303 5.40084 -1.55773 0
M  V30 8855 H 824.454 1.52217 -1.48134 0
M  V30 8856 H 826.717 0.721514 -0.614915 0
M  V30 8857 H 826.423 3.02233 -1.79856 0
M  V30 8858 H 826.297 3.76592 -0.214144 0
M  V30 8859 H 828.684 2.9331 0.324535 0
M  V30 8860 H 828.765 2.2099 -1.2883 0
M  V30 8861 H 828.409 4.5195 -2.31741 0
M  V30 8862 H 828.339 5.2217 -0.681623 0
M  V30 8863 H 830.83 3.67354 -0.886537 0
M  V30 8864 H 831.143 7.34102 -2.41485 0
M  V30 8865 H 829.488 6.60414 -2.16513 0
M  V30 8866 H 832.679 4.52986 -1.17987 0
M  V30 8867 H 832.852 6.20233 -1.87657 0
M  V30 8868 N 826.258 0.243083 1.55714 0
M  V30 8869 C 827.19 -0.690766 2.18543 0
M  V30 8870 C 828.203 -1.14163 1.16064 0
M  V30 8871 O 829.392 -1.06906 1.42946 0
M  V30 8872 C 826.492 -1.95016 2.77168 0
M  V30 8873 C 825.665 -1.65137 4.05029 0
M  V30 8874 C 824.724 -2.75998 4.48009 0
M  V30 8875 O 823.75 -2.43547 5.14464 0
M  V30 8876 N 824.952 -4.05414 4.15476 0
M  V30 8877 H 827.717 -0.153203 2.99308 0
M  V30 8878 H 825.278 0.0628968 1.61778 0
M  V30 8879 H 827.27 -2.68414 3.0288 0
M  V30 8880 H 825.84 -2.39762 2.00582 0
M  V30 8881 H 825.06 -0.752768 3.86946 0
M  V30 8882 H 826.348 -1.42633 4.88399 0
M  V30 8883 H 825.746 -4.34613 3.62116 0
M  V30 8884 H 824.303 -4.75288 4.46032 0
M  V30 8885 N 827.736 -1.57571 -0.0300757 0
M  V30 8886 C 828.668 -2.0329 -1.05857 0
M  V30 8887 C 829.681 -0.945543 -1.32527 0
M  V30 8888 O 830.87 -1.22287 -1.30032 0
M  V30 8889 C 827.97 -2.39234 -2.40042 0
M  V30 8890 C 827.143 -3.70337 -2.32743 0
M  V30 8891 C 826.202 -3.93482 -3.49369 0
M  V30 8892 O 825.228 -4.64551 -3.28909 0
M  V30 8893 N 826.43 -3.39042 -4.71201 0
M  V30 8894 H 829.195 -2.9214 -0.668897 0
M  V30 8895 H 826.756 -1.60425 -0.218038 0
M  V30 8896 H 828.748 -2.51856 -3.16782 0
M  V30 8897 H 827.318 -1.5606 -2.70858 0
M  V30 8898 H 826.538 -3.68079 -1.41109 0
M  V30 8899 H 827.826 -4.56343 -2.25007 0
M  V30 8900 H 827.224 -2.81434 -4.90725 0
M  V30 8901 H 825.781 -3.57045 -5.45309 0
M  V30 8902 N 829.214 0.302327 -1.54673 0
M  V30 8903 C 830.461 1.0377 -1.73891 0
M  V30 8904 C 830.789 1.87309 -0.523979 0
M  V30 8905 O 830.044 1.8936 0.494084 0
M  V30 8906 C 830.343 1.97365 -2.97963 0
M  V30 8907 C 830.009 1.29812 -4.3181 0
M  V30 8908 C 828.671 1.11121 -4.68194 0
M  V30 8909 C 831.023 0.815073 -5.14787 0
M  V30 8910 C 828.351 0.428077 -5.85136 0
M  V30 8911 C 830.703 0.145665 -6.32432 0
M  V30 8912 C 829.367 -0.0532098 -6.67479 0
M  V30 8913 H 828.637 0.379721 -0.636312 0
M  V30 8914 H 831.284 0.312708 -1.8893 0
M  V30 8915 H 829.589 2.76387 -2.777 0
M  V30 8916 H 831.286 2.54331 -3.10027 0
M  V30 8917 H 827.876 1.45366 -4.03196 0
M  V30 8918 H 832.06 0.947191 -4.87178 0
M  V30 8919 H 827.316 0.262995 -6.10834 0
M  V30 8920 H 831.49 -0.236533 -6.95998 0
M  V30 8921 H 829.117 -0.58456 -7.57949 0
M  V30 8922 N 830.692 1.47107 0.565454 0
M  V30 8923 C 832.103 1.47266 1.1476 0
M  V30 8924 C 832.454 0.222841 1.9493 0
M  V30 8925 O 831.579 -0.672862 2.05673 0
M  V30 8926 C 832.174 2.66822 2.08785 0
M  V30 8927 C 830.733 2.69967 2.62288 0
M  V30 8928 C 829.88 2.40236 1.38499 0
M  V30 8929 H 832.831 1.54736 0.352479 0
M  V30 8930 H 832.852 2.43323 2.92531 0
M  V30 8931 H 832.364 3.5777 1.50408 0
M  V30 8932 H 830.465 1.83137 3.24487 0
M  V30 8933 H 830.578 3.70426 3.03845 0
M  V30 8934 H 828.942 1.90648 1.68895 0
M  V30 8935 H 829.725 3.33381 0.819274 0
M  V30 8936 N 832.17 -0.811516 1.35101 0
M  V30 8937 C 833.133 -1.90467 1.27495 0
M  V30 8938 C 834.133 -1.59703 0.187516 0
M  V30 8939 O 835.323 -1.68528 0.440896 0
M  V30 8940 C 832.455 -3.26774 0.971154 0
M  V30 8941 H 833.648 -1.98631 2.2469 0
M  V30 8942 H 831.201 -1.00681 1.19553 0
M  V30 8943 H 831.936 -3.243 0.0028557 0
M  V30 8944 H 831.721 -3.50488 1.75785 0
M  V30 8945 H 833.211 -4.06804 0.943414 0
M  V30 8946 N 833.648 -1.19017 -1.03309 0
M  V30 8947 C 835.059 -0.993206 -1.5809 0
M  V30 8948 C 835.41 0.45505 -1.9085 0
M  V30 8949 O 834.535 1.33372 -1.70414 0
M  V30 8950 C 835.13 -1.79661 -2.87241 0
M  V30 8951 C 833.689 -1.64377 -3.38611 0
M  V30 8952 C 832.836 -1.78628 -2.12102 0
M  V30 8953 H 835.787 -1.3345 -0.858879 0
M  V30 8954 H 835.808 -1.29019 -3.57958 0
M  V30 8955 H 835.32 -2.85061 -2.63366 0
M  V30 8956 H 833.421 -0.615447 -3.67482 0
M  V30 8957 H 833.534 -2.44651 -4.11926 0
M  V30 8958 H 831.898 -1.21648 -2.23772 0
M  V30 8959 H 832.681 -2.8548 -1.90673 0
M  V30 8960 N 835.127 1.22348 -0.993418 0
M  V30 8961 C 836.057 2.26584 -0.564088 0
M  V30 8962 C 837.038 1.65102 0.409298 0
M  V30 8963 O 838.223 1.91872 0.299819 0
M  V30 8964 C 835.353 3.47087 0.121554 0
M  V30 8965 C 834.307 4.21009 -0.770429 0
M  V30 8966 C 833.633 5.34678 0.0481586 0
M  V30 8967 C 834.933 4.79636 -2.06752 0
M  V30 8968 H 836.627 2.62749 -1.43538 0
M  V30 8969 H 834.173 1.26303 -0.691628 0
M  V30 8970 H 836.126 4.19166 0.433303 0
M  V30 8971 H 834.85 3.1002 1.0274 0
M  V30 8972 H 833.509 3.50764 -1.06583 0
M  V30 8973 H 833.157 4.93852 0.954933 0
M  V30 8974 H 832.857 5.85061 -0.545641 0
M  V30 8975 H 834.381 6.09573 0.353991 0
M  V30 8976 H 835.795 5.43654 -1.81969 0
M  V30 8977 H 834.192 5.4036 -2.61019 0
M  V30 8978 H 835.262 3.99659 -2.74592 0
M  V30 8979 N 836.605 0.766683 1.37694 0
M  V30 8980 C 837.853 0.328065 1.9942 0
M  V30 8981 C 838.174 -1.09775 1.61166 0
M  V30 8982 O 837.444 -1.75288 0.874686 0
M  V30 8983 H 836.024 0.11831 0.737572 0
M  V30 8984 H 838.686 0.983686 1.68255 0
M  V30 8985 H 837.782 0.401647 3.09505 0
M  V30 8986 N 838.083 -1.48885 0.516809 0
M  V30 8987 C 839.329 -2.03395 -0.0140225 0
M  V30 8988 C 839.684 -1.38808 -1.33229 0
M  V30 8989 O 838.977 -0.520104 -1.84406 0
M  V30 8990 C 839.171 -3.56801 -0.206798 0
M  V30 8991 C 839 -4.36259 1.09124 0
M  V30 8992 C 837.77 -4.77689 1.64745 0
M  V30 8993 C 839.968 -4.73881 1.99854 0
M  V30 8994 N 837.95 -5.41634 2.88975 0
M  V30 8995 C 839.321 -5.37707 3.08661 0
M  V30 8996 C 841.376 -4.55816 2.00341 0
M  V30 8997 C 840.079 -5.85379 4.18001 0
M  V30 8998 C 842.105 -5.04459 3.08666 0
M  V30 8999 C 841.467 -5.68299 4.16191 0
M  V30 9000 H 837.566 -0.781169 0.036042 0
M  V30 9001 H 840.15 -1.81867 0.695173 0
M  V30 9002 H 838.321 -3.78181 -0.885064 0
M  V30 9003 H 840.053 -3.9795 -0.736053 0
M  V30 9004 H 836.808 -4.58392 1.19054 0
M  V30 9005 H 837.232 -5.78181 3.52187 0
M  V30 9006 H 841.874 -4.05851 1.18511 0
M  V30 9007 H 839.592 -6.34356 5.00618 0
M  V30 9008 H 843.178 -4.92281 3.10082 0
M  V30 9009 H 842.058 -6.05257 4.98631 0
M  V30 9010 N 839.561 -0.251338 -1.55583 0
M  V30 9011 C 840.786 0.379136 -2.03905 0
M  V30 9012 C 841.211 1.50428 -1.12929 0
M  V30 9013 O 840.569 1.80882 -0.123114 0
M  V30 9014 C 840.617 0.86009 -3.50193 0
M  V30 9015 O 839.721 1.96932 -3.62342 0
M  V30 9016 H 839.062 0.0820183 -0.658915 0
M  V30 9017 H 841.592 -0.378692 -2.01065 0
M  V30 9018 H 841.602 1.16214 -3.91099 0
M  V30 9019 H 840.277 0.0367559 -4.15884 0
M  V30 9020 H 838.854 1.67163 -3.33333 0
M  V30 9021 N 841.039 1.57585 0.0217189 0
M  V30 9022 C 842.287 1.89231 0.709641 0
M  V30 9023 C 842.608 0.849964 1.75501 0
M  V30 9024 O 841.878 -0.115485 1.95559 0
M  V30 9025 H 840.458 0.69838 0.265092 0
M  V30 9026 H 843.12 1.94895 -0.0140688 0
M  V30 9027 H 842.216 2.88333 1.19459 0
M  V30 9028 N 842.517 -0.29412 1.54831 0
M  V30 9029 C 843.745 -1.04724 1.78439 0
M  V30 9030 C 844.16 -1.80695 0.547239 0
M  V30 9031 O 843.517 -1.75989 -0.483141 0
M  V30 9032 C 843.568 -2.02242 2.99634 0
M  V30 9033 O 843.289 -1.29352 4.18568 0
M  V30 9034 C 844.79 -2.89537 3.35683 0
M  V30 9035 H 842.01 -0.310285 0.594949 0
M  V30 9036 H 844.554 -0.331306 2.01798 0
M  V30 9037 H 842.709 -2.69328 2.78462 0
M  V30 9038 H 843.123 -1.94901 4.86943 0
M  V30 9039 H 844.597 -3.538 4.23709 0
M  V30 9040 H 845.074 -3.58201 2.54143 0
M  V30 9041 H 845.68 -2.27973 3.59038 0
M  V30 9042 N 843.995 -1.47404 -0.557645 0
M  V30 9043 C 844.905 -1.62491 -1.69216 0
M  V30 9044 C 845.921 -0.507764 -1.66426 0
M  V30 9045 O 847.097 -0.775241 -1.85882 0
M  V30 9046 C 844.162 -1.63511 -3.05721 0
M  V30 9047 C 843.223 -2.86648 -3.1958 0
M  V30 9048 C 842.456 -2.87609 -4.49574 0
M  V30 9049 O 842.679 -1.97799 -5.35006 0
M  V30 9050 O 841.613 -3.79465 -4.67215 0
M  V30 9051 H 845.439 -2.58487 -1.59431 0
M  V30 9052 H 843.024 -1.30485 -0.7276 0
M  V30 9053 H 844.906 -1.66863 -3.86956 0
M  V30 9054 H 843.581 -0.706812 -3.15889 0
M  V30 9055 H 842.488 -2.8884 -2.37744 0
M  V30 9056 H 843.821 -3.7877 -3.14316 0
M  V30 9057 N 845.473 0.80434 -1.35529 0
M  V30 9058 C 846.436 1.89788 -1.28503 0
M  V30 9059 C 847.436 1.59601 -0.195983 0
M  V30 9060 O 848.626 1.68292 -0.449827 0
M  V30 9061 C 845.758 3.26255 -0.98847 0
M  V30 9062 H 846.951 1.97436 -2.25741 0
M  V30 9063 H 844.504 1.00046 -1.20086 0
M  V30 9064 H 845.239 3.24294 -0.0200541 0
M  V30 9065 H 845.024 3.49551 -1.77641 0
M  V30 9066 H 846.514 4.06298 -0.964975 0
M  V30 9067 N 846.951 1.19563 1.02676 0
M  V30 9068 C 848.362 1.00158 1.57561 0
M  V30 9069 C 848.713 -0.444922 1.91089 0
M  V30 9070 O 847.838 -1.32466 1.71119 0
M  V30 9071 C 848.433 1.81181 2.86284 0
M  V30 9072 C 846.992 1.66171 3.37734 0
M  V30 9073 C 846.139 1.7975 2.11152 0
M  V30 9074 H 849.09 1.33904 0.85179 0
M  V30 9075 H 849.111 1.30916 3.57269 0
M  V30 9076 H 848.623 2.86454 2.6185 0
M  V30 9077 H 846.724 0.634927 3.6715 0
M  V30 9078 H 846.837 2.46832 4.10622 0
M  V30 9079 H 845.201 1.22833 2.23123 0
M  V30 9080 H 845.984 2.86487 1.89157 0
M  V30 9081 N 848.429 -1.21819 0.999893 0
M  V30 9082 C 849.657 -1.94758 0.698359 0
M  V30 9083 C 850.072 -1.73771 -0.738183 0
M  V30 9084 O 849.429 -1.04113 -1.49889 0
M  V30 9085 C 849.48 -3.47292 1.00353 0
M  V30 9086 O 849.201 -3.67579 2.38363 0
M  V30 9087 C 850.702 -4.37403 0.72068 0
M  V30 9088 H 847.922 -0.619512 0.257771 0
M  V30 9089 H 850.466 -1.54778 1.33656 0
M  V30 9090 H 848.621 -3.85213 0.411018 0
M  V30 9091 H 849.035 -4.61719 2.48829 0
M  V30 9092 H 850.509 -5.43151 0.984422 0
M  V30 9093 H 850.986 -4.3784 -0.345309 0
M  V30 9094 H 851.592 -4.05119 1.29456 0
M  V30 9095 N 849.908 -0.773975 -1.37286 0
M  V30 9096 C 850.84 -0.119938 -2.28886 0
M  V30 9097 C 851.853 0.661822 -1.48741 0
M  V30 9098 O 853.042 0.499548 -1.71367 0
M  V30 9099 C 850.142 0.853703 -3.27971 0
M  V30 9100 C 849.315 0.125286 -4.37221 0
M  V30 9101 C 848.374 1.01261 -5.16365 0
M  V30 9102 O 847.4 0.475565 -5.6721 0
M  V30 9103 N 848.602 2.33864 -5.31308 0
M  V30 9104 H 851.367 -0.906702 -2.85655 0
M  V30 9105 H 848.928 -0.626519 -1.49286 0
M  V30 9106 H 850.92 1.4508 -3.77801 0
M  V30 9107 H 849.49 1.54142 -2.71954 0
M  V30 9108 H 848.71 -0.652742 -3.88758 0
M  V30 9109 H 849.998 -0.377959 -5.07394 0
M  V30 9110 H 849.396 2.79929 -4.91585 0
M  V30 9111 H 847.953 2.88575 -5.84438 0
M  V30 9112 N 851.386 1.48609 -0.524698 0
M  V30 9113 C 852.632 2.02797 0.0113382 0
M  V30 9114 C 852.965 1.40147 1.34433 0
M  V30 9115 O 852.24 0.545368 1.86698 0
M  V30 9116 C 852.523 3.59832 0.138931 0
M  V30 9117 C 852.376 4.32971 -1.21886 0
M  V30 9118 C 853.695 4.3145 0.868265 0
M  V30 9119 H 850.814 0.736995 0.00264645 0
M  V30 9120 H 853.456 1.77388 -0.680704 0
M  V30 9121 H 851.606 3.81612 0.72834 0
M  V30 9122 H 853.278 4.22624 -1.84897 0
M  V30 9123 H 851.521 3.94597 -1.80211 0
M  V30 9124 H 852.192 5.41279 -1.08263 0
M  V30 9125 H 854.668 4.14468 0.368145 0
M  V30 9126 H 853.544 5.41025 0.926428 0
M  V30 9127 H 853.805 3.98358 1.91737 0
M  V30 9128 N 852.864 0.259585 1.55447 0
M  V30 9129 C 854.092 -0.365392 2.03648 0
M  V30 9130 C 854.507 -1.50613 1.13847 0
M  V30 9131 O 853.864 -1.81837 0.155414 0
M  V30 9132 C 853.915 -0.861172 3.51093 0
M  V30 9133 O 853.636 0.234121 4.37474 0
M  V30 9134 C 855.137 -1.55555 4.15111 0
M  V30 9135 H 852.357 -0.0853439 0.66555 0
M  V30 9136 H 854.901 0.387151 2.00802 0
M  V30 9137 H 853.056 -1.56385 3.54433 0
M  V30 9138 H 853.47 -0.1444 5.24301 0
M  V30 9139 H 854.944 -1.85403 5.19932 0
M  V30 9140 H 855.421 -2.48185 3.62355 0
M  V30 9141 H 856.027 -0.89712 4.15731 0
M  V30 9142 N 854.342 -1.57594 -0.0133615 0
M  V30 9143 C 855.588 -1.90262 -0.702019 0
M  V30 9144 C 855.921 -0.859219 -1.74158 0
M  V30 9145 O 855.196 0.123778 -1.94106 0
M  V30 9146 C 855.479 -3.3354 -1.35732 0
M  V30 9147 C 855.332 -4.48586 -0.330208 0
M  V30 9148 C 856.651 -3.76004 -2.28712 0
M  V30 9149 H 853.77 -0.691943 -0.253739 0
M  V30 9150 H 856.412 -1.89967 0.0351894 0
M  V30 9151 H 854.562 -3.33921 -1.98567 0
M  V30 9152 H 856.234 -4.6034 0.297433 0
M  V30 9153 H 854.477 -4.32394 0.348926 0
M  V30 9154 H 855.148 -5.45762 -0.827508 0
M  V30 9155 H 857.624 -3.77089 -1.75906 0
M  V30 9156 H 856.5 -4.77032 -2.71535 0
M  V30 9157 H 856.761 -3.09129 -3.16056 0
M  V30 9158 N 855.82 0.285905 -1.54985 0
M  V30 9159 C 856.73 1.37534 -1.90057 0
M  V30 9160 C 857.746 1.54707 -0.796348 0
M  V30 9161 O 858.922 1.69082 -1.09423 0
M  V30 9162 C 855.987 2.7167 -2.15398 0
M  V30 9163 C 855.048 2.63354 -3.39033 0
M  V30 9164 C 854.281 3.91093 -3.63155 0
M  V30 9165 O 854.504 4.91169 -2.90015 0
M  V30 9166 O 853.438 3.92075 -4.56685 0
M  V30 9167 H 857.264 1.10791 -2.8277 0
M  V30 9168 H 854.849 0.483303 -1.41367 0
M  V30 9169 H 856.731 3.51006 -2.33179 0
M  V30 9170 H 855.406 2.98226 -1.25868 0
M  V30 9171 H 854.313 1.82438 -3.26599 0
M  V30 9172 H 855.646 2.41749 -4.2874 0
M  V30 9173 N 857.298 1.47698 0.54982 0
M  V30 9174 C 858.526 1.5833 1.33188 0
M  V30 9175 C 858.941 0.236193 1.87317 0
M  V30 9176 O 858.298 -0.77167 1.65383 0
M  V30 9177 C 858.349 2.61438 2.49664 0
M  V30 9178 O 858.07 3.9092 1.97771 0
M  V30 9179 C 859.571 2.82324 3.41772 0
M  V30 9180 H 856.791 0.53443 0.405741 0
M  V30 9181 H 859.335 1.93375 0.665309 0
M  V30 9182 H 857.49 2.29307 3.12245 0
M  V30 9183 H 857.904 4.47323 2.73866 0
M  V30 9184 H 859.378 3.58316 4.19897 0
M  V30 9185 H 859.855 1.90416 3.95776 0
M  V30 9186 H 860.461 3.15682 2.85 0
M  V30 9187 N 858.776 -0.797141 1.35954 0
M  V30 9188 C 859.726 -1.89899 1.26184 0
M  V30 9189 C 860.71 -1.60152 0.155007 0
M  V30 9190 O 861.902 -1.72715 0.387108 0
M  V30 9191 C 859.031 -3.2699 1.04559 0
M  V30 9192 C 858.117 -3.62772 2.19675 0
M  V30 9193 N 858.508 -3.6992 3.44953 0
M  V30 9194 C 856.806 -3.92786 2.1127 0
M  V30 9195 C 857.507 -4.01718 4.20711 0
M  V30 9196 N 856.483 -4.16298 3.49567 0
M  V30 9197 H 860.285 -1.9364 2.2109 0
M  V30 9198 H 857.799 -0.992246 1.28562 0
M  V30 9199 H 859.796 -4.0578 0.956474 0
M  V30 9200 H 858.456 -3.24529 0.105467 0
M  V30 9201 H 859.467 -3.52759 3.79185 0
M  V30 9202 H 856.144 -3.98295 1.25168 0
M  V30 9203 H 857.534 -4.14237 5.29016 0
M  V30 9204 N 860.254 -1.20106 -1.0204 0
M  V30 9205 C 861.665 -1.00992 -1.57027 0
M  V30 9206 C 862.016 0.434782 -1.91322 0
M  V30 9207 O 861.141 1.31557 -1.71819 0
M  V30 9208 C 861.736 -1.82697 -2.85319 0
M  V30 9209 C 860.295 -1.67959 -3.36848 0
M  V30 9210 C 859.442 -1.80868 -2.10195 0
M  V30 9211 H 862.393 -1.34354 -0.844676 0
M  V30 9212 H 862.414 -1.32809 -3.5657 0
M  V30 9213 H 861.926 -2.87839 -2.60328 0
M  V30 9214 H 860.027 -0.654389 -3.66809 0
M  V30 9215 H 860.14 -2.49006 -4.09308 0
M  V30 9216 H 858.504 -1.24015 -2.22469 0
M  V30 9217 H 859.287 -2.87486 -1.87635 0
M  V30 9218 N 861.732 1.21287 -1.00634 0
M  V30 9219 C 862.978 1.90671 -0.690822 0
M  V30 9220 C 863.311 1.77996 0.776592 0
M  V30 9221 O 862.586 1.15748 1.5631 0
M  V30 9222 C 862.869 3.42426 -1.11428 0
M  V30 9223 C 862.722 3.64086 -2.64124 0
M  V30 9224 C 864.041 4.34851 -0.677686 0
M  V30 9225 H 861.16 0.692419 -0.252439 0
M  V30 9226 H 863.802 1.42893 -1.25226 0
M  V30 9227 H 861.952 3.83249 -0.636586 0
M  V30 9228 H 863.624 3.32582 -3.19667 0
M  V30 9229 H 861.867 3.07906 -3.05576 0
M  V30 9230 H 862.538 4.7042 -2.88806 0
M  V30 9231 H 865.014 4.01619 -1.0882 0
M  V30 9232 H 863.89 5.39675 -1.00213 0
M  V30 9233 H 864.151 4.4009 0.421125 0
M  V30 9234 N 863.21 0.781244 1.36873 0
M  V30 9235 C 864.142 0.132075 2.28819 0
M  V30 9236 C 865.155 -0.653925 1.49089 0
M  V30 9237 O 866.344 -0.490453 1.7163 0
M  V30 9238 C 863.444 -0.836297 3.28419 0
M  V30 9239 C 862.617 -0.102097 4.37281 0
M  V30 9240 C 861.676 -0.985217 5.16894 0
M  V30 9241 O 860.702 -0.445478 5.67454 0
M  V30 9242 N 861.904 -2.31043 5.3254 0
M  V30 9243 H 864.669 0.921838 2.85171 0
M  V30 9244 H 862.23 0.634427 1.48952 0
M  V30 9245 H 864.222 -1.43074 3.78566 0
M  V30 9246 H 862.792 -1.52698 2.72767 0
M  V30 9247 H 862.012 0.67335 3.88407 0
M  V30 9248 H 863.3 0.404862 5.07187 0
M  V30 9249 H 862.698 -2.77318 4.93063 0
M  V30 9250 H 861.255 -2.85472 5.8596 0
M  V30 9251 N 864.689 -1.48329 0.532571 0
M  V30 9252 C 865.599 -2.33445 -0.232546 0
M  V30 9253 C 866.615 -1.46651 -0.93645 0
M  V30 9254 O 867.791 -1.79627 -0.910834 0
M  V30 9255 C 864.856 -3.22824 -1.26434 0
M  V30 9256 C 863.917 -4.25492 -0.570511 0
M  V30 9257 C 863.15 -5.10601 -1.55315 0
M  V30 9258 O 863.373 -4.97733 -2.78599 0
M  V30 9259 O 862.307 -5.91927 -1.09112 0
M  V30 9260 H 866.133 -3.00119 0.464988 0
M  V30 9261 H 863.718 -1.46489 0.293462 0
M  V30 9262 H 865.6 -3.78103 -1.86055 0
M  V30 9263 H 864.275 -2.58807 -1.94424 0
M  V30 9264 H 863.182 -3.74041 0.0662587 0
M  V30 9265 H 864.515 -4.92154 0.0674904 0
M  V30 9266 N 866.167 -0.267825 -1.55308 0
M  V30 9267 C 867.395 0.354587 -2.03839 0
M  V30 9268 C 867.81 1.50007 -1.14644 0
M  V30 9269 O 867.167 1.81752 -0.165055 0
M  V30 9270 C 867.218 0.84254 -3.51544 0
M  V30 9271 O 866.939 -0.257318 -4.37344 0
M  V30 9272 C 868.44 1.53351 -4.15931 0
M  V30 9273 H 865.66 0.0818131 -0.665994 0
M  V30 9274 H 868.204 -0.397795 -2.00594 0
M  V30 9275 H 866.359 1.54503 -3.55257 0
M  V30 9276 H 866.773 0.116593 -5.2437 0
M  V30 9277 H 868.247 1.82643 -5.20908 0
M  V30 9278 H 868.724 2.4626 -3.63666 0
M  V30 9279 H 869.33 0.87506 -4.162 0
M  V30 9280 N 867.645 1.57599 0.00500368 0
M  V30 9281 C 868.873 1.94626 0.702016 0
M  V30 9282 C 869.288 0.86953 1.67585 0
M  V30 9283 O 868.645 -0.15199 1.81866 0
M  V30 9284 C 868.696 3.31658 1.43824 0
M  V30 9285 O 868.417 4.35197 0.503467 0
M  V30 9286 C 869.918 3.83114 2.23021 0
M  V30 9287 H 867.138 0.641785 0.195841 0
M  V30 9288 H 869.682 2.04451 -0.0446287 0
M  V30 9289 H 867.837 3.23156 2.13655 0
M  V30 9290 H 868.251 5.1444 1.02235 0
M  V30 9291 H 869.725 4.81438 2.7004 0
M  V30 9292 H 870.202 3.15559 3.05482 0
M  V30 9293 H 870.808 3.94775 1.58216 0
M  V30 9294 N 869.123 -0.277682 1.55134 0
M  V30 9295 C 870.37 -1.0099 1.7552 0
M  V30 9296 C 870.698 -1.86452 0.553712 0
M  V30 9297 O 869.953 -1.90122 -0.463896 0
M  V30 9298 C 870.252 -1.92599 3.01065 0
M  V30 9299 C 869.918 -1.22926 4.3382 0
M  V30 9300 C 868.58 -1.03659 4.69902 0
M  V30 9301 C 870.932 -0.733071 5.16019 0
M  V30 9302 C 868.26 -0.334933 5.85743 0
M  V30 9303 C 870.612 -0.0450319 6.32584 0
M  V30 9304 C 869.276 0.159393 6.6731 0
M  V30 9305 H 868.546 -0.36955 0.642273 0
M  V30 9306 H 871.193 -0.282611 1.89403 0
M  V30 9307 H 869.498 -2.71934 2.82062 0
M  V30 9308 H 871.195 -2.49367 3.14034 0
M  V30 9309 H 867.785 -1.38933 4.05457 0
M  V30 9310 H 871.969 -0.869565 4.88623 0
M  V30 9311 H 867.225 -0.165783 6.11175 0
M  V30 9312 H 871.399 0.34723 6.95534 0
M  V30 9313 H 869.026 0.70507 7.56923 0
M  V30 9314 N 870.601 -1.47988 -0.541979 0
M  V30 9315 C 871.551 -1.58019 -1.64359 0
M  V30 9316 C 872.535 -0.438056 -1.54822 0
M  V30 9317 O 873.727 -0.688837 -1.63046 0
M  V30 9318 C 870.856 -1.61182 -3.03109 0
M  V30 9319 C 869.942 -2.80834 -3.17794 0
M  V30 9320 N 870.333 -4.05379 -3.02492 0
M  V30 9321 C 868.631 -2.77914 -3.48826 0
M  V30 9322 C 869.332 -4.85592 -3.20274 0
M  V30 9323 N 868.308 -4.18188 -3.47304 0
M  V30 9324 H 872.11 -2.52071 -1.5112 0
M  V30 9325 H 869.624 -1.44193 -0.747137 0
M  V30 9326 H 871.621 -1.66461 -3.82226 0
M  V30 9327 H 870.281 -0.682375 -3.17449 0
M  V30 9328 H 871.292 -4.36003 -2.79503 0
M  V30 9329 H 867.969 -1.94174 -3.69598 0
M  V30 9330 H 869.359 -5.94394 -3.13282 0
M  V30 9331 N 872.079 0.78992 -1.36375 0
M  V30 9332 C 873.325 1.55007 -1.3077 0
M  V30 9333 C 873.658 1.93871 0.112979 0
M  V30 9334 O 872.933 1.6267 1.06625 0
M  V30 9335 C 873.216 2.82748 -2.22993 0
M  V30 9336 C 873.069 2.50253 -3.73756 0
M  V30 9337 C 874.388 3.84569 -2.13998 0
M  V30 9338 H 871.507 0.562362 -0.476359 0
M  V30 9339 H 874.149 0.907582 -1.66922 0
M  V30 9340 H 872.299 3.37573 -1.92292 0
M  V30 9341 H 873.971 2.01482 -4.14973 0
M  V30 9342 H 872.214 1.83203 -3.93216 0
M  V30 9343 H 872.885 3.41487 -4.33694 0
M  V30 9344 H 875.361 3.39188 -2.4102 0
M  V30 9345 H 874.237 4.717 -2.80697 0
M  V30 9346 H 874.498 4.27491 -1.12711 0
M  V30 9347 N 873.557 1.20646 1.01402 0
M  V30 9348 C 874.52 0.959314 2.08158 0
M  V30 9349 C 875.52 -0.0661558 1.60664 0
M  V30 9350 O 876.71 0.170177 1.73367 0
M  V30 9351 C 873.842 0.444785 3.37986 0
M  V30 9352 H 875.035 1.90631 2.31517 0
M  V30 9353 H 872.588 1.02219 1.18241 0
M  V30 9354 H 873.323 -0.507553 3.20304 0
M  V30 9355 H 873.108 1.18435 3.73785 0
M  V30 9356 H 874.598 0.291443 4.16582 0
M  V30 9357 N 875.035 -1.20752 1.01276 0
M  V30 9358 C 876.446 -1.7175 0.732033 0
M  V30 9359 C 876.797 -1.8131 -0.749733 0
M  V30 9360 O 875.922 -1.47301 -1.58529 0
M  V30 9361 C 876.517 -3.11936 1.32217 0
M  V30 9362 C 875.076 -3.6026 1.09039 0
M  V30 9363 C 874.223 -2.37571 1.43022 0
M  V30 9364 H 877.174 -1.0582 1.1827 0
M  V30 9365 H 877.195 -3.73802 0.710771 0
M  V30 9366 H 876.707 -3.04946 2.40061 0
M  V30 9367 H 874.808 -3.72588 0.0294464 0
M  V30 9368 H 874.921 -4.45295 1.76775 0
M  V30 9369 H 873.285 -2.40128 0.849159 0
M  V30 9370 H 874.068 -2.33225 2.51915 0
M  V30 9371 N 876.513 -0.788492 -1.36457 0
M  V30 9372 C 877.445 -0.144208 -2.28746 0
M  V30 9373 C 878.458 0.646009 -1.49434 0
M  V30 9374 O 879.647 0.481344 -1.71888 0
M  V30 9375 C 876.747 0.818869 -3.28858 0
M  V30 9376 C 875.92 0.0789055 -4.37329 0
M  V30 9377 C 874.979 0.957791 -5.1741 0
M  V30 9378 O 874.005 0.415378 -5.67682 0
M  V30 9379 N 875.207 2.28216 -5.33758 0
M  V30 9380 H 877.972 -0.936949 -2.84678 0
M  V30 9381 H 875.533 -0.642317 -1.48613 0
M  V30 9382 H 877.525 1.41065 -3.79319 0
M  V30 9383 H 876.095 1.51249 -2.73573 0
M  V30 9384 H 875.315 -0.693939 -3.88044 0
M  V30 9385 H 876.603 -0.431753 -5.06965 0
M  V30 9386 H 876.001 2.747 -4.94527 0
M  V30 9387 H 874.558 2.8236 -5.87466 0
M  V30 9388 N 877.991 1.48044 -0.54043 0
M  V30 9389 C 878.923 2.2779 0.253854 0
M  V30 9390 C 879.936 1.35999 0.894883 0
M  V30 9391 O 881.125 1.60963 0.771563 0
M  V30 9392 C 878.225 3.09724 1.37566 0
M  V30 9393 C 877.398 4.29364 0.83459 0
M  V30 9394 C 876.457 4.93026 1.83881 0
M  V30 9395 O 875.483 5.51927 1.39159 0
M  V30 9396 N 876.685 4.86207 3.17149 0
M  V30 9397 H 879.45 2.96597 -0.430125 0
M  V30 9398 H 877.011 1.57487 -0.375423 0
M  V30 9399 H 879.003 3.49181 2.04584 0
M  V30 9400 H 877.573 2.43269 1.96314 0
M  V30 9401 H 876.793 3.94198 -0.0118878 0
M  V30 9402 H 878.081 5.06787 0.452155 0
M  V30 9403 H 877.479 4.39523 3.56141 0
M  V30 9404 H 876.036 5.29733 3.79771 0
M  V30 9405 N 879.47 0.276058 1.55163 0
M  V30 9406 C 880.418 -0.626978 2.2399 0
M  V30 9407 C 881.412 -1.15708 1.23725 0
M  V30 9408 O 882.618 -1.1106 1.41653 0
M  V30 9409 H 878.993 -0.220742 0.718872 0
M  V30 9410 H 880.964 -0.0236569 2.98391 0
M  V30 9411 C 879.713 -1.79935 2.97521 0
M  V30 9412 H 879.036 -1.40064 3.74463 0
M  V30 9413 H 880.476 -2.40781 3.48999 0
M  V30 9414 C 878.935 -2.68838 2.03046 0
M  V30 9415 O 879.465 -3.69224 1.58229 0
M  V30 9416 N 877.671 -2.36028 1.69527 0
M  V30 9417 H 877.218 -1.54442 2.06169 0
M  V30 9418 H 877.176 -2.95782 1.06586 0
M  V30 9419 N 880.948 -1.576 0.00335426 0
M  V30 9420 C 881.911 -2.07576 -0.971838 0
M  V30 9421 C 882.911 -0.985796 -1.27038 0
M  V30 9422 O 884.101 -1.24833 -1.21501 0
M  V30 9423 C 881.233 -2.52003 -2.29581 0
M  V30 9424 H 882.426 -2.95008 -0.539481 0
M  V30 9425 H 879.979 -1.54381 -0.244186 0
M  V30 9426 H 880.714 -1.67825 -2.77498 0
M  V30 9427 H 880.499 -3.31609 -2.09231 0
M  V30 9428 H 881.989 -2.90983 -2.99531 0
M  V30 9429 N 882.426 0.269451 -1.5528 0
M  V30 9430 C 883.356 1.33729 -1.91413 0
M  V30 9431 C 884.337 1.51348 -0.776391 0
M  V30 9432 O 885.522 1.64332 -1.03482 0
M  V30 9433 C 882.652 2.69618 -2.18914 0
M  V30 9434 C 881.606 2.66725 -3.34726 0
M  V30 9435 C 880.932 4.06199 -3.47716 0
M  V30 9436 C 882.232 2.25684 -4.71025 0
M  V30 9437 H 883.926 1.03736 -2.80854 0
M  V30 9438 H 881.472 0.497579 -1.3513 0
M  V30 9439 H 883.425 3.44436 -2.42779 0
M  V30 9440 H 882.149 3.01201 -1.26275 0
M  V30 9441 H 880.808 1.94365 -3.10834 0
M  V30 9442 H 880.456 4.3501 -2.52537 0
M  V30 9443 H 880.156 4.05157 -4.25583 0
M  V30 9444 H 881.68 4.8275 -3.73877 0
M  V30 9445 H 883.094 2.90225 -4.94411 0
M  V30 9446 H 881.491 2.35797 -5.51833 0
M  V30 9447 H 882.561 1.20819 -4.69607 0
M  V30 9448 N 883.904 1.48273 0.534124 0
M  V30 9449 C 884.854 1.58889 1.63519 0
M  V30 9450 C 885.838 0.44626 1.54588 0
M  V30 9451 O 887.03 0.697474 1.62679 0
M  V30 9452 C 884.159 1.62787 3.0225 0
M  V30 9453 C 883.245 2.82515 3.16301 0
M  V30 9454 N 883.636 4.06977 3.00338 0
M  V30 9455 C 881.934 2.7976 3.47347 0
M  V30 9456 C 882.635 4.87283 3.17694 0
M  V30 9457 N 881.611 4.20024 3.45081 0
M  V30 9458 H 885.413 2.52869 1.49781 0
M  V30 9459 H 882.927 1.44587 0.739479 0
M  V30 9460 H 884.924 1.68486 3.81337 0
M  V30 9461 H 883.584 0.699201 3.17082 0
M  V30 9462 H 884.595 4.37479 2.77186 0
M  V30 9463 H 881.272 1.96132 3.68563 0
M  V30 9464 H 882.662 5.96047 3.10126 0
M  V30 9465 N 885.382 -0.782676 1.36792 0
M  V30 9466 C 886.332 -1.8855 1.28191 0
M  V30 9467 C 887.316 -1.59978 0.171984 0
M  V30 9468 O 888.508 -1.72295 0.405405 0
M  V30 9469 C 885.637 -3.25862 1.08021 0
M  V30 9470 C 884.723 -3.60422 2.2351 0
M  V30 9471 N 885.114 -3.66241 3.48857 0
M  V30 9472 C 883.412 -3.90523 2.15424 0
M  V30 9473 C 884.113 -3.97233 4.24948 0
M  V30 9474 N 883.089 -4.12567 3.53963 0
M  V30 9475 H 886.891 -1.91285 2.23131 0
M  V30 9476 H 884.405 -0.978554 1.29607 0
M  V30 9477 H 886.402 -4.04742 0.999458 0
M  V30 9478 H 885.062 -3.24399 0.139882 0
M  V30 9479 H 886.073 -3.48717 3.82906 0
M  V30 9480 H 882.75 -3.96945 1.29386 0
M  V30 9481 H 884.14 -4.08602 5.33379 0
M  V30 9482 N 886.86 -1.21182 -1.00761 0
M  V30 9483 C 887.81 -0.936247 -2.0789 0
M  V30 9484 C 888.794 0.107482 -1.60541 0
M  V30 9485 O 889.986 -0.1011 -1.76711 0
M  V30 9486 C 887.115 -0.499949 -3.3964 0
M  V30 9487 C 886.201 -1.5776 -3.93666 0
M  V30 9488 N 886.592 -2.80208 -4.2109 0
M  V30 9489 C 884.89 -1.44586 -4.21913 0
M  V30 9490 C 885.591 -3.49787 -4.64784 0
M  V30 9491 N 884.567 -2.7722 -4.676 0
M  V30 9492 H 888.369 -1.86659 -2.27015 0
M  V30 9493 H 885.883 -1.10716 -1.1881 0
M  V30 9494 H 887.88 -0.283897 -4.15932 0
M  V30 9495 H 886.54 0.423659 -3.21924 0
M  V30 9496 H 887.551 -3.16776 -4.09724 0
M  V30 9497 H 884.228 -0.587346 -4.13348 0
M  V30 9498 H 885.618 -4.54615 -4.94747 0
M  V30 9499 N 888.338 1.20213 -1.01915 0
M  V30 9500 C 889.288 2.20957 -0.562327 0
M  V30 9501 C 890.272 1.56258 0.383704 0
M  V30 9502 O 891.464 1.75794 0.206255 0
M  V30 9503 C 888.593 3.43167 0.0954035 0
M  V30 9504 C 887.679 4.15028 -0.872487 0
M  V30 9505 N 888.07 4.63231 -2.03103 0
M  V30 9506 C 886.368 4.4057 -0.69385 0
M  V30 9507 C 887.069 5.18307 -2.64069 0
M  V30 9508 N 886.045 5.08522 -1.9211 0
M  V30 9509 H 889.847 2.55894 -1.44553 0
M  V30 9510 H 887.361 1.36178 -0.884831 0
M  V30 9511 H 889.358 4.14569 0.440232 0
M  V30 9512 H 888.018 3.09734 0.974413 0
M  V30 9513 H 889.029 4.58365 -2.41086 0
M  V30 9514 H 885.706 4.17276 0.136889 0
M  V30 9515 H 887.096 5.65961 -3.6213 0
M  V30 9516 N 889.816 0.795718 1.36037 0
M  V30 9517 C 891.064 0.370291 1.98679 0
M  V30 9518 C 891.385 -1.06332 1.63458 0
M  V30 9519 O 890.655 -1.73394 0.911671 0
M  V30 9520 H 889.235 0.133928 0.734896 0
M  V30 9521 H 891.897 1.01915 1.6613 0
M  V30 9522 H 890.993 0.467207 3.08583 0
M  V30 9523 N 891.294 -1.47756 0.548274 0
M  V30 9524 C 892.242 -2.3158 -0.217584 0
M  V30 9525 C 893.236 -1.42372 -0.917957 0
M  V30 9526 O 894.442 -1.59184 -0.840259 0
M  V30 9527 H 890.817 -0.74671 -0.0890388 0
M  V30 9528 H 892.788 -2.94032 0.508719 0
M  V30 9529 C 891.537 -3.24834 -1.24008 0
M  V30 9530 H 890.86 -3.93435 -0.710572 0
M  V30 9531 H 892.3 -3.86336 -1.74701 0
M  V30 9532 C 890.759 -2.47724 -2.2833 0
M  V30 9533 O 891.289 -2.21522 -3.35098 0
M  V30 9534 N 889.495 -2.08891 -2.02022 0
M  V30 9535 H 889.042 -2.30401 -1.1521 0
M  V30 9536 H 889 -1.57613 -2.7204 0
M  V30 9537 N 892.772 -0.284283 -1.55015 0
M  V30 9538 C 893.997 0.335799 -2.04664 0
M  V30 9539 C 894.422 1.47999 -1.16094 0
M  V30 9540 O 893.78 1.8058 -0.161454 0
M  V30 9541 C 893.828 0.785615 -3.51938 0
M  V30 9542 O 892.932 1.89202 -3.66437 0
M  V30 9543 H 892.273 0.0680233 -0.660506 0
M  V30 9544 H 894.803 -0.421255 -2.00216 0
M  V30 9545 H 894.813 1.07892 -3.93476 0
M  V30 9546 H 893.488 -0.0514675 -4.15868 0
M  V30 9547 H 892.065 1.60055 -3.36804 0
M  V30 9548 N 894.251 1.57596 -0.0117121 0
M  V30 9549 C 895.476 1.95764 0.684938 0
M  V30 9550 C 895.901 0.887285 1.65858 0
M  V30 9551 O 895.259 -0.153508 1.80649 0
M  V30 9552 C 895.307 3.33031 1.38285 0
M  V30 9553 O 894.411 3.28163 2.49765 0
M  V30 9554 H 893.752 0.638767 0.181309 0
M  V30 9555 H 896.282 2.04486 -0.0683883 0
M  V30 9556 H 896.292 3.68866 1.74362 0
M  V30 9557 H 894.967 4.10483 0.669043 0
M  V30 9558 H 893.544 3.04021 2.15929 0
M  V30 9559 N 895.729 -0.261212 1.5542 0
M  V30 9560 C 896.679 -1.32571 1.85496 0
M  V30 9561 C 897.663 -1.44155 0.714722 0
M  V30 9562 O 898.855 -1.47637 0.976336 0
M  V30 9563 C 895.984 -2.68384 2.14067 0
M  V30 9564 C 895.07 -2.60864 3.34381 0
M  V30 9565 N 895.461 -2.22967 4.54004 0
M  V30 9566 C 893.759 -2.91904 3.37206 0
M  V30 9567 C 894.46 -2.25727 5.36118 0
M  V30 9568 N 893.436 -2.64667 4.74818 0
M  V30 9569 H 897.238 -1.02298 2.75522 0
M  V30 9570 H 894.752 -0.469849 1.55455 0
M  V30 9571 H 896.749 -3.45189 2.33774 0
M  V30 9572 H 895.409 -2.99536 1.25332 0
M  V30 9573 H 896.42 -1.94748 4.79889 0
M  V30 9574 H 893.097 -3.2769 2.587 0
M  V30 9575 H 894.487 -1.98889 6.41789 0
M  V30 9576 N 897.207 -1.48554 -0.526253 0
M  V30 9577 C 898.157 -1.59753 -1.62674 0
M  V30 9578 C 899.141 -0.454452 -1.54349 0
M  V30 9579 O 900.333 -0.706091 -1.62306 0
M  V30 9580 C 897.462 -1.64388 -3.01383 0
M  V30 9581 C 896.548 -2.84188 -3.14798 0
M  V30 9582 N 896.939 -4.08564 -2.98176 0
M  V30 9583 C 895.237 -2.81599 -3.45859 0
M  V30 9584 C 895.938 -4.88961 -3.15106 0
M  V30 9585 N 894.914 -4.21848 -3.42849 0
M  V30 9586 H 898.716 -2.5366 -1.48438 0
M  V30 9587 H 896.23 -1.44977 -0.731801 0
M  V30 9588 H 898.227 -1.70505 -3.80439 0
M  V30 9589 H 896.887 -0.716006 -3.16707 0
M  V30 9590 H 897.898 -4.38943 -2.74862 0
M  V30 9591 H 894.575 -1.98083 -3.67518 0
M  V30 9592 H 895.965 -5.97683 -3.0696 0
M  V30 9593 N 898.685 0.775411 -1.37205 0
M  V30 9594 C 899.635 1.87867 -1.29189 0
M  V30 9595 C 900.619 1.59885 -0.180466 0
M  V30 9596 O 901.811 1.72077 -0.414536 0
M  V30 9597 C 898.94 3.25285 -1.09748 0
M  V30 9598 C 898.026 3.59231 -2.25419 0
M  V30 9599 N 898.417 3.64386 -3.50795 0
M  V30 9600 C 896.715 3.89375 -2.17492 0
M  V30 9601 C 897.416 3.94974 -4.27048 0
M  V30 9602 N 896.392 4.10684 -3.56146 0
M  V30 9603 H 900.194 1.90099 -2.24142 0
M  V30 9604 H 897.708 0.971667 -1.30125 0
M  V30 9605 H 899.705 4.04207 -1.02091 0
M  V30 9606 H 898.365 3.2432 -0.157083 0
M  V30 9607 H 899.376 3.46682 -3.8475 0
M  V30 9608 H 896.053 3.96254 -1.31489 0
M  V30 9609 H 897.443 4.05768 -5.35539 0
M  V30 9610 N 900.163 1.21714 1.00117 0
M  V30 9611 C 901.113 0.947259 2.07391 0
M  V30 9612 C 902.097 -0.0989662 1.60595 0
M  V30 9613 O 903.289 0.11047 1.76655 0
M  V30 9614 C 900.418 0.517954 3.3937 0
M  V30 9615 C 899.504 1.59846 3.92823 0
M  V30 9616 N 899.895 2.82438 4.19598 0
M  V30 9617 C 898.193 1.46822 4.2114 0
M  V30 9618 C 898.894 3.52247 4.62922 0
M  V30 9619 N 897.87 2.79696 4.66124 0
M  V30 9620 H 901.672 1.8786 2.26022 0
M  V30 9621 H 899.186 1.11344 1.18221 0
M  V30 9622 H 901.183 0.305951 4.15776 0
M  V30 9623 H 899.843 -0.40658 3.22144 0
M  V30 9624 H 900.854 3.18944 4.08038 0
M  V30 9625 H 897.531 0.609259 4.13031 0
M  V30 9626 H 898.921 4.57232 4.9233 0
M  V30 9627 N 901.641 -1.19671 1.02551 0
M  V30 9628 C 902.591 -2.20655 0.574037 0
M  V30 9629 C 903.575 -1.56459 -0.375412 0
M  V30 9630 O 904.767 -1.75901 -0.196929 0
M  V30 9631 C 901.896 -3.43213 -0.0772031 0
M  V30 9632 C 900.982 -4.1456 0.894485 0
M  V30 9633 N 901.373 -4.62147 2.05557 0
M  V30 9634 C 899.671 -4.40196 0.717205 0
M  V30 9635 C 900.372 -5.16899 2.66814 0
M  V30 9636 N 899.348 -5.07496 1.94804 0
M  V30 9637 H 903.15 -2.55124 1.45908 0
M  V30 9638 H 900.664 -1.35707 0.89204 0
M  V30 9639 H 902.661 -4.14797 -0.41824 0
M  V30 9640 H 901.321 -3.10247 -0.957973 0
M  V30 9641 H 902.332 -4.5708 2.43513 0
M  V30 9642 H 899.009 -4.17342 -0.114758 0
M  V30 9643 H 900.399 -5.64032 3.65126 0
M  V30 9644 N 903.119 -0.802921 -1.35613 0
M  V30 9645 C 904.069 -0.183492 -2.2726 0
M  V30 9646 C 905.053 0.640527 -1.47601 0
M  V30 9647 O 906.245 0.498386 -1.69838 0
M  V30 9648 C 903.374 0.67003 -3.36698 0
M  V30 9649 C 902.46 -0.163517 -4.23785 0
M  V30 9650 N 902.851 -1.22472 -4.90749 0
M  V30 9651 C 901.149 0.0554547 -4.45966 0
M  V30 9652 C 901.85 -1.73329 -5.55276 0
M  V30 9653 N 900.826 -1.04033 -5.33552 0
M  V30 9654 H 904.628 -0.995525 -2.76526 0
M  V30 9655 H 902.142 -0.643714 -1.49098 0
M  V30 9656 H 904.139 1.12981 -4.01299 0
M  V30 9657 H 902.799 1.48045 -2.88986 0
M  V30 9658 H 903.81 -1.60733 -4.92327 0
M  V30 9659 H 900.487 0.835312 -4.09058 0
M  V30 9660 H 901.877 -2.62 -6.18713 0
M  V30 9661 N 904.597 1.47463 -0.556102 0
M  V30 9662 C 905.547 2.27007 0.212592 0
M  V30 9663 C 906.531 1.34288 0.886312 0
M  V30 9664 O 907.723 1.5865 0.784801 0
M  V30 9665 C 904.852 3.20021 1.24263 0
M  V30 9666 C 903.938 4.2022 0.572385 0
M  V30 9667 N 904.329 5.04539 -0.35691 0
M  V30 9668 C 902.627 4.38276 0.826441 0
M  V30 9669 C 903.328 5.76895 -0.746134 0
M  V30 9670 N 902.304 5.43506 -0.101225 0
M  V30 9671 H 906.106 2.89582 -0.501925 0
M  V30 9672 H 903.62 1.57988 -0.375961 0
M  V30 9673 H 905.617 3.7569 1.80728 0
M  V30 9674 H 904.277 2.59003 1.95826 0
M  V30 9675 H 905.288 5.12715 -0.731012 0
M  V30 9676 H 901.965 3.88429 1.53066 0
M  V30 9677 H 903.355 6.5472 -1.50967 0
M  V30 9678 N 906.075 0.2925 1.54862 0
M  V30 9679 C 907.025 -0.60226 2.19902 0
M  V30 9680 C 908.009 -1.10535 1.16923 0
M  V30 9681 O 909.201 -1.04753 1.42674 0
M  V30 9682 C 906.33 -1.77774 2.93686 0
M  V30 9683 C 905.416 -1.29101 4.03972 0
M  V30 9684 N 905.807 -0.521671 5.03103 0
M  V30 9685 C 904.105 -1.57248 4.17359 0
M  V30 9686 C 904.806 -0.263545 5.81103 0
M  V30 9687 N 903.782 -0.840937 5.37056 0
M  V30 9688 H 907.584 -0.00682274 2.93899 0
M  V30 9689 H 905.098 0.0968604 1.62111 0
M  V30 9690 H 907.095 -2.43021 3.38743 0
M  V30 9691 H 905.755 -2.37696 2.21203 0
M  V30 9692 H 906.766 -0.167364 5.1763 0
M  V30 9693 H 903.443 -2.1798 3.56077 0
M  V30 9694 H 904.833 0.353783 6.70968 0
M  V30 9695 N 907.553 -1.57587 0.0200696 0
M  V30 9696 C 908.503 -2.0616 -0.973751 0
M  V30 9697 C 909.487 -0.960282 -1.29102 0
M  V30 9698 O 910.679 -1.22391 -1.27865 0
M  V30 9699 C 907.808 -2.58487 -2.25919 0
M  V30 9700 C 906.894 -3.75533 -1.97068 0
M  V30 9701 N 907.285 -4.86482 -1.38451 0
M  V30 9702 C 905.583 -3.83847 -2.27107 0
M  V30 9703 C 906.284 -5.67773 -1.26527 0
M  V30 9704 N 905.26 -5.14398 -1.75772 0
M  V30 9705 H 909.062 -2.89346 -0.515365 0
M  V30 9706 H 906.576 -1.61341 -0.185163 0
M  V30 9707 H 908.573 -2.91572 -2.97979 0
M  V30 9708 H 907.233 -1.76728 -2.72392 0
M  V30 9709 H 908.244 -5.06922 -1.06069 0
M  V30 9710 H 904.921 -3.12978 -2.76316 0
M  V30 9711 H 906.311 -6.66966 -0.812785 0
M  V30 9712 N 909.032 0.252966 -1.55557 0
M  V30 9713 C 909.982 1.31585 -1.86197 0
M  V30 9714 C 910.966 1.43773 -0.722357 0
M  V30 9715 O 912.158 1.47117 -0.984152 0
M  V30 9716 C 909.287 2.67245 -2.15487 0
M  V30 9717 C 908.373 2.59087 -3.3576 0
M  V30 9718 N 908.764 2.20556 -4.5518 0
M  V30 9719 C 907.062 2.90112 -3.3875 0
M  V30 9720 C 907.763 2.22881 -5.37307 0
M  V30 9721 N 906.739 2.62145 -4.76215 0
M  V30 9722 H 910.541 1.00835 -2.76061 0
M  V30 9723 H 908.055 0.461598 -1.55702 0
M  V30 9724 H 910.052 3.43944 -2.35602 0
M  V30 9725 H 908.712 2.98867 -1.26919 0
M  V30 9726 H 909.723 1.922 -4.80915 0
M  V30 9727 H 906.4 3.26313 -2.60434 0
M  V30 9728 H 907.79 1.95482 -6.42835 0
M  V30 9729 N 910.51 1.48831 0.518367 0
M  V30 9730 C 911.46 1.60614 1.61824 0
M  V30 9731 C 912.444 0.462631 1.54106 0
M  V30 9732 O 913.636 0.714689 1.6193 0
M  V30 9733 C 910.765 1.65984 3.00507 0
M  V30 9734 C 909.851 2.85854 3.13286 0
M  V30 9735 N 910.242 4.1014 2.96005 0
M  V30 9736 C 908.54 2.83429 3.4436 0
M  V30 9737 C 909.241 4.90626 3.12508 0
M  V30 9738 N 908.217 4.2366 3.40607 0
M  V30 9739 H 912.019 2.54443 1.47091 0
M  V30 9740 H 909.533 1.45363 0.724102 0
M  V30 9741 H 911.53 1.72521 3.79529 0
M  V30 9742 H 910.19 0.732792 3.16323 0
M  V30 9743 H 911.201 4.40395 2.72531 0
M  V30 9744 H 907.878 2.0003 3.66462 0
M  V30 9745 H 909.268 5.99302 3.03786 0
M  V30 9746 N 911.988 -0.768124 1.37614 0
M  V30 9747 C 912.938 -1.8718 1.30184 0
M  V30 9748 C 913.922 -1.59787 0.188943 0
M  V30 9749 O 915.114 -1.71855 0.423656 0
M  V30 9750 C 912.243 -3.24698 1.11471 0
M  V30 9751 C 911.329 -3.58031 2.27321 0
M  V30 9752 N 911.72 -3.6252 3.52722 0
M  V30 9753 C 910.018 -3.88216 2.19554 0
M  V30 9754 C 910.719 -3.92704 4.29137 0
M  V30 9755 N 909.695 -4.08789 3.58319 0
M  V30 9756 H 913.497 -1.88907 2.25147 0
M  V30 9757 H 911.011 -0.964753 1.30638 0
M  V30 9758 H 913.008 -4.0366 1.04233 0
M  V30 9759 H 911.668 -3.24232 0.174281 0
M  V30 9760 H 912.679 -3.44636 3.86583 0
M  V30 9761 H 909.356 -3.95551 1.33588 0
M  V30 9762 H 910.746 -4.02922 5.37683 0
M  V30 9763 N 913.466 -1.22244 -0.994698 0
M  V30 9764 C 914.416 -0.958244 -2.06886 0
M  V30 9765 C 915.4 0.0904481 -1.60646 0
M  V30 9766 O 916.592 -0.119837 -1.76594 0
M  V30 9767 C 913.721 -0.535944 -3.39091 0
M  V30 9768 C 912.807 -1.61927 -3.9197 0
M  V30 9769 N 913.198 -2.84659 -4.18094 0
M  V30 9770 C 911.496 -1.49053 -4.20356 0
M  V30 9771 C 912.197 -3.54697 -4.61048 0
M  V30 9772 N 911.173 -2.82164 -4.64634 0
M  V30 9773 H 914.975 -1.89056 -2.25022 0
M  V30 9774 H 912.489 -1.1197 -1.17629 0
M  V30 9775 H 914.486 -0.327997 -4.15608 0
M  V30 9776 H 913.146 0.38949 -3.22355 0
M  V30 9777 H 914.157 -3.21104 -4.06341 0
M  V30 9778 H 910.834 -0.631154 -4.12702 0
M  V30 9779 H 912.224 -4.59837 -4.89898 0
M  V30 9780 N 914.944 1.19125 -1.03184 0
M  V30 9781 C 916.192 1.8851 -0.728587 0
M  V30 9782 C 916.513 1.80195 0.74531 0
M  V30 9783 O 915.783 1.21437 1.5372 0
M  V30 9784 H 914.363 0.69784 -0.266511 0
M  V30 9785 H 917.025 1.44607 -1.3067 0
M  V30 9786 H 916.121 2.9477 -1.02554 0
M  V30 9787 N 916.422 0.810101 1.35185 0
M  V30 9788 C 917.354 0.180581 2.28488 0
M  V30 9789 C 918.367 -0.622154 1.50443 0
M  V30 9790 O 919.556 -0.453938 1.72632 0
M  V30 9791 C 916.656 -0.766447 3.30119 0
M  V30 9792 C 915.829 -0.00932028 4.37399 0
M  V30 9793 C 914.888 -0.875354 5.18868 0
M  V30 9794 O 913.914 -0.325012 5.68271 0
M  V30 9795 N 915.116 -2.19695 5.37321 0
M  V30 9796 H 917.881 0.98212 2.83151 0
M  V30 9797 H 915.442 0.665879 1.47573 0
M  V30 9798 H 917.434 -1.35012 3.81515 0
M  V30 9799 H 916.004 -1.46878 2.75945 0
M  V30 9800 H 915.224 0.755585 3.86891 0
M  V30 9801 H 916.512 0.512352 5.06214 0
M  V30 9802 H 915.91 -2.66797 4.98834 0
M  V30 9803 H 914.467 -2.72978 5.91884 0
M  V30 9804 N 917.9 -1.47166 0.563914 0
M  V30 9805 C 918.832 -2.28165 -0.217583 0
M  V30 9806 C 919.845 -1.37405 -0.873134 0
M  V30 9807 O 921.034 -1.6217 -0.745857 0
M  V30 9808 C 918.134 -3.11873 -1.32621 0
M  V30 9809 C 917.307 -4.30637 -0.766177 0
M  V30 9810 C 916.366 -4.95889 -1.76014 0
M  V30 9811 O 915.392 -5.54071 -1.3036 0
M  V30 9812 N 916.594 -4.91191 -3.09373 0
M  V30 9813 H 919.359 -2.95876 0.477256 0
M  V30 9814 H 916.92 -1.5687 0.40043 0
M  V30 9815 H 918.912 -3.52392 -1.99003 0
M  V30 9816 H 917.482 -2.46361 -1.92419 0
M  V30 9817 H 916.702 -3.94129 0.0745998 0
M  V30 9818 H 917.99 -5.07442 -0.371472 0
M  V30 9819 H 917.388 -4.45133 -3.49104 0
M  V30 9820 H 915.945 -5.35708 -3.71295 0
M  V30 9821 N 919.378 -0.300708 -1.54705 0
M  V30 9822 C 920.341 0.562648 -2.22187 0
M  V30 9823 C 921.341 1.06152 -1.20782 0
M  V30 9824 O 922.531 0.957596 -1.45519 0
M  V30 9825 C 919.663 1.77899 -2.908 0
M  V30 9826 H 920.856 -0.0269361 -2.99888 0
M  V30 9827 H 918.409 -0.0515412 -1.56215 0
M  V30 9828 H 919.144 2.40841 -2.17177 0
M  V30 9829 H 918.929 1.42892 -3.65136 0
M  V30 9830 H 920.419 2.39236 -3.42281 0
M  V30 9831 N 920.856 1.57574 -0.0284266 0
M  V30 9832 C 921.786 2.1321 0.952039 0
M  V30 9833 C 922.767 1.04806 1.33977 0
M  V30 9834 O 923.952 1.32635 1.41851 0
M  V30 9835 C 921.082 2.65862 2.23461 0
M  V30 9836 C 920.036 3.79047 1.98765 0
M  V30 9837 C 919.362 4.18124 3.33281 0
M  V30 9838 C 920.662 5.05151 1.32739 0
M  V30 9839 H 922.356 2.95385 0.488705 0
M  V30 9840 H 919.902 1.42092 0.233628 0
M  V30 9841 H 921.855 3.03417 2.92431 0
M  V30 9842 H 920.579 1.80848 2.71959 0
M  V30 9843 H 919.238 3.41929 1.32213 0
M  V30 9844 H 918.886 3.30092 3.79537 0
M  V30 9845 H 918.586 4.94396 3.17563 0
M  V30 9846 H 920.11 4.58262 4.0352 0
M  V30 9847 H 921.524 5.40297 1.91708 0
M  V30 9848 H 919.921 5.86416 1.27421 0
M  V30 9849 H 920.991 4.83969 0.300261 0
M  V30 9850 N 922.334 -0.244713 1.55689 0
M  V30 9851 C 923.582 -0.970525 1.77272 0
M  V30 9852 C 923.903 -1.85771 0.592804 0
M  V30 9853 O 923.173 -1.91952 -0.391323 0
M  V30 9854 H 921.753 -0.361342 0.653789 0
M  V30 9855 H 924.415 -0.262134 1.93129 0
M  V30 9856 H 923.511 -1.59096 2.68505 0
M  V30 9857 N 923.813 -1.49104 -0.510467 0
M  V30 9858 C 924.761 -1.65547 -1.63392 0
M  V30 9859 C 925.755 -0.521522 -1.61172 0
M  V30 9860 O 926.961 -0.700865 -1.65795 0
M  V30 9861 H 923.336 -0.521843 -0.541464 0
M  V30 9862 H 925.307 -2.59864 -1.46673 0
M  V30 9863 C 924.056 -1.73051 -3.01577 0
M  V30 9864 H 923.379 -2.59676 -3.03987 0
M  V30 9865 H 924.819 -1.88594 -3.79748 0
M  V30 9866 C 923.278 -0.47328 -3.33559 0
M  V30 9867 O 923.808 0.405239 -3.99651 0
M  V30 9868 N 922.014 -0.339074 -2.88615 0
M  V30 9869 H 921.561 -1.05497 -2.35007 0
M  V30 9870 H 921.519 0.501061 -3.10382 0
M  V30 9871 N 925.291 0.760815 -1.38019 0
M  V30 9872 C 926.707 1.06289 -1.19058 0
M  V30 9873 C 926.907 2.01471 -0.0342603 0
M  V30 9874 O 925.963 2.44713 0.62224 0
M  V30 9875 C 927.276 1.6499 -2.51394 0
M  V30 9876 C 928.824 1.77196 -2.58013 0
M  V30 9877 C 929.299 2.3931 -3.90506 0
M  V30 9878 N 930.79 2.46749 -3.92007 0
M  V30 9879 C 931.525 2.95687 -4.91281 0
M  V30 9880 N 931.021 3.44715 -6.00952 0
M  V30 9881 N 932.814 2.94661 -4.78677 0
M  V30 9882 H 924.965 0.129045 -2.12008 0
M  V30 9883 H 927.228 0.119878 -0.94039 0
M  V30 9884 H 926.934 1.0252 -3.36426 0
M  V30 9885 H 926.808 2.64146 -2.6927 0
M  V30 9886 H 929.195 2.38796 -1.7338 0
M  V30 9887 H 929.276 0.767645 -2.4401 0
M  V30 9888 H 928.92 1.78346 -4.75558 0
M  V30 9889 H 928.85 3.40369 -4.01817 0
M  V30 9890 H 931.341 2.12064 -3.12789 0
M  V30 9891 H 931.654 3.80492 -6.72641 0
M  V30 9892 H 929.999 3.42791 -6.04582 0
M  V30 9893 H 933.19 2.55665 -3.92113 0
M  V30 9894 H 933.363 3.32489 -5.56197 0
M  V30 9895 N 926.769 1.22769 0.988202 0
M  V30 9896 C 927.997 1.08155 1.76381 0
M  V30 9897 C 928.412 -0.367573 1.85187 0
M  V30 9898 O 927.769 -1.25455 1.32541 0
M  V30 9899 C 927.82 1.69193 3.19462 0
M  V30 9900 O 927.541 3.08437 3.11125 0
M  V30 9901 C 929.042 1.59915 4.13451 0
M  V30 9902 H 926.262 0.378908 0.553778 0
M  V30 9903 H 928.806 1.6246 1.24206 0
M  V30 9904 H 926.961 1.18939 3.6869 0
M  V30 9905 H 927.375 3.37916 4.0114 0
M  V30 9906 H 928.849 2.07339 5.1158 0
M  V30 9907 H 929.326 0.556546 4.3566 0
M  V30 9908 H 929.932 2.09497 3.70123 0
M  V30 9909 N 928.247 -1.18576 1.03814 0
M  V30 9910 C 929.663 -1.4051 0.756909 0
M  V30 9911 C 929.863 -1.9057 -0.654631 0
M  V30 9912 O 928.919 -2.0884 -1.41922 0
M  V30 9913 C 930.232 -2.4081 1.80087 0
M  V30 9914 C 931.78 -2.54541 1.82148 0
M  V30 9915 C 932.255 -3.58102 2.85529 0
M  V30 9916 N 933.746 -3.65607 2.84404 0
M  V30 9917 C 934.481 -4.45458 3.61047 0
M  V30 9918 N 933.977 -5.28937 4.47434 0
M  V30 9919 N 935.77 -4.40196 3.49548 0
M  V30 9920 H 927.921 -0.844075 1.94908 0
M  V30 9921 H 930.184 -0.433287 0.843188 0
M  V30 9922 H 929.89 -2.1107 2.81322 0
M  V30 9923 H 929.764 -3.4012 1.63089 0
M  V30 9924 H 932.151 -2.83598 0.815855 0
M  V30 9925 H 932.232 -1.55352 2.03223 0
M  V30 9926 H 931.876 -3.29786 3.86269 0
M  V30 9927 H 931.806 -4.56963 2.6171 0
M  V30 9928 H 934.297 -3.05994 2.21756 0
M  V30 9929 H 934.61 -5.8701 5.02632 0
M  V30 9930 H 932.955 -5.28366 4.51503 0
M  V30 9931 H 936.146 -3.74026 2.81464 0
M  V30 9932 H 936.319 -5.02186 4.09528 0
M  V30 9933 N 929.725 -0.817259 -1.34754 0
M  V30 9934 C 931.136 -0.462215 -1.80888 0
M  V30 9935 C 931.487 1.01685 -1.67794 0
M  V30 9936 O 930.612 1.79094 -1.21468 0
M  V30 9937 C 931.207 -0.832204 -3.2842 0
M  V30 9938 C 929.766 -0.52961 -3.72655 0
M  V30 9939 C 928.913 -1.05214 -2.56564 0
M  V30 9940 H 931.864 -1.00795 -1.22581 0
M  V30 9941 H 931.885 -0.133804 -3.80265 0
M  V30 9942 H 931.397 -1.90873 -3.37919 0
M  V30 9943 H 929.498 0.537743 -3.68699 0
M  V30 9944 H 929.611 -1.06971 -4.67005 0
M  V30 9945 H 927.975 -0.473949 -2.50251 0
M  V30 9946 H 928.758 -2.135 -2.68836 0
M  V30 9947 N 931.203 1.46865 -0.571711 0
M  V30 9948 C 932.619 1.57897 -0.23255 0
M  V30 9949 C 932.819 1.56836 1.26509 0
M  V30 9950 O 931.875 1.47947 2.04617 0
M  V30 9951 C 933.188 2.87778 -0.872036 0
M  V30 9952 C 934.736 3.01389 -0.844605 0
M  V30 9953 C 935.211 4.33991 -1.46343 0
M  V30 9954 N 936.702 4.40662 -1.42727 0
M  V30 9955 C 937.437 5.41858 -1.87557 0
M  V30 9956 N 936.933 6.49787 -2.4031 0
M  V30 9957 N 938.726 5.32992 -1.7854 0
M  V30 9958 H 930.877 1.45798 -1.54457 0
M  V30 9959 H 933.14 0.694785 -0.644964 0
M  V30 9960 H 932.846 2.94332 -1.92513 0
M  V30 9961 H 932.72 3.75345 -0.373677 0
M  V30 9962 H 935.107 2.94423 0.19984 0
M  V30 9963 H 935.188 2.15327 -1.38087 0
M  V30 9964 H 934.832 4.41714 -2.50701 0
M  V30 9965 H 934.762 5.18809 -0.902479 0
M  V30 9966 H 937.253 3.63263 -1.04155 0
M  V30 9967 H 937.566 7.23199 -2.72403 0
M  V30 9968 H 935.911 6.50637 -2.44329 0
M  V30 9969 H 939.102 4.47575 -1.37093 0
M  V30 9970 H 939.275 6.11716 -2.13794 0
M  V30 9971 N 932.681 0.308908 1.54543 0
M  V30 9972 C 933.927 -0.298478 2.00592 0
M  V30 9973 C 934.26 -1.52929 1.19692 0
M  V30 9974 O 933.535 -1.9254 0.27542 0
M  V30 9975 C 933.818 -0.647218 3.54236 0
M  V30 9976 C 933.671 0.593284 4.4587 0
M  V30 9977 C 934.99 -1.47064 4.14801 0
M  V30 9978 H 932.109 -0.107012 0.72919 0
M  V30 9979 H 934.751 0.422578 1.85241 0
M  V30 9980 H 932.901 -1.26153 3.67447 0
M  V30 9981 H 934.573 1.2317 4.44552 0
M  V30 9982 H 932.816 1.22501 4.16144 0
M  V30 9983 H 933.487 0.305018 5.51157 0
M  V30 9984 H 935.963 -0.951511 4.05075 0
M  V30 9985 H 934.839 -1.68343 5.22448 0
M  V30 9986 H 935.1 -2.4623 3.67183 0
M  V30 9987 N 934.159 -1.57557 0.0367827 0
M  V30 9988 C 935.389 -1.96134 -0.649225 0
M  V30 9989 C 935.797 -0.912279 -1.65753 0
M  V30 9990 O 935.14 0.113569 -1.83349 0
M  V30 9991 C 935.202 -3.30889 -1.40545 0
M  V30 9992 C 934.866 -4.53622 -0.554609 0
M  V30 9993 C 935.863 -5.19611 0.17331 0
M  V30 9994 C 933.548 -4.99907 -0.48976 0
M  V30 9995 C 935.542 -6.3021 0.95467 0
M  V30 9996 C 933.229 -6.10386 0.295299 0
M  V30 9997 C 934.227 -6.75398 1.01621 0
M  V30 9998 O 933.915 -7.83755 1.78839 0
M  V30 9999 H 933.647 -0.650662 -0.183344 0
M  V30 10000 H 936.201 -2.05179 0.0951512 0
M  V30 10001 H 934.431 -3.18356 -2.19513 0
M  V30 10002 H 936.12 -3.54315 -1.9803 0
M  V30 10003 H 936.886 -4.84819 0.132589 0
M  V30 10004 H 932.765 -4.49105 -1.04046 0
M  V30 10005 H 936.309 -6.80886 1.51789 0
M  V30 10006 H 932.206 -6.44616 0.33771 0
M  V30 10007 H 932.974 -8.0046 1.70898 0
M  V30 10008 N 935.637 0.236453 -1.55816 0
M  V30 10009 C 936.585 1.31259 -1.92025 0
M  V30 10010 C 937.579 1.49292 -0.800518 0
M  V30 10011 O 938.785 1.50643 -0.985229 0
M  V30 10012 H 935.16 0.439751 -0.610019 0
M  V30 10013 H 937.131 0.979926 -2.81851 0
M  V30 10014 C 935.88 2.65892 -2.24046 0
M  V30 10015 H 935.203 2.5282 -3.09713 0
M  V30 10016 H 936.643 3.40039 -2.53277 0
M  V30 10017 C 935.102 3.19777 -1.0604 0
M  V30 10018 O 935.632 4.00473 -0.313786 0
M  V30 10019 N 933.838 2.77946 -0.848209 0
M  V30 10020 H 933.385 2.12433 -1.45706 0
M  V30 10021 H 933.343 3.14342 -0.0603424 0
M  V30 10022 N 937.115 1.49373 0.502552 0
M  V30 10023 C 938.34 1.62752 1.28556 0
M  V30 10024 C 938.765 0.298285 1.8572 0
M  V30 10025 O 938.123 -0.733885 1.65782 0
M  V30 10026 C 938.171 2.69778 2.39274 0
M  V30 10027 O 937.275 2.28843 3.43081 0
M  V30 10028 H 936.616 0.544799 0.379592 0
M  V30 10029 H 939.146 1.9555 0.601792 0
M  V30 10030 H 939.156 2.91899 2.8506 0
M  V30 10031 H 937.831 3.66266 1.97033 0
M  V30 10032 H 936.408 2.17047 3.03224 0
M  V30 10033 N 938.594 -0.753485 1.38421 0
M  V30 10034 C 940.005 -1.33081 1.30944 0
M  V30 10035 C 940.356 -1.96169 -0.0347124 0
M  V30 10036 O 939.481 -1.95073 -0.936768 0
M  V30 10037 C 940.076 -2.41973 2.37138 0
M  V30 10038 C 938.635 -2.95426 2.33239 0
M  V30 10039 C 937.782 -1.68808 2.19998 0
M  V30 10040 H 940.733 -0.552354 1.48777 0
M  V30 10041 H 940.754 -3.21913 2.02859 0
M  V30 10042 H 940.266 -1.96027 3.34956 0
M  V30 10043 H 938.367 -3.45701 1.39003 0
M  V30 10044 H 938.48 -3.49798 3.27381 0
M  V30 10045 H 936.844 -1.92438 1.66852 0
M  V30 10046 H 937.627 -1.24939 3.19758 0
M  V30 10047 N 940.072 -1.23292 -0.981677 0
M  V30 10048 C 941.3 -1.09088 -1.75805 0
M  V30 10049 C 941.715 0.357746 -1.8538 0
M  V30 10050 O 941.072 1.24751 -1.33205 0
M  V30 10051 C 941.123 -1.70885 -3.1856 0
M  V30 10052 O 940.844 -3.10082 -3.09484 0
M  V30 10053 C 942.345 -1.62106 -4.12597 0
M  V30 10054 H 939.565 -0.38184 -0.55176 0
M  V30 10055 H 942.109 -1.63116 -1.23342 0
M  V30 10056 H 940.264 -1.20893 -3.68054 0
M  V30 10057 H 940.678 -3.40039 -3.99342 0
M  V30 10058 H 942.152 -2.10049 -5.10474 0
M  V30 10059 H 942.629 -0.579642 -4.35358 0
M  V30 10060 H 943.235 -2.11457 -3.69007 0
M  V30 10061 N 941.55 1.18024 -1.04442 0
M  V30 10062 C 942.498 2.23834 -0.632557 0
M  V30 10063 C 943.492 1.65902 0.342488 0
M  V30 10064 O 944.698 1.78778 0.20937 0
M  V30 10065 H 941.073 0.728544 -0.186353 0
M  V30 10066 H 943.044 2.55876 -1.53526 0
M  V30 10067 C 941.793 3.47697 -0.0153661 0
M  V30 10068 H 941.116 3.92574 -0.756704 0
M  V30 10069 H 942.556 4.23345 0.235541 0
M  V30 10070 C 941.015 3.13416 1.23579 0
M  V30 10071 O 941.545 3.27499 2.3261 0
M  V30 10072 N 939.751 2.67708 1.13053 0
M  V30 10073 H 939.298 2.56449 0.243277 0
M  V30 10074 H 939.256 2.45143 1.96855 0
M  V30 10075 N 943.028 0.824394 1.34319 0
M  V30 10076 C 944.253 0.425194 2.02995 0
M  V30 10077 C 944.678 -0.961476 1.6167 0
M  V30 10078 O 944.036 -1.62593 0.80207 0
M  V30 10079 C 944.084 0.537004 3.56579 0
M  V30 10080 O 943.188 -0.442576 4.10018 0
M  V30 10081 H 942.529 0.174853 0.640564 0
M  V30 10082 H 945.059 1.11522 1.71534 0
M  V30 10083 H 945.069 0.413311 4.05901 0
M  V30 10084 H 943.744 1.54836 3.86004 0
M  V30 10085 H 942.321 -0.277644 3.71865 0
M  V30 10086 N 944.506 -1.46559 0.579492 0
M  V30 10087 C 945.731 -2.0729 0.0674595 0
M  V30 10088 C 946.156 -1.4259 -1.22677 0
M  V30 10089 O 945.514 -0.50857 -1.74021 0
M  V30 10090 C 945.562 -3.60492 -0.0882227 0
M  V30 10091 O 944.666 -3.96172 -1.14551 0
M  V30 10092 H 944.007 -0.661159 0.0613536 0
M  V30 10093 H 946.537 -1.88247 0.801519 0
M  V30 10094 H 946.547 -4.06929 -0.295411 0
M  V30 10095 H 945.222 -4.06976 0.856943 0
M  V30 10096 H 943.799 -3.61448 -0.917033 0
M  V30 10097 N 945.984 -0.3171 -1.54377 0
M  V30 10098 C 947.209 0.292311 -2.0533 0
M  V30 10099 C 947.634 1.45503 -1.19207 0
M  V30 10100 O 946.992 1.80197 -0.199721 0
M  V30 10101 C 947.04 0.710787 -3.53525 0
M  V30 10102 O 946.144 1.81387 -3.70368 0
M  V30 10103 H 945.485 0.0539976 -0.661801 0
M  V30 10104 H 948.015 -0.463629 -1.99278 0
M  V30 10105 H 948.025 0.995216 -3.95676 0
M  V30 10106 H 946.7 -0.139668 -4.15665 0
M  V30 10107 H 945.277 1.52875 -3.40123 0
M  V30 10108 N 947.462 1.57535 -0.0451378 0
M  V30 10109 C 948.69 1.96761 0.639742 0
M  V30 10110 C 949.105 0.922405 1.64734 0
M  V30 10111 O 948.462 -0.0940535 1.82257 0
M  V30 10112 C 948.513 3.36066 1.33199 0
M  V30 10113 O 948.234 4.36579 0.364757 0
M  V30 10114 C 949.735 3.90015 2.1072 0
M  V30 10115 H 946.955 0.64769 0.175324 0
M  V30 10116 H 949.499 2.04206 -0.109651 0
M  V30 10117 H 947.654 3.2979 2.03266 0
M  V30 10118 H 948.068 5.17432 0.858168 0
M  V30 10119 H 949.542 4.89785 2.54586 0
M  V30 10120 H 950.019 3.25117 2.95288 0
M  V30 10121 H 950.625 3.99609 1.45577 0
M  V30 10122 N 948.94 -0.228186 1.55939 0
M  V30 10123 C 949.872 -1.30605 1.88348 0
M  V30 10124 C 950.885 -1.43375 0.771198 0
M  V30 10125 O 952.074 -1.44391 1.04945 0
M  V30 10126 C 949.174 -2.68248 2.07115 0
M  V30 10127 C 948.347 -2.77509 3.38094 0
M  V30 10128 C 947.406 -3.96121 3.46373 0
M  V30 10129 O 946.432 -3.8477 4.19453 0
M  V30 10130 N 947.634 -5.10132 2.77031 0
M  V30 10131 H 950.399 -1.03132 2.81396 0
M  V30 10132 H 947.96 -0.418245 1.56404 0
M  V30 10133 H 949.952 -3.45966 2.09976 0
M  V30 10134 H 948.522 -2.88348 1.20723 0
M  V30 10135 H 947.742 -1.8632 3.47388 0
M  V30 10136 H 949.03 -2.80662 4.2439 0
M  V30 10137 H 948.428 -5.22249 2.17424 0
M  V30 10138 H 946.985 -5.85916 2.85561 0
M  V30 10139 N 950.418 -1.49637 -0.494624 0
M  V30 10140 C 951.695 -1.4995 -1.25596 0
M  V30 10141 C 952.075 -0.230805 -2.09834 0
M  V30 10142 O 951.423 0.786625 -2.14533 0
M  V30 10143 C 951.633 -2.78204 -2.10721 0
M  V30 10144 C 952.981 -3.27946 -2.69698 0
M  V30 10145 O 954.005 -2.79365 -2.20984 0
M  V30 10146 O 952.864 -4.12571 -3.58395 0
M  V30 10147 H 949.958 -0.60044 -0.568684 0
M  V30 10148 H 952.504 -1.61906 -0.508371 0
M  V30 10149 H 951.276 -3.62029 -1.48494 0
M  V30 10150 H 950.899 -2.69139 -2.92661 0
M  V30 10151 N 951.896 0.746133 -1.38819 0
M  V30 10152 C 953.121 1.54049 -1.38866 0
M  V30 10153 C 953.546 1.88092 0.0176624 0
M  V30 10154 O 952.904 1.51113 1.00173 0
M  V30 10155 C 952.952 2.8116 -2.25791 0
M  V30 10156 O 952.056 3.76623 -1.68014 0
M  V30 10157 H 951.397 0.465648 -0.473359 0
M  V30 10158 H 953.927 0.921469 -1.82675 0
M  V30 10159 H 953.937 3.30009 -2.39913 0
M  V30 10160 H 952.612 2.55713 -3.27999 0
M  V30 10161 H 951.189 3.35352 -1.63074 0
M  V30 10162 N 953.375 1.23811 0.975125 0
M  V30 10163 C 954.308 0.967173 2.06691 0
M  V30 10164 C 955.286 -0.09642 1.62314 0
M  V30 10165 O 956.47 0.0389532 1.8846 0
M  V30 10166 C 953.597 0.458094 3.35588 0
M  V30 10167 C 952.643 1.5091 3.98909 0
M  V30 10168 S 953.476 3.08815 4.37485 0
M  V30 10169 C 954.632 2.59591 5.69529 0
M  V30 10170 H 954.865 1.89166 2.29355 0
M  V30 10171 H 952.398 1.07113 1.11203 0
M  V30 10172 H 954.356 0.170991 4.10144 0
M  V30 10173 H 953.017 -0.445562 3.10924 0
M  V30 10174 H 952.21 1.10315 4.91779 0
M  V30 10175 H 951.812 1.74582 3.30752 0
M  V30 10176 H 954.104 2.0194 6.46704 0
M  V30 10177 H 955.047 3.51021 6.14971 0
M  V30 10178 H 955.455 2.00267 5.27782 0
M  V30 10179 N 954.853 -1.17469 1.05066 0
M  V30 10180 C 955.763 -2.25089 0.661222 0
M  V30 10181 C 956.779 -1.71086 -0.31712 0
M  V30 10182 O 957.955 -2.00685 -0.169534 0
M  V30 10183 C 955.02 -3.46676 0.0406415 0
M  V30 10184 C 954.081 -4.15771 1.06927 0
M  V30 10185 C 953.314 -5.31553 0.478208 0
M  V30 10186 O 953.537 -5.6593 -0.712714 0
M  V30 10187 O 952.471 -5.89574 1.21185 0
M  V30 10188 H 956.297 -2.60685 1.5581 0
M  V30 10189 H 953.882 -1.24744 0.822147 0
M  V30 10190 H 955.764 -4.203 -0.304312 0
M  V30 10191 H 954.439 -3.1288 -0.829909 0
M  V30 10192 H 953.346 -3.44171 1.46619 0
M  V30 10193 H 954.679 -4.53591 1.91092 0
M  V30 10194 N 956.331 -0.831506 -1.3388 0
M  V30 10195 C 957.577 -0.424302 -1.98312 0
M  V30 10196 C 957.91 1.01211 -1.65741 0
M  V30 10197 O 957.185 1.70636 -0.933464 0
M  V30 10198 C 957.468 -0.636815 -3.54424 0
M  V30 10199 C 957.321 -2.11997 -3.96708 0
M  V30 10200 C 958.64 -0.0782411 -4.4003 0
M  V30 10201 H 955.759 -0.155637 -0.720379 0
M  V30 10202 H 958.401 -1.04566 -1.58638 0
M  V30 10203 H 956.551 -0.107907 -3.8835 0
M  V30 10204 H 958.223 -2.71317 -3.73075 0
M  V30 10205 H 956.466 -2.60723 -3.46707 0
M  V30 10206 H 957.137 -2.21944 -5.05416 0
M  V30 10207 H 959.613 -0.530243 -4.12708 0
M  V30 10208 H 958.489 -0.256676 -5.483 0
M  V30 10209 H 958.75 1.01745 -4.30233 0
M  V30 10210 N 957.809 1.4625 -0.587256 0
M  V30 10211 C 959.057 2.01963 -0.0744273 0
M  V30 10212 C 959.378 1.46065 1.29189 0
M  V30 10213 O 958.648 0.647077 1.84905 0
M  V30 10214 H 957.228 0.746597 -0.0245236 0
M  V30 10215 H 959.89 1.79299 -0.764063 0
M  V30 10216 H 958.986 3.12099 -0.00884894 0
M  V30 10217 N 959.287 0.325282 1.54207 0
M  V30 10218 C 960.237 -0.55548 2.2113 0
M  V30 10219 C 961.221 -1.0803 1.19241 0
M  V30 10220 O 962.413 -1.01703 1.44864 0
M  V30 10221 C 959.542 -1.71504 2.97391 0
M  V30 10222 C 958.628 -1.20503 4.0662 0
M  V30 10223 N 959.019 -0.414838 5.04096 0
M  V30 10224 C 957.317 -1.4836 4.20601 0
M  V30 10225 C 958.018 -0.140225 5.81531 0
M  V30 10226 N 956.994 -0.72683 5.38719 0
M  V30 10227 H 960.796 0.0555192 2.93848 0
M  V30 10228 H 958.31 0.131225 1.61869 0
M  V30 10229 H 960.307 -2.35781 3.43821 0
M  V30 10230 H 958.967 -2.3295 2.26195 0
M  V30 10231 H 959.978 -0.0575291 5.17868 0
M  V30 10232 H 956.655 -2.10378 3.60621 0
M  V30 10233 H 958.045 0.496026 6.70067 0
M  V30 10234 N 960.765 -1.57509 0.0534917 0
M  V30 10235 C 961.99 -1.97511 -0.632794 0
M  V30 10236 C 962.415 -0.930947 -1.63447 0
M  V30 10237 O 961.773 0.105558 -1.80992 0
M  V30 10238 C 961.821 -3.3658 -1.29407 0
M  V30 10239 O 960.925 -3.3467 -2.40977 0
M  V30 10240 H 960.266 -0.643349 -0.16431 0
M  V30 10241 H 962.796 -2.04232 0.12258 0
M  V30 10242 H 962.806 -3.73359 -1.64521 0
M  V30 10243 H 961.481 -4.12113 -0.559976 0
M  V30 10244 H 960.058 -3.09639 -2.07793 0
M  V30 10245 N 962.243 0.219913 -1.56058 0
M  V30 10246 C 963.193 1.27606 -1.88946 0
M  V30 10247 C 964.177 1.42209 -0.752691 0
M  V30 10248 O 965.369 1.44996 -1.01514 0
M  V30 10249 C 962.498 2.62614 -2.21108 0
M  V30 10250 C 961.584 2.51906 -3.4118 0
M  V30 10251 N 961.975 2.10851 -4.59756 0
M  V30 10252 C 960.273 2.82861 -3.44827 0
M  V30 10253 C 960.974 2.11434 -5.41914 0
M  V30 10254 N 959.95 2.51985 -4.81669 0
M  V30 10255 H 963.752 0.94957 -2.78137 0
M  V30 10256 H 961.266 0.428468 -1.56646 0
M  V30 10257 H 963.263 3.38869 -2.42844 0
M  V30 10258 H 961.923 2.96108 -1.3323 0
M  V30 10259 H 962.934 1.81956 -4.84884 0
M  V30 10260 H 959.611 3.20716 -2.67297 0
M  V30 10261 H 961.001 1.81803 -6.46836 0
M  V30 10262 N 963.721 1.49897 0.486681 0
M  V30 10263 C 964.671 1.6401 1.58381 0
M  V30 10264 C 965.655 0.495215 1.5309 0
M  V30 10265 O 966.847 0.748876 1.60377 0
M  V30 10266 C 963.976 1.72321 2.96918 0
M  V30 10267 C 963.062 2.92435 3.07152 0
M  V30 10268 N 963.453 4.16326 2.87238 0
M  V30 10269 C 961.751 2.90669 3.38271 0
M  V30 10270 C 962.452 4.97144 3.02031 0
M  V30 10271 N 961.428 4.3079 3.31544 0
M  V30 10272 H 965.23 2.57506 1.41661 0
M  V30 10273 H 962.744 1.46867 0.693106 0
M  V30 10274 H 964.741 1.80532 3.75784 0
M  V30 10275 H 963.401 0.799724 3.14697 0
M  V30 10276 H 964.412 4.46076 2.63128 0
M  V30 10277 H 961.089 2.07758 3.62137 0
M  V30 10278 H 962.479 6.05611 2.91006 0
M  V30 10279 N 965.199 -0.738761 1.39212 0
M  V30 10280 C 966.424 -1.5331 1.39681 0
M  V30 10281 C 966.849 -1.88098 -0.00768715 0
M  V30 10282 O 966.207 -1.51642 -0.993699 0
M  V30 10283 C 966.255 -2.79958 2.27279 0
M  V30 10284 O 965.359 -3.75727 1.70008 0
M  V30 10285 H 964.7 -0.463131 0.475821 0
M  V30 10286 H 967.23 -0.911768 1.83161 0
M  V30 10287 H 967.24 -3.28732 2.41659 0
M  V30 10288 H 965.915 -2.5397 3.29351 0
M  V30 10289 H 964.492 -3.34483 1.64851 0
M  V30 10290 N 966.677 -1.24326 -0.968545 0
M  V30 10291 C 967.61 -0.978121 -2.06175 0
M  V30 10292 C 968.588 0.0878107 -1.62363 0
M  V30 10293 O 969.772 -0.0489472 -1.88436 0
M  V30 10294 C 966.899 -0.475884 -3.3534 0
M  V30 10295 C 965.945 -1.53023 -3.98103 0
M  V30 10296 S 966.778 -3.11131 -4.35841 0
M  V30 10297 C 967.934 -2.62608 -5.68144 0
M  V30 10298 H 968.167 -1.9038 -2.28348 0
M  V30 10299 H 965.7 -1.07701 -1.10633 0
M  V30 10300 H 967.658 -0.192739 -4.10047 0
M  V30 10301 H 966.319 0.429067 -3.11156 0
M  V30 10302 H 965.512 -1.12922 -4.91187 0
M  V30 10303 H 965.114 -1.76334 -3.29822 0
M  V30 10304 H 967.406 -2.05367 -6.45624 0
M  V30 10305 H 968.349 -3.54277 -6.13101 0
M  V30 10306 H 968.757 -2.03063 -5.26712 0
M  V30 10307 N 968.156 1.1691 -1.05688 0
M  V30 10308 C 969.384 1.91204 -0.790485 0
M  V30 10309 C 969.799 1.77095 0.654434 0
M  V30 10310 O 969.156 1.11146 1.44751 0
M  V30 10311 C 969.207 3.42108 -1.16808 0
M  V30 10312 O 968.928 3.55788 -2.55629 0
M  V30 10313 C 970.429 4.33466 -0.92855 0
M  V30 10314 H 967.649 0.606508 -0.287035 0
M  V30 10315 H 970.193 1.48225 -1.40888 0
M  V30 10316 H 968.348 3.82814 -0.59434 0
M  V30 10317 H 968.762 4.49321 -2.70575 0
M  V30 10318 H 970.236 5.37836 -1.24245 0
M  V30 10319 H 970.713 4.38989 0.136016 0
M  V30 10320 H 971.319 3.98481 -1.48638 0
M  V30 10321 N 969.634 0.838594 1.33437 0
M  V30 10322 C 970.859 0.446701 2.02532 0
M  V30 10323 C 971.284 -0.944275 1.62681 0
M  V30 10324 O 970.642 -1.61733 0.81927 0
M  V30 10325 C 970.69 0.574794 3.55989 0
M  V30 10326 O 969.794 -0.399063 4.10465 0
M  V30 10327 H 969.135 0.181637 0.638674 0
M  V30 10328 H 971.665 1.13335 1.70342 0
M  V30 10329 H 971.675 0.456339 4.0544 0
M  V30 10330 H 970.35 1.58921 3.8434 0
M  V30 10331 H 968.927 -0.238187 3.72139 0
M  V30 10332 N 971.112 -1.45937 0.595003 0
M  V30 10333 C 972.042 -2.33198 -0.11871 0
M  V30 10334 C 973.023 -1.46083 -0.871423 0
M  V30 10335 O 974.208 -1.74879 -0.844461 0
M  V30 10336 C 971.338 -3.28576 -1.12495 0
M  V30 10337 C 970.292 -4.25229 -0.486275 0
M  V30 10338 C 969.618 -5.10204 -1.59986 0
M  V30 10339 C 970.918 -5.19019 0.584473 0
M  V30 10340 H 972.612 -2.93122 0.609886 0
M  V30 10341 H 970.158 -1.40951 0.294742 0
M  V30 10342 H 972.111 -3.88485 -1.6327 0
M  V30 10343 H 970.835 -2.66784 -1.88398 0
M  V30 10344 H 969.494 -3.666 0.000507962 0
M  V30 10345 H 969.142 -4.44789 -2.34886 0
M  V30 10346 H 968.842 -5.75669 -1.1781 0
M  V30 10347 H 970.366 -5.7298 -2.11014 0
M  V30 10348 H 971.78 -5.73073 0.161297 0
M  V30 10349 H 970.177 -5.92893 0.927256 0
M  V30 10350 H 971.247 -4.62208 1.46601 0
M  V30 10351 N 972.59 -0.333456 -1.54032 0
M  V30 10352 C 973.815 0.270517 -2.05628 0
M  V30 10353 C 974.24 1.44231 -1.20744 0
M  V30 10354 O 973.598 1.79975 -0.218822 0
M  V30 10355 C 973.646 0.673251 -3.54259 0
M  V30 10356 O 972.75 1.77448 -3.72271 0
M  V30 10357 H 972.091 0.0469753 -0.662336 0
M  V30 10358 H 974.621 -0.484739 -1.98775 0
M  V30 10359 H 974.631 0.953194 -3.96709 0
M  V30 10360 H 973.306 -0.183747 -4.15494 0
M  V30 10361 H 971.883 1.49259 -3.41725 0
M  V30 10362 N 974.068 1.57479 -0.061844 0
M  V30 10363 C 975.293 1.97843 0.622311 0
M  V30 10364 C 975.718 0.939602 1.62951 0
M  V30 10365 O 975.076 -0.095958 1.81046 0
M  V30 10366 C 975.124 3.37262 1.2762 0
M  V30 10367 O 974.228 3.35943 2.39199 0
M  V30 10368 H 973.569 0.644212 0.160896 0
M  V30 10369 H 976.099 2.04165 -0.133409 0
M  V30 10370 H 976.109 3.74226 1.62539 0
M  V30 10371 H 974.784 4.12404 0.538112 0
M  V30 10372 H 973.361 3.10737 2.06148 0
M  V30 10373 N 975.546 -0.211634 1.56173 0
M  V30 10374 C 976.771 -0.955324 1.84088 0
M  V30 10375 C 977.196 -1.76754 0.643407 0
M  V30 10376 O 976.554 -1.76653 -0.407842 0
M  V30 10377 C 976.602 -1.84063 3.10085 0
M  V30 10378 O 975.706 -2.9373 2.89476 0
M  V30 10379 H 975.047 -0.26996 0.606645 0
M  V30 10380 H 977.577 -0.221947 2.03393 0
M  V30 10381 H 977.587 -2.24852 3.40449 0
M  V30 10382 H 976.262 -1.24373 3.96868 0
M  V30 10383 H 974.839 -2.56816 2.7037 0
M  V30 10384 N 977.024 -1.50153 -0.478725 0
M  V30 10385 C 978.252 -1.64505 -1.25482 0
M  V30 10386 C 978.667 -0.325295 -1.85977 0
M  V30 10387 O 978.024 0.691885 -1.68876 0
M  V30 10388 C 978.075 -2.73052 -2.36906 0
M  V30 10389 O 977.796 -3.99911 -1.78894 0
M  V30 10390 C 979.297 -2.98309 -3.27912 0
M  V30 10391 H 976.517 -0.55318 -0.379781 0
M  V30 10392 H 979.061 -1.96329 -0.57229 0
M  V30 10393 H 977.216 -2.43944 -3.00949 0
M  V30 10394 H 977.63 -4.5988 -2.52211 0
M  V30 10395 H 979.104 -3.77942 -4.02323 0
M  V30 10396 H 979.581 -2.09082 -3.8624 0
M  V30 10397 H 980.187 -3.2892 -2.69614 0
M  V30 10398 N 978.502 0.731368 -1.39602 0
M  V30 10399 C 979.73 1.52059 -1.40305 0
M  V30 10400 C 980.145 1.888 0.00147921 0
M  V30 10401 O 979.502 1.54354 0.973715 0
M  V30 10402 C 979.553 2.80588 -2.27931 0
M  V30 10403 O 979.274 2.45406 -3.62915 0
M  V30 10404 C 980.775 3.74592 -2.37056 0
M  V30 10405 H 977.995 0.469787 -0.479104 0
M  V30 10406 H 980.539 0.903436 -1.83462 0
M  V30 10407 H 978.694 3.38626 -1.88178 0
M  V30 10408 H 979.108 3.27996 -4.09291 0
M  V30 10409 H 980.582 4.61662 -3.02609 0
M  V30 10410 H 981.059 4.16597 -1.39081 0
M  V30 10411 H 981.665 3.22471 -2.77295 0
M  V30 10412 N 979.98 1.24838 0.961938 0
M  V30 10413 C 981.205 1.11967 1.7458 0
M  V30 10414 C 981.63 -0.323287 1.85301 0
M  V30 10415 O 980.988 -1.23412 1.32812 0
M  V30 10416 C 981.036 1.77066 3.14134 0
M  V30 10417 O 980.14 1.04534 3.98932 0
M  V30 10418 H 979.481 0.391338 0.536424 0
M  V30 10419 H 982.011 1.65259 1.20626 0
M  V30 10420 H 982.021 1.83056 3.64629 0
M  V30 10421 H 980.696 2.82052 3.05646 0
M  V30 10422 H 979.273 1.06372 3.57407 0
M  V30 10423 N 981.458 -1.16348 1.06306 0
M  V30 10424 C 982.683 -1.91323 0.800636 0
M  V30 10425 C 983.108 -1.7691 -0.639105 0
M  V30 10426 O 982.466 -1.0945 -1.44535 0
M  V30 10427 C 982.514 -3.40038 1.20027 0
M  V30 10428 O 981.618 -4.11003 0.339142 0
M  V30 10429 H 980.959 -0.596057 0.292595 0
M  V30 10430 H 983.489 -1.47406 1.41889 0
M  V30 10431 H 983.499 -3.90808 1.17188 0
M  V30 10432 H 982.174 -3.49848 2.24898 0
M  V30 10433 H 980.751 -3.70423 0.42911 0
M  V30 10434 N 982.937 -0.845659 -1.3299 0
M  V30 10435 C 984.162 -0.457435 -2.02293 0
M  V30 10436 C 984.587 0.935634 -1.63179 0
M  V30 10437 O 983.945 1.61297 -0.827835 0
M  V30 10438 C 983.993 -0.593665 -3.5568 0
M  V30 10439 O 983.097 0.37729 -4.10671 0
M  V30 10440 H 982.438 -0.185022 -0.637701 0
M  V30 10441 H 984.968 -1.14237 -1.69738 0
M  V30 10442 H 984.978 -0.477834 -4.05192 0
M  V30 10443 H 983.653 -1.60957 -3.83491 0
M  V30 10444 H 982.23 0.218448 -3.7226 0
M  V30 10445 N 984.415 1.45619 -0.602734 0
M  V30 10446 C 985.643 2.06647 -0.102253 0
M  V30 10447 C 986.058 1.4482 1.21131 0
M  V30 10448 O 985.415 0.560621 1.73676 0
M  V30 10449 C 985.466 3.61467 0.0490113 0
M  V30 10450 O 985.187 4.20985 -1.21257 0
M  V30 10451 C 986.688 4.39469 0.581517 0
M  V30 10452 H 983.908 0.667685 -0.0666155 0
M  V30 10453 H 986.452 1.86939 -0.829091 0
M  V30 10454 H 984.607 3.80534 0.726153 0
M  V30 10455 H 985.021 5.14103 -1.03915 0
M  V30 10456 H 986.495 5.48318 0.636462 0
M  V30 10457 H 986.972 4.0891 1.60277 0
M  V30 10458 H 987.578 4.25256 -0.061419 0
M  V30 10459 N 985.893 0.34162 1.53853 0
M  V30 10460 C 987.118 -0.259608 2.05769 0
M  V30 10461 C 987.543 -1.43588 1.21507 0
M  V30 10462 O 986.901 -1.79856 0.228364 0
M  V30 10463 C 986.949 -0.654455 3.54611 0
M  V30 10464 O 986.053 -1.75472 3.73207 0
M  V30 10465 H 985.394 -0.0434621 0.662576 0
M  V30 10466 H 987.924 0.495274 1.98515 0
M  V30 10467 H 987.934 -0.932142 3.97209 0
M  V30 10468 H 986.609 0.205779 4.15391 0
M  V30 10469 H 985.186 -1.47444 3.42512 0
M  V30 10470 N 987.371 -1.57444 0.0701946 0
M  V30 10471 C 988.596 -1.98171 -0.61181 0
M  V30 10472 C 989.021 -0.94823 -1.62451 0
M  V30 10473 O 988.379 0.0863553 -1.81094 0
M  V30 10474 C 988.427 -3.37934 -1.2583 0
M  V30 10475 O 987.531 -3.37207 -2.37414 0
M  V30 10476 H 986.872 -0.645056 -0.157477 0
M  V30 10477 H 989.402 -2.04091 0.144235 0
M  V30 10478 H 989.412 -3.75083 -1.60552 0
M  V30 10479 H 988.087 -4.12684 -0.516234 0
M  V30 10480 H 986.664 -3.11826 -2.04497 0
M  V30 10481 N 988.849 0.203349 -1.56283 0
M  V30 10482 C 990.074 0.945548 -1.84592 0
M  V30 10483 C 990.499 1.7641 -0.652772 0
M  V30 10484 O 989.857 1.76867 0.398468 0
M  V30 10485 C 989.905 1.82416 -3.11057 0
M  V30 10486 O 989.009 2.92191 -2.9103 0
M  V30 10487 H 988.35 0.266739 -0.608068 0
M  V30 10488 H 990.88 0.211158 -2.03507 0
M  V30 10489 H 990.89 2.23044 -3.41636 0
M  V30 10490 H 989.565 1.22267 -3.97522 0
M  V30 10491 H 988.142 2.55378 -2.71728 0
M  V30 10492 N 990.327 1.50405 0.470755 0
M  V30 10493 C 991.552 1.65442 1.25075 0
M  V30 10494 C 991.977 0.337612 1.85045 0
M  V30 10495 O 991.335 -0.698555 1.67302 0
M  V30 10496 C 991.383 2.74793 2.33498 0
M  V30 10497 O 990.487 2.36069 3.3815 0
M  V30 10498 H 989.828 0.552728 0.367951 0
M  V30 10499 H 992.358 1.96782 0.560177 0
M  V30 10500 H 992.368 2.97879 2.78804 0
M  V30 10501 H 991.043 3.70363 1.8922 0
M  V30 10502 H 989.62 2.2343 2.98552 0
M  V30 10503 N 991.805 -0.723954 1.39988 0
M  V30 10504 C 993.033 -1.51313 1.4111 0
M  V30 10505 C 993.448 -1.88798 0.00853333 0
M  V30 10506 O 992.805 -1.54868 -0.965516 0
M  V30 10507 C 992.856 -2.79375 2.29416 0
M  V30 10508 O 992.577 -2.43478 3.64211 0
M  V30 10509 C 994.078 -3.7333 2.3904 0
M  V30 10510 H 991.298 -0.46724 0.481589 0
M  V30 10511 H 993.842 -0.893694 1.83938 0
M  V30 10512 H 991.997 -3.37624 1.89971 0
M  V30 10513 H 992.411 -3.25821 4.11024 0
M  V30 10514 H 993.885 -4.60051 3.05053 0
M  V30 10515 H 994.362 -4.15854 1.41289 0
M  V30 10516 H 994.968 -3.20996 2.79001 0
M  V30 10517 N 993.283 -1.25346 -0.955304 0
M  V30 10518 C 994.531 -1.09837 -1.69647 0
M  V30 10519 C 994.852 0.361425 -1.91621 0
M  V30 10520 O 994.122 1.25666 -1.50283 0
M  V30 10521 H 992.702 -0.403467 -0.628668 0
M  V30 10522 H 995.364 -1.57459 -1.14859 0
M  V30 10523 H 994.46 -1.60616 -2.67598 0
M  V30 10524 N 994.761 1.15782 -1.06922 0
M  V30 10525 C 995.709 2.22441 -0.679893 0
M  V30 10526 C 996.703 1.66591 0.307221 0
M  V30 10527 O 997.909 1.79182 0.171402 0
M  V30 10528 H 994.284 0.724427 -0.201765 0
M  V30 10529 H 996.255 2.52562 -1.58918 0
M  V30 10530 C 995.004 3.47586 -0.0891142 0
M  V30 10531 H 994.327 3.9088 -0.839805 0
M  V30 10532 H 995.767 4.2375 0.14569 0
M  V30 10533 C 994.226 3.15967 1.16903 0
M  V30 10534 O 994.756 3.32359 2.25611 0
M  V30 10535 N 992.962 2.70046 1.07349 0
M  V30 10536 H 992.509 2.56907 0.188825 0
M  V30 10537 H 992.467 2.49264 1.91611 0
M  V30 10538 N 996.239 0.8527 1.3254 0
M  V30 10539 C 997.171 0.253181 2.27797 0
M  V30 10540 C 998.184 -0.573977 1.52346 0
M  V30 10541 O 999.373 -0.398786 1.73988 0
M  V30 10542 C 996.473 -0.661034 3.32391 0
M  V30 10543 C 995.646 0.12984 4.37207 0
M  V30 10544 C 994.705 -0.709837 5.2139 0
M  V30 10545 O 993.731 -0.144056 5.69018 0
M  V30 10546 N 994.933 -2.0249 5.44039 0
M  V30 10547 H 997.698 1.07171 2.79883 0
M  V30 10548 H 995.259 0.712491 1.45379 0
M  V30 10549 H 997.251 -1.22806 3.85617 0
M  V30 10550 H 995.821 -1.38025 2.80478 0
M  V30 10551 H 995.041 0.878289 3.84291 0
M  V30 10552 H 996.329 0.673141 5.04328 0
M  V30 10553 H 995.727 -2.50792 5.0707 0
M  V30 10554 H 994.284 -2.5401 6.00269 0
M  V30 10555 N 997.718 -1.45297 0.610449 0
M  V30 10556 C 998.966 -2.01819 0.106548 0
M  V30 10557 C 999.287 -1.48102 -1.26849 0
M  V30 10558 O 998.557 -0.676411 -1.83852 0
M  V30 10559 H 997.137 -0.746113 0.0363982 0
M  V30 10560 H 999.799 -1.78061 0.792491 0
M  V30 10561 H 998.895 -3.12045 0.0585 0
M  V30 10562 N 999.196 -0.349774 -1.5367 0
M  V30 10563 C 1000.14 0.519396 -2.26727 0
M  V30 10564 C 1001.14 1.09673 -1.29105 0
M  V30 10565 O 1002.34 1.04176 -1.46791 0
M  V30 10566 H 998.719 0.186192 -0.728585 0
M  V30 10567 H 1000.69 -0.118736 -2.98164 0
M  V30 10568 C 999.439 1.65535 -3.05767 0
M  V30 10569 H 998.762 1.22038 -3.80719 0
M  V30 10570 H 1000.2 2.23856 -3.6009 0
M  V30 10571 C 998.661 2.58844 -2.15642 0
M  V30 10572 O 999.191 3.61254 -1.75665 0
M  V30 10573 N 997.397 2.27671 -1.80595 0
M  V30 10574 H 996.944 1.44429 -2.13302 0
M  V30 10575 H 996.902 2.90359 -1.20577 0
M  V30 10576 N 1000.67 1.57404 -0.0785433 0
M  V30 10577 C 1001.61 2.101 0.916013 0
M  V30 10578 C 1002.62 1.03459 1.25698 0
M  V30 10579 O 1003.81 1.30954 1.21299 0
M  V30 10580 C 1000.91 2.55202 2.22992 0
M  V30 10581 C 1000.08 3.85491 2.06678 0
M  V30 10582 C 999.14 4.16614 3.21433 0
M  V30 10583 O 998.166 4.86105 2.96126 0
M  V30 10584 N 999.368 3.70697 4.46726 0
M  V30 10585 H 1002.13 2.96054 0.466059 0
M  V30 10586 H 999.694 1.61546 0.107006 0
M  V30 10587 H 1001.69 2.7308 2.9868 0
M  V30 10588 H 1000.26 1.74348 2.59464 0
M  V30 10589 H 999.476 3.76925 1.15417 0
M  V30 10590 H 1000.76 4.70759 1.93036 0
M  V30 10591 H 1000.16 3.14571 4.70172 0
M  V30 10592 H 998.719 3.93762 5.19418 0
M  V30 10593 N 1002.15 -0.195058 1.56388 0
M  V30 10594 C 1003.11 -1.2254 1.93692 0
M  V30 10595 C 1004.11 -1.38437 0.81804 0
M  V30 10596 O 1005.3 -1.36248 1.08545 0
M  V30 10597 C 1002.44 -2.59476 2.21099 0
M  V30 10598 H 1003.63 -0.906544 2.8587 0
M  V30 10599 H 1001.18 -0.436577 1.50079 0
M  V30 10600 H 1001.92 -2.96417 1.31558 0
M  V30 10601 H 1001.7 -2.4931 3.02634 0
M  V30 10602 H 1003.19 -3.33777 2.50964 0
M  V30 10603 N 1003.63 -1.50653 -0.462772 0
M  V30 10604 C 1004.86 -1.65586 -1.23551 0
M  V30 10605 C 1005.27 -0.342012 -1.86083 0
M  V30 10606 O 1004.61 0.686893 -1.70374 0
M  V30 10607 C 1004.67 -2.69555 -2.37867 0
M  V30 10608 C 1004.34 -4.1288 -1.95906 0
M  V30 10609 C 1005.33 -4.98483 -1.47685 0
M  V30 10610 C 1003.02 -4.58843 -2.04373 0
M  V30 10611 C 1005.01 -6.281 -1.08484 0
M  V30 10612 C 1002.7 -5.88464 -1.64783 0
M  V30 10613 C 1003.7 -6.72918 -1.16918 0
M  V30 10614 O 1003.39 -8.00119 -0.778798 0
M  V30 10615 H 1003.12 -0.559438 -0.37948 0
M  V30 10616 H 1005.67 -1.9768 -0.557816 0
M  V30 10617 H 1003.9 -2.3272 -3.08834 0
M  V30 10618 H 1005.59 -2.73624 -2.99808 0
M  V30 10619 H 1006.36 -4.64186 -1.40558 0
M  V30 10620 H 1002.24 -3.93247 -2.40577 0
M  V30 10621 H 1005.78 -6.93972 -0.710524 0
M  V30 10622 H 1001.68 -6.22281 -1.71571 0
M  V30 10623 H 1002.44 -8.1346 -0.906911 0
M  V30 10624 N 1005.11 0.71652 -1.4037 0
M  V30 10625 C 1006.04 1.84138 -1.36477 0
M  V30 10626 C 1007.05 1.6054 -0.27033 0
M  V30 10627 O 1008.24 1.70431 -0.530612 0
M  V30 10628 C 1005.34 3.20523 -1.10082 0
M  V30 10629 C 1004.52 3.71326 -2.31162 0
M  V30 10630 C 1003.57 4.86322 -2.00942 0
M  V30 10631 O 1002.6 4.99022 -2.73799 0
M  V30 10632 N 1003.8 5.72051 -0.986812 0
M  V30 10633 H 1006.57 1.87977 -2.3342 0
M  V30 10634 H 1004.13 0.89802 -1.34712 0
M  V30 10635 H 1006.12 3.95049 -0.878526 0
M  V30 10636 H 1004.69 3.11838 -0.21809 0
M  V30 10637 H 1003.91 2.87941 -2.69227 0
M  V30 10638 H 1005.2 4.02003 -3.11883 0
M  V30 10639 H 1004.6 5.64399 -0.383381 0
M  V30 10640 H 1003.15 6.46565 -0.824419 0
M  V30 10641 N 1006.59 1.25851 0.948643 0
M  V30 10642 C 1007.53 1.06559 2.06756 0
M  V30 10643 C 1008.53 -0.00528632 1.69399 0
M  V30 10644 O 1009.73 0.150806 1.79367 0
M  V30 10645 H 1006.11 0.327689 0.676848 0
M  V30 10646 H 1008.08 2.01401 2.20182 0
M  V30 10647 C 1006.83 0.707392 3.40428 0
M  V30 10648 H 1006.15 1.52324 3.69645 0
M  V30 10649 H 1007.59 0.612142 4.19558 0
M  V30 10650 C 1006.05 -0.58697 3.31747 0
M  V30 10651 O 1006.58 -1.62741 3.67258 0
M  V30 10652 N 1004.79 -0.574828 2.84858 0
M  V30 10653 H 1004.33 0.272236 2.56157 0
M  V30 10654 H 1004.29 -1.441 2.79432 0
M  V30 10655 N 1008.06 -1.15214 1.07534 0
M  V30 10656 C 1009.48 -1.38031 0.801228 0
M  V30 10657 C 1009.68 -1.92556 -0.593672 0
M  V30 10658 O 1008.74 -2.1325 -1.35206 0
M  V30 10659 C 1010.05 -2.34958 1.87657 0
M  V30 10660 C 1011.6 -2.48617 1.90154 0
M  V30 10661 C 1012.07 -3.48837 2.96777 0
M  V30 10662 N 1013.56 -3.56374 2.95892 0
M  V30 10663 C 1014.3 -4.33746 3.75036 0
M  V30 10664 N 1013.79 -5.14435 4.64036 0
M  V30 10665 N 1015.59 -4.28853 3.63375 0
M  V30 10666 H 1007.74 -0.781639 1.97495 0
M  V30 10667 H 1010 -0.406243 0.856546 0
M  V30 10668 H 1009.71 -2.02013 2.87895 0
M  V30 10669 H 1009.58 -3.3476 1.73827 0
M  V30 10670 H 1011.97 -2.80859 0.905666 0
M  V30 10671 H 1012.05 -1.48808 2.08062 0
M  V30 10672 H 1011.69 -3.1733 3.96565 0
M  V30 10673 H 1011.62 -4.48406 2.76116 0
M  V30 10674 H 1014.11 -2.98784 2.31379 0
M  V30 10675 H 1014.43 -5.70722 5.21053 0
M  V30 10676 H 1012.77 -5.13734 4.68084 0
M  V30 10677 H 1015.96 -3.64882 2.93221 0
M  V30 10678 H 1016.14 -4.88903 4.25298 0
M  V30 10679 N 1009.54 -0.859717 -1.32086 0
M  V30 10680 C 1010.95 -0.519529 -1.79326 0
M  V30 10681 C 1011.3 0.96295 -1.70944 0
M  V30 10682 O 1010.43 1.75139 -1.27104 0
M  V30 10683 C 1011.02 -0.936267 -3.25606 0
M  V30 10684 C 1009.58 -0.647899 -3.70782 0
M  V30 10685 C 1008.73 -1.13323 -2.53087 0
M  V30 10686 H 1011.68 -1.04643 -1.19312 0
M  V30 10687 H 1011.7 -0.254714 -3.79646 0
M  V30 10688 H 1011.21 -2.01527 -3.31675 0
M  V30 10689 H 1009.32 0.420172 -3.70223 0
M  V30 10690 H 1009.43 -1.21774 -4.63366 0
M  V30 10691 H 1007.79 -0.553325 -2.48617 0
M  V30 10692 H 1008.58 -2.21945 -2.61907 0
M  V30 10693 N 1011.02 1.44971 -0.618145 0
M  V30 10694 C 1012.27 2.02458 -0.117656 0
M  V30 10695 C 1012.6 1.48413 1.25248 0
M  V30 10696 O 1011.87 0.662997 1.82851 0
M  V30 10697 C 1012.16 3.59987 -0.0901897 0
M  V30 10698 C 1012.01 4.24343 -1.49175 0
M  V30 10699 C 1013.33 4.36099 0.592121 0
M  V30 10700 H 1010.45 0.735672 -0.0442291 0
M  V30 10701 H 1013.09 1.727 -0.792138 0
M  V30 10702 H 1011.24 3.85471 0.484175 0
M  V30 10703 H 1012.91 4.10009 -2.114 0
M  V30 10704 H 1011.16 3.82337 -2.04941 0
M  V30 10705 H 1011.83 5.33298 -1.42468 0
M  V30 10706 H 1014.3 4.1597 0.103813 0
M  V30 10707 H 1013.18 5.45822 0.580481 0
M  V30 10708 H 1013.44 4.09746 1.66015 0
M  V30 10709 N 1012.5 0.357919 1.53482 0
M  V30 10710 C 1013.46 -0.479797 2.24122 0
M  V30 10711 C 1014.46 -1.01596 1.24639 0
M  V30 10712 O 1015.65 -0.902928 1.48973 0
M  V30 10713 C 1012.78 -1.66983 2.97203 0
M  V30 10714 H 1013.98 0.138219 2.99581 0
M  V30 10715 H 1011.53 0.109484 1.55916 0
M  V30 10716 H 1012.26 -2.32615 2.25966 0
M  V30 10717 H 1012.05 -1.29242 3.70188 0
M  V30 10718 H 1013.54 -2.26367 3.50924 0
M  V30 10719 N 1013.98 -1.5736 0.0868897 0
M  V30 10720 C 1014.94 -2.12436 -0.860439 0
M  V30 10721 C 1015.94 -1.05175 -1.21634 0
M  V30 10722 O 1017.13 -1.31098 -1.14713 0
M  V30 10723 C 1014.26 -2.63818 -2.159 0
M  V30 10724 H 1015.45 -2.97453 -0.382346 0
M  V30 10725 H 1013.01 -1.55458 -0.162009 0
M  V30 10726 H 1013.74 -1.82298 -2.68212 0
M  V30 10727 H 1013.53 -3.42234 -1.91359 0
M  V30 10728 H 1015.02 -3.06452 -2.83685 0
M  V30 10729 N 1015.45 0.186762 -1.56489 0
M  V30 10730 C 1016.4 1.25084 -1.96104 0
M  V30 10731 C 1017.4 1.4667 -0.847609 0
M  V30 10732 O 1018.6 1.47432 -1.03266 0
M  V30 10733 H 1014.98 0.420121 -0.623701 0
M  V30 10734 H 1016.95 0.889761 -2.84826 0
M  V30 10735 C 1015.7 2.5863 -2.32392 0
M  V30 10736 H 1015.02 2.42838 -3.176 0
M  V30 10737 H 1016.46 3.3181 -2.63967 0
M  V30 10738 C 1014.92 3.16241 -1.16159 0
M  V30 10739 O 1015.45 3.99272 -0.441034 0
M  V30 10740 N 1013.66 2.75106 -0.936206 0
M  V30 10741 H 1013.2 2.0769 -1.5239 0
M  V30 10742 H 1013.16 3.13991 -0.160317 0
M  V30 10743 N 1016.93 1.50896 0.454776 0
M  V30 10744 C 1018.16 1.6648 1.22849 0
M  V30 10745 C 1018.58 0.354841 1.85435 0
M  V30 10746 O 1017.93 -0.664931 1.69956 0
M  V30 10747 C 1017.98 2.76787 2.32532 0
M  V30 10748 O 1017.7 4.02706 1.72509 0
M  V30 10749 C 1019.21 3.03488 3.23125 0
M  V30 10750 H 1016.43 0.559152 0.370932 0
M  V30 10751 H 1018.97 1.97215 0.540983 0
M  V30 10752 H 1017.12 2.48701 2.9703 0
M  V30 10753 H 1017.54 4.63834 2.44863 0
M  V30 10754 H 1019.01 3.84294 3.9626 0
M  V30 10755 H 1019.49 2.152 3.82865 0
M  V30 10756 H 1020.1 3.33167 2.64347 0
M  V30 10757 N 1018.41 -0.709066 1.40748 0
M  V30 10758 C 1019.34 -1.83583 1.4429 0
M  V30 10759 C 1020.32 -1.67378 0.303067 0
M  V30 10760 O 1021.51 -1.87312 0.512612 0
M  V30 10761 C 1018.64 -3.21599 1.31116 0
M  V30 10762 C 1017.59 -3.52486 2.4277 0
M  V30 10763 C 1016.92 -4.89716 2.14668 0
M  V30 10764 C 1018.22 -3.52824 3.85113 0
M  V30 10765 H 1019.91 -1.80876 2.38588 0
M  V30 10766 H 1017.46 -0.868795 1.14839 0
M  V30 10767 H 1019.41 -4.00123 1.32209 0
M  V30 10768 H 1018.13 -3.24898 0.332965 0
M  V30 10769 H 1016.79 -2.76305 2.40937 0
M  V30 10770 H 1016.44 -4.89625 1.15224 0
M  V30 10771 H 1016.14 -5.11347 2.89478 0
M  V30 10772 H 1017.66 -5.70566 2.17455 0
M  V30 10773 H 1019.08 -4.21377 3.88734 0
M  V30 10774 H 1017.48 -3.85984 4.59496 0
M  V30 10775 H 1018.55 -2.52073 4.14231 0
M  V30 10776 N 1019.89 -1.26353 -0.941956 0
M  V30 10777 C 1021.17 -1.02601 -1.6653 0
M  V30 10778 C 1021.55 0.44381 -2.06382 0
M  V30 10779 O 1020.89 1.42399 -1.78703 0
M  V30 10780 C 1021.1 -1.97401 -2.87809 0
M  V30 10781 C 1022.45 -2.25967 -3.59478 0
M  V30 10782 O 1023.48 -1.95261 -2.97912 0
M  V30 10783 O 1022.34 -2.78244 -4.70364 0
M  V30 10784 H 1019.43 -0.39007 -0.729228 0
M  V30 10785 H 1021.98 -1.37559 -0.993754 0
M  V30 10786 H 1020.75 -2.9659 -2.55245 0
M  V30 10787 H 1020.37 -1.62918 -3.62689 0
M  V30 10788 N 1021.37 1.14642 -1.08144 0
M  V30 10789 C 1022.61 1.85617 -0.809484 0
M  V30 10790 C 1022.94 1.8279 0.664672 0
M  V30 10791 O 1022.2 1.25178 1.50429 0
M  V30 10792 C 1022.5 3.33953 -1.2732 0
M  V30 10793 C 1022.16 3.56969 -2.7547 0
M  V30 10794 C 1020.82 3.6296 -3.15933 0
M  V30 10795 C 1023.18 3.66014 -3.71057 0
M  V30 10796 C 1020.5 3.75515 -4.50783 0
M  V30 10797 C 1022.86 3.80094 -5.05679 0
M  V30 10798 C 1021.52 3.84333 -5.45751 0
M  V30 10799 H 1020.79 0.67922 -0.296211 0
M  V30 10800 H 1023.44 1.35433 -1.35389 0
M  V30 10801 H 1021.74 3.86399 -0.648329 0
M  V30 10802 H 1023.44 3.87291 -1.03957 0
M  V30 10803 H 1020.03 3.52953 -2.4315 0
M  V30 10804 H 1024.21 3.60679 -3.40917 0
M  V30 10805 H 1019.47 3.77057 -4.81288 0
M  V30 10806 H 1023.64 3.86035 -5.79612 0
M  V30 10807 H 1021.27 3.93814 -6.50242 0
M  V30 10808 N 1022.85 0.866709 1.31628 0
M  V30 10809 C 1024.09 0.475086 1.96437 0
M  V30 10810 C 1024.41 -0.975179 1.68865 0
M  V30 10811 O 1023.68 -1.68317 1.0023 0
M  V30 10812 H 1022.26 0.172695 0.726764 0
M  V30 10813 H 1024.93 1.10578 1.60494 0
M  V30 10814 H 1024.02 0.630123 3.05673 0
M  V30 10815 N 1024.32 -1.44642 0.625825 0
M  V30 10816 C 1025.26 -2.28882 -0.120614 0
M  V30 10817 C 1026.27 -1.40985 -0.81407 0
M  V30 10818 O 1027.46 -1.65188 -0.676404 0
M  V30 10819 C 1024.56 -3.17217 -1.19274 0
M  V30 10820 C 1023.73 -4.33499 -0.582839 0
M  V30 10821 C 1022.79 -5.02908 -1.54823 0
M  V30 10822 O 1021.82 -5.59102 -1.06743 0
M  V30 10823 N 1023.02 -5.0387 -2.88262 0
M  V30 10824 H 1025.78 -2.93585 0.602318 0
M  V30 10825 H 1023.34 -1.5503 0.466604 0
M  V30 10826 H 1025.34 -3.60515 -1.83878 0
M  V30 10827 H 1023.91 -2.54301 -1.81797 0
M  V30 10828 H 1023.13 -3.93458 0.241696 0
M  V30 10829 H 1024.41 -5.08561 -0.155914 0
M  V30 10830 H 1023.81 -4.59539 -3.2991 0
M  V30 10831 H 1022.37 -5.50974 -3.4824 0
M  V30 10832 N 1025.8 -0.366053 -1.5329 0
M  V30 10833 C 1026.75 0.495319 -2.27265 0
M  V30 10834 C 1027.74 1.08298 -1.30261 0
M  V30 10835 O 1028.95 1.02613 -1.47887 0
M  V30 10836 H 1025.32 0.178454 -0.730519 0
M  V30 10837 H 1027.3 -0.150354 -2.98021 0
M  V30 10838 C 1026.04 1.62283 -3.07505 0
M  V30 10839 H 1025.37 1.17993 -3.81992 0
M  V30 10840 H 1026.81 2.20024 -3.62444 0
M  V30 10841 C 1025.27 2.56542 -2.18375 0
M  V30 10842 O 1025.8 3.59371 -1.79486 0
M  V30 10843 N 1024 2.25742 -1.82999 0
M  V30 10844 H 1023.55 1.42159 -2.14822 0
M  V30 10845 H 1023.51 2.89064 -1.2365 0
M  V30 10846 N 1027.28 1.57312 -0.0952337 0
M  V30 10847 C 1028.53 1.93974 0.567319 0
M  V30 10848 C 1028.85 0.977805 1.68713 0
M  V30 10849 O 1028.12 0.0298944 1.95877 0
M  V30 10850 H 1026.7 0.71612 0.212558 0
M  V30 10851 H 1029.36 1.94254 -0.158598 0
M  V30 10852 H 1028.46 2.964 0.977423 0
M  V30 10853 N 1028.76 -0.17846 1.56586 0
M  V30 10854 C 1029.72 -1.20479 1.94981 0
M  V30 10855 C 1030.72 -1.37561 0.832677 0
M  V30 10856 O 1031.91 -1.35089 1.09984 0
M  V30 10857 C 1029.04 -2.57117 2.23839 0
M  V30 10858 H 1030.24 -0.876173 2.86816 0
M  V30 10859 H 1027.79 -0.420635 1.50534 0
M  V30 10860 H 1028.52 -2.95005 1.34695 0
M  V30 10861 H 1028.31 -2.46086 3.05261 0
M  V30 10862 H 1029.8 -3.31096 2.5449 0
M  V30 10863 N 1030.24 -1.51135 -0.446768 0
M  V30 10864 C 1031.17 -1.66438 -1.56121 0
M  V30 10865 C 1032.15 -0.512061 -1.54327 0
M  V30 10866 O 1033.33 -0.734702 -1.73593 0
M  V30 10867 C 1030.46 -1.66932 -2.94706 0
M  V30 10868 C 1029.5 -2.88016 -3.14562 0
M  V30 10869 S 1030.34 -4.48973 -2.91863 0
M  V30 10870 C 1031.49 -4.52196 -4.32746 0
M  V30 10871 H 1031.73 -2.60702 -1.42904 0
M  V30 10872 H 1029.26 -1.40701 -0.635812 0
M  V30 10873 H 1031.22 -1.679 -3.74593 0
M  V30 10874 H 1029.88 -0.738607 -3.05292 0
M  V30 10875 H 1029.07 -2.84735 -4.15863 0
M  V30 10876 H 1028.67 -2.8474 -2.42485 0
M  V30 10877 H 1030.96 -4.27256 -5.25793 0
M  V30 10878 H 1031.91 -5.53957 -4.41064 0
M  V30 10879 H 1032.32 -3.81624 -4.15961 0
M  V30 10880 N 1031.71 0.701592 -1.41122 0
M  V30 10881 C 1032.99 1.45569 -1.30648 0
M  V30 10882 C 1033.37 2.10988 0.068744 0
M  V30 10883 O 1032.72 2.01228 1.08257 0
M  V30 10884 C 1032.93 2.48003 -2.45551 0
M  V30 10885 C 1034.28 3.13431 -2.86437 0
M  V30 10886 O 1035.3 2.58327 -2.45247 0
M  V30 10887 O 1034.16 4.13221 -3.57646 0
M  V30 10888 H 1031.25 0.648 -0.513834 0
M  V30 10889 H 1033.8 0.73258 -1.53073 0
M  V30 10890 H 1032.57 1.98276 -3.37346 0
M  V30 10891 H 1032.19 3.27832 -2.24971 0
M  V30 10892 N 1033.19 1.2685 0.935242 0
M  V30 10893 C 1034.44 1.12912 1.6846 0
M  V30 10894 C 1034.77 -0.325708 1.91449 0
M  V30 10895 O 1034.05 -1.23884 1.49944 0
M  V30 10896 C 1034.33 1.90513 3.05576 0
M  V30 10897 C 1034.18 3.43936 2.89876 0
M  V30 10898 C 1035.5 1.70363 4.05789 0
M  V30 10899 H 1032.62 0.411559 0.611382 0
M  V30 10900 H 1035.26 1.55917 1.08582 0
M  V30 10901 H 1033.41 1.53963 3.5669 0
M  V30 10902 H 1035.08 3.90272 2.45939 0
M  V30 10903 H 1033.33 3.70659 2.25376 0
M  V30 10904 H 1034 3.93467 3.87153 0
M  V30 10905 H 1036.47 2.02217 3.63659 0
M  V30 10906 H 1035.35 2.27066 4.99732 0
M  V30 10907 H 1035.61 0.649674 4.373 0
M  V30 10908 N 1034.67 -1.14067 1.0875 0
M  V30 10909 C 1035.62 -2.21332 0.715195 0
M  V30 10910 C 1036.61 -1.67059 -0.280679 0
M  V30 10911 O 1037.82 -1.79432 -0.142874 0
M  V30 10912 H 1034.19 -0.721126 0.213264 0
M  V30 10913 H 1036.16 -2.50002 1.62916 0
M  V30 10914 C 1034.91 -3.474 0.144401 0
M  V30 10915 H 1034.24 -3.89495 0.901884 0
M  V30 10916 H 1035.68 -4.23928 -0.0782564 0
M  V30 10917 C 1034.14 -3.17787 -1.11862 0
M  V30 10918 O 1034.67 -3.35906 -2.20295 0
M  V30 10919 N 1032.87 -2.71719 -1.03039 0
M  V30 10920 H 1032.42 -2.57175 -0.14793 0
M  V30 10921 H 1032.38 -2.52281 -1.87621 0
M  V30 10922 N 1036.15 -0.873678 -1.31166 0
M  V30 10923 C 1037.08 -0.348011 -2.30892 0
M  V30 10924 C 1038.06 0.563092 -1.60509 0
M  V30 10925 O 1039.24 0.479332 -1.88192 0
M  V30 10926 C 1036.37 0.448158 -3.44396 0
M  V30 10927 C 1035.33 -0.370179 -4.26396 0
M  V30 10928 C 1034.65 0.551903 -5.31844 0
M  V30 10929 C 1035.95 -1.60624 -4.96988 0
M  V30 10930 H 1037.65 -1.18134 -2.75109 0
M  V30 10931 H 1035.19 -0.569502 -1.3226 0
M  V30 10932 H 1037.15 0.826458 -4.13216 0
M  V30 10933 H 1035.87 1.31503 -2.98956 0
M  V30 10934 H 1034.53 -0.730472 -3.59249 0
M  V30 10935 H 1034.18 1.41616 -4.82653 0
M  V30 10936 H 1033.88 0.00823478 -5.87599 0
M  V30 10937 H 1035.4 0.926965 -6.03523 0
M  V30 10938 H 1036.82 -1.29917 -5.58386 0
M  V30 10939 H 1035.21 -2.08926 -5.62557 0
M  V30 10940 H 1036.28 -2.357 -4.23761 0
M  V30 10941 N 1037.63 1.44308 -0.633487 0
M  V30 10942 C 1038.85 2.06384 -0.146063 0
M  V30 10943 C 1039.27 1.47357 1.18031 0
M  V30 10944 O 1038.63 0.597334 1.72448 0
M  V30 10945 C 1038.68 3.61489 -0.0276722 0
M  V30 10946 O 1038.4 4.18318 -1.3016 0
M  V30 10947 C 1039.9 4.40604 0.488168 0
M  V30 10948 H 1037.12 0.666122 -0.0807632 0
M  V30 10949 H 1039.66 1.85139 -0.868557 0
M  V30 10950 H 1037.82 3.81988 0.645273 0
M  V30 10951 H 1038.23 5.11783 -1.14797 0
M  V30 10952 H 1039.71 5.49545 0.520013 0
M  V30 10953 H 1040.18 4.12218 1.51568 0
M  V30 10954 H 1040.79 4.2503 -0.151608 0
M  V30 10955 N 1039.1 0.374177 1.53094 0
M  V30 10956 C 1040.35 -0.213131 2.01677 0
M  V30 10957 C 1040.68 -1.47715 1.26071 0
M  V30 10958 O 1039.96 -1.91199 0.356834 0
M  V30 10959 C 1040.24 -0.496392 3.56662 0
M  V30 10960 C 1040.09 0.781859 4.42953 0
M  V30 10961 C 1041.41 -1.29339 4.20666 0
M  V30 10962 H 1038.53 -0.0759885 0.733072 0
M  V30 10963 H 1041.17 0.500765 1.83282 0
M  V30 10964 H 1039.32 -1.10455 3.72467 0
M  V30 10965 H 1041 1.41914 4.38928 0
M  V30 10966 H 1039.24 1.40041 4.10574 0
M  V30 10967 H 1039.91 0.538508 5.49367 0
M  V30 10968 H 1042.39 -0.778848 4.08746 0
M  V30 10969 H 1041.26 -1.46033 5.29118 0
M  V30 10970 H 1041.52 -2.30435 3.77296 0
M  V30 10971 N 1040.58 -1.57259 0.103575 0
M  V30 10972 C 1041.81 -1.98711 -0.565454 0
M  V30 10973 C 1042.22 -0.981759 -1.61735 0
M  V30 10974 O 1041.56 0.0357019 -1.83665 0
M  V30 10975 C 1041.63 -3.36552 -1.26384 0
M  V30 10976 C 1041.29 -4.55566 -0.361714 0
M  V30 10977 C 1042.29 -5.18408 0.393539 0
M  V30 10978 C 1039.97 -5.01534 -0.277292 0
M  V30 10979 C 1041.97 -6.25594 1.2211 0
M  V30 10980 C 1039.65 -6.08584 0.553919 0
M  V30 10981 C 1040.65 -6.7048 1.30176 0
M  V30 10982 O 1040.34 -7.75464 2.1192 0
M  V30 10983 H 1040.07 -0.657853 -0.155582 0
M  V30 10984 H 1042.62 -2.04591 0.182089 0
M  V30 10985 H 1040.85 -3.2738 -2.05813 0
M  V30 10986 H 1042.54 -3.62395 -1.82824 0
M  V30 10987 H 1043.31 -4.8382 0.338098 0
M  V30 10988 H 1039.19 -4.53114 -0.849047 0
M  V30 10989 H 1042.73 -6.73836 1.80531 0
M  V30 10990 H 1038.63 -6.42604 0.610809 0
M  V30 10991 H 1039.4 -7.92491 2.04694 0
M  V30 10992 N 1042.06 0.170153 -1.56679 0
M  V30 10993 C 1043.29 0.90618 -1.86556 0
M  V30 10994 C 1043.71 1.74986 -0.690044 0
M  V30 10995 O 1043.07 1.77672 0.360862 0
M  V30 10996 C 1043.12 1.75777 -3.14857 0
M  V30 10997 O 1042.22 2.85952 -2.97162 0
M  V30 10998 H 1041.56 0.253781 -0.613589 0
M  V30 10999 H 1044.09 0.167943 -2.0391 0
M  V30 11000 H 1044.1 2.15747 -3.46291 0
M  V30 11001 H 1042.78 1.13807 -4.00026 0
M  V30 11002 H 1041.35 2.49557 -2.77084 0
M  V30 11003 N 1043.54 1.5137 0.438746 0
M  V30 11004 C 1044.49 1.73154 1.55308 0
M  V30 11005 C 1045.48 0.597825 1.58501 0
M  V30 11006 O 1046.69 0.77917 1.62262 0
M  V30 11007 H 1043.06 0.547083 0.51595 0
M  V30 11008 H 1045.03 2.66566 1.34108 0
M  V30 11009 C 1043.78 1.87242 2.92977 0
M  V30 11010 H 1043.1 2.73884 2.91252 0
M  V30 11011 H 1044.54 2.06497 3.70317 0
M  V30 11012 C 1043 0.631887 3.30921 0
M  V30 11013 O 1043.53 -0.214099 4.01129 0
M  V30 11014 N 1041.74 0.47639 2.86669 0
M  V30 11015 H 1041.29 1.16589 2.29706 0
M  V30 11016 H 1041.24 -0.352403 3.12419 0
M  V30 11017 N 1045.02 -0.694098 1.41492 0
M  V30 11018 C 1046.43 -1.27407 1.36471 0
M  V30 11019 C 1046.78 -1.9614 0.0485209 0
M  V30 11020 O 1045.9 -1.98871 -0.853188 0
M  V30 11021 C 1046.5 -2.31698 2.47188 0
M  V30 11022 C 1045.06 -2.85268 2.45559 0
M  V30 11023 C 1044.2 -1.59325 2.2696 0
M  V30 11024 H 1047.16 -0.488756 1.50986 0
M  V30 11025 H 1047.18 -3.1302 2.1633 0
M  V30 11026 H 1046.69 -1.81644 3.42968 0
M  V30 11027 H 1044.79 -3.39494 1.5354 0
M  V30 11028 H 1044.9 -3.35598 3.41922 0
M  V30 11029 H 1043.27 -1.85188 1.74864 0
M  V30 11030 H 1044.05 -1.11265 3.24769 0
M  V30 11031 N 1046.49 -1.27344 -0.928501 0
M  V30 11032 C 1047.91 -1.04732 -1.2043 0
M  V30 11033 C 1048.11 0.219623 -2.003 0
M  V30 11034 O 1047.17 0.925333 -2.34934 0
M  V30 11035 C 1048.48 -2.28625 -1.95323 0
M  V30 11036 C 1050.03 -2.33655 -2.08265 0
M  V30 11037 C 1050.5 -3.57275 -2.86563 0
M  V30 11038 N 1051.99 -3.57828 -2.94132 0
M  V30 11039 C 1052.73 -4.50152 -3.55177 0
M  V30 11040 N 1052.22 -5.52779 -4.17621 0
M  V30 11041 N 1054.02 -4.37777 -3.52573 0
M  V30 11042 H 1046.17 -2.08697 -0.394892 0
M  V30 11043 H 1048.43 -0.91782 -0.2373 0
M  V30 11044 H 1048.14 -3.20845 -1.44054 0
M  V30 11045 H 1048.01 -2.33878 -2.95941 0
M  V30 11046 H 1050.4 -1.41942 -2.58721 0
M  V30 11047 H 1050.48 -2.32406 -1.0687 0
M  V30 11048 H 1050.12 -4.49325 -2.3679 0
M  V30 11049 H 1050.05 -3.55775 -3.88242 0
M  V30 11050 H 1052.54 -2.83607 -2.49751 0
M  V30 11051 H 1052.86 -6.19394 -4.62137 0
M  V30 11052 H 1051.2 -5.56622 -4.16169 0
M  V30 11053 H 1054.39 -3.56811 -3.02991 0
M  V30 11054 H 1054.57 -5.09919 -3.99858 0
M  V30 11055 N 1047.97 1.13488 -1.09353 0
M  V30 11056 C 1048.9 2.18563 -0.69012 0
M  V30 11057 C 1049.92 1.60585 0.267651 0
M  V30 11058 O 1051.11 1.78419 0.0538176 0
M  V30 11059 C 1048.21 3.389 0.00391255 0
M  V30 11060 C 1047.38 4.2639 -0.975209 0
M  V30 11061 C 1046.44 5.25258 -0.314719 0
M  V30 11062 O 1045.46 5.6101 -0.962119 0
M  V30 11063 N 1046.67 5.72978 0.931458 0
M  V30 11064 H 1049.43 2.53788 -1.59411 0
M  V30 11065 H 1046.99 1.28803 -0.980886 0
M  V30 11066 H 1048.98 4.02112 0.45696 0
M  V30 11067 H 1047.55 3.0192 0.81014 0
M  V30 11068 H 1046.77 3.59964 -1.60684 0
M  V30 11069 H 1048.06 4.817 -1.63836 0
M  V30 11070 H 1047.46 5.46078 1.477 0
M  V30 11071 H 1046.02 6.38131 1.32784 0
M  V30 11072 N 1049.45 0.880621 1.30701 0
M  V30 11073 C 1050.36 0.348034 2.32004 0
M  V30 11074 C 1051.38 -0.547508 1.65162 0
M  V30 11075 O 1052.55 -0.441673 1.96497 0
M  V30 11076 C 1049.62 -0.432585 3.43991 0
M  V30 11077 C 1048.68 0.492189 4.26469 0
M  V30 11078 C 1047.91 -0.25127 5.33108 0
M  V30 11079 O 1048.14 -1.47795 5.5092 0
M  V30 11080 O 1047.07 0.396376 6.00593 0
M  V30 11081 H 1050.9 1.18798 2.79501 0
M  V30 11082 H 1048.48 0.64432 1.34792 0
M  V30 11083 H 1050.36 -0.874733 4.12221 0
M  V30 11084 H 1049.04 -1.2489 2.98637 0
M  V30 11085 H 1047.94 0.983058 3.60953 0
M  V30 11086 H 1049.28 1.27439 4.75416 0
M  V30 11087 N 1050.93 -1.4397 0.641131 0
M  V30 11088 C 1052.16 -2.06303 0.157006 0
M  V30 11089 C 1052.57 -1.47981 -1.17248 0
M  V30 11090 O 1051.93 -0.606471 -1.72128 0
M  V30 11091 C 1051.98 -3.6147 0.0468425 0
M  V30 11092 O 1051.7 -4.17622 1.32376 0
M  V30 11093 C 1053.2 -4.40857 -0.464795 0
M  V30 11094 H 1050.42 -0.665684 0.0842946 0
M  V30 11095 H 1052.97 -1.84675 0.878363 0
M  V30 11096 H 1051.12 -3.82325 -0.625006 0
M  V30 11097 H 1051.54 -5.11167 1.17509 0
M  V30 11098 H 1053.01 -5.49813 -0.490862 0
M  V30 11099 H 1053.49 -4.13016 -1.4938 0
M  V30 11100 H 1054.09 -4.24943 0.174146 0
M  V30 11101 N 1052.41 -0.382291 -1.52893 0
M  V30 11102 C 1053.66 0.201734 -2.01091 0
M  V30 11103 C 1053.98 1.47905 -1.2708 0
M  V30 11104 O 1053.25 1.92002 -0.38883 0
M  V30 11105 H 1051.83 0.0775373 -0.742965 0
M  V30 11106 H 1054.49 -0.512369 -1.88045 0
M  V30 11107 H 1053.58 0.416919 -3.09303 0
M  V30 11108 N 1053.89 1.57202 -0.111913 0
M  V30 11109 C 1055.13 1.94125 0.547573 0
M  V30 11110 C 1055.45 0.997026 1.68282 0
M  V30 11111 O 1056.65 1.26063 2.40459 0
M  V30 11112 C 1055.11 3.44982 1.02545 0
M  V30 11113 C 1054.72 4.47927 -0.0809529 0
M  V30 11114 C 1056.46 3.90837 1.65671 0
M  V30 11115 C 1054.37 5.89955 0.413224 0
M  V30 11116 H 1053.3 0.724651 0.208321 0
M  V30 11117 H 1055.95 1.82507 -0.190625 0
M  V30 11118 H 1054.33 3.5181 1.81785 0
M  V30 11119 H 1055.51 4.52761 -0.857003 0
M  V30 11120 H 1053.82 4.11782 -0.618434 0
M  V30 11121 H 1056.42 4.9436 2.03746 0
M  V30 11122 H 1056.76 3.30417 2.53239 0
M  V30 11123 H 1057.29 3.8678 0.929844 0
M  V30 11124 H 1054.03 6.54113 -0.426238 0
M  V30 11125 H 1053.55 5.88557 1.15591 0
M  V30 11126 H 1055.23 6.41032 0.876756 0
M  V30 11127 N 1055.36 -0.161842 1.56767 0
M  V30 11128 C 1056.33 -1.18404 1.96247 0
M  V30 11129 C 1057.33 -1.3667 0.84722 0
M  V30 11130 O 1058.52 -1.33915 1.11411 0
M  V30 11131 C 1055.65 -2.54728 2.26553 0
M  V30 11132 H 1056.84 -0.845703 2.87729 0
M  V30 11133 H 1054.39 -0.404645 1.50971 0
M  V30 11134 H 1055.13 -2.93559 1.37816 0
M  V30 11135 H 1054.91 -2.42834 3.07854 0
M  V30 11136 H 1056.4 -3.28378 2.57987 0
M  V30 11137 N 1056.84 -1.516 -0.430713 0
M  V30 11138 C 1058.09 -1.64271 -1.17726 0
M  V30 11139 C 1058.41 -0.364406 -1.91565 0
M  V30 11140 O 1057.68 0.619991 -1.8583 0
M  V30 11141 H 1056.26 -0.605432 -0.437562 0
M  V30 11142 H 1058.92 -1.88557 -0.493166 0
M  V30 11143 H 1058.02 -2.47355 -1.90321 0
M  V30 11144 N 1058.32 0.686584 -1.41858 0
M  V30 11145 C 1059.27 1.79271 -1.40875 0
M  V30 11146 C 1060.25 1.58413 -0.281782 0
M  V30 11147 O 1061.45 1.69093 -0.523132 0
M  V30 11148 C 1058.57 3.17647 -1.30213 0
M  V30 11149 C 1057.66 3.44168 -2.47808 0
M  V30 11150 N 1058.05 3.41339 -3.73258 0
M  V30 11151 C 1056.35 3.74755 -2.41815 0
M  V30 11152 C 1057.05 3.67016 -4.51303 0
M  V30 11153 N 1056.03 3.87203 -3.81543 0
M  V30 11154 H 1059.83 1.75459 -2.35778 0
M  V30 11155 H 1057.34 0.886946 -1.36041 0
M  V30 11156 H 1059.34 3.96896 -1.2759 0
M  V30 11157 H 1058 3.22664 -0.363021 0
M  V30 11158 H 1059.01 3.21511 -4.06018 0
M  V30 11159 H 1055.69 3.87089 -1.56423 0
M  V30 11160 H 1057.08 3.70888 -5.6026 0
M  V30 11161 N 1059.8 1.27835 0.921735 0
M  V30 11162 C 1061.21 1.13151 1.48505 0
M  V30 11163 C 1061.56 -0.281373 1.94172 0
M  V30 11164 O 1060.68 -1.17487 1.8173 0
M  V30 11165 C 1061.28 2.04792 2.69899 0
M  V30 11166 C 1059.84 1.94196 3.22436 0
M  V30 11167 C 1058.99 1.96999 1.95158 0
M  V30 11168 H 1061.94 1.40641 0.735241 0
M  V30 11169 H 1061.96 1.60724 3.44889 0
M  V30 11170 H 1061.47 3.07615 2.36631 0
M  V30 11171 H 1059.57 0.943805 3.60448 0
M  V30 11172 H 1059.68 2.80744 3.88226 0
M  V30 11173 H 1058.05 1.41301 2.11911 0
M  V30 11174 H 1058.83 3.01487 1.64196 0
M  V30 11175 N 1061.28 -1.12907 1.09954 0
M  V30 11176 C 1062.5 -1.88138 0.860905 0
M  V30 11177 C 1062.92 -1.79402 -0.588256 0
M  V30 11178 O 1062.28 -1.16442 -1.40526 0
M  V30 11179 C 1062.33 -3.37537 1.29425 0
M  V30 11180 O 1062.05 -3.46056 2.68658 0
M  V30 11181 C 1063.55 -4.29721 1.08879 0
M  V30 11182 H 1060.77 -0.595437 0.309347 0
M  V30 11183 H 1063.31 -1.42894 1.46292 0
M  V30 11184 H 1061.47 -3.80344 0.736009 0
M  V30 11185 H 1061.88 -4.38969 2.87065 0
M  V30 11186 H 1063.36 -5.32854 1.4412 0
M  V30 11187 H 1063.83 -4.39192 0.0270053 0
M  V30 11188 H 1064.44 -3.9269 1.63325 0
M  V30 11189 N 1062.75 -0.88754 -1.30232 0
M  V30 11190 C 1063.98 -0.521549 -1.99909 0
M  V30 11191 C 1064.39 0.895086 -1.66688 0
M  V30 11192 O 1063.73 1.60053 -0.90159 0
M  V30 11193 C 1063.8 -0.619564 -3.54121 0
M  V30 11194 C 1063.46 -2.00097 -4.10865 0
M  V30 11195 C 1064.46 -2.97068 -4.26669 0
M  V30 11196 C 1062.14 -2.30706 -4.46184 0
M  V30 11197 C 1064.14 -4.2278 -4.77007 0
M  V30 11198 C 1061.82 -3.56663 -4.96221 0
M  V30 11199 C 1062.82 -4.52515 -5.11585 0
M  V30 11200 O 1062.51 -5.76237 -5.60541 0
M  V30 11201 H 1062.24 -0.199904 -0.645766 0
M  V30 11202 H 1064.8 -1.19546 -1.67027 0
M  V30 11203 H 1063.03 0.111334 -3.8654 0
M  V30 11204 H 1064.71 -0.26448 -4.05037 0
M  V30 11205 H 1065.48 -2.74734 -3.99683 0
M  V30 11206 H 1061.36 -1.56865 -4.33491 0
M  V30 11207 H 1064.9 -4.97603 -4.88914 0
M  V30 11208 H 1060.8 -3.78834 -5.22643 0
M  V30 11209 H 1061.57 -5.78655 -5.78879 0
M  V30 11210 N 1064.23 1.43628 -0.648757 0
M  V30 11211 C 1065.16 2.29045 0.0841858 0
M  V30 11212 C 1066.18 1.42262 0.791537 0
M  V30 11213 O 1067.37 1.66243 0.650039 0
M  V30 11214 C 1064.47 3.19075 1.14212 0
M  V30 11215 C 1063.64 4.34372 0.513799 0
M  V30 11216 C 1062.7 5.05307 1.46803 0
M  V30 11217 O 1061.72 5.60729 0.978346 0
M  V30 11218 N 1062.93 5.08393 2.80209 0
M  V30 11219 H 1065.69 2.9259 -0.648948 0
M  V30 11220 H 1063.25 1.54268 -0.491209 0
M  V30 11221 H 1065.24 3.63395 1.78119 0
M  V30 11222 H 1063.81 2.57161 1.77728 0
M  V30 11223 H 1063.03 3.93024 -0.304262 0
M  V30 11224 H 1064.32 5.08745 0.0749871 0
M  V30 11225 H 1063.72 4.64729 3.22557 0
M  V30 11226 H 1062.28 5.56445 3.3943 0
M  V30 11227 N 1065.71 0.390394 1.52688 0
M  V30 11228 C 1066.96 -0.191445 2.01593 0
M  V30 11229 C 1067.29 -1.46723 1.27681 0
M  V30 11230 O 1066.54 -1.92248 0.365972 0
M  V30 11231 C 1066.84 -0.50468 3.53819 0
M  V30 11232 C 1066.51 0.679691 4.45748 0
M  V30 11233 C 1065.17 1.0046 4.70597 0
M  V30 11234 C 1067.52 1.47198 4.99982 0
M  V30 11235 C 1064.85 2.12334 5.46929 0
M  V30 11236 C 1067.2 2.58133 5.77538 0
M  V30 11237 C 1065.86 2.91131 6.00665 0
M  V30 11238 H 1065.13 -0.0700548 0.737681 0
M  V30 11239 H 1067.78 0.527965 1.84078 0
M  V30 11240 H 1066.09 -1.30543 3.69413 0
M  V30 11241 H 1067.78 -0.967524 3.89153 0
M  V30 11242 H 1064.37 0.416446 4.26572 0
M  V30 11243 H 1068.56 1.2342 4.80709 0
M  V30 11244 H 1063.81 2.38269 5.63061 0
M  V30 11245 H 1067.99 3.19925 6.18564 0
M  V30 11246 H 1065.61 3.77938 6.59596 0
M  V30 11247 N 1067.19 -1.57141 0.120249 0
M  V30 11248 C 1068.41 -2.00017 -0.548454 0
M  V30 11249 C 1068.84 -0.999433 -1.59352 0
M  V30 11250 O 1068.2 0.0286978 -1.81277 0
M  V30 11251 C 1068.24 -3.41766 -1.15015 0
M  V30 11252 O 1067.35 -3.44589 -2.26566 0
M  V30 11253 H 1066.69 -0.649739 -0.136875 0
M  V30 11254 H 1069.22 -2.03529 0.209092 0
M  V30 11255 H 1069.23 -3.80001 -1.48537 0
M  V30 11256 H 1067.9 -4.14117 -0.384681 0
M  V30 11257 H 1066.48 -3.18174 -1.94473 0
M  V30 11258 N 1068.67 0.153526 -1.5685 0
M  V30 11259 C 1069.63 1.17362 -1.96873 0
M  V30 11260 C 1070.63 1.36219 -0.854456 0
M  V30 11261 O 1071.82 1.33322 -1.1212 0
M  V30 11262 C 1068.95 2.53523 -2.27901 0
M  V30 11263 H 1070.14 0.830432 -2.88173 0
M  V30 11264 H 1067.7 0.396633 -1.51184 0
M  V30 11265 H 1068.43 2.92824 -1.39371 0
M  V30 11266 H 1068.22 2.41198 -3.09137 0
M  V30 11267 H 1069.71 3.27006 -2.59725 0
M  V30 11268 N 1070.14 1.51827 0.422667 0
M  V30 11269 C 1071.09 1.74791 1.53463 0
M  V30 11270 C 1072.09 0.614602 1.57858 0
M  V30 11271 O 1073.29 0.796336 1.61426 0
M  V30 11272 H 1069.67 0.552524 0.510118 0
M  V30 11273 H 1071.64 2.67974 1.31273 0
M  V30 11274 C 1070.39 1.90339 2.90975 0
M  V30 11275 H 1069.71 2.76958 2.8833 0
M  V30 11276 H 1071.15 2.10413 3.68106 0
M  V30 11277 C 1069.61 0.66695 3.30232 0
M  V30 11278 O 1070.14 -0.171542 4.01334 0
M  V30 11279 N 1068.35 0.506768 2.86147 0
M  V30 11280 H 1067.89 1.19019 2.28456 0
M  V30 11281 H 1067.85 -0.319247 3.12775 0
M  V30 11282 N 1071.62 -0.679052 1.4222 0
M  V30 11283 C 1072.85 -1.46747 1.45852 0
M  V30 11284 C 1073.27 -1.88675 0.0685937 0
M  V30 11285 O 1072.62 -1.57861 -0.915757 0
M  V30 11286 C 1072.67 -2.71935 2.38188 0
M  V30 11287 O 1072.39 -2.31768 3.71773 0
M  V30 11288 C 1073.9 -3.65536 2.50796 0
M  V30 11289 H 1071.12 -0.451682 0.49621 0
M  V30 11290 H 1073.66 -0.834723 1.86689 0
M  V30 11291 H 1071.81 -3.31409 2.00616 0
M  V30 11292 H 1072.23 -3.12579 4.21182 0
M  V30 11293 H 1073.7 -4.50113 3.19535 0
M  V30 11294 H 1074.18 -4.11148 1.54447 0
M  V30 11295 H 1074.79 -3.11957 2.89072 0
M  V30 11296 N 1073.1 -1.28322 -0.914942 0
M  V30 11297 C 1074.35 -1.15179 -1.66067 0
M  V30 11298 C 1074.67 0.300279 -1.92674 0
M  V30 11299 O 1073.94 1.20821 -1.54205 0
M  V30 11300 H 1072.52 -0.423264 -0.615513 0
M  V30 11301 H 1075.18 -1.61034 -1.09791 0
M  V30 11302 H 1074.28 -1.69048 -2.62353 0
M  V30 11303 N 1074.58 1.12322 -1.10551 0
M  V30 11304 C 1075.99 1.6539 -0.8662 0
M  V30 11305 C 1076.34 1.86695 0.603284 0
M  V30 11306 O 1075.47 1.59432 1.46323 0
M  V30 11307 C 1076.06 3.00443 -1.56587 0
M  V30 11308 C 1074.62 3.50456 -1.37323 0
M  V30 11309 C 1073.77 2.25454 -1.61449 0
M  V30 11310 H 1076.72 0.960866 -1.26305 0
M  V30 11311 H 1076.74 3.66972 -1.00557 0
M  V30 11312 H 1076.25 2.84905 -2.63535 0
M  V30 11313 H 1074.35 3.71176 -0.325431 0
M  V30 11314 H 1074.46 4.29839 -2.11601 0
M  V30 11315 H 1072.83 2.32621 -1.03729 0
M  V30 11316 H 1073.61 2.12469 -2.69651 0
M  V30 11317 N 1076.06 0.894434 1.2976 0
M  V30 11318 C 1077.02 0.373094 2.26143 0
M  V30 11319 C 1078.02 -0.489756 1.5316 0
M  V30 11320 O 1079.21 -0.29556 1.71674 0
M  V30 11321 C 1076.34 -0.467234 3.37683 0
M  V30 11322 H 1077.53 1.22427 2.73773 0
M  V30 11323 H 1075.09 0.672112 1.41111 0
M  V30 11324 H 1075.82 -1.33861 2.95384 0
M  V30 11325 H 1075.61 0.150954 3.91809 0
M  V30 11326 H 1077.1 -0.823469 4.094 0
M  V30 11327 N 1077.53 -1.43282 0.656365 0
M  V30 11328 C 1078.48 -2.27932 -0.0557069 0
M  V30 11329 C 1079.47 -1.40075 -0.791698 0
M  V30 11330 O 1080.66 -1.6368 -0.673646 0
M  V30 11331 C 1077.79 -3.27821 -1.01923 0
M  V30 11332 C 1076.88 -4.23164 -0.281545 0
M  V30 11333 N 1077.27 -5.00882 0.703629 0
M  V30 11334 C 1075.56 -4.42928 -0.522558 0
M  V30 11335 C 1076.27 -5.70384 1.14177 0
M  V30 11336 N 1075.24 -5.41517 0.475394 0
M  V30 11337 H 1079.04 -2.85437 0.70022 0
M  V30 11338 H 1076.56 -1.55023 0.483902 0
M  V30 11339 H 1078.55 -3.87248 -1.54418 0
M  V30 11340 H 1077.21 -2.71878 -1.77518 0
M  V30 11341 H 1078.23 -5.06461 1.08247 0
M  V30 11342 H 1074.9 -3.98051 -1.25944 0
M  V30 11343 H 1076.29 -6.42765 1.95711 0
M  V30 11344 N 1079.01 -0.398486 -1.52479 0
M  V30 11345 C 1080.24 0.180295 -2.05812 0
M  V30 11346 C 1080.65 1.40301 -1.26934 0
M  V30 11347 O 1079.99 1.81039 -0.311544 0
M  V30 11348 C 1080.06 0.60601 -3.54355 0
M  V30 11349 C 1079.72 -0.504508 -4.54207 0
M  V30 11350 C 1080.72 -1.36478 -5.01667 0
M  V30 11351 C 1078.4 -0.674161 -4.97755 0
M  V30 11352 C 1080.4 -2.37975 -5.91309 0
M  V30 11353 C 1078.08 -1.69246 -5.87196 0
M  V30 11354 C 1079.08 -2.54367 -6.33866 0
M  V30 11355 O 1078.77 -3.54454 -7.21538 0
M  V30 11356 H 1078.5 0.0286396 -0.675393 0
M  V30 11357 H 1081.06 -0.564912 -1.97479 0
M  V30 11358 H 1079.29 1.40334 -3.60338 0
M  V30 11359 H 1080.97 1.1115 -3.90385 0
M  V30 11360 H 1081.74 -1.24506 -4.68746 0
M  V30 11361 H 1077.62 -0.0213029 -4.60995 0
M  V30 11362 H 1081.16 -3.0445 -6.27659 0
M  V30 11363 H 1077.06 -1.81252 -6.1953 0
M  V30 11364 H 1077.83 -3.50571 -7.39623 0
M  V30 11365 N 1080.49 1.57075 -0.12858 0
M  V30 11366 C 1081.42 2.11553 0.855593 0
M  V30 11367 C 1082.4 1.03435 1.25459 0
M  V30 11368 O 1083.59 1.3115 1.35395 0
M  V30 11369 C 1080.71 2.62012 2.14633 0
M  V30 11370 C 1079.76 3.82105 1.89467 0
M  V30 11371 S 1080.59 5.24033 1.10228 0
M  V30 11372 C 1081.75 5.77867 2.4046 0
M  V30 11373 H 1081.98 2.94701 0.392248 0
M  V30 11374 H 1079.51 1.54164 0.0853746 0
M  V30 11375 H 1081.47 2.91737 2.8879 0
M  V30 11376 H 1080.13 1.79029 2.58084 0
M  V30 11377 H 1079.33 4.15592 2.8513 0
M  V30 11378 H 1078.93 3.53047 1.23427 0
M  V30 11379 H 1081.22 5.88175 3.36238 0
M  V30 11380 H 1082.16 6.75775 2.11504 0
M  V30 11381 H 1082.57 5.05991 2.50266 0
M  V30 11382 N 1081.97 -0.145205 1.5693 0
M  V30 11383 C 1083.2 -0.872398 1.87608 0
M  V30 11384 C 1083.61 -1.74657 0.716975 0
M  V30 11385 O 1082.97 -1.79792 -0.3132 0
M  V30 11386 C 1083.02 -1.72762 3.17546 0
M  V30 11387 O 1082.74 -0.888681 4.28992 0
M  V30 11388 C 1084.24 -2.56224 3.61751 0
M  V30 11389 H 1081.46 -0.252166 0.621815 0
M  V30 11390 H 1084.01 -0.137456 2.04038 0
M  V30 11391 H 1082.16 -2.41561 3.02865 0
M  V30 11392 H 1082.58 -1.47601 5.03303 0
M  V30 11393 H 1084.05 -3.11804 4.55502 0
M  V30 11394 H 1084.53 -3.32347 2.87127 0
M  V30 11395 H 1085.13 -1.92714 3.79133 0
M  V30 11396 N 1083.45 -1.52049 -0.414609 0
M  V30 11397 C 1084.36 -1.7788 -1.52958 0
M  V30 11398 C 1085.37 -0.66408 -1.60829 0
M  V30 11399 O 1086.55 -0.948882 -1.77646 0
M  V30 11400 C 1083.61 -1.91906 -2.88744 0
M  V30 11401 C 1082.68 -3.15803 -2.90804 0
M  V30 11402 C 1081.91 -3.29151 -4.20114 0
M  V30 11403 O 1082.13 -2.47892 -5.13718 0
M  V30 11404 O 1081.07 -4.2227 -4.28919 0
M  V30 11405 H 1084.89 -2.72506 -1.34067 0
M  V30 11406 H 1082.48 -1.36826 -0.599918 0
M  V30 11407 H 1084.36 -2.02986 -3.6929 0
M  V30 11408 H 1083.03 -1.00468 -3.07714 0
M  V30 11409 H 1081.94 -3.10185 -2.09131 0
M  V30 11410 H 1083.27 -4.07004 -2.76783 0
M  V30 11411 N 1084.93 0.6715 -1.42579 0
M  V30 11412 C 1086.17 1.42871 -1.42941 0
M  V30 11413 C 1086.49 1.94941 -0.0480483 0
M  V30 11414 O 1085.76 1.73275 0.913921 0
M  V30 11415 H 1084.34 0.530189 -0.526221 0
M  V30 11416 H 1087.01 0.793219 -1.78028 0
M  V30 11417 H 1086.1 2.2801 -2.13114 0
M  V30 11418 N 1086.4 1.28806 0.908124 0
M  V30 11419 C 1087.35 1.09849 1.99793 0
M  V30 11420 C 1088.34 0.0204321 1.60887 0
M  V30 11421 O 1089.53 0.241204 1.75349 0
M  V30 11422 C 1086.66 0.768263 3.34593 0
M  V30 11423 C 1085.74 1.88544 3.79884 0
M  V30 11424 N 1086.14 3.12784 3.97492 0
M  V30 11425 C 1084.43 1.77657 4.09089 0
M  V30 11426 C 1085.13 3.85615 4.35518 0
M  V30 11427 N 1084.11 3.13501 4.44092 0
M  V30 11428 H 1087.91 2.04108 2.11464 0
M  V30 11429 H 1085.43 1.19807 1.09636 0
M  V30 11430 H 1087.42 0.613521 4.12361 0
M  V30 11431 H 1086.08 -0.166501 3.24273 0
M  V30 11432 H 1087.09 3.48333 3.83255 0
M  V30 11433 H 1083.77 0.913956 4.07373 0
M  V30 11434 H 1085.16 4.92492 4.57057 0
M  V30 11435 N 1087.88 -1.11734 1.11145 0
M  V30 11436 C 1088.81 -2.1976 0.789152 0
M  V30 11437 C 1089.79 -1.68382 -0.241143 0
M  V30 11438 O 1090.98 -1.93914 -0.105292 0
M  V30 11439 C 1088.11 -3.46549 0.228204 0
M  V30 11440 C 1087.06 -4.11123 1.19002 0
M  V30 11441 C 1086.39 -5.32451 0.489928 0
M  V30 11442 C 1087.69 -4.56406 2.53951 0
M  V30 11443 H 1089.38 -2.46978 1.69241 0
M  V30 11444 H 1086.93 -1.18705 0.81517 0
M  V30 11445 H 1088.88 -4.21399 -0.00945908 0
M  V30 11446 H 1087.6 -3.18782 -0.71033 0
M  V30 11447 H 1086.26 -3.38264 1.41326 0
M  V30 11448 H 1085.91 -5.00953 -0.453315 0
M  V30 11449 H 1085.61 -5.76605 1.1314 0
M  V30 11450 H 1087.14 -6.10042 0.260984 0
M  V30 11451 H 1088.55 -5.22592 2.35733 0
M  V30 11452 H 1086.95 -5.11363 3.14051 0
M  V30 11453 H 1088.02 -3.7001 3.13402 0
M  V30 11454 N 1089.36 -0.901303 -1.29284 0
M  V30 11455 C 1090.59 -0.543511 -1.99634 0
M  V30 11456 C 1091 0.872154 -1.67448 0
M  V30 11457 O 1090.36 1.57591 -0.920406 0
M  V30 11458 C 1090.41 -0.728148 -3.54091 0
M  V30 11459 O 1090.13 -2.08809 -3.85137 0
M  V30 11460 C 1091.63 -0.375519 -4.41707 0
M  V30 11461 H 1088.85 -0.208405 -0.637815 0
M  V30 11462 H 1091.4 -1.21109 -1.64781 0
M  V30 11463 H 1089.55 -0.107728 -3.8725 0
M  V30 11464 H 1089.97 -2.11863 -4.79807 0
M  V30 11465 H 1091.44 -0.555538 -5.49197 0
M  V30 11466 H 1091.92 0.687532 -4.33785 0
M  V30 11467 H 1092.52 -0.972949 -4.14021 0
M  V30 11468 N 1090.84 1.42931 -0.663954 0
M  V30 11469 C 1091.77 2.28089 0.0710318 0
M  V30 11470 C 1092.75 1.40446 0.819375 0
M  V30 11471 O 1093.93 1.69887 0.816738 0
M  V30 11472 C 1091.06 3.20079 1.10756 0
M  V30 11473 C 1090.11 4.24055 0.456045 0
M  V30 11474 S 1090.94 5.29813 -0.778356 0
M  V30 11475 C 1092.09 6.25371 0.257373 0
M  V30 11476 H 1092.33 2.90078 -0.651315 0
M  V30 11477 H 1089.86 1.47601 -0.453137 0
M  V30 11478 H 1091.82 3.7362 1.70055 0
M  V30 11479 H 1090.48 2.57248 1.80229 0
M  V30 11480 H 1089.67 4.88564 1.23779 0
M  V30 11481 H 1089.27 3.73947 -0.0630832 0
M  V30 11482 H 1091.57 6.68172 1.12037 0
M  V30 11483 H 1092.51 7.0722 -0.352969 0
M  V30 11484 H 1092.92 5.61324 0.597991 0
M  V30 11485 N 1092.32 0.406567 1.52266 0
M  V30 11486 C 1093.73 0.0573228 1.59497 0
M  V30 11487 C 1093.93 -1.43005 1.41957 0
M  V30 11488 O 1092.99 -2.19659 1.24523 0
M  V30 11489 C 1094.3 0.549947 2.95628 0
M  V30 11490 C 1095.85 0.5077 3.08855 0
M  V30 11491 C 1096.32 0.976792 4.47463 0
M  V30 11492 N 1097.81 0.933508 4.53696 0
M  V30 11493 C 1098.55 1.26769 5.59211 0
M  V30 11494 N 1098.05 1.6732 6.72292 0
M  V30 11495 N 1099.84 1.18782 5.49406 0
M  V30 11496 H 1091.99 1.37468 1.61914 0
M  V30 11497 H 1094.25 0.564562 0.76156 0
M  V30 11498 H 1093.96 1.58943 3.13736 0
M  V30 11499 H 1093.83 -0.0417767 3.77177 0
M  V30 11500 H 1096.22 -0.522728 2.90433 0
M  V30 11501 H 1096.3 1.13545 2.29219 0
M  V30 11502 H 1095.94 2.00554 4.66627 0
M  V30 11503 H 1095.87 0.325885 5.25591 0
M  V30 11504 H 1098.37 0.635333 3.72521 0
M  V30 11505 H 1098.68 1.91137 7.4879 0
M  V30 11506 H 1097.02 1.71221 6.73579 0
M  V30 11507 H 1100.21 0.869906 4.59946 0
M  V30 11508 H 1100.39 1.45157 6.31533 0
M  V30 11509 N 1093.79 -1.57004 0.136909 0
M  V30 11510 C 1094.73 -2.13355 -0.837405 0
M  V30 11511 C 1095.74 -1.08053 -1.21772 0
M  V30 11512 O 1096.93 -1.35365 -1.16355 0
M  V30 11513 C 1094.03 -2.63302 -2.13366 0
M  V30 11514 C 1093.2 -3.92896 -1.92228 0
M  V30 11515 C 1092.26 -4.28257 -3.05749 0
M  V30 11516 O 1091.29 -4.96761 -2.7788 0
M  V30 11517 N 1092.49 -3.87021 -4.3266 0
M  V30 11518 H 1095.25 -2.9758 -0.35586 0
M  V30 11519 H 1092.81 -1.61832 -0.0469758 0
M  V30 11520 H 1094.81 -2.83977 -2.88339 0
M  V30 11521 H 1093.38 -1.83858 -2.52814 0
M  V30 11522 H 1092.6 -3.80949 -1.01349 0
M  V30 11523 H 1093.88 -4.776 -1.75431 0
M  V30 11524 H 1093.28 -3.31804 -4.58173 0
M  V30 11525 H 1091.84 -4.12768 -5.04446 0
M  V30 11526 N 1095.27 0.136881 -1.57004 0
M  V30 11527 C 1096.52 0.8461 -1.83536 0
M  V30 11528 C 1096.84 1.81246 -0.71937 0
M  V30 11529 O 1096.11 1.94191 0.258161 0
M  V30 11530 H 1094.69 0.315446 -0.677128 0
M  V30 11531 H 1097.35 0.128469 -1.94476 0
M  V30 11532 H 1096.45 1.40221 -2.78827 0
M  V30 11533 N 1096.75 1.52266 0.40654 0
M  V30 11534 C 1097.71 1.75168 1.47814 0
M  V30 11535 C 1098.71 0.621575 1.48301 0
M  V30 11536 O 1099.9 0.889476 1.4978 0
M  V30 11537 C 1097.04 1.83642 2.87208 0
M  V30 11538 H 1098.23 2.70834 1.28798 0
M  V30 11539 H 1095.78 1.42722 0.637196 0
M  V30 11540 H 1096.52 0.898994 3.1159 0
M  V30 11541 H 1096.3 2.65801 2.88257 0
M  V30 11542 H 1097.79 2.03093 3.64888 0
M  V30 11543 N 1098.23 -0.663929 1.42933 0
M  V30 11544 C 1099.51 -1.42054 1.34462 0
M  V30 11545 C 1099.89 -2.11096 -0.0127801 0
M  V30 11546 O 1099.23 -2.04027 -1.02884 0
M  V30 11547 C 1099.44 -2.41406 2.5204 0
M  V30 11548 C 1100.79 -3.05726 2.94647 0
M  V30 11549 O 1101.82 -2.51733 2.52009 0
M  V30 11550 O 1100.67 -4.03593 3.68477 0
M  V30 11551 H 1097.77 -0.634149 0.530834 0
M  V30 11552 H 1100.31 -0.691738 1.54962 0
M  V30 11553 H 1099.09 -1.89263 3.42484 0
M  V30 11554 H 1098.71 -3.21752 2.33584 0
M  V30 11555 N 1099.71 -1.29285 -0.901281 0
M  V30 11556 C 1101.12 -1.07263 -1.18182 0
M  V30 11557 C 1101.32 0.177087 -2.0072 0
M  V30 11558 O 1100.38 0.875292 -2.36844 0
M  V30 11559 C 1101.69 -2.32717 -1.9043 0
M  V30 11560 C 1103.24 -2.3802 -2.03262 0
M  V30 11561 C 1103.71 -3.63273 -2.7892 0
M  V30 11562 N 1105.21 -3.63986 -2.86475 0
M  V30 11563 C 1105.94 -4.57585 -3.45549 0
M  V30 11564 N 1105.44 -5.61513 -4.05801 0
M  V30 11565 N 1107.23 -4.45157 -3.43208 0
M  V30 11566 H 1099.38 -2.09487 -0.350536 0
M  V30 11567 H 1101.64 -0.922647 -0.217778 0
M  V30 11568 H 1101.35 -3.23828 -1.37216 0
M  V30 11569 H 1101.22 -2.40102 -2.90913 0
M  V30 11570 H 1103.61 -1.47398 -2.55652 0
M  V30 11571 H 1103.69 -2.3462 -1.01916 0
M  V30 11572 H 1103.34 -4.54246 -2.27206 0
M  V30 11573 H 1103.27 -3.6393 -3.80608 0
M  V30 11574 H 1105.76 -2.8884 -2.43679 0
M  V30 11575 H 1106.07 -6.29058 -4.48894 0
M  V30 11576 H 1104.41 -5.65325 -4.04268 0
M  V30 11577 H 1107.61 -3.63158 -2.95354 0
M  V30 11578 H 1107.78 -5.18286 -3.88952 0
M  V30 11579 N 1101.18 1.11143 -1.11736 0
M  V30 11580 C 1102.09 2.20851 -0.791331 0
M  V30 11581 C 1103.11 1.72644 0.216833 0
M  V30 11582 O 1104.29 2.01332 0.0522401 0
M  V30 11583 C 1101.35 3.4585 -0.242694 0
M  V30 11584 C 1100.41 4.08829 -1.30986 0
M  V30 11585 C 1099.65 5.27861 -0.787305 0
M  V30 11586 O 1099.87 5.69122 0.381549 0
M  V30 11587 O 1098.8 5.81506 -1.55352 0
M  V30 11588 H 1102.63 2.51158 -1.70744 0
M  V30 11589 H 1100.21 1.19739 -0.893478 0
M  V30 11590 H 1102.1 4.21359 0.0587472 0
M  V30 11591 H 1100.77 3.17187 0.646079 0
M  V30 11592 H 1099.68 3.35037 -1.66436 0
M  V30 11593 H 1101.01 4.41678 -2.17213 0
M  V30 11594 N 1102.66 0.908147 1.28804 0
M  V30 11595 C 1103.57 0.397167 2.31214 0
M  V30 11596 C 1104.59 -0.512352 1.66286 0
M  V30 11597 O 1105.76 -0.399893 1.9739 0
M  V30 11598 C 1102.83 -0.359522 3.44831 0
M  V30 11599 C 1101.89 0.582539 4.25329 0
M  V30 11600 C 1101.12 -0.138133 5.33521 0
M  V30 11601 O 1101.35 -1.36076 5.53931 0
M  V30 11602 O 1100.28 0.523682 5.99618 0
M  V30 11603 H 1104.11 1.247 2.76918 0
M  V30 11604 H 1101.69 0.672766 1.33395 0
M  V30 11605 H 1103.57 -0.787098 4.13984 0
M  V30 11606 H 1102.25 -1.18528 3.01219 0
M  V30 11607 H 1101.16 1.0594 3.58786 0
M  V30 11608 H 1102.49 1.37495 4.72605 0
M  V30 11609 N 1104.14 -1.42577 0.671525 0
M  V30 11610 C 1105.37 -2.06442 0.199152 0
M  V30 11611 C 1105.79 -1.50104 -1.1336 0
M  V30 11612 O 1105.15 -0.618211 -1.70434 0
M  V30 11613 C 1105.2 -3.60323 0.141215 0
M  V30 11614 O 1104.3 -4.02655 -0.891238 0
M  V30 11615 H 1103.64 -0.655919 0.103277 0
M  V30 11616 H 1106.17 -1.82768 0.919614 0
M  V30 11617 H 1106.18 -4.07984 -0.0360209 0
M  V30 11618 H 1104.86 -4.00702 1.11403 0
M  V30 11619 H 1103.43 -3.66549 -0.685309 0
M  V30 11620 N 1105.62 -0.414636 -1.52048 0
M  V30 11621 C 1107.03 0.0537107 -1.86623 0
M  V30 11622 C 1107.38 1.43955 -1.3331 0
M  V30 11623 O 1106.51 2.05616 -0.674606 0
M  V30 11624 C 1107.1 0.104241 -3.3864 0
M  V30 11625 C 1105.66 0.516936 -3.72833 0
M  V30 11626 C 1104.81 -0.305042 -2.75617 0
M  V30 11627 H 1107.76 -0.631469 -1.45596 0
M  V30 11628 H 1107.78 0.918395 -3.6925 0
M  V30 11629 H 1107.29 -0.904523 -3.77412 0
M  V30 11630 H 1105.39 1.53214 -3.39641 0
M  V30 11631 H 1105.5 0.2575 -4.78408 0
M  V30 11632 H 1103.87 0.233416 -2.53628 0
M  V30 11633 H 1104.65 -1.31226 -3.1723 0
M  V30 11634 N 1107.1 1.56929 -0.145233 0
M  V30 11635 C 1108.03 2.12449 0.833107 0
M  V30 11636 C 1109.01 1.0476 1.24355 0
M  V30 11637 O 1110.19 1.32579 1.33997 0
M  V30 11638 C 1107.32 2.64274 2.11842 0
M  V30 11639 C 1106.36 3.84093 1.85404 0
M  V30 11640 S 1107.2 5.25172 1.04663 0
M  V30 11641 C 1108.35 5.80384 2.34318 0
M  V30 11642 H 1108.59 2.951 0.360969 0
M  V30 11643 H 1106.12 1.54246 0.0690187 0
M  V30 11644 H 1108.08 2.94783 2.8568 0
M  V30 11645 H 1106.74 1.81756 2.56171 0
M  V30 11646 H 1105.93 4.18593 2.80706 0
M  V30 11647 H 1105.53 3.54336 1.19675 0
M  V30 11648 H 1107.83 5.91709 3.29981 0
M  V30 11649 H 1108.77 6.7798 2.04325 0
M  V30 11650 H 1109.18 5.08617 2.44885 0
M  V30 11651 N 1108.58 -0.128553 1.57075 0
M  V30 11652 C 1109.8 -0.85245 1.88523 0
M  V30 11653 C 1110.22 -1.73886 0.735459 0
M  V30 11654 O 1109.58 -1.80114 -0.294113 0
M  V30 11655 C 1109.63 -1.69384 3.19361 0
M  V30 11656 O 1109.35 -0.84313 4.2991 0
M  V30 11657 C 1110.85 -2.52373 3.64449 0
M  V30 11658 H 1108.07 -0.245556 0.624454 0
M  V30 11659 H 1110.61 -0.115807 2.04172 0
M  V30 11660 H 1108.77 -2.38335 3.0541 0
M  V30 11661 H 1109.18 -1.42255 5.0484 0
M  V30 11662 H 1110.66 -3.06955 4.58784 0
M  V30 11663 H 1111.13 -3.29283 2.90636 0
M  V30 11664 H 1111.74 -1.88681 3.81155 0
M  V30 11665 N 1110.05 -1.5248 -0.398459 0
M  V30 11666 C 1111.3 -1.66731 -1.14215 0
M  V30 11667 C 1111.62 -0.404957 -1.90749 0
M  V30 11668 O 1110.89 0.580434 -1.87104 0
M  V30 11669 H 1109.47 -0.614577 -0.424622 0
M  V30 11670 H 1112.13 -1.89561 -0.453059 0
M  V30 11671 H 1111.23 -2.51336 -1.85031 0
M  V30 11672 N 1111.53 0.65634 -1.43283 0
M  V30 11673 C 1112.78 1.41837 -1.44949 0
M  V30 11674 C 1113.11 1.94065 -0.0723212 0
M  V30 11675 O 1112.39 1.72092 0.906346 0
M  V30 11676 C 1112.67 2.60206 -2.48927 0
M  V30 11677 C 1112.52 2.1349 -3.95907 0
M  V30 11678 C 1113.84 3.62421 -2.49678 0
M  V30 11679 H 1110.96 0.514398 -0.527792 0
M  V30 11680 H 1113.6 0.74435 -1.74813 0
M  V30 11681 H 1111.75 3.17708 -2.23592 0
M  V30 11682 H 1113.42 1.61012 -4.32288 0
M  V30 11683 H 1111.67 1.4489 -4.08888 0
M  V30 11684 H 1112.34 2.98596 -4.64268 0
M  V30 11685 H 1114.81 3.14671 -2.72252 0
M  V30 11686 H 1113.69 4.42798 -3.24378 0
M  V30 11687 H 1113.95 4.14802 -1.52944 0
M  V30 11688 N 1113.01 1.29761 0.894412 0
M  V30 11689 C 1114.25 1.19313 1.65963 0
M  V30 11690 C 1114.61 -0.25022 1.90363 0
M  V30 11691 O 1115.81 -0.477779 2.6452 0
M  V30 11692 C 1114.09 1.98934 2.96917 0
M  V30 11693 S 1115.64 2.05079 3.87928 0
M  V30 11694 H 1112.46 0.42535 0.569735 0
M  V30 11695 H 1115.06 1.64116 1.06236 0
M  V30 11696 H 1113.77 3.02932 2.76876 0
M  V30 11697 H 1113.3 1.54756 3.61682 0
M  V30 11698 H 1115.31 1.17131 4.82177 0
M  V30 11699 N 1114.49 -1.10549 1.12324 0
M  V30 11700 C 1115.73 -1.82755 0.879117 0
M  V30 11701 C 1116.07 -1.84905 -0.593604 0
M  V30 11702 O 1115.34 -1.30884 -1.43873 0
M  V30 11703 C 1115.62 -3.29481 1.45308 0
M  V30 11704 C 1115.48 -3.3567 2.99408 0
M  V30 11705 C 1116.8 -4.25828 1.11167 0
M  V30 11706 H 1113.92 -0.663513 0.32081 0
M  V30 11707 H 1116.56 -1.29572 1.38965 0
M  V30 11708 H 1114.71 -3.74902 1.01887 0
M  V30 11709 H 1116.38 -2.98739 3.515 0
M  V30 11710 H 1114.62 -2.75606 3.34998 0
M  V30 11711 H 1115.29 -4.38983 3.34661 0
M  V30 11712 H 1117.77 -3.88635 1.48667 0
M  V30 11713 H 1116.65 -5.26857 1.53991 0
M  V30 11714 H 1116.91 -4.42094 0.0237046 0
M  V30 11715 N 1115.97 -0.914965 -1.28321 0
M  V30 11716 C 1116.9 -0.361578 -2.2633 0
M  V30 11717 C 1117.91 0.500637 -1.54911 0
M  V30 11718 O 1119.1 0.31532 -1.75693 0
M  V30 11719 C 1116.2 0.501693 -3.35166 0
M  V30 11720 C 1115.37 -0.338289 -4.3609 0
M  V30 11721 C 1114.43 0.460267 -5.24183 0
M  V30 11722 O 1113.46 -0.127594 -5.69057 0
M  V30 11723 N 1114.66 1.76302 -5.5308 0
M  V30 11724 H 1117.42 -1.20402 -2.74451 0
M  V30 11725 H 1114.99 -0.781042 -1.41814 0
M  V30 11726 H 1116.98 1.04268 -3.91037 0
M  V30 11727 H 1115.55 1.24485 -2.86744 0
M  V30 11728 H 1114.77 -1.06064 -3.79663 0
M  V30 11729 H 1116.06 -0.912996 -5.00542 0
M  V30 11730 H 1115.45 2.26314 -5.18458 0
M  V30 11731 H 1114.01 2.25081 -6.11704 0
M  V30 11732 N 1117.44 1.42219 -0.679077 0
M  V30 11733 C 1118.38 2.29172 0.035583 0
M  V30 11734 C 1119.39 1.43909 0.761183 0
M  V30 11735 O 1120.58 1.67584 0.61463 0
M  V30 11736 C 1117.68 3.21426 1.07419 0
M  V30 11737 C 1116.85 4.35364 0.421547 0
M  V30 11738 C 1115.91 5.08307 1.36051 0
M  V30 11739 O 1114.94 5.62678 0.859186 0
M  V30 11740 N 1116.14 5.14222 2.69362 0
M  V30 11741 H 1118.9 2.91147 -0.710865 0
M  V30 11742 H 1116.46 1.53192 -0.523821 0
M  V30 11743 H 1118.46 3.67091 1.70371 0
M  V30 11744 H 1117.03 2.60873 1.72233 0
M  V30 11745 H 1116.25 3.9229 -0.387559 0
M  V30 11746 H 1117.53 5.08789 -0.0329421 0
M  V30 11747 H 1116.93 4.71467 3.12627 0
M  V30 11748 H 1115.49 5.63519 3.27551 0
M  V30 11749 N 1118.92 0.422693 1.51826 0
M  V30 11750 C 1120.15 -0.15017 2.06856 0
M  V30 11751 C 1120.57 -1.36946 1.28948 0
M  V30 11752 O 1119.93 -1.78393 0.32338 0
M  V30 11753 C 1119.98 -0.465563 3.57582 0
M  V30 11754 O 1119.08 -1.55442 3.81984 0
M  V30 11755 H 1118.42 -0.00827931 0.663948 0
M  V30 11756 H 1120.95 0.599806 1.95611 0
M  V30 11757 H 1120.96 -0.720279 4.01592 0
M  V30 11758 H 1119.64 0.425679 4.13716 0
M  V30 11759 H 1118.21 -1.29081 3.49846 0
M  V30 11760 N 1120.4 -1.5685 0.153553 0
M  V30 11761 C 1121.81 -1.83074 -0.36618 0
M  V30 11762 C 1122.16 -1.07257 -1.64288 0
M  V30 11763 O 1121.29 -0.319925 -2.14022 0
M  V30 11764 C 1121.88 -3.32086 -0.671142 0
M  V30 11765 C 1120.44 -3.58868 -1.13537 0
M  V30 11766 C 1119.59 -2.76827 -0.161887 0
M  V30 11767 H 1122.54 -1.54129 0.378139 0
M  V30 11768 H 1122.56 -3.48598 -1.52512 0
M  V30 11769 H 1122.07 -3.8724 0.258234 0
M  V30 11770 H 1120.17 -3.09107 -2.08047 0
M  V30 11771 H 1120.29 -4.67299 -1.05682 0
M  V30 11772 H 1118.65 -2.46112 -0.6558 0
M  V30 11773 H 1119.43 -3.34755 0.761195 0
M  V30 11774 N 1121.88 0.120221 -1.57141 0
M  V30 11775 C 1123.12 0.829449 -1.85062 0
M  V30 11776 C 1123.46 1.79585 -0.739116 0
M  V30 11777 O 1122.73 1.92819 0.255147 0
M  V30 11778 C 1123.01 1.58042 -3.23566 0
M  V30 11779 C 1122.87 0.633706 -4.45314 0
M  V30 11780 C 1124.19 2.53688 -3.59625 0
M  V30 11781 H 1121.31 0.300086 -0.67314 0
M  V30 11782 H 1123.95 0.0937393 -1.89769 0
M  V30 11783 H 1122.1 2.20758 -3.19684 0
M  V30 11784 H 1123.77 0.0154836 -4.61297 0
M  V30 11785 H 1122.01 -0.054846 -4.33765 0
M  V30 11786 H 1122.68 1.19577 -5.38893 0
M  V30 11787 H 1125.16 2.01078 -3.6429 0
M  V30 11788 H 1124.04 3.03265 -4.57516 0
M  V30 11789 H 1124.3 3.36296 -2.8698 0
M  V30 11790 N 1123.36 1.52689 0.390367 0
M  V30 11791 C 1124.32 1.76726 1.45947 0
M  V30 11792 C 1125.32 0.637269 1.47633 0
M  V30 11793 O 1126.51 0.905312 1.48828 0
M  V30 11794 C 1123.64 1.86678 2.85244 0
M  V30 11795 H 1124.83 2.72185 1.25918 0
M  V30 11796 H 1122.39 1.4339 0.622023 0
M  V30 11797 H 1123.12 0.931991 3.10619 0
M  V30 11798 H 1122.91 2.68843 2.85422 0
M  V30 11799 H 1124.4 2.06952 3.62713 0
M  V30 11800 N 1124.83 -0.648732 1.43629 0
M  V30 11801 C 1126.06 -1.44117 1.49148 0
M  V30 11802 C 1126.48 -1.87767 0.111952 0
M  V30 11803 O 1125.84 -1.57655 -0.895249 0
M  V30 11804 C 1125.89 -2.64938 2.44623 0
M  V30 11805 O 1124.99 -3.64155 1.93559 0
M  V30 11806 H 1124.34 -0.431933 0.504312 0
M  V30 11807 H 1126.87 -0.793439 1.88589 0
M  V30 11808 H 1126.88 -3.12698 2.62076 0
M  V30 11809 H 1125.55 -2.3251 3.44836 0
M  V30 11810 H 1124.13 -3.23322 1.85789 0
M  V30 11811 N 1126.31 -1.30234 -0.887518 0
M  V30 11812 C 1127.54 -1.21955 -1.67755 0
M  V30 11813 C 1127.96 0.214701 -1.86871 0
M  V30 11814 O 1127.32 1.15459 -1.39782 0
M  V30 11815 C 1127.37 -1.95079 -3.03276 0
M  V30 11816 O 1126.47 -1.27615 -3.92158 0
M  V30 11817 H 1125.81 -0.421948 -0.512695 0
M  V30 11818 H 1128.34 -1.72011 -1.10785 0
M  V30 11819 H 1128.35 -2.04004 -3.53336 0
M  V30 11820 H 1127.03 -2.99392 -2.88682 0
M  V30 11821 H 1125.61 -1.27029 -3.50597 0
M  V30 11822 O 1127.83 1.02351 -1.24926 0
M  V30 11823 H 1128.52 1.64072 -1.02957 0
M  V30 END ATOM
M  V30 BEGIN BOND
M  V30 END BOND
M  V30 END CTAB
M  END
$$$$
