drugbank_target|Q9H4B4 Serine/threonine-protein kinase PLK3 (DB12010)
 OpenBabel12092121183D

  0  0  0     0  0            999 V3000
M  V30 BEGIN CTAB
M  V30 COUNTS 10131 10264 0 0 0
M  V30 BEGIN ATOM
M  V30 1 H -0.908 1.98254 -0.117106 0
M  V30 2 N 0 1.576 0 0
M  V30 3 C 0.933 2.03868 1.02534 0
M  V30 4 C 1.911 0.928543 1.3348 0
M  V30 5 O 3.095 1.19667 1.45644 0
M  V30 6 C 0.222 2.43627 2.35294 0
M  V30 7 C -0.732 3.65373 2.2001 0
M  V30 8 S 0.101 5.13292 1.52614 0
M  V30 9 C 1.257 5.56322 2.86805 0
M  V30 10 H 1.49 2.90518 0.631377 0
M  V30 11 H -0.977 1.52953 0.210867 0
M  V30 12 H 0.981 2.67203 3.11629 0
M  V30 13 H -0.358 1.57376 2.7183 0
M  V30 14 H -1.165 3.90944 3.18086 0
M  V30 15 H -1.563 3.418 1.51819 0
M  V30 16 H 0.729 5.58782 3.83104 0
M  V30 17 H 1.672 6.56266 2.65933 0
M  V30 18 H 2.08 4.83886 2.90714 0
M  V30 19 N 1.4781 -0.272755 1.55222 0
M  V30 20 C 2.3881 -1.35918 1.91216 0
M  V30 21 C 3.4041 -1.54026 0.809436 0
M  V30 22 O 4.5801 -1.68148 1.10852 0
M  V30 23 C 1.6451 -2.69834 2.17693 0
M  V30 24 C 0.7061 -2.6047 3.41253 0
M  V30 25 C -0.0609 -3.88 3.66458 0
M  V30 26 O 0.1621 -4.88693 2.94169 0
M  V30 27 O -0.9039 -3.88189 4.59992 0
M  V30 28 H 2.9221 -1.0839 2.83699 0
M  V30 29 H 0.5071 -0.471301 1.41771 0
M  V30 30 H 2.3891 -3.49017 2.36147 0
M  V30 31 H 1.0641 -2.97148 1.28392 0
M  V30 32 H -0.0289 -1.79663 3.28134 0
M  V30 33 H 1.3041 -2.38106 4.30774 0
M  V30 34 N 2.9562 -1.48159 -0.537278 0
M  V30 35 C 4.3672 -1.49429 -1.11928 0
M  V30 36 C 4.7182 -0.26 -1.9447 0
M  V30 37 O 3.8432 0.633489 -2.0692 0
M  V30 38 C 4.4382 -2.70758 -2.03656 0
M  V30 39 C 2.9972 -2.74923 -2.57088 0
M  V30 40 C 2.1442 -2.42835 -1.3389 0
M  V30 41 H 5.0952 -1.55381 -0.322886 0
M  V30 42 H 5.1162 -2.48861 -2.87834 0
M  V30 43 H 4.6282 -3.60575 -1.43553 0
M  V30 44 H 2.7292 -1.89296 -3.20933 0
M  V30 45 H 2.8422 -3.76157 -2.9672 0
M  V30 46 H 1.2062 -1.93836 -1.65226 0
M  V30 47 H 1.9892 -3.34884 -0.755504 0
M  V30 48 N 4.4343 0.785586 -1.36625 0
M  V30 49 C 5.3973 1.87999 -1.31107 0
M  V30 50 C 6.3973 1.59316 -0.217959 0
M  V30 51 O 7.5873 1.67656 -0.472977 0
M  V30 52 C 4.7193 3.24861 -1.03334 0
M  V30 53 H 5.9123 1.94307 -2.2844 0
M  V30 54 H 3.4653 0.983813 -1.21453 0
M  V30 55 H 4.2003 3.24235 -0.0647432 0
M  V30 56 H 3.9853 3.4707 -1.82441 0
M  V30 57 H 5.4753 4.04929 -1.02088 0
M  V30 58 N 5.9124 1.20967 1.01018 0
M  V30 59 C 6.8754 0.965918 2.07853 0
M  V30 60 C 7.8754 -0.0610545 1.60684 0
M  V30 61 O 9.0654 0.175681 1.73312 0
M  V30 62 C 6.1974 0.455513 3.37843 0
M  V30 63 H 7.3904 1.91365 2.3091 0
M  V30 64 H 4.9434 1.02594 1.17916 0
M  V30 65 H 5.6784 -0.497381 3.20463 0
M  V30 66 H 5.4634 1.19622 3.73407 0
M  V30 67 H 6.9534 0.304667 4.16487 0
M  V30 68 N 7.3905 -1.2043 1.01659 0
M  V30 69 C 8.6385 -1.89423 0.704522 0
M  V30 70 C 8.9595 -1.79231 -0.768197 0
M  V30 71 O 8.2295 -1.1947 -1.55254 0
M  V30 72 H 6.8095 -0.701178 0.257602 0
M  V30 73 H 9.4715 -1.4626 1.28818 0
M  V30 74 H 8.5675 -2.96052 0.987916 0
M  V30 75 N 8.8686 -0.792821 -1.36206 0
M  V30 76 C 10.1156 -0.366786 -1.99151 0
M  V30 77 C 10.4436 1.06243 -1.62919 0
M  V30 78 O 9.6986 1.74927 -0.877442 0
M  V30 79 C 9.9976 -0.481501 -3.54142 0
M  V30 80 C 9.6636 -1.87202 -4.10203 0
M  V30 81 C 8.3256 -2.25248 -4.25226 0
M  V30 82 C 10.6776 -2.78237 -4.40719 0
M  V30 83 C 8.0056 -3.53723 -4.68078 0
M  V30 84 C 10.3576 -4.06144 -4.85005 0
M  V30 85 C 9.0216 -4.44207 -4.98234 0
M  V30 86 H 8.2916 -0.134217 -0.728743 0
M  V30 87 H 10.9386 -1.01094 -1.62641 0
M  V30 88 H 9.2436 0.246146 -3.91026 0
M  V30 89 H 10.9406 -0.132844 -4.0078 0
M  V30 90 H 7.5306 -1.56639 -3.98951 0
M  V30 91 H 11.7146 -2.50097 -4.28679 0
M  V30 92 H 6.9706 -3.8308 -4.76508 0
M  V30 93 H 11.1446 -4.76796 -5.07581 0
M  V30 94 H 8.7716 -5.43814 -5.31197 0
M  V30 95 N 10.3467 1.47872 -0.545128 0
M  V30 96 C 11.2767 2.32661 0.197793 0
M  V30 97 C 12.2577 1.43041 0.920504 0
M  V30 98 O 13.4427 1.71912 0.90333 0
M  V30 99 C 10.5727 3.24569 1.23582 0
M  V30 100 C 9.5267 4.23333 0.630323 0
M  V30 101 C 8.8527 5.0448 1.77211 0
M  V30 102 C 10.1527 5.20704 -0.407974 0
M  V30 103 H 11.8467 2.95024 -0.510045 0
M  V30 104 H 9.3927 1.4187 -0.246731 0
M  V30 105 H 11.3457 3.8272 1.76362 0
M  V30 106 H 10.0697 2.60236 1.97344 0
M  V30 107 H 8.7287 3.6639 0.123922 0
M  V30 108 H 8.3767 4.36561 2.49847 0
M  V30 109 H 8.0767 5.71339 1.37281 0
M  V30 110 H 9.6007 5.65487 2.3034 0
M  V30 111 H 11.0147 5.7329 0.033305 0
M  V30 112 H 9.4117 5.95699 -0.725486 0
M  V30 113 H 10.4817 4.66917 -1.30828 0
M  V30 114 N 11.8248 0.280983 1.55075 0
M  V30 115 C 13.0498 -0.340154 2.04592 0
M  V30 116 C 13.4748 -1.48246 1.15779 0
M  V30 117 O 12.8328 -1.80614 0.15761 0
M  V30 118 C 12.8808 -0.793104 3.5177 0
M  V30 119 O 11.9848 -1.89981 3.66034 0
M  V30 120 H 11.3258 -0.0694289 0.66036 0
M  V30 121 H 13.8558 0.416993 2.00306 0
M  V30 122 H 13.8658 -1.08729 3.93245 0
M  V30 123 H 12.5408 0.0426163 4.15878 0
M  V30 124 H 11.1178 -1.60771 3.36463 0
M  V30 125 N 13.3029 -1.57598 0.00835791 0
M  V30 126 C 14.7139 -1.7892 -0.53333 0
M  V30 127 C 15.0649 -0.916609 -1.73473 0
M  V30 128 O 14.1899 -0.121336 -2.1606 0
M  V30 129 C 14.7849 -3.24488 -0.974313 0
M  V30 130 C 13.3439 -3.46878 -1.46125 0
M  V30 131 C 12.4909 -2.74157 -0.416302 0
M  V30 132 H 15.4419 -1.56958 0.234495 0
M  V30 133 H 15.4629 -3.3306 -1.83988 0
M  V30 134 H 14.9749 -3.87972 -0.099718 0
M  V30 135 H 13.0759 -2.8862 -2.35646 0
M  V30 136 H 13.1889 -4.55572 -1.48295 0
M  V30 137 H 11.5529 -2.39022 -0.87981 0
M  V30 138 H 12.3359 -3.40345 0.44947 0
M  V30 139 N 14.781 0.264519 -1.55364 0
M  V30 140 C 16.197 0.61215 -1.47394 0
M  V30 141 C 16.397 1.89134 -0.695018 0
M  V30 142 O 15.453 2.51563 -0.217275 0
M  V30 143 C 16.766 0.731235 -2.91674 0
M  V30 144 C 18.314 0.82473 -3.01939 0
M  V30 145 C 18.789 0.975522 -4.4749 0
M  V30 146 N 20.28 1.04083 -4.51354 0
M  V30 147 C 21.015 1.17646 -5.61201 0
M  V30 148 N 20.511 1.27874 -6.80896 0
M  V30 149 N 22.304 1.20823 -5.48961 0
M  V30 150 H 14.455 -0.575456 -2.04456 0
M  V30 151 H 16.718 -0.196099 -0.927496 0
M  V30 152 H 16.424 -0.138392 -3.51428 0
M  V30 153 H 16.298 1.60883 -3.41169 0
M  V30 154 H 18.685 1.68482 -2.42276 0
M  V30 155 H 18.766 -0.0776479 -2.55682 0
M  V30 156 H 18.41 0.120058 -5.07758 0
M  V30 157 H 18.34 1.89268 -4.91412 0
M  V30 158 H 20.831 0.973846 -3.65136 0
M  V30 159 H 21.144 1.38081 -7.60364 0
M  V30 160 H 19.489 1.24863 -6.83692 0
M  V30 161 H 22.68 1.12469 -4.54388 0
M  V30 162 H 22.853 1.31049 -6.3461 0
M  V30 163 N 16.2591 1.48442 0.529413 0
M  V30 164 C 17.6701 1.5002 1.11134 0
M  V30 165 C 18.0211 0.27031 1.94329 0
M  V30 166 O 17.1461 -0.622507 2.07253 0
M  V30 167 C 17.7411 2.71834 2.02217 0
M  V30 168 C 16.3001 2.76283 2.55627 0
M  V30 169 C 15.4471 2.43542 1.326 0
M  V30 170 H 18.3981 1.5555 0.314641 0
M  V30 171 H 18.4191 2.50384 2.8651 0
M  V30 172 H 17.9311 3.61331 1.41639 0
M  V30 173 H 16.0321 1.90995 3.19924 0
M  V30 174 H 16.1451 3.77725 2.94721 0
M  V30 175 H 14.5091 1.94709 1.64196 0
M  V30 176 H 15.2921 3.3528 0.737734 0
M  V30 177 N 17.7372 -0.778329 1.37039 0
M  V30 178 C 18.9842 -1.53665 1.31884 0
M  V30 179 C 19.3122 -1.9425 -0.0986303 0
M  V30 180 O 18.5672 -1.63832 -1.07041 0
M  V30 181 C 18.8662 -2.81845 2.19768 0
M  V30 182 C 18.5322 -2.60345 3.68146 0
M  V30 183 C 17.1942 -2.5419 4.08584 0
M  V30 184 C 19.5462 -2.40923 4.62175 0
M  V30 185 C 16.8742 -2.26594 5.41177 0
M  V30 186 C 19.2262 -2.14852 5.94997 0
M  V30 187 C 17.8902 -2.07137 6.34547 0
M  V30 188 H 17.1602 -0.562299 0.482598 0
M  V30 189 H 19.8072 -0.897069 1.69189 0
M  V30 190 H 18.1122 -3.50328 1.75436 0
M  V30 191 H 19.8092 -3.39692 2.13097 0
M  V30 192 H 16.3992 -2.65996 3.36072 0
M  V30 193 H 20.5832 -2.44673 4.31797 0
M  V30 194 H 15.8392 -2.19111 5.70789 0
M  V30 195 H 20.0132 -1.98822 6.67415 0
M  V30 196 H 17.6402 -1.85518 7.37216 0
M  V30 197 N 19.2153 -1.21501 -1.00376 0
M  V30 198 C 20.1473 -0.933174 -2.09343 0
M  V30 199 C 21.1603 0.0840896 -1.62583 0
M  V30 200 O 22.3493 -0.148563 -1.77881 0
M  V30 201 C 19.4493 -0.379869 -3.36764 0
M  V30 202 C 18.6223 -1.45176 -4.12605 0
M  V30 203 C 17.6813 -0.907476 -5.18316 0
M  V30 204 O 16.7073 -1.5912 -5.46507 0
M  V30 205 N 17.9093 0.276649 -5.7984 0
M  V30 206 H 20.6743 -1.87124 -2.34104 0
M  V30 207 H 18.2353 -1.12043 -1.16867 0
M  V30 208 H 20.2273 -0.00131488 -4.047 0
M  V30 209 H 18.7973 0.463048 -3.09151 0
M  V30 210 H 18.0173 -2.00411 -3.39454 0
M  V30 211 H 19.3053 -2.17328 -4.6005 0
M  V30 212 H 18.7033 0.849147 -5.59291 0
M  V30 213 H 17.2603 0.596702 -6.49063 0
M  V30 214 N 20.6934 1.19889 -1.02296 0
M  V30 215 C 22.1094 1.41462 -0.738954 0
M  V30 216 C 22.3094 1.89721 0.678846 0
M  V30 217 O 21.3654 2.07016 1.4457 0
M  V30 218 C 22.6784 2.43083 -1.77005 0
M  V30 219 C 24.2264 2.5684 -1.78892 0
M  V30 220 C 24.7014 3.61709 -2.80945 0
M  V30 221 N 26.1924 3.69199 -2.79725 0
M  V30 222 C 26.9274 4.50019 -3.55345 0
M  V30 223 N 26.4234 5.34592 -4.40662 0
M  V30 224 N 28.2164 4.44612 -3.43914 0
M  V30 225 H 20.3674 0.868827 -1.93817 0
M  V30 226 H 22.6304 0.44399 -0.837602 0
M  V30 227 H 22.3364 2.14636 -2.78612 0
M  V30 228 H 22.2104 3.4217 -1.58744 0
M  V30 229 H 24.5974 2.84614 -0.779674 0
M  V30 230 H 24.6784 1.57927 -2.01228 0
M  V30 231 H 24.3224 3.34678 -3.82038 0
M  V30 232 H 24.2524 4.60259 -2.5587 0
M  V30 233 H 26.7434 3.08794 -2.17842 0
M  V30 234 H 27.0564 5.93363 -4.95116 0
M  V30 235 H 25.4014 5.34073 -4.44737 0
M  V30 236 H 28.5924 3.7758 -2.76679 0
M  V30 237 H 28.7654 5.0736 -4.031 0
M  V30 238 N 22.1715 0.800033 1.35784 0
M  V30 239 C 23.1345 0.211565 2.28221 0
M  V30 240 C 24.1345 -0.59728 1.49296 0
M  V30 241 O 25.3245 -0.416721 1.69142 0
M  V30 242 C 22.4565 -0.705846 3.33513 0
M  V30 243 H 23.6495 1.02677 2.81776 0
M  V30 244 H 21.2025 0.570211 1.45528 0
M  V30 245 H 21.9375 -1.54498 2.85133 0
M  V30 246 H 21.7225 -0.127655 3.91892 0
M  V30 247 H 23.2125 -1.11211 4.02519 0
M  V30 248 N 23.6496 -1.47581 0.552962 0
M  V30 249 C 24.6126 -2.28439 -0.186605 0
M  V30 250 C 25.6126 -1.36706 -0.84665 0
M  V30 251 O 26.8026 -1.59378 -0.703164 0
M  V30 252 C 23.9346 -3.16264 -1.2724 0
M  V30 253 H 25.1276 -2.95294 0.523609 0
M  V30 254 H 22.6806 -1.532 0.309745 0
M  V30 255 H 23.4156 -2.54091 -2.01514 0
M  V30 256 H 23.2006 -3.83769 -0.803968 0
M  V30 257 H 24.6906 -3.77198 -1.79196 0
M  V30 258 N 25.1277 -0.289203 -1.54924 0
M  V30 259 C 26.0907 0.579144 -2.21762 0
M  V30 260 C 27.0907 1.07047 -1.1999 0
M  V30 261 O 28.2807 0.968384 -1.44803 0
M  V30 262 C 25.4127 1.80055 -2.8947 0
M  V30 263 H 26.6057 -0.00464908 -2.999 0
M  V30 264 H 24.1587 -0.0399306 -1.56249 0
M  V30 265 H 24.8937 2.42449 -2.15381 0
M  V30 266 H 24.6787 1.45602 -3.64064 0
M  V30 267 H 26.1687 2.41773 -3.40493 0
M  V30 268 N 26.6058 1.57591 -0.0167156 0
M  V30 269 C 27.5688 2.08393 0.954204 0
M  V30 270 C 28.5688 0.996531 1.26198 0
M  V30 271 O 29.7588 1.25858 1.20438 0
M  V30 272 C 26.8908 2.5394 2.27436 0
M  V30 273 H 28.0838 2.95455 0.514451 0
M  V30 274 H 25.6368 1.54582 0.231089 0
M  V30 275 H 26.3718 1.70171 2.76066 0
M  V30 276 H 26.1568 3.33371 2.06412 0
M  V30 277 H 27.6468 2.93512 2.97053 0
M  V30 278 N 28.0839 -0.256276 1.55502 0
M  V30 279 C 29.4949 -0.826068 1.67431 0
M  V30 280 C 29.8459 -1.86396 0.612446 0
M  V30 281 O 28.9709 -2.15031 -0.243025 0
M  V30 282 C 29.5659 -1.50512 3.03532 0
M  V30 283 C 28.1249 -2.02273 3.17431 0
M  V30 284 C 27.2719 -0.870548 2.63281 0
M  V30 285 H 30.2229 -0.0322728 1.58667 0
M  V30 286 H 30.2439 -2.37279 2.97454 0
M  V30 287 H 29.7559 -0.749484 3.80794 0
M  V30 288 H 27.8569 -2.80746 2.44974 0
M  V30 289 H 27.9699 -2.22655 4.24219 0
M  V30 290 H 26.3339 -1.26851 2.20864 0
M  V30 291 H 27.1169 -0.128149 3.43061 0
M  V30 292 N 29.562 -1.4872 -0.521534 0
M  V30 293 C 30.525 -1.63379 -1.60748 0
M  V30 294 C 31.525 -0.50661 -1.52611 0
M  V30 295 O 32.715 -0.772601 -1.5613 0
M  V30 296 C 29.847 -1.61192 -3.00383 0
M  V30 297 H 31.04 -2.60217 -1.49087 0
M  V30 298 H 28.593 -1.37444 -0.744235 0
M  V30 299 H 29.328 -0.65863 -3.17541 0
M  V30 300 H 29.113 -2.43032 -3.07698 0
M  V30 301 H 30.603 -1.7466 -3.7932 0
M  V30 302 N 31.0401 0.771051 -1.3745 0
M  V30 303 C 32.4511 1.34737 -1.29239 0
M  V30 304 C 32.8021 1.96109 0.0596908 0
M  V30 305 O 31.9271 1.93865 0.961534 0
M  V30 306 C 32.5221 2.44973 -2.34037 0
M  V30 307 C 31.0811 2.98372 -2.29458 0
M  V30 308 C 30.2281 1.71595 -2.17831 0
M  V30 309 H 33.1791 0.571256 -1.48062 0
M  V30 310 H 33.2001 3.24471 -1.98744 0
M  V30 311 H 32.7121 2.00276 -3.32432 0
M  V30 312 H 30.8131 3.47443 -1.34589 0
M  V30 313 H 30.9261 3.53939 -3.229 0
M  V30 314 H 29.2901 1.94547 -1.64388 0
M  V30 315 H 30.0731 1.29001 -3.18141 0
M  V30 316 N 32.5182 1.22032 0.997298 0
M  V30 317 C 33.9292 1.0397 1.55071 0
M  V30 318 C 34.2802 -0.398192 1.92117 0
M  V30 319 O 33.4052 -1.28254 1.74298 0
M  V30 320 C 34.0002 1.88109 2.81781 0
M  V30 321 C 32.5592 1.74357 3.33581 0
M  V30 322 C 31.7062 1.84846 2.06706 0
M  V30 323 H 34.6572 1.35941 0.818883 0
M  V30 324 H 34.6782 1.39589 3.53971 0
M  V30 325 H 34.1902 2.92754 2.54787 0
M  V30 326 H 32.2912 0.72427 3.65493 0
M  V30 327 H 32.4042 2.56772 4.04481 0
M  V30 328 H 30.7682 1.28238 2.20062 0
M  V30 329 H 31.5512 2.91014 1.82114 0
M  V30 330 N 33.9963 -1.19345 1.0293 0
M  V30 331 C 34.9593 -2.20793 0.615069 0
M  V30 332 C 35.9593 -1.57553 -0.321533 0
M  V30 333 O 37.1493 -1.73862 -0.108483 0
M  V30 334 C 34.2813 -3.40754 -0.0999222 0
M  V30 335 H 35.4743 -2.58955 1.51269 0
M  V30 336 H 33.0273 -1.3303 0.820534 0
M  V30 337 H 33.7623 -3.0811 -1.01187 0
M  V30 338 H 33.5473 -3.87889 0.57309 0
M  V30 339 H 35.0373 -4.15898 -0.376645 0
M  V30 340 N 35.4744 -0.807222 -1.35358 0
M  V30 341 C 36.7224 -0.387122 -1.98358 0
M  V30 342 C 37.0434 1.04942 -1.64354 0
M  V30 343 O 36.3134 1.72615 -0.926339 0
M  V30 344 H 34.8934 -0.140154 -0.733734 0
M  V30 345 H 37.5554 -1.0332 -1.6526 0
M  V30 346 H 36.6514 -0.493352 -3.08176 0
M  V30 347 N 36.9525 1.47285 -0.560781 0
M  V30 348 C 38.3635 1.86258 -0.128343 0
M  V30 349 C 38.7145 1.46699 1.30284 0
M  V30 350 O 37.8395 0.871698 1.98067 0
M  V30 351 C 38.4345 3.38044 -0.22614 0
M  V30 352 C 36.9935 3.76096 0.151283 0
M  V30 353 C 36.1405 2.71335 -0.572084 0
M  V30 354 H 39.0915 1.38752 -0.770297 0
M  V30 355 H 39.1125 3.76441 0.554322 0
M  V30 356 H 38.6245 3.66806 -1.26788 0
M  V30 357 H 36.7255 3.52951 1.19399 0
M  V30 358 H 36.8385 4.78641 -0.209765 0
M  V30 359 H 35.2025 2.54696 -0.0147653 0
M  V30 360 H 35.9855 3.02938 -1.61504 0
M  V30 361 N 38.4306 0.297415 1.54768 0
M  V30 362 C 39.6786 -0.312295 1.99673 0
M  V30 363 C 39.9996 -1.54686 1.18732 0
M  V30 364 O 39.2696 -1.93854 0.282382 0
M  V30 365 H 37.8496 -0.118381 0.73756 0
M  V30 366 H 40.5116 0.407915 1.90583 0
M  V30 367 H 39.6076 -0.586813 3.06534 0
M  V30 368 N 39.9087 -1.5758 0.0250728 0
M  V30 369 C 41.3197 -1.79476 -0.514323 0
M  V30 370 C 41.6707 -0.934956 -1.72491 0
M  V30 371 O 40.7957 -0.144245 -2.15919 0
M  V30 372 C 41.3907 -3.25503 -0.939842 0
M  V30 373 C 39.9497 -3.48408 -1.42438 0
M  V30 374 C 39.0967 -2.74583 -0.387201 0
M  V30 375 H 42.0477 -1.567 0.25113 0
M  V30 376 H 42.0687 -3.34992 -1.80445 0
M  V30 377 H 41.5807 -3.88056 -0.0585628 0
M  V30 378 H 39.6817 -2.91103 -2.32572 0
M  V30 379 H 39.7947 -4.57119 -1.43455 0
M  V30 380 H 38.1587 -2.39942 -0.854409 0
M  V30 381 H 38.9417 -3.39849 0.485543 0
M  V30 382 N 41.3868 0.248026 -1.55636 0
M  V30 383 C 42.7978 0.817177 -1.67866 0
M  V30 384 C 43.1488 1.86069 -0.622322 0
M  V30 385 O 42.2738 2.15157 0.231618 0
M  V30 386 C 42.8688 1.489 -3.04326 0
M  V30 387 C 41.4278 2.00587 -3.185 0
M  V30 388 C 40.5748 0.856573 -2.63739 0
M  V30 389 H 43.5258 0.0238579 -1.58682 0
M  V30 390 H 43.5468 2.35698 -2.98708 0
M  V30 391 H 43.0588 0.729279 -3.81186 0
M  V30 392 H 41.1598 2.79443 -2.4646 0
M  V30 393 H 41.2728 2.20402 -4.25393 0
M  V30 394 H 39.6368 1.25678 -2.21534 0
M  V30 395 H 40.4198 0.109953 -3.43124 0
M  V30 396 N 42.8649 1.48995 0.513639 0
M  V30 397 C 44.2759 1.5119 1.09537 0
M  V30 398 C 44.6269 0.290906 1.94031 0
M  V30 399 O 43.7519 -0.60049 2.07902 0
M  V30 400 C 44.3469 2.73964 1.99322 0
M  V30 401 C 42.9059 2.78978 2.52682 0
M  V30 402 C 42.0529 2.44934 1.30009 0
M  V30 403 H 45.0039 1.55875 0.298125 0
M  V30 404 H 45.0249 2.53409 2.83838 0
M  V30 405 H 44.5369 3.62813 1.37799 0
M  V30 406 H 42.6379 1.94378 3.1788 0
M  V30 407 H 42.7509 3.8083 2.90698 0
M  V30 408 H 41.1149 1.9644 1.62122 0
M  V30 409 H 41.8979 3.36043 0.702131 0
M  V30 410 N 44.343 -0.763751 1.37857 0
M  V30 411 C 45.568 -1.55805 1.36893 0
M  V30 412 C 45.993 -1.88054 -0.0416135 0
M  V30 413 O 45.351 -1.49825 -1.02089 0
M  V30 414 C 45.399 -2.84012 2.22192 0
M  V30 415 O 44.503 -3.78732 1.63204 0
M  V30 416 H 43.844 -0.471638 0.46739 0
M  V30 417 H 46.374 -0.944657 1.81487 0
M  V30 418 H 46.384 -3.33037 2.35691 0
M  V30 419 H 45.059 -2.59869 3.24716 0
M  V30 420 H 43.636 -3.37402 1.58791 0
M  V30 421 N 45.8211 -1.22559 -0.990812 0
M  V30 422 C 46.7841 -0.998863 -2.0629 0
M  V30 423 C 47.7841 0.0354834 -1.60761 0
M  V30 424 O 48.9741 -0.203231 -1.7301 0
M  V30 425 C 46.1061 -0.509203 -3.37076 0
M  V30 426 H 47.2991 -1.95014 -2.27837 0
M  V30 427 H 44.8521 -1.04456 -1.16269 0
M  V30 428 H 45.5871 0.446335 -3.21214 0
M  V30 429 H 45.3721 -1.25547 -3.71457 0
M  V30 430 H 46.8621 -0.370888 -4.1595 0
M  V30 431 N 47.2992 1.18797 -1.03562 0
M  V30 432 C 48.2292 2.24472 -0.643019 0
M  V30 433 C 49.2102 1.66433 0.351283 0
M  V30 434 O 50.3952 1.92803 0.232505 0
M  V30 435 C 47.5252 3.473 4.24935e-05 0
M  V30 436 C 46.4792 4.18055 -0.917257 0
M  V30 437 C 45.8052 5.34519 -0.138941 0
M  V30 438 C 47.1052 4.72109 -2.23407 0
M  V30 439 H 48.7992 2.57566 -1.52643 0
M  V30 440 H 46.3452 1.23806 -0.735394 0
M  V30 441 H 48.2982 4.20426 0.286383 0
M  V30 442 H 47.0222 3.13424 0.918299 0
M  V30 443 H 45.6812 3.46821 -1.1879 0
M  V30 444 H 45.3292 4.96891 0.781562 0
M  V30 445 H 45.0292 5.82794 -0.750005 0
M  V30 446 H 46.5532 6.10438 0.1405 0
M  V30 447 H 47.9672 5.36955 -2.00879 0
M  V30 448 H 46.3642 5.30897 -2.79765 0
M  V30 449 H 47.4342 3.89807 -2.88407 0
M  V30 450 N 48.7773 0.814389 1.34928 0
M  V30 451 C 50.1933 0.499084 1.51596 0
M  V30 452 C 50.3933 -0.978319 1.76157 0
M  V30 453 O 49.4493 -1.76309 1.80752 0
M  V30 454 C 50.7623 1.35121 2.68631 0
M  V30 455 C 52.3103 1.34746 2.82511 0
M  V30 456 C 52.7853 2.18388 4.0258 0
M  V30 457 N 54.2763 2.15966 4.09772 0
M  V30 458 C 55.0113 2.77437 5.01813 0
M  V30 459 N 54.5073 3.47866 5.99134 0
M  V30 460 N 56.3003 2.67037 4.94619 0
M  V30 461 H 48.4513 1.7711 1.17243 0
M  V30 462 H 50.7143 0.754256 0.574284 0
M  V30 463 H 50.4203 2.40001 2.57085 0
M  V30 464 H 50.2943 1.00991 3.63429 0
M  V30 465 H 52.6813 0.30648 2.93504 0
M  V30 466 H 52.7623 1.72869 1.88547 0
M  V30 467 H 52.4063 3.2253 3.92347 0
M  V30 468 H 52.3363 1.77621 4.9574 0
M  V30 469 H 54.8273 1.64729 3.40107 0
M  V30 470 H 55.1403 3.92038 6.65977 0
M  V30 471 H 53.4853 3.51972 5.99284 0
M  V30 472 H 56.6763 2.11597 4.17546 0
M  V30 473 H 56.8493 3.15232 5.66156 0
M  V30 474 N 50.2554 -1.46986 0.568584 0
M  V30 475 C 51.5034 -2.02041 0.0487022 0
M  V30 476 C 51.8244 -1.44408 -1.31039 0
M  V30 477 O 51.0944 -0.623477 -1.85714 0
M  V30 478 H 49.6744 -0.746849 0.015014 0
M  V30 479 H 52.3364 -1.80257 0.741168 0
M  V30 480 H 51.4324 -3.12085 -0.0308961 0
M  V30 481 N 51.7335 -0.305618 -1.54608 0
M  V30 482 C 53.1445 0.186098 -1.8577 0
M  V30 483 C 53.4955 1.53058 -1.22751 0
M  V30 484 O 52.6205 2.09888 -0.526893 0
M  V30 485 C 53.2155 0.344449 -3.37044 0
M  V30 486 C 51.7745 0.780384 -3.68221 0
M  V30 487 C 50.9215 -0.108554 -2.77087 0
M  V30 488 H 53.8725 -0.526485 -1.49712 0
M  V30 489 H 53.8935 1.17828 -3.61796 0
M  V30 490 H 53.4055 -0.634235 -3.82883 0
M  V30 491 H 51.5065 1.76945 -3.27904 0
M  V30 492 H 51.6195 0.596572 -4.75371 0
M  V30 493 H 49.9835 0.412931 -2.5133 0
M  V30 494 H 50.7665 -1.08368 -3.25747 0
M  V30 495 N 53.2116 1.57565 -0.0334293 0
M  V30 496 C 54.1216 2.13943 0.962572 0
M  V30 497 C 55.1376 1.09276 1.35406 0
M  V30 498 O 56.3136 1.41355 1.4346 0
M  V30 499 C 53.3786 2.65887 2.22497 0
M  V30 500 C 52.4396 3.85286 1.8935 0
M  V30 501 C 51.6726 4.34743 3.09571 0
M  V30 502 O 51.8956 3.83352 4.22371 0
M  V30 503 O 50.8296 5.26538 2.91618 0
M  V30 504 H 54.6556 2.99333 0.513169 0
M  V30 505 H 52.2406 1.4822 0.18743 0
M  V30 506 H 54.1226 2.99346 2.96598 0
M  V30 507 H 52.7976 1.83578 2.6661 0
M  V30 508 H 51.7046 3.56746 1.1262 0
M  V30 509 H 53.0376 4.68771 1.5005 0
M  V30 510 N 54.6897 -0.239769 1.55765 0
M  V30 511 C 55.6197 -1.30052 1.9393 0
M  V30 512 C 56.6007 -1.49839 0.805132 0
M  V30 513 O 57.7857 -1.62328 1.06599 0
M  V30 514 C 54.9157 -2.65391 2.2402 0
M  V30 515 C 53.8697 -2.60289 3.39755 0
M  V30 516 C 53.1957 -3.99489 3.55405 0
M  V30 517 C 54.4957 -2.16654 4.75246 0
M  V30 518 H 56.1897 -0.983573 2.82783 0
M  V30 519 H 53.7357 -0.471701 1.36055 0
M  V30 520 H 55.6887 -3.3974 2.49308 0
M  V30 521 H 54.4127 -2.98736 1.32 0
M  V30 522 H 53.0717 -1.88398 3.14487 0
M  V30 523 H 52.7197 -4.30112 2.60793 0
M  V30 524 H 52.4197 -3.96962 4.33238 0
M  V30 525 H 53.9437 -4.75528 3.83022 0
M  V30 526 H 55.3577 -2.80737 4.99859 0
M  V30 527 H 53.7547 -2.25223 5.56232 0
M  V30 528 H 54.8247 -1.11835 4.71827 0
M  V30 529 N 56.1678 -1.49265 -0.50573 0
M  V30 530 C 57.0778 -1.68312 -1.63427 0
M  V30 531 C 58.0938 -0.565682 -1.64548 0
M  V30 532 O 59.2698 -0.839801 -1.83055 0
M  V30 533 C 56.3348 -1.74107 -2.99813 0
M  V30 534 C 55.3958 -2.97653 -3.09356 0
M  V30 535 C 54.6288 -3.03163 -4.39236 0
M  V30 536 O 54.8518 -2.16396 -5.27758 0
M  V30 537 O 53.7858 -3.9558 -4.53652 0
M  V30 538 H 57.6118 -2.63907 -1.50289 0
M  V30 539 H 55.1968 -1.32951 -0.681502 0
M  V30 540 H 57.0788 -1.803 -3.80881 0
M  V30 541 H 55.7538 -0.816901 -3.13223 0
M  V30 542 H 54.6608 -2.96981 -2.27493 0
M  V30 543 H 55.9938 -3.89535 -3.00871 0
M  V30 544 N 57.6459 0.756429 -1.3826 0
M  V30 545 C 58.5789 1.87802 -1.29637 0
M  V30 546 C 59.5569 1.61667 -0.173939 0
M  V30 547 O 60.7409 1.85208 -0.350775 0
M  V30 548 C 57.8679 3.23354 -1.00797 0
M  V30 549 C 56.9139 3.68379 -2.14939 0
M  V30 550 S 57.7469 3.8025 -3.77054 0
M  V30 551 C 58.9029 5.18626 -3.50396 0
M  V30 552 H 59.1359 1.94829 -2.24564 0
M  V30 553 H 56.6689 0.919117 -1.24063 0
M  V30 554 H 58.6269 4.01637 -0.848413 0
M  V30 555 H 57.2879 3.14008 -0.0759369 0
M  V30 556 H 56.4809 4.66693 -1.90299 0
M  V30 557 H 56.0829 2.97242 -2.26988 0
M  V30 558 H 58.3749 6.04289 -3.06334 0
M  V30 559 H 59.3179 5.48286 -4.48094 0
M  V30 560 H 59.7259 4.87289 -2.84973 0
M  V30 561 N 59.124 1.23083 0.984299 0
M  V30 562 C 60.054 1.03292 2.09411 0
M  V30 563 C 61.035 -0.048923 1.7003 0
M  V30 564 O 62.22 0.114967 1.93859 0
M  V30 565 C 59.35 0.619155 3.41736 0
M  V30 566 C 58.304 1.64791 3.95004 0
M  V30 567 C 57.63 1.0897 5.23478 0
M  V30 568 C 58.93 3.03999 4.24714 0
M  V30 569 H 60.624 1.96119 2.26225 0
M  V30 570 H 58.17 0.944344 1.08711 0
M  V30 571 H 60.123 0.467777 4.18796 0
M  V30 572 H 58.847 -0.344786 3.24775 0
M  V30 573 H 57.506 1.78721 3.20085 0
M  V30 574 H 57.154 0.11686 5.02864 0
M  V30 575 H 56.854 1.77704 5.60085 0
M  V30 576 H 58.378 0.950093 6.03163 0
M  V30 577 H 59.792 2.93393 4.92538 0
M  V30 578 H 58.189 3.69936 4.72512 0
M  V30 579 H 59.259 3.53285 3.32142 0
M  V30 580 N 60.6021 -1.18246 1.0419 0
M  V30 581 C 61.5651 -2.20128 0.638452 0
M  V30 582 C 62.5651 -1.57885 -0.304805 0
M  V30 583 O 63.7551 -1.73967 -0.0900369 0
M  V30 584 C 60.8871 -3.4084 -0.0637751 0
M  V30 585 H 62.0801 -2.57336 1.54007 0
M  V30 586 H 59.6331 -1.32152 0.834598 0
M  V30 587 H 60.3681 -3.09166 -0.979136 0
M  V30 588 H 60.1531 -3.8726 0.614198 0
M  V30 589 H 61.6431 -4.16274 -0.332512 0
M  V30 590 N 62.0802 -0.821533 -1.34494 0
M  V30 591 C 63.3282 -0.408139 -1.97936 0
M  V30 592 C 63.6492 1.03193 -1.65457 0
M  V30 593 O 62.9192 1.71622 -0.944595 0
M  V30 594 H 61.4992 -0.147928 -0.732206 0
M  V30 595 H 64.1612 -1.05067 -1.64155 0
M  V30 596 H 63.2572 -0.52601 -3.07635 0
M  V30 597 N 63.5583 1.46682 -0.576371 0
M  V30 598 C 64.4883 2.33028 0.148397 0
M  V30 599 C 65.4693 1.44961 0.889956 0
M  V30 600 O 66.6543 1.73789 0.866662 0
M  V30 601 C 63.7843 3.27117 1.1667 0
M  V30 602 C 62.7383 4.24575 0.540386 0
M  V30 603 C 62.0643 5.08126 1.6647 0
M  V30 604 C 63.3643 5.19722 -0.518331 0
M  V30 605 H 65.0583 2.93875 -0.572509 0
M  V30 606 H 62.6043 1.41315 -0.276768 0
M  V30 607 H 64.5573 3.86374 1.68204 0
M  V30 608 H 63.2813 2.64364 1.9178 0
M  V30 609 H 61.9403 3.66571 0.0461769 0
M  V30 610 H 61.5883 4.41762 2.40531 0
M  V30 611 H 61.2883 5.74122 1.25131 0
M  V30 612 H 62.8123 5.70246 2.18293 0
M  V30 613 H 64.2263 5.73232 -0.0883058 0
M  V30 614 H 62.6233 5.94026 -0.851679 0
M  V30 615 H 63.6933 4.64037 -1.40703 0
M  V30 616 N 65.0364 0.313813 1.54444 0
M  V30 617 C 66.4474 -0.176243 1.85866 0
M  V30 618 C 66.7984 -1.52405 1.23561 0
M  V30 619 O 65.9234 -2.09605 0.538016 0
M  V30 620 C 66.5184 -0.32657 3.37222 0
M  V30 621 C 65.0774 -0.760846 3.6863 0
M  V30 622 C 64.2244 0.123247 2.77026 0
M  V30 623 H 67.1754 0.534418 1.49431 0
M  V30 624 H 67.1964 -1.15908 3.62416 0
M  V30 625 H 66.7084 0.654531 3.82541 0
M  V30 626 H 64.8094 -1.75204 3.28838 0
M  V30 627 H 64.9224 -0.571353 4.75681 0
M  V30 628 H 63.2864 -0.399597 2.51546 0
M  V30 629 H 64.0694 1.10094 3.25168 0
M  V30 630 N 66.5145 -1.57545 0.0417849 0
M  V30 631 C 67.7425 -1.96624 -0.643928 0
M  V30 632 C 68.1575 -0.918897 -1.64929 0
M  V30 633 O 67.5145 0.0979323 -1.82237 0
M  V30 634 C 67.5655 -3.35781 -1.33914 0
M  V30 635 O 67.2865 -4.365 -0.374048 0
M  V30 636 C 68.7875 -3.89566 -2.1155 0
M  V30 637 H 66.0075 -0.647316 -0.176702 0
M  V30 638 H 68.5515 -2.04229 0.105304 0
M  V30 639 H 66.7065 -3.29357 -2.03968 0
M  V30 640 H 67.1205 -5.17248 -0.869179 0
M  V30 641 H 68.5945 -4.89242 -2.55628 0
M  V30 642 H 69.0715 -3.24488 -2.9598 0
M  V30 643 H 69.6775 -3.99298 -1.46427 0
M  V30 644 N 67.9926 0.231505 -1.5589 0
M  V30 645 C 69.2176 0.978689 -1.82856 0
M  V30 646 C 69.6426 1.77559 -0.620846 0
M  V30 647 O 69.0006 1.76119 0.430305 0
M  V30 648 C 69.0486 1.87997 -3.07716 0
M  V30 649 O 68.1526 2.97393 -2.85712 0
M  V30 650 H 67.4936 0.277663 -0.603158 0
M  V30 651 H 70.0236 0.24783 -2.03093 0
M  V30 652 H 70.0336 2.2917 -3.37558 0
M  V30 653 H 68.7086 1.29417 -3.95252 0
M  V30 654 H 67.2856 2.60238 -2.67078 0
M  V30 655 N 69.4707 1.49531 0.497807 0
M  V30 656 C 70.7477 1.49682 1.25915 0
M  V30 657 C 71.1277 0.226339 2.09883 0
M  V30 658 O 70.4757 -0.791189 2.14365 0
M  V30 659 C 70.6857 2.77755 2.11313 0
M  V30 660 C 72.0337 3.27371 2.70395 0
M  V30 661 O 73.0577 2.78894 2.21578 0
M  V30 662 O 71.9167 4.11808 3.59272 0
M  V30 663 H 69.0107 0.599228 0.56996 0
M  V30 664 H 71.5567 1.61798 0.511816 0
M  V30 665 H 70.3287 3.61713 1.49264 0
M  V30 666 H 69.9517 2.68515 2.93233 0
M  V30 667 N 70.9488 -0.749086 1.3866 0
M  V30 668 C 72.3598 -1.32664 1.31366 0
M  V30 669 C 72.7108 -1.96179 -0.028484 0
M  V30 670 O 71.8358 -1.9537 -0.93057 0
M  V30 671 C 72.4308 -2.41219 2.37905 0
M  V30 672 C 70.9898 -2.94684 2.34176 0
M  V30 673 C 70.1368 -1.68108 2.20533 0
M  V30 674 H 73.0878 -0.547628 1.48952 0
M  V30 675 H 73.1088 -3.21268 2.0388 0
M  V30 676 H 72.6208 -1.94962 3.35576 0
M  V30 677 H 70.7218 -3.45258 1.401 0
M  V30 678 H 70.8348 -3.48757 3.2849 0
M  V30 679 H 69.1988 -1.91907 1.67463 0
M  V30 680 H 69.9818 -1.23923 3.20153 0
M  V30 681 N 72.4269 -1.23603 -0.977757 0
M  V30 682 C 73.6749 -1.06759 -1.71601 0
M  V30 683 C 73.9959 0.395929 -1.90938 0
M  V30 684 O 73.2659 1.28356 -1.47992 0
M  V30 685 H 71.8459 -0.392062 -0.635843 0
M  V30 686 H 74.5079 -1.55362 -1.1768 0
M  V30 687 H 73.6039 -1.55763 -2.70452 0
M  V30 688 N 73.905 1.17692 -1.04816 0
M  V30 689 C 75.321 1.39863 -0.768794 0
M  V30 690 C 75.521 1.91118 0.638451 0
M  V30 691 O 74.577 2.10036 1.40146 0
M  V30 692 C 75.89 2.39274 -1.82122 0
M  V30 693 C 77.438 2.52987 -1.843 0
M  V30 694 C 77.913 3.55669 -2.88555 0
M  V30 695 N 79.404 3.63183 -2.87493 0
M  V30 696 C 80.139 4.42381 -3.64811 0
M  V30 697 N 79.635 5.25125 -4.51903 0
M  V30 698 N 81.428 4.37217 -3.53267 0
M  V30 699 H 73.579 0.82752 -1.95617 0
M  V30 700 H 75.842 0.426123 -0.846831 0
M  V30 701 H 75.548 2.08678 -2.83102 0
M  V30 702 H 75.422 3.38725 -1.65967 0
M  V30 703 H 77.809 2.82896 -0.839869 0
M  V30 704 H 77.89 1.53623 -2.04532 0
M  V30 705 H 77.534 3.26499 -3.89051 0
M  V30 706 H 77.464 4.54728 -2.65575 0
M  V30 707 H 79.955 3.04103 -2.24343 0
M  V30 708 H 80.268 5.82728 -5.07591 0
M  V30 709 H 78.613 5.24519 -4.55966 0
M  V30 710 H 81.804 3.71626 -2.84625 0
M  V30 711 H 81.977 4.98696 -4.13771 0
M  V30 712 N 75.3831 0.828654 1.34056 0
M  V30 713 C 76.3131 0.269443 2.3194 0
M  V30 714 C 77.2941 -0.617247 1.58506 0
M  V30 715 O 78.4791 -0.542931 1.86456 0
M  V30 716 C 75.6091 -0.564793 3.42677 0
M  V30 717 C 74.5631 0.225241 4.27407 0
M  V30 718 C 73.8891 -0.7321 5.29664 0
M  V30 719 C 75.1891 1.43663 5.02154 0
M  V30 720 H 76.8831 1.08728 2.7896 0
M  V30 721 H 74.4291 0.524283 1.34117 0
M  V30 722 H 76.3821 -0.966233 4.10173 0
M  V30 723 H 75.1061 -1.41574 2.9432 0
M  V30 724 H 73.7651 0.608117 3.61521 0
M  V30 725 H 73.4131 -1.57916 4.77568 0
M  V30 726 H 73.1131 -0.20767 5.87233 0
M  V30 727 H 74.6371 -1.13128 6.00029 0
M  V30 728 H 76.0511 1.1089 5.62473 0
M  V30 729 H 74.4481 1.89711 5.69324 0
M  V30 730 H 75.5181 2.21181 4.31517 0
M  V30 731 N 76.8612 -1.46375 0.584142 0
M  V30 732 C 78.1102 -2.01585 0.0679741 0
M  V30 733 C 78.4232 -1.46109 -1.30045 0
M  V30 734 O 79.6292 -1.93148 -1.90804 0
M  V30 735 C 78.0852 -3.5983 0.0709207 0
M  V30 736 C 77.6932 -4.24303 1.43775 0
M  V30 737 C 79.4372 -4.22693 -0.391228 0
M  V30 738 C 77.3442 -5.74631 1.39834 0
M  V30 739 H 76.2742 -0.753689 0.0216421 0
M  V30 740 H 78.9252 -1.68093 0.736001 0
M  V30 741 H 77.3072 -3.90405 -0.663299 0
M  V30 742 H 78.4812 -4.05335 2.19181 0
M  V30 743 H 76.7962 -3.73539 1.84004 0
M  V30 744 H 79.3932 -5.3289 -0.439524 0
M  V30 745 H 79.7362 -3.91728 -1.40906 0
M  V30 746 H 80.2692 -3.96749 0.288974 0
M  V30 747 H 77.0082 -6.10258 2.39303 0
M  V30 748 H 76.5282 -5.95858 0.686505 0
M  V30 749 H 78.2072 -6.37375 1.11187 0
M  V30 750 N 78.3393 -0.321999 -1.54275 0
M  V30 751 C 79.5673 0.283052 -2.04955 0
M  V30 752 C 79.9823 1.45904 -1.19823 0
M  V30 753 O 79.3393 1.81063 -0.228545 0
M  V30 754 C 79.3903 0.719028 -3.54277 0
M  V30 755 O 79.1113 -0.410175 -4.36176 0
M  V30 756 C 80.6123 1.38705 -4.21041 0
M  V30 757 H 77.8323 0.0584616 -0.668448 0
M  V30 758 H 80.3763 -0.467734 -1.99079 0
M  V30 759 H 78.5313 1.41979 -3.60445 0
M  V30 760 H 78.9453 -0.0669416 -5.24457 0
M  V30 761 H 80.4193 1.64306 -5.2698 0
M  V30 762 H 80.8963 2.33385 -3.72059 0
M  V30 763 H 81.5023 0.728906 -4.19007 0
M  V30 764 N 79.8174 1.5752 -0.0501392 0
M  V30 765 C 81.0944 1.83996 0.663685 0
M  V30 766 C 81.4744 0.938339 1.89099 0
M  V30 767 O 80.8224 -0.00087759 2.285 0
M  V30 768 C 81.0324 3.33702 1.02196 0
M  V30 769 C 82.3804 4.00691 1.40469 0
M  V30 770 O 83.4044 3.38321 1.11433 0
M  V30 771 O 82.2634 5.10658 1.94654 0
M  V30 772 H 79.3574 0.759385 0.32751 0
M  V30 773 H 81.9034 1.69514 -0.0794238 0
M  V30 774 H 80.6754 3.91015 0.149364 0
M  V30 775 H 80.2984 3.53368 1.82255 0
M  V30 776 N 81.2955 -0.223234 1.56011 0
M  V30 777 C 82.7065 -0.790368 1.69145 0
M  V30 778 C 83.0575 -1.85055 0.651845 0
M  V30 779 O 82.1825 -2.15498 -0.197359 0
M  V30 780 C 82.7775 -1.4404 3.06656 0
M  V30 781 C 81.3365 -1.95494 3.2165 0
M  V30 782 C 80.4835 -0.814506 2.65068 0
M  V30 783 H 83.4345 0.00139011 1.587 0
M  V30 784 H 83.4555 -2.30916 3.0242 0
M  V30 785 H 82.9675 -0.668543 3.82298 0
M  V30 786 H 81.0685 -2.75487 2.50874 0
M  V30 787 H 81.1815 -2.13607 4.28846 0
M  V30 788 H 79.5455 -1.22137 2.23505 0
M  V30 789 H 80.3285 -0.0553515 3.43255 0
M  V30 790 N 82.7736 -1.49793 -0.48987 0
M  V30 791 C 84.1896 -1.36803 -0.822022 0
M  V30 792 C 84.3896 -0.409652 -1.97292 0
M  V30 793 O 83.4456 0.154614 -2.52026 0
M  V30 794 C 84.7586 -2.77768 -1.15175 0
M  V30 795 C 86.3066 -2.86549 -1.25931 0
M  V30 796 C 86.7816 -4.28306 -1.62228 0
M  V30 797 N 88.2726 -4.31169 -1.69256 0
M  V30 798 C 89.0076 -5.37832 -1.98807 0
M  V30 799 N 88.5036 -6.54726 -2.26507 0
M  V30 800 N 90.2966 -5.25258 -2.00152 0
M  V30 801 H 82.4476 -2.10691 0.268881 0
M  V30 802 H 84.7106 -0.946241 0.057728 0
M  V30 803 H 84.4166 -3.49648 -0.379335 0
M  V30 804 H 84.2906 -3.13836 -2.09253 0
M  V30 805 H 86.6776 -2.14899 -2.02243 0
M  V30 806 H 86.7586 -2.54049 -0.298776 0
M  V30 807 H 86.4026 -5.00486 -0.864622 0
M  V30 808 H 86.3326 -4.58279 -2.594 0
M  V30 809 H 88.8236 -3.4687 -1.49965 0
M  V30 810 H 89.1366 -7.31833 -2.48276 0
M  V30 811 H 87.4816 -6.57933 -2.23939 0
M  V30 812 H 90.6726 -4.32938 -1.77996 0
M  V30 813 H 90.8456 -6.08476 -2.22848 0
M  V30 814 N 84.2517 0.741722 -1.39055 0
M  V30 815 C 85.4767 1.53607 -1.39354 0
M  V30 816 C 85.9017 1.88096 0.0116905 0
M  V30 817 O 85.2597 1.5143 0.996924 0
M  V30 818 C 85.3077 2.80441 -2.26682 0
M  V30 819 O 84.4117 3.76088 -1.69208 0
M  V30 820 H 83.7527 0.464142 -0.474835 0
M  V30 821 H 86.2827 0.915665 -1.82967 0
M  V30 822 H 86.2927 3.29246 -2.40959 0
M  V30 823 H 84.9677 2.5467 -3.2881 0
M  V30 824 H 83.5447 3.34833 -1.64138 0
M  V30 825 N 85.7298 1.2412 0.971189 0
M  V30 826 C 86.9778 1.07668 1.71032 0
M  V30 827 C 87.2988 -0.385797 1.91146 0
M  V30 828 O 86.5688 -1.27569 1.4867 0
M  V30 829 H 85.1488 0.395429 0.633755 0
M  V30 830 H 87.8108 1.55984 1.16855 0
M  V30 831 H 86.9068 1.57195 2.69622 0
M  V30 832 N 87.2079 -1.17134 1.05439 0
M  V30 833 C 88.6239 -1.39454 0.776201 0
M  V30 834 C 88.8239 -1.91454 -0.628307 0
M  V30 835 O 87.8799 -2.10777 -1.39031 0
M  V30 836 C 89.1929 -2.38305 1.83388 0
M  V30 837 C 90.7409 -2.52006 1.85639 0
M  V30 838 C 91.2159 -3.54133 2.90437 0
M  V30 839 N 92.7069 -3.61653 2.89415 0
M  V30 840 C 93.4419 -4.4044 3.67152 0
M  V30 841 N 92.9379 -5.22721 4.54681 0
M  V30 842 N 94.7309 -4.35337 3.55581 0
M  V30 843 H 86.8819 -0.817134 1.96053 0
M  V30 844 H 89.1449 -0.421626 0.849079 0
M  V30 845 H 88.8509 -2.07173 2.84204 0
M  V30 846 H 88.7249 -3.37841 1.67761 0
M  V30 847 H 91.1119 -2.82447 0.85486 0
M  V30 848 H 91.1929 -1.52537 2.05344 0
M  V30 849 H 90.8369 -3.24431 3.90777 0
M  V30 850 H 90.7669 -4.53313 2.67983 0
M  V30 851 H 93.2579 -3.02909 2.25952 0
M  V30 852 H 93.5709 -5.80027 5.10674 0
M  V30 853 H 91.9159 -5.22093 4.58741 0
M  V30 854 H 95.1069 -3.70112 2.86592 0
M  V30 855 H 95.2799 -4.96494 4.1641 0
M  V30 856 N 88.686 -0.835752 -1.33615 0
M  V30 857 C 89.914 -0.443344 -2.02094 0
M  V30 858 C 90.329 0.954522 -1.62894 0
M  V30 859 O 89.686 1.61982 -0.840723 0
M  V30 860 C 89.737 -0.550775 -3.5728 0
M  V30 861 O 89.458 -1.89356 -3.95065 0
M  V30 862 C 90.959 -0.154919 -4.43029 0
M  V30 863 H 88.179 -0.176359 -0.647409 0
M  V30 864 H 90.723 -1.12746 -1.70612 0
M  V30 865 H 88.878 0.0853997 -3.87306 0
M  V30 866 H 89.292 -1.87687 -4.89769 0
M  V30 867 H 90.766 -0.281144 -5.51284 0
M  V30 868 H 91.243 0.902863 -4.2982 0
M  V30 869 H 91.849 -0.765404 -4.18356 0
M  V30 870 N 90.1641 1.46063 -0.591896 0
M  V30 871 C 91.3941 2.06418 -0.0867676 0
M  V30 872 C 91.8021 1.43975 1.22751 0
M  V30 873 O 91.1451 0.542531 1.75506 0
M  V30 874 C 91.2071 3.59213 0.143725 0
M  V30 875 C 90.8711 4.439 -1.08635 0
M  V30 876 C 91.8681 4.79864 -2.00067 0
M  V30 877 C 89.5531 4.84896 -1.31077 0
M  V30 878 C 91.5471 5.55661 -3.12282 0
M  V30 879 C 89.2341 5.6045 -2.43596 0
M  V30 880 C 90.2321 5.95747 -3.34027 0
M  V30 881 O 89.9201 6.69772 -4.4459 0
M  V30 882 H 89.6521 0.673443 -0.0587447 0
M  V30 883 H 92.2061 1.88539 -0.814994 0
M  V30 884 H 90.4361 3.75433 0.926668 0
M  V30 885 H 92.1251 4.01463 0.5985 0
M  V30 886 H 92.8911 4.48763 -1.83947 0
M  V30 887 H 88.7701 4.56867 -0.61594 0
M  V30 888 H 92.3141 5.8313 -3.82891 0
M  V30 889 H 88.2111 5.90965 -2.59674 0
M  V30 890 H 88.9791 6.88207 -4.43073 0
M  V30 891 N 91.6422 0.330177 1.54103 0
M  V30 892 C 92.5722 -0.525353 2.27513 0
M  V30 893 C 93.5532 -1.11383 1.2856 0
M  V30 894 O 94.7382 -1.13773 1.57383 0
M  V30 895 C 91.8682 -1.6831 3.03791 0
M  V30 896 C 90.8222 -1.2236 4.10137 0
M  V30 897 C 90.1482 -2.46882 4.74293 0
M  V30 898 C 91.4482 -0.333697 5.21233 0
M  V30 899 H 93.1422 0.087013 2.99274 0
M  V30 900 H 90.6882 0.0432893 1.43935 0
M  V30 901 H 92.6412 -2.28795 3.5388 0
M  V30 902 H 91.3652 -2.32216 2.29659 0
M  V30 903 H 90.0242 -0.64165 3.60941 0
M  V30 904 H 89.6722 -3.09165 3.96769 0
M  V30 905 H 89.3722 -2.16825 5.46133 0
M  V30 906 H 90.8962 -3.08117 5.27159 0
M  V30 907 H 92.3102 -0.845013 5.67038 0
M  V30 908 H 90.7072 -0.125612 5.99969 0
M  V30 909 H 91.7772 0.633724 4.80741 0
M  V30 910 N 93.1203 -1.57491 0.0584922 0
M  V30 911 C 94.0673 -2.11958 -0.913376 0
M  V30 912 C 95.0373 -1.02875 -1.30407 0
M  V30 913 O 96.2223 -1.30464 -1.39226 0
M  V30 914 C 93.3623 -2.67497 -2.18035 0
M  V30 915 C 92.4753 -3.90691 -1.84349 0
M  V30 916 C 91.6103 -4.3452 -3.05559 0
M  V30 917 C 90.6493 -5.50395 -2.67827 0
M  V30 918 N 89.7863 -5.89244 -3.81754 0
M  V30 919 H 94.6263 -2.94704 -0.442017 0
M  V30 920 H 92.1633 -1.45643 -0.206545 0
M  V30 921 H 94.1213 -2.978 -2.92183 0
M  V30 922 H 92.7513 -1.87537 -2.62735 0
M  V30 923 H 91.8033 -3.66934 -1.00319 0
M  V30 924 H 93.1153 -4.7489 -1.5258 0
M  V30 925 H 92.2693 -4.66414 -3.87998 0
M  V30 926 H 91.0083 -3.49147 -3.40511 0
M  V30 927 H 90.0133 -5.18165 -1.83806 0
M  V30 928 H 91.2383 -6.3749 -2.34059 0
M  V30 929 H 89.1843 -5.06823 -4.16493 0
M  V30 930 H 89.1013 -6.68151 -3.53708 0
M  V30 931 H 90.3693 -6.25756 -4.64811 0
M  V30 932 N 94.5984 0.214957 -1.56127 0
M  V30 933 C 95.8464 0.936518 -1.79091 0
M  V30 934 C 96.1674 1.84606 -0.628148 0
M  V30 935 O 95.4374 1.92664 0.35462 0
M  V30 936 H 94.0174 0.3488 -0.660566 0
M  V30 937 H 96.6794 0.22523 -1.93594 0
M  V30 938 H 95.7754 1.53943 -2.71492 0
M  V30 939 N 96.0765 1.50051 0.48192 0
M  V30 940 C 97.4925 1.37237 0.814756 0
M  V30 941 C 97.6925 0.420109 1.97072 0
M  V30 942 O 96.7485 -0.141246 2.52105 0
M  V30 943 C 98.0615 2.78375 1.13701 0
M  V30 944 C 99.6095 2.87213 1.2441 0
M  V30 945 C 100.084 4.29161 1.59954 0
M  V30 946 N 101.575 4.32061 1.66967 0
M  V30 947 C 102.31 5.38879 1.95952 0
M  V30 948 N 101.806 6.55918 2.23031 0
M  V30 949 N 103.599 5.26312 1.97363 0
M  V30 950 H 95.7505 2.10546 -0.28005 0
M  V30 951 H 98.0135 0.945921 -0.0627454 0
M  V30 952 H 97.7195 3.49845 0.360787 0
M  V30 953 H 97.5935 3.14941 2.07586 0
M  V30 954 H 99.9805 2.15969 2.01101 0
M  V30 955 H 100.061 2.54204 0.285299 0
M  V30 956 H 99.7055 5.00938 0.838067 0
M  V30 957 H 99.6355 4.59648 2.56966 0
M  V30 958 H 102.126 3.47661 1.48123 0
M  V30 959 H 102.439 7.33139 2.44391 0
M  V30 960 H 100.784 6.59112 2.20447 0
M  V30 961 H 103.975 4.33876 1.75697 0
M  V30 962 H 104.148 6.09649 2.19618 0
M  V30 963 N 97.5546 -0.734337 1.39446 0
M  V30 964 C 98.4846 -1.86155 1.40955 0
M  V30 965 C 99.4656 -1.67898 0.272827 0
M  V30 966 O 100.651 -1.88207 0.478743 0
M  V30 967 C 97.7806 -3.23912 1.25294 0
M  V30 968 C 96.7346 -3.56808 2.36373 0
M  V30 969 C 96.0606 -4.93508 2.058 0
M  V30 970 C 97.3606 -3.59713 3.78687 0
M  V30 971 H 99.0546 -1.8515 2.35287 0
M  V30 972 H 96.6006 -0.889367 1.13253 0
M  V30 973 H 98.5536 -4.02443 1.2497 0
M  V30 974 H 97.2776 -3.25446 0.274308 0
M  V30 975 H 95.9366 -2.80606 2.35914 0
M  V30 976 H 95.5846 -4.91623 1.06374 0
M  V30 977 H 95.2846 -5.16486 2.80208 0
M  V30 978 H 96.8086 -5.74396 2.07128 0
M  V30 979 H 98.2226 -4.2832 3.81071 0
M  V30 980 H 96.6196 -3.94209 4.52459 0
M  V30 981 H 97.6896 -2.59504 4.09617 0
M  V30 982 N 99.0327 -1.24633 -0.964593 0
M  V30 983 C 99.9627 -1.06611 -2.07741 0
M  V30 984 C 100.944 0.0218666 -1.70086 0
M  V30 985 O 102.129 -0.145793 -1.93652 0
M  V30 986 C 99.2587 -0.673444 -3.40708 0
M  V30 987 C 98.2127 -1.71054 -3.92332 0
M  V30 988 C 97.5387 -1.17285 -5.21678 0
M  V30 989 C 98.8387 -3.10718 -4.19824 0
M  V30 990 H 100.533 -1.99693 -2.23076 0
M  V30 991 H 98.0787 -0.96152 -1.07195 0
M  V30 992 H 100.032 -0.534345 -4.17998 0
M  V30 993 H 98.7557 0.293073 -3.25282 0
M  V30 994 H 97.4147 -1.83791 -3.17201 0
M  V30 995 H 97.0627 -0.196847 -5.02615 0
M  V30 996 H 96.7627 -1.86592 -5.57187 0
M  V30 997 H 98.2867 -1.04593 -6.01575 0
M  V30 998 H 99.7007 -3.01192 -4.87808 0
M  V30 999 H 98.0977 -3.77406 -4.66567 0
M  V30 1000 H 99.1677 -3.58524 -3.26479 0
M  V30 1001 N 100.511 1.16574 -1.06058 0
M  V30 1002 C 101.759 1.86677 -0.77434 0
M  V30 1003 C 102.08 1.81959 0.701147 0
M  V30 1004 O 101.35 1.2515 1.50713 0
M  V30 1005 H 99.9298 0.691134 -0.283449 0
M  V30 1006 H 102.592 1.41378 -1.34158 0
M  V30 1007 H 101.688 2.92181 -1.09711 0
M  V30 1008 N 101.989 0.842826 1.3317 0
M  V30 1009 C 102.936 0.276885 2.29133 0
M  V30 1010 C 103.906 -0.609527 1.54512 0
M  V30 1011 O 105.091 -0.546955 1.82792 0
M  V30 1012 C 102.231 -0.538707 3.40869 0
M  V30 1013 C 101.344 0.372169 4.30394 0
M  V30 1014 C 100.479 -0.454908 5.29249 0
M  V30 1015 C 99.5179 0.45411 6.10413 0
M  V30 1016 N 98.6549 -0.335075 7.013 0
M  V30 1017 H 103.495 1.10052 2.76934 0
M  V30 1018 H 101.032 0.554161 1.36262 0
M  V30 1019 H 102.99 -1.02709 4.0436 0
M  V30 1020 H 101.62 -1.32727 2.9425 0
M  V30 1021 H 100.672 0.97888 3.6759 0
M  V30 1022 H 101.984 1.0703 4.87182 0
M  V30 1023 H 101.138 -1.00695 5.98285 0
M  V30 1024 H 99.8769 -1.18646 4.73048 0
M  V30 1025 H 98.8819 1.01813 5.40291 0
M  V30 1026 H 100.107 1.18409 6.68697 0
M  V30 1027 H 98.0529 -1.04994 6.47543 0
M  V30 1028 H 97.9699 0.304262 7.55387 0
M  V30 1029 H 99.2379 -0.869224 7.74638 0
M  V30 1030 N 103.467 -1.45747 0.599634 0
M  V30 1031 C 104.715 -2.01893 0.0915472 0
M  V30 1032 C 105.036 -1.47155 -1.27946 0
M  V30 1033 O 104.306 -0.66273 -1.84349 0
M  V30 1034 H 102.886 -0.746363 0.0308524 0
M  V30 1035 H 105.548 -1.78645 0.779237 0
M  V30 1036 H 104.644 -3.1208 0.0353086 0
M  V30 1037 N 104.945 -0.338344 -1.53925 0
M  V30 1038 C 106.193 0.259245 -2.0043 0
M  V30 1039 C 106.514 1.51484 -1.22791 0
M  V30 1040 O 105.784 1.93037 -0.33368 0
M  V30 1041 H 104.364 0.0987845 -0.740439 0
M  V30 1042 H 107.026 -0.458302 -1.89435 0
M  V30 1043 H 106.122 0.505334 -3.07982 0
M  V30 1044 N 106.423 1.57458 -0.0668435 0
M  V30 1045 C 107.67 1.93301 0.603406 0
M  V30 1046 C 107.998 0.946486 1.69917 0
M  V30 1047 O 107.253 -0.0387021 1.95662 0
M  V30 1048 C 107.552 3.35784 1.22409 0
M  V30 1049 C 107.218 4.50179 0.254955 0
M  V30 1050 C 105.88 4.81199 -0.0116746 0
M  V30 1051 C 108.232 5.19598 -0.408338 0
M  V30 1052 C 105.56 5.78978 -0.94877 0
M  V30 1053 C 107.912 6.18381 -1.33372 0
M  V30 1054 C 106.576 6.47821 -1.60887 0
M  V30 1055 H 105.846 0.707338 0.220802 0
M  V30 1056 H 108.493 1.91012 -0.136665 0
M  V30 1057 H 106.798 3.34515 2.03978 0
M  V30 1058 H 108.495 3.60804 1.74989 0
M  V30 1059 H 105.085 4.25983 0.472954 0
M  V30 1060 H 109.269 4.95832 -0.215456 0
M  V30 1061 H 104.525 6.00115 -1.16925 0
M  V30 1062 H 108.699 6.71277 -1.85367 0
M  V30 1063 H 106.326 7.23399 -2.33661 0
M  V30 1064 N 107.901 -0.206675 1.56239 0
M  V30 1065 C 108.864 -1.23976 1.92776 0
M  V30 1066 C 109.864 -1.39041 0.807729 0
M  V30 1067 O 111.054 -1.37051 1.0753 0
M  V30 1068 C 108.186 -2.61112 2.19165 0
M  V30 1069 H 109.379 -0.927764 2.85189 0
M  V30 1070 H 106.932 -0.447718 1.4975 0
M  V30 1071 H 107.667 -2.97386 1.29352 0
M  V30 1072 H 107.452 -2.51552 3.00772 0
M  V30 1073 H 108.942 -3.35633 2.48476 0
M  V30 1074 N 109.379 -1.50304 -0.473955 0
M  V30 1075 C 110.795 -1.37667 -0.807466 0
M  V30 1076 C 110.995 -0.430555 -1.96846 0
M  V30 1077 O 110.051 0.127874 -2.52176 0
M  V30 1078 C 111.364 -2.78974 -1.12223 0
M  V30 1079 C 112.912 -2.87868 -1.22885 0
M  V30 1080 C 113.387 -4.30003 -1.57676 0
M  V30 1081 N 114.878 -4.3294 -1.64673 0
M  V30 1082 C 115.613 -5.3991 -1.93091 0
M  V30 1083 N 115.109 -6.57092 -2.1955 0
M  V30 1084 N 116.902 -5.27351 -1.94569 0
M  V30 1085 H 109.053 -2.10394 0.291212 0
M  V30 1086 H 111.316 -0.945575 0.0677609 0
M  V30 1087 H 111.022 -3.50031 -0.342229 0
M  V30 1088 H 110.896 -3.16038 -2.05913 0
M  V30 1089 H 113.283 -2.17032 -1.99953 0
M  V30 1090 H 113.364 -2.54352 -0.271814 0
M  V30 1091 H 113.008 -5.01375 -0.81149 0
M  V30 1092 H 112.938 -4.61004 -2.54525 0
M  V30 1093 H 115.429 -3.48441 -1.46277 0
M  V30 1094 H 115.742 -7.34425 -2.405 0
M  V30 1095 H 114.087 -6.60272 -2.16948 0
M  V30 1096 H 117.278 -4.34801 -1.73394 0
M  V30 1097 H 117.451 -6.10805 -2.16381 0
M  V30 1098 N 110.857 0.726932 -1.39834 0
M  V30 1099 C 112.097 1.4992 -1.38936 0
M  V30 1100 C 112.461 1.91996 0.0126883 0
M  V30 1101 O 113.662 2.68399 0.146715 0
M  V30 1102 C 111.933 2.70013 -2.34153 0
M  V30 1103 S 113.492 3.59563 -2.51515 0
M  V30 1104 H 110.31 0.51271 -0.492595 0
M  V30 1105 H 112.912 0.85107 -1.76003 0
M  V30 1106 H 111.616 2.37254 -3.34871 0
M  V30 1107 H 111.147 3.39748 -1.98331 0
M  V30 1108 H 113.162 4.63973 -1.75909 0
M  V30 1109 N 112.336 1.25143 0.95797 0
M  V30 1110 C 113.566 1.12261 1.73439 0
M  V30 1111 C 113.974 -0.326715 1.86358 0
M  V30 1112 O 113.317 -1.2367 1.35836 0
M  V30 1113 C 113.379 1.69966 3.16784 0
M  V30 1114 C 113.043 3.18936 3.27305 0
M  V30 1115 C 114.04 4.15968 3.11877 0
M  V30 1116 C 111.725 3.59083 3.51234 0
M  V30 1117 C 113.719 5.51126 3.20217 0
M  V30 1118 C 111.406 4.9438 3.5921 0
M  V30 1119 C 112.404 5.90211 3.43716 0
M  V30 1120 O 112.092 7.23046 3.51368 0
M  V30 1121 H 111.824 0.392476 0.550399 0
M  V30 1122 H 114.378 1.65927 1.21068 0
M  V30 1123 H 112.608 1.10744 3.70503 0
M  V30 1124 H 114.297 1.52232 3.76272 0
M  V30 1125 H 115.063 3.86292 2.93264 0
M  V30 1126 H 110.942 2.84989 3.62356 0
M  V30 1127 H 114.486 6.25905 3.0804 0
M  V30 1128 H 110.383 5.23723 3.77339 0
M  V30 1129 H 111.151 7.31097 3.6802 0
M  V30 1130 N 113.814 -1.1601 1.06675 0
M  V30 1131 C 114.724 -2.24156 0.692179 0
M  V30 1132 C 115.74 -1.71507 -0.293513 0
M  V30 1133 O 116.916 -2.009 -0.141861 0
M  V30 1134 C 113.981 -3.46587 0.0884131 0
M  V30 1135 C 113.042 -4.14257 1.12646 0
M  V30 1136 C 112.275 -5.30844 0.551416 0
M  V30 1137 O 112.498 -5.66858 -0.634656 0
M  V30 1138 O 111.432 -5.87848 1.29298 0
M  V30 1139 H 115.258 -2.58513 1.59388 0
M  V30 1140 H 112.843 -1.23599 0.83926 0
M  V30 1141 H 114.725 -4.20679 -0.246361 0
M  V30 1142 H 113.4 -3.13994 -0.786712 0
M  V30 1143 H 112.307 -3.42118 1.51348 0
M  V30 1144 H 113.64 -4.50914 1.97325 0
M  V30 1145 N 115.292 -0.849877 -1.32721 0
M  V30 1146 C 116.255 -0.296122 -2.27279 0
M  V30 1147 C 117.255 0.541458 -1.5141 0
M  V30 1148 O 118.445 0.353658 -1.70572 0
M  V30 1149 C 115.577 0.581579 -3.35902 0
M  V30 1150 H 116.77 -1.13064 -2.77771 0
M  V30 1151 H 114.323 -0.62383 -1.43311 0
M  V30 1152 H 115.058 1.43809 -2.9067 0
M  V30 1153 H 114.843 -0.0178814 -3.92096 0
M  V30 1154 H 116.333 0.961951 -4.0637 0
M  V30 1155 N 116.77 1.45427 -0.607355 0
M  V30 1156 C 117.998 2.06614 -0.108814 0
M  V30 1157 C 118.413 1.45204 1.2067 0
M  V30 1158 O 117.77 0.566132 1.73497 0
M  V30 1159 C 117.821 3.61481 0.0375347 0
M  V30 1160 O 117.542 4.20598 -1.22593 0
M  V30 1161 C 119.043 4.39652 0.567561 0
M  V30 1162 H 116.263 0.66747 -0.0687351 0
M  V30 1163 H 118.807 1.86675 -0.835022 0
M  V30 1164 H 116.962 3.80762 0.714068 0
M  V30 1165 H 117.376 5.1377 -1.05547 0
M  V30 1166 H 118.85 5.48518 0.61905 0
M  V30 1167 H 119.327 4.09417 1.58978 0
M  V30 1168 H 119.933 4.25234 -0.0749202 0
M  V30 1169 N 118.248 0.346503 1.53744 0
M  V30 1170 C 119.525 -0.304532 1.93215 0
M  V30 1171 C 119.905 -1.67993 1.27834 0
M  V30 1172 O 119.253 -2.24411 0.430352 0
M  V30 1173 C 119.463 -0.373852 3.46992 0
M  V30 1174 C 120.811 -0.62329 4.2 0
M  V30 1175 O 121.835 -0.455847 3.53271 0
M  V30 1176 O 120.694 -0.947879 5.38217 0
M  V30 1177 H 117.788 -0.178318 0.807547 0
M  V30 1178 H 120.334 0.397895 1.64969 0
M  V30 1179 H 119.106 0.591224 3.86808 0
M  V30 1180 H 118.729 -1.12294 3.81413 0
M  V30 1181 N 119.726 -1.57421 0.075193 0
M  V30 1182 C 120.954 -1.97946 -0.602076 0
M  V30 1183 C 121.369 -0.953674 -1.62943 0
M  V30 1184 O 120.726 0.0592551 -1.82404 0
M  V30 1185 C 120.777 -3.38546 -1.26762 0
M  V30 1186 O 120.498 -4.37195 -0.281376 0
M  V30 1187 C 121.999 -3.93966 -2.03239 0
M  V30 1188 H 119.219 -0.650918 -0.162931 0
M  V30 1189 H 121.763 -2.03959 0.148601 0
M  V30 1190 H 119.918 -3.33609 -1.96936 0
M  V30 1191 H 120.332 -5.18975 -0.759267 0
M  V30 1192 H 121.806 -4.94555 -2.45193 0
M  V30 1193 H 122.283 -3.30693 -2.8903 0
M  V30 1194 H 122.889 -4.02315 -1.37924 0
M  V30 1195 N 121.204 0.198386 -1.56346 0
M  V30 1196 C 122.114 1.2664 -1.97483 0
M  V30 1197 C 123.13 1.49989 -0.882002 0
M  V30 1198 O 124.306 1.62668 -1.18748 0
M  V30 1199 C 121.371 2.59141 -2.30319 0
M  V30 1200 C 120.432 2.43892 -3.53292 0
M  V30 1201 C 119.665 3.70074 -3.84553 0
M  V30 1202 O 119.888 4.74101 -3.1715 0
M  V30 1203 O 118.822 3.658 -4.7799 0
M  V30 1204 H 122.648 0.947304 -2.88548 0
M  V30 1205 H 120.233 0.403123 -1.43859 0
M  V30 1206 H 122.115 3.37352 -2.5253 0
M  V30 1207 H 120.79 2.90684 -1.42423 0
M  V30 1208 H 119.697 1.63803 -3.36332 0
M  V30 1209 H 121.03 2.17282 -4.41644 0
M  V30 1210 N 122.682 1.50554 0.465978 0
M  V30 1211 C 123.91 1.65563 1.24083 0
M  V30 1212 C 124.325 0.341051 1.85694 0
M  V30 1213 O 123.682 -0.677543 1.69457 0
M  V30 1214 C 123.733 2.75051 2.34583 0
M  V30 1215 O 123.454 4.01413 1.75497 0
M  V30 1216 C 124.955 3.01078 3.25372 0
M  V30 1217 H 122.175 0.55638 0.375077 0
M  V30 1218 H 124.719 1.96807 0.555624 0
M  V30 1219 H 122.874 2.46486 2.9887 0
M  V30 1220 H 123.288 4.62002 2.48303 0
M  V30 1221 H 124.762 3.81339 3.99105 0
M  V30 1222 H 125.239 2.12349 3.84453 0
M  V30 1223 H 125.845 3.31194 2.66816 0
M  V30 1224 N 124.16 -0.719506 1.40217 0
M  V30 1225 C 125.408 -1.47641 1.3801 0
M  V30 1226 C 125.729 -1.94992 -0.018145 0
M  V30 1227 O 124.999 -1.70073 -0.972207 0
M  V30 1228 H 123.579 -0.547744 0.507923 0
M  V30 1229 H 126.241 -0.853187 1.75233 0
M  V30 1230 H 125.337 -2.35112 2.05253 0
M  V30 1231 N 125.638 -1.25649 -0.95132 0
M  V30 1232 C 126.863 -1.13443 -1.73624 0
M  V30 1233 C 127.288 0.307565 -1.85568 0
M  V30 1234 O 126.646 1.22282 -1.33854 0
M  V30 1235 C 126.694 -1.79723 -3.12621 0
M  V30 1236 O 125.798 -1.07912 -3.98031 0
M  V30 1237 H 125.139 -0.395872 -0.533086 0
M  V30 1238 H 127.669 -1.66276 -1.1922 0
M  V30 1239 H 127.679 -1.86141 -3.63064 0
M  V30 1240 H 126.354 -2.84633 -3.03244 0
M  V30 1241 H 124.931 -1.09398 -3.56492 0
M  V30 1242 N 127.117 1.15442 -1.07289 0
M  V30 1243 C 128.08 2.18358 -0.696591 0
M  V30 1244 C 129.08 1.58637 0.262837 0
M  V30 1245 O 130.27 1.74145 0.0438809 0
M  V30 1246 C 127.402 3.4089 -0.0266151 0
M  V30 1247 H 128.595 2.53162 -1.60776 0
M  V30 1248 H 126.148 1.29893 -0.869342 0
M  V30 1249 H 126.883 3.11653 0.896822 0
M  V30 1250 H 126.668 3.85495 -0.716657 0
M  V30 1251 H 128.158 4.17009 0.222028 0
M  V30 1252 N 128.595 0.856903 1.32268 0
M  V30 1253 C 129.825 0.47475 2.01071 0
M  V30 1254 C 130.233 -0.933746 1.64553 0
M  V30 1255 O 129.576 -1.62114 0.863989 0
M  V30 1256 C 129.638 0.536746 3.55471 0
M  V30 1257 C 129.302 1.90453 4.15423 0
M  V30 1258 C 130.299 2.87029 4.33486 0
M  V30 1259 C 127.984 2.20229 4.51447 0
M  V30 1260 C 129.978 4.11532 4.86744 0
M  V30 1261 C 127.665 3.44984 5.0441 0
M  V30 1262 C 128.663 4.40452 5.22007 0
M  V30 1263 O 128.351 5.62998 5.73837 0
M  V30 1264 H 128.083 0.184778 0.650256 0
M  V30 1265 H 130.637 1.15615 1.69771 0
M  V30 1266 H 128.867 -0.20152 3.86175 0
M  V30 1267 H 130.556 0.169875 4.05544 0
M  V30 1268 H 131.322 2.6533 4.05986 0
M  V30 1269 H 127.201 1.46705 4.37034 0
M  V30 1270 H 130.745 4.86056 5.00395 0
M  V30 1271 H 126.642 3.66532 5.31342 0
M  V30 1272 H 127.41 5.64987 5.92226 0
M  V30 1273 N 130.073 -1.45103 0.615059 0
M  V30 1274 C 131.036 -2.29025 -0.0895485 0
M  V30 1275 C 132.036 -1.40174 -0.787906 0
M  V30 1276 O 133.226 -1.62217 -0.634933 0
M  V30 1277 C 130.358 -3.21376 -1.13711 0
M  V30 1278 H 131.551 -2.92807 0.648382 0
M  V30 1279 H 129.104 -1.51749 0.374444 0
M  V30 1280 H 129.839 -2.6241 -1.90556 0
M  V30 1281 H 129.624 -3.86834 -0.640475 0
M  V30 1282 H 131.114 -3.84459 -1.63036 0
M  V30 1283 N 131.551 -0.354651 -1.53558 0
M  V30 1284 C 132.797 0.238797 -2.01389 0
M  V30 1285 C 133.13 1.49309 -1.2418 0
M  V30 1286 O 132.405 1.91638 -0.332457 0
M  V30 1287 C 132.688 0.541771 -3.56001 0
M  V30 1288 C 132.541 -0.725388 -4.43912 0
M  V30 1289 C 133.86 1.34685 -4.18984 0
M  V30 1290 H 130.979 0.0853177 -0.732045 0
M  V30 1291 H 133.621 -0.477384 -1.83905 0
M  V30 1292 H 131.771 1.15189 -3.71031 0
M  V30 1293 H 133.443 -1.36313 -4.407 0
M  V30 1294 H 131.686 -1.34801 -4.12324 0
M  V30 1295 H 132.357 -0.468505 -5.50008 0
M  V30 1296 H 134.833 0.830837 -4.07721 0
M  V30 1297 H 133.709 1.52759 -5.27215 0
M  V30 1298 H 133.97 2.35221 -3.74331 0
M  V30 1299 N 133.029 1.57378 -0.0835403 0
M  V30 1300 C 133.976 2.13384 0.879539 0
M  V30 1301 C 134.946 1.04936 1.28754 0
M  V30 1302 O 136.131 1.32662 1.37133 0
M  V30 1303 C 133.271 2.70932 2.13752 0
M  V30 1304 C 132.384 3.93575 1.7811 0
M  V30 1305 C 131.519 4.39326 2.98607 0
M  V30 1306 C 130.558 5.54587 2.59037 0
M  V30 1307 N 129.695 5.95243 3.72331 0
M  V30 1308 H 134.535 2.9537 0.395076 0
M  V30 1309 H 132.072 1.45953 0.183349 0
M  V30 1310 H 134.03 3.02411 2.87408 0
M  V30 1311 H 132.66 1.91693 2.59718 0
M  V30 1312 H 131.712 3.68483 0.94469 0
M  V30 1313 H 133.024 4.77258 1.45005 0
M  V30 1314 H 132.178 4.72528 3.80529 0
M  V30 1315 H 130.917 3.5452 3.34913 0
M  V30 1316 H 129.922 5.21024 1.75539 0
M  V30 1317 H 131.147 6.41133 2.23887 0
M  V30 1318 H 129.093 5.13385 4.08378 0
M  V30 1319 H 129.01 6.73694 3.43034 0
M  V30 1320 H 130.278 6.33072 4.54797 0
M  V30 1321 N 134.507 -0.190092 1.56449 0
M  V30 1322 C 135.753 -0.911052 1.81184 0
M  V30 1323 C 136.086 -1.82699 0.658396 0
M  V30 1324 O 135.361 -1.91491 -0.340775 0
M  V30 1325 C 135.644 -1.72297 3.16205 0
M  V30 1326 C 135.497 -0.831419 4.42049 0
M  V30 1327 C 136.816 -2.69454 3.47969 0
M  V30 1328 H 133.935 -0.32977 0.659106 0
M  V30 1329 H 136.577 -0.178169 1.89163 0
M  V30 1330 H 134.727 -2.34778 3.09534 0
M  V30 1331 H 136.399 -0.220929 4.60771 0
M  V30 1332 H 134.642 -0.138406 4.33579 0
M  V30 1333 H 135.313 -1.43461 5.33032 0
M  V30 1334 H 137.789 -2.17104 3.54972 0
M  V30 1335 H 136.665 -3.23342 4.43555 0
M  V30 1336 H 136.926 -3.48744 2.71717 0
M  V30 1337 N 135.985 -1.50799 -0.457987 0
M  V30 1338 C 137.234 -1.6168 -1.20593 0
M  V30 1339 C 137.547 -0.32888 -1.92815 0
M  V30 1340 O 138.753 -0.316773 -2.69646 0
M  V30 1341 C 137.209 -2.8545 -2.19195 0
M  V30 1342 C 136.817 -4.21168 -1.52715 0
M  V30 1343 C 138.561 -3.05681 -2.94549 0
M  V30 1344 C 136.468 -5.3611 -2.4968 0
M  V30 1345 H 135.398 -0.602134 -0.453818 0
M  V30 1346 H 138.049 -1.77245 -0.475031 0
M  V30 1347 H 136.431 -2.63472 -2.95632 0
M  V30 1348 H 137.605 -4.53449 -0.819775 0
M  V30 1349 H 135.92 -4.06648 -0.895922 0
M  V30 1350 H 138.517 -3.88727 -3.67145 0
M  V30 1351 H 138.86 -2.17929 -3.54701 0
M  V30 1352 H 139.393 -3.27901 -2.25223 0
M  V30 1353 H 136.132 -6.26057 -1.94249 0
M  V30 1354 H 135.652 -5.0823 -3.18532 0
M  V30 1355 H 137.331 -5.6722 -3.11241 0
M  V30 1356 N 137.463 0.71206 -1.40597 0
M  V30 1357 C 138.874 1.29135 -1.34837 0
M  V30 1358 C 139.225 1.96186 -0.0235395 0
M  V30 1359 O 138.35 1.97768 0.878444 0
M  V30 1360 C 138.945 2.34827 -2.44217 0
M  V30 1361 C 137.504 2.88371 -2.41907 0
M  V30 1362 C 136.651 1.62202 -2.24913 0
M  V30 1363 H 139.602 0.507944 -1.50352 0
M  V30 1364 H 139.623 3.15749 -2.12327 0
M  V30 1365 H 139.135 1.85996 -3.40627 0
M  V30 1366 H 137.236 3.41422 -1.49204 0
M  V30 1367 H 137.349 3.39925 -3.37621 0
M  V30 1368 H 135.713 1.874 -1.72492 0
M  V30 1369 H 136.496 1.15391 -3.23326 0
M  V30 1370 N 138.941 1.26152 0.944643 0
M  V30 1371 C 139.873 1.03199 2.04652 0
M  V30 1372 C 140.886 -0.00642356 1.62799 0
M  V30 1373 O 142.075 0.233263 1.76969 0
M  V30 1374 C 139.175 0.540111 3.34568 0
M  V30 1375 C 138.348 1.64697 4.05208 0
M  V30 1376 C 137.407 1.15374 5.13396 0
M  V30 1377 O 136.433 1.85013 5.38293 0
M  V30 1378 N 137.635 0.00031529 5.805 0
M  V30 1379 H 140.4 1.9808 2.2491 0
M  V30 1380 H 137.961 1.17491 1.11389 0
M  V30 1381 H 139.953 0.194401 4.04233 0
M  V30 1382 H 138.523 -0.315021 3.11009 0
M  V30 1383 H 137.743 2.16379 3.29506 0
M  V30 1384 H 139.031 2.3903 4.49157 0
M  V30 1385 H 138.429 -0.581336 5.62705 0
M  V30 1386 H 136.986 -0.286346 6.51171 0
M  V30 1387 N 140.419 -1.14872 1.07899 0
M  V30 1388 C 141.644 -1.90202 0.826926 0
M  V30 1389 C 142.069 -1.77774 -0.614664 0
M  V30 1390 O 141.427 -1.11431 -1.43013 0
M  V30 1391 C 141.475 -3.38352 1.24702 0
M  V30 1392 O 140.579 -4.10497 0.39575 0
M  V30 1393 H 139.92 -0.591968 0.300782 0
M  V30 1394 H 142.45 -1.45437 1.43907 0
M  V30 1395 H 142.46 -3.89156 1.22563 0
M  V30 1396 H 141.135 -3.46715 2.29698 0
M  V30 1397 H 139.712 -3.69796 0.480117 0
M  V30 1398 N 141.898 -0.863906 -1.31812 0
M  V30 1399 C 143.314 -0.555004 -1.49639 0
M  V30 1400 C 143.514 0.912266 -1.79666 0
M  V30 1401 O 142.57 1.69479 -1.87171 0
M  V30 1402 C 143.883 -1.44998 -2.63431 0
M  V30 1403 C 145.431 -1.45138 -2.77316 0
M  V30 1404 C 145.906 -2.33179 -3.94197 0
M  V30 1405 N 147.397 -2.31025 -4.01474 0
M  V30 1406 C 148.132 -2.95871 -4.9117 0
M  V30 1407 N 147.628 -3.69863 -5.8581 0
M  V30 1408 N 149.421 -2.85211 -4.84367 0
M  V30 1409 H 141.572 -1.81339 -1.10589 0
M  V30 1410 H 143.835 -0.77505 -0.545895 0
M  V30 1411 H 143.541 -2.49377 -2.48 0
M  V30 1412 H 143.415 -1.14409 -3.59431 0
M  V30 1413 H 145.802 -0.415201 -2.92164 0
M  V30 1414 H 145.883 -1.79747 -1.82001 0
M  V30 1415 H 145.527 -3.3687 -3.80107 0
M  V30 1416 H 145.457 -1.95897 -4.88807 0
M  V30 1417 H 147.948 -1.77238 -3.33759 0
M  V30 1418 H 148.261 -4.16486 -6.50968 0
M  V30 1419 H 146.606 -3.73971 -5.85808 0
M  V30 1420 H 149.797 -2.26948 -4.09405 0
M  V30 1421 H 149.97 -3.36027 -5.54066 0
M  V30 1422 N 143.376 1.44774 -0.622745 0
M  V30 1423 C 144.622 2.0242 -0.124083 0
M  V30 1424 C 144.955 1.4881 1.24777 0
M  V30 1425 O 144.23 0.668799 1.8264 0
M  V30 1426 C 144.513 3.59957 -0.101619 0
M  V30 1427 C 144.366 4.23867 -1.50521 0
M  V30 1428 C 145.685 4.36284 0.578272 0
M  V30 1429 H 142.804 0.735528 -0.0465645 0
M  V30 1430 H 145.446 1.72447 -0.797617 0
M  V30 1431 H 143.596 3.85623 0.471934 0
M  V30 1432 H 145.268 4.09336 -2.12701 0
M  V30 1433 H 143.511 3.81684 -2.06154 0
M  V30 1434 H 144.182 5.32843 -1.4416 0
M  V30 1435 H 146.658 4.16001 0.0906057 0
M  V30 1436 H 145.534 5.46004 0.563149 0
M  V30 1437 H 145.795 4.10271 1.64713 0
M  V30 1438 N 144.854 0.36279 1.53368 0
M  V30 1439 C 145.817 -0.472679 2.24273 0
M  V30 1440 C 146.817 -1.012 1.24961 0
M  V30 1441 O 148.007 -0.898194 1.49259 0
M  V30 1442 C 145.139 -1.66039 2.97731 0
M  V30 1443 H 146.332 0.14773 2.99536 0
M  V30 1444 H 143.885 0.114434 1.55881 0
M  V30 1445 H 144.62 -2.31896 2.26704 0
M  V30 1446 H 144.405 -1.28066 3.70596 0
M  V30 1447 H 145.895 -2.25252 3.51641 0
M  V30 1448 N 146.332 -1.57332 0.0918853 0
M  V30 1449 C 147.279 -2.13847 -0.868211 0
M  V30 1450 C 148.249 -1.05618 -1.28196 0
M  V30 1451 O 149.434 -1.33387 -1.36427 0
M  V30 1452 C 146.574 -2.72062 -2.12312 0
M  V30 1453 C 145.687 -3.94514 -1.7602 0
M  V30 1454 C 144.822 -4.40903 -2.96273 0
M  V30 1455 C 143.861 -5.55953 -2.56092 0
M  V30 1456 N 142.998 -5.97209 -3.69169 0
M  V30 1457 H 147.838 -2.95575 -0.379406 0
M  V30 1458 H 145.375 -1.46048 -0.175606 0
M  V30 1459 H 147.333 -3.03931 -2.858 0
M  V30 1460 H 145.963 -1.93068 -2.58698 0
M  V30 1461 H 145.015 -3.68979 -0.925135 0
M  V30 1462 H 146.327 -4.7802 -1.42472 0
M  V30 1463 H 145.481 -4.74539 -3.78018 0
M  V30 1464 H 144.22 -3.56291 -3.33029 0
M  V30 1465 H 143.225 -5.21948 -1.72773 0
M  V30 1466 H 144.45 -6.42311 -2.20484 0
M  V30 1467 H 142.396 -5.15543 -4.05649 0
M  V30 1468 H 142.313 -6.75504 -3.39456 0
M  V30 1469 H 143.581 -6.35475 -4.51434 0
M  V30 1470 N 147.81 0.181792 -1.56548 0
M  V30 1471 C 149.221 0.745244 -1.71181 0
M  V30 1472 C 149.572 1.83262 -0.70068 0
M  V30 1473 O 148.697 2.15946 0.140154 0
M  V30 1474 C 149.292 1.35859 -3.10367 0
M  V30 1475 C 147.851 1.86898 -3.2672 0
M  V30 1476 C 146.998 0.743942 -2.67134 0
M  V30 1477 H 149.949 -0.0434661 -1.5864 0
M  V30 1478 H 149.97 2.22817 -3.08436 0
M  V30 1479 H 149.482 0.566948 -3.83937 0
M  V30 1480 H 147.583 2.68738 -2.5809 0
M  V30 1481 H 147.696 2.02162 -4.34359 0
M  V30 1482 H 146.06 1.16169 -2.26665 0
M  V30 1483 H 146.843 -0.035676 -3.43281 0
M  V30 1484 N 149.288 1.51039 0.449983 0
M  V30 1485 C 150.238 1.67824 1.54335 0
M  V30 1486 C 151.222 0.5324 1.51836 0
M  V30 1487 O 152.414 0.787762 1.58503 0
M  V30 1488 C 149.543 1.7951 2.92628 0
M  V30 1489 C 148.629 2.99838 2.9993 0
M  V30 1490 N 149.02 4.23207 2.77001 0
M  V30 1491 C 147.318 2.98832 3.31082 0
M  V30 1492 C 148.019 5.04361 2.89818 0
M  V30 1493 N 146.995 4.38746 3.2094 0
M  V30 1494 H 150.797 2.60884 1.35339 0
M  V30 1495 H 148.311 1.48513 0.657085 0
M  V30 1496 H 150.308 1.89642 3.7127 0
M  V30 1497 H 148.968 0.876227 3.12654 0
M  V30 1498 H 149.979 4.5236 2.52172 0
M  V30 1499 H 146.656 2.16527 3.56963 0
M  V30 1500 H 148.046 6.12528 2.76151 0
M  V30 1501 N 150.766 -0.704594 1.40972 0
M  V30 1502 C 151.698 -1.82974 1.38033 0
M  V30 1503 C 152.711 -1.60305 0.283931 0
M  V30 1504 O 153.9 -1.69975 0.545042 0
M  V30 1505 C 151 -3.19578 1.12795 0
M  V30 1506 C 150.173 -3.69352 2.34302 0
M  V30 1507 C 149.232 -4.84601 2.05058 0
M  V30 1508 O 148.258 -4.96682 2.7802 0
M  V30 1509 N 149.46 -5.71194 1.03528 0
M  V30 1510 H 152.225 -1.85991 2.35005 0
M  V30 1511 H 149.786 -0.886567 1.35468 0
M  V30 1512 H 151.778 -3.9429 0.911987 0
M  V30 1513 H 150.348 -3.11642 0.24452 0
M  V30 1514 H 149.568 -2.85649 2.71659 0
M  V30 1515 H 150.856 -3.99345 3.1528 0
M  V30 1516 H 150.254 -5.64054 0.431217 0
M  V30 1517 H 148.811 -6.45843 0.879205 0
M  V30 1518 N 152.244 -1.26651 -0.937939 0
M  V30 1519 C 153.66 -1.03834 -1.21205 0
M  V30 1520 C 153.86 0.234502 -2.00131 0
M  V30 1521 O 152.916 0.942767 -2.3424 0
M  V30 1522 C 154.229 -2.27167 -1.97017 0
M  V30 1523 C 155.777 -2.32101 -2.09996 0
M  V30 1524 C 156.252 -3.55136 -2.8921 0
M  V30 1525 N 157.743 -3.55632 -2.96783 0
M  V30 1526 C 158.478 -4.475 -3.58512 0
M  V30 1527 N 157.974 -5.4966 -4.21717 0
M  V30 1528 N 159.767 -4.35145 -3.55816 0
M  V30 1529 H 151.918 -2.08398 -0.410391 0
M  V30 1530 H 154.181 -0.916031 -0.244114 0
M  V30 1531 H 153.887 -3.19765 -1.46434 0
M  V30 1532 H 153.761 -2.31672 -2.97671 0
M  V30 1533 H 156.148 -1.40015 -2.59769 0
M  V30 1534 H 156.229 -2.31605 -1.08594 0
M  V30 1535 H 155.873 -4.47553 -2.40123 0
M  V30 1536 H 155.803 -3.5288 -3.90875 0
M  V30 1537 H 158.294 -2.81743 -2.51852 0
M  V30 1538 H 158.607 -6.15943 -4.66727 0
M  V30 1539 H 156.952 -5.53514 -4.20294 0
M  V30 1540 H 160.143 -3.5455 -3.05634 0
M  V30 1541 H 160.316 -5.06934 -4.03636 0
M  V30 1542 N 153.722 1.14298 -1.08507 0
M  V30 1543 C 154.632 2.23027 -0.727753 0
M  V30 1544 C 155.648 1.71952 0.26619 0
M  V30 1545 O 156.824 2.011 0.109882 0
M  V30 1546 C 153.889 3.46403 -0.143541 0
M  V30 1547 C 152.95 4.12413 -1.19223 0
M  V30 1548 C 152.183 5.29899 -0.635798 0
M  V30 1549 O 152.406 5.67796 0.544393 0
M  V30 1550 O 151.34 5.85717 -1.38634 0
M  V30 1551 H 155.166 2.55945 -1.63481 0
M  V30 1552 H 152.751 1.22248 -0.858817 0
M  V30 1553 H 154.633 4.21018 0.179404 0
M  V30 1554 H 153.308 3.15206 0.736659 0
M  V30 1555 H 152.215 3.39667 -1.56772 0
M  V30 1556 H 153.548 4.47718 -2.04474 0
M  V30 1557 N 155.201 0.870884 1.31352 0
M  V30 1558 C 156.148 0.325425 2.28494 0
M  V30 1559 C 157.118 -0.576615 1.5577 0
M  V30 1560 O 158.303 -0.508059 1.83911 0
M  V30 1561 C 155.443 -0.466283 3.41935 0
M  V30 1562 C 154.556 0.463378 4.29508 0
M  V30 1563 C 153.691 -0.342544 5.30094 0
M  V30 1564 C 152.73 0.583486 6.09313 0
M  V30 1565 N 151.867 -0.186244 7.01853 0
M  V30 1566 H 156.707 1.15901 2.74538 0
M  V30 1567 H 154.244 0.58294 1.35056 0
M  V30 1568 H 156.202 -0.941085 4.06447 0
M  V30 1569 H 154.832 -1.26456 2.97 0
M  V30 1570 H 153.884 1.05663 3.65431 0
M  V30 1571 H 155.196 1.1734 4.84802 0
M  V30 1572 H 154.35 -0.879816 6.00287 0
M  V30 1573 H 153.089 -1.08585 4.75458 0
M  V30 1574 H 152.094 1.13251 5.3801 0
M  V30 1575 H 153.319 1.32566 6.66035 0
M  V30 1576 H 151.265 -0.912348 6.49625 0
M  V30 1577 H 151.182 0.464422 7.54572 0
M  V30 1578 H 152.45 -0.704716 7.76308 0
M  V30 1579 N 156.679 -1.44442 0.630414 0
M  V30 1580 C 157.928 -2.01267 0.132073 0
M  V30 1581 C 158.241 -1.50172 -1.25331 0
M  V30 1582 O 159.447 -1.9912 -1.84562 0
M  V30 1583 C 157.903 -3.59422 0.185362 0
M  V30 1584 C 157.511 -4.19514 1.57201 0
M  V30 1585 C 159.255 -4.23724 -0.256553 0
M  V30 1586 C 157.162 -5.69891 1.58045 0
M  V30 1587 H 156.092 -0.752619 0.0456092 0
M  V30 1588 H 158.743 -1.65666 0.789106 0
M  V30 1589 H 157.125 -3.92318 -0.538759 0
M  V30 1590 H 158.299 -3.98156 2.31966 0
M  V30 1591 H 156.614 -3.67496 1.95795 0
M  V30 1592 H 159.211 -5.34019 -0.269767 0
M  V30 1593 H 159.554 -3.96013 -1.28372 0
M  V30 1594 H 160.087 -3.95629 0.41505 0
M  V30 1595 H 156.826 -6.02336 2.58597 0
M  V30 1596 H 156.346 -5.93373 0.875725 0
M  V30 1597 H 158.025 -6.33515 1.31408 0
M  V30 1598 N 158.157 -0.370918 -1.53173 0
M  V30 1599 C 159.087 0.464847 -2.28826 0
M  V30 1600 C 160.068 1.07936 -1.31468 0
M  V30 1601 O 161.253 1.0956 -1.60344 0
M  V30 1602 C 158.383 1.60196 -3.08147 0
M  V30 1603 C 157.337 1.11443 -4.13237 0
M  V30 1604 C 156.663 2.3422 -4.80672 0
M  V30 1605 C 157.963 0.195384 -5.21934 0
M  V30 1606 H 159.657 -0.166329 -2.98938 0
M  V30 1607 H 157.203 -0.0814359 -1.4377 0
M  V30 1608 H 159.156 2.19332 -3.59822 0
M  V30 1609 H 157.88 2.26045 -2.35735 0
M  V30 1610 H 156.539 0.545727 -3.62515 0
M  V30 1611 H 156.187 2.98537 -4.04827 0
M  V30 1612 H 155.887 2.02269 -5.51689 0
M  V30 1613 H 157.411 2.94032 -5.35143 0
M  V30 1614 H 158.825 0.694375 -5.69079 0
M  V30 1615 H 157.222 -0.0335027 -6.00091 0
M  V30 1616 H 158.292 -0.760961 -4.78892 0
M  V30 1617 N 159.635 1.57281 -0.100228 0
M  V30 1618 C 160.583 2.15542 0.874328 0
M  V30 1619 C 161.577 1.09962 1.28859 0
M  V30 1620 O 162.783 1.28298 1.26252 0
M  V30 1621 H 159.158 0.689567 0.300003 0
M  V30 1622 H 161.129 2.96241 0.35829 0
M  V30 1623 C 159.878 2.75454 2.1218 0
M  V30 1624 H 159.201 3.56384 1.81193 0
M  V30 1625 H 160.641 3.19781 2.78417 0
M  V30 1626 C 159.1 1.71602 2.89921 0
M  V30 1627 O 159.63 1.15804 3.84646 0
M  V30 1628 N 157.836 1.41975 2.53558 0
M  V30 1629 H 157.383 1.87539 1.76598 0
M  V30 1630 H 157.341 0.727274 3.05873 0
M  V30 1631 N 161.113 -0.173488 1.56642 0
M  V30 1632 C 162.023 -1.23482 1.99473 0
M  V30 1633 C 163.039 -1.48567 0.905752 0
M  V30 1634 O 164.215 -1.60758 1.21321 0
M  V30 1635 C 161.28 -2.55444 2.34413 0
M  V30 1636 C 160.341 -2.38241 3.57127 0
M  V30 1637 C 159.574 -3.63909 3.90392 0
M  V30 1638 O 159.797 -4.68996 3.24653 0
M  V30 1639 O 158.731 -3.58149 4.83749 0
M  V30 1640 H 162.557 -0.901279 2.90018 0
M  V30 1641 H 160.142 -0.380185 1.44482 0
M  V30 1642 H 162.024 -3.33292 2.57865 0
M  V30 1643 H 160.699 -2.88382 1.4703 0
M  V30 1644 H 159.606 -1.58431 3.38896 0
M  V30 1645 H 160.939 -2.10228 4.45045 0
M  V30 1646 N 162.591 -1.51276 -0.441967 0
M  V30 1647 C 163.84 -1.6295 -1.18871 0
M  V30 1648 C 164.153 -0.349312 -1.92456 0
M  V30 1649 O 165.359 -0.345355 -2.69295 0
M  V30 1650 C 163.815 -2.87759 -2.16155 0
M  V30 1651 C 163.423 -4.22764 -1.48239 0
M  V30 1652 C 165.167 -3.08788 -2.91291 0
M  V30 1653 C 163.074 -5.38728 -2.4398 0
M  V30 1654 H 162.004 -0.606913 -0.447406 0
M  V30 1655 H 164.655 -1.77739 -0.456205 0
M  V30 1656 H 163.037 -2.66593 -2.92821 0
M  V30 1657 H 164.211 -4.54293 -0.771635 0
M  V30 1658 H 162.526 -4.07575 -0.852741 0
M  V30 1659 H 165.123 -3.92599 -3.63002 0
M  V30 1660 H 165.466 -2.21679 -3.5237 0
M  V30 1661 H 165.999 -3.30272 -2.21733 0
M  V30 1662 H 162.738 -6.28082 -1.87598 0
M  V30 1663 H 162.258 -5.1158 -3.13123 0
M  V30 1664 H 163.937 -5.70489 -3.05207 0
M  V30 1665 N 164.069 0.697108 -1.41344 0
M  V30 1666 C 164.979 1.84088 -1.45427 0
M  V30 1667 C 165.995 1.70545 -0.34501 0
M  V30 1668 O 167.171 1.92488 -0.592492 0
M  V30 1669 C 164.236 3.20056 -1.33286 0
M  V30 1670 C 163.297 3.45718 -2.54514 0
M  V30 1671 C 162.53 4.75199 -2.42944 0
M  V30 1672 O 162.753 5.51579 -1.45318 0
M  V30 1673 O 161.687 5.0161 -3.32672 0
M  V30 1674 H 165.513 1.836 -2.41919 0
M  V30 1675 H 163.098 0.849966 -1.22866 0
M  V30 1676 H 164.98 4.01236 -1.28794 0
M  V30 1677 H 163.655 3.2123 -0.39909 0
M  V30 1678 H 162.562 2.64474 -2.64583 0
M  V30 1679 H 163.895 3.49356 -3.46715 0
M  V30 1680 N 165.547 1.27147 0.931209 0
M  V30 1681 C 166.477 1.12081 2.04842 0
M  V30 1682 C 167.458 0.0232364 1.70084 0
M  V30 1683 O 168.643 0.197085 1.93197 0
M  V30 1684 C 165.773 0.76354 3.38803 0
M  V30 1685 C 164.727 1.81396 3.87659 0
M  V30 1686 C 164.053 1.31075 5.18385 0
M  V30 1687 C 165.353 3.21739 4.11438 0
M  V30 1688 H 167.047 2.05537 2.17703 0
M  V30 1689 H 164.593 0.989603 1.04608 0
M  V30 1690 H 166.546 0.644982 4.16435 0
M  V30 1691 H 165.27 -0.206727 3.25945 0
M  V30 1692 H 163.929 1.92136 3.12217 0
M  V30 1693 H 163.577 0.330037 5.01916 0
M  V30 1694 H 163.277 2.013 5.52044 0
M  V30 1695 H 164.801 1.20506 5.98591 0
M  V30 1696 H 166.215 3.14019 4.79651 0
M  V30 1697 H 164.612 3.89644 4.56397 0
M  V30 1698 H 165.682 3.67054 3.16859 0
M  V30 1699 N 167.025 -1.13721 1.09112 0
M  V30 1700 C 167.975 -2.17082 0.697091 0
M  V30 1701 C 168.959 -1.58321 -0.286923 0
M  V30 1702 O 170.151 -1.7673 -0.0978008 0
M  V30 1703 C 167.28 -3.43105 0.115729 0
M  V30 1704 C 166.366 -4.0888 1.12596 0
M  V30 1705 N 166.757 -4.4987 2.31195 0
M  V30 1706 C 165.055 -4.35471 0.963366 0
M  V30 1707 C 165.756 -5.01094 2.95431 0
M  V30 1708 N 164.732 -4.95751 2.23006 0
M  V30 1709 H 168.534 -2.46524 1.6001 0
M  V30 1710 H 166.048 -1.30481 0.966869 0
M  V30 1711 H 168.045 -4.16491 -0.184555 0
M  V30 1712 H 166.705 -3.15138 -0.78217 0
M  V30 1713 H 167.716 -4.42678 2.68806 0
M  V30 1714 H 164.393 -4.17328 0.119878 0
M  V30 1715 H 165.783 -5.4263 3.96236 0
M  V30 1716 N 168.503 -0.877838 -1.30888 0
M  V30 1717 C 169.919 -0.570844 -1.49042 0
M  V30 1718 C 170.119 0.893159 -1.80624 0
M  V30 1719 O 169.175 1.67485 -1.88958 0
M  V30 1720 C 170.488 -1.47784 -2.61878 0
M  V30 1721 C 172.036 -1.48071 -2.75761 0
M  V30 1722 C 172.511 -2.37347 -3.91702 0
M  V30 1723 N 174.002 -2.35271 -3.99001 0
M  V30 1724 C 174.737 -3.01063 -4.88004 0
M  V30 1725 N 174.233 -3.76055 -5.81854 0
M  V30 1726 N 176.026 -2.90332 -4.81315 0
M  V30 1727 H 168.177 -1.82502 -1.0866 0
M  V30 1728 H 170.44 -0.780797 -0.537644 0
M  V30 1729 H 170.146 -2.51993 -2.45341 0
M  V30 1730 H 170.02 -1.18215 -3.58197 0
M  V30 1731 H 172.407 -0.446166 -2.91708 0
M  V30 1732 H 172.488 -1.81668 -1.80085 0
M  V30 1733 H 172.132 -3.40883 -3.76512 0
M  V30 1734 H 172.062 -2.01071 -4.86701 0
M  V30 1735 H 174.553 -1.80768 -3.3186 0
M  V30 1736 H 174.866 -4.23366 -6.46514 0
M  V30 1737 H 173.211 -3.80163 -5.81808 0
M  V30 1738 H 176.402 -2.31278 -4.06974 0
M  V30 1739 H 176.575 -3.41885 -5.50471 0
M  V30 1740 N 169.982 1.44106 -0.638065 0
M  V30 1741 C 171.259 1.95453 -0.0759321 0
M  V30 1742 C 171.639 1.57984 1.40015 0
M  V30 1743 O 170.987 0.857361 2.11806 0
M  V30 1744 C 171.197 3.47655 -0.306132 0
M  V30 1745 C 172.545 4.24114 -0.203008 0
M  V30 1746 O 173.569 3.55405 -0.237871 0
M  V30 1747 O 172.428 5.46381 -0.113827 0
M  V30 1748 H 169.522 0.826797 0.0183332 0
M  V30 1749 H 172.068 1.54122 -0.710251 0
M  V30 1750 H 170.84 3.68 -1.3301 0
M  V30 1751 H 170.463 3.95949 0.361991 0
M  V30 1752 N 171.46 0.379036 1.52974 0
M  V30 1753 C 172.39 -0.452706 2.29069 0
M  V30 1754 C 173.371 -1.07237 1.32039 0
M  V30 1755 O 174.556 -1.08708 1.60923 0
M  V30 1756 C 171.686 -1.5856 3.08992 0
M  V30 1757 C 170.64 -1.0925 4.13822 0
M  V30 1758 C 169.966 -2.31668 4.81907 0
M  V30 1759 C 171.266 -0.167702 5.22031 0
M  V30 1760 H 172.96 0.182181 2.98845 0
M  V30 1761 H 170.506 0.0890592 1.43724 0
M  V30 1762 H 172.459 -2.1742 3.6098 0
M  V30 1763 H 171.183 -2.24792 2.36931 0
M  V30 1764 H 169.842 -0.526494 3.628 0
M  V30 1765 H 169.49 -2.96386 4.06404 0
M  V30 1766 H 169.19 -1.9934 5.52754 0
M  V30 1767 H 170.714 -2.91189 5.36695 0
M  V30 1768 H 172.128 -0.664186 5.6944 0
M  V30 1769 H 170.525 0.0653265 6.00064 0
M  V30 1770 H 171.595 0.786347 4.78482 0
M  V30 1771 N 172.938 -1.57226 0.108567 0
M  V30 1772 C 173.87 -2.11809 -0.875752 0
M  V30 1773 C 174.883 -1.05839 -1.23701 0
M  V30 1774 O 176.072 -1.33245 -1.18778 0
M  V30 1775 C 173.172 -2.59411 -2.18081 0
M  V30 1776 C 172.345 -3.89364 -1.99284 0
M  V30 1777 C 171.404 -4.22672 -3.13424 0
M  V30 1778 O 170.43 -4.91668 -2.86795 0
M  V30 1779 N 171.632 -3.79154 -4.3957 0
M  V30 1780 H 174.397 -2.9689 -0.409477 0
M  V30 1781 H 171.958 -1.61721 -0.076158 0
M  V30 1782 H 173.95 -2.7873 -2.93414 0
M  V30 1783 H 172.52 -1.79268 -2.5609 0
M  V30 1784 H 171.74 -3.79059 -1.08203 0
M  V30 1785 H 173.028 -4.74358 -1.84017 0
M  V30 1786 H 172.426 -3.23486 -4.64083 0
M  V30 1787 H 170.983 -4.03602 -5.11809 0
M  V30 1788 N 174.416 0.165178 -1.56732 0
M  V30 1789 C 175.366 1.20917 -1.93295 0
M  V30 1790 C 176.35 1.39488 -0.801985 0
M  V30 1791 O 177.542 1.41356 -1.06525 0
M  V30 1792 C 174.671 2.54718 -2.3016 0
M  V30 1793 C 173.757 2.39815 -3.49785 0
M  V30 1794 N 174.148 1.94637 -4.66851 0
M  V30 1795 C 172.446 2.70623 -3.54513 0
M  V30 1796 C 173.147 1.92344 -5.4898 0
M  V30 1797 N 172.123 2.34978 -4.9019 0
M  V30 1798 H 175.925 0.851675 -2.81289 0
M  V30 1799 H 173.439 0.373399 -1.58049 0
M  V30 1800 H 175.436 3.30165 -2.54552 0
M  V30 1801 H 174.096 2.91265 -1.43508 0
M  V30 1802 H 175.107 1.6488 -4.90953 0
M  V30 1803 H 171.784 3.11167 -2.78354 0
M  V30 1804 H 173.174 1.5906 -6.52801 0
M  V30 1805 N 175.894 1.51508 0.433938 0
M  V30 1806 C 177.31 1.39759 0.770682 0
M  V30 1807 C 177.51 0.482594 1.95636 0
M  V30 1808 O 176.566 -0.0609691 2.52426 0
M  V30 1809 C 177.879 2.81851 1.04787 0
M  V30 1810 C 179.427 2.91025 1.1521 0
M  V30 1811 C 179.902 4.34032 1.46219 0
M  V30 1812 N 181.393 4.37154 1.53136 0
M  V30 1813 C 182.128 5.4484 1.78709 0
M  V30 1814 N 181.624 6.62682 2.02051 0
M  V30 1815 N 183.417 5.32324 1.80519 0
M  V30 1816 H 175.568 2.09548 -0.346892 0
M  V30 1817 H 177.831 0.943446 -0.0928074 0
M  V30 1818 H 177.537 3.50815 0.249304 0
M  V30 1819 H 177.411 3.21386 1.97461 0
M  V30 1820 H 179.798 2.22257 1.94128 0
M  V30 1821 H 179.879 2.54983 0.204281 0
M  V30 1822 H 179.523 5.03351 0.678274 0
M  V30 1823 H 179.453 4.6759 2.42212 0
M  V30 1824 H 181.944 3.52197 1.36987 0
M  V30 1825 H 182.257 7.40543 2.20943 0
M  V30 1826 H 180.602 6.65791 1.99366 0
M  V30 1827 H 183.793 4.39246 1.61805 0
M  V30 1828 H 183.966 6.16328 2.00111 0
M  V30 1829 N 177.372 -0.689602 1.41712 0
M  V30 1830 C 178.322 -1.79571 1.40493 0
M  V30 1831 C 179.306 -1.58473 0.278409 0
M  V30 1832 O 180.498 -1.69204 0.519532 0
M  V30 1833 C 177.627 -3.17923 1.29536 0
M  V30 1834 C 176.713 -3.44695 2.47075 0
M  V30 1835 N 177.104 -3.42132 3.72531 0
M  V30 1836 C 175.402 -3.75269 2.41017 0
M  V30 1837 C 176.103 -3.67976 4.50521 0
M  V30 1838 N 175.079 -3.88014 3.80718 0
M  V30 1839 H 178.881 -1.75961 2.35404 0
M  V30 1840 H 176.395 -0.889839 1.35851 0
M  V30 1841 H 178.392 -3.97167 1.26745 0
M  V30 1842 H 177.052 -3.22741 0.356153 0
M  V30 1843 H 178.063 -3.22375 4.05333 0
M  V30 1844 H 174.74 -3.87421 1.55599 0
M  V30 1845 H 176.13 -3.7208 5.59469 0
M  V30 1846 N 178.85 -1.27639 -0.924453 0
M  V30 1847 C 180.099 -1.13549 -1.66702 0
M  V30 1848 C 180.412 0.317487 -1.93006 0
M  V30 1849 O 181.618 0.579333 -2.65247 0
M  V30 1850 C 180.074 -1.98426 -3.00259 0
M  V30 1851 C 179.682 -3.484 -2.81641 0
M  V30 1852 C 181.426 -1.92993 -3.78092 0
M  V30 1853 C 179.333 -4.25464 -4.10773 0
M  V30 1854 H 178.263 -0.421351 -0.625283 0
M  V30 1855 H 180.914 -1.52085 -1.02676 0
M  V30 1856 H 179.296 -1.52736 -3.6536 0
M  V30 1857 H 180.47 -4.01973 -2.25287 0
M  V30 1858 H 178.785 -3.55245 -2.17232 0
M  V30 1859 H 181.382 -2.47844 -4.7379 0
M  V30 1860 H 181.725 -0.904281 -4.0636 0
M  V30 1861 H 182.258 -2.36595 -3.19793 0
M  V30 1862 H 178.997 -5.28566 -3.87683 0
M  V30 1863 H 178.517 -3.76667 -4.66779 0
M  V30 1864 H 180.196 -4.34812 -4.79111 0
M  V30 1865 N 180.328 1.1314 -1.09713 0
M  V30 1866 C 181.574 1.84757 -0.836224 0
M  V30 1867 C 181.907 1.8347 0.636598 0
M  V30 1868 O 181.182 1.27491 1.46889 0
M  V30 1869 C 181.465 3.32782 -1.37578 0
M  V30 1870 C 181.318 3.42567 -2.91493 0
M  V30 1871 C 182.637 4.28307 -1.01198 0
M  V30 1872 H 179.756 0.67082 -0.305236 0
M  V30 1873 H 182.398 1.3278 -1.35903 0
M  V30 1874 H 180.548 3.77177 -0.931097 0
M  V30 1875 H 182.22 3.06862 -3.44432 0
M  V30 1876 H 180.463 2.83349 -3.28475 0
M  V30 1877 H 181.134 4.46674 -3.24324 0
M  V30 1878 H 183.61 3.91999 -1.39556 0
M  V30 1879 H 182.486 5.30307 -1.41653 0
M  V30 1880 H 182.747 4.42029 0.0794833 0
M  V30 1881 N 181.806 0.884767 1.30421 0
M  V30 1882 C 183.222 0.57874 1.48737 0
M  V30 1883 C 183.422 -0.883567 1.81095 0
M  V30 1884 O 182.478 -1.6648 1.89844 0
M  V30 1885 C 183.791 1.49171 2.61091 0
M  V30 1886 C 185.339 1.49532 2.74971 0
M  V30 1887 C 185.814 2.39421 3.90438 0
M  V30 1888 N 187.305 2.37383 3.97748 0
M  V30 1889 C 188.04 3.03647 4.86401 0
M  V30 1890 N 187.536 3.79136 5.79852 0
M  V30 1891 N 189.329 2.9288 4.79768 0
M  V30 1892 H 181.48 1.83075 1.0769 0
M  V30 1893 H 183.743 0.783637 0.533495 0
M  V30 1894 H 183.449 2.53291 2.44001 0
M  V30 1895 H 183.323 1.20113 3.57565 0
M  V30 1896 H 185.71 0.46163 2.91467 0
M  V30 1897 H 185.791 1.8262 1.79119 0
M  V30 1898 H 185.435 3.42874 3.74699 0
M  V30 1899 H 185.365 2.03649 4.85628 0
M  V30 1900 H 187.856 1.82525 3.30897 0
M  V30 1901 H 188.169 4.26789 6.4426 0
M  V30 1902 H 186.514 3.83243 5.79784 0
M  V30 1903 H 189.705 2.33433 4.05742 0
M  V30 1904 H 189.878 3.448 5.4865 0
M  V30 1905 N 183.284 -1.43765 0.645699 0
M  V30 1906 C 184.531 -2.01898 0.15604 0
M  V30 1907 C 184.859 -1.50887 -1.22733 0
M  V30 1908 O 184.114 -0.689271 -1.8316 0
M  V30 1909 C 184.413 -3.57238 0.107679 0
M  V30 1910 C 184.079 -4.27564 1.43178 0
M  V30 1911 C 182.741 -4.46492 1.7944 0
M  V30 1912 C 185.093 -4.67454 2.30513 0
M  V30 1913 C 182.421 -5.02573 3.02716 0
M  V30 1914 C 184.773 -5.24901 3.53074 0
M  V30 1915 C 183.437 -5.42046 3.89541 0
M  V30 1916 H 182.707 -0.738797 0.057099 0
M  V30 1917 H 185.354 -1.72341 0.834912 0
M  V30 1918 H 183.659 -3.86293 -0.654618 0
M  V30 1919 H 185.356 -3.99965 -0.287938 0
M  V30 1920 H 181.946 -4.13171 1.13963 0
M  V30 1921 H 186.13 -4.5253 2.0379 0
M  V30 1922 H 181.386 -5.14033 3.31028 0
M  V30 1923 H 185.56 -5.54758 4.20971 0
M  V30 1924 H 183.187 -5.85268 4.85145 0
M  V30 1925 N 184.763 -0.387143 -1.52771 0
M  V30 1926 C 185.988 0.198407 -2.06449 0
M  V30 1927 C 186.413 1.39918 -1.25716 0
M  V30 1928 O 185.771 1.79099 -0.281657 0
M  V30 1929 C 185.819 0.548893 -3.56398 0
M  V30 1930 O 184.923 1.64315 -3.78252 0
M  V30 1931 H 184.264 0.0237731 -0.663574 0
M  V30 1932 H 186.794 -0.553989 -1.96957 0
M  V30 1933 H 186.804 0.813812 -3.99801 0
M  V30 1934 H 185.479 -0.329005 -4.14597 0
M  V30 1935 H 184.056 1.37211 -3.46738 0
M  V30 1936 N 186.241 1.57166 -0.116904 0
M  V30 1937 C 187.191 2.11756 0.845178 0
M  V30 1938 C 188.175 1.03783 1.22955 0
M  V30 1939 O 189.367 1.3002 1.20099 0
M  V30 1940 C 186.496 2.71886 2.09602 0
M  V30 1941 C 185.582 3.86937 1.7361 0
M  V30 1942 N 185.973 4.94073 1.08284 0
M  V30 1943 C 184.271 3.97082 2.03082 0
M  V30 1944 C 184.972 5.74477 0.913855 0
M  V30 1945 N 183.948 5.2423 1.43818 0
M  V30 1946 H 187.75 2.91967 0.336523 0
M  V30 1947 H 185.264 1.62174 0.0856332 0
M  V30 1948 H 187.261 3.09338 2.79492 0
M  V30 1949 H 185.921 1.93138 2.61013 0
M  V30 1950 H 186.932 5.12483 0.747067 0
M  V30 1951 H 183.609 3.29372 2.56554 0
M  V30 1952 H 184.999 6.70701 0.40125 0
M  V30 1953 N 187.719 -0.156864 1.56817 0
M  V30 1954 C 188.669 -1.19891 1.93934 0
M  V30 1955 C 189.653 -1.39061 0.809372 0
M  V30 1956 O 190.845 -1.40789 1.07273 0
M  V30 1957 C 187.974 -2.53493 2.31508 0
M  V30 1958 C 187.06 -2.37957 3.51052 0
M  V30 1959 N 187.451 -1.92158 4.67877 0
M  V30 1960 C 185.749 -2.68739 3.55943 0
M  V30 1961 C 186.45 -1.8943 5.49992 0
M  V30 1962 N 185.426 -2.32375 4.91429 0
M  V30 1963 H 189.228 -0.836746 2.81737 0
M  V30 1964 H 186.742 -0.365012 1.58245 0
M  V30 1965 H 188.739 -3.28811 2.56299 0
M  V30 1966 H 187.399 -2.905 1.45051 0
M  V30 1967 H 188.41 -1.62274 4.91821 0
M  V30 1968 H 185.087 -3.09687 2.80001 0
M  V30 1969 H 186.477 -1.55596 6.53636 0
M  V30 1970 N 189.197 -1.51736 -0.425897 0
M  V30 1971 C 190.444 -1.6497 -1.17436 0
M  V30 1972 C 190.772 -0.371445 -1.9092 0
M  V30 1973 O 190.027 0.644963 -1.84767 0
M  V30 1974 C 190.326 -2.81103 -2.20717 0
M  V30 1975 C 189.992 -4.19954 -1.64162 0
M  V30 1976 C 188.654 -4.57725 -1.48462 0
M  V30 1977 C 191.006 -5.06552 -1.22696 0
M  V30 1978 C 188.334 -5.79789 -0.897873 0
M  V30 1979 C 190.686 -6.29205 -0.654464 0
M  V30 1980 C 189.35 -6.6574 -0.484456 0
M  V30 1981 H 188.62 -0.603668 -0.429727 0
M  V30 1982 H 191.267 -1.85798 -0.463829 0
M  V30 1983 H 189.572 -2.54542 -2.97852 0
M  V30 1984 H 191.269 -2.8854 -2.78471 0
M  V30 1985 H 187.859 -3.90181 -1.77361 0
M  V30 1986 H 192.043 -4.77968 -1.33642 0
M  V30 1987 H 187.299 -6.06733 -0.75402 0
M  V30 1988 H 191.473 -6.95643 -0.324694 0
M  V30 1989 H 189.1 -7.60195 -0.0276833 0
M  V30 1990 N 190.675 0.682077 -1.42076 0
M  V30 1991 C 191.585 1.82535 -1.47371 0
M  V30 1992 C 192.601 1.7017 -0.363079 0
M  V30 1993 O 193.777 1.91848 -0.612875 0
M  V30 1994 C 190.842 3.18624 -1.36674 0
M  V30 1995 C 189.903 3.42999 -2.58167 0
M  V30 1996 C 189.136 4.72595 -2.4797 0
M  V30 1997 O 189.359 5.50006 -1.5116 0
M  V30 1998 O 188.293 4.98054 -3.37974 0
M  V30 1999 H 192.119 1.81023 -2.43853 0
M  V30 2000 H 189.704 0.836887 -1.2376 0
M  V30 2001 H 191.586 3.99847 -1.33043 0
M  V30 2002 H 190.261 3.20789 -0.433138 0
M  V30 2003 H 189.168 2.61653 -2.67373 0
M  V30 2004 H 190.501 3.45659 -3.50401 0
M  V30 2005 N 192.153 1.28127 0.917671 0
M  V30 2006 C 193.43 1.05761 1.64542 0
M  V30 2007 C 193.81 -0.404344 2.07191 0
M  V30 2008 O 193.158 -1.38963 1.81388 0
M  V30 2009 C 193.368 2.02857 2.83989 0
M  V30 2010 C 194.716 2.32786 3.551 0
M  V30 2011 O 195.74 2.0091 2.94132 0
M  V30 2012 O 194.599 2.87169 4.64969 0
M  V30 2013 H 191.693 0.403916 0.721652 0
M  V30 2014 H 194.239 1.39431 0.967322 0
M  V30 2015 H 193.011 3.01407 2.49538 0
M  V30 2016 H 192.634 1.69809 3.59514 0
M  V30 2017 N 193.631 -1.12557 1.10312 0
M  V30 2018 C 194.594 -2.16434 0.75424 0
M  V30 2019 C 195.594 -1.59278 -0.220685 0
M  V30 2020 O 196.784 -1.742 0.00230591 0
M  V30 2021 C 193.916 -3.40699 0.116987 0
M  V30 2022 H 195.109 -2.48811 1.67431 0
M  V30 2023 H 192.662 -1.27542 0.903475 0
M  V30 2024 H 193.397 -3.13921 -0.813877 0
M  V30 2025 H 193.182 -3.83459 0.818613 0
M  V30 2026 H 194.672 -4.17451 -0.111387 0
M  V30 2027 N 195.109 -0.891671 -1.2995 0
M  V30 2028 C 196.386 -0.433307 -1.9074 0
M  V30 2029 C 196.766 1.08646 -1.80995 0
M  V30 2030 O 196.114 1.92476 -1.23147 0
M  V30 2031 C 196.324 -0.938895 -3.36134 0
M  V30 2032 C 197.672 -0.977829 -4.13187 0
M  V30 2033 O 198.696 -0.886015 -3.45005 0
M  V30 2034 O 197.555 -1.11453 -5.35015 0
M  V30 2035 H 194.649 -0.133699 -0.816121 0
M  V30 2036 H 197.195 -0.981011 -1.38471 0
M  V30 2037 H 195.967 -1.98281 -3.37343 0
M  V30 2038 H 195.59 -0.37074 -3.95868 0
M  V30 2039 N 196.587 1.43421 -0.653314 0
M  V30 2040 C 197.535 2.32546 0.0501531 0
M  V30 2041 C 198.529 1.48617 0.812985 0
M  V30 2042 O 199.735 1.64825 0.723375 0
M  V30 2043 H 196.11 0.751185 0.0350032 0
M  V30 2044 H 198.081 2.89602 -0.719261 0
M  V30 2045 C 196.83 3.32925 1.00279 0
M  V30 2046 H 196.153 3.97532 0.425236 0
M  V30 2047 H 197.593 3.9792 1.46409 0
M  V30 2048 C 196.052 2.63532 2.09886 0
M  V30 2049 O 196.582 2.45092 3.18265 0
M  V30 2050 N 194.788 2.22905 1.86445 0
M  V30 2051 H 194.335 2.38103 0.98309 0
M  V30 2052 H 194.293 1.76805 2.59976 0
M  V30 2053 N 198.065 0.39524 1.52563 0
M  V30 2054 C 199.314 -0.186321 2.00838 0
M  V30 2055 C 199.627 -1.47402 1.28577 0
M  V30 2056 O 200.833 -2.13599 1.67593 0
M  V30 2057 C 199.289 -0.382595 3.57861 0
M  V30 2058 C 198.897 0.892202 4.39026 0
M  V30 2059 C 200.641 -0.9202 4.14406 0
M  V30 2060 C 198.548 0.66388 5.87662 0
M  V30 2061 H 197.478 -0.0734041 0.750418 0
M  V30 2062 H 200.129 0.518552 1.76021 0
M  V30 2063 H 198.511 -1.14946 3.7895 0
M  V30 2064 H 199.685 1.66414 4.29701 0
M  V30 2065 H 198 1.35519 3.9373 0
M  V30 2066 H 200.597 -1.10683 5.23119 0
M  V30 2067 H 200.94 -1.89096 3.70875 0
M  V30 2068 H 201.473 -0.212751 3.97231 0
M  V30 2069 H 198.212 1.6058 6.35527 0
M  V30 2070 H 197.732 -0.0690193 5.9976 0
M  V30 2071 H 199.411 0.300699 6.46301 0
M  V30 2072 N 199.544 -1.57102 0.125237 0
M  V30 2073 C 200.774 -1.99472 -0.538015 0
M  V30 2074 C 201.182 -1.00395 -1.60366 0
M  V30 2075 O 200.525 0.0103875 -1.83697 0
M  V30 2076 C 200.587 -3.38262 -1.21734 0
M  V30 2077 C 200.251 -4.56021 -0.298897 0
M  V30 2078 C 201.248 -5.17817 0.464943 0
M  V30 2079 C 198.933 -5.01869 -0.208149 0
M  V30 2080 C 200.927 -6.23852 1.3072 0
M  V30 2081 C 198.614 -6.07763 0.637736 0
M  V30 2082 C 199.612 -6.68622 1.39403 0
M  V30 2083 O 199.3 -7.7247 2.22586 0
M  V30 2084 H 199.032 -0.659934 -0.146501 0
M  V30 2085 H 201.586 -2.04321 0.210267 0
M  V30 2086 H 199.816 -3.30185 -2.01282 0
M  V30 2087 H 201.505 -3.6488 -1.77813 0
M  V30 2088 H 202.271 -4.83308 0.404741 0
M  V30 2089 H 198.15 -4.54241 -0.786522 0
M  V30 2090 H 201.694 -6.71284 1.898 0
M  V30 2091 H 197.591 -6.41701 0.699309 0
M  V30 2092 H 198.359 -7.89595 2.15596 0
M  V30 2093 N 201.022 0.148545 -1.56898 0
M  V30 2094 C 202.271 0.85984 -1.82454 0
M  V30 2095 C 202.584 1.82406 -0.706229 0
M  V30 2096 O 203.79 2.57938 -0.847349 0
M  V30 2097 C 202.246 1.57967 -3.2338 0
M  V30 2098 C 201.854 0.65794 -4.43142 0
M  V30 2099 C 203.598 2.27784 -3.58211 0
M  V30 2100 C 201.505 1.3793 -5.75091 0
M  V30 2101 H 200.435 0.324834 -0.68044 0
M  V30 2102 H 203.086 0.112588 -1.83154 0
M  V30 2103 H 201.468 2.37249 -3.17063 0
M  V30 2104 H 202.642 -0.0995497 -4.60692 0
M  V30 2105 H 200.957 0.0682643 -4.16344 0
M  V30 2106 H 203.554 2.8239 -4.54048 0
M  V30 2107 H 203.897 3.04204 -2.84193 0
M  V30 2108 H 204.43 1.55421 -3.66182 0
M  V30 2109 H 201.169 0.656982 -6.52199 0
M  V30 2110 H 200.689 2.10954 -5.61479 0
M  V30 2111 H 202.368 1.92063 -6.17835 0
M  V30 2112 N 202.5 1.5196 0.417844 0
M  V30 2113 C 203.747 1.65591 1.16559 0
M  V30 2114 C 204.075 0.381565 1.90721 0
M  V30 2115 O 203.33 -0.635156 1.85106 0
M  V30 2116 C 203.629 2.82269 2.19223 0
M  V30 2117 C 203.295 4.20819 1.61933 0
M  V30 2118 C 201.957 4.58506 1.46033 0
M  V30 2119 C 204.309 5.07196 1.20008 0
M  V30 2120 C 201.637 5.80257 0.867113 0
M  V30 2121 C 203.989 6.29544 0.621086 0
M  V30 2122 C 202.653 6.65987 0.449144 0
M  V30 2123 H 201.923 0.605939 0.42652 0
M  V30 2124 H 204.57 1.86041 0.45397 0
M  V30 2125 H 202.875 2.56118 2.96498 0
M  V30 2126 H 204.572 2.90012 2.76936 0
M  V30 2127 H 201.162 3.91116 1.7529 0
M  V30 2128 H 205.346 4.7867 1.31105 0
M  V30 2129 H 200.602 6.07124 0.721833 0
M  V30 2130 H 204.776 6.95805 0.287798 0
M  V30 2131 H 202.403 7.60199 -0.012632 0
M  V30 2132 N 203.978 -0.674533 1.42435 0
M  V30 2133 C 204.908 -1.80009 1.48724 0
M  V30 2134 C 205.889 -1.6659 0.343793 0
M  V30 2135 O 207.074 -1.86007 0.558137 0
M  V30 2136 C 204.204 -3.18306 1.38919 0
M  V30 2137 C 203.158 -3.46461 2.51294 0
M  V30 2138 C 202.484 -4.84335 2.26547 0
M  V30 2139 C 203.784 -3.43328 3.93603 0
M  V30 2140 H 205.478 -1.75004 2.42928 0
M  V30 2141 H 203.024 -0.840533 1.16923 0
M  V30 2142 H 204.977 -3.9678 1.41927 0
M  V30 2143 H 203.701 -3.2399 0.412094 0
M  V30 2144 H 202.36 -2.70348 2.47604 0
M  V30 2145 H 202.008 -4.86669 1.2713 0
M  V30 2146 H 201.708 -5.04136 3.01861 0
M  V30 2147 H 203.232 -5.65094 2.31304 0
M  V30 2148 H 204.646 -4.11772 3.98894 0
M  V30 2149 H 203.043 -3.74664 4.68771 0
M  V30 2150 H 204.113 -2.41897 4.20255 0
M  V30 2151 N 205.456 -1.28612 -0.910864 0
M  V30 2152 C 206.366 -1.14643 -2.0468 0
M  V30 2153 C 207.382 -0.0723121 -1.7385 0
M  V30 2154 O 208.558 -0.282178 -1.99413 0
M  V30 2155 C 205.623 -0.812561 -3.37044 0
M  V30 2156 C 204.684 -1.96935 -3.81465 0
M  V30 2157 C 203.917 -1.65131 -5.07511 0
M  V30 2158 O 204.14 -0.567013 -5.67575 0
M  V30 2159 O 203.074 -2.49585 -5.47714 0
M  V30 2160 H 206.9 -2.1001 -2.19384 0
M  V30 2161 H 204.485 -1.07958 -1.03274 0
M  V30 2162 H 206.367 -0.640441 -4.16505 0
M  V30 2163 H 205.042 0.111426 -3.23508 0
M  V30 2164 H 203.949 -2.19664 -3.02818 0
M  V30 2165 H 205.282 -2.87414 -3.99567 0
M  V30 2166 N 206.934 1.1197 -1.10907 0
M  V30 2167 C 207.864 2.19928 -0.784473 0
M  V30 2168 C 208.845 1.6833 0.244726 0
M  V30 2169 O 210.03 1.93892 0.109418 0
M  V30 2170 C 207.16 3.46597 -0.220827 0
M  V30 2171 C 206.114 4.11376 -1.18127 0
M  V30 2172 C 205.44 5.32554 -0.478594 0
M  V30 2173 C 206.74 4.56945 -2.52979 0
M  V30 2174 H 208.434 2.47337 -1.68715 0
M  V30 2175 H 205.98 1.18879 -0.812642 0
M  V30 2176 H 207.933 4.21396 0.0184278 0
M  V30 2177 H 206.657 3.1863 0.717113 0
M  V30 2178 H 205.316 3.38564 -1.40606 0
M  V30 2179 H 204.964 5.00856 0.463976 0
M  V30 2180 H 204.664 5.76844 -1.11912 0
M  V30 2181 H 206.188 6.10096 -0.248 0
M  V30 2182 H 207.602 5.23093 -2.3462 0
M  V30 2183 H 205.999 5.1203 -3.12962 0
M  V30 2184 H 207.069 3.70676 -3.12614 0
M  V30 2185 N 208.412 0.89855 1.29475 0
M  V30 2186 C 209.652 0.530771 1.97388 0
M  V30 2187 C 210.016 -0.905832 1.69289 0
M  V30 2188 O 211.217 -1.38042 2.30646 0
M  V30 2189 C 209.488 0.81369 3.48014 0
M  V30 2190 S 211.047 0.550048 4.35339 0
M  V30 2191 H 207.865 0.196956 0.683176 0
M  V30 2192 H 210.467 1.16074 1.57312 0
M  V30 2193 H 209.171 1.85749 3.65958 0
M  V30 2194 H 208.702 0.171795 3.93025 0
M  V30 2195 H 210.717 -0.605423 4.92493 0
M  V30 2196 N 209.89 -1.43072 0.660911 0
M  V30 2197 C 211.115 -2.06584 0.183805 0
M  V30 2198 C 211.54 -1.49257 -1.14472 0
M  V30 2199 O 210.898 -0.605528 -1.70889 0
M  V30 2200 C 210.946 -3.60418 0.114434 0
M  V30 2201 O 210.05 -4.01981 -0.921137 0
M  V30 2202 H 209.391 -0.656669 0.0983994 0
M  V30 2203 H 211.921 -1.83447 0.906006 0
M  V30 2204 H 211.931 -4.07946 -0.0663394 0
M  V30 2205 H 210.606 -4.01519 1.08422 0
M  V30 2206 H 209.183 -3.66029 -0.71253 0
M  V30 2207 N 211.368 -0.403325 -1.52352 0
M  V30 2208 C 212.784 -0.0539281 -1.59509 0
M  V30 2209 C 212.984 1.43307 -1.41652 0
M  V30 2210 O 212.04 2.19924 -1.24056 0
M  V30 2211 C 213.353 -0.543654 -2.95745 0
M  V30 2212 C 214.901 -0.501125 -3.08962 0
M  V30 2213 C 215.376 -0.967267 -4.47669 0
M  V30 2214 N 216.867 -0.923849 -4.53893 0
M  V30 2215 C 217.602 -1.25578 -5.5948 0
M  V30 2216 N 217.098 -1.65889 -6.72646 0
M  V30 2217 N 218.891 -1.17613 -5.49658 0
M  V30 2218 H 211.042 -1.37123 -1.62206 0
M  V30 2219 H 213.305 -0.56294 -0.76276 0
M  V30 2220 H 213.011 -1.58275 -3.14073 0
M  V30 2221 H 212.885 0.0498042 -3.77167 0
M  V30 2222 H 215.272 0.528909 -2.90321 0
M  V30 2223 H 215.353 -1.13056 -2.2946 0
M  V30 2224 H 214.997 -1.9956 -4.67053 0
M  V30 2225 H 214.927 -0.314698 -5.25659 0
M  V30 2226 H 217.418 -0.627403 -3.72655 0
M  V30 2227 H 217.731 -1.89543 -7.49195 0
M  V30 2228 H 216.076 -1.69787 -6.73942 0
M  V30 2229 H 219.267 -0.860115 -4.6013 0
M  V30 2230 H 219.44 -1.43812 -6.3184 0
M  V30 2231 N 212.846 1.57033 -0.133567 0
M  V30 2232 C 213.793 2.16074 0.811208 0
M  V30 2233 C 214.763 1.08979 1.2535 0
M  V30 2234 O 215.948 1.36958 1.32843 0
M  V30 2235 C 213.088 2.77595 2.05024 0
M  V30 2236 C 212.201 3.99042 1.65498 0
M  V30 2237 C 211.336 4.48603 2.84479 0
M  V30 2238 C 210.375 5.62547 2.41262 0
M  V30 2239 N 209.512 6.06787 3.53206 0
M  V30 2240 H 214.352 2.96477 0.300906 0
M  V30 2241 H 211.889 1.46462 0.136822 0
M  V30 2242 H 213.847 3.11402 2.77642 0
M  V30 2243 H 212.477 1.99859 2.53488 0
M  V30 2244 H 211.529 3.71302 0.826981 0
M  V30 2245 H 212.841 4.81629 1.29748 0
M  V30 2246 H 211.995 4.84395 3.65303 0
M  V30 2247 H 210.734 3.64995 3.23465 0
M  V30 2248 H 209.739 5.26345 1.58874 0
M  V30 2249 H 210.964 6.47931 2.03377 0
M  V30 2250 H 208.91 5.26117 3.91838 0
M  V30 2251 H 208.827 6.84266 3.21427 0
M  V30 2252 H 210.095 6.4722 4.34427 0
M  V30 2253 N 214.325 -0.140222 1.56975 0
M  V30 2254 C 215.55 -0.870414 1.88251 0
M  V30 2255 C 215.975 -1.73637 0.723312 0
M  V30 2256 O 215.333 -1.78329 -0.32689 0
M  V30 2257 C 215.381 -1.69737 3.18154 0
M  V30 2258 O 214.485 -2.80229 3.02565 0
M  V30 2259 H 213.826 -0.242025 0.61832 0
M  V30 2260 H 216.356 -0.128999 2.04193 0
M  V30 2261 H 216.366 -2.09099 3.50345 0
M  V30 2262 H 215.041 -1.06152 4.02125 0
M  V30 2263 H 213.618 -2.44224 2.81796 0
M  V30 2264 N 215.803 -1.52179 -0.40978 0
M  V30 2265 C 216.733 -1.78435 -1.5061 0
M  V30 2266 C 217.714 -0.635295 -1.57791 0
M  V30 2267 O 218.899 -0.880823 -1.73076 0
M  V30 2268 C 216.029 -1.93444 -2.88439 0
M  V30 2269 C 214.983 -3.09038 -2.96108 0
M  V30 2270 C 214.309 -3.09268 -4.36185 0
M  V30 2271 C 215.609 -4.48508 -2.67652 0
M  V30 2272 H 217.303 -2.70237 -1.28889 0
M  V30 2273 H 214.849 -1.30036 -0.618605 0
M  V30 2274 H 216.802 -2.10394 -3.65119 0
M  V30 2275 H 215.526 -0.983129 -3.11452 0
M  V30 2276 H 214.185 -2.91837 -2.21872 0
M  V30 2277 H 213.833 -2.11861 -4.56206 0
M  V30 2278 H 213.533 -3.86907 -4.42241 0
M  V30 2279 H 215.057 -3.28348 -5.14801 0
M  V30 2280 H 216.471 -4.65918 -3.34056 0
M  V30 2281 H 214.868 -5.28059 -2.85085 0
M  V30 2282 H 215.938 -4.56649 -1.63095 0
M  V30 2283 N 217.281 0.66697 -1.42791 0
M  V30 2284 C 218.244 1.76211 -1.46568 0
M  V30 2285 C 219.244 1.56896 -0.352196 0
M  V30 2286 O 220.434 1.63044 -0.613364 0
M  V30 2287 C 217.566 3.14935 -1.30494 0
M  V30 2288 H 218.759 1.74247 -2.44086 0
M  V30 2289 H 216.312 0.877342 -1.29354 0
M  V30 2290 H 217.047 3.2252 -0.339301 0
M  V30 2291 H 216.832 3.30359 -2.11199 0
M  V30 2292 H 218.322 3.94821 -1.36038 0
M  V30 2293 N 218.759 1.29093 0.90403 0
M  V30 2294 C 219.709 1.10482 1.99443 0
M  V30 2295 C 220.693 0.0255401 1.6088 0
M  V30 2296 O 221.885 0.24677 1.75271 0
M  V30 2297 C 219.014 0.778882 3.34348 0
M  V30 2298 C 218.1 1.89749 3.79284 0
M  V30 2299 N 218.491 3.14045 3.96497 0
M  V30 2300 C 216.789 1.78955 4.08523 0
M  V30 2301 C 217.49 3.86996 4.34292 0
M  V30 2302 N 216.466 3.14909 4.43095 0
M  V30 2303 H 220.268 2.04778 2.10815 0
M  V30 2304 H 217.782 1.20155 1.09255 0
M  V30 2305 H 219.779 0.62661 4.12164 0
M  V30 2306 H 218.439 -0.156205 3.24324 0
M  V30 2307 H 219.45 3.49548 3.82148 0
M  V30 2308 H 216.127 0.926886 4.07081 0
M  V30 2309 H 217.517 4.93941 4.55491 0
M  V30 2310 N 220.237 -1.11381 1.11499 0
M  V30 2311 C 221.486 -1.82494 0.858993 0
M  V30 2312 C 221.799 -1.85605 -0.617278 0
M  V30 2313 O 223.005 -2.52824 -0.989552 0
M  V30 2314 C 221.461 -3.27745 1.48699 0
M  V30 2315 C 221.069 -3.32961 2.99735 0
M  V30 2316 C 222.813 -4.03754 1.31085 0
M  V30 2317 C 220.72 -4.72612 3.55516 0
M  V30 2318 H 219.65 -0.683802 0.317696 0
M  V30 2319 H 222.301 -1.25331 1.34031 0
M  V30 2320 H 220.683 -3.84844 0.933339 0
M  V30 2321 H 221.857 -2.85741 3.61509 0
M  V30 2322 H 220.172 -2.70433 3.16631 0
M  V30 2323 H 222.769 -5.06891 1.70192 0
M  V30 2324 H 223.112 -4.15527 0.253496 0
M  V30 2325 H 223.645 -3.53043 1.83318 0
M  V30 2326 H 220.384 -4.66036 4.60967 0
M  V30 2327 H 219.904 -5.2024 2.98513 0
M  V30 2328 H 221.583 -5.4157 3.53992 0
M  V30 2329 N 221.715 -0.905404 -1.28997 0
M  V30 2330 C 222.961 -0.544465 -1.95977 0
M  V30 2331 C 223.316 0.90041 -1.70031 0
M  V30 2332 O 222.609 1.63064 -1.00601 0
M  V30 2333 C 222.803 -0.779906 -3.48787 0
M  V30 2334 C 222.632 -2.24612 -3.89589 0
M  V30 2335 C 221.402 -2.89464 -4.14172 0
M  V30 2336 C 223.6 -3.22182 -4.00878 0
M  V30 2337 N 221.582 -4.26469 -4.41585 0
M  V30 2338 C 222.953 -4.44323 -4.32409 0
M  V30 2339 C 225.008 -3.17694 -3.83373 0
M  V30 2340 C 223.711 -5.62546 -4.48258 0
M  V30 2341 C 225.737 -4.35208 -4.00435 0
M  V30 2342 C 225.099 -5.56121 -4.3233 0
M  V30 2343 H 221.198 -0.248948 -0.741316 0
M  V30 2344 H 223.782 -1.1674 -1.5582 0
M  V30 2345 H 221.953 -0.186308 -3.87953 0
M  V30 2346 H 223.685 -0.383833 -4.02876 0
M  V30 2347 H 220.44 -2.40232 -4.08149 0
M  V30 2348 H 220.864 -4.97283 -4.5939 0
M  V30 2349 H 225.506 -2.25297 -3.57773 0
M  V30 2350 H 223.224 -6.55429 -4.72692 0
M  V30 2351 H 226.81 -4.33228 -3.88336 0
M  V30 2352 H 225.69 -6.45537 -4.45255 0
M  V30 2353 N 223.193 1.4272 -0.668489 0
M  V30 2354 C 224.14 2.30796 0.0137489 0
M  V30 2355 C 225.11 1.4561 0.799177 0
M  V30 2356 O 226.295 1.74453 0.772702 0
M  V30 2357 C 223.435 3.31377 0.963507 0
M  V30 2358 C 222.548 4.31655 0.172569 0
M  V30 2359 C 221.683 5.19312 1.1175 0
M  V30 2360 C 220.722 6.11274 0.317886 0
M  V30 2361 N 219.859 6.91504 1.2152 0
M  V30 2362 H 224.699 2.88585 -0.743161 0
M  V30 2363 H 222.236 1.42154 -0.378226 0
M  V30 2364 H 224.194 3.88214 1.52792 0
M  V30 2365 H 222.824 2.75202 1.68712 0
M  V30 2366 H 221.876 3.76988 -0.508374 0
M  V30 2367 H 223.188 4.96779 -0.448527 0
M  V30 2368 H 222.342 5.80851 1.75206 0
M  V30 2369 H 221.081 4.5435 1.77249 0
M  V30 2370 H 220.086 5.48809 -0.329918 0
M  V30 2371 H 221.311 6.78283 -0.332917 0
M  V30 2372 H 219.257 6.29176 1.85671 0
M  V30 2373 H 219.174 7.53209 0.649036 0
M  V30 2374 H 220.442 7.57535 1.83742 0
M  V30 2375 N 224.671 0.411399 1.52136 0
M  V30 2376 C 225.634 -0.401089 2.25663 0
M  V30 2377 C 226.634 -0.971732 1.28117 0
M  V30 2378 O 227.824 -0.850254 1.52041 0
M  V30 2379 C 224.956 -1.56483 3.02863 0
M  V30 2380 H 226.149 0.24295 2.98914 0
M  V30 2381 H 223.702 0.163968 1.55438 0
M  V30 2382 H 224.437 -2.24567 2.33967 0
M  V30 2383 H 224.222 -1.16211 3.74483 0
M  V30 2384 H 225.712 -2.13951 3.58629 0
M  V30 2385 N 226.149 -1.5696 0.141893 0
M  V30 2386 C 227.565 -1.58151 -0.21456 0
M  V30 2387 C 227.765 -1.1559 -1.65049 0
M  V30 2388 O 226.821 -0.853832 -2.37626 0
M  V30 2389 C 228.134 -3.00674 0.0395576 0
M  V30 2390 C 229.682 -3.1299 -0.0245529 0
M  V30 2391 C 230.157 -4.57554 0.202167 0
M  V30 2392 N 231.648 -4.62961 0.148919 0
M  V30 2393 C 232.383 -5.7262 0.298924 0
M  V30 2394 N 231.879 -6.90947 0.50637 0
M  V30 2395 N 233.672 -5.61601 0.236886 0
M  V30 2396 H 225.823 -1.8292 1.07953 0
M  V30 2397 H 228.086 -0.846425 0.42693 0
M  V30 2398 H 227.792 -3.36183 1.03315 0
M  V30 2399 H 227.666 -3.70981 -0.682143 0
M  V30 2400 H 230.053 -2.77326 -1.00869 0
M  V30 2401 H 230.134 -2.4518 0.729396 0
M  V30 2402 H 229.778 -4.93922 1.18338 0
M  V30 2403 H 229.708 -5.23484 -0.572044 0
M  V30 2404 H 232.199 -3.77899 -0.00697015 0
M  V30 2405 H 232.512 -7.7038 0.611076 0
M  V30 2406 H 230.857 -6.92878 0.542628 0
M  V30 2407 H 234.048 -4.68039 0.0756209 0
M  V30 2408 H 234.221 -6.47015 0.357227 0
M  V30 2409 N 227.627 0.131896 -1.57047 0
M  V30 2410 C 228.577 1.1679 -1.95816 0
M  V30 2411 C 229.561 1.37756 -0.831393 0
M  V30 2412 O 230.753 1.39065 -1.09499 0
M  V30 2413 C 227.882 2.49778 -2.35512 0
M  V30 2414 C 226.968 2.32342 -3.54793 0
M  V30 2415 N 227.359 1.8469 -4.70875 0
M  V30 2416 C 225.657 2.63043 -3.60173 0
M  V30 2417 C 226.358 1.80656 -5.52936 0
M  V30 2418 N 225.334 2.24528 -4.95064 0
M  V30 2419 H 229.136 0.791818 -2.83033 0
M  V30 2420 H 226.65 0.339791 -1.58805 0
M  V30 2421 H 228.647 3.24692 -2.61498 0
M  V30 2422 H 227.307 2.88156 -1.49654 0
M  V30 2423 H 228.318 1.54429 -4.9434 0
M  V30 2424 H 224.995 3.05193 -2.84892 0
M  V30 2425 H 226.385 1.45178 -6.56028 0
M  V30 2426 N 229.106 1.52395 0.401703 0
M  V30 2427 C 230.334 1.70676 1.16949 0
M  V30 2428 C 230.749 0.419503 1.8408 0
M  V30 2429 O 230.106 -0.605061 1.72178 0
M  V30 2430 C 230.157 2.84753 2.22706 0
M  V30 2431 O 229.878 4.08495 1.58314 0
M  V30 2432 C 231.379 3.14608 3.12309 0
M  V30 2433 H 228.599 0.571787 0.351142 0
M  V30 2434 H 231.143 1.98987 0.471652 0
M  V30 2435 H 229.298 2.58941 2.88147 0
M  V30 2436 H 229.712 4.72117 2.28485 0
M  V30 2437 H 231.186 3.97923 3.82572 0
M  V30 2438 H 231.663 2.28464 3.75101 0
M  V30 2439 H 232.269 3.42212 2.52529 0
M  V30 2440 N 230.584 -0.659388 1.43143 0
M  V30 2441 C 231.514 -1.78422 1.50625 0
M  V30 2442 C 232.495 -1.66216 0.361443 0
M  V30 2443 O 233.68 -1.85404 0.577834 0
M  V30 2444 C 230.81 -3.16815 1.42287 0
M  V30 2445 C 229.764 -3.43777 2.54954 0
M  V30 2446 C 229.09 -4.81905 2.31671 0
M  V30 2447 C 230.39 -3.39134 3.97222 0
M  V30 2448 H 232.084 -1.72417 2.44771 0
M  V30 2449 H 229.63 -0.828084 1.17808 0
M  V30 2450 H 231.583 -3.95253 1.46127 0
M  V30 2451 H 230.307 -3.23534 0.446435 0
M  V30 2452 H 228.966 -2.67707 2.50457 0
M  V30 2453 H 228.614 -4.85294 1.32284 0
M  V30 2454 H 228.314 -5.00906 3.07192 0
M  V30 2455 H 229.838 -5.62609 2.37284 0
M  V30 2456 H 231.252 -4.07518 4.03239 0
M  V30 2457 H 229.649 -3.69671 4.72719 0
M  V30 2458 H 230.719 -2.37426 4.22797 0
M  V30 2459 N 232.062 -1.29571 -0.897171 0
M  V30 2460 C 232.992 -1.17473 -2.01798 0
M  V30 2461 C 233.973 -0.068323 -1.69963 0
M  V30 2462 O 235.158 -0.248239 -1.92607 0
M  V30 2463 C 232.288 -0.853099 -3.36659 0
M  V30 2464 C 231.242 -1.9161 -3.82713 0
M  V30 2465 C 230.568 -1.44773 -5.14728 0
M  V30 2466 C 231.868 -3.32535 -4.02763 0
M  V30 2467 H 233.562 -2.11237 -2.12177 0
M  V30 2468 H 231.108 -1.01699 -1.01948 0
M  V30 2469 H 233.061 -0.755165 -4.14578 0
M  V30 2470 H 231.785 0.120236 -3.26379 0
M  V30 2471 H 230.444 -2.00346 -3.07013 0
M  V30 2472 H 230.092 -0.462995 -5.00865 0
M  V30 2473 H 229.792 -2.15865 -5.46513 0
M  V30 2474 H 231.316 -1.36334 -5.95185 0
M  V30 2475 H 232.73 -3.26626 -4.71156 0
M  V30 2476 H 231.127 -4.01607 -4.45905 0
M  V30 2477 H 232.197 -3.75326 -3.07016 0
M  V30 2478 N 233.54 1.10788 -1.12088 0
M  V30 2479 C 234.45 2.20599 -0.798338 0
M  V30 2480 C 235.466 1.72712 0.21135 0
M  V30 2481 O 236.642 2.01348 0.0458477 0
M  V30 2482 C 233.707 3.45771 -0.253674 0
M  V30 2483 C 232.768 4.08411 -1.32283 0
M  V30 2484 C 232.001 5.27608 -0.80406 0
M  V30 2485 O 232.224 5.69241 0.363478 0
M  V30 2486 O 231.158 5.8101 -1.57198 0
M  V30 2487 H 234.984 2.50614 -1.7154 0
M  V30 2488 H 232.569 1.19454 -0.897275 0
M  V30 2489 H 234.451 4.21376 0.0453691 0
M  V30 2490 H 233.126 3.1739 0.636005 0
M  V30 2491 H 232.033 3.34507 -1.67499 0
M  V30 2492 H 233.366 4.40986 -2.18614 0
M  V30 2493 N 235.018 0.912232 1.28515 0
M  V30 2494 C 236.429 0.591352 1.77087 0
M  V30 2495 C 236.78 -0.8933 1.74684 0
M  V30 2496 O 235.905 -1.69876 1.34056 0
M  V30 2497 C 236.5 1.06668 3.2157 0
M  V30 2498 C 235.059 0.79675 3.67871 0
M  V30 2499 C 234.206 1.23427 2.48316 0
M  V30 2500 H 237.157 1.09365 1.15 0
M  V30 2501 H 237.178 0.407455 3.78312 0
M  V30 2502 H 236.69 2.14726 3.23287 0
M  V30 2503 H 234.791 -0.270679 3.71616 0
M  V30 2504 H 234.904 1.40343 4.58084 0
M  V30 2505 H 233.268 0.653036 2.46186 0
M  V30 2506 H 234.051 2.32316 2.52753 0
M  V30 2507 N 236.496 -1.42363 0.676048 0
M  V30 2508 C 237.406 -2.346 -0.00153389 0
M  V30 2509 C 238.422 -1.5516 -0.787485 0
M  V30 2510 O 239.598 -1.87723 -0.729521 0
M  V30 2511 C 236.663 -3.33705 -0.940298 0
M  V30 2512 C 235.724 -4.29042 -0.148739 0
M  V30 2513 C 234.957 -5.23413 -1.04279 0
M  V30 2514 O 235.18 -5.22749 -2.28232 0
M  V30 2515 O 234.114 -5.99795 -0.502925 0
M  V30 2516 H 237.94 -2.94082 0.758268 0
M  V30 2517 H 235.525 -1.42888 0.436289 0
M  V30 2518 H 237.407 -3.94586 -1.47917 0
M  V30 2519 H 236.082 -2.76695 -1.67993 0
M  V30 2520 H 234.989 -3.71571 0.43427 0
M  V30 2521 H 236.322 -4.89097 0.551805 0
M  V30 2522 N 237.974 -0.419461 -1.51915 0
M  V30 2523 C 239.22 0.153166 -2.02221 0
M  V30 2524 C 239.553 1.43907 -1.30401 0
M  V30 2525 O 238.828 1.90055 -0.413438 0
M  V30 2526 C 239.111 0.390291 -3.57979 0
M  V30 2527 C 238.964 -0.913014 -4.40436 0
M  V30 2528 C 240.283 1.16794 -4.2432 0
M  V30 2529 H 237.402 0.0541924 -0.735005 0
M  V30 2530 H 240.044 -0.554955 -1.81715 0
M  V30 2531 H 238.194 0.993491 -3.75582 0
M  V30 2532 H 239.866 -1.54882 -4.34522 0
M  V30 2533 H 238.109 -1.52168 -4.06236 0
M  V30 2534 H 238.78 -0.701361 -5.47526 0
M  V30 2535 H 241.256 0.657161 -4.10878 0
M  V30 2536 H 240.132 1.3026 -5.3322 0
M  V30 2537 H 240.393 2.19132 -3.83971 0
M  V30 2538 N 239.452 1.56882 -0.150215 0
M  V30 2539 C 240.868 1.58263 0.20617 0
M  V30 2540 C 241.068 1.16464 1.64434 0
M  V30 2541 O 240.124 0.866422 2.3717 0
M  V30 2542 C 241.437 3.00649 -0.0555025 0
M  V30 2543 C 242.985 3.12999 0.00795388 0
M  V30 2544 C 243.46 4.5744 -0.226429 0
M  V30 2545 N 244.951 4.62875 -0.173469 0
M  V30 2546 C 245.686 5.72454 -0.329288 0
M  V30 2547 N 245.182 6.90669 -0.543005 0
M  V30 2548 N 246.975 5.61467 -0.266666 0
M  V30 2549 H 239.126 1.82345 -1.08922 0
M  V30 2550 H 241.389 0.844149 -0.431413 0
M  V30 2551 H 241.095 3.3563 -1.05096 0
M  V30 2552 H 240.969 3.71337 0.66246 0
M  V30 2553 H 243.356 2.77857 0.993966 0
M  V30 2554 H 243.437 2.4479 -0.742388 0
M  V30 2555 H 243.081 4.93287 -1.20956 0
M  V30 2556 H 243.011 5.2378 0.544274 0
M  V30 2557 H 245.502 3.77898 -0.0130709 0
M  V30 2558 H 245.815 7.70045 -0.651922 0
M  V30 2559 H 244.16 6.92581 -0.579366 0
M  V30 2560 H 247.351 4.67992 -0.100441 0
M  V30 2561 H 247.524 6.46816 -0.391535 0
M  V30 2562 N 240.93 -0.123565 1.57115 0
M  V30 2563 C 242.16 -0.845233 1.88519 0
M  V30 2564 C 242.568 -1.74168 0.739064 0
M  V30 2565 O 241.911 -1.81244 -0.299355 0
M  V30 2566 C 241.973 -1.73452 3.14888 0
M  V30 2567 C 241.637 -1.01285 4.45635 0
M  V30 2568 C 242.634 -0.355774 5.18681 0
M  V30 2569 C 240.319 -0.99538 4.92339 0
M  V30 2570 C 242.313 0.309114 6.3665 0
M  V30 2571 C 240 -0.32669 6.10226 0
M  V30 2572 C 240.998 0.324406 6.82229 0
M  V30 2573 O 240.686 0.982437 7.97874 0
M  V30 2574 H 240.418 -0.248534 0.628655 0
M  V30 2575 H 242.972 -0.113907 2.05084 0
M  V30 2576 H 241.202 -2.50737 2.94394 0
M  V30 2577 H 242.891 -2.33021 3.32349 0
M  V30 2578 H 243.657 -0.360918 4.83655 0
M  V30 2579 H 239.536 -1.49159 4.36202 0
M  V30 2580 H 243.08 0.8179 6.92789 0
M  V30 2581 H 238.977 -0.319294 6.4471 0
M  V30 2582 H 239.745 0.886454 8.13686 0
M  V30 2583 N 242.408 -1.52605 -0.393616 0
M  V30 2584 C 243.638 -1.71046 -1.15874 0
M  V30 2585 C 244.046 -0.426483 -1.84331 0
M  V30 2586 O 243.389 0.608513 -1.73329 0
M  V30 2587 C 243.451 -2.80118 -2.25332 0
M  V30 2588 C 243.115 -4.21381 -1.76881 0
M  V30 2589 C 244.112 -5.04697 -1.24808 0
M  V30 2590 C 241.797 -4.67683 -1.83244 0
M  V30 2591 C 243.791 -6.32393 -0.797387 0
M  V30 2592 C 241.478 -5.95364 -1.37787 0
M  V30 2593 C 242.476 -6.77549 -0.861208 0
M  V30 2594 O 242.164 -8.02837 -0.413252 0
M  V30 2595 H 241.896 -0.576155 -0.353583 0
M  V30 2596 H 244.45 -2.00018 -0.467123 0
M  V30 2597 H 242.68 -2.46557 -2.97904 0
M  V30 2598 H 244.369 -2.87006 -2.87023 0
M  V30 2599 H 245.135 -4.70111 -1.19252 0
M  V30 2600 H 241.014 -4.03805 -2.22401 0
M  V30 2601 H 244.558 -6.9649 -0.393437 0
M  V30 2602 H 240.455 -6.29455 -1.43026 0
M  V30 2603 H 241.223 -8.16749 -0.53515 0
M  V30 2604 N 243.887 0.651787 -1.4349 0
M  V30 2605 C 244.817 1.77621 -1.51569 0
M  V30 2606 C 245.798 1.66022 -0.370253 0
M  V30 2607 O 246.983 1.85095 -0.587658 0
M  V30 2608 C 244.113 3.16056 -1.43966 0
M  V30 2609 C 243.067 3.4242 -2.56774 0
M  V30 2610 C 242.393 4.8067 -2.34223 0
M  V30 2611 C 243.693 3.37023 -3.99015 0
M  V30 2612 H 245.387 1.71117 -2.45681 0
M  V30 2613 H 242.933 0.821825 -1.18246 0
M  V30 2614 H 244.886 3.94472 -1.48221 0
M  V30 2615 H 243.61 3.23293 -0.463586 0
M  V30 2616 H 242.269 2.66375 -2.51873 0
M  V30 2617 H 241.917 4.84585 -1.34856 0
M  V30 2618 H 241.617 4.9927 -3.09844 0
M  V30 2619 H 243.141 5.61342 -2.40265 0
M  V30 2620 H 244.555 4.05374 -4.05395 0
M  V30 2621 H 242.952 3.67159 -4.74673 0
M  V30 2622 H 244.022 2.3518 -4.2405 0
M  V30 2623 N 245.365 1.30045 0.890287 0
M  V30 2624 C 246.781 1.08261 1.17268 0
M  V30 2625 C 246.981 -0.160063 2.00863 0
M  V30 2626 O 246.037 -0.855181 2.37577 0
M  V30 2627 C 247.35 2.34323 1.8845 0
M  V30 2628 C 248.898 2.39735 2.01237 0
M  V30 2629 C 249.373 3.65625 2.7583 0
M  V30 2630 N 250.864 3.66402 2.83379 0
M  V30 2631 C 251.599 4.60498 3.41657 0
M  V30 2632 N 251.095 5.64933 4.01026 0
M  V30 2633 N 252.888 4.48051 3.39421 0
M  V30 2634 H 245.039 2.09777 0.332762 0
M  V30 2635 H 247.302 0.92446 0.209948 0
M  V30 2636 H 247.008 3.2498 1.34465 0
M  V30 2637 H 246.882 2.4256 2.88867 0
M  V30 2638 H 249.269 1.4956 2.54393 0
M  V30 2639 H 249.35 2.35476 0.999232 0
M  V30 2640 H 248.994 4.56156 2.23347 0
M  V30 2641 H 248.924 3.67144 3.77509 0
M  V30 2642 H 251.415 2.90896 2.41222 0
M  V30 2643 H 251.728 6.32841 4.43545 0
M  V30 2644 H 250.073 5.68732 3.99461 0
M  V30 2645 H 253.264 3.65649 2.92264 0
M  V30 2646 H 253.437 5.21565 3.84544 0
M  V30 2647 N 246.843 -1.10192 1.12674 0
M  V30 2648 C 247.775 -2.16418 0.754701 0
M  V30 2649 C 248.788 -1.61309 -0.21986 0
M  V30 2650 O 249.977 -1.785 -0.000826841 0
M  V30 2651 C 247.077 -3.38762 0.096698 0
M  V30 2652 C 246.25 -4.23307 1.10136 0
M  V30 2653 C 245.309 -5.24092 0.470513 0
M  V30 2654 O 244.335 -5.57906 1.12824 0
M  V30 2655 N 245.537 -5.75491 -0.760948 0
M  V30 2656 H 248.302 -2.48943 1.66875 0
M  V30 2657 H 245.863 -1.25834 1.01869 0
M  V30 2658 H 247.855 -4.03291 -0.337384 0
M  V30 2659 H 246.425 -3.04192 -0.720153 0
M  V30 2660 H 245.645 -3.55036 1.71299 0
M  V30 2661 H 246.933 -4.76624 1.78064 0
M  V30 2662 H 246.331 -5.50222 -1.31424 0
M  V30 2663 H 244.888 -6.41792 -1.13781 0
M  V30 2664 N 248.321 -0.919034 -1.28029 0
M  V30 2665 C 249.57 -0.550802 -1.94034 0
M  V30 2666 C 249.883 0.910877 -1.73096 0
M  V30 2667 O 251.089 1.3875 -2.33368 0
M  V30 2668 C 249.545 -0.934249 -3.47563 0
M  V30 2669 C 249.153 -2.41602 -3.7727 0
M  V30 2670 C 250.897 -0.636854 -4.19696 0
M  V30 2671 C 248.804 -2.73932 -5.24133 0
M  V30 2672 H 247.734 -0.202273 -0.726362 0
M  V30 2673 H 250.385 -1.11867 -1.45458 0
M  V30 2674 H 248.767 -0.295115 -3.94899 0
M  V30 2675 H 249.941 -3.10233 -3.40723 0
M  V30 2676 H 248.256 -2.68441 -3.18321 0
M  V30 2677 H 250.853 -0.855005 -5.2782 0
M  V30 2678 H 251.196 0.425575 -4.14119 0
M  V30 2679 H 251.729 -1.23469 -3.78154 0
M  V30 2680 H 248.468 -3.79049 -5.34792 0
M  V30 2681 H 247.988 -2.09942 -5.61858 0
M  V30 2682 H 249.667 -2.61215 -5.91925 0
M  V30 2683 N 249.799 1.42003 -0.683588 0
M  V30 2684 C 250.729 2.33487 -0.024866 0
M  V30 2685 C 251.71 1.51163 0.779975 0
M  V30 2686 O 252.895 1.79739 0.735362 0
M  V30 2687 C 250.025 3.3487 0.920836 0
M  V30 2688 C 248.979 4.27414 0.223958 0
M  V30 2689 C 248.305 5.19074 1.2832 0
M  V30 2690 C 249.605 5.14445 -0.90242 0
M  V30 2691 H 251.299 2.88819 -0.788921 0
M  V30 2692 H 248.845 1.38873 -0.38083 0
M  V30 2693 H 250.798 3.97787 1.39081 0
M  V30 2694 H 249.522 2.77861 1.71642 0
M  V30 2695 H 248.181 3.65904 -0.225864 0
M  V30 2696 H 247.829 4.58387 2.071 0
M  V30 2697 H 247.529 5.81822 0.821995 0
M  V30 2698 H 249.053 5.84867 1.75392 0
M  V30 2699 H 250.467 5.70998 -0.513272 0
M  V30 2700 H 248.864 5.86072 -1.28997 0
M  V30 2701 H 249.934 4.52322 -1.74737 0
M  V30 2702 N 251.277 0.427512 1.51691 0
M  V30 2703 C 252.502 -0.143601 2.06902 0
M  V30 2704 C 252.927 -1.36536 1.29382 0
M  V30 2705 O 252.285 -1.78289 0.329043 0
M  V30 2706 C 252.333 -0.454207 3.57728 0
M  V30 2707 O 251.437 -1.54228 3.82475 0
M  V30 2708 H 250.778 -0.00617128 0.663971 0
M  V30 2709 H 253.308 0.606014 1.95419 0
M  V30 2710 H 253.318 -0.707525 4.01818 0
M  V30 2711 H 251.993 0.438812 4.13579 0
M  V30 2712 H 250.57 -1.2797 3.50254 0
M  V30 2713 N 252.755 -1.56801 0.158532 0
M  V30 2714 C 254.003 -1.96102 -0.488712 0
M  V30 2715 C 254.324 -1.04498 -1.64636 0
M  V30 2716 O 253.594 -0.108783 -1.95598 0
M  V30 2717 H 252.174 -0.724102 -0.183535 0
M  V30 2718 H 254.836 -1.93457 0.236728 0
M  V30 2719 H 253.932 -3.00097 -0.857219 0
M  V30 2720 N 254.233 0.115231 -1.57178 0
M  V30 2721 C 255.163 1.1423 -2.03651 0
M  V30 2722 C 256.144 1.42967 -0.921655 0
M  V30 2723 O 257.329 1.53343 -1.19162 0
M  V30 2724 C 254.459 2.4675 -2.44401 0
M  V30 2725 C 253.413 2.32467 -3.59365 0
M  V30 2726 C 252.739 3.69984 -3.86026 0
M  V30 2727 C 254.039 1.78203 -4.90959 0
M  V30 2728 H 255.733 0.755749 -2.89705 0
M  V30 2729 H 253.279 0.362093 -1.39373 0
M  V30 2730 H 255.232 3.18854 -2.75517 0
M  V30 2731 H 253.956 2.87302 -1.55322 0
M  V30 2732 H 252.615 1.62811 -3.28463 0
M  V30 2733 H 252.263 4.08028 -2.94147 0
M  V30 2734 H 251.963 3.61279 -4.63412 0
M  V30 2735 H 253.487 4.43587 -4.19599 0
M  V30 2736 H 254.901 2.40128 -5.20587 0
M  V30 2737 H 253.298 1.8031 -5.72371 0
M  V30 2738 H 254.368 0.739876 -4.79222 0
M  V30 2739 N 255.711 1.52812 0.385517 0
M  V30 2740 C 256.658 1.77838 1.47113 0
M  V30 2741 C 257.628 0.621757 1.54024 0
M  V30 2742 O 258.813 0.861846 1.70226 0
M  V30 2743 C 255.953 1.95618 2.84302 0
M  V30 2744 C 255.066 3.23316 2.86515 0
M  V30 2745 C 254.201 3.31394 4.15152 0
M  V30 2746 C 253.24 4.53201 4.1143 0
M  V30 2747 N 252.377 4.58542 5.3168 0
M  V30 2748 H 257.217 2.70482 1.25073 0
M  V30 2749 H 254.754 1.34006 0.606692 0
M  V30 2750 H 256.712 2.03912 3.63972 0
M  V30 2751 H 255.342 1.06331 3.04784 0
M  V30 2752 H 254.394 3.24076 1.99195 0
M  V30 2753 H 255.706 4.13045 2.79634 0
M  V30 2754 H 254.86 3.3889 5.03228 0
M  V30 2755 H 253.599 2.39645 4.24761 0
M  V30 2756 H 252.604 4.45827 3.21742 0
M  V30 2757 H 253.829 5.46271 4.03442 0
M  V30 2758 H 251.775 3.69686 5.41912 0
M  V30 2759 H 251.692 5.42148 5.26889 0
M  V30 2760 H 252.96 4.70296 6.21644 0
M  V30 2761 N 257.189 -0.644168 1.43834 0
M  V30 2762 C 258.419 -1.42939 1.49171 0
M  V30 2763 C 258.827 -1.88874 0.111048 0
M  V30 2764 O 258.17 -1.60656 -0.8908 0
M  V30 2765 C 258.232 -2.69151 2.38324 0
M  V30 2766 C 257.896 -2.45097 3.85715 0
M  V30 2767 C 258.893 -2.07747 4.76589 0
M  V30 2768 C 256.578 -2.59141 4.30292 0
M  V30 2769 C 258.572 -1.8475 6.10038 0
M  V30 2770 C 256.259 -2.35759 5.63792 0
M  V30 2771 C 257.257 -1.9862 6.53482 0
M  V30 2772 O 256.945 -1.75489 7.84512 0
M  V30 2773 H 256.677 -0.445271 0.508635 0
M  V30 2774 H 259.231 -0.79621 1.8934 0
M  V30 2775 H 257.461 -3.3506 1.93058 0
M  V30 2776 H 259.15 -3.31123 2.3476 0
M  V30 2777 H 259.916 -1.96465 4.43426 0
M  V30 2778 H 255.795 -2.87022 3.60749 0
M  V30 2779 H 259.339 -1.55686 6.80006 0
M  V30 2780 H 255.236 -2.46646 5.9652 0
M  V30 2781 H 256.004 -1.89841 7.9618 0
M  V30 2782 N 258.668 -1.30515 -0.883378 0
M  V30 2783 C 259.598 -1.19607 -2.00541 0
M  V30 2784 C 260.579 -0.086346 -1.69881 0
M  V30 2785 O 261.764 -0.268654 -1.92333 0
M  V30 2786 C 258.894 -0.888758 -3.35736 0
M  V30 2787 C 257.848 -1.95659 -3.8066 0
M  V30 2788 C 257.174 -1.50224 -5.13164 0
M  V30 2789 C 258.474 -3.36788 -3.99213 0
M  V30 2790 H 260.168 -2.13476 -2.09925 0
M  V30 2791 H 257.714 -1.02775 -1.00863 0
M  V30 2792 H 259.667 -0.799094 -4.13754 0
M  V30 2793 H 258.391 0.0856125 -3.26488 0
M  V30 2794 H 257.05 -2.03591 -3.04871 0
M  V30 2795 H 256.698 -0.516092 -5.00345 0
M  V30 2796 H 256.398 -2.2165 -5.44192 0
M  V30 2797 H 257.922 -1.42639 -5.93706 0
M  V30 2798 H 259.336 -3.31605 -4.67665 0
M  V30 2799 H 257.733 -4.06314 -4.41621 0
M  V30 2800 H 258.803 -3.78561 -3.03017 0
M  V30 2801 N 260.146 1.09593 -1.13257 0
M  V30 2802 C 261.096 2.14345 -0.777179 0
M  V30 2803 C 262.08 1.59277 0.227966 0
M  V30 2804 O 263.272 1.76971 0.0321413 0
M  V30 2805 C 260.401 3.42439 -0.242991 0
M  V30 2806 C 259.487 4.04419 -1.27694 0
M  V30 2807 N 259.878 4.40979 -2.47732 0
M  V30 2808 C 258.176 4.31596 -1.12432 0
M  V30 2809 C 258.877 4.89784 -3.13826 0
M  V30 2810 N 257.853 4.87133 -2.41252 0
M  V30 2811 H 261.655 2.40415 -1.69049 0
M  V30 2812 H 259.169 1.26803 -1.01463 0
M  V30 2813 H 261.166 4.16889 0.0298496 0
M  V30 2814 H 259.826 3.17824 0.66467 0
M  V30 2815 H 260.837 4.32396 -2.85051 0
M  V30 2816 H 257.514 4.16595 -0.274684 0
M  V30 2817 H 258.904 5.2755 -4.16102 0
M  V30 2818 N 261.624 0.925811 1.2754 0
M  V30 2819 C 262.556 0.380753 2.26015 0
M  V30 2820 C 263.569 -0.487485 1.5533 0
M  V30 2821 O 264.758 -0.300413 1.75954 0
M  V30 2822 C 261.858 -0.473259 3.35579 0
M  V30 2823 C 261.031 0.375249 4.35787 0
M  V30 2824 C 260.09 -0.415809 5.24555 0
M  V30 2825 O 259.116 0.175834 5.68928 0
M  V30 2826 N 260.318 -1.71607 5.54555 0
M  V30 2827 H 263.083 1.22725 2.73421 0
M  V30 2828 H 260.644 0.793037 1.41147 0
M  V30 2829 H 262.636 -1.00949 3.91907 0
M  V30 2830 H 261.206 -1.2205 2.87789 0
M  V30 2831 H 260.426 1.09279 3.7875 0
M  V30 2832 H 261.714 0.955399 4.99749 0
M  V30 2833 H 261.112 -2.2191 5.20358 0
M  V30 2834 H 259.669 -2.19887 6.1359 0
M  V30 2835 N 263.102 -1.41638 0.69111 0
M  V30 2836 C 264.518 -1.55435 0.362224 0
M  V30 2837 C 264.718 -1.66754 -1.13117 0
M  V30 2838 O 263.774 -1.64348 -1.91692 0
M  V30 2839 C 265.087 -2.79588 1.10684 0
M  V30 2840 C 266.635 -2.9338 1.09075 0
M  V30 2841 C 267.11 -4.20414 1.81703 0
M  V30 2842 N 268.601 -4.27362 1.7865 0
M  V30 2843 C 269.336 -5.24507 2.31689 0
M  V30 2844 N 268.832 -6.27708 2.93179 0
M  V30 2845 N 270.625 -5.16416 2.2197 0
M  V30 2846 H 262.776 -1.32536 1.65976 0
M  V30 2847 H 265.039 -0.639115 0.700168 0
M  V30 2848 H 264.745 -2.77419 2.16175 0
M  V30 2849 H 264.619 -3.70973 0.682545 0
M  V30 2850 H 267.006 -2.95067 0.0441238 0
M  V30 2851 H 267.087 -2.0318 1.55407 0
M  V30 2852 H 266.731 -4.19488 2.86343 0
M  V30 2853 H 266.661 -5.09578 1.32808 0
M  V30 2854 H 269.152 -3.53415 1.33815 0
M  V30 2855 H 269.465 -6.98217 3.31229 0
M  V30 2856 H 267.81 -6.28223 2.97255 0
M  V30 2857 H 271.001 -4.34716 1.73607 0
M  V30 2858 H 271.174 -5.91958 2.63609 0
M  V30 2859 N 264.58 -0.43555 -1.51462 0
M  V30 2860 C 265.828 0.131254 -2.01673 0
M  V30 2861 C 266.149 1.43368 -1.32177 0
M  V30 2862 O 265.419 1.90524 -0.455769 0
M  V30 2863 H 263.999 0.0514954 -0.745223 0
M  V30 2864 H 266.661 -0.577847 -1.86137 0
M  V30 2865 H 265.757 0.308446 -3.10572 0
M  V30 2866 N 266.058 1.56714 -0.166846 0
M  V30 2867 C 267.307 1.95922 0.479318 0
M  V30 2868 C 267.62 1.05529 1.6469 0
M  V30 2869 O 268.826 1.34399 2.35901 0
M  V30 2870 C 267.282 3.48359 0.90412 0
M  V30 2871 C 266.89 4.47369 -0.237621 0
M  V30 2872 C 268.634 3.96394 1.51896 0
M  V30 2873 C 266.541 5.91039 0.206561 0
M  V30 2874 H 265.471 0.731495 0.18284 0
M  V30 2875 H 268.122 1.81728 -0.254363 0
M  V30 2876 H 266.504 3.57955 1.69365 0
M  V30 2877 H 267.678 4.49485 -1.01489 0
M  V30 2878 H 265.993 4.09366 -0.762128 0
M  V30 2879 H 268.59 5.01186 1.86325 0
M  V30 2880 H 268.933 3.39075 2.41524 0
M  V30 2881 H 269.466 3.89796 0.79395 0
M  V30 2882 H 266.205 6.52221 -0.654834 0
M  V30 2883 H 265.725 5.9224 0.949282 0
M  V30 2884 H 267.404 6.43707 0.651939 0
M  V30 2885 N 267.536 -0.106894 1.57237 0
M  V30 2886 C 268.466 -1.13148 2.04254 0
M  V30 2887 C 269.447 -1.42476 0.929224 0
M  V30 2888 O 270.632 -1.52709 1.19973 0
M  V30 2889 C 267.762 -2.4545 2.45706 0
M  V30 2890 C 266.716 -2.30558 3.60592 0
M  V30 2891 C 266.042 -3.67931 3.87983 0
M  V30 2892 C 267.342 -1.75597 4.91897 0
M  V30 2893 H 269.036 -0.740374 2.90101 0
M  V30 2894 H 266.582 -0.354696 1.39563 0
M  V30 2895 H 268.535 -3.17389 2.77205 0
M  V30 2896 H 267.259 -2.86475 1.56843 0
M  V30 2897 H 265.918 -1.61067 3.29322 0
M  V30 2898 H 265.566 -4.06462 2.96306 0
M  V30 2899 H 265.266 -3.58817 4.65322 0
M  V30 2900 H 266.79 -4.41356 4.21945 0
M  V30 2901 H 268.204 -2.37364 5.21854 0
M  V30 2902 H 266.601 -1.77272 5.73319 0
M  V30 2903 H 267.671 -0.714451 4.79608 0
M  V30 2904 N 269.014 -1.53014 -0.377408 0
M  V30 2905 C 269.964 -1.74996 -1.46152 0
M  V30 2906 C 270.948 -0.604236 -1.49123 0
M  V30 2907 O 272.14 -0.862489 -1.54564 0
M  V30 2908 C 269.269 -1.93267 -2.8373 0
M  V30 2909 C 268.355 -3.13807 -2.85283 0
M  V30 2910 N 268.746 -4.35941 -2.56493 0
M  V30 2911 C 267.044 -3.14288 -3.16448 0
M  V30 2912 C 267.745 -5.17615 -2.65424 0
M  V30 2913 N 266.721 -4.53559 -2.99641 0
M  V30 2914 H 270.523 -2.67044 -1.22738 0
M  V30 2915 H 268.037 -1.51479 -0.585479 0
M  V30 2916 H 270.034 -2.0714 -3.61799 0
M  V30 2917 H 268.694 -1.0244 -3.08117 0
M  V30 2918 H 269.705 -4.63876 -2.30302 0
M  V30 2919 H 266.382 -2.33312 -3.46225 0
M  V30 2920 H 267.772 -6.25006 -2.46612 0
M  V30 2921 N 270.492 0.636531 -1.44174 0
M  V30 2922 C 271.908 0.954104 -1.27941 0
M  V30 2923 C 272.108 2.0039 -0.211248 0
M  V30 2924 O 271.164 2.49236 0.404695 0
M  V30 2925 C 272.477 1.4225 -2.64925 0
M  V30 2926 C 274.025 1.53827 -2.72592 0
M  V30 2927 C 274.5 2.04053 -4.10032 0
M  V30 2928 N 275.991 2.11331 -4.12182 0
M  V30 2929 C 276.726 2.51352 -5.15374 0
M  V30 2930 N 276.222 2.90549 -6.2893 0
M  V30 2931 N 278.015 2.51438 -5.02728 0
M  V30 2932 H 270.166 -0.0578386 -2.12321 0
M  V30 2933 H 272.429 0.0367406 -0.947288 0
M  V30 2934 H 272.135 0.725466 -3.44136 0
M  V30 2935 H 272.009 2.39451 -2.9145 0
M  V30 2936 H 274.396 2.22628 -1.93702 0
M  V30 2937 H 274.477 0.550154 -2.49814 0
M  V30 2938 H 274.121 1.35848 -4.89395 0
M  V30 2939 H 274.051 3.03726 -4.30184 0
M  V30 2940 H 276.542 1.83745 -3.30222 0
M  V30 2941 H 276.855 3.19884 -7.03487 0
M  V30 2942 H 275.2 2.88313 -6.32377 0
M  V30 2943 H 278.391 2.20203 -4.13072 0
M  V30 2944 H 278.564 2.82304 -5.83274 0
M  V30 2945 N 271.97 1.30982 0.876444 0
M  V30 2946 C 273.247 1.10942 1.61094 0
M  V30 2947 C 273.627 -0.338223 2.08373 0
M  V30 2948 O 272.975 -1.33122 1.85717 0
M  V30 2949 C 273.185 2.11789 2.77392 0
M  V30 2950 C 274.533 2.43965 3.47514 0
M  V30 2951 O 275.557 2.10166 2.87591 0
M  V30 2952 O 274.416 3.01817 4.55597 0
M  V30 2953 H 271.51 0.42667 0.708436 0
M  V30 2954 H 274.056 1.42438 0.922474 0
M  V30 2955 H 272.828 3.09194 2.39823 0
M  V30 2956 H 272.451 1.81161 3.5393 0
M  V30 2957 N 273.449 -1.08991 1.13837 0
M  V30 2958 C 274.379 -2.17771 0.842507 0
M  V30 2959 C 275.36 -1.6892 -0.20001 0
M  V30 2960 O 276.545 -1.94113 -0.0579731 0
M  V30 2961 C 273.675 -3.4589 0.312644 0
M  V30 2962 C 272.629 -4.08099 1.28992 0
M  V30 2963 C 271.955 -5.31098 0.619623 0
M  V30 2964 C 273.255 -4.50077 2.65005 0
M  V30 2965 H 274.949 -2.42777 1.75213 0
M  V30 2966 H 272.495 -1.16682 0.843875 0
M  V30 2967 H 274.448 -4.21297 0.0933043 0
M  V30 2968 H 273.172 -3.20419 -0.632382 0
M  V30 2969 H 271.831 -3.34717 1.49533 0
M  V30 2970 H 271.479 -5.0191 -0.33102 0
M  V30 2971 H 271.179 -5.73674 1.27167 0
M  V30 2972 H 272.703 -6.09224 0.409669 0
M  V30 2973 H 274.117 -5.16688 2.48407 0
M  V30 2974 H 272.514 -5.03553 3.26427 0
M  V30 2975 H 273.584 -3.62257 3.22332 0
M  V30 2976 N 274.927 -0.932562 -1.27047 0
M  V30 2977 C 275.874 -0.434072 -2.26681 0
M  V30 2978 C 276.844 0.501639 -1.58344 0
M  V30 2979 O 278.029 0.419734 -1.86126 0
M  V30 2980 C 275.169 0.30261 -3.43771 0
M  V30 2981 C 274.282 -0.667774 -4.26808 0
M  V30 2982 C 273.417 0.0892393 -5.31125 0
M  V30 2983 C 272.456 -0.873532 -6.05835 0
M  V30 2984 N 271.593 -0.148832 -7.01942 0
M  V30 2985 H 276.433 -1.28868 -2.68695 0
M  V30 2986 H 273.97 -0.646713 -1.32121 0
M  V30 2987 H 275.928 0.746092 -4.10474 0
M  V30 2988 H 274.558 1.12142 -3.02695 0
M  V30 2989 H 273.61 -1.22978 -3.59973 0
M  V30 2990 H 274.922 -1.40337 -4.78651 0
M  V30 2991 H 274.076 0.592409 -6.03801 0
M  V30 2992 H 272.815 0.85777 -4.80097 0
M  V30 2993 H 271.82 -1.38791 -5.31994 0
M  V30 2994 H 273.045 -1.64193 -6.58952 0
M  V30 2995 H 270.991 0.601365 -6.53238 0
M  V30 2996 H 270.908 -0.82391 -7.51497 0
M  V30 2997 H 272.176 0.333527 -7.78786 0
M  V30 2998 N 276.405 1.4127 -0.698611 0
M  V30 2999 C 277.335 2.33447 -0.049629 0
M  V30 3000 C 278.316 1.51982 0.763898 0
M  V30 3001 O 279.501 1.80509 0.716257 0
M  V30 3002 C 276.631 3.35828 0.885267 0
M  V30 3003 C 275.585 4.27627 0.178613 0
M  V30 3004 C 274.911 5.20406 1.22807 0
M  V30 3005 C 276.211 5.13459 -0.956933 0
M  V30 3006 H 277.905 2.87966 -0.81951 0
M  V30 3007 H 275.451 1.38461 -0.395538 0
M  V30 3008 H 277.404 3.9924 1.34854 0
M  V30 3009 H 276.128 2.79666 1.68685 0
M  V30 3010 H 274.787 3.65643 -0.26466 0
M  V30 3011 H 274.435 4.60558 2.02226 0
M  V30 3012 H 274.135 5.82661 0.760239 0
M  V30 3013 H 275.659 5.86695 1.69179 0
M  V30 3014 H 277.073 5.70421 -0.573805 0
M  V30 3015 H 275.47 5.8467 -1.35205 0
M  V30 3016 H 276.54 4.50443 -1.79524 0
M  V30 3017 N 277.883 0.443576 1.51229 0
M  V30 3018 C 279.131 -0.120557 2.0174 0
M  V30 3019 C 279.452 -1.42665 1.32935 0
M  V30 3020 O 278.722 -1.9028 0.465866 0
M  V30 3021 H 277.302 -0.0475426 0.745486 0
M  V30 3022 H 279.964 0.587711 1.85828 0
M  V30 3023 H 279.06 -0.291972 3.10731 0
M  V30 3024 N 279.361 -1.56624 0.175154 0
M  V30 3025 C 280.309 -2.19468 -0.770495 0
M  V30 3026 C 281.303 -1.15985 -1.23466 0
M  V30 3027 O 282.509 -1.34176 -1.19987 0
M  V30 3028 H 278.884 -0.703095 -0.266761 0
M  V30 3029 H 280.855 -2.97613 -0.216542 0
M  V30 3030 C 279.604 -2.85264 -1.98796 0
M  V30 3031 H 278.927 -3.64623 -1.63983 0
M  V30 3032 H 280.367 -3.327 -2.62843 0
M  V30 3033 C 278.826 -1.85239 -2.81404 0
M  V30 3034 O 279.356 -1.34024 -3.78682 0
M  V30 3035 N 277.562 -1.53911 -2.46495 0
M  V30 3036 H 277.109 -1.95751 -1.67449 0
M  V30 3037 H 277.067 -0.872382 -3.02054 0
M  V30 3038 N 280.839 0.0985539 -1.57292 0
M  V30 3039 C 282.086 0.802678 -1.85912 0
M  V30 3040 C 282.414 1.78901 -0.763186 0
M  V30 3041 O 281.669 1.94178 0.243559 0
M  V30 3042 C 281.968 1.56927 -3.21105 0
M  V30 3043 C 281.634 0.725376 -4.45027 0
M  V30 3044 C 280.296 0.492726 -4.78671 0
M  V30 3045 C 282.648 0.138493 -5.21016 0
M  V30 3046 C 279.976 -0.336727 -5.85733 0
M  V30 3047 C 282.328 -0.678264 -6.28953 0
M  V30 3048 C 280.992 -0.921039 -6.61115 0
M  V30 3049 H 280.262 0.293721 -0.680301 0
M  V30 3050 H 282.909 0.0642841 -1.91392 0
M  V30 3051 H 281.214 2.37914 -3.11294 0
M  V30 3052 H 282.911 2.11841 -3.40477 0
M  V30 3053 H 279.501 0.916815 -4.18679 0
M  V30 3054 H 283.685 0.305404 -4.95359 0
M  V30 3055 H 278.941 -0.533836 -6.09065 0
M  V30 3056 H 283.115 -1.1399 -6.87007 0
M  V30 3057 H 280.742 -1.56556 -7.43905 0
M  V30 3058 N 282.317 1.53212 0.369288 0
M  V30 3059 C 283.564 1.69215 1.11232 0
M  V30 3060 C 283.892 0.442048 1.8941 0
M  V30 3061 O 283.147 -0.575944 1.87033 0
M  V30 3062 C 283.446 2.89101 2.10132 0
M  V30 3063 C 283.112 4.25758 1.48463 0
M  V30 3064 C 281.774 4.6292 1.31372 0
M  V30 3065 C 284.126 5.10757 1.03811 0
M  V30 3066 C 281.454 5.82722 0.68207 0
M  V30 3067 C 283.806 6.31201 0.420487 0
M  V30 3068 C 282.47 6.67079 0.237038 0
M  V30 3069 H 281.74 0.619201 0.407027 0
M  V30 3070 H 284.387 1.87391 0.394552 0
M  V30 3071 H 282.692 2.65421 2.88199 0
M  V30 3072 H 284.389 2.98676 2.6757 0
M  V30 3073 H 280.979 3.96494 1.62758 0
M  V30 3074 H 285.163 4.82599 1.1581 0
M  V30 3075 H 280.419 6.09113 0.528316 0
M  V30 3076 H 284.593 6.96368 0.0662874 0
M  V30 3077 H 282.22 7.59774 -0.254477 0
M  V30 3078 N 283.795 -0.628877 1.44509 0
M  V30 3079 C 285.044 -1.38437 1.4669 0
M  V30 3080 C 285.357 -1.95322 0.104272 0
M  V30 3081 O 286.563 -2.715 0.00362163 0
M  V30 3082 C 285.019 -2.50659 2.5826 0
M  V30 3083 C 284.627 -2.00277 4.0074 0
M  V30 3084 C 286.371 -3.27844 2.69664 0
M  V30 3085 C 284.278 -3.09854 5.0373 0
M  V30 3086 H 283.208 -0.520245 0.545766 0
M  V30 3087 H 285.859 -0.676313 1.70582 0
M  V30 3088 H 284.241 -3.2405 2.27612 0
M  V30 3089 H 285.415 -1.33736 4.40966 0
M  V30 3090 H 283.73 -1.35901 3.93599 0
M  V30 3091 H 286.327 -4.09534 3.43781 0
M  V30 3092 H 286.67 -3.77471 1.75559 0
M  V30 3093 H 287.203 -2.61543 2.99733 0
M  V30 3094 H 283.942 -2.65168 5.99472 0
M  V30 3095 H 283.462 -3.7503 4.68095 0
M  V30 3096 H 285.141 -3.74592 5.27532 0
M  V30 3097 N 285.273 -1.31445 -0.869486 0
M  V30 3098 C 286.501 -1.24122 -1.65534 0
M  V30 3099 C 286.916 0.193387 -1.87807 0
M  V30 3100 O 286.273 1.12557 -1.43656 0
M  V30 3101 C 286.324 -1.98229 -3.02304 0
M  V30 3102 O 286.045 -3.3609 -2.81026 0
M  V30 3103 C 287.546 -1.97751 -3.96749 0
M  V30 3104 H 284.766 -0.428868 -0.516055 0
M  V30 3105 H 287.31 -1.73328 -1.08525 0
M  V30 3106 H 285.465 -1.52782 -3.56001 0
M  V30 3107 H 285.879 -3.7383 -3.67902 0
M  V30 3108 H 287.353 -2.54114 -4.90031 0
M  V30 3109 H 287.83 -0.960137 -4.28577 0
M  V30 3110 H 288.436 -2.43079 -3.48988 0
M  V30 3111 N 286.751 1.08385 -1.14413 0
M  V30 3112 C 287.661 2.18856 -0.844951 0
M  V30 3113 C 288.677 1.73121 0.174668 0
M  V30 3114 O 289.853 2.014 0.00312857 0
M  V30 3115 C 286.918 3.45155 -0.32696 0
M  V30 3116 C 285.979 4.05513 -1.40916 0
M  V30 3117 C 285.212 5.25784 -0.915793 0
M  V30 3118 O 285.435 5.69884 0.242651 0
M  V30 3119 O 284.369 5.77545 -1.69487 0
M  V30 3120 H 288.195 2.46919 -1.76818 0
M  V30 3121 H 285.78 1.17524 -0.922411 0
M  V30 3122 H 287.662 4.21377 -0.0440211 0
M  V30 3123 H 286.337 3.18668 0.568539 0
M  V30 3124 H 285.244 3.30879 -1.74556 0
M  V30 3125 H 286.577 4.3625 -2.27919 0
M  V30 3126 N 288.23 0.939286 1.26551 0
M  V30 3127 C 289.178 0.43815 2.28436 0
M  V30 3128 C 290.172 -0.483587 1.62351 0
M  V30 3129 O 291.378 -0.362009 1.76322 0
M  V30 3130 H 287.753 0.123149 0.741848 0
M  V30 3131 H 289.724 1.31002 2.68106 0
M  V30 3132 C 288.473 -0.283052 3.46546 0
M  V30 3133 H 287.796 0.417043 3.97619 0
M  V30 3134 H 289.236 -0.597948 4.19763 0
M  V30 3135 C 287.695 -1.50018 3.01656 0
M  V30 3136 O 288.225 -2.59855 3.0633 0
M  V30 3137 N 286.431 -1.35608 2.57019 0
M  V30 3138 H 285.978 -0.46244 2.53415 0
M  V30 3139 H 285.936 -2.17165 2.27347 0
M  V30 3140 N 289.708 -1.40897 0.706093 0
M  V30 3141 C 290.641 -2.282 -0.00328781 0
M  V30 3142 C 291.619 -1.42816 -0.77732 0
M  V30 3143 O 292.803 -1.72237 -0.765944 0
M  V30 3144 C 289.93 -3.23226 -1.01205 0
M  V30 3145 C 288.976 -4.25222 -0.329955 0
M  V30 3146 S 289.809 -5.27269 0.935298 0
M  V30 3147 C 290.965 -6.25859 -0.0716061 0
M  V30 3148 H 291.198 -2.88016 0.737143 0
M  V30 3149 H 288.731 -1.46191 0.496756 0
M  V30 3150 H 290.689 -3.78503 -1.58888 0
M  V30 3151 H 289.35 -2.62485 -1.72513 0
M  V30 3152 H 288.543 -4.92023 -1.09221 0
M  V30 3153 H 288.145 -3.73595 0.174069 0
M  V30 3154 H 290.437 -6.71204 -0.921521 0
M  V30 3155 H 291.38 -7.0586 0.562765 0
M  V30 3156 H 291.788 -5.62852 -0.431088 0
M  V30 3157 N 291.186 -0.45159 -1.50991 0
M  V30 3158 C 292.096 0.358431 -2.31846 0
M  V30 3159 C 293.112 1.01438 -1.41373 0
M  V30 3160 O 294.288 1.00663 -1.74439 0
M  V30 3161 C 291.353 1.43704 -3.15515 0
M  V30 3162 C 290.414 0.799742 -4.21785 0
M  V30 3163 C 289.647 1.82696 -5.01456 0
M  V30 3164 O 289.87 3.05105 -4.81941 0
M  V30 3165 O 288.804 1.40958 -5.85162 0
M  V30 3166 H 292.63 -0.302032 -3.02194 0
M  V30 3167 H 290.215 -0.213825 -1.47862 0
M  V30 3168 H 292.097 2.06227 -3.67489 0
M  V30 3169 H 290.772 2.08133 -2.47916 0
M  V30 3170 H 289.679 0.136084 -3.73852 0
M  V30 3171 H 291.012 0.198718 -4.91799 0
M  V30 3172 N 292.664 1.56529 -0.183458 0
M  V30 3173 C 293.594 2.21549 0.737456 0
M  V30 3174 C 294.575 1.17489 1.23005 0
M  V30 3175 O 295.76 1.45959 1.281 0
M  V30 3176 C 292.89 2.86575 1.96194 0
M  V30 3177 C 291.844 3.96778 1.60473 0
M  V30 3178 C 291.17 4.48911 2.90487 0
M  V30 3179 C 292.47 5.15767 0.823497 0
M  V30 3180 H 294.164 2.98761 0.195453 0
M  V30 3181 H 291.71 1.43702 0.0925686 0
M  V30 3182 H 293.663 3.30739 2.61131 0
M  V30 3183 H 292.387 2.06749 2.52828 0
M  V30 3184 H 291.046 3.53286 0.978997 0
M  V30 3185 H 290.694 3.65862 3.45186 0
M  V30 3186 H 290.394 5.23265 2.67335 0
M  V30 3187 H 291.918 4.95771 3.56432 0
M  V30 3188 H 293.332 5.56549 1.37571 0
M  V30 3189 H 291.729 5.96114 0.690551 0
M  V30 3190 H 292.799 4.84574 -0.177782 0
M  V30 3191 N 294.142 -0.090211 1.57342 0
M  V30 3192 C 295.089 -1.10909 2.02405 0
M  V30 3193 C 296.059 -1.39523 0.901252 0
M  V30 3194 O 297.244 -1.50903 1.1676 0
M  V30 3195 C 294.384 -2.42277 2.45755 0
M  V30 3196 C 293.497 -2.20352 3.71576 0
M  V30 3197 C 292.632 -3.45154 4.03785 0
M  V30 3198 C 291.671 -3.18512 5.22701 0
M  V30 3199 N 290.808 -4.35593 5.50639 0
M  V30 3200 H 295.648 -0.71782 2.89225 0
M  V30 3201 H 293.185 -0.342901 1.43048 0
M  V30 3202 H 295.143 -3.18951 2.68935 0
M  V30 3203 H 293.773 -2.79242 1.61938 0
M  V30 3204 H 292.825 -1.34458 3.55844 0
M  V30 3205 H 294.137 -1.96661 4.58395 0
M  V30 3206 H 293.291 -4.30233 4.27767 0
M  V30 3207 H 292.03 -3.71904 3.15498 0
M  V30 3208 H 291.035 -2.31827 4.98534 0
M  V30 3209 H 292.26 -2.93103 6.12591 0
M  V30 3210 H 290.206 -4.6241 4.6531 0
M  V30 3211 H 290.123 -4.1511 6.31838 0
M  V30 3212 H 291.391 -5.21723 5.7916 0
M  V30 3213 N 295.62 -1.53406 -0.361157 0
M  V30 3214 C 296.866 -1.70054 -1.10496 0
M  V30 3215 C 297.199 -0.453278 -1.88836 0
M  V30 3216 O 296.474 0.5495 -1.86576 0
M  V30 3217 C 296.757 -2.95317 -2.06058 0
M  V30 3218 C 296.61 -4.3021 -1.31298 0
M  V30 3219 C 297.929 -3.16193 -3.06121 0
M  V30 3220 H 295.048 -0.618799 -0.400321 0
M  V30 3221 H 297.69 -1.86052 -0.385318 0
M  V30 3222 H 295.84 -2.81809 -2.67425 0
M  V30 3223 H 297.512 -4.55538 -0.726807 0
M  V30 3224 H 295.755 -4.29421 -0.614853 0
M  V30 3225 H 296.426 -5.14 -2.01265 0
M  V30 3226 H 298.902 -3.28916 -2.5486 0
M  V30 3227 H 297.778 -4.05266 -3.70204 0
M  V30 3228 H 298.039 -2.31676 -3.76535 0
M  V30 3229 N 297.098 0.621204 -1.44841 0
M  V30 3230 C 298.346 1.37783 -1.47852 0
M  V30 3231 C 298.667 1.94653 -0.116224 0
M  V30 3232 O 297.937 1.76367 0.852737 0
M  V30 3233 H 296.517 0.511453 -0.544449 0
M  V30 3234 H 299.179 0.730446 -1.80694 0
M  V30 3235 H 298.275 2.20414 -2.20961 0
M  V30 3236 N 298.576 1.31904 0.862503 0
M  V30 3237 C 299.853 1.12644 1.59908 0
M  V30 3238 C 300.233 -0.316104 2.0872 0
M  V30 3239 O 299.581 -1.31145 1.87118 0
M  V30 3240 C 299.791 2.1472 2.7513 0
M  V30 3241 C 301.139 2.47637 3.44907 0
M  V30 3242 O 302.163 2.13205 2.85346 0
M  V30 3243 O 301.022 3.06632 4.52371 0
M  V30 3244 H 298.116 0.43416 0.703871 0
M  V30 3245 H 300.662 1.43408 0.907314 0
M  V30 3246 H 299.434 3.1172 2.3653 0
M  V30 3247 H 299.057 1.84905 3.51989 0
M  V30 3248 N 300.054 -1.07777 1.14986 0
M  V30 3249 C 301.301 -1.8029 0.922056 0
M  V30 3250 C 301.629 -1.86531 -0.55105 0
M  V30 3251 O 300.884 -1.34189 -1.42449 0
M  V30 3252 C 301.183 -3.25495 1.47608 0
M  V30 3253 C 300.849 -3.39361 2.96893 0
M  V30 3254 C 299.511 -3.42852 3.37647 0
M  V30 3255 C 301.863 -3.42512 3.92854 0
M  V30 3256 C 299.191 -3.47094 4.73015 0
M  V30 3257 C 301.543 -3.4829 5.28088 0
M  V30 3258 C 300.207 -3.50058 5.68345 0
M  V30 3259 H 299.477 -0.659727 0.337404 0
M  V30 3260 H 302.124 -1.26854 1.43459 0
M  V30 3261 H 300.429 -3.81683 0.88463 0
M  V30 3262 H 302.126 -3.80168 1.27568 0
M  V30 3263 H 298.716 -3.37339 2.64387 0
M  V30 3264 H 302.9 -3.3904 3.62444 0
M  V30 3265 H 298.156 -3.46758 5.03556 0
M  V30 3266 H 302.33 -3.49675 6.02246 0
M  V30 3267 H 299.957 -3.53097 6.73221 0
M  V30 3268 N 301.532 -0.945985 -1.26051 0
M  V30 3269 C 302.78 -0.594941 -1.93145 0
M  V30 3270 C 303.101 0.86953 -1.7454 0
M  V30 3271 O 302.371 1.61838 -1.10387 0
M  V30 3272 H 300.951 -0.217044 -0.714773 0
M  V30 3273 H 303.613 -1.20235 -1.53393 0
M  V30 3274 H 302.709 -0.816835 -3.01221 0
M  V30 3275 N 303.011 1.40521 -0.713556 0
M  V30 3276 C 303.941 2.33381 -0.0743864 0
M  V30 3277 C 304.922 1.52784 0.747735 0
M  V30 3278 O 306.107 1.81258 0.697071 0
M  V30 3279 C 303.237 3.36748 0.849598 0
M  V30 3280 C 302.191 4.27793 0.133247 0
M  V30 3281 C 301.517 5.21679 1.17281 0
M  V30 3282 C 302.817 5.12415 -1.01134 0
M  V30 3283 H 304.511 2.87081 -0.850007 0
M  V30 3284 H 302.057 1.38034 -0.410201 0
M  V30 3285 H 304.01 4.00648 1.30612 0
M  V30 3286 H 302.734 2.81439 1.65709 0
M  V30 3287 H 301.393 3.65342 -0.303426 0
M  V30 3288 H 301.041 4.62677 1.9733 0
M  V30 3289 H 300.741 5.83435 0.698397 0
M  V30 3290 H 302.265 5.88456 1.62947 0
M  V30 3291 H 303.679 5.69781 -0.634274 0
M  V30 3292 H 302.076 5.83203 -1.41399 0
M  V30 3293 H 303.146 4.48514 -1.84292 0
M  V30 3294 N 304.489 0.459591 1.5075 0
M  V30 3295 C 305.452 -0.329093 2.26825 0
M  V30 3296 C 306.452 -0.930481 1.31144 0
M  V30 3297 O 307.642 -0.801453 1.54669 0
M  V30 3298 C 304.774 -1.46768 3.07688 0
M  V30 3299 H 305.967 0.337924 2.9799 0
M  V30 3300 H 303.52 0.213336 1.54837 0
M  V30 3301 H 304.255 -2.17009 2.40993 0
M  V30 3302 H 304.04 -1.04238 3.77991 0
M  V30 3303 H 305.53 -2.02433 3.65254 0
M  V30 3304 N 305.967 -1.56429 0.191757 0
M  V30 3305 C 306.93 -2.17707 -0.716688 0
M  V30 3306 C 307.93 -1.13061 -1.14341 0
M  V30 3307 O 309.12 -1.38464 -1.05704 0
M  V30 3308 C 306.252 -2.77644 -1.97804 0
M  V30 3309 H 307.445 -2.99342 -0.1829 0
M  V30 3310 H 304.998 -1.56193 -0.0578566 0
M  V30 3311 H 305.733 -1.99799 -2.55443 0
M  V30 3312 H 305.518 -3.54246 -1.68083 0
M  V30 3313 H 307.008 -3.24708 -2.62592 0
M  V30 3314 N 307.445 0.0818655 -1.57387 0
M  V30 3315 C 308.861 0.436412 -1.53517 0
M  V30 3316 C 309.061 1.79758 -0.910459 0
M  V30 3317 O 308.117 2.47324 -0.508636 0
M  V30 3318 C 309.43 0.386734 -2.98203 0
M  V30 3319 C 310.978 0.467644 -3.09487 0
M  V30 3320 C 311.453 0.447978 -4.55804 0
M  V30 3321 N 312.944 0.508348 -4.60402 0
M  V30 3322 C 313.679 0.515184 -5.71081 0
M  V30 3323 N 313.175 0.477435 -6.91153 0
M  V30 3324 N 314.968 0.560988 -5.59294 0
M  V30 3325 H 307.119 -0.809546 -1.96367 0
M  V30 3326 H 309.382 -0.302733 -0.898363 0
M  V30 3327 H 309.088 -0.546539 -3.47427 0
M  V30 3328 H 308.962 1.20075 -3.57578 0
M  V30 3329 H 311.349 1.39134 -2.60242 0
M  V30 3330 H 311.43 -0.374753 -2.5304 0
M  V30 3331 H 311.074 -0.471826 -5.05704 0
M  V30 3332 H 311.004 1.30777 -5.10103 0
M  V30 3333 H 313.495 0.54218 -3.7399 0
M  V30 3334 H 313.808 0.486299 -7.71268 0
M  V30 3335 H 312.153 0.444278 -6.93579 0
M  V30 3336 H 315.344 0.5881 -4.64391 0
M  V30 3337 H 315.517 0.562846 -6.45551 0
M  V30 3338 N 308.923 1.53595 0.353017 0
M  V30 3339 C 309.853 1.83902 1.43883 0
M  V30 3340 C 310.834 0.693421 1.55324 0
M  V30 3341 O 312.019 0.944452 1.69687 0
M  V30 3342 C 309.149 2.04016 2.8106 0
M  V30 3343 C 308.103 3.19814 2.84434 0
M  V30 3344 C 307.429 3.25244 4.24406 0
M  V30 3345 C 308.729 4.58133 2.50822 0
M  V30 3346 H 310.423 2.74835 1.1877 0
M  V30 3347 H 307.969 1.32242 0.569917 0
M  V30 3348 H 309.922 2.238 3.57059 0
M  V30 3349 H 308.646 1.09804 3.07588 0
M  V30 3350 H 307.305 2.9987 2.10887 0
M  V30 3351 H 306.953 2.28646 4.48029 0
M  V30 3352 H 306.653 4.03054 4.27576 0
M  V30 3353 H 308.177 3.47228 5.0226 0
M  V30 3354 H 309.591 4.77995 3.16534 0
M  V30 3355 H 307.988 5.38276 2.6529 0
M  V30 3356 H 309.058 4.62387 1.46034 0
M  V30 3357 N 310.401 -0.613514 1.45168 0
M  V30 3358 C 311.311 -1.75296 1.55912 0
M  V30 3359 C 312.327 -1.68244 0.443856 0
M  V30 3360 O 313.503 -1.88706 0.70371 0
M  V30 3361 C 310.568 -3.1174 1.5172 0
M  V30 3362 C 309.629 -3.30291 2.74238 0
M  V30 3363 C 308.862 -4.60226 2.70236 0
M  V30 3364 O 309.085 -5.42168 1.77229 0
M  V30 3365 O 308.019 -4.81361 3.61352 0
M  V30 3366 H 311.845 -1.69183 2.52212 0
M  V30 3367 H 309.43 -0.776886 1.27612 0
M  V30 3368 H 311.312 -3.93044 1.51968 0
M  V30 3369 H 309.987 -3.18357 0.585697 0
M  V30 3370 H 308.894 -2.48598 2.79553 0
M  V30 3371 H 310.227 -3.28547 3.66494 0
M  V30 3372 N 311.879 -1.3236 -0.855495 0
M  V30 3373 C 313.29 -1.2056 -1.42556 0
M  V30 3374 C 313.641 0.182209 -1.95352 0
M  V30 3375 O 312.766 1.08088 -1.87472 0
M  V30 3376 C 313.361 -2.1826 -2.59129 0
M  V30 3377 C 311.92 -2.10351 -3.12137 0
M  V30 3378 C 311.067 -2.06674 -1.84882 0
M  V30 3379 H 314.018 -1.442 -0.662727 0
M  V30 3380 H 314.039 -1.78064 -3.36264 0
M  V30 3381 H 313.551 -3.19257 -2.20673 0
M  V30 3382 H 311.652 -1.12599 -3.55179 0
M  V30 3383 H 311.765 -3.00135 -3.73438 0
M  V30 3384 H 310.129 -1.51901 -2.04446 0
M  V30 3385 H 310.912 -3.09451 -1.48643 0
M  V30 3386 N 313.357 1.07166 -1.15556 0
M  V30 3387 C 314.768 1.6127 -0.940693 0
M  V30 3388 C 315.119 1.89251 0.517551 0
M  V30 3389 O 314.244 1.65937 1.38903 0
M  V30 3390 C 314.839 2.92993 -1.7012 0
M  V30 3391 C 313.398 3.43832 -1.53156 0
M  V30 3392 C 312.545 2.1786 -1.71558 0
M  V30 3393 H 315.496 0.90229 -1.30554 0
M  V30 3394 H 315.517 3.62007 -1.17181 0
M  V30 3395 H 315.029 2.72596 -2.76248 0
M  V30 3396 H 313.13 3.69307 -0.494294 0
M  V30 3397 H 313.243 4.19747 -2.30975 0
M  V30 3398 H 311.607 2.2765 -1.14225 0
M  V30 3399 H 312.39 1.99956 -2.79056 0
M  V30 3400 N 314.835 0.952656 1.25548 0
M  V30 3401 C 315.745 0.47782 2.29682 0
M  V30 3402 C 316.761 -0.453859 1.67977 0
M  V30 3403 O 317.937 -0.330587 1.98668 0
M  V30 3404 C 315.002 -0.238655 3.45878 0
M  V30 3405 C 314.063 0.730994 4.23031 0
M  V30 3406 C 313.296 0.0486165 5.33678 0
M  V30 3407 O 313.519 -1.16612 5.58353 0
M  V30 3408 O 312.453 0.733152 5.97418 0
M  V30 3409 H 316.279 1.34312 2.72386 0
M  V30 3410 H 313.864 0.719026 1.30959 0
M  V30 3411 H 315.746 -0.641774 4.16484 0
M  V30 3412 H 314.421 -1.07916 3.05181 0
M  V30 3413 H 313.328 1.18428 3.5486 0
M  V30 3414 H 314.661 1.53946 4.67506 0
M  V30 3415 N 316.313 -1.40141 0.720998 0
M  V30 3416 C 317.245 -2.29177 0.0324669 0
M  V30 3417 C 318.258 -1.46105 -0.718126 0
M  V30 3418 O 319.447 -1.69335 -0.564608 0
M  V30 3419 C 316.547 -3.24473 -0.978292 0
M  V30 3420 C 315.72 -4.36423 -0.292115 0
M  V30 3421 C 314.779 -5.12122 -1.20901 0
M  V30 3422 O 313.805 -5.64981 -0.691766 0
M  V30 3423 N 315.007 -5.21992 -2.53978 0
M  V30 3424 H 317.772 -2.88909 0.796984 0
M  V30 3425 H 315.333 -1.51569 0.569068 0
M  V30 3426 H 317.325 -3.71987 -1.59398 0
M  V30 3427 H 315.895 -2.65871 -1.64413 0
M  V30 3428 H 315.115 -3.90967 0.503847 0
M  V30 3429 H 316.403 -5.08467 0.183971 0
M  V30 3430 H 315.801 -4.8054 -2.98493 0
M  V30 3431 H 314.358 -5.72995 -3.10677 0
M  V30 3432 N 317.792 -0.46758 -1.50504 0
M  V30 3433 C 319.208 -0.121533 -1.59137 0
M  V30 3434 C 319.408 1.3717 -1.47603 0
M  V30 3435 O 318.464 2.14464 -1.33272 0
M  V30 3436 C 319.777 -0.6686 -2.93173 0
M  V30 3437 C 321.325 -0.631716 -3.06559 0
M  V30 3438 C 321.8 -1.15627 -4.43164 0
M  V30 3439 N 323.291 -1.11553 -4.49567 0
M  V30 3440 C 324.026 -1.49195 -5.5365 0
M  V30 3441 N 323.522 -1.94269 -6.65005 0
M  V30 3442 N 325.315 -1.4082 -5.44175 0
M  V30 3443 H 317.466 -1.4388 -1.56245 0
M  V30 3444 H 319.729 -0.594784 -0.738198 0
M  V30 3445 H 319.435 -1.71453 -3.07078 0
M  V30 3446 H 319.309 -0.11021 -3.77039 0
M  V30 3447 H 321.696 0.405297 -2.92304 0
M  V30 3448 H 321.777 -1.22687 -2.24458 0
M  V30 3449 H 321.421 -2.1919 -4.58168 0
M  V30 3450 H 321.351 -0.537365 -5.23851 0
M  V30 3451 H 323.842 -0.784895 -3.69659 0
M  V30 3452 H 324.155 -2.21148 -7.40482 0
M  V30 3453 H 322.5 -1.98219 -6.66134 0
M  V30 3454 H 325.691 -1.0545 -4.56068 0
M  V30 3455 H 325.864 -1.70481 -6.25172 0
M  V30 3456 N 319.27 1.56325 -0.20005 0
M  V30 3457 C 320.217 2.1932 0.718833 0
M  V30 3458 C 321.187 1.14198 1.20615 0
M  V30 3459 O 322.372 1.42469 1.26914 0
M  V30 3460 C 319.512 2.86041 1.93066 0
M  V30 3461 C 318.625 4.05702 1.48425 0
M  V30 3462 C 317.76 4.60266 2.65196 0
M  V30 3463 C 316.799 5.72273 2.17185 0
M  V30 3464 N 315.936 6.21221 3.27152 0
M  V30 3465 H 320.776 2.97486 0.17489 0
M  V30 3466 H 318.313 1.46911 0.0745794 0
M  V30 3467 H 320.271 3.22897 2.64184 0
M  V30 3468 H 318.901 2.1043 2.44783 0
M  V30 3469 H 317.953 3.74475 0.668755 0
M  V30 3470 H 319.265 4.86699 1.09204 0
M  V30 3471 H 318.419 4.99453 3.4443 0
M  V30 3472 H 317.158 3.78386 3.07693 0
M  V30 3473 H 316.163 5.3261 1.36407 0
M  V30 3474 H 317.388 6.55974 1.75713 0
M  V30 3475 H 315.334 5.42263 3.69171 0
M  V30 3476 H 315.251 6.97284 2.92116 0
M  V30 3477 H 316.519 6.65063 4.06585 0
M  V30 3478 N 320.748 -0.0735177 1.57428 0
M  V30 3479 C 321.695 -1.08756 2.0357 0
M  V30 3480 C 322.665 -1.38559 0.916 0
M  V30 3481 O 323.85 -1.49656 1.18354 0
M  V30 3482 C 320.99 -2.39657 2.48311 0
M  V30 3483 C 320.103 -2.16399 3.73892 0
M  V30 3484 C 319.238 -3.40852 4.07423 0
M  V30 3485 C 318.277 -3.1295 5.2605 0
M  V30 3486 N 317.414 -4.29729 5.55228 0
M  V30 3487 H 322.254 -0.687104 2.8997 0
M  V30 3488 H 319.791 -0.327709 1.43403 0
M  V30 3489 H 321.749 -3.16081 2.72303 0
M  V30 3490 H 320.379 -2.77508 1.64891 0
M  V30 3491 H 319.431 -1.30676 3.57251 0
M  V30 3492 H 320.743 -1.91788 4.60455 0
M  V30 3493 H 319.897 -4.25671 4.32306 0
M  V30 3494 H 318.636 -3.68537 3.19425 0
M  V30 3495 H 317.641 -2.26526 5.00965 0
M  V30 3496 H 318.866 -2.86589 6.15665 0
M  V30 3497 H 316.812 -4.57448 4.70188 0
M  V30 3498 H 316.729 -4.08385 6.36206 0
M  V30 3499 H 317.997 -5.1555 5.84661 0
M  V30 3500 N 322.226 -1.5378 -0.344866 0
M  V30 3501 C 323.454 -1.74899 -1.10534 0
M  V30 3502 C 323.869 -0.487534 -1.82397 0
M  V30 3503 O 323.226 0.540741 -1.74305 0
M  V30 3504 C 323.277 -2.92822 -2.11984 0
M  V30 3505 O 322.998 -4.14089 -1.43044 0
M  V30 3506 C 324.499 -3.25982 -3.00417 0
M  V30 3507 H 321.719 -0.584426 -0.329678 0
M  V30 3508 H 324.263 -2.006 -0.397474 0
M  V30 3509 H 322.418 -2.69457 -2.78338 0
M  V30 3510 H 322.832 -4.80272 -2.10805 0
M  V30 3511 H 324.306 -4.11848 -3.67539 0
M  V30 3512 H 324.783 -2.42228 -3.66363 0
M  V30 3513 H 325.389 -3.51349 -2.39654 0
M  V30 3514 N 323.704 0.605807 -1.45491 0
M  V30 3515 C 324.953 1.36086 -1.48874 0
M  V30 3516 C 325.266 1.95131 -0.135333 0
M  V30 3517 O 326.472 2.7146 -0.0468144 0
M  V30 3518 C 324.928 2.46518 -2.62215 0
M  V30 3519 C 324.536 1.93877 -4.03876 0
M  V30 3520 C 326.28 3.23512 -2.74846 0
M  V30 3521 C 324.187 3.01801 -5.08596 0
M  V30 3522 H 323.117 0.511497 -0.553974 0
M  V30 3523 H 325.768 0.649089 -1.71636 0
M  V30 3524 H 324.15 3.20388 -2.32739 0
M  V30 3525 H 325.324 1.26704 -4.43038 0
M  V30 3526 H 323.639 1.29622 -3.95711 0
M  V30 3527 H 326.236 4.04013 -3.50253 0
M  V30 3528 H 326.579 3.74631 -1.81542 0
M  V30 3529 H 327.112 2.56742 -3.03856 0
M  V30 3530 H 323.851 2.55597 -6.03614 0
M  V30 3531 H 323.371 3.67535 -4.74002 0
M  V30 3532 H 325.05 3.66152 -5.33424 0
M  V30 3533 N 325.182 1.32811 0.848464 0
M  V30 3534 C 326.422 1.25046 1.61687 0
M  V30 3535 C 326.786 -0.183464 1.91121 0
M  V30 3536 O 327.987 -0.384937 2.66029 0
M  V30 3537 C 326.258 2.09201 2.89775 0
M  V30 3538 S 327.817 2.18526 3.80515 0
M  V30 3539 H 324.635 0.445023 0.554505 0
M  V30 3540 H 327.237 1.67733 1.00429 0
M  V30 3541 H 325.941 3.12433 2.66108 0
M  V30 3542 H 325.472 1.67315 3.56047 0
M  V30 3543 H 327.487 1.3393 4.77784 0
M  V30 3544 N 326.66 -1.06551 1.16123 0
M  V30 3545 C 327.908 -1.78947 0.939267 0
M  V30 3546 C 328.229 -1.87532 -0.534476 0
M  V30 3547 O 327.499 -1.38211 -1.38833 0
M  V30 3548 H 326.079 -0.662807 0.344523 0
M  V30 3549 H 328.741 -1.28725 1.46342 0
M  V30 3550 H 327.837 -2.81117 1.35572 0
M  V30 3551 N 328.138 -0.959301 -1.25041 0
M  V30 3552 C 329.366 -0.633949 -1.96948 0
M  V30 3553 C 329.781 0.794916 -1.7125 0
M  V30 3554 O 329.138 1.53231 -0.991287 0
M  V30 3555 C 329.189 -0.888805 -3.50403 0
M  V30 3556 O 328.91 -2.26149 -3.75218 0
M  V30 3557 C 330.411 -0.576482 -4.39536 0
M  V30 3558 H 327.631 -0.237263 -0.627652 0
M  V30 3559 H 330.175 -1.28495 -1.59089 0
M  V30 3560 H 328.33 -0.284145 -3.86357 0
M  V30 3561 H 328.744 -2.33514 -4.6965 0
M  V30 3562 H 330.218 -0.805314 -5.46094 0
M  V30 3563 H 330.695 0.489075 -4.36468 0
M  V30 3564 H 331.301 -1.16067 -4.09156 0
M  V30 3565 N 329.616 1.39756 -0.72842 0
M  V30 3566 C 331.027 1.83498 -0.344289 0
M  V30 3567 C 331.378 1.60868 1.12321 0
M  V30 3568 O 330.503 1.09634 1.86573 0
M  V30 3569 C 331.098 3.33114 -0.618112 0
M  V30 3570 C 329.657 3.753 -0.287549 0
M  V30 3571 C 328.804 2.62831 -0.884048 0
M  V30 3572 H 331.755 1.28842 -0.926578 0
M  V30 3573 H 331.776 3.80334 0.112349 0
M  V30 3574 H 331.288 3.49553 -1.68625 0
M  V30 3575 H 329.389 3.64451 0.775012 0
M  V30 3576 H 329.502 4.72945 -0.765512 0
M  V30 3577 H 327.866 2.52792 -0.311149 0
M  V30 3578 H 328.649 2.82078 -1.95671 0
M  V30 3579 N 331.094 0.475555 1.50254 0
M  V30 3580 C 332.042 -0.330276 2.30243 0
M  V30 3581 C 333.036 -0.986306 1.37726 0
M  V30 3582 O 334.242 -0.9169 1.54897 0
M  V30 3583 H 330.617 -0.125353 0.741479 0
M  V30 3584 H 332.588 0.364702 2.96163 0
M  V30 3585 C 331.337 -1.39704 3.18399 0
M  V30 3586 H 330.66 -0.901621 3.89501 0
M  V30 3587 H 332.1 -1.93336 3.77355 0
M  V30 3588 C 330.559 -2.4014 2.36293 0
M  V30 3589 O 331.089 -3.45504 2.04914 0
M  V30 3590 N 329.295 -2.1197 1.98789 0
M  V30 3591 H 328.842 -1.2631 2.24507 0
M  V30 3592 H 328.8 -2.79403 1.44157 0
M  V30 3593 N 332.573 -1.56217 0.208337 0
M  V30 3594 C 333.803 -2.02043 -0.431523 0
M  V30 3595 C 334.211 -1.08755 -1.54819 0
M  V30 3596 O 333.554 -0.0870009 -1.83494 0
M  V30 3597 C 333.616 -3.44239 -1.03633 0
M  V30 3598 C 333.28 -4.56965 -0.0567502 0
M  V30 3599 C 334.277 -5.14624 0.738773 0
M  V30 3600 C 331.962 -5.02266 0.0581736 0
M  V30 3601 C 333.956 -6.16045 1.63605 0
M  V30 3602 C 331.643 -6.03528 0.959001 0
M  V30 3603 C 332.641 -6.60293 1.7465 0
M  V30 3604 O 332.329 -7.59586 2.6322 0
M  V30 3605 H 332.061 -0.666772 -0.111313 0
M  V30 3606 H 334.615 -2.02919 0.318277 0
M  V30 3607 H 332.845 -3.40391 -1.83497 0
M  V30 3608 H 334.534 -3.73793 -1.58221 0
M  V30 3609 H 335.3 -4.80483 0.660364 0
M  V30 3610 H 331.179 -4.57771 -0.544633 0
M  V30 3611 H 334.723 -6.60279 2.25116 0
M  V30 3612 H 330.62 -6.37092 1.03848 0
M  V30 3613 H 331.388 -7.77057 2.57148 0
M  V30 3614 N 334.051 0.0651679 -1.57465 0
M  V30 3615 C 335.297 0.764193 -1.87851 0
M  V30 3616 C 335.63 1.76889 -0.801495 0
M  V30 3617 O 334.905 1.93594 0.187528 0
M  V30 3618 C 335.188 1.46625 -3.28897 0
M  V30 3619 C 335.041 0.477515 -4.47258 0
M  V30 3620 C 336.36 2.4095 -3.68281 0
M  V30 3621 H 333.479 0.276351 -0.683227 0
M  V30 3622 H 336.121 0.0272868 -1.8998 0
M  V30 3623 H 334.271 2.09438 -3.27212 0
M  V30 3624 H 335.943 -0.145922 -4.61069 0
M  V30 3625 H 334.186 -0.206576 -4.33308 0
M  V30 3626 H 334.857 1.0065 -5.42746 0
M  V30 3627 H 337.333 1.88209 -3.71102 0
M  V30 3628 H 336.209 2.87072 -4.67847 0
M  V30 3629 H 336.47 3.26049 -2.98571 0
M  V30 3630 N 335.529 1.53961 0.336706 0
M  V30 3631 C 336.492 1.81724 1.39675 0
M  V30 3632 C 337.492 0.688532 1.45313 0
M  V30 3633 O 338.682 0.956829 1.45569 0
M  V30 3634 C 335.814 1.96543 2.78538 0
M  V30 3635 H 337.007 2.76424 1.16318 0
M  V30 3636 H 334.56 1.45478 0.571474 0
M  V30 3637 H 335.295 1.0401 3.07168 0
M  V30 3638 H 335.08 2.78665 2.75841 0
M  V30 3639 H 336.57 2.19516 3.5525 0
M  V30 3640 N 337.007 -0.598083 1.45811 0
M  V30 3641 C 338.418 -1.18011 1.44673 0
M  V30 3642 C 338.769 -1.95378 0.179364 0
M  V30 3643 O 337.894 -2.04124 -0.718509 0
M  V30 3644 C 338.489 -2.14677 2.62105 0
M  V30 3645 C 337.048 -2.68236 2.64057 0
M  V30 3646 C 336.195 -1.43816 2.37091 0
M  V30 3647 H 339.146 -0.38686 1.53913 0
M  V30 3648 H 339.167 -2.97878 2.36746 0
M  V30 3649 H 338.679 -1.5834 3.5433 0
M  V30 3650 H 336.78 -3.28486 1.75864 0
M  V30 3651 H 336.893 -3.12021 3.63566 0
M  V30 3652 H 335.257 -1.731 1.86838 0
M  V30 3653 H 336.04 -0.893333 3.31473 0
M  V30 3654 N 338.485 -1.33259 -0.841409 0
M  V30 3655 C 339.395 -1.25332 -1.98316 0
M  V30 3656 C 340.411 -0.164364 -1.73222 0
M  V30 3657 O 341.587 -0.387486 -1.97637 0
M  V30 3658 C 338.652 -0.990078 -3.32262 0
M  V30 3659 C 337.713 -2.16879 -3.70489 0
M  V30 3660 C 336.946 -1.91801 -4.98044 0
M  V30 3661 O 337.169 -0.867075 -5.63771 0
M  V30 3662 O 336.103 -2.78267 -5.33714 0
M  V30 3663 H 339.929 -2.21344 -2.07944 0
M  V30 3664 H 337.514 -1.1328 -0.974058 0
M  V30 3665 H 339.396 -0.860321 -4.12524 0
M  V30 3666 H 338.071 -0.0602155 -3.23644 0
M  V30 3667 H 336.978 -2.35407 -2.90748 0
M  V30 3668 H 338.311 -3.0819 -3.8377 0
M  V30 3669 N 339.963 1.05934 -1.16686 0
M  V30 3670 C 341.209 1.79065 -0.95203 0
M  V30 3671 C 341.542 1.87147 0.518629 0
M  V30 3672 O 340.817 1.36574 1.38484 0
M  V30 3673 C 341.1 3.23359 -1.58464 0
M  V30 3674 C 340.953 3.23336 -3.12689 0
M  V30 3675 C 342.272 4.21004 -1.28232 0
M  V30 3676 H 339.391 0.65005 -0.34728 0
M  V30 3677 H 342.033 1.23868 -1.44072 0
M  V30 3678 H 340.183 3.70493 -1.16908 0
M  V30 3679 H 341.855 2.84336 -3.6325 0
M  V30 3680 H 340.098 2.61886 -3.4583 0
M  V30 3681 H 340.769 4.25144 -3.52075 0
M  V30 3682 H 343.245 3.8233 -1.64203 0
M  V30 3683 H 342.121 5.20225 -1.75092 0
M  V30 3684 H 342.382 4.41639 -0.201791 0
M  V30 3685 N 341.441 0.965919 1.2453 0
M  V30 3686 C 342.371 0.513476 2.27784 0
M  V30 3687 C 343.352 -0.445974 1.6415 0
M  V30 3688 O 344.537 -0.342485 1.91156 0
M  V30 3689 C 341.667 -0.198839 3.4673 0
M  V30 3690 C 340.621 0.676456 4.2262 0
M  V30 3691 C 339.947 -0.167248 5.34438 0
M  V30 3692 C 341.247 1.96017 4.84123 0
M  V30 3693 H 342.941 1.3765 2.65881 0
M  V30 3694 H 340.487 0.663321 1.27813 0
M  V30 3695 H 342.44 -0.526567 4.18097 0
M  V30 3696 H 341.164 -1.0962 3.07654 0
M  V30 3697 H 339.823 0.98743 3.53052 0
M  V30 3698 H 339.471 -1.0647 4.91603 0
M  V30 3699 H 339.171 0.415181 5.86131 0
M  V30 3700 H 340.695 -0.489688 6.08633 0
M  V30 3701 H 342.109 1.69814 5.47573 0
M  V30 3702 H 340.506 2.48918 5.4604 0
M  V30 3703 H 341.576 2.65622 4.05676 0
M  V30 3704 N 342.919 -1.39368 0.735821 0
M  V30 3705 C 343.849 -2.33234 0.111506 0
M  V30 3706 C 344.83 -1.53954 -0.723334 0
M  V30 3707 O 346.015 -1.82344 -0.668147 0
M  V30 3708 C 343.145 -3.38057 -0.795917 0
M  V30 3709 C 342.099 -4.2795 -0.065172 0
M  V30 3710 C 341.425 -5.23479 -1.08967 0
M  V30 3711 C 342.725 -5.10741 1.09273 0
M  V30 3712 H 344.419 -2.85692 0.895571 0
M  V30 3713 H 341.965 -1.37364 0.432109 0
M  V30 3714 H 343.918 -4.02675 -1.24221 0
M  V30 3715 H 342.642 -2.8404 -1.61211 0
M  V30 3716 H 341.301 -3.64813 0.361511 0
M  V30 3717 H 340.949 -4.65758 -1.89944 0
M  V30 3718 H 340.649 -5.84472 -0.605489 0
M  V30 3719 H 342.173 -5.90974 -1.53565 0
M  V30 3720 H 343.587 -5.68699 0.724841 0
M  V30 3721 H 341.984 -5.8088 1.50659 0
M  V30 3722 H 343.054 -4.45525 1.91404 0
M  V30 3723 N 344.397 -0.483516 -1.5 0
M  V30 3724 C 345.813 -0.138404 -1.58999 0
M  V30 3725 C 346.013 1.35597 -1.4905 0
M  V30 3726 O 345.069 2.13039 -1.35539 0
M  V30 3727 C 346.382 -0.699658 -2.92447 0
M  V30 3728 C 347.93 -0.664195 -3.05872 0
M  V30 3729 C 348.405 -1.20321 -4.41913 0
M  V30 3730 N 349.896 -1.16315 -4.48358 0
M  V30 3731 C 350.631 -1.55058 -5.52037 0
M  V30 3732 N 350.127 -2.01311 -6.62907 0
M  V30 3733 N 351.92 -1.46584 -5.42651 0
M  V30 3734 H 344.071 -1.45529 -1.5471 0
M  V30 3735 H 346.334 -0.60258 -0.731848 0
M  V30 3736 H 346.04 -1.747 -3.05242 0
M  V30 3737 H 345.914 -0.150194 -3.76901 0
M  V30 3738 H 348.301 0.374272 -2.92717 0
M  V30 3739 H 348.382 -1.25061 -2.23144 0
M  V30 3740 H 348.026 -2.24037 -4.55818 0
M  V30 3741 H 347.956 -0.592896 -5.23252 0
M  V30 3742 H 350.447 -0.824058 -3.68806 0
M  V30 3743 H 350.76 -2.2899 -7.38095 0
M  V30 3744 H 349.105 -2.05273 -6.63994 0
M  V30 3745 H 352.296 -1.10281 -4.54924 0
M  V30 3746 H 352.469 -1.77103 -6.23329 0
M  V30 3747 N 345.875 1.56104 -0.216619 0
M  V30 3748 C 346.807 2.17339 0.72776 0
M  V30 3749 C 347.82 1.14109 1.16116 0
M  V30 3750 O 349.009 1.4111 1.09317 0
M  V30 3751 C 346.109 2.73818 1.99693 0
M  V30 3752 C 345.282 4.02168 1.71988 0
M  V30 3753 C 344.341 4.43259 2.83562 0
M  V30 3754 O 343.367 5.10257 2.52244 0
M  V30 3755 N 344.569 4.08535 4.12407 0
M  V30 3756 H 347.334 2.99005 0.203983 0
M  V30 3757 H 344.895 1.61861 -0.0354289 0
M  V30 3758 H 346.887 2.9828 2.73516 0
M  V30 3759 H 345.457 1.96483 2.43132 0
M  V30 3760 H 344.677 3.85612 0.818337 0
M  V30 3761 H 345.965 4.85907 1.50903 0
M  V30 3762 H 345.363 3.54687 4.40696 0
M  V30 3763 H 343.92 4.37901 4.8279 0
M  V30 3764 N 347.353 -0.0568162 1.57498 0
M  V30 3765 C 348.601 -0.751617 1.87604 0
M  V30 3766 C 348.922 -1.77351 0.81066 0
M  V30 3767 O 348.192 -1.95254 -0.159018 0
M  V30 3768 H 346.772 -0.280583 0.692302 0
M  V30 3769 H 349.434 -0.0293483 1.94878 0
M  V30 3770 H 348.53 -1.25852 2.856 0
M  V30 3771 N 348.832 -1.54138 -0.328536 0
M  V30 3772 C 349.782 -1.79557 -1.4051 0
M  V30 3773 C 350.766 -0.651373 -1.47126 0
M  V30 3774 O 351.958 -0.911226 -1.51742 0
M  V30 3775 C 349.087 -2.02196 -2.77438 0
M  V30 3776 C 348.173 -3.22724 -2.75155 0
M  V30 3777 N 348.564 -4.43881 -2.42494 0
M  V30 3778 C 346.862 -3.24196 -3.06289 0
M  V30 3779 C 347.563 -5.25797 -2.48822 0
M  V30 3780 N 346.539 -4.62862 -2.8506 0
M  V30 3781 H 350.341 -2.70814 -1.1418 0
M  V30 3782 H 347.855 -1.53265 -0.536991 0
M  V30 3783 H 349.852 -2.18546 -3.55026 0
M  V30 3784 H 348.512 -1.12191 -3.04702 0
M  V30 3785 H 349.523 -4.70969 -2.15428 0
M  V30 3786 H 346.2 -2.44208 -3.38627 0
M  V30 3787 H 347.59 -6.32535 -2.26603 0
M  V30 3788 N 350.31 0.590341 -1.46126 0
M  V30 3789 C 351.558 1.34616 -1.50742 0
M  V30 3790 C 351.879 1.94363 -0.157486 0
M  V30 3791 O 351.149 1.78136 0.815136 0
M  V30 3792 H 349.729 0.499789 -0.555175 0
M  V30 3793 H 352.391 0.691953 -1.82203 0
M  V30 3794 H 351.487 2.15678 -2.25587 0
M  V30 3795 N 351.788 1.33704 0.83433 0
M  V30 3796 C 353.199 1.22813 1.4062 0
M  V30 3797 C 353.55 -0.151107 1.95617 0
M  V30 3798 O 352.675 -1.05092 1.89168 0
M  V30 3799 C 353.27 2.22355 2.55624 0
M  V30 3800 C 351.829 2.1529 3.08751 0
M  V30 3801 C 350.976 2.09589 1.8157 0
M  V30 3802 H 353.927 1.45236 0.639702 0
M  V30 3803 H 353.948 1.83391 3.33389 0
M  V30 3804 H 353.46 3.22728 2.15566 0
M  V30 3805 H 351.561 1.18235 3.53343 0
M  V30 3806 H 351.674 3.06038 3.68616 0
M  V30 3807 H 350.038 1.55134 2.02004 0
M  V30 3808 H 350.821 3.11777 1.43701 0
M  V30 3809 N 353.266 -1.05314 1.17247 0
M  V30 3810 C 354.176 -2.16538 0.90268 0
M  V30 3811 C 355.192 -1.73523 -0.128707 0
M  V30 3812 O 356.368 -2.01337 0.0502701 0
M  V30 3813 C 353.433 -3.44167 0.418356 0
M  V30 3814 C 352.494 -4.01635 1.51618 0
M  V30 3815 C 351.727 -5.23171 1.05487 0
M  V30 3816 O 351.95 -5.70327 -0.0914715 0
M  V30 3817 O 350.884 -5.72848 1.8474 0
M  V30 3818 H 354.71 -2.42145 1.83302 0
M  V30 3819 H 352.295 -1.15037 0.953246 0
M  V30 3820 H 354.177 -4.21112 0.155726 0
M  V30 3821 H 352.852 -3.20063 -0.48385 0
M  V30 3822 H 351.759 -3.26135 1.83268 0
M  V30 3823 H 353.092 -4.30053 2.39405 0
M  V30 3824 N 354.744 -0.972509 -1.24016 0
M  V30 3825 C 355.707 -0.511403 -2.23422 0
M  V30 3826 C 356.707 0.394679 -1.55881 0
M  V30 3827 O 357.897 0.189469 -1.73167 0
M  V30 3828 C 355.029 0.258769 -3.39916 0
M  V30 3829 H 356.222 -1.39024 -2.6573 0
M  V30 3830 H 353.775 -0.757585 -1.36713 0
M  V30 3831 H 354.51 1.1545 -3.03054 0
M  V30 3832 H 354.295 -0.391522 -3.9014 0
M  V30 3833 H 355.785 0.570244 -4.13688 0
M  V30 3834 N 356.222 1.38976 -0.743202 0
M  V30 3835 C 357.499 1.94351 -0.220705 0
M  V30 3836 C 357.879 1.67935 1.2791 0
M  V30 3837 O 357.227 1.01211 2.04862 0
M  V30 3838 C 357.437 3.44426 -0.563171 0
M  V30 3839 C 358.785 4.2144 -0.517046 0
M  V30 3840 O 359.809 3.52661 -0.500846 0
M  V30 3841 O 358.668 5.44032 -0.518806 0
M  V30 3842 H 355.762 0.825879 -0.043047 0
M  V30 3843 H 358.308 1.48429 -0.822618 0
M  V30 3844 H 357.08 3.5712 -1.59941 0
M  V30 3845 H 356.703 3.97543 0.0672883 0
M  V30 3846 N 357.7 0.491464 1.49741 0
M  V30 3847 C 358.946 -0.0565092 2.02721 0
M  V30 3848 C 359.279 -1.37522 1.37118 0
M  V30 3849 O 358.554 -1.87866 0.503645 0
M  V30 3850 C 358.837 -0.219051 3.59433 0
M  V30 3851 C 358.69 1.12211 4.35579 0
M  V30 3852 C 360.009 -0.964157 4.29409 0
M  V30 3853 H 357.128 -0.0190627 0.736753 0
M  V30 3854 H 359.77 0.641021 1.7886 0
M  V30 3855 H 357.92 -0.813165 3.79895 0
M  V30 3856 H 359.592 1.75437 4.26637 0
M  V30 3857 H 357.835 1.71377 3.98513 0
M  V30 3858 H 358.506 0.961794 5.43556 0
M  V30 3859 H 360.982 -0.460378 4.13545 0
M  V30 3860 H 359.858 -1.04671 5.38828 0
M  V30 3861 H 360.119 -2.00563 3.93988 0
M  V30 3862 N 359.178 -1.55987 0.224894 0
M  V30 3863 C 360.424 -1.99433 -0.39973 0
M  V30 3864 C 360.779 -1.11004 -1.57149 0
M  V30 3865 O 360.072 -0.160725 -1.90925 0
M  V30 3866 C 360.266 -3.46394 -0.880106 0
M  V30 3867 C 360.095 -4.4904 0.243565 0
M  V30 3868 C 358.865 -5.00272 0.711056 0
M  V30 3869 C 361.063 -5.03195 1.06299 0
M  V30 3870 N 359.045 -5.86628 1.80944 0
M  V30 3871 C 360.416 -5.86508 2.01017 0
M  V30 3872 C 362.471 -4.8555 1.10205 0
M  V30 3873 C 361.174 -6.54062 2.99324 0
M  V30 3874 C 363.2 -5.53866 2.07332 0
M  V30 3875 C 362.562 -6.3695 3.00789 0
M  V30 3876 H 358.661 -0.773815 -0.112847 0
M  V30 3877 H 361.245 -1.91754 0.337432 0
M  V30 3878 H 359.416 -3.54515 -1.58662 0
M  V30 3879 H 361.148 -3.76752 -1.47783 0
M  V30 3880 H 357.903 -4.72655 0.29906 0
M  V30 3881 H 358.327 -6.34507 2.36073 0
M  V30 3882 H 362.969 -4.20966 0.39343 0
M  V30 3883 H 360.687 -7.17827 3.71147 0
M  V30 3884 H 364.273 -5.42178 2.11032 0
M  V30 3885 H 363.153 -6.8888 3.74718 0
M  V30 3886 N 360.656 0.0484629 -1.57525 0
M  V30 3887 C 361.881 0.759177 -1.93006 0
M  V30 3888 C 362.306 1.69125 -0.823317 0
M  V30 3889 O 361.664 1.79931 0.222364 0
M  V30 3890 C 361.712 1.50899 -3.27509 0
M  V30 3891 O 360.816 2.62112 -3.18388 0
M  V30 3892 H 360.157 0.205564 -0.631379 0
M  V30 3893 H 362.687 0.00972959 -2.04598 0
M  V30 3894 H 362.697 1.88317 -3.6194 0
M  V30 3895 H 361.372 0.825269 -4.0763 0
M  V30 3896 H 359.949 2.27379 -2.95556 0
M  V30 3897 N 362.134 1.5431 0.320358 0
M  V30 3898 C 363.064 1.86912 1.3995 0
M  V30 3899 C 364.045 0.726211 1.53819 0
M  V30 3900 O 365.23 0.980233 1.67646 0
M  V30 3901 C 362.36 2.09932 2.7667 0
M  V30 3902 C 361.314 3.25776 2.77586 0
M  V30 3903 C 360.64 3.34173 4.17412 0
M  V30 3904 C 361.94 4.6335 2.41048 0
M  V30 3905 H 363.634 2.77292 1.12914 0
M  V30 3906 H 361.18 1.33421 0.541738 0
M  V30 3907 H 363.133 2.31324 3.52232 0
M  V30 3908 H 361.857 1.16304 3.0519 0
M  V30 3909 H 360.516 3.04276 2.04479 0
M  V30 3910 H 360.164 2.38098 4.43078 0
M  V30 3911 H 359.864 4.12033 4.18931 0
M  V30 3912 H 361.388 3.57803 4.94782 0
M  V30 3913 H 362.802 4.84602 3.06324 0
M  V30 3914 H 361.199 5.43782 2.53813 0
M  V30 3915 H 362.269 4.65381 1.36193 0
M  V30 3916 N 363.613 -0.582584 1.46437 0
M  V30 3917 C 364.861 -1.33814 1.51453 0
M  V30 3918 C 365.182 -1.94277 0.167792 0
M  V30 3919 O 364.452 -1.78566 -0.805677 0
M  V30 3920 H 363.032 -0.496838 0.557818 0
M  V30 3921 H 365.694 -0.682281 1.82568 0
M  V30 3922 H 364.79 -2.14479 2.26728 0
M  V30 3923 N 365.091 -1.34144 -0.827227 0
M  V30 3924 C 366.331 -1.27603 -1.59677 0
M  V30 3925 C 366.695 0.153035 -1.91389 0
M  V30 3926 O 367.896 0.342566 -2.66608 0
M  V30 3927 C 366.167 -2.13784 -2.86411 0
M  V30 3928 S 367.726 -2.24552 -3.76991 0
M  V30 3929 H 364.544 -0.453789 -0.547354 0
M  V30 3930 H 367.146 -1.69309 -0.977479 0
M  V30 3931 H 365.85 -3.16627 -2.61104 0
M  V30 3932 H 365.381 -1.72959 -3.5334 0
M  V30 3933 H 367.396 -1.41514 -4.75593 0
M  V30 3934 N 366.569 1.04691 -1.17803 0
M  V30 3935 C 367.815 1.78045 -0.970969 0
M  V30 3936 C 368.148 1.87686 0.498751 0
M  V30 3937 O 367.423 1.38035 1.37027 0
M  V30 3938 C 367.706 3.2166 -1.61884 0
M  V30 3939 C 367.559 3.20001 -3.161 0
M  V30 3940 C 368.878 4.1962 -1.3269 0
M  V30 3941 H 365.997 0.64633 -0.354155 0
M  V30 3942 H 368.639 1.22333 -1.45378 0
M  V30 3943 H 366.789 3.69232 -1.20831 0
M  V30 3944 H 368.461 2.80467 -3.66246 0
M  V30 3945 H 366.704 2.58203 -3.48588 0
M  V30 3946 H 367.375 4.21386 -3.56564 0
M  V30 3947 H 369.851 3.80567 -1.68249 0
M  V30 3948 H 368.727 5.18339 -1.80599 0
M  V30 3949 H 368.988 4.414 -0.248622 0
M  V30 3950 N 368.047 0.979072 1.23499 0
M  V30 3951 C 368.98 0.463027 2.23453 0
M  V30 3952 C 369.958 -0.469128 1.55685 0
M  V30 3953 O 371.142 -0.397882 1.84253 0
M  V30 3954 C 368.269 -0.330308 3.37086 0
M  V30 3955 C 367.315 0.545795 4.22993 0
M  V30 3956 S 368.148 1.99285 4.97037 0
M  V30 3957 C 369.304 1.20862 6.1412 0
M  V30 3958 H 369.537 1.31005 2.6688 0
M  V30 3959 H 367.07 0.784965 1.32957 0
M  V30 3960 H 369.028 -0.782027 4.02982 0
M  V30 3961 H 367.689 -1.15244 2.92194 0
M  V30 3962 H 366.882 -0.0638928 5.03959 0
M  V30 3963 H 366.484 0.933705 3.62157 0
M  V30 3964 H 368.776 0.469284 6.75873 0
M  V30 3965 H 369.719 1.99307 6.79472 0
M  V30 3966 H 370.127 0.727992 5.59786 0
M  V30 3967 N 369.525 -1.3858 0.750561 0
M  V30 3968 C 370.755 -2.04175 0.31564 0
M  V30 3969 C 371.163 -1.56726 -1.05989 0
M  V30 3970 O 370.506 -0.734225 -1.68389 0
M  V30 3971 C 370.568 -3.58585 0.256389 0
M  V30 3972 C 370.232 -4.29077 1.57296 0
M  V30 3973 C 371.229 -4.54656 2.52159 0
M  V30 3974 C 368.914 -4.67324 1.84156 0
M  V30 3975 C 370.908 -5.17512 3.72103 0
M  V30 3976 C 368.595 -5.29905 3.04374 0
M  V30 3977 C 369.593 -5.54933 3.98168 0
M  V30 3978 O 369.281 -6.16212 5.16273 0
M  V30 3979 H 369.013 -0.662742 0.133226 0
M  V30 3980 H 371.567 -1.78313 1.01948 0
M  V30 3981 H 369.797 -3.83406 -0.503677 0
M  V30 3982 H 371.486 -4.05628 -0.148612 0
M  V30 3983 H 372.252 -4.25539 2.32683 0
M  V30 3984 H 368.131 -4.47191 1.11988 0
M  V30 3985 H 371.675 -5.36963 4.45327 0
M  V30 3986 H 367.572 -5.58444 3.23745 0
M  V30 3987 H 368.34 -6.34701 5.16815 0
M  V30 3988 N 371.003 -0.499398 -1.49478 0
M  V30 3989 C 372.231 0.0425456 -2.06856 0
M  V30 3990 C 372.646 1.30964 -1.35992 0
M  V30 3991 O 372.003 1.77172 -0.437762 0
M  V30 3992 C 372.054 0.301735 -3.60239 0
M  V30 3993 O 371.775 -0.915127 -4.28436 0
M  V30 3994 C 373.276 0.887499 -4.34325 0
M  V30 3995 H 370.496 -0.0197482 -0.670709 0
M  V30 3996 H 373.04 -0.696297 -1.92281 0
M  V30 3997 H 371.195 0.990556 -3.74522 0
M  V30 3998 H 371.609 -0.676993 -5.20113 0
M  V30 3999 H 373.083 1.01845 -5.42523 0
M  V30 4000 H 373.56 1.88488 -3.96698 0
M  V30 4001 H 374.166 0.236196 -4.24644 0
M  V30 4002 N 372.481 1.55866 -0.233164 0
M  V30 4003 C 373.411 2.23783 0.666599 0
M  V30 4004 C 374.392 1.21343 1.19205 0
M  V30 4005 O 375.577 1.4996 1.23392 0
M  V30 4006 C 372.707 2.92671 1.86978 0
M  V30 4007 C 371.661 4.01682 1.47768 0
M  V30 4008 C 370.987 4.57926 2.76058 0
M  V30 4009 C 372.287 5.18126 0.658993 0
M  V30 4010 H 373.981 2.99232 0.100306 0
M  V30 4011 H 371.527 1.43924 0.046804 0
M  V30 4012 H 373.48 3.3888 2.50476 0
M  V30 4013 H 372.204 2.14688 2.46123 0
M  V30 4014 H 370.863 3.56222 0.866106 0
M  V30 4015 H 370.511 3.76659 3.33372 0
M  V30 4016 H 370.211 5.31505 2.50552 0
M  V30 4017 H 371.735 5.06859 3.40479 0
M  V30 4018 H 373.149 5.60644 1.19795 0
M  V30 4019 H 371.546 5.98009 0.500552 0
M  V30 4020 H 372.616 4.83763 -0.331856 0
M  V30 4021 N 373.959 -0.0401083 1.57549 0
M  V30 4022 C 374.889 -1.04384 2.08869 0
M  V30 4023 C 375.87 -1.38407 0.988817 0
M  V30 4024 O 377.055 -1.47483 1.26342 0
M  V30 4025 C 374.185 -2.34808 2.55895 0
M  V30 4026 C 373.139 -2.15057 3.70047 0
M  V30 4027 C 372.465 -3.51145 4.03239 0
M  V30 4028 C 373.765 -1.54576 4.98902 0
M  V30 4029 H 375.459 -0.616666 2.92981 0
M  V30 4030 H 373.005 -0.295184 1.40942 0
M  V30 4031 H 374.958 -3.05346 2.90417 0
M  V30 4032 H 373.682 -2.79565 1.68853 0
M  V30 4033 H 372.341 -1.46954 3.35857 0
M  V30 4034 H 371.989 -3.93529 3.13279 0
M  V30 4035 H 371.689 -3.38758 4.80122 0
M  V30 4036 H 373.213 -4.23062 4.40285 0
M  V30 4037 H 374.627 -2.15017 5.31451 0
M  V30 4038 H 373.024 -1.52796 5.80322 0
M  V30 4039 H 374.094 -0.51039 4.82206 0
M  V30 4040 N 375.437 -1.54477 -0.31217 0
M  V30 4041 C 376.677 -1.74958 -1.05684 0
M  V30 4042 C 377.041 -0.518414 -1.84869 0
M  V30 4043 O 378.242 -0.600759 -2.62001 0
M  V30 4044 C 376.513 -2.99656 -1.94785 0
M  V30 4045 S 378.072 -3.4109 -2.76049 0
M  V30 4046 H 374.89 -0.615104 -0.356606 0
M  V30 4047 H 377.492 -1.92669 -0.331514 0
M  V30 4048 H 376.196 -3.87397 -1.35468 0
M  V30 4049 H 375.727 -2.845 -2.71704 0
M  V30 4050 H 377.742 -2.97283 -3.97287 0
M  V30 4051 N 376.915 0.57481 -1.46744 0
M  V30 4052 C 378.163 1.33009 -1.52161 0
M  V30 4053 C 378.484 1.94185 -0.178092 0
M  V30 4054 O 377.754 1.7899 0.796196 0
M  V30 4055 H 376.334 0.493873 -0.560445 0
M  V30 4056 H 378.996 0.672589 -1.82927 0
M  V30 4057 H 378.092 2.13273 -2.27862 0
M  V30 4058 N 378.394 1.34581 0.820102 0
M  V30 4059 C 379.619 1.30333 1.61332 0
M  V30 4060 C 380.044 -0.119339 1.87721 0
M  V30 4061 O 379.402 -1.08197 1.45475 0
M  V30 4062 C 379.45 2.10258 2.92957 0
M  V30 4063 O 378.554 1.47404 3.85157 0
M  V30 4064 H 377.895 0.447488 0.490561 0
M  V30 4065 H 380.425 1.77425 1.01889 0
M  V30 4066 H 380.435 2.21718 3.42498 0
M  V30 4067 H 379.11 3.13693 2.73074 0
M  V30 4068 H 377.687 1.44703 3.43679 0
M  V30 4069 N 379.872 -1.04064 1.18357 0
M  V30 4070 C 381.283 -1.58719 0.98312 0
M  V30 4071 C 381.634 -1.90556 -0.467193 0
M  V30 4072 O 380.759 -1.69561 -1.34454 0
M  V30 4073 C 381.354 -2.88379 1.77828 0
M  V30 4074 C 379.913 -3.3965 1.62218 0
M  V30 4075 C 379.06 -2.13235 1.77274 0
M  V30 4076 H 382.011 -0.867359 1.32901 0
M  V30 4077 H 382.032 -3.58773 1.26737 0
M  V30 4078 H 381.544 -2.65176 2.83379 0
M  V30 4079 H 379.645 -3.67866 0.592036 0
M  V30 4080 H 379.758 -4.13475 2.42023 0
M  V30 4081 H 378.122 -2.24542 1.20221 0
M  V30 4082 H 378.905 -1.92487 2.8426 0
M  V30 4083 N 381.35 -0.985608 -1.22978 0
M  V30 4084 C 382.761 -0.693593 -1.73338 0
M  V30 4085 C 383.112 0.789935 -1.79595 0
M  V30 4086 O 382.237 1.61771 -1.43733 0
M  V30 4087 C 382.832 -1.25235 -3.14804 0
M  V30 4088 C 381.391 -1.00987 -3.626 0
M  V30 4089 C 380.538 -1.37695 -2.40698 0
M  V30 4090 H 383.489 -1.15884 -1.08428 0
M  V30 4091 H 383.51 -0.627329 -3.75293 0
M  V30 4092 H 383.022 -2.33209 -3.10218 0
M  V30 4093 H 381.123 0.0535565 -3.72562 0
M  V30 4094 H 381.236 -1.66812 -4.49122 0
M  V30 4095 H 379.6 -0.795459 -2.4196 0
M  V30 4096 H 380.383 -2.46657 -2.38779 0
M  V30 4097 N 382.828 1.3818 -0.7579 0
M  V30 4098 C 384.075 2.00019 -0.315985 0
M  V30 4099 C 384.403 1.60163 1.10355 0
M  V30 4100 O 383.658 0.83264 1.77103 0
M  V30 4101 C 383.957 3.55252 -0.391218 0
M  V30 4102 C 383.623 4.14834 -1.76702 0
M  V30 4103 C 382.285 4.30821 -2.14353 0
M  V30 4104 C 384.637 4.47658 -2.66931 0
M  V30 4105 C 381.965 4.76928 -3.41696 0
M  V30 4106 C 384.317 4.95184 -3.93669 0
M  V30 4107 C 382.981 5.09377 -4.31383 0
M  V30 4108 H 382.251 0.731923 -0.115627 0
M  V30 4109 H 384.898 1.65161 -0.969223 0
M  V30 4110 H 383.203 3.90273 0.34558 0
M  V30 4111 H 384.9 4.00988 -0.030805 0
M  V30 4112 H 381.49 4.02808 -1.46435 0
M  V30 4113 H 385.674 4.34904 -2.39106 0
M  V30 4114 H 380.93 4.86103 -3.70829 0
M  V30 4115 H 385.104 5.19551 -4.63724 0
M  V30 4116 H 382.731 5.44865 -5.30119 0
M  V30 4117 N 384.306 0.507319 1.49211 0
M  V30 4118 C 385.216 -0.272136 2.33016 0
M  V30 4119 C 386.232 -0.961206 1.45041 0
M  V30 4120 O 387.408 -0.941191 1.78055 0
M  V30 4121 C 384.473 -1.31895 3.20631 0
M  V30 4122 C 383.534 -0.642648 4.24463 0
M  V30 4123 C 382.767 -1.63959 5.07891 0
M  V30 4124 O 382.99 -2.87007 4.92933 0
M  V30 4125 O 381.924 -1.19143 5.8999 0
M  V30 4126 H 385.75 0.413982 3.00865 0
M  V30 4127 H 383.335 0.268556 1.46966 0
M  V30 4128 H 385.217 -1.92446 3.7489 0
M  V30 4129 H 383.892 -1.98788 2.5547 0
M  V30 4130 H 382.799 0.00276252 3.741 0
M  V30 4131 H 384.132 -0.0160534 4.92197 0
M  V30 4132 N 385.784 -1.5574 0.241426 0
M  V30 4133 C 387.012 -2.03208 -0.389134 0
M  V30 4134 C 387.427 -1.12082 -1.51931 0
M  V30 4135 O 386.784 -0.134183 -1.82006 0
M  V30 4136 C 386.835 -3.50064 -0.902087 0
M  V30 4137 O 386.556 -4.37717 0.18305 0
M  V30 4138 C 388.057 -4.13268 -1.60389 0
M  V30 4139 H 385.277 -0.664509 -0.0931053 0
M  V30 4140 H 387.821 -2.0124 0.36369 0
M  V30 4141 H 385.976 -3.52583 -1.60511 0
M  V30 4142 H 386.39 -5.24097 -0.205579 0
M  V30 4143 H 387.864 -5.17733 -1.91458 0
M  V30 4144 H 388.341 -3.59434 -2.52397 0
M  V30 4145 H 388.947 -4.14655 -0.945576 0
M  V30 4146 N 387.262 0.0317525 -1.57568 0
M  V30 4147 C 388.225 1.01783 -2.0536 0
M  V30 4148 C 389.225 1.29203 -0.957253 0
M  V30 4149 O 390.415 1.24251 -1.22095 0
M  V30 4150 C 387.547 2.35137 -2.46827 0
M  V30 4151 H 388.74 0.605062 -2.93733 0
M  V30 4152 H 386.293 0.278514 -1.53799 0
M  V30 4153 H 387.028 2.81168 -1.61602 0
M  V30 4154 H 386.813 2.16566 -3.26866 0
M  V30 4155 H 388.303 3.05938 -2.84239 0
M  V30 4156 N 388.74 1.54641 0.303973 0
M  V30 4157 C 390.017 1.64455 1.05896 0
M  V30 4158 C 390.397 0.490923 2.05312 0
M  V30 4159 O 389.745 -0.512685 2.22674 0
M  V30 4160 C 389.955 3.02331 1.74347 0
M  V30 4161 C 391.303 3.59045 2.26653 0
M  V30 4162 O 392.327 3.04764 1.84384 0
M  V30 4163 O 391.186 4.54081 3.04093 0
M  V30 4164 H 388.28 0.666729 0.489287 0
M  V30 4165 H 390.826 1.66986 0.302298 0
M  V30 4166 H 389.598 3.77734 1.02142 0
M  V30 4167 H 389.221 3.03565 2.56777 0
M  V30 4168 N 390.218 -0.567019 1.47046 0
M  V30 4169 C 391.148 -1.68482 1.61667 0
M  V30 4170 C 392.129 -1.6358 0.466418 0
M  V30 4171 O 393.314 -1.81354 0.694574 0
M  V30 4172 C 390.444 -3.07124 1.62148 0
M  V30 4173 C 389.398 -3.26867 2.76301 0
M  V30 4174 C 388.724 -4.66196 2.61849 0
M  V30 4175 C 390.024 -3.13186 4.17986 0
M  V30 4176 H 391.718 -1.56502 2.5524 0
M  V30 4177 H 389.264 -0.751486 1.22836 0
M  V30 4178 H 391.217 -3.8516 1.70968 0
M  V30 4179 H 389.941 -3.2004 0.651287 0
M  V30 4180 H 388.6 -2.51237 2.66975 0
M  V30 4181 H 388.248 -4.75898 1.62879 0
M  V30 4182 H 387.948 -4.80356 3.38425 0
M  V30 4183 H 389.472 -5.46379 2.72584 0
M  V30 4184 H 390.886 -3.81049 4.2834 0
M  V30 4185 H 389.283 -3.3886 4.95272 0
M  V30 4186 H 390.353 -2.10057 4.3704 0
M  V30 4187 N 391.696 -1.35014 -0.812953 0
M  V30 4188 C 392.643 -1.27412 -1.92444 0
M  V30 4189 C 393.613 -0.14733 -1.65445 0
M  V30 4190 O 394.798 -0.329974 -1.87925 0
M  V30 4191 C 391.938 -1.04558 -3.28879 0
M  V30 4192 C 391.051 -2.26101 -3.68106 0
M  V30 4193 C 390.186 -1.96449 -4.9354 0
M  V30 4194 C 389.225 -3.14081 -5.25376 0
M  V30 4195 N 388.362 -2.84246 -6.41988 0
M  V30 4196 H 393.202 -2.22463 -1.98278 0
M  V30 4197 H 390.739 -1.10593 -0.969933 0
M  V30 4198 H 392.697 -0.893413 -4.07522 0
M  V30 4199 H 391.327 -0.131719 -3.22531 0
M  V30 4200 H 390.379 -2.52204 -2.84775 0
M  V30 4201 H 391.691 -3.13959 -3.87597 0
M  V30 4202 H 390.845 -1.78026 -5.79993 0
M  V30 4203 H 389.584 -1.05867 -4.76071 0
M  V30 4204 H 388.589 -3.33089 -4.37415 0
M  V30 4205 H 389.814 -4.05455 -5.44778 0
M  V30 4206 H 387.76 -1.96252 -6.25956 0
M  V30 4207 H 387.677 -3.65637 -6.61699 0
M  V30 4208 H 388.945 -2.6935 -7.31485 0
M  V30 4209 N 393.175 1.03435 -1.18907 0
M  V30 4210 C 394.085 2.15075 -0.937015 0
M  V30 4211 C 395.101 1.73706 0.101085 0
M  V30 4212 O 396.277 2.01232 -0.0822948 0
M  V30 4213 C 393.342 3.43458 -0.473057 0
M  V30 4214 C 392.403 3.99172 -1.57989 0
M  V30 4215 C 391.636 5.21427 -1.13797 0
M  V30 4216 O 391.859 5.704 0.000725941 0
M  V30 4217 O 390.793 5.69837 -1.9383 0
M  V30 4218 H 394.619 2.39198 -1.87131 0
M  V30 4219 H 392.204 1.13506 -0.971427 0
M  V30 4220 H 394.086 4.20811 -0.222702 0
M  V30 4221 H 392.761 3.20793 0.432869 0
M  V30 4222 H 391.668 3.23178 -1.88433 0
M  V30 4223 H 393.001 4.2619 -2.46217 0
M  V30 4224 N 394.653 0.992116 1.22453 0
M  V30 4225 C 395.881 0.685944 1.95198 0
M  V30 4226 C 396.296 -0.749233 1.73297 0
M  V30 4227 O 395.653 -1.50549 1.03156 0
M  V30 4228 C 395.704 0.981395 3.47924 0
M  V30 4229 O 395.425 2.36018 3.6909 0
M  V30 4230 C 396.926 0.692815 4.37853 0
M  V30 4231 H 394.146 0.253821 0.621141 0
M  V30 4232 H 396.69 1.32668 1.55626 0
M  V30 4233 H 394.845 0.386481 3.85467 0
M  V30 4234 H 395.259 2.45884 4.63294 0
M  V30 4235 H 396.733 0.949818 5.43767 0
M  V30 4236 H 397.21 -0.373181 4.37612 0
M  V30 4237 H 397.816 1.26874 4.05935 0
M  V30 4238 N 396.131 -1.37776 0.765217 0
M  V30 4239 C 397.361 -2.03828 0.337277 0
M  V30 4240 C 397.769 -1.57841 -1.04321 0
M  V30 4241 O 397.112 -0.752043 -1.67601 0
M  V30 4242 C 397.174 -3.58292 0.294407 0
M  V30 4243 C 396.838 -4.27384 1.61838 0
M  V30 4244 C 397.835 -4.51956 2.56967 0
M  V30 4245 C 395.52 -4.65345 1.89102 0
M  V30 4246 C 397.514 -5.13536 3.77571 0
M  V30 4247 C 395.201 -5.26647 3.09978 0
M  V30 4248 C 396.199 -5.50679 4.04032 0
M  V30 4249 O 395.887 -6.10702 5.2278 0
M  V30 4250 H 395.619 -0.661292 0.140248 0
M  V30 4251 H 398.173 -1.77222 1.03834 0
M  V30 4252 H 396.403 -3.83918 -0.462983 0
M  V30 4253 H 398.092 -4.05763 -0.105581 0
M  V30 4254 H 398.858 -4.23048 2.37183 0
M  V30 4255 H 394.737 -4.45978 1.16725 0
M  V30 4256 H 398.281 -5.3221 4.50997 0
M  V30 4257 H 394.178 -5.54979 3.29649 0
M  V30 4258 H 394.946 -6.29183 5.23517 0
M  V30 4259 N 397.609 -0.515225 -1.4894 0
M  V30 4260 C 399.025 -0.172099 -1.58669 0
M  V30 4261 C 399.225 1.32405 -1.51892 0
M  V30 4262 O 398.281 2.10116 -1.40027 0
M  V30 4263 C 399.594 -0.761533 -2.90897 0
M  V30 4264 C 401.142 -0.728926 -3.04394 0
M  V30 4265 C 401.617 -1.29667 -4.39261 0
M  V30 4266 N 403.108 -1.25799 -4.4579 0
M  V30 4267 C 403.843 -1.66733 -5.48623 0
M  V30 4268 N 403.339 -2.15327 -6.58488 0
M  V30 4269 N 405.132 -1.58061 -5.39419 0
M  V30 4270 H 397.283 -1.48778 -1.51588 0
M  V30 4271 H 399.546 -0.617968 -0.718901 0
M  V30 4272 H 399.252 -1.81136 -3.01468 0
M  V30 4273 H 399.126 -0.230106 -3.76497 0
M  V30 4274 H 401.513 0.312098 -2.93445 0
M  V30 4275 H 401.594 -1.29766 -2.20442 0
M  V30 4276 H 401.238 -2.33655 -4.50963 0
M  V30 4277 H 401.168 -0.703752 -5.21876 0
M  V30 4278 H 403.659 -0.902102 -3.66975 0
M  V30 4279 H 403.972 -2.44594 -7.33071 0
M  V30 4280 H 402.317 -2.19311 -6.59491 0
M  V30 4281 H 405.508 -1.19906 -4.52482 0
M  V30 4282 H 405.681 -1.90284 -6.19432 0
M  V30 4283 N 399.087 1.5561 -0.249682 0
M  V30 4284 C 400.327 2.00916 0.37579 0
M  V30 4285 C 400.691 1.13409 1.54927 0
M  V30 4286 O 401.892 1.48183 2.24266 0
M  V30 4287 C 400.163 3.48949 0.772633 0
M  V30 4288 S 401.722 4.16261 1.38824 0
M  V30 4289 H 398.54 0.70112 0.118117 0
M  V30 4290 H 401.142 1.92052 -0.365567 0
M  V30 4291 H 399.846 4.103 -0.090683 0
M  V30 4292 H 399.377 3.61745 1.5461 0
M  V30 4293 H 401.392 4.17778 2.67724 0
M  V30 4294 N 400.565 -0.0233959 1.57583 0
M  V30 4295 C 401.814 -0.712133 1.8871 0
M  V30 4296 C 402.127 -1.76217 0.848944 0
M  V30 4297 O 403.333 -2.50389 1.04964 0
M  V30 4298 C 401.789 -1.3177 3.3491 0
M  V30 4299 C 401.397 -0.303715 4.46969 0
M  V30 4300 C 403.141 -1.98598 3.75179 0
M  V30 4301 C 401.048 -0.917945 5.84233 0
M  V30 4302 H 399.978 -0.269735 0.704101 0
M  V30 4303 H 402.629 0.0333114 1.8347 0
M  V30 4304 H 401.011 -2.11304 3.34913 0
M  V30 4305 H 402.185 0.465325 4.58445 0
M  V30 4306 H 400.5 0.2628 4.1557 0
M  V30 4307 H 403.097 -2.45416 4.75053 0
M  V30 4308 H 403.44 -2.80659 3.07468 0
M  V30 4309 H 403.973 -1.25831 3.77374 0
M  V30 4310 H 400.712 -0.136633 6.55358 0
M  V30 4311 H 400.232 -1.65669 5.76467 0
M  V30 4312 H 401.911 -1.4236 6.31144 0
M  V30 4313 N 402.043 -1.548 -0.295768 0
M  V30 4314 C 402.99 -1.86113 -1.36494 0
M  V30 4315 C 403.96 -0.7105 -1.50137 0
M  V30 4316 O 405.145 -0.959626 -1.64912 0
M  V30 4317 C 402.285 -2.11861 -2.72413 0
M  V30 4318 C 401.398 -3.39471 -2.67177 0
M  V30 4319 C 400.533 -3.55035 -3.95125 0
M  V30 4320 C 399.572 -4.76418 -3.84308 0
M  V30 4321 N 398.709 -4.8876 -5.04042 0
M  V30 4322 H 403.549 -2.77314 -1.09091 0
M  V30 4323 H 401.086 -1.37315 -0.52753 0
M  V30 4324 H 403.044 -2.24786 -3.51464 0
M  V30 4325 H 401.674 -1.2392 -2.98066 0
M  V30 4326 H 400.726 -3.35139 -1.79962 0
M  V30 4327 H 402.038 -4.28646 -2.55076 0
M  V30 4328 H 401.192 -3.67653 -4.82614 0
M  V30 4329 H 399.931 -2.64002 -4.10066 0
M  V30 4330 H 398.936 -4.63827 -2.95202 0
M  V30 4331 H 400.161 -5.68863 -3.70906 0
M  V30 4332 H 398.107 -4.00652 -5.19436 0
M  V30 4333 H 398.024 -5.71945 -4.94384 0
M  V30 4334 H 399.292 -5.0574 -5.93167 0
M  V30 4335 N 403.521 0.559213 -1.47345 0
M  V30 4336 C 404.453 1.68161 -1.55738 0
M  V30 4337 C 405.466 1.56636 -0.443744 0
M  V30 4338 O 406.655 1.6363 -0.713258 0
M  V30 4339 C 403.755 3.06611 -1.4437 0
M  V30 4340 C 402.928 3.4391 -2.70268 0
M  V30 4341 C 401.987 4.61515 -2.52765 0
M  V30 4342 O 401.013 4.66197 -3.26572 0
M  V30 4343 N 402.215 5.57883 -1.6046 0
M  V30 4344 H 404.98 1.61408 -2.52522 0
M  V30 4345 H 402.541 0.7458 -1.43699 0
M  V30 4346 H 404.533 3.83117 -1.30398 0
M  V30 4347 H 403.103 3.07602 -0.556766 0
M  V30 4348 H 402.323 2.56873 -2.99015 0
M  V30 4349 H 403.611 3.65605 -3.53851 0
M  V30 4350 H 403.009 5.56855 -0.996422 0
M  V30 4351 H 401.566 6.33723 -1.52441 0
M  V30 4352 N 404.999 1.35443 0.805782 0
M  V30 4353 C 406.245 1.28952 1.56522 0
M  V30 4354 C 406.578 -0.135597 1.93726 0
M  V30 4355 O 405.853 -1.08516 1.61414 0
M  V30 4356 C 406.136 2.19678 2.85331 0
M  V30 4357 C 405.989 3.7081 2.54598 0
M  V30 4358 C 407.308 2.09495 3.8704 0
M  V30 4359 H 404.427 0.469764 0.567883 0
M  V30 4360 H 407.069 1.65851 0.927001 0
M  V30 4361 H 405.219 1.8834 3.39795 0
M  V30 4362 H 406.891 4.12593 2.06312 0
M  V30 4363 H 405.134 3.91051 1.8778 0
M  V30 4364 H 405.805 4.29679 3.46525 0
M  V30 4365 H 408.281 2.37045 3.41978 0
M  V30 4366 H 407.157 2.75173 4.74943 0
M  V30 4367 H 407.418 1.07714 4.28777 0
M  V30 4368 N 406.477 -1.02803 1.19454 0
M  V30 4369 C 407.427 -2.0945 0.900827 0
M  V30 4370 C 408.411 -1.60335 -0.134715 0
M  V30 4371 O 409.603 -1.76857 0.0710924 0
M  V30 4372 C 406.732 -3.4044 0.442229 0
M  V30 4373 C 405.818 -3.96286 1.51056 0
M  V30 4374 N 406.209 -4.25785 2.73021 0
M  V30 4375 C 404.507 -4.24307 1.37404 0
M  V30 4376 C 405.208 -4.70654 3.41848 0
M  V30 4377 N 404.184 -4.72238 2.69243 0
M  V30 4378 H 407.986 -2.3015 1.82779 0
M  V30 4379 H 405.5 -1.20672 1.08683 0
M  V30 4380 H 407.497 -4.16354 0.21326 0
M  V30 4381 H 406.157 -3.21159 -0.478238 0
M  V30 4382 H 407.168 -4.15041 3.09776 0
M  V30 4383 H 403.845 -4.14285 0.517103 0
M  V30 4384 H 405.235 -5.02392 4.46152 0
M  V30 4385 N 407.956 -0.998596 -1.21925 0
M  V30 4386 C 409.186 -0.695276 -1.94549 0
M  V30 4387 C 409.594 0.745079 -1.73911 0
M  V30 4388 O 408.937 1.51507 -1.03881 0
M  V30 4389 C 408.999 -0.928485 -3.47303 0
M  V30 4390 C 408.663 -2.35443 -3.91683 0
M  V30 4391 C 409.66 -3.33428 -3.98901 0
M  V30 4392 C 407.345 -2.69038 -4.24174 0
M  V30 4393 C 409.339 -4.63079 -4.37992 0
M  V30 4394 C 407.026 -3.98906 -4.62944 0
M  V30 4395 C 408.024 -4.95738 -4.69822 0
M  V30 4396 O 407.712 -6.23285 -5.07711 0
M  V30 4397 H 407.444 -0.255902 -0.625692 0
M  V30 4398 H 409.998 -1.33767 -1.5587 0
M  V30 4399 H 408.228 -0.228917 -3.86022 0
M  V30 4400 H 409.917 -0.619539 -4.01144 0
M  V30 4401 H 410.683 -3.08807 -3.73983 0
M  V30 4402 H 406.562 -1.94367 -4.18022 0
M  V30 4403 H 410.106 -5.38658 -4.43275 0
M  V30 4404 H 406.003 -4.23314 -4.87314 0
M  V30 4405 H 406.771 -6.27306 -5.25766 0
M  V30 4406 N 409.434 1.37368 -0.772513 0
M  V30 4407 C 410.662 2.03942 -0.348588 0
M  V30 4408 C 411.077 1.58264 1.02947 0
M  V30 4409 O 410.434 0.764246 1.65727 0
M  V30 4410 C 410.485 3.5946 -0.38351 0
M  V30 4411 O 410.206 4.03468 -1.70721 0
M  V30 4412 C 411.707 4.4327 0.0519152 0
M  V30 4413 H 408.927 0.654931 -0.145966 0
M  V30 4414 H 411.471 1.75686 -1.04665 0
M  V30 4415 H 409.626 3.86486 0.265978 0
M  V30 4416 H 410.04 4.97991 -1.64636 0
M  V30 4417 H 411.514 5.51995 -0.0236733 0
M  V30 4418 H 411.991 4.2514 1.10238 0
M  V30 4419 H 412.597 4.21471 -0.569415 0
M  V30 4420 N 410.912 0.523116 1.48665 0
M  V30 4421 C 411.842 -0.23231 2.32342 0
M  V30 4422 C 412.823 -0.941637 1.41659 0
M  V30 4423 O 414.008 -0.928751 1.70552 0
M  V30 4424 C 411.138 -1.28387 3.22698 0
M  V30 4425 C 410.092 -0.693098 4.22351 0
M  V30 4426 C 409.418 -1.8468 5.01794 0
M  V30 4427 C 410.718 0.33063 5.21252 0
M  V30 4428 H 412.412 0.466192 2.95748 0
M  V30 4429 H 409.958 0.225643 1.42221 0
M  V30 4430 H 411.911 -1.82024 3.80059 0
M  V30 4431 H 410.635 -2.01186 2.57278 0
M  V30 4432 H 409.294 -0.178299 3.66166 0
M  V30 4433 H 408.942 -2.56301 4.32804 0
M  V30 4434 H 408.642 -1.45747 5.69238 0
M  V30 4435 H 410.166 -2.38709 5.62006 0
M  V30 4436 H 411.58 -0.118407 5.73178 0
M  V30 4437 H 409.977 0.636974 5.9671 0
M  V30 4438 H 411.047 1.23883 4.68808 0
M  V30 4439 N 412.39 -1.55475 0.257931 0
M  V30 4440 C 413.801 -1.8511 -0.243135 0
M  V30 4441 C 414.152 -1.17986 -1.5676 0
M  V30 4442 O 413.277 -0.462102 -2.11409 0
M  V30 4443 C 413.872 -3.35826 -0.447929 0
M  V30 4444 C 412.431 -3.65647 -0.893245 0
M  V30 4445 C 411.578 -2.7729 0.0232965 0
M  V30 4446 H 414.529 -1.51261 0.480199 0
M  V30 4447 H 414.55 -3.58002 -1.28898 0
M  V30 4448 H 414.062 -3.84652 0.516196 0
M  V30 4449 H 412.163 -3.22308 -1.86945 0
M  V30 4450 H 412.276 -4.73312 -0.742469 0
M  V30 4451 H 410.64 -2.49942 -0.490021 0
M  V30 4452 H 411.423 -3.28926 0.982994 0
M  V30 4453 N 413.868 0.0150385 -1.57593 0
M  V30 4454 C 414.831 0.995996 -2.06428 0
M  V30 4455 C 415.831 1.2818 -0.970903 0
M  V30 4456 O 417.021 1.22949 -1.23406 0
M  V30 4457 C 414.153 2.32506 -2.49307 0
M  V30 4458 H 415.346 0.573873 -2.94358 0
M  V30 4459 H 412.899 0.262186 -1.54085 0
M  V30 4460 H 413.634 2.79438 -1.64575 0
M  V30 4461 H 413.419 2.13087 -3.29145 0
M  V30 4462 H 414.909 3.02906 -2.87468 0
M  V30 4463 N 415.346 1.54954 0.287554 0
M  V30 4464 C 416.571 1.79209 1.04397 0
M  V30 4465 C 416.996 0.556431 1.79682 0
M  V30 4466 O 416.354 -0.493518 1.74454 0
M  V30 4467 C 416.402 3.00739 1.98969 0
M  V30 4468 O 415.506 2.74805 3.075 0
M  V30 4469 H 414.847 0.592755 0.299227 0
M  V30 4470 H 417.377 2.02068 0.320886 0
M  V30 4471 H 417.387 3.29077 2.4119 0
M  V30 4472 H 416.062 3.90329 1.43582 0
M  V30 4473 H 414.639 2.57523 2.69697 0
M  V30 4474 N 416.824 -0.551391 1.4764 0
M  V30 4475 C 417.754 -1.66757 1.63445 0
M  V30 4476 C 418.735 -1.63077 0.483742 0
M  V30 4477 O 419.92 -1.80607 0.71377 0
M  V30 4478 C 417.05 -3.05387 1.65396 0
M  V30 4479 C 416.004 -3.23918 2.79752 0
M  V30 4480 C 415.33 -4.63393 2.66779 0
M  V30 4481 C 416.63 -3.08735 4.21284 0
M  V30 4482 H 418.324 -1.53786 2.56886 0
M  V30 4483 H 415.87 -0.738415 1.23626 0
M  V30 4484 H 417.823 -3.83325 1.75043 0
M  V30 4485 H 416.547 -3.19332 0.685195 0
M  V30 4486 H 415.206 -2.48391 2.69625 0
M  V30 4487 H 414.854 -4.74144 1.67918 0
M  V30 4488 H 414.554 -4.7674 3.43501 0
M  V30 4489 H 416.078 -5.43458 2.78364 0
M  V30 4490 H 417.492 -3.76484 4.32357 0
M  V30 4491 H 415.889 -3.33588 4.98838 0
M  V30 4492 H 416.959 -2.0541 4.39243 0
M  V30 4493 N 418.302 -1.35869 -0.798587 0
M  V30 4494 C 419.527 -1.32883 -1.59238 0
M  V30 4495 C 419.952 0.0894587 -1.87887 0
M  V30 4496 O 419.31 1.05869 -1.47178 0
M  V30 4497 C 419.358 -2.14892 -2.89575 0
M  V30 4498 O 418.462 -1.53512 -3.82763 0
M  V30 4499 H 417.803 -0.455236 -0.48338 0
M  V30 4500 H 420.333 -1.79024 -0.990539 0
M  V30 4501 H 420.343 -2.27139 -3.38928 0
M  V30 4502 H 419.018 -3.17998 -2.68049 0
M  V30 4503 H 417.595 -1.50153 -3.41334 0
M  V30 4504 N 419.78 1.02168 -1.19998 0
M  V30 4505 C 420.71 2.12488 -0.96804 0
M  V30 4506 C 421.691 1.69799 0.101185 0
M  V30 4507 O 422.876 1.94121 -0.0552993 0
M  V30 4508 C 420.006 3.43479 -0.513776 0
M  V30 4509 C 418.96 3.99884 -1.52566 0
M  V30 4510 C 418.286 5.26582 -0.928214 0
M  V30 4511 C 419.586 4.33861 -2.90795 0
M  V30 4512 H 421.28 2.32149 -1.89069 0
M  V30 4513 H 418.826 1.11564 -0.910468 0
M  V30 4514 H 420.779 4.20036 -0.338774 0
M  V30 4515 H 419.503 3.23561 0.444493 0
M  V30 4516 H 418.162 3.25429 -1.68794 0
M  V30 4517 H 417.81 5.02986 0.0378289 0
M  V30 4518 H 417.51 5.65284 -1.60397 0
M  V30 4519 H 419.034 6.05799 -0.764167 0
M  V30 4520 H 420.448 5.01327 -2.78109 0
M  V30 4521 H 418.845 4.83664 -3.55231 0
M  V30 4522 H 419.915 3.42848 -3.42904 0
M  V30 4523 N 421.258 1.00505 1.21394 0
M  V30 4524 C 422.669 0.721082 1.72213 0
M  V30 4525 C 423.02 -0.761263 1.80829 0
M  V30 4526 O 422.145 -1.59464 1.46288 0
M  V30 4527 C 422.74 1.30228 3.12772 0
M  V30 4528 C 421.299 1.06743 3.60947 0
M  V30 4529 C 420.446 1.41507 2.38477 0
M  V30 4530 H 423.397 1.17594 1.06571 0
M  V30 4531 H 423.418 0.686955 3.74247 0
M  V30 4532 H 422.93 2.38115 3.06468 0
M  V30 4533 H 421.031 0.00572162 3.726 0
M  V30 4534 H 421.144 1.73936 4.46411 0
M  V30 4535 H 419.508 0.833852 2.40664 0
M  V30 4536 H 420.291 2.50424 2.34824 0
M  V30 4537 N 422.737 -1.36956 0.779787 0
M  V30 4538 C 423.7 -2.2851 0.177662 0
M  V30 4539 C 424.7 -1.48393 -0.619377 0
M  V30 4540 O 425.89 -1.68505 -0.441785 0
M  V30 4541 C 423.022 -3.32428 -0.755279 0
M  V30 4542 H 424.215 -2.83269 0.984823 0
M  V30 4543 H 421.768 -1.46358 0.548544 0
M  V30 4544 H 422.503 -2.82808 -1.58714 0
M  V30 4545 H 422.288 -3.91659 -0.185817 0
M  V30 4546 H 423.778 -4.00824 -1.17174 0
M  V30 4547 N 424.215 -0.530993 -1.48385 0
M  V30 4548 C 425.631 -0.188919 -1.58478 0
M  V30 4549 C 425.831 1.30786 -1.53288 0
M  V30 4550 O 424.887 2.08619 -1.42248 0
M  V30 4551 C 426.2 -0.792343 -2.90073 0
M  V30 4552 C 427.748 -0.76117 -3.03604 0
M  V30 4553 C 428.223 -1.34319 -4.37861 0
M  V30 4554 N 429.714 -1.3052 -4.44431 0
M  V30 4555 C 430.449 -1.72543 -5.46824 0
M  V30 4556 N 429.945 -2.22299 -6.56167 0
M  V30 4557 N 431.738 -1.63773 -5.37712 0
M  V30 4558 H 423.889 -1.50377 -1.50002 0
M  V30 4559 H 426.152 -0.625559 -0.712306 0
M  V30 4560 H 425.858 -1.84323 -2.99529 0
M  V30 4561 H 425.732 -0.270026 -3.76232 0
M  V30 4562 H 428.119 0.280957 -2.93759 0
M  V30 4563 H 428.2 -1.32097 -2.19053 0
M  V30 4564 H 427.844 -2.38425 -4.4846 0
M  V30 4565 H 427.774 -0.759064 -5.21101 0
M  V30 4566 H 430.265 -0.940973 -3.65997 0
M  V30 4567 H 430.578 -2.52356 -7.30436 0
M  V30 4568 H 428.923 -2.26293 -6.57127 0
M  V30 4569 H 432.114 -1.24698 -4.51185 0
M  V30 4570 H 432.287 -1.96844 -6.17379 0
M  V30 4571 N 425.693 1.55336 -0.266172 0
M  V30 4572 C 426.625 2.19544 0.658247 0
M  V30 4573 C 427.638 1.17746 1.12427 0
M  V30 4574 O 428.827 1.44517 1.04772 0
M  V30 4575 C 425.927 2.80032 1.9088 0
M  V30 4576 C 425.1 4.07436 1.59106 0
M  V30 4577 C 424.159 4.52056 2.69317 0
M  V30 4578 O 423.185 5.18023 2.35883 0
M  V30 4579 N 424.387 4.21448 3.99201 0
M  V30 4580 H 427.152 2.99503 0.108754 0
M  V30 4581 H 424.713 1.61667 -0.0869059 0
M  V30 4582 H 426.705 3.06831 2.63888 0
M  V30 4583 H 425.275 2.04119 2.36758 0
M  V30 4584 H 424.495 3.88021 0.695243 0
M  V30 4585 H 425.783 4.90462 1.35367 0
M  V30 4586 H 425.181 3.68528 4.29189 0
M  V30 4587 H 423.738 4.53039 4.68614 0
M  V30 4588 N 427.171 -0.0066808 1.57599 0
M  V30 4589 C 428.101 -0.999296 2.11036 0
M  V30 4590 C 429.082 -1.36278 1.01795 0
M  V30 4591 O 430.267 -1.4477 1.29442 0
M  V30 4592 C 427.397 -2.29328 2.60818 0
M  V30 4593 C 426.351 -2.07159 3.74525 0
M  V30 4594 C 425.677 -3.42512 4.10596 0
M  V30 4595 C 426.977 -1.43959 5.02069 0
M  V30 4596 H 428.671 -0.554382 2.94223 0
M  V30 4597 H 426.217 -0.265221 1.41536 0
M  V30 4598 H 428.17 -2.99117 2.96828 0
M  V30 4599 H 426.894 -2.7592 1.74745 0
M  V30 4600 H 425.553 -1.39797 3.38899 0
M  V30 4601 H 425.201 -3.86795 3.21556 0
M  V30 4602 H 424.901 -3.28498 4.87199 0
M  V30 4603 H 426.425 -4.13628 4.4916 0
M  V30 4604 H 427.839 -2.03696 5.35893 0
M  V30 4605 H 426.236 -1.40452 5.83432 0
M  V30 4606 H 427.306 -0.407992 4.83181 0
M  V30 4607 N 428.649 -1.55105 -0.279332 0
M  V30 4608 C 429.579 -1.90557 -1.34945 0
M  V30 4609 C 430.56 -0.766738 -1.51839 0
M  V30 4610 O 431.745 -1.02434 -1.64988 0
M  V30 4611 C 428.875 -2.17193 -2.71006 0
M  V30 4612 C 427.829 -3.33021 -2.68851 0
M  V30 4613 C 427.155 -3.45123 -4.08405 0
M  V30 4614 C 428.455 -4.69578 -2.28678 0
M  V30 4615 H 430.149 -2.80188 -1.05522 0
M  V30 4616 H 427.695 -1.34811 -0.506173 0
M  V30 4617 H 429.648 -2.40581 -3.45975 0
M  V30 4618 H 428.372 -1.24355 -3.01999 0
M  V30 4619 H 427.031 -3.0959 -1.9634 0
M  V30 4620 H 426.679 -2.49762 -4.3661 0
M  V30 4621 H 426.379 -4.22995 -4.07859 0
M  V30 4622 H 427.903 -3.70796 -4.85121 0
M  V30 4623 H 429.317 -4.92553 -2.93368 0
M  V30 4624 H 427.714 -5.5032 -2.39306 0
M  V30 4625 H 428.784 -4.68828 -1.23807 0
M  V30 4626 N 430.127 0.543554 -1.4793 0
M  V30 4627 C 431.09 1.63156 -1.60975 0
M  V30 4628 C 432.09 1.53346 -0.483899 0
M  V30 4629 O 433.28 1.5726 -0.749339 0
M  V30 4630 C 430.412 3.02743 -1.56716 0
M  V30 4631 H 431.605 1.52934 -2.57975 0
M  V30 4632 H 429.158 0.764557 -1.36324 0
M  V30 4633 H 429.893 3.18484 -0.611418 0
M  V30 4634 H 429.678 3.11272 -2.38438 0
M  V30 4635 H 431.168 3.81871 -1.6901 0
M  V30 4636 N 431.605 1.3629 0.791371 0
M  V30 4637 C 432.568 1.30309 1.88553 0
M  V30 4638 C 433.568 0.211204 1.59407 0
M  V30 4639 O 434.758 0.465865 1.67855 0
M  V30 4640 C 431.89 1.01956 3.25297 0
M  V30 4641 H 433.083 2.27614 1.95273 0
M  V30 4642 H 430.636 1.21035 0.988953 0
M  V30 4643 H 431.371 0.050998 3.2426 0
M  V30 4644 H 431.156 1.80968 3.4784 0
M  V30 4645 H 432.646 1.0037 4.05359 0
M  V30 4646 N 433.083 -1.0153 1.20538 0
M  V30 4647 C 434.332 -1.74558 1.01057 0
M  V30 4648 C 434.645 -1.90168 -0.457756 0
M  V30 4649 O 435.851 -2.60301 -0.771722 0
M  V30 4650 C 434.307 -3.13963 1.75941 0
M  V30 4651 C 433.915 -3.06361 3.26875 0
M  V30 4652 C 435.659 -3.91191 1.64832 0
M  V30 4653 C 433.566 -4.40782 3.94291 0
M  V30 4654 H 432.496 -0.654417 0.374505 0
M  V30 4655 H 435.147 -1.13521 1.44171 0
M  V30 4656 H 433.529 -3.75549 1.25614 0
M  V30 4657 H 434.703 -2.54074 3.84425 0
M  V30 4658 H 433.018 -2.42625 3.38411 0
M  V30 4659 H 435.615 -4.90644 2.12539 0
M  V30 4660 H 435.958 -4.11884 0.604745 0
M  V30 4661 H 436.491 -3.36236 2.12579 0
M  V30 4662 H 433.23 -4.25292 4.98805 0
M  V30 4663 H 432.75 -4.9307 3.41529 0
M  V30 4664 H 434.429 -5.09621 3.98617 0
M  V30 4665 N 434.561 -1.01147 -1.20859 0
M  V30 4666 C 435.491 -0.597663 -2.25722 0
M  V30 4667 C 436.472 0.384744 -1.65692 0
M  V30 4668 O 437.657 0.271303 -1.92296 0
M  V30 4669 C 434.787 0.0700149 -3.47229 0
M  V30 4670 C 433.741 -0.832843 -4.19819 0
M  V30 4671 C 433.067 -0.0312202 -5.34691 0
M  V30 4672 C 434.367 -2.1385 -4.76514 0
M  V30 4673 H 436.061 -1.47423 -2.60589 0
M  V30 4674 H 433.607 -0.710301 -1.25263 0
M  V30 4675 H 435.56 0.37103 -4.19763 0
M  V30 4676 H 434.284 0.981259 -3.11511 0
M  V30 4677 H 432.943 -1.11778 -3.49144 0
M  V30 4678 H 432.591 0.881515 -4.95215 0
M  V30 4679 H 432.291 -0.632434 -5.84187 0
M  V30 4680 H 433.815 0.26346 -6.10031 0
M  V30 4681 H 435.229 -1.9002 -5.40893 0
M  V30 4682 H 433.626 -2.69012 -5.36426 0
M  V30 4683 H 434.696 -2.80495 -3.95538 0
M  V30 4684 N 436.039 1.36541 -0.78704 0
M  V30 4685 C 437.455 1.52571 -0.46844 0
M  V30 4686 C 437.655 1.7415 1.01361 0
M  V30 4687 O 436.711 1.77163 1.79915 0
M  V30 4688 C 438.024 2.71299 -1.29682 0
M  V30 4689 C 439.572 2.85169 -1.29027 0
M  V30 4690 C 440.047 4.06898 -2.10233 0
M  V30 4691 N 441.538 4.1404 -2.07666 0
M  V30 4692 C 442.273 5.07301 -2.67271 0
M  V30 4693 N 441.769 6.06021 -3.35724 0
M  V30 4694 N 443.562 4.99898 -2.57018 0
M  V30 4695 H 435.713 1.20788 -1.74711 0
M  V30 4696 H 437.976 0.589364 -0.742532 0
M  V30 4697 H 437.682 2.61868 -2.34773 0
M  V30 4698 H 437.556 3.6539 -0.936479 0
M  V30 4699 H 439.943 2.94062 -0.247284 0
M  V30 4700 H 440.024 1.91992 -1.69035 0
M  V30 4701 H 439.668 3.98766 -3.1456 0
M  V30 4702 H 439.598 4.99218 -1.67597 0
M  V30 4703 H 442.089 3.43357 -1.57843 0
M  V30 4704 H 442.402 6.73741 -3.78541 0
M  V30 4705 H 440.747 6.06253 -3.39826 0
M  V30 4706 H 443.938 4.21724 -2.03142 0
M  V30 4707 H 444.111 5.72392 -3.03761 0
M  V30 4708 N 437.518 0.538854 1.48102 0
M  V30 4709 C 438.481 -0.208395 2.28251 0
M  V30 4710 C 439.481 -0.859656 1.35892 0
M  V30 4711 O 440.671 -0.71834 1.58699 0
M  V30 4712 C 437.803 -1.30252 3.15035 0
M  V30 4713 H 438.996 0.495407 2.9578 0
M  V30 4714 H 436.549 0.295112 1.53489 0
M  V30 4715 H 437.284 -2.0393 2.52157 0
M  V30 4716 H 437.069 -0.840551 3.82985 0
M  V30 4717 H 438.559 -1.82787 3.75471 0
M  V30 4718 N 438.996 -1.55193 0.274407 0
M  V30 4719 C 440.221 -2.04446 -0.348824 0
M  V30 4720 C 440.646 -1.15149 -1.48735 0
M  V30 4721 O 440.004 -0.149952 -1.80679 0
M  V30 4722 C 440.052 -3.51431 -0.808009 0
M  V30 4723 O 439.156 -3.65225 -1.91531 0
M  V30 4724 H 438.497 -0.66006 -0.0722276 0
M  V30 4725 H 441.027 -2.00481 0.408498 0
M  V30 4726 H 441.037 -3.92781 -1.10395 0
M  V30 4727 H 439.712 -4.15892 0.0249865 0
M  V30 4728 H 438.289 -3.35778 -1.62196 0
M  V30 4729 N 440.474 -0.00167713 -1.576 0
M  V30 4730 C 441.885 0.54091 -1.78693 0
M  V30 4731 C 442.236 1.7386 -0.909247 0
M  V30 4732 O 441.361 2.16109 -0.112176 0
M  V30 4733 C 441.956 0.98806 -3.24072 0
M  V30 4734 C 440.515 1.47594 -3.46256 0
M  V30 4735 C 439.662 0.42792 -2.73978 0
M  V30 4736 H 442.613 -0.22784 -1.57056 0
M  V30 4737 H 442.634 1.85398 -3.32277 0
M  V30 4738 H 442.146 0.116164 -3.87926 0
M  V30 4739 H 440.247 2.36868 -2.87618 0
M  V30 4740 H 440.36 1.50225 -4.54939 0
M  V30 4741 H 438.724 0.889934 -2.38647 0
M  V30 4742 H 439.507 -0.435038 -3.40532 0
M  V30 4743 N 441.952 1.55251 0.271103 0
M  V30 4744 C 443.368 1.47133 0.618393 0
M  V30 4745 C 443.568 0.686994 1.89427 0
M  V30 4746 O 442.624 0.206609 2.51653 0
M  V30 4747 C 443.937 2.91361 0.743593 0
M  V30 4748 C 445.485 3.01587 0.837522 0
M  V30 4749 C 445.96 4.47073 0.994483 0
M  V30 4750 N 447.451 4.50909 1.05996 0
M  V30 4751 C 448.186 5.60698 1.20024 0
M  V30 4752 N 447.682 6.80348 1.30759 0
M  V30 4753 N 449.475 5.48444 1.23149 0
M  V30 4754 H 441.626 2.04698 -0.566784 0
M  V30 4755 H 443.889 0.928319 -0.192165 0
M  V30 4756 H 443.595 3.51483 -0.123493 0
M  V30 4757 H 443.469 3.40484 1.62328 0
M  V30 4758 H 445.856 2.4156 1.69507 0
M  V30 4759 H 445.937 2.55713 -0.0668086 0
M  V30 4760 H 445.581 5.07703 0.141582 0
M  V30 4761 H 445.511 4.90605 1.91349 0
M  V30 4762 H 448.002 3.6472 0.989316 0
M  V30 4763 H 448.315 7.59772 1.41303 0
M  V30 4764 H 446.66 6.83156 1.27761 0
M  V30 4765 H 449.851 4.53907 1.14394 0
M  V30 4766 H 450.024 6.34049 1.33738 0
M  V30 4767 N 443.43 -0.535701 1.48216 0
M  V30 4768 C 444.707 -1.29683 1.46429 0
M  V30 4769 C 445.087 -2.10391 0.172852 0
M  V30 4770 O 444.435 -2.12282 -0.845488 0
M  V30 4771 C 444.645 -2.18313 2.72287 0
M  V30 4772 C 445.993 -2.78639 3.20383 0
M  V30 4773 O 447.017 -2.28604 2.73164 0
M  V30 4774 O 445.876 -3.69636 4.02531 0
M  V30 4775 H 442.97 -0.585026 0.584529 0
M  V30 4776 H 445.516 -0.552827 1.60443 0
M  V30 4777 H 444.288 -1.58421 3.57797 0
M  V30 4778 H 443.911 -2.99971 2.60966 0
M  V30 4779 N 444.908 -1.36708 -0.784132 0
M  V30 4780 C 446.324 -1.17237 -1.08294 0
M  V30 4781 C 446.524 -5.93947e-05 -2.015 0
M  V30 4782 O 445.58 0.663686 -2.43622 0
M  V30 4783 C 446.893 -2.48557 -1.69233 0
M  V30 4784 C 448.441 -2.54968 -1.8155 0
M  V30 4785 C 448.916 -3.86388 -2.45904 0
M  V30 4786 N 450.407 -3.87762 -2.53367 0
M  V30 4787 C 451.142 -4.86191 -3.03983 0
M  V30 4788 N 450.638 -5.95015 -3.54866 0
M  V30 4789 N 452.431 -4.73606 -3.02743 0
M  V30 4790 H 444.582 -2.11758 -0.16501 0
M  V30 4791 H 446.845 -0.93822 -0.135822 0
M  V30 4792 H 446.551 -3.34638 -1.08215 0
M  V30 4793 H 446.425 -2.64748 -2.68679 0
M  V30 4794 H 448.812 -1.69302 -2.41704 0
M  V30 4795 H 448.893 -2.42672 -0.80895 0
M  V30 4796 H 448.537 -4.72462 -1.86392 0
M  V30 4797 H 448.467 -3.95982 -3.4714 0
M  V30 4798 H 450.958 -3.09145 -2.17343 0
M  V30 4799 H 451.271 -6.66086 -3.91854 0
M  V30 4800 H 449.616 -5.98676 -3.53003 0
M  V30 4801 H 452.807 -3.87717 -2.62284 0
M  V30 4802 H 452.98 -5.50473 -3.41881 0
M  V30 4803 N 446.386 1.0089 -1.21074 0
M  V30 4804 C 447.797 1.56056 -1.02486 0
M  V30 4805 C 448.148 1.91728 0.416506 0
M  V30 4806 O 447.273 1.73066 1.29912 0
M  V30 4807 C 447.868 2.83563 -1.85411 0
M  V30 4808 C 446.427 3.3523 -1.71166 0
M  V30 4809 C 445.574 2.0846 -1.82865 0
M  V30 4810 H 448.525 0.831818 -1.35154 0
M  V30 4811 H 448.546 3.55286 -1.36205 0
M  V30 4812 H 448.058 2.57569 -2.9031 0
M  V30 4813 H 446.159 3.66167 -0.689361 0
M  V30 4814 H 446.272 4.06913 -2.52901 0
M  V30 4815 H 444.636 2.21275 -1.26132 0
M  V30 4816 H 445.419 1.84883 -2.89263 0
M  V30 4817 N 447.864 1.01787 1.20321 0
M  V30 4818 C 449.089 0.727009 1.9424 0
M  V30 4819 C 449.514 -0.706179 1.74341 0
M  V30 4820 O 448.872 -1.48609 1.03852 0
M  V30 4821 C 448.92 1.06958 3.44372 0
M  V30 4822 O 448.024 0.181983 4.11998 0
M  V30 4823 H 447.365 0.269626 0.606793 0
M  V30 4824 H 449.895 1.36158 1.52716 0
M  V30 4825 H 449.905 1.02182 3.94997 0
M  V30 4826 H 448.58 2.11378 3.58179 0
M  V30 4827 H 447.157 0.287378 3.71791 0
M  V30 4828 N 449.342 -1.36122 0.79427 0
M  V30 4829 C 450.591 -1.98361 0.365464 0
M  V30 4830 C 450.904 -1.6374 -1.06997 0
M  V30 4831 O 452.11 -2.19251 -1.60129 0
M  V30 4832 C 450.566 -3.54821 0.602496 0
M  V30 4833 C 450.174 -3.98362 2.04967 0
M  V30 4834 C 451.918 -4.2383 0.238437 0
M  V30 4835 C 449.825 -5.47619 2.2331 0
M  V30 4836 H 448.755 -0.742193 0.13291 0
M  V30 4837 H 451.406 -1.55354 0.976589 0
M  V30 4838 H 449.788 -3.95922 -0.078409 0
M  V30 4839 H 450.962 -3.68447 2.76737 0
M  V30 4840 H 449.277 -3.42206 2.37243 0
M  V30 4841 H 451.874 -5.33529 0.353705 0
M  V30 4842 H 452.217 -4.08264 -0.814006 0
M  V30 4843 H 452.75 -3.88108 0.872769 0
M  V30 4844 H 449.489 -5.68138 3.26955 0
M  V30 4845 H 449.009 -5.79145 1.5605 0
M  V30 4846 H 450.688 -6.13911 2.0426 0
M  V30 4847 N 450.82 -0.546701 -1.47814 0
M  V30 4848 C 452.097 0.0464413 -1.95545 0
M  V30 4849 C 452.477 1.4962 -1.48919 0
M  V30 4850 O 451.825 2.16752 -0.723232 0
M  V30 4851 C 452.035 -0.0881298 -3.48889 0
M  V30 4852 C 453.383 0.0626059 -4.24554 0
M  V30 4853 O 454.407 -0.0151555 -3.56197 0
M  V30 4854 O 453.266 0.228071 -5.46024 0
M  V30 4855 H 450.36 0.0700004 -0.824032 0
M  V30 4856 H 452.906 -0.612482 -1.58262 0
M  V30 4857 H 451.678 -1.09737 -3.75597 0
M  V30 4858 H 451.301 0.608886 -3.9291 0
M  V30 4859 N 452.299 1.55045 -0.282633 0
M  V30 4860 C 453.231 2.2023 0.634924 0
M  V30 4861 C 454.244 1.18931 1.11172 0
M  V30 4862 O 455.433 1.4562 1.03233 0
M  V30 4863 C 452.533 2.82041 1.87899 0
M  V30 4864 C 451.706 4.091 1.54776 0
M  V30 4865 C 450.765 4.54887 2.64507 0
M  V30 4866 O 449.791 5.20496 2.30375 0
M  V30 4867 N 450.993 4.25659 3.94709 0
M  V30 4868 H 453.758 2.99601 0.0769811 0
M  V30 4869 H 451.319 1.61565 -0.104048 0
M  V30 4870 H 453.311 3.09613 2.60619 0
M  V30 4871 H 451.881 2.06618 2.3458 0
M  V30 4872 H 451.101 3.88736 0.654049 0
M  V30 4873 H 452.389 4.9187 1.30158 0
M  V30 4874 H 451.787 3.7306 4.25256 0
M  V30 4875 H 450.344 4.57984 4.63782 0
M  V30 4876 N 453.777 0.010035 1.57597 0
M  V30 4877 C 455.026 -0.671945 1.90178 0
M  V30 4878 C 455.339 -1.74376 0.886131 0
M  V30 4879 O 456.545 -2.48107 1.10252 0
M  V30 4880 C 455.001 -1.24636 3.3763 0
M  V30 4881 C 454.609 -0.208838 4.47513 0
M  V30 4882 C 456.353 -1.90595 3.79307 0
M  V30 4883 C 454.26 -0.793814 5.86048 0
M  V30 4884 H 453.19 -0.25474 0.709665 0
M  V30 4885 H 455.841 0.0722206 1.83358 0
M  V30 4886 H 454.223 -2.04152 3.3932 0
M  V30 4887 H 455.397 0.562463 4.57354 0
M  V30 4888 H 453.712 0.350889 4.14919 0
M  V30 4889 H 456.309 -2.35284 4.80151 0
M  V30 4890 H 456.652 -2.74074 3.13352 0
M  V30 4891 H 457.185 -1.17798 3.79958 0
M  V30 4892 H 453.924 0.00240855 6.555 0
M  V30 4893 H 453.444 -1.53404 5.79851 0
M  V30 4894 H 455.123 -1.2894 6.34022 0
M  V30 4895 N 455.255 -1.55392 -0.262866 0
M  V30 4896 C 456.185 -1.91978 -1.32917 0
M  V30 4897 C 457.166 -0.7828 -1.51017 0
M  V30 4898 O 458.351 -1.04178 -1.63892 0
M  V30 4899 C 455.481 -2.20055 -2.68687 0
M  V30 4900 C 454.435 -3.35854 -2.65304 0
M  V30 4901 C 453.761 -3.49435 -4.04721 0
M  V30 4902 C 455.061 -4.71977 -2.23685 0
M  V30 4903 H 456.755 -2.81292 -1.02544 0
M  V30 4904 H 454.301 -1.3534 -0.491846 0
M  V30 4905 H 456.254 -2.44237 -3.43404 0
M  V30 4906 H 454.978 -1.27551 -3.00663 0
M  V30 4907 H 453.637 -3.11655 -1.93045 0
M  V30 4908 H 453.285 -2.54379 -4.33936 0
M  V30 4909 H 452.985 -4.27297 -4.0335 0
M  V30 4910 H 454.509 -3.7592 -4.81161 0
M  V30 4911 H 455.923 -4.95637 -2.88127 0
M  V30 4912 H 454.32 -5.52828 -2.33456 0
M  V30 4913 H 455.39 -4.70115 -1.18827 0
M  V30 4914 N 456.733 0.527833 -1.48498 0
M  V30 4915 C 458.149 0.856571 -1.34666 0
M  V30 4916 C 458.349 1.98271 -0.35931 0
M  V30 4917 O 457.405 2.51551 0.218703 0
M  V30 4918 C 458.718 1.22207 -2.74747 0
M  V30 4919 C 460.266 1.33183 -2.83251 0
M  V30 4920 C 460.741 1.73075 -4.24039 0
M  V30 4921 N 462.232 1.80174 -4.26722 0
M  V30 4922 C 462.967 2.1243 -5.32598 0
M  V30 4923 N 462.463 2.43096 -6.4875 0
M  V30 4924 N 464.256 2.13454 -5.19994 0
M  V30 4925 H 456.407 -0.215174 -2.11307 0
M  V30 4926 H 458.67 -0.0336281 -0.947403 0
M  V30 4927 H 458.376 0.468195 -3.4857 0
M  V30 4928 H 458.25 2.17173 -3.08409 0
M  V30 4929 H 460.637 2.07647 -2.09683 0
M  V30 4930 H 460.718 0.363333 -2.53206 0
M  V30 4931 H 460.362 0.991712 -4.98124 0
M  V30 4932 H 460.292 2.70979 -4.51529 0
M  V30 4933 H 462.783 1.58744 -3.42942 0
M  V30 4934 H 463.096 2.6682 -7.25277 0
M  V30 4935 H 461.441 2.40611 -6.52021 0
M  V30 4936 H 464.632 1.88956 -4.28268 0
M  V30 4937 H 464.805 2.38261 -6.02608 0
M  V30 4938 N 458.211 1.37122 0.776871 0
M  V30 4939 C 459.161 1.28989 1.88005 0
M  V30 4940 C 460.145 0.178765 1.59904 0
M  V30 4941 O 461.337 0.412705 1.72121 0
M  V30 4942 C 458.466 1.09402 3.25402 0
M  V30 4943 C 457.552 2.25036 3.59471 0
M  V30 4944 N 457.943 3.50407 3.64759 0
M  V30 4945 C 456.241 2.17078 3.89607 0
M  V30 4946 C 456.942 4.26628 3.95428 0
M  V30 4947 N 455.918 3.55709 4.11062 0
M  V30 4948 H 459.72 2.2394 1.90337 0
M  V30 4949 H 457.234 1.30021 0.973052 0
M  V30 4950 H 459.231 1.01661 4.04315 0
M  V30 4951 H 457.891 0.153632 3.24336 0
M  V30 4952 H 458.902 3.8438 3.47091 0
M  V30 4953 H 455.579 1.31067 3.96393 0
M  V30 4954 H 456.969 5.35107 4.06338 0
M  V30 4955 N 459.689 -1.00246 1.21608 0
M  V30 4956 C 460.966 -1.71336 0.943568 0
M  V30 4957 C 461.346 -2.03972 -0.543943 0
M  V30 4958 O 460.694 -1.71545 -1.50946 0
M  V30 4959 C 460.904 -2.97094 1.83128 0
M  V30 4960 C 462.252 -3.70071 2.08165 0
M  V30 4961 O 463.276 -3.07081 1.80498 0
M  V30 4962 O 462.135 -4.83376 2.54971 0
M  V30 4963 H 459.229 -0.747386 0.354039 0
M  V30 4964 H 461.775 -1.05967 1.32549 0
M  V30 4965 H 460.547 -2.69407 2.83788 0
M  V30 4966 H 460.17 -3.70204 1.45034 0
M  V30 4967 N 461.167 -1.02423 -1.1978 0
M  V30 4968 C 462.414 -0.717988 -1.89344 0
M  V30 4969 C 462.742 0.753036 -1.79331 0
M  V30 4970 O 461.997 1.56355 -1.17692 0
M  V30 4971 C 462.296 -1.1088 -3.39765 0
M  V30 4972 C 461.962 -2.57731 -3.6998 0
M  V30 4973 C 460.624 -2.97854 -3.77937 0
M  V30 4974 C 462.976 -3.52763 -3.83677 0
M  V30 4975 C 460.304 -4.31931 -3.97054 0
M  V30 4976 C 462.656 -4.86538 -4.04306 0
M  V30 4977 C 461.32 -5.26356 -4.10494 0
M  V30 4978 H 460.59 -0.26273 -0.692859 0
M  V30 4979 H 463.237 -1.28623 -1.41875 0
M  V30 4980 H 461.542 -0.459094 -3.89101 0
M  V30 4981 H 463.239 -0.849432 -3.919 0
M  V30 4982 H 459.829 -2.25646 -3.64393 0
M  V30 4983 H 464.013 -3.2292 -3.76877 0
M  V30 4984 H 459.269 -4.62324 -4.00083 0
M  V30 4985 H 463.443 -5.60093 -4.13846 0
M  V30 4986 H 461.07 -6.3026 -4.2506 0
M  V30 4987 N 462.645 1.35699 -0.801477 0
M  V30 4988 C 463.892 1.98913 -0.379459 0
M  V30 4989 C 464.22 1.63592 1.05204 0
M  V30 4990 O 463.475 0.888563 1.74365 0
M  V30 4991 C 463.774 3.53828 -0.504041 0
M  V30 4992 C 463.44 4.09002 -1.8981 0
M  V30 4993 C 462.102 4.23783 -2.27951 0
M  V30 4994 C 464.454 4.38939 -2.81038 0
M  V30 4995 C 461.782 4.65816 -3.56696 0
M  V30 4996 C 464.134 4.82409 -4.09224 0
M  V30 4997 C 462.798 4.95395 -4.4737 0
M  V30 4998 H 462.068 0.727874 -0.138854 0
M  V30 4999 H 464.715 1.61994 -1.02128 0
M  V30 5000 H 463.02 3.91175 0.221242 0
M  V30 5001 H 464.717 4.00687 -0.158361 0
M  V30 5002 H 461.307 3.97946 -1.59176 0
M  V30 5003 H 465.491 4.27077 -2.52821 0
M  V30 5004 H 460.747 4.74059 -3.86106 0
M  V30 5005 H 464.921 5.04535 -4.80018 0
M  V30 5006 H 462.548 5.27724 -5.47185 0
M  V30 5007 N 464.123 0.554532 1.47522 0
M  V30 5008 C 465.351 0.034257 2.06872 0
M  V30 5009 C 465.766 -1.25826 1.40759 0
M  V30 5010 O 465.123 -1.75425 0.503217 0
M  V30 5011 C 465.174 -0.167827 3.6111 0
M  V30 5012 O 464.895 1.07351 4.24744 0
M  V30 5013 C 466.396 -0.72569 4.3732 0
M  V30 5014 H 463.616 0.0446275 0.669514 0
M  V30 5015 H 466.16 0.767181 1.89564 0
M  V30 5016 H 464.315 -0.850872 3.7794 0
M  V30 5017 H 464.729 0.869563 5.17242 0
M  V30 5018 H 466.203 -0.816394 5.45929 0
M  V30 5019 H 466.68 -1.73635 4.0342 0
M  V30 5020 H 467.286 -0.0784292 4.25228 0
M  V30 5021 N 465.601 -1.54893 0.290851 0
M  V30 5022 C 466.548 -2.23138 -0.58974 0
M  V30 5023 C 467.518 -1.21036 -1.13752 0
M  V30 5024 O 468.703 -1.49626 -1.18392 0
M  V30 5025 C 465.843 -2.96811 -1.76061 0
M  V30 5026 C 464.956 -4.13665 -1.24519 0
M  V30 5027 C 464.091 -4.74944 -2.3791 0
M  V30 5028 C 463.13 -5.83963 -1.83451 0
M  V30 5029 N 462.267 -6.39239 -2.90376 0
M  V30 5030 H 467.107 -2.98 -0.00114915 0
M  V30 5031 H 464.644 -1.47096 0.0112006 0
M  V30 5032 H 466.602 -3.37751 -2.44909 0
M  V30 5033 H 465.232 -2.24344 -2.32098 0
M  V30 5034 H 464.284 -3.77737 -0.449288 0
M  V30 5035 H 465.596 -4.92238 -0.806424 0
M  V30 5036 H 464.75 -5.18684 -3.14724 0
M  V30 5037 H 463.489 -3.95682 -2.85109 0
M  V30 5038 H 462.494 -5.39657 -1.05122 0
M  V30 5039 H 463.719 -6.65103 -1.37169 0
M  V30 5040 H 461.665 -5.62864 -3.36927 0
M  V30 5041 H 461.582 -7.13129 -2.50965 0
M  V30 5042 H 462.85 -6.87637 -3.67118 0
M  V30 5043 N 467.08 -0.0183926 -1.57589 0
M  V30 5044 C 468.328 0.661253 -1.90976 0
M  V30 5045 C 468.649 1.73281 -0.894353 0
M  V30 5046 O 467.919 1.9579 0.0656788 0
M  V30 5047 H 466.499 0.247233 -0.704901 0
M  V30 5048 H 469.161 -0.0636639 -1.94796 0
M  V30 5049 H 468.257 1.12083 -2.9128 0
M  V30 5050 N 468.558 1.5553 0.254621 0
M  V30 5051 C 469.788 1.80784 1.00004 0
M  V30 5052 C 470.196 0.59071 1.79742 0
M  V30 5053 O 469.539 -0.449988 1.78103 0
M  V30 5054 C 469.601 2.99268 1.99196 0
M  V30 5055 C 469.265 4.35595 1.38224 0
M  V30 5056 C 470.262 5.13884 0.788611 0
M  V30 5057 C 467.947 4.82281 1.40393 0
M  V30 5058 C 469.941 6.37004 0.224783 0
M  V30 5059 C 467.628 6.05351 0.836243 0
M  V30 5060 C 468.626 6.82551 0.24769 0
M  V30 5061 O 468.314 8.03297 -0.311249 0
M  V30 5062 H 468.046 0.60565 0.300274 0
M  V30 5063 H 470.6 2.03411 0.285143 0
M  V30 5064 H 468.83 2.72377 2.74496 0
M  V30 5065 H 470.519 3.11682 2.60018 0
M  V30 5066 H 471.285 4.78938 0.764423 0
M  V30 5067 H 467.164 4.22189 1.85142 0
M  V30 5068 H 470.708 6.97203 -0.235235 0
M  V30 5069 H 466.605 6.39776 0.857733 0
M  V30 5070 H 467.373 8.1825 -0.20237 0
M  V30 5071 N 470.036 -0.519951 1.48776 0
M  V30 5072 C 471.264 -1.29971 1.60982 0
M  V30 5073 C 471.679 -1.86803 0.273885 0
M  V30 5074 O 471.036 -1.66904 -0.738193 0
M  V30 5075 C 471.087 -2.44346 2.66415 0
M  V30 5076 O 470.808 -1.89855 3.94825 0
M  V30 5077 C 472.309 -3.36014 2.89153 0
M  V30 5078 H 469.529 -0.394891 0.542496 0
M  V30 5079 H 472.073 -0.626214 1.94676 0
M  V30 5080 H 470.228 -3.07562 2.35552 0
M  V30 5081 H 470.642 -2.64798 4.5275 0
M  V30 5082 H 472.116 -4.12593 3.66703 0
M  V30 5083 H 472.593 -3.91859 1.98351 0
M  V30 5084 H 473.199 -2.78582 3.21359 0
M  V30 5085 N 471.514 -1.37532 -0.769588 0
M  V30 5086 C 472.925 -1.29382 -1.346 0
M  V30 5087 C 473.276 0.0576039 -1.96115 0
M  V30 5088 O 472.401 0.95947 -1.93967 0
M  V30 5089 C 472.996 -2.34298 -2.44724 0
M  V30 5090 C 471.555 -2.29776 -2.98128 0
M  V30 5091 C 470.702 -2.18013 -1.71364 0
M  V30 5092 H 473.653 -1.48123 -0.56968 0
M  V30 5093 H 473.674 -1.99089 -3.24259 0
M  V30 5094 H 473.186 -3.32645 -1.99922 0
M  V30 5095 H 471.287 -1.34959 -3.47299 0
M  V30 5096 H 471.4 -3.23276 -3.53595 0
M  V30 5097 H 469.764 -1.64595 -1.94372 0
M  V30 5098 H 470.547 -3.18278 -1.28662 0
M  V30 5099 N 472.992 0.995999 -1.22138 0
M  V30 5100 C 474.269 1.70834 -0.952642 0
M  V30 5101 C 474.649 2.04257 0.533119 0
M  V30 5102 O 473.997 1.72343 1.50034 0
M  V30 5103 C 474.207 2.96119 -1.84701 0
M  V30 5104 C 475.555 3.68962 -2.10124 0
M  V30 5105 O 476.579 3.0612 -1.82124 0
M  V30 5106 O 475.438 4.82017 -2.57531 0
M  V30 5107 H 472.532 0.745498 -0.357997 0
M  V30 5108 H 475.078 1.05262 -1.33109 0
M  V30 5109 H 473.85 2.67898 -2.85213 0
M  V30 5110 H 473.473 3.6943 -1.46995 0
M  V30 5111 N 474.47 1.03057 1.19235 0
M  V30 5112 C 475.886 0.747947 1.40989 0
M  V30 5113 C 476.086 -0.666752 1.90149 0
M  V30 5114 O 475.142 -1.43249 2.07933 0
M  V30 5115 C 476.455 1.7855 2.41951 0
M  V30 5116 C 478.003 1.80524 2.55695 0
M  V30 5117 C 478.478 2.83243 3.59913 0
M  V30 5118 N 479.969 2.8207 3.67411 0
M  V30 5119 C 480.704 3.58204 4.47747 0
M  V30 5120 N 480.2 4.44057 5.31775 0
M  V30 5121 N 481.993 3.46738 4.42413 0
M  V30 5122 H 474.144 1.94367 0.856468 0
M  V30 5123 H 476.407 0.840412 0.438647 0
M  V30 5124 H 476.113 2.79973 2.12857 0
M  V30 5125 H 475.987 1.6092 3.41152 0
M  V30 5126 H 478.374 0.79778 2.84112 0
M  V30 5127 H 478.455 2.02229 1.56643 0
M  V30 5128 H 478.099 3.84161 3.32239 0
M  V30 5129 H 478.029 2.58795 4.5862 0
M  V30 5130 H 480.52 2.19803 3.074 0
M  V30 5131 H 480.833 4.98884 5.90199 0
M  V30 5132 H 479.178 4.48129 5.3123 0
M  V30 5133 H 482.369 2.79077 3.75811 0
M  V30 5134 H 482.542 4.06322 5.04783 0
M  V30 5135 N 475.948 -1.35272 0.808662 0
M  V30 5136 C 476.878 -2.32315 0.234981 0
M  V30 5137 C 477.859 -1.57572 -0.64071 0
M  V30 5138 O 479.044 -1.8563 -0.570551 0
M  V30 5139 C 476.174 -3.41801 -0.615601 0
M  V30 5140 C 475.128 -4.27694 0.161767 0
M  V30 5141 C 474.454 -5.28519 -0.810649 0
M  V30 5142 C 475.754 -5.04231 1.36193 0
M  V30 5143 H 477.448 -2.80543 1.04575 0
M  V30 5144 H 474.994 -1.3488 0.504315 0
M  V30 5145 H 476.947 -4.08693 -1.02702 0
M  V30 5146 H 475.671 -2.92186 -1.45928 0
M  V30 5147 H 474.33 -3.62384 0.554382 0
M  V30 5148 H 473.978 -4.75171 -1.64988 0
M  V30 5149 H 473.678 -5.8686 -0.294822 0
M  V30 5150 H 475.202 -5.98283 -1.22023 0
M  V30 5151 H 476.616 -5.64058 1.02528 0
M  V30 5152 H 475.013 -5.72077 1.81239 0
M  V30 5153 H 476.083 -4.34753 2.14751 0
M  V30 5154 N 477.426 -0.562348 -1.47226 0
M  V30 5155 C 478.837 -0.130325 -1.86245 0
M  V30 5156 C 479.188 1.30128 -1.46838 0
M  V30 5157 O 478.313 1.97974 -0.873805 0
M  V30 5158 C 478.908 -0.229738 -3.3802 0
M  V30 5159 C 477.467 0.14728 -3.76112 0
M  V30 5160 C 476.614 -0.574971 -2.71274 0
M  V30 5161 H 479.565 -0.771773 -1.3867 0
M  V30 5162 H 479.586 0.550316 -3.76499 0
M  V30 5163 H 479.098 -1.27178 -3.66671 0
M  V30 5164 H 477.199 1.19023 -3.53078 0
M  V30 5165 H 477.312 -0.214858 -4.78618 0
M  V30 5166 H 475.676 -0.0174756 -2.54694 0
M  V30 5167 H 476.459 -1.61827 -3.02766 0
M  V30 5168 N 478.904 1.54736 -0.299062 0
M  V30 5169 C 480.153 1.99279 0.311549 0
M  V30 5170 C 480.466 1.19107 1.55154 0
M  V30 5171 O 481.672 1.53908 2.23662 0
M  V30 5172 C 480.128 3.54768 0.605632 0
M  V30 5173 C 479.736 4.43746 -0.615914 0
M  V30 5174 C 481.48 4.07841 1.17754 0
M  V30 5175 C 479.387 5.90663 -0.29509 0
M  V30 5176 H 478.317 0.744359 0.120187 0
M  V30 5177 H 480.968 1.78919 -0.407464 0
M  V30 5178 H 479.35 3.71021 1.38419 0
M  V30 5179 H 480.524 4.39267 -1.39218 0
M  V30 5180 H 478.839 4.01434 -1.10633 0
M  V30 5181 H 481.436 5.15174 1.43179 0
M  V30 5182 H 481.779 3.58324 2.11918 0
M  V30 5183 H 482.312 3.95123 0.460739 0
M  V30 5184 H 479.051 6.44325 -1.20524 0
M  V30 5185 H 478.571 5.98155 0.44394 0
M  V30 5186 H 480.25 6.46916 0.104048 0
M  V30 5187 N 480.382 0.0267497 1.57577 0
M  V30 5188 C 481.607 -0.666227 1.96408 0
M  V30 5189 C 482.032 -1.65004 0.903071 0
M  V30 5190 O 481.39 -1.80787 -0.136263 0
M  V30 5191 C 481.438 -1.35101 3.34335 0
M  V30 5192 O 480.542 -2.46623 3.30531 0
M  V30 5193 H 479.883 -0.175206 0.640468 0
M  V30 5194 H 482.413 0.0878977 2.04411 0
M  V30 5195 H 482.423 -1.70834 3.70513 0
M  V30 5196 H 481.098 -0.629844 4.11103 0
M  V30 5197 H 479.675 -2.13019 3.06068 0
M  V30 5198 N 481.861 -1.55662 -0.24637 0
M  V30 5199 C 483.086 -1.81914 -0.996093 0
M  V30 5200 C 483.511 -0.603875 -1.78143 0
M  V30 5201 O 482.869 0.447091 -1.75701 0
M  V30 5202 C 482.917 -3.05908 -1.90925 0
M  V30 5203 O 482.021 -2.82861 -3.00105 0
M  V30 5204 H 481.362 -0.600481 -0.283406 0
M  V30 5205 H 483.892 -2.02848 -0.267199 0
M  V30 5206 H 483.902 -3.35356 -2.3238 0
M  V30 5207 H 482.577 -3.93999 -1.33183 0
M  V30 5208 H 481.154 -2.64583 -2.62775 0
M  V30 5209 N 483.339 0.512053 -1.4905 0
M  V30 5210 C 484.579 1.27715 -1.59588 0
M  V30 5211 C 484.943 1.90071 -0.271502 0
M  V30 5212 O 486.144 2.67616 -0.251987 0
M  V30 5213 C 484.415 2.32399 -2.71524 0
M  V30 5214 S 485.974 3.18396 -3.01943 0
M  V30 5215 H 482.792 0.43419 -0.563027 0
M  V30 5216 H 485.394 0.581315 -1.86657 0
M  V30 5217 H 484.098 1.85101 -3.66287 0
M  V30 5218 H 483.629 3.06667 -2.46412 0
M  V30 5219 H 485.644 4.32842 -2.42616 0
M  V30 5220 N 484.817 1.37938 0.762283 0
M  V30 5221 C 486.063 1.33866 1.52341 0
M  V30 5222 C 486.396 -0.0738961 1.94059 0
M  V30 5223 O 485.671 -1.03326 1.64785 0
M  V30 5224 C 485.954 2.28644 2.78197 0
M  V30 5225 C 485.807 3.78722 2.42672 0
M  V30 5226 C 487.126 2.21702 3.80179 0
M  V30 5227 H 484.245 0.487593 0.55265 0
M  V30 5228 H 486.887 1.68717 0.873767 0
M  V30 5229 H 485.037 1.99055 3.33631 0
M  V30 5230 H 486.709 4.18948 1.93081 0
M  V30 5231 H 484.952 3.96827 1.75244 0
M  V30 5232 H 485.623 4.40486 3.3268 0
M  V30 5233 H 488.099 2.47805 3.34263 0
M  V30 5234 H 486.975 2.90143 4.65949 0
M  V30 5235 H 487.236 1.21301 4.25133 0
M  V30 5236 N 486.295 -0.989507 1.22664 0
M  V30 5237 C 487.523 -1.76496 1.07967 0
M  V30 5238 C 487.938 -1.85148 -0.369543 0
M  V30 5239 O 487.295 -1.32408 -1.25596 0
M  V30 5240 C 487.346 -3.19642 1.68853 0
M  V30 5241 O 487.067 -3.11453 3.08105 0
M  V30 5242 C 488.568 -4.13621 1.59475 0
M  V30 5243 H 485.788 -0.55418 0.378319 0
M  V30 5244 H 488.332 -1.24378 1.62328 0
M  V30 5245 H 486.487 -3.68816 1.18547 0
M  V30 5246 H 486.901 -4.01499 3.37489 0
M  V30 5247 H 488.375 -5.11801 2.06795 0
M  V30 5248 H 488.852 -4.35718 0.55191 0
M  V30 5249 H 489.458 -3.70346 2.09103 0
M  V30 5250 N 487.773 -1.03688 -1.18687 0
M  V30 5251 C 489.019 -0.739123 -1.88851 0
M  V30 5252 C 489.352 0.731042 -1.79915 0
M  V30 5253 O 488.627 1.53313 -1.19688 0
M  V30 5254 C 488.91 -1.20106 -3.3948 0
M  V30 5255 C 488.763 -2.73304 -3.57246 0
M  V30 5256 C 490.082 -0.788134 -4.32986 0
M  V30 5257 H 487.201 -0.269978 -0.68577 0
M  V30 5258 H 489.843 -1.28822 -1.3966 0
M  V30 5259 H 487.993 -0.733915 -3.81505 0
M  V30 5260 H 489.665 -3.28027 -3.24339 0
M  V30 5261 H 487.908 -3.13313 -3.00029 0
M  V30 5262 H 488.579 -3.00684 -4.62918 0
M  V30 5263 H 491.055 -1.19005 -3.98719 0
M  V30 5264 H 489.931 -1.13915 -5.36949 0
M  V30 5265 H 490.192 0.308988 -4.41019 0
M  V30 5266 N 489.251 1.34841 -0.815825 0
M  V30 5267 C 490.662 1.80937 -0.46029 0
M  V30 5268 C 491.013 1.67685 1.01863 0
M  V30 5269 O 490.138 1.21277 1.79223 0
M  V30 5270 C 490.733 3.28509 -0.828708 0
M  V30 5271 C 489.292 3.72712 -0.525644 0
M  V30 5272 C 488.439 2.56676 -1.04941 0
M  V30 5273 H 491.39 1.22688 -1.00664 0
M  V30 5274 H 491.411 3.80279 -0.129757 0
M  V30 5275 H 490.923 3.38122 -1.90513 0
M  V30 5276 H 489.024 3.68642 0.541666 0
M  V30 5277 H 489.137 4.67119 -1.06474 0
M  V30 5278 H 487.501 2.50302 -0.471286 0
M  V30 5279 H 488.284 2.69063 -2.13214 0
M  V30 5280 N 490.729 0.570148 1.46925 0
M  V30 5281 C 492.006 -0.0153259 1.95594 0
M  V30 5282 C 492.386 -1.47232 1.51281 0
M  V30 5283 O 491.734 -2.15574 0.757624 0
M  V30 5284 C 491.944 0.143624 3.48704 0
M  V30 5285 C 493.292 0.00494484 4.246 0
M  V30 5286 O 494.316 0.0718214 3.56128 0
M  V30 5287 O 493.175 -0.141175 5.46318 0
M  V30 5288 H 490.269 -0.0568819 0.825041 0
M  V30 5289 H 492.815 0.637583 1.57267 0
M  V30 5290 H 491.587 1.15699 3.73804 0
M  V30 5291 H 491.21 -0.5463 3.93829 0
M  V30 5292 N 492.207 -1.54576 0.307264 0
M  V30 5293 C 493.137 -2.26708 -0.55907 0
M  V30 5294 C 494.118 -1.26893 -1.1328 0
M  V30 5295 O 495.303 -1.55677 -1.16097 0
M  V30 5296 C 492.433 -3.01259 -1.72801 0
M  V30 5297 C 491.387 -4.08275 -1.28435 0
M  V30 5298 C 490.713 -4.70575 -2.53895 0
M  V30 5299 C 492.013 -5.2068 -0.411038 0
M  V30 5300 H 493.707 -2.9937 0.042576 0
M  V30 5301 H 491.253 -1.43983 0.0219173 0
M  V30 5302 H 493.206 -3.50444 -2.34023 0
M  V30 5303 H 491.93 -2.26187 -2.356 0
M  V30 5304 H 490.589 -3.59949 -0.695161 0
M  V30 5305 H 490.237 -3.92136 -3.15021 0
M  V30 5306 H 489.937 -5.42854 -2.24908 0
M  V30 5307 H 491.461 -5.22527 -3.15908 0
M  V30 5308 H 492.875 -5.65721 -0.929097 0
M  V30 5309 H 491.272 -5.99716 -0.214664 0
M  V30 5310 H 492.342 -4.81629 0.562287 0
M  V30 5311 N 493.685 -0.035106 -1.57561 0
M  V30 5312 C 494.913 0.652258 -1.9635 0
M  V30 5313 C 495.328 1.65317 -0.911897 0
M  V30 5314 O 494.685 1.82194 0.105657 0
M  V30 5315 C 494.736 1.35337 -3.35211 0
M  V30 5316 O 494.457 0.392548 -4.36338 0
M  V30 5317 C 495.958 2.13199 -3.88666 0
M  V30 5318 H 493.178 0.179444 -0.646561 0
M  V30 5319 H 495.722 -0.0966459 -2.04271 0
M  V30 5320 H 493.877 2.05362 -3.28489 0
M  V30 5321 H 494.291 0.891097 -5.16875 0
M  V30 5322 H 495.765 2.577 -4.88154 0
M  V30 5323 H 496.242 2.97353 -3.23231 0
M  V30 5324 H 496.848 1.48118 -3.98674 0
M  V30 5325 N 495.163 1.55791 0.238111 0
M  V30 5326 C 496.574 1.68383 0.806472 0
M  V30 5327 C 496.925 0.634157 1.85669 0
M  V30 5328 O 496.05 -0.217913 2.153 0
M  V30 5329 C 496.645 3.05268 1.46959 0
M  V30 5330 C 495.204 3.1977 1.98555 0
M  V30 5331 C 494.351 2.64279 0.839763 0
M  V30 5332 H 497.302 1.58694 0.0137535 0
M  V30 5333 H 497.323 3.00203 2.33792 0
M  V30 5334 H 496.835 3.81643 0.704993 0
M  V30 5335 H 494.936 2.48234 2.77868 0
M  V30 5336 H 495.049 4.26788 2.17689 0
M  V30 5337 H 493.413 2.22329 1.24265 0
M  V30 5338 H 494.196 3.43187 0.0881032 0
M  V30 5339 N 496.642 -0.504142 1.49319 0
M  V30 5340 C 498.053 -1.08572 1.51885 0
M  V30 5341 C 498.404 -1.93842 0.303255 0
M  V30 5342 O 497.529 -2.0828 -0.58724 0
M  V30 5343 C 498.124 -1.97574 2.75227 0
M  V30 5344 C 496.683 -2.509 2.80581 0
M  V30 5345 C 495.83 -1.28447 2.45757 0
M  V30 5346 H 498.781 -0.288194 1.56061 0
M  V30 5347 H 498.802 -2.82219 2.55211 0
M  V30 5348 H 498.314 -1.35486 3.63683 0
M  V30 5349 H 496.415 -3.16636 1.96398 0
M  V30 5350 H 496.528 -2.88268 3.82673 0
M  V30 5351 H 494.892 -1.60868 1.97468 0
M  V30 5352 H 495.675 -0.68072 3.36483 0
M  V30 5353 N 498.12 -1.38341 -0.754957 0
M  V30 5354 C 499.068 -1.35573 -1.89005 0
M  V30 5355 C 500.062 -0.241824 -1.67665 0
M  V30 5356 O 501.268 -0.410785 -1.7525 0
M  V30 5357 H 497.643 -0.422898 -0.621821 0
M  V30 5358 H 499.614 -2.31359 -1.88455 0
M  V30 5359 C 498.363 -1.19631 -3.26471 0
M  V30 5360 H 497.686 -2.04605 -3.43477 0
M  V30 5361 H 499.126 -1.21748 -4.06144 0
M  V30 5362 C 497.585 0.0968705 -3.36761 0
M  V30 5363 O 498.115 1.07439 -3.87066 0
M  V30 5364 N 496.321 0.153242 -2.90196 0
M  V30 5365 H 495.868 -0.642908 -2.49448 0
M  V30 5366 H 495.826 1.01807 -2.9746 0
M  V30 5367 N 499.598 0.982988 -1.23187 0
M  V30 5368 C 501.009 1.53847 -1.05773 0
M  V30 5369 C 501.36 1.92568 0.375744 0
M  V30 5370 O 500.485 1.75783 1.26211 0
M  V30 5371 C 501.08 2.79567 -1.91384 0
M  V30 5372 C 499.639 3.31524 -1.78238 0
M  V30 5373 C 498.786 2.04534 -1.87246 0
M  V30 5374 H 501.737 0.802962 -1.36888 0
M  V30 5375 H 501.758 3.52317 -1.43711 0
M  V30 5376 H 501.27 2.51353 -2.95708 0
M  V30 5377 H 499.371 3.64623 -0.766875 0
M  V30 5378 H 499.484 4.01457 -2.61475 0
M  V30 5379 H 497.848 2.1855 -1.30797 0
M  V30 5380 H 498.631 1.78706 -2.9312 0
M  V30 5381 N 501.076 1.04316 1.18135 0
M  V30 5382 C 502.039 0.640794 2.2006 0
M  V30 5383 C 503.039 -0.303124 1.57917 0
M  V30 5384 O 504.229 -0.0881855 1.73977 0
M  V30 5385 C 501.361 -0.060148 3.40847 0
M  V30 5386 H 502.554 1.54281 2.57172 0
M  V30 5387 H 500.107 0.836004 1.32063 0
M  V30 5388 H 500.842 -0.975845 3.0927 0
M  V30 5389 H 500.627 0.618319 3.87194 0
M  V30 5390 H 502.117 -0.328082 4.16309 0
M  V30 5391 N 502.554 -1.34406 0.822964 0
M  V30 5392 C 503.97 -1.51275 0.508727 0
M  V30 5393 C 504.17 -1.76776 -0.967083 0
M  V30 5394 O 503.226 -1.81871 -1.75155 0
M  V30 5395 C 504.539 -2.67765 1.36829 0
M  V30 5396 C 506.087 -2.81647 1.36542 0
M  V30 5397 C 506.562 -4.01181 2.20947 0
M  V30 5398 N 508.053 -4.08388 2.18571 0
M  V30 5399 C 508.788 -5.00036 2.80627 0
M  V30 5400 N 508.284 -5.96906 3.51674 0
M  V30 5401 N 510.077 -4.92908 2.70181 0
M  V30 5402 H 502.228 -1.16113 1.77852 0
M  V30 5403 H 504.491 -0.56947 0.757897 0
M  V30 5404 H 504.197 -2.55551 2.41633 0
M  V30 5405 H 504.071 -3.62779 1.03303 0
M  V30 5406 H 506.458 -2.93303 0.325163 0
M  V30 5407 H 506.539 -1.87443 1.74066 0
M  V30 5408 H 506.183 -3.90286 3.25022 0
M  V30 5409 H 506.113 -4.94599 1.80774 0
M  V30 5410 H 508.604 -3.39051 1.66891 0
M  V30 5411 H 508.917 -6.63468 3.96271 0
M  V30 5412 H 507.262 -5.9703 3.5578 0
M  V30 5413 H 510.453 -4.1619 2.14251 0
M  V30 5414 H 510.626 -5.64137 3.18831 0
M  V30 5415 N 504.032 -0.577932 -1.46621 0
M  V30 5416 C 505.257 -0.0652536 -2.07297 0
M  V30 5417 C 505.682 1.22828 -1.4246 0
M  V30 5418 O 505.04 1.74075 -0.506718 0
M  V30 5419 C 505.088 0.0920589 -3.60482 0
M  V30 5420 O 504.192 1.14972 -3.96049 0
M  V30 5421 H 503.533 -0.06065 -0.661224 0
M  V30 5422 H 506.063 -0.799515 -1.88332 0
M  V30 5423 H 506.073 0.299741 -4.06897 0
M  V30 5424 H 504.748 -0.852612 -4.07067 0
M  V30 5425 H 503.325 0.920879 -3.61351 0
M  V30 5426 N 505.51 1.54411 -0.315457 0
M  V30 5427 C 506.44 2.27002 0.547039 0
M  V30 5428 C 507.421 1.27492 1.12605 0
M  V30 5429 O 508.606 1.5629 1.15269 0
M  V30 5430 C 505.736 3.02171 1.71201 0
M  V30 5431 C 504.69 4.0895 1.26268 0
M  V30 5432 C 504.016 4.71915 2.51396 0
M  V30 5433 C 505.316 5.20891 0.383419 0
M  V30 5434 H 507.01 2.99343 -0.0584517 0
M  V30 5435 H 504.556 1.4397 -0.0295527 0
M  V30 5436 H 506.509 3.51681 2.32161 0
M  V30 5437 H 505.233 2.27433 2.34397 0
M  V30 5438 H 503.892 3.60312 0.676062 0
M  V30 5439 H 503.54 3.93801 3.12937 0
M  V30 5440 H 503.24 5.44039 2.22026 0
M  V30 5441 H 504.764 5.24195 3.13133 0
M  V30 5442 H 506.178 5.66206 0.899082 0
M  V30 5443 H 504.575 5.99821 0.182857 0
M  V30 5444 H 505.645 4.81324 -0.587821 0
M  V30 5445 N 506.988 0.0434614 1.5754 0
M  V30 5446 C 508.235 -0.632035 1.92384 0
M  V30 5447 C 508.563 -1.71304 0.921157 0
M  V30 5448 O 507.818 -1.95583 -0.067744 0
M  V30 5449 C 508.117 -1.2738 3.3393 0
M  V30 5450 C 507.783 -0.321757 4.49751 0
M  V30 5451 C 506.445 -0.0597611 4.81163 0
M  V30 5452 C 508.797 0.331158 5.20147 0
M  V30 5453 C 506.125 0.862715 5.80322 0
M  V30 5454 C 508.477 1.24178 6.20292 0
M  V30 5455 C 507.141 1.51252 6.50138 0
M  V30 5456 H 506.411 -0.231278 0.703983 0
M  V30 5457 H 509.058 0.108294 1.91194 0
M  V30 5458 H 507.363 -2.08921 3.3145 0
M  V30 5459 H 509.06 -1.80326 3.58167 0
M  V30 5460 H 505.65 -0.53614 4.25233 0
M  V30 5461 H 509.834 0.141826 4.96097 0
M  V30 5462 H 505.09 1.08003 6.01785 0
M  V30 5463 H 509.264 1.75381 6.73954 0
M  V30 5464 H 506.891 2.22897 7.26788 0
M  V30 5465 N 508.466 -1.55915 -0.229846 0
M  V30 5466 C 509.429 -1.90914 -1.26824 0
M  V30 5467 C 510.429 -0.786999 -1.40225 0
M  V30 5468 O 511.619 -1.05484 -1.38632 0
M  V30 5469 C 508.751 -2.15264 -2.64337 0
M  V30 5470 H 509.944 -2.8378 -0.969998 0
M  V30 5471 H 507.497 -1.49069 -0.4699 0
M  V30 5472 H 508.232 -1.24923 -2.99274 0
M  V30 5473 H 508.017 -2.97005 -2.55989 0
M  V30 5474 H 509.507 -2.43467 -3.39284 0
M  V30 5475 N 509.944 0.496216 -1.49584 0
M  V30 5476 C 510.891 1.59722 -1.66606 0
M  V30 5477 C 511.861 1.58158 -0.507477 0
M  V30 5478 O 513.046 1.76072 -0.735076 0
M  V30 5479 C 510.186 2.97844 -1.74308 0
M  V30 5480 C 509.299 3.09388 -3.01502 0
M  V30 5481 C 508.434 4.38271 -3.00153 0
M  V30 5482 C 507.473 4.43466 -4.21906 0
M  V30 5483 N 506.61 5.63784 -4.1844 0
M  V30 5484 H 511.45 1.44515 -2.60613 0
M  V30 5485 H 508.987 0.703048 -1.29212 0
M  V30 5486 H 510.945 3.77907 -1.76754 0
M  V30 5487 H 509.575 3.11743 -0.837619 0
M  V30 5488 H 508.627 2.22357 -3.08645 0
M  V30 5489 H 509.939 3.09085 -3.91494 0
M  V30 5490 H 509.093 5.2666 -3.01188 0
M  V30 5491 H 507.832 4.41146 -2.07947 0
M  V30 5492 H 506.837 3.53478 -4.21109 0
M  V30 5493 H 508.062 4.42303 -5.1531 0
M  V30 5494 H 506.008 5.67491 -3.29074 0
M  V30 5495 H 505.925 5.65118 -5.02173 0
M  V30 5496 H 507.193 6.54367 -4.23585 0
M  V30 5497 N 511.423 1.38739 0.74761 0
M  V30 5498 C 512.669 1.35475 1.50912 0
M  V30 5499 C 513.002 -0.0533093 1.94127 0
M  V30 5500 O 512.277 -1.01572 1.65871 0
M  V30 5501 C 512.56 2.31582 2.75757 0
M  V30 5502 C 512.413 3.81274 2.38642 0
M  V30 5503 C 513.732 2.25722 3.77806 0
M  V30 5504 H 510.851 0.493427 0.547447 0
M  V30 5505 H 513.493 1.69634 0.855823 0
M  V30 5506 H 511.643 2.02582 3.31501 0
M  V30 5507 H 513.315 4.20972 1.88626 0
M  V30 5508 H 511.558 3.98664 1.71025 0
M  V30 5509 H 512.229 4.4399 3.27989 0
M  V30 5510 H 514.705 2.51336 3.31616 0
M  V30 5511 H 513.581 2.95069 4.62845 0
M  V30 5512 H 513.842 1.25803 4.23823 0
M  V30 5513 N 512.901 -0.976442 1.23707 0
M  V30 5514 C 514.129 -1.75341 1.09833 0
M  V30 5515 C 514.544 -1.8553 -0.349885 0
M  V30 5516 O 513.901 -1.33732 -1.24185 0
M  V30 5517 C 513.952 -3.17833 1.72233 0
M  V30 5518 O 513.673 -3.08167 3.11391 0
M  V30 5519 C 515.174 -4.11906 1.63853 0
M  V30 5520 H 512.394 -0.550137 0.384175 0
M  V30 5521 H 514.938 -1.2265 1.63638 0
M  V30 5522 H 513.093 -3.67538 1.22452 0
M  V30 5523 H 513.507 -3.97897 3.41729 0
M  V30 5524 H 514.981 -5.09579 2.12211 0
M  V30 5525 H 515.458 -4.35109 0.598092 0
M  V30 5526 H 516.064 -3.68107 2.13019 0
M  V30 5527 N 514.379 -1.04941 -1.1758 0
M  V30 5528 C 515.326 -0.648155 -2.21512 0
M  V30 5529 C 516.296 0.348431 -1.62404 0
M  V30 5530 O 517.481 0.240419 -1.89279 0
M  V30 5531 C 514.621 -0.0264291 -3.4509 0
M  V30 5532 C 513.734 -1.07154 -4.185 0
M  V30 5533 C 512.869 -0.417403 -5.29558 0
M  V30 5534 C 511.908 -1.447 -5.94751 0
M  V30 5535 N 511.045 -0.817203 -6.97328 0
M  V30 5536 H 515.885 -1.53891 -2.55189 0
M  V30 5537 H 513.422 -0.769699 -1.25356 0
M  V30 5538 H 515.38 0.351456 -4.15717 0
M  V30 5539 H 514.01 0.827802 -3.12005 0
M  V30 5540 H 513.062 -1.56728 -3.46613 0
M  V30 5541 H 514.374 -1.8532 -4.63096 0
M  V30 5542 H 513.528 0.0142061 -6.06698 0
M  V30 5543 H 512.267 0.396265 -4.86087 0
M  V30 5544 H 511.272 -1.88865 -5.16343 0
M  V30 5545 H 512.497 -2.26252 -6.40302 0
M  V30 5546 H 510.443 -0.0239995 -6.55996 0
M  V30 5547 H 510.36 -1.53644 -7.40223 0
M  V30 5548 H 511.628 -0.410283 -7.7842 0
M  V30 5549 N 515.857 1.33968 -0.830081 0
M  V30 5550 C 517.082 2.02813 -0.433796 0
M  V30 5551 C 517.507 1.62076 0.954614 0
M  V30 5552 O 516.865 0.808955 1.62252 0
M  V30 5553 C 516.913 3.56348 -0.552115 0
M  V30 5554 O 516.017 4.10202 0.425191 0
M  V30 5555 H 515.358 0.639817 -0.177567 0
M  V30 5556 H 517.888 1.7106 -1.12248 0
M  V30 5557 H 517.898 4.05722 -0.430513 0
M  V30 5558 H 516.573 3.85344 -1.56471 0
M  V30 5559 H 515.15 3.71979 0.261878 0
M  V30 5560 N 517.335 0.585699 1.46312 0
M  V30 5561 C 518.265 -0.133556 2.33118 0
M  V30 5562 C 519.246 -0.880707 1.45525 0
M  V30 5563 O 520.431 -0.855579 1.74337 0
M  V30 5564 C 517.561 -1.14585 3.27853 0
M  V30 5565 C 516.515 -0.513341 4.2491 0
M  V30 5566 C 515.841 -1.63231 5.09175 0
M  V30 5567 C 517.141 0.551413 5.19381 0
M  V30 5568 H 518.835 0.59121 2.93505 0
M  V30 5569 H 516.381 0.285761 1.41136 0
M  V30 5570 H 518.334 -1.65741 3.87438 0
M  V30 5571 H 517.058 -1.90093 2.65579 0
M  V30 5572 H 515.717 -0.0228349 3.66593 0
M  V30 5573 H 515.365 -2.37713 4.43285 0
M  V30 5574 H 515.065 -1.21473 5.74907 0
M  V30 5575 H 516.589 -2.14658 5.71624 0
M  V30 5576 H 518.003 0.124804 5.73164 0
M  V30 5577 H 516.4 0.889486 5.93471 0
M  V30 5578 H 517.47 1.43655 4.63132 0
M  V30 5579 N 518.813 -1.54241 0.323641 0
M  V30 5580 C 520.06 -2.0057 -0.27891 0
M  V30 5581 C 520.388 -1.21181 -1.52136 0
M  V30 5582 O 519.643 -0.282043 -1.93657 0
M  V30 5583 C 519.942 -3.5129 -0.658031 0
M  V30 5584 C 519.608 -4.48281 0.485252 0
M  V30 5585 C 518.27 -4.74519 0.799055 0
M  V30 5586 C 520.622 -5.05909 1.25322 0
M  V30 5587 C 517.95 -5.55643 1.88354 0
M  V30 5588 C 520.302 -5.88215 2.32779 0
M  V30 5589 C 518.966 -6.12755 2.64741 0
M  V30 5590 H 518.236 -0.733938 -0.10206 0
M  V30 5591 H 520.883 -1.862 0.447435 0
M  V30 5592 H 519.188 -3.63388 -1.4648 0
M  V30 5593 H 520.885 -3.84578 -1.1358 0
M  V30 5594 H 517.475 -4.27979 0.230593 0
M  V30 5595 H 521.659 -4.8562 1.02404 0
M  V30 5596 H 516.915 -5.72888 2.13564 0
M  V30 5597 H 521.089 -6.31888 2.92729 0
M  V30 5598 H 518.716 -6.75404 3.48904 0
M  V30 5599 N 520.291 -0.0518155 -1.57515 0
M  V30 5600 C 521.539 0.620595 -1.92336 0
M  V30 5601 C 521.86 1.71345 -0.930907 0
M  V30 5602 O 521.13 1.95885 0.0241341 0
M  V30 5603 H 519.71 0.232226 -0.709986 0
M  V30 5604 H 522.372 -0.104969 -1.94617 0
M  V30 5605 H 521.468 1.05879 -2.93592 0
M  V30 5606 N 521.769 1.56035 0.221574 0
M  V30 5607 C 523.185 1.49026 0.571271 0
M  V30 5608 C 523.385 0.746912 1.87146 0
M  V30 5609 O 522.441 0.286566 2.50869 0
M  V30 5610 C 523.754 2.93579 0.650522 0
M  V30 5611 C 525.302 3.04099 0.741151 0
M  V30 5612 C 525.777 4.5001 0.851747 0
M  V30 5613 N 527.268 4.54053 0.915968 0
M  V30 5614 C 528.003 5.64232 1.02125 0
M  V30 5615 N 527.499 6.84164 1.09049 0
M  V30 5616 N 529.292 5.52084 1.05639 0
M  V30 5617 H 521.443 2.02791 -0.63162 0
M  V30 5618 H 523.706 0.921736 -0.221602 0
M  V30 5619 H 523.412 3.50912 -0.235253 0
M  V30 5620 H 523.286 3.45476 1.51413 0
M  V30 5621 H 525.673 2.4683 1.61737 0
M  V30 5622 H 525.754 2.55371 -0.148128 0
M  V30 5623 H 525.398 5.07896 -0.0200117 0
M  V30 5624 H 525.328 4.96444 1.75644 0
M  V30 5625 H 527.819 3.67683 0.872782 0
M  V30 5626 H 528.132 7.63883 1.1706 0
M  V30 5627 H 526.477 6.86875 1.05962 0
M  V30 5628 H 529.668 4.57317 0.998953 0
M  V30 5629 H 529.841 6.37983 1.13498 0
M  V30 5630 N 523.247 -0.488276 1.49845 0
M  V30 5631 C 524.194 -1.58836 1.67451 0
M  V30 5632 C 525.164 -1.57886 0.515857 0
M  V30 5633 O 526.349 -1.75679 0.744403 0
M  V30 5634 C 523.489 -2.96915 1.75885 0
M  V30 5635 C 522.602 -3.07784 3.03138 0
M  V30 5636 C 521.737 -4.36673 3.02473 0
M  V30 5637 C 520.776 -4.41222 4.24252 0
M  V30 5638 N 519.913 -5.61557 4.21424 0
M  V30 5639 H 524.753 -1.43131 2.61376 0
M  V30 5640 H 522.29 -0.696186 1.29583 0
M  V30 5641 H 524.248 -3.76965 1.78755 0
M  V30 5642 H 522.878 -3.11295 0.85414 0
M  V30 5643 H 521.93 -2.20717 3.09819 0
M  V30 5644 H 523.242 -3.07005 3.93128 0
M  V30 5645 H 522.396 -5.25055 3.03977 0
M  V30 5646 H 521.135 -4.40037 2.10283 0
M  V30 5647 H 520.14 -3.5124 4.22978 0
M  V30 5648 H 521.365 -4.39564 5.17649 0
M  V30 5649 H 519.311 -5.65738 3.32078 0
M  V30 5650 H 519.228 -5.62447 5.05163 0
M  V30 5651 H 520.496 -6.52111 4.2705 0
M  V30 5652 N 524.725 -1.39134 -0.740242 0
M  V30 5653 C 525.672 -1.37434 -1.8542 0
M  V30 5654 C 526.642 -0.234822 -1.64432 0
M  V30 5655 O 527.827 -0.429125 -1.85912 0
M  V30 5656 C 524.967 -1.21844 -3.22875 0
M  V30 5657 C 524.08 -2.45296 -3.55603 0
M  V30 5658 C 523.215 -2.22334 -4.82432 0
M  V30 5659 C 522.254 -3.41488 -5.07988 0
M  V30 5660 N 521.391 -3.17877 -6.26018 0
M  V30 5661 H 526.231 -2.3266 -1.86207 0
M  V30 5662 H 523.768 -1.15578 -0.909946 0
M  V30 5663 H 525.726 -1.10818 -4.02213 0
M  V30 5664 H 524.356 -0.3025 -3.21379 0
M  V30 5665 H 523.408 -2.66945 -2.71006 0
M  V30 5666 H 524.72 -3.34063 -3.7041 0
M  V30 5667 H 523.874 -2.0852 -5.69741 0
M  V30 5668 H 522.613 -1.30954 -4.6979 0
M  V30 5669 H 521.618 -3.55807 -4.19144 0
M  V30 5670 H 522.843 -4.33763 -5.22519 0
M  V30 5671 H 520.789 -2.29156 -6.14673 0
M  V30 5672 H 520.706 -4.00198 -6.41387 0
M  V30 5673 H 521.974 -3.07746 -7.16179 0
M  V30 5674 N 526.204 0.969867 -1.24223 0
M  V30 5675 C 527.151 2.06407 -1.0327 0
M  V30 5676 C 528.121 1.66014 0.0533 0
M  V30 5677 O 529.306 1.90533 -0.100896 0
M  V30 5678 C 526.446 3.3909 -0.641262 0
M  V30 5679 C 525.559 3.9269 -1.80051 0
M  V30 5680 C 524.694 5.13631 -1.35486 0
M  V30 5681 C 523.733 5.59423 -2.48419 0
M  V30 5682 N 522.87 6.71586 -2.04737 0
M  V30 5683 H 527.71 2.23663 -1.96923 0
M  V30 5684 H 525.247 1.09624 -0.980862 0
M  V30 5685 H 527.205 4.15323 -0.395351 0
M  V30 5686 H 525.835 3.21765 0.258269 0
M  V30 5687 H 524.887 3.13116 -2.16014 0
M  V30 5688 H 526.199 4.22636 -2.64916 0
M  V30 5689 H 525.353 5.97231 -1.0677 0
M  V30 5690 H 524.092 4.85364 -0.476722 0
M  V30 5691 H 523.097 4.74398 -2.77897 0
M  V30 5692 H 524.322 5.89705 -3.36786 0
M  V30 5693 H 522.268 6.45058 -1.19318 0
M  V30 5694 H 522.185 7.0097 -2.83156 0
M  V30 5695 H 523.453 7.58633 -1.79154 0
M  V30 5696 N 527.682 1.05563 1.17022 0
M  V30 5697 C 528.907 0.788437 1.91829 0
M  V30 5698 C 529.332 -0.650356 1.76499 0
M  V30 5699 O 528.69 -1.45229 1.08527 0
M  V30 5700 C 528.738 1.1786 3.40795 0
M  V30 5701 O 527.842 0.312965 4.11211 0
M  V30 5702 H 527.183 0.288794 0.597908 0
M  V30 5703 H 529.713 1.40948 1.48307 0
M  V30 5704 H 529.723 1.14697 3.91546 0
M  V30 5705 H 528.398 2.22666 3.51273 0
M  V30 5706 H 526.975 0.405515 3.70689 0
M  V30 5707 N 529.16 -1.33526 0.837174 0
M  V30 5708 C 530.107 -2.29248 0.267169 0
M  V30 5709 C 531.077 -1.54252 -0.616071 0
M  V30 5710 O 532.262 -1.82559 -0.554699 0
M  V30 5711 C 529.402 -3.40638 -0.553152 0
M  V30 5712 C 528.515 -4.30548 0.353921 0
M  V30 5713 C 527.65 -5.29051 -0.477339 0
M  V30 5714 C 526.689 -6.106 0.42823 0
M  V30 5715 N 525.826 -7.01152 -0.364801 0
M  V30 5716 H 530.666 -2.77398 1.08877 0
M  V30 5717 H 528.203 -1.36496 0.54838 0
M  V30 5718 H 530.161 -4.03921 -1.04422 0
M  V30 5719 H 528.791 -2.93685 -1.33973 0
M  V30 5720 H 527.843 -3.68001 0.963289 0
M  V30 5721 H 529.155 -4.87631 1.04964 0
M  V30 5722 H 528.309 -5.97853 -1.0323 0
M  V30 5723 H 527.048 -4.72541 -1.2065 0
M  V30 5724 H 526.053 -5.40718 0.995219 0
M  V30 5725 H 527.278 -6.69193 1.15573 0
M  V30 5726 H 525.224 -6.47092 -1.07738 0
M  V30 5727 H 525.141 -7.5551 0.272238 0
M  V30 5728 H 526.409 -7.74263 -0.902054 0
M  V30 5729 N 530.638 -0.59345 -1.46 0
M  V30 5730 C 531.586 0.146268 -2.3214 0
M  V30 5731 C 532.58 0.873743 -1.45128 0
M  V30 5732 O 533.786 0.790912 -1.61693 0
M  V30 5733 H 530.161 0.0660349 -0.749095 0
M  V30 5734 H 532.132 -0.598895 -2.92328 0
M  V30 5735 C 530.881 1.1396 -3.28494 0
M  V30 5736 H 530.204 0.589252 -3.95434 0
M  V30 5737 H 531.644 1.62738 -3.91526 0
M  V30 5738 C 530.103 2.20604 -2.54628 0
M  V30 5739 O 530.633 3.28128 -2.31722 0
M  V30 5740 N 528.839 1.95502 -2.15005 0
M  V30 5741 H 528.386 1.0807 -2.33834 0
M  V30 5742 H 528.344 2.67064 -1.65904 0
M  V30 5743 N 532.116 1.54067 -0.331816 0
M  V30 5744 C 533.066 2.21363 0.546101 0
M  V30 5745 C 534.05 1.19698 1.07523 0
M  V30 5746 O 535.242 1.45293 1.01088 0
M  V30 5747 C 532.371 2.98115 1.70242 0
M  V30 5748 C 531.457 4.07127 1.18779 0
M  V30 5749 N 531.848 5.04267 0.393465 0
M  V30 5750 C 530.146 4.21226 1.46576 0
M  V30 5751 C 530.847 5.81585 0.115572 0
M  V30 5752 N 529.823 5.39022 0.703987 0
M  V30 5753 H 533.625 2.93821 -0.0679751 0
M  V30 5754 H 531.139 1.61812 -0.138085 0
M  V30 5755 H 533.136 3.44818 2.34321 0
M  V30 5756 H 531.796 2.27181 2.31989 0
M  V30 5757 H 532.807 5.17888 0.0355757 0
M  V30 5758 H 529.484 3.61509 2.08848 0
M  V30 5759 H 530.874 6.6985 -0.524426 0
M  V30 5760 N 533.594 0.0601682 1.57485 0
M  V30 5761 C 534.557 -0.896373 2.10945 0
M  V30 5762 C 535.557 -1.23402 1.03095 0
M  V30 5763 O 536.747 -1.16921 1.29132 0
M  V30 5764 C 533.879 -2.20346 2.60116 0
M  V30 5765 H 535.072 -0.432778 2.96761 0
M  V30 5766 H 532.625 -0.188372 1.55161 0
M  V30 5767 H 533.36 -2.71268 1.7772 0
M  V30 5768 H 533.145 -1.9714 3.38937 0
M  V30 5769 H 534.635 -2.88846 3.01592 0
M  V30 5770 N 535.072 -1.5615 -0.213296 0
M  V30 5771 C 536.004 -1.89586 -1.28802 0
M  V30 5772 C 537.017 -0.784844 -1.42633 0
M  V30 5773 O 538.206 -1.06319 -1.43383 0
M  V30 5774 C 535.306 -2.09665 -2.66259 0
M  V30 5775 C 534.479 -3.40726 -2.7427 0
M  V30 5776 C 533.538 -3.50137 -3.92798 0
M  V30 5777 O 532.564 -4.23105 -3.8075 0
M  V30 5778 N 533.766 -2.81886 -5.07465 0
M  V30 5779 H 536.531 -2.82368 -1.00442 0
M  V30 5780 H 534.092 -1.56796 -0.403302 0
M  V30 5781 H 536.084 -2.13268 -3.43946 0
M  V30 5782 H 534.654 -1.23469 -2.87183 0
M  V30 5783 H 533.874 -3.4915 -1.82997 0
M  V30 5784 H 535.162 -4.27048 -2.76599 0
M  V30 5785 H 534.56 -2.22397 -5.2015 0
M  V30 5786 H 533.117 -2.91139 -5.83165 0
M  V30 5787 N 536.55 0.480323 -1.50102 0
M  V30 5788 C 537.46 1.60547 -1.71061 0
M  V30 5789 C 538.476 1.63564 -0.593529 0
M  V30 5790 O 539.652 1.81604 -0.870751 0
M  V30 5791 C 536.717 2.96814 -1.79171 0
M  V30 5792 C 535.778 3.04259 -3.02861 0
M  V30 5793 C 535.011 4.34027 -3.10574 0
M  V30 5794 O 535.234 5.24009 -2.25323 0
M  V30 5795 O 534.168 4.46873 -4.03223 0
M  V30 5796 H 537.994 1.45788 -2.6642 0
M  V30 5797 H 535.579 0.658838 -1.34088 0
M  V30 5798 H 537.461 3.77765 -1.86738 0
M  V30 5799 H 536.136 3.11791 -0.869947 0
M  V30 5800 H 535.043 2.22419 -3.008 0
M  V30 5801 H 536.376 2.94216 -3.94586 0
M  V30 5802 N 538.028 1.39524 0.732853 0
M  V30 5803 C 539.444 1.21176 1.03868 0
M  V30 5804 C 539.644 0.0748448 2.01361 0
M  V30 5805 O 538.7 -0.57281 2.45917 0
M  V30 5806 C 540.013 2.54667 1.59892 0
M  V30 5807 C 541.561 2.6153 1.71962 0
M  V30 5808 C 542.036 3.95248 2.31394 0
M  V30 5809 N 543.527 3.96899 2.38801 0
M  V30 5810 C 544.262 4.97138 2.85729 0
M  V30 5811 N 543.758 6.07775 3.32537 0
M  V30 5812 N 545.551 4.84516 2.84957 0
M  V30 5813 H 537.702 2.12225 0.086304 0
M  V30 5814 H 539.965 0.942614 0.100907 0
M  V30 5815 H 539.671 3.38423 0.95721 0
M  V30 5816 H 539.545 2.74538 2.58668 0
M  V30 5817 H 541.932 1.78156 2.35254 0
M  V30 5818 H 542.013 2.45507 0.718327 0
M  V30 5819 H 541.657 4.79054 1.68729 0
M  V30 5820 H 541.587 4.08593 3.32204 0
M  V30 5821 H 544.078 3.16998 2.05719 0
M  V30 5822 H 544.391 6.8017 3.66862 0
M  V30 5823 H 542.736 6.11366 3.30541 0
M  V30 5824 H 545.927 3.97185 2.47713 0
M  V30 5825 H 546.1 5.62783 3.21215 0
M  V30 5826 N 539.506 -0.963266 1.24736 0
M  V30 5827 C 540.783 -1.68248 0.9976 0
M  V30 5828 C 541.163 -2.05599 -0.478776 0
M  V30 5829 O 540.511 -1.7626 -1.45412 0
M  V30 5830 C 540.721 -2.91118 1.92487 0
M  V30 5831 C 542.069 -3.63261 2.19833 0
M  V30 5832 O 543.093 -3.01184 1.90176 0
M  V30 5833 O 541.952 -4.75019 2.7022 0
M  V30 5834 H 539.046 -0.735744 0.377637 0
M  V30 5835 H 541.592 -1.01696 1.35853 0
M  V30 5836 H 540.364 -2.60242 2.92215 0
M  V30 5837 H 539.987 -3.65402 1.56738 0
M  V30 5838 N 540.985 -1.06182 -1.16461 0
M  V30 5839 C 541.895 -0.682671 -2.24448 0
M  V30 5840 C 542.911 0.30078 -1.71381 0
M  V30 5841 O 544.087 0.150376 -2.00838 0
M  V30 5842 C 541.152 -0.0737202 -3.46622 0
M  V30 5843 C 540.213 -1.10889 -4.14731 0
M  V30 5844 C 539.446 -0.528908 -5.31073 0
M  V30 5845 O 539.669 0.65868 -5.66584 0
M  V30 5846 O 538.603 -1.26805 -5.88391 0
M  V30 5847 H 542.429 -1.58291 -2.59187 0
M  V30 5848 H 540.014 -0.834013 -1.23954 0
M  V30 5849 H 541.896 0.264192 -4.20571 0
M  V30 5850 H 540.571 0.800015 -3.13658 0
M  V30 5851 H 539.478 -1.49896 -3.42756 0
M  V30 5852 H 540.811 -1.95412 -4.51747 0
M  V30 5853 N 542.463 1.3308 -0.844243 0
M  V30 5854 C 543.709 1.97898 -0.443206 0
M  V30 5855 C 544.042 1.66699 0.99625 0
M  V30 5856 O 543.317 0.949704 1.69738 0
M  V30 5857 C 543.6 3.53801 -0.670606 0
M  V30 5858 C 543.453 3.94667 -2.15772 0
M  V30 5859 C 544.772 4.39936 -0.120226 0
M  V30 5860 H 541.891 0.718861 -0.162504 0
M  V30 5861 H 544.533 1.57633 -1.06075 0
M  V30 5862 H 542.683 3.88229 -0.14496 0
M  V30 5863 H 544.355 3.70469 -2.74865 0
M  V30 5864 H 542.598 3.44203 -2.6402 0
M  V30 5865 H 543.269 5.03275 -2.26757 0
M  V30 5866 H 545.745 4.12183 -0.5696 0
M  V30 5867 H 544.621 5.4803 -0.308984 0
M  V30 5868 H 544.882 4.31184 0.976347 0
M  V30 5869 N 543.941 0.601185 1.45683 0
M  V30 5870 C 545.166 0.0982245 2.07167 0
M  V30 5871 C 545.591 -1.20546 1.44396 0
M  V30 5872 O 544.949 -1.73247 0.534347 0
M  V30 5873 C 544.997 -0.0346976 3.60583 0
M  V30 5874 O 544.101 -1.08657 3.97828 0
M  V30 5875 H 543.442 0.0711618 0.660176 0
M  V30 5876 H 545.972 0.829376 1.87036 0
M  V30 5877 H 545.982 -0.234969 4.07323 0
M  V30 5878 H 544.657 0.917265 4.05659 0
M  V30 5879 H 543.234 -0.863275 3.6277 0
M  V30 5880 N 545.419 -1.53889 0.339982 0
M  V30 5881 C 546.667 -2.00458 -0.257112 0
M  V30 5882 C 546.988 -1.22953 -1.51353 0
M  V30 5883 O 546.258 -0.335734 -1.93002 0
M  V30 5884 H 544.838 -0.740544 -0.0979965 0
M  V30 5885 H 547.5 -1.89386 0.460317 0
M  V30 5886 H 546.596 -3.08035 -0.502057 0
M  V30 5887 N 546.897 -0.0685191 -1.57451 0
M  V30 5888 C 547.827 0.89747 -2.15564 0
M  V30 5889 C 548.808 1.31266 -1.08181 0
M  V30 5890 O 549.993 1.38429 -1.36202 0
M  V30 5891 C 547.123 2.16623 -2.71463 0
M  V30 5892 C 546.077 1.89054 -3.83982 0
M  V30 5893 C 545.403 3.22532 -4.26471 0
M  V30 5894 C 546.703 1.1984 -5.08366 0
M  V30 5895 H 548.397 0.413373 -2.96533 0
M  V30 5896 H 545.943 0.197391 -1.42641 0
M  V30 5897 H 547.896 2.84614 -3.10761 0
M  V30 5898 H 546.62 2.67269 -1.8771 0
M  V30 5899 H 545.279 1.23469 -3.45183 0
M  V30 5900 H 544.927 3.71013 -3.39644 0
M  V30 5901 H 544.627 3.04879 -5.02317 0
M  V30 5902 H 546.151 3.91727 -4.68383 0
M  V30 5903 H 547.565 1.77896 -5.45001 0
M  V30 5904 H 545.962 1.12456 -5.89469 0
M  V30 5905 H 547.032 0.176996 -4.84577 0
M  V30 5906 N 548.375 1.56261 0.205012 0
M  V30 5907 C 549.621 1.80306 0.9283 0
M  V30 5908 C 549.954 0.640932 1.83319 0
M  V30 5909 O 549.229 -0.359032 1.91158 0
M  V30 5910 C 549.512 3.14547 1.75306 0
M  V30 5911 C 549.365 4.41236 0.873562 0
M  V30 5912 C 550.684 3.45382 2.72762 0
M  V30 5913 H 547.803 0.655929 0.336044 0
M  V30 5914 H 550.445 1.88984 0.196211 0
M  V30 5915 H 548.595 3.0728 2.37721 0
M  V30 5916 H 550.267 4.60539 0.264887 0
M  V30 5917 H 548.51 4.33427 0.179773 0
M  V30 5918 H 549.181 5.31639 1.48541 0
M  V30 5919 H 551.657 3.52884 2.20481 0
M  V30 5920 H 550.533 4.40449 3.2756 0
M  V30 5921 H 550.794 2.68377 3.51321 0
M  V30 5922 N 549.853 -0.472356 1.50355 0
M  V30 5923 C 551.078 -1.25251 1.65309 0
M  V30 5924 C 551.503 -1.85081 0.335643 0
M  V30 5925 O 550.861 -1.67227 -0.700335 0
M  V30 5926 C 550.909 -2.3379 2.74544 0
M  V30 5927 O 550.013 -3.38401 2.35709 0
M  V30 5928 H 549.354 -0.368539 0.552336 0
M  V30 5929 H 551.884 -0.562271 1.96722 0
M  V30 5930 H 551.894 -2.79121 2.97583 0
M  V30 5931 H 550.569 -1.89614 3.70161 0
M  V30 5932 H 549.146 -2.9879 2.23112 0
M  V30 5933 N 551.331 -1.39911 -0.725443 0
M  V30 5934 C 552.579 -1.37382 -1.48224 0
M  V30 5935 C 552.9 0.0264107 -1.94982 0
M  V30 5936 O 552.17 0.979408 -1.6966 0
M  V30 5937 H 550.75 -0.505596 -0.549892 0
M  V30 5938 H 553.412 -1.7487 -0.860608 0
M  V30 5939 H 552.508 -2.04254 -2.3598 0
M  V30 5940 N 552.809 0.956637 -1.25245 0
M  V30 5941 C 553.739 2.07058 -1.07931 0
M  V30 5942 C 554.72 1.70096 0.0110361 0
M  V30 5943 O 555.905 1.93555 -0.158121 0
M  V30 5944 C 553.035 3.40272 -0.695124 0
M  V30 5945 C 551.989 3.91235 -1.73549 0
M  V30 5946 C 551.315 5.20921 -1.20604 0
M  V30 5947 C 552.615 4.17837 -3.13385 0
M  V30 5948 H 554.309 2.218 -2.01109 0
M  V30 5949 H 551.855 1.06581 -0.968326 0
M  V30 5950 H 553.808 4.1765 -0.560949 0
M  V30 5951 H 552.532 3.25462 0.272355 0
M  V30 5952 H 551.191 3.16025 -1.85807 0
M  V30 5953 H 550.839 5.02479 -0.228846 0
M  V30 5954 H 550.539 5.55987 -1.90136 0
M  V30 5955 H 552.063 6.00897 -1.08421 0
M  V30 5956 H 553.477 4.8588 -3.04292 0
M  V30 5957 H 551.874 4.64154 -3.80369 0
M  V30 5958 H 552.944 3.2419 -3.60595 0
M  V30 5959 N 554.287 1.06798 1.15896 0
M  V30 5960 C 555.22 0.627503 2.19403 0
M  V30 5961 C 556.198 -0.352352 1.58736 0
M  V30 5962 O 557.382 -0.260111 1.86697 0
M  V30 5963 C 554.509 -0.079356 3.38607 0
M  V30 5964 C 553.555 0.858057 4.17779 0
M  V30 5965 S 554.388 2.35605 4.80885 0
M  V30 5966 C 555.544 1.66083 6.03463 0
M  V30 5967 H 555.777 1.50441 2.56427 0
M  V30 5968 H 553.31 0.881427 1.26768 0
M  V30 5969 H 555.268 -0.48095 4.07673 0
M  V30 5970 H 553.929 -0.932524 2.99938 0
M  V30 5971 H 553.122 0.310108 5.03045 0
M  V30 5972 H 552.724 1.19977 3.54234 0
M  V30 5973 H 555.016 0.969337 6.7053 0
M  V30 5974 H 555.959 2.49159 6.62816 0
M  V30 5975 H 556.367 1.14122 5.52844 0
M  V30 5976 N 555.766 -1.3263 0.851289 0
M  V30 5977 C 557.182 -1.50162 0.5407 0
M  V30 5978 C 557.382 -1.78788 -0.929369 0
M  V30 5979 O 556.438 -1.85545 -1.71258 0
M  V30 5980 C 557.751 -2.64803 1.42478 0
M  V30 5981 C 559.299 -2.78688 1.42485 0
M  V30 5982 C 559.774 -3.96405 2.29407 0
M  V30 5983 N 561.265 -4.0366 2.27184 0
M  V30 5984 C 562 -4.93971 2.9117 0
M  V30 5985 N 561.496 -5.89313 3.64256 0
M  V30 5986 N 563.289 -4.87066 2.80576 0
M  V30 5987 H 555.44 -1.12315 1.80275 0
M  V30 5988 H 557.703 -0.553266 0.769806 0
M  V30 5989 H 557.409 -2.50368 2.46999 0
M  V30 5990 H 557.283 -3.60506 1.10974 0
M  V30 5991 H 559.67 -2.92547 0.387304 0
M  V30 5992 H 559.751 -1.83708 1.78002 0
M  V30 5993 H 559.395 -3.83304 3.33228 0
M  V30 5994 H 559.325 -4.90654 1.91224 0
M  V30 5995 H 561.816 -3.35435 1.74045 0
M  V30 5996 H 562.129 -6.54913 4.10255 0
M  V30 5997 H 560.474 -5.8935 3.68364 0
M  V30 5998 H 563.665 -4.11552 2.23031 0
M  V30 5999 H 563.838 -5.57248 3.30725 0
M  V30 6000 N 557.244 -0.608902 -1.45362 0
M  V30 6001 C 558.472 -0.111013 -2.06602 0
M  V30 6002 C 558.887 1.20516 -1.45332 0
M  V30 6003 O 558.244 1.73437 -0.567978 0
M  V30 6004 C 558.295 0.033688 -3.61484 0
M  V30 6005 O 558.016 -1.23041 -4.20467 0
M  V30 6006 C 559.517 0.562882 -4.39712 0
M  V30 6007 H 556.737 -0.0694453 -0.667397 0
M  V30 6008 H 559.281 -0.837008 -1.86586 0
M  V30 6009 H 557.436 0.710016 -3.80838 0
M  V30 6010 H 557.85 -1.06094 -5.13658 0
M  V30 6011 H 559.324 0.613213 -5.48583 0
M  V30 6012 H 559.801 1.58543 -4.09586 0
M  V30 6013 H 560.407 -0.0794454 -4.25226 0
M  V30 6014 N 558.722 1.53707 -0.348139 0
M  V30 6015 C 559.947 2.05877 0.250883 0
M  V30 6016 C 560.372 1.22115 1.43072 0
M  V30 6017 O 559.73 0.235986 1.79758 0
M  V30 6018 C 559.778 3.54886 0.639416 0
M  V30 6019 O 558.882 3.73948 1.73888 0
M  V30 6020 H 558.223 0.662754 0.040653 0
M  V30 6021 H 560.753 1.98303 -0.503685 0
M  V30 6022 H 560.763 3.97601 0.915295 0
M  V30 6023 H 559.438 4.153 -0.223386 0
M  V30 6024 H 558.015 3.43134 1.45991 0
M  V30 6025 N 560.2 0.0768682 1.57412 0
M  V30 6026 C 561.446 -0.591961 1.93968 0
M  V30 6027 C 561.779 -1.68954 0.9575 0
M  V30 6028 O 561.054 -1.94496 -0.0124675 0
M  V30 6029 C 561.337 -1.16418 3.40762 0
M  V30 6030 C 561.19 -0.0728933 4.49741 0
M  V30 6031 C 562.509 -2.06814 3.88479 0
M  V30 6032 H 559.628 -0.213716 0.705333 0
M  V30 6033 H 562.27 0.14387 1.89455 0
M  V30 6034 H 560.42 -1.79128 3.4474 0
M  V30 6035 H 562.092 0.560446 4.57883 0
M  V30 6036 H 560.335 0.595859 4.29688 0
M  V30 6037 H 561.006 -0.513755 5.49604 0
M  V30 6038 H 563.482 -1.54033 3.8654 0
M  V30 6039 H 562.358 -2.43785 4.91793 0
M  V30 6040 H 562.619 -2.97844 3.26713 0
M  V30 6041 N 561.678 -1.56367 -0.196722 0
M  V30 6042 C 562.926 -1.80172 -0.915554 0
M  V30 6043 C 563.247 -0.649649 -1.8386 0
M  V30 6044 O 562.517 0.332111 -1.93064 0
M  V30 6045 H 561.097 -0.664592 -0.341067 0
M  V30 6046 H 563.759 -1.93844 -0.202622 0
M  V30 6047 H 562.855 -2.7327 -1.50764 0
M  V30 6048 N 563.156 0.464375 -1.50603 0
M  V30 6049 C 564.106 1.55929 -1.66343 0
M  V30 6050 C 565.09 1.52338 -0.517887 0
M  V30 6051 O 566.282 1.59248 -0.772601 0
M  V30 6052 C 563.411 2.94327 -1.7671 0
M  V30 6053 C 562.497 3.02777 -2.96962 0
M  V30 6054 N 562.888 2.81026 -4.20545 0
M  V30 6055 C 561.186 3.33919 -2.95659 0
M  V30 6056 C 561.887 2.94618 -5.01573 0
M  V30 6057 N 560.863 3.25112 -4.35664 0
M  V30 6058 H 564.665 1.37822 -2.59581 0
M  V30 6059 H 562.179 0.671227 -1.47879 0
M  V30 6060 H 564.176 3.73063 -1.86091 0
M  V30 6061 H 562.836 3.13476 -0.846353 0
M  V30 6062 H 563.847 2.56477 -4.49933 0
M  V30 6063 H 560.524 3.59013 -2.13111 0
M  V30 6064 H 561.914 2.81984 -6.09865 0
M  V30 6065 N 564.634 1.40294 0.718013 0
M  V30 6066 C 565.566 1.36281 1.84283 0
M  V30 6067 C 566.579 0.268621 1.60569 0
M  V30 6068 O 567.768 0.528798 1.70487 0
M  V30 6069 C 564.868 1.09741 3.2064 0
M  V30 6070 C 564.041 2.30767 3.71571 0
M  V30 6071 C 563.1 2.00424 4.86535 0
M  V30 6072 O 562.126 2.73268 4.99313 0
M  V30 6073 N 563.328 0.980724 5.72156 0
M  V30 6074 H 566.093 2.3322 1.88225 0
M  V30 6075 H 563.654 1.34616 0.899453 0
M  V30 6076 H 565.646 0.874322 3.95143 0
M  V30 6077 H 564.216 0.214771 3.11861 0
M  V30 6078 H 563.436 2.68921 2.88228 0
M  V30 6079 H 564.724 3.11455 4.02335 0
M  V30 6080 H 564.122 0.377375 5.6444 0
M  V30 6081 H 562.679 0.817538 6.46653 0
M  V30 6082 N 566.112 -0.949982 1.2575 0
M  V30 6083 C 567.389 -1.6718 1.01539 0
M  V30 6084 C 567.769 -2.06095 -0.456942 0
M  V30 6085 O 567.117 -1.77792 -1.43534 0
M  V30 6086 C 567.327 -2.8906 1.95564 0
M  V30 6087 C 568.675 -3.60909 2.23673 0
M  V30 6088 O 569.699 -2.9915 1.9336 0
M  V30 6089 O 568.558 -4.72127 2.75243 0
M  V30 6090 H 565.652 -0.731697 0.385419 0
M  V30 6091 H 568.198 -1.00249 1.36924 0
M  V30 6092 H 566.97 -2.57128 2.94959 0
M  V30 6093 H 566.593 -3.63719 1.60605 0
M  V30 6094 N 567.59 -1.07411 -1.15328 0
M  V30 6095 C 568.553 -0.698914 -2.18284 0
M  V30 6096 C 569.553 0.261149 -1.58665 0
M  V30 6097 O 570.743 0.0420277 -1.74149 0
M  V30 6098 C 567.875 -0.0302427 -3.40887 0
M  V30 6099 H 569.068 -1.61045 -2.52991 0
M  V30 6100 H 566.621 -0.870724 -1.298 0
M  V30 6101 H 567.356 0.893505 -3.11748 0
M  V30 6102 H 567.141 -0.720759 -3.85419 0
M  V30 6103 H 568.631 0.21759 -4.17033 0
M  V30 6104 N 569.068 1.32177 -0.85831 0
M  V30 6105 C 570.484 1.49873 -0.548656 0
M  V30 6106 C 570.684 1.79278 0.919874 0
M  V30 6107 O 569.74 1.86451 1.70271 0
M  V30 6108 C 571.053 2.64043 -1.4388 0
M  V30 6109 C 572.601 2.77928 -1.43961 0
M  V30 6110 C 573.076 3.95182 -2.31506 0
M  V30 6111 N 574.567 4.0245 -2.29321 0
M  V30 6112 C 575.302 4.9242 -2.93786 0
M  V30 6113 N 574.798 5.87373 -3.67376 0
M  V30 6114 N 576.591 4.85572 -2.83155 0
M  V30 6115 H 568.742 1.11357 -1.80868 0
M  V30 6116 H 571.005 0.549175 -0.772729 0
M  V30 6117 H 570.711 2.49055 -2.48324 0
M  V30 6118 H 570.585 3.59912 -1.12885 0
M  V30 6119 H 572.972 2.92338 -0.402813 0
M  V30 6120 H 573.053 1.82762 -1.78974 0
M  V30 6121 H 572.697 3.81531 -3.35256 0
M  V30 6122 H 572.627 4.89633 -1.93823 0
M  V30 6123 H 575.118 3.34507 -1.75822 0
M  V30 6124 H 575.431 6.52728 -4.13722 0
M  V30 6125 H 573.776 5.87388 -3.71484 0
M  V30 6126 H 576.967 4.10363 -2.25211 0
M  V30 6127 H 577.14 5.55486 -3.33676 0
M  V30 6128 N 570.547 0.616602 1.45037 0
M  V30 6129 C 571.958 0.199359 1.85633 0
M  V30 6130 C 572.309 -1.24588 1.51566 0
M  V30 6131 O 571.434 -1.94594 0.94668 0
M  V30 6132 C 572.029 0.355033 3.36935 0
M  V30 6133 C 570.588 -0.00758748 3.76399 0
M  V30 6134 C 569.735 0.675256 2.68953 0
M  V30 6135 H 572.686 0.822708 1.3571 0
M  V30 6136 H 572.707 -0.410201 3.78282 0
M  V30 6137 H 572.219 1.40699 3.61698 0
M  V30 6138 H 570.32 -1.05837 3.57252 0
M  V30 6139 H 570.433 0.392346 4.77491 0
M  V30 6140 H 568.797 0.111992 2.54454 0
M  V30 6141 H 569.58 1.72952 2.96551 0
M  V30 6142 N 572.025 -1.5352 0.356285 0
M  V30 6143 C 572.935 -2.29151 -0.502712 0
M  V30 6144 C 573.951 -1.34753 -1.1008 0
M  V30 6145 O 575.127 -1.67803 -1.11374 0
M  V30 6146 C 572.192 -3.05911 -1.63154 0
M  V30 6147 C 571.253 -4.15958 -1.06194 0
M  V30 6148 C 570.486 -4.8905 -2.13696 0
M  V30 6149 O 570.709 -4.61919 -3.34645 0
M  V30 6150 O 569.643 -5.75202 -1.77275 0
M  V30 6151 H 573.469 -3.03492 0.112466 0
M  V30 6152 H 571.054 -1.4891 0.120942 0
M  V30 6153 H 572.936 -3.53874 -2.28804 0
M  V30 6154 H 571.611 -2.34415 -2.23229 0
M  V30 6155 H 570.518 -3.7227 -0.369603 0
M  V30 6156 H 571.851 -4.89593 -0.505872 0
M  V30 6157 N 573.503 -0.0852151 -1.57369 0
M  V30 6158 C 574.466 0.8627 -2.12344 0
M  V30 6159 C 575.466 1.21746 -1.05046 0
M  V30 6160 O 576.656 1.14852 -1.30976 0
M  V30 6161 C 573.788 2.1618 -2.63589 0
M  V30 6162 H 574.981 0.385511 -2.97412 0
M  V30 6163 H 572.534 0.163663 -1.55441 0
M  V30 6164 H 573.269 2.68406 -1.82013 0
M  V30 6165 H 573.054 1.91723 -3.4203 0
M  V30 6166 H 574.544 2.84011 -3.06149 0
M  V30 6167 N 574.981 1.5647 0.188427 0
M  V30 6168 C 576.392 1.70864 0.752494 0
M  V30 6169 C 576.743 0.692905 1.83557 0
M  V30 6170 O 575.868 -0.149307 2.15884 0
M  V30 6171 C 576.463 3.09789 1.37173 0
M  V30 6172 C 575.022 3.25925 1.88281 0
M  V30 6173 C 574.169 2.66817 0.755259 0
M  V30 6174 H 577.12 1.58657 -0.0367408 0
M  V30 6175 H 577.141 3.07489 2.24122 0
M  V30 6176 H 576.653 3.83693 0.583219 0
M  V30 6177 H 574.754 2.56948 2.6983 0
M  V30 6178 H 574.867 4.33498 2.04001 0
M  V30 6179 H 573.231 2.2617 1.17128 0
M  V30 6180 H 574.014 3.43294 -0.0211237 0
M  V30 6181 N 576.459 -0.456382 1.50847 0
M  V30 6182 C 577.422 -1.53493 1.70213 0
M  V30 6183 C 578.422 -1.50264 0.572481 0
M  V30 6184 O 579.612 -1.52623 0.839751 0
M  V30 6185 C 576.744 -2.93091 1.741 0
M  V30 6186 H 577.937 -1.37633 2.66453 0
M  V30 6187 H 575.49 -0.683776 1.4055 0
M  V30 6188 H 576.225 -3.14378 0.796063 0
M  V30 6189 H 576.01 -2.9684 2.5618 0
M  V30 6190 H 577.5 -3.71368 1.90987 0
M  V30 6191 N 577.937 -1.40673 -0.710563 0
M  V30 6192 C 578.9 -1.4108 -1.80635 0
M  V30 6193 C 579.9 -0.303783 -1.57904 0
M  V30 6194 O 581.09 -0.562937 -1.64853 0
M  V30 6195 C 578.222 -1.20748 -3.18799 0
M  V30 6196 H 579.415 -2.38612 -1.81671 0
M  V30 6197 H 576.968 -1.26595 -0.916704 0
M  V30 6198 H 577.703 -0.239964 -3.23411 0
M  V30 6199 H 577.488 -2.00941 -3.36698 0
M  V30 6200 H 578.978 -1.23833 -3.98817 0
M  V30 6201 N 579.415 0.9433 -1.26252 0
M  V30 6202 C 580.64 1.72898 -1.14547 0
M  V30 6203 C 581.065 1.85761 0.295743 0
M  V30 6204 O 580.423 1.3463 1.21427 0
M  V30 6205 C 580.471 3.11471 -1.8171 0
M  V30 6206 O 579.575 3.97336 -1.10445 0
M  V30 6207 H 578.916 0.530555 -0.399259 0
M  V30 6208 H 581.446 1.18159 -1.67032 0
M  V30 6209 H 581.456 3.61872 -1.88449 0
M  V30 6210 H 580.131 3.01425 -2.86558 0
M  V30 6211 H 578.708 3.55788 -1.11666 0
M  V30 6212 N 580.893 1.08022 1.14757 0
M  V30 6213 C 582.141 0.805913 1.85336 0
M  V30 6214 C 582.462 -0.670162 1.83122 0
M  V30 6215 O 581.732 -1.48567 1.2769 0
M  V30 6216 H 580.312 0.295138 0.686223 0
M  V30 6217 H 582.974 1.36538 1.3908 0
M  V30 6218 H 582.07 1.14655 2.90277 0
M  V30 6219 N 582.371 -1.3172 0.865308 0
M  V30 6220 C 583.782 -1.79104 0.527126 0
M  V30 6221 C 584.133 -1.7135 -0.955695 0
M  V30 6222 O 583.258 -1.27845 -1.74598 0
M  V30 6223 C 583.853 -3.25207 0.950061 0
M  V30 6224 C 582.412 -3.70504 0.663611 0
M  V30 6225 C 581.559 -2.52605 1.14395 0
M  V30 6226 H 584.51 -1.18868 1.05148 0
M  V30 6227 H 584.531 -3.79535 0.270805 0
M  V30 6228 H 584.043 -3.30818 2.02931 0
M  V30 6229 H 582.144 -3.70398 -0.404474 0
M  V30 6230 H 582.257 -4.62845 1.23737 0
M  V30 6231 H 580.621 -2.4838 0.563859 0
M  V30 6232 H 581.404 -2.60964 2.23053 0
M  V30 6233 N 583.85 -0.624285 -1.44708 0
M  V30 6234 C 584.812 0.0749638 -2.29077 0
M  V30 6235 C 585.812 0.778965 -1.40673 0
M  V30 6236 O 587.003 0.624591 -1.62618 0
M  V30 6237 C 584.135 1.11663 -3.22094 0
M  V30 6238 H 585.327 -0.667013 -2.92388 0
M  V30 6239 H 582.88 -0.384098 -1.51507 0
M  V30 6240 H 583.615 1.88881 -2.63618 0
M  V30 6241 H 583.401 0.61583 -3.87234 0
M  V30 6242 H 584.891 1.60585 -3.8549 0
M  V30 6243 N 585.328 1.53329 -0.364422 0
M  V30 6244 C 586.739 1.86345 0.115039 0
M  V30 6245 C 587.09 1.28505 1.4826 0
M  V30 6246 O 586.215 0.606639 2.07723 0
M  V30 6247 C 586.81 3.38114 0.215522 0
M  V30 6248 C 585.369 3.70932 0.639237 0
M  V30 6249 C 584.516 2.76471 -0.214261 0
M  V30 6250 H 587.467 1.47593 -0.583258 0
M  V30 6251 H 587.488 3.66031 1.0393 0
M  V30 6252 H 587 3.80182 -0.779948 0
M  V30 6253 H 585.101 3.3442 1.64298 0
M  V30 6254 H 585.214 4.77302 0.41465 0
M  V30 6255 H 583.578 2.52724 0.316678 0
M  V30 6256 H 584.361 3.21373 -1.20725 0
M  V30 6257 N 586.806 0.0935595 1.57322 0
M  V30 6258 C 588.052 -0.571355 1.94585 0
M  V30 6259 C 588.385 -1.67929 0.975366 0
M  V30 6260 O 587.66 -1.94498 0.00816206 0
M  V30 6261 C 587.943 -1.12797 3.41978 0
M  V30 6262 C 587.796 -0.0251881 4.49793 0
M  V30 6263 C 589.115 -2.02682 3.90651 0
M  V30 6264 H 586.234 -0.206223 0.70756 0
M  V30 6265 H 588.876 0.163956 1.89291 0
M  V30 6266 H 587.026 -1.75461 3.4662 0
M  V30 6267 H 588.698 0.608979 4.57263 0
M  V30 6268 H 586.941 0.641399 4.29032 0
M  V30 6269 H 587.612 -0.455433 5.50118 0
M  V30 6270 H 590.088 -1.49925 3.88152 0
M  V30 6271 H 588.964 -2.38555 4.94351 0
M  V30 6272 H 589.225 -2.94362 3.29854 0
M  V30 6273 N 588.284 -1.56567 -0.180126 0
M  V30 6274 C 589.509 -1.85975 -0.918041 0
M  V30 6275 C 589.934 -0.678888 -1.75422 0
M  V30 6276 O 589.292 0.372168 -1.77439 0
M  V30 6277 C 589.34 -3.13731 -1.77779 0
M  V30 6278 O 588.444 -2.95335 -2.87838 0
M  V30 6279 H 587.785 -0.61196 -0.257683 0
M  V30 6280 H 590.315 -2.03798 -0.180923 0
M  V30 6281 H 590.325 -3.4491 -2.17948 0
M  V30 6282 H 589 -3.99293 -1.16352 0
M  V30 6283 H 587.577 -2.7549 -2.51316 0
M  V30 6284 N 589.762 0.448376 -1.51087 0
M  V30 6285 C 590.692 1.55102 -1.74544 0
M  V30 6286 C 591.673 1.59357 -0.594932 0
M  V30 6287 O 592.858 1.75261 -0.836491 0
M  V30 6288 C 589.988 2.93268 -1.86041 0
M  V30 6289 C 588.942 3.03877 -3.01402 0
M  V30 6290 C 588.268 4.43914 -2.98068 0
M  V30 6291 C 589.568 2.7898 -4.41551 0
M  V30 6292 H 591.262 1.35724 -2.66869 0
M  V30 6293 H 588.808 0.651498 -1.28419 0
M  V30 6294 H 590.761 3.70356 -2.01034 0
M  V30 6295 H 589.485 3.13853 -0.903548 0
M  V30 6296 H 588.144 2.29227 -2.86096 0
M  V30 6297 H 587.792 4.6145 -2.00182 0
M  V30 6298 H 587.492 4.51944 -3.75527 0
M  V30 6299 H 589.016 5.22991 -3.1514 0
M  V30 6300 H 590.43 3.45805 -4.57265 0
M  V30 6301 H 588.827 2.98431 -5.20633 0
M  V30 6302 H 589.897 1.74663 -4.5235 0
M  V30 6303 N 591.24 1.41047 0.703093 0
M  V30 6304 C 592.486 1.40207 1.46526 0
M  V30 6305 C 592.819 0.00847763 1.94198 0
M  V30 6306 O 592.094 -0.962437 1.69019 0
M  V30 6307 C 592.377 2.40238 2.6825 0
M  V30 6308 C 592.23 3.88674 2.26391 0
M  V30 6309 C 593.549 2.37627 3.70434 0
M  V30 6310 H 590.668 0.510594 0.531472 0
M  V30 6311 H 593.31 1.72271 0.801422 0
M  V30 6312 H 591.46 2.13026 3.24888 0
M  V30 6313 H 593.132 4.2676 1.75138 0
M  V30 6314 H 591.375 4.03903 1.58255 0
M  V30 6315 H 592.046 4.542 3.13698 0
M  V30 6316 H 594.522 2.61759 3.23452 0
M  V30 6317 H 593.398 3.09645 4.53223 0
M  V30 6318 H 593.659 1.39223 4.19606 0
M  V30 6319 N 592.718 -0.936591 1.26751 0
M  V30 6320 C 593.628 -2.06949 1.10496 0
M  V30 6321 C 594.644 -1.7396 0.037271 0
M  V30 6322 O 595.82 -1.99941 0.241944 0
M  V30 6323 C 592.885 -3.38612 0.744491 0
M  V30 6324 C 591.946 -3.85355 1.89209 0
M  V30 6325 C 591.179 -5.10735 1.54873 0
M  V30 6326 O 591.402 -5.68602 0.452546 0
M  V30 6327 O 590.336 -5.52632 2.38499 0
M  V30 6328 H 594.162 -2.23571 2.05547 0
M  V30 6329 H 591.747 -1.05428 1.05855 0
M  V30 6330 H 593.629 -4.17711 0.556396 0
M  V30 6331 H 592.304 -3.23218 -0.176582 0
M  V30 6332 H 591.211 -3.07182 2.13518 0
M  V30 6333 H 592.544 -4.05277 2.79305 0
M  V30 6334 N 594.196 -1.08629 -1.14182 0
M  V30 6335 C 595.424 -0.838889 -1.8913 0
M  V30 6336 C 595.839 0.609153 -1.78703 0
M  V30 6337 O 595.196 1.41876 -1.14794 0
M  V30 6338 C 595.247 -1.25477 -3.39025 0
M  V30 6339 O 594.968 -2.64601 -3.49167 0
M  V30 6340 C 596.469 -1.03856 -4.30963 0
M  V30 6341 H 593.689 -0.302377 -0.599007 0
M  V30 6342 H 596.233 -1.44615 -1.44592 0
M  V30 6343 H 594.388 -0.691571 -3.81177 0
M  V30 6344 H 594.802 -2.81922 -4.42289 0
M  V30 6345 H 596.276 -1.37892 -5.345 0
M  V30 6346 H 596.753 0.0242522 -4.39193 0
M  V30 6347 H 597.359 -1.58731 -3.94569 0
M  V30 6348 N 595.674 1.31259 -0.872281 0
M  V30 6349 C 596.637 2.26744 -0.334656 0
M  V30 6350 C 597.637 1.52307 0.515681 0
M  V30 6351 O 598.827 1.71148 0.324656 0
M  V30 6352 C 595.959 3.36841 0.524482 0
M  V30 6353 H 597.152 2.75812 -1.17762 0
M  V30 6354 H 594.705 1.42232 -0.648064 0
M  V30 6355 H 595.44 2.93069 1.38855 0
M  V30 6356 H 595.225 3.92009 -0.0844299 0
M  V30 6357 H 596.715 4.07944 0.892838 0
M  V30 6358 N 597.152 0.631951 1.44375 0
M  V30 6359 C 598.563 0.219036 1.85411 0
M  V30 6360 C 598.914 -1.22974 1.52879 0
M  V30 6361 O 598.039 -1.93579 0.967266 0
M  V30 6362 C 598.634 0.39075 3.36539 0
M  V30 6363 C 597.193 0.0323351 3.76386 0
M  V30 6364 C 596.34 0.703744 2.68221 0
M  V30 6365 H 599.291 0.837056 1.3483 0
M  V30 6366 H 599.312 -0.370056 3.78696 0
M  V30 6367 H 598.824 1.44527 3.60185 0
M  V30 6368 H 596.925 -1.02042 3.58355 0
M  V30 6369 H 597.038 0.442969 4.77048 0
M  V30 6370 H 595.402 0.138974 2.54321 0
M  V30 6371 H 596.185 1.76088 2.947 0
M  V30 6372 N 598.631 -1.53133 0.372548 0
M  V30 6373 C 599.541 -2.29671 -0.478379 0
M  V30 6374 C 600.557 -1.35913 -1.08644 0
M  V30 6375 O 601.733 -1.68975 -1.09588 0
M  V30 6376 C 598.798 -3.07625 -1.599 0
M  V30 6377 C 597.859 -4.17061 -1.01776 0
M  V30 6378 C 597.092 -4.91289 -2.08497 0
M  V30 6379 O 597.315 -4.65442 -3.29727 0
M  V30 6380 O 596.249 -5.7705 -1.71164 0
M  V30 6381 H 600.075 -3.03355 0.144649 0
M  V30 6382 H 597.66 -1.48773 0.136729 0
M  V30 6383 H 599.542 -3.56281 -2.25038 0
M  V30 6384 H 598.217 -2.3677 -2.2073 0
M  V30 6385 H 597.124 -3.72641 -0.330098 0
M  V30 6386 H 598.457 -4.90102 -0.453915 0
M  V30 6387 N 600.109 -0.101901 -1.5727 0
M  V30 6388 C 601.386 0.602832 -1.86079 0
M  V30 6389 C 601.766 1.85912 -1 0
M  V30 6390 O 601.114 2.28379 -0.0742488 0
M  V30 6391 C 601.324 0.911694 -3.36881 0
M  V30 6392 C 602.672 1.2722 -4.05093 0
M  V30 6393 O 603.696 1.0025 -3.41802 0
M  V30 6394 O 602.555 1.7776 -5.16782 0
M  V30 6395 H 599.649 0.302366 -0.769743 0
M  V30 6396 H 602.195 -0.135113 -1.69161 0
M  V30 6397 H 600.967 0.0207256 -3.91295 0
M  V30 6398 H 600.59 1.70538 -3.59169 0
M  V30 6399 N 601.587 1.56661 0.17182 0
M  V30 6400 C 602.812 1.86459 0.908165 0
M  V30 6401 C 603.237 0.688181 1.75059 0
M  V30 6402 O 602.595 -0.362753 1.77634 0
M  V30 6403 C 602.643 3.14669 1.76112 0
M  V30 6404 O 601.747 2.96858 2.86268 0
M  V30 6405 H 601.088 0.613318 0.254434 0
M  V30 6406 H 603.618 2.03892 0.170113 0
M  V30 6407 H 603.628 3.46061 2.16115 0
M  V30 6408 H 602.303 3.99905 1.14233 0
M  V30 6409 H 600.88 2.76819 2.49852 0
M  V30 6410 N 603.065 -0.440357 1.51323 0
M  V30 6411 C 604.29 -1.21716 1.67928 0
M  V30 6412 C 604.715 -1.84328 0.374826 0
M  V30 6413 O 604.073 -1.68675 -0.664706 0
M  V30 6414 C 604.121 -2.27914 2.79442 0
M  V30 6415 O 603.225 -3.33325 2.42834 0
M  V30 6416 H 602.566 -0.35674 0.560029 0
M  V30 6417 H 605.096 -0.520417 1.97871 0
M  V30 6418 H 605.106 -2.72746 3.03436 0
M  V30 6419 H 603.781 -1.8172 3.741 0
M  V30 6420 H 602.358 -2.9399 2.294 0
M  V30 6421 N 604.543 -1.41418 -0.695603 0
M  V30 6422 C 605.954 -1.36335 -1.27552 0
M  V30 6423 C 606.305 -0.0464336 -1.96145 0
M  V30 6424 O 605.43 0.855304 -1.9878 0
M  V30 6425 C 606.025 -2.46941 -2.3196 0
M  V30 6426 C 604.584 -2.45256 -2.85529 0
M  V30 6427 C 603.731 -2.2679 -1.59566 0
M  V30 6428 H 606.682 -1.50934 -0.490362 0
M  V30 6429 H 606.703 -2.15997 -3.1325 0
M  V30 6430 H 606.215 -3.42775 -1.82008 0
M  V30 6431 H 604.316 -1.53179 -3.39657 0
M  V30 6432 H 604.429 -3.41565 -3.35961 0
M  V30 6433 H 602.793 -1.74667 -1.85374 0
M  V30 6434 H 603.576 -3.24651 -1.1161 0
M  V30 6435 N 606.021 0.929856 -1.27246 0
M  V30 6436 C 607.437 1.20542 -1.04603 0
M  V30 6437 C 607.637 2.00276 0.221754 0
M  V30 6438 O 606.693 2.34835 0.927833 0
M  V30 6439 C 608.006 1.95566 -2.28417 0
M  V30 6440 C 609.554 2.08513 -2.33433 0
M  V30 6441 C 610.029 2.86943 -3.5697 0
M  V30 6442 N 611.52 2.94512 -3.57515 0
M  V30 6443 C 612.255 3.55656 -4.49774 0
M  V30 6444 N 611.751 4.18209 -5.52334 0
M  V30 6445 N 613.544 3.53038 -4.37402 0
M  V30 6446 H 605.695 0.397113 -2.08655 0
M  V30 6447 H 607.958 0.238277 -0.917566 0
M  V30 6448 H 607.664 1.44395 -3.20691 0
M  V30 6449 H 607.538 2.9619 -2.33563 0
M  V30 6450 H 609.925 2.58872 -1.41666 0
M  V30 6451 H 610.006 1.07117 -2.32292 0
M  V30 6452 H 609.65 2.37268 -4.49072 0
M  V30 6453 H 609.58 3.8862 -3.55362 0
M  V30 6454 H 612.071 2.50053 -2.83341 0
M  V30 6455 H 612.384 4.62796 -6.18902 0
M  V30 6456 H 610.729 4.16761 -5.56179 0
M  V30 6457 H 613.92 3.0337 -3.56489 0
M  V30 6458 H 614.093 4.004 -5.09493 0
M  V30 6459 N 607.499 1.09233 1.13605 0
M  V30 6460 C 608.747 0.825525 1.84471 0
M  V30 6461 C 609.068 -0.650702 1.83823 0
M  V30 6462 O 608.338 -1.47204 1.29259 0
M  V30 6463 H 606.918 0.3024 0.683054 0
M  V30 6464 H 609.58 1.38006 1.37624 0
M  V30 6465 H 608.676 1.17727 2.89045 0
M  V30 6466 N 608.977 -1.30795 0.87923 0
M  V30 6467 C 610.205 -2.00527 0.509548 0
M  V30 6468 C 610.62 -1.65944 -0.90045 0
M  V30 6469 O 609.977 -0.893525 -1.5913 0
M  V30 6470 C 610.028 -3.55276 0.667943 0
M  V30 6471 O 609.749 -3.88625 2.02242 0
M  V30 6472 C 611.25 -4.4228 0.300494 0
M  V30 6473 H 608.47 -0.641261 0.197549 0
M  V30 6474 H 611.014 -1.66813 1.18295 0
M  V30 6475 H 609.169 -3.87377 0.0419843 0
M  V30 6476 H 609.583 -4.83334 2.03688 0
M  V30 6477 H 611.057 -5.50061 0.462242 0
M  V30 6478 H 611.534 -4.32556 -0.76106 0
M  V30 6479 H 612.14 -4.15613 0.902536 0
M  V30 6480 N 610.455 -0.639598 -1.44038 0
M  V30 6481 C 611.385 0.0469443 -2.33453 0
M  V30 6482 C 612.366 0.82609 -1.48694 0
M  V30 6483 O 613.551 0.790285 -1.77393 0
M  V30 6484 C 610.681 1.02338 -3.3188 0
M  V30 6485 C 609.635 0.355284 -4.26523 0
M  V30 6486 C 608.961 1.44221 -5.14883 0
M  V30 6487 C 610.261 -0.743798 -5.16977 0
M  V30 6488 H 611.955 -0.699735 -2.91108 0
M  V30 6489 H 609.501 -0.337946 -1.39978 0
M  V30 6490 H 611.454 1.51247 -3.93322 0
M  V30 6491 H 610.178 1.80105 -2.72451 0
M  V30 6492 H 608.837 -0.113239 -3.66425 0
M  V30 6493 H 608.485 2.21097 -4.51802 0
M  V30 6494 H 608.185 1.00052 -5.79019 0
M  V30 6495 H 609.709 1.93295 -5.79197 0
M  V30 6496 H 611.123 -0.337444 -5.72306 0
M  V30 6497 H 609.52 -1.10914 -5.89761 0
M  V30 6498 H 610.59 -1.60745 -4.57481 0
M  V30 6499 N 611.933 1.52934 -0.380664 0
M  V30 6500 C 612.896 2.24809 0.446473 0
M  V30 6501 C 613.896 1.26133 0.997347 0
M  V30 6502 O 615.086 1.50297 0.880714 0
M  V30 6503 C 612.218 2.99649 1.62553 0
M  V30 6504 H 613.411 2.99343 -0.182677 0
M  V30 6505 H 610.964 1.55736 -0.132618 0
M  V30 6506 H 611.699 2.29395 2.29235 0
M  V30 6507 H 611.484 3.72066 1.23732 0
M  V30 6508 H 612.974 3.54246 2.21133 0
M  V30 6509 N 613.412 0.11024 1.57214 0
M  V30 6510 C 614.637 -0.561179 1.99664 0
M  V30 6511 C 615.062 -1.59985 0.989266 0
M  V30 6512 O 614.42 -1.81255 -0.0402399 0
M  V30 6513 C 614.468 -1.17189 3.41027 0
M  V30 6514 O 613.572 -2.28755 3.4314 0
M  V30 6515 H 612.913 -0.14101 0.648855 0
M  V30 6516 H 615.443 0.196128 2.03658 0
M  V30 6517 H 615.453 -1.50954 3.79047 0
M  V30 6518 H 614.128 -0.411041 4.13864 0
M  V30 6519 H 612.705 -1.96495 3.16929 0
M  V30 6520 N 614.89 -1.56749 -0.16351 0
M  V30 6521 C 616.115 -1.86938 -0.898264 0
M  V30 6522 C 616.54 -0.697456 -1.74692 0
M  V30 6523 O 615.898 0.353327 -1.77824 0
M  V30 6524 C 615.946 -3.15599 -1.74441 0
M  V30 6525 O 615.05 -2.98371 -2.8469 0
M  V30 6526 H 614.391 -0.614659 -0.251178 0
M  V30 6527 H 616.921 -2.03979 -0.159298 0
M  V30 6528 H 616.931 -3.47202 -2.14277 0
M  V30 6529 H 615.606 -4.00505 -1.1211 0
M  V30 6530 H 614.183 -2.7814 -2.4838 0
M  V30 6531 N 616.368 0.432326 -1.51554 0
M  V30 6532 C 617.616 1.17901 -1.64146 0
M  V30 6533 C 617.937 1.91604 -0.362367 0
M  V30 6534 O 617.207 1.85764 0.621968 0
M  V30 6535 H 615.787 0.438206 -0.604966 0
M  V30 6536 H 618.449 0.495172 -1.88505 0
M  V30 6537 H 617.545 1.90584 -2.47152 0
M  V30 6538 N 617.846 1.41785 0.688094 0
M  V30 6539 C 619.123 1.32031 1.44316 0
M  V30 6540 C 619.503 -0.0486079 2.11044 0
M  V30 6541 O 618.851 -1.06332 2.02252 0
M  V30 6542 C 619.061 2.47906 2.45649 0
M  V30 6543 C 620.409 2.89415 3.10683 0
M  V30 6544 O 621.433 2.477 2.55975 0
M  V30 6545 O 620.292 3.61573 4.09789 0
M  V30 6546 H 617.386 0.519994 0.643067 0
M  V30 6547 H 619.932 1.53765 0.71794 0
M  V30 6548 H 618.704 3.39222 1.95048 0
M  V30 6549 H 618.327 2.28089 3.25671 0
M  V30 6550 N 619.324 -0.923095 1.27737 0
M  V30 6551 C 620.572 -1.66797 1.14119 0
M  V30 6552 C 620.893 -1.92479 -0.312541 0
M  V30 6553 O 620.163 -1.53432 -1.218 0
M  V30 6554 H 618.743 -0.618196 0.419336 0
M  V30 6555 H 621.405 -1.10815 1.60331 0
M  V30 6556 H 620.501 -2.63424 1.67374 0
M  V30 6557 N 620.802 -1.09834 -1.13024 0
M  V30 6558 C 622.049 -0.83695 -1.84395 0
M  V30 6559 C 622.377 0.637463 -1.83757 0
M  V30 6560 O 621.632 1.48554 -1.27398 0
M  V30 6561 C 621.931 -1.32263 -3.32026 0
M  V30 6562 C 621.597 -2.80739 -3.52841 0
M  V30 6563 C 620.259 -3.21286 -3.5823 0
M  V30 6564 C 622.611 -3.76449 -3.60466 0
M  V30 6565 C 619.939 -4.56308 -3.68781 0
M  V30 6566 C 622.291 -5.11266 -3.72546 0
M  V30 6567 C 620.955 -5.51397 -3.76189 0
M  V30 6568 H 620.225 -0.306262 -0.674748 0
M  V30 6569 H 622.872 -1.37385 -1.33408 0
M  V30 6570 H 621.177 -0.705618 -3.85394 0
M  V30 6571 H 622.874 -1.09695 -3.85705 0
M  V30 6572 H 619.464 -2.48363 -3.49305 0
M  V30 6573 H 623.648 -3.46234 -3.55578 0
M  V30 6574 H 618.904 -4.86832 -3.69871 0
M  V30 6575 H 623.078 -5.85279 -3.77388 0
M  V30 6576 H 620.705 -6.56017 -3.84117 0
M  V30 6577 N 622.28 1.30327 -0.886154 0
M  V30 6578 C 623.19 2.31854 -0.357866 0
M  V30 6579 C 624.206 1.65392 0.540502 0
M  V30 6580 O 625.382 1.96683 0.433339 0
M  V30 6581 C 622.447 3.44171 0.417999 0
M  V30 6582 C 621.508 4.26257 -0.510263 0
M  V30 6583 C 620.741 5.3321 0.228669 0
M  V30 6584 O 620.964 5.51542 1.45458 0
M  V30 6585 O 619.898 6.0042 -0.421832 0
M  V30 6586 H 623.724 2.78995 -1.19982 0
M  V30 6587 H 621.309 1.34518 -0.650028 0
M  V30 6588 H 623.191 4.12588 0.857251 0
M  V30 6589 H 621.866 2.99164 1.23623 0
M  V30 6590 H 620.773 3.60533 -0.99835 0
M  V30 6591 H 622.106 4.74871 -1.29454 0
M  V30 6592 N 623.758 0.647228 1.43697 0
M  V30 6593 C 624.668 -0.0487997 2.34549 0
M  V30 6594 C 625.684 -0.818586 1.53542 0
M  V30 6595 O 626.86 -0.767195 1.86215 0
M  V30 6596 C 623.925 -1.00734 3.31743 0
M  V30 6597 C 622.986 -0.23515 4.28655 0
M  V30 6598 C 622.219 -1.14803 5.21206 0
M  V30 6599 O 622.442 -2.38717 5.18045 0
M  V30 6600 O 621.376 -0.623667 5.9866 0
M  V30 6601 H 625.202 0.698863 2.9555 0
M  V30 6602 H 622.787 0.407412 1.43738 0
M  V30 6603 H 624.669 -1.55837 3.91526 0
M  V30 6604 H 623.344 -1.73534 2.73254 0
M  V30 6605 H 622.251 0.359319 3.7237 0
M  V30 6606 H 623.584 0.453152 4.9011 0
M  V30 6607 N 625.236 -1.5273 0.388769 0
M  V30 6608 C 626.484 -2.01174 -0.193208 0
M  V30 6609 C 626.805 -1.27705 -1.47365 0
M  V30 6610 O 626.075 -0.396966 -1.91836 0
M  V30 6611 H 624.655 -0.743287 -0.0743871 0
M  V30 6612 H 627.317 -1.87826 0.520336 0
M  V30 6613 H 626.413 -3.09477 -0.403803 0
M  V30 6614 N 626.714 -0.118576 -1.57153 0
M  V30 6615 C 627.644 0.828436 -2.1831 0
M  V30 6616 C 628.625 1.27758 -1.12303 0
M  V30 6617 O 629.81 1.34026 -1.40537 0
M  V30 6618 C 626.94 2.07876 -2.78217 0
M  V30 6619 C 625.894 1.76742 -3.89803 0
M  V30 6620 C 625.22 3.08801 -4.36516 0
M  V30 6621 C 626.52 1.03606 -5.11921 0
M  V30 6622 H 628.214 0.318824 -2.97698 0
M  V30 6623 H 625.76 0.151911 -1.43196 0
M  V30 6624 H 627.713 2.74584 -3.19659 0
M  V30 6625 H 626.437 2.61161 -1.96118 0
M  V30 6626 H 625.096 1.12424 -3.48936 0
M  V30 6627 H 624.744 3.6002 -3.51276 0
M  V30 6628 H 624.444 2.88743 -5.11763 0
M  V30 6629 H 625.968 3.76627 -4.80608 0
M  V30 6630 H 627.382 1.60467 -5.50385 0
M  V30 6631 H 625.779 0.936454 -5.92748 0
M  V30 6632 H 626.849 0.0227421 -4.84895 0
M  V30 6633 N 628.193 1.56834 0.155195 0
M  V30 6634 C 629.421 1.87049 0.884326 0
M  V30 6635 C 629.836 0.705839 1.7511 0
M  V30 6636 O 629.193 -0.324641 1.79589 0
M  V30 6637 C 629.244 3.1644 1.74781 0
M  V30 6638 O 628.965 4.28417 0.915978 0
M  V30 6639 C 630.466 3.60113 2.58522 0
M  V30 6640 H 627.686 0.620196 0.25612 0
M  V30 6641 H 630.23 2.03946 0.150445 0
M  V30 6642 H 628.385 3.01321 2.43484 0
M  V30 6643 H 628.799 5.02353 1.50803 0
M  V30 6644 H 630.273 4.53508 3.14698 0
M  V30 6645 H 630.75 2.85005 3.34169 0
M  V30 6646 H 631.356 3.77898 1.95124 0
M  V30 6647 N 629.671 -0.424282 1.51781 0
M  V30 6648 C 630.917 -1.17434 1.6534 0
M  V30 6649 C 631.25 -1.90549 0.374806 0
M  V30 6650 O 630.525 -1.84145 -0.626179 0
M  V30 6651 C 630.808 -2.18093 2.86544 0
M  V30 6652 C 630.661 -1.48975 4.24413 0
M  V30 6653 C 631.98 -3.18934 3.03264 0
M  V30 6654 H 629.099 -0.425566 0.601716 0
M  V30 6655 H 631.741 -0.461921 1.84299 0
M  V30 6656 H 629.891 -2.78849 2.7051 0
M  V30 6657 H 631.563 -0.914551 4.52143 0
M  V30 6658 H 629.806 -0.791893 4.26511 0
M  V30 6659 H 630.477 -2.22347 5.05238 0
M  V30 6660 H 632.953 -2.68243 3.18096 0
M  V30 6661 H 631.829 -3.86645 3.89611 0
M  V30 6662 H 632.09 -3.85793 2.15908 0
M  V30 6663 N 631.149 -1.42148 -0.680565 0
M  V30 6664 C 632.112 -1.4488 -1.77602 0
M  V30 6665 C 633.112 -0.337209 -1.57224 0
M  V30 6666 O 634.302 -0.597778 -1.63622 0
M  V30 6667 C 631.434 -1.27483 -3.16166 0
M  V30 6668 H 632.627 -2.42412 -1.76568 0
M  V30 6669 H 630.18 -1.28511 -0.889645 0
M  V30 6670 H 630.915 -0.30851 -3.22829 0
M  V30 6671 H 630.7 -2.08037 -3.3236 0
M  V30 6672 H 632.19 -1.32265 -3.96101 0
M  V30 6673 N 632.627 0.916307 -1.28225 0
M  V30 6674 C 633.855 1.69901 -1.18073 0
M  V30 6675 C 634.27 1.86988 0.260968 0
M  V30 6676 O 633.627 1.39505 1.17663 0
M  V30 6677 C 633.678 3.09254 -1.87201 0
M  V30 6678 O 633.399 2.92959 -3.2574 0
M  V30 6679 C 634.9 4.0362 -1.83319 0
M  V30 6680 H 632.12 0.531181 -0.409985 0
M  V30 6681 H 634.664 1.14703 -1.69303 0
M  V30 6682 H 632.819 3.61277 -1.39848 0
M  V30 6683 H 633.233 3.81139 -3.60324 0
M  V30 6684 H 634.707 4.98873 -2.36282 0
M  V30 6685 H 635.184 4.3176 -0.805007 0
M  V30 6686 H 635.79 3.57524 -2.3034 0
M  V30 6687 N 634.105 1.10431 1.1244 0
M  V30 6688 C 635.351 0.847972 1.84221 0
M  V30 6689 C 635.684 -0.624903 1.83871 0
M  V30 6690 O 634.959 -1.46074 1.28423 0
M  V30 6691 C 635.242 1.39695 3.319 0
M  V30 6692 C 635.095 2.93668 3.40704 0
M  V30 6693 C 636.414 1.03924 4.27654 0
M  V30 6694 H 633.533 0.309502 0.668863 0
M  V30 6695 H 636.175 1.36745 1.31912 0
M  V30 6696 H 634.325 0.955095 3.76577 0
M  V30 6697 H 635.997 3.46379 3.04662 0
M  V30 6698 H 634.24 3.30272 2.81252 0
M  V30 6699 H 634.911 3.27162 4.446 0
M  V30 6700 H 637.387 1.42049 3.91102 0
M  V30 6701 H 636.263 1.45027 5.29394 0
M  V30 6702 H 636.524 -0.051336 4.4207 0
M  V30 6703 N 635.583 -1.29855 0.893053 0
M  V30 6704 C 636.829 -1.96116 0.516349 0
M  V30 6705 C 637.162 -1.70281 -0.933695 0
M  V30 6706 O 636.437 -1.01205 -1.66096 0
M  V30 6707 C 636.72 -3.51068 0.801455 0
M  V30 6708 C 636.573 -3.86387 2.30272 0
M  V30 6709 C 637.892 -4.39186 0.283423 0
M  V30 6710 H 635.011 -0.712335 0.189072 0
M  V30 6711 H 637.653 -1.53587 1.11852 0
M  V30 6712 H 635.803 -3.87424 0.288949 0
M  V30 6713 H 637.475 -3.60012 2.88425 0
M  V30 6714 H 635.718 -3.34167 2.76613 0
M  V30 6715 H 636.389 -4.94512 2.45279 0
M  V30 6716 H 638.865 -4.09785 0.722187 0
M  V30 6717 H 637.741 -5.46505 0.512169 0
M  V30 6718 H 638.002 -4.34511 -0.815643 0
M  V30 6719 N 637.061 -0.65484 -1.43351 0
M  V30 6720 C 637.971 0.0363603 -2.34572 0
M  V30 6721 C 638.987 0.810432 -1.53974 0
M  V30 6722 O 640.163 0.757308 -1.86619 0
M  V30 6723 C 637.228 0.989733 -3.32273 0
M  V30 6724 C 636.289 0.212414 -4.28774 0
M  V30 6725 C 635.522 1.12038 -5.21808 0
M  V30 6726 O 635.745 2.35967 -5.19303 0
M  V30 6727 O 634.679 0.59191 -5.98982 0
M  V30 6728 H 638.505 -0.714527 -2.95175 0
M  V30 6729 H 636.09 -0.415029 -1.4352 0
M  V30 6730 H 637.972 1.53759 -3.92347 0
M  V30 6731 H 636.647 1.72082 -2.74171 0
M  V30 6732 H 635.554 -0.379062 -3.72175 0
M  V30 6733 H 636.887 -0.479138 -4.89862 0
M  V30 6734 N 638.539 1.52521 -0.396863 0
M  V30 6735 C 639.764 2.06571 0.185258 0
M  V30 6736 C 640.189 1.26605 1.39115 0
M  V30 6737 O 639.547 0.293055 1.78916 0
M  V30 6738 C 639.595 3.5674 0.526189 0
M  V30 6739 O 638.699 3.7929 1.61903 0
M  V30 6740 H 638.04 0.663712 0.0195474 0
M  V30 6741 H 640.57 1.966 -0.566519 0
M  V30 6742 H 640.58 4.00311 0.788338 0
M  V30 6743 H 639.255 4.14379 -0.355397 0
M  V30 6744 H 637.832 3.47605 1.35 0
M  V30 6745 N 640.017 0.126909 1.57088 0
M  V30 6746 C 640.98 -0.806097 2.14557 0
M  V30 6747 C 641.98 -1.18918 1.08236 0
M  V30 6748 O 643.17 -1.11339 1.33975 0
M  V30 6749 C 640.302 -2.09116 2.69227 0
M  V30 6750 H 641.495 -0.306522 2.98329 0
M  V30 6751 H 639.048 -0.122393 1.5582 0
M  V30 6752 H 639.783 -2.63486 1.89065 0
M  V30 6753 H 639.568 -1.82588 3.46993 0
M  V30 6754 H 641.058 -2.75794 3.13572 0
M  V30 6755 N 641.495 -1.56914 -0.146875 0
M  V30 6756 C 642.425 -2.01308 -1.1831 0
M  V30 6757 C 643.406 -0.892664 -1.44795 0
M  V30 6758 O 644.591 -1.16048 -1.55713 0
M  V30 6759 C 641.721 -2.3938 -2.51624 0
M  V30 6760 C 640.675 -3.54608 -2.3966 0
M  V30 6761 C 640.001 -3.78493 -3.77686 0
M  V30 6762 C 641.301 -4.87269 -1.88058 0
M  V30 6763 H 642.995 -2.88123 -0.813964 0
M  V30 6764 H 640.541 -1.38615 -0.3901 0
M  V30 6765 H 642.494 -2.69037 -3.24341 0
M  V30 6766 H 641.218 -1.49502 -2.90373 0
M  V30 6767 H 639.877 -3.25116 -1.69396 0
M  V30 6768 H 639.525 -2.85866 -4.13871 0
M  V30 6769 H 639.225 -4.56039 -3.70543 0
M  V30 6770 H 640.749 -4.10576 -4.51951 0
M  V30 6771 H 642.163 -5.15644 -2.50568 0
M  V30 6772 H 640.56 -5.68622 -1.91805 0
M  V30 6773 H 641.63 -4.77634 -0.836277 0
M  V30 6774 N 642.974 0.416227 -1.52004 0
M  V30 6775 C 644.214 1.17307 -1.67387 0
M  V30 6776 C 644.578 1.87959 -0.39183 0
M  V30 6777 O 645.779 2.65472 -0.421671 0
M  V30 6778 C 644.05 2.14661 -2.85754 0
M  V30 6779 S 645.609 2.98549 -3.21581 0
M  V30 6780 H 642.427 0.397505 -0.5895 0
M  V30 6781 H 645.029 0.461431 -1.89976 0
M  V30 6782 H 643.733 1.61431 -3.77317 0
M  V30 6783 H 643.264 2.90375 -2.65417 0
M  V30 6784 H 645.279 4.16536 -2.69652 0
M  V30 6785 N 644.452 1.42507 0.673017 0
M  V30 6786 C 645.415 1.4582 1.76831 0
M  V30 6787 C 646.415 0.345542 1.57043 0
M  V30 6788 O 647.605 0.606447 1.63303 0
M  V30 6789 C 644.737 1.29158 3.15485 0
M  V30 6790 H 645.93 2.43345 1.7528 0
M  V30 6791 H 643.483 1.28981 0.882817 0
M  V30 6792 H 644.218 0.325626 3.22661 0
M  V30 6793 H 644.003 2.09797 3.31252 0
M  V30 6794 H 645.493 1.34363 3.95394 0
M  V30 6795 N 645.93 -0.909495 1.28709 0
M  V30 6796 C 646.86 -2.0291 1.15542 0
M  V30 6797 C 647.841 -1.7002 0.0521017 0
M  V30 6798 O 649.026 -1.92835 0.229849 0
M  V30 6799 C 646.156 -3.37458 0.820935 0
M  V30 6800 C 645.11 -3.84524 1.87949 0
M  V30 6801 C 644.436 -5.16086 1.39854 0
M  V30 6802 C 645.736 -4.05918 3.28676 0
M  V30 6803 H 647.43 -2.14183 2.09203 0
M  V30 6804 H 644.976 -1.02913 1.00722 0
M  V30 6805 H 646.929 -4.1528 0.715571 0
M  V30 6806 H 645.653 -3.26249 -0.151374 0
M  V30 6807 H 644.312 -3.08911 1.97408 0
M  V30 6808 H 643.96 -5.01284 0.41518 0
M  V30 6809 H 643.66 -5.48547 2.1064 0
M  V30 6810 H 645.184 -5.96459 1.30649 0
M  V30 6811 H 646.598 -4.74252 3.22115 0
M  V30 6812 H 644.995 -4.49717 3.97334 0
M  V30 6813 H 646.065 -3.10583 3.72379 0
M  V30 6814 N 647.408 -1.11026 -1.11852 0
M  V30 6815 C 648.824 -0.843294 -1.35502 0
M  V30 6816 C 649.024 0.534179 -1.9429 0
M  V30 6817 O 648.08 1.28585 -2.17307 0
M  V30 6818 C 649.393 -1.94793 -2.29077 0
M  V30 6819 C 650.941 -1.97709 -2.42652 0
M  V30 6820 C 651.416 -3.07364 -3.39546 0
M  V30 6821 N 652.907 -3.0671 -3.47107 0
M  V30 6822 C 653.642 -3.88197 -4.22008 0
M  V30 6823 N 653.138 -4.79635 -4.99922 0
M  V30 6824 N 654.931 -3.76391 -4.17476 0
M  V30 6825 H 647.082 -1.99805 -0.720538 0
M  V30 6826 H 649.345 -0.868633 -0.379711 0
M  V30 6827 H 649.051 -2.93971 -1.93065 0
M  V30 6828 H 648.925 -1.84039 -3.29256 0
M  V30 6829 H 651.312 -0.991604 -2.77941 0
M  V30 6830 H 651.393 -2.1254 -1.4234 0
M  V30 6831 H 651.037 -4.06136 -3.04985 0
M  V30 6832 H 650.967 -2.89774 -4.39703 0
M  V30 6833 H 653.458 -2.40457 -2.91528 0
M  V30 6834 H 653.771 -5.38357 -5.54429 0
M  V30 6835 H 652.116 -4.8366 -4.99097 0
M  V30 6836 H 655.307 -3.04303 -3.55693 0
M  V30 6837 H 655.48 -4.40131 -4.75593 0
M  V30 6838 N 648.886 1.2938 -0.899927 0
M  V30 6839 C 649.834 2.29675 -0.367698 0
M  V30 6840 C 650.828 1.60787 0.533282 0
M  V30 6841 O 652.034 1.75126 0.416058 0
M  V30 6842 H 648.409 0.745284 -0.100279 0
M  V30 6843 H 650.38 2.72008 -1.22696 0
M  V30 6844 C 649.129 3.45512 0.389483 0
M  V30 6845 H 648.452 3.98713 -0.294575 0
M  V30 6846 H 649.892 4.17725 0.726744 0
M  V30 6847 C 648.351 2.969 1.59223 0
M  V30 6848 O 648.881 2.98195 2.69152 0
M  V30 6849 N 647.087 2.52728 1.43447 0
M  V30 6850 H 646.634 2.51873 0.540148 0
M  V30 6851 H 646.592 2.20561 2.24054 0
M  V30 6852 N 650.364 0.662433 1.43002 0
M  V30 6853 C 651.604 0.183312 2.03576 0
M  V30 6854 C 651.968 -1.18354 1.51183 0
M  V30 6855 O 653.169 -1.7566 2.03462 0
M  V30 6856 C 651.44 0.202908 3.56824 0
M  V30 6857 S 652.999 -0.20702 4.38311 0
M  V30 6858 H 649.817 0.0765001 0.706872 0
M  V30 6859 H 652.419 0.872827 1.74934 0
M  V30 6860 H 651.123 1.20028 3.92456 0
M  V30 6861 H 650.654 -0.506845 3.90121 0
M  V30 6862 H 652.669 -1.44358 4.74737 0
M  V30 6863 N 651.842 -1.52309 0.404946 0
M  V30 6864 C 653.091 -2.00952 -0.173529 0
M  V30 6865 C 653.404 -1.29512 -1.46581 0
M  V30 6866 O 654.61 -1.6895 -2.12528 0
M  V30 6867 C 653.066 -3.58097 -0.359801 0
M  V30 6868 C 652.674 -4.38449 0.920138 0
M  V30 6869 C 654.418 -4.14984 -0.893794 0
M  V30 6870 C 652.325 -5.87227 0.701285 0
M  V30 6871 H 651.255 -0.750871 -0.0686244 0
M  V30 6872 H 653.906 -1.75687 0.529749 0
M  V30 6873 H 652.288 -3.79675 -1.12531 0
M  V30 6874 H 653.462 -4.28633 1.69147 0
M  V30 6875 H 651.777 -3.92859 1.38024 0
M  V30 6876 H 654.374 -5.23813 -1.0735 0
M  V30 6877 H 654.717 -3.72072 -1.8673 0
M  V30 6878 H 655.25 -3.97358 -0.187453 0
M  V30 6879 H 651.989 -6.34491 1.64624 0
M  V30 6880 H 651.509 -5.99792 -0.0308288 0
M  V30 6881 H 653.188 -6.46096 0.341846 0
M  V30 6882 N 653.32 -0.135238 -1.57019 0
M  V30 6883 C 654.283 0.794707 -2.14981 0
M  V30 6884 C 655.283 1.18342 -1.08866 0
M  V30 6885 O 656.473 1.10627 -1.34563 0
M  V30 6886 C 653.605 2.07685 -2.70333 0
M  V30 6887 H 654.798 0.290696 -2.98488 0
M  V30 6888 H 652.351 0.114128 -1.55883 0
M  V30 6889 H 653.086 2.6248 -1.9046 0
M  V30 6890 H 652.871 1.80745 -3.47957 0
M  V30 6891 H 654.361 2.74127 -3.1503 0
M  V30 6892 N 654.798 1.5699 0.138552 0
M  V30 6893 C 656.045 1.83809 0.849732 0
M  V30 6894 C 656.373 0.717409 1.80786 0
M  V30 6895 O 655.628 -0.292897 1.93496 0
M  V30 6896 C 655.927 3.17007 1.65049 0
M  V30 6897 C 655.593 4.43037 0.838398 0
M  V30 6898 C 654.255 4.77262 0.614385 0
M  V30 6899 C 656.607 5.20495 0.271044 0
M  V30 6900 C 653.935 5.864 -0.187552 0
M  V30 6901 C 656.287 6.30476 -0.517979 0
M  V30 6902 C 654.951 6.63245 -0.75249 0
M  V30 6903 H 654.221 0.672605 0.310939 0
M  V30 6904 H 656.868 1.91166 0.112971 0
M  V30 6905 H 655.173 3.05138 2.4576 0
M  V30 6906 H 656.87 3.34975 2.20437 0
M  V30 6907 H 653.46 4.16211 1.02307 0
M  V30 6908 H 657.644 4.94422 0.431371 0
M  V30 6909 H 652.9 6.10226 -0.378659 0
M  V30 6910 H 657.074 6.89686 -0.964694 0
M  V30 6911 H 654.701 7.47648 -1.37573 0
M  V30 6912 N 656.276 -0.40816 1.52223 0
M  V30 6913 C 657.209 -1.51834 1.70357 0
M  V30 6914 C 658.187 -1.52973 0.551171 0
M  V30 6915 O 659.371 -1.71667 0.778642 0
M  V30 6916 C 656.498 -2.90362 1.74378 0
M  V30 6917 C 655.544 -3.0713 2.95928 0
M  V30 6918 S 656.377 -2.80342 4.56255 0
M  V30 6919 C 657.533 -4.21098 4.63063 0
M  V30 6920 H 657.766 -1.36223 2.64255 0
M  V30 6921 H 655.299 -0.599798 1.42274 0
M  V30 6922 H 657.257 -3.70199 1.77379 0
M  V30 6923 H 655.918 -3.03314 0.816063 0
M  V30 6924 H 655.111 -4.08482 2.95226 0
M  V30 6925 H 654.713 -2.3516 2.90819 0
M  V30 6926 H 657.005 -5.14749 4.40499 0
M  V30 6927 H 657.948 -4.26823 5.65002 0
M  V30 6928 H 658.356 -4.06114 3.92086 0
M  V30 6929 N 657.755 -1.42862 -0.66545 0
M  V30 6930 C 659.166 -1.3901 -1.24632 0
M  V30 6931 C 659.517 -0.0880285 -1.96002 0
M  V30 6932 O 658.642 0.812947 -2.0055 0
M  V30 6933 C 659.237 -2.51806 -2.2667 0
M  V30 6934 C 657.796 -2.51257 -2.80262 0
M  V30 6935 C 656.943 -2.30124 -1.5472 0
M  V30 6936 H 659.894 -1.5194 -0.458237 0
M  V30 6937 H 659.915 -2.22593 -3.08598 0
M  V30 6938 H 659.427 -3.46558 -1.74697 0
M  V30 6939 H 657.528 -1.60349 -3.36332 0
M  V30 6940 H 657.641 -3.48614 -3.28641 0
M  V30 6941 H 656.005 -1.7856 -1.81627 0
M  V30 6942 H 656.788 -3.26945 -1.04699 0
M  V30 6943 N 659.233 0.902656 -1.29189 0
M  V30 6944 C 660.644 1.46809 -1.15343 0
M  V30 6945 C 660.995 1.94568 0.252517 0
M  V30 6946 O 660.12 1.83454 1.14777 0
M  V30 6947 C 660.715 2.66829 -2.08776 0
M  V30 6948 C 659.274 3.19518 -1.98961 0
M  V30 6949 C 658.421 1.92212 -1.99874 0
M  V30 6950 H 661.372 0.714282 -1.41717 0
M  V30 6951 H 661.393 3.42465 -1.65826 0
M  V30 6952 H 660.905 2.32039 -3.11094 0
M  V30 6953 H 659.006 3.59008 -0.99721 0
M  V30 6954 H 659.119 3.84016 -2.86477 0
M  V30 6955 H 657.483 2.0979 -1.44431 0
M  V30 6956 H 658.266 1.59702 -3.03891 0
M  V30 6957 N 660.711 1.11618 1.11262 0
M  V30 6958 C 661.674 0.779447 2.15539 0
M  V30 6959 C 662.674 -0.202081 1.59525 0
M  V30 6960 O 663.864 0.0226356 1.74185 0
M  V30 6961 C 660.996 0.15674 3.40539 0
M  V30 6962 H 662.189 1.70324 2.4684 0
M  V30 6963 H 659.742 0.918298 1.26479 0
M  V30 6964 H 660.477 -0.777186 3.1485 0
M  V30 6965 H 660.262 0.863308 3.82478 0
M  V30 6966 H 661.752 -0.062661 4.17553 0
M  V30 6967 N 662.189 -1.289 0.906776 0
M  V30 6968 C 663.099 -2.31256 0.394707 0
M  V30 6969 C 664.115 -1.66231 -0.514121 0
M  V30 6970 O 665.291 -1.97347 -0.401994 0
M  V30 6971 C 662.356 -3.44792 -0.363191 0
M  V30 6972 C 661.417 -4.25391 0.578012 0
M  V30 6973 C 660.65 -5.33506 -0.143811 0
M  V30 6974 O 660.873 -5.53786 -1.36665 0
M  V30 6975 O 659.807 -5.99673 0.5173 0
M  V30 6976 H 663.633 -2.77051 1.24405 0
M  V30 6977 H 661.218 -1.33466 0.671346 0
M  V30 6978 H 663.1 -4.139 -0.791503 0
M  V30 6979 H 661.775 -3.01093 -1.18848 0
M  V30 6980 H 660.682 -3.58899 1.05558 0
M  V30 6981 H 662.015 -4.72752 1.36992 0
M  V30 6982 N 663.667 -0.670007 -1.42649 0
M  V30 6983 C 664.599 0.0501746 -2.29145 0
M  V30 6984 C 665.612 0.770331 -1.43422 0
M  V30 6985 O 666.801 0.625288 -1.6719 0
M  V30 6986 C 663.901 1.09463 -3.20735 0
M  V30 6987 C 663.074 0.44926 -4.35087 0
M  V30 6988 C 662.133 1.39285 -5.07431 0
M  V30 6989 O 661.159 0.894997 -5.6212 0
M  V30 6990 N 662.361 2.72631 -5.12496 0
M  V30 6991 H 665.126 -0.692312 -2.91594 0
M  V30 6992 H 662.687 -0.514056 -1.53522 0
M  V30 6993 H 664.679 1.72705 -3.65999 0
M  V30 6994 H 663.249 1.73891 -2.59771 0
M  V30 6995 H 662.469 -0.362573 -3.92529 0
M  V30 6996 H 663.757 -0.000544776 -5.088 0
M  V30 6997 H 663.155 3.15623 -4.69467 0
M  V30 6998 H 661.712 3.31132 -5.61422 0
M  V30 6999 N 665.145 1.52092 -0.413018 0
M  V30 7000 C 666.093 2.28681 0.425199 0
M  V30 7001 C 667.087 1.3353 1.04241 0
M  V30 7002 O 668.293 1.50973 0.980166 0
M  V30 7003 H 664.668 0.735661 0.155906 0
M  V30 7004 H 666.639 2.97418 -0.241926 0
M  V30 7005 C 665.388 3.1235 1.5275 0
M  V30 7006 H 664.711 3.85439 1.06191 0
M  V30 7007 H 666.151 3.69038 2.08774 0
M  V30 7008 C 664.61 2.26161 2.49706 0
M  V30 7009 O 665.14 1.90452 3.53682 0
M  V30 7010 N 663.346 1.89854 2.20008 0
M  V30 7011 H 662.893 2.19092 1.35486 0
M  V30 7012 H 662.851 1.3248 2.85125 0
M  V30 7013 N 666.623 0.143563 1.56945 0
M  V30 7014 C 668.034 -0.37783 1.82837 0
M  V30 7015 C 668.385 -1.64967 1.06209 0
M  V30 7016 O 667.51 -2.14221 0.306291 0
M  V30 7017 C 668.105 -0.692274 3.31652 0
M  V30 7018 C 666.664 -1.1582 3.58138 0
M  V30 7019 C 665.811 -0.17951 2.76718 0
M  V30 7020 H 668.762 0.368317 1.54367 0
M  V30 7021 H 668.783 -1.54729 3.47619 0
M  V30 7022 H 668.295 0.233572 3.87397 0
M  V30 7023 H 666.396 -2.10011 3.07776 0
M  V30 7024 H 666.509 -1.08655 4.66616 0
M  V30 7025 H 664.873 -0.671458 2.4569 0
M  V30 7026 H 665.656 0.739865 3.35233 0
M  V30 7027 N 668.101 -1.57061 -0.130224 0
M  V30 7028 C 669.064 -1.98593 -1.14426 0
M  V30 7029 C 670.064 -0.874584 -1.34936 0
M  V30 7030 O 671.254 -1.14086 -1.31643 0
M  V30 7031 C 668.386 -2.31639 -2.50112 0
M  V30 7032 H 669.579 -2.89374 -0.787561 0
M  V30 7033 H 667.132 -1.51756 -0.374146 0
M  V30 7034 H 667.867 -1.43703 -2.90723 0
M  V30 7035 H 667.652 -3.12684 -2.36583 0
M  V30 7036 H 669.142 -2.64551 -3.23114 0
M  V30 7037 N 669.579 0.400081 -1.52437 0
M  V30 7038 C 670.99 0.97851 -1.59003 0
M  V30 7039 C 671.341 1.91293 -0.436068 0
M  V30 7040 O 670.466 2.1183 0.442365 0
M  V30 7041 C 671.061 1.78145 -2.88184 0
M  V30 7042 C 669.62 2.30976 -2.97199 0
M  V30 7043 C 668.767 1.11212 -2.54022 0
M  V30 7044 H 671.718 0.180002 -1.57676 0
M  V30 7045 H 671.739 2.63968 -2.74046 0
M  V30 7046 H 671.251 1.1011 -3.72152 0
M  V30 7047 H 669.352 3.02355 -2.17744 0
M  V30 7048 H 669.465 2.61221 -4.01622 0
M  V30 7049 H 667.829 1.46882 -2.08081 0
M  V30 7050 H 668.612 0.447307 -3.40373 0
M  V30 7051 N 671.057 1.43213 0.657864 0
M  V30 7052 C 671.987 1.50815 1.78262 0
M  V30 7053 C 672.968 0.363211 1.66177 0
M  V30 7054 O 674.153 0.579806 1.85343 0
M  V30 7055 C 671.283 1.42625 3.16663 0
M  V30 7056 C 670.237 2.5532 3.43505 0
M  V30 7057 C 669.563 2.32184 4.81658 0
M  V30 7058 C 670.863 3.97583 3.38711 0
M  V30 7059 H 672.557 2.44954 1.72157 0
M  V30 7060 H 670.103 1.17896 0.82683 0
M  V30 7061 H 672.056 1.46548 3.95097 0
M  V30 7062 H 670.78 0.449877 3.23487 0
M  V30 7063 H 669.439 2.50742 2.6744 0
M  V30 7064 H 669.087 1.32801 4.85153 0
M  V30 7065 H 668.787 3.07724 5.00579 0
M  V30 7066 H 670.311 2.37883 5.62356 0
M  V30 7067 H 671.725 4.03673 4.07089 0
M  V30 7068 H 670.122 4.73112 3.69168 0
M  V30 7069 H 671.192 4.23049 2.36976 0
M  V30 7070 N 672.536 -0.895792 1.29666 0
M  V30 7071 C 673.499 -1.98189 1.15124 0
M  V30 7072 C 674.499 -1.60572 0.0855717 0
M  V30 7073 O 675.689 -1.70991 0.332826 0
M  V30 7074 C 672.821 -3.32289 0.761372 0
M  V30 7075 H 674.014 -2.12518 2.11603 0
M  V30 7076 H 671.567 -1.0808 1.12908 0
M  V30 7077 H 672.302 -3.23662 -0.203393 0
M  V30 7078 H 672.087 -3.60958 1.53139 0
M  V30 7079 H 673.577 -4.1198 0.682792 0
M  V30 7080 N 674.014 -1.12206 -1.10668 0
M  V30 7081 C 674.946 -0.74552 -2.16736 0
M  V30 7082 C 675.959 0.226696 -1.61214 0
M  V30 7083 O 677.148 0.0083936 -1.78498 0
M  V30 7084 C 674.248 -0.0823368 -3.388 0
M  V30 7085 C 673.421 -1.08341 -4.2377 0
M  V30 7086 C 672.48 -0.448292 -5.24287 0
M  V30 7087 O 671.506 -1.10458 -5.58379 0
M  V30 7088 N 672.708 0.785336 -5.75163 0
M  V30 7089 H 675.473 -1.65818 -2.49649 0
M  V30 7090 H 673.034 -1.01335 -1.26265 0
M  V30 7091 H 675.026 0.354476 -4.03145 0
M  V30 7092 H 673.596 0.733041 -3.03884 0
M  V30 7093 H 672.816 -1.69792 -3.55759 0
M  V30 7094 H 674.104 -1.76042 -4.77375 0
M  V30 7095 H 673.502 1.33755 -5.4966 0
M  V30 7096 H 672.059 1.16501 -6.41304 0
M  V30 7097 N 675.492 1.28418 -0.913599 0
M  V30 7098 C 676.903 1.77024 -0.593237 0
M  V30 7099 C 677.254 1.74779 0.891441 0
M  V30 7100 O 676.379 1.34237 1.69733 0
M  V30 7101 C 676.974 3.21456 -1.07011 0
M  V30 7102 C 675.533 3.67786 -0.800664 0
M  V30 7103 C 674.68 2.48185 -1.23691 0
M  V30 7104 H 677.631 1.14883 -1.09487 0
M  V30 7105 H 677.652 3.78269 -0.411481 0
M  V30 7106 H 677.164 3.23058 -2.1507 0
M  V30 7107 H 675.265 3.71644 0.266725 0
M  V30 7108 H 675.378 4.57934 -1.4083 0
M  V30 7109 H 673.742 2.46116 -0.655655 0
M  V30 7110 H 674.525 2.52506 -2.32585 0
M  V30 7111 N 676.97 0.677563 1.42291 0
M  V30 7112 C 677.88 0.000962654 2.346 0
M  V30 7113 C 678.896 -0.785833 1.55244 0
M  V30 7114 O 680.072 -0.727523 1.87801 0
M  V30 7115 C 677.137 -0.936746 3.33805 0
M  V30 7116 C 676.198 -0.144173 4.29058 0
M  V30 7117 C 675.431 -1.03722 5.23524 0
M  V30 7118 O 675.654 -2.27675 5.22992 0
M  V30 7119 O 674.588 -0.496542 5.99848 0
M  V30 7120 H 678.414 0.761397 2.94001 0
M  V30 7121 H 675.999 0.43781 1.42841 0
M  V30 7122 H 677.881 -1.47497 3.94744 0
M  V30 7123 H 676.556 -1.67698 2.76874 0
M  V30 7124 H 675.463 0.438224 3.71524 0
M  V30 7125 H 676.796 0.55701 4.89038 0
M  V30 7126 N 678.448 -1.51871 0.421078 0
M  V30 7127 C 679.859 -1.86644 -0.0457991 0
M  V30 7128 C 680.21 -1.33919 -1.43388 0
M  V30 7129 O 679.335 -0.683316 -2.05328 0
M  V30 7130 C 679.93 -3.38681 -0.0898844 0
M  V30 7131 C 678.489 -3.73049 -0.501127 0
M  V30 7132 C 677.636 -2.75485 0.316723 0
M  V30 7133 H 680.587 -1.45327 0.637635 0
M  V30 7134 H 680.608 -3.69636 -0.902734 0
M  V30 7135 H 680.12 -3.77025 0.920513 0
M  V30 7136 H 678.221 -3.40288 -1.51773 0
M  V30 7137 H 678.334 -4.78512 -0.237217 0
M  V30 7138 H 676.698 -2.53725 -0.222663 0
M  V30 7139 H 677.481 -3.16671 1.32569 0
M  V30 7140 N 679.926 -0.151884 -1.56866 0
M  V30 7141 C 680.856 0.781943 -2.20018 0
M  V30 7142 C 681.837 1.25347 -1.14987 0
M  V30 7143 O 683.022 1.31015 -1.43348 0
M  V30 7144 C 680.152 2.01928 -2.82564 0
M  V30 7145 C 679.106 1.68434 -3.93464 0
M  V30 7146 C 678.432 2.99472 -4.42968 0
M  V30 7147 C 679.732 0.927244 -5.14003 0
M  V30 7148 H 681.426 0.255607 -2.98307 0
M  V30 7149 H 678.972 0.121502 -1.43486 0
M  V30 7150 H 680.925 2.67741 -3.25411 0
M  V30 7151 H 679.649 2.56943 -2.01614 0
M  V30 7152 H 678.308 1.04998 -3.51242 0
M  V30 7153 H 677.956 3.52488 -3.58834 0
M  V30 7154 H 677.656 2.77823 -5.17772 0
M  V30 7155 H 679.18 3.66348 -4.88489 0
M  V30 7156 H 680.594 1.48756 -5.53665 0
M  V30 7157 H 678.991 0.810513 -5.94601 0
M  V30 7158 H 680.061 -0.0801163 -4.84834 0
M  V30 7159 N 681.404 1.57128 0.121893 0
M  V30 7160 C 682.65 1.84974 0.831418 0
M  V30 7161 C 682.983 0.737204 1.79663 0
M  V30 7162 O 682.258 -0.257199 1.92792 0
M  V30 7163 C 682.541 3.23397 1.58386 0
M  V30 7164 C 682.394 4.45246 0.638445 0
M  V30 7165 C 683.713 3.59355 2.54071 0
M  V30 7166 H 680.832 0.67282 0.300803 0
M  V30 7167 H 683.474 1.89759 0.0957587 0
M  V30 7168 H 681.624 3.19449 2.21098 0
M  V30 7169 H 683.296 4.61295 0.0203925 0
M  V30 7170 H 681.539 4.33771 -0.05023 0
M  V30 7171 H 682.21 5.38765 1.20151 0
M  V30 7172 H 684.686 3.64075 2.01465 0
M  V30 7173 H 683.562 4.57193 3.03752 0
M  V30 7174 H 683.823 2.86622 3.36601 0
M  V30 7175 N 682.882 -0.391992 1.52647 0
M  V30 7176 C 684.128 -1.13563 1.68745 0
M  V30 7177 C 684.483 -1.87745 0.420685 0
M  V30 7178 O 683.776 -1.82434 -0.585529 0
M  V30 7179 C 683.97 -2.14401 2.85949 0
M  V30 7180 C 683.799 -1.50124 4.23902 0
M  V30 7181 C 682.569 -1.2666 4.89168 0
M  V30 7182 C 684.767 -0.952933 5.05395 0
M  V30 7183 N 682.749 -0.584555 6.11111 0
M  V30 7184 C 684.12 -0.398784 6.18716 0
M  V30 7185 C 686.175 -0.849053 4.90607 0
M  V30 7186 C 684.878 0.249084 7.18869 0
M  V30 7187 C 686.904 -0.215011 5.91009 0
M  V30 7188 C 686.266 0.328382 7.03634 0
M  V30 7189 H 682.365 -0.401628 0.670984 0
M  V30 7190 H 684.949 -0.425585 1.89992 0
M  V30 7191 H 683.12 -2.82746 2.66288 0
M  V30 7192 H 684.852 -2.8125 2.90999 0
M  V30 7193 H 681.607 -1.54078 4.47836 0
M  V30 7194 H 682.031 -0.259663 6.76502 0
M  V30 7195 H 686.673 -1.25497 4.03745 0
M  V30 7196 H 684.391 0.667019 8.05342 0
M  V30 7197 H 687.977 -0.135921 5.81641 0
M  V30 7198 H 686.857 0.811257 7.79992 0
M  V30 7199 N 684.36 -1.4356 -0.65026 0
M  V30 7200 C 685.606 -1.45549 -1.41221 0
M  V30 7201 C 685.939 -0.0805472 -1.94033 0
M  V30 7202 O 685.214 0.899043 -1.72475 0
M  V30 7203 C 685.497 -2.50028 -2.59148 0
M  V30 7204 C 685.35 -3.96808 -2.1181 0
M  V30 7205 C 686.669 -2.51212 -3.61359 0
M  V30 7206 H 683.788 -0.529967 -0.512156 0
M  V30 7207 H 686.43 -1.75127 -0.736933 0
M  V30 7208 H 684.58 -2.24937 -3.16758 0
M  V30 7209 H 686.252 -4.32966 -1.59178 0
M  V30 7210 H 684.495 -4.09498 -1.43156 0
M  V30 7211 H 685.166 -4.6553 -2.96625 0
M  V30 7212 H 687.642 -2.73583 -3.13515 0
M  V30 7213 H 686.518 -3.26252 -4.41419 0
M  V30 7214 H 686.779 -1.54701 -4.1415 0
M  V30 7215 N 685.838 0.888903 -1.30139 0
M  V30 7216 C 687.063 1.67884 -1.21777 0
M  V30 7217 C 687.488 1.86848 0.216689 0
M  V30 7218 O 686.846 1.39659 1.15608 0
M  V30 7219 C 686.894 3.03483 -1.94757 0
M  V30 7220 O 685.998 3.92294 -1.27198 0
M  V30 7221 H 685.339 0.513144 -0.421402 0
M  V30 7222 H 687.869 1.10968 -1.71893 0
M  V30 7223 H 687.879 3.53553 -2.03627 0
M  V30 7224 H 686.554 2.89 -2.99085 0
M  V30 7225 H 685.131 3.50732 -1.26655 0
M  V30 7226 N 687.317 1.12792 1.10072 0
M  V30 7227 C 688.264 0.79921 2.16521 0
M  V30 7228 C 689.234 -0.235726 1.64419 0
M  V30 7229 O 690.419 -0.109457 1.90486 0
M  V30 7230 C 687.559 0.264091 3.44088 0
M  V30 7231 C 686.672 1.35729 4.10124 0
M  V30 7232 C 685.807 0.781212 5.25424 0
M  V30 7233 C 684.846 1.85327 5.8337 0
M  V30 7234 N 683.983 1.29564 6.90042 0
M  V30 7235 H 688.823 1.71105 2.43981 0
M  V30 7236 H 686.36 0.854225 1.19756 0
M  V30 7237 H 688.318 -0.0642423 4.17151 0
M  V30 7238 H 686.948 -0.610901 3.16967 0
M  V30 7239 H 686 1.80234 3.34993 0
M  V30 7240 H 687.312 2.16782 4.4923 0
M  V30 7241 H 686.466 0.403769 6.05355 0
M  V30 7242 H 685.205 -0.0604686 4.87663 0
M  V30 7243 H 684.21 2.23986 5.02106 0
M  V30 7244 H 685.435 2.69824 6.23195 0
M  V30 7245 H 683.381 0.475844 6.54272 0
M  V30 7246 H 683.298 2.04271 7.2788 0
M  V30 7247 H 684.566 0.945545 7.73744 0
M  V30 7248 N 688.795 -1.27931 0.920396 0
M  V30 7249 C 690.041 -1.95329 0.5673 0
M  V30 7250 C 690.396 -1.7107 -0.880506 0
M  V30 7251 O 689.689 -1.02497 -1.61879 0
M  V30 7252 C 689.883 -3.47853 0.820558 0
M  V30 7253 C 689.712 -3.86941 2.29143 0
M  V30 7254 C 688.482 -4.10766 2.94278 0
M  V30 7255 C 690.68 -3.97091 3.26838 0
M  V30 7256 N 688.662 -4.36578 4.31594 0
M  V30 7257 C 690.033 -4.27194 4.49339 0
M  V30 7258 C 692.088 -3.79639 3.22147 0
M  V30 7259 C 690.791 -4.41662 5.67739 0
M  V30 7260 C 692.817 -3.95328 4.39852 0
M  V30 7261 C 692.179 -4.2581 5.61128 0
M  V30 7262 H 688.278 -0.73836 0.257583 0
M  V30 7263 H 690.862 -1.54447 1.1855 0
M  V30 7264 H 689.033 -3.87709 0.231571 0
M  V30 7265 H 690.765 -4.024 0.430824 0
M  V30 7266 H 687.52 -4.05318 2.44979 0
M  V30 7267 H 687.944 -4.53555 5.0261 0
M  V30 7268 H 692.586 -3.55119 2.29457 0
M  V30 7269 H 690.304 -4.65011 6.60901 0
M  V30 7270 H 693.89 -3.83253 4.37731 0
M  V30 7271 H 692.77 -4.37691 6.50689 0
M  V30 7272 N 690.273 -0.685099 -1.4193 0
M  V30 7273 C 691.519 -0.211971 -2.01689 0
M  V30 7274 C 691.852 1.18189 -1.54094 0
M  V30 7275 O 691.127 1.79559 -0.747572 0
M  V30 7276 C 691.41 -0.258019 -3.59174 0
M  V30 7277 C 691.263 -1.68807 -4.16922 0
M  V30 7278 C 692.582 0.388044 -4.38386 0
M  V30 7279 H 689.701 -0.0784987 -0.732808 0
M  V30 7280 H 692.343 -0.871837 -1.68816 0
M  V30 7281 H 690.493 0.303832 -3.8731 0
M  V30 7282 H 692.165 -2.30296 -3.99702 0
M  V30 7283 H 690.408 -2.22553 -3.72361 0
M  V30 7284 H 691.079 -1.6719 -5.26072 0
M  V30 7285 H 693.555 -0.0903432 -4.16002 0
M  V30 7286 H 692.431 0.325232 -5.47936 0
M  V30 7287 H 692.692 1.4672 -4.17044 0
M  V30 7288 N 691.751 1.51645 -0.429126 0
M  V30 7289 C 693.028 1.94579 0.199614 0
M  V30 7290 C 693.408 1.3673 1.60836 0
M  V30 7291 O 692.756 0.551062 2.21756 0
M  V30 7292 C 692.966 3.48506 0.185685 0
M  V30 7293 C 694.314 4.22756 0.395282 0
M  V30 7294 O 695.338 3.55219 0.264165 0
M  V30 7295 O 694.197 5.42555 0.655475 0
M  V30 7296 H 691.291 0.816007 0.134393 0
M  V30 7297 H 693.837 1.62577 -0.486513 0
M  V30 7298 H 692.609 3.83045 -0.799508 0
M  V30 7299 H 692.232 3.86927 0.91507 0
M  V30 7300 N 693.229 0.160201 1.56784 0
M  V30 7301 C 694.459 -0.493449 2.00621 0
M  V30 7302 C 694.867 -1.5809 1.03943 0
M  V30 7303 O 694.21 -1.83675 0.0305343 0
M  V30 7304 C 694.272 -1.14169 3.4089 0
M  V30 7305 C 693.936 -0.197243 4.56574 0
M  V30 7306 C 694.933 0.580174 5.16653 0
M  V30 7307 C 692.618 -0.0963038 5.02208 0
M  V30 7308 C 694.612 1.44584 6.20785 0
M  V30 7309 C 692.299 0.772959 6.06192 0
M  V30 7310 C 693.297 1.54263 6.65351 0
M  V30 7311 O 692.985 2.39738 7.67321 0
M  V30 7312 H 692.717 -0.131764 0.663034 0
M  V30 7313 H 695.271 0.255728 2.03802 0
M  V30 7314 H 693.501 -1.93877 3.34587 0
M  V30 7315 H 695.19 -1.69641 3.6875 0
M  V30 7316 H 695.956 0.5123 4.82287 0
M  V30 7317 H 691.835 -0.685143 4.5588 0
M  V30 7318 H 695.379 2.04706 6.66889 0
M  V30 7319 H 691.276 0.842077 6.39984 0
M  V30 7320 H 692.044 2.33131 7.84597 0
M  V30 7321 N 694.707 -1.5719 -0.113559 0
M  V30 7322 C 695.932 -1.89702 -0.838336 0
M  V30 7323 C 696.357 -0.752679 -1.72384 0
M  V30 7324 O 695.715 0.296575 -1.78858 0
M  V30 7325 C 695.763 -3.20989 -1.64312 0
M  V30 7326 O 694.867 -3.07278 -2.75053 0
M  V30 7327 H 694.208 -0.622339 -0.231496 0
M  V30 7328 H 696.738 -2.04382 -0.0943228 0
M  V30 7329 H 696.748 -3.53843 -2.03123 0
M  V30 7330 H 695.423 -4.03869 -0.993119 0
M  V30 7331 H 694 -2.85901 -2.39406 0
M  V30 7332 N 696.185 0.383891 -1.52853 0
M  V30 7333 C 697.133 1.48965 -1.7864 0
M  V30 7334 C 698.127 1.56242 -0.654577 0
M  V30 7335 O 699.333 1.59347 -0.83716 0
M  V30 7336 H 695.708 0.495892 -0.565328 0
M  V30 7337 H 697.679 1.24411 -2.71228 0
M  V30 7338 C 696.428 2.86036 -1.97683 0
M  V30 7339 H 695.751 2.81188 -2.84206 0
M  V30 7340 H 697.191 3.62632 -2.19713 0
M  V30 7341 C 695.65 3.28428 -0.750776 0
M  V30 7342 O 696.18 4.0164 0.0693491 0
M  V30 7343 N 694.386 2.84765 -0.579427 0
M  V30 7344 H 693.933 2.25353 -1.24795 0
M  V30 7345 H 693.891 3.13486 0.239544 0
M  V30 7346 N 697.663 1.43903 0.642637 0
M  V30 7347 C 698.61 1.49881 1.75512 0
M  V30 7348 C 699.58 0.347538 1.62423 0
M  V30 7349 O 700.765 0.556177 1.82514 0
M  V30 7350 C 697.905 1.43797 3.13714 0
M  V30 7351 C 697.018 2.6921 3.37861 0
M  V30 7352 C 696.153 2.5504 4.6597 0
M  V30 7353 C 695.192 3.75671 4.83257 0
M  V30 7354 N 694.329 3.60247 6.02633 0
M  V30 7355 H 699.169 2.44935 1.69737 0
M  V30 7356 H 696.706 1.21572 0.828165 0
M  V30 7357 H 698.664 1.38262 3.93624 0
M  V30 7358 H 697.294 0.523173 3.18532 0
M  V30 7359 H 696.346 2.8498 2.51973 0
M  V30 7360 H 697.658 3.58786 3.46517 0
M  V30 7361 H 696.812 2.47273 5.54023 0
M  V30 7362 H 695.551 1.63006 4.59653 0
M  V30 7363 H 694.556 3.83836 3.93637 0
M  V30 7364 H 695.781 4.68728 4.91397 0
M  V30 7365 H 693.727 2.70955 5.97427 0
M  V30 7366 H 693.644 4.43431 6.12295 0
M  V30 7367 H 694.912 3.56351 6.93278 0
M  V30 7368 N 699.141 -0.881989 1.30609 0
M  V30 7369 C 700.388 -1.63405 1.19604 0
M  V30 7370 C 700.716 -1.92905 -0.248574 0
M  V30 7371 O 699.971 -1.55062 -1.19391 0
M  V30 7372 C 700.27 -2.97999 1.97311 0
M  V30 7373 C 699.936 -2.88039 3.46907 0
M  V30 7374 C 698.598 -2.85029 3.877 0
M  V30 7375 C 700.95 -2.75948 4.42156 0
M  V30 7376 C 698.278 -2.67772 5.2203 0
M  V30 7377 C 700.63 -2.60228 5.76597 0
M  V30 7378 C 699.294 -2.55595 6.16626 0
M  V30 7379 H 698.564 -0.597941 0.437662 0
M  V30 7380 H 701.211 -1.02524 1.61744 0
M  V30 7381 H 699.516 -3.62847 1.47815 0
M  V30 7382 H 701.213 -3.55156 1.86186 0
M  V30 7383 H 697.803 -2.91192 3.14492 0
M  V30 7384 H 701.987 -2.77337 4.1158 0
M  V30 7385 H 697.243 -2.62601 5.52133 0
M  V30 7386 H 701.417 -2.49847 6.50038 0
M  V30 7387 H 699.044 -2.41981 7.20659 0
M  V30 7388 N 700.619 -1.13374 -1.09472 0
M  V30 7389 C 701.867 -0.893422 -1.8128 0
M  V30 7390 C 702.188 0.582029 -1.86111 0
M  V30 7391 O 701.458 1.42305 -1.34633 0
M  V30 7392 H 700.038 -0.327543 -0.67136 0
M  V30 7393 H 702.7 -1.43018 -1.32408 0
M  V30 7394 H 701.796 -1.28374 -2.84476 0
M  V30 7395 N 702.098 1.27442 -0.927168 0
M  V30 7396 C 703.345 1.94391 -0.567324 0
M  V30 7397 C 703.673 1.72875 0.891321 0
M  V30 7398 O 702.928 1.05071 1.65102 0
M  V30 7399 C 703.227 3.47413 -0.838994 0
M  V30 7400 C 702.893 3.89049 -2.2793 0
M  V30 7401 C 701.555 4.00127 -2.67305 0
M  V30 7402 C 703.907 4.10154 -3.21595 0
M  V30 7403 C 701.235 4.29697 -3.99471 0
M  V30 7404 C 703.587 4.41208 -4.53341 0
M  V30 7405 C 702.251 4.50499 -4.92551 0
M  V30 7406 H 701.521 0.711325 -0.207598 0
M  V30 7407 H 704.168 1.51523 -1.17103 0
M  V30 7408 H 702.473 3.91503 -0.152609 0
M  V30 7409 H 704.17 3.97354 -0.53955 0
M  V30 7410 H 700.76 3.80962 -1.96381 0
M  V30 7411 H 704.944 4.01036 -2.92377 0
M  V30 7412 H 700.2 4.35099 -4.29533 0
M  V30 7413 H 704.374 4.56486 -5.25922 0
M  V30 7414 H 702.001 4.73167 -5.94994 0
M  V30 7415 N 703.576 0.692616 1.41565 0
M  V30 7416 C 704.824 0.221896 2.00878 0
M  V30 7417 C 705.145 -1.18164 1.5512 0
M  V30 7418 O 704.415 -1.79679 0.78054 0
M  V30 7419 H 702.995 0.0790463 0.742806 0
M  V30 7420 H 705.657 0.893115 1.73232 0
M  V30 7421 H 704.753 0.23702 3.11199 0
M  V30 7422 N 705.054 -1.51416 0.437162 0
M  V30 7423 C 706.284 -2.06204 -0.127859 0
M  V30 7424 C 706.692 -1.30463 -1.37026 0
M  V30 7425 O 706.035 -0.357516 -1.80187 0
M  V30 7426 C 706.097 -3.55783 -0.515632 0
M  V30 7427 C 705.761 -4.52776 0.619937 0
M  V30 7428 C 706.758 -4.98031 1.49201 0
M  V30 7429 C 704.443 -4.95878 0.800618 0
M  V30 7430 C 706.437 -5.85061 2.52947 0
M  V30 7431 C 704.124 -5.82699 1.84135 0
M  V30 7432 C 705.122 -6.27188 2.70416 0
M  V30 7433 O 704.81 -7.12284 3.72702 0
M  V30 7434 H 704.542 -0.675903 -0.011442 0
M  V30 7435 H 707.096 -1.95977 0.614986 0
M  V30 7436 H 705.326 -3.63793 -1.31118 0
M  V30 7437 H 707.015 -3.93087 -1.01179 0
M  V30 7438 H 707.781 -4.65426 1.36395 0
M  V30 7439 H 703.66 -4.60792 0.138617 0
M  V30 7440 H 707.204 -6.19708 3.20325 0
M  V30 7441 H 703.101 -6.14717 1.9696 0
M  V30 7442 H 703.869 -7.30462 3.69281 0
M  V30 7443 N 706.532 -0.168513 -1.56696 0
M  V30 7444 C 707.464 0.794249 -2.14998 0
M  V30 7445 C 708.477 1.1957 -1.10485 0
M  V30 7446 O 709.666 1.13604 -1.37682 0
M  V30 7447 C 706.766 2.08018 -2.67547 0
M  V30 7448 C 705.939 1.84274 -3.96689 0
M  V30 7449 C 704.998 2.97059 -4.3433 0
M  V30 7450 O 704.024 2.67815 -5.02259 0
M  V30 7451 N 705.226 4.24775 -3.9566 0
M  V30 7452 H 707.991 0.295832 -2.98236 0
M  V30 7453 H 705.552 0.0143611 -1.61894 0
M  V30 7454 H 707.544 2.82559 -2.89729 0
M  V30 7455 H 706.114 2.49059 -1.88914 0
M  V30 7456 H 705.334 0.936528 -3.82914 0
M  V30 7457 H 706.622 1.65773 -4.81037 0
M  V30 7458 H 706.02 4.51395 -3.40968 0
M  V30 7459 H 704.577 4.96027 -4.22848 0
M  V30 7460 N 708.01 1.57248 0.105221 0
M  V30 7461 C 708.94 2.04374 1.12931 0
M  V30 7462 C 709.921 0.93074 1.42377 0
M  V30 7463 O 711.106 1.20136 1.52581 0
M  V30 7464 C 708.236 2.45967 2.45189 0
M  V30 7465 C 707.19 3.60838 2.30174 0
M  V30 7466 C 706.516 3.88374 3.67518 0
M  V30 7467 C 707.816 4.92084 1.75073 0
M  V30 7468 H 709.51 2.9018 0.737287 0
M  V30 7469 H 707.056 1.39601 0.353211 0
M  V30 7470 H 709.009 2.77542 3.17094 0
M  V30 7471 H 707.733 1.57148 2.86308 0
M  V30 7472 H 706.392 3.29493 1.60716 0
M  V30 7473 H 706.04 2.96739 4.06147 0
M  V30 7474 H 705.74 4.65703 3.58321 0
M  V30 7475 H 707.264 4.22415 4.40906 0
M  V30 7476 H 708.678 5.22106 2.36809 0
M  V30 7477 H 707.075 5.73507 1.76662 0
M  V30 7478 H 708.145 4.79684 0.709347 0
M  V30 7479 N 709.488 -0.375779 1.53054 0
M  V30 7480 C 710.713 -1.14484 1.7294 0
M  V30 7481 C 711.138 -1.82572 0.452668 0
M  V30 7482 O 710.496 -1.71343 -0.592567 0
M  V30 7483 C 710.544 -2.15857 2.88857 0
M  V30 7484 O 709.648 -3.22725 2.56753 0
M  V30 7485 H 708.989 -0.332666 0.574656 0
M  V30 7486 H 711.519 -0.436025 1.999 0
M  V30 7487 H 711.529 -2.59631 3.14731 0
M  V30 7488 H 710.204 -1.65689 3.81471 0
M  V30 7489 H 708.781 -2.83996 2.41663 0
M  V30 7490 N 710.966 -1.44241 -0.634997 0
M  V30 7491 C 712.191 -1.50516 -1.42687 0
M  V30 7492 C 712.616 -0.129864 -1.87651 0
M  V30 7493 O 711.974 0.880164 -1.58502 0
M  V30 7494 C 712.022 -2.4714 -2.62591 0
M  V30 7495 O 711.126 -1.97025 -3.62291 0
M  V30 7496 H 710.467 -0.50841 -0.427101 0
M  V30 7497 H 712.997 -1.89337 -0.775408 0
M  V30 7498 H 713.007 -2.65048 -3.10183 0
M  V30 7499 H 711.682 -3.47039 -2.29209 0
M  V30 7500 H 710.259 -1.88866 -3.21534 0
M  V30 7501 N 712.444 0.87505 -1.31075 0
M  V30 7502 C 713.86 1.15997 -1.09622 0
M  V30 7503 C 714.06 2.01036 0.136611 0
M  V30 7504 O 713.116 2.38559 0.827397 0
M  V30 7505 C 714.429 1.85702 -2.36506 0
M  V30 7506 C 715.977 1.98425 -2.42067 0
M  V30 7507 C 716.452 2.71544 -3.68819 0
M  V30 7508 N 717.943 2.79084 -3.69684 0
M  V30 7509 C 718.678 3.36259 -4.64454 0
M  V30 7510 N 718.174 3.94406 -5.69575 0
M  V30 7511 N 719.967 3.34169 -4.51982 0
M  V30 7512 H 712.118 0.308258 -2.10151 0
M  V30 7513 H 714.381 0.199145 -0.926847 0
M  V30 7514 H 714.087 1.30663 -3.26527 0
M  V30 7515 H 713.961 2.86017 -2.45915 0
M  V30 7516 H 716.348 2.5263 -1.52518 0
M  V30 7517 H 716.429 0.971682 -2.36626 0
M  V30 7518 H 716.073 2.18008 -4.58732 0
M  V30 7519 H 716.003 3.73198 -3.71525 0
M  V30 7520 H 718.494 2.3781 -2.93691 0
M  V30 7521 H 718.807 4.36129 -6.37974 0
M  V30 7522 H 717.152 3.92797 -5.73355 0
M  V30 7523 H 720.343 2.87977 -3.69035 0
M  V30 7524 H 720.516 3.78431 -5.26017 0
M  V30 7525 N 713.922 1.13953 1.08869 0
M  V30 7526 C 715.338 0.878924 1.33218 0
M  V30 7527 C 715.538 -0.482478 1.95638 0
M  V30 7528 O 714.594 -1.22778 2.2064 0
M  V30 7529 C 715.907 2.00798 2.23832 0
M  V30 7530 C 717.455 2.04073 2.37325 0
M  V30 7531 C 717.93 3.16258 3.31278 0
M  V30 7532 N 719.421 3.15805 3.38853 0
M  V30 7533 C 720.156 3.99249 4.11567 0
M  V30 7534 N 719.652 4.92721 4.87029 0
M  V30 7535 N 721.445 3.87327 4.0735 0
M  V30 7536 H 713.596 2.01645 0.66731 0
M  V30 7537 H 715.859 0.878395 0.356547 0
M  V30 7538 H 715.565 2.98986 1.85203 0
M  V30 7539 H 715.439 1.92704 3.24261 0
M  V30 7540 H 717.826 1.06495 2.75214 0
M  V30 7541 H 717.907 2.16239 1.36654 0
M  V30 7542 H 717.551 4.14079 2.9411 0
M  V30 7543 H 717.481 3.0133 4.31866 0
M  V30 7544 H 719.972 2.48102 2.8505 0
M  V30 7545 H 720.285 5.52867 5.39961 0
M  V30 7546 H 718.63 4.96723 4.86098 0
M  V30 7547 H 721.821 3.13627 3.475 0
M  V30 7548 H 721.994 4.52585 4.63757 0
M  V30 7549 N 715.4 -1.26948 0.933913 0
M  V30 7550 C 716.646 -1.94374 0.57848 0
M  V30 7551 C 716.979 -1.73166 -0.879048 0
M  V30 7552 O 716.254 -1.06438 -1.62792 0
M  V30 7553 C 716.537 -3.4834 0.912739 0
M  V30 7554 C 716.39 -3.78866 2.42448 0
M  V30 7555 C 717.709 -4.38062 0.423003 0
M  V30 7556 H 714.828 -0.705959 0.211639 0
M  V30 7557 H 717.47 -1.49951 1.16682 0
M  V30 7558 H 715.62 -3.86309 0.412058 0
M  V30 7559 H 717.292 -3.50654 2.99733 0
M  V30 7560 H 715.535 -3.25198 2.87104 0
M  V30 7561 H 716.206 -4.86458 2.60887 0
M  V30 7562 H 718.682 -4.0728 0.852191 0
M  V30 7563 H 717.558 -5.44599 0.685776 0
M  V30 7564 H 717.819 -4.36886 -0.676994 0
M  V30 7565 N 716.879 -0.700114 -1.41195 0
M  V30 7566 C 717.842 -0.0465706 -2.29153 0
M  V30 7567 C 718.842 0.703302 -1.44604 0
M  V30 7568 O 720.032 0.537513 -1.657 0
M  V30 7569 C 717.164 0.944324 -3.2756 0
M  V30 7570 H 718.357 -0.821064 -2.88442 0
M  V30 7571 H 715.91 -0.463869 -1.49258 0
M  V30 7572 H 716.645 1.74642 -2.73259 0
M  V30 7573 H 716.43 0.409701 -3.89954 0
M  V30 7574 H 717.92 1.39925 -3.9346 0
M  V30 7575 N 718.357 1.51182 -0.445186 0
M  V30 7576 C 719.603 2.02452 0.11882 0
M  V30 7577 C 719.936 1.32824 1.41673 0
M  V30 7578 O 719.211 0.445637 1.89326 0
M  V30 7579 C 719.494 3.5859 0.329475 0
M  V30 7580 C 719.347 4.38823 -0.987638 0
M  V30 7581 C 720.666 4.26241 1.09575 0
M  V30 7582 H 717.785 0.735819 0.0417092 0
M  V30 7583 H 720.427 1.80747 -0.585718 0
M  V30 7584 H 718.577 3.77214 0.9296 0
M  V30 7585 H 720.249 4.3183 -1.62235 0
M  V30 7586 H 718.492 4.03594 -1.59041 0
M  V30 7587 H 719.163 5.46257 -0.794192 0
M  V30 7588 H 721.639 4.11934 0.587328 0
M  V30 7589 H 720.515 5.35354 1.21191 0
M  V30 7590 H 720.776 3.87635 2.12584 0
M  V30 7591 N 719.835 0.176821 1.56605 0
M  V30 7592 C 720.765 -0.746841 2.21234 0
M  V30 7593 C 721.746 -1.23502 1.16967 0
M  V30 7594 O 722.931 -1.28718 1.45414 0
M  V30 7595 C 720.061 -1.97407 2.8574 0
M  V30 7596 C 719.015 -1.62153 3.96094 0
M  V30 7597 C 718.341 -2.92387 4.47676 0
M  V30 7598 C 719.641 -0.845353 5.15413 0
M  V30 7599 H 721.335 -0.208116 2.98676 0
M  V30 7600 H 718.881 -0.0986594 1.43662 0
M  V30 7601 H 720.834 -2.62531 3.2963 0
M  V30 7602 H 719.558 -2.53703 2.05676 0
M  V30 7603 H 718.217 -0.993964 3.52868 0
M  V30 7604 H 717.865 -3.46734 3.64396 0
M  V30 7605 H 717.565 -2.69551 5.22127 0
M  V30 7606 H 719.089 -3.5853 4.94255 0
M  V30 7607 H 720.503 -1.39929 5.55961 0
M  V30 7608 H 718.9 -0.715814 5.95815 0
M  V30 7609 H 719.97 0.157239 4.84645 0
M  V30 7610 N 721.313 -1.57302 -0.09688 0
M  V30 7611 C 722.56 -1.85997 -0.800699 0
M  V30 7612 C 722.888 -0.765089 -1.7882 0
M  V30 7613 O 722.143 0.241492 -1.94204 0
M  V30 7614 C 722.442 -3.21272 -1.56586 0
M  V30 7615 C 722.108 -4.45104 -0.72064 0
M  V30 7616 C 720.77 -4.78723 -0.487632 0
M  V30 7617 C 723.122 -5.2103 -0.132948 0
M  V30 7618 C 720.45 -5.85697 0.34296 0
M  V30 7619 C 722.802 -6.28881 0.684957 0
M  V30 7620 C 721.466 -6.61017 0.928073 0
M  V30 7621 H 720.736 -0.680613 -0.292997 0
M  V30 7622 H 723.383 -1.91399 -0.0622474 0
M  V30 7623 H 721.688 -3.11547 -2.37583 0
M  V30 7624 H 723.385 -3.40702 -2.11478 0
M  V30 7625 H 719.975 -4.18777 -0.912359 0
M  V30 7626 H 724.159 -4.95392 -0.300132 0
M  V30 7627 H 719.415 -6.09008 0.540317 0
M  V30 7628 H 723.589 -6.86886 1.14721 0
M  V30 7629 H 721.216 -7.43738 1.57348 0
M  V30 7630 N 722.791 0.367657 -1.53252 0
M  V30 7631 C 723.739 1.47061 -1.8021 0
M  V30 7632 C 724.733 1.55539 -0.671112 0
M  V30 7633 O 725.939 1.58451 -0.854014 0
M  V30 7634 H 722.314 0.489868 -0.570555 0
M  V30 7635 H 724.285 1.21527 -2.72532 0
M  V30 7636 C 723.034 2.83924 -2.00706 0
M  V30 7637 H 722.357 2.78158 -2.87172 0
M  V30 7638 H 723.797 3.60281 -2.23547 0
M  V30 7639 C 722.256 3.27613 -0.785568 0
M  V30 7640 O 722.786 4.01691 0.0267459 0
M  V30 7641 N 720.992 2.84134 -0.609597 0
M  V30 7642 H 720.539 2.24017 -1.27178 0
M  V30 7643 H 720.497 3.13723 0.206281 0
M  V30 7644 N 724.269 1.44576 0.627338 0
M  V30 7645 C 725.546 1.38033 1.38586 0
M  V30 7646 C 725.926 0.0409468 2.1106 0
M  V30 7647 O 725.274 -0.976582 2.0658 0
M  V30 7648 C 725.484 2.58102 2.34913 0
M  V30 7649 C 726.832 3.02332 2.98129 0
M  V30 7650 O 727.856 2.58334 2.45238 0
M  V30 7651 O 726.715 3.78628 3.94085 0
M  V30 7652 H 723.809 0.546801 0.620434 0
M  V30 7653 H 726.355 1.56672 0.652077 0
M  V30 7654 H 725.127 3.4719 1.80485 0
M  V30 7655 H 724.75 2.41696 3.15703 0
M  V30 7656 N 725.747 -0.868086 1.31537 0
M  V30 7657 C 726.995 -1.61807 1.21091 0
M  V30 7658 C 727.316 -1.93631 -0.230623 0
M  V30 7659 O 726.586 -1.5846 -1.15183 0
M  V30 7660 H 725.166 -0.599854 0.445178 0
M  V30 7661 H 727.828 -1.03915 1.64887 0
M  V30 7662 H 726.924 -2.56088 1.78396 0
M  V30 7663 N 727.225 -1.14528 -1.08264 0
M  V30 7664 C 728.453 -0.937964 -1.84418 0
M  V30 7665 C 728.868 0.51357 -1.81681 0
M  V30 7666 O 728.225 1.35591 -1.22153 0
M  V30 7667 C 728.276 -1.43272 -3.31897 0
M  V30 7668 O 727.997 -2.82738 -3.34651 0
M  V30 7669 C 729.498 -1.26555 -4.24851 0
M  V30 7670 H 726.718 -0.333704 -0.582136 0
M  V30 7671 H 729.262 -1.52076 -1.36723 0
M  V30 7672 H 727.417 -0.892653 -3.76975 0
M  V30 7673 H 727.831 -3.04971 -4.26724 0
M  V30 7674 H 729.305 -1.66031 -5.26439 0
M  V30 7675 H 729.782 -0.208589 -4.38704 0
M  V30 7676 H 730.388 -1.79423 -3.856 0
M  V30 7677 N 728.703 1.26451 -0.940633 0
M  V30 7678 C 729.653 2.24086 -0.420669 0
M  V30 7679 C 730.637 1.53501 0.482301 0
M  V30 7680 O 731.829 1.74127 0.317636 0
M  V30 7681 C 728.958 3.41866 0.313452 0
M  V30 7682 C 728.044 4.19737 -0.606779 0
M  V30 7683 N 728.435 4.7521 -1.73232 0
M  V30 7684 C 726.733 4.44091 -0.41226 0
M  V30 7685 C 727.434 5.34052 -2.30572 0
M  V30 7686 N 726.41 5.1971 -1.59381 0
M  V30 7687 H 730.212 2.64569 -1.27986 0
M  V30 7688 H 727.726 1.4153 -0.796436 0
M  V30 7689 H 729.723 4.1093 0.702991 0
M  V30 7690 H 728.383 3.0291 1.16942 0
M  V30 7691 H 729.394 4.72769 -2.11447 0
M  V30 7692 H 726.071 4.1556 0.401984 0
M  V30 7693 H 727.461 5.87845 -3.25404 0
M  V30 7694 N 730.181 0.707592 1.40822 0
M  V30 7695 C 731.114 -0.000859377 2.282 0
M  V30 7696 C 732.092 -0.7758 1.42899 0
M  V30 7697 O 733.276 -0.76411 1.72318 0
M  V30 7698 C 730.403 -1.00861 3.23334 0
M  V30 7699 C 729.449 -0.32543 4.25257 0
M  V30 7700 S 730.282 0.940908 5.27169 0
M  V30 7701 C 731.438 -0.0649459 6.25866 0
M  V30 7702 H 731.671 0.740207 2.87938 0
M  V30 7703 H 729.204 0.498311 1.46138 0
M  V30 7704 H 731.162 -1.58485 3.78672 0
M  V30 7705 H 729.823 -1.72233 2.62668 0
M  V30 7706 H 729.016 -1.08697 4.92139 0
M  V30 7707 H 728.618 0.178044 3.73576 0
M  V30 7708 H 730.91 -0.914377 6.71301 0
M  V30 7709 H 731.853 0.570276 7.058 0
M  V30 7710 H 732.261 -0.425098 5.62897 0
M  V30 7711 N 731.66 -1.50943 0.453197 0
M  V30 7712 C 732.623 -2.26684 -0.338705 0
M  V30 7713 C 733.623 -1.30748 -0.936032 0
M  V30 7714 O 734.813 -1.54327 -0.808002 0
M  V30 7715 C 731.945 -3.07063 -1.48071 0
M  V30 7716 H 733.138 -2.98131 0.325289 0
M  V30 7717 H 730.691 -1.54926 0.206771 0
M  V30 7718 H 731.426 -2.4007 -2.18029 0
M  V30 7719 H 731.211 -3.77545 -1.0584 0
M  V30 7720 H 732.701 -3.64393 -2.0398 0
M  V30 7721 N 733.138 -0.185124 -1.56509 0
M  V30 7722 C 734.068 0.735098 -2.21627 0
M  V30 7723 C 735.049 1.2288 -1.1762 0
M  V30 7724 O 736.234 1.27945 -1.46095 0
M  V30 7725 C 733.364 1.95889 -2.86783 0
M  V30 7726 C 732.318 1.6005 -3.96948 0
M  V30 7727 C 731.644 2.90009 -4.4922 0
M  V30 7728 C 732.944 0.818008 -5.15855 0
M  V30 7729 H 734.638 0.192274 -2.98782 0
M  V30 7730 H 732.184 0.0910393 -1.43712 0
M  V30 7731 H 734.137 2.60779 -3.31017 0
M  V30 7732 H 732.861 2.52608 -2.07018 0
M  V30 7733 H 731.52 0.975237 -3.5339 0
M  V30 7734 H 731.168 3.44797 -3.6623 0
M  V30 7735 H 730.868 2.66778 -5.23549 0
M  V30 7736 H 732.392 3.55904 -4.9615 0
M  V30 7737 H 733.806 1.36979 -5.56695 0
M  V30 7738 H 732.203 0.684207 -5.96187 0
M  V30 7739 H 733.273 -0.182939 -4.84555 0
M  V30 7740 N 734.616 1.57351 0.0885366 0
M  V30 7741 C 735.841 1.91011 0.80805 0
M  V30 7742 C 736.266 0.780009 1.71165 0
M  V30 7743 O 735.624 -0.268083 1.79307 0
M  V30 7744 C 735.672 3.23562 1.59185 0
M  V30 7745 O 734.776 3.11615 2.7013 0
M  V30 7746 H 734.117 0.625943 0.221565 0
M  V30 7747 H 736.647 2.04507 0.0617954 0
M  V30 7748 H 736.657 3.5703 1.97468 0
M  V30 7749 H 735.332 4.05398 0.928741 0
M  V30 7750 H 733.909 2.89673 2.34827 0
M  V30 7751 N 736.094 -0.359525 1.53444 0
M  V30 7752 C 737.057 -1.42357 1.7963 0
M  V30 7753 C 738.057 -1.46319 0.666884 0
M  V30 7754 O 739.247 -1.46974 0.935113 0
M  V30 7755 C 736.379 -2.81425 1.92387 0
M  V30 7756 H 737.572 -1.20409 2.74666 0
M  V30 7757 H 735.125 -0.593007 1.44614 0
M  V30 7758 H 735.86 -3.08679 0.994384 0
M  V30 7759 H 735.645 -2.79947 2.74539 0
M  V30 7760 H 737.135 -3.5847 2.14218 0
M  V30 7761 N 737.572 -1.44907 -0.619662 0
M  V30 7762 C 738.52 -1.52971 -1.75222 0
M  V30 7763 C 739.514 -0.400531 -1.64597 0
M  V30 7764 O 740.72 -0.575952 -1.70537 0
M  V30 7765 H 737.095 -0.480241 -0.578682 0
M  V30 7766 H 739.066 -2.48269 -1.65545 0
M  V30 7767 C 737.815 -1.50204 -3.13583 0
M  V30 7768 H 737.138 -2.36412 -3.22412 0
M  V30 7769 H 738.578 -1.59905 -3.92691 0
M  V30 7770 C 737.037 -0.22455 -3.36151 0
M  V30 7771 O 737.567 0.700574 -3.95544 0
M  V30 7772 N 735.773 -0.124052 -2.90335 0
M  V30 7773 H 735.32 -0.87774 -2.42185 0
M  V30 7774 H 735.278 0.729914 -3.0581 0
M  V30 7775 N 739.05 0.861098 -1.31996 0
M  V30 7776 C 740.466 1.14827 -1.10846 0
M  V30 7777 C 740.666 2.0117 0.11528 0
M  V30 7778 O 739.722 2.39423 0.802048 0
M  V30 7779 C 741.035 1.83183 -2.38462 0
M  V30 7780 C 742.583 1.95847 -2.44158 0
M  V30 7781 C 743.058 2.67617 -3.71679 0
M  V30 7782 N 744.549 2.75147 -3.72624 0
M  V30 7783 C 745.284 3.31314 -4.67994 0
M  V30 7784 N 744.78 3.88343 -5.73726 0
M  V30 7785 N 746.573 3.29356 -4.55501 0
M  V30 7786 H 738.724 0.285951 -2.10466 0
M  V30 7787 H 740.987 0.189303 -0.928907 0
M  V30 7788 H 740.693 1.27193 -3.27895 0
M  V30 7789 H 740.567 2.83393 -2.48935 0
M  V30 7790 H 742.954 2.50999 -1.55189 0
M  V30 7791 H 743.035 0.94653 -2.37644 0
M  V30 7792 H 742.679 2.13131 -4.61018 0
M  V30 7793 H 742.609 3.69237 -3.75462 0
M  V30 7794 H 745.1 2.34682 -2.96197 0
M  V30 7795 H 745.413 4.29338 -6.42564 0
M  V30 7796 H 743.758 3.86693 -5.77489 0
M  V30 7797 H 746.949 2.84047 -3.72069 0
M  V30 7798 H 747.122 3.7283 -5.30001 0
M  V30 7799 N 740.528 1.15101 1.07655 0
M  V30 7800 C 741.475 0.844958 2.14777 0
M  V30 7801 C 742.445 -0.200798 1.64882 0
M  V30 7802 O 743.63 -0.0690278 1.90675 0
M  V30 7803 C 740.77 0.337018 3.4345 0
M  V30 7804 C 739.883 1.44398 4.07153 0
M  V30 7805 C 739.018 0.892487 5.23649 0
M  V30 7806 C 738.057 1.9766 5.79307 0
M  V30 7807 N 737.194 1.44171 6.87138 0
M  V30 7808 H 742.034 1.76242 2.40297 0
M  V30 7809 H 739.571 0.879435 1.17917 0
M  V30 7810 H 741.529 0.024256 4.17193 0
M  V30 7811 H 740.159 -0.543531 3.18191 0
M  V30 7812 H 739.211 1.87299 3.31094 0
M  V30 7813 H 740.523 2.26262 4.4453 0
M  V30 7814 H 739.677 0.532083 6.04362 0
M  V30 7815 H 738.416 0.0429854 4.87681 0
M  V30 7816 H 737.421 2.34586 4.97242 0
M  V30 7817 H 738.646 2.82982 6.17331 0
M  V30 7818 H 736.592 0.614518 6.53115 0
M  V30 7819 H 736.509 2.19665 7.23383 0
M  V30 7820 H 737.777 1.10945 7.71564 0
M  V30 7821 N 742.006 -1.2595 0.947325 0
M  V30 7822 C 743.234 -1.97544 0.615127 0
M  V30 7823 C 743.649 -1.70484 -0.811221 0
M  V30 7824 O 743.006 -0.97662 -1.5417 0
M  V30 7825 C 743.057 -3.51236 0.855328 0
M  V30 7826 O 742.778 -3.77359 2.22558 0
M  V30 7827 C 744.279 -4.40066 0.534515 0
M  V30 7828 H 741.499 -0.629888 0.231263 0
M  V30 7829 H 744.043 -1.60308 1.26971 0
M  V30 7830 H 742.198 -3.8661 0.247266 0
M  V30 7831 H 742.612 -4.71857 2.29022 0
M  V30 7832 H 744.086 -5.46838 0.753168 0
M  V30 7833 H 744.563 -4.35982 -0.530701 0
M  V30 7834 H 745.169 -4.10245 1.12158 0
M  V30 7835 N 743.484 -0.715051 -1.40445 0
M  V30 7836 C 744.73 -0.254705 -2.01194 0
M  V30 7837 C 745.063 1.14894 -1.56567 0
M  V30 7838 O 744.338 1.77933 -0.785491 0
M  V30 7839 C 744.621 -0.334148 -3.58546 0
M  V30 7840 C 744.474 -1.77613 -4.13248 0
M  V30 7841 C 745.793 0.294968 -4.3911 0
M  V30 7842 H 742.912 -0.094025 -0.730978 0
M  V30 7843 H 745.554 -0.907449 -1.66929 0
M  V30 7844 H 743.704 0.221609 -3.87867 0
M  V30 7845 H 745.376 -2.38723 -3.94727 0
M  V30 7846 H 743.619 -2.30402 -3.67556 0
M  V30 7847 H 744.29 -1.78311 -5.22407 0
M  V30 7848 H 746.766 -0.178563 -4.15717 0
M  V30 7849 H 745.642 0.208934 -5.48502 0
M  V30 7850 H 745.903 1.37841 -4.20062 0
M  V30 7851 N 744.962 1.50701 -0.461195 0
M  V30 7852 C 745.912 2.25195 0.35653 0
M  V30 7853 C 746.896 1.2838 0.96992 0
M  V30 7854 O 748.088 1.53338 0.884108 0
M  V30 7855 C 745.217 3.11471 1.44364 0
M  V30 7856 C 744.303 4.15729 0.83847 0
M  V30 7857 N 744.694 5.05788 -0.0353198 0
M  V30 7858 C 742.992 4.32133 1.1035 0
M  V30 7859 C 743.693 5.80472 -0.37774 0
M  V30 7860 N 742.669 5.43049 0.24463 0
M  V30 7861 H 746.471 2.92188 -0.316746 0
M  V30 7862 H 743.985 1.60059 -0.274725 0
M  V30 7863 H 745.982 3.63436 2.04255 0
M  V30 7864 H 744.642 2.46025 2.11901 0
M  V30 7865 H 745.653 5.16326 -0.403465 0
M  V30 7866 H 742.33 3.77908 1.77458 0
M  V30 7867 H 743.72 6.62996 -1.09024 0
M  V30 7868 N 746.441 0.193421 1.56409 0
M  V30 7869 C 747.671 -0.450783 2.01622 0
M  V30 7870 C 748.079 -1.5585 1.07273 0
M  V30 7871 O 747.422 -1.83569 0.0694875 0
M  V30 7872 C 747.484 -1.06913 3.43235 0
M  V30 7873 C 747.148 -0.100352 4.5689 0
M  V30 7874 C 748.145 0.689633 5.15306 0
M  V30 7875 C 745.83 0.0102436 5.02299 0
M  V30 7876 C 747.824 1.5772 6.17579 0
M  V30 7877 C 745.511 0.901368 6.04416 0
M  V30 7878 C 746.509 1.68341 6.61929 0
M  V30 7879 O 746.197 2.5596 7.62063 0
M  V30 7880 H 745.929 -0.117671 0.66568 0
M  V30 7881 H 748.483 0.2989 2.03214 0
M  V30 7882 H 746.713 -1.86736 3.38624 0
M  V30 7883 H 748.402 -1.61781 3.72266 0
M  V30 7884 H 749.168 0.614485 4.81092 0
M  V30 7885 H 745.047 -0.58829 4.57231 0
M  V30 7886 H 748.591 2.18805 6.62397 0
M  V30 7887 H 744.488 0.977637 6.38054 0
M  V30 7888 H 745.256 2.49721 7.79475 0
M  V30 7889 N 747.919 -1.57396 -0.0801906 0
M  V30 7890 C 748.867 -2.04136 -1.11495 0
M  V30 7891 C 749.861 -0.945137 -1.40583 0
M  V30 7892 O 751.067 -1.13028 -1.40088 0
M  V30 7893 H 747.442 -0.65076 -0.37685 0
M  V30 7894 H 749.413 -2.90205 -0.694526 0
M  V30 7895 C 748.162 -2.49399 -2.42272 0
M  V30 7896 H 747.485 -3.33339 -2.20737 0
M  V30 7897 H 748.925 -2.85864 -3.13142 0
M  V30 7898 C 747.384 -1.37341 -3.07635 0
M  V30 7899 O 747.914 -0.710829 -3.95361 0
M  V30 7900 N 746.12 -1.12064 -2.68123 0
M  V30 7901 H 745.667 -1.66126 -1.96875 0
M  V30 7902 H 745.625 -0.372916 -3.12181 0
M  V30 7903 N 749.397 0.351382 -1.53633 0
M  V30 7904 C 750.808 0.927429 -1.62036 0
M  V30 7905 C 751.159 1.89809 -0.496706 0
M  V30 7906 O 750.284 2.1313 0.374749 0
M  V30 7907 C 750.879 1.68886 -2.93706 0
M  V30 7908 C 749.438 2.21404 -3.04397 0
M  V30 7909 C 748.585 1.03075 -2.57431 0
M  V30 7910 H 751.536 0.129748 -1.58169 0
M  V30 7911 H 751.557 2.55116 -2.82305 0
M  V30 7912 H 751.069 0.982149 -3.75467 0
M  V30 7913 H 749.17 2.95274 -2.27253 0
M  V30 7914 H 749.283 2.48312 -4.09729 0
M  V30 7915 H 747.647 1.40188 -2.12649 0
M  V30 7916 H 748.43 0.338793 -3.41624 0
M  V30 7917 N 750.875 1.45233 0.611969 0
M  V30 7918 C 752.103 1.52539 1.39784 0
M  V30 7919 C 752.518 0.156533 1.8815 0
M  V30 7920 O 751.875 -0.84112 1.61961 0
M  V30 7921 C 751.926 2.50614 2.60528 0
M  V30 7922 O 751.647 3.8218 2.14173 0
M  V30 7923 C 753.148 2.67574 3.53439 0
M  V30 7924 H 750.368 0.51674 0.428043 0
M  V30 7925 H 752.912 1.90379 0.746727 0
M  V30 7926 H 751.067 2.15858 3.2169 0
M  V30 7927 H 751.481 4.35305 2.92592 0
M  V30 7928 H 752.955 3.40184 4.34717 0
M  V30 7929 H 753.432 1.73458 4.03496 0
M  V30 7930 H 754.038 3.0331 2.98133 0
M  V30 7931 N 752.353 -0.854086 1.3245 0
M  V30 7932 C 753.578 -1.64597 1.26185 0
M  V30 7933 C 754.003 -1.87357 -0.167074 0
M  V30 7934 O 753.361 -1.42675 -1.11864 0
M  V30 7935 C 753.409 -2.98213 2.02734 0
M  V30 7936 O 752.513 -3.88784 1.37554 0
M  V30 7937 H 751.854 -0.50179 0.434859 0
M  V30 7938 H 754.384 -1.06372 1.74775 0
M  V30 7939 H 754.394 -3.4803 2.1293 0
M  V30 7940 H 753.069 -2.80969 3.06642 0
M  V30 7941 H 751.646 -3.4725 1.3591 0
M  V30 7942 N 753.831 -1.1567 -1.07043 0
M  V30 7943 C 755.059 -0.957471 -1.83412 0
M  V30 7944 C 755.474 0.494271 -1.82215 0
M  V30 7945 O 754.831 1.34288 -1.23584 0
M  V30 7946 C 754.882 -1.46784 -3.30359 0
M  V30 7947 O 754.603 -2.86271 -3.31633 0
M  V30 7948 C 756.104 -1.31054 -4.23485 0
M  V30 7949 H 753.324 -0.33986 -0.578564 0
M  V30 7950 H 755.868 -1.53518 -1.35102 0
M  V30 7951 H 754.023 -0.932586 -3.76007 0
M  V30 7952 H 754.437 -3.0948 -4.23465 0
M  V30 7953 H 755.911 -1.71605 -5.24648 0
M  V30 7954 H 756.388 -0.255107 -4.38458 0
M  V30 7955 H 756.994 -1.83503 -3.83676 0
M  V30 7956 N 755.309 1.25446 -0.953992 0
M  V30 7957 C 756.256 2.25912 -0.472485 0
M  V30 7958 C 757.226 1.59173 0.47469 0
M  V30 7959 O 758.411 1.86812 0.388082 0
M  V30 7960 C 755.551 3.44235 0.244218 0
M  V30 7961 C 754.664 4.25613 -0.740121 0
M  V30 7962 C 753.799 5.312 -0.000922267 0
M  V30 7963 C 752.838 6.04265 -0.976236 0
M  V30 7964 N 751.975 7.01589 -0.267952 0
M  V30 7965 H 756.815 2.66469 -1.3341 0
M  V30 7966 H 754.352 1.31005 -0.669045 0
M  V30 7967 H 756.31 4.11682 0.676314 0
M  V30 7968 H 754.94 3.04554 1.06988 0
M  V30 7969 H 753.992 3.57834 -1.2907 0
M  V30 7970 H 755.304 4.762 -1.48441 0
M  V30 7971 H 754.458 6.04719 0.48984 0
M  V30 7972 H 753.197 4.81484 0.776159 0
M  V30 7973 H 752.202 5.29561 -1.478 0
M  V30 7974 H 753.427 6.5607 -1.75354 0
M  V30 7975 H 751.373 6.54164 0.490403 0
M  V30 7976 H 751.29 7.4999 -0.951344 0
M  V30 7977 H 752.558 7.7924 0.201294 0
M  V30 7978 N 756.787 0.722489 1.40064 0
M  V30 7979 C 757.737 0.0506801 2.27944 0
M  V30 7980 C 758.721 -0.725493 1.43615 0
M  V30 7981 O 759.913 -0.596559 1.66644 0
M  V30 7982 C 757.042 -0.865195 3.32219 0
M  V30 7983 C 756.128 -0.0838393 4.24017 0
M  V30 7984 N 756.519 0.936516 4.97054 0
M  V30 7985 C 754.817 -0.315371 4.44884 0
M  V30 7986 C 755.518 1.4066 5.64437 0
M  V30 7987 N 754.494 0.727485 5.3871 0
M  V30 7988 H 758.296 0.832609 2.8186 0
M  V30 7989 H 755.81 0.555691 1.52597 0
M  V30 7990 H 757.807 -1.36186 3.94029 0
M  V30 7991 H 756.467 -1.64642 2.79862 0
M  V30 7992 H 757.478 1.31755 5.0086 0
M  V30 7993 H 754.155 -1.07238 4.03492 0
M  V30 7994 H 755.545 2.25482 6.32936 0
M  V30 7995 N 758.265 -1.50454 0.469181 0
M  V30 7996 C 759.512 -2.02315 -0.086469 0
M  V30 7997 C 759.84 -1.3513 -1.39893 0
M  V30 7998 O 759.095 -0.465341 -1.90087 0
M  V30 7999 C 759.394 -3.55963 -0.320207 0
M  V30 8000 C 759.06 -4.41615 0.910318 0
M  V30 8001 C 757.722 -4.64743 1.2477 0
M  V30 8002 C 760.074 -4.91661 1.72971 0
M  V30 8003 C 757.402 -5.35161 2.40457 0
M  V30 8004 C 759.754 -5.6335 2.87785 0
M  V30 8005 C 758.418 -5.84732 3.2194 0
M  V30 8006 H 757.688 -0.740324 -0.0316412 0
M  V30 8007 H 760.335 -1.81087 0.622872 0
M  V30 8008 H 758.64 -3.75695 -1.11177 0
M  V30 8009 H 760.337 -3.93653 -0.764071 0
M  V30 8010 H 756.927 -4.23833 0.637467 0
M  V30 8011 H 761.111 -4.73649 1.48224 0
M  V30 8012 H 756.367 -5.49924 2.67196 0
M  V30 8013 H 760.541 -6.0111 3.51624 0
M  V30 8014 H 758.168 -6.39074 4.1169 0
M  V30 8015 N 759.743 -0.201713 -1.56304 0
M  V30 8016 C 760.968 0.443815 -2.02596 0
M  V30 8017 C 761.393 1.53945 -1.08086 0
M  V30 8018 O 760.751 1.81182 -0.0655056 0
M  V30 8019 C 760.799 0.971066 -3.47279 0
M  V30 8020 O 759.903 2.0836 -3.55893 0
M  V30 8021 H 759.244 0.10294 -0.655972 0
M  V30 8022 H 761.774 -0.314533 -2.02168 0
M  V30 8023 H 761.784 1.28598 -3.87204 0
M  V30 8024 H 760.459 0.169048 -4.15556 0
M  V30 8025 H 759.036 1.77683 -3.27846 0
M  V30 8026 N 761.222 1.57436 0.0718424 0
M  V30 8027 C 762.469 1.87248 0.771007 0
M  V30 8028 C 762.797 0.793441 1.7758 0
M  V30 8029 O 762.052 -0.210565 1.94564 0
M  V30 8030 C 762.351 3.23723 1.51455 0
M  V30 8031 C 762.017 4.46194 0.649736 0
M  V30 8032 C 760.679 4.79438 0.411409 0
M  V30 8033 C 763.031 5.21176 0.05004 0
M  V30 8034 C 760.359 5.85077 -0.436096 0
M  V30 8035 C 762.711 6.27712 -0.784919 0
M  V30 8036 C 761.375 6.59457 -1.03312 0
M  V30 8037 H 760.645 0.685188 0.282132 0
M  V30 8038 H 763.292 1.91474 0.0317896 0
M  V30 8039 H 761.597 3.15287 2.32597 0
M  V30 8040 H 763.294 3.44023 2.06031 0
M  V30 8041 H 759.884 4.20175 0.84562 0
M  V30 8042 H 764.068 4.95806 0.221282 0
M  V30 8043 H 759.324 6.08071 -0.637136 0
M  V30 8044 H 763.498 6.84974 -1.25635 0
M  V30 8045 H 761.125 7.4114 -1.6916 0
M  V30 8046 N 762.7 -0.34323 1.53817 0
M  V30 8047 C 763.925 -1.1079 1.75329 0
M  V30 8048 C 764.35 -1.81571 0.491293 0
M  V30 8049 O 763.708 -1.72561 -0.556089 0
M  V30 8050 C 763.756 -2.09681 2.9337 0
M  V30 8051 O 762.86 -3.17207 2.63541 0
M  V30 8052 H 762.201 -0.320402 0.581583 0
M  V30 8053 H 764.731 -0.393525 2.0078 0
M  V30 8054 H 764.741 -2.52897 3.20168 0
M  V30 8055 H 763.416 -1.5756 3.84899 0
M  V30 8056 H 761.993 -2.78806 2.47632 0
M  V30 8057 N 764.178 -1.45556 -0.604258 0
M  V30 8058 C 765.424 -1.49968 -1.36519 0
M  V30 8059 C 765.757 -0.142236 -1.93678 0
M  V30 8060 O 765.032 0.843717 -1.75247 0
M  V30 8061 C 765.315 -2.58146 -2.51063 0
M  V30 8062 C 765.168 -4.03346 -1.99078 0
M  V30 8063 C 766.487 -2.62581 -3.53184 0
M  V30 8064 H 763.606 -0.545993 -0.495036 0
M  V30 8065 H 766.248 -1.77382 -0.680845 0
M  V30 8066 H 764.398 -2.34901 -3.09441 0
M  V30 8067 H 766.07 -4.37811 -1.45323 0
M  V30 8068 H 764.313 -4.13845 -1.30055 0
M  V30 8069 H 764.984 -4.74731 -2.81664 0
M  V30 8070 H 767.46 -2.83419 -3.04652 0
M  V30 8071 H 766.336 -3.40131 -4.30816 0
M  V30 8072 H 766.597 -1.67798 -4.09019 0
M  V30 8073 N 765.656 0.84705 -1.32902 0
M  V30 8074 C 766.904 1.5986 -1.2365 0
M  V30 8075 C 767.225 1.93974 0.199789 0
M  V30 8076 O 766.495 1.60273 1.12648 0
M  V30 8077 H 765.075 0.592696 -0.454665 0
M  V30 8078 H 767.737 1.01278 -1.66519 0
M  V30 8079 H 766.833 2.53218 -1.82448 0
M  V30 8080 N 767.134 1.16236 1.06428 0
M  V30 8081 C 768.097 0.870163 2.1204 0
M  V30 8082 C 769.097 -0.134239 1.60239 0
M  V30 8083 O 770.287 0.0964932 1.73933 0
M  V30 8084 C 767.419 0.301033 3.39568 0
M  V30 8085 H 768.612 1.8064 2.39394 0
M  V30 8086 H 766.165 0.971116 1.2247 0
M  V30 8087 H 766.9 -0.642948 3.17863 0
M  V30 8088 H 766.685 1.02475 3.78472 0
M  V30 8089 H 768.175 0.114494 4.17443 0
M  V30 8090 N 768.612 -1.24939 0.960631 0
M  V30 8091 C 769.858 -1.93104 0.61958 0
M  V30 8092 C 770.191 -1.74991 -0.84212 0
M  V30 8093 O 769.466 -1.09867 -1.60498 0
M  V30 8094 C 769.749 -3.46326 0.986422 0
M  V30 8095 C 769.602 -3.73638 2.50429 0
M  V30 8096 C 770.921 -4.37067 0.515827 0
M  V30 8097 H 768.04 -0.701311 0.226566 0
M  V30 8098 H 770.682 -1.47442 1.19836 0
M  V30 8099 H 768.832 -3.85348 0.493907 0
M  V30 8100 H 770.504 -3.44217 3.07103 0
M  V30 8101 H 768.747 -3.19035 2.93937 0
M  V30 8102 H 769.418 -4.80815 2.71147 0
M  V30 8103 H 771.894 -4.05381 0.938389 0
M  V30 8104 H 770.77 -5.43022 0.80114 0
M  V30 8105 H 771.031 -4.38224 -0.584171 0
M  V30 8106 N 770.09 -0.729906 -1.39679 0
M  V30 8107 C 771.501 -0.346241 -1.83461 0
M  V30 8108 C 771.852 1.1215 -1.60987 0
M  V30 8109 O 770.977 1.86456 -1.09832 0
M  V30 8110 C 771.572 -0.621656 -3.33048 0
M  V30 8111 C 770.131 -0.291543 -3.75269 0
M  V30 8112 C 769.278 -0.886844 -2.62736 0
M  V30 8113 H 772.229 -0.927949 -1.28743 0
M  V30 8114 H 772.25 0.108301 -3.80346 0
M  V30 8115 H 771.762 -1.68996 -3.49373 0
M  V30 8116 H 769.863 0.771133 -3.64533 0
M  V30 8117 H 769.976 -0.770544 -4.72863 0
M  V30 8118 H 768.34 -0.313839 -2.52759 0
M  V30 8119 H 769.123 -1.95971 -2.81869 0
M  V30 8120 N 771.568 1.50203 -0.477153 0
M  V30 8121 C 772.984 1.59056 -0.131663 0
M  V30 8122 C 773.184 1.48473 1.36227 0
M  V30 8123 O 772.24 1.34635 2.13611 0
M  V30 8124 C 773.553 2.92741 -0.687254 0
M  V30 8125 C 775.101 3.0615 -0.651223 0
M  V30 8126 C 775.576 4.42419 -1.18446 0
M  V30 8127 N 777.067 4.48847 -1.14413 0
M  V30 8128 C 777.802 5.52689 -1.52717 0
M  V30 8129 N 777.298 6.63754 -1.98499 0
M  V30 8130 N 779.091 5.43267 -1.44282 0
M  V30 8131 H 771.242 1.55325 -1.44872 0
M  V30 8132 H 773.505 0.734395 -0.599473 0
M  V30 8133 H 773.211 3.0598 -1.73405 0
M  V30 8134 H 773.085 3.76961 -0.134215 0
M  V30 8135 H 775.472 2.92556 0.386677 0
M  V30 8136 H 775.553 2.23673 -1.24114 0
M  V30 8137 H 775.197 4.56763 -2.22103 0
M  V30 8138 H 775.127 5.23498 -0.570709 0
M  V30 8139 H 777.618 3.69152 -0.808416 0
M  V30 8140 H 777.931 7.39059 -2.25859 0
M  V30 8141 H 776.276 6.64858 -2.02456 0
M  V30 8142 H 779.467 4.55387 -1.08352 0
M  V30 8143 H 779.64 6.24074 -1.74459 0
M  V30 8144 N 773.046 0.209999 1.56195 0
M  V30 8145 C 774.009 -0.691232 2.18528 0
M  V30 8146 C 775.009 -1.13013 1.14388 0
M  V30 8147 O 776.199 -1.04081 1.39688 0
M  V30 8148 C 773.331 -1.94551 2.79934 0
M  V30 8149 H 774.524 -0.147953 2.99535 0
M  V30 8150 H 772.077 -0.0396243 1.5625 0
M  V30 8151 H 772.812 -2.53094 2.02766 0
M  V30 8152 H 772.597 -1.63938 3.56184 0
M  V30 8153 H 774.087 -2.58785 3.2775 0
M  V30 8154 N 774.524 -1.57472 -0.0634922 0
M  V30 8155 C 775.454 -2.07297 -1.07473 0
M  V30 8156 C 776.435 -0.968162 -1.39859 0
M  V30 8157 O 777.62 -1.24139 -1.49343 0
M  V30 8158 C 774.75 -2.52381 -2.38581 0
M  V30 8159 C 773.704 -3.66813 -2.20526 0
M  V30 8160 C 773.03 -3.97982 -3.57092 0
M  V30 8161 C 774.33 -4.96553 -1.61965 0
M  V30 8162 H 776.024 -2.92033 -0.660092 0
M  V30 8163 H 773.57 -1.40488 -0.316074 0
M  V30 8164 H 775.523 -2.85852 -3.09624 0
M  V30 8165 H 774.247 -1.64684 -2.8204 0
M  V30 8166 H 772.906 -3.33639 -1.51924 0
M  V30 8167 H 772.554 -3.07403 -3.98136 0
M  V30 8168 H 772.254 -4.7504 -3.45848 0
M  V30 8169 H 773.778 -4.33956 -4.29552 0
M  V30 8170 H 775.192 -5.28201 -2.22883 0
M  V30 8171 H 773.589 -5.7799 -1.61394 0
M  V30 8172 H 774.659 -4.81396 -0.581918 0
M  V30 8173 N 776.003 0.335068 -1.53997 0
M  V30 8174 C 776.935 1.4327 -1.78903 0
M  V30 8175 C 777.948 1.48347 -0.670598 0
M  V30 8176 O 779.137 1.51277 -0.947494 0
M  V30 8177 C 776.237 2.81878 -1.88144 0
M  V30 8178 C 775.41 3.00141 -3.18174 0
M  V30 8179 C 774.469 4.19041 -3.18263 0
M  V30 8180 O 773.495 4.12751 -3.9195 0
M  V30 8181 N 774.697 5.28004 -2.41231 0
M  V30 8182 H 777.462 1.22272 -2.73623 0
M  V30 8183 H 775.023 0.524996 -1.53152 0
M  V30 8184 H 777.015 3.59609 -1.85644 0
M  V30 8185 H 775.585 2.9598 -1.00572 0
M  V30 8186 H 774.805 2.09808 -3.33728 0
M  V30 8187 H 776.093 3.0923 -4.04047 0
M  V30 8188 H 775.491 5.35986 -1.8093 0
M  V30 8189 H 774.048 6.04196 -2.44521 0
M  V30 8190 N 777.481 1.45874 0.596531 0
M  V30 8191 C 778.892 1.44798 1.17857 0
M  V30 8192 C 779.243 0.181443 1.95359 0
M  V30 8193 O 778.368 -0.716336 2.042 0
M  V30 8194 C 778.963 2.62333 2.14398 0
M  V30 8195 C 777.522 2.64342 2.67955 0
M  V30 8196 C 776.669 2.37244 1.43564 0
M  V30 8197 H 779.62 1.53954 0.385222 0
M  V30 8198 H 779.641 2.37063 2.97626 0
M  V30 8199 H 779.153 3.54499 1.57963 0
M  V30 8200 H 777.254 1.76213 3.28298 0
M  V30 8201 H 777.367 3.63897 3.11634 0
M  V30 8202 H 775.731 1.87022 1.72901 0
M  V30 8203 H 776.514 3.31568 0.889805 0
M  V30 8204 N 778.959 -0.83999 1.33349 0
M  V30 8205 C 779.891 -1.95678 1.19344 0
M  V30 8206 C 780.904 -1.62322 0.124692 0
M  V30 8207 O 782.093 -1.74516 0.375012 0
M  V30 8208 C 779.193 -3.29133 0.807771 0
M  V30 8209 C 778.366 -3.9063 1.96792 0
M  V30 8210 C 777.425 -5.02438 1.56341 0
M  V30 8211 O 776.451 -5.21646 2.27759 0
M  V30 8212 N 777.653 -5.78612 0.467767 0
M  V30 8213 H 780.418 -2.08229 2.15548 0
M  V30 8214 H 777.979 -1.01566 1.26079 0
M  V30 8215 H 779.971 -4.01355 0.519282 0
M  V30 8216 H 778.541 -3.12535 -0.063555 0
M  V30 8217 H 777.761 -3.11011 2.4221 0
M  V30 8218 H 779.049 -4.2845 2.74422 0
M  V30 8219 H 778.447 -5.65559 -0.126324 0
M  V30 8220 H 777.004 -6.51362 0.238945 0
M  V30 8221 N 780.437 -1.16799 -1.0581 0
M  V30 8222 C 781.367 -0.902241 -2.15364 0
M  V30 8223 C 782.348 0.153351 -1.69407 0
M  V30 8224 O 783.533 0.00442032 -1.94199 0
M  V30 8225 C 780.663 -0.407911 -3.44896 0
M  V30 8226 C 779.617 -1.40197 -4.04387 0
M  V30 8227 C 778.943 -0.765848 -5.29187 0
M  V30 8228 C 780.243 -2.77316 -4.42598 0
M  V30 8229 H 781.937 -1.81841 -2.37853 0
M  V30 8230 H 779.483 -0.875731 -1.14311 0
M  V30 8231 H 781.436 -0.20945 -4.20879 0
M  V30 8232 H 780.16 0.54378 -3.22041 0
M  V30 8233 H 778.819 -1.58707 -3.30466 0
M  V30 8234 H 778.467 0.192482 -5.02632 0
M  V30 8235 H 778.167 -1.42939 -5.69949 0
M  V30 8236 H 779.691 -0.577519 -6.07863 0
M  V30 8237 H 781.105 -2.62561 -5.09642 0
M  V30 8238 H 779.502 -3.4019 -4.94359 0
M  V30 8239 H 780.572 -3.32199 -3.53231 0
M  V30 8240 N 781.915 1.24427 -0.967243 0
M  V30 8241 C 783.163 1.92107 -0.627638 0
M  V30 8242 C 783.484 1.75991 0.83978 0
M  V30 8243 O 782.754 1.13118 1.59941 0
M  V30 8244 H 781.334 0.710986 -0.229145 0
M  V30 8245 H 783.996 1.51331 -1.22821 0
M  V30 8246 H 783.092 2.99791 -0.867844 0
M  V30 8247 N 783.393 0.737304 1.3929 0
M  V30 8248 C 784.642 0.283129 1.99703 0
M  V30 8249 C 784.955 -1.13677 1.59176 0
M  V30 8250 O 786.161 -1.69058 2.12442 0
M  V30 8251 C 784.617 0.455262 3.57009 0
M  V30 8252 C 784.225 1.88319 4.06497 0
M  V30 8253 C 785.969 0.0629786 4.24453 0
M  V30 8254 C 783.876 2.00475 5.56385 0
M  V30 8255 H 782.806 0.102106 0.747054 0
M  V30 8256 H 785.457 0.911515 1.5926 0
M  V30 8257 H 783.839 -0.242057 3.9526 0
M  V30 8258 H 785.013 2.61265 3.79575 0
M  V30 8259 H 783.328 2.2289 3.51723 0
M  V30 8260 H 785.925 0.132787 5.34535 0
M  V30 8261 H 786.268 -0.982128 4.04549 0
M  V30 8262 H 786.801 0.71154 3.91385 0
M  V30 8263 H 783.54 3.03182 5.81172 0
M  V30 8264 H 783.06 1.31969 5.85102 0
M  V30 8265 H 784.739 1.787 6.21832 0
M  V30 8266 N 784.871 -1.49948 0.485112 0
M  V30 8267 C 785.801 -2.31675 -0.291364 0
M  V30 8268 C 786.782 -1.39216 -0.977383 0
M  V30 8269 O 787.967 -1.68133 -0.971855 0
M  V30 8270 C 785.097 -3.19326 -1.36558 0
M  V30 8271 C 784.051 -4.2045 -0.800359 0
M  V30 8272 C 783.377 -4.96931 -1.97391 0
M  V30 8273 C 784.677 -5.21925 0.197867 0
M  V30 8274 H 786.371 -2.96839 0.390775 0
M  V30 8275 H 783.917 -1.42749 0.189375 0
M  V30 8276 H 785.87 -3.75304 -1.91638 0
M  V30 8277 H 784.594 -2.52074 -2.07668 0
M  V30 8278 H 783.253 -3.65594 -0.271428 0
M  V30 8279 H 782.901 -4.26141 -2.67232 0
M  V30 8280 H 782.601 -5.65344 -1.60187 0
M  V30 8281 H 784.125 -5.55749 -2.52935 0
M  V30 8282 H 785.539 -5.72691 -0.264239 0
M  V30 8283 H 783.936 -5.98138 0.484908 0
M  V30 8284 H 785.006 -4.71809 1.11912 0
M  V30 8285 N 786.349 -0.21828 -1.56081 0
M  V30 8286 C 787.765 0.137168 -1.59009 0
M  V30 8287 C 787.965 1.59215 -1.23503 0
M  V30 8288 O 787.021 2.33178 -0.968716 0
M  V30 8289 C 788.334 -0.186162 -3.00123 0
M  V30 8290 C 789.882 -0.128135 -3.12738 0
M  V30 8291 C 790.357 -0.425094 -4.56023 0
M  V30 8292 N 791.848 -0.374547 -4.61683 0
M  V30 8293 C 792.583 -0.57786 -5.70481 0
M  V30 8294 N 792.079 -0.842771 -6.87655 0
M  V30 8295 N 793.872 -0.510521 -5.59777 0
M  V30 8296 H 786.023 -1.16746 -1.77437 0
M  V30 8297 H 788.286 -0.467706 -0.824594 0
M  V30 8298 H 787.992 -1.19589 -3.30744 0
M  V30 8299 H 787.866 0.500388 -3.73866 0
M  V30 8300 H 790.253 0.872224 -2.81915 0
M  V30 8301 H 790.334 -0.848112 -2.41331 0
M  V30 8302 H 789.978 -1.42288 -4.87562 0
M  V30 8303 H 789.908 0.316038 -5.25651 0
M  V30 8304 H 792.399 -0.177356 -3.77484 0
M  V30 8305 H 792.712 -0.986095 -7.66483 0
M  V30 8306 H 791.057 -0.879929 -6.89407 0
M  V30 8307 H 794.248 -0.303813 -4.67113 0
M  V30 8308 H 794.421 -0.672378 -6.44502 0
M  V30 8309 N 787.827 1.57504 0.0551401 0
M  V30 8310 C 789.057 1.92015 0.762472 0
M  V30 8311 C 789.465 0.814088 1.7079 0
M  V30 8312 O 788.808 -0.220273 1.82375 0
M  V30 8313 C 788.87 3.22132 1.59598 0
M  V30 8314 C 788.534 4.49617 0.818141 0
M  V30 8315 C 789.531 5.19738 0.129933 0
M  V30 8316 C 787.216 4.96201 0.780387 0
M  V30 8317 C 789.21 6.34704 -0.585616 0
M  V30 8318 C 786.897 6.11069 0.0610756 0
M  V30 8319 C 787.895 6.80174 -0.62071 0
M  V30 8320 O 787.583 7.92849 -1.3284 0
M  V30 8321 H 787.315 0.638866 0.220967 0
M  V30 8322 H 789.869 2.05385 0.0246362 0
M  V30 8323 H 788.099 3.05016 2.37701 0
M  V30 8324 H 789.788 3.42166 2.18351 0
M  V30 8325 H 790.554 4.84767 0.150299 0
M  V30 8326 H 786.433 4.42275 1.30054 0
M  V30 8327 H 789.977 6.88578 -1.11833 0
M  V30 8328 H 785.874 6.45488 0.0386945 0
M  V30 8329 H 786.642 8.09062 -1.23938 0
M  V30 8330 N 789.305 -0.326896 1.54172 0
M  V30 8331 C 790.552 -1.06523 1.72218 0
M  V30 8332 C 790.88 -1.88119 0.494114 0
M  V30 8333 O 790.135 -1.8855 -0.524147 0
M  V30 8334 C 790.434 -2.0208 2.94785 0
M  V30 8335 C 790.1 -1.36665 4.2969 0
M  V30 8336 C 788.762 -1.18556 4.66367 0
M  V30 8337 C 791.114 -0.896868 5.13425 0
M  V30 8338 C 788.442 -0.521113 5.84381 0
M  V30 8339 C 790.794 -0.246261 6.3212 0
M  V30 8340 C 789.458 -0.052987 6.67479 0
M  V30 8341 H 788.728 -0.389796 0.63019 0
M  V30 8342 H 791.375 -0.342725 1.88408 0
M  V30 8343 H 789.68 -2.8077 2.73268 0
M  V30 8344 H 791.377 -2.59231 3.05941 0
M  V30 8345 H 787.967 -1.51762 4.00832 0
M  V30 8346 H 792.151 -1.02458 4.85609 0
M  V30 8347 H 787.407 -0.36014 6.10338 0
M  V30 8348 H 791.581 0.125775 6.96286 0
M  V30 8349 H 789.208 0.463903 7.58783 0
M  V30 8350 N 790.784 -1.46188 -0.588786 0
M  V30 8351 C 791.747 -1.55882 -1.68029 0
M  V30 8352 C 792.747 -0.436515 -1.54762 0
M  V30 8353 O 793.937 -0.700626 -1.59489 0
M  V30 8354 C 791.069 -1.47332 -3.07418 0
M  V30 8355 H 792.262 -2.5315 -1.60795 0
M  V30 8356 H 789.815 -1.33908 -0.806116 0
M  V30 8357 H 790.55 -0.513193 -3.20214 0
M  V30 8358 H 790.335 -2.28753 -3.18456 0
M  V30 8359 H 791.825 -1.57187 -3.86887 0
M  V30 8360 N 792.262 0.832906 -1.33792 0
M  V30 8361 C 793.487 1.62568 -1.28788 0
M  V30 8362 C 793.912 1.87599 0.137246 0
M  V30 8363 O 793.27 1.44436 1.0958 0
M  V30 8364 C 793.318 2.9495 -2.07453 0
M  V30 8365 O 792.422 3.86546 -1.43722 0
M  V30 8366 H 791.763 0.494809 -0.442787 0
M  V30 8367 H 794.293 1.03578 -1.76445 0
M  V30 8368 H 794.303 3.44599 -2.1844 0
M  V30 8369 H 792.978 2.76055 -3.11073 0
M  V30 8370 H 791.555 3.45044 -1.41417 0
M  V30 8371 N 793.74 1.17359 1.05189 0
M  V30 8372 C 794.97 0.985099 1.81602 0
M  V30 8373 C 795.378 -0.469872 1.83273 0
M  V30 8374 O 794.721 -1.33806 1.25864 0
M  V30 8375 C 794.783 1.44956 3.2898 0
M  V30 8376 C 794.447 2.92666 3.50993 0
M  V30 8377 C 795.444 3.906 3.43115 0
M  V30 8378 C 793.129 3.30841 3.77954 0
M  V30 8379 C 795.123 5.24709 3.61883 0
M  V30 8380 C 792.81 4.65116 3.96371 0
M  V30 8381 C 793.808 5.61859 3.88335 0
M  V30 8382 O 793.496 6.93704 4.06238 0
M  V30 8383 H 793.228 0.348731 0.579105 0
M  V30 8384 H 795.782 1.56066 1.33539 0
M  V30 8385 H 794.012 0.817559 3.77959 0
M  V30 8386 H 795.701 1.22674 3.86919 0
M  V30 8387 H 796.467 3.62453 3.22262 0
M  V30 8388 H 792.346 2.5611 3.83313 0
M  V30 8389 H 795.89 6.00205 3.55527 0
M  V30 8390 H 791.787 4.92969 4.16715 0
M  V30 8391 H 792.555 7.00443 4.23463 0
M  V30 8392 N 795.218 -1.23913 0.973828 0
M  V30 8393 C 796.151 -2.23647 0.45355 0
M  V30 8394 C 797.129 -1.55485 -0.475724 0
M  V30 8395 O 798.313 -1.84083 -0.405689 0
M  V30 8396 C 795.44 -3.36942 -0.344594 0
M  V30 8397 C 794.486 -4.23221 0.527859 0
M  V30 8398 S 795.319 -4.97877 1.97177 0
M  V30 8399 C 796.475 -6.14627 1.18258 0
M  V30 8400 H 796.708 -2.67433 1.29873 0
M  V30 8401 H 794.241 -1.33289 0.779322 0
M  V30 8402 H 796.199 -4.02647 -0.799103 0
M  V30 8403 H 794.86 -2.91703 -1.16482 0
M  V30 8404 H 794.053 -5.03928 -0.0852555 0
M  V30 8405 H 793.655 -3.6255 0.918344 0
M  V30 8406 H 795.947 -6.76066 0.440629 0
M  V30 8407 H 796.89 -6.80311 1.96425 0
M  V30 8408 H 797.298 -5.6009 0.704256 0
M  V30 8409 N 796.696 -0.74468 -1.38897 0
M  V30 8410 C 797.606 -0.112892 -2.34328 0
M  V30 8411 C 798.622 0.71087 -1.58816 0
M  V30 8412 O 799.798 0.637092 -1.91058 0
M  V30 8413 C 796.863 0.776417 -3.37894 0
M  V30 8414 C 795.924 -0.0606999 -4.29257 0
M  V30 8415 C 795.157 0.786258 -5.27877 0
M  V30 8416 O 795.38 2.02463 -5.33259 0
M  V30 8417 O 794.314 0.209781 -6.01534 0
M  V30 8418 H 798.14 -0.900801 -2.90033 0
M  V30 8419 H 795.725 -0.505462 -1.4059 0
M  V30 8420 H 797.607 1.28496 -4.01331 0
M  V30 8421 H 796.282 1.54297 -2.84559 0
M  V30 8422 H 795.189 -0.614984 -3.69011 0
M  V30 8423 H 796.522 -0.789702 -4.85824 0
M  V30 8424 N 798.174 1.49689 -0.493057 0
M  V30 8425 C 799.106 2.26867 0.326195 0
M  V30 8426 C 800.119 1.33083 0.937697 0
M  V30 8427 O 801.308 1.58427 0.822382 0
M  V30 8428 C 798.408 3.0519 1.4735 0
M  V30 8429 C 797.581 4.26491 0.970767 0
M  V30 8430 C 796.64 4.86926 1.99473 0
M  V30 8431 O 795.666 5.47221 1.56647 0
M  V30 8432 N 796.868 4.75871 3.32456 0
M  V30 8433 H 799.633 2.97816 -0.335547 0
M  V30 8434 H 797.194 1.58602 -0.325129 0
M  V30 8435 H 799.186 3.42496 2.15589 0
M  V30 8436 H 797.756 2.369 2.03954 0
M  V30 8437 H 796.976 3.94036 0.113529 0
M  V30 8438 H 798.264 5.05092 0.613156 0
M  V30 8439 H 797.662 4.2797 3.69944 0
M  V30 8440 H 796.219 5.17383 3.96431 0
M  V30 8441 N 799.652 0.226554 1.55963 0
M  V30 8442 C 800.602 -0.694986 2.1715 0
M  V30 8443 C 801.586 -1.15394 1.12129 0
M  V30 8444 O 802.778 -1.1071 1.38102 0
M  V30 8445 C 799.907 -1.9007 2.85882 0
M  V30 8446 C 798.993 -1.46119 3.98133 0
M  V30 8447 N 799.384 -0.734584 5.00437 0
M  V30 8448 C 797.682 -1.74809 4.10314 0
M  V30 8449 C 798.383 -0.509773 5.79462 0
M  V30 8450 N 797.359 -1.06796 5.33006 0
M  V30 8451 H 801.161 -0.131469 2.93606 0
M  V30 8452 H 798.675 0.0280165 1.62376 0
M  V30 8453 H 800.672 -2.57169 3.28131 0
M  V30 8454 H 799.332 -2.46864 2.10923 0
M  V30 8455 H 800.343 -0.386757 5.16454 0
M  V30 8456 H 797.02 -2.32887 3.46511 0
M  V30 8457 H 798.41 0.0688847 6.71865 0
M  V30 8458 N 801.13 -1.57531 -0.0467866 0
M  V30 8459 C 802.06 -2.08425 -1.05268 0
M  V30 8460 C 803.041 -0.982941 -1.38825 0
M  V30 8461 O 804.226 -1.25716 -1.48018 0
M  V30 8462 C 801.356 -2.54897 -2.35891 0
M  V30 8463 C 800.31 -3.69132 -2.16623 0
M  V30 8464 C 799.636 -4.01747 -3.52851 0
M  V30 8465 C 800.936 -4.98243 -1.56689 0
M  V30 8466 H 802.63 -2.92716 -0.62908 0
M  V30 8467 H 800.176 -1.40816 -0.301156 0
M  V30 8468 H 802.129 -2.8912 -3.06574 0
M  V30 8469 H 800.853 -1.67666 -2.80278 0
M  V30 8470 H 799.512 -3.35231 -1.48377 0
M  V30 8471 H 799.16 -3.11608 -3.94853 0
M  V30 8472 H 798.86 -4.78681 -3.4079 0
M  V30 8473 H 800.384 -4.38487 -4.24925 0
M  V30 8474 H 801.798 -5.30535 -2.17268 0
M  V30 8475 H 800.195 -5.79669 -1.55255 0
M  V30 8476 H 801.265 -4.81986 -0.530827 0
M  V30 8477 N 802.608 0.318715 -1.54344 0
M  V30 8478 C 803.541 1.41644 -1.7892 0
M  V30 8479 C 804.519 1.495 -0.639421 0
M  V30 8480 O 805.703 1.66835 -0.877404 0
M  V30 8481 C 802.83 2.79701 -1.9101 0
M  V30 8482 C 801.876 2.89354 -3.13331 0
M  V30 8483 S 802.709 2.53264 -4.71824 0
M  V30 8484 C 803.865 3.93384 -4.86826 0
M  V30 8485 H 804.098 1.20585 -2.71747 0
M  V30 8486 H 801.631 0.515828 -1.45529 0
M  V30 8487 H 803.589 3.59227 -1.98661 0
M  V30 8488 H 802.25 2.9804 -0.991516 0
M  V30 8489 H 801.443 3.90574 -3.1854 0
M  V30 8490 H 801.045 2.17805 -3.04035 0
M  V30 8491 H 803.337 4.88191 -4.69761 0
M  V30 8492 H 804.28 3.93156 -5.88926 0
M  V30 8493 H 804.688 3.82564 -4.15097 0
M  V30 8494 N 804.086 1.46499 0.581025 0
M  V30 8495 C 805.033 1.5719 1.68997 0
M  V30 8496 C 806.003 0.416114 1.60803 0
M  V30 8497 O 807.188 0.633086 1.79991 0
M  V30 8498 C 804.328 1.56973 3.07333 0
M  V30 8499 C 803.441 2.83298 3.26139 0
M  V30 8500 C 802.576 2.74574 4.54734 0
M  V30 8501 C 801.615 3.9583 4.66889 0
M  V30 8502 N 800.752 3.85482 5.86811 0
M  V30 8503 H 805.592 2.51914 1.59196 0
M  V30 8504 H 803.129 1.24975 0.775857 0
M  V30 8505 H 805.087 1.54832 3.87405 0
M  V30 8506 H 803.717 0.657803 3.16027 0
M  V30 8507 H 802.769 2.95411 2.3966 0
M  V30 8508 H 804.081 3.7316 3.30988 0
M  V30 8509 H 803.235 2.70548 5.43036 0
M  V30 8510 H 801.974 1.82354 4.52325 0
M  V30 8511 H 800.979 4.00186 3.77003 0
M  V30 8512 H 802.204 4.89148 4.71075 0
M  V30 8513 H 800.15 2.96051 5.85397 0
M  V30 8514 H 800.067 4.69002 5.92936 0
M  V30 8515 H 801.335 3.85434 6.7754 0
M  V30 8516 N 805.565 -0.825799 1.34232 0
M  V30 8517 C 806.813 -1.57873 1.26177 0
M  V30 8518 C 807.134 -1.94267 -0.168904 0
M  V30 8519 O 806.404 -1.62045 -1.10084 0
M  V30 8520 H 804.984 -0.585388 0.464037 0
M  V30 8521 H 807.646 -0.986163 1.6811 0
M  V30 8522 H 806.742 -2.50283 1.86453 0
M  V30 8523 N 807.043 -1.17915 -1.04565 0
M  V30 8524 C 808.291 -0.969505 -1.77327 0
M  V30 8525 C 808.612 0.502569 -1.88412 0
M  V30 8526 O 807.882 1.36467 -1.40547 0
M  V30 8527 H 806.462 -0.355723 -0.656864 0
M  V30 8528 H 809.124 -1.48506 -1.26223 0
M  V30 8529 H 808.22 -1.40324 -2.78775 0
M  V30 8530 N 808.521 1.23394 -0.980386 0
M  V30 8531 C 809.798 1.87242 -0.565667 0
M  V30 8532 C 810.178 1.88151 0.957197 0
M  V30 8533 O 809.526 1.36309 1.8339 0
M  V30 8534 C 809.736 3.28743 -1.17172 0
M  V30 8535 C 811.084 4.05335 -1.26446 0
M  V30 8536 O 812.108 3.37962 -1.12517 0
M  V30 8537 O 810.967 5.25908 -1.48604 0
M  V30 8538 H 808.061 0.80477 -0.190459 0
M  V30 8539 H 810.607 1.3127 -1.07547 0
M  V30 8540 H 809.379 3.22647 -2.21392 0
M  V30 8541 H 809.002 3.92305 -0.646739 0
M  V30 8542 N 809.999 0.752036 1.385 0
M  V30 8543 C 810.929 0.138718 2.33088 0
M  V30 8544 C 811.91 -0.705318 1.54788 0
M  V30 8545 O 813.095 -0.646821 1.83112 0
M  V30 8546 C 810.225 -0.75641 3.38963 0
M  V30 8547 C 809.179 -0.0152239 4.27997 0
M  V30 8548 C 808.505 -1.0285 5.24715 0
M  V30 8549 C 809.805 1.15226 5.09431 0
M  V30 8550 H 811.499 0.928852 2.84627 0
M  V30 8551 H 809.045 0.448111 1.3685 0
M  V30 8552 H 810.998 -1.19513 4.04097 0
M  V30 8553 H 809.722 -1.57885 2.85902 0
M  V30 8554 H 808.381 0.404061 3.64366 0
M  V30 8555 H 808.029 -1.84496 4.67943 0
M  V30 8556 H 807.729 -0.537238 5.85139 0
M  V30 8557 H 809.253 -1.46657 5.92726 0
M  V30 8558 H 810.667 0.791161 5.67815 0
M  V30 8559 H 809.064 1.57428 5.79082 0
M  V30 8560 H 810.134 1.9659 4.43261 0
M  V30 8561 N 811.477 -1.49425 0.500989 0
M  V30 8562 C 812.888 -1.86624 0.0532011 0
M  V30 8563 C 813.239 -1.41331 -1.36088 0
M  V30 8564 O 812.364 -0.791195 -2.01418 0
M  V30 8565 C 812.959 -3.38681 0.0897693 0
M  V30 8566 C 811.518 -3.75181 -0.302677 0
M  V30 8567 C 810.665 -2.73419 0.462307 0
M  V30 8568 H 813.616 -1.41743 0.713773 0
M  V30 8569 H 813.637 -3.73902 -0.705528 0
M  V30 8570 H 813.149 -3.71616 1.11907 0
M  V30 8571 H 811.25 -3.47855 -1.33521 0
M  V30 8572 H 811.363 -4.79097 0.0167653 0
M  V30 8573 H 809.727 -2.54548 -0.0878557 0
M  V30 8574 H 810.51 -3.09198 1.49169 0
M  V30 8575 N 812.955 -0.234822 -1.55841 0
M  V30 8576 C 814.18 0.400741 -2.03492 0
M  V30 8577 C 814.605 1.51618 -1.11327 0
M  V30 8578 O 813.963 1.81002 -0.103922 0
M  V30 8579 C 814.011 0.897184 -3.49261 0
M  V30 8580 O 813.115 2.00764 -3.60233 0
M  V30 8581 H 812.456 0.0890023 -0.658008 0
M  V30 8582 H 814.986 -0.357345 -2.01455 0
M  V30 8583 H 814.996 1.20356 -3.89844 0
M  V30 8584 H 813.671 0.0808639 -4.15821 0
M  V30 8585 H 812.248 1.70689 -3.31541 0
M  V30 8586 N 814.433 1.57553 0.0384317 0
M  V30 8587 C 815.679 1.89121 0.732199 0
M  V30 8588 C 816.012 0.831404 1.75503 0
M  V30 8589 O 815.287 -0.154642 1.93884 0
M  V30 8590 C 815.57 3.31338 1.41021 0
M  V30 8591 C 815.423 4.48004 0.401532 0
M  V30 8592 C 816.742 3.72318 2.34665 0
M  V30 8593 H 813.861 0.687819 0.264715 0
M  V30 8594 H 816.503 1.89999 -0.00496279 0
M  V30 8595 H 814.653 3.3072 2.03854 0
M  V30 8596 H 816.325 4.60755 -0.224159 0
M  V30 8597 H 814.568 4.32895 -0.280092 0
M  V30 8598 H 815.239 5.44377 0.91423 0
M  V30 8599 H 817.715 3.74243 1.81883 0
M  V30 8600 H 816.591 4.72652 2.7909 0
M  V30 8601 H 816.852 3.04062 3.20934 0
M  V30 8602 N 815.911 -0.310526 1.54511 0
M  V30 8603 C 816.821 -1.4054 1.87844 0
M  V30 8604 C 817.837 -1.55954 0.771635 0
M  V30 8605 O 819.013 -1.70801 1.06719 0
M  V30 8606 C 816.078 -2.75063 2.11048 0
M  V30 8607 C 815.139 -2.68715 3.348 0
M  V30 8608 C 814.372 -3.96821 3.56887 0
M  V30 8609 O 814.595 -4.95721 2.82165 0
M  V30 8610 O 813.529 -3.99291 4.50389 0
M  V30 8611 H 817.355 -1.15275 2.80972 0
M  V30 8612 H 814.94 -0.505732 1.4058 0
M  V30 8613 H 816.822 -3.54671 2.27566 0
M  V30 8614 H 815.497 -3.00191 1.21108 0
M  V30 8615 H 814.404 -1.87611 3.23655 0
M  V30 8616 H 815.737 -2.4854 4.2484 0
M  V30 8617 N 817.389 -1.46805 -0.573248 0
M  V30 8618 C 818.299 -1.60687 -1.70929 0
M  V30 8619 C 819.315 -0.490084 -1.66956 0
M  V30 8620 O 820.491 -0.755482 -1.86693 0
M  V30 8621 C 817.556 -1.60259 -3.07438 0
M  V30 8622 C 816.617 -2.83242 -3.22603 0
M  V30 8623 C 815.85 -2.82825 -4.52599 0
M  V30 8624 O 816.073 -1.92113 -5.37074 0
M  V30 8625 O 815.007 -3.74489 -4.71213 0
M  V30 8626 H 818.833 -2.56782 -1.62163 0
M  V30 8627 H 816.418 -1.29706 -0.741399 0
M  V30 8628 H 818.3 -1.6275 -3.88704 0
M  V30 8629 H 816.975 -0.673268 -3.16621 0
M  V30 8630 H 815.882 -2.86302 -2.40794 0
M  V30 8631 H 817.215 -3.75415 -3.18315 0
M  V30 8632 N 818.867 0.818669 -1.34668 0
M  V30 8633 C 820.113 1.57746 -1.27453 0
M  V30 8634 C 820.446 1.93588 0.154077 0
M  V30 8635 O 819.721 1.60371 1.10051 0
M  V30 8636 C 820.004 2.87414 -2.16945 0
M  V30 8637 C 819.857 2.58125 -3.68363 0
M  V30 8638 C 821.176 3.89021 -2.05792 0
M  V30 8639 H 818.295 0.572339 -0.464324 0
M  V30 8640 H 820.937 0.942784 -1.64959 0
M  V30 8641 H 819.087 3.41576 -1.85089 0
M  V30 8642 H 820.759 2.10239 -4.10606 0
M  V30 8643 H 819.002 1.91503 -3.89242 0
M  V30 8644 H 819.673 3.5061 -4.26353 0
M  V30 8645 H 822.149 3.44224 -2.33771 0
M  V30 8646 H 821.025 4.77548 -2.70628 0
M  V30 8647 H 821.286 4.29786 -1.03618 0
M  V30 8648 N 820.346 1.18468 1.03938 0
M  V30 8649 C 821.256 0.927889 2.1547 0
M  V30 8650 C 822.272 -0.108447 1.73662 0
M  V30 8651 O 823.448 0.0737636 2.01265 0
M  V30 8652 C 820.513 0.458494 3.43655 0
M  V30 8653 C 819.574 1.56295 3.99838 0
M  V30 8654 C 818.807 1.11586 5.21904 0
M  V30 8655 O 819.03 -0.0249057 5.70395 0
M  V30 8656 O 817.964 1.91412 5.70653 0
M  V30 8657 H 821.79 1.86116 2.39989 0
M  V30 8658 H 819.375 0.966607 1.13917 0
M  V30 8659 H 821.257 0.204861 4.20902 0
M  V30 8660 H 819.932 -0.446464 3.20606 0
M  V30 8661 H 818.839 1.87061 3.23974 0
M  V30 8662 H 820.172 2.44408 4.2723 0
M  V30 8663 N 821.824 -1.22873 0.986916 0
M  V30 8664 C 823.07 -1.91746 0.660401 0
M  V30 8665 C 823.403 -1.76738 -0.804812 0
M  V30 8666 O 822.678 -1.13246 -1.58131 0
M  V30 8667 C 822.961 -3.44156 1.05966 0
M  V30 8668 C 822.814 -3.68242 2.58298 0
M  V30 8669 C 824.133 -4.35874 0.60842 0
M  V30 8670 H 821.252 -0.696347 0.241391 0
M  V30 8671 H 823.894 -1.44867 1.22937 0
M  V30 8672 H 822.044 -3.84213 0.575534 0
M  V30 8673 H 823.716 -3.37626 3.14335 0
M  V30 8674 H 821.959 -3.12728 3.00638 0
M  V30 8675 H 822.63 -4.74956 2.81285 0
M  V30 8676 H 825.106 -4.03299 1.02417 0
M  V30 8677 H 823.982 -5.41201 0.916142 0
M  V30 8678 H 824.243 -4.39364 -0.491086 0
M  V30 8679 N 823.302 -0.75937 -1.38099 0
M  V30 8680 C 824.713 -0.385078 -1.82686 0
M  V30 8681 C 825.064 1.0871 -1.6333 0
M  V30 8682 O 824.189 1.84084 -1.13762 0
M  V30 8683 C 824.784 -0.692161 -3.31654 0
M  V30 8684 C 823.343 -0.371077 -3.74566 0
M  V30 8685 C 822.49 -0.942375 -2.60796 0
M  V30 8686 H 825.441 -0.955048 -1.26746 0
M  V30 8687 H 825.462 0.0276001 -3.8049 0
M  V30 8688 H 824.974 -1.76369 -3.4571 0
M  V30 8689 H 823.075 0.693637 -3.66087 0
M  V30 8690 H 823.188 -0.870672 -4.71122 0
M  V30 8691 H 821.552 -0.367383 -2.52036 0
M  V30 8692 H 822.335 -2.01905 -2.77649 0
M  V30 8693 N 824.78 1.49157 -0.508906 0
M  V30 8694 C 825.743 2.27784 0.25434 0
M  V30 8695 C 826.743 1.34132 0.88686 0
M  V30 8696 O 827.933 1.5722 0.750168 0
M  V30 8697 C 825.065 3.12347 1.36573 0
M  V30 8698 H 826.258 2.96718 -0.435714 0
M  V30 8699 H 823.811 1.54052 -0.264128 0
M  V30 8700 H 824.546 2.47997 2.08969 0
M  V30 8701 H 824.331 3.81213 0.917543 0
M  V30 8702 H 825.821 3.71712 1.90315 0
M  V30 8703 N 826.258 0.243083 1.55714 0
M  V30 8704 C 827.669 -0.260788 1.8487 0
M  V30 8705 C 828.02 -1.57879 1.16485 0
M  V30 8706 O 827.145 -2.1184 0.441908 0
M  V30 8707 C 827.74 -0.479954 3.35383 0
M  V30 8708 C 826.299 -0.928096 3.64778 0
M  V30 8709 C 825.446 -0.00316416 2.773 0
M  V30 8710 H 828.397 0.465743 1.51712 0
M  V30 8711 H 828.418 -1.32308 3.56756 0
M  V30 8712 H 827.93 0.479468 3.85127 0
M  V30 8713 H 826.031 -1.90012 3.20509 0
M  V30 8714 H 826.144 -0.7876 4.72582 0
M  V30 8715 H 824.508 -0.513849 2.49463 0
M  V30 8716 H 825.291 0.951562 3.29849 0
M  V30 8717 N 827.736 -1.57571 -0.0300757 0
M  V30 8718 C 829.147 -1.77567 -0.576802 0
M  V30 8719 C 829.498 -0.874034 -1.75656 0
M  V30 8720 O 828.623 -0.0686124 -2.16291 0
M  V30 8721 C 829.218 -3.22016 -1.05315 0
M  V30 8722 C 827.777 -3.43212 -1.5454 0
M  V30 8723 C 826.924 -2.73061 -0.483033 0
M  V30 8724 H 829.875 -1.57483 0.196151 0
M  V30 8725 H 829.896 -3.28474 -1.92055 0
M  V30 8726 H 829.408 -3.87613 -0.194298 0
M  V30 8727 H 827.509 -2.82788 -2.42615 0
M  V30 8728 H 827.622 -4.5182 -1.5936 0
M  V30 8729 H 825.986 -2.36805 -0.937835 0
M  V30 8730 H 826.769 -3.4134 0.366341 0
M  V30 8731 N 829.214 0.302327 -1.54673 0
M  V30 8732 C 830.144 1.37759 -1.88533 0
M  V30 8733 C 831.125 1.52961 -0.744113 0
M  V30 8734 O 832.31 1.6649 -0.999731 0
M  V30 8735 C 829.44 2.74201 -2.13146 0
M  V30 8736 C 828.394 2.73765 -3.28993 0
M  V30 8737 C 827.72 4.13483 -3.39022 0
M  V30 8738 C 829.02 2.35624 -4.66132 0
M  V30 8739 H 830.714 1.0967 -2.78591 0
M  V30 8740 H 828.26 0.52613 -1.34044 0
M  V30 8741 H 830.213 3.49508 -2.35419 0
M  V30 8742 H 828.937 3.03812 -1.19858 0
M  V30 8743 H 827.596 2.00914 -3.06642 0
M  V30 8744 H 827.244 4.40269 -2.43253 0
M  V30 8745 H 826.944 4.14093 -4.16894 0
M  V30 8746 H 828.468 4.90572 -3.63553 0
M  V30 8747 H 829.882 3.00647 -4.88143 0
M  V30 8748 H 828.279 2.47449 -5.46707 0
M  V30 8749 H 829.349 1.30753 -4.66939 0
M  V30 8750 N 830.692 1.47107 0.565454 0
M  V30 8751 C 831.622 1.61846 1.68309 0
M  V30 8752 C 832.603 0.468159 1.63531 0
M  V30 8753 O 833.788 0.696504 1.8128 0
M  V30 8754 C 830.918 1.62474 3.06952 0
M  V30 8755 C 829.872 2.76649 3.26572 0
M  V30 8756 C 829.198 2.62345 4.65917 0
M  V30 8757 C 830.498 4.18319 3.12741 0
M  V30 8758 H 832.192 2.55407 1.5623 0
M  V30 8759 H 829.738 1.22916 0.750179 0
M  V30 8760 H 831.691 1.71378 3.84977 0
M  V30 8761 H 830.415 0.654692 3.19971 0
M  V30 8762 H 829.074 2.67242 2.50952 0
M  V30 8763 H 828.722 1.63386 4.75725 0
M  V30 8764 H 828.422 3.38936 4.79996 0
M  V30 8765 H 829.946 2.73165 5.46089 0
M  V30 8766 H 831.36 4.28745 3.80593 0
M  V30 8767 H 829.757 4.95632 3.38333 0
M  V30 8768 H 830.827 4.37263 2.09592 0
M  V30 8769 N 832.17 -0.811516 1.35101 0
M  V30 8770 C 833.1 -1.9378 1.30275 0
M  V30 8771 C 834.081 -1.69165 0.178075 0
M  V30 8772 O 835.266 -1.90599 0.372256 0
M  V30 8773 C 832.396 -3.30439 1.06899 0
M  V30 8774 C 831.35 -3.69523 2.15955 0
M  V30 8775 C 830.676 -5.0429 1.77751 0
M  V30 8776 C 831.976 -3.80419 3.57881 0
M  V30 8777 H 833.67 -1.98075 2.24514 0
M  V30 8778 H 831.216 -0.951586 1.08078 0
M  V30 8779 H 833.169 -4.08828 1.02164 0
M  V30 8780 H 831.893 -3.26473 0.0910462 0
M  V30 8781 H 830.552 -2.93416 2.19778 0
M  V30 8782 H 830.2 -4.96823 0.785876 0
M  V30 8783 H 829.9 -5.31411 2.5075 0
M  V30 8784 H 831.424 -5.85125 1.74533 0
M  V30 8785 H 832.838 -4.49051 3.56407 0
M  V30 8786 H 831.235 -4.19005 4.29598 0
M  V30 8787 H 832.305 -2.82105 3.94391 0
M  V30 8788 N 833.648 -1.19017 -1.03309 0
M  V30 8789 C 834.58 -0.881847 -2.11556 0
M  V30 8790 C 835.593 0.123711 -1.62329 0
M  V30 8791 O 836.782 -0.105141 -1.7819 0
M  V30 8792 C 833.882 -0.297634 -3.37591 0
M  V30 8793 C 833.055 -1.35072 -4.16022 0
M  V30 8794 C 832.114 -0.780812 -5.20375 0
M  V30 8795 O 831.14 -1.45745 -5.50224 0
M  V30 8796 N 832.342 0.417964 -5.78993 0
M  V30 8797 H 835.107 -1.81359 -2.38598 0
M  V30 8798 H 832.668 -1.0916 -1.19565 0
M  V30 8799 H 834.66 0.097374 -4.04583 0
M  V30 8800 H 833.23 0.538299 -3.0793 0
M  V30 8801 H 832.45 -1.92074 -3.4424 0
M  V30 8802 H 833.738 -2.06044 -4.65213 0
M  V30 8803 H 833.136 0.985281 -5.57054 0
M  V30 8804 H 831.693 0.754802 -6.47415 0
M  V30 8805 N 835.127 1.22348 -0.993418 0
M  V30 8806 C 836.373 1.91689 -0.680217 0
M  V30 8807 C 836.728 1.75912 0.779269 0
M  V30 8808 O 836.021 1.11761 1.55628 0
M  V30 8809 C 836.215 3.42477 -1.02197 0
M  V30 8810 C 836.044 3.72923 -2.51313 0
M  V30 8811 C 834.814 3.9291 -3.17726 0
M  V30 8812 C 837.012 3.7736 -3.49434 0
M  V30 8813 N 834.994 4.10672 -4.56313 0
M  V30 8814 C 836.365 4.00269 -4.73481 0
M  V30 8815 C 838.42 3.60211 -3.43733 0
M  V30 8816 C 837.123 4.0781 -5.92523 0
M  V30 8817 C 839.149 3.69011 -4.62152 0
M  V30 8818 C 838.511 3.92371 -5.85 0
M  V30 8819 H 834.61 0.722086 -0.300193 0
M  V30 8820 H 837.194 1.47273 -1.27353 0
M  V30 8821 H 835.365 3.85699 -0.457223 0
M  V30 8822 H 837.097 3.99204 -0.664702 0
M  V30 8823 H 833.852 3.90345 -2.68193 0
M  V30 8824 H 834.276 4.2348 -5.28199 0
M  V30 8825 H 838.918 3.41137 -2.49771 0
M  V30 8826 H 836.636 4.25688 -6.86888 0
M  V30 8827 H 840.222 3.5708 -4.59331 0
M  V30 8828 H 839.102 3.9901 -6.75101 0
M  V30 8829 N 836.605 0.766683 1.37694 0
M  V30 8830 C 837.851 0.329201 2.0011 0
M  V30 8831 C 838.184 -1.09004 1.60723 0
M  V30 8832 O 837.459 -1.74895 0.850989 0
M  V30 8833 C 837.742 0.466989 3.57059 0
M  V30 8834 C 837.595 1.92828 4.06371 0
M  V30 8835 C 838.914 -0.131792 4.39903 0
M  V30 8836 H 836.033 0.12109 0.726984 0
M  V30 8837 H 838.675 0.968779 1.63446 0
M  V30 8838 H 836.825 -0.0775023 3.88423 0
M  V30 8839 H 838.497 2.53208 3.85595 0
M  V30 8840 H 836.74 2.43884 3.58752 0
M  V30 8841 H 837.411 1.97577 5.15429 0
M  V30 8842 H 839.887 0.332731 4.14768 0
M  V30 8843 H 838.763 -0.005217 5.489 0
M  V30 8844 H 839.024 -1.22156 4.24889 0
M  V30 8845 N 838.083 -1.48885 0.516809 0
M  V30 8846 C 839.03 -2.29408 -0.253125 0
M  V30 8847 C 840 -1.36533 -0.945935 0
M  V30 8848 O 841.185 -1.65495 -0.949527 0
M  V30 8849 C 838.325 -3.19592 -1.30211 0
M  V30 8850 C 837.438 -4.27535 -0.61948 0
M  V30 8851 C 836.573 -5.04916 -1.65026 0
M  V30 8852 C 835.612 -6.04677 -0.950368 0
M  V30 8853 N 834.749 -6.75164 -1.92608 0
M  V30 8854 H 839.589 -2.94738 0.439744 0
M  V30 8855 H 837.126 -1.45311 0.2287 0
M  V30 8856 H 839.084 -3.70267 -1.92245 0
M  V30 8857 H 837.714 -2.56213 -1.96353 0
M  V30 8858 H 836.766 -3.80228 0.114505 0
M  V30 8859 H 838.078 -4.98752 -0.0693016 0
M  V30 8860 H 837.232 -5.59539 -2.34523 0
M  V30 8861 H 835.971 -4.33508 -2.23432 0
M  V30 8862 H 834.976 -5.4927 -0.241252 0
M  V30 8863 H 836.201 -6.78077 -0.372599 0
M  V30 8864 H 834.147 -6.06517 -2.49946 0
M  V30 8865 H 834.064 -7.4241 -1.42699 0
M  V30 8866 H 835.332 -7.34384 -2.61345 0
M  V30 8867 N 839.561 -0.251338 -1.55583 0
M  V30 8868 C 840.789 0.376187 -2.03451 0
M  V30 8869 C 841.204 1.51215 -1.13047 0
M  V30 8870 O 840.561 1.81917 -0.145769 0
M  V30 8871 C 840.612 0.879779 -3.50631 0
M  V30 8872 O 840.333 -0.210917 -4.37592 0
M  V30 8873 C 841.834 1.57754 -4.14281 0
M  V30 8874 H 839.054 0.0888722 -0.665089 0
M  V30 8875 H 841.598 -0.376497 -2.01004 0
M  V30 8876 H 839.753 1.58263 -3.53598 0
M  V30 8877 H 840.167 0.172203 -5.24217 0
M  V30 8878 H 841.641 1.88158 -5.18942 0
M  V30 8879 H 842.118 2.50103 -3.61034 0
M  V30 8880 H 842.724 0.919154 -4.15249 0
M  V30 8881 N 841.039 1.57585 0.0217189 0
M  V30 8882 C 842.316 1.80779 0.74687 0
M  V30 8883 C 842.696 0.851163 1.9318 0
M  V30 8884 O 842.044 -0.105039 2.28258 0
M  V30 8885 C 842.254 3.28696 1.17302 0
M  V30 8886 C 843.602 3.93871 1.58589 0
M  V30 8887 O 844.626 3.3289 1.2674 0
M  V30 8888 O 843.485 5.01254 2.1773 0
M  V30 8889 H 840.579 0.743666 0.361786 0
M  V30 8890 H 843.125 1.697 -0.00206785 0
M  V30 8891 H 841.897 3.89927 0.327453 0
M  V30 8892 H 841.52 3.44692 1.98174 0
M  V30 8893 N 842.517 -0.29412 1.54831 0
M  V30 8894 C 843.449 -1.38476 1.82639 0
M  V30 8895 C 844.462 -1.46517 0.709694 0
M  V30 8896 O 845.651 -1.48712 0.987269 0
M  V30 8897 C 842.751 -2.76791 1.95551 0
M  V30 8898 C 841.924 -2.91599 3.26019 0
M  V30 8899 C 840.983 -4.10456 3.29261 0
M  V30 8900 O 840.009 -4.02214 4.02756 0
M  V30 8901 N 841.211 -5.21422 2.55145 0
M  V30 8902 H 843.976 -1.14974 2.76769 0
M  V30 8903 H 841.537 -0.484206 1.5449 0
M  V30 8904 H 843.529 -3.5456 1.95113 0
M  V30 8905 H 842.099 -2.93209 1.08384 0
M  V30 8906 H 841.319 -2.00886 3.39173 0
M  V30 8907 H 842.607 -2.98409 4.12104 0
M  V30 8908 H 842.005 -5.31 1.95078 0
M  V30 8909 H 840.562 -5.97501 2.60454 0
M  V30 8910 N 843.995 -1.47404 -0.557645 0
M  V30 8911 C 844.958 -1.59411 -1.64684 0
M  V30 8912 C 845.958 -0.469244 -1.53801 0
M  V30 8913 O 847.148 -0.734298 -1.57967 0
M  V30 8914 C 844.28 -1.5382 -3.04224 0
M  V30 8915 H 845.473 -2.56504 -1.55389 0
M  V30 8916 H 843.026 -1.35588 -0.777531 0
M  V30 8917 H 843.761 -0.581 -3.19053 0
M  V30 8918 H 843.546 -2.35456 -3.13533 0
M  V30 8919 H 845.036 -1.65358 -3.83466 0
M  V30 8920 N 845.473 0.80434 -1.35529 0
M  V30 8921 C 846.403 1.93086 -1.31301 0
M  V30 8922 C 847.384 1.69068 -0.187044 0
M  V30 8923 O 848.569 1.90399 -0.382359 0
M  V30 8924 C 845.699 3.29867 -1.0865 0
M  V30 8925 C 844.653 3.68373 -2.17911 0
M  V30 8926 C 843.979 5.0334 -1.80423 0
M  V30 8927 C 845.279 3.78516 -3.59893 0
M  V30 8928 H 846.973 1.96882 -2.25561 0
M  V30 8929 H 844.519 0.945841 -1.08581 0
M  V30 8930 H 846.472 4.08281 -1.04331 0
M  V30 8931 H 845.196 3.2642 -0.108359 0
M  V30 8932 H 843.855 2.92247 -2.21331 0
M  V30 8933 H 843.503 4.96399 -0.812213 0
M  V30 8934 H 843.203 5.30074 -2.53565 0
M  V30 8935 H 844.727 5.84191 -1.77633 0
M  V30 8936 H 846.141 4.47155 -3.58783 0
M  V30 8937 H 844.538 4.16721 -4.31814 0
M  V30 8938 H 845.608 2.8001 -3.95882 0
M  V30 8939 N 846.951 1.19563 1.02676 0
M  V30 8940 C 847.881 0.959024 2.12897 0
M  V30 8941 C 848.862 -0.108382 1.69754 0
M  V30 8942 O 850.047 0.0470698 1.94143 0
M  V30 8943 C 847.177 0.499211 3.43693 0
M  V30 8944 C 846.131 1.5087 4.00528 0
M  V30 8945 C 845.457 0.905884 5.2697 0
M  V30 8946 C 846.757 2.88954 4.3509 0
M  V30 8947 H 848.451 1.88084 2.32948 0
M  V30 8948 H 845.997 0.905731 1.11949 0
M  V30 8949 H 847.95 0.320965 4.20176 0
M  V30 8950 H 846.674 -0.458205 3.2337 0
M  V30 8951 H 845.333 1.67413 3.26142 0
M  V30 8952 H 844.981 -0.0591506 5.02965 0
M  V30 8953 H 844.681 1.58 5.65959 0
M  V30 8954 H 846.205 0.73848 6.06118 0
M  V30 8955 H 847.619 2.75981 5.02501 0
M  V30 8956 H 846.016 3.53177 4.85166 0
M  V30 8957 H 847.086 3.41447 3.44299 0
M  V30 8958 N 848.429 -1.21819 0.999893 0
M  V30 8959 C 849.362 -2.22635 0.500887 0
M  V30 8960 C 850.34 -1.56459 -0.442636 0
M  V30 8961 O 851.524 -1.84902 -0.366551 0
M  V30 8962 C 848.651 -3.37598 -0.273046 0
M  V30 8963 C 847.697 -4.22006 0.617511 0
M  V30 8964 S 848.53 -4.93583 2.07693 0
M  V30 8965 C 849.686 -6.1198 1.31269 0
M  V30 8966 H 849.919 -2.64618 1.35516 0
M  V30 8967 H 847.452 -1.31606 0.807419 0
M  V30 8968 H 849.41 -4.04251 -0.713515 0
M  V30 8969 H 848.071 -2.94108 -1.10268 0
M  V30 8970 H 847.264 -5.03995 0.0216543 0
M  V30 8971 H 846.866 -3.6052 0.99504 0
M  V30 8972 H 849.158 -6.74979 0.583933 0
M  V30 8973 H 850.101 -6.75991 2.10811 0
M  V30 8974 H 850.509 -5.5847 0.822901 0
M  V30 8975 N 849.908 -0.773975 -1.37286 0
M  V30 8976 C 850.838 -0.175782 -2.32837 0
M  V30 8977 C 851.819 0.680603 -1.5589 0
M  V30 8978 O 853.004 0.617607 -1.84117 0
M  V30 8979 C 850.134 0.702388 -3.40123 0
M  V30 8980 C 849.088 -0.0528687 -4.27967 0
M  V30 8981 C 848.414 0.944891 -5.26285 0
M  V30 8982 C 849.714 -1.23316 -5.07534 0
M  V30 8983 H 851.408 -0.974016 -2.83114 0
M  V30 8984 H 848.954 -0.469826 -1.3612 0
M  V30 8985 H 850.907 1.13069 -4.05947 0
M  V30 8986 H 849.631 1.53316 -2.88378 0
M  V30 8987 H 848.29 -0.461978 -3.63678 0
M  V30 8988 H 847.938 1.77028 -4.70819 0
M  V30 8989 H 847.638 0.444079 -5.8592 0
M  V30 8990 H 849.162 1.37209 -5.94984 0
M  V30 8991 H 850.576 -0.881395 -5.66484 0
M  V30 8992 H 848.973 -1.66621 -5.76504 0
M  V30 8993 H 850.043 -2.03617 -4.40077 0
M  V30 8994 N 851.386 1.48609 -0.524698 0
M  V30 8995 C 852.633 2.02497 0.0113214 0
M  V30 8996 C 852.961 1.40229 1.34781 0
M  V30 8997 O 852.216 0.53557 1.88229 0
M  V30 8998 C 852.515 3.56906 0.187873 0
M  V30 8999 C 852.181 4.37932 -1.07359 0
M  V30 9000 C 850.843 4.59792 -1.41933 0
M  V30 9001 C 853.195 4.84902 -1.911 0
M  V30 9002 C 850.523 5.25868 -2.60154 0
M  V30 9003 C 852.875 5.52281 -3.08495 0
M  V30 9004 C 851.539 5.7238 -3.4342 0
M  V30 9005 H 850.809 0.740988 0.0041428 0
M  V30 9006 H 853.456 1.78651 -0.689652 0
M  V30 9007 H 851.761 3.79563 0.971572 0
M  V30 9008 H 853.458 3.96218 0.617443 0
M  V30 9009 H 850.048 4.21175 -0.794331 0
M  V30 9010 H 854.232 4.67821 -1.65701 0
M  V30 9011 H 849.488 5.39628 -2.87422 0
M  V30 9012 H 853.662 5.87645 -3.73692 0
M  V30 9013 H 851.289 6.23354 -4.35126 0
M  V30 9014 N 852.864 0.259585 1.55447 0
M  V30 9015 C 854.089 -0.368317 2.04103 0
M  V30 9016 C 854.514 -1.49827 1.13725 0
M  V30 9017 O 853.872 -1.80814 0.132705 0
M  V30 9018 C 853.92 -0.841506 3.50644 0
M  V30 9019 O 853.024 -1.95008 3.63381 0
M  V30 9020 H 852.365 -0.0785227 0.659341 0
M  V30 9021 H 854.895 0.389349 2.00861 0
M  V30 9022 H 854.905 -1.14138 3.9171 0
M  V30 9023 H 853.58 -0.0147001 4.15897 0
M  V30 9024 H 852.157 -1.65393 3.34215 0
M  V30 9025 N 854.342 -1.57594 -0.0133615 0
M  V30 9026 C 855.619 -1.81173 -0.737273 0
M  V30 9027 C 855.999 -0.861395 -1.92726 0
M  V30 9028 O 855.347 0.0929324 -2.28311 0
M  V30 9029 C 855.557 -3.29314 -1.15557 0
M  V30 9030 C 856.905 -3.94707 -1.56498 0
M  V30 9031 O 857.929 -3.33557 -1.24973 0
M  V30 9032 O 856.788 -5.02402 -2.15069 0
M  V30 9033 H 853.882 -0.745575 -0.357837 0
M  V30 9034 H 856.428 -1.69696 0.0110674 0
M  V30 9035 H 855.2 -3.90096 -0.30677 0
M  V30 9036 H 854.823 -3.45739 -1.96343 0
M  V30 9037 N 855.82 0.285905 -1.54985 0
M  V30 9038 C 857.068 1.01718 -1.74636 0
M  V30 9039 C 857.389 1.87277 -0.543342 0
M  V30 9040 O 856.659 1.90847 0.442078 0
M  V30 9041 H 855.239 0.378549 -0.643979 0
M  V30 9042 H 857.901 0.313247 -1.92366 0
M  V30 9043 H 856.997 1.66159 -2.64192 0
M  V30 9044 N 857.298 1.47698 0.54982 0
M  V30 9045 C 858.526 1.5833 1.33188 0
M  V30 9046 C 858.941 0.236193 1.87317 0
M  V30 9047 O 858.298 -0.77167 1.65383 0
M  V30 9048 C 858.349 2.61438 2.49664 0
M  V30 9049 O 858.07 3.9092 1.97771 0
M  V30 9050 C 859.571 2.82324 3.41772 0
M  V30 9051 H 856.791 0.53443 0.405741 0
M  V30 9052 H 859.335 1.93375 0.665309 0
M  V30 9053 H 857.49 2.29307 3.12245 0
M  V30 9054 H 857.904 4.47323 2.73866 0
M  V30 9055 H 859.378 3.58316 4.19897 0
M  V30 9056 H 859.855 1.90416 3.95776 0
M  V30 9057 H 860.461 3.15682 2.85 0
M  V30 9058 N 858.776 -0.797141 1.35954 0
M  V30 9059 C 860.022 -1.55698 1.29946 0
M  V30 9060 C 860.355 -1.93808 -0.123259 0
M  V30 9061 O 859.63 -1.62102 -1.07486 0
M  V30 9062 C 859.913 -2.83926 2.2149 0
M  V30 9063 C 859.766 -2.52232 3.72423 0
M  V30 9064 C 861.085 -3.85698 2.11955 0
M  V30 9065 H 858.204 -0.56488 0.47337 0
M  V30 9066 H 860.846 -0.916421 1.66438 0
M  V30 9067 H 858.996 -3.38588 1.905 0
M  V30 9068 H 860.668 -2.0368 4.13899 0
M  V30 9069 H 858.911 -1.85286 3.92239 0
M  V30 9070 H 859.582 -3.43782 4.31877 0
M  V30 9071 H 862.058 -3.40462 2.39218 0
M  V30 9072 H 860.934 -4.73182 2.78191 0
M  V30 9073 H 861.195 -4.28083 1.10442 0
M  V30 9074 N 860.254 -1.20106 -1.0204 0
M  V30 9075 C 861.186 -0.904236 -2.10609 0
M  V30 9076 C 862.199 0.106487 -1.62451 0
M  V30 9077 O 863.388 -0.124035 -1.78069 0
M  V30 9078 C 860.488 -0.333423 -3.37256 0
M  V30 9079 C 859.661 -1.39476 -4.14566 0
M  V30 9080 C 858.72 -0.835961 -5.19517 0
M  V30 9081 O 857.746 -1.51573 -5.48648 0
M  V30 9082 N 858.948 0.356531 -5.79404 0
M  V30 9083 H 861.713 -1.8388 -2.36661 0
M  V30 9084 H 859.274 -1.10422 -1.184 0
M  V30 9085 H 861.266 0.0544571 -4.04663 0
M  V30 9086 H 859.836 0.505608 -3.08484 0
M  V30 9087 H 859.056 -1.95714 -3.42184 0
M  V30 9088 H 860.344 -2.10967 -4.63001 0
M  V30 9089 H 859.742 0.926143 -5.58067 0
M  V30 9090 H 858.299 0.686093 -6.48179 0
M  V30 9091 N 861.732 1.21287 -1.00634 0
M  V30 9092 C 862.978 1.90671 -0.690822 0
M  V30 9093 C 863.311 1.77996 0.776592 0
M  V30 9094 O 862.586 1.15748 1.5631 0
M  V30 9095 C 862.869 3.42426 -1.11428 0
M  V30 9096 C 862.722 3.64086 -2.64124 0
M  V30 9097 C 864.041 4.34851 -0.677686 0
M  V30 9098 H 861.16 0.692419 -0.252439 0
M  V30 9099 H 863.802 1.42893 -1.25226 0
M  V30 9100 H 861.952 3.83249 -0.636586 0
M  V30 9101 H 863.624 3.32582 -3.19667 0
M  V30 9102 H 861.867 3.07906 -3.05576 0
M  V30 9103 H 862.538 4.7042 -2.88806 0
M  V30 9104 H 865.014 4.01619 -1.0882 0
M  V30 9105 H 863.89 5.39675 -1.00213 0
M  V30 9106 H 864.151 4.4009 0.421125 0
M  V30 9107 N 863.21 0.781244 1.36873 0
M  V30 9108 C 864.158 0.161889 2.32036 0
M  V30 9109 C 865.152 -0.674225 1.55405 0
M  V30 9110 O 866.358 -0.570223 1.70729 0
M  V30 9111 H 862.733 0.0335702 0.75125 0
M  V30 9112 H 864.704 0.980078 2.81846 0
M  V30 9113 C 863.453 -0.695352 3.40676 0
M  V30 9114 H 862.776 -0.0613425 3.99753 0
M  V30 9115 H 864.216 -1.09553 4.09602 0
M  V30 9116 C 862.675 -1.85008 2.81556 0
M  V30 9117 O 863.205 -2.94616 2.73065 0
M  V30 9118 N 861.411 -1.65364 2.38962 0
M  V30 9119 H 860.958 -0.762106 2.46068 0
M  V30 9120 H 860.916 -2.42789 1.99752 0
M  V30 9121 N 864.689 -1.48329 0.532571 0
M  V30 9122 C 865.936 -2.025 -0.000582356 0
M  V30 9123 C 866.264 -1.40942 -1.34036 0
M  V30 9124 O 865.519 -0.545545 -1.87942 0
M  V30 9125 C 865.818 -3.57 -0.168943 0
M  V30 9126 C 865.484 -4.37357 1.0968 0
M  V30 9127 C 864.146 -4.59033 1.44369 0
M  V30 9128 C 866.498 -4.83882 1.93669 0
M  V30 9129 C 863.826 -5.24481 2.62939 0
M  V30 9130 C 866.178 -5.50637 3.11419 0
M  V30 9131 C 864.842 -5.70551 3.46451 0
M  V30 9132 H 864.112 -0.741 -0.000213099 0
M  V30 9133 H 866.759 -1.78282 0.699117 0
M  V30 9134 H 865.064 -3.80072 -0.951429 0
M  V30 9135 H 866.761 -3.9654 -0.596422 0
M  V30 9136 H 863.351 -4.20748 0.816655 0
M  V30 9137 H 867.535 -4.66936 1.6818 0
M  V30 9138 H 862.791 -5.38096 2.9028 0
M  V30 9139 H 866.965 -5.85655 3.76803 0
M  V30 9140 H 864.592 -6.21037 4.38425 0
M  V30 9141 N 866.167 -0.267825 -1.55308 0
M  V30 9142 C 867.397 0.354073 -2.03543 0
M  V30 9143 C 867.805 1.50554 -1.14586 0
M  V30 9144 O 867.148 1.83028 -0.156991 0
M  V30 9145 C 867.21 0.904148 -3.47945 0
M  V30 9146 C 866.874 -0.11775 -4.56848 0
M  V30 9147 C 867.871 -0.934707 -5.11429 0
M  V30 9148 C 865.556 -0.249885 -5.01678 0
M  V30 9149 C 867.55 -1.87005 -6.0935 0
M  V30 9150 C 865.237 -1.18872 -5.99427 0
M  V30 9151 C 866.235 -1.99731 -6.53144 0
M  V30 9152 O 865.923 -2.92028 -7.48983 0
M  V30 9153 H 865.655 0.0857765 -0.670536 0
M  V30 9154 H 868.209 -0.395515 -2.01556 0
M  V30 9155 H 866.439 1.70368 -3.47148 0
M  V30 9156 H 868.128 1.43835 -3.79561 0
M  V30 9157 H 868.894 -0.84332 -4.77612 0
M  V30 9158 H 864.773 0.369469 -4.59517 0
M  V30 9159 H 868.317 -2.5016 -6.51203 0
M  V30 9160 H 864.214 -1.28095 -6.32663 0
M  V30 9161 H 864.982 -2.86627 -7.66673 0
M  V30 9162 N 867.645 1.57599 0.00500368 0
M  V30 9163 C 868.893 1.89973 0.68953 0
M  V30 9164 C 869.214 0.868531 1.7459 0
M  V30 9165 O 868.484 -0.0947367 1.95671 0
M  V30 9166 H 867.064 0.701153 0.25767 0
M  V30 9167 H 869.726 1.94869 -0.0347392 0
M  V30 9168 H 868.822 2.89584 1.16394 0
M  V30 9169 N 869.123 -0.277682 1.55134 0
M  V30 9170 C 870.4 -1.0309 1.66228 0
M  V30 9171 C 870.78 -2.0445 0.525701 0
M  V30 9172 O 870.128 -2.23512 -0.474816 0
M  V30 9173 C 870.338 -1.6919 3.05247 0
M  V30 9174 C 871.686 -2.20526 3.62841 0
M  V30 9175 O 872.71 -1.79185 3.07849 0
M  V30 9176 O 871.569 -2.96342 4.59177 0
M  V30 9177 H 868.663 -0.4779 0.674937 0
M  V30 9178 H 871.209 -0.273912 1.67475 0
M  V30 9179 H 869.981 -0.957163 3.79413 0
M  V30 9180 H 869.604 -2.51587 3.07879 0
M  V30 9181 N 870.601 -1.47988 -0.541979 0
M  V30 9182 C 871.551 -1.58019 -1.64359 0
M  V30 9183 C 872.535 -0.438056 -1.54822 0
M  V30 9184 O 873.727 -0.688837 -1.63046 0
M  V30 9185 C 870.856 -1.61182 -3.03109 0
M  V30 9186 C 869.942 -2.80834 -3.17794 0
M  V30 9187 N 870.333 -4.05379 -3.02492 0
M  V30 9188 C 868.631 -2.77914 -3.48826 0
M  V30 9189 C 869.332 -4.85592 -3.20274 0
M  V30 9190 N 868.308 -4.18188 -3.47304 0
M  V30 9191 H 872.11 -2.52071 -1.5112 0
M  V30 9192 H 869.624 -1.44193 -0.747137 0
M  V30 9193 H 871.621 -1.66461 -3.82226 0
M  V30 9194 H 870.281 -0.682375 -3.17449 0
M  V30 9195 H 871.292 -4.36003 -2.79503 0
M  V30 9196 H 867.969 -1.94174 -3.69598 0
M  V30 9197 H 869.359 -5.94394 -3.13282 0
M  V30 9198 N 872.079 0.78992 -1.36375 0
M  V30 9199 C 873.307 1.57873 -1.3373 0
M  V30 9200 C 873.722 1.88624 0.0815544 0
M  V30 9201 O 873.079 1.50085 1.03831 0
M  V30 9202 C 873.13 2.90003 -2.15825 0
M  V30 9203 O 872.851 2.60578 -3.5218 0
M  V30 9204 C 874.352 3.84309 -2.20955 0
M  V30 9205 H 871.572 0.489685 -0.458748 0
M  V30 9206 H 874.116 0.980436 -1.79465 0
M  V30 9207 H 872.271 3.46303 -1.73646 0
M  V30 9208 H 872.685 3.4506 -3.95011 0
M  V30 9209 H 874.159 4.74081 -2.82756 0
M  V30 9210 H 874.636 4.22121 -1.21287 0
M  V30 9211 H 875.242 3.33942 -2.63368 0
M  V30 9212 N 873.557 1.20646 1.01402 0
M  V30 9213 C 874.504 0.957618 2.09996 0
M  V30 9214 C 875.474 -0.113115 1.65714 0
M  V30 9215 O 876.659 0.032142 1.90773 0
M  V30 9216 C 873.799 0.5186 3.41181 0
M  V30 9217 C 872.912 1.65777 3.98926 0
M  V30 9218 C 872.047 1.16881 5.18182 0
M  V30 9219 C 871.086 2.2809 5.68015 0
M  V30 9220 N 870.223 1.80392 6.7853 0
M  V30 9221 H 875.063 1.88732 2.30617 0
M  V30 9222 H 872.6 0.940703 1.13089 0
M  V30 9223 H 874.558 0.245367 4.16478 0
M  V30 9224 H 873.188 -0.3741 3.20625 0
M  V30 9225 H 872.24 2.04586 3.207 0
M  V30 9226 H 873.552 2.49507 4.31912 0
M  V30 9227 H 872.706 0.851694 6.00692 0
M  V30 9228 H 871.445 0.301434 4.86768 0
M  V30 9229 H 870.45 2.60614 4.84108 0
M  V30 9230 H 871.675 3.15308 6.01463 0
M  V30 9231 H 869.621 0.959856 6.4894 0
M  V30 9232 H 869.538 2.57701 7.10722 0
M  V30 9233 H 870.806 1.51688 7.64598 0
M  V30 9234 N 875.035 -1.20752 1.01276 0
M  V30 9235 C 875.965 -2.25658 0.600064 0
M  V30 9236 C 876.946 -1.65733 -0.38298 0
M  V30 9237 O 878.131 -1.92324 -0.269256 0
M  V30 9238 C 875.261 -3.47237 -0.0663197 0
M  V30 9239 C 874.215 -4.1973 0.83731 0
M  V30 9240 C 873.541 -5.34687 0.0369102 0
M  V30 9241 C 874.841 -4.76286 2.14357 0
M  V30 9242 H 876.535 -2.60432 1.477 0
M  V30 9243 H 874.081 -1.25187 0.711634 0
M  V30 9244 H 876.034 -4.19803 -0.366563 0
M  V30 9245 H 874.758 -3.11615 -0.977944 0
M  V30 9246 H 873.417 -3.49024 1.1215 0
M  V30 9247 H 873.065 -4.95309 -0.876244 0
M  V30 9248 H 872.765 -5.84119 0.63865 0
M  V30 9249 H 874.289 -6.10059 -0.256968 0
M  V30 9250 H 875.703 -5.40691 1.90595 0
M  V30 9251 H 874.1 -5.36139 2.69583 0
M  V30 9252 H 875.17 -3.9524 2.80916 0
M  V30 9253 N 876.513 -0.788492 -1.36457 0
M  V30 9254 C 877.762 -0.357052 -1.98515 0
M  V30 9255 C 878.075 1.0769 -1.63285 0
M  V30 9256 O 879.281 1.61057 -2.1857 0
M  V30 9257 C 877.737 -0.587449 -3.55073 0
M  V30 9258 C 877.345 -2.03276 -3.99228 0
M  V30 9259 C 879.089 -0.220468 -4.23927 0
M  V30 9260 C 876.996 -2.20987 -5.48561 0
M  V30 9261 H 875.926 -0.129762 -0.74275 0
M  V30 9262 H 878.577 -0.969995 -1.55767 0
M  V30 9263 H 876.959 0.0951918 -3.95886 0
M  V30 9264 H 878.133 -2.75173 -3.69617 0
M  V30 9265 H 876.448 -2.3579 -3.43208 0
M  V30 9266 H 879.045 -0.331085 -5.33674 0
M  V30 9267 H 879.388 0.831306 -4.07915 0
M  V30 9268 H 879.921 -0.856309 -3.88474 0
M  V30 9269 H 876.66 -3.24543 -5.69519 0
M  V30 9270 H 876.18 -1.53594 -5.79801 0
M  V30 9271 H 877.859 -2.01656 -6.14771 0
M  V30 9272 N 877.991 1.48044 -0.54043 0
M  V30 9273 C 878.921 2.32597 0.205178 0
M  V30 9274 C 879.902 1.42748 0.925041 0
M  V30 9275 O 881.087 1.71624 0.908784 0
M  V30 9276 C 878.217 3.24175 1.24612 0
M  V30 9277 C 877.171 4.23131 0.64376 0
M  V30 9278 C 876.497 5.03915 1.78812 0
M  V30 9279 C 877.797 5.20831 -0.39144 0
M  V30 9280 H 879.491 2.95184 -0.500676 0
M  V30 9281 H 877.037 1.41948 -0.242225 0
M  V30 9282 H 878.99 3.82158 1.77576 0
M  V30 9283 H 877.714 2.59608 1.98169 0
M  V30 9284 H 876.373 3.66349 0.135554 0
M  V30 9285 H 876.021 4.35765 2.51232 0
M  V30 9286 H 875.721 5.709 1.39094 0
M  V30 9287 H 877.245 5.64753 2.32134 0
M  V30 9288 H 878.659 5.73277 0.0515064 0
M  V30 9289 H 877.056 5.95926 -0.706569 0
M  V30 9290 H 878.126 4.6733 -1.29345 0
M  V30 9291 N 879.47 0.276058 1.55163 0
M  V30 9292 C 880.695 -0.346648 2.04483 0
M  V30 9293 C 881.12 -1.48613 1.15308 0
M  V30 9294 O 880.478 -1.80663 0.151875 0
M  V30 9295 C 880.526 -0.804268 3.51517 0
M  V30 9296 O 879.63 -1.91143 3.65429 0
M  V30 9297 H 878.971 -0.0715251 0.660136 0
M  V30 9298 H 881.501 0.410631 2.00437 0
M  V30 9299 H 881.511 -1.09977 3.92898 0
M  V30 9300 H 880.186 0.0294123 4.1589 0
M  V30 9301 H 878.763 -1.61839 3.3595 0
M  V30 9302 N 880.948 -1.576 0.00335426 0
M  V30 9303 C 882.196 -1.90336 -0.679446 0
M  V30 9304 C 882.517 -0.877777 -1.74127 0
M  V30 9305 O 881.787 0.0843585 -1.95718 0
M  V30 9306 H 880.367 -0.702509 -0.253948 0
M  V30 9307 H 883.029 -1.94848 0.0450731 0
M  V30 9308 H 882.125 -2.90197 -1.14857 0
M  V30 9309 N 882.426 0.269451 -1.5528 0
M  V30 9310 C 883.672 0.997946 -1.77236 0
M  V30 9311 C 884.027 1.83808 -0.568546 0
M  V30 9312 O 883.32 1.8651 0.438706 0
M  V30 9313 C 883.514 1.91 -3.02082 0
M  V30 9314 C 883.343 1.15963 -4.34491 0
M  V30 9315 C 882.113 0.873873 -4.97686 0
M  V30 9316 C 884.311 0.548307 -5.11369 0
M  V30 9317 N 882.293 0.0970863 -6.13823 0
M  V30 9318 C 883.664 -0.0941413 -6.19929 0
M  V30 9319 C 885.719 0.456507 -4.95803 0
M  V30 9320 C 884.422 -0.819547 -7.14616 0
M  V30 9321 C 886.448 -0.255315 -5.90849 0
M  V30 9322 C 885.81 -0.886488 -6.988 0
M  V30 9323 H 881.909 0.347038 -0.700777 0
M  V30 9324 H 884.493 0.273262 -1.92773 0
M  V30 9325 H 882.664 2.60691 -2.87915 0
M  V30 9326 H 884.396 2.57237 -3.12428 0
M  V30 9327 H 881.151 1.18003 -4.58663 0
M  V30 9328 H 881.575 -0.278741 -6.76426 0
M  V30 9329 H 886.217 0.930164 -4.12441 0
M  V30 9330 H 883.935 -1.30488 -7.97495 0
M  V30 9331 H 887.521 -0.32671 -5.80882 0
M  V30 9332 H 886.401 -1.42851 -7.71079 0
M  V30 9333 N 883.904 1.48273 0.534124 0
M  V30 9334 C 884.814 1.65162 1.66609 0
M  V30 9335 C 885.83 0.534177 1.65598 0
M  V30 9336 O 887.006 0.804715 1.84625 0
M  V30 9337 C 884.071 1.68354 3.03081 0
M  V30 9338 C 883.132 2.91696 3.1498 0
M  V30 9339 C 882.365 2.94725 4.44941 0
M  V30 9340 O 882.588 2.06285 5.31792 0
M  V30 9341 O 881.522 3.8685 4.61119 0
M  V30 9342 H 885.348 2.60991 1.55298 0
M  V30 9343 H 882.933 1.31626 0.706749 0
M  V30 9344 H 884.815 1.72998 3.84252 0
M  V30 9345 H 883.49 0.756978 3.14725 0
M  V30 9346 H 882.397 2.92586 2.33119 0
M  V30 9347 H 883.73 3.83722 3.0825 0
M  V30 9348 N 885.382 -0.782676 1.36792 0
M  V30 9349 C 886.793 -1.35828 1.28092 0
M  V30 9350 C 887.144 -1.96052 -0.076315 0
M  V30 9351 O 886.269 -1.93042 -0.977935 0
M  V30 9352 C 886.864 -2.46949 2.31952 0
M  V30 9353 C 885.423 -3.00307 2.2692 0
M  V30 9354 C 884.57 -1.73436 2.16368 0
M  V30 9355 H 887.521 -0.583788 1.47572 0
M  V30 9356 H 887.542 -3.26144 1.95986 0
M  V30 9357 H 887.054 -2.03087 3.30722 0
M  V30 9358 H 885.155 -3.48571 1.31639 0
M  V30 9359 H 885.268 -3.56663 3.19887 0
M  V30 9360 H 883.632 -1.95934 1.62733 0
M  V30 9361 H 884.415 -1.31693 3.17036 0
M  V30 9362 N 886.86 -1.21182 -1.00761 0
M  V30 9363 C 887.79 -0.992773 -2.11344 0
M  V30 9364 C 888.771 0.0813618 -1.69905 0
M  V30 9365 O 889.956 -0.0779503 -1.94043 0
M  V30 9366 C 887.086 -0.553826 -3.42856 0
M  V30 9367 C 886.04 -1.57223 -3.98077 0
M  V30 9368 C 885.366 -0.989605 -5.25463 0
M  V30 9369 C 886.666 -2.95839 -4.30438 0
M  V30 9370 H 888.36 -1.91766 -2.29927 0
M  V30 9371 H 885.906 -0.923426 -1.10494 0
M  V30 9372 H 887.859 -0.387771 -4.19612 0
M  V30 9373 H 886.583 0.406702 -3.24058 0
M  V30 9374 H 885.242 -1.7258 -3.23437 0
M  V30 9375 H 884.89 -0.0208743 -5.02996 0
M  V30 9376 H 884.59 -1.66984 -5.63374 0
M  V30 9377 H 886.114 -0.834815 -6.04866 0
M  V30 9378 H 887.528 -2.8394 -4.98047 0
M  V30 9379 H 885.925 -3.60851 -4.79486 0
M  V30 9380 H 886.995 -3.46882 -3.38823 0
M  V30 9381 N 888.338 1.20213 -1.01915 0
M  V30 9382 C 889.268 2.25336 -0.612023 0
M  V30 9383 C 890.249 1.65933 0.374186 0
M  V30 9384 O 891.434 1.92464 0.259053 0
M  V30 9385 C 888.564 3.47267 0.047904 0
M  V30 9386 C 887.518 4.1928 -0.859557 0
M  V30 9387 C 886.844 5.3466 -0.0652655 0
M  V30 9388 C 888.144 4.75143 -2.1688 0
M  V30 9389 H 889.838 2.59645 -1.49079 0
M  V30 9390 H 887.384 1.24808 -0.718263 0
M  V30 9391 H 889.337 4.19991 0.344294 0
M  V30 9392 H 888.061 3.12129 0.961404 0
M  V30 9393 H 886.72 3.48425 -1.13999 0
M  V30 9394 H 886.368 4.95767 0.849964 0
M  V30 9395 H 886.068 5.83772 -0.669618 0
M  V30 9396 H 887.592 6.10187 0.224612 0
M  V30 9397 H 889.006 5.39672 -1.9346 0
M  V30 9398 H 887.403 5.34702 -2.72422 0
M  V30 9399 H 888.473 3.93744 -2.83008 0
M  V30 9400 N 889.816 0.795718 1.36037 0
M  V30 9401 C 891.062 0.371574 1.99367 0
M  V30 9402 C 891.395 -1.0557 1.62999 0
M  V30 9403 O 890.67 -1.73051 0.887895 0
M  V30 9404 C 890.953 0.542622 3.55988 0
M  V30 9405 C 890.806 2.01404 4.0219 0
M  V30 9406 C 892.125 -0.0384527 4.40083 0
M  V30 9407 H 889.244 0.136483 0.724252 0
M  V30 9408 H 891.886 1.00323 1.61355 0
M  V30 9409 H 890.036 0.0049053 3.885 0
M  V30 9410 H 891.708 2.6133 3.80137 0
M  V30 9411 H 889.951 2.51439 3.53498 0
M  V30 9412 H 890.622 2.08466 5.11122 0
M  V30 9413 H 893.098 0.420634 4.13968 0
M  V30 9414 H 891.974 0.111214 5.48787 0
M  V30 9415 H 892.235 -1.13116 4.27384 0
M  V30 9416 N 891.294 -1.47756 0.548274 0
M  V30 9417 C 892.522 -2.06884 0.0254873 0
M  V30 9418 C 892.937 -1.40225 -1.26422 0
M  V30 9419 O 892.294 -0.495776 -1.75637 0
M  V30 9420 C 892.345 -3.61036 -0.183134 0
M  V30 9421 O 892.066 -4.25195 1.05549 0
M  V30 9422 C 893.567 -4.37008 -0.744222 0
M  V30 9423 H 890.787 -0.669697 0.041789 0
M  V30 9424 H 893.331 -1.89888 0.759138 0
M  V30 9425 H 891.486 -3.77576 -0.866886 0
M  V30 9426 H 891.9 -5.17606 0.847629 0
M  V30 9427 H 893.374 -5.45579 -0.839529 0
M  V30 9428 H 893.851 -4.0268 -1.75344 0
M  V30 9429 H 894.457 -4.25191 -0.0964542 0
M  V30 9430 N 892.772 -0.284283 -1.55015 0
M  V30 9431 C 894.019 0.329864 -1.99795 0
M  V30 9432 C 894.347 1.55171 -1.1727 0
M  V30 9433 O 893.602 1.94312 -0.232667 0
M  V30 9434 C 893.901 0.747219 -3.49502 0
M  V30 9435 C 893.567 -0.37101 -4.49371 0
M  V30 9436 C 892.229 -0.678034 -4.76399 0
M  V30 9437 C 894.581 -1.12406 -5.08935 0
M  V30 9438 C 891.909 -1.74152 -5.60257 0
M  V30 9439 C 894.261 -2.17734 -5.93948 0
M  V30 9440 C 892.925 -2.49061 -6.19294 0
M  V30 9441 H 892.195 0.120706 -0.731103 0
M  V30 9442 H 894.842 -0.399904 -1.87278 0
M  V30 9443 H 893.147 1.55681 -3.59542 0
M  V30 9444 H 894.844 1.2333 -3.81563 0
M  V30 9445 H 891.434 -0.1216 -4.28427 0
M  V30 9446 H 895.618 -0.900119 -4.88069 0
M  V30 9447 H 890.874 -1.98915 -5.78137 0
M  V30 9448 H 895.048 -2.76553 -6.39133 0
M  V30 9449 H 892.675 -3.31602 -6.84064 0
M  V30 9450 N 894.251 1.57596 -0.0117121 0
M  V30 9451 C 895.497 1.91355 0.671661 0
M  V30 9452 C 895.83 0.886818 1.72769 0
M  V30 9453 O 895.105 -0.0928813 1.94278 0
M  V30 9454 C 895.388 3.35657 1.30409 0
M  V30 9455 C 895.241 4.49055 0.2588 0
M  V30 9456 C 896.56 3.79595 2.22701 0
M  V30 9457 H 893.679 0.695893 0.242698 0
M  V30 9458 H 896.321 1.89887 -0.0654071 0
M  V30 9459 H 894.471 3.37038 1.9323 0
M  V30 9460 H 896.143 4.59809 -0.370631 0
M  V30 9461 H 894.386 4.31785 -0.417672 0
M  V30 9462 H 895.057 5.4701 0.740578 0
M  V30 9463 H 897.533 3.7984 1.69885 0
M  V30 9464 H 896.409 4.81292 2.63912 0
M  V30 9465 H 896.67 3.14118 3.11098 0
M  V30 9466 N 895.729 -0.261212 1.5542 0
M  V30 9467 C 896.692 -1.30645 1.8832 0
M  V30 9468 C 897.692 -1.41782 0.758588 0
M  V30 9469 O 898.882 -1.40729 1.02669 0
M  V30 9470 C 896.014 -2.6862 2.09895 0
M  V30 9471 H 897.207 -1.02698 2.81768 0
M  V30 9472 H 894.76 -0.499838 1.48092 0
M  V30 9473 H 895.495 -3.0173 1.18868 0
M  V30 9474 H 895.28 -2.61921 2.91787 0
M  V30 9475 H 896.77 -3.44121 2.36581 0
M  V30 9476 N 897.207 -1.48554 -0.526253 0
M  V30 9477 C 898.623 -1.34757 -0.855138 0
M  V30 9478 C 898.823 -0.36142 -1.98232 0
M  V30 9479 O 897.879 0.216026 -2.51574 0
M  V30 9480 C 899.192 -2.74877 -1.21915 0
M  V30 9481 C 900.74 -2.83393 -1.32882 0
M  V30 9482 C 901.215 -4.24223 -1.72624 0
M  V30 9483 N 902.706 -4.26913 -1.7972 0
M  V30 9484 C 903.441 -5.32824 -2.11863 0
M  V30 9485 N 902.937 -6.49008 -2.42405 0
M  V30 9486 N 904.73 -5.20221 -2.12901 0
M  V30 9487 H 896.881 -2.11284 0.217422 0
M  V30 9488 H 899.144 -0.947367 0.0346362 0
M  V30 9489 H 898.85 -3.48619 -0.464486 0
M  V30 9490 H 898.724 -3.0864 -2.16844 0
M  V30 9491 H 901.111 -2.09904 -2.07424 0
M  V30 9492 H 901.192 -2.53245 -0.360638 0
M  V30 9493 H 900.836 -4.98229 -0.986411 0
M  V30 9494 H 900.766 -4.51817 -2.70498 0
M  V30 9495 H 903.257 -3.4311 -1.58379 0
M  V30 9496 H 903.57 -7.25561 -2.66048 0
M  V30 9497 H 901.915 -6.52277 -2.39917 0
M  V30 9498 H 905.106 -4.28469 -1.885 0
M  V30 9499 H 905.279 -6.02861 -2.37619 0
M  V30 9500 N 898.685 0.775411 -1.37205 0
M  V30 9501 C 899.633 1.90996 -1.32752 0
M  V30 9502 C 900.627 1.68006 -0.216907 0
M  V30 9503 O 901.833 1.7584 -0.384723 0
M  V30 9504 H 898.208 0.62803 -0.413621 0
M  V30 9505 H 900.179 1.91869 -2.28536 0
M  V30 9506 C 898.928 3.28211 -1.14772 0
M  V30 9507 H 898.251 3.46477 -1.99484 0
M  V30 9508 H 899.691 4.07907 -1.15706 0
M  V30 9509 C 898.15 3.3658 0.146852 0
M  V30 9510 O 898.68 3.85428 1.13173 0
M  V30 9511 N 896.886 2.89936 0.196305 0
M  V30 9512 H 896.433 2.50375 -0.605807 0
M  V30 9513 H 896.391 2.95916 1.06212 0
M  V30 9514 N 900.163 1.21714 1.00117 0
M  V30 9515 C 901.579 0.97532 1.26332 0
M  V30 9516 C 901.779 -0.336029 1.98678 0
M  V30 9517 O 900.835 -1.06073 2.29139 0
M  V30 9518 C 902.148 2.16848 2.0832 0
M  V30 9519 C 903.696 2.21115 2.21533 0
M  V30 9520 C 904.171 3.3996 3.06906 0
M  V30 9521 N 905.662 3.40071 3.14494 0
M  V30 9522 C 906.397 4.28678 3.80818 0
M  V30 9523 N 905.893 5.2749 4.49139 0
M  V30 9524 N 907.686 4.16476 3.77497 0
M  V30 9525 H 899.837 2.06039 0.515897 0
M  V30 9526 H 902.1 0.902423 0.290408 0
M  V30 9527 H 901.806 3.119 1.62515 0
M  V30 9528 H 901.68 2.16226 3.09073 0
M  V30 9529 H 904.067 1.26616 2.66557 0
M  V30 9530 H 904.148 2.2578 1.20238 0
M  V30 9531 H 903.792 4.34755 2.62585 0
M  V30 9532 H 903.722 3.32534 4.08324 0
M  V30 9533 H 906.213 2.68563 2.65861 0
M  V30 9534 H 906.526 5.91397 4.97463 0
M  V30 9535 H 904.871 5.31412 4.47914 0
M  V30 9536 H 908.062 3.38539 3.23278 0
M  V30 9537 H 908.235 4.85739 4.28908 0
M  V30 9538 N 901.641 -1.19671 1.02551 0
M  V30 9539 C 902.866 -1.93774 0.739363 0
M  V30 9540 C 903.291 -1.74787 -0.695064 0
M  V30 9541 O 902.649 -1.04796 -1.47944 0
M  V30 9542 C 902.697 -3.43684 1.09149 0
M  V30 9543 O 901.801 -4.11874 0.208213 0
M  V30 9544 H 901.142 -0.605064 0.273484 0
M  V30 9545 H 903.672 -1.51846 1.37128 0
M  V30 9546 H 903.682 -3.94339 1.04695 0
M  V30 9547 H 902.357 -3.56826 2.13654 0
M  V30 9548 H 900.934 -3.716 0.311045 0
M  V30 9549 N 903.119 -0.802921 -1.35613 0
M  V30 9550 C 904.082 -0.216422 -2.28176 0
M  V30 9551 C 905.082 0.594101 -1.49422 0
M  V30 9552 O 906.272 0.41312 -1.6923 0
M  V30 9553 C 903.404 0.698746 -3.33662 0
M  V30 9554 H 904.597 -1.03276 -2.81557 0
M  V30 9555 H 902.15 -0.573307 -1.45406 0
M  V30 9556 H 902.885 1.53891 -2.85461 0
M  V30 9557 H 902.67 0.119314 -3.91918 0
M  V30 9558 H 904.16 1.10354 -4.02755 0
M  V30 9559 N 904.597 1.47463 -0.556102 0
M  V30 9560 C 905.837 2.04372 -0.0339743 0
M  V30 9561 C 906.201 1.42125 1.29091 0
M  V30 9562 O 907.402 1.90074 1.90066 0
M  V30 9563 C 905.673 3.57352 0.0585316 0
M  V30 9564 S 907.232 4.35625 0.526943 0
M  V30 9565 H 904.05 0.710574 -0.0246115 0
M  V30 9566 H 906.652 1.80848 -0.742585 0
M  V30 9567 H 905.356 4.00181 -0.910116 0
M  V30 9568 H 904.887 3.85371 0.790731 0
M  V30 9569 H 906.902 4.62911 1.78683 0
M  V30 9570 N 906.075 0.2925 1.54862 0
M  V30 9571 C 907.303 -0.322113 2.04377 0
M  V30 9572 C 907.718 -1.48164 1.17016 0
M  V30 9573 O 907.075 -1.81466 0.19395 0
M  V30 9574 C 907.126 -0.786506 3.5284 0
M  V30 9575 O 906.847 0.326863 4.36879 0
M  V30 9576 C 908.348 -1.46715 4.18318 0
M  V30 9577 H 905.568 -0.0712074 0.667211 0
M  V30 9578 H 908.112 0.429657 1.99935 0
M  V30 9579 H 906.267 -1.48832 3.5767 0
M  V30 9580 H 906.681 -0.0331558 5.2449 0
M  V30 9581 H 908.155 -1.74333 5.23748 0
M  V30 9582 H 908.632 -2.40443 3.67538 0
M  V30 9583 H 909.238 -0.808735 4.1754 0
M  V30 9584 N 907.553 -1.57587 0.0200696 0
M  V30 9585 C 908.783 -1.95435 -0.669991 0
M  V30 9586 C 909.191 -0.894647 -1.66711 0
M  V30 9587 O 908.534 0.133009 -1.83218 0
M  V30 9588 C 908.596 -3.29379 -1.44047 0
M  V30 9589 C 908.26 -4.53008 -0.602691 0
M  V30 9590 C 909.257 -5.19766 0.118188 0
M  V30 9591 C 906.942 -4.99359 -0.542754 0
M  V30 9592 C 908.936 -6.31187 0.887774 0
M  V30 9593 C 906.623 -6.10665 0.230543 0
M  V30 9594 C 907.621 -6.76438 0.944522 0
M  V30 9595 O 907.309 -7.85608 1.70516 0
M  V30 9596 H 907.041 -0.648681 -0.190234 0
M  V30 9597 H 909.595 -2.05269 0.0733838 0
M  V30 9598 H 907.825 -3.1601 -2.22878 0
M  V30 9599 H 909.514 -3.52194 -2.01777 0
M  V30 9600 H 910.28 -4.84932 0.0811604 0
M  V30 9601 H 906.159 -4.47976 -1.08804 0
M  V30 9602 H 909.703 -6.82458 1.44558 0
M  V30 9603 H 905.6 -6.44938 0.26932 0
M  V30 9604 H 906.368 -8.02228 1.62398 0
M  V30 9605 N 909.032 0.252966 -1.55557 0
M  V30 9606 C 909.962 1.31691 -1.9282 0
M  V30 9607 C 910.943 1.50516 -0.7924 0
M  V30 9608 O 912.128 1.63225 -1.05219 0
M  V30 9609 C 909.258 2.67281 -2.21762 0
M  V30 9610 C 908.212 2.6316 -3.37536 0
M  V30 9611 C 907.538 4.02488 -3.52005 0
M  V30 9612 C 908.838 2.20675 -4.73392 0
M  V30 9613 H 910.532 1.00751 -2.81939 0
M  V30 9614 H 908.078 0.483219 -1.3565 0
M  V30 9615 H 910.031 3.41842 -2.46419 0
M  V30 9616 H 908.755 2.99845 -1.29463 0
M  V30 9617 H 907.414 1.91057 -3.12878 0
M  V30 9618 H 907.062 4.32307 -2.57137 0
M  V30 9619 H 906.762 4.00621 -4.29857 0
M  V30 9620 H 908.286 4.78758 -3.78977 0
M  V30 9621 H 909.7 2.84965 -4.97461 0
M  V30 9622 H 908.097 2.29931 -5.54303 0
M  V30 9623 H 909.167 1.15831 -4.70862 0
M  V30 9624 N 910.51 1.48831 0.518367 0
M  V30 9625 C 911.473 1.63721 1.604 0
M  V30 9626 C 912.473 0.509857 1.52503 0
M  V30 9627 O 913.663 0.775922 1.55965 0
M  V30 9628 C 910.795 1.61831 3.00039 0
M  V30 9629 H 911.988 2.60534 1.48533 0
M  V30 9630 H 909.541 1.37602 0.741309 0
M  V30 9631 H 910.276 0.665387 3.17401 0
M  V30 9632 H 910.061 2.43686 3.0718 0
M  V30 9633 H 911.551 1.75467 3.78947 0
M  V30 9634 N 911.988 -0.768124 1.37614 0
M  V30 9635 C 913.213 -1.56239 1.36397 0
M  V30 9636 C 913.638 -1.8804 -0.0475839 0
M  V30 9637 O 912.996 -1.495 -1.02564 0
M  V30 9638 C 913.044 -2.84716 2.21289 0
M  V30 9639 O 912.148 -3.79249 1.62001 0
M  V30 9640 H 911.489 -0.473119 0.465891 0
M  V30 9641 H 914.019 -0.950415 1.81186 0
M  V30 9642 H 914.029 -3.33784 2.34632 0
M  V30 9643 H 912.704 -2.60899 3.2389 0
M  V30 9644 H 911.281 -3.37904 1.57719 0
M  V30 9645 N 913.466 -1.22244 -0.994698 0
M  V30 9646 C 914.416 -0.958244 -2.06886 0
M  V30 9647 C 915.4 0.0904481 -1.60646 0
M  V30 9648 O 916.592 -0.119837 -1.76594 0
M  V30 9649 C 913.721 -0.535944 -3.39091 0
M  V30 9650 C 912.807 -1.61927 -3.9197 0
M  V30 9651 N 913.198 -2.84659 -4.18094 0
M  V30 9652 C 911.496 -1.49053 -4.20356 0
M  V30 9653 C 912.197 -3.54697 -4.61048 0
M  V30 9654 N 911.173 -2.82164 -4.64634 0
M  V30 9655 H 914.975 -1.89056 -2.25022 0
M  V30 9656 H 912.489 -1.1197 -1.17629 0
M  V30 9657 H 914.486 -0.327997 -4.15608 0
M  V30 9658 H 913.146 0.38949 -3.22355 0
M  V30 9659 H 914.157 -3.21104 -4.06341 0
M  V30 9660 H 910.834 -0.631154 -4.12702 0
M  V30 9661 H 912.224 -4.59837 -4.89898 0
M  V30 9662 N 914.944 1.19125 -1.03184 0
M  V30 9663 C 915.874 2.24675 -0.635889 0
M  V30 9664 C 916.855 1.66321 0.356565 0
M  V30 9665 O 918.04 1.92728 0.238625 0
M  V30 9666 C 915.17 3.47298 0.011069 0
M  V30 9667 C 914.124 4.18345 -0.903979 0
M  V30 9668 C 913.45 5.34561 -0.12197 0
M  V30 9669 C 914.75 4.72816 -2.21907 0
M  V30 9670 H 916.444 2.5805 -1.51825 0
M  V30 9671 H 913.99 1.24039 -0.73146 0
M  V30 9672 H 915.943 4.20333 0.299729 0
M  V30 9673 H 914.667 3.13131 0.928245 0
M  V30 9674 H 913.326 3.47196 -1.17688 0
M  V30 9675 H 912.974 4.9664 0.797334 0
M  V30 9676 H 912.674 5.83029 -0.731498 0
M  V30 9677 H 914.198 6.10391 0.159881 0
M  V30 9678 H 915.612 5.3759 -1.99173 0
M  V30 9679 H 914.009 5.31782 -2.78078 0
M  V30 9680 H 915.079 3.9072 -2.87168 0
M  V30 9681 N 916.422 0.810101 1.35185 0
M  V30 9682 C 917.838 0.494269 1.51754 0
M  V30 9683 C 918.038 -0.983907 1.75845 0
M  V30 9684 O 917.094 -1.76882 1.80191 0
M  V30 9685 C 918.407 1.34268 2.69059 0
M  V30 9686 C 919.955 1.33848 2.82938 0
M  V30 9687 C 920.43 2.17109 4.03271 0
M  V30 9688 N 921.921 2.14664 4.10456 0
M  V30 9689 C 922.656 2.75843 5.02691 0
M  V30 9690 N 922.152 3.45962 6.00235 0
M  V30 9691 N 923.945 2.65465 4.95464 0
M  V30 9692 H 916.096 1.76736 1.17805 0
M  V30 9693 H 918.359 0.752429 0.576676 0
M  V30 9694 H 918.065 2.39183 2.57845 0
M  V30 9695 H 917.939 0.998362 3.63748 0
M  V30 9696 H 920.326 0.29716 2.936 0
M  V30 9697 H 920.407 1.72269 1.89095 0
M  V30 9698 H 920.051 3.21283 3.93369 0
M  V30 9699 H 919.981 1.76046 4.96302 0
M  V30 9700 H 922.472 1.63648 3.40628 0
M  V30 9701 H 922.785 3.89922 6.67219 0
M  V30 9702 H 921.13 3.50067 6.00398 0
M  V30 9703 H 924.321 2.1027 4.18215 0
M  V30 9704 H 924.494 3.13433 5.67154 0
M  V30 9705 N 917.9 -1.47166 0.563914 0
M  V30 9706 C 918.832 -2.28165 -0.217583 0
M  V30 9707 C 919.845 -1.37405 -0.873134 0
M  V30 9708 O 921.034 -1.6217 -0.745857 0
M  V30 9709 C 918.134 -3.11873 -1.32621 0
M  V30 9710 C 917.307 -4.30637 -0.766177 0
M  V30 9711 C 916.366 -4.95889 -1.76014 0
M  V30 9712 O 915.392 -5.54071 -1.3036 0
M  V30 9713 N 916.594 -4.91191 -3.09373 0
M  V30 9714 H 919.359 -2.95876 0.477256 0
M  V30 9715 H 916.92 -1.5687 0.40043 0
M  V30 9716 H 918.912 -3.52392 -1.99003 0
M  V30 9717 H 917.482 -2.46361 -1.92419 0
M  V30 9718 H 916.702 -3.94129 0.0745998 0
M  V30 9719 H 917.99 -5.07442 -0.371472 0
M  V30 9720 H 917.388 -4.45133 -3.49104 0
M  V30 9721 H 915.945 -5.35708 -3.71295 0
M  V30 9722 N 919.378 -0.300708 -1.54705 0
M  V30 9723 C 920.308 0.568675 -2.26469 0
M  V30 9724 C 921.289 1.13817 -1.26411 0
M  V30 9725 O 922.474 1.16756 -1.55183 0
M  V30 9726 C 919.604 1.74077 -3.00524 0
M  V30 9727 C 918.558 1.30165 -4.07727 0
M  V30 9728 C 917.884 2.55888 -4.69495 0
M  V30 9729 C 919.184 0.433106 -5.20501 0
M  V30 9730 H 920.878 -0.0298851 -2.99385 0
M  V30 9731 H 918.424 -0.0158135 -1.43991 0
M  V30 9732 H 920.377 2.35506 -3.49449 0
M  V30 9733 H 919.101 2.36556 -2.25186 0
M  V30 9734 H 917.76 0.710414 -3.59651 0
M  V30 9735 H 917.408 3.16681 -3.90797 0
M  V30 9736 H 917.108 2.27207 -5.41895 0
M  V30 9737 H 918.632 3.18121 -5.21183 0
M  V30 9738 H 920.046 0.95307 -5.65322 0
M  V30 9739 H 918.443 0.240085 -5.9962 0
M  V30 9740 H 919.513 -0.541866 -4.81863 0
M  V30 9741 N 920.856 1.57574 -0.0284266 0
M  V30 9742 C 922.104 1.91393 0.649079 0
M  V30 9743 C 922.425 0.905368 1.72708 0
M  V30 9744 O 921.695 -0.0532107 1.95828 0
M  V30 9745 H 920.275 0.70646 0.24274 0
M  V30 9746 H 922.937 1.94752 -0.076066 0
M  V30 9747 H 922.033 2.91988 1.10226 0
M  V30 9748 N 922.334 -0.244713 1.55689 0
M  V30 9749 C 923.574 -0.979776 1.79387 0
M  V30 9750 C 923.938 -1.8244 0.598298 0
M  V30 9751 O 925.139 -2.59141 0.7141 0
M  V30 9752 C 923.41 -1.81573 3.07841 0
M  V30 9753 S 924.969 -2.60959 3.52769 0
M  V30 9754 H 921.787 -0.329526 0.630027 0
M  V30 9755 H 924.389 -0.247435 1.93928 0
M  V30 9756 H 923.093 -1.18497 3.92921 0
M  V30 9757 H 922.624 -2.59078 2.96044 0
M  V30 9758 H 924.639 -3.83987 3.14275 0
M  V30 9759 N 923.813 -1.49104 -0.510467 0
M  V30 9760 C 925.038 -1.62068 -1.29417 0
M  V30 9761 C 925.463 -0.288432 -1.85875 0
M  V30 9762 O 924.821 0.742667 -1.65391 0
M  V30 9763 C 924.869 -2.68506 -2.40701 0
M  V30 9764 O 923.973 -2.27021 -3.4429 0
M  V30 9765 H 923.314 -0.542778 -0.382476 0
M  V30 9766 H 925.844 -1.95228 -0.612154 0
M  V30 9767 H 925.854 -2.90383 -2.86604 0
M  V30 9768 H 924.529 -3.65216 -1.98973 0
M  V30 9769 H 923.106 -2.15436 -3.04371 0
M  V30 9770 N 925.291 0.760815 -1.38019 0
M  V30 9771 C 926.702 1.33773 -1.30237 0
M  V30 9772 C 927.053 1.96148 0.0451153 0
M  V30 9773 O 926.178 1.94574 0.9471 0
M  V30 9774 C 926.773 2.43227 -2.35851 0
M  V30 9775 C 925.332 2.96659 -2.31669 0
M  V30 9776 C 924.479 1.69972 -2.191 0
M  V30 9777 H 927.43 0.560237 -1.48482 0
M  V30 9778 H 927.451 3.22985 -2.01149 0
M  V30 9779 H 926.963 1.978 -3.33911 0
M  V30 9780 H 925.064 3.46433 -1.37167 0
M  V30 9781 H 925.177 3.51529 -3.25521 0
M  V30 9782 H 923.541 1.9332 -1.65829 0
M  V30 9783 H 924.324 1.26633 -3.19091 0
M  V30 9784 N 926.769 1.22769 0.988202 0
M  V30 9785 C 928.046 0.9635 1.70223 0
M  V30 9786 C 928.426 -0.520102 2.04593 0
M  V30 9787 O 927.774 -1.48934 1.73295 0
M  V30 9788 C 927.984 1.86583 2.94937 0
M  V30 9789 C 929.332 2.12469 3.67616 0
M  V30 9790 O 930.356 1.84069 3.04954 0
M  V30 9791 O 929.215 2.60595 4.80367 0
M  V30 9792 H 926.309 0.362737 0.743203 0
M  V30 9793 H 928.855 1.33776 1.04412 0
M  V30 9794 H 927.627 2.86913 2.66077 0
M  V30 9795 H 927.25 1.49344 3.68486 0
M  V30 9796 N 928.247 -1.18576 1.03814 0
M  V30 9797 C 929.177 -2.24334 0.647795 0
M  V30 9798 C 930.158 -1.66508 -0.34774 0
M  V30 9799 O 931.343 -1.92852 -0.228401 0
M  V30 9800 C 928.473 -3.47299 0.00734922 0
M  V30 9801 C 927.427 -4.17859 0.926152 0
M  V30 9802 C 926.753 -5.34489 0.150317 0
M  V30 9803 C 928.053 -4.71632 2.24411 0
M  V30 9804 H 929.747 -2.57241 1.53191 0
M  V30 9805 H 927.293 -1.23649 0.738028 0
M  V30 9806 H 929.246 -4.20486 -0.277434 0
M  V30 9807 H 927.97 -3.13619 -0.911626 0
M  V30 9808 H 926.629 -3.46567 1.19528 0
M  V30 9809 H 926.277 -4.97056 -0.770985 0
M  V30 9810 H 925.977 -5.82633 0.762407 0
M  V30 9811 H 927.501 -6.10467 -0.127508 0
M  V30 9812 H 928.915 -5.36526 2.02021 0
M  V30 9813 H 927.312 -5.303 2.80894 0
M  V30 9814 H 928.382 -3.89192 2.89236 0
M  V30 9815 N 929.725 -0.817259 -1.34754 0
M  V30 9816 C 931.141 -0.502309 -1.51489 0
M  V30 9817 C 931.341 0.974568 -1.76364 0
M  V30 9818 O 930.397 1.75924 -1.81127 0
M  V30 9819 C 931.71 -1.35693 -2.68343 0
M  V30 9820 C 933.258 -1.35347 -2.82224 0
M  V30 9821 C 933.733 -2.19244 -4.02114 0
M  V30 9822 N 935.224 -2.16837 -4.09311 0
M  V30 9823 C 935.959 -2.78505 -5.01221 0
M  V30 9824 N 935.455 -3.4914 -5.98392 0
M  V30 9825 N 937.248 -2.68089 -4.94049 0
M  V30 9826 H 929.399 -1.77359 -1.16866 0
M  V30 9827 H 931.662 -0.755476 -0.572678 0
M  V30 9828 H 931.368 -2.40548 -2.56573 0
M  V30 9829 H 931.242 -1.01764 -3.63213 0
M  V30 9830 H 933.629 -0.312727 -2.93438 0
M  V30 9831 H 933.71 -1.7327 -1.88179 0
M  V30 9832 H 933.354 -3.23365 -3.9166 0
M  V30 9833 H 933.284 -1.78675 -4.95361 0
M  V30 9834 H 935.775 -1.65452 -3.39756 0
M  V30 9835 H 936.088 -3.93455 -6.65141 0
M  V30 9836 H 934.433 -3.53246 -5.98533 0
M  V30 9837 H 937.624 -2.12485 -4.17094 0
M  V30 9838 H 937.797 -3.16436 -5.65484 0
M  V30 9839 N 931.203 1.46865 -0.571711 0
M  V30 9840 C 932.135 2.28277 0.205479 0
M  V30 9841 C 933.148 1.37866 0.865835 0
M  V30 9842 O 934.337 1.62564 0.737247 0
M  V30 9843 C 931.437 3.12572 1.30965 0
M  V30 9844 C 930.61 4.31038 0.743328 0
M  V30 9845 C 929.669 4.96815 1.73382 0
M  V30 9846 O 928.695 5.54755 1.2742 0
M  V30 9847 N 929.897 4.92825 3.06764 0
M  V30 9848 H 932.662 2.95618 -0.49294 0
M  V30 9849 H 930.223 1.56655 -0.408744 0
M  V30 9850 H 932.215 3.53442 1.97131 0
M  V30 9851 H 930.785 2.47378 1.91109 0
M  V30 9852 H 930.005 3.94084 -0.0955004 0
M  V30 9853 H 931.293 5.07632 0.344556 0
M  V30 9854 H 930.691 4.46978 3.46738 0
M  V30 9855 H 929.248 5.3767 3.68449 0
M  V30 9856 N 932.681 0.308908 1.54543 0
M  V30 9857 C 934.097 -0.0442273 1.59539 0
M  V30 9858 C 934.297 -1.51743 1.32575 0
M  V30 9859 O 933.353 -2.27134 1.10302 0
M  V30 9860 C 934.666 0.360826 2.98527 0
M  V30 9861 C 936.214 0.310252 3.11459 0
M  V30 9862 C 936.689 0.690246 4.52769 0
M  V30 9863 N 938.18 0.643084 4.58714 0
M  V30 9864 C 938.915 0.909483 5.66141 0
M  V30 9865 N 938.411 1.24226 6.81572 0
M  V30 9866 N 940.204 0.836018 5.55848 0
M  V30 9867 H 932.355 1.26893 1.70329 0
M  V30 9868 H 934.618 0.514986 0.795923 0
M  V30 9869 H 934.324 1.38669 3.23209 0
M  V30 9870 H 934.198 -0.281563 3.76148 0
M  V30 9871 H 936.585 -0.706375 2.86521 0
M  V30 9872 H 936.666 0.987373 2.35976 0
M  V30 9873 H 936.31 1.70472 4.78437 0
M  V30 9874 H 936.24 -0.00903075 5.26599 0
M  V30 9875 H 938.731 0.397138 3.75807 0
M  V30 9876 H 939.044 1.4313 7.5943 0
M  V30 9877 H 937.389 1.28038 6.83104 0
M  V30 9878 H 940.58 0.575637 4.64547 0
M  V30 9879 H 940.753 1.047 6.39486 0
M  V30 9880 N 934.159 -1.57557 0.0367827 0
M  V30 9881 C 935.089 -2.13712 -0.940719 0
M  V30 9882 C 936.07 -1.05515 -1.33419 0
M  V30 9883 O 937.255 -1.33385 -1.41146 0
M  V30 9884 C 934.385 -2.67043 -2.22048 0
M  V30 9885 C 933.339 -3.80096 -1.96752 0
M  V30 9886 C 932.665 -4.19886 -3.31059 0
M  V30 9887 C 933.965 -5.05848 -1.30058 0
M  V30 9888 H 935.659 -2.9564 -0.473033 0
M  V30 9889 H 933.205 -1.42214 -0.226089 0
M  V30 9890 H 935.158 -3.04964 -2.90818 0
M  V30 9891 H 933.882 -1.82287 -2.70996 0
M  V30 9892 H 932.541 -3.42625 -1.30398 0
M  V30 9893 H 932.189 -3.32101 -3.77781 0
M  V30 9894 H 931.889 -4.96073 -3.14937 0
M  V30 9895 H 933.413 -4.60395 -4.01084 0
M  V30 9896 H 934.827 -5.41306 -1.8884 0
M  V30 9897 H 933.224 -5.87084 -1.24309 0
M  V30 9898 H 934.294 -4.84122 -0.274591 0
M  V30 9899 N 935.637 0.236453 -1.55816 0
M  V30 9900 C 937.053 0.585465 -1.48474 0
M  V30 9901 C 937.253 1.8785 -0.72902 0
M  V30 9902 O 936.309 2.51131 -0.262614 0
M  V30 9903 C 937.622 0.678506 -2.92945 0
M  V30 9904 C 939.17 0.770135 -3.03378 0
M  V30 9905 C 939.645 0.894649 -4.49177 0
M  V30 9906 N 941.136 0.959253 -4.53158 0
M  V30 9907 C 941.871 1.07505 -5.63232 0
M  V30 9908 N 941.367 1.15572 -6.83092 0
M  V30 9909 N 943.16 1.10902 -5.51051 0
M  V30 9910 H 935.311 -0.612241 -2.03385 0
M  V30 9911 H 937.574 -0.212796 -0.923808 0
M  V30 9912 H 937.28 -0.201757 -3.51121 0
M  V30 9913 H 937.154 1.54703 -3.44016 0
M  V30 9914 H 939.541 1.64085 -2.45276 0
M  V30 9915 H 939.622 -0.123753 -2.555 0
M  V30 9916 H 939.266 0.0284537 -5.07892 0
M  V30 9917 H 939.196 1.80373 -4.94745 0
M  V30 9918 H 941.687 0.907827 -3.66834 0
M  V30 9919 H 942 1.24343 -7.62731 0
M  V30 9920 H 940.345 1.12511 -6.85833 0
M  V30 9921 H 943.536 1.04255 -4.56343 0
M  V30 9922 H 943.709 1.19581 -6.36871 0
M  V30 9923 N 937.115 1.49373 0.502552 0
M  V30 9924 C 938.345 1.62252 1.27898 0
M  V30 9925 C 938.753 0.292555 1.86924 0
M  V30 9926 O 938.096 -0.731823 1.68493 0
M  V30 9927 C 938.158 2.63153 2.4493 0
M  V30 9928 C 937.822 4.07541 2.06784 0
M  V30 9929 C 938.819 4.94392 1.60849 0
M  V30 9930 C 936.504 4.53263 2.16466 0
M  V30 9931 C 938.498 6.25003 1.25098 0
M  V30 9932 C 936.185 5.83888 1.80327 0
M  V30 9933 C 937.183 6.69582 1.34718 0
M  V30 9934 O 936.871 7.97773 0.990661 0
M  V30 9935 H 936.603 0.54918 0.394179 0
M  V30 9936 H 939.157 1.96132 0.610031 0
M  V30 9937 H 937.387 2.2445 3.14895 0
M  V30 9938 H 939.076 2.65578 3.06957 0
M  V30 9939 H 939.842 4.60296 1.52816 0
M  V30 9940 H 935.721 3.86731 2.50919 0
M  V30 9941 H 939.265 6.91844 0.894269 0
M  V30 9942 H 935.162 6.17513 1.8801 0
M  V30 9943 H 935.93 8.1077 1.12227 0
M  V30 9944 N 938.594 -0.753485 1.38421 0
M  V30 9945 C 939.557 -1.84888 1.35459 0
M  V30 9946 C 940.557 -1.58764 0.255083 0
M  V30 9947 O 941.747 -1.66507 0.511978 0
M  V30 9948 C 938.879 -3.22361 1.10888 0
M  V30 9949 H 940.072 -1.88922 2.32913 0
M  V30 9950 H 937.625 -0.955199 1.23716 0
M  V30 9951 H 938.36 -3.23996 0.1404 0
M  V30 9952 H 938.145 -3.42717 1.90492 0
M  V30 9953 H 939.635 -4.02437 1.1151 0
M  V30 9954 N 940.072 -1.23292 -0.981677 0
M  V30 9955 C 941.002 -1.03738 -2.09191 0
M  V30 9956 C 941.983 0.0453041 -1.7004 0
M  V30 9957 O 943.168 -0.119092 -1.93834 0
M  V30 9958 C 940.298 -0.626426 -3.41604 0
M  V30 9959 C 939.252 -1.65631 -3.94652 0
M  V30 9960 C 938.578 -1.10084 -5.23245 0
M  V30 9961 C 939.878 -3.04903 -4.24066 0
M  V30 9962 H 941.572 -1.966 -2.25807 0
M  V30 9963 H 939.118 -0.946656 -1.0851 0
M  V30 9964 H 941.071 -0.476689 -4.18695 0
M  V30 9965 H 939.795 0.337873 -3.24848 0
M  V30 9966 H 938.454 -1.79402 -3.19704 0
M  V30 9967 H 938.102 -0.127562 -5.02838 0
M  V30 9968 H 937.802 -1.78896 -5.59705 0
M  V30 9969 H 939.326 -0.962928 -6.02959 0
M  V30 9970 H 940.74 -2.94441 -4.91912 0
M  V30 9971 H 939.137 -3.70941 -4.71724 0
M  V30 9972 H 940.207 -3.53991 -3.31389 0
M  V30 9973 N 941.55 1.18024 -1.04442 0
M  V30 9974 C 942.966 1.40107 -0.76435 0
M  V30 9975 C 943.166 1.90914 0.644516 0
M  V30 9976 O 942.222 2.0959 1.40813 0
M  V30 9977 C 943.535 2.39851 -1.81361 0
M  V30 9978 C 945.083 2.53571 -1.83496 0
M  V30 9979 C 945.558 3.56583 -2.87424 0
M  V30 9980 N 947.049 3.64094 -2.86339 0
M  V30 9981 C 947.784 4.43537 -3.63405 0
M  V30 9982 N 947.28 5.26557 -4.50233 0
M  V30 9983 N 949.073 4.38336 -3.51877 0
M  V30 9984 H 941.224 0.833726 -1.95353 0
M  V30 9985 H 943.487 0.42881 -0.845474 0
M  V30 9986 H 943.193 2.09576 -2.82438 0
M  V30 9987 H 943.067 3.39251 -1.6489 0
M  V30 9988 H 945.454 2.83161 -0.830883 0
M  V30 9989 H 945.535 1.54272 -2.04044 0
M  V30 9990 H 945.179 3.27733 -3.88012 0
M  V30 9991 H 945.109 4.55569 -2.6413 0
M  V30 9992 H 947.6 3.04814 -2.23376 0
M  V30 9993 H 947.913 5.84336 -5.05738 0
M  V30 9994 H 946.258 5.25964 -4.54298 0
M  V30 9995 H 949.449 3.72528 -2.83444 0
M  V30 9996 H 949.622 5.00007 -4.12186 0
M  V30 9997 N 943.028 0.824394 1.34319 0
M  V30 9998 C 943.958 0.262077 2.32025 0
M  V30 9999 C 944.939 -0.622277 1.58309 0
M  V30 10000 O 946.124 -0.548848 1.86283 0
M  V30 10001 C 943.254 -0.57567 3.42496 0
M  V30 10002 C 942.208 0.21167 4.27476 0
M  V30 10003 C 941.534 -0.748913 5.29429 0
M  V30 10004 C 942.834 1.42068 5.02607 0
M  V30 10005 H 944.528 1.07842 2.79304 0
M  V30 10006 H 942.074 0.520022 1.34282 0
M  V30 10007 H 944.027 -0.979251 4.09864 0
M  V30 10008 H 942.751 -1.42508 2.93869 0
M  V30 10009 H 941.41 0.596636 3.61712 0
M  V30 10010 H 941.058 -1.59432 4.77064 0
M  V30 10011 H 940.758 -0.226313 5.87164 0
M  V30 10012 H 942.282 -1.15032 5.99667 0
M  V30 10013 H 943.696 1.09103 5.62823 0
M  V30 10014 H 942.093 1.87903 5.69923 0
M  V30 10015 H 943.163 2.1981 4.32217 0
M  V30 10016 N 944.506 -1.46559 0.579492 0
M  V30 10017 C 945.436 -2.33059 -0.143437 0
M  V30 10018 C 946.417 -1.4515 -0.886868 0
M  V30 10019 O 947.602 -1.73973 -0.862961 0
M  V30 10020 C 944.732 -3.27364 -1.15973 0
M  V30 10021 C 943.686 -4.24689 -0.531348 0
M  V30 10022 C 943.012 -5.08479 -1.65388 0
M  V30 10023 C 944.312 -5.1961 0.529391 0
M  V30 10024 H 946.006 -2.93753 0.578762 0
M  V30 10025 H 943.552 -1.41256 0.279775 0
M  V30 10026 H 945.505 -3.86732 -1.67382 0
M  V30 10027 H 944.229 -2.64771 -1.91217 0
M  V30 10028 H 942.888 -3.6658 -0.0383749 0
M  V30 10029 H 942.536 -4.42273 -2.3959 0
M  V30 10030 H 942.236 -5.74387 -1.23909 0
M  V30 10031 H 943.76 -5.70709 -2.17079 0
M  V30 10032 H 945.174 -5.73212 0.100506 0
M  V30 10033 H 943.571 -5.93843 0.86432 0
M  V30 10034 H 944.641 -4.63737 1.4169 0
M  V30 10035 N 945.984 -0.3171 -1.54377 0
M  V30 10036 C 947.4 0.035766 -1.5956 0
M  V30 10037 C 947.6 1.51038 -1.33378 0
M  V30 10038 O 946.656 2.26546 -1.11505 0
M  V30 10039 C 947.969 -0.376652 -2.98332 0
M  V30 10040 C 949.517 -0.326765 -3.1129 0
M  V30 10041 C 949.992 -0.714247 -4.52396 0
M  V30 10042 N 951.483 -0.667402 -4.58367 0
M  V30 10043 C 952.218 -0.939494 -5.65651 0
M  V30 10044 N 951.714 -1.27839 -6.80903 0
M  V30 10045 N 953.507 -0.865484 -5.55397 0
M  V30 10046 H 945.658 -1.27794 -1.69654 0
M  V30 10047 H 947.921 -0.5192 -0.79318 0
M  V30 10048 H 947.627 -1.40381 -3.22469 0
M  V30 10049 H 947.501 0.261611 -3.76292 0
M  V30 10050 H 949.888 0.69117 -2.86892 0
M  V30 10051 H 949.969 -0.999873 -2.35449 0
M  V30 10052 H 949.613 -1.73007 -4.77526 0
M  V30 10053 H 949.543 -0.0188962 -5.26597 0
M  V30 10054 H 952.034 -0.417062 -3.75592 0
M  V30 10055 H 952.347 -1.47155 -7.5866 0
M  V30 10056 H 950.692 -1.31658 -6.82416 0
M  V30 10057 H 953.883 -0.600265 -4.64235 0
M  V30 10058 H 954.056 -1.0809 -6.38921 0
M  V30 10059 N 947.462 1.57535 -0.0451378 0
M  V30 10060 C 948.739 1.83785 0.669523 0
M  V30 10061 C 949.119 0.932331 1.89396 0
M  V30 10062 O 948.467 -0.00813229 2.28499 0
M  V30 10063 C 948.677 3.33376 1.03255 0
M  V30 10064 C 950.025 4.00243 1.41741 0
M  V30 10065 O 951.049 3.37965 1.12507 0
M  V30 10066 O 949.908 5.10038 1.96275 0
M  V30 10067 H 947.002 0.758342 0.329919 0
M  V30 10068 H 949.548 1.69538 -0.0740415 0
M  V30 10069 H 948.32 3.90965 0.161777 0
M  V30 10070 H 947.943 3.52787 1.83376 0
M  V30 10071 N 948.94 -0.228186 1.55939 0
M  V30 10072 C 950.356 -0.577583 1.48782 0
M  V30 10073 C 950.556 -1.87461 0.738972 0
M  V30 10074 O 949.612 -2.50988 0.275929 0
M  V30 10075 C 950.925 -0.662961 2.93301 0
M  V30 10076 C 952.473 -0.754035 3.03782 0
M  V30 10077 C 952.948 -0.870815 4.49645 0
M  V30 10078 N 954.439 -0.935208 4.53661 0
M  V30 10079 C 955.174 -1.04516 5.63794 0
M  V30 10080 N 954.67 -1.11948 6.83696 0
M  V30 10081 N 956.463 -1.07978 5.51631 0
M  V30 10082 H 948.614 0.623018 2.03057 0
M  V30 10083 H 950.877 0.217692 0.922667 0
M  V30 10084 H 950.583 0.220375 3.51009 0
M  V30 10085 H 950.457 -1.52876 3.44831 0
M  V30 10086 H 952.844 -1.62782 2.46143 0
M  V30 10087 H 952.925 0.137301 2.55431 0
M  V30 10088 H 952.569 -0.0015186 5.079 0
M  V30 10089 H 952.499 -1.77747 4.95695 0
M  V30 10090 H 954.99 -0.88836 3.6731 0
M  V30 10091 H 955.303 -1.20297 7.6338 0
M  V30 10092 H 953.648 -1.08873 6.8642 0
M  V30 10093 H 956.839 -1.01833 4.56889 0
M  V30 10094 H 957.012 -1.16202 6.37496 0
M  V30 10095 N 950.418 -1.49637 -0.494624 0
M  V30 10096 C 951.643 -1.63431 -1.27691 0
M  V30 10097 C 952.068 -0.30813 -1.85559 0
M  V30 10098 O 951.426 0.725083 -1.66169 0
M  V30 10099 C 951.474 -2.71043 -2.3784 0
M  V30 10100 O 950.578 -2.3066 -3.41862 0
M  V30 10101 H 949.919 -0.546804 -0.376698 0
M  V30 10102 H 952.449 -1.95866 -0.591413 0
M  V30 10103 H 952.459 -2.93406 -2.83508 0
M  V30 10104 H 951.134 -3.67306 -1.95088 0
M  V30 10105 H 949.711 -2.18652 -3.02069 0
M  V30 10106 N 951.896 0.746133 -1.38819 0
M  V30 10107 C 953.307 1.32384 -1.31648 0
M  V30 10108 C 953.658 1.96185 0.0243086 0
M  V30 10109 O 952.783 1.95567 0.92641 0
M  V30 10110 C 953.378 2.40712 -2.38418 0
M  V30 10111 C 951.937 2.94185 -2.34803 0
M  V30 10112 C 951.084 1.67639 -2.20891 0
M  V30 10113 H 954.035 0.544457 -1.49068 0
M  V30 10114 H 954.056 3.20833 -2.04564 0
M  V30 10115 H 953.568 1.94247 -3.3599 0
M  V30 10116 H 951.669 3.44959 -1.40834 0
M  V30 10117 H 951.782 3.48057 -3.29231 0
M  V30 10118 H 950.146 1.9155 -1.67871 0
M  V30 10119 H 950.929 1.23242 -3.20416 0
M  V30 10120 N 953.375 1.23811 0.975125 0
M  V30 10121 C 954.338 1.02505 2.05001 0
M  V30 10122 C 955.338 -0.0150084 1.60793 0
M  V30 10123 O 956.528 0.225246 1.72738 0
M  V30 10124 C 953.66 0.552087 3.364 0
M  V30 10125 H 954.853 1.979 2.25335 0
M  V30 10126 H 952.406 1.05929 1.1493 0
M  V30 10127 H 953.141 -0.405394 3.21756 0
M  V30 10128 H 952.926 1.30267 3.69828 0
M  V30 10129 H 954.416 0.423828 4.15444 0
M  V30 10130 O 954.892 -1.10713 1.17579 0
M  V30 10131 H 955.583 -1.70774 0.914101 0
M  V30 END ATOM
M  V30 BEGIN BOND
M  V30 END BOND
M  V30 END CTAB
M  END
$$$$
