drugbank_target|Q92993 Histone acetyltransferase KAT5 (DB01992; DB02039)
 OpenBabel12092120553D

  0  0  0     0  0            999 V3000
M  V30 BEGIN CTAB
M  V30 COUNTS 8265 8362 0 0 0
M  V30 BEGIN ATOM
M  V30 1 H -0.908 1.98254 -0.117106 0
M  V30 2 N 0 1.576 0 0
M  V30 3 C 0.933 2.03868 1.02534 0
M  V30 4 C 1.911 0.928543 1.3348 0
M  V30 5 O 3.095 1.19667 1.45644 0
M  V30 6 C 0.222 2.43627 2.35294 0
M  V30 7 C -0.732 3.65373 2.2001 0
M  V30 8 S 0.101 5.13292 1.52614 0
M  V30 9 C 1.257 5.56322 2.86805 0
M  V30 10 H 1.49 2.90518 0.631377 0
M  V30 11 H -0.977 1.52953 0.210867 0
M  V30 12 H 0.981 2.67203 3.11629 0
M  V30 13 H -0.358 1.57376 2.7183 0
M  V30 14 H -1.165 3.90944 3.18086 0
M  V30 15 H -1.563 3.418 1.51819 0
M  V30 16 H 0.729 5.58782 3.83104 0
M  V30 17 H 1.672 6.56266 2.65933 0
M  V30 18 H 2.08 4.83886 2.90714 0
M  V30 19 N 1.4781 -0.272755 1.55222 0
M  V30 20 C 2.4411 -1.32041 1.87344 0
M  V30 21 C 3.4411 -1.42342 0.74803 0
M  V30 22 O 4.6311 -1.41488 1.0162 0
M  V30 23 C 1.7631 -2.70173 2.07893 0
M  V30 24 H 2.9561 -1.04789 2.80997 0
M  V30 25 H 0.5091 -0.51083 1.47717 0
M  V30 26 H 1.2441 -3.02605 1.16622 0
M  V30 27 H 1.0291 -2.64082 2.89833 0
M  V30 28 H 2.5191 -3.45869 2.34017 0
M  V30 29 N 2.9562 -1.48159 -0.537278 0
M  V30 30 C 3.8662 -1.64807 -1.6696 0
M  V30 31 C 4.8822 -0.530651 -1.65711 0
M  V30 32 O 6.0582 -0.800784 -1.84796 0
M  V30 33 C 3.1232 -1.67708 -3.03438 0
M  V30 34 C 2.1842 -2.91025 -3.156 0
M  V30 35 C 1.4172 -2.93778 -4.45567 0
M  V30 36 O 1.6402 -2.05153 -5.3223 0
M  V30 37 O 0.5742 -3.85868 -4.61941 0
M  V30 38 H 4.4002 -2.6066 -1.55853 0
M  V30 39 H 1.9852 -1.31475 -0.709549 0
M  V30 40 H 3.8672 -1.7218 -3.84619 0
M  V30 41 H 2.5422 -0.750278 -3.14885 0
M  V30 42 H 1.4492 -2.92089 -2.33741 0
M  V30 43 H 2.7822 -3.83065 -3.09066 0
M  V30 44 N 4.4343 0.785586 -1.36625 0
M  V30 45 C 5.6803 1.54591 -1.31261 0
M  V30 46 C 6.0133 1.93906 0.106823 0
M  V30 47 O 5.2883 1.63007 1.06108 0
M  V30 48 C 5.5713 2.82038 -2.23889 0
M  V30 49 C 5.4243 2.49066 -3.74548 0
M  V30 50 C 6.7433 3.83887 -2.15217 0
M  V30 51 H 3.8623 0.560846 -0.478143 0
M  V30 52 H 6.5043 0.902278 -1.67209 0
M  V30 53 H 4.6543 3.36961 -1.93363 0
M  V30 54 H 6.3263 2.00164 -4.15611 0
M  V30 55 H 4.5693 1.81954 -3.93796 0
M  V30 56 H 5.2403 3.40109 -4.34776 0
M  V30 57 H 7.7163 3.38421 -2.42096 0
M  V30 58 H 6.5923 4.70806 -2.82193 0
M  V30 59 H 6.8533 4.27131 -1.14068 0
M  V30 60 N 5.9124 1.20967 1.01018 0
M  V30 61 C 7.1604 1.02172 1.74371 0
M  V30 62 C 7.4814 -0.446414 1.89821 0
M  V30 63 O 6.7514 -1.32234 1.44537 0
M  V30 64 H 5.3314 0.375066 0.646014 0
M  V30 65 H 7.9934 1.52187 1.21758 0
M  V30 66 H 7.0894 1.48538 2.74487 0
M  V30 67 N 7.3905 -1.2043 1.01659 0
M  V30 68 C 8.3005 -2.2689 0.596484 0
M  V30 69 C 9.3165 -1.70107 -0.36599 0
M  V30 70 O 10.4925 -2.00117 -0.226942 0
M  V30 71 C 7.5575 -3.4665 -0.0586659 0
M  V30 72 C 6.6185 -4.18662 0.949751 0
M  V30 73 C 5.8515 -5.32705 0.32577 0
M  V30 74 O 6.0745 -5.63656 -0.874509 0
M  V30 75 O 5.0085 -5.92803 1.04249 0
M  V30 76 H 8.8345 -2.65041 1.4828 0
M  V30 77 H 6.4195 -1.27048 0.786082 0
M  V30 78 H 8.3015 -4.19256 -0.424564 0
M  V30 79 H 6.9765 -3.10375 -0.91918 0
M  V30 80 H 5.8835 -3.48229 1.36702 0
M  V30 81 H 7.2165 -4.58878 1.78023 0
M  V30 82 N 8.8686 -0.792821 -1.36206 0
M  V30 83 C 10.1176 -0.363353 -1.984 0
M  V30 84 C 10.4306 1.07172 -1.63626 0
M  V30 85 O 11.6366 1.60362 -2.19081 0
M  V30 86 C 10.0926 -0.59872 -3.54885 0
M  V30 87 C 9.7006 -2.04543 -3.9858 0
M  V30 88 C 11.4446 -0.233926 -4.23855 0
M  V30 89 C 9.3516 -2.22727 -5.47856 0
M  V30 90 H 8.2816 -0.13212 -0.742334 0
M  V30 91 H 10.9326 -0.974935 -1.55458 0
M  V30 92 H 9.3146 0.0826222 -3.95914 0
M  V30 93 H 10.4886 -2.76345 -3.68741 0
M  V30 94 H 8.8036 -2.36879 -3.42458 0
M  V30 95 H 11.4006 -0.348027 -5.33566 0
M  V30 96 H 11.7436 0.818351 -4.08177 0
M  V30 97 H 12.2766 -0.868639 -3.882 0
M  V30 98 H 9.0156 -3.2635 -5.68486 0
M  V30 99 H 8.5356 -1.55434 -5.7931 0
M  V30 100 H 10.2146 -2.03607 -6.14128 0
M  V30 101 N 10.3467 1.47872 -0.545128 0
M  V30 102 C 11.5957 2.01695 -0.0145033 0
M  V30 103 C 11.9087 1.42609 1.33873 0
M  V30 104 O 13.1147 1.88021 1.95858 0
M  V30 105 C 11.5707 3.59892 0.0245068 0
M  V30 106 C 11.1787 4.27966 -1.32475 0
M  V30 107 C 12.9227 4.21507 0.50316 0
M  V30 108 C 10.8297 5.78136 -1.2455 0
M  V30 109 H 9.7597 0.753998 -0.00165172 0
M  V30 110 H 12.4107 1.69985 -0.691175 0
M  V30 111 H 10.7927 3.88509 0.766575 0
M  V30 112 H 11.9667 4.11003 -2.08357 0
M  V30 113 H 10.2817 3.78286 -1.74036 0
M  V30 114 H 12.8787 5.31538 0.580656 0
M  V30 115 H 13.2217 3.87855 1.51243 0
M  V30 116 H 13.7547 3.97376 -0.183681 0
M  V30 117 H 10.4937 6.16388 -2.23039 0
M  V30 118 H 10.0137 5.97469 -0.528282 0
M  V30 119 H 11.6927 6.40099 -0.942488 0
M  V30 120 N 11.8248 0.280983 1.55075 0
M  V30 121 C 12.7348 -0.61388 2.26426 0
M  V30 122 C 13.7508 -1.16521 1.29224 0
M  V30 123 O 14.9268 -1.19426 1.62171 0
M  V30 124 C 11.9918 -1.7788 2.9759 0
M  V30 125 C 11.0528 -1.26355 4.10284 0
M  V30 126 C 10.2858 -2.37295 4.78045 0
M  V30 127 O 10.5088 -3.56777 4.45047 0
M  V30 128 O 9.4428 -2.05119 5.65871 0
M  V30 129 H 13.2688 -0.0356932 3.03679 0
M  V30 130 H 10.8538 0.0481686 1.49322 0
M  V30 131 H 12.7358 -2.45791 3.42293 0
M  V30 132 H 11.4108 -2.34397 2.23249 0
M  V30 133 H 10.3178 -0.550735 3.70024 0
M  V30 134 H 11.6508 -0.744065 4.86543 0
M  V30 135 N 13.3029 -1.57598 0.00835791 0
M  V30 136 C 14.5509 -1.90551 -0.6734 0
M  V30 137 C 14.8719 -0.883301 -1.73847 0
M  V30 138 O 14.1419 0.0781442 -1.95744 0
M  V30 139 H 12.7219 -0.703312 -0.251717 0
M  V30 140 H 15.3839 -1.94833 0.0512592 0
M  V30 141 H 14.4799 -2.9056 -1.13935 0
M  V30 142 N 14.781 0.264519 -1.55364 0
M  V30 143 C 16.021 1.00254 -1.78125 0
M  V30 144 C 16.385 1.83187 -0.575017 0
M  V30 145 O 17.586 2.60029 -0.681042 0
M  V30 146 C 15.857 1.85478 -3.05504 0
M  V30 147 S 17.416 2.6543 -3.49417 0
M  V30 148 H 14.234 0.337522 -0.625779 0
M  V30 149 H 16.836 0.272111 -1.93597 0
M  V30 150 H 15.54 1.23491 -3.9138 0
M  V30 151 H 15.071 2.62827 -2.92721 0
M  V30 152 H 17.086 3.87958 -3.09359 0
M  V30 153 N 16.2591 1.48442 0.529413 0
M  V30 154 C 17.6751 1.34575 0.858004 0
M  V30 155 C 17.8751 0.3572 1.98309 0
M  V30 156 O 16.9311 -0.221379 2.51528 0
M  V30 157 C 18.2441 2.74617 1.22499 0
M  V30 158 C 19.7921 2.83109 1.33484 0
M  V30 159 C 20.2671 4.23854 1.73526 0
M  V30 160 N 21.7581 4.2653 1.80628 0
M  V30 161 C 22.4931 5.32372 2.12997 0
M  V30 162 N 21.9891 6.48491 2.43786 0
M  V30 163 N 23.7821 5.19766 2.14008 0
M  V30 164 H 15.9331 2.1133 -0.212925 0
M  V30 165 H 18.1961 0.947439 -0.0326199 0
M  V30 166 H 17.9021 3.4852 0.471905 0
M  V30 167 H 17.7761 3.08177 2.17501 0
M  V30 168 H 20.1631 2.09462 2.0787 0
M  V30 169 H 20.2441 2.53168 0.366027 0
M  V30 170 H 19.8881 4.98018 0.997013 0
M  V30 171 H 19.8181 4.5124 2.71459 0
M  V30 172 H 22.3091 3.42772 1.59108 0
M  V30 173 H 22.6221 7.24993 2.67592 0
M  V30 174 H 20.9671 6.51765 2.41304 0
M  V30 175 H 24.1581 4.28066 1.89412 0
M  V30 176 H 24.3311 6.02354 2.38902 0
M  V30 177 N 17.7372 -0.778329 1.37039 0
M  V30 178 C 18.6672 -1.90546 1.34962 0
M  V30 179 C 19.6482 -1.68681 0.219274 0
M  V30 180 O 20.8332 -1.89634 0.418624 0
M  V30 181 C 17.9632 -3.27734 1.14925 0
M  V30 182 C 16.9172 -3.64147 2.24902 0
M  V30 183 C 16.2432 -4.99806 1.89996 0
M  V30 184 C 17.5432 -3.71579 3.67051 0
M  V30 185 H 19.2372 -1.92541 2.29277 0
M  V30 186 H 16.7832 -0.924948 1.10366 0
M  V30 187 H 18.7362 -4.06215 1.12104 0
M  V30 188 H 17.4602 -3.26154 0.170631 0
M  V30 189 H 16.1192 -2.8797 2.26868 0
M  V30 190 H 15.7672 -4.94759 0.906796 0
M  V30 191 H 15.4672 -5.25139 2.63634 0
M  V30 192 H 16.9912 -5.80694 1.88749 0
M  V30 193 H 18.4052 -4.40227 3.67251 0
M  V30 194 H 16.8022 -4.08405 4.39688 0
M  V30 195 H 17.8722 -2.72404 4.01154 0
M  V30 196 N 19.2153 -1.21501 -1.00376 0
M  V30 197 C 20.6263 -1.03146 -1.55621 0
M  V30 198 C 20.9773 0.408375 -1.91903 0
M  V30 199 O 20.1023 1.29177 -1.73616 0
M  V30 200 C 20.6973 -1.86612 -2.82775 0
M  V30 201 C 19.2563 -1.72586 -3.34501 0
M  V30 202 C 18.4033 -1.83747 -2.07683 0
M  V30 203 H 21.3543 -1.35505 -0.826081 0
M  V30 204 H 21.3753 -1.3771 -3.54706 0
M  V30 205 H 20.8873 -2.91399 -2.56336 0
M  V30 206 H 18.9883 -0.704877 -3.65872 0
M  V30 207 H 19.1013 -2.54623 -4.05837 0
M  V30 208 H 17.4653 -1.27069 -2.20739 0
M  V30 209 H 18.2483 -2.90044 -1.83655 0
M  V30 210 N 20.6934 1.19889 -1.02296 0
M  V30 211 C 21.9394 1.89701 -0.717033 0
M  V30 212 C 22.2724 1.7905 0.751989 0
M  V30 213 O 21.5474 1.17891 1.547 0
M  V30 214 C 21.8304 3.40858 -1.16136 0
M  V30 215 C 21.6834 3.60411 -2.69117 0
M  V30 216 C 23.0024 4.33876 -0.737549 0
M  V30 217 H 20.1214 0.688874 -0.261957 0
M  V30 218 H 22.7634 1.41154 -1.27183 0
M  V30 219 H 20.9134 3.82335 -0.689342 0
M  V30 220 H 22.5854 3.28145 -3.2422 0
M  V30 221 H 20.8284 3.03665 -3.0979 0
M  V30 222 H 21.4994 4.66396 -2.95261 0
M  V30 223 H 23.9754 4.00081 -1.14344 0
M  V30 224 H 22.8514 5.38242 -1.0764 0
M  V30 225 H 23.1124 4.40628 0.360436 0
M  V30 226 N 22.1715 0.800033 1.35784 0
M  V30 227 C 23.1015 0.220184 2.3246 0
M  V30 228 C 24.0825 -0.65073 1.57161 0
M  V30 229 O 25.2675 -0.582359 1.85263 0
M  V30 230 C 22.3975 -0.637353 3.41402 0
M  V30 231 C 21.3515 0.134531 4.27789 0
M  V30 232 C 20.6775 -0.844285 5.27992 0
M  V30 233 C 21.9775 1.32979 5.05088 0
M  V30 234 H 23.6715 1.02787 2.81203 0
M  V30 235 H 21.2175 0.495717 1.35199 0
M  V30 236 H 23.1705 -1.05302 4.08031 0
M  V30 237 H 21.8945 -1.47785 2.91251 0
M  V30 238 H 20.5535 0.531296 3.6273 0
M  V30 239 H 20.2015 -1.68011 4.74111 0
M  V30 240 H 19.9015 -0.332184 5.8666 0
M  V30 241 H 21.4255 -1.2583 5.97494 0
M  V30 242 H 22.8395 0.98934 5.64699 0
M  V30 243 H 21.2365 1.77593 5.7322 0
M  V30 244 H 22.3065 2.11978 4.36111 0
M  V30 245 N 23.6496 -1.47581 0.552962 0
M  V30 246 C 25.0656 -1.5818 0.212424 0
M  V30 247 C 25.2656 -1.55213 -1.28496 0
M  V30 248 O 24.3216 -1.45329 -2.06484 0
M  V30 249 C 25.6346 -2.88865 0.835318 0
M  V30 250 C 27.1826 -3.0244 0.806156 0
M  V30 251 C 27.6576 -4.35819 1.40804 0
M  V30 252 N 29.1486 -4.42444 1.37103 0
M  V30 253 C 29.8836 -5.44202 1.80641 0
M  V30 254 N 29.3796 -6.52795 2.32015 0
M  V30 255 N 31.1726 -5.35222 1.71738 0
M  V30 256 H 23.3236 -1.47753 1.52587 0
M  V30 257 H 25.5866 -0.702941 0.636064 0
M  V30 258 H 25.2926 -2.9676 1.88749 0
M  V30 259 H 25.1666 -3.7579 0.325848 0
M  V30 260 H 27.5536 -2.94144 -0.237317 0
M  V30 261 H 27.6346 -2.17068 1.35334 0
M  V30 262 H 27.2786 -4.44871 2.45056 0
M  V30 263 H 27.2086 -5.19916 0.836338 0
M  V30 264 H 29.6996 -3.6456 0.995202 0
M  V30 265 H 30.0126 -7.26609 2.63171 0
M  V30 266 H 28.3576 -6.53696 2.36023 0
M  V30 267 H 31.5486 -4.49284 1.31382 0
M  V30 268 H 31.7216 -6.14389 2.05987 0
M  V30 269 N 25.1277 -0.289203 -1.54924 0
M  V30 270 C 26.5437 0.0645403 -1.59469 0
M  V30 271 C 26.7437 1.53419 -1.30632 0
M  V30 272 O 25.7997 2.2852 -1.074 0
M  V30 273 C 27.1127 -0.32278 -2.98963 0
M  V30 274 C 28.6607 -0.270564 -3.11828 0
M  V30 275 C 29.1357 -0.632532 -4.53611 0
M  V30 276 N 30.6267 -0.584617 -4.59496 0
M  V30 277 C 31.3617 -0.837314 -5.67254 0
M  V30 278 N 30.8577 -1.15536 -6.83098 0
M  V30 279 N 32.6507 -0.765166 -5.56868 0
M  V30 280 H 24.8017 -1.24714 -1.71931 0
M  V30 281 H 27.0647 -0.504809 -0.802416 0
M  V30 282 H 26.7707 -1.34541 -3.24948 0
M  V30 283 H 26.6447 0.32944 -3.75759 0
M  V30 284 H 29.0317 0.742805 -2.85598 0
M  V30 285 H 29.1127 -0.957242 -2.37214 0
M  V30 286 H 28.7567 -1.64365 -4.80569 0
M  V30 287 H 28.6867 0.07609 -5.26545 0
M  V30 288 H 31.1777 -0.349248 -3.76283 0
M  V30 289 H 31.4907 -1.33447 -7.61191 0
M  V30 290 H 29.8357 -1.19328 -6.84679 0
M  V30 291 H 33.0267 -0.516432 -4.65243 0
M  V30 292 H 33.1997 -0.965477 -6.40767 0
M  V30 293 N 26.6058 1.57591 -0.0167156 0
M  V30 294 C 27.5538 2.10604 0.987353 0
M  V30 295 C 28.5478 1.02977 1.34507 0
M  V30 296 O 29.7538 1.21425 1.32875 0
M  V30 297 H 26.1288 0.672695 0.336134 0
M  V30 298 H 28.0998 2.93925 0.514817 0
M  V30 299 C 26.8488 2.6382 2.26483 0
M  V30 300 H 26.1718 3.46278 1.99829 0
M  V30 301 H 27.6118 3.04573 2.94977 0
M  V30 302 C 26.0708 1.55992 2.9861 0
M  V30 303 O 26.6008 0.952521 3.90243 0
M  V30 304 N 24.8068 1.28335 2.60727 0
M  V30 305 H 24.3538 1.77914 1.86291 0
M  V30 306 H 24.3118 0.564115 3.09298 0
M  V30 307 N 28.0839 -0.256276 1.55502 0
M  V30 308 C 29.0159 -1.33981 1.85962 0
M  V30 309 C 30.0289 -1.44743 0.745212 0
M  V30 310 O 31.2179 -1.4626 1.02324 0
M  V30 311 C 28.3179 -2.7194 2.02242 0
M  V30 312 C 27.4909 -2.83562 3.33033 0
M  V30 313 C 26.5499 -4.02304 3.39172 0
M  V30 314 O 25.5759 -3.92273 4.12444 0
M  V30 315 N 26.7779 -5.15045 2.67784 0
M  V30 316 H 29.5429 -1.08191 2.7949 0
M  V30 317 H 27.1039 -0.446388 1.55624 0
M  V30 318 H 29.0959 -3.49697 2.03701 0
M  V30 319 H 27.6659 -2.90479 1.15502 0
M  V30 320 H 26.8859 -1.92555 3.43971 0
M  V30 321 H 28.1739 -2.88271 4.19258 0
M  V30 322 H 27.5719 -5.26085 2.07968 0
M  V30 323 H 26.1289 -5.90972 2.74947 0
M  V30 324 N 29.562 -1.4872 -0.521534 0
M  V30 325 C 30.839 -1.4766 -1.2828 0
M  V30 326 C 31.219 -0.19292 -2.10217 0
M  V30 327 O 30.567 0.825193 -2.13079 0
M  V30 328 C 30.777 -2.74358 -2.15705 0
M  V30 329 C 32.125 -3.23028 -2.75569 0
M  V30 330 O 33.149 -2.75333 -2.25987 0
M  V30 331 O 32.008 -4.0604 -3.65778 0
M  V30 332 H 29.102 -0.590085 -0.579421 0
M  V30 333 H 31.648 -1.60963 -0.537492 0
M  V30 334 H 30.42 -3.59292 -1.54999 0
M  V30 335 H 30.043 -2.63816 -2.97467 0
M  V30 336 N 31.0401 0.771051 -1.3745 0
M  V30 337 C 31.9881 1.90574 -1.33358 0
M  V30 338 C 32.9821 1.67936 -0.22224 0
M  V30 339 O 34.1881 1.75717 -0.390304 0
M  V30 340 H 30.5631 0.626714 -0.415612 0
M  V30 341 H 32.5341 1.91142 -2.29144 0
M  V30 342 C 31.2831 3.27845 -1.15813 0
M  V30 343 H 30.6061 3.45842 -2.00583 0
M  V30 344 H 32.0461 4.07538 -1.17 0
M  V30 345 C 30.5051 3.36625 0.136165 0
M  V30 346 O 31.0351 3.85785 1.11949 0
M  V30 347 N 29.2411 2.89997 0.187099 0
M  V30 348 H 28.7881 2.50182 -0.613753 0
M  V30 349 H 28.7461 2.96252 1.05272 0
M  V30 350 N 32.5182 1.22032 0.997298 0
M  V30 351 C 33.4282 1.00271 2.12092 0
M  V30 352 C 34.4442 -0.047621 1.73935 0
M  V30 353 O 35.6202 0.144136 2.00884 0
M  V30 354 C 32.6852 0.578449 3.4184 0
M  V30 355 C 31.7462 1.70189 3.94125 0
M  V30 356 C 30.9792 1.29778 5.17681 0
M  V30 357 O 31.2022 0.174676 5.70132 0
M  V30 358 O 30.1362 2.11261 5.63607 0
M  V30 359 H 33.9622 1.94398 2.3333 0
M  V30 360 H 31.5472 1.00587 1.10465 0
M  V30 361 H 33.4292 0.351998 4.19927 0
M  V30 362 H 32.1042 -0.334019 3.21972 0
M  V30 363 H 31.0112 1.98282 3.1723 0
M  V30 364 H 32.3442 2.59206 4.18417 0
M  V30 365 N 33.9963 -1.19345 1.0293 0
M  V30 366 C 35.2733 -1.84811 0.640642 0
M  V30 367 C 35.6533 -1.91855 -0.88062 0
M  V30 368 O 35.0013 -1.43587 -1.7775 0
M  V30 369 C 35.2113 -3.23755 1.30321 0
M  V30 370 C 36.5593 -3.99912 1.42673 0
M  V30 371 O 37.5833 -3.33155 1.26041 0
M  V30 372 O 36.4423 -5.19494 1.6967 0
M  V30 373 H 33.5363 -0.796443 0.222726 0
M  V30 374 H 36.0823 -1.26831 1.12748 0
M  V30 375 H 34.8543 -3.13466 2.34211 0
M  V30 376 H 34.4773 -3.89381 0.804261 0
M  V30 377 N 35.4744 -0.807222 -1.35358 0
M  V30 378 C 36.3844 -0.219594 -2.3357 0
M  V30 379 C 37.4004 0.637734 -1.61892 0
M  V30 380 O 38.5764 0.549336 -1.93763 0
M  V30 381 C 35.6414 0.62158 -3.41083 0
M  V30 382 C 34.7024 -0.256315 -4.28534 0
M  V30 383 C 33.9354 0.544807 -5.30912 0
M  V30 384 O 34.1584 1.77944 -5.41934 0
M  V30 385 O 33.0924 -0.0646478 -6.01865 0
M  V30 386 H 36.9184 -1.03208 -2.85625 0
M  V30 387 H 34.5034 -0.569025 -1.38139 0
M  V30 388 H 36.3854 1.10067 -4.06772 0
M  V30 389 H 35.0604 1.41165 -2.91297 0
M  V30 390 H 33.9674 -0.782559 -3.65823 0
M  V30 391 H 35.3004 -1.01034 -4.81719 0
M  V30 392 N 36.9525 1.47285 -0.560781 0
M  V30 393 C 38.1985 2.03347 -0.0463654 0
M  V30 394 C 38.5535 1.42702 1.2905 0
M  V30 395 O 37.8465 0.574619 1.8278 0
M  V30 396 C 38.0405 3.57258 0.100784 0
M  V30 397 C 37.8695 4.32827 -1.22027 0
M  V30 398 C 36.6395 4.72588 -1.78854 0
M  V30 399 C 38.8375 4.67739 -2.13834 0
M  V30 400 N 36.8195 5.32816 -3.04927 0
M  V30 401 C 38.1905 5.28307 -3.24487 0
M  V30 402 C 40.2455 4.49667 -2.13784 0
M  V30 403 C 38.9485 5.72711 -4.35194 0
M  V30 404 C 40.9745 4.95073 -3.23506 0
M  V30 405 C 40.3365 5.55693 -4.32879 0
M  V30 406 H 36.4355 0.779755 -0.0592166 0
M  V30 407 H 39.0195 1.79723 -0.748857 0
M  V30 408 H 37.1905 3.80642 0.772404 0
M  V30 409 H 38.9225 3.9996 0.617589 0
M  V30 410 H 35.6775 4.54656 -1.32609 0
M  V30 411 H 36.1015 5.67471 -3.69197 0
M  V30 412 H 40.7435 4.02154 -1.30507 0
M  V30 413 H 38.4615 6.19214 -5.1923 0
M  V30 414 H 42.0475 4.82859 -3.24559 0
M  V30 415 H 40.9275 5.90188 -5.1638 0
M  V30 416 N 38.4306 0.297415 1.54768 0
M  V30 417 C 39.8416 -0.195947 1.85669 0
M  V30 418 C 40.1926 -1.53707 1.21937 0
M  V30 419 O 39.3176 -2.10164 0.515754 0
M  V30 420 C 39.9126 -0.362318 3.36857 0
M  V30 421 C 38.4716 -0.799901 3.67802 0
M  V30 422 C 37.6186 0.0938578 2.77141 0
M  V30 423 H 40.5696 0.518538 1.4999 0
M  V30 424 H 40.5906 -1.19745 3.61167 0
M  V30 425 H 40.1026 0.613921 3.83214 0
M  V30 426 H 38.2036 -1.78682 3.26961 0
M  V30 427 H 38.3166 -0.621773 4.75048 0
M  V30 428 H 36.6806 -0.426254 2.51108 0
M  V30 429 H 37.4636 1.06639 3.26318 0
M  V30 430 N 39.9087 -1.5758 0.0250728 0
M  V30 431 C 40.8387 -2.13007 -0.956575 0
M  V30 432 C 41.8197 -1.0452 -1.342 0
M  V30 433 O 43.0047 -1.32332 -1.42133 0
M  V30 434 C 40.1347 -2.65386 -2.24026 0
M  V30 435 C 39.0887 -3.78623 -1.99571 0
M  V30 436 C 38.4147 -4.17414 -3.3417 0
M  V30 437 C 39.7147 -5.04867 -1.33814 0
M  V30 438 H 41.4087 -2.9528 -0.494991 0
M  V30 439 H 38.9547 -1.42042 -0.236651 0
M  V30 440 H 40.9077 -3.02794 -2.93076 0
M  V30 441 H 39.6317 -1.80268 -2.72343 0
M  V30 442 H 38.2907 -3.41646 -1.32941 0
M  V30 443 H 37.9387 -3.29284 -3.80238 0
M  V30 444 H 37.6387 -4.93719 -3.18615 0
M  V30 445 H 39.1627 -4.57402 -4.04495 0
M  V30 446 H 40.5767 -5.39888 -1.92857 0
M  V30 447 H 38.9737 -5.86144 -1.28669 0
M  V30 448 H 40.0437 -4.83904 -0.310561 0
M  V30 449 N 41.3868 0.248026 -1.55636 0
M  V30 450 C 42.3498 1.29044 -1.89421 0
M  V30 451 C 43.3498 1.41134 -0.770581 0
M  V30 452 O 44.5398 1.39854 -1.03858 0
M  V30 453 C 41.6718 2.66831 -2.12165 0
M  V30 454 H 42.8648 1.00305 -2.82629 0
M  V30 455 H 40.4178 0.487265 -1.48511 0
M  V30 456 H 41.1528 3.00711 -1.21422 0
M  V30 457 H 40.9378 2.59438 -2.93997 0
M  V30 458 H 42.4278 3.42103 -2.3949 0
M  V30 459 N 42.8649 1.48995 0.513639 0
M  V30 460 C 43.7749 1.67443 1.64317 0
M  V30 461 C 44.7909 0.556947 1.64846 0
M  V30 462 O 45.9669 0.830082 1.83498 0
M  V30 463 C 43.0319 1.72515 3.00732 0
M  V30 464 C 42.0929 2.96009 3.1093 0
M  V30 465 C 41.3259 3.00829 4.40837 0
M  V30 466 O 41.5489 2.13594 5.28898 0
M  V30 467 O 40.4829 3.93168 4.55744 0
M  V30 468 H 44.3089 2.63106 1.51687 0
M  V30 469 H 41.8939 1.32588 0.688543 0
M  V30 470 H 43.7759 1.78277 3.81831 0
M  V30 471 H 42.4509 0.800278 3.13651 0
M  V30 472 H 41.3579 2.9577 2.29065 0
M  V30 473 H 42.6909 3.87934 3.02933 0
M  V30 474 N 44.343 -0.763751 1.37857 0
M  V30 475 C 45.592 -1.51789 1.32827 0
M  V30 476 C 45.905 -1.95426 -0.0823719 0
M  V30 477 O 47.111 -2.70298 -0.255172 0
M  V30 478 C 45.567 -2.74133 2.33193 0
M  V30 479 C 45.175 -2.37562 3.79827 0
M  V30 480 C 46.919 -3.52054 2.37188 0
M  V30 481 C 44.826 -3.56456 4.71904 0
M  V30 482 H 43.756 -0.569896 0.493695 0
M  V30 483 H 46.407 -0.835822 1.63359 0
M  V30 484 H 44.789 -3.4427 1.9569 0
M  V30 485 H 45.963 -1.75157 4.26212 0
M  V30 486 H 44.278 -1.72798 3.78853 0
M  V30 487 H 46.875 -4.40437 3.03182 0
M  V30 488 H 47.218 -3.92486 1.38782 0
M  V30 489 H 47.751 -2.88921 2.7344 0
M  V30 490 H 44.49 -3.21099 5.71468 0
M  V30 491 H 44.01 -4.17938 4.30218 0
M  V30 492 H 45.689 -4.23168 4.89426 0
M  V30 493 N 45.8211 -1.22559 -0.990812 0
M  V30 494 C 46.7511 -1.0218 -2.09956 0
M  V30 495 C 47.7321 0.0579394 -1.70001 0
M  V30 496 O 48.9171 -0.104684 -1.93918 0
M  V30 497 C 46.0471 -0.601023 -3.4206 0
M  V30 498 C 45.0011 -1.62694 -3.95872 0
M  V30 499 C 44.3271 -1.06193 -5.24049 0
M  V30 500 C 45.6271 -3.01743 -4.2632 0
M  V30 501 H 47.3211 -1.94916 -2.27262 0
M  V30 502 H 44.8671 -0.938566 -1.09211 0
M  V30 503 H 46.8201 -0.445561 -4.19038 0
M  V30 504 H 45.5441 0.362005 -3.24588 0
M  V30 505 H 44.2031 -1.77021 -3.21028 0
M  V30 506 H 43.8511 -0.0901903 -5.02919 0
M  V30 507 H 43.5511 -1.74732 -5.61019 0
M  V30 508 H 45.0751 -0.918092 -6.03658 0
M  V30 509 H 46.4891 -2.90777 -4.94087 0
M  V30 510 H 44.8861 -3.67425 -4.74467 0
M  V30 511 H 45.9561 -3.51518 -3.34011 0
M  V30 512 N 47.2992 1.18797 -1.03562 0
M  V30 513 C 48.5242 1.9314 -0.755764 0
M  V30 514 C 48.9492 1.7537 0.68022 0
M  V30 515 O 48.3072 1.06046 1.47051 0
M  V30 516 C 48.3552 3.42747 -1.12058 0
M  V30 517 O 47.4592 4.11683 -0.243124 0
M  V30 518 H 46.8002 0.602724 -0.278604 0
M  V30 519 H 49.3302 1.50678 -1.3841 0
M  V30 520 H 49.3402 3.93437 -1.08035 0
M  V30 521 H 48.0152 3.55002 -2.16672 0
M  V30 522 H 46.5922 3.71323 -0.342539 0
M  V30 523 N 48.7773 0.814389 1.34928 0
M  V30 524 C 50.0233 0.399013 1.98836 0
M  V30 525 C 50.3563 -1.03314 1.64438 0
M  V30 526 O 49.6313 -1.71811 0.911659 0
M  V30 527 C 49.9143 0.591629 3.55207 0
M  V30 528 C 49.7673 2.06928 3.99376 0
M  V30 529 C 51.0863 0.022199 4.40094 0
M  V30 530 H 48.2053 0.146451 0.722303 0
M  V30 531 H 50.8473 1.02537 1.59957 0
M  V30 532 H 48.9973 0.0584441 3.88456 0
M  V30 533 H 50.6693 2.66544 3.76499 0
M  V30 534 H 48.9123 2.56287 3.49999 0
M  V30 535 H 49.5833 2.1549 5.08201 0
M  V30 536 H 52.0593 0.477643 4.13349 0
M  V30 537 H 50.9353 0.186832 5.48582 0
M  V30 538 H 51.1963 -1.07215 4.28902 0
M  V30 539 N 50.2554 -1.46986 0.568584 0
M  V30 540 C 51.2024 -2.30153 -0.172707 0
M  V30 541 C 52.1724 -1.39759 -0.897586 0
M  V30 542 O 53.3574 -1.68716 -0.891044 0
M  V30 543 C 50.4974 -3.23952 -1.1895 0
M  V30 544 C 49.6104 -4.29441 -0.469517 0
M  V30 545 C 48.7454 -5.1038 -1.47259 0
M  V30 546 C 47.7844 -6.07632 -0.738225 0
M  V30 547 N 46.9214 -6.8149 -1.68868 0
M  V30 548 H 51.7614 -2.93019 0.542596 0
M  V30 549 H 49.2984 -1.44422 0.279401 0
M  V30 550 H 51.2564 -3.76767 -1.79173 0
M  V30 551 H 49.8864 -2.62926 -1.87269 0
M  V30 552 H 48.9384 -3.79594 0.247467 0
M  V30 553 H 50.2504 -4.98689 0.105241 0
M  V30 554 H 49.4044 -5.67402 -2.14803 0
M  V30 555 H 48.1434 -4.4106 -2.08128 0
M  V30 556 H 47.1484 -5.49778 -0.0489293 0
M  V30 557 H 48.3734 -6.78966 -0.135129 0
M  V30 558 H 46.3194 -6.14891 -2.28573 0
M  V30 559 H 46.2364 -7.46948 -1.16636 0
M  V30 560 H 47.5044 -7.43078 -2.3549 0
M  V30 561 N 51.7335 -0.305618 -1.54608 0
M  V30 562 C 53.0105 0.355652 -1.92339 0
M  V30 563 C 53.3905 1.71324 -1.23335 0
M  V30 564 O 52.7385 2.25473 -0.370702 0
M  V30 565 C 52.9485 0.46572 -3.45879 0
M  V30 566 C 54.2965 0.734426 -4.182 0
M  V30 567 O 55.3205 0.54935 -3.51938 0
M  V30 568 O 54.1795 1.09024 -5.35515 0
M  V30 569 H 51.2735 0.199666 -0.802535 0
M  V30 570 H 53.8195 -0.354017 -1.65966 0
M  V30 571 H 52.5915 -0.488461 -3.88239 0
M  V30 572 H 52.2145 1.22367 -3.78301 0
M  V30 573 N 53.2116 1.57565 -0.0334293 0
M  V30 574 C 54.4606 1.91155 0.643639 0
M  V30 575 C 54.7736 0.91192 1.73042 0
M  V30 576 O 55.9796 1.13923 2.46442 0
M  V30 577 C 54.4356 3.39443 1.1961 0
M  V30 578 C 54.0436 4.47774 0.142381 0
M  V30 579 C 55.7876 3.82094 1.84944 0
M  V30 580 C 53.6946 5.87162 0.706727 0
M  V30 581 H 52.6246 0.713368 0.244176 0
M  V30 582 H 55.2756 1.8323 -0.0994323 0
M  V30 583 H 53.6576 3.42313 1.99092 0
M  V30 584 H 54.8316 4.56469 -0.630296 0
M  V30 585 H 53.1466 4.14352 -0.412446 0
M  V30 586 H 55.7436 4.83591 2.2813 0
M  V30 587 H 56.0866 3.17386 2.69392 0
M  V30 588 H 56.6196 3.81665 1.12145 0
M  V30 589 H 53.3586 6.55424 -0.0997178 0
M  V30 590 H 52.8786 5.82064 1.44779 0
M  V30 591 H 54.5576 6.35866 1.19514 0
M  V30 592 N 54.6897 -0.239769 1.55765 0
M  V30 593 C 55.9147 -0.988373 1.82335 0
M  V30 594 C 56.3397 -1.77886 0.611421 0
M  V30 595 O 55.6977 -1.75889 -0.439639 0
M  V30 596 C 55.7457 -1.89627 3.06715 0
M  V30 597 O 54.8497 -2.98904 2.84131 0
M  V30 598 H 54.1907 -0.280858 0.601677 0
M  V30 599 H 56.7207 -0.258597 2.02959 0
M  V30 600 H 56.7307 -2.30957 3.36338 0
M  V30 601 H 55.4057 -1.31511 3.9456 0
M  V30 602 H 53.9827 -2.61651 2.65694 0
M  V30 603 N 56.1678 -1.49265 -0.50573 0
M  V30 604 C 57.4158 -1.582 -1.25766 0
M  V30 605 C 57.7368 -0.268482 -1.93143 0
M  V30 606 O 57.0068 0.711833 -1.8251 0
M  V30 607 H 55.5868 -0.582873 -0.467191 0
M  V30 608 H 58.2488 -1.85865 -0.586525 0
M  V30 609 H 57.3448 -2.37563 -2.02412 0
M  V30 610 N 57.6459 0.756429 -1.3826 0
M  V30 611 C 59.0619 1.0591 -1.19395 0
M  V30 612 C 59.2619 2.01459 -0.0406567 0
M  V30 613 O 58.3179 2.44909 0.614467 0
M  V30 614 C 59.6309 1.64191 -2.51916 0
M  V30 615 C 61.1789 1.76376 -2.58574 0
M  V30 616 C 61.6539 2.38069 -3.91264 0
M  V30 617 N 63.1449 2.45503 -3.92788 0
M  V30 618 C 63.8799 2.94126 -4.92217 0
M  V30 619 N 63.3759 3.42805 -6.02043 0
M  V30 620 N 65.1689 2.9314 -4.7961 0
M  V30 621 H 57.3199 0.122313 -2.12048 0
M  V30 622 H 59.5829 0.116892 -0.940766 0
M  V30 623 H 59.2889 1.01451 -3.3675 0
M  V30 624 H 59.1629 2.6329 -2.70108 0
M  V30 625 H 61.5499 2.38244 -1.74137 0
M  V30 626 H 61.6309 0.759894 -2.44252 0
M  V30 627 H 61.2749 1.76835 -4.76121 0
M  V30 628 H 61.2049 3.39091 -4.02895 0
M  V30 629 H 63.6959 2.1107 -3.13461 0
M  V30 630 H 64.0089 3.78354 -6.73846 0
M  V30 631 H 62.3539 3.4087 -6.05667 0
M  V30 632 H 65.5449 2.54419 -3.92923 0
M  V30 633 H 65.7179 3.30721 -5.5725 0
M  V30 634 N 59.124 1.23083 0.984299 0
M  V30 635 C 60.071 1.00854 2.07598 0
M  V30 636 C 61.041 -0.0726709 1.65941 0
M  V30 637 O 62.226 0.0786535 1.90638 0
M  V30 638 C 59.366 0.601645 3.39815 0
M  V30 639 C 58.479 1.75456 3.94765 0
M  V30 640 C 57.614 1.29482 5.15177 0
M  V30 641 C 56.653 2.41873 5.62284 0
M  V30 642 N 55.79 1.96885 6.73929 0
M  V30 643 H 60.63 1.943 2.25946 0
M  V30 644 H 58.167 0.968001 1.10762 0
M  V30 645 H 60.125 0.346854 4.15756 0
M  V30 646 H 58.755 -0.295803 3.21442 0
M  V30 647 H 57.807 2.12346 3.15616 0
M  V30 648 H 59.119 2.59965 4.25699 0
M  V30 649 H 58.273 0.997923 5.98437 0
M  V30 650 H 57.012 0.420046 4.85888 0
M  V30 651 H 56.017 2.72342 4.77608 0
M  V30 652 H 57.242 3.29881 5.93595 0
M  V30 653 H 55.188 1.11782 6.46406 0
M  V30 654 H 55.105 2.74956 7.04227 0
M  V30 655 H 56.373 1.70289 7.60672 0
M  V30 656 N 60.6021 -1.18246 1.0419 0
M  V30 657 C 61.5321 -2.24127 0.654914 0
M  V30 658 C 62.5131 -1.66617 -0.342451 0
M  V30 659 O 63.6981 -1.92924 -0.222277 0
M  V30 660 C 60.8281 -3.47295 0.0183757 0
M  V30 661 C 59.7821 -4.17563 0.939414 0
M  V30 662 C 59.1081 -5.34438 0.167286 0
M  V30 663 C 60.4081 -4.70917 2.25908 0
M  V30 664 H 62.1021 -2.56753 1.54007 0
M  V30 665 H 59.6481 -1.23414 0.74195 0
M  V30 666 H 61.6011 -4.20572 -0.264082 0
M  V30 667 H 60.3251 -3.13907 -0.901664 0
M  V30 668 H 58.9841 -3.46186 1.20628 0
M  V30 669 H 58.6321 -4.97298 -0.7552 0
M  V30 670 H 58.3321 -5.82388 0.780901 0
M  V30 671 H 59.8561 -6.10504 -0.108125 0
M  V30 672 H 61.2701 -5.35882 2.03724 0
M  V30 673 H 59.6671 -5.29406 2.82577 0
M  V30 674 H 60.7371 -3.88272 2.9047 0
M  V30 675 N 62.0802 -0.821533 -1.34494 0
M  V30 676 C 63.3272 -0.408946 -1.98328 0
M  V30 677 C 63.6552 1.02764 -1.65136 0
M  V30 678 O 62.9102 1.73026 -0.914349 0
M  V30 679 C 63.2092 -0.556512 -3.53041 0
M  V30 680 C 62.8752 -1.95861 -4.0614 0
M  V30 681 C 61.5372 -2.34217 -4.20352 0
M  V30 682 C 63.8892 -2.87523 -4.34718 0
M  V30 683 C 61.2172 -3.63572 -4.6047 0
M  V30 684 C 63.5692 -4.1634 -4.76281 0
M  V30 685 C 62.2332 -4.54675 -4.88699 0
M  V30 686 H 61.5032 -0.149644 -0.725732 0
M  V30 687 H 64.1502 -1.04521 -1.6046 0
M  V30 688 H 62.4552 0.163148 -3.9146 0
M  V30 689 H 64.1522 -0.217826 -4.00408 0
M  V30 690 H 60.7422 -1.65066 -3.95539 0
M  V30 691 H 64.9262 -2.59133 -4.23277 0
M  V30 692 H 60.1822 -3.93101 -4.68275 0
M  V30 693 H 64.3562 -4.87455 -4.97354 0
M  V30 694 H 61.9832 -5.54959 -5.19542 0
M  V30 695 N 63.5583 1.46682 -0.576371 0
M  V30 696 C 64.7883 2.06498 -0.0648694 0
M  V30 697 C 65.1963 1.42665 1.24271 0
M  V30 698 O 64.5393 0.523886 1.76071 0
M  V30 699 C 64.6013 3.5904 0.181816 0
M  V30 700 C 64.2653 4.45028 -1.0392 0
M  V30 701 C 65.2623 4.81959 -1.94966 0
M  V30 702 C 62.9473 4.86259 -1.25927 0
M  V30 703 C 64.9413 5.58942 -3.06371 0
M  V30 704 C 62.6283 5.63002 -2.37638 0
M  V30 705 C 63.6263 5.99257 -3.2769 0
M  V30 706 O 63.3143 6.7445 -4.37461 0
M  V30 707 H 63.0463 0.674028 -0.0515987 0
M  V30 708 H 65.6003 1.89393 -0.794951 0
M  V30 709 H 63.8303 3.74429 0.966436 0
M  V30 710 H 65.5193 4.00806 0.641047 0
M  V30 711 H 66.2853 4.50689 -1.79177 0
M  V30 712 H 62.1643 4.57494 -0.567448 0
M  V30 713 H 65.7083 5.87158 -3.76684 0
M  V30 714 H 61.6053 5.93686 -2.53392 0
M  V30 715 H 62.3733 6.92867 -4.35749 0
M  V30 716 N 65.0364 0.313813 1.54444 0
M  V30 717 C 66.2824 -0.292108 2.00685 0
M  V30 718 C 66.6154 -1.52548 1.20177 0
M  V30 719 O 65.8904 -1.92452 0.281531 0
M  V30 720 C 66.1734 -0.635968 3.5444 0
M  V30 721 C 66.0264 0.607437 4.4568 0
M  V30 722 C 67.3454 -1.45747 4.15266 0
M  V30 723 H 64.4644 -0.104697 0.729526 0
M  V30 724 H 67.1064 0.428457 1.85106 0
M  V30 725 H 65.2564 -1.24986 3.67846 0
M  V30 726 H 66.9284 1.24581 4.44159 0
M  V30 727 H 65.1714 1.23822 4.15753 0
M  V30 728 H 65.8424 0.322515 5.51057 0
M  V30 729 H 68.3184 -0.938645 4.05375 0
M  V30 730 H 67.1944 -1.66683 5.2298 0
M  V30 731 H 67.4554 -2.45063 3.67963 0
M  V30 732 N 66.5145 -1.57545 0.0417849 0
M  V30 733 C 67.4645 -2.07483 -0.945247 0
M  V30 734 C 68.4485 -0.977983 -1.27767 0
M  V30 735 O 69.6405 -1.24142 -1.26166 0
M  V30 736 C 66.7695 -2.61576 -2.22335 0
M  V30 737 C 65.8555 -3.78213 -1.91874 0
M  V30 738 N 66.2465 -4.88344 -1.31733 0
M  V30 739 C 64.5445 -3.8694 -2.21796 0
M  V30 740 C 65.2455 -5.69462 -1.1869 0
M  V30 741 N 64.2215 -5.16771 -1.68666 0
M  V30 742 H 68.0235 -2.90029 -0.475441 0
M  V30 743 H 65.5375 -1.61581 -0.162911 0
M  V30 744 H 67.5345 -2.95651 -2.93932 0
M  V30 745 H 66.1945 -1.80465 -2.69931 0
M  V30 746 H 67.2055 -5.08335 -0.990729 0
M  V30 747 H 63.8825 -3.16757 -2.71977 0
M  V30 748 H 65.2725 -6.68023 -0.720793 0
M  V30 749 N 67.9926 0.231505 -1.5589 0
M  V30 750 C 69.2226 0.973092 -1.82248 0
M  V30 751 C 69.6306 1.78845 -0.617328 0
M  V30 752 O 68.9736 1.78752 0.423499 0
M  V30 753 C 69.0356 1.94732 -3.02192 0
M  V30 754 C 68.6996 1.31743 -4.37599 0
M  V30 755 C 69.6966 0.712238 -5.14998 0
M  V30 756 C 67.3816 1.33218 -4.84312 0
M  V30 757 C 69.3756 0.130195 -6.37267 0
M  V30 758 C 67.0626 0.746286 -6.06526 0
M  V30 759 C 68.0606 0.146337 -6.82843 0
M  V30 760 O 67.7486 -0.430465 -8.02747 0
M  V30 761 H 67.4806 0.29125 -0.61004 0
M  V30 762 H 70.0346 0.254915 -2.03812 0
M  V30 763 H 68.2646 2.70422 -2.76422 0
M  V30 764 H 69.9536 2.55362 -3.15508 0
M  V30 765 H 70.7196 0.69324 -4.8002 0
M  V30 766 H 66.5986 1.78854 -4.24891 0
M  V30 767 H 70.1426 -0.33871 -6.96777 0
M  V30 768 H 66.0396 0.762663 -6.40979 0
M  V30 769 H 66.8076 -0.323818 -8.17859 0
M  V30 770 N 69.4707 1.49531 0.497807 0
M  V30 771 C 70.7197 1.58426 1.24837 0
M  V30 772 C 71.0327 0.277643 1.93619 0
M  V30 773 O 72.2387 0.24517 2.70391 0
M  V30 774 C 70.6947 2.79538 2.26686 0
M  V30 775 C 70.3027 4.16971 1.63828 0
M  V30 776 C 72.0467 2.97764 3.0255 0
M  V30 777 C 69.9537 5.29301 2.63807 0
M  V30 778 H 68.8837 0.58989 0.469623 0
M  V30 779 H 71.5347 1.75923 0.521857 0
M  V30 780 H 69.9167 2.55542 3.02514 0
M  V30 781 H 71.0907 4.51116 0.939711 0
M  V30 782 H 69.4057 4.04129 1.00342 0
M  V30 783 H 72.0027 3.78856 3.77323 0
M  V30 784 H 72.3457 2.08448 3.60354 0
M  V30 785 H 72.8787 3.21815 2.33838 0
M  V30 786 H 69.6177 6.20687 2.10779 0
M  V30 787 H 69.1377 4.99606 3.31894 0
M  V30 788 H 70.8167 5.58768 3.2617 0
M  V30 789 N 70.9488 -0.749086 1.3866 0
M  V30 790 C 72.2258 -1.4992 1.25632 0
M  V30 791 C 72.6058 -2.10633 -0.140317 0
M  V30 792 O 71.9538 -1.97437 -1.15025 0
M  V30 793 C 72.1638 -2.56195 2.36992 0
M  V30 794 C 73.5118 -3.22972 2.75634 0
M  V30 795 O 74.5358 -2.66502 2.36337 0
M  V30 796 O 73.3948 -4.25122 3.43415 0
M  V30 797 H 70.4888 -0.665067 0.491544 0
M  V30 798 H 73.0348 -0.784113 1.50498 0
M  V30 799 H 71.8068 -2.09612 3.30422 0
M  V30 800 H 71.4298 -3.35279 2.13714 0
M  V30 801 N 72.4269 -1.23603 -0.977757 0
M  V30 802 C 73.6739 -1.06971 -1.71941 0
M  V30 803 C 74.0019 0.393009 -1.90488 0
M  V30 804 O 73.2569 1.30719 -1.4564 0
M  V30 805 C 73.5559 -1.7433 -3.11999 0
M  V30 806 C 73.2219 -3.24252 -3.13323 0
M  V30 807 C 71.8839 -3.65156 -3.13392 0
M  V30 808 C 74.2359 -4.20141 -3.08433 0
M  V30 809 C 71.5639 -5.00403 -3.0629 0
M  V30 810 C 73.9159 -5.55384 -3.02873 0
M  V30 811 C 72.5799 -5.95647 -3.01265 0
M  V30 812 H 71.8499 -0.391433 -0.629175 0
M  V30 813 H 74.4969 -1.53572 -1.14403 0
M  V30 814 H 72.8019 -1.20096 -3.7294 0
M  V30 815 H 74.4989 -1.58936 -3.68158 0
M  V30 816 H 71.0889 -2.91692 -3.14029 0
M  V30 817 H 75.2729 -3.89547 -3.07517 0
M  V30 818 H 70.5289 -5.3081 -3.03399 0
M  V30 819 H 74.7029 -6.29398 -2.98046 0
M  V30 820 H 72.3299 -7.0041 -2.95516 0
M  V30 821 N 73.905 1.17692 -1.04816 0
M  V30 822 C 74.853 2.23632 -0.63966 0
M  V30 823 C 75.847 1.6601 0.337219 0
M  V30 824 O 77.053 1.78844 0.203693 0
M  V30 825 H 73.428 0.727949 -0.188665 0
M  V30 826 H 75.399 2.55387 -1.54337 0
M  V30 827 C 74.148 3.4769 -0.0264051 0
M  V30 828 H 73.471 3.92331 -0.769164 0
M  V30 829 H 74.911 4.23418 0.222098 0
M  V30 830 C 73.37 3.13807 1.22584 0
M  V30 831 O 73.9 3.28236 2.31569 0
M  V30 832 N 72.106 2.68065 1.12202 0
M  V30 833 H 71.653 2.56525 0.235133 0
M  V30 834 H 71.611 2.45767 1.96076 0
M  V30 835 N 75.3831 0.828654 1.34056 0
M  V30 836 C 76.3301 0.252567 2.29414 0
M  V30 837 C 77.3001 -0.62588 1.53857 0
M  V30 838 O 78.4851 -0.566312 1.82202 0
M  V30 839 C 75.6251 -0.574831 3.40279 0
M  V30 840 C 74.7381 0.326499 4.30764 0
M  V30 841 C 73.8731 -0.511016 5.28736 0
M  V30 842 C 72.9121 0.389342 6.1086 0
M  V30 843 N 72.0491 -0.409439 7.00905 0
M  V30 844 H 76.8891 1.07108 2.78086 0
M  V30 845 H 74.4261 0.539677 1.36843 0
M  V30 846 H 76.3841 -1.06992 4.03248 0
M  V30 847 H 75.0141 -1.35841 2.92826 0
M  V30 848 H 74.0661 0.939837 3.68607 0
M  V30 849 H 75.3781 1.01857 4.88289 0
M  V30 850 H 74.5321 -1.07035 5.97184 0
M  V30 851 H 73.2711 -1.23657 4.71763 0
M  V30 852 H 72.2761 0.960769 5.4134 0
M  V30 853 H 73.5011 1.1131 6.69916 0
M  V30 854 H 71.4471 -1.11856 6.46393 0
M  V30 855 H 71.3641 0.224126 7.55668 0
M  V30 856 H 72.6321 -0.951336 7.73673 0
M  V30 857 N 76.8612 -1.46375 0.584142 0
M  V30 858 C 78.2772 -1.57694 0.245929 0
M  V30 859 C 78.4772 -1.57903 -1.25175 0
M  V30 860 O 77.5332 -1.49676 -2.03355 0
M  V30 861 C 78.8462 -2.87028 0.896402 0
M  V30 862 C 80.3942 -3.00662 0.870127 0
M  V30 863 C 80.8692 -4.32734 1.50017 0
M  V30 864 N 82.3602 -4.39436 1.46458 0
M  V30 865 C 83.0952 -5.40248 1.92144 0
M  V30 866 N 82.5912 -6.47726 2.4581 0
M  V30 867 N 84.3842 -5.31459 1.83052 0
M  V30 868 H 76.5352 -1.44483 1.55687 0
M  V30 869 H 78.7982 -0.689291 0.650831 0
M  V30 870 H 78.5042 -2.9269 1.95002 0
M  V30 871 H 78.3782 -3.75014 0.405486 0
M  V30 872 H 80.7652 -2.94581 -0.174871 0
M  V30 873 H 80.8462 -2.14148 1.39908 0
M  V30 874 H 80.4902 -4.39573 2.54437 0
M  V30 875 H 80.4202 -5.18025 0.946432 0
M  V30 876 H 82.9112 -3.62367 1.07231 0
M  V30 877 H 83.2242 -7.20863 2.78525 0
M  V30 878 H 81.5692 -6.48542 2.49836 0
M  V30 879 H 84.7602 -4.46396 1.40883 0
M  V30 880 H 84.9332 -6.09881 2.18973 0
M  V30 881 N 78.3393 -0.321999 -1.54275 0
M  V30 882 C 79.2693 0.537411 -2.27231 0
M  V30 883 C 80.2503 1.12064 -1.27968 0
M  V30 884 O 81.4353 1.14606 -1.56777 0
M  V30 885 C 78.5653 1.69919 -3.02894 0
M  V30 886 C 77.5193 1.24534 -4.09482 0
M  V30 887 C 76.8453 2.49394 -4.72977 0
M  V30 888 C 78.1453 0.361335 -5.21049 0
M  V30 889 H 79.8393 -0.0711406 -2.99315 0
M  V30 890 H 77.3853 -0.0356555 -1.43956 0
M  V30 891 H 79.3383 2.30668 -3.52662 0
M  V30 892 H 78.0623 2.33431 -2.28424 0
M  V30 893 H 76.7213 0.660782 -3.60596 0
M  V30 894 H 76.3693 3.11265 -3.95124 0
M  V30 895 H 76.0693 2.19718 -5.44975 0
M  V30 896 H 77.5933 3.10908 -5.25517 0
M  V30 897 H 79.0073 0.875072 -5.66582 0
M  V30 898 H 77.4043 0.157428 -5.99893 0
M  V30 899 H 78.4743 -0.60822 -4.8107 0
M  V30 900 N 79.8174 1.5752 -0.0501392 0
M  V30 901 C 81.0944 1.83996 0.663685 0
M  V30 902 C 81.4744 0.938339 1.89099 0
M  V30 903 O 80.8224 -0.00087759 2.285 0
M  V30 904 C 81.0324 3.33702 1.02196 0
M  V30 905 C 82.3804 4.00691 1.40469 0
M  V30 906 O 83.4044 3.38321 1.11433 0
M  V30 907 O 82.2634 5.10658 1.94654 0
M  V30 908 H 79.3574 0.759385 0.32751 0
M  V30 909 H 81.9034 1.69514 -0.0794238 0
M  V30 910 H 80.6754 3.91015 0.149364 0
M  V30 911 H 80.2984 3.53368 1.82255 0
M  V30 912 N 81.2955 -0.223234 1.56011 0
M  V30 913 C 82.2055 -1.29766 1.95443 0
M  V30 914 C 83.2215 -1.51373 0.858028 0
M  V30 915 O 84.3975 -1.64536 1.16146 0
M  V30 916 C 81.4625 -2.62772 2.26167 0
M  V30 917 C 80.5235 -2.49482 3.49367 0
M  V30 918 C 79.7565 -3.76145 3.78616 0
M  V30 919 O 79.9795 -4.79087 3.09568 0
M  V30 920 O 78.9135 -3.73358 4.72109 0
M  V30 921 H 82.7395 -0.99309 2.87004 0
M  V30 922 H 80.3245 -0.425958 1.43199 0
M  V30 923 H 82.2065 -3.41327 2.47131 0
M  V30 924 H 80.8815 -2.92913 1.37781 0
M  V30 925 H 79.7885 -1.69133 3.33684 0
M  V30 926 H 81.1215 -2.2428 4.38131 0
M  V30 927 N 82.7736 -1.49793 -0.48987 0
M  V30 928 C 84.0196 -1.61049 -1.24236 0
M  V30 929 C 84.3746 -0.298412 -1.90072 0
M  V30 930 O 83.6676 0.702262 -1.78266 0
M  V30 931 C 83.8616 -2.71488 -2.32441 0
M  V30 932 C 83.6906 -4.13308 -1.77218 0
M  V30 933 C 82.4606 -4.79955 -1.58023 0
M  V30 934 C 84.6586 -4.98176 -1.27772 0
M  V30 935 N 82.6406 -6.06052 -0.978465 0
M  V30 936 C 84.0116 -6.14843 -0.798 0
M  V30 937 C 86.0666 -4.84091 -1.16449 0
M  V30 938 C 84.7696 -7.18975 -0.216245 0
M  V30 939 C 86.7956 -5.88382 -0.596698 0
M  V30 940 C 86.1576 -7.04285 -0.127262 0
M  V30 941 H 82.2566 -0.643611 -0.444172 0
M  V30 942 H 84.8406 -1.86842 -0.54754 0
M  V30 943 H 83.0116 -2.47449 -2.99372 0
M  V30 944 H 84.7436 -2.72205 -2.99477 0
M  V30 945 H 81.4986 -4.36936 -1.82712 0
M  V30 946 H 81.9226 -6.73407 -0.696534 0
M  V30 947 H 86.5646 -3.94786 -1.5134 0
M  V30 948 H 84.2826 -8.0797 0.144903 0
M  V30 949 H 87.8686 -5.79545 -0.511716 0
M  V30 950 H 86.7486 -7.83606 0.30523 0
M  V30 951 N 84.2517 0.741722 -1.39055 0
M  V30 952 C 85.4977 1.50336 -1.36113 0
M  V30 953 C 85.8307 1.94148 0.0450796 0
M  V30 954 O 85.1057 1.66301 1.00868 0
M  V30 955 C 85.3887 2.74773 -2.32749 0
M  V30 956 C 85.2417 2.37023 -3.82283 0
M  V30 957 C 86.5607 3.76846 -2.27322 0
M  V30 958 H 83.6797 0.545351 -0.495743 0
M  V30 959 H 86.3217 0.848624 -1.69995 0
M  V30 960 H 84.4717 3.30639 -2.03986 0
M  V30 961 H 86.1437 1.8684 -4.21768 0
M  V30 962 H 84.3867 1.69334 -3.99385 0
M  V30 963 H 85.0577 3.26104 -4.45376 0
M  V30 964 H 87.5337 3.30548 -2.5274 0
M  V30 965 H 86.4097 4.6159 -2.97028 0
M  V30 966 H 86.6707 4.23286 -1.27599 0
M  V30 967 N 85.7298 1.2412 0.971189 0
M  V30 968 C 86.9578 1.10575 1.74874 0
M  V30 969 C 87.3728 -0.342017 1.85676 0
M  V30 970 O 86.7298 -1.23617 1.34258 0
M  V30 971 C 86.7808 1.73579 3.171 0
M  V30 972 O 86.5018 3.12695 3.06844 0
M  V30 973 C 88.0028 1.65598 4.11208 0
M  V30 974 H 85.2228 0.386504 0.548503 0
M  V30 975 H 87.7668 1.64156 1.21955 0
M  V30 976 H 85.9218 1.24009 3.67016 0
M  V30 977 H 86.3358 3.43412 3.96445 0
M  V30 978 H 87.8098 2.1437 5.08674 0
M  V30 979 H 88.2868 0.616532 4.34851 0
M  V30 980 H 88.8928 2.14578 3.67201 0
M  V30 981 N 87.2079 -1.17134 1.05439 0
M  V30 982 C 88.1579 -2.1919 0.627675 0
M  V30 983 C 89.1419 -1.57328 -0.337147 0
M  V30 984 O 90.3339 -1.76329 -0.153976 0
M  V30 985 C 87.4629 -3.43299 0.00651435 0
M  V30 986 C 86.5489 -4.12255 0.995312 0
M  V30 987 N 86.9399 -4.56997 2.16765 0
M  V30 988 C 85.2379 -4.38316 0.824336 0
M  V30 989 C 85.9389 -5.10239 2.7934 0
M  V30 990 N 84.9149 -5.02595 2.07122 0
M  V30 991 H 88.7169 -2.5149 1.52086 0
M  V30 992 H 86.2309 -1.33491 0.924868 0
M  V30 993 H 88.2279 -4.15693 -0.316965 0
M  V30 994 H 86.8879 -3.1249 -0.882033 0
M  V30 995 H 87.8989 -4.51006 2.54587 0
M  V30 996 H 84.5759 -4.17498 -0.0129526 0
M  V30 997 H 85.9659 -5.54961 3.78772 0
M  V30 998 N 88.686 -0.835752 -1.33615 0
M  V30 999 C 89.596 -0.269088 -2.33052 0
M  V30 1000 C 90.612 0.603251 -1.63208 0
M  V30 1001 O 91.788 0.508112 -1.94885 0
M  V30 1002 C 88.853 0.549091 -3.42324 0
M  V30 1003 C 87.914 -0.347156 -4.27894 0
M  V30 1004 C 87.147 0.43207 -5.31948 0
M  V30 1005 O 87.37 1.66409 -5.45586 0
M  V30 1006 O 86.304 -0.192298 -6.01593 0
M  V30 1007 H 90.13 -1.09243 -2.83372 0
M  V30 1008 H 87.715 -0.598198 -1.36901 0
M  V30 1009 H 89.597 1.01414 -4.09015 0
M  V30 1010 H 88.272 1.34955 -2.94226 0
M  V30 1011 H 87.179 -0.859979 -3.64081 0
M  V30 1012 H 88.512 -1.1123 -4.79467 0
M  V30 1013 N 90.1641 1.46063 -0.591896 0
M  V30 1014 C 91.5801 1.57561 -0.254288 0
M  V30 1015 C 91.7801 1.58565 1.24336 0
M  V30 1016 O 90.8361 1.50753 2.02558 0
M  V30 1017 C 92.1491 2.86549 -0.911611 0
M  V30 1018 C 93.6971 3.00197 -0.886059 0
M  V30 1019 C 94.1721 4.31933 -1.5231 0
M  V30 1020 N 95.6631 4.38654 -1.48786 0
M  V30 1021 C 96.3981 5.39222 -1.95006 0
M  V30 1022 N 95.8941 6.46414 -2.49241 0
M  V30 1023 N 97.6871 5.3048 -1.85868 0
M  V30 1024 H 89.8381 1.43655 -1.56451 0
M  V30 1025 H 92.1011 0.68583 -0.654478 0
M  V30 1026 H 91.8071 2.91651 -1.96551 0
M  V30 1027 H 91.6811 3.74794 -0.425368 0
M  V30 1028 H 94.0681 2.9467 0.159246 0
M  V30 1029 H 94.1491 2.13403 -1.41041 0
M  V30 1030 H 93.7931 4.38217 -2.56765 0
M  V30 1031 H 93.7231 5.17516 -0.973891 0
M  V30 1032 H 96.2141 3.61793 -1.09151 0
M  V30 1033 H 96.5271 7.19376 -2.82344 0
M  V30 1034 H 94.8721 6.47208 -2.53272 0
M  V30 1035 H 98.0631 4.45643 -1.43248 0
M  V30 1036 H 98.2361 6.08711 -2.22204 0
M  V30 1037 N 91.6422 0.330177 1.54103 0
M  V30 1038 C 92.5722 -0.525353 2.27513 0
M  V30 1039 C 93.5532 -1.11383 1.2856 0
M  V30 1040 O 94.7382 -1.13773 1.57383 0
M  V30 1041 C 91.8682 -1.6831 3.03791 0
M  V30 1042 C 90.8222 -1.2236 4.10137 0
M  V30 1043 C 90.1482 -2.46882 4.74293 0
M  V30 1044 C 91.4482 -0.333697 5.21233 0
M  V30 1045 H 93.1422 0.087013 2.99274 0
M  V30 1046 H 90.6882 0.0432893 1.43935 0
M  V30 1047 H 92.6412 -2.28795 3.5388 0
M  V30 1048 H 91.3652 -2.32216 2.29659 0
M  V30 1049 H 90.0242 -0.64165 3.60941 0
M  V30 1050 H 89.6722 -3.09165 3.96769 0
M  V30 1051 H 89.3722 -2.16825 5.46133 0
M  V30 1052 H 90.8962 -3.08117 5.27159 0
M  V30 1053 H 92.3102 -0.845013 5.67038 0
M  V30 1054 H 90.7072 -0.125612 5.99969 0
M  V30 1055 H 91.7772 0.633724 4.80741 0
M  V30 1056 N 93.1203 -1.57491 0.0584922 0
M  V30 1057 C 94.3973 -1.84346 -0.653918 0
M  V30 1058 C 94.7773 -0.948355 -1.88599 0
M  V30 1059 O 94.1253 -0.0112403 -2.28497 0
M  V30 1060 C 94.3353 -3.34239 -1.00425 0
M  V30 1061 C 95.6833 -4.01431 -1.38342 0
M  V30 1062 O 96.7073 -3.38907 -1.09637 0
M  V30 1063 O 95.5663 -5.11683 -1.91943 0
M  V30 1064 H 92.6603 -0.761112 -0.323478 0
M  V30 1065 H 95.2063 -1.6947 0.0884125 0
M  V30 1066 H 93.9783 -3.91089 -0.128625 0
M  V30 1067 H 93.6013 -3.54329 -1.80378 0
M  V30 1068 N 94.5984 0.214957 -1.56127 0
M  V30 1069 C 95.5284 1.2695 -1.95974 0
M  V30 1070 C 96.5094 1.48539 -0.828868 0
M  V30 1071 O 97.6944 1.60611 -1.09168 0
M  V30 1072 C 94.8244 2.61794 -2.28214 0
M  V30 1073 C 93.7784 2.54851 -3.43853 0
M  V30 1074 C 93.1044 3.93785 -3.61715 0
M  V30 1075 C 94.4044 2.09065 -4.78632 0
M  V30 1076 H 96.0984 0.93846 -2.84312 0
M  V30 1077 H 93.6444 0.449996 -1.36788 0
M  V30 1078 H 95.5974 3.35731 -2.54682 0
M  V30 1079 H 94.3214 2.96599 -1.36736 0
M  V30 1080 H 92.9804 1.8337 -3.17444 0
M  V30 1081 H 92.6284 4.25908 -2.67602 0
M  V30 1082 H 92.3284 3.90019 -4.39498 0
M  V30 1083 H 93.8524 4.69374 -3.90539 0
M  V30 1084 H 95.2664 2.7275 -5.04262 0
M  V30 1085 H 93.6634 2.16346 -5.59745 0
M  V30 1086 H 94.7334 1.04315 -4.73547 0
M  V30 1087 N 96.0765 1.50051 0.48192 0
M  V30 1088 C 97.0235 1.68122 1.58125 0
M  V30 1089 C 97.9935 0.522545 1.57666 0
M  V30 1090 O 99.1785 0.751844 1.75362 0
M  V30 1091 C 96.3185 1.77142 2.96167 0
M  V30 1092 C 95.4315 3.0444 3.06497 0
M  V30 1093 C 94.5665 3.04321 4.35387 0
M  V30 1094 C 93.6055 4.26118 4.3942 0
M  V30 1095 N 92.7425 4.238 5.59766 0
M  V30 1096 H 97.5825 2.6198 1.42022 0
M  V30 1097 H 95.1195 1.29877 0.690687 0
M  V30 1098 H 97.0775 1.80352 3.76203 0
M  V30 1099 H 95.7075 0.867329 3.1093 0
M  V30 1100 H 94.7595 3.10752 2.19402 0
M  V30 1101 H 96.0715 3.94426 3.05336 0
M  V30 1102 H 95.2255 3.062 5.23762 0
M  V30 1103 H 93.9645 2.12147 4.39141 0
M  V30 1104 H 92.9695 4.24463 3.49444 0
M  V30 1105 H 94.1945 5.19507 4.37366 0
M  V30 1106 H 92.1405 3.34474 5.64326 0
M  V30 1107 H 92.0575 5.07542 5.60301 0
M  V30 1108 H 93.3255 4.2981 6.50295 0
M  V30 1109 N 97.5546 -0.734337 1.39446 0
M  V30 1110 C 98.5016 -1.84835 1.38219 0
M  V30 1111 C 99.4716 -1.64331 0.24179 0
M  V30 1112 O 100.657 -1.85728 0.437002 0
M  V30 1113 C 97.7966 -3.22355 1.23212 0
M  V30 1114 C 96.9096 -3.5456 2.46801 0
M  V30 1115 C 96.0446 -4.81485 2.24377 0
M  V30 1116 C 95.0836 -5.06536 3.43639 0
M  V30 1117 N 94.2206 -6.24665 3.20528 0
M  V30 1118 H 99.0606 -1.85219 2.33448 0
M  V30 1119 H 96.5976 -0.905039 1.15963 0
M  V30 1120 H 98.5556 -4.0174 1.12522 0
M  V30 1121 H 97.1856 -3.21248 0.316121 0
M  V30 1122 H 96.2376 -2.69872 2.68092 0
M  V30 1123 H 97.5496 -3.6899 3.3563 0
M  V30 1124 H 96.7036 -5.68852 2.10933 0
M  V30 1125 H 95.4426 -4.6923 1.32944 0
M  V30 1126 H 94.4476 -4.17632 3.5758 0
M  V30 1127 H 95.6726 -5.20676 4.35974 0
M  V30 1128 H 93.6186 -6.13696 2.3176 0
M  V30 1129 H 93.5356 -6.39685 4.02913 0
M  V30 1130 H 94.8036 -7.14868 3.10779 0
M  V30 1131 N 99.0327 -1.24633 -0.964593 0
M  V30 1132 C 100.282 -1.08188 -1.7023 0
M  V30 1133 C 100.595 0.37873 -1.91898 0
M  V30 1134 O 101.801 0.663427 -2.6327 0
M  V30 1135 C 100.257 -1.88773 -3.06419 0
M  V30 1136 C 99.8647 -3.39263 -2.92582 0
M  V30 1137 C 101.609 -1.80867 -3.84041 0
M  V30 1138 C 99.5157 -4.1218 -4.24101 0
M  V30 1139 H 98.4457 -0.401245 -0.638372 0
M  V30 1140 H 101.097 -1.48742 -1.07462 0
M  V30 1141 H 99.4787 -1.41035 -3.70034 0
M  V30 1142 H 100.653 -3.94603 -2.37961 0
M  V30 1143 H 98.9677 -3.48154 -2.28424 0
M  V30 1144 H 101.565 -2.32646 -4.81435 0
M  V30 1145 H 101.908 -0.774543 -4.09031 0
M  V30 1146 H 102.441 -2.26301 -3.27159 0
M  V30 1147 H 99.1797 -5.15965 -4.04303 0
M  V30 1148 H 98.6997 -3.61626 -4.78526 0
M  V30 1149 H 100.379 -4.19349 -4.92702 0
M  V30 1150 N 100.511 1.16574 -1.06058 0
M  V30 1151 C 101.443 2.2045 -0.627239 0
M  V30 1152 C 102.456 1.59752 0.313534 0
M  V30 1153 O 103.645 1.78192 0.104896 0
M  V30 1154 C 100.745 3.3875 0.100974 0
M  V30 1155 C 99.9178 4.29008 -0.852687 0
M  V30 1156 C 98.9768 5.25944 -0.164152 0
M  V30 1157 O 98.0028 5.63535 -0.801047 0
M  V30 1158 N 99.2048 5.70075 1.09518 0
M  V30 1159 H 101.97 2.58249 -1.52077 0
M  V30 1160 H 99.5308 1.3156 -0.943594 0
M  V30 1161 H 101.523 4.00638 0.57194 0
M  V30 1162 H 100.093 2.99476 0.89628 0
M  V30 1163 H 99.3128 3.64419 -1.50308 0
M  V30 1164 H 100.601 4.86195 -1.49972 0
M  V30 1165 H 99.9988 5.41624 1.6328 0
M  V30 1166 H 98.5558 6.34067 1.51006 0
M  V30 1167 N 101.989 0.842826 1.3317 0
M  V30 1168 C 103.236 0.440447 1.97652 0
M  V30 1169 C 103.564 -1.00123 1.6675 0
M  V30 1170 O 102.819 -1.7155 0.941761 0
M  V30 1171 C 103.118 0.612607 3.52111 0
M  V30 1172 C 102.784 2.02297 4.02972 0
M  V30 1173 C 101.446 2.40874 4.16573 0
M  V30 1174 C 103.798 2.94402 4.30089 0
M  V30 1175 C 101.126 3.70852 4.54627 0
M  V30 1176 C 103.478 4.23865 4.69597 0
M  V30 1177 C 102.142 4.62392 4.81404 0
M  V30 1178 H 101.412 0.161171 0.72326 0
M  V30 1179 H 104.059 1.07061 1.58777 0
M  V30 1180 H 102.364 -0.100849 3.9167 0
M  V30 1181 H 104.061 0.2815 4.00011 0
M  V30 1182 H 100.651 1.71338 3.92863 0
M  V30 1183 H 104.835 2.65835 4.19101 0
M  V30 1184 H 100.091 4.00501 4.61962 0
M  V30 1185 H 104.265 4.95306 4.89536 0
M  V30 1186 H 101.892 5.63154 5.10648 0
M  V30 1187 N 103.467 -1.45747 0.599634 0
M  V30 1188 C 104.878 -1.85853 0.177681 0
M  V30 1189 C 105.229 -1.50102 -1.26348 0
M  V30 1190 O 104.354 -0.923905 -1.95686 0
M  V30 1191 C 104.949 -3.37326 0.315688 0
M  V30 1192 C 103.508 -3.76365 -0.0515144 0
M  V30 1193 C 102.655 -2.69722 0.643822 0
M  V30 1194 H 105.606 -1.36661 0.806814 0
M  V30 1195 H 105.627 -3.77778 -0.454321 0
M  V30 1196 H 105.139 -3.63315 1.36468 0
M  V30 1197 H 103.24 -3.55993 -1.09999 0
M  V30 1198 H 103.353 -4.77916 0.336594 0
M  V30 1199 H 101.717 -2.54567 0.0822881 0
M  V30 1200 H 102.5 -2.98549 1.6948 0
M  V30 1201 N 104.945 -0.338344 -1.53925 0
M  V30 1202 C 105.892 0.520845 -2.24846 0
M  V30 1203 C 106.862 1.09976 -1.24477 0
M  V30 1204 O 108.047 1.13735 -1.53196 0
M  V30 1205 C 105.187 1.6685 -3.02084 0
M  V30 1206 C 104.3 1.11739 -4.17299 0
M  V30 1207 C 103.435 2.23193 -4.82036 0
M  V30 1208 C 102.474 1.65407 -5.89328 0
M  V30 1209 N 101.611 2.70582 -6.47866 0
M  V30 1210 H 106.451 -0.0904881 -2.97863 0
M  V30 1211 H 103.988 -0.0564282 -1.46992 0
M  V30 1212 H 105.946 2.34407 -3.45122 0
M  V30 1213 H 104.576 2.2509 -2.31375 0
M  V30 1214 H 103.628 0.332919 -3.7894 0
M  V30 1215 H 104.94 0.654677 -4.94485 0
M  V30 1216 H 104.094 2.98626 -5.28117 0
M  V30 1217 H 102.833 2.72807 -4.04262 0
M  V30 1218 H 101.838 0.884779 -5.42634 0
M  V30 1219 H 103.063 1.16652 -6.69006 0
M  V30 1220 H 101.009 3.1946 -5.72959 0
M  V30 1221 H 100.926 2.28917 -7.20509 0
M  V30 1222 H 102.194 3.45799 -6.98601 0
M  V30 1223 N 106.423 1.57458 -0.0668435 0
M  V30 1224 C 107.37 2.12439 0.902122 0
M  V30 1225 C 108.34 1.03565 1.2986 0
M  V30 1226 O 109.525 1.312 1.38532 0
M  V30 1227 C 106.665 2.6865 2.16614 0
M  V30 1228 C 105.778 3.91663 1.82274 0
M  V30 1229 C 104.913 4.36134 3.0325 0
M  V30 1230 C 103.952 5.51808 2.64904 0
M  V30 1231 N 103.089 5.9126 3.78624 0
M  V30 1232 H 107.929 2.94934 0.426382 0
M  V30 1233 H 105.466 1.4575 0.198819 0
M  V30 1234 H 107.424 2.99346 2.90599 0
M  V30 1235 H 106.054 1.88928 2.61737 0
M  V30 1236 H 105.106 3.6746 0.983719 0
M  V30 1237 H 106.418 4.75693 1.50059 0
M  V30 1238 H 105.572 4.68465 3.85519 0
M  V30 1239 H 104.311 3.50948 3.38655 0
M  V30 1240 H 103.316 5.19133 1.81055 0
M  V30 1241 H 104.541 6.38722 2.30675 0
M  V30 1242 H 102.487 5.09024 4.138 0
M  V30 1243 H 102.404 6.70018 3.5016 0
M  V30 1244 H 103.672 6.28212 4.61486 0
M  V30 1245 N 107.901 -0.206675 1.56239 0
M  V30 1246 C 108.811 -1.27686 1.96808 0
M  V30 1247 C 109.827 -1.50455 0.874035 0
M  V30 1248 O 111.003 -1.63295 1.17884 0
M  V30 1249 C 108.068 -2.60358 2.28942 0
M  V30 1250 C 107.129 -2.45762 3.51994 0
M  V30 1251 C 106.362 -3.72108 3.82585 0
M  V30 1252 O 106.585 -4.75776 3.14631 0
M  V30 1253 O 105.519 -3.6833 4.76043 0
M  V30 1254 H 109.345 -0.962593 2.88041 0
M  V30 1255 H 106.93 -0.410746 1.43643 0
M  V30 1256 H 108.812 -3.38687 2.50737 0
M  V30 1257 H 107.487 -2.91435 1.4088 0
M  V30 1258 H 106.394 -1.65584 3.35459 0
M  V30 1259 H 107.727 -2.19621 4.40486 0
M  V30 1260 N 109.379 -1.50304 -0.473955 0
M  V30 1261 C 110.342 -1.6841 -1.55469 0
M  V30 1262 C 111.342 -0.554905 -1.50922 0
M  V30 1263 O 112.532 -0.821882 -1.53593 0
M  V30 1264 C 109.664 -1.70667 -2.95102 0
M  V30 1265 H 110.857 -2.64828 -1.40733 0
M  V30 1266 H 108.41 -1.39742 -0.700132 0
M  V30 1267 H 109.145 -0.75932 -3.15285 0
M  V30 1268 H 108.93 -2.52698 -2.9981 0
M  V30 1269 H 110.42 -1.8664 -3.73571 0
M  V30 1270 N 110.857 0.726932 -1.39834 0
M  V30 1271 C 111.804 1.841 -1.39197 0
M  V30 1272 C 112.774 1.642 -0.250502 0
M  V30 1273 O 113.959 1.85494 -0.446846 0
M  V30 1274 C 111.099 3.21697 -1.24919 0
M  V30 1275 C 110.212 3.53247 -2.48678 0
M  V30 1276 C 109.347 4.80289 -2.26928 0
M  V30 1277 C 108.386 5.04707 -3.4632 0
M  V30 1278 N 107.523 6.22956 -3.23836 0
M  V30 1279 H 112.363 1.83979 -2.34427 0
M  V30 1280 H 109.9 0.898876 -1.16442 0
M  V30 1281 H 111.858 4.01137 -1.1465 0
M  V30 1282 H 110.488 3.21076 -0.333153 0
M  V30 1283 H 109.54 2.68447 -2.69519 0
M  V30 1284 H 110.852 3.67205 -3.37582 0
M  V30 1285 H 110.006 5.67725 -2.13947 0
M  V30 1286 H 108.745 4.68519 -1.35431 0
M  V30 1287 H 107.75 4.1573 -3.5979 0
M  V30 1288 H 108.975 5.18357 -4.38729 0
M  V30 1289 H 106.921 6.12459 -2.35011 0
M  V30 1290 H 106.838 6.37539 -4.063 0
M  V30 1291 H 108.106 7.1321 -3.14566 0
M  V30 1292 N 112.336 1.25143 0.95797 0
M  V30 1293 C 113.564 1.12424 1.73691 0
M  V30 1294 C 113.979 -0.322304 1.86029 0
M  V30 1295 O 113.336 -1.22186 1.35561 0
M  V30 1296 C 113.387 1.76933 3.15241 0
M  V30 1297 O 113.108 3.15932 3.03511 0
M  V30 1298 C 114.609 1.6995 4.09429 0
M  V30 1299 H 111.829 0.3923 0.544373 0
M  V30 1300 H 114.373 1.6544 1.20207 0
M  V30 1301 H 112.528 1.27895 3.6568 0
M  V30 1302 H 112.942 3.47598 3.9278 0
M  V30 1303 H 114.416 2.19753 5.06372 0
M  V30 1304 H 114.893 0.662619 4.34173 0
M  V30 1305 H 115.499 2.18461 3.64904 0
M  V30 1306 N 113.814 -1.1601 1.06675 0
M  V30 1307 C 115.225 -1.68235 0.809565 0
M  V30 1308 C 115.576 -1.8454 -0.666303 0
M  V30 1309 O 114.701 -1.54374 -1.5165 0
M  V30 1310 C 115.296 -3.05585 1.46299 0
M  V30 1311 C 113.855 -3.54915 1.25349 0
M  V30 1312 C 113.002 -2.30804 1.53703 0
M  V30 1313 H 115.953 -1.00318 1.22971 0
M  V30 1314 H 115.974 -3.70174 0.880431 0
M  V30 1315 H 115.486 -2.93686 2.53713 0
M  V30 1316 H 113.587 -3.72067 0.199261 0
M  V30 1317 H 113.7 -4.36774 1.9689 0
M  V30 1318 H 112.064 -2.36007 0.957739 0
M  V30 1319 H 112.847 -2.21499 2.62284 0
M  V30 1320 N 115.292 -0.849877 -1.32721 0
M  V30 1321 C 116.52 -0.464754 -2.01613 0
M  V30 1322 C 116.935 0.937191 -1.63897 0
M  V30 1323 O 116.292 1.61081 -0.857856 0
M  V30 1324 C 116.343 -0.588638 -3.56675 0
M  V30 1325 O 116.064 -1.93535 -3.93034 0
M  V30 1326 C 117.565 -0.2019 -4.4284 0
M  V30 1327 H 114.785 -0.183215 -0.645502 0
M  V30 1328 H 117.329 -1.1455 -1.69407 0
M  V30 1329 H 115.484 0.0443159 -3.87375 0
M  V30 1330 H 115.898 -1.92871 -4.87751 0
M  V30 1331 H 117.372 -0.339599 -5.50954 0
M  V30 1332 H 117.849 0.857224 -4.30753 0
M  V30 1333 H 118.455 -0.809733 -4.17521 0
M  V30 1334 N 116.77 1.45427 -0.607355 0
M  V30 1335 C 117.717 2.3053 0.111625 0
M  V30 1336 C 118.687 1.4209 0.860216 0
M  V30 1337 O 119.872 1.71019 0.845998 0
M  V30 1338 C 117.012 3.26992 1.10319 0
M  V30 1339 C 116.125 4.30535 0.355493 0
M  V30 1340 C 115.26 5.14105 1.33676 0
M  V30 1341 C 114.299 6.09376 0.576862 0
M  V30 1342 N 113.436 6.85727 1.5074 0
M  V30 1343 H 118.276 2.91477 -0.620093 0
M  V30 1344 H 115.813 1.43631 -0.317594 0
M  V30 1345 H 117.771 3.81385 1.6912 0
M  V30 1346 H 116.401 2.67799 1.80232 0
M  V30 1347 H 115.453 3.78805 -0.348023 0
M  V30 1348 H 116.765 4.98235 -0.237423 0
M  V30 1349 H 115.919 5.72897 1.99684 0
M  V30 1350 H 114.658 4.46423 1.9636 0
M  V30 1351 H 113.663 5.49715 -0.0968519 0
M  V30 1352 H 114.888 6.79085 -0.0449341 0
M  V30 1353 H 112.834 6.20735 2.12189 0
M  V30 1354 H 112.751 7.49778 0.967913 0
M  V30 1355 H 114.019 7.4906 2.15706 0
M  V30 1356 N 118.248 0.346503 1.53744 0
M  V30 1357 C 119.196 -0.52422 2.26616 0
M  V30 1358 C 120.19 -1.09948 1.28871 0
M  V30 1359 O 121.396 -1.04488 1.46568 0
M  V30 1360 H 117.771 -0.187743 0.728187 0
M  V30 1361 H 119.742 0.11239 2.98188 0
M  V30 1362 C 118.491 -1.66186 3.05414 0
M  V30 1363 H 117.814 -1.22848 3.80458 0
M  V30 1364 H 119.254 -2.24622 3.59612 0
M  V30 1365 C 117.713 -2.59302 2.1509 0
M  V30 1366 O 118.243 -3.61628 1.74895 0
M  V30 1367 N 116.449 -2.28055 1.8011 0
M  V30 1368 H 115.996 -1.44883 2.12994 0
M  V30 1369 H 115.954 -2.90615 1.19958 0
M  V30 1370 N 119.726 -1.57421 0.075193 0
M  V30 1371 C 120.974 -1.93236 -0.591974 0
M  V30 1372 C 121.295 -0.956241 -1.69944 0
M  V30 1373 O 120.565 -0.00494792 -1.95899 0
M  V30 1374 H 119.145 -0.713355 -0.22166 0
M  V30 1375 H 121.807 -1.9444 0.133848 0
M  V30 1376 H 120.903 -2.95131 -1.01509 0
M  V30 1377 N 121.204 0.198386 -1.56346 0
M  V30 1378 C 122.134 1.24865 -1.9731 0
M  V30 1379 C 123.115 1.47651 -0.844576 0
M  V30 1380 O 124.3 1.59444 -1.10866 0
M  V30 1381 C 121.43 2.59358 -2.30977 0
M  V30 1382 C 120.384 2.5119 -3.46537 0
M  V30 1383 C 119.71 3.89926 -3.65871 0
M  V30 1384 C 121.01 2.03977 -4.80823 0
M  V30 1385 H 122.704 0.908252 -2.85291 0
M  V30 1386 H 120.25 0.435462 -1.37258 0
M  V30 1387 H 122.203 3.33011 -2.58228 0
M  V30 1388 H 120.927 2.95132 -1.39874 0
M  V30 1389 H 119.586 1.79993 -3.19371 0
M  V30 1390 H 119.234 4.23046 -2.72105 0
M  V30 1391 H 118.934 3.85336 -4.4361 0
M  V30 1392 H 120.458 4.65205 -3.95495 0
M  V30 1393 H 121.872 2.67386 -5.07127 0
M  V30 1394 H 120.269 2.10397 -5.62008 0
M  V30 1395 H 121.339 0.992861 -4.74626 0
M  V30 1396 N 122.682 1.50554 0.465978 0
M  V30 1397 C 124.093 1.54599 1.04671 0
M  V30 1398 C 124.444 0.352488 1.93008 0
M  V30 1399 O 123.569 -0.534044 2.09707 0
M  V30 1400 C 124.164 2.80166 1.90505 0
M  V30 1401 C 122.723 2.86876 2.43678 0
M  V30 1402 C 121.87 2.48947 1.22151 0
M  V30 1403 H 124.821 1.56744 0.248384 0
M  V30 1404 H 124.842 2.62311 2.75633 0
M  V30 1405 H 124.354 3.67013 1.26186 0
M  V30 1406 H 122.455 2.04393 3.11536 0
M  V30 1407 H 122.568 3.89885 2.78436 0
M  V30 1408 H 120.932 2.01498 1.5579 0
M  V30 1409 H 121.715 3.38107 0.594866 0
M  V30 1410 N 124.16 -0.719506 1.40217 0
M  V30 1411 C 125.408 -1.47641 1.3801 0
M  V30 1412 C 125.729 -1.94992 -0.018145 0
M  V30 1413 O 124.999 -1.70073 -0.972207 0
M  V30 1414 H 123.579 -0.547744 0.507923 0
M  V30 1415 H 126.241 -0.853187 1.75233 0
M  V30 1416 H 125.337 -2.35112 2.05253 0
M  V30 1417 N 125.638 -1.25649 -0.95132 0
M  V30 1418 C 126.863 -1.13443 -1.73624 0
M  V30 1419 C 127.288 0.307565 -1.85568 0
M  V30 1420 O 126.646 1.22282 -1.33854 0
M  V30 1421 C 126.694 -1.79723 -3.12621 0
M  V30 1422 O 125.798 -1.07912 -3.98031 0
M  V30 1423 H 125.139 -0.395872 -0.533086 0
M  V30 1424 H 127.669 -1.66276 -1.1922 0
M  V30 1425 H 127.679 -1.86141 -3.63064 0
M  V30 1426 H 126.354 -2.84633 -3.03244 0
M  V30 1427 H 124.931 -1.09398 -3.56492 0
M  V30 1428 N 127.117 1.15442 -1.07289 0
M  V30 1429 C 128.533 1.38201 -0.798288 0
M  V30 1430 C 128.733 1.92429 0.597769 0
M  V30 1431 O 127.789 2.12962 1.3566 0
M  V30 1432 C 129.102 2.35357 -1.87156 0
M  V30 1433 C 130.65 2.49021 -1.89624 0
M  V30 1434 C 131.125 3.49468 -2.96034 0
M  V30 1435 N 132.616 3.57003 -2.95132 0
M  V30 1436 C 133.351 4.34543 -3.74112 0
M  V30 1437 N 132.847 5.15421 -4.6294 0
M  V30 1438 N 134.64 4.29625 -3.62462 0
M  V30 1439 H 126.791 0.78584 -1.97328 0
M  V30 1440 H 129.054 0.408065 -0.855679 0
M  V30 1441 H 128.76 2.02626 -2.87464 0
M  V30 1442 H 128.634 3.35129 -1.73114 0
M  V30 1443 H 131.021 2.81051 -0.899687 0
M  V30 1444 H 131.102 1.4925 -2.07745 0
M  V30 1445 H 130.746 3.18173 -3.95889 0
M  V30 1446 H 130.676 4.48992 -2.75161 0
M  V30 1447 H 133.167 2.99276 -2.30743 0
M  V30 1448 H 133.48 5.7183 -5.19837 0
M  V30 1449 H 131.825 5.14729 -4.66989 0
M  V30 1450 H 135.016 3.65505 -2.92444 0
M  V30 1451 H 135.189 4.89807 -4.24256 0
M  V30 1452 N 128.595 0.856903 1.32268 0
M  V30 1453 C 130.006 0.515711 1.79436 0
M  V30 1454 C 130.357 -0.966586 1.70738 0
M  V30 1455 O 129.482 -1.75409 1.26731 0
M  V30 1456 C 130.077 0.929335 3.25805 0
M  V30 1457 C 128.636 0.640006 3.70919 0
M  V30 1458 C 127.783 1.12784 2.53328 0
M  V30 1459 H 130.734 1.04389 1.19535 0
M  V30 1460 H 130.755 0.246633 3.797 0
M  V30 1461 H 130.267 2.00821 3.32103 0
M  V30 1462 H 128.368 -0.428051 3.70133 0
M  V30 1463 H 128.481 1.20788 4.63624 0
M  V30 1464 H 126.845 0.548033 2.48734 0
M  V30 1465 H 127.628 2.21387 2.62379 0
M  V30 1466 N 130.073 -1.45103 0.615059 0
M  V30 1467 C 131.321 -2.01784 0.112955 0
M  V30 1468 C 131.642 -1.48504 -1.26378 0
M  V30 1469 O 130.912 -0.682245 -1.83636 0
M  V30 1470 H 129.492 -0.745993 0.0387668 0
M  V30 1471 H 132.154 -1.77808 0.798141 0
M  V30 1472 H 131.25 -3.12025 0.0684069 0
M  V30 1473 N 131.551 -0.354651 -1.53558 0
M  V30 1474 C 132.776 0.242153 -2.05981 0
M  V30 1475 C 133.201 1.42553 -1.2272 0
M  V30 1476 O 132.559 1.79656 -0.243604 0
M  V30 1477 C 132.607 0.624367 -3.55154 0
M  V30 1478 O 131.711 1.72301 -3.74681 0
M  V30 1479 H 131.052 0.0378432 -0.662921 0
M  V30 1480 H 133.582 -0.512087 -1.98088 0
M  V30 1481 H 133.592 0.898433 -3.97985 0
M  V30 1482 H 132.267 -0.240989 -4.15201 0
M  V30 1483 H 130.844 1.44535 -3.4375 0
M  V30 1484 N 133.029 1.57378 -0.0835403 0
M  V30 1485 C 134.44 1.81261 0.447358 0
M  V30 1486 C 134.791 0.998331 1.68902 0
M  V30 1487 O 133.916 0.224282 2.15235 0
M  V30 1488 C 134.511 3.28767 0.818386 0
M  V30 1489 C 133.07 3.53455 1.29409 0
M  V30 1490 C 132.217 2.75831 0.285024 0
M  V30 1491 H 135.168 1.5566 -0.309115 0
M  V30 1492 H 135.189 3.41459 1.67887 0
M  V30 1493 H 134.701 3.88006 -0.0855019 0
M  V30 1494 H 132.802 2.99534 2.21608 0
M  V30 1495 H 132.915 4.62128 1.2639 0
M  V30 1496 H 131.279 2.42947 0.764767 0
M  V30 1497 H 132.062 3.37813 -0.611341 0
M  V30 1498 N 134.507 -0.190092 1.56449 0
M  V30 1499 C 135.417 -1.25591 1.98152 0
M  V30 1500 C 136.433 -1.49519 0.889944 0
M  V30 1501 O 137.609 -1.62036 1.19609 0
M  V30 1502 C 134.674 -2.57916 2.3169 0
M  V30 1503 C 133.735 -2.42015 3.5458 0
M  V30 1504 C 132.968 -3.6803 3.8651 0
M  V30 1505 O 133.191 -4.72413 3.1966 0
M  V30 1506 O 132.125 -3.6326 4.79923 0
M  V30 1507 H 135.951 -0.931988 2.89046 0
M  V30 1508 H 133.536 -0.395488 1.4407 0
M  V30 1509 H 135.418 -3.36008 2.54316 0
M  V30 1510 H 134.093 -2.89925 1.43963 0
M  V30 1511 H 133 -1.62017 3.37196 0
M  V30 1512 H 134.333 -2.14937 4.4279 0
M  V30 1513 N 135.985 -1.50799 -0.457987 0
M  V30 1514 C 137.401 -1.38515 -0.792819 0
M  V30 1515 C 137.601 -0.451409 -1.96379 0
M  V30 1516 O 136.657 0.10112 -2.52297 0
M  V30 1517 C 137.97 -2.80149 -1.09258 0
M  V30 1518 C 139.518 -2.89156 -1.19825 0
M  V30 1519 C 139.993 -4.31651 -1.53106 0
M  V30 1520 N 141.484 -4.34662 -1.60072 0
M  V30 1521 C 142.219 -5.41928 -1.87354 0
M  V30 1522 N 141.715 -6.59384 -2.12568 0
M  V30 1523 N 143.508 -5.29385 -1.88965 0
M  V30 1524 H 135.659 -2.10073 0.313511 0
M  V30 1525 H 137.922 -0.944803 0.0777862 0
M  V30 1526 H 137.628 -3.50374 -0.305084 0
M  V30 1527 H 137.502 -3.18204 -2.02549 0
M  V30 1528 H 139.889 -2.19141 -1.97639 0
M  V30 1529 H 139.97 -2.54626 -0.244821 0
M  V30 1530 H 139.614 -5.02208 -0.758266 0
M  V30 1531 H 139.544 -4.63678 -2.49621 0
M  V30 1532 H 142.035 -3.49973 -1.42573 0
M  V30 1533 H 142.348 -7.36934 -2.32696 0
M  V30 1534 H 140.693 -6.62535 -2.09933 0
M  V30 1535 H 143.884 -4.36616 -1.68772 0
M  V30 1536 H 144.057 -6.13066 -2.09891 0
M  V30 1537 N 137.463 0.71206 -1.40597 0
M  V30 1538 C 138.373 1.8562 -1.43466 0
M  V30 1539 C 139.389 1.70902 -0.326902 0
M  V30 1540 O 140.565 1.93105 -0.572043 0
M  V30 1541 C 137.63 3.21451 -1.29884 0
M  V30 1542 C 136.691 3.48398 -2.50833 0
M  V30 1543 C 135.924 4.77749 -2.3789 0
M  V30 1544 O 136.147 5.53089 -1.39459 0
M  V30 1545 O 135.081 5.05111 -3.27333 0
M  V30 1546 H 138.907 1.86155 -2.39958 0
M  V30 1547 H 136.492 0.86295 -1.21957 0
M  V30 1548 H 138.374 4.02579 -1.24531 0
M  V30 1549 H 137.049 3.21636 -0.364997 0
M  V30 1550 H 135.956 2.67265 -2.61763 0
M  V30 1551 H 137.289 3.53014 -3.4299 0
M  V30 1552 N 138.941 1.26152 0.944643 0
M  V30 1553 C 140.187 1.11657 1.69294 0
M  V30 1554 C 140.52 -0.339926 1.91202 0
M  V30 1555 O 139.795 -1.24994 1.49019 0
M  V30 1556 C 140.078 1.88236 3.06984 0
M  V30 1557 C 139.931 3.41772 2.92424 0
M  V30 1558 C 141.25 1.67343 4.07043 0
M  V30 1559 H 138.369 0.407004 0.614424 0
M  V30 1560 H 141.011 1.55106 1.09737 0
M  V30 1561 H 139.161 1.51308 3.57824 0
M  V30 1562 H 140.833 3.88433 2.48832 0
M  V30 1563 H 139.076 3.68974 2.28124 0
M  V30 1564 H 139.747 3.90579 3.90067 0
M  V30 1565 H 142.223 1.99509 3.65151 0
M  V30 1566 H 141.099 2.23346 5.01406 0
M  V30 1567 H 141.36 0.617158 4.37771 0
M  V30 1568 N 140.419 -1.14872 1.07899 0
M  V30 1569 C 141.83 -1.67367 0.827363 0
M  V30 1570 C 142.181 -1.85236 -0.646693 0
M  V30 1571 O 141.306 -1.55974 -1.50004 0
M  V30 1572 C 141.901 -3.04016 1.49532 0
M  V30 1573 C 140.46 -3.53566 1.29106 0
M  V30 1574 C 139.607 -2.29161 1.56143 0
M  V30 1575 H 142.558 -0.990083 1.24028 0
M  V30 1576 H 142.579 -3.69219 0.919643 0
M  V30 1577 H 142.091 -2.90978 2.56814 0
M  V30 1578 H 140.192 -3.71835 0.238713 0
M  V30 1579 H 140.305 -4.34661 2.01511 0
M  V30 1580 H 138.669 -2.34978 0.982717 0
M  V30 1581 H 139.452 -2.18705 2.64619 0
M  V30 1582 N 141.898 -0.863906 -1.31812 0
M  V30 1583 C 142.861 -0.320212 -2.26952 0
M  V30 1584 C 143.861 0.525369 -1.51975 0
M  V30 1585 O 145.051 0.335547 -1.70938 0
M  V30 1586 C 142.183 0.545919 -3.365 0
M  V30 1587 H 143.376 -1.16004 -2.76556 0
M  V30 1588 H 140.929 -0.638995 -1.42641 0
M  V30 1589 H 141.664 1.40718 -2.92179 0
M  V30 1590 H 141.449 -0.0594674 -3.92055 0
M  V30 1591 H 142.939 0.918796 -4.07367 0
M  V30 1592 N 143.376 1.44774 -0.622745 0
M  V30 1593 C 144.601 2.06999 -0.128968 0
M  V30 1594 C 145.026 1.4617 1.1839 0
M  V30 1595 O 144.384 0.560007 1.72434 0
M  V30 1596 C 144.432 3.60595 -0.0188351 0
M  V30 1597 O 143.536 3.99398 1.02739 0
M  V30 1598 H 142.877 0.659047 -0.0809544 0
M  V30 1599 H 145.407 1.85784 -0.85705 0
M  V30 1600 H 145.417 4.07627 0.174476 0
M  V30 1601 H 144.092 4.04252 -0.977384 0
M  V30 1602 H 142.669 3.64011 0.809326 0
M  V30 1603 N 144.854 0.36279 1.53368 0
M  V30 1604 C 145.817 -0.472679 2.24273 0
M  V30 1605 C 146.817 -1.012 1.24961 0
M  V30 1606 O 148.007 -0.898194 1.49259 0
M  V30 1607 C 145.139 -1.66039 2.97731 0
M  V30 1608 H 146.332 0.14773 2.99536 0
M  V30 1609 H 143.885 0.114434 1.55881 0
M  V30 1610 H 144.62 -2.31896 2.26704 0
M  V30 1611 H 144.405 -1.28066 3.70596 0
M  V30 1612 H 145.895 -2.25252 3.51641 0
M  V30 1613 N 146.332 -1.57332 0.0918853 0
M  V30 1614 C 147.264 -2.10869 -0.898168 0
M  V30 1615 C 148.277 -1.04521 -1.24817 0
M  V30 1616 O 149.466 -1.31977 -1.20184 0
M  V30 1617 C 146.566 -2.57083 -2.2082 0
M  V30 1618 C 145.739 -3.87229 -2.03402 0
M  V30 1619 C 144.798 -4.19324 -3.17889 0
M  V30 1620 O 143.824 -4.88598 -2.91994 0
M  V30 1621 N 145.026 -3.74471 -4.43567 0
M  V30 1622 H 147.791 -2.96439 -0.440943 0
M  V30 1623 H 145.352 -1.61631 -0.0933064 0
M  V30 1624 H 147.344 -2.75602 -2.96354 0
M  V30 1625 H 145.914 -1.76541 -2.57977 0
M  V30 1626 H 145.134 -3.7789 -1.12218 0
M  V30 1627 H 146.422 -4.72379 -1.89038 0
M  V30 1628 H 145.82 -3.18546 -4.67488 0
M  V30 1629 H 144.377 -3.98151 -5.16061 0
M  V30 1630 N 147.81 0.181792 -1.56548 0
M  V30 1631 C 148.773 1.20894 -1.94724 0
M  V30 1632 C 149.773 1.37738 -0.829747 0
M  V30 1633 O 150.963 1.35323 -1.09697 0
M  V30 1634 C 148.095 2.57593 -2.23291 0
M  V30 1635 H 149.288 0.882275 -2.86629 0
M  V30 1636 H 146.841 0.423838 -1.50444 0
M  V30 1637 H 147.576 2.95291 -1.34067 0
M  V30 1638 H 147.361 2.46735 -3.04736 0
M  V30 1639 H 148.851 3.31637 -2.53785 0
M  V30 1640 N 149.288 1.51039 0.449983 0
M  V30 1641 C 150.513 1.6715 1.22783 0
M  V30 1642 C 150.938 0.363081 1.84563 0
M  V30 1643 O 150.296 -0.675433 1.68249 0
M  V30 1644 C 150.344 2.77985 2.29689 0
M  V30 1645 O 149.448 2.40707 3.34864 0
M  V30 1646 H 148.789 0.557746 0.360299 0
M  V30 1647 H 151.319 1.97535 0.533005 0
M  V30 1648 H 151.329 3.01693 2.74673 0
M  V30 1649 H 150.004 3.72935 1.84098 0
M  V30 1650 H 148.581 2.27523 2.95445 0
M  V30 1651 N 150.766 -0.704594 1.40972 0
M  V30 1652 C 152.014 -1.46169 1.39568 0
M  V30 1653 C 152.335 -1.95 0.00253745 0
M  V30 1654 O 151.605 -1.71095 -0.954114 0
M  V30 1655 H 150.185 -0.542326 0.513704 0
M  V30 1656 H 152.847 -0.834553 1.76128 0
M  V30 1657 H 151.943 -2.32922 2.07735 0
M  V30 1658 N 152.244 -1.26651 -0.937939 0
M  V30 1659 C 153.191 -1.0849 -2.03712 0
M  V30 1660 C 154.161 0.011033 -1.66096 0
M  V30 1661 O 155.346 -0.149353 -1.90215 0
M  V30 1662 C 152.486 -0.72735 -3.37348 0
M  V30 1663 C 151.599 -1.89986 -3.87981 0
M  V30 1664 C 150.734 -1.48513 -5.10017 0
M  V30 1665 C 149.773 -2.62575 -5.5292 0
M  V30 1666 N 148.91 -2.21762 -6.66158 0
M  V30 1667 H 153.75 -2.02551 -2.18579 0
M  V30 1668 H 151.287 -1.00844 -1.07093 0
M  V30 1669 H 153.245 -0.50092 -4.14182 0
M  V30 1670 H 151.875 0.176298 -3.22318 0
M  V30 1671 H 150.927 -2.23913 -3.07518 0
M  V30 1672 H 152.239 -2.75586 -4.15757 0
M  V30 1673 H 151.393 -1.21934 -5.94321 0
M  V30 1674 H 150.132 -0.60009 -4.83994 0
M  V30 1675 H 149.137 -2.8988 -4.67172 0
M  V30 1676 H 150.362 -3.51685 -5.80943 0
M  V30 1677 H 148.308 -1.35696 -6.41812 0
M  V30 1678 H 148.225 -3.00903 -6.93537 0
M  V30 1679 H 149.493 -1.98403 -7.53828 0
M  V30 1680 N 153.722 1.14298 -1.08507 0
M  V30 1681 C 154.95 1.89219 -0.836876 0
M  V30 1682 C 155.365 1.78638 0.611054 0
M  V30 1683 O 154.722 1.14643 1.41998 0
M  V30 1684 C 154.773 3.39158 -1.25116 0
M  V30 1685 O 154.494 3.49449 -2.64229 0
M  V30 1686 C 155.995 4.31073 -1.03398 0
M  V30 1687 H 153.215 0.599328 -0.301739 0
M  V30 1688 H 155.759 1.44746 -1.44461 0
M  V30 1689 H 153.914 3.81251 -0.687514 0
M  V30 1690 H 154.328 4.42589 -2.81452 0
M  V30 1691 H 155.802 5.34646 -1.37323 0
M  V30 1692 H 156.279 4.3919 0.0289259 0
M  V30 1693 H 156.885 3.94738 -1.58311 0
M  V30 1694 N 155.201 0.870884 1.31352 0
M  V30 1695 C 156.131 0.343096 2.30966 0
M  V30 1696 C 157.112 -0.566507 1.60389 0
M  V30 1697 O 158.297 -0.483336 1.88089 0
M  V30 1698 C 155.427 -0.455487 3.443 0
M  V30 1699 C 154.381 0.361103 4.26474 0
M  V30 1700 C 153.707 -0.563221 5.31725 0
M  V30 1701 C 155.007 1.59566 4.97329 0
M  V30 1702 H 156.701 1.17548 2.75359 0
M  V30 1703 H 154.247 0.566686 1.32381 0
M  V30 1704 H 156.2 -0.83525 4.13039 0
M  V30 1705 H 154.924 -1.32139 2.98675 0
M  V30 1706 H 153.583 0.722825 3.59403 0
M  V30 1707 H 153.231 -1.42643 4.82351 0
M  V30 1708 H 152.931 -0.0207409 5.87596 0
M  V30 1709 H 154.455 -0.939808 6.03324 0
M  V30 1710 H 155.869 1.28728 5.58661 0
M  V30 1711 H 154.266 2.07728 5.63 0
M  V30 1712 H 155.336 2.34798 4.24262 0
M  V30 1713 N 156.679 -1.44442 0.630414 0
M  V30 1714 C 158.09 -1.85434 0.217063 0
M  V30 1715 C 158.441 -1.52748 -1.23136 0
M  V30 1716 O 157.566 -0.965205 -1.93682 0
M  V30 1717 C 158.161 -3.36581 0.387168 0
M  V30 1718 C 156.72 -3.76389 0.0283297 0
M  V30 1719 C 155.867 -2.68296 0.700889 0
M  V30 1720 H 158.818 -1.34919 0.83562 0
M  V30 1721 H 158.839 -3.78657 -0.374086 0
M  V30 1722 H 158.351 -3.60339 1.44144 0
M  V30 1723 H 156.452 -3.58246 -1.02423 0
M  V30 1724 H 156.565 -4.77095 0.437892 0
M  V30 1725 H 154.929 -2.54335 0.136267 0
M  V30 1726 H 155.712 -2.94887 1.75774 0
M  V30 1727 N 158.157 -0.370918 -1.53173 0
M  V30 1728 C 159.406 0.218249 -2.00516 0
M  V30 1729 C 159.719 1.49429 -1.26215 0
M  V30 1730 O 160.925 2.16239 -1.64174 0
M  V30 1731 C 159.381 0.43948 -3.57207 0
M  V30 1732 C 158.989 -0.822244 -4.4039 0
M  V30 1733 C 160.733 0.986012 -4.1289 0
M  V30 1734 C 158.64 -0.570304 -5.88644 0
M  V30 1735 H 157.57 0.0853333 -0.749156 0
M  V30 1736 H 160.221 -0.490483 -1.76823 0
M  V30 1737 H 158.603 1.20961 -3.77074 0
M  V30 1738 H 159.777 -1.59557 -4.32294 0
M  V30 1739 H 158.092 -1.29238 -3.95836 0
M  V30 1740 H 160.689 1.18991 -5.21292 0
M  V30 1741 H 161.032 1.94972 -3.6782 0
M  V30 1742 H 161.565 0.27592 -3.96842 0
M  V30 1743 H 158.304 -1.50449 -6.38001 0
M  V30 1744 H 157.824 0.164427 -5.99575 0
M  V30 1745 H 159.503 -0.19784 -6.46697 0
M  V30 1746 N 159.635 1.57281 -0.100228 0
M  V30 1747 C 161.046 1.81725 0.428107 0
M  V30 1748 C 161.397 1.01619 1.67833 0
M  V30 1749 O 160.522 0.247098 2.14985 0
M  V30 1750 C 161.117 3.29617 0.78347 0
M  V30 1751 C 159.676 3.54808 1.25653 0
M  V30 1752 C 158.823 2.76118 0.255752 0
M  V30 1753 H 161.774 1.55324 -0.325608 0
M  V30 1754 H 161.795 3.4322 1.64256 0
M  V30 1755 H 161.307 3.87893 -0.12665 0
M  V30 1756 H 159.408 3.01868 2.18418 0
M  V30 1757 H 159.521 4.63443 1.21482 0
M  V30 1758 H 157.885 2.43745 0.738956 0
M  V30 1759 H 158.668 3.37145 -0.647136 0
M  V30 1760 N 161.113 -0.173488 1.56642 0
M  V30 1761 C 162.359 -0.891784 1.8214 0
M  V30 1762 C 162.692 -1.8199 0.677736 0
M  V30 1763 O 161.967 -1.91842 -0.320446 0
M  V30 1764 C 162.25 -1.68933 3.18015 0
M  V30 1765 C 162.103 -0.784487 4.42906 0
M  V30 1766 C 163.422 -2.65748 3.50808 0
M  V30 1767 H 160.541 -0.322761 0.662567 0
M  V30 1768 H 163.183 -0.158095 1.89341 0
M  V30 1769 H 161.333 -2.31482 3.12007 0
M  V30 1770 H 163.005 -0.172046 4.60979 0
M  V30 1771 H 161.248 -0.0924117 4.33702 0
M  V30 1772 H 161.919 -1.37799 5.34524 0
M  V30 1773 H 164.395 -2.13327 3.57255 0
M  V30 1774 H 163.271 -3.18619 4.4696 0
M  V30 1775 H 163.532 -3.45842 2.75401 0
M  V30 1776 N 162.591 -1.51276 -0.441967 0
M  V30 1777 C 163.523 -1.68444 -1.55433 0
M  V30 1778 C 164.536 -0.565187 -1.52674 0
M  V30 1779 O 165.725 -0.839356 -1.57534 0
M  V30 1780 C 162.825 -1.67966 -2.94348 0
M  V30 1781 C 161.998 -2.964 -3.21661 0
M  V30 1782 C 161.057 -2.88171 -4.40277 0
M  V30 1783 O 160.083 -3.62119 -4.39157 0
M  V30 1784 N 161.285 -2.03706 -5.43584 0
M  V30 1785 H 164.05 -2.644 -1.41112 0
M  V30 1786 H 161.611 -1.49104 -0.630838 0
M  V30 1787 H 163.603 -1.60035 -3.71713 0
M  V30 1788 H 162.173 -0.796225 -3.0229 0
M  V30 1789 H 161.393 -3.18234 -2.32638 0
M  V30 1790 H 162.681 -3.81427 -3.36736 0
M  V30 1791 H 162.079 -1.42995 -5.47329 0
M  V30 1792 H 160.636 -2.01658 -6.1982 0
M  V30 1793 N 164.069 0.697108 -1.41344 0
M  V30 1794 C 165.318 1.45279 -1.39918 0
M  V30 1795 C 165.631 1.95597 -0.0109624 0
M  V30 1796 O 166.837 2.71208 0.125919 0
M  V30 1797 C 165.293 2.62695 -2.46007 0
M  V30 1798 C 164.901 2.19169 -3.90729 0
M  V30 1799 C 166.645 3.40336 -2.53715 0
M  V30 1800 C 164.552 3.33535 -4.88373 0
M  V30 1801 H 163.482 0.545692 -0.520323 0
M  V30 1802 H 166.133 0.756929 -1.67161 0
M  V30 1803 H 164.515 3.34541 -2.11892 0
M  V30 1804 H 165.689 1.54623 -4.34083 0
M  V30 1805 H 164.004 1.54525 -3.86666 0
M  V30 1806 H 166.601 4.2547 -3.2385 0
M  V30 1807 H 166.944 3.85418 -1.5735 0
M  V30 1808 H 167.477 2.75546 -2.86913 0
M  V30 1809 H 164.216 2.93468 -5.86137 0
M  V30 1810 H 163.736 3.96936 -4.49668 0
M  V30 1811 H 165.415 3.99335 -5.09059 0
M  V30 1812 N 165.547 1.27147 0.931209 0
M  V30 1813 C 166.775 1.16082 1.71267 0
M  V30 1814 C 167.19 -0.282772 1.8667 0
M  V30 1815 O 166.547 -1.19283 1.38122 0
M  V30 1816 C 166.598 1.8358 3.11417 0
M  V30 1817 O 166.319 3.22299 2.96741 0
M  V30 1818 C 167.82 1.78597 4.05732 0
M  V30 1819 H 165.04 0.403758 0.535929 0
M  V30 1820 H 167.584 1.67953 1.16671 0
M  V30 1821 H 165.739 1.35623 3.62885 0
M  V30 1822 H 166.153 3.55851 3.85319 0
M  V30 1823 H 167.627 2.30444 5.01597 0
M  V30 1824 H 168.104 0.754564 4.3267 0
M  V30 1825 H 168.71 2.26152 3.60188 0
M  V30 1826 N 167.025 -1.13721 1.09112 0
M  V30 1827 C 167.955 -2.21148 0.749385 0
M  V30 1828 C 168.936 -1.6792 -0.271475 0
M  V30 1829 O 170.121 -1.93693 -0.140251 0
M  V30 1830 C 167.251 -3.46905 0.165659 0
M  V30 1831 C 166.205 -4.13203 1.11567 0
M  V30 1832 C 165.531 -5.33248 0.393809 0
M  V30 1833 C 166.831 -4.60912 2.45678 0
M  V30 1834 H 168.525 -2.4999 1.64758 0
M  V30 1835 H 166.071 -1.20156 0.793626 0
M  V30 1836 H 168.024 -4.21313 -0.085466 0
M  V30 1837 H 166.748 -3.17449 -0.767714 0
M  V30 1838 H 165.407 -3.40758 1.35202 0
M  V30 1839 H 165.055 -5.00054 -0.543599 0
M  V30 1840 H 164.755 -5.78552 1.02721 0
M  V30 1841 H 166.279 -6.10413 0.150908 0
M  V30 1842 H 167.693 -5.26759 2.26269 0
M  V30 1843 H 166.09 -5.16944 3.04776 0
M  V30 1844 H 167.16 -3.75603 3.06677 0
M  V30 1845 N 168.503 -0.877838 -1.30888 0
M  V30 1846 C 169.919 -0.570844 -1.49042 0
M  V30 1847 C 170.119 0.893159 -1.80624 0
M  V30 1848 O 169.175 1.67485 -1.88958 0
M  V30 1849 C 170.488 -1.47784 -2.61878 0
M  V30 1850 C 172.036 -1.48071 -2.75761 0
M  V30 1851 C 172.511 -2.37347 -3.91702 0
M  V30 1852 N 174.002 -2.35271 -3.99001 0
M  V30 1853 C 174.737 -3.01063 -4.88004 0
M  V30 1854 N 174.233 -3.76055 -5.81854 0
M  V30 1855 N 176.026 -2.90332 -4.81315 0
M  V30 1856 H 168.177 -1.82502 -1.0866 0
M  V30 1857 H 170.44 -0.780797 -0.537644 0
M  V30 1858 H 170.146 -2.51993 -2.45341 0
M  V30 1859 H 170.02 -1.18215 -3.58197 0
M  V30 1860 H 172.407 -0.446166 -2.91708 0
M  V30 1861 H 172.488 -1.81668 -1.80085 0
M  V30 1862 H 172.132 -3.40883 -3.76512 0
M  V30 1863 H 172.062 -2.01071 -4.86701 0
M  V30 1864 H 174.553 -1.80768 -3.3186 0
M  V30 1865 H 174.866 -4.23366 -6.46514 0
M  V30 1866 H 173.211 -3.80163 -5.81808 0
M  V30 1867 H 176.402 -2.31278 -4.06974 0
M  V30 1868 H 176.575 -3.41885 -5.50471 0
M  V30 1869 N 169.982 1.44106 -0.638065 0
M  V30 1870 C 171.229 2.01978 -0.14533 0
M  V30 1871 C 171.557 1.50234 1.23532 0
M  V30 1872 O 170.812 0.679548 1.83523 0
M  V30 1873 C 171.111 3.5729 -0.0887327 0
M  V30 1874 C 170.777 4.28317 -1.40909 0
M  V30 1875 C 169.439 4.47437 -1.77069 0
M  V30 1876 C 171.791 4.6867 -2.28031 0
M  V30 1877 C 169.119 5.04171 -3.00047 0
M  V30 1878 C 171.471 5.26766 -3.50286 0
M  V30 1879 C 170.135 5.44104 -3.86661 0
M  V30 1880 H 169.405 0.739089 -0.0531801 0
M  V30 1881 H 172.052 1.72781 -0.825761 0
M  V30 1882 H 170.357 3.8594 0.675095 0
M  V30 1883 H 172.054 3.99807 0.309145 0
M  V30 1884 H 168.644 4.1377 -1.1177 0
M  V30 1885 H 172.828 4.53604 -2.01388 0
M  V30 1886 H 168.084 5.15782 -3.28298 0
M  V30 1887 H 172.258 5.56983 -4.18023 0
M  V30 1888 H 169.885 5.87832 -4.82034 0
M  V30 1889 N 171.46 0.379036 1.52974 0
M  V30 1890 C 172.408 -0.476033 2.27677 0
M  V30 1891 C 173.402 -1.0719 1.31174 0
M  V30 1892 O 174.608 -1.01355 1.48752 0
M  V30 1893 H 170.983 -0.172255 0.732006 0
M  V30 1894 H 172.954 0.175615 2.97883 0
M  V30 1895 C 171.703 -1.5967 3.0887 0
M  V30 1896 H 171.026 -1.1475 3.82978 0
M  V30 1897 H 172.466 -2.16943 3.64296 0
M  V30 1898 C 170.925 -2.54682 2.20542 0
M  V30 1899 O 171.455 -3.57836 1.82527 0
M  V30 1900 N 169.661 -2.24183 1.84907 0
M  V30 1901 H 169.208 -1.40333 2.1602 0
M  V30 1902 H 169.166 -2.88006 1.26096 0
M  V30 1903 N 172.938 -1.57226 0.108567 0
M  V30 1904 C 173.868 -2.17778 -0.84232 0
M  V30 1905 C 174.849 -1.11487 -1.2847 0
M  V30 1906 O 176.034 -1.39681 -1.34918 0
M  V30 1907 C 173.164 -2.76888 -2.09644 0
M  V30 1908 C 172.118 -3.88669 -1.79221 0
M  V30 1909 C 171.444 -4.34541 -3.11574 0
M  V30 1910 C 172.744 -5.11251 -1.06864 0
M  V30 1911 H 174.438 -2.97489 -0.337774 0
M  V30 1912 H 171.984 -1.43097 -0.161025 0
M  V30 1913 H 173.937 -3.17904 -2.76614 0
M  V30 1914 H 172.661 -1.94451 -2.62405 0
M  V30 1915 H 171.32 -3.48213 -1.14644 0
M  V30 1916 H 170.968 -3.48977 -3.62249 0
M  V30 1917 H 170.668 -5.09914 -2.91996 0
M  V30 1918 H 172.192 -4.782 -3.7968 0
M  V30 1919 H 173.606 -5.49352 -1.63968 0
M  V30 1920 H 172.003 -5.9214 -0.974178 0
M  V30 1921 H 173.073 -4.8487 -0.0536168 0
M  V30 1922 N 174.416 0.165178 -1.56732 0
M  V30 1923 C 175.827 0.727046 -1.71962 0
M  V30 1924 C 176.178 1.82508 -0.720078 0
M  V30 1925 O 175.303 2.16082 0.117242 0
M  V30 1926 C 175.898 1.32559 -3.11791 0
M  V30 1927 C 174.457 1.83422 -3.28684 0
M  V30 1928 C 173.604 0.715567 -2.67908 0
M  V30 1929 H 176.555 -0.0602896 -1.58585 0
M  V30 1930 H 176.576 2.19533 -3.10782 0
M  V30 1931 H 176.088 0.526195 -3.84516 0
M  V30 1932 H 174.189 2.65986 -2.60926 0
M  V30 1933 H 174.302 1.97543 -4.36478 0
M  V30 1934 H 172.666 1.13758 -2.27884 0
M  V30 1935 H 173.449 -0.0720836 -3.43224 0
M  V30 1936 N 175.894 1.51508 0.433938 0
M  V30 1937 C 176.841 1.73068 1.52696 0
M  V30 1938 C 177.811 0.572441 1.55924 0
M  V30 1939 O 178.996 0.807253 1.72882 0
M  V30 1940 C 176.136 1.86474 2.90381 0
M  V30 1941 C 175.249 3.14037 2.96656 0
M  V30 1942 C 174.384 3.18019 4.25485 0
M  V30 1943 C 173.423 4.39882 4.2564 0
M  V30 1944 N 172.56 4.41394 5.45999 0
M  V30 1945 H 177.4 2.66366 1.33615 0
M  V30 1946 H 174.937 1.32008 0.649018 0
M  V30 1947 H 176.895 1.92229 3.70275 0
M  V30 1948 H 175.525 0.965809 3.08013 0
M  V30 1949 H 174.577 3.17575 2.09404 0
M  V30 1950 H 175.889 4.0394 2.92633 0
M  V30 1951 H 175.043 3.22708 5.13755 0
M  V30 1952 H 173.782 2.2601 4.3217 0
M  V30 1953 H 172.787 4.35366 3.35763 0
M  V30 1954 H 174.012 5.33159 4.20617 0
M  V30 1955 H 171.958 3.52258 5.53399 0
M  V30 1956 H 171.875 5.25111 5.4387 0
M  V30 1957 H 173.143 4.50281 6.36292 0
M  V30 1958 N 177.372 -0.689602 1.41712 0
M  V30 1959 C 178.282 -1.83314 1.46401 0
M  V30 1960 C 179.298 -1.7036 0.35405 0
M  V30 1961 O 180.474 -1.92171 0.602692 0
M  V30 1962 C 177.539 -3.19344 1.34982 0
M  V30 1963 C 176.6 -3.44363 2.56344 0
M  V30 1964 C 175.833 -4.73904 2.45461 0
M  V30 1965 O 176.056 -5.508 1.48241 0
M  V30 1966 O 174.99 -4.99839 3.35328 0
M  V30 1967 H 178.816 -1.82314 2.42889 0
M  V30 1968 H 176.401 -0.843438 1.23315 0
M  V30 1969 H 178.283 -4.00547 1.3092 0
M  V30 1970 H 176.958 -3.21014 0.41612 0
M  V30 1971 H 175.865 -2.63067 2.65982 0
M  V30 1972 H 177.198 -3.47512 3.48563 0
M  V30 1973 N 178.85 -1.27639 -0.924453 0
M  V30 1974 C 180.266 -1.05113 -1.20097 0
M  V30 1975 C 180.466 0.213262 -2.00368 0
M  V30 1976 O 179.522 0.91787 -2.35226 0
M  V30 1977 C 180.835 -2.29244 -1.94596 0
M  V30 1978 C 182.383 -2.34315 -2.07522 0
M  V30 1979 C 182.858 -3.58183 -2.85427 0
M  V30 1980 N 184.349 -3.5876 -2.92994 0
M  V30 1981 C 185.084 -4.51277 -3.53746 0
M  V30 1982 N 184.58 -5.54102 -4.15863 0
M  V30 1983 N 186.373 -4.38894 -3.51181 0
M  V30 1984 H 178.524 -2.08821 -0.388264 0
M  V30 1985 H 180.787 -0.918568 -0.234385 0
M  V30 1986 H 180.493 -3.21301 -1.43034 0
M  V30 1987 H 180.367 -2.34816 -2.95197 0
M  V30 1988 H 182.754 -1.42762 -2.58269 0
M  V30 1989 H 182.835 -2.32744 -1.06131 0
M  V30 1990 H 182.479 -4.50074 -2.35363 0
M  V30 1991 H 182.409 -3.57006 -3.8711 0
M  V30 1992 H 184.9 -2.84398 -2.4885 0
M  V30 1993 H 185.213 -6.20859 -4.60168 0
M  V30 1994 H 183.558 -5.57941 -4.144 0
M  V30 1995 H 186.749 -3.57772 -3.01856 0
M  V30 1996 H 186.922 -5.11186 -3.98237 0
M  V30 1997 N 180.328 1.1314 -1.09713 0
M  V30 1998 C 181.238 2.22242 -0.751367 0
M  V30 1999 C 182.254 1.72224 0.247938 0
M  V30 2000 O 183.43 2.01205 0.0885463 0
M  V30 2001 C 180.495 3.46231 -0.180274 0
M  V30 2002 C 179.556 4.11125 -1.2359 0
M  V30 2003 C 178.789 5.29195 -0.691966 0
M  V30 2004 O 179.012 5.68342 0.48414 0
M  V30 2005 O 177.946 5.84214 -1.44838 0
M  V30 2006 H 181.772 2.54197 -1.66186 0
M  V30 2007 H 179.357 1.21331 -0.871735 0
M  V30 2008 H 181.239 4.21185 0.134739 0
M  V30 2009 H 179.914 3.1597 0.703185 0
M  V30 2010 H 178.821 3.37985 -1.60366 0
M  V30 2011 H 180.154 4.45524 -2.09211 0
M  V30 2012 N 181.806 0.884767 1.30421 0
M  V30 2013 C 182.769 0.356277 2.26414 0
M  V30 2014 C 183.769 -0.501124 1.52792 0
M  V30 2015 O 184.959 -0.30831 1.7145 0
M  V30 2016 C 182.091 -0.492316 3.37326 0
M  V30 2017 H 183.284 1.20389 2.74675 0
M  V30 2018 H 180.837 0.661607 1.41607 0
M  V30 2019 H 181.572 -1.36052 2.94381 0
M  V30 2020 H 181.357 0.121832 3.91911 0
M  V30 2021 H 182.847 -0.853871 4.08777 0
M  V30 2022 N 183.284 -1.43765 0.645699 0
M  V30 2023 C 184.533 -2.01116 0.153412 0
M  V30 2024 C 184.846 -1.51493 -1.23731 0
M  V30 2025 O 186.052 -2.01067 -1.8244 0
M  V30 2026 C 184.508 -3.59206 0.223473 0
M  V30 2027 C 184.116 -4.17823 1.61642 0
M  V30 2028 C 185.86 -4.23972 -0.211597 0
M  V30 2029 C 183.767 -5.68183 1.64081 0
M  V30 2030 H 182.697 -0.752093 0.0535891 0
M  V30 2031 H 185.348 -1.6482 0.806633 0
M  V30 2032 H 183.73 -3.92867 -0.497118 0
M  V30 2033 H 184.904 -3.95674 2.36176 0
M  V30 2034 H 183.219 -3.65399 1.99681 0
M  V30 2035 H 185.816 -5.34275 -0.213112 0
M  V30 2036 H 186.159 -3.97352 -1.24165 0
M  V30 2037 H 186.692 -3.95166 0.456988 0
M  V30 2038 H 183.431 -5.99559 2.64971 0
M  V30 2039 H 182.951 -5.9241 0.938611 0
M  V30 2040 H 184.63 -6.32085 1.3812 0
M  V30 2041 N 184.763 -0.387143 -1.52771 0
M  V30 2042 C 186.174 0.0873634 -1.86495 0
M  V30 2043 C 186.525 1.46336 -1.30691 0
M  V30 2044 O 185.65 2.068 -0.637409 0
M  V30 2045 C 186.245 0.165305 -3.38396 0
M  V30 2046 C 184.804 0.584101 -3.7184 0
M  V30 2047 C 183.951 -0.255279 -2.76122 0
M  V30 2048 H 186.902 -0.605104 -1.46711 0
M  V30 2049 H 186.923 0.984848 -3.67534 0
M  V30 2050 H 186.435 -0.836301 -3.78982 0
M  V30 2051 H 184.536 1.59315 -3.36823 0
M  V30 2052 H 184.649 0.343749 -4.77865 0
M  V30 2053 H 183.013 0.279126 -2.53166 0
M  V30 2054 H 183.796 -1.25482 -3.19545 0
M  V30 2055 N 186.241 1.57166 -0.116904 0
M  V30 2056 C 187.489 1.94737 0.540533 0
M  V30 2057 C 187.81 1.00096 1.67349 0
M  V30 2058 O 187.08 0.0568854 1.95817 0
M  V30 2059 H 185.66 0.718981 0.202669 0
M  V30 2060 H 188.322 1.94017 -0.185353 0
M  V30 2061 H 187.418 2.97719 0.936483 0
M  V30 2062 N 187.719 -0.156864 1.56817 0
M  V30 2063 C 188.967 -0.869404 1.82444 0
M  V30 2064 C 189.288 -1.82147 0.69623 0
M  V30 2065 O 188.558 -1.93847 -0.28287 0
M  V30 2066 H 187.138 -0.324043 0.673056 0
M  V30 2067 H 189.8 -0.153224 1.94297 0
M  V30 2068 H 188.896 -1.43761 2.77019 0
M  V30 2069 N 189.197 -1.51736 -0.425897 0
M  V30 2070 C 190.107 -1.76738 -1.54275 0
M  V30 2071 C 191.123 -0.65211 -1.61318 0
M  V30 2072 O 192.299 -0.935654 -1.78346 0
M  V30 2073 C 189.364 -1.89755 -2.90162 0
M  V30 2074 C 188.425 -3.13633 -2.93143 0
M  V30 2075 C 187.658 -3.2602 -4.22548 0
M  V30 2076 O 187.881 -2.44067 -5.15546 0
M  V30 2077 O 186.815 -4.19071 -4.32046 0
M  V30 2078 H 190.641 -2.71502 -1.36089 0
M  V30 2079 H 188.226 -1.36376 -0.610069 0
M  V30 2080 H 190.108 -2.00236 -3.70788 0
M  V30 2081 H 188.783 -0.981785 -3.08452 0
M  V30 2082 H 187.69 -3.08622 -2.11431 0
M  V30 2083 H 189.023 -4.04936 -2.798 0
M  V30 2084 N 190.675 0.682077 -1.42076 0
M  V30 2085 C 192.086 1.26246 -1.37546 0
M  V30 2086 C 192.437 1.96092 -0.0651481 0
M  V30 2087 O 191.562 1.99587 0.836297 0
M  V30 2088 C 192.157 2.29594 -2.49143 0
M  V30 2089 C 190.716 2.83175 -2.47969 0
M  V30 2090 C 189.863 1.57395 -2.28303 0
M  V30 2091 H 192.814 0.475937 -1.51395 0
M  V30 2092 H 192.835 3.11175 -2.18976 0
M  V30 2093 H 192.347 1.78729 -3.44496 0
M  V30 2094 H 190.448 3.3818 -1.56413 0
M  V30 2095 H 190.561 3.32687 -3.44755 0
M  V30 2096 H 188.925 1.83699 -1.76428 0
M  V30 2097 H 189.708 1.08507 -3.25701 0
M  V30 2098 N 192.153 1.28127 0.917671 0
M  V30 2099 C 193.43 1.05761 1.64542 0
M  V30 2100 C 193.81 -0.404344 2.07191 0
M  V30 2101 O 193.158 -1.38963 1.81388 0
M  V30 2102 C 193.368 2.02857 2.83989 0
M  V30 2103 C 194.716 2.32786 3.551 0
M  V30 2104 O 195.74 2.0091 2.94132 0
M  V30 2105 O 194.599 2.87169 4.64969 0
M  V30 2106 H 191.693 0.403916 0.721652 0
M  V30 2107 H 194.239 1.39431 0.967322 0
M  V30 2108 H 193.011 3.01407 2.49538 0
M  V30 2109 H 192.634 1.69809 3.59514 0
M  V30 2110 N 193.631 -1.12557 1.10312 0
M  V30 2111 C 194.563 -2.17971 0.708625 0
M  V30 2112 C 195.576 -1.60806 -0.254027 0
M  V30 2113 O 196.765 -1.78458 -0.0386891 0
M  V30 2114 C 193.865 -3.38891 0.0248198 0
M  V30 2115 C 193.038 -4.25548 1.01132 0
M  V30 2116 C 192.097 -5.24972 0.35924 0
M  V30 2117 O 191.123 -5.60174 1.00965 0
M  V30 2118 N 192.325 -5.73747 -0.882847 0
M  V30 2119 H 195.09 -2.52427 1.61557 0
M  V30 2120 H 192.651 -1.27967 0.991771 0
M  V30 2121 H 194.643 -4.02485 -0.422852 0
M  V30 2122 H 193.213 -3.02596 -0.784514 0
M  V30 2123 H 192.433 -3.58589 1.6373 0
M  V30 2124 H 193.721 -4.80294 1.67914 0
M  V30 2125 H 193.119 -5.4731 -1.43065 0
M  V30 2126 H 191.676 -6.39234 -1.27369 0
M  V30 2127 N 195.109 -0.891671 -1.2995 0
M  V30 2128 C 196.52 -0.563104 -1.78006 0
M  V30 2129 C 196.871 0.920978 -1.73241 0
M  V30 2130 O 195.996 1.71987 -1.31337 0
M  V30 2131 C 196.591 -1.01539 -3.23226 0
M  V30 2132 C 195.15 -0.738124 -3.69092 0
M  V30 2133 C 194.297 -1.19461 -2.50249 0
M  V30 2134 H 197.248 -1.07522 -1.16725 0
M  V30 2135 H 197.269 -0.347217 -3.78912 0
M  V30 2136 H 196.781 -2.09555 -3.26662 0
M  V30 2137 H 194.882 0.329766 -3.71138 0
M  V30 2138 H 194.995 -1.33037 -4.60259 0
M  V30 2139 H 193.359 -0.613787 -2.47194 0
M  V30 2140 H 194.142 -2.28265 -2.56417 0
M  V30 2141 N 196.587 1.43421 -0.653314 0
M  V30 2142 C 197.517 2.33487 0.0246656 0
M  V30 2143 C 198.498 1.49475 0.811863 0
M  V30 2144 O 199.683 1.78139 0.773322 0
M  V30 2145 C 196.813 3.32841 0.99166 0
M  V30 2146 C 195.767 4.26842 0.314568 0
M  V30 2147 C 195.093 5.16236 1.39302 0
M  V30 2148 C 196.393 5.16243 -0.793095 0
M  V30 2149 H 198.087 2.90427 -0.727481 0
M  V30 2150 H 195.633 1.39649 -0.351287 0
M  V30 2151 H 197.586 3.94747 1.47487 0
M  V30 2152 H 196.31 2.74158 1.77497 0
M  V30 2153 H 194.969 3.663 -0.148199 0
M  V30 2154 H 194.617 4.53891 2.16776 0
M  V30 2155 H 194.317 5.79948 0.945223 0
M  V30 2156 H 195.841 5.81015 1.87759 0
M  V30 2157 H 197.255 5.71958 -0.392039 0
M  V30 2158 H 195.652 5.88676 -1.16536 0
M  V30 2159 H 196.722 4.55927 -1.65103 0
M  V30 2160 N 198.065 0.39524 1.52563 0
M  V30 2161 C 199.29 -0.187456 2.06551 0
M  V30 2162 C 199.715 -1.39249 1.26457 0
M  V30 2163 O 199.073 -1.78947 0.291151 0
M  V30 2164 C 199.121 -0.529985 3.56684 0
M  V30 2165 O 198.225 -1.62307 3.79118 0
M  V30 2166 H 197.566 -0.0202537 0.663691 0
M  V30 2167 H 200.096 0.564426 1.96661 0
M  V30 2168 H 200.106 -0.792598 4.00227 0
M  V30 2169 H 198.781 0.350987 4.14416 0
M  V30 2170 H 197.358 -1.3537 3.47461 0
M  V30 2171 N 199.544 -1.57102 0.125237 0
M  V30 2172 C 200.769 -2.0019 -0.542101 0
M  V30 2173 C 201.194 -1.00449 -1.59034 0
M  V30 2174 O 200.552 0.0229423 -1.81285 0
M  V30 2175 C 200.6 -3.42129 -1.13929 0
M  V30 2176 O 199.704 -3.45307 -2.2547 0
M  V30 2177 H 199.045 -0.650171 -0.134812 0
M  V30 2178 H 201.575 -2.03461 0.215553 0
M  V30 2179 H 201.585 -3.80471 -1.4733 0
M  V30 2180 H 200.26 -4.14237 -0.371531 0
M  V30 2181 H 198.837 -3.1879 -1.93462 0
M  V30 2182 N 201.022 0.148545 -1.56898 0
M  V30 2183 C 202.247 0.880385 -1.87787 0
M  V30 2184 C 202.672 1.74018 -0.714093 0
M  V30 2185 O 202.03 1.78153 0.336343 0
M  V30 2186 C 202.078 1.71422 -3.17249 0
M  V30 2187 O 201.182 2.8183 -3.01074 0
M  V30 2188 H 200.523 0.245301 -0.617028 0
M  V30 2189 H 203.053 0.139826 -2.04122 0
M  V30 2190 H 203.063 2.10954 -3.49231 0
M  V30 2191 H 201.738 1.08284 -4.01556 0
M  V30 2192 H 200.315 2.45715 -2.80497 0
M  V30 2193 N 202.5 1.5196 0.417844 0
M  V30 2194 C 203.725 1.69717 1.1921 0
M  V30 2195 C 204.15 0.402148 1.83751 0
M  V30 2196 O 203.508 -0.639593 1.69643 0
M  V30 2197 C 203.556 2.82794 2.2374 0
M  V30 2198 O 202.66 2.47756 3.29683 0
M  V30 2199 H 202.001 0.565263 0.348387 0
M  V30 2200 H 204.531 1.98621 0.490985 0
M  V30 2201 H 204.541 3.07452 2.68212 0
M  V30 2202 H 203.216 3.76756 1.76146 0
M  V30 2203 H 201.793 2.33739 2.90552 0
M  V30 2204 N 203.978 -0.674533 1.42435 0
M  V30 2205 C 205.218 -1.4466 1.44405 0
M  V30 2206 C 205.582 -1.91911 0.0585784 0
M  V30 2207 O 206.783 -2.68759 -0.0469991 0
M  V30 2208 C 205.054 -2.61136 2.44013 0
M  V30 2209 S 206.613 -3.49981 2.64687 0
M  V30 2210 H 203.431 -0.494074 0.511284 0
M  V30 2211 H 206.033 -0.785162 1.7904 0
M  V30 2212 H 204.737 -2.24662 3.43446 0
M  V30 2213 H 204.268 -3.32153 2.10803 0
M  V30 2214 H 206.283 -4.57124 1.93007 0
M  V30 2215 N 205.456 -1.28612 -0.910864 0
M  V30 2216 C 206.386 -1.15326 -2.03032 0
M  V30 2217 C 207.367 -0.0502924 -1.70026 0
M  V30 2218 O 208.552 -0.227797 -1.92859 0
M  V30 2219 C 205.682 -0.817343 -3.37545 0
M  V30 2220 C 204.636 -1.8754 -3.84724 0
M  V30 2221 C 203.962 -1.39305 -5.16235 0
M  V30 2222 C 205.262 -3.28244 -4.06267 0
M  V30 2223 H 206.956 -2.08975 -2.14406 0
M  V30 2224 H 204.502 -1.00612 -1.03021 0
M  V30 2225 H 206.455 -0.711151 -4.15356 0
M  V30 2226 H 205.179 0.154846 -3.26233 0
M  V30 2227 H 203.838 -1.97079 -3.09121 0
M  V30 2228 H 203.486 -0.409846 -5.01328 0
M  V30 2229 H 203.186 -2.10057 -5.48771 0
M  V30 2230 H 204.71 -1.30014 -5.96598 0
M  V30 2231 H 206.124 -3.21611 -4.74594 0
M  V30 2232 H 204.521 -3.96855 -4.5014 0
M  V30 2233 H 205.591 -3.72048 -3.10979 0
M  V30 2234 N 206.934 1.1197 -1.10907 0
M  V30 2235 C 207.866 2.17592 -0.720175 0
M  V30 2236 C 208.879 1.60938 0.245495 0
M  V30 2237 O 210.068 1.78476 0.0292245 0
M  V30 2238 C 207.168 3.38873 -0.0427917 0
M  V30 2239 C 206.341 4.25006 -1.03388 0
M  V30 2240 C 205.4 5.24774 -0.387075 0
M  V30 2241 O 204.426 5.59631 -1.03934 0
M  V30 2242 N 205.628 5.74208 0.852407 0
M  V30 2243 H 208.393 2.51567 -1.62893 0
M  V30 2244 H 205.954 1.27439 -0.998543 0
M  V30 2245 H 207.946 4.02703 0.401501 0
M  V30 2246 H 206.516 3.03007 0.768456 0
M  V30 2247 H 205.736 3.57716 -1.65629 0
M  V30 2248 H 207.024 4.79397 -1.70458 0
M  V30 2249 H 206.422 5.48062 1.40161 0
M  V30 2250 H 204.979 6.39901 1.23977 0
M  V30 2251 N 208.412 0.89855 1.29475 0
M  V30 2252 C 209.823 0.572537 1.77705 0
M  V30 2253 C 210.174 -0.911778 1.73727 0
M  V30 2254 O 209.299 -1.71288 1.32247 0
M  V30 2255 C 209.894 1.03252 3.22683 0
M  V30 2256 C 208.453 0.757687 3.68695 0
M  V30 2257 C 207.6 1.20787 2.49612 0
M  V30 2258 H 210.551 1.08139 1.16153 0
M  V30 2259 H 210.572 0.367307 3.78723 0
M  V30 2260 H 210.084 2.11285 3.25546 0
M  V30 2261 H 208.185 -0.310079 3.71308 0
M  V30 2262 H 208.298 1.35476 4.59547 0
M  V30 2263 H 206.662 0.626888 2.46865 0
M  V30 2264 H 207.445 2.29622 2.55203 0
M  V30 2265 N 209.89 -1.43072 0.660911 0
M  V30 2266 C 210.838 -2.32569 -0.0378199 0
M  V30 2267 C 211.832 -1.49046 -0.805092 0
M  V30 2268 O 213.038 -1.65206 -0.714624 0
M  V30 2269 H 209.413 -0.75136 -0.031019 0
M  V30 2270 H 211.384 -2.89216 0.734609 0
M  V30 2271 C 210.133 -3.33453 -0.985124 0
M  V30 2272 H 209.456 -3.97752 -0.404147 0
M  V30 2273 H 210.896 -3.98691 -1.44297 0
M  V30 2274 C 209.355 -2.64642 -2.08486 0
M  V30 2275 O 209.885 -2.46776 -3.16961 0
M  V30 2276 N 208.091 -2.23891 -1.8526 0
M  V30 2277 H 207.638 -2.38621 -0.970449 0
M  V30 2278 H 207.596 -1.78181 -2.59034 0
M  V30 2279 N 211.368 -0.403325 -1.52352 0
M  V30 2280 C 212.318 0.442244 -2.2367 0
M  V30 2281 C 213.302 1.01823 -1.24583 0
M  V30 2282 O 214.494 0.942005 -1.49851 0
M  V30 2283 C 211.623 1.5615 -3.05732 0
M  V30 2284 C 210.709 0.996575 -4.12225 0
M  V30 2285 N 211.1 0.157804 -5.05554 0
M  V30 2286 C 209.398 1.26767 -4.27605 0
M  V30 2287 C 210.099 -0.155853 -5.81491 0
M  V30 2288 N 209.075 0.451775 -5.41719 0
M  V30 2289 H 212.877 -0.204964 -2.93184 0
M  V30 2290 H 210.391 -0.213418 -1.60992 0
M  V30 2291 H 212.388 2.17981 -3.55373 0
M  V30 2292 H 211.048 2.21139 -2.37755 0
M  V30 2293 H 212.059 -0.206049 -5.1749 0
M  V30 2294 H 208.736 1.91757 -3.70858 0
M  V30 2295 H 210.126 -0.836329 -6.66675 0
M  V30 2296 N 212.846 1.57033 -0.133567 0
M  V30 2297 C 214.262 1.58035 0.222944 0
M  V30 2298 C 214.462 1.14713 1.6566 0
M  V30 2299 O 213.518 0.841218 2.38075 0
M  V30 2300 C 214.831 3.00691 -0.0236116 0
M  V30 2301 C 216.379 3.12973 0.0411512 0
M  V30 2302 C 216.854 4.57654 -0.177899 0
M  V30 2303 N 218.345 4.63033 -0.124365 0
M  V30 2304 C 219.08 5.72771 -0.268553 0
M  V30 2305 N 218.576 6.91206 -0.46972 0
M  V30 2306 N 220.369 5.61718 -0.2071 0
M  V30 2307 H 212.52 1.8349 -1.06981 0
M  V30 2308 H 214.783 0.848677 -0.422436 0
M  V30 2309 H 214.489 3.36726 -1.0153 0
M  V30 2310 H 214.363 3.70614 0.701808 0
M  V30 2311 H 216.75 2.76787 1.02338 0
M  V30 2312 H 216.831 2.45564 -0.716383 0
M  V30 2313 H 216.475 4.94542 -1.15717 0
M  V30 2314 H 216.405 5.23173 0.599797 0
M  V30 2315 H 218.896 3.7789 0.027011 0
M  V30 2316 H 219.209 7.70693 -0.570212 0
M  V30 2317 H 217.554 6.93156 -0.505876 0
M  V30 2318 H 220.745 4.68072 -0.0507986 0
M  V30 2319 H 220.918 6.47195 -0.322909 0
M  V30 2320 N 214.325 -0.140222 1.56975 0
M  V30 2321 C 215.55 -0.870414 1.88251 0
M  V30 2322 C 215.975 -1.73637 0.723312 0
M  V30 2323 O 215.333 -1.78329 -0.32689 0
M  V30 2324 C 215.381 -1.69737 3.18154 0
M  V30 2325 O 214.485 -2.80229 3.02565 0
M  V30 2326 H 213.826 -0.242025 0.61832 0
M  V30 2327 H 216.356 -0.128999 2.04193 0
M  V30 2328 H 216.366 -2.09099 3.50345 0
M  V30 2329 H 215.041 -1.06152 4.02125 0
M  V30 2330 H 213.618 -2.44224 2.81796 0
M  V30 2331 N 215.803 -1.52179 -0.40978 0
M  V30 2332 C 217.031 -1.70054 -1.17853 0
M  V30 2333 C 217.446 -0.409735 -1.843 0
M  V30 2334 O 216.803 0.614183 -1.71855 0
M  V30 2335 C 216.854 -2.83568 -2.24213 0
M  V30 2336 O 216.575 -4.0765 -1.60478 0
M  V30 2337 C 218.076 -3.12947 -3.13973 0
M  V30 2338 H 215.296 -0.569917 -0.354169 0
M  V30 2339 H 217.84 -1.98734 -0.482198 0
M  V30 2340 H 215.995 -2.57409 -2.89516 0
M  V30 2341 H 216.409 -4.70899 -2.30986 0
M  V30 2342 H 217.883 -3.95889 -3.84677 0
M  V30 2343 H 218.36 -2.26472 -3.76307 0
M  V30 2344 H 218.966 -3.40868 -2.5434 0
M  V30 2345 N 217.281 0.66697 -1.42791 0
M  V30 2346 C 218.228 1.7803 -1.4688 0
M  V30 2347 C 219.198 1.6299 -0.319919 0
M  V30 2348 O 220.383 1.83432 -0.525118 0
M  V30 2349 C 217.523 3.1611 -1.38451 0
M  V30 2350 C 216.636 3.42381 -2.63437 0
M  V30 2351 C 215.771 4.70232 -2.47094 0
M  V30 2352 C 214.81 4.89564 -3.67415 0
M  V30 2353 N 213.947 6.08661 -3.49966 0
M  V30 2354 H 218.787 1.7387 -2.42019 0
M  V30 2355 H 216.324 0.84868 -1.20149 0
M  V30 2356 H 218.282 3.95914 -1.31561 0
M  V30 2357 H 216.912 3.19374 -0.469033 0
M  V30 2358 H 215.964 2.56774 -2.80662 0
M  V30 2359 H 217.276 3.52557 -3.52853 0
M  V30 2360 H 216.43 5.5814 -2.37834 0
M  V30 2361 H 215.169 4.62353 -1.5518 0
M  V30 2362 H 214.174 4.00096 -3.77099 0
M  V30 2363 H 215.399 4.99282 -4.6032 0
M  V30 2364 H 213.345 6.0194 -2.60776 0
M  V30 2365 H 213.262 6.19733 -4.32975 0
M  V30 2366 H 214.53 6.99226 -3.44532 0
M  V30 2367 N 218.759 1.29093 0.90403 0
M  V30 2368 C 220.175 1.07011 1.1841 0
M  V30 2369 C 220.375 -0.181358 2.00682 0
M  V30 2370 O 219.431 -0.880331 2.36657 0
M  V30 2371 C 220.744 2.32311 1.90924 0
M  V30 2372 C 222.292 2.37587 2.03768 0
M  V30 2373 C 222.767 3.62679 2.79693 0
M  V30 2374 N 224.258 3.63376 2.87249 0
M  V30 2375 C 224.993 4.56848 3.46522 0
M  V30 2376 N 224.489 5.60648 4.06996 0
M  V30 2377 N 226.282 4.44426 3.44154 0
M  V30 2378 H 218.433 2.09412 0.354993 0
M  V30 2379 H 220.696 0.922181 0.219742 0
M  V30 2380 H 220.402 3.23536 1.37905 0
M  V30 2381 H 220.276 2.39483 2.91424 0
M  V30 2382 H 222.663 1.46853 2.55965 0
M  V30 2383 H 222.744 2.34403 1.02415 0
M  V30 2384 H 222.388 4.53762 2.28173 0
M  V30 2385 H 222.318 3.63119 3.81381 0
M  V30 2386 H 224.809 2.88321 2.44293 0
M  V30 2387 H 225.122 6.28101 4.50232 0
M  V30 2388 H 223.467 5.64463 4.05471 0
M  V30 2389 H 226.658 3.62529 2.96126 0
M  V30 2390 H 226.831 5.17457 3.90054 0
M  V30 2391 N 220.237 -1.11381 1.11499 0
M  V30 2392 C 221.184 -2.17439 0.773887 0
M  V30 2393 C 222.154 -1.64132 -0.254899 0
M  V30 2394 O 223.339 -1.90345 -0.13168 0
M  V30 2395 C 220.479 -3.44373 0.223917 0
M  V30 2396 C 219.592 -4.1168 1.30934 0
M  V30 2397 C 218.727 -5.263 0.71984 0
M  V30 2398 C 217.766 -5.85493 1.78507 0
M  V30 2399 N 216.903 -6.91507 1.21502 0
M  V30 2400 H 221.743 -2.45962 1.68246 0
M  V30 2401 H 219.28 -1.20744 0.840191 0
M  V30 2402 H 221.238 -4.17047 -0.112921 0
M  V30 2403 H 219.868 -3.16232 -0.647851 0
M  V30 2404 H 218.92 -3.37073 1.76312 0
M  V30 2405 H 220.232 -4.51729 2.11524 0
M  V30 2406 H 219.386 -6.05785 0.333094 0
M  V30 2407 H 218.125 -4.87559 -0.117377 0
M  V30 2408 H 217.13 -5.04686 2.18111 0
M  V30 2409 H 218.355 -6.26301 2.62533 0
M  V30 2410 H 216.301 -6.54783 0.399455 0
M  V30 2411 H 216.218 -7.30214 1.95763 0
M  V30 2412 H 217.486 -7.74795 0.855181 0
M  V30 2413 N 221.715 -0.905404 -1.28997 0
M  V30 2414 C 222.961 -0.535039 -1.95615 0
M  V30 2415 C 223.294 0.917404 -1.71165 0
M  V30 2416 O 222.569 1.65123 -1.02785 0
M  V30 2417 C 222.852 -0.834918 -3.50287 0
M  V30 2418 C 222.705 -2.33948 -3.84172 0
M  V30 2419 C 224.024 -0.325318 -4.38896 0
M  V30 2420 H 221.143 -0.195861 -0.710498 0
M  V30 2421 H 223.785 -1.13313 -1.52513 0
M  V30 2422 H 221.935 -0.325904 -3.87131 0
M  V30 2423 H 223.607 -2.91847 -3.57243 0
M  V30 2424 H 221.85 -2.79789 -3.31513 0
M  V30 2425 H 222.521 -2.49987 -4.92149 0
M  V30 2426 H 224.997 -0.761256 -4.09077 0
M  V30 2427 H 223.873 -0.564295 -5.45992 0
M  V30 2428 H 224.134 0.774144 -4.35269 0
M  V30 2429 N 223.193 1.4272 -0.668489 0
M  V30 2430 C 224.103 2.34596 0.0139753 0
M  V30 2431 C 225.119 1.5474 0.795703 0
M  V30 2432 O 226.295 1.87334 0.739466 0
M  V30 2433 C 223.36 3.33202 0.957982 0
M  V30 2434 C 222.421 4.28957 0.17149 0
M  V30 2435 C 221.654 5.22853 1.07053 0
M  V30 2436 O 221.877 5.21531 2.31001 0
M  V30 2437 O 220.811 5.9952 0.534727 0
M  V30 2438 H 224.637 2.9448 -0.742661 0
M  V30 2439 H 222.222 1.43117 -0.428705 0
M  V30 2440 H 224.104 3.93796 1.50008 0
M  V30 2441 H 222.779 2.758 1.69458 0
M  V30 2442 H 221.686 3.71796 -0.414558 0
M  V30 2443 H 223.019 4.89383 -0.52586 0
M  V30 2444 N 224.671 0.411399 1.52136 0
M  V30 2445 C 225.917 -0.163888 2.02137 0
M  V30 2446 C 226.25 -1.44597 1.29636 0
M  V30 2447 O 225.525 -1.90272 0.403353 0
M  V30 2448 C 225.808 -0.40927 3.57767 0
M  V30 2449 C 225.661 0.889643 4.40914 0
M  V30 2450 C 226.98 -1.19042 4.23694 0
M  V30 2451 H 224.099 -0.0580896 0.734707 0
M  V30 2452 H 226.741 0.54531 1.82007 0
M  V30 2453 H 224.891 -1.0134 3.7505 0
M  V30 2454 H 226.563 1.52575 4.35337 0
M  V30 2455 H 224.806 1.50011 4.07037 0
M  V30 2456 H 225.477 0.672314 5.4789 0
M  V30 2457 H 227.953 -0.678942 4.10524 0
M  V30 2458 H 226.829 -1.33086 5.32522 0
M  V30 2459 H 227.09 -2.21166 3.82803 0
M  V30 2460 N 226.149 -1.5696 0.141893 0
M  V30 2461 C 227.395 -1.9625 -0.511248 0
M  V30 2462 C 227.728 -1.02654 -1.64851 0
M  V30 2463 O 227.003 -0.0679676 -1.94381 0
M  V30 2464 C 227.286 -3.45285 -1.02227 0
M  V30 2465 C 227.139 -4.49658 0.113138 0
M  V30 2466 C 228.458 -3.96698 -1.90574 0
M  V30 2467 H 225.577 -0.713567 -0.184367 0
M  V30 2468 H 228.219 -1.88698 0.222087 0
M  V30 2469 H 226.369 -3.51852 -1.64719 0
M  V30 2470 H 228.041 -4.55174 0.749302 0
M  V30 2471 H 226.284 -4.26857 0.773026 0
M  V30 2472 H 226.955 -5.51258 -0.286053 0
M  V30 2473 H 229.431 -3.92578 -1.37918 0
M  V30 2474 H 228.307 -5.01453 -2.2324 0
M  V30 2475 H 228.568 -3.3875 -2.84079 0
M  V30 2476 N 227.627 0.131896 -1.57047 0
M  V30 2477 C 228.852 0.860418 -1.8871 0
M  V30 2478 C 229.277 1.73251 -0.73251 0
M  V30 2479 O 228.635 1.785 0.317429 0
M  V30 2480 C 228.683 1.68047 -3.19049 0
M  V30 2481 O 227.787 2.7862 -3.04047 0
M  V30 2482 H 227.128 0.238743 -0.619595 0
M  V30 2483 H 229.658 0.118169 -2.04258 0
M  V30 2484 H 229.668 2.07238 -3.51449 0
M  V30 2485 H 228.343 1.04018 -4.02682 0
M  V30 2486 H 226.92 2.42726 -2.83088 0
M  V30 2487 N 229.106 1.52395 0.401703 0
M  V30 2488 C 230.517 1.58899 0.980202 0
M  V30 2489 C 230.868 0.434032 1.91339 0
M  V30 2490 O 229.993 -0.444619 2.11783 0
M  V30 2491 C 230.588 2.87994 1.78451 0
M  V30 2492 C 229.147 2.96953 2.31292 0
M  V30 2493 C 228.294 2.53903 1.11483 0
M  V30 2494 H 231.245 1.57657 0.18168 0
M  V30 2495 H 231.266 2.73765 2.64259 0
M  V30 2496 H 230.778 3.72035 1.10506 0
M  V30 2497 H 228.879 2.17422 3.02586 0
M  V30 2498 H 228.992 4.01344 2.61649 0
M  V30 2499 H 227.356 2.07925 1.47104 0
M  V30 2500 H 228.139 3.40326 0.450928 0
M  V30 2501 N 230.584 -0.659388 1.43143 0
M  V30 2502 C 231.547 -1.75432 1.47501 0
M  V30 2503 C 232.547 -1.56707 0.360512 0
M  V30 2504 O 233.737 -1.62717 0.622002 0
M  V30 2505 C 230.869 -3.14239 1.32162 0
M  V30 2506 H 232.062 -1.7295 2.45006 0
M  V30 2507 H 229.615 -0.870469 1.29817 0
M  V30 2508 H 230.35 -3.22336 0.356401 0
M  V30 2509 H 230.135 -3.29235 2.12948 0
M  V30 2510 H 231.625 -3.94094 1.3813 0
M  V30 2511 N 232.062 -1.29571 -0.897171 0
M  V30 2512 C 233.29 -1.20583 -1.68129 0
M  V30 2513 C 233.705 0.233181 -1.87354 0
M  V30 2514 O 233.062 1.15579 -1.41236 0
M  V30 2515 C 233.113 -1.91772 -3.06441 0
M  V30 2516 O 232.834 -3.30053 -2.88091 0
M  V30 2517 C 234.335 -1.89291 -4.00854 0
M  V30 2518 H 231.555 -0.417826 -0.525036 0
M  V30 2519 H 234.099 -1.70987 -1.12177 0
M  V30 2520 H 232.254 -1.45196 -3.59161 0
M  V30 2521 H 232.668 -3.65942 -3.75748 0
M  V30 2522 H 234.142 -2.43662 -4.95311 0
M  V30 2523 H 234.619 -0.869014 -4.30517 0
M  V30 2524 H 235.225 -2.35622 -3.54066 0
M  V30 2525 N 233.54 1.10788 -1.12088 0
M  V30 2526 C 234.951 1.64181 -0.88891 0
M  V30 2527 C 235.302 1.87508 0.577498 0
M  V30 2528 O 234.427 1.61434 1.44112 0
M  V30 2529 C 235.022 2.98257 -1.60712 0
M  V30 2530 C 233.581 3.4853 -1.42139 0
M  V30 2531 C 232.728 2.23208 -1.6454 0
M  V30 2532 H 235.679 0.943368 -1.27618 0
M  V30 2533 H 235.7 3.65552 -1.05604 0
M  V30 2534 H 235.212 2.81246 -2.67436 0
M  V30 2535 H 233.313 3.70692 -0.376552 0
M  V30 2536 H 233.426 4.26882 -2.17505 0
M  V30 2537 H 231.79 2.31169 -1.06925 0
M  V30 2538 H 232.573 2.08733 -2.72554 0
M  V30 2539 N 235.018 0.912232 1.28515 0
M  V30 2540 C 236.264 0.545405 1.95328 0
M  V30 2541 C 236.597 -0.908313 1.71649 0
M  V30 2542 O 235.872 -1.64575 1.03659 0
M  V30 2543 C 236.155 0.853483 3.4984 0
M  V30 2544 C 236.008 2.35982 3.82926 0
M  V30 2545 C 237.327 0.348589 4.38717 0
M  V30 2546 H 234.446 0.199626 0.709449 0
M  V30 2547 H 237.088 1.1412 1.5191 0
M  V30 2548 H 235.238 0.34643 3.86952 0
M  V30 2549 H 236.91 2.93738 3.55691 0
M  V30 2550 H 235.153 2.81543 3.30024 0
M  V30 2551 H 235.824 2.52593 4.90816 0
M  V30 2552 H 238.3 0.78294 4.08668 0
M  V30 2553 H 237.176 0.593242 5.45685 0
M  V30 2554 H 237.437 -0.751049 4.35674 0
M  V30 2555 N 236.496 -1.42363 0.676048 0
M  V30 2556 C 237.907 -1.84649 0.275948 0
M  V30 2557 C 238.258 -1.56588 -1.18214 0
M  V30 2558 O 237.383 -1.02634 -1.90513 0
M  V30 2559 C 237.978 -3.35178 0.494053 0
M  V30 2560 C 236.537 -3.76109 0.148061 0
M  V30 2561 C 235.684 -2.65931 0.785891 0
M  V30 2562 H 238.635 -1.32192 0.878121 0
M  V30 2563 H 238.656 -3.79655 -0.25343 0
M  V30 2564 H 238.168 -3.55571 1.55535 0
M  V30 2565 H 236.269 -3.61323 -0.909742 0
M  V30 2566 H 236.382 -4.7546 0.589454 0
M  V30 2567 H 234.746 -2.53773 0.217113 0
M  V30 2568 H 235.529 -2.89146 1.85067 0
M  V30 2569 N 237.974 -0.419461 -1.51915 0
M  V30 2570 C 239.199 0.154572 -2.06823 0
M  V30 2571 C 239.624 1.3722 -1.28656 0
M  V30 2572 O 238.982 1.78461 -0.319583 0
M  V30 2573 C 239.03 0.473172 -3.57482 0
M  V30 2574 O 238.134 1.56255 -3.81652 0
M  V30 2575 H 237.475 0.0096924 -0.663929 0
M  V30 2576 H 240.005 -0.595642 -1.95738 0
M  V30 2577 H 240.015 0.728825 -4.01438 0
M  V30 2578 H 238.69 -0.416873 -4.13805 0
M  V30 2579 H 237.267 1.29825 -3.49571 0
M  V30 2580 N 239.452 1.56882 -0.150215 0
M  V30 2581 C 240.362 2.20494 0.801222 0
M  V30 2582 C 241.378 1.19019 1.26927 0
M  V30 2583 O 242.554 1.51607 1.32579 0
M  V30 2584 C 239.619 2.81659 2.02161 0
M  V30 2585 C 238.68 3.9827 1.60249 0
M  V30 2586 C 237.913 4.56508 2.7647 0
M  V30 2587 O 238.136 4.13627 3.92771 0
M  V30 2588 O 237.07 5.46719 2.51757 0
M  V30 2589 H 240.896 3.02315 0.289717 0
M  V30 2590 H 238.481 1.49202 0.0769684 0
M  V30 2591 H 240.363 3.20522 2.73576 0
M  V30 2592 H 239.038 2.02849 2.52258 0
M  V30 2593 H 237.945 3.64117 0.858477 0
M  V30 2594 H 239.278 4.78609 1.14864 0
M  V30 2595 N 240.93 -0.123565 1.57115 0
M  V30 2596 C 242.158 -0.846461 1.88793 0
M  V30 2597 C 242.573 -1.73652 0.740976 0
M  V30 2598 O 241.93 -1.80207 -0.288393 0
M  V30 2599 C 241.981 -1.6837 3.19897 0
M  V30 2600 O 241.702 -0.829477 4.30176 0
M  V30 2601 C 243.203 -2.51214 3.65248 0
M  V30 2602 H 240.423 -0.243573 0.625231 0
M  V30 2603 H 242.967 -0.109324 2.04208 0
M  V30 2604 H 241.122 -2.37364 3.06165 0
M  V30 2605 H 241.536 -1.40651 5.0529 0
M  V30 2606 H 243.01 -3.05497 4.59756 0
M  V30 2607 H 243.487 -3.28359 2.9168 0
M  V30 2608 H 244.093 -1.8747 3.81752 0
M  V30 2609 N 242.408 -1.52605 -0.393616 0
M  V30 2610 C 243.371 -1.76415 -1.46323 0
M  V30 2611 C 244.371 -0.634126 -1.47768 0
M  V30 2612 O 245.561 -0.902142 -1.4902 0
M  V30 2613 C 242.693 -1.8607 -2.85641 0
M  V30 2614 H 243.886 -2.71916 -1.26498 0
M  V30 2615 H 241.439 -1.43257 -0.625073 0
M  V30 2616 H 242.174 -0.925378 -3.10817 0
M  V30 2617 H 241.959 -2.68235 -2.85993 0
M  V30 2618 H 243.449 -2.06179 -3.63153 0
M  V30 2619 N 243.887 0.651787 -1.4349 0
M  V30 2620 C 245.298 1.233 -1.40193 0
M  V30 2621 C 245.649 1.9591 -0.106727 0
M  V30 2622 O 244.774 2.01316 0.793773 0
M  V30 2623 C 245.369 2.24257 -2.53957 0
M  V30 2624 C 243.928 2.77852 -2.5392 0
M  V30 2625 C 243.075 1.52517 -2.3159 0
M  V30 2626 H 246.026 0.443717 -1.52371 0
M  V30 2627 H 246.047 3.0646 -2.25528 0
M  V30 2628 H 245.559 1.71382 -3.4821 0
M  V30 2629 H 243.66 3.34786 -1.63551 0
M  V30 2630 H 243.773 3.25299 -3.51735 0
M  V30 2631 H 242.137 1.79915 -1.80285 0
M  V30 2632 H 242.92 1.01574 -3.27929 0
M  V30 2633 N 245.365 1.30045 0.890287 0
M  V30 2634 C 246.328 1.15963 1.977 0
M  V30 2635 C 247.328 0.0923777 1.60534 0
M  V30 2636 O 248.518 0.340071 1.70848 0
M  V30 2637 C 245.65 0.775451 3.31963 0
M  V30 2638 H 246.843 2.12502 2.11619 0
M  V30 2639 H 244.396 1.13366 1.07601 0
M  V30 2640 H 245.131 -0.189671 3.23745 0
M  V30 2641 H 244.916 1.54668 3.60306 0
M  V30 2642 H 246.406 0.700251 4.11687 0
M  V30 2643 N 246.843 -1.10192 1.12674 0
M  V30 2644 C 248.068 -1.86523 0.906853 0
M  V30 2645 C 248.493 -1.80221 -0.538711 0
M  V30 2646 O 247.851 -1.17396 -1.38158 0
M  V30 2647 C 247.899 -3.32758 1.3894 0
M  V30 2648 O 247.003 -4.08449 0.5695 0
M  V30 2649 H 246.344 -0.578678 0.325619 0
M  V30 2650 H 248.874 -1.39203 1.49946 0
M  V30 2651 H 248.884 -3.83608 1.38958 0
M  V30 2652 H 247.559 -3.36661 2.44197 0
M  V30 2653 H 246.136 -3.67427 0.636528 0
M  V30 2654 N 248.321 -0.919034 -1.28029 0
M  V30 2655 C 249.567 -0.555757 -1.95036 0
M  V30 2656 C 249.9 0.899198 -1.72128 0
M  V30 2657 O 249.175 1.64023 -1.04531 0
M  V30 2658 C 249.458 -0.872024 -3.49382 0
M  V30 2659 C 249.311 -2.3801 -3.81669 0
M  V30 2660 C 250.63 -0.37185 -4.38526 0
M  V30 2661 H 247.749 -0.203386 -0.708381 0
M  V30 2662 H 250.391 -1.14924 -1.51303 0
M  V30 2663 H 248.541 -0.366946 -3.86763 0
M  V30 2664 H 250.213 -2.9562 -3.54128 0
M  V30 2665 H 248.456 -2.83289 -3.28526 0
M  V30 2666 H 249.127 -2.55192 -4.8947 0
M  V30 2667 H 251.603 -0.804602 -4.08247 0
M  V30 2668 H 250.479 -0.622173 -5.45362 0
M  V30 2669 H 250.74 0.727934 -4.36066 0
M  V30 2670 N 249.799 1.42003 -0.683588 0
M  V30 2671 C 251.046 2.01413 -0.209514 0
M  V30 2672 C 251.374 1.54088 1.1869 0
M  V30 2673 O 250.629 0.737591 1.81268 0
M  V30 2674 C 250.928 3.56827 -0.202357 0
M  V30 2675 C 250.594 4.23617 -1.54464 0
M  V30 2676 C 249.256 4.41577 -1.91215 0
M  V30 2677 C 251.608 4.61178 -2.42826 0
M  V30 2678 C 248.936 4.9437 -3.15935 0
M  V30 2679 C 251.288 5.15355 -3.66867 0
M  V30 2680 C 249.952 5.31528 -4.03776 0
M  V30 2681 H 249.222 0.737023 -0.0766668 0
M  V30 2682 H 251.869 1.70067 -0.880312 0
M  V30 2683 H 250.174 3.87892 0.551969 0
M  V30 2684 H 251.871 4.00588 0.181793 0
M  V30 2685 H 248.461 4.10004 -1.24877 0
M  V30 2686 H 252.645 4.46968 -2.15717 0
M  V30 2687 H 247.901 5.05076 -3.44541 0
M  V30 2688 H 252.075 5.43402 -4.35531 0
M  V30 2689 H 249.702 5.72199 -5.00492 0
M  V30 2690 N 251.277 0.427512 1.51691 0
M  V30 2691 C 252.688 -0.0378867 1.86662 0
M  V30 2692 C 253.039 -1.42819 1.34525 0
M  V30 2693 O 252.164 -2.05037 0.692014 0
M  V30 2694 C 252.759 -0.0755266 3.38716 0
M  V30 2695 C 251.318 -0.485309 3.73258 0
M  V30 2696 C 250.465 0.328399 2.75349 0
M  V30 2697 H 253.416 0.64379 1.45055 0
M  V30 2698 H 253.437 -0.887056 3.70016 0
M  V30 2699 H 252.949 0.936487 3.76632 0
M  V30 2700 H 251.05 -1.50329 3.40928 0
M  V30 2701 H 251.163 -0.21693 4.78609 0
M  V30 2702 H 249.527 -0.211905 2.53817 0
M  V30 2703 H 250.31 1.3391 3.16106 0
M  V30 2704 N 252.755 -1.56801 0.158532 0
M  V30 2705 C 253.687 -2.14488 -0.807923 0
M  V30 2706 C 254.7 -1.09721 -1.20271 0
M  V30 2707 O 255.889 -1.36956 -1.14478 0
M  V30 2708 C 252.989 -2.66217 -2.09718 0
M  V30 2709 C 252.162 -3.95507 -1.86796 0
M  V30 2710 C 251.221 -4.3243 -2.99818 0
M  V30 2711 O 250.247 -5.00543 -2.71008 0
M  V30 2712 N 251.449 -3.92947 -4.27285 0
M  V30 2713 H 254.214 -2.98042 -0.314816 0
M  V30 2714 H 251.775 -1.61881 -0.0246692 0
M  V30 2715 H 253.767 -2.87924 -2.84398 0
M  V30 2716 H 252.337 -1.87324 -2.50257 0
M  V30 2717 H 251.557 -3.82309 -0.96089 0
M  V30 2718 H 252.845 -4.79972 -1.68833 0
M  V30 2719 H 252.243 -3.38087 -4.53557 0
M  V30 2720 H 250.8 -4.19681 -4.9871 0
M  V30 2721 N 254.233 0.115231 -1.57178 0
M  V30 2722 C 255.181 1.16014 -2.01602 0
M  V30 2723 C 256.175 1.42653 -0.913587 0
M  V30 2724 O 257.381 1.42571 -1.09879 0
M  V30 2725 H 253.756 0.391252 -0.642204 0
M  V30 2726 H 255.727 0.758998 -2.88586 0
M  V30 2727 C 254.476 2.47767 -2.4394 0
M  V30 2728 H 253.799 2.28108 -3.28339 0
M  V30 2729 H 255.239 3.19432 -2.78818 0
M  V30 2730 C 253.698 3.10617 -1.30455 0
M  V30 2731 O 254.228 3.96846 -0.622585 0
M  V30 2732 N 252.434 2.70553 -1.06064 0
M  V30 2733 H 251.981 2.00527 -1.61699 0
M  V30 2734 H 251.939 3.12934 -0.303284 0
M  V30 2735 N 255.711 1.52812 0.385517 0
M  V30 2736 C 256.959 1.67694 1.12797 0
M  V30 2737 C 257.28 0.421115 1.90399 0
M  V30 2738 O 256.55 -0.564551 1.87589 0
M  V30 2739 H 255.13 0.618155 0.419396 0
M  V30 2740 H 257.792 1.89938 0.436972 0
M  V30 2741 H 256.888 2.52896 1.82894 0
M  V30 2742 N 257.189 -0.644168 1.43834 0
M  V30 2743 C 258.152 -1.73857 1.49353 0
M  V30 2744 C 259.152 -1.56315 0.377112 0
M  V30 2745 O 260.342 -1.62048 0.639226 0
M  V30 2746 C 257.474 -3.12819 1.35488 0
M  V30 2747 H 258.667 -1.70342 2.46827 0
M  V30 2748 H 256.22 -0.856652 1.30733 0
M  V30 2749 H 256.955 -3.2194 0.390569 0
M  V30 2750 H 256.74 -3.26958 2.16428 0
M  V30 2751 H 258.23 -3.92606 1.42302 0
M  V30 2752 N 258.668 -1.30515 -0.883378 0
M  V30 2753 C 259.631 -1.1701 -1.97082 0
M  V30 2754 C 260.631 -0.10089 -1.60483 0
M  V30 2755 O 261.821 -0.349127 -1.70666 0
M  V30 2756 C 258.953 -0.793045 -3.31547 0
M  V30 2757 H 260.146 -2.13622 -2.10489 0
M  V30 2758 H 257.699 -1.13935 -1.06998 0
M  V30 2759 H 258.434 0.172499 -3.23841 0
M  V30 2760 H 258.219 -1.56576 -3.5948 0
M  V30 2761 H 259.709 -0.722073 -4.1131 0
M  V30 2762 N 260.146 1.09593 -1.13257 0
M  V30 2763 C 261.562 1.33775 -0.870423 0
M  V30 2764 C 261.762 1.95327 0.494926 0
M  V30 2765 O 260.818 2.19853 1.2418 0
M  V30 2766 C 262.131 2.25106 -1.99369 0
M  V30 2767 C 263.679 2.3862 -2.02558 0
M  V30 2768 C 264.154 3.33285 -3.14142 0
M  V30 2769 N 265.645 3.40857 -3.13641 0
M  V30 2770 C 266.38 4.14101 -3.96621 0
M  V30 2771 N 265.876 4.90157 -4.8961 0
M  V30 2772 N 267.669 4.09808 -3.84726 0
M  V30 2773 H 259.82 0.680136 -2.01216 0
M  V30 2774 H 262.083 0.362133 -0.876107 0
M  V30 2775 H 261.789 1.87103 -2.97801 0
M  V30 2776 H 261.663 3.25481 -1.90635 0
M  V30 2777 H 264.05 2.75887 -1.0474 0
M  V30 2778 H 264.131 1.38028 -2.15364 0
M  V30 2779 H 263.775 2.96741 -4.12198 0
M  V30 2780 H 263.705 4.33776 -2.98574 0
M  V30 2781 H 266.196 2.86624 -2.46282 0
M  V30 2782 H 266.509 5.4347 -5.49418 0
M  V30 2783 H 264.854 4.89251 -4.93617 0
M  V30 2784 H 268.045 3.4949 -3.11408 0
M  V30 2785 H 268.218 4.66629 -4.49623 0
M  V30 2786 N 261.624 0.925811 1.2754 0
M  V30 2787 C 263.04 0.625767 1.46821 0
M  V30 2788 C 263.24 -0.825506 1.83814 0
M  V30 2789 O 262.296 -1.60356 1.95044 0
M  V30 2790 C 263.609 1.57402 2.56213 0
M  V30 2791 C 265.157 1.58204 2.70075 0
M  V30 2792 C 265.632 2.51721 3.82623 0
M  V30 2793 N 267.123 2.49917 3.89994 0
M  V30 2794 C 267.858 3.18968 4.76494 0
M  V30 2795 N 267.354 3.97391 5.67496 0
M  V30 2796 N 269.147 3.07996 4.70208 0
M  V30 2797 H 261.298 1.86409 1.01811 0
M  V30 2798 H 263.561 0.800213 0.508295 0
M  V30 2799 H 263.267 2.60925 2.35819 0
M  V30 2800 H 263.141 1.31428 3.53563 0
M  V30 2801 H 265.528 0.554124 2.89851 0
M  V30 2802 H 265.609 1.88226 1.73218 0
M  V30 2803 H 265.253 3.54622 3.63601 0
M  V30 2804 H 265.183 2.18996 4.78903 0
M  V30 2805 H 267.674 1.9296 3.24923 0
M  V30 2806 H 267.987 4.4707 6.30356 0
M  V30 2807 H 266.332 4.01495 5.67298 0
M  V30 2808 H 269.523 2.46223 3.9811 0
M  V30 2809 H 269.696 3.6208 5.37403 0
M  V30 2810 N 263.102 -1.41638 0.69111 0
M  V30 2811 C 264.065 -2.29178 0.0319786 0
M  V30 2812 C 265.065 -1.44153 -0.712496 0
M  V30 2813 O 266.255 -1.65354 -0.548053 0
M  V30 2814 C 263.387 -3.26952 -0.965161 0
M  V30 2815 H 264.58 -2.88959 0.802681 0
M  V30 2816 H 262.133 -1.4955 0.454356 0
M  V30 2817 H 262.868 -2.72142 -1.76378 0
M  V30 2818 H 262.653 -3.89685 -0.434522 0
M  V30 2819 H 264.143 -3.92561 -1.42428 0
M  V30 2820 N 264.58 -0.43555 -1.51462 0
M  V30 2821 C 265.826 0.131709 -2.02372 0
M  V30 2822 C 266.159 1.42516 -1.3192 0
M  V30 2823 O 265.434 1.89606 -0.433573 0
M  V30 2824 C 265.717 0.352301 -3.58373 0
M  V30 2825 C 265.57 -0.959676 -4.39443 0
M  V30 2826 C 266.889 1.12286 -4.25535 0
M  V30 2827 H 264.008 0.0463936 -0.735538 0
M  V30 2828 H 266.65 -0.574197 -1.81116 0
M  V30 2829 H 264.8 0.9536 -3.76615 0
M  V30 2830 H 266.472 -1.59482 -4.32855 0
M  V30 2831 H 264.715 -1.56468 -4.04599 0
M  V30 2832 H 265.386 -0.759394 -5.46752 0
M  V30 2833 H 267.862 0.613545 -4.11552 0
M  V30 2834 H 266.738 1.24598 -5.34571 0
M  V30 2835 H 266.999 2.15048 -3.86273 0
M  V30 2836 N 266.058 1.56714 -0.166846 0
M  V30 2837 C 267.021 2.16539 0.751232 0
M  V30 2838 C 268.021 1.11228 1.16125 0
M  V30 2839 O 269.211 1.36765 1.07894 0
M  V30 2840 C 266.343 2.74462 2.02196 0
M  V30 2841 H 267.536 2.99013 0.230499 0
M  V30 2842 H 265.089 1.56081 0.0826982 0
M  V30 2843 H 265.824 1.95709 2.58589 0
M  V30 2844 H 265.609 3.51527 1.73698 0
M  V30 2845 H 267.099 3.20489 2.67725 0
M  V30 2846 N 267.536 -0.106894 1.57237 0
M  V30 2847 C 268.499 -1.11466 2.0027 0
M  V30 2848 C 269.499 -1.33623 0.894519 0
M  V30 2849 O 270.689 -1.29935 1.16028 0
M  V30 2850 C 267.821 -2.46646 2.35327 0
M  V30 2851 H 269.014 -0.744516 2.90512 0
M  V30 2852 H 266.567 -0.351576 1.52295 0
M  V30 2853 H 267.302 -2.88558 1.48003 0
M  V30 2854 H 267.087 -2.31915 3.16161 0
M  V30 2855 H 268.577 -3.19151 2.69318 0
M  V30 2856 N 269.014 -1.53014 -0.377408 0
M  V30 2857 C 269.946 -1.74884 -1.48149 0
M  V30 2858 C 270.959 -0.629433 -1.5014 0
M  V30 2859 O 272.148 -0.905416 -1.53833 0
M  V30 2860 C 269.248 -1.80299 -2.86959 0
M  V30 2861 C 268.421 -3.09776 -3.08801 0
M  V30 2862 C 267.48 -3.06586 -4.27658 0
M  V30 2863 O 266.506 -3.80419 -4.23403 0
M  V30 2864 N 267.708 -2.26578 -5.34455 0
M  V30 2865 H 270.473 -2.70147 -1.29771 0
M  V30 2866 H 268.034 -1.51646 -0.56703 0
M  V30 2867 H 270.026 -1.75657 -3.64591 0
M  V30 2868 H 268.596 -0.92372 -2.98641 0
M  V30 2869 H 267.816 -3.27815 -2.18931 0
M  V30 2870 H 269.104 -3.95366 -3.20255 0
M  V30 2871 H 268.502 -1.66081 -5.40771 0
M  V30 2872 H 267.059 -2.27766 -6.10709 0
M  V30 2873 N 270.492 0.636531 -1.44174 0
M  V30 2874 C 271.903 1.21806 -1.41493 0
M  V30 2875 C 272.254 1.95785 -0.1275 0
M  V30 2876 O 271.379 2.02147 0.772376 0
M  V30 2877 C 271.974 2.21551 -2.56321 0
M  V30 2878 C 270.533 2.75143 -2.56853 0
M  V30 2879 C 269.68 1.50052 -2.33195 0
M  V30 2880 H 272.631 0.427531 -1.52833 0
M  V30 2881 H 272.652 3.0405 -2.28765 0
M  V30 2882 H 272.164 1.67679 -3.50008 0
M  V30 2883 H 270.265 3.33033 -1.67093 0
M  V30 2884 H 270.378 3.2155 -3.55165 0
M  V30 2885 H 268.742 1.77993 -1.82183 0
M  V30 2886 H 269.525 0.980903 -3.28988 0
M  V30 2887 N 271.97 1.30982 0.876444 0
M  V30 2888 C 273.218 1.20058 1.62575 0
M  V30 2889 C 273.539 -0.242947 1.93481 0
M  V30 2890 O 272.809 -1.1619 1.57724 0
M  V30 2891 H 271.389 0.44135 0.602677 0
M  V30 2892 H 274.051 1.64222 1.04962 0
M  V30 2893 H 273.147 1.76762 2.57219 0
M  V30 2894 N 273.449 -1.08991 1.13837 0
M  V30 2895 C 274.865 -1.33312 0.877506 0
M  V30 2896 C 275.065 -1.95587 -0.48456 0
M  V30 2897 O 274.121 -2.20509 -1.23013 0
M  V30 2898 C 275.434 -2.24045 2.0056 0
M  V30 2899 C 276.982 -2.37542 2.03821 0
M  V30 2900 C 277.457 -3.31614 3.15905 0
M  V30 2901 N 278.948 -3.39189 3.15445 0
M  V30 2902 C 279.683 -4.11992 3.98811 0
M  V30 2903 N 279.179 -4.87553 4.92203 0
M  V30 2904 N 280.972 -4.07762 3.86894 0
M  V30 2905 H 273.123 -0.669456 2.01574 0
M  V30 2906 H 275.386 -0.357482 0.878015 0
M  V30 2907 H 275.092 -1.85521 2.98789 0
M  V30 2908 H 274.966 -3.24466 1.92359 0
M  V30 2909 H 277.353 -2.75327 1.06202 0
M  V30 2910 H 277.434 -1.36884 2.16093 0
M  V30 2911 H 277.078 -2.94551 4.13766 0
M  V30 2912 H 277.008 -4.32186 3.0087 0
M  V30 2913 H 279.499 -2.85314 2.47799 0
M  V30 2914 H 279.812 -5.40549 5.52292 0
M  V30 2915 H 278.157 -4.86627 4.96205 0
M  V30 2916 H 281.348 -3.47833 3.13257 0
M  V30 2917 H 281.521 -4.64238 4.52092 0
M  V30 2918 N 274.927 -0.932562 -1.27047 0
M  V30 2919 C 275.874 -0.434072 -2.26681 0
M  V30 2920 C 276.844 0.501639 -1.58344 0
M  V30 2921 O 278.029 0.419734 -1.86126 0
M  V30 2922 C 275.169 0.30261 -3.43771 0
M  V30 2923 C 274.282 -0.667774 -4.26808 0
M  V30 2924 C 273.417 0.0892393 -5.31125 0
M  V30 2925 C 272.456 -0.873532 -6.05835 0
M  V30 2926 N 271.593 -0.148832 -7.01942 0
M  V30 2927 H 276.433 -1.28868 -2.68695 0
M  V30 2928 H 273.97 -0.646713 -1.32121 0
M  V30 2929 H 275.928 0.746092 -4.10474 0
M  V30 2930 H 274.558 1.12142 -3.02695 0
M  V30 2931 H 273.61 -1.22978 -3.59973 0
M  V30 2932 H 274.922 -1.40337 -4.78651 0
M  V30 2933 H 274.076 0.592409 -6.03801 0
M  V30 2934 H 272.815 0.85777 -4.80097 0
M  V30 2935 H 271.82 -1.38791 -5.31994 0
M  V30 2936 H 273.045 -1.64193 -6.58952 0
M  V30 2937 H 270.991 0.601365 -6.53238 0
M  V30 2938 H 270.908 -0.82391 -7.51497 0
M  V30 2939 H 272.176 0.333527 -7.78786 0
M  V30 2940 N 276.405 1.4127 -0.698611 0
M  V30 2941 C 277.821 1.55241 -0.370462 0
M  V30 2942 C 278.021 1.67351 1.12231 0
M  V30 2943 O 277.077 1.65363 1.90818 0
M  V30 2944 C 278.39 2.78997 -1.12165 0
M  V30 2945 C 279.938 2.92797 -1.1063 0
M  V30 2946 C 280.413 4.19445 -1.8393 0
M  V30 2947 N 281.904 4.26409 -1.80914 0
M  V30 2948 C 282.639 5.23271 -2.34467 0
M  V30 2949 N 282.135 6.26145 -2.96504 0
M  V30 2950 N 283.928 5.15232 -2.24706 0
M  V30 2951 H 276.079 1.31654 -1.66676 0
M  V30 2952 H 278.342 0.635393 -0.703548 0
M  V30 2953 H 278.048 2.76268 -2.17644 0
M  V30 2954 H 277.922 3.70606 -0.702209 0
M  V30 2955 H 280.309 2.95039 -0.0597713 0
M  V30 2956 H 280.39 2.02353 -1.56483 0
M  V30 2957 H 280.034 4.17964 -2.88563 0
M  V30 2958 H 279.964 5.08866 -1.35509 0
M  V30 2959 H 282.455 3.527 -1.35687 0
M  V30 2960 H 282.768 6.96451 -3.34927 0
M  V30 2961 H 281.113 6.26638 -3.00583 0
M  V30 2962 H 284.304 4.33789 -1.7591 0
M  V30 2963 H 284.477 5.90552 -2.66745 0
M  V30 2964 N 277.883 0.443576 1.51229 0
M  V30 2965 C 278.83 -0.364716 2.279 0
M  V30 2966 C 279.8 -1.0114 1.31757 0
M  V30 2967 O 280.985 -1.02912 1.60667 0
M  V30 2968 C 278.125 -1.45644 3.12861 0
M  V30 2969 C 277.238 -0.827269 4.24005 0
M  V30 2970 C 276.373 -1.89456 4.96266 0
M  V30 2971 C 275.412 -1.24416 5.99322 0
M  V30 2972 N 274.549 -2.25309 6.64966 0
M  V30 2973 H 279.389 0.295464 2.96532 0
M  V30 2974 H 276.926 0.157554 1.46254 0
M  V30 2975 H 278.884 -2.10076 3.6045 0
M  V30 2976 H 277.514 -2.08616 2.46331 0
M  V30 2977 H 276.566 -0.0710839 3.80334 0
M  V30 2978 H 277.878 -0.312481 4.9782 0
M  V30 2979 H 277.032 -2.61535 5.47434 0
M  V30 2980 H 275.771 -2.4431 4.22095 0
M  V30 2981 H 274.776 -0.508868 5.4744 0
M  V30 2982 H 276.001 -0.702882 6.75453 0
M  V30 2983 H 273.947 -2.79231 5.93604 0
M  V30 2984 H 273.864 -1.78739 7.34567 0
M  V30 2985 H 275.132 -2.96853 7.20763 0
M  V30 2986 N 279.361 -1.56624 0.175154 0
M  V30 2987 C 280.586 -2.01813 -0.478137 0
M  V30 2988 C 281.011 -1.05457 -1.55757 0
M  V30 2989 O 280.369 -0.0347439 -1.81267 0
M  V30 2990 C 280.417 -3.45581 -1.02987 0
M  V30 2991 O 279.521 -3.52305 -2.14371 0
M  V30 2992 H 278.862 -0.65413 -0.114059 0
M  V30 2993 H 281.392 -2.02673 0.280173 0
M  V30 2994 H 281.402 -3.84965 -1.35151 0
M  V30 2995 H 280.077 -4.1521 -0.239556 0
M  V30 2996 H 278.654 -3.24783 -1.83222 0
M  V30 2997 N 280.839 0.0985539 -1.57292 0
M  V30 2998 C 281.787 1.1387 -2.02821 0
M  V30 2999 C 282.781 1.41676 -0.928666 0
M  V30 3000 O 283.987 1.41398 -1.11385 0
M  V30 3001 H 280.362 0.384419 -0.646317 0
M  V30 3002 H 282.333 0.728347 -2.89375 0
M  V30 3003 C 281.082 2.45166 -2.46554 0
M  V30 3004 H 280.405 2.24613 -3.3074 0
M  V30 3005 H 281.845 3.16456 -2.8219 0
M  V30 3006 C 280.304 3.09216 -1.33742 0
M  V30 3007 O 280.834 3.96163 -0.66464 0
M  V30 3008 N 279.04 2.69413 -1.08928 0
M  V30 3009 H 278.587 1.98801 -1.63817 0
M  V30 3010 H 278.545 3.12594 -0.336458 0
M  V30 3011 N 282.317 1.53212 0.369288 0
M  V30 3012 C 283.557 1.70915 1.12105 0
M  V30 3013 C 283.921 0.449444 1.86665 0
M  V30 3014 O 285.122 0.503105 2.6405 0
M  V30 3015 C 283.393 2.9222 2.05772 0
M  V30 3016 S 284.952 3.30609 2.88519 0
M  V30 3017 H 281.77 0.601445 0.379189 0
M  V30 3018 H 284.372 1.91306 0.402794 0
M  V30 3019 H 283.076 3.82103 1.49752 0
M  V30 3020 H 282.607 2.7422 2.82076 0
M  V30 3021 H 284.622 2.82333 4.08047 0
M  V30 3022 N 283.795 -0.628877 1.44509 0
M  V30 3023 C 284.725 -1.75187 1.54376 0
M  V30 3024 C 285.706 -1.65411 0.396618 0
M  V30 3025 O 286.891 -1.84137 0.617031 0
M  V30 3026 C 284.021 -3.13725 1.48976 0
M  V30 3027 C 282.975 -3.38291 2.62189 0
M  V30 3028 C 282.301 -4.76883 2.41841 0
M  V30 3029 C 283.601 -3.30632 4.04326 0
M  V30 3030 H 285.295 -1.67187 2.48373 0
M  V30 3031 H 282.841 -0.802909 1.19538 0
M  V30 3032 H 284.794 -3.92064 1.54478 0
M  V30 3033 H 283.518 -3.22515 0.514961 0
M  V30 3034 H 282.177 -2.62334 2.56079 0
M  V30 3035 H 281.825 -4.82378 1.42548 0
M  V30 3036 H 281.525 -4.94278 3.17747 0
M  V30 3037 H 283.049 -5.57449 2.49165 0
M  V30 3038 H 284.463 -3.98873 4.11793 0
M  V30 3039 H 282.86 -3.59561 4.80454 0
M  V30 3040 H 283.93 -2.28404 4.27738 0
M  V30 3041 N 285.273 -1.31445 -0.869486 0
M  V30 3042 C 286.521 -1.20918 -1.61936 0
M  V30 3043 C 286.842 0.232683 -1.93607 0
M  V30 3044 O 286.112 1.15352 -1.58338 0
M  V30 3045 H 284.692 -0.44454 -0.600328 0
M  V30 3046 H 287.354 -1.64776 -1.0409 0
M  V30 3047 H 286.45 -1.78124 -2.56278 0
M  V30 3048 N 286.751 1.08385 -1.14413 0
M  V30 3049 C 287.979 1.84517 -0.936001 0
M  V30 3050 C 288.394 1.81626 0.515503 0
M  V30 3051 O 287.751 1.22008 1.35721 0
M  V30 3052 C 287.802 3.32049 -1.42918 0
M  V30 3053 O 287.523 3.34951 -2.82381 0
M  V30 3054 C 289.024 4.24986 -1.26103 0
M  V30 3055 H 286.244 0.582491 -0.333084 0
M  V30 3056 H 288.788 1.36885 -1.5193 0
M  V30 3057 H 286.943 3.7707 -0.888641 0
M  V30 3058 H 287.357 4.27048 -3.04517 0
M  V30 3059 H 288.831 5.26615 -1.6547 0
M  V30 3060 H 289.308 4.38726 -0.20392 0
M  V30 3061 H 289.914 3.85791 -1.79012 0
M  V30 3062 N 288.23 0.939286 1.26551 0
M  V30 3063 C 289.507 0.5038 1.89001 0
M  V30 3064 C 289.887 -1.01854 1.84903 0
M  V30 3065 O 289.235 -1.87773 1.30206 0
M  V30 3066 C 289.445 1.063 3.32417 0
M  V30 3067 C 290.793 1.13051 4.09273 0
M  V30 3068 O 291.817 1.01345 3.41479 0
M  V30 3069 O 290.676 1.31233 5.30509 0
M  V30 3070 H 287.77 0.163897 0.810597 0
M  V30 3071 H 290.316 1.03173 1.34735 0
M  V30 3072 H 289.088 2.10665 3.29752 0
M  V30 3073 H 288.711 0.517408 3.94219 0
M  V30 3074 N 289.708 -1.40897 0.706093 0
M  V30 3075 C 290.618 -2.3455 0.0482286 0
M  V30 3076 C 291.634 -1.56796 -0.754396 0
M  V30 3077 O 292.81 -1.89228 -0.689538 0
M  V30 3078 C 289.875 -3.35625 -0.869303 0
M  V30 3079 C 288.936 -4.29261 -0.0576994 0
M  V30 3080 C 288.169 -5.25508 -0.931531 0
M  V30 3081 O 288.392 -5.27472 -2.17092 0
M  V30 3082 O 287.326 -6.00727 -0.375587 0
M  V30 3083 H 291.152 -2.92407 0.820476 0
M  V30 3084 H 288.737 -1.4193 0.4665 0
M  V30 3085 H 290.619 -3.97635 -1.39514 0
M  V30 3086 H 289.294 -2.80196 -1.62086 0
M  V30 3087 H 288.201 -3.70566 0.512988 0
M  V30 3088 H 289.534 -4.87817 0.655426 0
M  V30 3089 N 291.186 -0.45159 -1.50991 0
M  V30 3090 C 292.463 0.170707 -1.94854 0
M  V30 3091 C 292.843 1.58788 -1.39103 0
M  V30 3092 O 292.191 2.20913 -0.583921 0
M  V30 3093 C 292.401 0.133929 -3.48743 0
M  V30 3094 C 293.749 0.33248 -4.23296 0
M  V30 3095 O 294.773 0.211403 -3.55572 0
M  V30 3096 O 293.632 0.57486 -5.43468 0
M  V30 3097 H 290.726 0.122264 -0.817912 0
M  V30 3098 H 293.272 -0.510594 -1.61836 0
M  V30 3099 H 292.044 -0.856283 -3.81816 0
M  V30 3100 H 291.667 0.857529 -3.88242 0
M  V30 3101 N 292.664 1.56529 -0.183458 0
M  V30 3102 C 293.889 2.02064 0.467428 0
M  V30 3103 C 294.314 1.06282 1.55196 0
M  V30 3104 O 293.672 0.0443565 1.81246 0
M  V30 3105 C 293.72 3.46122 1.01153 0
M  V30 3106 O 292.824 3.53437 2.12499 0
M  V30 3107 H 292.165 0.654726 0.110588 0
M  V30 3108 H 294.695 2.02521 -0.290917 0
M  V30 3109 H 294.705 3.85676 1.33108 0
M  V30 3110 H 293.38 4.15331 0.217533 0
M  V30 3111 H 291.957 3.2575 1.81497 0
M  V30 3112 N 294.142 -0.090211 1.57342 0
M  V30 3113 C 295.074 -1.13541 1.99101 0
M  V30 3114 C 296.087 -1.3604 0.894258 0
M  V30 3115 O 297.276 -1.34606 1.17233 0
M  V30 3116 C 294.376 -2.49001 2.29895 0
M  V30 3117 C 293.549 -2.46712 3.61182 0
M  V30 3118 C 292.608 -3.64136 3.79857 0
M  V30 3119 O 291.634 -3.46405 4.51655 0
M  V30 3120 N 292.836 -4.83802 3.20806 0
M  V30 3121 H 295.601 -0.779942 2.89373 0
M  V30 3122 H 293.162 -0.279125 1.59476 0
M  V30 3123 H 295.154 -3.26166 2.39578 0
M  V30 3124 H 293.724 -2.76619 1.45605 0
M  V30 3125 H 292.944 -1.55058 3.62423 0
M  V30 3126 H 294.232 -2.42265 4.4742 0
M  V30 3127 H 293.63 -5.01112 2.62494 0
M  V30 3128 H 292.187 -5.58543 3.35966 0
M  V30 3129 N 295.62 -1.53406 -0.361157 0
M  V30 3130 C 296.897 -1.60411 -1.11927 0
M  V30 3131 C 297.277 -0.414385 -2.06993 0
M  V30 3132 O 296.625 0.594976 -2.20618 0
M  V30 3133 C 296.835 -2.95652 -1.85448 0
M  V30 3134 C 298.183 -3.50386 -2.39823 0
M  V30 3135 O 299.207 -2.97711 -1.95568 0
M  V30 3136 O 298.066 -4.42482 -3.20737 0
M  V30 3137 H 295.16 -0.64811 -0.513695 0
M  V30 3138 H 297.706 -1.65749 -0.364065 0
M  V30 3139 H 296.478 -3.73682 -1.16091 0
M  V30 3140 H 296.101 -2.93825 -2.67866 0
M  V30 3141 N 297.098 0.621204 -1.44841 0
M  V30 3142 C 298.323 1.41244 -1.51871 0
M  V30 3143 C 298.748 1.87519 -0.147764 0
M  V30 3144 O 298.106 1.59334 0.865 0
M  V30 3145 C 298.154 2.60221 -2.49634 0
M  V30 3146 O 297.258 3.60395 -2.00473 0
M  V30 3147 H 296.599 0.42223 -0.512463 0
M  V30 3148 H 299.129 0.757305 -1.90069 0
M  V30 3149 H 299.139 3.0764 -2.67996 0
M  V30 3150 H 297.814 2.25887 -3.4921 0
M  V30 3151 H 296.391 3.19717 -1.91925 0
M  V30 3152 N 298.576 1.31904 0.862503 0
M  V30 3153 C 299.801 1.25135 1.65397 0
M  V30 3154 C 300.226 -0.179 1.87246 0
M  V30 3155 O 299.584 -1.1277 1.4196 0
M  V30 3156 C 299.632 2.00832 2.99498 0
M  V30 3157 O 298.736 1.35075 3.89652 0
M  V30 3158 H 298.077 0.431655 0.504549 0
M  V30 3159 H 300.607 1.74094 1.07483 0
M  V30 3160 H 300.617 2.10709 3.49379 0
M  V30 3161 H 299.292 3.04847 2.82916 0
M  V30 3162 H 297.869 1.33696 3.48109 0
M  V30 3163 N 300.054 -1.07777 1.14986 0
M  V30 3164 C 301.331 -1.7699 0.832695 0
M  V30 3165 C 301.711 -2.001 -0.672561 0
M  V30 3166 O 301.059 -1.61598 -1.6155 0
M  V30 3167 C 301.269 -3.08139 1.63863 0
M  V30 3168 C 302.617 -3.8256 1.84208 0
M  V30 3169 O 303.641 -3.17939 1.60603 0
M  V30 3170 O 302.5 -4.98612 2.23714 0
M  V30 3171 H 299.594 -0.768389 0.305791 0
M  V30 3172 H 302.14 -1.14182 1.25541 0
M  V30 3173 H 300.912 -2.86909 2.6608 0
M  V30 3174 H 300.535 -3.78678 1.21197 0
M  V30 3175 N 301.532 -0.945985 -1.26051 0
M  V30 3176 C 302.78 -0.594941 -1.93145 0
M  V30 3177 C 303.101 0.86953 -1.7454 0
M  V30 3178 O 302.371 1.61838 -1.10387 0
M  V30 3179 H 300.951 -0.217044 -0.714773 0
M  V30 3180 H 303.613 -1.20235 -1.53393 0
M  V30 3181 H 302.709 -0.816835 -3.01221 0
M  V30 3182 N 303.011 1.40521 -0.713556 0
M  V30 3183 C 304.26 2.00155 -0.249192 0
M  V30 3184 C 304.573 1.57224 1.16362 0
M  V30 3185 O 305.779 2.09542 1.72639 0
M  V30 3186 C 304.235 3.5773 -0.3946 0
M  V30 3187 C 303.843 4.09635 -1.81392 0
M  V30 3188 C 305.587 4.24499 0.00907364 0
M  V30 3189 C 303.494 5.59707 -1.91003 0
M  V30 3190 H 302.424 0.74868 -0.0894114 0
M  V30 3191 H 305.075 1.60784 -0.884352 0
M  V30 3192 H 303.457 3.94792 0.30911 0
M  V30 3193 H 304.631 3.83955 -2.54785 0
M  V30 3194 H 302.946 3.55456 -2.16888 0
M  V30 3195 H 305.543 5.34683 -0.0420404 0
M  V30 3196 H 305.886 4.02824 1.05065 0
M  V30 3197 H 306.419 3.92536 -0.645007 0
M  V30 3198 H 303.158 5.86234 -2.93275 0
M  V30 3199 H 302.678 5.87258 -1.22019 0
M  V30 3200 H 304.357 6.24776 -1.6812 0
M  V30 3201 N 304.489 0.459591 1.5075 0
M  V30 3202 C 305.9 0.00171547 1.867 0
M  V30 3203 C 306.251 -1.39934 1.37525 0
M  V30 3204 O 305.376 -2.03523 0.735349 0
M  V30 3205 C 305.971 -0.00366298 3.388 0
M  V30 3206 C 304.53 -0.406026 3.74204 0
M  V30 3207 C 303.677 0.38673 2.7459 0
M  V30 3208 H 306.628 0.674413 1.43657 0
M  V30 3209 H 306.649 -0.808371 3.71814 0
M  V30 3210 H 306.161 1.01617 3.74561 0
M  V30 3211 H 304.262 -1.43063 3.4404 0
M  V30 3212 H 304.375 -0.115362 4.78961 0
M  V30 3213 H 302.739 -0.158019 2.54209 0
M  V30 3214 H 303.522 1.40585 3.13194 0
M  V30 3215 N 305.967 -1.56429 0.191757 0
M  V30 3216 C 307.192 -2.02309 -0.456706 0
M  V30 3217 C 307.617 -1.07103 -1.5463 0
M  V30 3218 O 306.975 -0.0539677 -1.8122 0
M  V30 3219 C 307.023 -3.46654 -0.993159 0
M  V30 3220 O 306.127 -3.54559 -2.10622 0
M  V30 3221 H 305.468 -0.655303 -0.107114 0
M  V30 3222 H 307.998 -2.02364 0.301653 0
M  V30 3223 H 308.008 -3.86377 -1.31061 0
M  V30 3224 H 306.683 -4.1544 -0.195504 0
M  V30 3225 H 305.26 -3.26708 -1.79767 0
M  V30 3226 N 307.445 0.0818655 -1.57387 0
M  V30 3227 C 308.408 1.08265 -2.02018 0
M  V30 3228 C 309.408 1.32183 -0.915664 0
M  V30 3229 O 310.598 1.28073 -1.18081 0
M  V30 3230 C 307.73 2.42871 -2.39221 0
M  V30 3231 H 308.923 0.698204 -2.91659 0
M  V30 3232 H 306.476 0.327303 -1.52835 0
M  V30 3233 H 307.211 2.86167 -1.52575 0
M  V30 3234 H 306.996 2.26855 -3.19811 0
M  V30 3235 H 308.486 3.14826 -2.74362 0
M  V30 3236 N 308.923 1.53595 0.353017 0
M  V30 3237 C 310.334 1.61937 0.929153 0
M  V30 3238 C 310.685 0.494686 1.89861 0
M  V30 3239 O 309.81 -0.377017 2.1309 0
M  V30 3240 C 310.405 2.93526 1.69199 0
M  V30 3241 C 308.964 3.04161 2.21727 0
M  V30 3242 C 308.111 2.57322 1.03348 0
M  V30 3243 H 311.062 1.58155 0.131431 0
M  V30 3244 H 311.083 2.82034 2.55416 0
M  V30 3245 H 310.595 3.75362 0.986144 0
M  V30 3246 H 308.696 2.26938 2.95516 0
M  V30 3247 H 308.809 4.09465 2.48748 0
M  V30 3248 H 307.173 2.12499 1.40414 0
M  V30 3249 H 307.956 3.41588 0.342428 0
M  V30 3250 N 310.401 -0.613514 1.45168 0
M  V30 3251 C 311.817 -0.933629 1.29443 0
M  V30 3252 C 312.017 -2.00028 0.243101 0
M  V30 3253 O 311.073 -2.49848 -0.364992 0
M  V30 3254 C 312.386 -1.38018 2.67155 0
M  V30 3255 C 313.934 -1.49471 2.75004 0
M  V30 3256 C 314.409 -1.97503 4.13227 0
M  V30 3257 N 315.9 -2.04746 4.15491 0
M  V30 3258 C 316.635 -2.43121 5.19307 0
M  V30 3259 N 316.131 -2.80506 6.33473 0
M  V30 3260 N 317.924 -2.43408 5.06664 0
M  V30 3261 H 310.075 0.0916097 2.12202 0
M  V30 3262 H 312.338 -0.0216655 0.947752 0
M  V30 3263 H 312.044 -0.670625 3.45247 0
M  V30 3264 H 311.918 -2.34784 2.95222 0
M  V30 3265 H 314.305 -2.19519 1.9722 0
M  V30 3266 H 314.386 -0.510342 2.50657 0
M  V30 3267 H 314.03 -1.28045 4.91495 0
M  V30 3268 H 313.96 -2.96843 4.34962 0
M  V30 3269 H 316.451 -1.78468 3.33103 0
M  V30 3270 H 316.764 -3.08652 7.08487 0
M  V30 3271 H 315.109 -2.78216 6.36884 0
M  V30 3272 H 318.3 -2.13604 4.16523 0
M  V30 3273 H 318.473 -2.72989 5.87691 0
M  V30 3274 N 311.879 -1.3236 -0.855495 0
M  V30 3275 C 312.812 -1.15559 -1.96777 0
M  V30 3276 C 313.79 -0.0552681 -1.62506 0
M  V30 3277 O 314.974 -0.214419 -1.87277 0
M  V30 3278 C 312.101 -0.768851 -3.29858 0
M  V30 3279 C 311.147 -1.87429 -3.83109 0
M  V30 3280 S 311.98 -3.48243 -4.06801 0
M  V30 3281 C 313.136 -3.11539 -5.42858 0
M  V30 3282 H 313.369 -2.09717 -2.10727 0
M  V30 3283 H 310.902 -1.17011 -1.00737 0
M  V30 3284 H 312.86 -0.55248 -4.06765 0
M  V30 3285 H 311.521 0.153857 -3.13723 0
M  V30 3286 H 310.714 -1.55667 -4.79358 0
M  V30 3287 H 310.316 -2.04647 -3.13042 0
M  V30 3288 H 312.608 -2.61331 -6.2507 0
M  V30 3289 H 313.551 -4.06806 -5.79582 0
M  V30 3290 H 313.959 -2.48582 -5.06821 0
M  V30 3291 N 313.357 1.07166 -1.15556 0
M  V30 3292 C 314.585 1.83514 -0.955519 0
M  V30 3293 C 315 1.82163 0.49621 0
M  V30 3294 O 314.357 1.23441 1.34419 0
M  V30 3295 C 314.408 3.30515 -1.46432 0
M  V30 3296 O 314.129 3.31937 -2.85918 0
M  V30 3297 C 315.63 4.23625 -1.30603 0
M  V30 3298 H 312.85 0.578926 -0.339244 0
M  V30 3299 H 315.394 1.35265 -1.53374 0
M  V30 3300 H 313.549 3.76106 -0.928584 0
M  V30 3301 H 313.963 4.23794 -3.09029 0
M  V30 3302 H 315.437 5.24831 -1.71047 0
M  V30 3303 H 315.914 4.38485 -0.250441 0
M  V30 3304 H 316.52 3.83871 -1.83094 0
M  V30 3305 N 314.835 0.952656 1.25548 0
M  V30 3306 C 316.083 0.605176 1.92826 0
M  V30 3307 C 316.404 -0.860261 1.74999 0
M  V30 3308 O 315.674 -1.6125 1.11244 0
M  V30 3309 H 314.254 0.220832 0.713612 0
M  V30 3310 H 316.916 1.21047 1.52754 0
M  V30 3311 H 316.012 0.832798 3.00784 0
M  V30 3312 N 316.313 -1.40141 0.720998 0
M  V30 3313 C 317.538 -2.05618 0.271258 0
M  V30 3314 C 317.963 -1.53978 -1.08039 0
M  V30 3315 O 317.321 -0.677463 -1.68167 0
M  V30 3316 C 317.369 -3.59609 0.267197 0
M  V30 3317 O 316.473 -4.05526 -0.749814 0
M  V30 3318 H 315.814 -0.651904 0.126162 0
M  V30 3319 H 318.344 -1.79439 0.982997 0
M  V30 3320 H 318.354 -4.0786 0.106744 0
M  V30 3321 H 317.029 -3.96559 1.25354 0
M  V30 3322 H 315.606 -3.68722 -0.556644 0
M  V30 3323 N 317.792 -0.46758 -1.50504 0
M  V30 3324 C 318.722 0.318381 -2.31319 0
M  V30 3325 C 319.703 0.993564 -1.38066 0
M  V30 3326 O 320.888 0.991411 -1.66987 0
M  V30 3327 C 318.018 1.40275 -3.17711 0
M  V30 3328 C 316.972 0.849373 -4.19487 0
M  V30 3329 C 316.298 2.03177 -4.94594 0
M  V30 3330 C 317.598 -0.136942 -5.2212 0
M  V30 3331 H 319.292 -0.356106 -2.97275 0
M  V30 3332 H 316.838 -0.172703 -1.42961 0
M  V30 3333 H 318.791 1.96004 -3.73042 0
M  V30 3334 H 317.515 2.10596 -2.49634 0
M  V30 3335 H 316.174 0.314076 -3.65252 0
M  V30 3336 H 315.822 2.72187 -4.22993 0
M  V30 3337 H 315.522 1.66774 -5.63436 0
M  V30 3338 H 317.046 2.59403 -5.52759 0
M  V30 3339 H 318.46 0.331056 -5.72343 0
M  V30 3340 H 316.857 -0.41507 -5.98663 0
M  V30 3341 H 317.927 -1.06398 -4.73083 0
M  V30 3342 N 319.27 1.56325 -0.20005 0
M  V30 3343 C 320.516 1.98012 0.438059 0
M  V30 3344 C 320.849 1.08702 1.60927 0
M  V30 3345 O 320.124 0.140064 1.93995 0
M  V30 3346 C 320.407 3.48841 0.893419 0
M  V30 3347 C 320.26 4.48928 -0.279947 0
M  V30 3348 C 321.579 4.03498 1.75719 0
M  V30 3349 H 318.698 0.719918 0.157757 0
M  V30 3350 H 321.34 1.87743 -0.291968 0
M  V30 3351 H 319.49 3.57723 1.51547 0
M  V30 3352 H 321.162 4.52079 -0.91772 0
M  V30 3353 H 319.405 4.23694 -0.930919 0
M  V30 3354 H 320.076 5.5194 0.0812601 0
M  V30 3355 H 322.552 3.97427 1.23253 0
M  V30 3356 H 321.428 5.09393 2.04476 0
M  V30 3357 H 321.689 3.4906 2.71311 0
M  V30 3358 N 320.748 -0.0735177 1.57428 0
M  V30 3359 C 321.973 -0.789787 1.91774 0
M  V30 3360 C 322.398 -1.70413 0.796306 0
M  V30 3361 O 321.756 -1.79555 -0.250961 0
M  V30 3362 C 321.804 -1.5609 3.25067 0
M  V30 3363 O 320.908 -2.67144 3.14178 0
M  V30 3364 H 320.249 -0.215582 0.628029 0
M  V30 3365 H 322.779 -0.0422781 2.04556 0
M  V30 3366 H 322.789 -1.94052 3.58898 0
M  V30 3367 H 321.464 -0.890015 4.06265 0
M  V30 3368 H 320.041 -2.32052 2.91901 0
M  V30 3369 N 322.226 -1.5378 -0.344866 0
M  V30 3370 C 323.503 -1.61589 -1.10219 0
M  V30 3371 C 323.883 -0.436316 -2.06542 0
M  V30 3372 O 323.231 0.571543 -2.21237 0
M  V30 3373 C 323.441 -2.97602 -1.82301 0
M  V30 3374 C 324.789 -3.5291 -2.36093 0
M  V30 3375 O 325.813 -2.99768 -1.924 0
M  V30 3376 O 324.672 -4.45859 -3.16026 0
M  V30 3377 H 321.766 -0.653522 -0.506792 0
M  V30 3378 H 324.312 -1.66126 -0.346465 0
M  V30 3379 H 323.084 -3.74893 -1.12121 0
M  V30 3380 H 322.707 -2.9665 -2.64735 0
M  V30 3381 N 323.704 0.605807 -1.45491 0
M  V30 3382 C 325.12 0.926751 -1.29936 0
M  V30 3383 C 325.32 1.99896 -0.253706 0
M  V30 3384 O 324.376 2.50038 0.351737 0
M  V30 3385 C 325.689 1.36599 -2.67883 0
M  V30 3386 C 327.237 1.4801 -2.75793 0
M  V30 3387 C 327.712 1.95309 -4.14268 0
M  V30 3388 N 329.203 2.0254 -4.16571 0
M  V30 3389 C 329.938 2.40363 -5.20589 0
M  V30 3390 N 329.434 2.77143 -6.34952 0
M  V30 3391 N 331.227 2.40718 -5.07948 0
M  V30 3392 H 323.378 -0.102862 -2.12151 0
M  V30 3393 H 325.641 0.016639 -0.947854 0
M  V30 3394 H 325.347 0.652306 -3.45598 0
M  V30 3395 H 325.221 2.33215 -2.96463 0
M  V30 3396 H 327.608 2.1847 -1.98381 0
M  V30 3397 H 327.689 0.497041 -2.50925 0
M  V30 3398 H 327.333 1.25436 -4.92167 0
M  V30 3399 H 327.263 2.94532 -4.3653 0
M  V30 3400 H 329.754 1.76699 -3.34045 0
M  V30 3401 H 330.067 3.0489 -7.10114 0
M  V30 3402 H 328.412 2.74834 -6.3835 0
M  V30 3403 H 331.603 2.11392 -4.1765 0
M  V30 3404 H 331.776 2.69869 -5.89131 0
M  V30 3405 N 325.182 1.32811 0.848464 0
M  V30 3406 C 326.407 1.26882 1.6406 0
M  V30 3407 C 326.832 -0.15913 1.87426 0
M  V30 3408 O 326.19 -1.11258 1.43148 0
M  V30 3409 C 326.238 2.03997 2.97351 0
M  V30 3410 O 325.342 1.39201 3.88197 0
M  V30 3411 H 324.683 0.436982 0.499943 0
M  V30 3412 H 327.213 1.75224 1.0563 0
M  V30 3413 H 327.223 2.14403 3.47124 0
M  V30 3414 H 325.898 3.0783 2.79666 0
M  V30 3415 H 324.475 1.37381 3.46671 0
M  V30 3416 N 326.66 -1.06551 1.16123 0
M  V30 3417 C 327.61 -2.12209 0.833736 0
M  V30 3418 C 328.594 -1.59825 -0.185656 0
M  V30 3419 O 329.786 -1.76994 0.0147906 0
M  V30 3420 C 326.915 -3.41674 0.333697 0
M  V30 3421 C 326.001 -4.00892 1.38372 0
M  V30 3422 N 326.392 -4.34256 2.59337 0
M  V30 3423 C 324.69 -4.28463 1.23836 0
M  V30 3424 C 325.391 -4.81291 3.26701 0
M  V30 3425 N 324.367 -4.80565 2.54083 0
M  V30 3426 H 328.169 -2.35849 1.75364 0
M  V30 3427 H 325.683 -1.24068 1.04789 0
M  V30 3428 H 327.68 -4.16822 0.0806918 0
M  V30 3429 H 326.34 -3.19475 -0.58017 0
M  V30 3430 H 327.351 -4.24687 2.96415 0
M  V30 3431 H 324.028 -4.15721 0.38504 0
M  V30 3432 H 325.418 -5.16332 4.29943 0
M  V30 3433 N 328.138 -0.959301 -1.25041 0
M  V30 3434 C 329.415 -0.533805 -1.88175 0
M  V30 3435 C 329.795 0.988994 -1.865 0
M  V30 3436 O 329.143 1.85677 -1.33177 0
M  V30 3437 C 329.353 -1.11575 -3.30684 0
M  V30 3438 C 330.701 -1.19548 -4.07423 0
M  V30 3439 O 331.725 -1.06765 -3.39823 0
M  V30 3440 O 330.584 -1.39656 -5.28354 0
M  V30 3441 H 327.678 -0.176772 -0.807887 0
M  V30 3442 H 330.224 -1.05303 -1.33076 0
M  V30 3443 H 328.996 -2.15884 -3.26358 0
M  V30 3444 H 328.619 -0.580059 -3.93346 0
M  V30 3445 N 329.616 1.39756 -0.72842 0
M  V30 3446 C 330.893 1.94574 -0.200079 0
M  V30 3447 C 331.273 1.66569 1.29684 0
M  V30 3448 O 330.621 0.990326 2.05924 0
M  V30 3449 C 330.831 3.45004 -0.526608 0
M  V30 3450 C 332.179 4.21965 -0.472318 0
M  V30 3451 O 333.203 3.53173 -0.463413 0
M  V30 3452 O 332.062 5.44552 -0.461075 0
M  V30 3453 H 329.156 0.826289 -0.0342851 0
M  V30 3454 H 331.702 1.49293 -0.806829 0
M  V30 3455 H 330.474 3.58796 -1.56144 0
M  V30 3456 H 330.097 3.97449 0.109449 0
M  V30 3457 N 331.094 0.475555 1.50254 0
M  V30 3458 C 332.343 -0.0795996 2.01543 0
M  V30 3459 C 332.656 -1.4038 1.36209 0
M  V30 3460 O 333.862 -2.04415 1.7868 0
M  V30 3461 C 332.318 -0.192363 3.59386 0
M  V30 3462 C 331.926 1.12367 4.33679 0
M  V30 3463 C 333.67 -0.699238 4.18701 0
M  V30 3464 C 331.577 0.974453 5.83317 0
M  V30 3465 H 330.507 -0.0335228 0.753254 0
M  V30 3466 H 333.158 0.611128 1.73025 0
M  V30 3467 H 331.54 -0.946974 3.84511 0
M  V30 3468 H 332.714 1.88958 4.20276 0
M  V30 3469 H 331.029 1.562 3.85993 0
M  V30 3470 H 333.626 -0.827978 5.28251 0
M  V30 3471 H 333.969 -1.69171 3.80377 0
M  V30 3472 H 334.502 -0.00188807 3.978 0
M  V30 3473 H 331.241 1.94042 6.26121 0
M  V30 3474 H 330.761 0.248998 5.99283 0
M  V30 3475 H 332.44 0.642867 6.43798 0
M  V30 3476 N 332.573 -1.56217 0.208337 0
M  V30 3477 C 333.819 -1.98242 -0.427552 0
M  V30 3478 C 334.152 -1.09554 -1.60348 0
M  V30 3479 O 333.427 -0.15035 -1.93918 0
M  V30 3480 C 333.71 -3.4931 -0.874907 0
M  V30 3481 C 333.563 -4.48773 0.303751 0
M  V30 3482 C 334.882 -4.04424 -1.73577 0
M  V30 3483 H 332.001 -0.720744 -0.153936 0
M  V30 3484 H 334.643 -1.87586 0.30192 0
M  V30 3485 H 332.793 -3.58522 -1.49648 0
M  V30 3486 H 334.465 -4.51586 0.941682 0
M  V30 3487 H 332.708 -4.23194 0.953375 0
M  V30 3488 H 333.379 -5.51976 -0.0519883 0
M  V30 3489 H 335.855 -3.98075 -1.21143 0
M  V30 3490 H 334.731 -5.1047 -2.01771 0
M  V30 3491 H 334.992 -3.50494 -2.69456 0
M  V30 3492 N 334.051 0.0651679 -1.57465 0
M  V30 3493 C 335.279 0.775808 -1.91804 0
M  V30 3494 C 335.694 1.70782 -0.804916 0
M  V30 3495 O 335.051 1.81153 0.221311 0
M  V30 3496 C 335.102 1.56381 -3.25925 0
M  V30 3497 O 334.823 0.669248 -4.32958 0
M  V30 3498 C 336.324 2.37485 -3.7432 0
M  V30 3499 H 333.544 0.2202 -0.63384 0
M  V30 3500 H 336.088 0.0334587 -2.04473 0
M  V30 3501 H 334.243 2.25837 -3.14764 0
M  V30 3502 H 334.657 1.21801 -5.10162 0
M  V30 3503 H 336.131 2.88223 -4.70778 0
M  V30 3504 H 336.608 3.17307 -3.03666 0
M  V30 3505 H 337.214 1.73173 -3.88447 0
M  V30 3506 N 335.529 1.53961 0.336706 0
M  V30 3507 C 336.945 1.44378 0.680241 0
M  V30 3508 C 337.145 0.606034 1.9217 0
M  V30 3509 O 336.201 0.099688 2.52303 0
M  V30 3510 C 337.514 2.87945 0.8665 0
M  V30 3511 C 339.062 2.97763 0.964682 0
M  V30 3512 C 339.537 4.42453 1.18321 0
M  V30 3513 N 341.028 4.46008 1.25025 0
M  V30 3514 C 341.763 5.55102 1.43697 0
M  V30 3515 N 341.259 6.7419 1.59498 0
M  V30 3516 N 343.052 5.42727 1.463 0
M  V30 3517 H 335.203 2.06918 -0.479455 0
M  V30 3518 H 337.466 0.935634 -0.152619 0
M  V30 3519 H 337.172 3.51691 0.0256937 0
M  V30 3520 H 337.046 3.33293 1.76623 0
M  V30 3521 H 339.433 2.34153 1.796 0
M  V30 3522 H 339.514 2.55766 0.041708 0
M  V30 3523 H 339.158 5.06645 0.356788 0
M  V30 3524 H 339.088 4.82048 2.11985 0
M  V30 3525 H 341.579 3.60196 1.14312 0
M  V30 3526 H 341.892 7.53095 1.734 0
M  V30 3527 H 340.237 6.77123 1.56621 0
M  V30 3528 H 343.428 4.48647 1.33543 0
M  V30 3529 H 343.601 6.27806 1.6051 0
M  V30 3530 N 337.007 -0.598083 1.45811 0
M  V30 3531 C 337.94 -1.7223 1.49706 0
M  V30 3532 C 338.918 -1.58732 0.352535 0
M  V30 3533 O 340.102 -1.80162 0.554438 0
M  V30 3534 C 337.229 -3.10148 1.3611 0
M  V30 3535 C 336.275 -3.42209 2.54549 0
M  V30 3536 S 337.108 -3.35989 4.16979 0
M  V30 3537 C 338.264 -4.76471 4.05865 0
M  V30 3538 H 338.497 -1.68665 2.44826 0
M  V30 3539 H 336.03 -0.775541 1.33509 0
M  V30 3540 H 337.988 -3.8972 1.28953 0
M  V30 3541 H 336.649 -3.11219 0.424451 0
M  V30 3542 H 335.842 -4.42652 2.40988 0
M  V30 3543 H 335.444 -2.70173 2.58617 0
M  V30 3544 H 337.736 -5.665 3.71596 0
M  V30 3545 H 338.679 -4.95089 5.06253 0
M  V30 3546 H 339.087 -4.52599 3.37364 0
M  V30 3547 N 338.485 -1.33259 -0.841409 0
M  V30 3548 C 339.432 -1.23302 -1.95103 0
M  V30 3549 C 340.402 -0.112204 -1.65721 0
M  V30 3550 O 341.587 -0.290038 -1.88583 0
M  V30 3551 C 338.727 -0.975583 -3.31023 0
M  V30 3552 C 337.84 -2.18243 -3.72819 0
M  V30 3553 C 336.975 -1.85936 -4.97595 0
M  V30 3554 C 336.014 -3.02866 -5.3192 0
M  V30 3555 N 335.151 -2.70565 -6.47873 0
M  V30 3556 H 339.991 -2.18207 -2.02952 0
M  V30 3557 H 337.528 -1.0851 -0.993173 0
M  V30 3558 H 339.486 -0.80677 -4.09325 0
M  V30 3559 H 338.116 -0.0632755 -3.22738 0
M  V30 3560 H 337.168 -2.46107 -2.90061 0
M  V30 3561 H 338.48 -3.05666 -3.94169 0
M  V30 3562 H 337.634 -1.65684 -5.83638 0
M  V30 3563 H 336.373 -0.957452 -4.78209 0
M  V30 3564 H 335.378 -3.23736 -4.44382 0
M  V30 3565 H 336.603 -3.93809 -5.53255 0
M  V30 3566 H 334.549 -1.8293 -6.29978 0
M  V30 3567 H 334.466 -3.51519 -6.69306 0
M  V30 3568 H 335.734 -2.53774 -7.37034 0
M  V30 3569 N 339.963 1.05934 -1.16686 0
M  V30 3570 C 340.911 2.15603 -0.872817 0
M  V30 3571 C 341.905 1.68647 0.159576 0
M  V30 3572 O 343.111 1.79995 0.0132125 0
M  V30 3573 H 339.486 0.703885 -0.264671 0
M  V30 3574 H 341.457 2.37613 -1.80507 0
M  V30 3575 C 340.206 3.45457 -0.394344 0
M  V30 3576 H 339.529 3.81984 -1.18019 0
M  V30 3577 H 340.969 4.2339 -0.227408 0
M  V30 3578 C 339.428 3.25021 0.88673 0
M  V30 3579 O 339.958 3.50906 1.95519 0
M  V30 3580 N 338.164 2.78437 0.831925 0
M  V30 3581 H 337.711 2.57572 -0.0377619 0
M  V30 3582 H 337.669 2.65144 1.68956 0
M  V30 3583 N 341.441 0.965919 1.2453 0
M  V30 3584 C 342.69 0.622437 1.91856 0
M  V30 3585 C 343.003 -0.846006 1.76358 0
M  V30 3586 O 344.209 -1.29993 2.38357 0
M  V30 3587 C 342.665 1.0626 3.43856 0
M  V30 3588 C 342.273 2.55437 3.68043 0
M  V30 3589 C 344.017 0.792183 4.17043 0
M  V30 3590 C 341.924 2.93196 5.13605 0
M  V30 3591 H 340.854 0.229092 0.718354 0
M  V30 3592 H 343.505 1.17189 1.41206 0
M  V30 3593 H 341.887 0.441476 3.93531 0
M  V30 3594 H 343.061 3.22665 3.28974 0
M  V30 3595 H 341.376 2.8007 3.08139 0
M  V30 3596 H 343.973 1.05031 5.24283 0
M  V30 3597 H 344.316 -0.271584 4.15413 0
M  V30 3598 H 344.849 1.37419 3.73311 0
M  V30 3599 H 341.588 3.98636 5.20355 0
M  V30 3600 H 341.108 2.30651 5.53679 0
M  V30 3601 H 342.787 2.83004 5.81823 0
M  V30 3602 N 342.919 -1.39368 0.735821 0
M  V30 3603 C 343.829 -2.34395 0.0979693 0
M  V30 3604 C 344.845 -1.58361 -0.720968 0
M  V30 3605 O 346.021 -1.90648 -0.649245 0
M  V30 3606 C 343.086 -3.37393 -0.797916 0
M  V30 3607 C 342.147 -4.29287 0.0333662 0
M  V30 3608 C 341.38 -5.27365 -0.819854 0
M  V30 3609 O 341.603 -5.31959 -2.05855 0
M  V30 3610 O 340.537 -6.01389 -0.248079 0
M  V30 3611 H 344.363 -2.90601 0.882315 0
M  V30 3612 H 341.948 -1.40909 0.4965 0
M  V30 3613 H 343.83 -4.00505 -1.31048 0
M  V30 3614 H 342.505 -2.83571 -1.56106 0
M  V30 3615 H 341.412 -3.69395 0.591475 0
M  V30 3616 H 342.745 -4.86317 0.758752 0
M  V30 3617 N 344.397 -0.483516 -1.5 0
M  V30 3618 C 345.637 0.0657469 -2.04294 0
M  V30 3619 C 346.001 1.35869 -1.35659 0
M  V30 3620 O 347.202 1.99111 -1.80578 0
M  V30 3621 C 345.473 0.232758 -3.56641 0
M  V30 3622 S 347.032 0.738788 -4.32536 0
M  V30 3623 H 343.85 0.0100755 -0.710929 0
M  V30 3624 H 346.452 -0.653494 -1.84254 0
M  V30 3625 H 345.156 -0.713847 -4.04144 0
M  V30 3626 H 344.687 0.977751 -3.81056 0
M  V30 3627 H 346.702 2.01048 -4.53645 0
M  V30 3628 N 345.875 1.56104 -0.216619 0
M  V30 3629 C 347.124 1.97348 0.416744 0
M  V30 3630 C 347.437 1.10715 1.6125 0
M  V30 3631 O 348.643 1.41836 2.31506 0
M  V30 3632 C 347.099 3.51059 0.792835 0
M  V30 3633 C 346.707 4.46387 -0.379828 0
M  V30 3634 C 348.451 4.01026 1.39208 0
M  V30 3635 C 346.358 5.91397 0.0184223 0
M  V30 3636 H 345.288 0.736942 0.159475 0
M  V30 3637 H 347.939 1.80827 -0.31205 0
M  V30 3638 H 346.321 3.63162 1.57891 0
M  V30 3639 H 347.495 4.46029 -1.15737 0
M  V30 3640 H 345.81 4.06734 -0.891979 0
M  V30 3641 H 348.407 5.0686 1.70286 0
M  V30 3642 H 348.75 3.46587 2.30614 0
M  V30 3643 H 349.283 3.92125 0.669537 0
M  V30 3644 H 346.022 6.49807 -0.862002 0
M  V30 3645 H 345.542 5.94961 0.760384 0
M  V30 3646 H 347.221 6.45455 0.446818 0
M  V30 3647 N 347.353 -0.0568162 1.57498 0
M  V30 3648 C 348.263 -1.08346 2.08083 0
M  V30 3649 C 349.279 -1.41439 1.01346 0
M  V30 3650 O 350.455 -1.51316 1.32912 0
M  V30 3651 C 347.52 -2.37352 2.52715 0
M  V30 3652 C 346.581 -2.11093 3.73816 0
M  V30 3653 C 345.814 -3.33949 4.1631 0
M  V30 3654 O 346.037 -4.43622 3.58547 0
M  V30 3655 O 344.971 -3.21279 5.08983 0
M  V30 3656 H 348.797 -0.683667 2.95905 0
M  V30 3657 H 346.382 -0.271965 1.46904 0
M  V30 3658 H 348.264 -3.13246 2.81877 0
M  V30 3659 H 346.939 -2.76681 1.68016 0
M  V30 3660 H 345.846 -1.32856 3.49714 0
M  V30 3661 H 347.179 -1.76637 4.59413 0
M  V30 3662 N 348.832 -1.54138 -0.328536 0
M  V30 3663 C 349.762 -1.86167 -1.40939 0
M  V30 3664 C 350.743 -0.718044 -1.54202 0
M  V30 3665 O 351.928 -0.971328 -1.68163 0
M  V30 3666 C 349.058 -2.08461 -2.77779 0
M  V30 3667 C 348.012 -3.24299 -2.7931 0
M  V30 3668 C 347.338 -3.31955 -4.19178 0
M  V30 3669 C 348.638 -4.62065 -2.43502 0
M  V30 3670 H 350.332 -2.76689 -1.14383 0
M  V30 3671 H 347.878 -1.33132 -0.548806 0
M  V30 3672 H 349.831 -2.29453 -3.53454 0
M  V30 3673 H 348.555 -1.14684 -3.05802 0
M  V30 3674 H 347.214 -3.03187 -2.0609 0
M  V30 3675 H 346.862 -2.35745 -4.44335 0
M  V30 3676 H 346.562 -4.09805 -4.2111 0
M  V30 3677 H 348.086 -3.55175 -4.96672 0
M  V30 3678 H 349.5 -4.8297 -3.08889 0
M  V30 3679 H 347.897 -5.42429 -2.56693 0
M  V30 3680 H 348.967 -4.64652 -1.38659 0
M  V30 3681 N 350.31 0.590341 -1.46126 0
M  V30 3682 C 351.558 1.34616 -1.50742 0
M  V30 3683 C 351.879 1.94363 -0.157486 0
M  V30 3684 O 351.149 1.78136 0.815136 0
M  V30 3685 H 349.729 0.499789 -0.555175 0
M  V30 3686 H 352.391 0.691953 -1.82203 0
M  V30 3687 H 351.487 2.15678 -2.25587 0
M  V30 3688 N 351.788 1.33704 0.83433 0
M  V30 3689 C 353.204 1.13137 1.12571 0
M  V30 3690 C 353.404 -0.0747261 2.01361 0
M  V30 3691 O 352.46 -0.753647 2.4099 0
M  V30 3692 C 353.773 2.42105 1.78342 0
M  V30 3693 C 355.321 2.48054 1.90888 0
M  V30 3694 C 355.796 3.76995 2.60075 0
M  V30 3695 N 357.287 3.78092 2.67584 0
M  V30 3696 C 358.022 4.74574 3.21818 0
M  V30 3697 N 357.518 5.81434 3.76705 0
M  V30 3698 N 359.311 4.62044 3.20112 0
M  V30 3699 H 351.462 2.11 0.243489 0
M  V30 3700 H 353.725 0.932532 0.17055 0
M  V30 3701 H 353.431 3.30391 1.20561 0
M  V30 3702 H 353.305 2.54594 2.7832 0
M  V30 3703 H 355.692 1.60215 2.47821 0
M  V30 3704 H 355.773 2.39502 0.898459 0
M  V30 3705 H 355.417 4.65219 2.03799 0
M  V30 3706 H 355.347 3.82825 3.61597 0
M  V30 3707 H 357.838 3.00865 2.28667 0
M  V30 3708 H 358.151 6.51084 4.16305 0
M  V30 3709 H 356.496 5.85163 3.7498 0
M  V30 3710 H 359.687 3.77716 2.76493 0
M  V30 3711 H 359.86 5.37406 3.62076 0
M  V30 3712 N 353.266 -1.05314 1.17247 0
M  V30 3713 C 354.216 -2.11313 0.856196 0
M  V30 3714 C 355.2 -1.60013 -0.168694 0
M  V30 3715 O 356.392 -1.76968 0.0335624 0
M  V30 3716 C 353.521 -3.41301 0.369917 0
M  V30 3717 C 352.607 -3.99401 1.42616 0
M  V30 3718 N 352.998 -4.31481 2.63928 0
M  V30 3719 C 351.296 -4.27126 1.28373 0
M  V30 3720 C 351.997 -4.77799 3.31787 0
M  V30 3721 N 350.973 -4.77843 2.59166 0
M  V30 3722 H 354.775 -2.33976 1.77856 0
M  V30 3723 H 352.289 -1.2295 1.06099 0
M  V30 3724 H 354.286 -4.16713 0.124897 0
M  V30 3725 H 352.946 -3.20072 -0.546253 0
M  V30 3726 H 353.957 -4.21519 3.00902 0
M  V30 3727 H 350.634 -4.15289 0.429111 0
M  V30 3728 H 352.024 -5.11743 4.35395 0
M  V30 3729 N 354.744 -0.972509 -1.24016 0
M  V30 3730 C 356.16 -0.679827 -1.44397 0
M  V30 3731 C 356.36 0.756716 -1.86751 0
M  V30 3732 O 355.416 1.53007 -2.00861 0
M  V30 3733 C 356.729 -1.66803 -2.50195 0
M  V30 3734 C 358.277 -1.68119 -2.64017 0
M  V30 3735 C 358.752 -2.65748 -3.73017 0
M  V30 3736 N 360.243 -2.64219 -3.8045 0
M  V30 3737 C 360.978 -3.36433 -4.64328 0
M  V30 3738 N 360.474 -4.1818 -5.52356 0
M  V30 3739 N 362.267 -3.25235 -4.58453 0
M  V30 3740 H 354.418 -1.90059 -0.948228 0
M  V30 3741 H 356.681 -0.818527 -0.478245 0
M  V30 3742 H 356.387 -2.69498 -2.25973 0
M  V30 3743 H 356.261 -1.4446 -3.48441 0
M  V30 3744 H 358.648 -0.661319 -2.87594 0
M  V30 3745 H 358.729 -1.94525 -1.66113 0
M  V30 3746 H 358.373 -3.67872 -3.50189 0
M  V30 3747 H 358.303 -2.36619 -4.70446 0
M  V30 3748 H 360.794 -2.04887 -3.17537 0
M  V30 3749 H 361.107 -4.70157 -6.13329 0
M  V30 3750 H 359.452 -4.22273 -5.52006 0
M  V30 3751 H 362.643 -2.60829 -3.88698 0
M  V30 3752 H 362.816 -3.81776 -5.23594 0
M  V30 3753 N 356.222 1.38976 -0.743202 0
M  V30 3754 C 357.152 2.33171 -0.123873 0
M  V30 3755 C 358.133 1.54336 0.71516 0
M  V30 3756 O 359.318 1.82696 0.658467 0
M  V30 3757 C 356.448 3.38474 0.777978 0
M  V30 3758 C 355.402 4.27979 0.0424758 0
M  V30 3759 C 354.728 5.2405 1.06189 0
M  V30 3760 C 356.028 5.10155 -1.1198 0
M  V30 3761 H 357.722 2.85213 -0.910709 0
M  V30 3762 H 355.268 1.37133 -0.439388 0
M  V30 3763 H 357.221 4.03328 1.22084 0
M  V30 3764 H 355.945 2.84891 1.59702 0
M  V30 3765 H 354.604 3.64616 -0.380853 0
M  V30 3766 H 354.252 4.66758 1.87472 0
M  V30 3767 H 353.952 5.84785 0.574485 0
M  V30 3768 H 355.476 5.9178 1.50428 0
M  V30 3769 H 356.89 5.68307 -0.75499 0
M  V30 3770 H 355.287 5.80073 -1.53738 0
M  V30 3771 H 356.357 4.44504 -1.93764 0
M  V30 3772 N 357.7 0.491464 1.49741 0
M  V30 3773 C 358.647 -0.292027 2.28945 0
M  V30 3774 C 359.617 -0.968973 1.34908 0
M  V30 3775 O 360.802 -0.97748 1.6386 0
M  V30 3776 C 357.942 -1.35617 3.17336 0
M  V30 3777 C 357.055 -0.691957 4.26422 0
M  V30 3778 C 356.19 -1.73572 5.02042 0
M  V30 3779 C 355.229 -1.05286 6.02977 0
M  V30 3780 N 354.366 -2.0404 6.71798 0
M  V30 3781 H 359.206 0.389654 2.95442 0
M  V30 3782 H 356.743 0.204003 1.45679 0
M  V30 3783 H 358.701 -1.98502 3.66951 0
M  V30 3784 H 357.331 -2.00674 2.52844 0
M  V30 3785 H 356.383 0.0499523 3.80367 0
M  V30 3786 H 357.695 -0.153946 4.98562 0
M  V30 3787 H 356.849 -2.43987 5.55478 0
M  V30 3788 H 355.588 -2.30757 4.29654 0
M  V30 3789 H 354.593 -0.334446 5.48782 0
M  V30 3790 H 355.818 -0.487636 6.77347 0
M  V30 3791 H 353.764 -2.60205 6.02187 0
M  V30 3792 H 353.681 -1.55279 7.39881 0
M  V30 3793 H 354.949 -2.73772 7.29842 0
M  V30 3794 N 359.178 -1.55987 0.224894 0
M  V30 3795 C 360.589 -1.84553 -0.282345 0
M  V30 3796 C 360.94 -1.14634 -1.59227 0
M  V30 3797 O 360.065 -0.417155 -2.12341 0
M  V30 3798 C 360.66 -3.348 -0.519062 0
M  V30 3799 C 359.219 -3.63671 -0.970604 0
M  V30 3800 C 358.366 -2.77277 -0.0355261 0
M  V30 3801 H 361.317 -1.52245 0.448006 0
M  V30 3802 H 361.338 -3.55187 -1.36463 0
M  V30 3803 H 360.85 -3.8566 0.43449 0
M  V30 3804 H 358.951 -3.1827 -1.9374 0
M  V30 3805 H 359.064 -4.71631 -0.842698 0
M  V30 3806 H 357.428 -2.48846 -0.542927 0
M  V30 3807 H 358.211 -3.30937 0.913003 0
M  V30 3808 N 360.656 0.0484629 -1.57525 0
M  V30 3809 C 361.902 0.738854 -1.89506 0
M  V30 3810 C 362.257 1.73989 -0.821319 0
M  V30 3811 O 361.55 1.90825 0.172129 0
M  V30 3812 C 361.744 1.46632 -3.25935 0
M  V30 3813 C 361.573 0.537254 -4.46479 0
M  V30 3814 C 360.343 0.165484 -5.05029 0
M  V30 3815 C 362.541 -0.176085 -5.13998 0
M  V30 3816 N 360.523 -0.766868 -6.09091 0
M  V30 3817 C 361.894 -0.96478 -6.12448 0
M  V30 3818 C 363.949 -0.24509 -4.97296 0
M  V30 3819 C 362.652 -1.8161 -6.95996 0
M  V30 3820 C 364.678 -1.08347 -5.81391 0
M  V30 3821 C 364.04 -1.86014 -6.79395 0
M  V30 3822 H 360.139 0.245067 -0.742608 0
M  V30 3823 H 362.723 -0.000476161 -1.947 0
M  V30 3824 H 360.894 2.17623 -3.21706 0
M  V30 3825 H 362.626 2.10757 -3.45491 0
M  V30 3826 H 359.381 0.523466 -4.70698 0
M  V30 3827 H 359.805 -1.22698 -6.65788 0
M  V30 3828 H 364.447 0.341063 -4.21422 0
M  V30 3829 H 362.165 -2.41313 -7.71229 0
M  V30 3830 H 365.751 -1.14014 -5.70519 0
M  V30 3831 H 364.631 -2.4984 -7.43337 0
M  V30 3832 N 362.134 1.5431 0.320358 0
M  V30 3833 C 363.364 1.7638 1.07582 0
M  V30 3834 C 363.772 0.513944 1.82086 0
M  V30 3835 O 363.115 -0.525123 1.76035 0
M  V30 3836 C 363.177 2.9055 2.1171 0
M  V30 3837 C 362.841 4.2934 1.56575 0
M  V30 3838 C 363.838 5.10077 1.00586 0
M  V30 3839 C 361.523 4.75893 1.60722 0
M  V30 3840 C 363.517 6.35477 0.494756 0
M  V30 3841 C 361.204 6.0126 1.09224 0
M  V30 3842 C 362.202 6.80886 0.53696 0
M  V30 3843 O 361.89 8.03894 0.0297371 0
M  V30 3844 H 361.622 0.592369 0.325692 0
M  V30 3845 H 364.176 2.02019 0.37116 0
M  V30 3846 H 362.406 2.60489 2.85801 0
M  V30 3847 H 364.095 3.00373 2.73003 0
M  V30 3848 H 364.861 4.75265 0.966869 0
M  V30 3849 H 360.74 4.13957 2.02882 0
M  V30 3850 H 364.284 6.97574 0.0606842 0
M  V30 3851 H 360.181 6.35562 1.12831 0
M  V30 3852 H 360.949 8.18372 0.14486 0
M  V30 3853 N 363.613 -0.582584 1.46437 0
M  V30 3854 C 364.86 -1.34079 1.51753 0
M  V30 3855 C 365.188 -1.93762 0.169299 0
M  V30 3856 O 364.443 -1.76989 -0.835062 0
M  V30 3857 C 364.742 -2.48964 2.56421 0
M  V30 3858 C 364.408 -2.07273 4.00436 0
M  V30 3859 C 363.07 -1.95618 4.39644 0
M  V30 3860 C 365.422 -1.75111 4.90903 0
M  V30 3861 C 362.75 -1.5006 5.67185 0
M  V30 3862 C 365.102 -1.31032 6.18881 0
M  V30 3863 C 363.766 -1.17954 6.56996 0
M  V30 3864 H 363.036 -0.49063 0.555304 0
M  V30 3865 H 365.683 -0.656007 1.79913 0
M  V30 3866 H 363.988 -3.22889 2.21923 0
M  V30 3867 H 365.685 -3.07178 2.57765 0
M  V30 3868 H 362.275 -2.17279 3.69443 0
M  V30 3869 H 366.459 -1.83001 4.61329 0
M  V30 3870 H 361.715 -1.38577 5.95488 0
M  V30 3871 H 365.889 -1.052 6.88408 0
M  V30 3872 H 363.516 -0.824279 7.55718 0
M  V30 3873 N 365.091 -1.34144 -0.827227 0
M  V30 3874 C 366.316 -1.29476 -1.62021 0
M  V30 3875 C 366.741 0.129292 -1.87655 0
M  V30 3876 O 366.099 1.08967 -1.449 0
M  V30 3877 C 366.147 -2.08702 -2.94068 0
M  V30 3878 O 365.251 -1.45359 -3.85933 0
M  V30 3879 H 364.592 -0.444881 -0.492927 0
M  V30 3880 H 367.122 -1.76882 -1.02829 0
M  V30 3881 H 367.132 -2.19898 -3.43669 0
M  V30 3882 H 365.807 -3.12241 -2.74734 0
M  V30 3883 H 364.384 -1.42879 -3.44442 0
M  V30 3884 N 366.569 1.04691 -1.17803 0
M  V30 3885 C 367.98 1.59238 -0.974689 0
M  V30 3886 C 368.331 1.90306 0.477292 0
M  V30 3887 O 367.456 1.68846 1.35352 0
M  V30 3888 C 368.051 2.89318 -1.76296 0
M  V30 3889 C 366.61 3.40506 -1.60414 0
M  V30 3890 C 365.757 2.14172 -1.76141 0
M  V30 3891 H 368.708 0.874395 -1.32439 0
M  V30 3892 H 368.729 3.5944 -1.24833 0
M  V30 3893 H 368.241 2.66675 -2.81968 0
M  V30 3894 H 366.342 3.68175 -0.572519 0
M  V30 3895 H 366.455 4.14753 -2.39827 0
M  V30 3896 H 364.819 2.25176 -1.19028 0
M  V30 3897 H 365.602 1.93992 -2.83235 0
M  V30 3898 N 368.047 0.979072 1.23499 0
M  V30 3899 C 369.277 0.664237 1.95631 0
M  V30 3900 C 369.685 -0.772653 1.72704 0
M  V30 3901 O 369.028 -1.53141 1.01457 0
M  V30 3902 C 369.09 0.873115 3.48736 0
M  V30 3903 C 368.754 2.29182 3.95379 0
M  V30 3904 C 369.751 3.2704 4.04155 0
M  V30 3905 C 367.436 2.62256 4.28401 0
M  V30 3906 C 369.43 4.56052 4.45304 0
M  V30 3907 C 367.117 3.91491 4.69231 0
M  V30 3908 C 368.115 4.88201 4.77649 0
M  V30 3909 O 367.803 6.15129 5.17563 0
M  V30 3910 H 367.535 0.245915 0.629684 0
M  V30 3911 H 370.089 1.3127 1.57979 0
M  V30 3912 H 368.319 0.167476 3.86337 0
M  V30 3913 H 370.008 0.555642 4.02079 0
M  V30 3914 H 370.774 3.02819 3.78848 0
M  V30 3915 H 366.653 1.87692 4.21061 0
M  V30 3916 H 370.197 5.31538 4.51789 0
M  V30 3917 H 366.094 4.15508 4.93987 0
M  V30 3918 H 366.862 6.18862 5.35679 0
M  V30 3919 N 369.525 -1.3858 0.750561 0
M  V30 3920 C 370.936 -1.82927 0.373438 0
M  V30 3921 C 371.287 -1.62634 -1.09748 0
M  V30 3922 O 370.412 -1.12588 -1.84805 0
M  V30 3923 C 371.007 -3.32088 0.671029 0
M  V30 3924 C 369.566 -3.74795 0.34722 0
M  V30 3925 C 368.713 -2.61391 0.92575 0
M  V30 3926 H 371.664 -1.27351 0.946958 0
M  V30 3927 H 371.685 -3.80465 -0.0518269 0
M  V30 3928 H 371.197 -3.46826 1.74164 0
M  V30 3929 H 369.298 -3.65638 -0.716933 0
M  V30 3930 H 369.411 -4.71667 0.840656 0
M  V30 3931 H 367.775 -2.52265 0.351327 0
M  V30 3932 H 368.558 -2.78929 2.00133 0
M  V30 3933 N 371.003 -0.499398 -1.49478 0
M  V30 3934 C 371.935 0.316575 -2.27003 0
M  V30 3935 C 372.948 0.932047 -1.33479 0
M  V30 3936 O 374.137 0.815658 -1.58774 0
M  V30 3937 C 371.237 1.46055 -3.05812 0
M  V30 3938 C 370.41 0.952679 -4.26899 0
M  V30 3939 C 369.469 1.97407 -4.87767 0
M  V30 3940 O 368.495 1.54326 -5.4788 0
M  V30 3941 N 369.697 3.30436 -4.77276 0
M  V30 3942 H 372.462 -0.348168 -2.97671 0
M  V30 3943 H 370.023 -0.33185 -1.58463 0
M  V30 3944 H 372.015 2.14135 -3.43407 0
M  V30 3945 H 370.585 2.02948 -2.37762 0
M  V30 3946 H 369.805 0.0968248 -3.94081 0
M  V30 3947 H 371.093 0.59174 -5.05347 0
M  V30 3948 H 370.491 3.68126 -4.29534 0
M  V30 3949 H 369.048 3.94235 -5.19059 0
M  V30 3950 N 372.481 1.55866 -0.233164 0
M  V30 3951 C 373.391 2.24431 0.683217 0
M  V30 3952 C 374.407 1.2558 1.2044 0
M  V30 3953 O 375.583 1.58422 1.24356 0
M  V30 3954 C 372.648 2.91979 1.86947 0
M  V30 3955 C 371.709 4.06204 1.38912 0
M  V30 3956 C 370.942 4.70522 2.51883 0
M  V30 3957 O 371.165 4.33865 3.70293 0
M  V30 3958 O 370.099 5.59296 2.22423 0
M  V30 3959 H 373.925 3.03426 0.129059 0
M  V30 3960 H 371.51 1.494 -0.0022283 0
M  V30 3961 H 373.392 3.34573 2.56201 0
M  V30 3962 H 372.067 2.15935 2.41151 0
M  V30 3963 H 370.974 3.68155 0.664259 0
M  V30 3964 H 372.307 4.84025 0.893328 0
M  V30 3965 N 373.959 -0.0401083 1.57549 0
M  V30 3966 C 374.889 -1.04384 2.08869 0
M  V30 3967 C 375.87 -1.38407 0.988817 0
M  V30 3968 O 377.055 -1.47483 1.26342 0
M  V30 3969 C 374.185 -2.34808 2.55895 0
M  V30 3970 C 373.139 -2.15057 3.70047 0
M  V30 3971 C 372.465 -3.51145 4.03239 0
M  V30 3972 C 373.765 -1.54576 4.98902 0
M  V30 3973 H 375.459 -0.616666 2.92981 0
M  V30 3974 H 373.005 -0.295184 1.40942 0
M  V30 3975 H 374.958 -3.05346 2.90417 0
M  V30 3976 H 373.682 -2.79565 1.68853 0
M  V30 3977 H 372.341 -1.46954 3.35857 0
M  V30 3978 H 371.989 -3.93529 3.13279 0
M  V30 3979 H 371.689 -3.38758 4.80122 0
M  V30 3980 H 373.213 -4.23062 4.40285 0
M  V30 3981 H 374.627 -2.15017 5.31451 0
M  V30 3982 H 373.024 -1.52796 5.80322 0
M  V30 3983 H 374.094 -0.51039 4.82206 0
M  V30 3984 N 375.437 -1.54477 -0.31217 0
M  V30 3985 C 376.665 -1.77205 -1.068 0
M  V30 3986 C 377.08 -0.526114 -1.81321 0
M  V30 3987 O 376.437 0.503647 -1.75413 0
M  V30 3988 C 376.488 -2.97253 -2.05725 0
M  V30 3989 O 376.209 -4.1703 -1.34228 0
M  V30 3990 C 377.71 -3.32281 -2.93435 0
M  V30 3991 H 374.93 -0.591287 -0.317208 0
M  V30 3992 H 377.474 -2.01398 -0.354834 0
M  V30 3993 H 375.629 -2.753 -2.72559 0
M  V30 3994 H 376.043 -4.84636 -2.00571 0
M  V30 3995 H 377.517 -4.19551 -3.58721 0
M  V30 3996 H 377.994 -2.49945 -3.61143 0
M  V30 3997 H 378.6 -3.56353 -2.32147 0
M  V30 3998 N 376.915 0.57481 -1.46744 0
M  V30 3999 C 378.143 1.35856 -1.56047 0
M  V30 4000 C 378.558 1.87691 -0.204365 0
M  V30 4001 O 377.915 1.64049 0.79963 0
M  V30 4002 C 377.966 2.54066 -2.57163 0
M  V30 4003 O 377.687 2.04377 -3.87507 0
M  V30 4004 C 379.188 3.46514 -2.76483 0
M  V30 4005 H 376.408 0.414754 -0.527466 0
M  V30 4006 H 378.952 0.698035 -1.92218 0
M  V30 4007 H 377.107 3.16092 -2.23974 0
M  V30 4008 H 377.521 2.81419 -4.4261 0
M  V30 4009 H 378.995 4.25919 -3.51137 0
M  V30 4010 H 379.472 3.98951 -1.83671 0
M  V30 4011 H 380.078 2.90318 -3.10799 0
M  V30 4012 N 378.394 1.34581 0.820102 0
M  V30 4013 C 379.324 1.29038 1.94606 0
M  V30 4014 C 380.305 0.1673 1.69275 0
M  V30 4015 O 381.49 0.360112 1.90832 0
M  V30 4016 C 378.62 1.04793 3.31113 0
M  V30 4017 C 377.574 2.13597 3.70891 0
M  V30 4018 C 376.9 1.74537 5.05412 0
M  V30 4019 C 378.2 3.55451 3.8269 0
M  V30 4020 H 379.894 2.23248 1.99501 0
M  V30 4021 H 377.44 1.0747 0.958449 0
M  V30 4022 H 379.393 0.995592 4.0947 0
M  V30 4023 H 378.117 0.0702565 3.26524 0
M  V30 4024 H 376.776 2.17905 2.9481 0
M  V30 4025 H 376.424 0.754226 4.97313 0
M  V30 4026 H 376.124 2.47361 5.32997 0
M  V30 4027 H 377.648 1.70803 5.86224 0
M  V30 4028 H 379.062 3.5354 4.51312 0
M  V30 4029 H 377.459 4.26922 4.21732 0
M  V30 4030 H 378.529 3.92587 2.84611 0
M  V30 4031 N 379.872 -1.04064 1.18357 0
M  V30 4032 C 381.283 -1.58719 0.98312 0
M  V30 4033 C 381.634 -1.90556 -0.467193 0
M  V30 4034 O 380.759 -1.69561 -1.34454 0
M  V30 4035 C 381.354 -2.88379 1.77828 0
M  V30 4036 C 379.913 -3.3965 1.62218 0
M  V30 4037 C 379.06 -2.13235 1.77274 0
M  V30 4038 H 382.011 -0.867359 1.32901 0
M  V30 4039 H 382.032 -3.58773 1.26737 0
M  V30 4040 H 381.544 -2.65176 2.83379 0
M  V30 4041 H 379.645 -3.67866 0.592036 0
M  V30 4042 H 379.758 -4.13475 2.42023 0
M  V30 4043 H 378.122 -2.24542 1.20221 0
M  V30 4044 H 378.905 -1.92487 2.8426 0
M  V30 4045 N 381.35 -0.985608 -1.22978 0
M  V30 4046 C 382.596 -0.65836 -1.91816 0
M  V30 4047 C 382.929 0.806692 -1.76653 0
M  V30 4048 O 382.204 1.58252 -1.13078 0
M  V30 4049 C 382.487 -1.056 -3.44268 0
M  V30 4050 C 382.34 -2.57906 -3.68516 0
M  V30 4051 C 383.659 -0.603781 -4.35939 0
M  V30 4052 H 380.778 -0.24065 -0.696604 0
M  V30 4053 H 383.42 -1.22783 -1.44998 0
M  V30 4054 H 381.57 -0.571445 -3.84274 0
M  V30 4055 H 383.242 -3.13976 -3.3796 0
M  V30 4056 H 381.485 -3.00305 -3.13048 0
M  V30 4057 H 382.156 -2.80779 -4.75255 0
M  V30 4058 H 384.632 -1.01987 -4.03408 0
M  V30 4059 H 383.508 -0.910383 -5.41298 0
M  V30 4060 H 383.769 0.495761 -4.39312 0
M  V30 4061 N 382.828 1.3818 -0.7579 0
M  V30 4062 C 383.758 2.33027 -0.148597 0
M  V30 4063 C 384.739 1.55085 0.69875 0
M  V30 4064 O 385.924 1.83384 0.639053 0
M  V30 4065 C 383.054 3.3928 0.742034 0
M  V30 4066 C 382.008 4.28 -0.00291946 0
M  V30 4067 C 381.334 5.25146 1.00625 0
M  V30 4068 C 382.634 5.08938 -1.17385 0
M  V30 4069 H 384.328 2.84231 -0.940909 0
M  V30 4070 H 381.874 1.36659 -0.453908 0
M  V30 4071 H 383.827 4.046 1.17799 0
M  V30 4072 H 382.551 2.86569 1.56671 0
M  V30 4073 H 381.21 3.64192 -0.419504 0
M  V30 4074 H 380.858 4.68721 1.8251 0
M  V30 4075 H 380.558 5.85361 0.512428 0
M  V30 4076 H 382.082 5.93342 1.44143 0
M  V30 4077 H 383.496 5.67474 -0.815224 0
M  V30 4078 H 381.893 5.7841 -1.59882 0
M  V30 4079 H 382.963 4.42424 -1.98468 0
M  V30 4080 N 384.306 0.507319 1.49211 0
M  V30 4081 C 385.536 -0.0315292 2.06576 0
M  V30 4082 C 385.944 -1.30791 1.36713 0
M  V30 4083 O 385.287 -1.78324 0.441181 0
M  V30 4084 C 385.349 -0.349104 3.57801 0
M  V30 4085 C 385.013 0.830475 4.49391 0
M  V30 4086 C 386.01 1.72271 4.90529 0
M  V30 4087 C 383.695 1.03107 4.91604 0
M  V30 4088 C 385.689 2.79964 5.72625 0
M  V30 4089 C 383.376 2.11116 5.73475 0
M  V30 4090 C 384.374 2.99379 6.1389 0
M  V30 4091 O 384.062 4.05523 6.94123 0
M  V30 4092 H 383.794 0.0201002 0.675701 0
M  V30 4093 H 386.348 0.705737 1.92895 0
M  V30 4094 H 384.578 -1.14005 3.69513 0
M  V30 4095 H 386.267 -0.827319 3.97379 0
M  V30 4096 H 387.033 1.57958 4.58557 0
M  V30 4097 H 382.912 0.353417 4.59643 0
M  V30 4098 H 386.456 3.48884 6.04091 0
M  V30 4099 H 382.353 2.25421 6.0486 0
M  V30 4100 H 383.121 4.02953 7.1244 0
M  V30 4101 N 385.784 -1.5574 0.241426 0
M  V30 4102 C 386.714 -2.24133 -0.654722 0
M  V30 4103 C 387.695 -1.21974 -1.1856 0
M  V30 4104 O 388.88 -1.50612 -1.22595 0
M  V30 4105 C 386.01 -2.93659 -1.85423 0
M  V30 4106 C 384.964 -4.0246 -1.45636 0
M  V30 4107 C 384.29 -4.59383 -2.73626 0
M  V30 4108 C 385.59 -5.18468 -0.631506 0
M  V30 4109 H 387.284 -2.99281 -0.0844353 0
M  V30 4110 H 384.83 -1.43947 -0.0391707 0
M  V30 4111 H 386.783 -3.40203 -2.48676 0
M  V30 4112 H 385.507 -2.15991 -2.44981 0
M  V30 4113 H 384.166 -3.56676 -0.847202 0
M  V30 4114 H 383.814 -3.78422 -3.3137 0
M  V30 4115 H 383.514 -5.32826 -2.4773 0
M  V30 4116 H 385.038 -5.08658 -3.37786 0
M  V30 4117 H 386.452 -5.61272 -1.1682 0
M  V30 4118 H 384.849 -5.98266 -0.468831 0
M  V30 4119 H 385.919 -4.8358 0.357506 0
M  V30 4120 N 387.262 0.0317525 -1.57568 0
M  V30 4121 C 388.502 0.727979 -1.90997 0
M  V30 4122 C 388.866 1.72664 -0.839708 0
M  V30 4123 O 390.067 2.47092 -1.05825 0
M  V30 4124 C 388.338 1.38239 -3.29583 0
M  V30 4125 S 389.897 2.10814 -3.84841 0
M  V30 4126 H 386.715 0.241226 -0.668828 0
M  V30 4127 H 389.317 -0.0173037 -1.95492 0
M  V30 4128 H 388.021 0.642288 -4.05343 0
M  V30 4129 H 387.552 2.16628 -3.28384 0
M  V30 4130 H 389.567 3.3792 -3.63352 0
M  V30 4131 N 388.74 1.54641 0.303973 0
M  V30 4132 C 389.65 1.88439 1.39743 0
M  V30 4133 C 390.666 0.778239 1.55626 0
M  V30 4134 O 391.842 1.07442 1.70347 0
M  V30 4135 C 388.907 2.12212 2.74166 0
M  V30 4136 C 387.968 3.35936 2.67293 0
M  V30 4137 C 387.201 3.58566 3.95305 0
M  V30 4138 O 387.424 2.84263 4.9452 0
M  V30 4139 O 386.358 4.52078 3.97378 0
M  V30 4140 H 390.184 2.81458 1.14083 0
M  V30 4141 H 387.769 1.40793 0.499768 0
M  V30 4142 H 389.651 2.29067 3.53704 0
M  V30 4143 H 388.326 1.22379 2.99675 0
M  V30 4144 H 387.233 3.24448 1.86237 0
M  V30 4145 H 388.566 4.2589 2.46736 0
M  V30 4146 N 390.218 -0.567019 1.47046 0
M  V30 4147 C 391.465 -1.32462 1.53167 0
M  V30 4148 C 391.793 -1.93571 0.189841 0
M  V30 4149 O 391.048 -1.77865 -0.816243 0
M  V30 4150 C 391.347 -2.4623 2.59047 0
M  V30 4151 C 391.013 -2.03014 4.02612 0
M  V30 4152 C 389.675 -1.90944 4.41694 0
M  V30 4153 C 392.027 -1.69895 4.92732 0
M  V30 4154 C 389.355 -1.44035 5.68745 0
M  V30 4155 C 391.707 -1.2446 6.20236 0
M  V30 4156 C 390.371 -1.10979 6.5821 0
M  V30 4157 H 389.641 -0.484713 0.560477 0
M  V30 4158 H 392.288 -0.636888 1.80599 0
M  V30 4159 H 390.593 -3.20517 2.25335 0
M  V30 4160 H 392.29 -3.04427 2.61008 0
M  V30 4161 H 388.88 -2.13348 3.71726 0
M  V30 4162 H 393.064 -1.78098 4.63244 0
M  V30 4163 H 388.32 -1.32254 5.96925 0
M  V30 4164 H 392.494 -0.978924 6.89485 0
M  V30 4165 H 390.121 -0.744078 7.5655 0
M  V30 4166 N 391.696 -1.35014 -0.812953 0
M  V30 4167 C 392.936 -1.29289 -1.58315 0
M  V30 4168 C 393.3 0.132727 -1.91541 0
M  V30 4169 O 394.501 0.314269 -2.66957 0
M  V30 4170 C 392.772 -2.1681 -2.84127 0
M  V30 4171 S 394.331 -2.28538 -3.74588 0
M  V30 4172 H 391.149 -0.459569 -0.542511 0
M  V30 4173 H 393.751 -1.70336 -0.959467 0
M  V30 4174 H 392.455 -3.19379 -2.57731 0
M  V30 4175 H 391.986 -1.76697 -3.51485 0
M  V30 4176 H 394.001 -1.4655 -4.74065 0
M  V30 4177 N 393.175 1.03435 -1.18907 0
M  V30 4178 C 394.105 2.13503 -0.945448 0
M  V30 4179 C 395.086 1.69682 0.119189 0
M  V30 4180 O 396.271 1.94169 -0.034707 0
M  V30 4181 C 393.401 3.44004 -0.477316 0
M  V30 4182 C 392.355 4.0148 -1.48316 0
M  V30 4183 C 391.681 5.27537 -0.872311 0
M  V30 4184 C 392.981 4.36921 -2.86177 0
M  V30 4185 H 394.675 2.34141 -1.86597 0
M  V30 4186 H 392.221 1.12523 -0.898584 0
M  V30 4187 H 394.174 4.20372 -0.294204 0
M  V30 4188 H 392.898 3.23072 0.478786 0
M  V30 4189 H 391.557 3.27201 -1.65332 0
M  V30 4190 H 391.205 5.02917 0.0911752 0
M  V30 4191 H 390.905 5.66954 -1.54393 0
M  V30 4192 H 392.429 6.06576 -0.699871 0
M  V30 4193 H 393.843 5.04248 -2.72776 0
M  V30 4194 H 392.24 4.87405 -3.50081 0
M  V30 4195 H 393.31 3.46466 -3.39248 0
M  V30 4196 N 394.653 0.992116 1.22453 0
M  V30 4197 C 395.6 0.541731 2.24352 0
M  V30 4198 C 396.57 -0.425519 1.60557 0
M  V30 4199 O 397.755 -0.330453 1.87917 0
M  V30 4200 C 394.895 -0.138248 3.44823 0
M  V30 4201 C 394.008 0.870649 4.23136 0
M  V30 4202 C 393.143 0.164269 5.30946 0
M  V30 4203 C 392.182 1.16159 6.00977 0
M  V30 4204 N 391.319 0.483568 7.00433 0
M  V30 4205 H 396.159 1.41541 2.62241 0
M  V30 4206 H 393.696 0.709013 1.28885 0
M  V30 4207 H 395.654 -0.5494 4.13567 0
M  V30 4208 H 394.284 -0.975721 3.077 0
M  V30 4209 H 393.336 1.40013 3.53696 0
M  V30 4210 H 394.648 1.63014 4.7141 0
M  V30 4211 H 393.802 -0.303653 6.0594 0
M  V30 4212 H 392.541 -0.627733 4.83643 0
M  V30 4213 H 391.546 1.64015 5.24766 0
M  V30 4214 H 392.771 1.95445 6.50368 0
M  V30 4215 H 390.717 -0.289012 6.55363 0
M  V30 4216 H 390.634 1.18152 7.4671 0
M  V30 4217 H 391.902 0.0384219 7.79491 0
M  V30 4218 N 396.131 -1.37776 0.765217 0
M  V30 4219 C 397.361 -2.03828 0.337277 0
M  V30 4220 C 397.769 -1.57841 -1.04321 0
M  V30 4221 O 397.112 -0.752043 -1.67601 0
M  V30 4222 C 397.174 -3.58292 0.294407 0
M  V30 4223 C 396.838 -4.27384 1.61838 0
M  V30 4224 C 397.835 -4.51956 2.56967 0
M  V30 4225 C 395.52 -4.65345 1.89102 0
M  V30 4226 C 397.514 -5.13536 3.77571 0
M  V30 4227 C 395.201 -5.26647 3.09978 0
M  V30 4228 C 396.199 -5.50679 4.04032 0
M  V30 4229 O 395.887 -6.10702 5.2278 0
M  V30 4230 H 395.619 -0.661292 0.140248 0
M  V30 4231 H 398.173 -1.77222 1.03834 0
M  V30 4232 H 396.403 -3.83918 -0.462983 0
M  V30 4233 H 398.092 -4.05763 -0.105581 0
M  V30 4234 H 398.858 -4.23048 2.37183 0
M  V30 4235 H 394.737 -4.45978 1.16725 0
M  V30 4236 H 398.281 -5.3221 4.50997 0
M  V30 4237 H 394.178 -5.54979 3.29649 0
M  V30 4238 H 394.946 -6.29183 5.23517 0
M  V30 4239 N 397.609 -0.515225 -1.4894 0
M  V30 4240 C 398.857 0.0241671 -2.02086 0
M  V30 4241 C 399.178 1.3616 -1.3959 0
M  V30 4242 O 398.448 1.87841 -0.556121 0
M  V30 4243 H 397.028 0.0119203 -0.746905 0
M  V30 4244 H 399.69 -0.675702 -1.82812 0
M  V30 4245 H 398.786 0.143385 -3.1177 0
M  V30 4246 N 399.087 1.5561 -0.249682 0
M  V30 4247 C 400.503 1.59254 0.105103 0
M  V30 4248 C 400.703 1.26685 1.56694 0
M  V30 4249 O 399.759 1.0155 2.31179 0
M  V30 4250 C 401.072 2.99687 -0.246592 0
M  V30 4251 C 402.62 3.12416 -0.191118 0
M  V30 4252 C 403.095 4.55074 -0.516885 0
M  V30 4253 N 404.586 4.60835 -0.467489 0
M  V30 4254 C 405.321 5.69201 -0.69268 0
M  V30 4255 N 404.817 6.85817 -0.981146 0
M  V30 4256 N 406.61 5.58635 -0.623198 0
M  V30 4257 H 398.761 1.75049 -1.20298 0
M  V30 4258 H 401.024 0.815003 -0.484225 0
M  V30 4259 H 400.73 3.28267 -1.26228 0
M  V30 4260 H 400.604 3.74798 0.424962 0
M  V30 4261 H 402.991 2.83615 0.815247 0
M  V30 4262 H 403.072 2.39573 -0.896563 0
M  V30 4263 H 402.716 4.84596 -1.52082 0
M  V30 4264 H 402.646 5.26181 0.210068 0
M  V30 4265 H 405.137 3.7705 -0.253373 0
M  V30 4266 H 405.45 7.64341 -1.14032 0
M  V30 4267 H 403.795 6.87494 -1.01865 0
M  V30 4268 H 406.986 4.66406 -0.397863 0
M  V30 4269 H 407.159 6.43017 -0.802093 0
M  V30 4270 N 400.565 -0.0233959 1.57583 0
M  V30 4271 C 401.79 -0.728376 1.94189 0
M  V30 4272 C 402.215 -1.67793 0.850119 0
M  V30 4273 O 401.573 -1.80262 -0.19371 0
M  V30 4274 C 401.621 -1.45669 3.29868 0
M  V30 4275 O 400.725 -2.57013 3.22518 0
M  V30 4276 H 400.066 -0.195493 0.63457 0
M  V30 4277 H 402.596 0.0228214 2.04587 0
M  V30 4278 H 402.606 -1.82535 3.6489 0
M  V30 4279 H 401.281 -0.760314 4.08891 0
M  V30 4280 H 399.858 -2.22648 2.99136 0
M  V30 4281 N 402.043 -1.548 -0.295768 0
M  V30 4282 C 402.973 -1.89115 -1.36959 0
M  V30 4283 C 403.954 -0.75059 -1.52644 0
M  V30 4284 O 405.139 -1.00678 -1.66065 0
M  V30 4285 C 402.269 -2.14307 -2.73295 0
M  V30 4286 C 401.223 -3.30151 -2.72368 0
M  V30 4287 C 400.549 -3.40772 -4.12042 0
M  V30 4288 C 401.849 -4.67126 -2.33646 0
M  V30 4289 H 403.543 -2.79053 -1.08488 0
M  V30 4290 H 401.089 -1.34266 -0.520443 0
M  V30 4291 H 403.042 -2.36898 -3.48507 0
M  V30 4292 H 401.766 -1.21145 -3.03301 0
M  V30 4293 H 400.425 -3.0749 -1.99613 0
M  V30 4294 H 400.073 -2.45117 -4.39234 0
M  V30 4295 H 399.773 -4.18645 -4.12322 0
M  V30 4296 H 401.297 -3.6563 -4.89027 0
M  V30 4297 H 402.711 -4.89414 -2.98575 0
M  V30 4298 H 401.108 -5.47751 -2.45129 0
M  V30 4299 H 402.178 -4.67489 -1.28772 0
M  V30 4300 N 403.521 0.559213 -1.47345 0
M  V30 4301 C 404.468 1.66645 -1.59682 0
M  V30 4302 C 405.438 1.60168 -0.43994 0
M  V30 4303 O 406.623 1.79031 -0.659736 0
M  V30 4304 C 403.763 3.04969 -1.61518 0
M  V30 4305 C 402.876 3.21897 -2.88108 0
M  V30 4306 C 402.011 4.50608 -2.81294 0
M  V30 4307 C 401.05 4.60961 -4.02717 0
M  V30 4308 N 400.187 5.81024 -3.94151 0
M  V30 4309 H 405.027 1.55439 -2.54249 0
M  V30 4310 H 402.564 0.757219 -1.26113 0
M  V30 4311 H 404.522 3.85064 -1.60566 0
M  V30 4312 H 403.152 3.15015 -0.704645 0
M  V30 4313 H 402.204 2.35248 -2.98936 0
M  V30 4314 H 403.516 3.25412 -3.78032 0
M  V30 4315 H 402.67 5.3896 -2.7858 0
M  V30 4316 H 401.409 4.49568 -1.89049 0
M  V30 4317 H 400.414 3.71021 -4.05738 0
M  V30 4318 H 401.639 4.63761 -4.96087 0
M  V30 4319 H 399.585 5.80938 -3.04708 0
M  V30 4320 H 399.502 5.85909 -4.77752 0
M  V30 4321 H 400.77 6.71744 -3.9545 0
M  V30 4322 N 404.999 1.35443 0.805782 0
M  V30 4323 C 406.239 1.30127 1.57627 0
M  V30 4324 C 406.603 -0.122567 1.91608 0
M  V30 4325 O 407.804 -0.300107 2.67119 0
M  V30 4326 C 406.075 2.18314 2.82973 0
M  V30 4327 S 407.634 2.30521 3.7337 0
M  V30 4328 H 404.452 0.462439 0.540066 0
M  V30 4329 H 407.054 1.70843 0.95042 0
M  V30 4330 H 405.758 3.20741 2.56034 0
M  V30 4331 H 405.289 1.78558 3.50543 0
M  V30 4332 H 407.304 1.49062 4.73281 0
M  V30 4333 N 406.477 -1.02803 1.19454 0
M  V30 4334 C 407.407 -2.12999 0.956758 0
M  V30 4335 C 408.388 -1.69743 -0.110188 0
M  V30 4336 O 409.573 -1.94148 0.0450038 0
M  V30 4337 C 406.703 -3.43746 0.495553 0
M  V30 4338 C 405.657 -4.00688 1.50443 0
M  V30 4339 C 404.983 -5.27067 0.900275 0
M  V30 4340 C 406.283 -4.35397 2.8849 0
M  V30 4341 H 407.977 -2.33148 1.87836 0
M  V30 4342 H 405.523 -1.12045 0.904539 0
M  V30 4343 H 407.476 -4.2021 0.316493 0
M  V30 4344 H 406.2 -3.23321 -0.461646 0
M  V30 4345 H 404.859 -3.2632 1.67065 0
M  V30 4346 H 404.507 -5.02959 -0.064503 0
M  V30 4347 H 404.207 -5.66127 1.57397 0
M  V30 4348 H 405.731 -6.06196 0.73203 0
M  V30 4349 H 407.145 -5.02795 2.75446 0
M  V30 4350 H 405.542 -4.85541 3.52661 0
M  V30 4351 H 406.612 -3.44662 3.41081 0
M  V30 4352 N 407.956 -0.998596 -1.21925 0
M  V30 4353 C 408.888 -0.511879 -2.23411 0
M  V30 4354 C 409.901 0.396094 -1.57908 0
M  V30 4355 O 411.09 0.197316 -1.77406 0
M  V30 4356 C 408.19 0.276802 -3.37768 0
M  V30 4357 C 407.363 -0.628687 -4.32858 0
M  V30 4358 C 406.422 0.109272 -5.26087 0
M  V30 4359 O 405.448 -0.507237 -5.66935 0
M  V30 4360 N 406.65 1.38983 -5.63617 0
M  V30 4361 H 409.415 -1.38457 -2.658 0
M  V30 4362 H 406.976 -0.873981 -1.36283 0
M  V30 4363 H 408.968 0.77928 -3.97126 0
M  V30 4364 H 407.538 1.05063 -2.94415 0
M  V30 4365 H 406.758 -1.31175 -3.71735 0
M  V30 4366 H 408.046 -1.24514 -4.93329 0
M  V30 4367 H 407.444 1.91194 -5.32411 0
M  V30 4368 H 406.001 1.83739 -6.25367 0
M  V30 4369 N 409.434 1.37368 -0.772513 0
M  V30 4370 C 410.85 1.53059 -0.452231 0
M  V30 4371 C 411.05 1.73065 1.03203 0
M  V30 4372 O 410.106 1.75245 1.81784 0
M  V30 4373 C 411.419 2.72659 -1.26797 0
M  V30 4374 C 412.967 2.86521 -1.25995 0
M  V30 4375 C 413.442 4.09105 -2.05905 0
M  V30 4376 N 414.933 4.16219 -2.03263 0
M  V30 4377 C 415.668 5.10107 -2.61875 0
M  V30 4378 N 415.164 6.09547 -3.29278 0
M  V30 4379 N 416.957 5.02596 -2.51701 0
M  V30 4380 H 409.108 1.22634 -1.7342 0
M  V30 4381 H 411.371 0.597206 -0.736239 0
M  V30 4382 H 411.077 2.64343 -2.31982 0
M  V30 4383 H 410.951 3.66363 -0.897672 0
M  V30 4384 H 413.338 2.94308 -0.216081 0
M  V30 4385 H 413.419 1.93774 -1.66989 0
M  V30 4386 H 413.063 4.0208 -3.10313 0
M  V30 4387 H 412.993 5.00968 -1.62292 0
M  V30 4388 H 415.484 3.45012 -1.54192 0
M  V30 4389 H 415.797 6.77718 -3.71374 0
M  V30 4390 H 414.142 6.09824 -3.33377 0
M  V30 4391 H 417.333 4.23855 -1.98657 0
M  V30 4392 H 417.506 5.75582 -2.97673 0
M  V30 4393 N 410.912 0.523116 1.48665 0
M  V30 4394 C 411.862 -0.263106 2.26477 0
M  V30 4395 C 412.846 -0.916005 1.32281 0
M  V30 4396 O 414.038 -0.819946 1.56863 0
M  V30 4397 C 411.167 -1.31361 3.17174 0
M  V30 4398 C 410.253 -0.665849 4.1884 0
M  V30 4399 N 410.644 0.244434 5.05209 0
M  V30 4400 C 408.942 -0.923863 4.36326 0
M  V30 4401 C 409.643 0.617443 5.78414 0
M  V30 4402 N 408.619 -0.0198686 5.43596 0
M  V30 4403 H 412.421 0.437295 2.90629 0
M  V30 4404 H 409.935 0.340675 1.58787 0
M  V30 4405 H 411.932 -1.89052 3.71571 0
M  V30 4406 H 410.592 -2.01546 2.54576 0
M  V30 4407 H 411.603 0.616621 5.14216 0
M  V30 4408 H 408.28 -1.6168 3.84923 0
M  V30 4409 H 409.67 1.36346 6.57921 0
M  V30 4410 N 412.39 -1.55475 0.257931 0
M  V30 4411 C 413.32 -2.24815 -0.630912 0
M  V30 4412 C 414.301 -1.23224 -1.17259 0
M  V30 4413 O 415.486 -1.51904 -1.20991 0
M  V30 4414 C 412.616 -2.95609 -1.82298 0
M  V30 4415 C 411.57 -4.03982 -1.41359 0
M  V30 4416 C 410.896 -4.6226 -2.68738 0
M  V30 4417 C 412.196 -5.19109 -0.57648 0
M  V30 4418 H 413.89 -2.99354 -0.0526878 0
M  V30 4419 H 411.436 -1.4398 -0.023901 0
M  V30 4420 H 413.389 -3.42822 -2.45054 0
M  V30 4421 H 412.113 -2.18577 -2.42676 0
M  V30 4422 H 410.772 -3.57555 -0.809324 0
M  V30 4423 H 410.42 -3.81915 -3.27338 0
M  V30 4424 H 410.12 -5.35424 -2.42065 0
M  V30 4425 H 411.644 -5.12212 -3.32372 0
M  V30 4426 H 413.058 -5.62479 -1.10861 0
M  V30 4427 H 411.455 -5.98729 -0.405351 0
M  V30 4428 H 412.525 -4.83174 0.408776 0
M  V30 4429 N 413.868 0.0150385 -1.57593 0
M  V30 4430 C 415.096 0.714395 -1.94175 0
M  V30 4431 C 415.511 1.68135 -0.858841 0
M  V30 4432 O 414.868 1.81766 0.163567 0
M  V30 4433 C 414.919 1.45933 -3.30735 0
M  V30 4434 O 414.64 0.531167 -4.34868 0
M  V30 4435 C 416.141 2.25456 -3.81686 0
M  V30 4436 H 413.361 0.199923 -0.640525 0
M  V30 4437 H 415.905 -0.0316096 -2.04476 0
M  V30 4438 H 414.06 2.15709 -3.21789 0
M  V30 4439 H 414.474 1.05509 -5.13778 0
M  V30 4440 H 415.948 2.731 -4.79709 0
M  V30 4441 H 416.425 3.07485 -3.13607 0
M  V30 4442 H 417.031 1.60727 -3.9376 0
M  V30 4443 N 415.346 1.54954 0.287554 0
M  V30 4444 C 416.293 1.86834 1.35505 0
M  V30 4445 C 417.263 0.718452 1.49758 0
M  V30 4446 O 418.448 0.968358 1.644 0
M  V30 4447 C 415.588 2.13303 2.71286 0
M  V30 4448 C 414.701 3.40883 2.65373 0
M  V30 4449 C 413.836 3.57125 3.93236 0
M  V30 4450 C 412.875 4.78449 3.81776 0
M  V30 4451 N 412.012 4.91426 5.01443 0
M  V30 4452 H 416.852 2.77889 1.07619 0
M  V30 4453 H 414.389 1.37593 0.520241 0
M  V30 4454 H 416.347 2.26646 3.50267 0
M  V30 4455 H 414.977 1.25499 2.97405 0
M  V30 4456 H 414.029 3.36088 1.78182 0
M  V30 4457 H 415.341 4.29993 2.52799 0
M  V30 4458 H 414.495 3.70207 4.80658 0
M  V30 4459 H 413.234 2.66173 4.0866 0
M  V30 4460 H 412.239 4.65386 2.92738 0
M  V30 4461 H 413.464 5.70822 3.67884 0
M  V30 4462 H 411.41 4.03401 5.17304 0
M  V30 4463 H 411.327 5.74559 4.91343 0
M  V30 4464 H 412.595 5.08879 5.90477 0
M  V30 4465 N 416.824 -0.551391 1.4764 0
M  V30 4466 C 418.064 -1.31901 1.56145 0
M  V30 4467 C 418.428 -1.90724 0.221013 0
M  V30 4468 O 419.629 -2.6819 0.180945 0
M  V30 4469 C 417.9 -2.39517 2.65267 0
M  V30 4470 S 419.459 -3.26289 2.93395 0
M  V30 4471 H 416.277 -0.448965 0.551318 0
M  V30 4472 H 418.879 -0.630599 1.85051 0
M  V30 4473 H 417.583 -1.94747 3.6125 0
M  V30 4474 H 417.114 -3.13092 2.38195 0
M  V30 4475 H 419.129 -4.39122 2.31055 0
M  V30 4476 N 418.302 -1.35869 -0.798587 0
M  V30 4477 C 419.579 -1.20145 -1.54352 0
M  V30 4478 C 419.959 0.216161 -2.0999 0
M  V30 4479 O 419.307 1.22068 -1.93162 0
M  V30 4480 C 419.517 -2.27602 -2.64572 0
M  V30 4481 C 420.865 -2.63811 -3.32699 0
M  V30 4482 O 421.889 -2.26576 -2.74849 0
M  V30 4483 O 420.748 -3.27866 -4.37226 0
M  V30 4484 H 417.842 -0.467248 -0.682355 0
M  V30 4485 H 420.388 -1.47574 -0.837859 0
M  V30 4486 H 419.16 -3.2265 -2.21388 0
M  V30 4487 H 418.783 -2.01488 -3.42766 0
M  V30 4488 N 419.78 1.02168 -1.19998 0
M  V30 4489 C 420.71 2.12488 -0.96804 0
M  V30 4490 C 421.691 1.69799 0.101185 0
M  V30 4491 O 422.876 1.94121 -0.0552993 0
M  V30 4492 C 420.006 3.43479 -0.513776 0
M  V30 4493 C 418.96 3.99884 -1.52566 0
M  V30 4494 C 418.286 5.26582 -0.928214 0
M  V30 4495 C 419.586 4.33861 -2.90795 0
M  V30 4496 H 421.28 2.32149 -1.89069 0
M  V30 4497 H 418.826 1.11564 -0.910468 0
M  V30 4498 H 420.779 4.20036 -0.338774 0
M  V30 4499 H 419.503 3.23561 0.444493 0
M  V30 4500 H 418.162 3.25429 -1.68794 0
M  V30 4501 H 417.81 5.02986 0.0378289 0
M  V30 4502 H 417.51 5.65284 -1.60397 0
M  V30 4503 H 419.034 6.05799 -0.764167 0
M  V30 4504 H 420.448 5.01327 -2.78109 0
M  V30 4505 H 418.845 4.83664 -3.55231 0
M  V30 4506 H 419.915 3.42848 -3.42904 0
M  V30 4507 N 421.258 1.00505 1.21394 0
M  V30 4508 C 422.674 0.717873 1.42544 0
M  V30 4509 C 422.874 -0.706936 1.88692 0
M  V30 4510 O 421.93 -1.47627 2.04847 0
M  V30 4511 C 423.243 1.73377 2.45684 0
M  V30 4512 C 424.791 1.75059 2.59467 0
M  V30 4513 C 425.266 2.75545 3.6584 0
M  V30 4514 N 426.757 2.74213 3.73311 0
M  V30 4515 C 427.492 3.48626 4.55245 0
M  V30 4516 N 426.988 4.32678 5.41075 0
M  V30 4517 N 428.781 3.37276 4.49668 0
M  V30 4518 H 420.932 1.92506 0.897503 0
M  V30 4519 H 423.195 0.830919 0.456375 0
M  V30 4520 H 422.901 2.75395 2.18748 0
M  V30 4521 H 422.775 1.53647 3.44489 0
M  V30 4522 H 425.162 0.737337 2.8574 0
M  V30 4523 H 425.243 1.98861 1.60897 0
M  V30 4524 H 424.887 3.77028 3.40313 0
M  V30 4525 H 424.817 2.49009 4.64007 0
M  V30 4526 H 427.308 2.13234 3.11993 0
M  V30 4527 H 427.621 4.86253 6.00648 0
M  V30 4528 H 425.966 4.3676 5.40616 0
M  V30 4529 H 429.157 2.71043 3.81646 0
M  V30 4530 H 429.33 3.95524 5.13288 0
M  V30 4531 N 422.737 -1.36956 0.779787 0
M  V30 4532 C 423.687 -2.27539 0.144892 0
M  V30 4533 C 424.671 -1.46493 -0.665488 0
M  V30 4534 O 425.863 -1.68968 -0.527141 0
M  V30 4535 C 422.992 -3.35512 -0.727082 0
M  V30 4536 C 422.078 -4.24001 0.0915642 0
M  V30 4537 N 422.469 -4.92757 1.14125 0
M  V30 4538 C 420.767 -4.45807 -0.131141 0
M  V30 4539 C 421.468 -5.58138 1.6388 0
M  V30 4540 N 420.444 -5.35241 0.94962 0
M  V30 4541 H 424.246 -2.78176 0.948446 0
M  V30 4542 H 421.76 -1.50169 0.618315 0
M  V30 4543 H 423.757 -3.99324 -1.19776 0
M  V30 4544 H 422.417 -2.86431 -1.52929 0
M  V30 4545 H 423.428 -4.94984 1.52353 0
M  V30 4546 H 420.105 -4.07582 -0.904621 0
M  V30 4547 H 421.495 -6.23071 2.51461 0
M  V30 4548 N 424.215 -0.530993 -1.48385 0
M  V30 4549 C 425.626 -0.0907905 -1.86479 0
M  V30 4550 C 425.977 1.33213 -1.44044 0
M  V30 4551 O 425.102 1.99783 -0.831615 0
M  V30 4552 C 425.697 -0.157987 -3.38431 0
M  V30 4553 C 424.256 0.227026 -3.75715 0
M  V30 4554 C 423.403 -0.5173 -2.72432 0
M  V30 4555 H 426.354 -0.742186 -1.40276 0
M  V30 4556 H 426.375 0.630053 -3.75247 0
M  V30 4557 H 425.887 -1.19372 -3.69286 0
M  V30 4558 H 423.988 1.26486 -3.50474 0
M  V30 4559 H 424.101 -0.113288 -4.78966 0
M  V30 4560 H 422.465 0.0365527 -2.54674 0
M  V30 4561 H 423.248 -1.55368 -3.0613 0
M  V30 4562 N 425.693 1.55336 -0.266172 0
M  V30 4563 C 427.104 1.85236 0.233315 0
M  V30 4564 C 427.455 1.18816 1.56132 0
M  V30 4565 O 426.58 0.473307 2.11161 0
M  V30 4566 C 427.175 3.36059 0.430113 0
M  V30 4567 C 425.734 3.66116 0.873842 0
M  V30 4568 C 424.881 2.77274 -0.0380016 0
M  V30 4569 H 427.832 1.51004 -0.488214 0
M  V30 4570 H 427.853 3.58681 1.26998 0
M  V30 4571 H 427.365 3.84373 -0.536588 0
M  V30 4572 H 425.466 3.23295 1.85233 0
M  V30 4573 H 425.579 4.73699 0.717358 0
M  V30 4574 H 423.943 2.50198 0.476759 0
M  V30 4575 H 424.726 3.284 -1.00042 0
M  V30 4576 N 427.171 -0.0066808 1.57599 0
M  V30 4577 C 428.419 -0.691552 1.899 0
M  V30 4578 C 428.74 -1.74682 0.866672 0
M  V30 4579 O 428.01 -1.95661 -0.0968189 0
M  V30 4580 H 426.59 -0.258416 0.700878 0
M  V30 4581 H 429.252 0.0326655 1.94873 0
M  V30 4582 H 428.348 -1.16702 2.8946 0
M  V30 4583 N 428.649 -1.55105 -0.279332 0
M  V30 4584 C 429.597 -1.88333 -1.36505 0
M  V30 4585 C 430.591 -0.759043 -1.51443 0
M  V30 4586 O 431.797 -0.943312 -1.53302 0
M  V30 4587 H 428.172 -0.59766 -0.456406 0
M  V30 4588 H 430.143 -2.79041 -1.05728 0
M  V30 4589 C 428.892 -2.16628 -2.7197 0
M  V30 4590 H 428.215 -3.02624 -2.61264 0
M  V30 4591 H 429.655 -2.43803 -3.46895 0
M  V30 4592 C 428.114 -0.971807 -3.22579 0
M  V30 4593 O 428.644 -0.203228 -4.01186 0
M  V30 4594 N 426.85 -0.771238 -2.80179 0
M  V30 4595 H 426.397 -1.39792 -2.1637 0
M  V30 4596 H 426.355 0.0263667 -3.14389 0
M  V30 4597 N 430.127 0.543554 -1.4793 0
M  V30 4598 C 431.037 1.67657 -1.64098 0
M  V30 4599 C 432.053 1.65934 -0.523622 0
M  V30 4600 O 433.229 1.85133 -0.792943 0
M  V30 4601 C 430.294 3.04146 -1.66421 0
M  V30 4602 C 429.355 3.16831 -2.89684 0
M  V30 4603 C 428.588 4.46809 -2.91886 0
M  V30 4604 O 428.811 5.33095 -2.02895 0
M  V30 4605 O 427.745 4.63573 -3.83906 0
M  V30 4606 H 431.571 1.56957 -2.59997 0
M  V30 4607 H 429.156 0.715116 -1.31173 0
M  V30 4608 H 431.038 3.85346 -1.70548 0
M  V30 4609 H 429.713 3.152 -0.736923 0
M  V30 4610 H 428.62 2.34977 -2.91095 0
M  V30 4611 H 429.953 3.10687 -3.81752 0
M  V30 4612 N 431.605 1.3629 0.791371 0
M  V30 4613 C 432.854 1.29742 1.54434 0
M  V30 4614 C 433.167 -0.121729 1.95221 0
M  V30 4615 O 434.373 -0.309579 2.69729 0
M  V30 4616 C 432.829 2.27623 2.78776 0
M  V30 4617 C 432.437 3.74963 2.45166 0
M  V30 4618 C 434.181 2.30047 3.56761 0
M  V30 4619 C 432.088 4.64626 3.65891 0
M  V30 4620 H 431.018 0.482113 0.579727 0
M  V30 4621 H 433.669 1.61642 0.868565 0
M  V30 4622 H 432.051 1.88714 3.48142 0
M  V30 4623 H 433.225 4.22596 1.83709 0
M  V30 4624 H 431.54 3.75295 1.80396 0
M  V30 4625 H 434.137 2.94247 4.46456 0
M  V30 4626 H 434.48 1.30846 3.95203 0
M  V30 4627 H 435.013 2.67563 2.94372 0
M  V30 4628 H 431.752 5.64883 3.32547 0
M  V30 4629 H 431.272 4.2171 4.26521 0
M  V30 4630 H 432.951 4.80801 4.32943 0
M  V30 4631 N 433.083 -1.0153 1.20538 0
M  V30 4632 C 434.313 -1.78487 1.04048 0
M  V30 4633 C 434.721 -1.84631 -0.413292 0
M  V30 4634 O 434.064 -1.29919 -1.29872 0
M  V30 4635 C 434.126 -3.24367 1.55003 0
M  V30 4636 C 433.79 -3.41827 3.0332 0
M  V30 4637 C 434.787 -3.30941 4.00966 0
M  V30 4638 C 432.472 -3.67602 3.42307 0
M  V30 4639 C 434.466 -3.45577 5.35589 0
M  V30 4640 C 432.153 -3.81881 4.77085 0
M  V30 4641 C 433.151 -3.70874 5.73534 0
M  V30 4642 O 432.839 -3.84714 7.05868 0
M  V30 4643 H 432.571 -0.568108 0.366373 0
M  V30 4644 H 435.125 -1.28677 1.60098 0
M  V30 4645 H 433.355 -3.75266 0.933397 0
M  V30 4646 H 435.044 -3.82963 1.34514 0
M  V30 4647 H 435.81 -3.10964 3.72191 0
M  V30 4648 H 431.689 -3.75256 2.67776 0
M  V30 4649 H 435.233 -3.36902 6.10854 0
M  V30 4650 H 431.13 -4.01359 5.0555 0
M  V30 4651 H 431.898 -4.01724 7.13134 0
M  V30 4652 N 434.561 -1.01147 -1.20859 0
M  V30 4653 C 435.977 -0.725422 -1.42161 0
M  V30 4654 C 436.177 0.696919 -1.89064 0
M  V30 4655 O 435.233 1.46539 -2.05627 0
M  V30 4656 C 436.546 -1.74678 -2.44761 0
M  V30 4657 C 438.094 -1.76433 -2.58535 0
M  V30 4658 C 438.569 -2.77481 -3.64374 0
M  V30 4659 N 440.06 -2.76189 -3.71852 0
M  V30 4660 C 440.795 -3.51035 -4.53389 0
M  V30 4661 N 440.291 -4.35541 -5.38773 0
M  V30 4662 N 442.084 -3.39655 -4.47873 0
M  V30 4663 H 434.235 -1.92979 -0.887282 0
M  V30 4664 H 436.498 -0.833327 -0.451962 0
M  V30 4665 H 436.204 -2.76551 -2.17285 0
M  V30 4666 H 436.078 -1.55472 -3.43669 0
M  V30 4667 H 438.465 -0.75248 -2.85345 0
M  V30 4668 H 438.546 -1.99712 -1.5984 0
M  V30 4669 H 438.19 -3.78827 -3.38308 0
M  V30 4670 H 438.12 -2.51466 -4.6268 0
M  V30 4671 H 440.611 -2.14885 -3.10858 0
M  V30 4672 H 440.924 -4.89432 -5.98061 0
M  V30 4673 H 439.269 -4.39621 -5.38292 0
M  V30 4674 H 442.46 -2.73063 -3.80203 0
M  V30 4675 H 442.633 -3.9824 -5.11184 0
M  V30 4676 N 436.039 1.36541 -0.78704 0
M  V30 4677 C 436.986 2.30082 -0.181901 0
M  V30 4678 C 437.956 1.5186 0.672896 0
M  V30 4679 O 439.141 1.80374 0.622072 0
M  V30 4680 C 436.281 3.3835 0.679197 0
M  V30 4681 C 435.394 4.31565 -0.193882 0
M  V30 4682 C 434.529 5.26915 0.673364 0
M  V30 4683 C 433.568 6.11769 -0.201315 0
M  V30 4684 N 432.705 6.99315 0.624777 0
M  V30 4685 H 437.545 2.81248 -0.985064 0
M  V30 4686 H 435.082 1.38437 -0.497342 0
M  V30 4687 H 437.04 3.99767 1.19341 0
M  V30 4688 H 435.67 2.8851 1.44781 0
M  V30 4689 H 434.722 3.71323 -0.826044 0
M  V30 4690 H 436.034 4.91191 -0.867937 0
M  V30 4691 H 435.188 5.9361 1.25348 0
M  V30 4692 H 433.927 4.67737 1.38105 0
M  V30 4693 H 432.932 5.44039 -0.793849 0
M  V30 4694 H 434.157 6.73022 -0.906568 0
M  V30 4695 H 432.103 6.42648 1.3168 0
M  V30 4696 H 432.02 7.56 0.00835237 0
M  V30 4697 H 433.288 7.70382 1.18879 0
M  V30 4698 N 437.518 0.538854 1.48102 0
M  V30 4699 C 438.766 0.00798599 2.02098 0
M  V30 4700 C 439.087 -1.33922 1.41739 0
M  V30 4701 O 438.357 -1.86932 0.585934 0
M  V30 4702 H 436.937 -3.62179e-05 0.747 0
M  V30 4703 H 439.599 0.7047 1.81714 0
M  V30 4704 H 438.695 -0.0937672 3.11959 0
M  V30 4705 N 438.996 -1.55193 0.274407 0
M  V30 4706 C 440.224 -2.03987 -0.345943 0
M  V30 4707 C 440.639 -1.15279 -1.4952 0
M  V30 4708 O 439.996 -0.172759 -1.8168 0
M  V30 4709 C 440.047 -3.51898 -0.827631 0
M  V30 4710 O 439.768 -4.37231 0.275855 0
M  V30 4711 C 441.269 -4.16577 -1.51587 0
M  V30 4712 H 438.489 -0.666335 -0.0789892 0
M  V30 4713 H 441.033 -2.00423 0.406294 0
M  V30 4714 H 439.188 -3.55909 -1.52996 0
M  V30 4715 H 439.602 -5.24415 -0.0943638 0
M  V30 4716 H 441.076 -5.21678 -1.80433 0
M  V30 4717 H 441.553 -3.64707 -2.44716 0
M  V30 4718 H 442.159 -4.16568 -0.857409 0
M  V30 4719 N 440.474 -0.00167713 -1.576 0
M  V30 4720 C 441.723 0.682021 -1.89819 0
M  V30 4721 C 442.036 1.74844 -0.876871 0
M  V30 4722 O 443.242 2.48688 -1.08934 0
M  V30 4723 C 441.698 1.26425 -3.36964 0
M  V30 4724 C 441.306 0.232568 -4.47396 0
M  V30 4725 C 443.05 1.92604 -3.78291 0
M  V30 4726 C 440.957 0.824882 -5.85619 0
M  V30 4727 H 439.887 0.258499 -0.708304 0
M  V30 4728 H 442.538 -0.0624957 -1.83394 0
M  V30 4729 H 440.92 2.05949 -3.38232 0
M  V30 4730 H 442.094 -0.5382 -4.57646 0
M  V30 4731 H 440.409 -0.32888 -4.15099 0
M  V30 4732 H 443.006 2.37827 -4.78897 0
M  V30 4733 H 443.349 2.75732 -3.11894 0
M  V30 4734 H 443.882 1.19812 -3.79328 0
M  V30 4735 H 440.621 0.0323542 -6.55492 0
M  V30 4736 H 440.141 1.56477 -5.79029 0
M  V30 4737 H 441.82 1.32301 -6.33329 0
M  V30 4738 N 441.952 1.55251 0.271103 0
M  V30 4739 C 443.177 1.80306 1.02491 0
M  V30 4740 C 443.602 0.575457 1.79081 0
M  V30 4741 O 442.96 -0.474987 1.74967 0
M  V30 4742 C 443.008 3.02832 1.95768 0
M  V30 4743 O 442.112 2.78051 3.04568 0
M  V30 4744 H 441.453 0.595896 0.292923 0
M  V30 4745 H 443.983 2.02397 0.299436 0
M  V30 4746 H 443.993 3.31616 2.37686 0
M  V30 4747 H 442.668 3.9183 1.39434 0
M  V30 4748 H 441.245 2.60369 2.66951 0
M  V30 4749 N 443.43 -0.535701 1.48216 0
M  V30 4750 C 444.677 -1.29183 1.55942 0
M  V30 4751 C 445.005 -1.93125 0.230857 0
M  V30 4752 O 444.26 -1.79556 -0.778331 0
M  V30 4753 C 444.559 -2.4068 2.64212 0
M  V30 4754 C 444.225 -1.94428 4.06827 0
M  V30 4755 C 442.887 -1.81532 4.45645 0
M  V30 4756 C 445.239 -1.59405 4.96225 0
M  V30 4757 C 442.567 -1.31939 5.71672 0
M  V30 4758 C 444.919 -1.11276 6.22736 0
M  V30 4759 C 443.583 -0.969924 6.60416 0
M  V30 4760 H 442.853 -0.472715 0.570632 0
M  V30 4761 H 445.5 -0.598437 1.81909 0
M  V30 4762 H 443.805 -3.15666 2.32083 0
M  V30 4763 H 445.502 -2.98822 2.67407 0
M  V30 4764 H 442.092 -2.05415 3.76168 0
M  V30 4765 H 446.276 -1.68231 4.66917 0
M  V30 4766 H 441.532 -1.19562 5.99596 0
M  V30 4767 H 445.706 -0.832453 6.91407 0
M  V30 4768 H 443.333 -0.583436 7.57958 0
M  V30 4769 N 444.908 -1.36708 -0.784132 0
M  V30 4770 C 446.155 -1.31231 -1.54222 0
M  V30 4771 C 446.483 0.106864 -1.94206 0
M  V30 4772 O 445.738 1.07734 -1.63376 0
M  V30 4773 C 446.037 -2.18571 -2.82774 0
M  V30 4774 C 445.703 -3.67039 -2.61903 0
M  V30 4775 C 444.365 -4.07503 -2.55919 0
M  V30 4776 C 446.717 -4.61149 -2.4288 0
M  V30 4777 C 444.045 -5.40211 -2.28886 0
M  V30 4778 C 446.397 -5.94081 -2.17373 0
M  V30 4779 C 445.061 -6.33664 -2.09825 0
M  V30 4780 H 444.331 -0.48021 -0.56434 0
M  V30 4781 H 446.978 -1.68807 -0.904233 0
M  V30 4782 H 445.283 -1.73949 -3.51068 0
M  V30 4783 H 446.98 -2.11655 -3.40592 0
M  V30 4784 H 443.57 -3.34941 -2.67418 0
M  V30 4785 H 447.754 -4.30756 -2.46501 0
M  V30 4786 H 443.01 -5.69855 -2.21529 0
M  V30 4787 H 447.184 -6.66566 -2.01649 0
M  V30 4788 H 444.811 -7.36423 -1.88641 0
M  V30 4789 N 446.386 1.0089 -1.21074 0
M  V30 4790 C 447.296 2.13039 -0.982425 0
M  V30 4791 C 448.312 1.73881 0.0642161 0
M  V30 4792 O 449.488 2.01012 -0.12496 0
M  V30 4793 C 446.553 3.42377 -0.545803 0
M  V30 4794 C 445.614 3.95731 -1.6642 0
M  V30 4795 C 444.847 5.18896 -1.24832 0
M  V30 4796 O 445.07 5.70273 -0.120265 0
M  V30 4797 O 444.004 5.65597 -2.05873 0
M  V30 4798 H 447.83 2.35175 -1.92163 0
M  V30 4799 H 445.415 1.1142 -0.995285 0
M  V30 4800 H 447.297 4.20244 -0.311912 0
M  V30 4801 H 445.972 3.21639 0.364727 0
M  V30 4802 H 444.879 3.19108 -1.95246 0
M  V30 4803 H 446.212 4.20872 -2.55201 0
M  V30 4804 N 447.864 1.01787 1.20321 0
M  V30 4805 C 449.113 0.703249 1.89043 0
M  V30 4806 C 449.426 -0.770445 1.79787 0
M  V30 4807 O 450.632 -1.19767 2.43656 0
M  V30 4808 C 449.088 1.20749 3.3904 0
M  V30 4809 C 448.696 2.70817 3.56878 0
M  V30 4810 C 450.44 0.968352 4.13308 0
M  V30 4811 C 448.347 3.14716 5.00708 0
M  V30 4812 H 447.277 0.259354 0.707991 0
M  V30 4813 H 449.928 1.23072 1.36108 0
M  V30 4814 H 448.31 0.607989 3.91305 0
M  V30 4815 H 449.484 3.36327 3.14993 0
M  V30 4816 H 447.799 2.92888 2.95983 0
M  V30 4817 H 450.396 1.27173 5.19356 0
M  V30 4818 H 450.739 -0.095149 4.16191 0
M  V30 4819 H 451.272 1.53129 3.67146 0
M  V30 4820 H 448.011 4.20347 5.02979 0
M  V30 4821 H 447.531 2.53927 5.43398 0
M  V30 4822 H 449.21 3.07426 5.69296 0
M  V30 4823 N 449.342 -1.36122 0.79427 0
M  V30 4824 C 450.619 -1.93398 0.292685 0
M  V30 4825 C 450.999 -1.72567 -1.21589 0
M  V30 4826 O 450.347 -1.08745 -2.00965 0
M  V30 4827 C 450.557 -3.42099 0.690614 0
M  V30 4828 C 451.905 -4.19231 0.673105 0
M  V30 4829 O 452.929 -3.50559 0.631389 0
M  V30 4830 O 451.788 -5.41732 0.720362 0
M  V30 4831 H 448.882 -0.823712 0.0736693 0
M  V30 4832 H 451.428 -1.45273 0.87714 0
M  V30 4833 H 450.2 -3.50938 1.73085 0
M  V30 4834 H 449.823 -3.97519 0.0803036 0
M  V30 4835 N 450.82 -0.546701 -1.47814 0
M  V30 4836 C 452.068 -0.0187037 -2.02091 0
M  V30 4837 C 452.389 1.33168 -1.42447 0
M  V30 4838 O 451.659 1.86619 -0.595839 0
M  V30 4839 H 450.239 -0.00392531 -0.74699 0
M  V30 4840 H 452.901 -0.714327 -1.81338 0
M  V30 4841 H 451.997 0.0772219 -3.12004 0
M  V30 4842 N 452.299 1.55045 -0.282633 0
M  V30 4843 C 453.715 1.59441 0.0712997 0
M  V30 4844 C 453.915 1.2998 1.53972 0
M  V30 4845 O 452.971 1.06431 2.28973 0
M  V30 4846 C 454.284 2.99097 -0.310104 0
M  V30 4847 C 455.832 3.1194 -0.257343 0
M  V30 4848 C 456.307 4.53875 -0.613297 0
M  V30 4849 N 457.798 4.5974 -0.565134 0
M  V30 4850 C 458.533 5.67603 -0.81326 0
M  V30 4851 N 458.029 6.83582 -1.1264 0
M  V30 4852 N 459.822 5.57187 -0.741553 0
M  V30 4853 H 451.973 1.72458 -1.23984 0
M  V30 4854 H 454.236 0.804549 -0.501403 0
M  V30 4855 H 453.942 3.25516 -1.33163 0
M  V30 4856 H 453.816 3.75616 0.345366 0
M  V30 4857 H 456.203 2.85281 0.754905 0
M  V30 4858 H 456.284 2.37618 -0.947178 0
M  V30 4859 H 455.928 4.81261 -1.62327 0
M  V30 4860 H 455.858 5.26508 0.09841 0
M  V30 4861 H 458.349 3.76427 -0.333294 0
M  V30 4862 H 458.662 7.6175 -1.30219 0
M  V30 4863 H 457.007 6.85179 -1.16425 0
M  V30 4864 H 460.198 4.65457 -0.496705 0
M  V30 4865 H 460.371 6.41171 -0.938306 0
M  V30 4866 N 453.777 0.010035 1.57597 0
M  V30 4867 C 454.724 -0.978122 2.09049 0
M  V30 4868 C 455.694 -1.33509 0.988159 0
M  V30 4869 O 456.879 -1.43172 1.26121 0
M  V30 4870 C 454.019 -2.26158 2.60666 0
M  V30 4871 C 453.132 -1.96275 3.84838 0
M  V30 4872 C 452.267 -3.18776 4.24918 0
M  V30 4873 C 451.306 -2.84625 5.41899 0
M  V30 4874 N 450.443 -3.99693 5.77226 0
M  V30 4875 H 455.283 -0.532431 2.93205 0
M  V30 4876 H 452.82 -0.251234 1.44939 0
M  V30 4877 H 454.778 -3.01202 2.88675 0
M  V30 4878 H 453.408 -2.68378 1.79369 0
M  V30 4879 H 452.46 -1.11555 3.63675 0
M  V30 4880 H 453.772 -1.67111 4.69974 0
M  V30 4881 H 452.926 -4.02157 4.54262 0
M  V30 4882 H 451.665 -3.51087 3.38511 0
M  V30 4883 H 450.67 -1.99653 5.12268 0
M  V30 4884 H 451.895 -2.53551 6.29991 0
M  V30 4885 H 449.841 -4.31882 4.93776 0
M  V30 4886 H 449.758 -3.74087 6.56959 0
M  V30 4887 H 451.026 -4.83834 6.11167 0
M  V30 4888 N 455.255 -1.55392 -0.262866 0
M  V30 4889 C 456.203 -1.8977 -1.345 0
M  V30 4890 C 457.197 -0.775063 -1.50629 0
M  V30 4891 O 458.403 -0.959519 -1.52293 0
M  V30 4892 H 454.778 -0.602467 -0.450041 0
M  V30 4893 H 456.749 -2.80147 -1.02762 0
M  V30 4894 C 455.498 -2.19501 -2.69657 0
M  V30 4895 H 454.821 -3.05378 -2.5804 0
M  V30 4896 H 456.261 -2.47469 -3.44289 0
M  V30 4897 C 454.72 -1.00597 -3.21531 0
M  V30 4898 O 455.25 -0.245768 -4.00947 0
M  V30 4899 N 453.456 -0.800911 -2.79345 0
M  V30 4900 H 453.003 -1.42079 -2.14875 0
M  V30 4901 H 452.961 -0.00697996 -3.14399 0
M  V30 4902 N 456.733 0.527833 -1.48498 0
M  V30 4903 C 457.68 1.6322 -1.6318 0
M  V30 4904 C 458.65 1.59199 -0.473815 0
M  V30 4905 O 459.835 1.77591 -0.697563 0
M  V30 4906 C 456.975 3.01474 -1.67951 0
M  V30 4907 C 456.088 3.15713 -2.94871 0
M  V30 4908 C 455.223 4.44539 -2.90789 0
M  V30 4909 C 454.262 4.52315 -4.12404 0
M  V30 4910 N 453.399 5.72533 -4.06387 0
M  V30 4911 H 458.239 1.50011 -2.57489 0
M  V30 4912 H 455.776 0.730298 -1.27691 0
M  V30 4913 H 457.734 3.81572 -1.68698 0
M  V30 4914 H 456.364 3.1345 -0.771306 0
M  V30 4915 H 455.416 2.28854 -3.03859 0
M  V30 4916 H 456.728 3.1732 -3.8485 0
M  V30 4917 H 455.882 5.3293 -2.89949 0
M  V30 4918 H 454.621 4.45457 -1.98542 0
M  V30 4919 H 453.626 3.62331 -4.13517 0
M  V30 4920 H 454.851 4.53134 -5.05812 0
M  V30 4921 H 452.797 5.74344 -3.16962 0
M  V30 4922 H 452.714 5.75643 -4.90073 0
M  V30 4923 H 453.982 6.63204 -4.0961 0
M  V30 4924 N 458.211 1.37122 0.776871 0
M  V30 4925 C 459.436 1.354 1.57104 0
M  V30 4926 C 459.861 -0.0595562 1.88006 0
M  V30 4927 O 459.219 -1.03514 1.48844 0
M  V30 4928 C 459.267 2.19472 2.8612 0
M  V30 4929 O 458.371 1.59582 3.80273 0
M  V30 4930 H 457.712 0.462869 0.476076 0
M  V30 4931 H 460.242 1.80577 0.961932 0
M  V30 4932 H 460.252 2.32502 3.35271 0
M  V30 4933 H 458.927 3.22222 2.62956 0
M  V30 4934 H 457.504 1.55564 3.38902 0
M  V30 4935 N 459.689 -1.00246 1.21608 0
M  V30 4936 C 460.919 -1.77373 1.05935 0
M  V30 4937 C 461.327 -1.85059 -0.393686 0
M  V30 4938 O 460.67 -1.31289 -1.28487 0
M  V30 4939 C 460.732 -3.22705 1.58435 0
M  V30 4940 C 460.396 -3.38591 3.06929 0
M  V30 4941 C 461.393 -3.2667 4.04454 0
M  V30 4942 C 459.078 -3.6395 3.46187 0
M  V30 4943 C 461.072 -3.39877 5.39224 0
M  V30 4944 C 458.759 -3.768 4.81108 0
M  V30 4945 C 459.757 -3.6477 5.77436 0
M  V30 4946 O 459.445 -3.77206 7.09909 0
M  V30 4947 H 459.177 -0.56419 0.372378 0
M  V30 4948 H 461.731 -1.26971 1.61454 0
M  V30 4949 H 459.961 -3.74255 0.973147 0
M  V30 4950 H 461.65 -3.81515 1.38568 0
M  V30 4951 H 462.416 -3.06999 3.75468 0
M  V30 4952 H 458.295 -3.72395 2.71741 0
M  V30 4953 H 461.839 -3.30404 6.14393 0
M  V30 4954 H 457.736 -3.95975 5.09779 0
M  V30 4955 H 458.504 -3.94138 7.17355 0
M  V30 4956 N 461.167 -1.02423 -1.1978 0
M  V30 4957 C 462.392 -0.7373 -1.93852 0
M  V30 4958 C 462.817 0.696923 -1.74713 0
M  V30 4959 O 462.175 1.48056 -1.04638 0
M  V30 4960 C 462.223 -1.08783 -3.438 0
M  V30 4961 O 461.327 -0.20383 -4.11896 0
M  V30 4962 H 460.668 -0.27284 -0.605355 0
M  V30 4963 H 463.198 -1.36966 -1.51992 0
M  V30 4964 H 463.208 -1.04276 -3.9445 0
M  V30 4965 H 461.883 -2.13274 -3.57053 0
M  V30 4966 H 460.46 -0.307091 -3.71633 0
M  V30 4967 N 462.645 1.35699 -0.801477 0
M  V30 4968 C 463.577 2.28598 -0.166028 0
M  V30 4969 C 464.59 1.50044 0.631721 0
M  V30 4970 O 465.779 1.72339 0.464921 0
M  V30 4971 C 462.879 3.29625 0.787451 0
M  V30 4972 C 462.052 4.37384 0.037171 0
M  V30 4973 C 461.111 5.183 0.908375 0
M  V30 4974 O 460.137 5.68053 0.361189 0
M  V30 4975 N 461.339 5.35912 2.23112 0
M  V30 4976 H 464.104 2.83771 -0.964071 0
M  V30 4977 H 461.665 1.47994 -0.656469 0
M  V30 4978 H 463.657 3.80648 1.37439 0
M  V30 4979 H 462.227 2.75004 1.48632 0
M  V30 4980 H 461.447 3.87364 -0.730935 0
M  V30 4981 H 462.735 5.0653 -0.480109 0
M  V30 4982 H 462.133 4.97125 2.69968 0
M  V30 4983 H 460.69 5.90133 2.76741 0
M  V30 4984 N 464.123 0.554532 1.47522 0
M  V30 4985 C 465.071 -0.207765 2.3167 0
M  V30 4986 C 466.065 -0.911914 1.4276 0
M  V30 4987 O 467.271 -0.833504 1.59539 0
M  V30 4988 H 463.646 -0.0858726 0.747081 0
M  V30 4989 H 465.617 0.521178 2.93813 0
M  V30 4990 C 464.366 -1.2263 3.25357 0
M  V30 4991 H 463.689 -0.693887 3.93732 0
M  V30 4992 H 465.129 -1.73062 3.87073 0
M  V30 4993 C 463.588 -2.27278 2.4869 0
M  V30 4994 O 464.118 -3.34156 2.22941 0
M  V30 4995 N 462.324 -2.01134 2.09746 0
M  V30 4996 H 461.871 -1.14232 2.30887 0
M  V30 4997 H 461.829 -2.71369 1.58765 0
M  V30 4998 N 465.601 -1.54893 0.290851 0
M  V30 4999 C 466.531 -2.26103 -0.583084 0
M  V30 5000 C 467.512 -1.25684 -1.14619 0
M  V30 5001 O 468.697 -1.54436 -1.17741 0
M  V30 5002 C 465.827 -2.99409 -1.75987 0
M  V30 5003 C 464.781 -4.0689 -1.32758 0
M  V30 5004 C 464.107 -4.67856 -2.58872 0
M  V30 5005 C 465.407 -5.20215 -0.46624 0
M  V30 5006 H 467.101 -2.99398 0.0108214 0
M  V30 5007 H 464.647 -1.43998 0.00664468 0
M  V30 5008 H 466.6 -3.47943 -2.37727 0
M  V30 5009 H 465.324 -2.23675 -2.37985 0
M  V30 5010 H 463.983 -3.59191 -0.733299 0
M  V30 5011 H 463.631 -3.88772 -3.19163 0
M  V30 5012 H 463.331 -5.40438 -2.30653 0
M  V30 5013 H 464.855 -5.19147 -3.21433 0
M  V30 5014 H 466.269 -5.64704 -0.989047 0
M  V30 5015 H 464.666 -5.99455 -0.27826 0
M  V30 5016 H 465.736 -4.82198 0.511173 0
M  V30 5017 N 467.08 -0.0183926 -1.57589 0
M  V30 5018 C 468.32 0.666846 -1.93216 0
M  V30 5019 C 468.684 1.69905 -0.894215 0
M  V30 5020 O 469.885 2.436 -1.13633 0
M  V30 5021 C 468.156 1.27684 -3.33814 0
M  V30 5022 S 469.715 1.98464 -3.91353 0
M  V30 5023 H 466.533 0.219826 -0.676164 0
M  V30 5024 H 469.135 -0.0794893 -1.95338 0
M  V30 5025 H 467.839 0.513006 -4.07181 0
M  V30 5026 H 467.37 2.06071 -3.3511 0
M  V30 5027 H 469.385 3.26189 -3.73918 0
M  V30 5028 N 468.558 1.5553 0.254621 0
M  V30 5029 C 469.488 1.9268 1.31897 0
M  V30 5030 C 470.469 0.790797 1.506 0
M  V30 5031 O 471.654 1.05045 1.63337 0
M  V30 5032 C 468.784 2.21477 2.67517 0
M  V30 5033 C 467.738 3.37256 2.63519 0
M  V30 5034 C 467.064 3.51576 4.02862 0
M  V30 5035 C 468.364 4.73157 2.21179 0
M  V30 5036 H 470.058 2.81832 1.01051 0
M  V30 5037 H 467.604 1.35599 0.484662 0
M  V30 5038 H 469.557 2.46055 3.42104 0
M  V30 5039 H 468.281 1.29144 2.99982 0
M  V30 5040 H 466.94 3.12675 1.9139 0
M  V30 5041 H 466.588 2.56676 4.32581 0
M  V30 5042 H 466.288 4.2943 4.01078 0
M  V30 5043 H 467.812 3.78467 4.79161 0
M  V30 5044 H 469.226 4.97158 2.85494 0
M  V30 5045 H 467.623 5.54058 2.30521 0
M  V30 5046 H 468.693 4.70739 1.16332 0
M  V30 5047 N 470.036 -0.519951 1.48776 0
M  V30 5048 C 470.966 -1.63253 1.66945 0
M  V30 5049 C 471.947 -1.62014 0.518224 0
M  V30 5050 O 473.132 -1.79053 0.751919 0
M  V30 5051 C 470.262 -3.0181 1.71836 0
M  V30 5052 C 469.216 -3.17911 2.8656 0
M  V30 5053 C 468.542 -4.5763 2.76548 0
M  V30 5054 C 469.842 -2.99729 4.27738 0
M  V30 5055 H 471.536 -1.48302 2.6009 0
M  V30 5056 H 469.082 -0.712026 1.25165 0
M  V30 5057 H 471.035 -3.79525 1.83135 0
M  V30 5058 H 469.759 -3.17806 0.752775 0
M  V30 5059 H 468.418 -2.42616 2.74833 0
M  V30 5060 H 468.066 -4.70476 1.77937 0
M  V30 5061 H 467.766 -4.69346 3.53536 0
M  V30 5062 H 469.29 -5.37431 2.89828 0
M  V30 5063 H 470.704 -3.67228 4.40246 0
M  V30 5064 H 469.101 -3.22932 5.05801 0
M  V30 5065 H 470.171 -1.96047 4.43502 0
M  V30 5066 N 471.514 -1.37532 -0.769588 0
M  V30 5067 C 472.477 -1.33292 -1.86456 0
M  V30 5068 C 473.477 -0.236537 -1.59051 0
M  V30 5069 O 474.667 -0.492511 -1.67093 0
M  V30 5070 C 471.799 -1.07118 -3.23633 0
M  V30 5071 H 472.992 -2.30692 -1.91628 0
M  V30 5072 H 470.545 -1.22593 -0.969572 0
M  V30 5073 H 471.28 -0.102578 -3.24138 0
M  V30 5074 H 471.065 -1.86479 -3.44917 0
M  V30 5075 H 472.555 -1.06806 -4.03711 0
M  V30 5076 N 472.992 0.995999 -1.22138 0
M  V30 5077 C 473.939 2.08551 -0.988687 0
M  V30 5078 C 474.909 1.65864 0.0885021 0
M  V30 5079 O 476.094 1.90704 -0.0604589 0
M  V30 5080 C 473.234 3.40374 -0.569191 0
M  V30 5081 C 472.347 3.96421 -1.71681 0
M  V30 5082 C 471.482 5.1639 -1.2456 0
M  V30 5083 C 470.521 5.64567 -2.36497 0
M  V30 5084 N 469.658 6.75777 -1.90445 0
M  V30 5085 H 474.498 2.2779 -1.92135 0
M  V30 5086 H 472.035 1.1168 -0.957388 0
M  V30 5087 H 473.993 4.16068 -0.307166 0
M  V30 5088 H 472.623 3.21145 0.326462 0
M  V30 5089 H 471.675 3.17628 -2.09324 0
M  V30 5090 H 472.987 4.2816 -2.55891 0
M  V30 5091 H 472.141 5.99362 -0.940774 0
M  V30 5092 H 470.88 4.86266 -0.373662 0
M  V30 5093 H 469.885 4.80185 -2.67772 0
M  V30 5094 H 471.11 5.96716 -3.24202 0
M  V30 5095 H 469.056 6.47443 -1.05609 0
M  V30 5096 H 468.973 7.06818 -2.68223 0
M  V30 5097 H 470.241 7.62262 -1.63022 0
M  V30 5098 N 474.47 1.03057 1.19235 0
M  V30 5099 C 475.71 0.736757 1.9066 0
M  V30 5100 C 476.074 -0.721521 1.77927 0
M  V30 5101 O 477.275 -1.12849 2.43964 0
M  V30 5102 C 475.546 1.17755 3.37444 0
M  V30 5103 S 477.105 1.00783 4.27069 0
M  V30 5104 H 473.923 0.268174 0.658486 0
M  V30 5105 H 476.525 1.32076 1.4414 0
M  V30 5106 H 475.229 2.23448 3.44237 0
M  V30 5107 H 474.76 0.586912 3.88997 0
M  V30 5108 H 476.775 -0.0806356 4.96134 0
M  V30 5109 N 475.948 -1.35272 0.808662 0
M  V30 5110 C 477.195 -1.98709 0.390003 0
M  V30 5111 C 477.523 -1.64148 -1.04335 0
M  V30 5112 O 476.778 -0.897797 -1.73891 0
M  V30 5113 C 477.077 -3.53556 0.522798 0
M  V30 5114 C 476.743 -4.0799 1.91977 0
M  V30 5115 C 475.405 -4.22568 2.30195 0
M  V30 5116 C 477.757 -4.37442 2.83361 0
M  V30 5117 C 475.085 -4.63918 3.59162 0
M  V30 5118 C 477.437 -4.80232 4.11776 0
M  V30 5119 C 476.101 -4.93016 4.49991 0
M  V30 5120 H 475.371 -0.727127 0.142712 0
M  V30 5121 H 478.018 -1.6145 1.02985 0
M  V30 5122 H 476.323 -3.91287 -0.200494 0
M  V30 5123 H 478.02 -4.00598 0.179608 0
M  V30 5124 H 474.61 -3.97096 1.61284 0
M  V30 5125 H 478.794 -4.25731 2.55083 0
M  V30 5126 H 474.05 -4.72005 3.88615 0
M  V30 5127 H 478.224 -5.01982 4.82687 0
M  V30 5128 H 475.851 -5.24814 5.49976 0
M  V30 5129 N 477.426 -0.562348 -1.47226 0
M  V30 5130 C 478.356 0.170627 -2.32876 0
M  V30 5131 C 479.337 0.903748 -1.44106 0
M  V30 5132 O 480.522 0.883206 -1.72954 0
M  V30 5133 C 477.652 1.19786 -3.25989 0
M  V30 5134 C 476.606 0.580875 -4.2404 0
M  V30 5135 C 475.932 1.71311 -5.06514 0
M  V30 5136 C 477.232 -0.468714 -5.20193 0
M  V30 5137 H 478.926 -0.544441 -2.94408 0
M  V30 5138 H 476.472 -0.263271 -1.41573 0
M  V30 5139 H 478.425 1.71884 -3.84752 0
M  V30 5140 H 477.149 1.94294 -2.62521 0
M  V30 5141 H 475.808 0.0811538 -3.6651 0
M  V30 5142 H 475.456 2.44736 -4.39447 0
M  V30 5143 H 475.156 1.30604 -5.72902 0
M  V30 5144 H 476.68 2.23725 -5.68137 0
M  V30 5145 H 478.094 -0.0336028 -5.7329 0
M  V30 5146 H 476.491 -0.794957 -5.94811 0
M  V30 5147 H 477.561 -1.36269 -4.65359 0
M  V30 5148 N 478.904 1.54736 -0.299062 0
M  V30 5149 C 480.181 1.92187 0.363802 0
M  V30 5150 C 480.561 1.22607 1.71845 0
M  V30 5151 O 479.909 0.361141 2.25628 0
M  V30 5152 C 480.119 3.45678 0.480377 0
M  V30 5153 C 481.467 4.17885 0.752147 0
M  V30 5154 O 482.491 3.51702 0.564264 0
M  V30 5155 O 481.35 5.35048 1.11294 0
M  V30 5156 H 478.444 0.801681 0.203066 0
M  V30 5157 H 480.99 1.66115 -0.346978 0
M  V30 5158 H 479.762 3.88443 -0.471999 0
M  V30 5159 H 479.385 3.77779 1.2397 0
M  V30 5160 N 480.382 0.0267497 1.57577 0
M  V30 5161 C 481.332 -0.965003 2.06571 0
M  V30 5162 C 482.316 -1.28694 0.965746 0
M  V30 5163 O 483.508 -1.27345 1.22932 0
M  V30 5164 C 480.637 -2.24821 2.59443 0
M  V30 5165 C 479.723 -1.95474 3.76365 0
M  V30 5166 N 480.114 -1.36387 4.87065 0
M  V30 5167 C 478.412 -2.25478 3.84806 0
M  V30 5168 C 479.113 -1.24119 5.68304 0
M  V30 5169 N 478.089 -1.7359 5.15138 0
M  V30 5170 H 481.891 -0.503095 2.89562 0
M  V30 5171 H 479.405 -0.178322 1.61418 0
M  V30 5172 H 481.402 -2.9674 2.92833 0
M  V30 5173 H 480.062 -2.7164 1.77881 0
M  V30 5174 H 481.073 -1.03919 5.07367 0
M  V30 5175 H 477.75 -2.74987 3.14147 0
M  V30 5176 H 479.14 -0.784504 6.67304 0
M  V30 5177 N 481.861 -1.55662 -0.24637 0
M  V30 5178 C 482.808 -1.90361 -1.30504 0
M  V30 5179 C 483.778 -0.757905 -1.47801 0
M  V30 5180 O 484.963 -1.01161 -1.61775 0
M  V30 5181 C 482.103 -2.2042 -2.65535 0
M  V30 5182 C 481.216 -3.47799 -2.56242 0
M  V30 5183 C 480.351 -3.67426 -3.8363 0
M  V30 5184 C 479.39 -4.88403 -3.68956 0
M  V30 5185 N 478.527 -5.04548 -4.88237 0
M  V30 5186 H 483.367 -2.80645 -1.00213 0
M  V30 5187 H 480.904 -1.38924 -0.483577 0
M  V30 5188 H 482.862 -2.35853 -3.44135 0
M  V30 5189 H 481.492 -1.3334 -2.93973 0
M  V30 5190 H 480.544 -3.40694 -1.69208 0
M  V30 5191 H 481.856 -4.36544 -2.4131 0
M  V30 5192 H 481.01 -3.82821 -4.70673 0
M  V30 5193 H 479.749 -2.76914 -4.01459 0
M  V30 5194 H 478.754 -4.72984 -2.80296 0
M  V30 5195 H 479.979 -5.80375 -3.52621 0
M  V30 5196 H 477.925 -4.16974 -5.06427 0
M  V30 5197 H 477.842 -5.87384 -4.75937 0
M  V30 5198 H 479.11 -5.24355 -5.76777 0
M  V30 5199 N 483.339 0.512053 -1.4905 0
M  V30 5200 C 484.567 1.29116 -1.61669 0
M  V30 5201 C 484.982 1.86655 -0.283787 0
M  V30 5202 O 484.339 1.67293 0.729331 0
M  V30 5203 C 484.39 2.4293 -2.67707 0
M  V30 5204 O 484.111 1.87758 -3.95826 0
M  V30 5205 C 485.612 3.34476 -2.90931 0
M  V30 5206 H 482.832 0.392009 -0.544583 0
M  V30 5207 H 485.376 0.615881 -1.95006 0
M  V30 5208 H 483.531 3.06308 -2.37179 0
M  V30 5209 H 483.945 2.62393 -4.54148 0
M  V30 5210 H 485.419 4.10642 -3.68886 0
M  V30 5211 H 485.896 3.90801 -2.00427 0
M  V30 5212 H 486.502 2.76874 -3.22832 0
M  V30 5213 N 484.817 1.37938 0.762283 0
M  V30 5214 C 485.747 1.37176 1.88958 0
M  V30 5215 C 486.728 0.238945 1.68413 0
M  V30 5216 O 487.913 0.440726 1.89133 0
M  V30 5217 C 485.043 1.18742 3.2637 0
M  V30 5218 C 483.997 2.29136 3.61498 0
M  V30 5219 C 483.323 1.95816 4.97554 0
M  V30 5220 C 484.623 3.71363 3.6727 0
M  V30 5221 H 486.317 2.31509 1.89853 0
M  V30 5222 H 483.863 1.11438 0.912005 0
M  V30 5223 H 485.816 1.16837 4.04879 0
M  V30 5224 H 484.54 0.208683 3.25933 0
M  V30 5225 H 483.199 2.30213 2.85303 0
M  V30 5226 H 482.847 0.964475 4.93667 0
M  V30 5227 H 482.547 2.69745 5.22026 0
M  V30 5228 H 484.071 1.95513 5.78452 0
M  V30 5229 H 485.485 3.72364 4.35911 0
M  V30 5230 H 483.882 4.44425 4.03245 0
M  V30 5231 H 484.952 4.04305 2.67704 0
M  V30 5232 N 486.295 -0.989507 1.22664 0
M  V30 5233 C 487.525 -1.7624 1.0781 0
M  V30 5234 C 487.933 -1.85466 -0.374036 0
M  V30 5235 O 487.276 -1.32645 -1.27087 0
M  V30 5236 C 487.338 -3.21007 1.61849 0
M  V30 5237 C 487.002 -3.35316 3.10503 0
M  V30 5238 C 487.999 -3.22362 4.07896 0
M  V30 5239 C 485.684 -3.60258 3.50028 0
M  V30 5240 C 487.678 -3.34139 5.42798 0
M  V30 5241 C 485.365 -3.71676 4.85078 0
M  V30 5242 C 486.363 -3.58625 5.81272 0
M  V30 5243 O 486.051 -3.69655 7.1387 0
M  V30 5244 H 485.783 -0.560209 0.378341 0
M  V30 5245 H 488.337 -1.25252 1.62792 0
M  V30 5246 H 486.567 -3.73202 1.01279 0
M  V30 5247 H 488.256 -3.80024 1.42606 0
M  V30 5248 H 489.022 -3.03 3.78703 0
M  V30 5249 H 484.901 -3.69492 2.75675 0
M  V30 5250 H 488.445 -3.23869 6.17863 0
M  V30 5251 H 484.342 -3.90545 5.1395 0
M  V30 5252 H 485.11 -3.86507 7.21495 0
M  V30 5253 N 487.773 -1.03688 -1.18687 0
M  V30 5254 C 489.003 -0.756819 -1.92239 0
M  V30 5255 C 489.411 0.689374 -1.76194 0
M  V30 5256 O 488.754 1.48126 -1.08648 0
M  V30 5257 C 488.816 -1.03851 -3.44173 0
M  V30 5258 C 488.48 -2.47785 -3.83994 0
M  V30 5259 C 489.477 -3.4595 -3.88091 0
M  V30 5260 C 487.162 -2.82397 -4.154 0
M  V30 5261 C 489.156 -4.76779 -4.23038 0
M  V30 5262 C 486.843 -4.13433 -4.50018 0
M  V30 5263 C 487.841 -5.10434 -4.53813 0
M  V30 5264 O 487.529 -6.39122 -4.87625 0
M  V30 5265 H 487.261 -0.275678 -0.617234 0
M  V30 5266 H 489.815 -1.38658 -1.51536 0
M  V30 5267 H 488.045 -0.351612 -3.85098 0
M  V30 5268 H 489.734 -0.746846 -3.9897 0
M  V30 5269 H 490.5 -3.20549 -3.63969 0
M  V30 5270 H 486.379 -2.07568 -4.11627 0
M  V30 5271 H 489.923 -5.52488 -4.25914 0
M  V30 5272 H 485.82 -4.38604 -4.736 0
M  V30 5273 H 486.588 -6.43715 -5.05542 0
M  V30 5274 N 489.251 1.34841 -0.815825 0
M  V30 5275 C 490.528 1.92908 -0.323416 0
M  V30 5276 C 490.908 1.74479 1.18828 0
M  V30 5277 O 490.256 1.11928 1.99209 0
M  V30 5278 C 490.466 3.40957 -0.744952 0
M  V30 5279 C 491.814 4.18107 -0.739716 0
M  V30 5280 O 492.838 3.49511 -0.68708 0
M  V30 5281 O 491.697 5.40517 -0.806456 0
M  V30 5282 H 488.791 0.822436 -0.0867646 0
M  V30 5283 H 491.337 1.4386 -0.90014 0
M  V30 5284 H 490.109 3.4814 -1.78646 0
M  V30 5285 H 489.732 3.97341 -0.143535 0
M  V30 5286 N 490.729 0.570148 1.46925 0
M  V30 5287 C 491.957 0.0561966 2.06824 0
M  V30 5288 C 492.372 -1.24326 1.42086 0
M  V30 5289 O 491.729 -1.74882 0.521794 0
M  V30 5290 C 491.78 -0.129517 3.61268 0
M  V30 5291 O 491.501 1.1185 4.23581 0
M  V30 5292 C 493.002 -0.679266 4.38065 0
M  V30 5293 H 490.222 0.0517261 0.669003 0
M  V30 5294 H 492.766 0.787243 1.8874 0
M  V30 5295 H 490.921 -0.810739 3.78822 0
M  V30 5296 H 491.335 0.924375 5.1629 0
M  V30 5297 H 492.809 -0.758445 5.46765 0
M  V30 5298 H 493.286 -1.69346 4.05239 0
M  V30 5299 H 493.892 -0.0333237 4.25287 0
M  V30 5300 N 492.207 -1.54576 0.307264 0
M  V30 5301 C 493.484 -1.92377 -0.353605 0
M  V30 5302 C 493.864 -1.23517 -1.71192 0
M  V30 5303 O 493.212 -0.373101 -2.25433 0
M  V30 5304 C 493.422 -3.45928 -0.462039 0
M  V30 5305 C 494.77 -4.18278 -0.729975 0
M  V30 5306 O 495.794 -3.51997 -0.545605 0
M  V30 5307 O 494.653 -5.3563 -1.08454 0
M  V30 5308 H 491.747 -0.802747 -0.198812 0
M  V30 5309 H 494.293 -1.65929 0.355783 0
M  V30 5310 H 493.065 -3.88187 0.492592 0
M  V30 5311 H 492.688 -3.78431 -1.21965 0
M  V30 5312 N 493.685 -0.035106 -1.57561 0
M  V30 5313 C 495.096 0.502885 -1.798 0
M  V30 5314 C 495.447 1.71892 -0.945921 0
M  V30 5315 O 494.572 2.15822 -0.157991 0
M  V30 5316 C 495.167 0.919097 -3.26095 0
M  V30 5317 C 493.726 1.40216 -3.49308 0
M  V30 5318 C 492.873 0.369709 -2.74824 0
M  V30 5319 H 495.824 -0.261102 -1.56537 0
M  V30 5320 H 495.845 1.78308 -3.36135 0
M  V30 5321 H 495.357 0.0338526 -3.88085 0
M  V30 5322 H 493.458 2.30714 -2.92578 0
M  V30 5323 H 493.571 1.40541 -4.58023 0
M  V30 5324 H 491.935 0.839113 -2.40481 0
M  V30 5325 H 492.718 -0.507173 -3.39533 0
M  V30 5326 N 495.163 1.55791 0.238111 0
M  V30 5327 C 496.41 1.78033 0.964907 0
M  V30 5328 C 496.738 0.600984 1.84982 0
M  V30 5329 O 495.993 -0.41536 1.91241 0
M  V30 5330 C 496.292 3.05869 1.84875 0
M  V30 5331 C 495.958 4.36808 1.11846 0
M  V30 5332 C 494.62 4.72388 0.916662 0
M  V30 5333 C 496.972 5.17717 0.60151 0
M  V30 5334 C 494.3 5.86406 0.185756 0
M  V30 5335 C 496.652 6.32494 -0.115972 0
M  V30 5336 C 495.316 6.66688 -0.329168 0
M  V30 5337 H 494.586 0.651469 0.353085 0
M  V30 5338 H 497.233 1.90061 0.234318 0
M  V30 5339 H 495.538 2.88891 2.64668 0
M  V30 5340 H 497.235 3.20278 2.41294 0
M  V30 5341 H 493.825 4.08862 1.28569 0
M  V30 5342 H 498.009 4.90678 0.744932 0
M  V30 5343 H 493.265 6.11399 0.0101886 0
M  V30 5344 H 497.439 6.94425 -0.524127 0
M  V30 5345 H 495.066 7.54884 -0.897474 0
M  V30 5346 N 496.642 -0.504142 1.49319 0
M  V30 5347 C 497.572 -1.61473 1.68667 0
M  V30 5348 C 498.553 -1.61455 0.535378 0
M  V30 5349 O 499.738 -1.78245 0.770868 0
M  V30 5350 C 496.868 -2.99971 1.75028 0
M  V30 5351 C 495.822 -3.14854 2.89916 0
M  V30 5352 C 495.148 -4.54671 2.81387 0
M  V30 5353 C 496.448 -2.95176 4.30893 0
M  V30 5354 H 498.142 -1.45535 2.61648 0
M  V30 5355 H 495.688 -0.698711 1.25913 0
M  V30 5356 H 497.641 -3.77562 1.8715 0
M  V30 5357 H 496.365 -3.1699 0.786441 0
M  V30 5358 H 495.024 -2.39687 2.77391 0
M  V30 5359 H 494.672 -4.68562 1.82917 0
M  V30 5360 H 494.372 -4.6557 3.58494 0
M  V30 5361 H 495.896 -5.34327 2.95512 0
M  V30 5362 H 497.31 -3.62538 4.44116 0
M  V30 5363 H 495.707 -3.17549 5.09198 0
M  V30 5364 H 496.777 -1.91332 4.45556 0
M  V30 5365 N 498.12 -1.38341 -0.754957 0
M  V30 5366 C 499.367 -1.34473 -1.51404 0
M  V30 5367 C 499.695 0.0656458 -1.94389 0
M  V30 5368 O 498.95 1.04244 -1.65625 0
M  V30 5369 C 499.249 -2.2452 -2.78075 0
M  V30 5370 C 498.915 -3.72512 -2.54059 0
M  V30 5371 C 497.577 -4.1284 -2.47218 0
M  V30 5372 C 499.929 -4.66197 -2.33044 0
M  V30 5373 C 497.257 -5.44945 -2.17376 0
M  V30 5374 C 499.609 -5.98558 -2.04723 0
M  V30 5375 C 498.273 -6.37972 -1.96337 0
M  V30 5376 H 497.543 -0.492072 -0.554027 0
M  V30 5377 H 500.19 -1.70687 -0.868223 0
M  V30 5378 H 498.495 -1.81357 -3.473 0
M  V30 5379 H 500.192 -2.18832 -3.36026 0
M  V30 5380 H 496.782 -3.40538 -2.60253 0
M  V30 5381 H 500.966 -4.35888 -2.37309 0
M  V30 5382 H 496.222 -5.74426 -2.09391 0
M  V30 5383 H 500.396 -6.70693 -1.87465 0
M  V30 5384 H 498.023 -7.40258 -1.72978 0
M  V30 5385 N 499.598 0.982988 -1.23187 0
M  V30 5386 C 500.828 1.75666 -1.08743 0
M  V30 5387 C 501.236 1.85662 0.364195 0
M  V30 5388 O 500.579 1.33317 1.26382 0
M  V30 5389 C 500.641 3.20144 -1.63549 0
M  V30 5390 C 500.305 3.33665 -3.12277 0
M  V30 5391 C 501.302 3.20194 -4.096 0
M  V30 5392 C 498.987 3.58397 -3.51933 0
M  V30 5393 C 500.981 3.31256 -5.44563 0
M  V30 5394 C 498.668 3.69098 -4.87042 0
M  V30 5395 C 499.666 3.55537 -5.83166 0
M  V30 5396 O 499.354 3.65864 -7.1582 0
M  V30 5397 H 499.086 0.558194 -0.381307 0
M  V30 5398 H 501.64 1.24387 -1.63454 0
M  V30 5399 H 499.87 3.72659 -1.03256 0
M  V30 5400 H 501.559 3.79262 -1.4462 0
M  V30 5401 H 502.325 3.00987 -3.80305 0
M  V30 5402 H 498.204 3.68025 -2.77631 0
M  V30 5403 H 501.748 3.20588 -6.19572 0
M  V30 5404 H 497.645 3.87814 -5.16014 0
M  V30 5405 H 498.413 3.82675 -7.23534 0
M  V30 5406 N 501.076 1.04316 1.18135 0
M  V30 5407 C 502.322 0.749128 1.88457 0
M  V30 5408 C 502.655 -0.72149 1.803 0
M  V30 5409 O 501.93 -1.52676 1.205 0
M  V30 5410 C 502.213 1.21905 3.38838 0
M  V30 5411 C 502.066 2.75195 3.55792 0
M  V30 5412 C 503.385 0.811085 4.32561 0
M  V30 5413 H 500.504 0.273611 0.684329 0
M  V30 5414 H 503.146 1.29561 1.38975 0
M  V30 5415 H 501.296 0.754137 3.8111 0
M  V30 5416 H 502.968 3.29743 3.22595 0
M  V30 5417 H 501.211 3.14899 2.98364 0
M  V30 5418 H 501.882 3.03135 4.61317 0
M  V30 5419 H 504.358 1.21118 3.98082 0
M  V30 5420 H 503.234 1.16761 5.36338 0
M  V30 5421 H 503.495 -0.285596 4.41177 0
M  V30 5422 N 502.554 -1.34406 0.822964 0
M  V30 5423 C 503.487 -2.27407 0.190124 0
M  V30 5424 C 504.465 -1.4889 -0.653486 0
M  V30 5425 O 505.649 -1.78109 -0.617216 0
M  V30 5426 C 502.776 -3.3064 -0.734477 0
M  V30 5427 C 501.822 -4.26488 0.0316099 0
M  V30 5428 S 502.655 -5.17445 1.3788 0
M  V30 5429 C 503.811 -6.24214 0.45907 0
M  V30 5430 H 504.044 -2.80733 0.978586 0
M  V30 5431 H 501.577 -1.41455 0.618866 0
M  V30 5432 H 503.535 -3.90607 -1.26238 0
M  V30 5433 H 502.196 -2.76161 -1.49646 0
M  V30 5434 H 501.389 -4.9951 -0.671285 0
M  V30 5435 H 500.991 -3.70775 0.490066 0
M  V30 5436 H 503.283 -6.76599 -0.349357 0
M  V30 5437 H 504.226 -6.98551 1.15896 0
M  V30 5438 H 504.634 -5.6448 0.0474825 0
M  V30 5439 N 504.032 -0.577932 -1.46621 0
M  V30 5440 C 505.26 -0.0671642 -2.06791 0
M  V30 5441 C 505.675 1.23571 -1.42743 0
M  V30 5442 O 505.032 1.74602 -0.531062 0
M  V30 5443 C 505.083 0.110357 -3.61332 0
M  V30 5444 O 504.804 -1.14095 -4.22982 0
M  V30 5445 C 506.305 0.656025 -4.38419 0
M  V30 5446 H 503.525 -0.0552732 -0.66872 0
M  V30 5447 H 506.069 -0.797242 -1.8832 0
M  V30 5448 H 504.224 0.790637 -3.79246 0
M  V30 5449 H 504.638 -0.951742 -5.15793 0
M  V30 5450 H 506.112 0.729438 -5.47159 0
M  V30 5451 H 506.589 1.67195 -4.06131 0
M  V30 5452 H 507.195 0.0107692 -4.25299 0
M  V30 5453 N 505.51 1.54411 -0.315457 0
M  V30 5454 C 506.42 2.27737 0.56329 0
M  V30 5455 C 507.436 1.31787 1.13614 0
M  V30 5456 O 508.612 1.64791 1.15784 0
M  V30 5457 C 505.677 3.01478 1.71207 0
M  V30 5458 C 504.738 4.12997 1.17185 0
M  V30 5459 C 503.971 4.83212 2.26588 0
M  V30 5460 O 504.194 4.52884 3.46775 0
M  V30 5461 O 503.128 5.70299 1.92463 0
M  V30 5462 H 506.954 3.03683 -0.0319614 0
M  V30 5463 H 504.539 1.49178 -0.0814188 0
M  V30 5464 H 506.421 3.47683 2.38106 0
M  V30 5465 H 505.096 2.28414 2.29366 0
M  V30 5466 H 504.003 3.71159 0.468174 0
M  V30 5467 H 505.336 4.8808 0.635501 0
M  V30 5468 N 506.988 0.0434614 1.5754 0
M  V30 5469 C 508.218 -0.640905 1.96408 0
M  V30 5470 C 508.626 -1.65365 0.919297 0
M  V30 5471 O 507.969 -1.83395 -0.105795 0
M  V30 5472 C 508.031 -1.39141 3.31482 0
M  V30 5473 C 507.695 -0.535375 4.53853 0
M  V30 5474 C 508.692 0.195335 5.19533 0
M  V30 5475 C 506.377 -0.468564 5.0011 0
M  V30 5476 C 508.371 0.981377 6.298 0
M  V30 5477 C 506.058 0.321171 6.10255 0
M  V30 5478 C 507.056 1.04484 6.74961 0
M  V30 5479 O 506.744 1.8216 7.8299 0
M  V30 5480 H 506.476 -0.180584 0.651433 0
M  V30 5481 H 509.03 0.103848 2.05137 0
M  V30 5482 H 507.26 -2.18162 3.19284 0
M  V30 5483 H 508.949 -1.96526 3.55151 0
M  V30 5484 H 509.715 0.15314 4.84758 0
M  V30 5485 H 505.594 -1.02142 4.49542 0
M  V30 5486 H 509.138 1.54674 6.80237 0
M  V30 5487 H 505.035 0.365032 6.44467 0
M  V30 5488 H 505.803 1.74289 7.99728 0
M  V30 5489 N 508.466 -1.55915 -0.229846 0
M  V30 5490 C 509.743 -1.6932 -0.979295 0
M  V30 5491 C 510.123 -0.588321 -2.02736 0
M  V30 5492 O 509.471 0.40586 -2.24867 0
M  V30 5493 C 509.681 -3.10305 -1.59724 0
M  V30 5494 C 511.029 -3.6945 -2.09264 0
M  V30 5495 O 512.053 -3.13214 -1.69633 0
M  V30 5496 O 510.912 -4.68072 -2.82082 0
M  V30 5497 H 508.006 -0.689314 -0.456919 0
M  V30 5498 H 510.552 -1.68238 -0.222283 0
M  V30 5499 H 509.324 -3.82177 -0.840039 0
M  V30 5500 H 508.947 -3.1547 -2.42001 0
M  V30 5501 N 509.944 0.496216 -1.49584 0
M  V30 5502 C 511.184 1.26015 -1.60933 0
M  V30 5503 C 511.548 1.89772 -0.291646 0
M  V30 5504 O 512.749 2.67334 -0.280357 0
M  V30 5505 C 511.02 2.29506 -2.73974 0
M  V30 5506 S 512.579 3.15175 -3.05303 0
M  V30 5507 H 509.397 0.428194 -0.567601 0
M  V30 5508 H 511.999 0.561484 -1.87263 0
M  V30 5509 H 510.703 1.81205 -3.68229 0
M  V30 5510 H 510.234 3.04036 -2.49651 0
M  V30 5511 H 512.249 4.30244 -2.47193 0
M  V30 5512 N 511.423 1.38739 0.74761 0
M  V30 5513 C 512.37 1.36449 1.86146 0
M  V30 5514 C 513.34 0.226098 1.64554 0
M  V30 5515 O 514.525 0.41926 1.86137 0
M  V30 5516 C 511.665 1.2013 3.23516 0
M  V30 5517 C 510.778 2.43407 3.56899 0
M  V30 5518 C 509.913 2.19773 4.83605 0
M  V30 5519 C 508.952 3.3879 5.09792 0
M  V30 5520 N 508.089 3.14553 6.27695 0
M  V30 5521 H 512.929 2.3167 1.87438 0
M  V30 5522 H 510.466 1.15094 0.916063 0
M  V30 5523 H 512.424 1.08683 4.02795 0
M  V30 5524 H 511.054 0.285453 3.21535 0
M  V30 5525 H 510.106 2.65504 2.72418 0
M  V30 5526 H 511.418 3.32094 3.72176 0
M  V30 5527 H 510.572 2.05496 5.70838 0
M  V30 5528 H 509.311 1.28461 4.70478 0
M  V30 5529 H 508.316 3.53579 4.21025 0
M  V30 5530 H 509.541 4.30986 5.24812 0
M  V30 5531 H 507.487 2.25893 6.1588 0
M  V30 5532 H 507.404 3.96791 6.435 0
M  V30 5533 H 508.672 3.03943 7.17801 0
M  V30 5534 N 512.901 -0.976442 1.23707 0
M  V30 5535 C 514.149 -1.71487 1.06942 0
M  V30 5536 C 514.47 -1.9098 -0.393897 0
M  V30 5537 O 513.74 -1.48128 -1.28198 0
M  V30 5538 H 512.32 -0.635425 0.392739 0
M  V30 5539 H 514.982 -1.17515 1.55487 0
M  V30 5540 H 514.078 -2.70286 1.56051 0
M  V30 5541 N 514.379 -1.04941 -1.1758 0
M  V30 5542 C 515.626 -0.757989 -1.87779 0
M  V30 5543 C 515.954 0.714827 -1.80888 0
M  V30 5544 O 515.209 1.53824 -1.20982 0
M  V30 5545 C 515.508 -1.18062 -3.37337 0
M  V30 5546 C 515.174 -2.65521 -3.6443 0
M  V30 5547 C 513.836 -3.05804 -3.71534 0
M  V30 5548 C 516.188 -3.60822 -3.76108 0
M  V30 5549 C 513.516 -4.40256 -3.87803 0
M  V30 5550 C 515.868 -4.95005 -3.93895 0
M  V30 5551 C 514.532 -5.34945 -3.99237 0
M  V30 5552 H 513.802 -0.277368 -0.68713 0
M  V30 5553 H 516.449 -1.31603 -1.39115 0
M  V30 5554 H 514.754 -0.541525 -3.8804 0
M  V30 5555 H 516.451 -0.932368 -3.9001 0
M  V30 5556 H 513.041 -2.33324 -3.59524 0
M  V30 5557 H 517.225 -3.30841 -3.69943 0
M  V30 5558 H 512.481 -4.70707 -3.90186 0
M  V30 5559 H 516.655 -5.68746 -4.01872 0
M  V30 5560 H 514.282 -6.39135 -4.11596 0
M  V30 5561 N 515.857 1.33968 -0.830081 0
M  V30 5562 C 516.807 2.26845 -0.229242 0
M  V30 5563 C 517.791 1.48862 0.610659 0
M  V30 5564 O 518.983 1.70808 0.464067 0
M  V30 5565 C 516.112 3.3798 0.602057 0
M  V30 5566 C 515.198 4.23369 -0.248866 0
M  V30 5567 N 515.589 4.88182 -1.32334 0
M  V30 5568 C 513.887 4.45987 -0.0344077 0
M  V30 5569 C 514.588 5.51671 -1.84482 0
M  V30 5570 N 513.564 5.31348 -1.14762 0
M  V30 5571 H 517.366 2.74464 -1.05104 0
M  V30 5572 H 514.88 1.4777 -0.673623 0
M  V30 5573 H 516.877 4.03494 1.04873 0
M  V30 5574 H 515.537 2.9191 1.42193 0
M  V30 5575 H 516.548 4.88988 -1.70619 0
M  V30 5576 H 513.225 4.10658 0.752727 0
M  V30 5577 H 514.615 6.13308 -2.74413 0
M  V30 5578 N 517.335 0.585699 1.46312 0
M  V30 5579 C 518.584 0.0701192 2.01578 0
M  V30 5580 C 518.897 -1.29889 1.46247 0
M  V30 5581 O 520.103 -1.90598 1.93351 0
M  V30 5582 C 518.559 0.0747499 3.59822 0
M  V30 5583 C 518.167 1.44226 4.24149 0
M  V30 5584 C 519.911 -0.38673 4.22735 0
M  V30 5585 C 517.818 1.40446 5.74481 0
M  V30 5586 H 516.748 0.0224441 0.753666 0
M  V30 5587 H 519.399 0.737789 1.68015 0
M  V30 5588 H 517.781 -0.659144 3.90476 0
M  V30 5589 H 518.955 2.19612 4.05101 0
M  V30 5590 H 517.27 1.84401 3.73343 0
M  V30 5591 H 519.867 -0.433853 5.32937 0
M  V30 5592 H 520.21 -1.40489 3.91878 0
M  V30 5593 H 520.743 0.293195 3.96718 0
M  V30 5594 H 517.482 2.39952 6.10003 0
M  V30 5595 H 517.002 0.692845 5.95785 0
M  V30 5596 H 518.681 1.11865 6.37256 0
M  V30 5597 N 518.813 -1.54241 0.323641 0
M  V30 5598 C 520.059 -2.00867 -0.279323 0
M  V30 5599 C 520.392 -1.21146 -1.5178 0
M  V30 5600 O 519.667 -0.29378 -1.92269 0
M  V30 5601 C 519.95 -3.54837 -0.613387 0
M  V30 5602 C 519.803 -4.45284 0.635803 0
M  V30 5603 C 521.122 -4.16186 -1.43099 0
M  V30 5604 H 518.241 -0.730177 -0.100049 0
M  V30 5605 H 520.883 -1.84829 0.440235 0
M  V30 5606 H 519.033 -3.68634 -1.22641 0
M  V30 5607 H 520.705 -4.43357 1.27406 0
M  V30 5608 H 518.948 -4.14956 1.26466 0
M  V30 5609 H 519.619 -5.5084 0.357597 0
M  V30 5610 H 522.095 -4.05964 -0.912814 0
M  V30 5611 H 520.971 -5.24031 -1.6335 0
M  V30 5612 H 521.232 -3.69516 -2.42715 0
M  V30 5613 N 520.291 -0.0518155 -1.57515 0
M  V30 5614 C 521.539 0.620595 -1.92336 0
M  V30 5615 C 521.86 1.71345 -0.930907 0
M  V30 5616 O 521.13 1.95885 0.0241341 0
M  V30 5617 H 519.71 0.232226 -0.709986 0
M  V30 5618 H 522.372 -0.104969 -1.94617 0
M  V30 5619 H 521.468 1.05879 -2.93592 0
M  V30 5620 N 521.769 1.56035 0.221574 0
M  V30 5621 C 522.999 1.82864 0.961468 0
M  V30 5622 C 523.407 0.628703 1.78449 0
M  V30 5623 O 522.75 -0.412109 1.79018 0
M  V30 5624 C 522.812 3.03425 1.92804 0
M  V30 5625 C 522.476 4.38429 1.28954 0
M  V30 5626 C 523.473 5.15441 0.679431 0
M  V30 5627 C 521.158 4.85151 1.30131 0
M  V30 5628 C 523.152 6.37337 0.0896148 0
M  V30 5629 C 520.839 6.06989 0.707651 0
M  V30 5630 C 521.837 6.82923 0.102855 0
M  V30 5631 O 521.525 8.02456 -0.48157 0
M  V30 5632 H 521.257 0.611883 0.28736 0
M  V30 5633 H 523.811 2.0397 0.241932 0
M  V30 5634 H 522.041 2.78138 2.68656 0
M  V30 5635 H 523.73 3.17127 2.53348 0
M  V30 5636 H 524.496 4.80452 0.662661 0
M  V30 5637 H 520.375 4.26021 1.76145 0
M  V30 5638 H 523.919 6.96547 -0.383069 0
M  V30 5639 H 519.816 6.41451 0.721834 0
M  V30 5640 H 520.584 8.17636 -0.375887 0
M  V30 5641 N 523.247 -0.488276 1.49845 0
M  V30 5642 C 524.494 -1.24157 1.59973 0
M  V30 5643 C 524.822 -1.92293 0.292182 0
M  V30 5644 O 524.077 -1.81942 -0.720813 0
M  V30 5645 C 524.376 -2.32152 2.71735 0
M  V30 5646 C 524.042 -1.81387 4.12807 0
M  V30 5647 C 522.704 -1.67262 4.51195 0
M  V30 5648 C 525.056 -1.43537 5.01045 0
M  V30 5649 C 522.384 -1.13685 5.7558 0
M  V30 5650 C 524.736 -0.914081 6.25961 0
M  V30 5651 C 523.4 -0.759327 6.63167 0
M  V30 5652 H 522.67 -0.454322 0.585383 0
M  V30 5653 H 525.317 -0.540261 1.83721 0
M  V30 5654 H 523.622 -3.08122 2.42008 0
M  V30 5655 H 525.319 -2.90164 2.76778 0
M  V30 5656 H 521.909 -1.93344 3.82513 0
M  V30 5657 H 526.093 -1.53292 4.72033 0
M  V30 5658 H 521.349 -1.00426 6.03096 0
M  V30 5659 H 525.523 -0.612066 6.93705 0
M  V30 5660 H 523.15 -0.342002 7.5943 0
M  V30 5661 N 524.725 -1.39134 -0.740242 0
M  V30 5662 C 525.95 -1.39518 -1.53459 0
M  V30 5663 C 526.375 0.00968883 -1.88098 0
M  V30 5664 O 525.733 0.995312 -1.51536 0
M  V30 5665 C 525.781 -2.26981 -2.802 0
M  V30 5666 O 524.885 -1.69609 -3.75908 0
M  V30 5667 H 524.226 -0.475328 -0.463637 0
M  V30 5668 H 526.756 -1.83064 -0.913717 0
M  V30 5669 H 526.766 -2.41309 -3.28989 0
M  V30 5670 H 525.441 -3.29081 -2.5432 0
M  V30 5671 H 524.018 -1.64495 -3.34658 0
M  V30 5672 N 526.204 0.969867 -1.24223 0
M  V30 5673 C 527.151 2.06407 -1.0327 0
M  V30 5674 C 528.121 1.66014 0.0533 0
M  V30 5675 O 529.306 1.90533 -0.100896 0
M  V30 5676 C 526.446 3.3909 -0.641262 0
M  V30 5677 C 525.559 3.9269 -1.80051 0
M  V30 5678 C 524.694 5.13631 -1.35486 0
M  V30 5679 C 523.733 5.59423 -2.48419 0
M  V30 5680 N 522.87 6.71586 -2.04737 0
M  V30 5681 H 527.71 2.23663 -1.96923 0
M  V30 5682 H 525.247 1.09624 -0.980862 0
M  V30 5683 H 527.205 4.15323 -0.395351 0
M  V30 5684 H 525.835 3.21765 0.258269 0
M  V30 5685 H 524.887 3.13116 -2.16014 0
M  V30 5686 H 526.199 4.22636 -2.64916 0
M  V30 5687 H 525.353 5.97231 -1.0677 0
M  V30 5688 H 524.092 4.85364 -0.476722 0
M  V30 5689 H 523.097 4.74398 -2.77897 0
M  V30 5690 H 524.322 5.89705 -3.36786 0
M  V30 5691 H 522.268 6.45058 -1.19318 0
M  V30 5692 H 522.185 7.0097 -2.83156 0
M  V30 5693 H 523.453 7.58633 -1.79154 0
M  V30 5694 N 527.682 1.05563 1.17022 0
M  V30 5695 C 528.592 0.670758 2.24807 0
M  V30 5696 C 529.608 -0.309865 1.71219 0
M  V30 5697 O 530.784 -0.161025 2.00755 0
M  V30 5698 C 527.849 0.055337 3.46656 0
M  V30 5699 C 526.91 1.08688 4.15314 0
M  V30 5700 C 526.143 0.500736 5.31346 0
M  V30 5701 O 526.366 -0.688718 5.66227 0
M  V30 5702 O 525.3 1.23683 5.89055 0
M  V30 5703 H 529.126 1.56914 2.60023 0
M  V30 5704 H 526.711 0.827428 1.24395 0
M  V30 5705 H 528.593 -0.286492 4.20425 0
M  V30 5706 H 527.268 -0.816638 3.13229 0
M  V30 5707 H 526.175 1.48077 3.43546 0
M  V30 5708 H 527.508 1.93014 4.52777 0
M  V30 5709 N 529.16 -1.33526 0.837174 0
M  V30 5710 C 530.107 -2.29248 0.267169 0
M  V30 5711 C 531.077 -1.54252 -0.616071 0
M  V30 5712 O 532.262 -1.82559 -0.554699 0
M  V30 5713 C 529.402 -3.40638 -0.553152 0
M  V30 5714 C 528.515 -4.30548 0.353921 0
M  V30 5715 C 527.65 -5.29051 -0.477339 0
M  V30 5716 C 526.689 -6.106 0.42823 0
M  V30 5717 N 525.826 -7.01152 -0.364801 0
M  V30 5718 H 530.666 -2.77398 1.08877 0
M  V30 5719 H 528.203 -1.36496 0.54838 0
M  V30 5720 H 530.161 -4.03921 -1.04422 0
M  V30 5721 H 528.791 -2.93685 -1.33973 0
M  V30 5722 H 527.843 -3.68001 0.963289 0
M  V30 5723 H 529.155 -4.87631 1.04964 0
M  V30 5724 H 528.309 -5.97853 -1.0323 0
M  V30 5725 H 527.048 -4.72541 -1.2065 0
M  V30 5726 H 526.053 -5.40718 0.995219 0
M  V30 5727 H 527.278 -6.69193 1.15573 0
M  V30 5728 H 525.224 -6.47092 -1.07738 0
M  V30 5729 H 525.141 -7.5551 0.272238 0
M  V30 5730 H 526.409 -7.74263 -0.902054 0
M  V30 5731 N 530.638 -0.59345 -1.46 0
M  V30 5732 C 531.548 0.135817 -2.34207 0
M  V30 5733 C 532.564 0.875008 -1.50398 0
M  V30 5734 O 533.74 0.835778 -1.83239 0
M  V30 5735 C 530.805 1.12977 -3.27776 0
M  V30 5736 C 529.866 0.394081 -4.27487 0
M  V30 5737 C 529.099 1.34068 -5.16586 0
M  V30 5738 O 529.322 2.5778 -5.08828 0
M  V30 5739 O 528.256 0.845426 -5.95933 0
M  V30 5740 H 532.082 -0.588691 -2.9794 0
M  V30 5741 H 529.667 -0.353784 -1.45151 0
M  V30 5742 H 531.549 1.70261 -3.85473 0
M  V30 5743 H 530.224 1.83556 -2.66625 0
M  V30 5744 H 529.131 -0.220869 -3.73447 0
M  V30 5745 H 530.464 -0.270939 -4.91454 0
M  V30 5746 N 532.116 1.54067 -0.331816 0
M  V30 5747 C 533.341 2.05599 0.272705 0
M  V30 5748 C 533.766 1.2059 1.44359 0
M  V30 5749 O 533.124 0.216907 1.79998 0
M  V30 5750 C 533.172 3.54188 0.677021 0
M  V30 5751 O 532.276 3.72082 1.77844 0
M  V30 5752 H 531.617 0.662286 0.0476801 0
M  V30 5753 H 534.147 1.98826 -0.482624 0
M  V30 5754 H 534.157 3.96608 0.957415 0
M  V30 5755 H 532.832 4.15513 -0.179325 0
M  V30 5756 H 531.409 3.41566 1.49622 0
M  V30 5757 N 533.594 0.0601682 1.57485 0
M  V30 5758 C 534.822 -0.620937 1.97363 0
M  V30 5759 C 535.237 -1.63846 0.938082 0
M  V30 5760 O 534.594 -1.82339 -0.0766578 0
M  V30 5761 C 534.645 -1.29987 3.37321 0
M  V30 5762 O 534.366 -0.323081 4.36907 0
M  V30 5763 C 535.867 -2.06989 3.92008 0
M  V30 5764 H 533.087 -0.169135 0.649334 0
M  V30 5765 H 535.631 0.129132 2.04092 0
M  V30 5766 H 533.786 -2.0011 3.31715 0
M  V30 5767 H 534.2 -0.808754 5.18227 0
M  V30 5768 H 535.674 -2.49901 4.92192 0
M  V30 5769 H 536.151 -2.92173 3.2792 0
M  V30 5770 H 536.757 -1.41757 4.0098 0
M  V30 5771 N 535.072 -1.5615 -0.213296 0
M  V30 5772 C 535.982 -1.96265 -1.28519 0
M  V30 5773 C 536.998 -0.86765 -1.50824 0
M  V30 5774 O 538.174 -1.17191 -1.63793 0
M  V30 5775 C 535.239 -2.27836 -2.61327 0
M  V30 5776 C 534.3 -3.50949 -2.47252 0
M  V30 5777 C 533.533 -3.81004 -3.73727 0
M  V30 5778 O 533.756 -3.12612 -4.77106 0
M  V30 5779 O 532.69 -4.74477 -3.70344 0
M  V30 5780 H 536.516 -2.87631 -0.974795 0
M  V30 5781 H 534.101 -1.43467 -0.416832 0
M  V30 5782 H 535.983 -2.49299 -3.39747 0
M  V30 5783 H 534.658 -1.39643 -2.9203 0
M  V30 5784 H 533.565 -3.34754 -1.67004 0
M  V30 5785 H 534.898 -4.39551 -2.21486 0
M  V30 5786 N 536.55 0.480323 -1.50102 0
M  V30 5787 C 537.827 1.24159 -1.51142 0
M  V30 5788 C 538.207 2.09605 -0.250818 0
M  V30 5789 O 537.555 2.15274 0.766118 0
M  V30 5790 C 537.765 2.08057 -2.80202 0
M  V30 5791 C 539.113 2.66556 -3.30504 0
M  V30 5792 O 540.137 2.18308 -2.81461 0
M  V30 5793 O 538.996 3.54442 -4.15973 0
M  V30 5794 H 536.09 0.562928 -0.605839 0
M  V30 5795 H 538.636 0.492899 -1.62384 0
M  V30 5796 H 537.408 1.45032 -3.6343 0
M  V30 5797 H 537.031 2.90079 -2.71919 0
M  V30 5798 N 538.028 1.39524 0.732853 0
M  V30 5799 C 539.258 1.3994 1.51988 0
M  V30 5800 C 539.666 -0.00727973 1.89199 0
M  V30 5801 O 539.009 -0.989521 1.54771 0
M  V30 5802 C 539.071 2.21026 2.83527 0
M  V30 5803 C 538.735 3.69633 2.68738 0
M  V30 5804 C 539.732 4.62665 2.37143 0
M  V30 5805 C 537.417 4.13244 2.85542 0
M  V30 5806 C 539.411 5.97291 2.22536 0
M  V30 5807 C 537.098 5.47945 2.70554 0
M  V30 5808 C 538.096 6.39783 2.39097 0
M  V30 5809 O 537.784 7.72002 2.24204 0
M  V30 5810 H 537.516 0.479795 0.476206 0
M  V30 5811 H 540.07 1.8399 0.913054 0
M  V30 5812 H 538.3 1.71728 3.46477 0
M  V30 5813 H 539.989 2.13594 3.45156 0
M  V30 5814 H 540.755 4.30272 2.2381 0
M  V30 5815 H 536.634 3.42094 3.09019 0
M  V30 5816 H 540.178 6.68939 1.97905 0
M  V30 5817 H 536.075 5.79928 2.83466 0
M  V30 5818 H 536.843 7.8275 2.39258 0
M  V30 5819 N 539.506 -0.963266 1.24736 0
M  V30 5820 C 540.454 -2.07985 1.04139 0
M  V30 5821 C 541.448 -1.69381 -0.0250556 0
M  V30 5822 O 542.654 -1.79531 0.129863 0
M  V30 5823 H 539.029 -0.680627 0.319768 0
M  V30 5824 H 541 -2.22517 1.98818 0
M  V30 5825 C 539.749 -3.4123 0.667615 0
M  V30 5826 H 539.072 -3.71397 1.48 0
M  V30 5827 H 540.512 -4.20244 0.563136 0
M  V30 5828 C 538.971 -3.3104 -0.625647 0
M  V30 5829 O 539.501 -3.65334 -1.67016 0
M  V30 5830 N 537.707 -2.84168 -0.608033 0
M  V30 5831 H 537.254 -2.56458 0.242323 0
M  V30 5832 H 537.212 -2.77732 -1.47352 0
M  V30 5833 N 540.985 -1.06182 -1.16461 0
M  V30 5834 C 542.231 -0.779015 -1.87241 0
M  V30 5835 C 542.564 0.692715 -1.81425 0
M  V30 5836 O 541.839 1.5074 -1.22913 0
M  V30 5837 C 542.122 -1.2728 -3.36856 0
M  V30 5838 C 541.975 -2.80821 -3.51368 0
M  V30 5839 C 543.294 -0.879799 -4.31216 0
M  V30 5840 H 540.413 -0.284464 -0.679889 0
M  V30 5841 H 543.055 -1.31755 -1.36896 0
M  V30 5842 H 541.205 -0.814673 -3.79862 0
M  V30 5843 H 542.877 -3.34833 -3.17308 0
M  V30 5844 H 541.12 -3.19606 -2.93316 0
M  V30 5845 H 541.791 -3.10435 -4.56436 0
M  V30 5846 H 544.267 -1.27436 -3.96105 0
M  V30 5847 H 543.143 -1.25278 -5.34412 0
M  V30 5848 H 543.404 0.215372 -4.41575 0
M  V30 5849 N 542.463 1.3308 -0.844243 0
M  V30 5850 C 543.426 2.27403 -0.286485 0
M  V30 5851 C 544.426 1.51179 0.547872 0
M  V30 5852 O 545.616 1.70421 0.360886 0
M  V30 5853 C 542.748 3.35653 0.595813 0
M  V30 5854 H 543.941 2.78248 -1.11885 0
M  V30 5855 H 541.494 1.43574 -0.617749 0
M  V30 5856 H 542.229 2.90058 1.4504 0
M  V30 5857 H 542.014 3.921 -0.00125994 0
M  V30 5858 H 543.504 4.05958 0.979168 0
M  V30 5859 N 543.941 0.601185 1.45683 0
M  V30 5860 C 545.181 0.0968037 2.04171 0
M  V30 5861 C 545.545 -1.2466 1.46027 0
M  V30 5862 O 546.746 -1.84132 1.95829 0
M  V30 5863 C 545.017 0.051384 3.57363 0
M  V30 5864 S 546.576 -0.392737 4.37039 0
M  V30 5865 H 543.394 0.0464504 0.709481 0
M  V30 5866 H 545.996 0.797846 1.78479 0
M  V30 5867 H 544.7 1.03274 3.97193 0
M  V30 5868 H 544.231 -0.671853 3.87621 0
M  V30 5869 H 546.246 -1.64364 4.68187 0
M  V30 5870 N 545.419 -1.53889 0.339982 0
M  V30 5871 C 546.668 -2.00035 -0.258604 0
M  V30 5872 C 546.981 -1.23179 -1.51942 0
M  V30 5873 O 548.187 -1.59784 -2.19503 0
M  V30 5874 C 546.643 -3.56249 -0.511359 0
M  V30 5875 C 546.251 -4.41957 0.733349 0
M  V30 5876 C 547.995 -4.1082 -1.069 0
M  V30 5877 C 545.902 -5.89673 0.451591 0
M  V30 5878 H 544.832 -0.747284 -0.10041 0
M  V30 5879 H 547.483 -1.77776 0.454758 0
M  V30 5880 H 545.865 -3.7456 -1.28533 0
M  V30 5881 H 547.039 -4.35421 1.50815 0
M  V30 5882 H 545.354 -3.9836 1.21237 0
M  V30 5883 H 547.951 -5.18789 -1.2947 0
M  V30 5884 H 548.294 -3.63817 -2.02343 0
M  V30 5885 H 548.827 -3.96205 -0.355817 0
M  V30 5886 H 545.566 -6.40903 1.37565 0
M  V30 5887 H 545.086 -5.99122 -0.285193 0
M  V30 5888 H 546.765 -6.46965 0.0675067 0
M  V30 5889 N 546.897 -0.0685191 -1.57451 0
M  V30 5890 C 547.827 0.89747 -2.15564 0
M  V30 5891 C 548.808 1.31266 -1.08181 0
M  V30 5892 O 549.993 1.38429 -1.36202 0
M  V30 5893 C 547.123 2.16623 -2.71463 0
M  V30 5894 C 546.077 1.89054 -3.83982 0
M  V30 5895 C 545.403 3.22532 -4.26471 0
M  V30 5896 C 546.703 1.1984 -5.08366 0
M  V30 5897 H 548.397 0.413373 -2.96533 0
M  V30 5898 H 545.943 0.197391 -1.42641 0
M  V30 5899 H 547.896 2.84614 -3.10761 0
M  V30 5900 H 546.62 2.67269 -1.8771 0
M  V30 5901 H 545.279 1.23469 -3.45183 0
M  V30 5902 H 544.927 3.71013 -3.39644 0
M  V30 5903 H 544.627 3.04879 -5.02317 0
M  V30 5904 H 546.151 3.91727 -4.68383 0
M  V30 5905 H 547.565 1.77896 -5.45001 0
M  V30 5906 H 545.962 1.12456 -5.89469 0
M  V30 5907 H 547.032 0.176996 -4.84577 0
M  V30 5908 N 548.375 1.56261 0.205012 0
M  V30 5909 C 549.603 1.84141 0.943386 0
M  V30 5910 C 550.018 0.649772 1.77266 0
M  V30 5911 O 549.375 -0.381612 1.78466 0
M  V30 5912 C 549.426 3.10719 1.84759 0
M  V30 5913 O 549.147 4.25286 1.05181 0
M  V30 5914 C 550.648 3.51706 2.69848 0
M  V30 5915 H 547.868 0.611734 0.275721 0
M  V30 5916 H 550.412 2.03364 0.215253 0
M  V30 5917 H 548.567 2.93422 2.52947 0
M  V30 5918 H 548.981 4.97301 1.66709 0
M  V30 5919 H 550.455 4.43266 3.28967 0
M  V30 5920 H 550.932 2.7423 3.43067 0
M  V30 5921 H 551.538 3.71499 2.07047 0
M  V30 5922 N 549.853 -0.472356 1.50355 0
M  V30 5923 C 550.783 -1.57859 1.72055 0
M  V30 5924 C 551.764 -1.60283 0.569505 0
M  V30 5925 O 552.949 -1.7657 0.808503 0
M  V30 5926 C 550.079 -2.96191 1.81351 0
M  V30 5927 C 549.033 -3.08633 2.96529 0
M  V30 5928 C 548.359 -4.486 2.90968 0
M  V30 5929 C 549.659 -2.85969 4.37057 0
M  V30 5930 H 551.353 -1.39953 2.64676 0
M  V30 5931 H 548.899 -0.671846 1.27367 0
M  V30 5932 H 550.852 -3.73507 1.95117 0
M  V30 5933 H 549.576 -3.15251 0.853502 0
M  V30 5934 H 548.235 -2.33749 2.82413 0
M  V30 5935 H 547.883 -4.64577 1.92815 0
M  V30 5936 H 547.583 -4.57861 3.68289 0
M  V30 5937 H 549.107 -5.27938 3.0678 0
M  V30 5938 H 550.521 -3.53036 4.51706 0
M  V30 5939 H 548.918 -3.06677 5.15819 0
M  V30 5940 H 549.988 -1.81838 4.49514 0
M  V30 5941 N 551.331 -1.39911 -0.725443 0
M  V30 5942 C 552.742 -1.33599 -1.30415 0
M  V30 5943 C 553.093 -0.00481792 -1.96199 0
M  V30 5944 O 552.218 0.897275 -1.96921 0
M  V30 5945 C 552.813 -2.41965 -2.37146 0
M  V30 5946 C 551.372 -2.39144 -2.90667 0
M  V30 5947 C 550.519 -2.23355 -1.64341 0
M  V30 5948 H 553.47 -1.4986 -0.522267 0
M  V30 5949 H 553.491 -2.09304 -3.17761 0
M  V30 5950 H 553.003 -3.38837 -1.89238 0
M  V30 5951 H 551.104 -1.4594 -3.4283 0
M  V30 5952 H 551.217 -3.34362 -3.43131 0
M  V30 5953 H 549.581 -1.70696 -1.89037 0
M  V30 5954 H 550.364 -3.2221 -1.18471 0
M  V30 5955 N 552.809 0.956637 -1.25245 0
M  V30 5956 C 554.22 1.51569 -1.09012 0
M  V30 5957 C 554.571 1.93322 0.334813 0
M  V30 5958 O 553.696 1.78421 1.22454 0
M  V30 5959 C 554.291 2.75444 -1.97271 0
M  V30 5960 C 552.85 3.27669 -1.8523 0
M  V30 5961 C 551.997 2.00517 -1.91542 0
M  V30 5962 H 554.948 0.773746 -1.3856 0
M  V30 5963 H 554.969 3.4919 -1.51151 0
M  V30 5964 H 554.481 2.45024 -3.00973 0
M  V30 5965 H 552.582 3.62914 -0.844045 0
M  V30 5966 H 552.695 3.9582 -2.69932 0
M  V30 5967 H 551.059 2.15727 -1.35404 0
M  V30 5968 H 551.842 1.72448 -2.96844 0
M  V30 5969 N 554.287 1.06798 1.15896 0
M  V30 5970 C 555.517 0.807522 1.90165 0
M  V30 5971 C 555.925 -0.642417 1.7796 0
M  V30 5972 O 555.268 -1.45193 1.12537 0
M  V30 5973 C 555.33 1.12939 3.41299 0
M  V30 5974 C 554.994 2.57879 3.7729 0
M  V30 5975 C 555.991 3.56118 3.78782 0
M  V30 5976 C 553.676 2.93311 4.07767 0
M  V30 5977 C 555.67 4.87827 4.10248 0
M  V30 5978 C 553.357 4.25219 4.38899 0
M  V30 5979 C 554.355 5.22287 4.4012 0
M  V30 5980 O 554.043 6.51826 4.70508 0
M  V30 5981 H 553.775 0.291946 0.609708 0
M  V30 5982 H 556.329 1.42627 1.47806 0
M  V30 5983 H 554.559 0.45359 3.84031 0
M  V30 5984 H 556.248 0.852363 3.9685 0
M  V30 5985 H 557.014 3.30086 3.55342 0
M  V30 5986 H 552.893 2.18409 4.05979 0
M  V30 5987 H 556.437 5.63586 4.11116 0
M  V30 5988 H 552.334 4.51006 4.61805 0
M  V30 5989 H 553.102 6.56893 4.88298 0
M  V30 5990 N 555.766 -1.3263 0.851289 0
M  V30 5991 C 556.698 -2.27824 0.250757 0
M  V30 5992 C 557.711 -1.52285 -0.575598 0
M  V30 5993 O 558.9 -1.73946 -0.400638 0
M  V30 5994 C 556 -3.3232 -0.664571 0
M  V30 5995 C 555.173 -4.37221 0.125187 0
M  V30 5996 C 554.232 -5.21314 -0.715385 0
M  V30 5997 O 553.258 -5.69002 -0.150111 0
M  V30 5998 N 554.46 -5.43823 -2.03069 0
M  V30 5999 H 557.225 -2.79997 1.06873 0
M  V30 6000 H 554.786 -1.45455 0.710943 0
M  V30 6001 H 556.778 -3.85486 -1.23216 0
M  V30 6002 H 555.348 -2.80331 -1.38323 0
M  V30 6003 H 554.568 -3.84384 0.874199 0
M  V30 6004 H 555.856 -5.04399 0.667774 0
M  V30 6005 H 555.254 -5.06803 -2.51332 0
M  V30 6006 H 553.811 -5.99998 -2.54648 0
M  V30 6007 N 557.244 -0.608902 -1.45362 0
M  V30 6008 C 558.66 -0.272659 -1.57254 0
M  V30 6009 C 558.86 1.22477 -1.60005 0
M  V30 6010 O 557.916 2.00785 -1.53106 0
M  V30 6011 C 559.229 -0.944991 -2.85465 0
M  V30 6012 C 560.777 -0.921033 -2.99142 0
M  V30 6013 C 561.252 -1.5734 -4.30126 0
M  V30 6014 N 562.743 -1.53895 -4.36887 0
M  V30 6015 C 563.478 -2.01286 -5.36909 0
M  V30 6016 N 562.974 -2.56768 -6.43461 0
M  V30 6017 N 564.767 -1.92046 -5.28275 0
M  V30 6018 H 556.918 -1.58117 -1.4182 0
M  V30 6019 H 559.181 -0.662437 -0.678146 0
M  V30 6020 H 558.887 -1.99941 -2.89338 0
M  V30 6021 H 558.761 -0.469079 -3.74272 0
M  V30 6022 H 561.148 0.124846 -2.94836 0
M  V30 6023 H 561.229 -1.43522 -2.11743 0
M  V30 6024 H 560.873 -2.61862 -4.35191 0
M  V30 6025 H 560.803 -1.03422 -5.16344 0
M  V30 6026 H 563.294 -1.13366 -3.60495 0
M  V30 6027 H 563.607 -2.9072 -7.16032 0
M  V30 6028 H 561.952 -2.60808 -6.44208 0
M  V30 6029 H 565.143 -1.48439 -4.43941 0
M  V30 6030 H 565.316 -2.29293 -6.06077 0
M  V30 6031 N 558.722 1.53707 -0.348139 0
M  V30 6032 C 560.138 1.596 0.00361134 0
M  V30 6033 C 560.338 1.36394 1.4832 0
M  V30 6034 O 559.394 1.16046 2.24253 0
M  V30 6035 C 560.707 2.97512 -0.436682 0
M  V30 6036 C 562.255 3.10568 -0.389416 0
M  V30 6037 C 562.73 4.50866 -0.805249 0
M  V30 6038 N 564.221 4.56929 -0.759616 0
M  V30 6039 C 564.956 5.63643 -1.05327 0
M  V30 6040 N 564.452 6.78189 -1.41531 0
M  V30 6041 N 566.245 5.5354 -0.977207 0
M  V30 6042 H 558.396 1.67044 -1.31187 0
M  V30 6043 H 560.659 0.782559 -0.535075 0
M  V30 6044 H 560.365 3.19575 -1.46849 0
M  V30 6045 H 560.239 3.76742 0.185744 0
M  V30 6046 H 562.626 2.88226 0.633228 0
M  V30 6047 H 562.707 2.33387 -1.04711 0
M  V30 6048 H 562.351 4.73943 -1.82593 0
M  V30 6049 H 562.281 5.26452 -0.124989 0
M  V30 6050 H 564.772 3.74675 -0.49265 0
M  V30 6051 H 565.085 7.55541 -1.62411 0
M  V30 6052 H 563.43 6.79624 -1.45381 0
M  V30 6053 H 566.621 4.62932 -0.693675 0
M  V30 6054 H 566.794 6.36614 -1.2094 0
M  V30 6055 N 560.2 0.0768682 1.57412 0
M  V30 6056 C 561.448 -0.589918 1.93299 0
M  V30 6057 C 561.769 -1.69842 0.958049 0
M  V30 6058 O 561.039 -1.95899 0.00703261 0
M  V30 6059 H 559.619 -0.220901 0.713591 0
M  V30 6060 H 562.281 0.135917 1.94425 0
M  V30 6061 H 561.377 -1.01195 2.95239 0
M  V30 6062 N 561.678 -1.56367 -0.196722 0
M  V30 6063 C 562.908 -1.84371 -0.932254 0
M  V30 6064 C 563.316 -0.657013 -1.77426 0
M  V30 6065 O 562.659 0.383576 -1.79651 0
M  V30 6066 C 562.721 -3.06454 -1.87952 0
M  V30 6067 C 562.385 -4.40425 -1.21962 0
M  V30 6068 C 563.382 -5.16457 -0.597343 0
M  V30 6069 C 561.067 -4.8716 -1.22396 0
M  V30 6070 C 563.061 -6.37399 0.0117913 0
M  V30 6071 C 560.748 -6.08038 -0.610995 0
M  V30 6072 C 561.746 -6.83 0.00580487 0
M  V30 6073 O 561.434 -8.01589 0.609173 0
M  V30 6074 H 561.166 -0.616377 -0.277589 0
M  V30 6075 H 563.72 -2.04329 -0.209452 0
M  V30 6076 H 561.95 -2.82377 -2.64197 0
M  V30 6077 H 563.639 -3.21118 -2.48271 0
M  V30 6078 H 564.405 -4.81445 -0.586142 0
M  V30 6079 H 560.284 -4.2877 -1.69345 0
M  V30 6080 H 563.828 -6.9585 0.493836 0
M  V30 6081 H 559.725 -6.42519 -0.619693 0
M  V30 6082 H 560.493 -8.16935 0.505919 0
M  V30 6083 N 563.156 0.464375 -1.50603 0
M  V30 6084 C 564.404 1.21356 -1.61608 0
M  V30 6085 C 564.725 1.92329 -0.321643 0
M  V30 6086 O 563.995 1.84403 0.661232 0
M  V30 6087 H 562.575 0.45094 -0.595535 0
M  V30 6088 H 565.237 0.535046 -1.87412 0
M  V30 6089 H 564.333 1.95783 -2.43054 0
M  V30 6090 N 564.634 1.40294 0.718013 0
M  V30 6091 C 565.581 1.40367 1.8321 0
M  V30 6092 C 566.551 0.260952 1.64037 0
M  V30 6093 O 567.736 0.458648 1.85205 0
M  V30 6094 C 564.876 1.26965 3.20895 0
M  V30 6095 C 563.989 2.50922 3.51656 0
M  V30 6096 C 563.124 2.29981 4.78834 0
M  V30 6097 C 562.163 3.49527 5.02491 0
M  V30 6098 N 561.3 3.27796 6.20882 0
M  V30 6099 H 566.14 2.35593 1.82482 0
M  V30 6100 H 563.677 1.17012 0.891444 0
M  V30 6101 H 565.635 1.17202 4.00399 0
M  V30 6102 H 564.265 0.353591 3.20858 0
M  V30 6103 H 563.317 2.71223 2.66725 0
M  V30 6104 H 564.629 3.39913 3.65048 0
M  V30 6105 H 563.783 2.17558 5.66351 0
M  V30 6106 H 562.522 1.38411 4.67647 0
M  V30 6107 H 561.527 3.6243 4.1343 0
M  V30 6108 H 562.752 4.42021 5.15553 0
M  V30 6109 H 560.698 2.38906 6.1095 0
M  V30 6110 H 560.615 4.10351 6.34939 0
M  V30 6111 H 561.883 3.19101 7.11193 0
M  V30 6112 N 566.112 -0.949982 1.2575 0
M  V30 6113 C 567.042 -2.06483 1.09028 0
M  V30 6114 C 568.023 -1.701 -0.00201532 0
M  V30 6115 O 569.208 -1.93469 0.168383 0
M  V30 6116 C 566.338 -3.39899 0.71316 0
M  V30 6117 C 565.292 -3.90309 1.75621 0
M  V30 6118 C 564.618 -5.20274 1.23365 0
M  V30 6119 C 565.918 -4.16169 3.15596 0
M  V30 6120 H 567.612 -2.20731 2.02283 0
M  V30 6121 H 565.158 -1.06066 0.973964 0
M  V30 6122 H 567.111 -4.17346 0.58309 0
M  V30 6123 H 565.835 -3.25602 -0.255091 0
M  V30 6124 H 564.494 -3.15035 1.8748 0
M  V30 6125 H 564.142 -5.02351 0.255491 0
M  V30 6126 H 563.842 -5.54971 1.93082 0
M  V30 6127 H 565.366 -6.00314 1.11607 0
M  V30 6128 H 566.78 -4.84259 3.06864 0
M  V30 6129 H 565.177 -4.62131 3.82825 0
M  V30 6130 H 566.247 -3.22273 3.6231 0
M  V30 6131 N 567.59 -1.07411 -1.15328 0
M  V30 6132 C 568.52 -0.716472 -2.22236 0
M  V30 6133 C 569.501 0.296373 -1.67498 0
M  V30 6134 O 570.686 0.168989 -1.93463 0
M  V30 6135 C 567.816 -0.114142 -3.47112 0
M  V30 6136 C 566.77 -1.05421 -4.14814 0
M  V30 6137 C 566.096 -0.314604 -5.33774 0
M  V30 6138 C 567.396 -2.38808 -4.64508 0
M  V30 6139 H 569.09 -1.61029 -2.52408 0
M  V30 6140 H 566.636 -0.775702 -1.21321 0
M  V30 6141 H 568.589 0.148001 -4.2114 0
M  V30 6142 H 567.313 0.814755 -3.16274 0
M  V30 6143 H 565.972 -1.30128 -3.42728 0
M  V30 6144 H 565.62 0.617772 -4.99192 0
M  V30 6145 H 565.32 -0.941209 -5.80013 0
M  V30 6146 H 566.844 -0.0602747 -6.1057 0
M  V30 6147 H 568.258 -2.18424 -5.3006 0
M  V30 6148 H 566.655 -2.97069 -5.21412 0
M  V30 6149 H 567.725 -3.01067 -3.80114 0
M  V30 6150 N 569.068 1.32177 -0.85831 0
M  V30 6151 C 570.317 1.96392 -0.459689 0
M  V30 6152 C 570.63 1.68659 0.990632 0
M  V30 6153 O 571.836 2.26641 1.49485 0
M  V30 6154 C 570.292 3.51542 -0.7711 0
M  V30 6155 C 569.9 3.8813 -2.2374 0
M  V30 6156 C 571.644 4.2221 -0.44038 0
M  V30 6157 C 569.551 5.36341 -2.49183 0
M  V30 6158 H 568.481 0.735007 -0.168169 0
M  V30 6159 H 571.132 1.50518 -1.0496 0
M  V30 6160 H 569.514 3.95846 -0.11058 0
M  V30 6161 H 570.688 3.54824 -2.94001 0
M  V30 6162 H 569.003 3.30497 -2.533 0
M  V30 6163 H 571.6 5.31234 -0.607855 0
M  V30 6164 H 571.943 4.11683 0.618291 0
M  V30 6165 H 572.476 3.83502 -1.05695 0
M  V30 6166 H 569.215 5.51892 -3.53689 0
M  V30 6167 H 568.735 5.7104 -1.83504 0
M  V30 6168 H 570.414 6.03466 -2.33318 0
M  V30 6169 N 570.547 0.616602 1.45037 0
M  V30 6170 C 571.457 -0.0985401 2.34393 0
M  V30 6171 C 572.473 -0.850971 1.51771 0
M  V30 6172 O 573.649 -0.806521 1.84546 0
M  V30 6173 C 570.714 -1.07748 3.29532 0
M  V30 6174 C 569.775 -0.326022 4.2806 0
M  V30 6175 C 569.008 -1.25833 5.18654 0
M  V30 6176 O 569.231 -2.49652 5.12864 0
M  V30 6177 O 568.165 -0.750512 5.97203 0
M  V30 6178 H 571.991 0.636016 2.96966 0
M  V30 6179 H 569.576 0.376832 1.44569 0
M  V30 6180 H 571.458 -1.64107 3.88133 0
M  V30 6181 H 570.133 -1.79291 2.69512 0
M  V30 6182 H 569.04 0.280253 3.73049 0
M  V30 6183 H 570.373 0.349091 4.9096 0
M  V30 6184 N 572.025 -1.5352 0.356285 0
M  V30 6185 C 573.272 -2.01117 -0.236303 0
M  V30 6186 C 573.6 -1.24381 -1.49531 0
M  V30 6187 O 572.855 -0.323057 -1.93015 0
M  V30 6188 C 573.154 -3.52607 -0.583369 0
M  V30 6189 C 572.82 -4.47151 0.58023 0
M  V30 6190 C 571.482 -4.72718 0.899528 0
M  V30 6191 C 573.834 -5.03137 1.36024 0
M  V30 6192 C 571.162 -5.51523 2.00098 0
M  V30 6193 C 573.514 -5.83145 2.45204 0
M  V30 6194 C 572.178 -6.07001 2.77679 0
M  V30 6195 H 571.448 -0.735938 -0.0864695 0
M  V30 6196 H 574.095 -1.85209 0.48683 0
M  V30 6197 H 572.4 -3.66413 -1.38739 0
M  V30 6198 H 574.097 -3.86901 -1.05397 0
M  V30 6199 H 570.687 -4.27394 0.321322 0
M  V30 6200 H 574.871 -4.83339 1.12682 0
M  V30 6201 H 570.127 -5.68229 2.25668 0
M  V30 6202 H 574.301 -6.25537 3.06067 0
M  V30 6203 H 571.928 -6.67851 3.63151 0
M  V30 6204 N 573.503 -0.0852151 -1.57369 0
M  V30 6205 C 574.728 0.592872 -1.98746 0
M  V30 6206 C 575.153 1.61538 -0.963689 0
M  V30 6207 O 574.511 1.81168 0.069071 0
M  V30 6208 C 574.559 1.22599 -3.39119 0
M  V30 6209 O 573.663 2.34185 -3.39457 0
M  V30 6210 H 573.004 0.151314 -0.646529 0
M  V30 6211 H 575.534 -0.163703 -2.03944 0
M  V30 6212 H 575.544 1.56965 -3.76598 0
M  V30 6213 H 574.219 0.476831 -4.13158 0
M  V30 6214 H 572.796 2.01512 -3.13763 0
M  V30 6215 N 574.981 1.5647 0.188427 0
M  V30 6216 C 576.211 1.84863 0.922463 0
M  V30 6217 C 576.619 0.666413 1.77075 0
M  V30 6218 O 575.962 -0.374044 1.79852 0
M  V30 6219 C 576.024 3.07447 1.86324 0
M  V30 6220 C 575.688 4.41066 1.19625 0
M  V30 6221 C 576.685 5.16767 0.569946 0
M  V30 6222 C 574.37 4.87802 1.19811 0
M  V30 6223 C 576.364 6.37384 -0.045594 0
M  V30 6224 C 574.051 6.08353 0.57874 0
M  V30 6225 C 575.049 6.82987 -0.0420259 0
M  V30 6226 O 574.737 8.01254 -0.651675 0
M  V30 6227 H 574.469 0.61784 0.274316 0
M  V30 6228 H 577.023 2.04437 0.198613 0
M  V30 6229 H 575.253 2.83774 2.62696 0
M  V30 6230 H 576.942 3.2243 2.46564 0
M  V30 6231 H 577.708 4.81749 0.560601 0
M  V30 6232 H 573.587 4.29662 1.67069 0
M  V30 6233 H 577.131 6.95578 -0.530731 0
M  V30 6234 H 573.028 6.42838 0.58561 0
M  V30 6235 H 573.796 8.16655 -0.549236 0
M  V30 6236 N 576.459 -0.456382 1.50847 0
M  V30 6237 C 577.369 -1.57805 1.73594 0
M  V30 6238 C 578.385 -1.62599 0.619476 0
M  V30 6239 O 579.561 -1.80195 0.899532 0
M  V30 6240 C 576.626 -2.93926 1.8387 0
M  V30 6241 C 575.687 -2.99402 3.07663 0
M  V30 6242 C 574.92 -4.29031 3.1744 0
M  V30 6243 O 575.143 -5.20358 2.33631 0
M  V30 6244 O 574.077 -4.40401 4.10281 0
M  V30 6245 H 577.903 -1.41531 2.68705 0
M  V30 6246 H 575.488 -0.637422 1.3512 0
M  V30 6247 H 577.37 -3.74747 1.92725 0
M  V30 6248 H 576.045 -3.10368 0.91944 0
M  V30 6249 H 574.952 -2.17606 3.043 0
M  V30 6250 H 576.285 -2.87901 3.99216 0
M  V30 6251 N 577.937 -1.40673 -0.710563 0
M  V30 6252 C 578.867 -1.44095 -1.83736 0
M  V30 6253 C 579.848 -0.301286 -1.67411 0
M  V30 6254 O 581.033 -0.510618 -1.87367 0
M  V30 6255 C 578.163 -1.30773 -3.21738 0
M  V30 6256 C 577.117 -2.42395 -3.52745 0
M  V30 6257 C 576.443 -2.14147 -4.89944 0
M  V30 6258 C 577.743 -3.84738 -3.53234 0
M  V30 6259 H 579.437 -2.38396 -1.81129 0
M  V30 6260 H 576.983 -1.14746 -0.870017 0
M  V30 6261 H 578.936 -1.31783 -4.00264 0
M  V30 6262 H 577.66 -0.329507 -3.24934 0
M  V30 6263 H 576.319 -2.40643 -2.76562 0
M  V30 6264 H 575.967 -1.14703 -4.89747 0
M  V30 6265 H 575.667 -2.88934 -5.11655 0
M  V30 6266 H 577.191 -2.16848 -5.70797 0
M  V30 6267 H 578.605 -3.88286 -4.2179 0
M  V30 6268 H 577.002 -4.59085 -3.86473 0
M  V30 6269 H 578.072 -4.13962 -2.52514 0
M  V30 6270 N 579.415 0.9433 -1.26252 0
M  V30 6271 C 580.64 1.72898 -1.14547 0
M  V30 6272 C 581.065 1.85761 0.295743 0
M  V30 6273 O 580.423 1.3463 1.21427 0
M  V30 6274 C 580.471 3.11471 -1.8171 0
M  V30 6275 O 579.575 3.97336 -1.10445 0
M  V30 6276 H 578.916 0.530555 -0.399259 0
M  V30 6277 H 581.446 1.18159 -1.67032 0
M  V30 6278 H 581.456 3.61872 -1.88449 0
M  V30 6279 H 580.131 3.01425 -2.86558 0
M  V30 6280 H 578.708 3.55788 -1.11666 0
M  V30 6281 N 580.893 1.08022 1.14757 0
M  V30 6282 C 581.84 0.706657 2.19716 0
M  V30 6283 C 582.81 -0.30525 1.63271 0
M  V30 6284 O 583.995 -0.19015 1.8985 0
M  V30 6285 C 581.135 0.117914 3.44898 0
M  V30 6286 C 580.248 1.18212 4.15512 0
M  V30 6287 C 579.383 0.557659 5.28265 0
M  V30 6288 C 578.422 1.60418 5.90705 0
M  V30 6289 N 577.559 1.0018 6.94916 0
M  V30 6290 H 582.399 1.60603 2.51019 0
M  V30 6291 H 579.936 0.802664 1.23271 0
M  V30 6292 H 581.894 -0.241112 4.16503 0
M  V30 6293 H 580.524 -0.744788 3.1409 0
M  V30 6294 H 579.576 1.65863 3.42335 0
M  V30 6295 H 580.888 1.97533 4.5802 0
M  V30 6296 H 580.042 0.146654 6.06523 0
M  V30 6297 H 578.781 -0.267249 4.86967 0
M  V30 6298 H 577.786 2.02489 5.11154 0
M  V30 6299 H 579.011 2.43149 6.34078 0
M  V30 6300 H 576.957 0.197917 6.55701 0
M  V30 6301 H 576.874 1.73216 7.35889 0
M  V30 6302 H 578.142 0.616523 7.77058 0
M  V30 6303 N 582.371 -1.3172 0.865308 0
M  V30 6304 C 583.617 -1.97168 0.474633 0
M  V30 6305 C 583.95 -1.68263 -0.969604 0
M  V30 6306 O 583.225 -0.976588 -1.68205 0
M  V30 6307 C 583.508 -3.52689 0.726808 0
M  V30 6308 C 583.361 -3.91185 2.22024 0
M  V30 6309 C 584.68 -4.39689 0.190201 0
M  V30 6310 H 581.799 -0.716185 0.17392 0
M  V30 6311 H 584.441 -1.55925 1.08569 0
M  V30 6312 H 582.591 -3.8795 0.206705 0
M  V30 6313 H 584.263 -3.66049 2.80724 0
M  V30 6314 H 582.506 -3.3996 2.69462 0
M  V30 6315 H 583.177 -4.99604 2.34735 0
M  V30 6316 H 585.653 -4.11225 0.635103 0
M  V30 6317 H 584.529 -5.47469 0.396132 0
M  V30 6318 H 584.79 -4.32683 -0.907625 0
M  V30 6319 N 583.85 -0.624285 -1.44708 0
M  V30 6320 C 584.76 0.0861083 -2.34442 0
M  V30 6321 C 585.776 0.84291 -1.5222 0
M  V30 6322 O 586.952 0.796723 -1.84971 0
M  V30 6323 C 584.017 1.05999 -3.30099 0
M  V30 6324 C 583.077 0.303316 -4.28227 0
M  V30 6325 C 582.311 1.23081 -5.19314 0
M  V30 6326 O 582.534 2.46929 -5.14181 0
M  V30 6327 O 581.468 0.71883 -5.97592 0
M  V30 6328 H 585.293 -0.651756 -2.96624 0
M  V30 6329 H 582.879 -0.384493 -1.44368 0
M  V30 6330 H 584.76 1.62046 -3.88997 0
M  V30 6331 H 583.436 1.77859 -2.70459 0
M  V30 6332 H 582.343 -0.300033 -3.72895 0
M  V30 6333 H 583.676 -0.375123 -4.90768 0
M  V30 6334 N 585.328 1.53329 -0.364422 0
M  V30 6335 C 586.576 2.00842 0.225189 0
M  V30 6336 C 586.897 1.25345 1.49378 0
M  V30 6337 O 586.167 0.366396 1.92443 0
M  V30 6338 H 584.747 0.742009 0.0862027 0
M  V30 6339 H 587.409 1.8863 -0.490389 0
M  V30 6340 H 586.505 3.08795 0.452987 0
M  V30 6341 N 586.806 0.0935595 1.57322 0
M  V30 6342 C 587.753 -0.865935 2.1394 0
M  V30 6343 C 588.723 -1.28083 1.05754 0
M  V30 6344 O 589.908 -1.36285 1.33533 0
M  V30 6345 C 587.048 -2.12023 2.72287 0
M  V30 6346 C 586.161 -1.756 3.94701 0
M  V30 6347 C 585.296 -2.95804 4.41218 0
M  V30 6348 C 584.335 -2.555 5.56225 0
M  V30 6349 N 583.472 -3.68534 5.97601 0
M  V30 6350 H 588.312 -0.376261 2.95615 0
M  V30 6351 H 585.849 -0.174052 1.46067 0
M  V30 6352 H 587.807 -2.85477 3.04235 0
M  V30 6353 H 586.437 -2.58492 1.93343 0
M  V30 6354 H 585.489 -0.921208 3.69077 0
M  V30 6355 H 586.801 -1.41964 4.78171 0
M  V30 6356 H 585.955 -3.77513 4.74941 0
M  V30 6357 H 584.694 -3.32649 3.56645 0
M  V30 6358 H 583.699 -1.72218 5.22131 0
M  V30 6359 H 584.924 -2.19801 6.42545 0
M  V30 6360 H 582.87 -4.051 5.15974 0
M  V30 6361 H 582.787 -3.38737 6.75865 0
M  V30 6362 H 584.055 -4.50757 6.35955 0
M  V30 6363 N 588.284 -1.56567 -0.180126 0
M  V30 6364 C 589.512 -1.85618 -0.913972 0
M  V30 6365 C 589.927 -0.677892 -1.7621 0
M  V30 6366 O 589.284 0.353171 -1.7905 0
M  V30 6367 C 589.335 -3.13619 -1.79793 0
M  V30 6368 O 589.056 -4.26906 -0.98402 0
M  V30 6369 C 590.557 -3.55954 -2.64219 0
M  V30 6370 H 587.777 -0.616043 -0.265954 0
M  V30 6371 H 590.321 -2.03681 -0.182872 0
M  V30 6372 H 588.476 -2.97409 -2.48247 0
M  V30 6373 H 588.89 -4.9989 -1.58776 0
M  V30 6374 H 590.364 -4.48444 -3.21873 0
M  V30 6375 H 590.841 -2.79653 -3.38661 0
M  V30 6376 H 591.447 -3.74746 -2.01111 0
M  V30 6377 N 589.762 0.448376 -1.51087 0
M  V30 6378 C 591.01 1.19635 -1.62886 0
M  V30 6379 C 591.331 1.91977 -0.342024 0
M  V30 6380 O 590.601 1.85094 0.641636 0
M  V30 6381 H 589.181 0.444598 -0.600285 0
M  V30 6382 H 591.843 0.515138 -1.87969 0
M  V30 6383 H 590.939 1.93194 -2.45117 0
M  V30 6384 N 591.24 1.41047 0.703093 0
M  V30 6385 C 592.468 1.4334 1.49202 0
M  V30 6386 C 592.883 0.0365596 1.88765 0
M  V30 6387 O 592.24 -0.942419 1.56284 0
M  V30 6388 C 592.291 2.33538 2.75939 0
M  V30 6389 O 592.012 3.67786 2.38045 0
M  V30 6390 C 593.513 2.44555 3.6974 0
M  V30 6391 H 590.733 0.488472 0.460039 0
M  V30 6392 H 593.277 1.85245 0.86629 0
M  V30 6393 H 591.432 1.94962 3.34766 0
M  V30 6394 H 591.846 4.15816 3.19683 0
M  V30 6395 H 593.32 3.11849 4.55471 0
M  V30 6396 H 593.797 1.47447 4.1371 0
M  V30 6397 H 594.403 2.83735 3.16819 0
M  V30 6398 N 592.718 -0.936591 1.26751 0
M  V30 6399 C 594.129 -1.49816 1.1141 0
M  V30 6400 C 594.48 -1.9383 -0.304015 0
M  V30 6401 O 593.605 -1.80346 -1.196 0
M  V30 6402 C 594.2 -2.72271 2.01629 0
M  V30 6403 C 592.759 -3.2468 1.9042 0
M  V30 6404 C 591.906 -1.97444 1.94708 0
M  V30 6405 H 594.857 -0.751604 1.39773 0
M  V30 6406 H 594.878 -3.46741 1.56688 0
M  V30 6407 H 594.39 -2.40205 3.04833 0
M  V30 6408 H 592.491 -3.61525 0.901674 0
M  V30 6409 H 592.604 -3.91476 2.76195 0
M  V30 6410 H 590.968 -2.13545 1.38818 0
M  V30 6411 H 591.751 -1.67703 2.9955 0
M  V30 6412 N 594.196 -1.08629 -1.14182 0
M  V30 6413 C 595.106 -0.730126 -2.22949 0
M  V30 6414 C 596.122 0.26436 -1.7198 0
M  V30 6415 O 597.298 0.107742 -2.01112 0
M  V30 6416 C 594.363 -0.147227 -3.46387 0
M  V30 6417 C 593.424 -1.19662 -4.12286 0
M  V30 6418 C 592.657 -0.641437 -5.29831 0
M  V30 6419 O 592.88 0.538351 -5.67854 0
M  V30 6420 O 591.814 -1.39257 -5.85569 0
M  V30 6421 H 595.64 -1.63753 -2.55771 0
M  V30 6422 H 593.225 -0.860118 -1.22157 0
M  V30 6423 H 595.107 0.174923 -4.21037 0
M  V30 6424 H 593.782 0.733304 -3.15285 0
M  V30 6425 H 592.689 -1.57133 -3.395 0
M  V30 6426 H 594.022 -2.0495 -4.475 0
M  V30 6427 N 595.674 1.31259 -0.872281 0
M  V30 6428 C 596.621 2.28459 -0.327857 0
M  V30 6429 C 597.591 1.55831 0.574957 0
M  V30 6430 O 598.776 1.83965 0.506101 0
M  V30 6431 C 595.916 3.41985 0.462644 0
M  V30 6432 C 595.029 4.29458 -0.467949 0
M  V30 6433 C 594.164 5.30131 0.336903 0
M  V30 6434 C 593.203 6.0925 -0.58997 0
M  V30 6435 N 592.34 7.01872 0.178775 0
M  V30 6436 H 597.18 2.74414 -1.16193 0
M  V30 6437 H 594.717 1.34994 -0.584376 0
M  V30 6438 H 596.675 4.06547 0.936759 0
M  V30 6439 H 595.305 2.97134 1.2614 0
M  V30 6440 H 594.357 3.65318 -1.06052 0
M  V30 6441 H 595.669 4.84677 -1.17856 0
M  V30 6442 H 594.823 6.0038 0.873427 0
M  V30 6443 H 593.562 4.75573 1.08079 0
M  V30 6444 H 592.567 5.37889 -1.13823 0
M  V30 6445 H 593.792 6.65894 -1.33275 0
M  V30 6446 H 591.738 6.49721 0.905435 0
M  V30 6447 H 591.655 7.54522 -0.472452 0
M  V30 6448 H 592.923 7.76382 0.696454 0
M  V30 6449 N 597.152 0.631951 1.44375 0
M  V30 6450 C 598.563 0.219036 1.85411 0
M  V30 6451 C 598.914 -1.22974 1.52879 0
M  V30 6452 O 598.039 -1.93579 0.967266 0
M  V30 6453 C 598.634 0.39075 3.36539 0
M  V30 6454 C 597.193 0.0323351 3.76386 0
M  V30 6455 C 596.34 0.703744 2.68221 0
M  V30 6456 H 599.291 0.837056 1.3483 0
M  V30 6457 H 599.312 -0.370056 3.78696 0
M  V30 6458 H 598.824 1.44527 3.60185 0
M  V30 6459 H 596.925 -1.02042 3.58355 0
M  V30 6460 H 597.038 0.442969 4.77048 0
M  V30 6461 H 595.402 0.138974 2.54321 0
M  V30 6462 H 596.185 1.76088 2.947 0
M  V30 6463 N 598.631 -1.53133 0.372548 0
M  V30 6464 C 599.561 -2.28876 -0.462412 0
M  V30 6465 C 600.542 -1.31583 -1.07796 0
M  V30 6466 O 601.727 -1.60461 -1.09389 0
M  V30 6467 C 598.857 -3.08317 -1.59868 0
M  V30 6468 C 597.811 -4.13355 -1.11003 0
M  V30 6469 C 597.137 -4.8092 -2.33708 0
M  V30 6470 C 598.437 -5.21955 -0.18983 0
M  V30 6471 H 600.131 -2.9892 0.169511 0
M  V30 6472 H 597.677 -1.43761 0.0829658 0
M  V30 6473 H 599.63 -3.60055 -2.18949 0
M  V30 6474 H 598.354 -2.35976 -2.25794 0
M  V30 6475 H 597.013 -3.62573 -0.541869 0
M  V30 6476 H 596.661 -4.05144 -2.98106 0
M  V30 6477 H 596.361 -5.51904 -2.01682 0
M  V30 6478 H 597.885 -5.35455 -2.93462 0
M  V30 6479 H 599.299 -5.69153 -0.688319 0
M  V30 6480 H 597.696 -6.00087 0.0398887 0
M  V30 6481 H 598.766 -4.78811 0.766057 0
M  V30 6482 N 600.109 -0.101901 -1.5727 0
M  V30 6483 C 601.334 0.571759 -1.99363 0
M  V30 6484 C 601.759 1.60507 -0.980768 0
M  V30 6485 O 601.117 1.81231 0.0498517 0
M  V30 6486 C 601.165 1.18996 -3.404 0
M  V30 6487 O 600.269 2.30572 -3.41922 0
M  V30 6488 H 599.61 0.144449 -0.648098 0
M  V30 6489 H 602.14 -0.185325 -2.03759 0
M  V30 6490 H 602.15 1.52962 -3.78241 0
M  V30 6491 H 600.825 0.432984 -4.1364 0
M  V30 6492 H 599.402 1.98173 -3.15883 0
M  V30 6493 N 601.587 1.56661 0.17182 0
M  V30 6494 C 602.864 1.72838 0.915778 0
M  V30 6495 C 603.244 0.66316 2.00413 0
M  V30 6496 O 602.592 -0.322123 2.26218 0
M  V30 6497 C 602.802 3.16019 1.48097 0
M  V30 6498 C 604.15 3.76962 1.95408 0
M  V30 6499 O 605.174 3.19294 1.57892 0
M  V30 6500 O 604.033 4.78219 2.64516 0
M  V30 6501 H 601.127 0.705797 0.431021 0
M  V30 6502 H 603.673 1.68947 0.159689 0
M  V30 6503 H 602.445 3.85031 0.697618 0
M  V30 6504 H 602.068 3.24234 2.30126 0
M  V30 6505 N 603.065 -0.440357 1.51323 0
M  V30 6506 C 603.995 -1.54174 1.75364 0
M  V30 6507 C 604.976 -1.59039 0.603375 0
M  V30 6508 O 606.161 -1.74815 0.845774 0
M  V30 6509 C 603.291 -2.92277 1.87593 0
M  V30 6510 C 602.245 -3.02274 3.03009 0
M  V30 6511 C 601.571 -4.42327 3.00418 0
M  V30 6512 C 602.871 -2.76634 4.43024 0
M  V30 6513 H 604.565 -1.34307 2.67585 0
M  V30 6514 H 602.111 -0.644678 1.28763 0
M  V30 6515 H 604.064 -3.69284 2.02995 0
M  V30 6516 H 602.788 -3.13369 0.920179 0
M  V30 6517 H 601.447 -2.27706 2.87307 0
M  V30 6518 H 601.095 -4.60382 2.02626 0
M  V30 6519 H 600.795 -4.49946 3.77918 0
M  V30 6520 H 602.319 -5.21312 3.17909 0
M  V30 6521 H 603.733 -3.43376 4.59093 0
M  V30 6522 H 602.13 -2.95666 5.22208 0
M  V30 6523 H 603.2 -1.72262 4.5327 0
M  V30 6524 N 604.543 -1.41418 -0.695603 0
M  V30 6525 C 605.791 -1.40496 -1.45277 0
M  V30 6526 C 606.112 -0.0149538 -1.94994 0
M  V30 6527 O 605.382 0.9432 -1.71699 0
M  V30 6528 H 603.962 -0.517147 -0.539044 0
M  V30 6529 H 606.624 -1.76656 -0.823321 0
M  V30 6530 H 605.72 -2.09214 -2.31595 0
M  V30 6531 N 606.021 0.929856 -1.27246 0
M  V30 6532 C 606.951 2.04722 -1.12299 0
M  V30 6533 C 607.932 1.70082 -0.0250464 0
M  V30 6534 O 609.117 1.93176 -0.199141 0
M  V30 6535 C 606.247 3.38721 -0.767145 0
M  V30 6536 C 605.201 3.87466 -1.81808 0
M  V30 6537 C 604.527 5.18246 -1.31626 0
M  V30 6538 C 605.827 4.11095 -3.22177 0
M  V30 6539 H 607.521 2.17485 -2.05769 0
M  V30 6540 H 605.067 1.04503 -0.990715 0
M  V30 6541 H 607.02 4.16366 -0.649413 0
M  V30 6542 H 605.744 3.25967 0.203259 0
M  V30 6543 H 604.403 3.12012 -1.92468 0
M  V30 6544 H 604.051 5.01881 -0.335378 0
M  V30 6545 H 603.751 5.51829 -2.01887 0
M  V30 6546 H 605.275 5.98462 -1.21143 0
M  V30 6547 H 606.689 4.79316 -3.1453 0
M  V30 6548 H 605.086 4.55982 -3.90129 0
M  V30 6549 H 606.156 3.16468 -3.67391 0
M  V30 6550 N 607.499 1.09233 1.13605 0
M  V30 6551 C 608.429 0.751738 2.21068 0
M  V30 6552 C 609.41 -0.269688 1.67948 0
M  V30 6553 O 610.595 -0.13819 1.93708 0
M  V30 6554 C 607.725 0.16935 3.46887 0
M  V30 6555 C 606.679 1.12007 4.13084 0
M  V30 6556 C 606.005 0.399483 5.33206 0
M  V30 6557 C 607.305 2.46168 4.6065 0
M  V30 6558 H 608.999 1.65024 2.49815 0
M  V30 6559 H 606.545 0.794905 1.20072 0
M  V30 6560 H 608.498 -0.0809824 4.21322 0
M  V30 6561 H 607.222 -0.764335 3.1753 0
M  V30 6562 H 605.881 1.35564 3.40614 0
M  V30 6563 H 605.529 -0.538277 5.00112 0
M  V30 6564 H 605.229 1.03337 5.78442 0
M  V30 6565 H 606.753 0.157403 6.10397 0
M  V30 6566 H 608.167 2.26829 5.26518 0
M  V30 6567 H 606.564 3.05326 5.1662 0
M  V30 6568 H 607.634 3.07076 3.75276 0
M  V30 6569 N 608.977 -1.30795 0.87923 0
M  V30 6570 C 610.202 -2.01063 0.508769 0
M  V30 6571 C 610.627 -1.65508 -0.893803 0
M  V30 6572 O 609.985 -0.868616 -1.59138 0
M  V30 6573 C 610.033 -3.54054 0.683991 0
M  V30 6574 O 609.137 -4.11498 -0.272654 0
M  V30 6575 H 608.478 -0.632786 0.201191 0
M  V30 6576 H 611.008 -1.66776 1.18519 0
M  V30 6577 H 611.018 -4.03845 0.580798 0
M  V30 6578 H 609.693 -3.79271 1.70665 0
M  V30 6579 H 608.27 -3.72695 -0.12364 0
M  V30 6580 N 610.455 -0.639598 -1.44038 0
M  V30 6581 C 611.685 -0.154586 -2.06021 0
M  V30 6582 C 612.093 1.17951 -1.47933 0
M  V30 6583 O 611.436 1.73627 -0.59994 0
M  V30 6584 C 611.498 0.0255459 -3.59491 0
M  V30 6585 C 611.162 -1.2317 -4.40089 0
M  V30 6586 C 612.159 -2.15735 -4.73027 0
M  V30 6587 C 609.844 -1.46949 -4.80324 0
M  V30 6588 C 611.838 -3.30382 -5.45093 0
M  V30 6589 C 609.525 -2.61891 -5.52138 0
M  V30 6590 C 610.523 -3.53433 -5.84443 0
M  V30 6591 O 610.211 -4.6637 -6.54793 0
M  V30 6592 H 609.943 -0.0808543 -0.671147 0
M  V30 6593 H 612.497 -0.876541 -1.85758 0
M  V30 6594 H 610.727 0.802733 -3.78276 0
M  V30 6595 H 612.416 0.466184 -4.03214 0
M  V30 6596 H 613.182 -1.98602 -4.42473 0
M  V30 6597 H 609.061 -0.765815 -4.54595 0
M  V30 6598 H 612.605 -4.01856 -5.70226 0
M  V30 6599 H 608.502 -2.78964 -5.82108 0
M  V30 6600 H 609.27 -4.6546 -6.73267 0
M  V30 6601 N 611.933 1.52934 -0.380664 0
M  V30 6602 C 613.349 1.59571 -0.0302429 0
M  V30 6603 C 613.549 1.39509 1.45394 0
M  V30 6604 O 612.605 1.20777 2.21741 0
M  V30 6605 C 613.918 2.96519 -0.499691 0
M  V30 6606 C 615.466 3.09672 -0.455204 0
M  V30 6607 C 615.941 4.49056 -0.900703 0
M  V30 6608 N 617.432 4.55215 -0.856367 0
M  V30 6609 C 618.167 5.61282 -1.17259 0
M  V30 6610 N 617.663 6.75035 -1.55885 0
M  V30 6611 N 619.456 5.51343 -1.0944 0
M  V30 6612 H 611.607 1.64224 -1.347 0
M  V30 6613 H 613.87 0.771033 -0.551554 0
M  V30 6614 H 613.576 3.16388 -1.53595 0
M  V30 6615 H 613.45 3.77052 0.105789 0
M  V30 6616 H 615.837 2.89504 0.571949 0
M  V30 6617 H 615.918 2.31113 -1.09638 0
M  V30 6618 H 615.562 4.69964 -1.92604 0
M  V30 6619 H 615.492 5.26068 -0.236629 0
M  V30 6620 H 617.983 3.73546 -0.572013 0
M  V30 6621 H 618.296 7.51926 -1.784 0
M  V30 6622 H 616.641 6.76388 -1.59764 0
M  V30 6623 H 619.832 4.61356 -0.791713 0
M  V30 6624 H 620.005 6.33905 -1.34417 0
M  V30 6625 N 613.412 0.11024 1.57214 0
M  V30 6626 C 614.637 -0.561179 1.99664 0
M  V30 6627 C 615.062 -1.59985 0.989266 0
M  V30 6628 O 614.42 -1.81255 -0.0402399 0
M  V30 6629 C 614.468 -1.17189 3.41027 0
M  V30 6630 O 613.572 -2.28755 3.4314 0
M  V30 6631 H 612.913 -0.14101 0.648855 0
M  V30 6632 H 615.443 0.196128 2.03658 0
M  V30 6633 H 615.453 -1.50954 3.79047 0
M  V30 6634 H 614.128 -0.411041 4.13864 0
M  V30 6635 H 612.705 -1.96495 3.16929 0
M  V30 6636 N 614.89 -1.56749 -0.16351 0
M  V30 6637 C 616.12 -1.86307 -0.892936 0
M  V30 6638 C 616.528 -0.6945 -1.75992 0
M  V30 6639 O 615.871 0.345384 -1.80424 0
M  V30 6640 C 615.933 -3.10372 -1.81409 0
M  V30 6641 C 615.597 -4.42913 -1.12593 0
M  V30 6642 C 616.594 -5.17608 -0.487661 0
M  V30 6643 C 614.279 -4.89646 -1.12035 0
M  V30 6644 C 616.273 -6.3723 0.14699 0
M  V30 6645 C 613.96 -6.09197 -0.481883 0
M  V30 6646 C 614.958 -6.82834 0.150678 0
M  V30 6647 O 614.646 -8.00116 0.779065 0
M  V30 6648 H 614.378 -0.622126 -0.264452 0
M  V30 6649 H 616.932 -2.04728 -0.166063 0
M  V30 6650 H 615.162 -2.87917 -2.58148 0
M  V30 6651 H 616.851 -3.26312 -2.41403 0
M  V30 6652 H 617.617 -4.8258 -0.483888 0
M  V30 6653 H 613.496 -4.32265 -1.60212 0
M  V30 6654 H 617.04 -6.94646 0.641325 0
M  V30 6655 H 612.937 -6.43688 -0.483266 0
M  V30 6656 H 613.705 -8.15678 0.679089 0
M  V30 6657 N 616.368 0.432326 -1.51554 0
M  V30 6658 C 617.614 1.17997 -1.65675 0
M  V30 6659 C 617.969 1.88794 -0.37076 0
M  V30 6660 O 617.262 1.80817 0.633692 0
M  V30 6661 C 617.456 2.21907 -2.80164 0
M  V30 6662 C 617.285 1.6131 -4.19773 0
M  V30 6663 C 616.055 1.39585 -4.85638 0
M  V30 6664 C 618.253 1.08659 -5.0269 0
M  V30 6665 N 616.235 0.746374 -6.09346 0
M  V30 6666 C 617.606 0.562685 -6.17441 0
M  V30 6667 C 619.661 0.978831 -4.88184 0
M  V30 6668 C 618.364 -0.0584015 -7.19276 0
M  V30 6669 C 620.39 0.371631 -5.90231 0
M  V30 6670 C 619.752 -0.141711 -7.04257 0
M  V30 6671 H 615.851 0.419277 -0.660099 0
M  V30 6672 H 618.435 0.475809 -1.88797 0
M  V30 6673 H 616.606 2.89706 -2.58698 0
M  V30 6674 H 618.338 2.88867 -2.8344 0
M  V30 6675 H 615.093 1.65897 -4.43593 0
M  V30 6676 H 615.517 0.438934 -6.75576 0
M  V30 6677 H 620.159 1.36157 -4.00276 0
M  V30 6678 H 617.877 -0.453262 -8.06828 0
M  V30 6679 H 621.463 0.290086 -5.81076 0
M  V30 6680 H 620.343 -0.60417 -7.81869 0
M  V30 6681 N 617.846 1.41785 0.688094 0
M  V30 6682 C 619.071 1.45117 1.48175 0
M  V30 6683 C 619.496 0.060129 1.88004 0
M  V30 6684 O 618.854 -0.938385 1.55126 0
M  V30 6685 C 618.902 2.37224 2.71583 0
M  V30 6686 O 618.006 1.83443 3.69354 0
M  V30 6687 H 617.347 0.492208 0.445676 0
M  V30 6688 H 619.877 1.86329 0.845145 0
M  V30 6689 H 619.887 2.53353 3.19806 0
M  V30 6690 H 618.562 3.38293 2.41931 0
M  V30 6691 H 617.139 1.76802 3.28322 0
M  V30 6692 N 619.324 -0.923095 1.27737 0
M  V30 6693 C 620.256 -2.02871 1.06658 0
M  V30 6694 C 621.269 -1.62786 0.0212095 0
M  V30 6695 O 622.458 -1.76548 0.263267 0
M  V30 6696 C 619.558 -3.33603 0.59682 0
M  V30 6697 C 618.731 -4.02354 1.71551 0
M  V30 6698 C 617.79 -5.11364 1.24071 0
M  V30 6699 O 616.816 -5.35075 1.94123 0
M  V30 6700 N 618.018 -5.80416 0.0988444 0
M  V30 6701 H 620.783 -2.21515 2.01869 0
M  V30 6702 H 618.344 -1.09378 1.19365 0
M  V30 6703 H 620.336 -4.03845 0.262984 0
M  V30 6704 H 618.906 -3.11499 -0.262187 0
M  V30 6705 H 618.126 -3.25786 2.2194 0
M  V30 6706 H 619.414 -4.45035 2.46619 0
M  V30 6707 H 618.812 -5.63611 -0.485743 0
M  V30 6708 H 617.369 -6.51563 -0.17578 0
M  V30 6709 N 620.802 -1.09834 -1.13024 0
M  V30 6710 C 622.03 -0.858902 -1.8823 0
M  V30 6711 C 622.445 0.590164 -1.79339 0
M  V30 6712 O 621.802 1.4065 -1.16292 0
M  V30 6713 C 621.853 -1.29066 -3.37675 0
M  V30 6714 O 621.574 -2.6829 -3.46341 0
M  V30 6715 C 623.075 -1.08421 -4.29837 0
M  V30 6716 H 620.295 -0.308713 -0.595766 0
M  V30 6717 H 622.839 -1.4614 -1.4305 0
M  V30 6718 H 620.994 -0.731961 -3.80422 0
M  V30 6719 H 621.408 -2.86598 -4.39274 0
M  V30 6720 H 622.882 -1.43553 -5.33007 0
M  V30 6721 H 623.359 -0.0223315 -4.39194 0
M  V30 6722 H 623.965 -1.62907 -3.92863 0
M  V30 6723 N 622.28 1.30327 -0.886154 0
M  V30 6724 C 623.529 1.95373 -0.501243 0
M  V30 6725 C 623.842 1.70722 0.954634 0
M  V30 6726 O 625.048 2.29761 1.44644 0
M  V30 6727 C 623.504 3.49828 -0.845493 0
M  V30 6728 C 623.112 3.83296 -2.31922 0
M  V30 6729 C 624.856 4.2118 -0.529838 0
M  V30 6730 C 622.763 5.30935 -2.60504 0
M  V30 6731 H 621.693 0.731274 -0.183722 0
M  V30 6732 H 624.344 1.48258 -1.08129 0
M  V30 6733 H 622.726 3.95522 -0.19452 0
M  V30 6734 H 623.9 3.48508 -3.01461 0
M  V30 6735 H 622.215 3.2505 -2.60253 0
M  V30 6736 H 624.812 5.29825 -0.720401 0
M  V30 6737 H 625.155 4.12902 0.530828 0
M  V30 6738 H 625.688 3.81173 -1.13806 0
M  V30 6739 H 622.427 5.44265 -3.65316 0
M  V30 6740 H 621.947 5.67019 -1.95575 0
M  V30 6741 H 623.626 5.98381 -2.46066 0
M  V30 6742 N 623.758 0.647228 1.43697 0
M  V30 6743 C 624.688 -0.0345631 2.33474 0
M  V30 6744 C 625.669 -0.818193 1.4913 0
M  V30 6745 O 626.854 -0.780867 1.77809 0
M  V30 6746 C 623.984 -1.00576 3.32418 0
M  V30 6747 C 622.938 -0.33266 4.26705 0
M  V30 6748 C 622.264 -1.41489 5.1564 0
M  V30 6749 C 623.564 0.771204 5.16575 0
M  V30 6750 H 625.258 0.715163 2.90733 0
M  V30 6751 H 622.804 0.345364 1.39797 0
M  V30 6752 H 624.757 -1.49159 3.94119 0
M  V30 6753 H 623.481 -1.78657 2.73403 0
M  V30 6754 H 622.14 0.13267 3.6636 0
M  V30 6755 H 621.788 -2.18698 4.52968 0
M  V30 6756 H 621.488 -0.969799 5.79542 0
M  V30 6757 H 623.012 -1.9022 5.80214 0
M  V30 6758 H 624.426 0.36779 5.72119 0
M  V30 6759 H 622.823 1.1404 5.89165 0
M  V30 6760 H 623.893 1.63169 4.56622 0
M  V30 6761 N 625.236 -1.5273 0.388769 0
M  V30 6762 C 626.146 -2.30165 -0.453993 0
M  V30 6763 C 627.162 -1.37058 -1.07197 0
M  V30 6764 O 628.338 -1.70127 -1.0779 0
M  V30 6765 C 625.403 -3.09303 -1.56628 0
M  V30 6766 C 624.464 -4.18117 -0.973467 0
M  V30 6767 C 623.697 -4.93472 -2.03275 0
M  V30 6768 O 623.92 -4.68913 -3.24772 0
M  V30 6769 O 622.854 -5.78833 -1.65034 0
M  V30 6770 H 626.68 -3.03185 0.176816 0
M  V30 6771 H 624.265 -1.4862 0.152501 0
M  V30 6772 H 626.147 -3.58648 -2.21246 0
M  V30 6773 H 624.822 -2.39098 -2.18206 0
M  V30 6774 H 623.729 -3.7297 -0.290556 0
M  V30 6775 H 625.062 -4.90556 -0.401908 0
M  V30 6776 N 626.714 -0.118576 -1.57153 0
M  V30 6777 C 627.963 0.539339 -1.94355 0
M  V30 6778 C 628.276 1.67858 -1.00415 0
M  V30 6779 O 629.482 2.39922 -1.27081 0
M  V30 6780 C 627.938 1.01082 -3.45414 0
M  V30 6781 C 627.546 -0.0999402 -4.47889 0
M  V30 6782 C 629.29 1.64013 -3.91535 0
M  V30 6783 C 627.197 0.388212 -5.90124 0
M  V30 6784 H 626.127 0.205247 -0.725527 0
M  V30 6785 H 628.778 -0.19836 -1.82425 0
M  V30 6786 H 627.16 1.80292 -3.52577 0
M  V30 6787 H 628.334 -0.876189 -4.52393 0
M  V30 6788 H 626.649 -0.635885 -4.11516 0
M  V30 6789 H 629.246 2.01649 -4.95219 0
M  V30 6790 H 629.589 2.51836 -3.31488 0
M  V30 6791 H 630.122 0.913439 -3.87171 0
M  V30 6792 H 626.861 -0.453963 -6.53926 0
M  V30 6793 H 626.381 1.13095 -5.89041 0
M  V30 6794 H 628.06 0.849574 -6.41398 0
M  V30 6795 N 628.193 1.56834 0.155195 0
M  V30 6796 C 629.123 2.00678 1.19376 0
M  V30 6797 C 630.104 0.884973 1.45266 0
M  V30 6798 O 631.289 1.1522 1.56326 0
M  V30 6799 C 628.419 2.38042 2.5289 0
M  V30 6800 C 627.373 3.53332 2.41538 0
M  V30 6801 C 626.699 3.76485 3.79688 0
M  V30 6802 C 627.999 4.86265 1.9064 0
M  V30 6803 H 629.693 2.87688 0.829232 0
M  V30 6804 H 627.239 1.38407 0.397445 0
M  V30 6805 H 629.192 2.67314 3.25763 0
M  V30 6806 H 627.916 1.4796 2.91162 0
M  V30 6807 H 626.575 3.24213 1.71117 0
M  V30 6808 H 626.223 2.83667 4.15382 0
M  V30 6809 H 625.923 4.54068 3.72956 0
M  V30 6810 H 627.447 4.08174 4.54122 0
M  V30 6811 H 628.861 5.14308 2.53299 0
M  V30 6812 H 627.258 5.67597 1.94818 0
M  V30 6813 H 628.328 4.77184 0.861596 0
M  V30 6814 N 629.671 -0.424282 1.51781 0
M  V30 6815 C 630.604 -1.53633 1.68737 0
M  V30 6816 C 631.582 -1.53549 0.534915 0
M  V30 6817 O 632.766 -1.72483 0.760391 0
M  V30 6818 C 629.893 -2.92195 1.71288 0
M  V30 6819 C 628.939 -3.10251 2.92654 0
M  V30 6820 S 629.772 -2.85166 4.53256 0
M  V30 6821 C 630.928 -4.25986 4.58571 0
M  V30 6822 H 631.161 -1.39018 2.62795 0
M  V30 6823 H 628.694 -0.614854 1.41629 0
M  V30 6824 H 630.652 -3.72059 1.73443 0
M  V30 6825 H 629.313 -3.04162 0.783847 0
M  V30 6826 H 628.506 -4.1159 2.90877 0
M  V30 6827 H 628.108 -2.38231 2.88308 0
M  V30 6828 H 630.4 -5.19392 4.35015 0
M  V30 6829 H 631.343 -4.32792 5.60444 0
M  V30 6830 H 631.751 -4.1025 3.87757 0
M  V30 6831 N 631.149 -1.42148 -0.680565 0
M  V30 6832 C 632.397 -1.42029 -1.43779 0
M  V30 6833 C 632.718 -0.0356347 -1.94967 0
M  V30 6834 O 631.988 0.924936 -1.7269 0
M  V30 6835 H 630.568 -0.522835 -0.533529 0
M  V30 6836 H 633.23 -1.7752 -0.804538 0
M  V30 6837 H 632.326 -2.11658 -2.29363 0
M  V30 6838 N 632.627 0.916307 -1.28225 0
M  V30 6839 C 633.557 2.0352 -1.14464 0
M  V30 6840 C 634.538 1.70045 -0.0430844 0
M  V30 6841 O 635.723 1.92954 -0.219619 0
M  V30 6842 C 632.853 3.37889 -0.803027 0
M  V30 6843 C 631.807 3.85516 -1.85908 0
M  V30 6844 C 631.133 5.1682 -1.37116 0
M  V30 6845 C 632.433 4.07655 -3.26519 0
M  V30 6846 H 634.127 2.1529 -2.08064 0
M  V30 6847 H 631.673 1.03446 -1.00174 0
M  V30 6848 H 633.626 4.15654 -0.693537 0
M  V30 6849 H 632.35 3.26164 0.168674 0
M  V30 6850 H 631.009 3.09953 -1.95767 0
M  V30 6851 H 630.657 5.01497 -0.38859 0
M  V30 6852 H 630.357 5.49657 -2.07728 0
M  V30 6853 H 631.881 5.97143 -1.27484 0
M  V30 6854 H 633.295 4.75953 -3.19596 0
M  V30 6855 H 631.692 4.51818 -3.94943 0
M  V30 6856 H 632.762 3.12553 -3.70727 0
M  V30 6857 N 634.105 1.10431 1.1244 0
M  V30 6858 C 635.052 0.753103 2.18167 0
M  V30 6859 C 636.022 -0.270549 1.63882 0
M  V30 6860 O 637.207 -0.149837 1.90211 0
M  V30 6861 C 634.347 0.191046 3.44571 0
M  V30 6862 C 633.46 1.26999 4.12911 0
M  V30 6863 C 632.595 0.669586 5.26963 0
M  V30 6864 C 631.634 1.72912 5.87169 0
M  V30 6865 N 630.771 1.14898 6.92635 0
M  V30 6866 H 635.611 1.65892 2.47556 0
M  V30 6867 H 633.148 0.828631 1.21541 0
M  V30 6868 H 635.106 -0.152712 4.1692 0
M  V30 6869 H 633.736 -0.677997 3.15599 0
M  V30 6870 H 632.788 1.73087 3.3874 0
M  V30 6871 H 634.1 2.07204 4.53727 0
M  V30 6872 H 633.254 0.275274 6.06075 0
M  V30 6873 H 631.993 -0.163895 4.87425 0
M  V30 6874 H 630.998 2.13286 5.06744 0
M  V30 6875 H 632.223 2.56544 6.28778 0
M  V30 6876 H 630.169 0.336956 6.55134 0
M  V30 6877 H 630.086 1.88786 7.32049 0
M  V30 6878 H 631.354 0.78121 7.75576 0
M  V30 6879 N 635.583 -1.29855 0.893053 0
M  V30 6880 C 636.808 -2.00512 0.530066 0
M  V30 6881 C 637.233 -1.66446 -0.876199 0
M  V30 6882 O 636.591 -0.885446 -1.58207 0
M  V30 6883 C 636.639 -3.53308 0.721505 0
M  V30 6884 O 635.743 -4.11764 -0.228994 0
M  V30 6885 H 635.084 -0.630617 0.207891 0
M  V30 6886 H 637.614 -1.6551 1.20282 0
M  V30 6887 H 637.624 -4.03206 0.623599 0
M  V30 6888 H 636.299 -3.77439 1.74678 0
M  V30 6889 H 634.876 -3.72805 -0.0841034 0
M  V30 6890 N 637.061 -0.65484 -1.43351 0
M  V30 6891 C 637.971 0.0363603 -2.34572 0
M  V30 6892 C 638.987 0.810432 -1.53974 0
M  V30 6893 O 640.163 0.757308 -1.86619 0
M  V30 6894 C 637.228 0.989733 -3.32273 0
M  V30 6895 C 636.289 0.212414 -4.28774 0
M  V30 6896 C 635.522 1.12038 -5.21808 0
M  V30 6897 O 635.745 2.35967 -5.19303 0
M  V30 6898 O 634.679 0.59191 -5.98982 0
M  V30 6899 H 638.505 -0.714527 -2.95175 0
M  V30 6900 H 636.09 -0.415029 -1.4352 0
M  V30 6901 H 637.972 1.53759 -3.92347 0
M  V30 6902 H 636.647 1.72082 -2.74171 0
M  V30 6903 H 635.554 -0.379062 -3.72175 0
M  V30 6904 H 636.887 -0.479138 -4.89862 0
M  V30 6905 N 638.539 1.52521 -0.396863 0
M  V30 6906 C 639.764 2.06571 0.185258 0
M  V30 6907 C 640.189 1.26605 1.39115 0
M  V30 6908 O 639.547 0.293055 1.78916 0
M  V30 6909 C 639.595 3.5674 0.526189 0
M  V30 6910 O 638.699 3.7929 1.61903 0
M  V30 6911 H 638.04 0.663712 0.0195474 0
M  V30 6912 H 640.57 1.966 -0.566519 0
M  V30 6913 H 640.58 4.00311 0.788338 0
M  V30 6914 H 639.255 4.14379 -0.355397 0
M  V30 6915 H 637.832 3.47605 1.35 0
M  V30 6916 N 640.017 0.126909 1.57088 0
M  V30 6917 C 641.265 -0.528123 1.95078 0
M  V30 6918 C 641.586 -1.66708 1.0116 0
M  V30 6919 O 640.856 -1.95777 0.0693527 0
M  V30 6920 H 639.436 -0.198087 0.720257 0
M  V30 6921 H 642.098 0.197703 1.93895 0
M  V30 6922 H 641.194 -0.917507 2.98309 0
M  V30 6923 N 641.495 -1.56914 -0.146875 0
M  V30 6924 C 642.405 -2.0154 -1.20079 0
M  V30 6925 C 643.421 -0.930838 -1.47008 0
M  V30 6926 O 644.597 -1.24032 -1.58676 0
M  V30 6927 C 641.662 -2.38715 -2.51428 0
M  V30 6928 C 640.723 -3.6112 -2.32145 0
M  V30 6929 C 639.956 -3.96512 -3.57231 0
M  V30 6930 O 640.179 -3.32566 -4.63418 0
M  V30 6931 O 639.113 -4.89758 -3.49887 0
M  V30 6932 H 642.939 -2.91506 -0.851924 0
M  V30 6933 H 640.524 -1.45106 -0.355607 0
M  V30 6934 H 642.406 -2.63485 -3.28867 0
M  V30 6935 H 641.081 -1.51903 -2.85845 0
M  V30 6936 H 639.988 -3.41536 -1.52656 0
M  V30 6937 H 641.321 -4.48549 -2.02644 0
M  V30 6938 N 642.974 0.416227 -1.52004 0
M  V30 6939 C 644.39 0.754319 -1.40649 0
M  V30 6940 C 644.59 1.95059 -0.505392 0
M  V30 6941 O 643.646 2.5248 0.0315057 0
M  V30 6942 C 644.959 1.0149 -2.83055 0
M  V30 6943 C 646.507 1.11805 -2.9235 0
M  V30 6944 C 646.982 1.41144 -4.35709 0
M  V30 6945 N 648.473 1.48024 -4.38911 0
M  V30 6946 C 649.208 1.72338 -5.46889 0
M  V30 6947 N 648.704 1.94303 -6.64995 0
M  V30 6948 N 650.497 1.74294 -5.34395 0
M  V30 6949 H 642.648 -0.371324 -2.09129 0
M  V30 6950 H 644.911 -0.103811 -0.942299 0
M  V30 6951 H 644.617 0.208345 -3.51082 0
M  V30 6952 H 644.491 1.93697 -3.23668 0
M  V30 6953 H 646.878 1.91521 -2.24508 0
M  V30 6954 H 646.959 0.17451 -2.55204 0
M  V30 6955 H 646.603 0.619484 -5.04108 0
M  V30 6956 H 646.533 2.36739 -4.70385 0
M  V30 6957 H 649.024 1.32868 -3.53772 0
M  V30 6958 H 649.337 2.12286 -7.43071 0
M  V30 6959 H 647.682 1.91582 -6.68073 0
M  V30 6960 H 650.873 1.56667 -4.41104 0
M  V30 6961 H 651.046 1.92904 -6.18621 0
M  V30 6962 N 644.452 1.42507 0.673017 0
M  V30 6963 C 645.863 1.38347 1.25367 0
M  V30 6964 C 646.214 0.0776327 1.96046 0
M  V30 6965 O 645.339 -0.823571 2.00116 0
M  V30 6966 C 645.934 2.506 2.28002 0
M  V30 6967 C 644.493 2.49767 2.81591 0
M  V30 6968 C 643.64 2.293 1.55938 0
M  V30 6969 H 646.591 1.51695 0.466288 0
M  V30 6970 H 646.612 2.20953 3.09774 0
M  V30 6971 H 646.124 3.45627 1.76532 0
M  V30 6972 H 644.225 1.58563 3.37177 0
M  V30 6973 H 644.338 3.46867 3.30485 0
M  V30 6974 H 642.702 1.77594 1.82572 0
M  V30 6975 H 643.485 3.26385 1.06431 0
M  V30 6976 N 645.93 -0.909495 1.28709 0
M  V30 6977 C 646.862 -2.01729 1.08804 0
M  V30 6978 C 647.875 -1.62755 0.0384739 0
M  V30 6979 O 649.064 -1.76259 0.281977 0
M  V30 6980 C 646.164 -3.32952 0.63217 0
M  V30 6981 C 645.337 -4.00512 1.75809 0
M  V30 6982 C 644.396 -5.10019 1.29488 0
M  V30 6983 O 643.422 -5.32986 1.99787 0
M  V30 6984 N 644.624 -5.80278 0.1604 0
M  V30 6985 H 647.389 -2.19362 2.04207 0
M  V30 6986 H 644.95 -1.08106 1.20518 0
M  V30 6987 H 646.942 -4.03543 0.305802 0
M  V30 6988 H 645.512 -3.11759 -0.229134 0
M  V30 6989 H 644.732 -3.23413 2.25383 0
M  V30 6990 H 646.02 -4.42395 2.51325 0
M  V30 6991 H 645.418 -5.64094 -0.425937 0
M  V30 6992 H 643.975 -6.51713 -0.106663 0
M  V30 6993 N 647.408 -1.11026 -1.11852 0
M  V30 6994 C 648.657 -0.851249 -1.82857 0
M  V30 6995 C 648.97 0.62514 -1.85341 0
M  V30 6996 O 650.176 1.00026 -2.52403 0
M  V30 6997 C 648.632 -1.47309 -3.28372 0
M  V30 6998 C 648.24 -2.9832 -3.34229 0
M  V30 6999 C 649.984 -1.29373 -4.04306 0
M  V30 7000 C 647.891 -3.53509 -4.74115 0
M  V30 7001 H 646.821 -0.314794 -0.685143 0
M  V30 7002 H 649.472 -1.33499 -1.25898 0
M  V30 7003 H 647.854 -0.917017 -3.85236 0
M  V30 7004 H 649.028 -3.60295 -2.87271 0
M  V30 7005 H 647.343 -3.15482 -2.71772 0
M  V30 7006 H 649.94 -1.68042 -5.07608 0
M  V30 7007 H 650.283 -0.235879 -4.15631 0
M  V30 7008 H 650.816 -1.8182 -3.53817 0
M  V30 7009 H 647.555 -4.58987 -4.67986 0
M  V30 7010 H 647.075 -2.96305 -5.21501 0
M  V30 7011 H 648.754 -3.51693 -5.43066 0
M  V30 7012 N 648.886 1.2938 -0.899927 0
M  V30 7013 C 650.114 1.99691 -0.541386 0
M  V30 7014 C 650.529 1.67355 0.873936 0
M  V30 7015 O 649.886 0.918728 1.57688 0
M  V30 7016 C 649.937 3.54168 -0.72438 0
M  V30 7017 O 649.658 3.85359 -2.08399 0
M  V30 7018 C 651.159 4.41746 -0.370819 0
M  V30 7019 H 648.379 0.638037 -0.207726 0
M  V30 7020 H 650.923 1.6491 -1.20934 0
M  V30 7021 H 649.078 3.87261 -0.103607 0
M  V30 7022 H 649.492 4.80032 -2.11352 0
M  V30 7023 H 650.966 5.49256 -0.549693 0
M  V30 7024 H 651.443 4.33712 0.692148 0
M  V30 7025 H 652.049 4.14125 -0.968543 0
M  V30 7026 N 650.364 0.662433 1.43002 0
M  V30 7027 C 651.613 0.176873 2.00923 0
M  V30 7028 C 651.926 -1.21954 1.52927 0
M  V30 7029 O 653.132 -1.80081 2.03182 0
M  V30 7030 C 651.588 0.265379 3.5892 0
M  V30 7031 C 651.196 1.66507 4.15908 0
M  V30 7032 C 652.94 -0.162103 4.2419 0
M  V30 7033 C 650.847 1.707 5.66229 0
M  V30 7034 H 649.777 0.0623627 0.751417 0
M  V30 7035 H 652.428 0.825813 1.63868 0
M  V30 7036 H 650.81 -0.451235 3.93421 0
M  V30 7037 H 651.984 2.40777 3.92891 0
M  V30 7038 H 650.299 2.03932 3.63044 0
M  V30 7039 H 652.896 -0.150745 5.34487 0
M  V30 7040 H 653.239 -1.19519 3.98774 0
M  V30 7041 H 653.772 0.503075 3.94606 0
M  V30 7042 H 650.511 2.7195 5.96426 0
M  V30 7043 H 650.031 1.00768 5.91275 0
M  V30 7044 H 651.71 1.45487 6.3043 0
M  V30 7045 N 651.842 -1.52309 0.404946 0
M  V30 7046 C 652.79 -2.28452 -0.437321 0
M  V30 7047 C 653.784 -1.32975 -1.04948 0
M  V30 7048 O 654.99 -1.50451 -0.988159 0
M  V30 7049 H 651.365 -0.734824 -0.159805 0
M  V30 7050 H 653.336 -2.97542 0.22615 0
M  V30 7051 C 652.085 -3.11536 -1.54404 0
M  V30 7052 H 651.408 -3.84871 -1.08233 0
M  V30 7053 H 652.848 -3.67926 -2.10729 0
M  V30 7054 C 651.307 -2.24833 -2.50902 0
M  V30 7055 O 651.837 -1.88574 -3.54687 0
M  V30 7056 N 650.043 -1.88685 -2.21012 0
M  V30 7057 H 649.59 -2.18371 -1.36646 0
M  V30 7058 H 649.548 -1.30966 -2.85824 0
M  V30 7059 N 653.32 -0.135238 -1.57019 0
M  V30 7060 C 654.23 0.822226 -2.19719 0
M  V30 7061 C 655.246 1.28057 -1.17802 0
M  V30 7062 O 656.422 1.3402 -1.50335 0
M  V30 7063 C 653.487 2.0484 -2.79717 0
M  V30 7064 C 652.548 1.64042 -3.96723 0
M  V30 7065 C 651.781 2.80814 -4.53849 0
M  V30 7066 O 652.004 3.967 -4.0986 0
M  V30 7067 O 650.938 2.56963 -5.44292 0
M  V30 7068 H 654.764 0.318552 -3.02025 0
M  V30 7069 H 652.349 0.0912021 -1.49121 0
M  V30 7070 H 654.231 2.76622 -3.17897 0
M  V30 7071 H 652.906 2.54182 -2.00432 0
M  V30 7072 H 651.813 0.893182 -3.63281 0
M  V30 7073 H 653.146 1.19426 -4.77492 0
M  V30 7074 N 654.798 1.5699 0.138552 0
M  V30 7075 C 656.047 1.82998 0.848205 0
M  V30 7076 C 656.36 0.717829 1.81952 0
M  V30 7077 O 657.566 0.863756 2.57394 0
M  V30 7078 C 656.022 3.24379 1.55904 0
M  V30 7079 C 655.63 4.43552 0.62971 0
M  V30 7080 C 657.374 3.59654 2.25498 0
M  V30 7081 C 655.281 5.75957 1.34266 0
M  V30 7082 H 654.211 0.682495 0.320495 0
M  V30 7083 H 656.862 1.83222 0.100924 0
M  V30 7084 H 655.244 3.18567 2.35226 0
M  V30 7085 H 656.418 4.6062 -0.128882 0
M  V30 7086 H 654.733 4.16379 0.0417526 0
M  V30 7087 H 657.33 4.55837 2.79493 0
M  V30 7088 H 657.673 2.86124 3.02388 0
M  V30 7089 H 658.206 3.67164 1.53087 0
M  V30 7090 H 654.945 6.52604 0.615441 0
M  V30 7091 H 654.465 5.62811 2.07375 0
M  V30 7092 H 656.144 6.19046 1.88126 0
M  V30 7093 N 656.276 -0.40816 1.52223 0
M  V30 7094 C 657.501 -1.18127 1.70472 0
M  V30 7095 C 657.926 -1.83491 0.41384 0
M  V30 7096 O 657.284 -1.70047 -0.628778 0
M  V30 7097 C 657.332 -2.21935 2.84213 0
M  V30 7098 O 656.436 -3.28099 2.4985 0
M  V30 7099 H 655.777 -0.344781 0.56747 0
M  V30 7100 H 658.307 -0.478328 1.9893 0
M  V30 7101 H 658.317 -2.66248 3.09153 0
M  V30 7102 H 656.992 -1.73744 3.7787 0
M  V30 7103 H 655.569 -2.89058 2.35584 0
M  V30 7104 N 657.755 -1.42862 -0.66545 0
M  V30 7105 C 658.665 -1.49491 -1.80803 0
M  V30 7106 C 659.681 -0.382914 -1.69734 0
M  V30 7107 O 660.857 -0.635223 -1.9112 0
M  V30 7108 C 657.922 -1.40383 -3.17007 0
M  V30 7109 C 656.983 -2.62152 -3.39963 0
M  V30 7110 C 656.216 -2.53469 -4.69669 0
M  V30 7111 O 656.439 -1.57568 -5.48205 0
M  V30 7112 O 655.373 -3.43763 -4.94075 0
M  V30 7113 H 659.199 -2.45949 -1.78165 0
M  V30 7114 H 656.784 -1.24728 -0.822387 0
M  V30 7115 H 658.666 -1.377 -3.98267 0
M  V30 7116 H 657.341 -0.470546 -3.20262 0
M  V30 7117 H 656.248 -2.70409 -2.58515 0
M  V30 7118 H 657.581 -3.54411 -3.41546 0
M  V30 7119 N 659.233 0.902656 -1.29189 0
M  V30 7120 C 660.482 1.6475 -1.16362 0
M  V30 7121 C 660.795 1.93517 0.284682 0
M  V30 7122 O 662.001 2.66192 0.534229 0
M  V30 7123 C 660.457 2.96848 -2.03493 0
M  V30 7124 C 660.065 2.75687 -3.5313 0
M  V30 7125 C 661.809 3.74762 -1.99383 0
M  V30 7126 C 659.716 4.03492 -4.32375 0
M  V30 7127 H 658.646 0.618041 -0.431904 0
M  V30 7128 H 661.297 1.0008 -1.53806 0
M  V30 7129 H 659.679 3.62715 -1.58916 0
M  V30 7130 H 660.853 2.18431 -4.05739 0
M  V30 7131 H 659.168 2.11171 -3.58881 0
M  V30 7132 H 661.765 4.69515 -2.5585 0
M  V30 7133 H 662.108 4.04767 -0.973123 0
M  V30 7134 H 662.641 3.15732 -2.41988 0
M  V30 7135 H 659.38 3.78656 -5.3507 0
M  V30 7136 H 658.9 4.60318 -3.84535 0
M  V30 7137 H 660.579 4.71662 -4.42881 0
M  V30 7138 N 660.711 1.11618 1.11262 0
M  V30 7139 C 661.939 0.888739 1.8684 0
M  V30 7140 C 662.354 -0.561558 1.80255 0
M  V30 7141 O 661.711 -1.38782 1.18515 0
M  V30 7142 C 661.762 1.34422 3.35579 0
M  V30 7143 O 661.483 2.73766 3.42029 0
M  V30 7144 C 662.984 1.15246 4.28058 0
M  V30 7145 H 660.204 0.318152 0.590779 0
M  V30 7146 H 662.748 1.48398 1.40707 0
M  V30 7147 H 660.903 0.79239 3.7921 0
M  V30 7148 H 661.317 2.9355 4.34659 0
M  V30 7149 H 662.791 1.52015 5.30656 0
M  V30 7150 H 663.268 0.0922007 4.39103 0
M  V30 7151 H 663.874 1.69136 3.90222 0
M  V30 7152 N 662.189 -1.289 0.906776 0
M  V30 7153 C 663.414 -1.99939 0.551303 0
M  V30 7154 C 663.839 -1.67366 -0.858496 0
M  V30 7155 O 663.197 -0.902176 -1.57259 0
M  V30 7156 C 663.245 -3.52523 0.758937 0
M  V30 7157 O 662.349 -4.11983 -0.185308 0
M  V30 7158 H 661.69 -0.628376 0.214568 0
M  V30 7159 H 664.22 -1.64225 1.2203 0
M  V30 7160 H 664.23 -4.02522 0.666329 0
M  V30 7161 H 662.905 -3.75566 1.78671 0
M  V30 7162 H 661.482 -3.72873 -0.0445577 0
M  V30 7163 N 663.667 -0.670007 -1.42649 0
M  V30 7164 C 664.916 -0.187526 -2.00826 0
M  V30 7165 C 665.229 1.21142 -1.53571 0
M  V30 7166 O 666.435 1.79001 -2.04134 0
M  V30 7167 C 664.891 -0.284409 -3.58774 0
M  V30 7168 C 664.499 -1.6871 -4.15019 0
M  V30 7169 C 666.243 0.139605 -4.2427 0
M  V30 7170 C 664.15 -1.73701 -5.65316 0
M  V30 7171 H 663.08 -0.0663468 -0.751075 0
M  V30 7172 H 665.731 -0.834492 -1.63427 0
M  V30 7173 H 664.113 0.430364 -3.93655 0
M  V30 7174 H 665.287 -2.42857 -3.91608 0
M  V30 7175 H 663.602 -2.05855 -3.61957 0
M  V30 7176 H 666.199 0.122398 -5.3456 0
M  V30 7177 H 666.542 1.17403 -3.99402 0
M  V30 7178 H 667.075 -0.523995 -3.94334 0
M  V30 7179 H 663.814 -2.75109 -5.94975 0
M  V30 7180 H 663.334 -1.03903 -5.90732 0
M  V30 7181 H 665.013 -1.48829 -6.2965 0
M  V30 7182 N 665.145 1.52092 -0.413018 0
M  V30 7183 C 666.092 2.27119 0.410558 0
M  V30 7184 C 667.062 1.29692 1.03774 0
M  V30 7185 O 668.247 1.58561 1.06128 0
M  V30 7186 C 665.387 3.09863 1.51918 0
M  V30 7187 C 664.5 4.22252 0.912528 0
M  V30 7188 C 663.635 4.92348 1.99417 0
M  V30 7189 C 662.674 5.96694 1.36466 0
M  V30 7190 N 661.811 6.60292 2.38661 0
M  V30 7191 H 666.651 2.97067 -0.235661 0
M  V30 7192 H 664.188 1.46542 -0.128055 0
M  V30 7193 H 666.146 3.56144 2.17295 0
M  V30 7194 H 664.776 2.42078 2.13537 0
M  V30 7195 H 663.828 3.80113 0.147697 0
M  V30 7196 H 665.14 4.9709 0.412717 0
M  V30 7197 H 664.294 5.42054 2.72512 0
M  V30 7198 H 663.033 4.17087 2.52764 0
M  V30 7199 H 662.038 5.46304 0.61906 0
M  V30 7200 H 663.263 6.73899 0.838827 0
M  V30 7201 H 661.209 5.87858 2.91134 0
M  V30 7202 H 661.126 7.30816 1.93503 0
M  V30 7203 H 662.394 7.14635 3.11314 0
M  V30 7204 N 666.623 0.143563 1.56945 0
M  V30 7205 C 667.57 -0.797433 2.16586 0
M  V30 7206 C 668.54 -1.24654 1.09775 0
M  V30 7207 O 669.725 -1.31968 1.37801 0
M  V30 7208 C 666.865 -2.03253 2.78895 0
M  V30 7209 C 665.978 -1.62954 4.00087 0
M  V30 7210 C 665.113 -2.81617 4.50406 0
M  V30 7211 C 664.152 -2.37675 5.64072 0
M  V30 7212 N 663.289 -3.49335 6.09023 0
M  V30 7213 H 668.129 -0.282023 2.96662 0
M  V30 7214 H 665.666 -0.127494 1.46546 0
M  V30 7215 H 667.624 -2.75653 3.13163 0
M  V30 7216 H 666.254 -2.52211 2.01469 0
M  V30 7217 H 665.306 -0.803322 3.71821 0
M  V30 7218 H 666.618 -1.26679 4.82446 0
M  V30 7219 H 665.772 -3.62212 4.86711 0
M  V30 7220 H 664.511 -3.21134 3.67048 0
M  V30 7221 H 663.516 -1.55519 5.27346 0
M  V30 7222 H 664.741 -1.99247 6.49213 0
M  V30 7223 H 662.687 -3.8848 5.28601 0
M  V30 7224 H 662.604 -3.17064 6.86299 0
M  V30 7225 H 663.872 -4.30297 6.49973 0
M  V30 7226 N 668.101 -1.57061 -0.130224 0
M  V30 7227 C 669.011 -2.02802 -1.17934 0
M  V30 7228 C 670.027 -0.946378 -1.46013 0
M  V30 7229 O 671.203 -1.25708 -1.57351 0
M  V30 7230 C 668.268 -2.41368 -2.48882 0
M  V30 7231 C 667.329 -3.63561 -2.28301 0
M  V30 7232 C 666.562 -4.00279 -3.53005 0
M  V30 7233 O 666.785 -3.37463 -4.59864 0
M  V30 7234 O 665.719 -4.93441 -3.44673 0
M  V30 7235 H 669.545 -2.92394 -0.820958 0
M  V30 7236 H 667.13 -1.45475 -0.340197 0
M  V30 7237 H 669.012 -2.66958 -3.26054 0
M  V30 7238 H 667.687 -1.54926 -2.84217 0
M  V30 7239 H 666.594 -3.43136 -1.49025 0
M  V30 7240 H 667.927 -4.50673 -1.97875 0
M  V30 7241 N 669.579 0.400081 -1.52437 0
M  V30 7242 C 670.856 1.15973 -1.57511 0
M  V30 7243 C 671.236 2.0798 -0.361572 0
M  V30 7244 O 670.584 2.19032 0.650929 0
M  V30 7245 C 670.794 1.92912 -2.90837 0
M  V30 7246 C 672.142 2.48662 -3.44169 0
M  V30 7247 O 673.166 2.03081 -2.92637 0
M  V30 7248 O 672.025 3.31894 -4.34176 0
M  V30 7249 H 669.119 0.530023 -0.634827 0
M  V30 7250 H 671.665 0.40613 -1.64769 0
M  V30 7251 H 670.437 1.25564 -3.70607 0
M  V30 7252 H 670.06 2.75257 -2.86913 0
M  V30 7253 N 671.057 1.43213 0.657864 0
M  V30 7254 C 672.303 1.44798 1.41991 0
M  V30 7255 C 672.636 0.070256 1.94073 0
M  V30 7256 O 671.911 -0.908177 1.71995 0
M  V30 7257 C 672.194 2.4865 2.60471 0
M  V30 7258 C 672.047 3.95679 2.13911 0
M  V30 7259 C 673.366 2.49292 3.62686 0
M  V30 7260 H 670.485 0.527244 0.514959 0
M  V30 7261 H 673.127 1.74733 0.74621 0
M  V30 7262 H 671.277 2.23254 3.17946 0
M  V30 7263 H 672.949 4.32116 1.61472 0
M  V30 7264 H 671.192 4.08733 1.45325 0
M  V30 7265 H 671.863 4.6395 2.99089 0
M  V30 7266 H 674.339 2.71917 3.14961 0
M  V30 7267 H 673.215 3.23907 4.43143 0
M  V30 7268 H 673.476 1.52502 4.14964 0
M  V30 7269 N 672.536 -0.895792 1.29666 0
M  V30 7270 C 673.785 -1.64131 1.17234 0
M  V30 7271 C 674.098 -1.93665 -0.274416 0
M  V30 7272 O 675.304 -2.66472 -0.520105 0
M  V30 7273 C 673.76 -2.95764 2.05065 0
M  V30 7274 C 673.368 -2.7381 3.54587 0
M  V30 7275 C 675.112 -3.737 2.01367 0
M  V30 7276 C 673.019 -4.01194 4.34508 0
M  V30 7277 H 671.949 -0.615742 0.435175 0
M  V30 7278 H 674.6 -0.992626 1.54335 0
M  V30 7279 H 672.982 -3.61867 1.60837 0
M  V30 7280 H 674.156 -2.16277 4.06892 0
M  V30 7281 H 672.471 -2.09265 3.59996 0
M  V30 7282 H 675.068 -4.68152 2.58337 0
M  V30 7283 H 675.411 -4.04245 0.994575 0
M  V30 7284 H 675.944 -3.14444 2.43659 0
M  V30 7285 H 672.683 -3.75813 5.37071 0
M  V30 7286 H 672.203 -4.58272 3.86971 0
M  V30 7287 H 673.882 -4.69307 4.45376 0
M  V30 7288 N 674.014 -1.12206 -1.10668 0
M  V30 7289 C 675.239 -0.898938 -1.86906 0
M  V30 7290 C 675.664 0.546346 -1.79991 0
M  V30 7291 O 675.022 1.38655 -1.1681 0
M  V30 7292 C 675.07 -1.37529 -3.33344 0
M  V30 7293 O 674.174 -0.55218 -4.08687 0
M  V30 7294 H 673.515 -0.323163 -0.580053 0
M  V30 7295 H 676.045 -1.49355 -1.39837 0
M  V30 7296 H 676.055 -1.3733 -3.84193 0
M  V30 7297 H 674.73 -2.42767 -3.37693 0
M  V30 7298 H 673.307 -0.620947 -3.67694 0
M  V30 7299 N 675.492 1.28418 -0.913599 0
M  V30 7300 C 676.72 1.99106 -0.562536 0
M  V30 7301 C 677.135 1.68273 0.856137 0
M  V30 7302 O 676.492 0.935401 1.56705 0
M  V30 7303 C 676.543 3.5338 -0.761903 0
M  V30 7304 O 676.264 3.83127 -2.12475 0
M  V30 7305 C 677.765 4.41328 -0.417651 0
M  V30 7306 H 674.985 0.635798 -0.214481 0
M  V30 7307 H 677.529 1.63618 -1.22676 0
M  V30 7308 H 675.684 3.8713 -0.144676 0
M  V30 7309 H 676.098 4.77763 -2.16431 0
M  V30 7310 H 677.572 5.48642 -0.607919 0
M  V30 7311 H 678.049 4.34422 0.646108 0
M  V30 7312 H 678.655 4.13074 -1.01241 0
M  V30 7313 N 676.97 0.677563 1.42291 0
M  V30 7314 C 677.9 0.014968 2.33495 0
M  V30 7315 C 678.881 -0.786376 1.50831 0
M  V30 7316 O 680.066 -0.742975 1.79426 0
M  V30 7317 C 677.196 -0.935023 3.34477 0
M  V30 7318 C 676.15 -0.242074 4.27315 0
M  V30 7319 C 675.476 -1.30519 5.18526 0
M  V30 7320 C 676.776 0.880604 5.14823 0
M  V30 7321 H 678.47 0.776671 2.89151 0
M  V30 7322 H 676.016 0.37494 1.39033 0
M  V30 7323 H 677.969 -1.40766 3.97194 0
M  V30 7324 H 676.693 -1.72818 2.77131 0
M  V30 7325 H 675.352 0.210351 3.65996 0
M  V30 7326 H 675 -2.09041 4.57505 0
M  V30 7327 H 674.7 -0.846652 5.81468 0
M  V30 7328 H 676.224 -1.7787 5.84119 0
M  V30 7329 H 677.638 0.489062 5.7121 0
M  V30 7330 H 676.035 1.26511 5.86613 0
M  V30 7331 H 677.105 1.72818 4.53059 0
M  V30 7332 N 678.448 -1.51871 0.421078 0
M  V30 7333 C 679.38 -2.25052 -0.434065 0
M  V30 7334 C 680.393 -1.28458 -1.00013 0
M  V30 7335 O 681.582 -1.54323 -0.897033 0
M  V30 7336 C 678.682 -2.97813 -1.61743 0
M  V30 7337 C 677.855 -4.21374 -1.17315 0
M  V30 7338 C 676.914 -4.76854 -2.22478 0
M  V30 7339 O 675.94 -5.39123 -1.82577 0
M  V30 7340 N 677.142 -4.59467 -3.54782 0
M  V30 7341 H 679.907 -2.99077 0.193073 0
M  V30 7342 H 677.468 -1.59972 0.249088 0
M  V30 7343 H 679.46 -3.3182 -2.31685 0
M  V30 7344 H 678.03 -2.26899 -2.15024 0
M  V30 7345 H 677.25 -3.93046 -0.3014 0
M  V30 7346 H 678.538 -5.01591 -0.853444 0
M  V30 7347 H 677.936 -4.09832 -3.89941 0
M  V30 7348 H 676.493 -4.9788 -4.20665 0
M  V30 7349 N 679.926 -0.151884 -1.56866 0
M  V30 7350 C 681.156 0.504081 -2.00356 0
M  V30 7351 C 681.564 1.58639 -1.03103 0
M  V30 7352 O 680.907 1.83688 -0.0207931 0
M  V30 7353 C 680.969 1.15975 -3.40279 0
M  V30 7354 C 680.633 0.221453 -4.56463 0
M  V30 7355 C 681.63 -0.552766 -5.16953 0
M  V30 7356 C 679.315 0.122936 -5.0215 0
M  V30 7357 C 681.309 -1.4129 -6.21543 0
M  V30 7358 C 678.996 -0.740801 -6.06593 0
M  V30 7359 C 679.994 -1.50732 -6.6616 0
M  V30 7360 O 679.682 -2.35666 -7.68581 0
M  V30 7361 H 679.414 0.135279 -0.662326 0
M  V30 7362 H 681.968 -0.244916 -2.03935 0
M  V30 7363 H 680.198 1.95649 -3.33554 0
M  V30 7364 H 681.887 1.71594 -3.67846 0
M  V30 7365 H 682.653 -0.486716 -4.82552 0
M  V30 7366 H 678.532 0.70931 -4.5551 0
M  V30 7367 H 682.076 -2.01166 -6.67966 0
M  V30 7368 H 677.973 -0.808125 -6.40421 0
M  V30 7369 H 678.741 -2.28967 -7.85822 0
M  V30 7370 N 681.404 1.57128 0.121893 0
M  V30 7371 C 682.334 2.03165 1.15092 0
M  V30 7372 C 683.315 0.915587 1.43356 0
M  V30 7373 O 684.5 1.1851 1.53847 0
M  V30 7374 C 681.63 2.43352 2.47784 0
M  V30 7375 C 680.584 3.58376 2.33989 0
M  V30 7376 C 679.91 3.84454 3.71617 0
M  V30 7377 C 681.21 4.90199 1.80283 0
M  V30 7378 H 682.904 2.89382 0.768023 0
M  V30 7379 H 680.45 1.39218 0.367998 0
M  V30 7380 H 682.403 2.74163 3.20019 0
M  V30 7381 H 681.127 1.54103 2.87958 0
M  V30 7382 H 679.786 3.2777 1.64202 0
M  V30 7383 H 679.434 2.92414 4.09271 0
M  V30 7384 H 679.134 4.61877 3.6324 0
M  V30 7385 H 680.658 4.17714 4.45362 0
M  V30 7386 H 682.072 5.19565 2.42333 0
M  V30 7387 H 680.469 5.71601 1.82735 0
M  V30 7388 H 681.539 4.78904 0.760184 0
M  V30 7389 N 682.882 -0.391992 1.52647 0
M  V30 7390 C 683.83 -1.4991 1.77848 0
M  V30 7391 C 684.824 -1.56587 0.646282 0
M  V30 7392 O 686.03 -1.59789 0.828698 0
M  V30 7393 H 682.405 -0.498883 0.56269 0
M  V30 7394 H 684.376 -1.25847 2.70564 0
M  V30 7395 C 683.125 -2.87081 1.96163 0
M  V30 7396 H 682.448 -2.82692 2.82711 0
M  V30 7397 H 683.888 -3.63792 2.17787 0
M  V30 7398 C 682.347 -3.28822 0.733348 0
M  V30 7399 O 682.877 -4.01598 -0.0906481 0
M  V30 7400 N 681.083 -2.85068 0.564317 0
M  V30 7401 H 680.63 -2.26012 1.23598 0
M  V30 7402 H 680.588 -3.13355 -0.256166 0
M  V30 7403 N 684.36 -1.4356 -0.65026 0
M  V30 7404 C 685.29 -1.51758 -1.77459 0
M  V30 7405 C 686.271 -0.372019 -1.65982 0
M  V30 7406 O 687.456 -0.589627 -1.85033 0
M  V30 7407 C 684.586 -1.44302 -3.15902 0
M  V30 7408 C 683.54 -2.57138 -3.42146 0
M  V30 7409 C 682.866 -2.34735 -4.8042 0
M  V30 7410 C 684.166 -3.99373 -3.36598 0
M  V30 7411 H 685.86 -2.45863 -1.70855 0
M  V30 7412 H 683.406 -1.18333 -0.820566 0
M  V30 7413 H 685.359 -1.48641 -3.94314 0
M  V30 7414 H 684.083 -0.467026 -3.23244 0
M  V30 7415 H 682.742 -2.52157 -2.66106 0
M  V30 7416 H 682.39 -1.35372 -4.84441 0
M  V30 7417 H 682.09 -3.10375 -4.9894 0
M  V30 7418 H 683.614 -2.40862 -5.61086 0
M  V30 7419 H 685.028 -4.05826 -4.04942 0
M  V30 7420 H 683.425 -4.75063 -3.66654 0
M  V30 7421 H 684.495 -4.243 -2.34729 0
M  V30 7422 N 685.838 0.888903 -1.30139 0
M  V30 7423 C 687.087 1.63507 -1.18103 0
M  V30 7424 C 687.4 1.93808 0.264141 0
M  V30 7425 O 688.606 2.66744 0.505966 0
M  V30 7426 C 687.062 2.94673 -2.0663 0
M  V30 7427 C 686.67 2.71926 -3.56034 0
M  V30 7428 C 688.414 3.72626 -2.03346 0
M  V30 7429 C 686.321 3.98884 -4.3663 0
M  V30 7430 H 685.251 0.613426 -0.438435 0
M  V30 7431 H 687.902 0.984427 -1.54859 0
M  V30 7432 H 686.284 3.61009 -1.62754 0
M  V30 7433 H 687.458 2.14116 -4.08033 0
M  V30 7434 H 685.773 2.07353 -3.61101 0
M  V30 7435 H 688.37 4.66775 -2.60816 0
M  V30 7436 H 688.713 4.03712 -1.016 0
M  V30 7437 H 689.246 3.13147 -2.45324 0
M  V30 7438 H 685.985 3.72959 -5.39056 0
M  V30 7439 H 685.505 4.56214 -3.89396 0
M  V30 7440 H 687.184 4.66938 -4.47859 0
M  V30 7441 N 687.317 1.12792 1.10072 0
M  V30 7442 C 688.265 0.794523 2.18609 0
M  V30 7443 C 689.259 -0.220271 1.67962 0
M  V30 7444 O 690.465 -0.0780938 1.79831 0
M  V30 7445 H 686.84 0.239123 0.712969 0
M  V30 7446 H 688.811 1.71823 2.43966 0
M  V30 7447 C 687.56 0.269548 3.46654 0
M  V30 7448 H 686.883 1.04171 3.8599 0
M  V30 7449 H 688.323 0.0746242 4.23934 0
M  V30 7450 C 686.782 -1.00333 3.21613 0
M  V30 7451 O 687.312 -2.08042 3.4363 0
M  V30 7452 N 685.518 -0.931763 2.75257 0
M  V30 7453 H 685.065 -0.0551197 2.57541 0
M  V30 7454 H 685.023 -1.78405 2.58881 0
M  V30 7455 N 688.795 -1.27931 0.920396 0
M  V30 7456 C 690.025 -1.98516 0.572256 0
M  V30 7457 C 690.433 -1.68912 -0.852375 0
M  V30 7458 O 689.776 -0.94203 -1.57707 0
M  V30 7459 C 689.838 -3.5243 0.709485 0
M  V30 7460 C 689.502 -4.0564 2.10489 0
M  V30 7461 C 690.499 -4.1897 3.07831 0
M  V30 7462 C 688.184 -4.40168 2.41986 0
M  V30 7463 C 690.178 -4.66093 4.34783 0
M  V30 7464 C 687.865 -4.86983 3.69176 0
M  V30 7465 C 688.863 -4.99903 4.65388 0
M  V30 7466 O 688.551 -5.45694 5.90316 0
M  V30 7467 H 688.283 -0.64047 0.216274 0
M  V30 7468 H 690.837 -1.6393 1.23758 0
M  V30 7469 H 689.067 -3.86698 -0.0129263 0
M  V30 7470 H 690.756 -4.04233 0.367474 0
M  V30 7471 H 691.522 -3.92562 2.84816 0
M  V30 7472 H 687.401 -4.29358 1.67846 0
M  V30 7473 H 690.945 -4.76092 5.09884 0
M  V30 7474 H 686.842 -5.12832 3.92012 0
M  V30 7475 H 687.61 -5.63965 5.932 0
M  V30 7476 N 690.273 -0.685099 -1.4193 0
M  V30 7477 C 691.503 -0.220052 -2.05425 0
M  V30 7478 C 691.911 1.13185 -1.51611 0
M  V30 7479 O 691.254 1.71631 -0.654875 0
M  V30 7480 C 691.316 -0.0888364 -3.5939 0
M  V30 7481 C 690.98 -1.37109 -4.35947 0
M  V30 7482 C 691.977 -2.30675 -4.65924 0
M  V30 7483 C 689.662 -1.62155 -4.75406 0
M  V30 7484 C 691.656 -3.47556 -5.34306 0
M  V30 7485 C 689.343 -2.79324 -5.43527 0
M  V30 7486 C 690.341 -3.71848 -5.72903 0
M  V30 7487 O 690.029 -4.86966 -6.39624 0
M  V30 7488 H 689.761 -0.102165 -0.668235 0
M  V30 7489 H 692.315 -0.935194 -1.82875 0
M  V30 7490 H 690.545 0.681981 -3.80639 0
M  V30 7491 H 692.234 0.337669 -4.04493 0
M  V30 7492 H 693 -2.12579 -4.3593 0
M  V30 7493 H 688.879 -0.910053 -4.51928 0
M  V30 7494 H 692.423 -4.19794 -5.57153 0
M  V30 7495 H 688.32 -2.97342 -5.72938 0
M  V30 7496 H 689.088 -4.86644 -6.58118 0
M  V30 7497 N 691.751 1.51645 -0.429126 0
M  V30 7498 C 692.698 2.27542 0.386446 0
M  V30 7499 C 693.668 1.30786 1.02393 0
M  V30 7500 O 694.853 1.59678 1.0444 0
M  V30 7501 C 691.993 3.11457 1.48623 0
M  V30 7502 C 691.106 4.23196 0.867691 0
M  V30 7503 C 690.241 4.94435 1.94183 0
M  V30 7504 C 689.28 5.98108 1.30129 0
M  V30 7505 N 688.417 6.62786 2.31644 0
M  V30 7506 H 693.257 2.968 -0.267155 0
M  V30 7507 H 690.794 1.46397 -0.143591 0
M  V30 7508 H 692.752 3.58429 2.13506 0
M  V30 7509 H 691.382 2.44329 2.10957 0
M  V30 7510 H 690.434 3.80248 0.107373 0
M  V30 7511 H 691.746 4.97499 0.35997 0
M  V30 7512 H 690.9 5.44914 2.66747 0
M  V30 7513 H 689.639 4.19744 2.48326 0
M  V30 7514 H 688.644 5.4693 0.561082 0
M  V30 7515 H 689.869 6.74751 0.767303 0
M  V30 7516 H 687.815 5.90913 2.84883 0
M  V30 7517 H 687.732 7.32828 1.85741 0
M  V30 7518 H 689 7.17897 3.03717 0
M  V30 7519 N 693.229 0.160201 1.56784 0
M  V30 7520 C 694.477 -0.486625 1.96154 0
M  V30 7521 C 694.798 -1.64525 1.04673 0
M  V30 7522 O 694.068 -1.95586 0.110864 0
M  V30 7523 H 692.648 -0.182764 0.724297 0
M  V30 7524 H 695.31 0.238787 1.93432 0
M  V30 7525 H 694.406 -0.854025 3.00188 0
M  V30 7526 N 694.707 -1.5719 -0.113559 0
M  V30 7527 C 695.639 -1.97393 -1.16484 0
M  V30 7528 C 696.652 -0.873964 -1.37352 0
M  V30 7529 O 697.841 -1.15222 -1.36331 0
M  V30 7530 C 694.941 -2.26174 -2.52386 0
M  V30 7531 C 694.114 -3.57479 -2.52046 0
M  V30 7532 C 693.173 -3.74409 -3.69735 0
M  V30 7533 O 692.199 -4.46463 -3.53071 0
M  V30 7534 N 693.401 -3.13588 -4.88511 0
M  V30 7535 H 696.166 -2.88184 -0.822814 0
M  V30 7536 H 693.727 -1.59044 -0.302769 0
M  V30 7537 H 695.719 -2.3471 -3.29687 0
M  V30 7538 H 694.289 -1.41483 -2.7875 0
M  V30 7539 H 693.509 -3.60081 -1.60421 0
M  V30 7540 H 694.797 -4.43775 -2.48881 0
M  V30 7541 H 694.195 -2.55026 -5.04953 0
M  V30 7542 H 692.752 -3.27637 -5.63469 0
M  V30 7543 N 696.185 0.383891 -1.52853 0
M  V30 7544 C 697.415 1.14783 -1.7178 0
M  V30 7545 C 697.823 1.84055 -0.438211 0
M  V30 7546 O 697.166 1.73713 0.597465 0
M  V30 7547 C 697.228 2.23543 -2.81547 0
M  V30 7548 C 696.892 1.74195 -4.22499 0
M  V30 7549 C 697.889 1.21591 -5.05481 0
M  V30 7550 C 695.574 1.80262 -4.6884 0
M  V30 7551 C 697.568 0.757104 -6.32888 0
M  V30 7552 C 695.255 1.33993 -5.96229 0
M  V30 7553 C 696.253 0.818049 -6.78083 0
M  V30 7554 O 695.941 0.362123 -8.03084 0
M  V30 7555 H 695.673 0.349908 -0.578395 0
M  V30 7556 H 698.227 0.454377 -2.00311 0
M  V30 7557 H 696.457 2.96328 -2.48449 0
M  V30 7558 H 698.146 2.8519 -2.88828 0
M  V30 7559 H 698.912 1.16257 -4.7086 0
M  V30 7560 H 694.791 2.19825 -4.05213 0
M  V30 7561 H 698.335 0.34908 -6.96726 0
M  V30 7562 H 694.232 1.39015 -6.30353 0
M  V30 7563 H 695 0.483134 -8.17073 0
M  V30 7564 N 697.663 1.43903 0.642637 0
M  V30 7565 C 698.912 1.45362 1.39831 0
M  V30 7566 C 699.225 0.0856289 1.95412 0
M  V30 7567 O 700.431 -0.0222856 2.71491 0
M  V30 7568 C 698.887 2.55857 2.53111 0
M  V30 7569 C 698.495 3.98811 2.04092 0
M  V30 7570 C 700.239 2.66524 3.30402 0
M  V30 7571 C 698.146 5.00751 3.14647 0
M  V30 7572 H 697.076 0.540777 0.52543 0
M  V30 7573 H 699.727 1.69929 0.692559 0
M  V30 7574 H 698.109 2.2451 3.26207 0
M  V30 7575 H 699.283 4.3967 1.37938 0
M  V30 7576 H 697.598 3.92284 1.39651 0
M  V30 7577 H 700.195 3.39858 4.12796 0
M  V30 7578 H 700.538 1.71949 3.79129 0
M  V30 7579 H 701.071 2.97224 2.64392 0
M  V30 7580 H 697.81 5.96914 2.70876 0
M  V30 7581 H 697.33 4.64495 3.79479 0
M  V30 7582 H 699.009 5.23933 3.79609 0
M  V30 7583 N 699.141 -0.881989 1.30609 0
M  V30 7584 C 700.071 -2.00413 1.1982 0
M  V30 7585 C 701.052 -1.69871 0.0881538 0
M  V30 7586 O 702.237 -1.92304 0.2707 0
M  V30 7587 C 699.367 -3.35641 0.89233 0
M  V30 7588 C 698.321 -3.80451 1.96064 0
M  V30 7589 C 697.647 -5.13003 1.5077 0
M  V30 7590 C 698.947 -3.98855 3.37213 0
M  V30 7591 H 700.641 -2.09698 2.13699 0
M  V30 7592 H 698.187 -1.00754 1.02882 0
M  V30 7593 H 700.14 -4.13669 0.803497 0
M  V30 7594 H 698.864 -3.26497 -0.0821381 0
M  V30 7595 H 697.523 -3.04654 2.03916 0
M  V30 7596 H 697.171 -5.0029 0.521417 0
M  V30 7597 H 696.871 -5.43956 2.22229 0
M  V30 7598 H 698.395 -5.93554 1.43271 0
M  V30 7599 H 699.809 -4.67312 3.32103 0
M  V30 7600 H 698.206 -4.41188 4.06784 0
M  V30 7601 H 699.276 -3.02614 3.78883 0
M  V30 7602 N 700.619 -1.13374 -1.09472 0
M  V30 7603 C 701.847 -0.918351 -1.85402 0
M  V30 7604 C 702.262 0.53281 -1.81126 0
M  V30 7605 O 701.619 1.36879 -1.20708 0
M  V30 7606 C 701.67 -1.39743 -3.33398 0
M  V30 7607 O 701.391 -2.79172 -3.37631 0
M  V30 7608 C 702.892 -1.22042 -4.2617 0
M  V30 7609 H 700.112 -0.327511 -0.585643 0
M  V30 7610 H 702.656 -1.50617 -1.38328 0
M  V30 7611 H 700.811 -0.852619 -3.77901 0
M  V30 7612 H 701.225 -3.00428 -4.29934 0
M  V30 7613 H 702.699 -1.60438 -5.2817 0
M  V30 7614 H 703.176 -0.162047 -4.38901 0
M  V30 7615 H 703.782 -1.75323 -3.87482 0
M  V30 7616 N 702.098 1.27442 -0.927168 0
M  V30 7617 C 703.028 2.29256 -0.443188 0
M  V30 7618 C 704.009 1.62701 0.49624 0
M  V30 7619 O 705.194 1.90013 0.401105 0
M  V30 7620 C 702.324 3.45955 0.305366 0
M  V30 7621 C 701.278 4.24501 -0.546178 0
M  V30 7622 C 700.604 5.33671 0.331512 0
M  V30 7623 C 701.904 4.89921 -1.81037 0
M  V30 7624 H 703.598 2.69988 -1.29409 0
M  V30 7625 H 701.144 1.29792 -0.623705 0
M  V30 7626 H 703.097 4.1628 0.654885 0
M  V30 7627 H 701.821 3.04138 1.19029 0
M  V30 7628 H 700.48 3.55921 -0.878398 0
M  V30 7629 H 700.128 4.88096 1.21537 0
M  V30 7630 H 699.828 5.87131 -0.234746 0
M  V30 7631 H 701.352 6.0684 0.676614 0
M  V30 7632 H 702.766 5.52536 -1.52895 0
M  V30 7633 H 701.163 5.53436 -2.32009 0
M  V30 7634 H 702.233 4.13652 -2.53021 0
M  V30 7635 N 703.576 0.692616 1.41565 0
M  V30 7636 C 704.801 0.229776 2.06123 0
M  V30 7637 C 705.226 -1.11119 1.5177 0
M  V30 7638 O 704.584 -1.69498 0.643444 0
M  V30 7639 C 704.632 0.19469 3.60074 0
M  V30 7640 O 703.736 -0.831366 4.03933 0
M  V30 7641 H 703.077 0.113002 0.654314 0
M  V30 7642 H 705.607 0.946645 1.81383 0
M  V30 7643 H 705.617 0.0245487 4.07993 0
M  V30 7644 H 704.292 1.17339 3.99004 0
M  V30 7645 H 702.869 -0.630819 3.67526 0
M  V30 7646 N 705.054 -1.51416 0.437162 0
M  V30 7647 C 705.964 -2.31493 -0.380537 0
M  V30 7648 C 706.98 -1.40399 -1.02782 0
M  V30 7649 O 708.156 -1.73471 -1.02323 0
M  V30 7650 C 705.221 -3.1413 -1.46709 0
M  V30 7651 C 704.282 -4.21003 -0.839953 0
M  V30 7652 C 703.515 -4.9969 -1.87473 0
M  V30 7653 O 703.738 -4.79008 -3.09689 0
M  V30 7654 O 702.672 -5.8379 -1.46536 0
M  V30 7655 H 706.498 -3.02469 0.273183 0
M  V30 7656 H 704.083 -1.48059 0.199706 0
M  V30 7657 H 705.965 -3.65505 -2.09724 0
M  V30 7658 H 704.64 -2.45919 -2.10489 0
M  V30 7659 H 703.547 -3.73706 -0.171752 0
M  V30 7660 H 704.88 -4.91587 -0.245638 0
M  V30 7661 N 706.532 -0.168513 -1.56696 0
M  V30 7662 C 707.809 0.523367 -1.88468 0
M  V30 7663 C 708.189 1.81503 -1.07796 0
M  V30 7664 O 707.537 2.27859 -0.171045 0
M  V30 7665 C 707.747 0.767991 -3.40445 0
M  V30 7666 C 709.095 1.09924 -4.10124 0
M  V30 7667 O 710.119 0.856625 -3.45746 0
M  V30 7668 O 708.978 1.55681 -5.23856 0
M  V30 7669 H 706.072 0.269447 -0.781874 0
M  V30 7670 H 708.618 -0.206739 -1.68436 0
M  V30 7671 H 707.39 -0.145254 -3.9103 0
M  V30 7672 H 707.013 1.55151 -3.66079 0
M  V30 7673 N 708.01 1.57248 0.105221 0
M  V30 7674 C 709.259 1.84756 0.809198 0
M  V30 7675 C 709.572 0.756262 1.80389 0
M  V30 7676 O 710.778 0.918158 2.55504 0
M  V30 7677 C 709.234 3.27613 1.48989 0
M  V30 7678 C 708.842 4.44788 0.535484 0
M  V30 7679 C 710.586 3.64356 2.17819 0
M  V30 7680 C 708.493 5.78676 1.22019 0
M  V30 7681 H 707.423 0.689139 0.305946 0
M  V30 7682 H 710.074 1.83395 0.0620371 0
M  V30 7683 H 708.456 3.23485 2.28415 0
M  V30 7684 H 709.63 4.60243 -0.226557 0
M  V30 7685 H 707.945 4.16374 -0.0465769 0
M  V30 7686 H 710.542 4.61663 2.69761 0
M  V30 7687 H 710.885 2.92474 2.96251 0
M  V30 7688 H 711.418 3.70328 1.45264 0
M  V30 7689 H 708.157 6.53763 0.476875 0
M  V30 7690 H 707.677 5.67083 1.9539 0
M  V30 7691 H 709.356 6.22897 1.74952 0
M  V30 7692 N 709.488 -0.375779 1.53054 0
M  V30 7693 C 710.734 -1.12114 1.68992 0
M  V30 7694 C 711.067 -1.8926 0.435238 0
M  V30 7695 O 710.342 -1.86044 -0.567278 0
M  V30 7696 C 710.625 -2.08867 2.93337 0
M  V30 7697 C 710.478 -1.35397 4.28938 0
M  V30 7698 C 711.797 -3.09124 3.13257 0
M  V30 7699 H 708.916 -0.406207 0.614951 0
M  V30 7700 H 711.558 -0.403054 1.85676 0
M  V30 7701 H 709.708 -2.70102 2.79244 0
M  V30 7702 H 711.38 -0.770242 4.54824 0
M  V30 7703 H 709.623 -0.655801 4.28814 0
M  V30 7704 H 710.294 -2.06161 5.12056 0
M  V30 7705 H 712.77 -2.57987 3.26469 0
M  V30 7706 H 711.646 -3.74054 4.01715 0
M  V30 7707 H 711.907 -3.78729 2.28072 0
M  V30 7708 N 710.966 -1.44241 -0.634997 0
M  V30 7709 C 712.243 -1.37296 -1.39317 0
M  V30 7710 C 712.623 -0.0297532 -2.11079 0
M  V30 7711 O 711.971 0.987524 -2.06059 0
M  V30 7712 C 712.181 -2.56853 -2.36279 0
M  V30 7713 C 713.529 -3.00747 -2.99728 0
M  V30 7714 O 714.553 -2.5703 -2.46605 0
M  V30 7715 O 713.412 -3.76533 -3.96087 0
M  V30 7716 H 710.506 -0.543503 -0.623325 0
M  V30 7717 H 713.052 -1.56324 -0.660376 0
M  V30 7718 H 711.824 -3.46228 -1.82324 0
M  V30 7719 H 711.447 -2.40019 -3.16981 0
M  V30 7720 N 712.444 0.87505 -1.31075 0
M  V30 7721 C 713.692 1.62447 -1.20231 0
M  V30 7722 C 714.013 1.93506 0.240888 0
M  V30 7723 O 713.283 1.57847 1.16022 0
M  V30 7724 H 711.863 0.602207 -0.441991 0
M  V30 7725 H 714.525 1.04788 -1.64334 0
M  V30 7726 H 713.621 2.57031 -1.77036 0
M  V30 7727 N 713.922 1.13953 1.08869 0
M  V30 7728 C 714.872 0.790812 2.13846 0
M  V30 7729 C 715.856 -0.217819 1.59419 0
M  V30 7730 O 717.048 -0.0208723 1.76988 0
M  V30 7731 C 714.177 0.26479 3.42277 0
M  V30 7732 C 713.263 1.30267 4.03598 0
M  V30 7733 N 713.654 2.50535 4.39393 0
M  V30 7734 C 711.952 1.15178 4.30871 0
M  V30 7735 C 712.653 3.16938 4.87776 0
M  V30 7736 N 711.629 2.44349 4.85587 0
M  V30 7737 H 715.431 1.70577 2.39334 0
M  V30 7738 H 712.945 1.02268 1.26154 0
M  V30 7739 H 714.942 -0.00330398 4.169 0
M  V30 7740 H 713.602 -0.644419 3.18241 0
M  V30 7741 H 714.613 2.87798 4.30572 0
M  V30 7742 H 711.29 0.301204 4.16412 0
M  V30 7743 H 712.68 4.19453 5.2489 0
M  V30 7744 N 715.4 -1.26948 0.933913 0
M  V30 7745 C 716.31 -2.30366 0.443671 0
M  V30 7746 C 717.326 -1.67284 -0.478745 0
M  V30 7747 O 718.502 -1.98156 -0.360043 0
M  V30 7748 C 715.567 -3.45485 -0.289974 0
M  V30 7749 C 714.628 -4.24069 0.668114 0
M  V30 7750 C 713.861 -5.33691 -0.0306138 0
M  V30 7751 O 714.084 -5.5656 -1.24888 0
M  V30 7752 O 713.018 -5.98441 0.644384 0
M  V30 7753 H 716.844 -2.74349 1.30254 0
M  V30 7754 H 714.429 -1.32012 0.699506 0
M  V30 7755 H 716.311 -4.15486 -0.70353 0
M  V30 7756 H 714.986 -3.03546 -1.12435 0
M  V30 7757 H 713.893 -3.56579 1.13147 0
M  V30 7758 H 715.226 -4.69739 1.46989 0
M  V30 7759 N 716.879 -0.700114 -1.41195 0
M  V30 7760 C 718.295 -0.372114 -1.55201 0
M  V30 7761 C 718.495 1.12053 -1.6747 0
M  V30 7762 O 717.551 1.90642 -1.65566 0
M  V30 7763 C 718.864 -1.12462 -2.78878 0
M  V30 7764 C 720.412 -1.10941 -2.92679 0
M  V30 7765 C 720.887 -1.84376 -4.19249 0
M  V30 7766 N 722.378 -1.81368 -4.26216 0
M  V30 7767 C 723.113 -2.35024 -5.23021 0
M  V30 7768 N 722.609 -2.9717 -6.25829 0
M  V30 7769 N 724.402 -2.25254 -5.14992 0
M  V30 7770 H 716.553 -1.66816 -1.31477 0
M  V30 7771 H 718.816 -0.704223 -0.634644 0
M  V30 7772 H 718.522 -2.17937 -2.76037 0
M  V30 7773 H 718.396 -0.706152 -3.70531 0
M  V30 7774 H 720.783 -0.062911 -2.95033 0
M  V30 7775 H 720.864 -1.56698 -2.02187 0
M  V30 7776 H 720.508 -2.89008 -4.17656 0
M  V30 7777 H 720.438 -1.3605 -5.08722 0
M  V30 7778 H 722.929 -1.36062 -3.52556 0
M  V30 7779 H 723.242 -3.35668 -6.96094 0
M  V30 7780 H 721.587 -3.01249 -6.26318 0
M  V30 7781 H 724.778 -1.76372 -4.33602 0
M  V30 7782 H 724.951 -2.67373 -5.90268 0
M  V30 7783 N 718.357 1.51182 -0.445186 0
M  V30 7784 C 719.32 2.26501 0.350722 0
M  V30 7785 C 720.32 1.3025 0.942952 0
M  V30 7786 O 721.51 1.53897 0.816175 0
M  V30 7787 C 718.642 3.06274 1.49697 0
M  V30 7788 H 719.835 2.98299 -0.309474 0
M  V30 7789 H 717.388 1.55034 -0.198551 0
M  V30 7790 H 718.123 2.38911 2.19299 0
M  V30 7791 H 717.908 3.76979 1.0784 0
M  V30 7792 H 719.398 3.63306 2.05909 0
M  V30 7793 N 719.835 0.176821 1.56605 0
M  V30 7794 C 720.768 -0.790135 2.14084 0
M  V30 7795 C 721.746 -1.22219 1.07244 0
M  V30 7796 O 722.93 -1.31298 1.35252 0
M  V30 7797 C 720.057 -2.06475 2.68488 0
M  V30 7798 C 719.103 -1.77628 3.87751 0
M  V30 7799 S 719.936 -0.940612 5.27174 0
M  V30 7800 C 721.092 -2.22577 5.84988 0
M  V30 7801 H 721.325 -0.30144 2.95768 0
M  V30 7802 H 718.858 -0.0379279 1.54353 0
M  V30 7803 H 720.816 -2.79683 3.00479 0
M  V30 7804 H 719.477 -2.52457 1.8688 0
M  V30 7805 H 718.67 -2.72215 4.24164 0
M  V30 7806 H 718.272 -1.12512 3.56675 0
M  V30 7807 H 720.564 -3.17992 5.98237 0
M  V30 7808 H 721.507 -1.90624 6.81959 0
M  V30 7809 H 721.915 -2.34588 5.13448 0
M  V30 7810 N 721.313 -1.57302 -0.09688 0
M  V30 7811 C 722.243 -2.0497 -1.11846 0
M  V30 7812 C 723.224 -0.938278 -1.41882 0
M  V30 7813 O 724.409 -1.20943 -1.51942 0
M  V30 7814 C 721.539 -2.47264 -2.43881 0
M  V30 7815 C 720.493 -3.62053 -2.28257 0
M  V30 7816 C 719.819 -3.90318 -3.65453 0
M  V30 7817 C 721.119 -4.93005 -1.72461 0
M  V30 7818 H 722.813 -2.90567 -0.721888 0
M  V30 7819 H 720.359 -1.39786 -0.345803 0
M  V30 7820 H 722.312 -2.7922 -3.15617 0
M  V30 7821 H 721.036 -1.58664 -2.8547 0
M  V30 7822 H 719.695 -3.30341 -1.58967 0
M  V30 7823 H 719.343 -2.98889 -4.04567 0
M  V30 7824 H 719.043 -4.67597 -3.55846 0
M  V30 7825 H 720.567 -4.24747 -4.3866 0
M  V30 7826 H 721.981 -5.23354 -2.34036 0
M  V30 7827 H 720.378 -5.74436 -1.73618 0
M  V30 7828 H 721.448 -4.80053 -0.683898 0
M  V30 7829 N 722.791 0.367657 -1.53252 0
M  V30 7830 C 723.738 1.45028 -1.79543 0
M  V30 7831 C 724.708 1.53288 -0.63969 0
M  V30 7832 O 725.893 1.69209 -0.881653 0
M  V30 7833 C 723.033 2.82 -1.98923 0
M  V30 7834 C 722.146 2.82722 -3.26638 0
M  V30 7835 C 721.281 4.11257 -3.36216 0
M  V30 7836 C 720.32 4.06113 -4.57972 0
M  V30 7837 N 719.457 5.26293 -4.64715 0
M  V30 7838 H 724.297 1.21908 -2.71923 0
M  V30 7839 H 721.834 0.591011 -1.34705 0
M  V30 7840 H 723.792 3.61568 -2.08146 0
M  V30 7841 H 722.422 3.03523 -1.09881 0
M  V30 7842 H 721.474 1.95399 -3.26379 0
M  V30 7843 H 722.786 2.74794 -4.16281 0
M  V30 7844 H 721.94 4.99239 -3.44739 0
M  V30 7845 H 720.679 4.21935 -2.44586 0
M  V30 7846 H 719.684 3.16517 -4.49552 0
M  V30 7847 H 720.909 3.97039 -5.50942 0
M  V30 7848 H 718.855 5.37561 -3.75985 0
M  V30 7849 H 718.772 5.20526 -5.4826 0
M  V30 7850 H 720.04 6.16113 -4.77519 0
M  V30 7851 N 724.269 1.44576 0.627338 0
M  V30 7852 C 725.685 1.28546 0.945938 0
M  V30 7853 C 725.885 0.224003 2.00251 0
M  V30 7854 O 724.941 -0.388817 2.49488 0
M  V30 7855 C 726.254 2.65825 1.40561 0
M  V30 7856 C 727.802 2.73566 1.52088 0
M  V30 7857 C 728.277 4.11323 2.01438 0
M  V30 7858 N 729.768 4.13519 2.08702 0
M  V30 7859 C 730.503 5.16964 2.48065 0
M  V30 7860 N 729.999 6.30768 2.86538 0
M  V30 7861 N 731.792 5.04319 2.48232 0
M  V30 7862 H 723.943 2.1228 -0.0713567 0
M  V30 7863 H 726.206 0.947503 0.0307081 0
M  V30 7864 H 725.912 3.44591 0.703539 0
M  V30 7865 H 725.786 2.92969 2.37591 0
M  V30 7866 H 728.173 1.95116 2.21391 0
M  V30 7867 H 728.254 2.50159 0.534237 0
M  V30 7868 H 727.898 4.9025 1.32729 0
M  V30 7869 H 727.828 4.32109 3.0098 0
M  V30 7870 H 730.319 3.31385 1.81638 0
M  V30 7871 H 730.632 7.0551 3.15398 0
M  V30 7872 H 728.977 6.342 2.84281 0
M  V30 7873 H 732.168 4.14465 2.17569 0
M  V30 7874 H 732.341 5.85059 2.78585 0
M  V30 7875 N 725.747 -0.868086 1.31537 0
M  V30 7876 C 726.677 -1.99131 1.21939 0
M  V30 7877 C 727.658 -1.69768 0.106166 0
M  V30 7878 O 728.843 -1.92006 0.291081 0
M  V30 7879 C 725.973 -3.34676 0.927879 0
M  V30 7880 C 724.927 -3.7835 2.00088 0
M  V30 7881 C 724.253 -5.11375 1.56203 0
M  V30 7882 C 725.553 -3.95256 3.41424 0
M  V30 7883 H 727.247 -2.07419 2.15911 0
M  V30 7884 H 724.793 -0.996569 1.03945 0
M  V30 7885 H 726.746 -4.12793 0.847327 0
M  V30 7886 H 725.47 -3.26565 -0.0475042 0
M  V30 7887 H 724.129 -3.02474 2.07135 0
M  V30 7888 H 723.777 -4.99709 0.57445 0
M  V30 7889 H 723.477 -5.41568 2.27985 0
M  V30 7890 H 725.001 -5.92001 1.49558 0
M  V30 7891 H 726.415 -4.63764 3.3704 0
M  V30 7892 H 724.812 -4.36849 4.1144 0
M  V30 7893 H 725.882 -2.98579 3.82072 0
M  V30 7894 N 727.225 -1.14528 -1.08264 0
M  V30 7895 C 728.155 -0.856356 -2.1723 0
M  V30 7896 C 729.136 0.189251 -1.69044 0
M  V30 7897 O 730.321 0.0456119 -1.94146 0
M  V30 7898 C 727.451 -0.334662 -3.45684 0
M  V30 7899 C 726.405 -1.31588 -4.0727 0
M  V30 7900 C 725.731 -0.653428 -5.30692 0
M  V30 7901 C 727.031 -2.67866 -4.48381 0
M  V30 7902 H 728.725 -1.76755 -2.41657 0
M  V30 7903 H 726.271 -0.851287 -1.16143 0
M  V30 7904 H 728.224 -0.120128 -4.21229 0
M  V30 7905 H 726.948 0.611967 -3.20815 0
M  V30 7906 H 725.607 -1.51661 -3.33758 0
M  V30 7907 H 725.255 0.299054 -5.0211 0
M  V30 7908 H 724.955 -1.30817 -5.72853 0
M  V30 7909 H 726.479 -0.448453 -6.08951 0
M  V30 7910 H 727.893 -2.51692 -5.15096 0
M  V30 7911 H 726.29 -3.29627 -5.01464 0
M  V30 7912 H 727.36 -3.24632 -3.60198 0
M  V30 7913 N 728.703 1.26451 -0.940633 0
M  V30 7914 C 730.119 1.4608 -0.642859 0
M  V30 7915 C 730.319 1.84765 0.803998 0
M  V30 7916 O 729.375 1.96902 1.58069 0
M  V30 7917 C 730.688 2.54359 -1.60381 0
M  V30 7918 C 732.236 2.6821 -1.61345 0
M  V30 7919 C 732.711 3.79659 -2.56169 0
M  V30 7920 N 734.202 3.87051 -2.54452 0
M  V30 7921 C 734.937 4.72739 -3.24507 0
M  V30 7922 N 734.433 5.6282 -4.03987 0
M  V30 7923 N 736.226 4.66581 -3.13462 0
M  V30 7924 H 728.377 0.996289 -1.87584 0
M  V30 7925 H 730.64 0.498921 -0.80609 0
M  V30 7926 H 730.346 2.32758 -2.6366 0
M  V30 7927 H 730.22 3.52005 -1.35545 0
M  V30 7928 H 732.607 2.89184 -0.587913 0
M  V30 7929 H 732.688 1.7101 -1.90235 0
M  V30 7930 H 732.332 3.59438 -3.58841 0
M  V30 7931 H 732.262 4.76315 -2.2457 0
M  V30 7932 H 734.753 3.22649 -1.96739 0
M  V30 7933 H 735.066 6.25095 -4.54396 0
M  V30 7934 H 733.411 5.62574 -4.08088 0
M  V30 7935 H 736.602 3.9521 -2.50852 0
M  V30 7936 H 736.775 5.33141 -3.68327 0
M  V30 7937 N 730.181 0.707592 1.40822 0
M  V30 7938 C 731.43 0.240705 2.00259 0
M  V30 7939 C 731.743 -1.17027 1.56729 0
M  V30 7940 O 732.949 -1.73526 2.08809 0
M  V30 7941 C 731.405 0.379432 3.57894 0
M  V30 7942 C 731.013 1.79654 4.104 0
M  V30 7943 C 732.757 -0.0270684 4.24491 0
M  V30 7944 C 730.664 1.88628 5.60512 0
M  V30 7945 H 729.594 0.0862369 0.749052 0
M  V30 7946 H 732.245 0.877528 1.61157 0
M  V30 7947 H 730.627 -0.325842 3.94657 0
M  V30 7948 H 731.801 2.53155 3.85032 0
M  V30 7949 H 730.116 2.15379 3.56372 0
M  V30 7950 H 732.713 0.0193743 5.34696 0
M  V30 7951 H 733.056 -1.06772 4.02375 0
M  V30 7952 H 733.589 0.628361 3.92806 0
M  V30 7953 H 730.328 2.90787 5.87472 0
M  V30 7954 H 729.848 1.19528 5.8777 0
M  V30 7955 H 731.527 1.6547 6.25483 0
M  V30 7956 N 731.66 -1.50943 0.453197 0
M  V30 7957 C 732.937 -1.94872 -0.168633 0
M  V30 7958 C 733.317 -1.39272 -1.5864 0
M  V30 7959 O 732.665 -0.586272 -2.20851 0
M  V30 7960 C 732.875 -3.48757 -0.130217 0
M  V30 7961 C 734.223 -4.23331 -0.327975 0
M  V30 7962 O 735.247 -3.55594 -0.207619 0
M  V30 7963 O 734.106 -5.43529 -0.569077 0
M  V30 7964 H 731.2 -0.818042 -0.121394 0
M  V30 7965 H 733.746 -1.61782 0.512316 0
M  V30 7966 H 732.518 -3.81725 0.860346 0
M  V30 7967 H 732.141 -3.88333 -0.853397 0
M  V30 7968 N 733.138 -0.185124 -1.56509 0
M  V30 7969 C 734.363 0.465278 -2.02114 0
M  V30 7970 C 734.788 1.55083 -1.06447 0
M  V30 7971 O 734.146 1.81241 -0.0462852 0
M  V30 7972 C 734.194 1.00784 -3.46229 0
M  V30 7973 O 733.298 2.12123 -3.53663 0
M  V30 7974 H 732.639 0.109891 -0.654843 0
M  V30 7975 H 735.169 -0.293072 -2.0249 0
M  V30 7976 H 735.179 1.32697 -3.85818 0
M  V30 7977 H 733.854 0.213113 -4.15354 0
M  V30 7978 H 732.431 1.8115 -3.25943 0
M  V30 7979 N 734.616 1.57351 0.0885366 0
M  V30 7980 C 735.563 2.02523 1.10693 0
M  V30 7981 C 736.533 0.902736 1.39427 0
M  V30 7982 O 737.718 1.16921 1.50779 0
M  V30 7983 C 734.858 2.46013 2.42016 0
M  V30 7984 C 733.971 3.7181 2.19957 0
M  V30 7985 C 733.106 4.04152 3.44724 0
M  V30 7986 C 732.145 5.2304 3.17956 0
M  V30 7987 N 731.282 5.51102 4.35007 0
M  V30 7988 H 736.122 2.89302 0.714742 0
M  V30 7989 H 733.659 1.43084 0.341378 0
M  V30 7990 H 735.617 2.69274 3.18665 0
M  V30 7991 H 734.247 1.62235 2.79069 0
M  V30 7992 H 733.299 3.55987 1.34079 0
M  V30 7993 H 734.611 4.58604 1.96173 0
M  V30 7994 H 733.765 4.28225 4.29777 0
M  V30 7995 H 732.504 3.15893 3.71568 0
M  V30 7996 H 731.509 4.98781 2.31296 0
M  V30 7997 H 732.734 6.12902 2.92451 0
M  V30 7998 H 730.68 4.65802 4.61914 0
M  V30 7999 H 730.597 6.3228 4.14437 0
M  V30 8000 H 731.865 5.79714 5.21106 0
M  V30 8001 N 736.094 -0.359525 1.53444 0
M  V30 8002 C 737.334 -1.11014 1.71625 0
M  V30 8003 C 737.698 -1.86376 0.46132 0
M  V30 8004 O 738.899 -2.63724 0.519908 0
M  V30 8005 C 737.17 -2.03907 2.93524 0
M  V30 8006 S 738.729 -2.86408 3.3244 0
M  V30 8007 H 735.547 -0.375352 0.603847 0
M  V30 8008 H 738.149 -0.390604 1.91558 0
M  V30 8009 H 736.853 -1.47316 3.83048 0
M  V30 8010 H 736.384 -2.80324 2.76011 0
M  V30 8011 H 738.399 -4.06241 2.84926 0
M  V30 8012 N 737.572 -1.44907 -0.619662 0
M  V30 8013 C 738.502 -1.55488 -1.742 0
M  V30 8014 C 739.483 -0.407143 -1.65156 0
M  V30 8015 O 740.668 -0.628743 -1.8374 0
M  V30 8016 C 737.798 -1.5097 -3.1277 0
M  V30 8017 C 736.752 -2.64337 -3.36615 0
M  V30 8018 C 736.078 -2.44872 -4.75333 0
M  V30 8019 C 737.378 -4.06423 -3.28051 0
M  V30 8020 H 739.072 -2.49432 -1.65602 0
M  V30 8021 H 736.618 -1.20047 -0.795281 0
M  V30 8022 H 738.571 -1.56971 -3.91073 0
M  V30 8023 H 737.295 -0.535486 -3.2218 0
M  V30 8024 H 735.954 -2.57744 -2.60698 0
M  V30 8025 H 735.602 -1.45617 -4.81461 0
M  V30 8026 H 735.302 -3.20888 -4.92244 0
M  V30 8027 H 736.826 -2.52709 -5.55851 0
M  V30 8028 H 738.24 -4.14324 -3.96243 0
M  V30 8029 H 736.637 -4.82733 -3.56495 0
M  V30 8030 H 737.707 -4.29183 -2.25676 0
M  V30 8031 N 739.05 0.861098 -1.31996 0
M  V30 8032 C 740 1.95703 -1.1698 0
M  V30 8033 C 740.984 1.60709 -0.0784201 0
M  V30 8034 O 742.176 1.74365 -0.304262 0
M  V30 8035 C 739.305 3.31606 -0.888388 0
M  V30 8036 C 738.391 3.7284 -2.02117 0
M  V30 8037 N 738.782 3.85957 -3.26911 0
M  V30 8038 C 737.08 4.02419 -1.92289 0
M  V30 8039 C 737.781 4.21333 -4.01065 0
M  V30 8040 N 736.757 4.32502 -3.29307 0
M  V30 8041 H 740.559 2.03968 -2.11599 0
M  V30 8042 H 738.073 1.05245 -1.23682 0
M  V30 8043 H 740.07 4.09881 -0.761782 0
M  V30 8044 H 738.73 3.24662 0.0494898 0
M  V30 8045 H 739.741 3.70449 -3.61923 0
M  V30 8046 H 736.418 4.03814 -1.06022 0
M  V30 8047 H 737.808 4.39005 -5.08649 0
M  V30 8048 N 740.528 1.15101 1.07655 0
M  V30 8049 C 741.775 0.923974 1.80191 0
M  V30 8050 C 742.103 -0.549065 1.86589 0
M  V30 8051 O 741.358 -1.42307 1.3434 0
M  V30 8052 C 741.657 1.47954 3.25337 0
M  V30 8053 C 741.323 2.97253 3.39044 0
M  V30 8054 C 739.985 3.38012 3.42493 0
M  V30 8055 C 742.337 3.93219 3.42094 0
M  V30 8056 C 739.665 4.73384 3.4659 0
M  V30 8057 C 742.017 5.28458 3.47728 0
M  V30 8058 C 740.681 5.68717 3.49453 0
M  V30 8059 H 739.951 0.338106 0.659367 0
M  V30 8060 H 742.598 1.43594 1.26701 0
M  V30 8061 H 740.903 0.888691 3.81588 0
M  V30 8062 H 742.6 1.27972 3.80032 0
M  V30 8063 H 739.19 2.64746 3.37057 0
M  V30 8064 H 743.374 3.62805 3.38654 0
M  V30 8065 H 738.63 5.03925 3.46222 0
M  V30 8066 H 742.804 6.02618 3.49034 0
M  V30 8067 H 740.431 6.73596 3.5238 0
M  V30 8068 N 742.006 -1.2595 0.947325 0
M  V30 8069 C 743.234 -1.97544 0.615127 0
M  V30 8070 C 743.649 -1.70484 -0.811221 0
M  V30 8071 O 743.006 -0.97662 -1.5417 0
M  V30 8072 C 743.057 -3.51236 0.855328 0
M  V30 8073 O 742.778 -3.77359 2.22558 0
M  V30 8074 C 744.279 -4.40066 0.534515 0
M  V30 8075 H 741.499 -0.629888 0.231263 0
M  V30 8076 H 744.043 -1.60308 1.26971 0
M  V30 8077 H 742.198 -3.8661 0.247266 0
M  V30 8078 H 742.612 -4.71857 2.29022 0
M  V30 8079 H 744.086 -5.46838 0.753168 0
M  V30 8080 H 744.563 -4.35982 -0.530701 0
M  V30 8081 H 745.169 -4.10245 1.12158 0
M  V30 8082 N 743.484 -0.715051 -1.40445 0
M  V30 8083 C 744.895 -0.326763 -1.83818 0
M  V30 8084 C 745.246 1.13851 -1.59789 0
M  V30 8085 O 744.371 1.87611 -1.07848 0
M  V30 8086 C 744.966 -0.586297 -3.33688 0
M  V30 8087 C 743.525 -0.251724 -3.75557 0
M  V30 8088 C 742.672 -0.858928 -2.63662 0
M  V30 8089 H 745.623 -0.914241 -1.2972 0
M  V30 8090 H 745.644 0.148636 -3.8021 0
M  V30 8091 H 745.156 -1.65281 -3.51146 0
M  V30 8092 H 743.257 0.809754 -3.63695 0
M  V30 8093 H 743.37 -0.720348 -4.73654 0
M  V30 8094 H 741.734 -0.287013 -2.53078 0
M  V30 8095 H 742.517 -1.9297 -2.83932 0
M  V30 8096 N 744.962 1.50701 -0.461195 0
M  V30 8097 C 745.909 2.2831 0.338094 0
M  V30 8098 C 746.879 1.32928 0.995957 0
M  V30 8099 O 748.064 1.61857 1.0103 0
M  V30 8100 C 745.204 3.14539 1.41983 0
M  V30 8101 C 744.317 4.24942 0.77773 0
M  V30 8102 C 743.452 4.98443 1.83652 0
M  V30 8103 C 742.491 6.00733 1.17413 0
M  V30 8104 N 741.628 6.6755 2.17533 0
M  V30 8105 H 746.468 2.96167 -0.330051 0
M  V30 8106 H 744.005 1.4606 -0.174611 0
M  V30 8107 H 745.963 3.62877 2.05855 0
M  V30 8108 H 744.593 2.48749 2.05727 0
M  V30 8109 H 743.645 3.80391 0.0266924 0
M  V30 8110 H 744.957 4.98151 0.254362 0
M  V30 8111 H 744.111 5.50449 2.55129 0
M  V30 8112 H 742.85 4.24917 2.39367 0
M  V30 8113 H 741.855 5.47997 0.444944 0
M  V30 8114 H 743.08 6.76227 0.624006 0
M  V30 8115 H 741.026 5.96823 2.72284 0
M  V30 8116 H 740.943 7.36603 1.70154 0
M  V30 8117 H 742.211 7.24178 2.88421 0
M  V30 8118 N 746.441 0.193421 1.56409 0
M  V30 8119 C 747.718 -0.493318 1.89277 0
M  V30 8120 C 748.098 -1.79765 1.10669 0
M  V30 8121 O 747.446 -2.27558 0.207274 0
M  V30 8122 C 747.656 -0.713732 3.41624 0
M  V30 8123 C 749.004 -1.03385 4.11821 0
M  V30 8124 O 750.028 -0.801511 3.47065 0
M  V30 8125 O 748.887 -1.47327 5.26267 0
M  V30 8126 H 745.981 -0.256973 0.786062 0
M  V30 8127 H 748.527 0.23351 1.68086 0
M  V30 8128 H 747.299 0.207446 3.9075 0
M  V30 8129 H 746.922 -1.49308 3.68501 0
M  V30 8130 N 747.919 -1.57396 -0.0801906 0
M  V30 8131 C 749.165 -1.87979 -0.776884 0
M  V30 8132 C 749.52 -0.786098 -1.75608 0
M  V30 8133 O 748.813 0.210541 -1.9044 0
M  V30 8134 C 749.007 -3.22915 -1.53169 0
M  V30 8135 C 748.836 -4.45306 -0.627099 0
M  V30 8136 C 747.606 -5.04593 -0.267201 0
M  V30 8137 C 749.804 -5.14249 0.0724916 0
M  V30 8138 N 747.786 -6.10513 0.643995 0
M  V30 8139 C 749.157 -6.14267 0.841191 0
M  V30 8140 C 751.212 -4.97689 0.144847 0
M  V30 8141 C 749.915 -6.99514 1.67551 0
M  V30 8142 C 751.941 -5.83455 0.966112 0
M  V30 8143 C 751.303 -6.83005 1.72288 0
M  V30 8144 H 747.402 -0.737519 -0.259979 0
M  V30 8145 H 749.986 -1.94661 -0.0387512 0
M  V30 8146 H 748.157 -3.17256 -2.2406 0
M  V30 8147 H 749.889 -3.41174 -2.17675 0
M  V30 8148 H 746.644 -4.69548 -0.618194 0
M  V30 8149 H 747.068 -6.68125 1.09259 0
M  V30 8150 H 751.71 -4.20649 -0.4259 0
M  V30 8151 H 749.428 -7.75934 2.25726 0
M  V30 8152 H 753.014 -5.727 1.02497 0
M  V30 8153 H 751.894 -7.48219 2.34813 0
M  V30 8154 N 749.397 0.351382 -1.53633 0
M  V30 8155 C 750.622 1.11718 -1.74739 0
M  V30 8156 C 751.047 1.81829 -0.481657 0
M  V30 8157 O 750.405 1.72264 0.565233 0
M  V30 8158 C 750.453 2.11234 -2.92254 0
M  V30 8159 O 749.557 3.186 -2.61855 0
M  V30 8160 H 748.898 0.323482 -0.579875 0
M  V30 8161 H 751.428 0.404167 -2.00568 0
M  V30 8162 H 751.438 2.54591 -3.18822 0
M  V30 8163 H 750.113 1.59599 -3.84058 0
M  V30 8164 H 748.69 2.80115 -2.4615 0
M  V30 8165 N 750.875 1.45233 0.611969 0
M  V30 8166 C 751.822 1.5357 1.72293 0
M  V30 8167 C 752.792 0.381912 1.6165 0
M  V30 8168 O 753.977 0.594765 1.81293 0
M  V30 8169 C 751.117 1.50419 3.10593 0
M  V30 8170 C 750.23 2.76316 3.32074 0
M  V30 8171 C 749.365 2.64866 4.60456 0
M  V30 8172 C 748.404 3.85838 4.7518 0
M  V30 8173 N 747.541 3.72949 5.94856 0
M  V30 8174 H 752.381 2.4848 1.64504 0
M  V30 8175 H 749.918 1.23302 0.802191 0
M  V30 8176 H 751.876 1.4658 3.90602 0
M  V30 8177 H 750.506 0.590621 3.17351 0
M  V30 8178 H 749.558 2.90261 2.45872 0
M  V30 8179 H 750.87 3.66055 3.38829 0
M  V30 8180 H 750.024 2.58969 5.48653 0
M  V30 8181 H 748.763 1.72719 4.56092 0
M  V30 8182 H 747.768 3.92099 3.85407 0
M  V30 8183 H 748.993 4.79045 4.81344 0
M  V30 8184 H 746.939 2.83567 5.91545 0
M  V30 8185 H 746.856 4.56319 6.02751 0
M  V30 8186 H 748.124 3.70976 6.85563 0
M  V30 8187 N 752.353 -0.854086 1.3245 0
M  V30 8188 C 753.769 -1.14238 1.11453 0
M  V30 8189 C 753.969 -2.01228 -0.10461 0
M  V30 8190 O 753.025 -2.39845 -0.789339 0
M  V30 8191 C 754.338 -1.81916 2.39431 0
M  V30 8192 C 755.886 -1.94549 2.45193 0
M  V30 8193 C 756.361 -2.65642 3.73093 0
M  V30 8194 N 757.852 -2.73167 3.74078 0
M  V30 8195 C 758.587 -3.28828 4.69744 0
M  V30 8196 N 758.083 -3.85295 5.75778 0
M  V30 8197 N 759.876 -3.26936 4.57241 0
M  V30 8198 H 752.027 -0.274786 2.10615 0
M  V30 8199 H 754.29 -0.184375 0.929898 0
M  V30 8200 H 753.996 -1.25452 3.28565 0
M  V30 8201 H 753.87 -2.82068 2.50434 0
M  V30 8202 H 756.257 -2.50172 1.56518 0
M  V30 8203 H 756.338 -0.933914 2.38142 0
M  V30 8204 H 755.982 -2.10683 4.62142 0
M  V30 8205 H 755.912 -3.6724 3.77415 0
M  V30 8206 H 758.403 -2.33108 2.97438 0
M  V30 8207 H 758.716 -4.25925 6.44832 0
M  V30 8208 H 757.061 -3.83625 5.79531 0
M  V30 8209 H 760.252 -2.8207 3.7357 0
M  V30 8210 H 760.425 -3.70014 5.31971 0
M  V30 8211 N 753.831 -1.1567 -1.07043 0
M  V30 8212 C 755.079 -0.931673 -1.79344 0
M  V30 8213 C 755.4 0.542421 -1.87304 0
M  V30 8214 O 754.67 1.39418 -1.37621 0
M  V30 8215 H 753.25 -0.34171 -0.664262 0
M  V30 8216 H 755.912 -1.45795 -1.29344 0
M  V30 8217 H 755.008 -1.34379 -2.81689 0
M  V30 8218 N 755.309 1.25446 -0.953992 0
M  V30 8219 C 756.256 2.25912 -0.472485 0
M  V30 8220 C 757.226 1.59173 0.47469 0
M  V30 8221 O 758.411 1.86812 0.388082 0
M  V30 8222 C 755.551 3.44235 0.244218 0
M  V30 8223 C 754.664 4.25613 -0.740121 0
M  V30 8224 C 753.799 5.312 -0.000922267 0
M  V30 8225 C 752.838 6.04265 -0.976236 0
M  V30 8226 N 751.975 7.01589 -0.267952 0
M  V30 8227 H 756.815 2.66469 -1.3341 0
M  V30 8228 H 754.352 1.31005 -0.669045 0
M  V30 8229 H 756.31 4.11682 0.676314 0
M  V30 8230 H 754.94 3.04554 1.06988 0
M  V30 8231 H 753.992 3.57834 -1.2907 0
M  V30 8232 H 755.304 4.762 -1.48441 0
M  V30 8233 H 754.458 6.04719 0.48984 0
M  V30 8234 H 753.197 4.81484 0.776159 0
M  V30 8235 H 752.202 5.29561 -1.478 0
M  V30 8236 H 753.427 6.5607 -1.75354 0
M  V30 8237 H 751.373 6.54164 0.490403 0
M  V30 8238 H 751.29 7.4999 -0.951344 0
M  V30 8239 H 752.558 7.7924 0.201294 0
M  V30 8240 N 756.787 0.722489 1.40064 0
M  V30 8241 C 758.033 0.27422 2.01543 0
M  V30 8242 C 758.388 -1.12224 1.5628 0
M  V30 8243 O 757.681 -1.75179 0.776063 0
M  V30 8244 C 757.875 0.300682 3.56133 0
M  V30 8245 C 757.704 1.69818 4.16404 0
M  V30 8246 C 756.474 2.30747 4.49537 0
M  V30 8247 C 758.672 2.64962 4.40794 0
M  V30 8248 N 756.654 3.62781 4.9524 0
M  V30 8249 C 758.025 3.81712 4.88565 0
M  V30 8250 C 760.08 2.62885 4.22842 0
M  V30 8251 C 758.783 4.96703 5.20268 0
M  V30 8252 C 760.809 3.77009 4.55652 0
M  V30 8253 C 760.171 4.92492 5.03618 0
M  V30 8254 H 756.27 0.146328 0.768188 0
M  V30 8255 H 758.854 0.94577 1.70186 0
M  V30 8256 H 757.025 -0.340461 3.86905 0
M  V30 8257 H 758.757 -0.164951 4.04364 0
M  V30 8258 H 755.512 1.82783 4.36907 0
M  V30 8259 H 755.936 4.30533 5.22465 0
M  V30 8260 H 760.578 1.74803 3.84972 0
M  V30 8261 H 758.296 5.85425 5.57049 0
M  V30 8262 H 761.882 3.76685 4.43396 0
M  V30 8263 H 760.762 5.79336 5.28525 0
M  V30 8264 O 758.304 -1.49494 0.611055 0
M  V30 8265 H 758.995 -1.93303 0.123934 0
M  V30 END ATOM
M  V30 BEGIN BOND
M  V30 END BOND
M  V30 END CTAB
M  END
$$$$
