drugbank_target|P07101 Tyrosine 3-monooxygenase (DB00120; DB00135; DB00360; DB00765; DB03552; DB04400)
 OpenBabel12092119353D

  0  0  0     0  0            999 V3000
M  V30 BEGIN CTAB
M  V30 COUNTS 8199 8304 0 0 0
M  V30 BEGIN ATOM
M  V30 1 H -0.908 1.98254 -0.117106 0
M  V30 2 N 0 1.576 0 0
M  V30 3 C 0.933 2.03868 1.02534 0
M  V30 4 C 1.911 0.928543 1.3348 0
M  V30 5 O 3.095 1.19667 1.45644 0
M  V30 6 C 0.222 2.43627 2.35294 0
M  V30 7 C -0.732 3.65373 2.2001 0
M  V30 8 S 0.101 5.13292 1.52614 0
M  V30 9 C 1.257 5.56322 2.86805 0
M  V30 10 H 1.49 2.90518 0.631377 0
M  V30 11 H -0.977 1.52953 0.210867 0
M  V30 12 H 0.981 2.67203 3.11629 0
M  V30 13 H -0.358 1.57376 2.7183 0
M  V30 14 H -1.165 3.90944 3.18086 0
M  V30 15 H -1.563 3.418 1.51819 0
M  V30 16 H 0.729 5.58782 3.83104 0
M  V30 17 H 1.672 6.56266 2.65933 0
M  V30 18 H 2.08 4.83886 2.90714 0
M  V30 19 N 1.4781 -0.272755 1.55222 0
M  V30 20 C 2.8891 -0.84378 1.66545 0
M  V30 21 C 3.2401 -1.87035 0.592641 0
M  V30 22 O 2.3651 -2.14761 -0.265818 0
M  V30 23 C 2.9601 -1.53723 3.01918 0
M  V30 24 C 1.5191 -2.05628 3.15268 0
M  V30 25 C 0.6661 -0.898424 2.62343 0
M  V30 26 H 3.6171 -0.0490998 1.58624 0
M  V30 27 H 3.6381 -2.40421 2.94921 0
M  V30 28 H 3.1501 -0.78983 3.79978 0
M  V30 29 H 1.2511 -2.83329 2.41983 0
M  V30 30 H 1.3641 -2.27142 4.21833 0
M  V30 31 H -0.2719 -1.29186 2.19506 0
M  V30 32 H 0.5111 -0.164528 3.42906 0
M  V30 33 N 2.9562 -1.48159 -0.537278 0
M  V30 34 C 4.1842 -1.59454 -1.31841 0
M  V30 35 C 4.5992 -0.252065 -1.8711 0
M  V30 36 O 3.9562 0.757621 -1.66031 0
M  V30 37 C 4.0072 -2.63546 -2.47439 0
M  V30 38 O 3.7282 -3.92583 -1.94449 0
M  V30 39 C 5.2292 -2.85212 -3.39366 0
M  V30 40 H 2.4492 -0.53785 -0.401196 0
M  V30 41 H 4.9932 -1.93932 -0.648891 0
M  V30 42 H 3.1482 -2.31946 -3.1029 0
M  V30 43 H 3.5622 -4.49629 -2.70063 0
M  V30 44 H 5.0362 -3.61863 -4.16844 0
M  V30 45 H 5.5132 -1.93765 -3.94147 0
M  V30 46 H 6.1192 -3.18086 -2.82314 0
M  V30 47 N 4.4343 0.785586 -1.36625 0
M  V30 48 C 5.8453 1.36101 -1.27803 0
M  V30 49 C 6.1963 1.96035 0.0804875 0
M  V30 50 O 5.3213 1.92834 0.982042 0
M  V30 51 C 5.9163 2.47442 -2.31426 0
M  V30 52 C 4.4753 3.00789 -2.26281 0
M  V30 53 C 3.6223 1.73896 -2.15999 0
M  V30 54 H 6.5733 0.586928 -1.47448 0
M  V30 55 H 6.5943 3.2656 -1.95291 0
M  V30 56 H 6.1063 2.03791 -3.30289 0
M  V30 57 H 4.2073 3.48851 -1.30896 0
M  V30 58 H 4.3203 3.57343 -3.19128 0
M  V30 59 H 2.6843 1.9628 -1.62316 0
M  V30 60 H 3.4673 1.32368 -3.16755 0
M  V30 61 N 5.9124 1.20967 1.01018 0
M  V30 62 C 7.1894 0.93264 1.71934 0
M  V30 63 C 7.5694 -0.55692 2.03621 0
M  V30 64 O 6.9174 -1.52035 1.7058 0
M  V30 65 C 7.1274 1.81233 2.98254 0
M  V30 66 C 8.4754 2.05804 3.71389 0
M  V30 67 O 9.4994 1.78539 3.08225 0
M  V30 68 O 8.3584 2.51888 4.84989 0
M  V30 69 H 5.4524 0.349272 0.749625 0
M  V30 70 H 7.9984 1.31871 1.06808 0
M  V30 71 H 6.7704 2.82067 2.71208 0
M  V30 72 H 6.3934 1.42674 3.7112 0
M  V30 73 N 7.3905 -1.2043 1.01659 0
M  V30 74 C 8.3535 -2.21433 0.591616 0
M  V30 75 C 9.3535 -1.57203 -0.338226 0
M  V30 76 O 10.5435 -1.73737 -0.126918 0
M  V30 77 C 7.6755 -3.40628 -0.136058 0
M  V30 78 H 8.8685 -2.60545 1.48514 0
M  V30 79 H 6.4215 -1.33893 0.806379 0
M  V30 80 H 7.1565 -3.07019 -1.04449 0
M  V30 81 H 6.9415 -3.88475 0.531917 0
M  V30 82 H 8.4315 -4.15475 -0.420735 0
M  V30 83 N 8.8686 -0.792821 -1.36206 0
M  V30 84 C 10.0966 -0.378825 -2.03402 0
M  V30 85 C 10.5116 1.00586 -1.59774 0
M  V30 86 O 9.8686 1.64574 -0.788764 0
M  V30 87 C 9.9196 -0.43683 -3.58851 0
M  V30 88 O 9.6406 -1.76691 -4.00889 0
M  V30 89 C 11.1416 -0.0138943 -4.43298 0
M  V30 90 H 8.3616 -0.155673 -0.652692 0
M  V30 91 H 10.9056 -1.07261 -1.74113 0
M  V30 92 H 9.0606 0.208575 -3.86838 0
M  V30 93 H 9.4746 -1.72011 -4.95492 0
M  V30 94 H 10.9486 -0.105615 -5.51899 0
M  V30 95 H 11.4256 1.03915 -4.2673 0
M  V30 96 H 12.0316 -0.63192 -4.20579 0
M  V30 97 N 10.3467 1.47872 -0.545128 0
M  V30 98 C 11.5747 2.06889 -0.021084 0
M  V30 99 C 11.9897 1.39955 1.2672 0
M  V30 100 O 11.3467 0.492036 1.75742 0
M  V30 101 C 11.3977 3.60996 0.190817 0
M  V30 102 O 11.1187 4.25419 -1.04644 0
M  V30 103 C 12.6197 4.36849 0.753521 0
M  V30 104 H 9.8397 0.669785 -0.0403635 0
M  V30 105 H 12.3837 1.90049 -0.755095 0
M  V30 106 H 10.5387 3.77391 0.87492 0
M  V30 107 H 10.9527 5.17785 -0.836611 0
M  V30 108 H 12.4267 5.45399 0.851139 0
M  V30 109 H 12.9037 4.02306 1.762 0
M  V30 110 H 13.5097 4.25169 0.105503 0
M  V30 111 N 11.8248 0.280983 1.55075 0
M  V30 112 C 13.2358 -0.215629 1.85451 0
M  V30 113 C 13.5868 -1.54991 1.203 0
M  V30 114 O 12.7118 -2.10699 0.493435 0
M  V30 115 C 13.3068 -0.398026 3.36454 0
M  V30 116 C 11.8658 -0.838866 3.66933 0
M  V30 117 C 11.0128 0.064458 2.77225 0
M  V30 118 H 13.9638 0.502601 1.50531 0
M  V30 119 H 13.9848 -1.23569 3.59876 0
M  V30 120 H 13.4968 0.573241 3.83843 0
M  V30 121 H 11.5978 -1.8214 3.25048 0
M  V30 122 H 11.7108 -0.672123 4.74362 0
M  V30 123 H 10.0748 -0.452863 2.50642 0
M  V30 124 H 10.8578 1.03172 3.2743 0
M  V30 125 N 13.3029 -1.57598 0.00835791 0
M  V30 126 C 14.2349 -2.05811 -1.00868 0
M  V30 127 C 15.2479 -0.977579 -1.30182 0
M  V30 128 O 16.4369 -1.25421 -1.27011 0
M  V30 129 C 13.5369 -2.45016 -2.34137 0
M  V30 130 C 12.7099 -3.75903 -2.23643 0
M  V30 131 C 11.7689 -4.01884 -3.3967 0
M  V30 132 O 10.7949 -4.72433 -3.17483 0
M  V30 133 N 11.9969 -3.50432 -4.62793 0
M  V30 134 H 14.7619 -2.93684 -0.597458 0
M  V30 135 H 12.3229 -1.60909 -0.178852 0
M  V30 136 H 14.3149 -2.59506 -3.10546 0
M  V30 137 H 12.8849 -1.62618 -2.66972 0
M  V30 138 H 12.1049 -3.7141 -1.32091 0
M  V30 139 H 13.3929 -4.61695 -2.13812 0
M  V30 140 H 12.7909 -2.93317 -4.83716 0
M  V30 141 H 11.3479 -3.70236 -5.3644 0
M  V30 142 N 14.781 0.264519 -1.55364 0
M  V30 143 C 15.744 1.31046 -1.88042 0
M  V30 144 C 16.744 1.41943 -0.755569 0
M  V30 145 O 17.934 1.40947 -1.02369 0
M  V30 146 C 15.066 2.69067 -2.09323 0
M  V30 147 H 16.259 1.03297 -2.81549 0
M  V30 148 H 13.812 0.502989 -1.47986 0
M  V30 149 H 14.547 3.01982 -1.18226 0
M  V30 150 H 14.332 2.62542 -2.91229 0
M  V30 151 H 15.822 3.44623 -2.35848 0
M  V30 152 N 16.2591 1.48442 0.529413 0
M  V30 153 C 17.2061 1.63007 1.63394 0
M  V30 154 C 18.1761 0.47212 1.59249 0
M  V30 155 O 19.3611 0.695673 1.77666 0
M  V30 156 C 16.5011 1.6763 3.01653 0
M  V30 157 C 15.6141 2.94535 3.16027 0
M  V30 158 C 14.7491 2.90316 4.44849 0
M  V30 159 C 13.7881 4.11923 4.52754 0
M  V30 160 N 12.9251 4.05777 5.72965 0
M  V30 161 H 17.7651 2.5733 1.50285 0
M  V30 162 H 15.3021 1.27613 0.731656 0
M  V30 163 H 17.2601 1.68292 3.81751 0
M  V30 164 H 15.8901 0.76797 3.13532 0
M  V30 165 H 14.9421 3.03615 2.29177 0
M  V30 166 H 16.2541 3.84512 3.17729 0
M  V30 167 H 15.4081 2.89382 5.33238 0
M  V30 168 H 14.1471 1.98068 4.45668 0
M  V30 169 H 13.1521 4.13131 3.62771 0
M  V30 170 H 14.3771 5.0533 4.53672 0
M  V30 171 H 12.3231 3.16351 5.74681 0
M  V30 172 H 12.2401 4.8946 5.76164 0
M  V30 173 H 13.5081 4.08904 6.6364 0
M  V30 174 N 17.7372 -0.778329 1.37039 0
M  V30 175 C 18.9852 -1.53361 1.31623 0
M  V30 176 C 19.3062 -1.94739 -0.100831 0
M  V30 177 O 18.5762 -1.65797 -1.04347 0
M  V30 178 H 17.1562 -0.568794 0.484234 0
M  V30 179 H 19.8182 -0.926742 1.71457 0
M  V30 180 H 18.9142 -2.43606 1.95096 0
M  V30 181 N 19.2153 -1.21501 -1.00376 0
M  V30 182 C 20.4623 -1.03299 -1.74171 0
M  V30 183 C 20.7903 0.433326 -1.89612 0
M  V30 184 O 20.0453 1.33779 -1.42834 0
M  V30 185 C 20.3443 -1.67673 -3.15627 0
M  V30 186 C 20.0103 -3.17533 -3.2013 0
M  V30 187 C 18.6723 -3.58427 -3.21067 0
M  V30 188 C 21.0243 -4.13504 -3.17275 0
M  V30 189 C 18.3523 -4.93794 -3.16835 0
M  V30 190 C 20.7043 -5.48834 -3.14585 0
M  V30 191 C 19.3683 -5.89123 -3.13831 0
M  V30 192 H 18.6383 -0.377999 -0.637336 0
M  V30 193 H 21.2853 -1.51111 -1.17634 0
M  V30 194 H 19.5903 -1.12158 -3.75404 0
M  V30 195 H 21.2873 -1.51091 -3.71446 0
M  V30 196 H 17.8773 -2.84965 -3.20145 0
M  V30 197 H 22.0613 -3.82936 -3.15711 0
M  V30 198 H 17.3173 -5.24255 -3.1459 0
M  V30 199 H 21.4913 -6.22934 -3.1133 0
M  V30 200 H 19.1183 -6.93984 -3.10307 0
M  V30 201 N 20.6934 1.19889 -1.02296 0
M  V30 202 C 22.1094 1.41462 -0.738954 0
M  V30 203 C 22.3094 1.89721 0.678846 0
M  V30 204 O 21.3654 2.07016 1.4457 0
M  V30 205 C 22.6784 2.43083 -1.77005 0
M  V30 206 C 24.2264 2.5684 -1.78892 0
M  V30 207 C 24.7014 3.61709 -2.80945 0
M  V30 208 N 26.1924 3.69199 -2.79725 0
M  V30 209 C 26.9274 4.50019 -3.55345 0
M  V30 210 N 26.4234 5.34592 -4.40662 0
M  V30 211 N 28.2164 4.44612 -3.43914 0
M  V30 212 H 20.3674 0.868827 -1.93817 0
M  V30 213 H 22.6304 0.44399 -0.837602 0
M  V30 214 H 22.3364 2.14636 -2.78612 0
M  V30 215 H 22.2104 3.4217 -1.58744 0
M  V30 216 H 24.5974 2.84614 -0.779674 0
M  V30 217 H 24.6784 1.57927 -2.01228 0
M  V30 218 H 24.3224 3.34678 -3.82038 0
M  V30 219 H 24.2524 4.60259 -2.5587 0
M  V30 220 H 26.7434 3.08794 -2.17842 0
M  V30 221 H 27.0564 5.93363 -4.95116 0
M  V30 222 H 25.4014 5.34073 -4.44737 0
M  V30 223 H 28.5924 3.7758 -2.76679 0
M  V30 224 H 28.7654 5.0736 -4.031 0
M  V30 225 N 22.1715 0.800033 1.35784 0
M  V30 226 C 23.5875 0.482977 1.52117 0
M  V30 227 C 23.7875 -0.996948 1.75109 0
M  V30 228 O 22.8435 -1.78216 1.78872 0
M  V30 229 C 24.1565 1.32264 2.70049 0
M  V30 230 C 25.7045 1.31742 2.83924 0
M  V30 231 C 26.1795 2.14106 4.04874 0
M  V30 232 N 27.6705 2.11607 4.12039 0
M  V30 233 C 28.4055 2.72099 5.04727 0
M  V30 234 N 27.9015 3.41492 6.02789 0
M  V30 235 N 29.6945 2.61776 4.97423 0
M  V30 236 H 21.8455 1.75856 1.19115 0
M  V30 237 H 24.1085 0.748122 0.582252 0
M  V30 238 H 23.8145 2.37261 2.59616 0
M  V30 239 H 23.6885 0.971303 3.6448 0
M  V30 240 H 26.0755 0.275333 2.93813 0
M  V30 241 H 26.1565 1.70859 1.9037 0
M  V30 242 H 25.8005 3.18351 3.95746 0
M  V30 243 H 25.7305 1.72353 4.97596 0
M  V30 244 H 28.2215 1.61112 3.41835 0
M  V30 245 H 28.5345 3.84953 6.70098 0
M  V30 246 H 26.8795 3.45596 6.02983 0
M  V30 247 H 30.0705 2.07157 4.19766 0
M  V30 248 H 30.2435 3.0921 5.69468 0
M  V30 249 N 23.6496 -1.47581 0.552962 0
M  V30 250 C 24.6126 -2.28439 -0.186605 0
M  V30 251 C 25.6126 -1.36706 -0.84665 0
M  V30 252 O 26.8026 -1.59378 -0.703164 0
M  V30 253 C 23.9346 -3.16264 -1.2724 0
M  V30 254 H 25.1276 -2.95294 0.523609 0
M  V30 255 H 22.6806 -1.532 0.309745 0
M  V30 256 H 23.4156 -2.54091 -2.01514 0
M  V30 257 H 23.2006 -3.83769 -0.803968 0
M  V30 258 H 24.6906 -3.77198 -1.79196 0
M  V30 259 N 25.1277 -0.289203 -1.54924 0
M  V30 260 C 26.3737 0.323998 -2.00195 0
M  V30 261 C 26.7067 1.54441 -1.17735 0
M  V30 262 O 25.9817 1.92875 -0.250878 0
M  V30 263 C 26.2647 0.692276 -3.53383 0
M  V30 264 C 26.1177 -0.536457 -4.46589 0
M  V30 265 C 27.4367 1.52335 -4.12895 0
M  V30 266 H 24.5557 0.116289 -0.727768 0
M  V30 267 H 27.1977 -0.398954 -1.85764 0
M  V30 268 H 25.3477 1.30822 -3.65811 0
M  V30 269 H 27.0197 -1.17499 -4.46085 0
M  V30 270 H 25.2627 -1.17192 -4.1767 0
M  V30 271 H 25.9337 -0.234806 -5.515 0
M  V30 272 H 28.4097 1.00302 -4.0383 0
M  V30 273 H 27.2857 1.74982 -5.20262 0
M  V30 274 H 27.5467 2.50886 -3.64018 0
M  V30 275 N 26.6058 1.57591 -0.0167156 0
M  V30 276 C 27.8308 1.9598 0.67872 0
M  V30 277 C 28.2558 0.892546 1.65575 0
M  V30 278 O 27.6138 -0.147772 1.80697 0
M  V30 279 C 27.6618 3.33468 1.37227 0
M  V30 280 O 26.7658 3.28954 2.48722 0
M  V30 281 H 26.1068 0.639339 0.17928 0
M  V30 282 H 28.6368 2.04463 -0.0748802 0
M  V30 283 H 28.6468 3.69417 1.7319 0
M  V30 284 H 27.3218 4.10694 0.656007 0
M  V30 285 H 25.8988 3.04705 2.14963 0
M  V30 286 N 28.0839 -0.256276 1.55502 0
M  V30 287 C 28.9939 -1.33882 1.92647 0
M  V30 288 C 30.0099 -1.53159 0.825727 0
M  V30 289 O 31.1859 -1.66963 1.12629 0
M  V30 290 C 28.2509 -2.6751 2.20543 0
M  V30 291 C 27.3119 -2.56836 3.43997 0
M  V30 292 C 26.5449 -3.84092 3.70553 0
M  V30 293 O 26.7679 -4.85545 2.99336 0
M  V30 294 O 25.7019 -3.83288 4.64084 0
M  V30 295 H 29.5279 -1.05374 2.84833 0
M  V30 296 H 27.1129 -0.456237 1.42263 0
M  V30 297 H 28.9949 -3.46492 2.39835 0
M  V30 298 H 27.6699 -2.9577 1.31536 0
M  V30 299 H 26.5769 -1.76172 3.30021 0
M  V30 300 H 27.9099 -2.33523 4.33275 0
M  V30 301 N 29.562 -1.4872 -0.521534 0
M  V30 302 C 30.492 -1.66771 -1.63431 0
M  V30 303 C 31.473 -0.516499 -1.62069 0
M  V30 304 O 32.658 -0.750013 -1.79132 0
M  V30 305 C 29.788 -1.71515 -3.01993 0
M  V30 306 C 28.742 -2.86222 -3.18216 0
M  V30 307 C 28.068 -2.76061 -4.57924 0
M  V30 308 C 29.368 -4.27419 -3.00184 0
M  V30 309 H 31.062 -2.59932 -1.48579 0
M  V30 310 H 28.608 -1.25089 -0.713358 0
M  V30 311 H 30.561 -1.82731 -3.7972 0
M  V30 312 H 29.285 -0.749393 -3.17886 0
M  V30 313 H 27.944 -2.74575 -2.42908 0
M  V30 314 H 27.592 -1.77437 -4.70665 0
M  V30 315 H 27.292 -3.53037 -4.69722 0
M  V30 316 H 28.816 -2.89256 -5.37739 0
M  V30 317 H 30.23 -4.39855 -3.67697 0
M  V30 318 H 28.627 -5.05458 -3.2347 0
M  V30 319 H 29.697 -4.43293 -1.96518 0
M  V30 320 N 31.0401 0.771051 -1.3745 0
M  V30 321 C 32.3171 1.519 -1.23231 0
M  V30 322 C 32.6971 2.10383 0.173809 0
M  V30 323 O 32.0451 1.95583 1.18151 0
M  V30 324 C 32.2551 2.59933 -2.32886 0
M  V30 325 C 33.6031 3.27316 -2.70461 0
M  V30 326 O 34.6271 2.70228 -2.32068 0
M  V30 327 O 33.4861 4.30531 -3.36608 0
M  V30 328 H 30.5801 0.672803 -0.480901 0
M  V30 329 H 33.1261 0.807957 -1.49232 0
M  V30 330 H 31.8981 2.14842 -3.27045 0
M  V30 331 H 31.5211 3.38637 -2.08353 0
M  V30 332 N 32.5182 1.22032 0.997298 0
M  V30 333 C 33.4812 0.987909 2.06816 0
M  V30 334 C 34.4812 -0.0440084 1.6074 0
M  V30 335 O 35.6712 0.194053 1.73116 0
M  V30 336 C 32.8032 0.49132 3.37341 0
M  V30 337 H 33.9962 1.93803 2.28868 0
M  V30 338 H 31.5492 1.03838 1.16822 0
M  V30 339 H 32.2842 -0.463364 3.20973 0
M  V30 340 H 32.0692 1.23575 3.72118 0
M  V30 341 H 33.5592 0.348824 4.16141 0
M  V30 342 N 33.9963 -1.19345 1.0293 0
M  V30 343 C 34.9433 -2.2258 0.610464 0
M  V30 344 C 35.9133 -1.6179 -0.375946 0
M  V30 345 O 37.0983 -1.88844 -0.272511 0
M  V30 346 C 34.2383 -3.45085 -0.0321473 0
M  V30 347 C 33.3513 -4.20258 1.00035 0
M  V30 348 C 32.4863 -5.3019 0.32746 0
M  V30 349 C 31.5253 -5.97121 1.34584 0
M  V30 350 N 30.6623 -6.98615 0.698726 0
M  V30 351 H 35.5023 -2.57764 1.49538 0
M  V30 352 H 33.0393 -1.26644 0.748311 0
M  V30 353 H 34.9973 -4.15061 -0.421966 0
M  V30 354 H 33.6273 -3.10555 -0.88064 0
M  V30 355 H 32.6793 -3.49223 1.50823 0
M  V30 356 H 33.9913 -4.66175 1.77433 0
M  V30 357 H 33.1453 -6.06587 -0.11718 0
M  V30 358 H 31.8843 -4.85345 -0.478713 0
M  V30 359 H 30.8893 -5.19474 1.80074 0
M  V30 360 H 32.1143 -6.4405 2.15352 0
M  V30 361 H 30.0603 -6.55942 -0.0873471 0
M  V30 362 H 29.9773 -7.42724 1.41058 0
M  V30 363 H 31.2453 -7.79004 0.278102 0
M  V30 364 N 35.4744 -0.807222 -1.35358 0
M  V30 365 C 36.4064 -0.175717 -2.28525 0
M  V30 366 C 37.4194 0.625354 -1.5031 0
M  V30 367 O 38.6084 0.457611 -1.72535 0
M  V30 368 C 35.7084 0.773471 -3.29956 0
M  V30 369 C 34.8814 0.0186296 -4.37396 0
M  V30 370 C 33.9404 0.886395 -5.18681 0
M  V30 371 O 32.9664 0.337106 -5.68201 0
M  V30 372 N 34.1684 2.20839 -5.36852 0
M  V30 373 H 36.9334 -0.976091 -2.83359 0
M  V30 374 H 34.4944 -0.662737 -1.47714 0
M  V30 375 H 36.4864 1.35824 -3.81227 0
M  V30 376 H 35.0564 1.47465 -2.75632 0
M  V30 377 H 34.2764 -0.747349 -3.87051 0
M  V30 378 H 35.5644 -0.501577 -5.06322 0
M  V30 379 H 34.9624 2.67858 -4.98265 0
M  V30 380 H 33.5194 2.74237 -5.91301 0
M  V30 381 N 36.9525 1.47285 -0.560781 0
M  V30 382 C 37.9155 2.28535 0.174488 0
M  V30 383 C 38.9155 1.37153 0.839388 0
M  V30 384 O 40.1055 1.59748 0.694702 0
M  V30 385 C 37.2375 3.16934 1.25561 0
M  V30 386 H 38.4305 2.95012 -0.539262 0
M  V30 387 H 35.9835 1.53034 -0.317865 0
M  V30 388 H 36.7185 2.55157 2.00164 0
M  V30 389 H 36.5035 3.8419 0.783604 0
M  V30 390 H 37.9935 3.78143 1.77193 0
M  V30 391 N 38.4306 0.297415 1.54768 0
M  V30 392 C 39.3406 -0.58983 2.27064 0
M  V30 393 C 40.3566 -1.15144 1.30453 0
M  V30 394 O 41.5326 -1.17699 1.63428 0
M  V30 395 C 38.5976 -1.74714 2.9946 0
M  V30 396 C 37.6586 -1.21997 4.11601 0
M  V30 397 C 36.8916 -2.32212 4.80535 0
M  V30 398 O 37.1146 -3.52036 4.48806 0
M  V30 399 O 36.0486 -1.99106 5.68014 0
M  V30 400 H 39.8746 -0.00348199 3.037 0
M  V30 401 H 37.4596 0.0640035 1.49263 0
M  V30 402 H 39.3416 -2.42147 3.44881 0
M  V30 403 H 38.0166 -2.32016 2.25722 0
M  V30 404 H 36.9236 -0.511458 3.70587 0
M  V30 405 H 38.2566 -0.692419 4.87305 0
M  V30 406 N 39.9087 -1.5758 0.0250728 0
M  V30 407 C 40.8717 -2.08896 -0.943139 0
M  V30 408 C 41.8717 -1.00321 -1.25668 0
M  V30 409 O 43.0617 -1.26495 -1.19769 0
M  V30 410 C 40.1937 -2.55143 -2.26086 0
M  V30 411 H 41.3867 -2.95723 -0.498775 0
M  V30 412 H 38.9397 -1.54703 -0.222888 0
M  V30 413 H 39.6747 -1.71633 -2.75159 0
M  V30 414 H 39.4597 -3.34461 -2.04641 0
M  V30 415 H 40.9497 -2.95083 -2.95492 0
M  V30 416 N 41.3868 0.248026 -1.55636 0
M  V30 417 C 42.6358 0.974134 -1.76617 0
M  V30 418 C 42.9488 1.86528 -0.588796 0
M  V30 419 O 44.1548 2.62805 -0.681594 0
M  V30 420 C 42.6108 1.78213 -3.12679 0
M  V30 421 C 42.2188 0.93843 -4.38061 0
M  V30 422 C 43.9628 2.50104 -3.42999 0
M  V30 423 C 41.8698 1.74225 -5.65155 0
M  V30 424 H 40.7998 0.36745 -0.658405 0
M  V30 425 H 43.4508 0.22884 -1.82067 0
M  V30 426 H 41.8328 2.56933 -3.01333 0
M  V30 427 H 43.0068 0.193635 -4.60393 0
M  V30 428 H 41.3218 0.332905 -4.15067 0
M  V30 429 H 43.9188 3.10694 -4.3517 0
M  V30 430 H 44.2618 3.21662 -2.64271 0
M  V30 431 H 44.7948 1.78395 -3.55556 0
M  V30 432 H 41.5338 1.07043 -6.46701 0
M  V30 433 H 41.0538 2.46235 -5.46926 0
M  V30 434 H 42.7328 2.30967 -6.0437 0
M  V30 435 N 42.8649 1.48995 0.513639 0
M  V30 436 C 43.7979 1.59319 1.63379 0
M  V30 437 C 44.7759 0.442816 1.56454 0
M  V30 438 O 45.9599 0.656655 1.76693 0
M  V30 439 C 43.0869 1.5364 3.01848 0
M  V30 440 C 42.1329 2.7372 3.27078 0
M  V30 441 S 42.9659 4.35528 3.1157 0
M  V30 442 C 44.1219 4.32473 4.52458 0
M  V30 443 H 44.3549 2.54079 1.54374 0
M  V30 444 H 41.8879 1.3773 0.697849 0
M  V30 445 H 43.8459 1.51049 3.81699 0
M  V30 446 H 42.5069 0.601898 3.08279 0
M  V30 447 H 41.6999 2.6593 4.28132 0
M  V30 448 H 41.3019 2.73657 2.54927 0
M  V30 449 H 43.5939 4.03414 5.44301 0
M  V30 450 H 44.5369 5.33762 4.65299 0
M  V30 451 H 44.9449 3.62718 4.32546 0
M  V30 452 N 44.343 -0.763751 1.37857 0
M  V30 453 C 45.589 -1.52483 1.33704 0
M  V30 454 C 45.922 -1.94051 -0.0759612 0
M  V30 455 O 45.197 -1.64675 -1.03501 0
M  V30 456 C 45.48 -2.78441 2.28348 0
M  V30 457 C 45.333 -2.43075 3.78463 0
M  V30 458 C 46.652 -3.80415 2.21298 0
M  V30 459 H 43.771 -0.553169 0.487005 0
M  V30 460 H 46.413 -0.875562 1.68624 0
M  V30 461 H 44.563 -3.33842 1.987 0
M  V30 462 H 46.235 -1.93527 4.18742 0
M  V30 463 H 44.478 -1.75666 3.96641 0
M  V30 464 H 45.149 -3.33149 4.40132 0
M  V30 465 H 47.625 -3.34527 2.47449 0
M  V30 466 H 46.501 -4.66257 2.89647 0
M  V30 467 H 46.762 -4.25262 1.20849 0
M  V30 468 N 45.8211 -1.22559 -0.990812 0
M  V30 469 C 47.2371 -0.985996 -1.255 0
M  V30 470 C 47.4371 0.319173 -1.98956 0
M  V30 471 O 46.4931 1.04127 -2.3003 0
M  V30 472 C 47.8061 -2.18607 -2.06474 0
M  V30 473 C 49.3541 -2.22985 -2.19651 0
M  V30 474 C 49.8291 -3.4255 -3.04012 0
M  V30 475 N 51.3201 -3.42725 -3.11599 0
M  V30 476 C 52.0551 -4.31892 -3.7717 0
M  V30 477 N 51.5511 -5.31279 -4.44651 0
M  V30 478 N 53.3441 -4.19662 -3.73952 0
M  V30 479 H 45.4951 -2.06469 -0.49841 0
M  V30 480 H 47.7581 -0.904853 -0.282747 0
M  V30 481 H 47.4641 -3.13267 -1.59865 0
M  V30 482 H 47.3381 -2.18838 -3.07229 0
M  V30 483 H 49.7251 -1.28871 -2.65474 0
M  V30 484 H 49.8061 -2.26791 -1.18319 0
M  V30 485 H 49.4501 -4.36965 -2.58889 0
M  V30 486 H 49.3801 -3.35984 -4.0549 0
M  V30 487 H 51.8711 -2.70807 -2.63575 0
M  V30 488 H 52.1841 -5.95593 -4.92431 0
M  V30 489 H 50.5291 -5.3519 -4.43392 0
M  V30 490 H 53.7201 -3.41268 -3.20396 0
M  V30 491 H 53.8931 -4.89358 -4.24774 0
M  V30 492 N 47.2992 1.18797 -1.03562 0
M  V30 493 C 48.5472 1.88278 -0.734569 0
M  V30 494 C 48.8682 1.8043 0.739586 0
M  V30 495 O 48.1382 1.21925 1.53333 0
M  V30 496 H 46.7182 0.696991 -0.268725 0
M  V30 497 H 49.3802 1.44192 -1.31129 0
M  V30 498 H 48.4762 2.94443 -1.03489 0
M  V30 499 N 48.7773 0.814389 1.34928 0
M  V30 500 C 49.7093 0.187834 2.28429 0
M  V30 501 C 50.7223 -0.617374 1.5064 0
M  V30 502 O 51.9113 -0.448454 1.72775 0
M  V30 503 C 49.0113 -0.755962 3.30361 0
M  V30 504 C 48.1843 0.00456686 4.374 0
M  V30 505 C 47.2433 -0.858876 5.19143 0
M  V30 506 O 46.2693 -0.306968 5.68372 0
M  V30 507 N 47.4713 -2.17988 5.38016 0
M  V30 508 H 50.2363 0.991105 2.82838 0
M  V30 509 H 47.7973 0.670561 1.4736 0
M  V30 510 H 49.7893 -1.338 3.81942 0
M  V30 511 H 48.3593 -1.46001 2.7641 0
M  V30 512 H 47.5793 0.767865 3.86649 0
M  V30 513 H 48.8673 0.528422 5.06049 0
M  V30 514 H 48.2653 -2.65212 4.99679 0
M  V30 515 H 46.8223 -2.71098 5.92747 0
M  V30 516 N 50.2554 -1.46986 0.568584 0
M  V30 517 C 51.5034 -2.02041 0.0487022 0
M  V30 518 C 51.8244 -1.44408 -1.31039 0
M  V30 519 O 51.0944 -0.623477 -1.85714 0
M  V30 520 H 49.6744 -0.746849 0.015014 0
M  V30 521 H 52.3364 -1.80257 0.741168 0
M  V30 522 H 51.4324 -3.12085 -0.0308961 0
M  V30 523 N 51.7335 -0.305618 -1.54608 0
M  V30 524 C 52.6965 0.555591 -2.22364 0
M  V30 525 C 53.6965 1.05768 -1.21119 0
M  V30 526 O 54.8865 0.952972 -1.45822 0
M  V30 527 C 52.0185 1.76974 -2.91364 0
M  V30 528 H 53.2115 -0.0364572 -2.99878 0
M  V30 529 H 50.7645 -0.0565007 -1.56198 0
M  V30 530 H 51.4995 2.40151 -2.17941 0
M  V30 531 H 51.2845 1.41732 -3.65588 0
M  V30 532 H 52.7745 2.38148 -3.43038 0
M  V30 533 N 53.2116 1.57565 -0.0334293 0
M  V30 534 C 54.6226 1.79746 0.504798 0
M  V30 535 C 54.9736 0.944091 1.71992 0
M  V30 536 O 54.0986 0.155694 2.15839 0
M  V30 537 C 54.6936 3.25997 0.922567 0
M  V30 538 C 53.2526 3.49159 1.40588 0
M  V30 539 C 52.3996 2.74785 0.372633 0
M  V30 540 H 55.3506 1.56565 -0.259436 0
M  V30 541 H 55.3716 3.35945 1.78666 0
M  V30 542 H 54.8836 3.88081 0.0379825 0
M  V30 543 H 52.9846 2.92332 2.31025 0
M  V30 544 H 53.0976 4.57873 1.41028 0
M  V30 545 H 51.4616 2.40391 0.841672 0
M  V30 546 H 52.2446 3.39587 -0.503559 0
M  V30 547 N 54.6897 -0.239769 1.55765 0
M  V30 548 C 55.9377 -0.964892 1.77579 0
M  V30 549 C 56.2587 -1.85582 0.598699 0
M  V30 550 O 55.5287 -1.92075 -0.385226 0
M  V30 551 H 54.1087 -0.359265 0.654933 0
M  V30 552 H 56.7707 -0.256001 1.93211 0
M  V30 553 H 55.8667 -1.58243 2.69009 0
M  V30 554 N 56.1678 -1.49265 -0.50573 0
M  V30 555 C 57.5788 -1.51769 -1.08734 0
M  V30 556 C 57.9298 -0.301192 -1.93874 0
M  V30 557 O 57.0548 0.589456 -2.08217 0
M  V30 558 C 57.6498 -2.75017 -1.97867 0
M  V30 559 C 56.2088 -2.80314 -2.51199 0
M  V30 560 C 55.3558 -2.4562 -1.28709 0
M  V30 561 H 58.3068 -1.56031 -0.289855 0
M  V30 562 H 58.3278 -2.5491 -2.82491 0
M  V30 563 H 57.8398 -3.63539 -1.35873 0
M  V30 564 H 55.9408 -1.96061 -3.16845 0
M  V30 565 H 56.0538 -3.82366 -2.88675 0
M  V30 566 H 54.4178 -1.97297 -1.61078 0
M  V30 567 H 55.2008 -3.36411 -0.6843 0
M  V30 568 N 57.6459 0.756429 -1.3826 0
M  V30 569 C 58.8709 1.55077 -1.37717 0
M  V30 570 C 59.2959 1.88073 0.03164 0
M  V30 571 O 58.6539 1.50364 1.01293 0
M  V30 572 C 58.7019 2.8283 -2.23695 0
M  V30 573 O 57.8059 3.77862 -1.6521 0
M  V30 574 H 57.1469 0.469152 -0.469885 0
M  V30 575 H 59.6769 0.935019 -1.81985 0
M  V30 576 H 59.6869 3.31783 -2.37453 0
M  V30 577 H 58.3619 2.58144 -3.2609 0
M  V30 578 H 56.9389 3.36555 -1.60578 0
M  V30 579 N 59.124 1.23083 0.984299 0
M  V30 580 C 60.054 1.03292 2.09411 0
M  V30 581 C 61.035 -0.048923 1.7003 0
M  V30 582 O 62.22 0.114967 1.93859 0
M  V30 583 C 59.35 0.619155 3.41736 0
M  V30 584 C 58.304 1.64791 3.95004 0
M  V30 585 C 57.63 1.0897 5.23478 0
M  V30 586 C 58.93 3.03999 4.24714 0
M  V30 587 H 60.624 1.96119 2.26225 0
M  V30 588 H 58.17 0.944344 1.08711 0
M  V30 589 H 60.123 0.467777 4.18796 0
M  V30 590 H 58.847 -0.344786 3.24775 0
M  V30 591 H 57.506 1.78721 3.20085 0
M  V30 592 H 57.154 0.11686 5.02864 0
M  V30 593 H 56.854 1.77704 5.60085 0
M  V30 594 H 58.378 0.950093 6.03163 0
M  V30 595 H 59.792 2.93393 4.92538 0
M  V30 596 H 58.189 3.69936 4.72512 0
M  V30 597 H 59.259 3.53285 3.32142 0
M  V30 598 N 60.6021 -1.18246 1.0419 0
M  V30 599 C 61.8301 -1.92195 0.766072 0
M  V30 600 C 62.2451 -1.76247 -0.676933 0
M  V30 601 O 61.6021 -1.09293 -1.46155 0
M  V30 602 C 61.6531 -3.43568 1.12442 0
M  V30 603 O 61.3741 -3.59015 2.51078 0
M  V30 604 C 62.8751 -4.34613 0.873275 0
M  V30 605 H 60.0951 -0.610114 0.279288 0
M  V30 606 H 62.6391 -1.50007 1.38989 0
M  V30 607 H 60.7941 -3.8354 0.545542 0
M  V30 608 H 61.2081 -4.5273 2.64831 0
M  V30 609 H 62.6821 -5.39374 1.17385 0
M  V30 610 H 63.1591 -4.38781 -0.191909 0
M  V30 611 H 63.7651 -4.00341 1.43551 0
M  V30 612 N 62.0802 -0.821533 -1.34494 0
M  V30 613 C 63.3282 -0.408139 -1.97936 0
M  V30 614 C 63.6492 1.03193 -1.65457 0
M  V30 615 O 62.9192 1.71622 -0.944595 0
M  V30 616 H 61.4992 -0.147928 -0.732206 0
M  V30 617 H 64.1612 -1.05067 -1.64155 0
M  V30 618 H 63.2572 -0.52601 -3.07635 0
M  V30 619 N 63.5583 1.46682 -0.576371 0
M  V30 620 C 64.7833 2.07304 -0.0630475 0
M  V30 621 C 65.2083 1.42329 1.2298 0
M  V30 622 O 64.5663 0.504865 1.74129 0
M  V30 623 C 64.6143 3.60472 0.095895 0
M  V30 624 O 63.7183 3.95927 1.15394 0
M  V30 625 H 63.0593 0.661288 -0.0599463 0
M  V30 626 H 65.5893 1.88417 -0.797511 0
M  V30 627 H 65.5993 4.06865 0.304071 0
M  V30 628 H 64.2743 4.07157 -0.84828 0
M  V30 629 H 62.8513 3.61252 0.924724 0
M  V30 630 N 65.0364 0.313813 1.54444 0
M  V30 631 C 66.4474 -0.176243 1.85866 0
M  V30 632 C 66.7984 -1.52405 1.23561 0
M  V30 633 O 65.9234 -2.09605 0.538016 0
M  V30 634 C 66.5184 -0.32657 3.37222 0
M  V30 635 C 65.0774 -0.760846 3.6863 0
M  V30 636 C 64.2244 0.123247 2.77026 0
M  V30 637 H 67.1754 0.534418 1.49431 0
M  V30 638 H 67.1964 -1.15908 3.62416 0
M  V30 639 H 66.7084 0.654531 3.82541 0
M  V30 640 H 64.8094 -1.75204 3.28838 0
M  V30 641 H 64.9224 -0.571353 4.75681 0
M  V30 642 H 63.2864 -0.399597 2.51546 0
M  V30 643 H 64.0694 1.10094 3.25168 0
M  V30 644 N 66.5145 -1.57545 0.0417849 0
M  V30 645 C 67.7605 -1.93424 -0.629168 0
M  V30 646 C 68.1155 -0.919564 -1.69002 0
M  V30 647 O 67.4085 0.0626178 -1.91498 0
M  V30 648 C 67.6025 -3.33794 -1.27735 0
M  V30 649 C 67.4315 -4.48822 -0.280806 0
M  V30 650 C 66.2015 -5.05148 0.123869 0
M  V30 651 C 68.3995 -5.12148 0.470012 0
M  V30 652 N 66.3815 -6.03703 1.11426 0
M  V30 653 C 67.7525 -6.05921 1.31377 0
M  V30 654 C 69.8075 -4.95078 0.529343 0
M  V30 655 C 68.5105 -6.84459 2.21152 0
M  V30 656 C 70.5365 -5.74235 1.41448 0
M  V30 657 C 69.8985 -6.67634 2.24598 0
M  V30 658 H 65.9975 -0.755418 -0.202158 0
M  V30 659 H 68.5815 -1.94378 0.111923 0
M  V30 660 H 66.7525 -3.33635 -1.98852 0
M  V30 661 H 68.4845 -3.56988 -1.90635 0
M  V30 662 H 65.2395 -4.72923 -0.253178 0
M  V30 663 H 65.6635 -6.57674 1.60607 0
M  V30 664 H 70.3055 -4.22683 -0.0992798 0
M  V30 665 H 68.0235 -7.56151 2.85063 0
M  V30 666 H 71.6095 -5.63057 1.46484 0
M  V30 667 H 70.4895 -7.27817 2.9198 0
M  V30 668 N 67.9926 0.231505 -1.5589 0
M  V30 669 C 69.4036 0.799327 -1.68724 0
M  V30 670 C 69.7546 1.85398 -0.642022 0
M  V30 671 O 68.8796 2.1539 0.208784 0
M  V30 672 C 69.4746 1.45664 -3.05888 0
M  V30 673 C 68.0336 1.97197 -3.20609 0
M  V30 674 C 67.1806 0.828552 -2.64632 0
M  V30 675 H 70.1316 0.00702616 -1.58698 0
M  V30 676 H 70.1526 2.32517 -3.01191 0
M  V30 677 H 69.6646 0.688808 -3.81939 0
M  V30 678 H 67.7656 2.76813 -2.4941 0
M  V30 679 H 67.8786 2.15878 -4.27707 0
M  V30 680 H 66.2426 1.23321 -2.22854 0
M  V30 681 H 67.0256 0.0735544 -3.43221 0
M  V30 682 N 69.4707 1.49531 0.497807 0
M  V30 683 C 70.7187 1.58865 1.24926 0
M  V30 684 C 71.0397 0.278721 1.92998 0
M  V30 685 O 70.3097 -0.702144 1.82885 0
M  V30 686 H 68.8897 0.585343 0.464094 0
M  V30 687 H 71.5517 1.86174 0.57666 0
M  V30 688 H 70.6477 2.38633 2.01149 0
M  V30 689 N 70.9488 -0.749086 1.3866 0
M  V30 690 C 72.1768 -1.53834 1.38358 0
M  V30 691 C 72.5918 -1.88783 -0.0255219 0
M  V30 692 O 71.9488 -1.53101 -0.993292 0
M  V30 693 C 71.9998 -2.83468 2.2434 0
M  V30 694 O 71.7208 -2.50008 3.5976 0
M  V30 695 C 73.2218 -3.7758 2.32267 0
M  V30 696 H 70.4418 -0.47585 0.473083 0
M  V30 697 H 72.9858 -0.926726 1.82297 0
M  V30 698 H 71.1408 -3.40995 1.83851 0
M  V30 699 H 71.5548 -3.33182 4.05081 0
M  V30 700 H 73.0288 -4.65478 2.96706 0
M  V30 701 H 73.5058 -4.18334 1.33765 0
M  V30 702 H 74.1118 -3.25976 2.73166 0
M  V30 703 N 72.4269 -1.23603 -0.977757 0
M  V30 704 C 73.3899 -1.02069 -2.05218 0
M  V30 705 C 74.3899 0.0184305 -1.60789 0
M  V30 706 O 75.5799 -0.221569 -1.72785 0
M  V30 707 C 72.7119 -0.544926 -3.36517 0
M  V30 708 H 73.9049 -1.9742 -2.25755 0
M  V30 709 H 71.4579 -1.05684 -1.15155 0
M  V30 710 H 72.1929 0.412241 -3.21669 0
M  V30 711 H 71.9779 -1.2948 -3.70105 0
M  V30 712 H 73.4679 -0.414985 -4.15533 0
M  V30 713 N 73.905 1.17692 -1.04816 0
M  V30 714 C 74.868 2.19787 -0.650117 0
M  V30 715 C 75.868 1.58044 0.296427 0
M  V30 716 O 77.058 1.74012 0.0808097 0
M  V30 717 C 74.19 3.40869 0.0456987 0
M  V30 718 H 75.383 2.56516 -1.5537 0
M  V30 719 H 72.936 1.31708 -0.841594 0
M  V30 720 H 73.671 3.09681 0.962726 0
M  V30 721 H 73.456 3.86928 -0.634727 0
M  V30 722 H 74.946 4.16445 0.310432 0
M  V30 723 N 75.3831 0.828654 1.34056 0
M  V30 724 C 76.7941 0.477534 1.8049 0
M  V30 725 C 77.1451 -1.00258 1.6865 0
M  V30 726 O 76.2701 -1.78057 1.22982 0
M  V30 727 C 76.8651 0.860018 3.27703 0
M  V30 728 C 75.4241 0.561185 3.72193 0
M  V30 729 C 74.5711 1.07385 2.55663 0
M  V30 730 H 77.5221 1.0183 1.21722 0
M  V30 731 H 77.5431 0.166038 3.80138 0
M  V30 732 H 77.0551 1.93731 3.36288 0
M  V30 733 H 75.1561 -0.506465 3.69142 0
M  V30 734 H 75.2691 1.10926 4.66082 0
M  V30 735 H 73.6331 0.495149 2.49841 0
M  V30 736 H 74.4161 2.15771 2.67016 0
M  V30 737 N 76.8612 -1.46375 0.584142 0
M  V30 738 C 77.8242 -2.28784 -0.138108 0
M  V30 739 C 78.8242 -1.38471 -0.817462 0
M  V30 740 O 80.0142 -1.60833 -0.669199 0
M  V30 741 C 77.1462 -3.18892 -1.20503 0
M  V30 742 H 78.3392 -2.94117 0.586127 0
M  V30 743 H 75.8922 -1.52509 0.342171 0
M  V30 744 H 76.6272 -2.58309 -1.96079 0
M  V30 745 H 76.4122 -3.85388 -0.722384 0
M  V30 746 H 77.9022 -3.80914 -1.71155 0
M  V30 747 N 78.3393 -0.321999 -1.54275 0
M  V30 748 C 79.3023 0.531975 -2.22941 0
M  V30 749 C 80.3023 1.04478 -1.22234 0
M  V30 750 O 81.4923 0.937452 -1.46825 0
M  V30 751 C 78.6243 1.73874 -2.93224 0
M  V30 752 H 79.8173 -0.0682612 -2.99822 0
M  V30 753 H 77.3703 -0.0730644 -1.56129 0
M  V30 754 H 78.1053 2.37825 -2.20476 0
M  V30 755 H 77.8903 1.37847 -3.6707 0
M  V30 756 H 79.3803 2.34496 -3.45545 0
M  V30 757 N 79.8174 1.5752 -0.0501392 0
M  V30 758 C 81.0424 1.97376 0.636997 0
M  V30 759 C 81.4674 0.927466 1.63645 0
M  V30 760 O 80.8254 -0.10941 1.8097 0
M  V30 761 C 80.8734 3.36304 1.30123 0
M  V30 762 O 79.9774 3.34156 2.41689 0
M  V30 763 H 79.3184 0.642998 0.165679 0
M  V30 764 H 81.8484 2.04258 -0.118233 0
M  V30 765 H 81.8584 3.73008 1.65315 0
M  V30 766 H 80.5334 4.11993 0.568746 0
M  V30 767 H 79.1104 3.09196 2.08451 0
M  V30 768 N 81.2955 -0.223234 1.56011 0
M  V30 769 C 82.5255 -0.963413 1.82762 0
M  V30 770 C 82.9335 -1.78516 0.626804 0
M  V30 771 O 82.2765 -1.78974 -0.414014 0
M  V30 772 C 82.3385 -1.93126 3.0322 0
M  V30 773 C 82.0025 -1.2942 4.38291 0
M  V30 774 C 82.9995 -0.684916 5.15369 0
M  V30 775 C 80.6845 -1.30647 4.85012 0
M  V30 776 C 82.6785 -0.0963971 6.37327 0
M  V30 777 C 80.3655 -0.71411 6.06913 0
M  V30 778 C 81.3635 -0.110123 6.82911 0
M  V30 779 O 81.0515 0.47303 8.02507 0
M  V30 780 H 80.7835 -0.288011 0.611576 0
M  V30 781 H 83.3375 -0.244103 2.03944 0
M  V30 782 H 81.5675 -2.68952 2.77852 0
M  V30 783 H 83.2565 -2.53685 3.16857 0
M  V30 784 H 84.0225 -0.667774 4.80381 0
M  V30 785 H 79.9015 -1.76598 4.25833 0
M  V30 786 H 83.4455 0.375657 6.96588 0
M  V30 787 H 79.3425 -0.728659 6.41374 0
M  V30 788 H 80.1105 0.367186 8.17676 0
M  V30 789 N 82.7736 -1.49793 -0.48987 0
M  V30 790 C 84.0016 -1.63568 -1.26701 0
M  V30 791 C 84.4166 -0.311465 -1.86213 0
M  V30 792 O 83.7736 0.704416 -1.68357 0
M  V30 793 C 83.8246 -2.71284 -2.38929 0
M  V30 794 O 83.5456 -3.9857 -1.81861 0
M  V30 795 C 85.0466 -2.95864 -3.3012 0
M  V30 796 H 82.2666 -0.550342 -0.383881 0
M  V30 797 H 84.8106 -1.95898 -0.586864 0
M  V30 798 H 82.9656 -2.417 -3.02753 0
M  V30 799 H 83.3796 -4.57993 -2.55622 0
M  V30 800 H 84.8536 -3.74941 -4.05121 0
M  V30 801 H 85.3306 -2.06206 -3.87783 0
M  V30 802 H 85.9366 -3.26907 -2.72051 0
M  V30 803 N 84.2517 0.741722 -1.39055 0
M  V30 804 C 85.6627 1.31966 -1.32068 0
M  V30 805 C 86.0137 1.96192 0.0180797 0
M  V30 806 O 85.1387 1.95861 0.920196 0
M  V30 807 C 85.7337 2.39954 -2.39181 0
M  V30 808 C 84.2927 2.93438 -2.35735 0
M  V30 809 C 83.4397 1.66936 -2.21422 0
M  V30 810 H 86.3907 0.539721 -1.4924 0
M  V30 811 H 86.4117 3.20182 -2.05581 0
M  V30 812 H 85.9237 1.9318 -3.36605 0
M  V30 813 H 84.0247 3.4451 -1.41929 0
M  V30 814 H 84.1377 3.4701 -3.30335 0
M  V30 815 H 82.5017 1.91016 -1.68478 0
M  V30 816 H 83.2847 1.22224 -3.20806 0
M  V30 817 N 85.7298 1.2412 0.971189 0
M  V30 818 C 86.9578 1.10575 1.74874 0
M  V30 819 C 87.3728 -0.342017 1.85676 0
M  V30 820 O 86.7298 -1.23617 1.34258 0
M  V30 821 C 86.7808 1.73579 3.171 0
M  V30 822 O 86.5018 3.12695 3.06844 0
M  V30 823 C 88.0028 1.65598 4.11208 0
M  V30 824 H 85.2228 0.386504 0.548503 0
M  V30 825 H 87.7668 1.64156 1.21955 0
M  V30 826 H 85.9218 1.24009 3.67016 0
M  V30 827 H 86.3358 3.43412 3.96445 0
M  V30 828 H 87.8098 2.1437 5.08674 0
M  V30 829 H 88.2868 0.616532 4.34851 0
M  V30 830 H 88.8928 2.14578 3.67201 0
M  V30 831 N 87.2079 -1.17134 1.05439 0
M  V30 832 C 88.6189 -1.69084 0.791676 0
M  V30 833 C 88.9699 -1.83822 -0.685839 0
M  V30 834 O 88.0949 -1.52757 -1.53278 0
M  V30 835 C 88.6899 -3.07119 1.4305 0
M  V30 836 C 87.2489 -3.56225 1.21577 0
M  V30 837 C 86.3959 -2.32421 1.51247 0
M  V30 838 H 89.3469 -1.01617 1.219 0
M  V30 839 H 89.3679 -3.71087 0.84112 0
M  V30 840 H 88.8799 -2.9636 2.50584 0
M  V30 841 H 86.9809 -3.72257 0.159787 0
M  V30 842 H 87.0939 -4.38837 1.92246 0
M  V30 843 H 85.4579 -2.3701 0.932653 0
M  V30 844 H 86.2409 -2.24268 2.5992 0
M  V30 845 N 88.686 -0.835752 -1.33615 0
M  V30 846 C 90.102 -0.523139 -1.50783 0
M  V30 847 C 90.302 0.950171 -1.77691 0
M  V30 848 O 89.358 1.73411 -1.83534 0
M  V30 849 C 90.671 -1.39378 -2.66448 0
M  V30 850 C 92.219 -1.39223 -2.80332 0
M  V30 851 C 92.694 -2.24765 -3.99055 0
M  V30 852 N 94.185 -2.22458 -4.06284 0
M  V30 853 C 94.92 -2.85386 -4.97336 0
M  V30 854 N 94.416 -3.57354 -5.93523 0
M  V30 855 N 96.209 -2.74872 -4.90308 0
M  V30 856 H 88.36 -1.78952 -1.14411 0
M  V30 857 H 90.623 -0.763297 -0.562212 0
M  V30 858 H 90.329 -2.44061 -2.53234 0
M  V30 859 H 90.203 -1.0676 -3.61776 0
M  V30 860 H 92.59 -0.353136 -2.92979 0
M  V30 861 H 92.671 -1.75846 -1.85773 0
M  V30 862 H 92.315 -3.28732 -3.87167 0
M  V30 863 H 92.245 -1.85485 -4.92852 0
M  V30 864 H 94.736 -1.70119 -3.37443 0
M  V30 865 H 95.049 -4.02584 -6.59656 0
M  V30 866 H 93.394 -3.61461 -5.93608 0
M  V30 867 H 96.585 -2.18213 -4.14126 0
M  V30 868 H 96.758 -3.24199 -5.61069 0
M  V30 869 N 90.1641 1.46063 -0.591896 0
M  V30 870 C 91.3891 2.07226 -0.0850314 0
M  V30 871 C 91.8141 1.43625 1.21463 0
M  V30 872 O 91.1721 0.523305 1.73583 0
M  V30 873 C 91.2201 3.60554 0.0576567 0
M  V30 874 O 90.3241 3.97128 1.11188 0
M  V30 875 H 89.6651 0.660615 -0.0669568 0
M  V30 876 H 92.1951 1.8756 -0.81745 0
M  V30 877 H 92.2051 4.07165 0.2609 0
M  V30 878 H 90.8801 4.06235 -0.891416 0
M  V30 879 H 89.4571 3.62213 0.886356 0
M  V30 880 N 91.6422 0.330177 1.54103 0
M  V30 881 C 93.0532 -0.15652 1.86043 0
M  V30 882 C 93.4042 -1.51086 1.2517 0
M  V30 883 O 92.5292 -2.09023 0.560217 0
M  V30 884 C 93.1242 -0.290784 3.3755 0
M  V30 885 C 91.6832 -0.721705 3.69416 0
M  V30 886 C 90.8302 0.152622 2.7688 0
M  V30 887 H 93.7812 0.550237 1.48856 0
M  V30 888 H 93.8022 -1.12058 3.63625 0
M  V30 889 H 93.3142 0.695068 3.81825 0
M  V30 890 H 91.4152 -1.71706 3.30678 0
M  V30 891 H 91.5282 -0.520869 4.7626 0
M  V30 892 H 89.8922 -0.372894 2.51956 0
M  V30 893 H 90.6752 1.13536 3.23982 0
M  V30 894 N 93.1203 -1.57491 0.0584922 0
M  V30 895 C 94.5363 -1.56792 -0.298091 0
M  V30 896 C 94.7363 -1.06679 -1.70944 0
M  V30 897 O 93.7923 -0.726672 -2.41818 0
M  V30 898 C 95.1053 -3.00461 -0.119879 0
M  V30 899 C 96.6533 -3.1242 -0.190428 0
M  V30 900 C 97.1283 -4.57982 -0.0406567 0
M  V30 901 N 98.6193 -4.63099 -0.0966958 0
M  V30 902 C 99.3543 -5.734 -0.00502943 0
M  V30 903 N 98.8503 -6.9266 0.139402 0
M  V30 904 N 100.643 -5.62067 -0.0611391 0
M  V30 905 H 92.7943 -1.88386 0.98105 0
M  V30 906 H 95.0573 -0.867865 0.381463 0
M  V30 907 H 94.7633 -3.41187 0.85349 0
M  V30 908 H 94.6373 -3.66843 -0.877833 0
M  V30 909 H 97.0243 -2.71589 -1.15427 0
M  V30 910 H 97.1053 -2.48702 0.598405 0
M  V30 911 H 96.7493 -4.995 0.919897 0
M  V30 912 H 96.6793 -5.19715 -0.848727 0
M  V30 913 H 99.1703 -3.77331 -0.207277 0
M  V30 914 H 99.4833 -7.72536 0.201855 0
M  V30 915 H 97.8283 -6.94781 0.174586 0
M  V30 916 H 101.019 -4.67782 -0.172583 0
M  V30 917 H 101.192 -6.47999 0.0137562 0
M  V30 918 N 94.5984 0.214957 -1.56127 0
M  V30 919 C 95.8454 0.938372 -1.79446 0
M  V30 920 C 96.1734 1.8407 -0.628378 0
M  V30 921 O 95.4284 1.91837 0.386925 0
M  V30 922 C 95.7274 1.80314 -3.0858 0
M  V30 923 C 95.3934 1.05349 -4.3842 0
M  V30 924 C 94.0554 0.846435 -4.73697 0
M  V30 925 C 96.4074 0.524588 -5.18553 0
M  V30 926 C 93.7354 0.098683 -5.86617 0
M  V30 927 C 96.0874 -0.209853 -6.32252 0
M  V30 928 C 94.7514 -0.428102 -6.66126 0
M  V30 929 H 94.0214 0.343375 -0.656639 0
M  V30 930 H 96.6684 0.206077 -1.90388 0
M  V30 931 H 94.9734 2.6035 -2.92789 0
M  V30 932 H 96.6704 2.36513 -3.23825 0
M  V30 933 H 93.2604 1.22486 -4.10725 0
M  V30 934 H 97.4444 0.672008 -4.91729 0
M  V30 935 H 92.7004 -0.0805753 -6.11347 0
M  V30 936 H 96.8744 -0.627157 -6.9357 0
M  V30 937 H 94.5014 -1.00944 -7.53468 0
M  V30 938 N 96.0765 1.50051 0.48192 0
M  V30 939 C 97.3255 1.59741 1.23149 0
M  V30 940 C 97.6385 0.298163 1.93314 0
M  V30 941 O 98.8445 0.273835 2.70116 0
M  V30 942 C 97.3005 2.81926 2.23708 0
M  V30 943 C 96.9085 4.18685 1.59396 0
M  V30 944 C 98.6525 3.00956 2.99375 0
M  V30 945 C 96.5595 5.3207 2.58178 0
M  V30 946 H 95.4895 0.594838 0.46334 0
M  V30 947 H 98.1405 1.76467 0.503169 0
M  V30 948 H 96.5225 2.58736 2.99786 0
M  V30 949 H 97.6965 4.52088 0.891811 0
M  V30 950 H 96.0115 4.05171 0.960503 0
M  V30 951 H 98.6085 3.82836 3.73283 0
M  V30 952 H 98.9515 2.12258 3.58123 0
M  V30 953 H 99.4845 3.24277 2.30411 0
M  V30 954 H 96.2235 6.22888 2.04184 0
M  V30 955 H 95.7435 5.03098 3.26577 0
M  V30 956 H 97.4225 5.62196 3.20225 0
M  V30 957 N 97.5546 -0.734337 1.39446 0
M  V30 958 C 98.8026 -1.49096 1.36436 0
M  V30 959 C 99.1236 -1.94961 -0.0388255 0
M  V30 960 O 98.3936 -1.69033 -0.990191 0
M  V30 961 H 96.9736 -0.5531 0.502085 0
M  V30 962 H 99.6356 -0.871725 1.74319 0
M  V30 963 H 98.7316 -2.37276 2.02747 0
M  V30 964 N 99.0327 -1.24633 -0.964593 0
M  V30 965 C 100.449 -1.01239 -1.2338 0
M  V30 966 C 100.649 0.2769 -1.99588 0
M  V30 967 O 99.7047 0.992241 -2.32187 0
M  V30 968 C 101.018 -2.22937 -2.01791 0
M  V30 969 C 102.566 -2.27594 -2.14872 0
M  V30 970 C 103.041 -3.48921 -2.96678 0
M  V30 971 N 104.532 -3.49257 -3.04259 0
M  V30 972 C 105.267 -4.39795 -3.67924 0
M  V30 973 N 104.763 -5.40591 -4.33281 0
M  V30 974 N 106.556 -4.275 -3.64966 0
M  V30 975 H 98.7067 -2.0748 -0.454502 0
M  V30 976 H 100.97 -0.910647 -0.26349 0
M  V30 977 H 100.676 -3.16587 -1.53184 0
M  V30 978 H 100.55 -2.25306 -3.02518 0
M  V30 979 H 102.937 -1.34473 -2.6268 0
M  V30 980 H 103.018 -2.2925 -1.13482 0
M  V30 981 H 102.662 -4.42359 -2.49562 0
M  V30 982 H 102.592 -3.4451 -3.98272 0
M  V30 983 H 105.083 -2.76337 -2.57771 0
M  V30 984 H 105.396 -6.05904 -4.79687 0
M  V30 985 H 103.741 -5.44475 -4.3194 0
M  V30 986 H 106.932 -3.47987 -3.13086 0
M  V30 987 H 107.105 -4.98258 -4.14298 0
M  V30 988 N 100.511 1.16574 -1.06058 0
M  V30 989 C 101.927 1.3904 -0.783585 0
M  V30 990 C 102.127 1.91784 0.618145 0
M  V30 991 O 101.183 2.11511 1.37911 0
M  V30 992 C 102.496 2.37329 -1.84649 0
M  V30 993 C 104.044 2.51018 -1.86973 0
M  V30 994 C 104.519 3.52588 -2.92311 0
M  V30 995 N 106.01 3.60113 -2.91329 0
M  V30 996 C 106.745 4.38486 -3.69482 0
M  V30 997 N 106.241 5.20302 -4.57447 0
M  V30 998 N 108.034 4.33446 -3.57885 0
M  V30 999 H 100.185 0.806725 -1.96483 0
M  V30 1000 H 102.448 0.417117 -0.851303 0
M  V30 1001 H 102.154 2.05663 -2.85299 0
M  V30 1002 H 102.028 3.36946 -1.6955 0
M  V30 1003 H 104.415 2.81989 -0.869827 0
M  V30 1004 H 104.496 1.51445 -2.0615 0
M  V30 1005 H 104.14 3.22354 -3.92492 0
M  V30 1006 H 104.07 4.51886 -2.70383 0
M  V30 1007 H 106.561 3.01707 -2.27555 0
M  V30 1008 H 106.874 5.77311 -5.13743 0
M  V30 1009 H 105.219 5.19653 -4.61503 0
M  V30 1010 H 108.41 3.68586 -2.88551 0
M  V30 1011 H 108.583 4.94279 -4.19037 0
M  V30 1012 N 101.989 0.842826 1.3317 0
M  V30 1013 C 102.921 0.236245 2.27979 0
M  V30 1014 C 103.934 -0.585282 1.51915 0
M  V30 1015 O 105.123 -0.411705 1.73687 0
M  V30 1016 C 102.223 -0.685717 3.3189 0
M  V30 1017 C 101.396 0.0973448 4.37292 0
M  V30 1018 C 100.455 -0.748565 5.20848 0
M  V30 1019 O 99.4809 -0.186339 5.68895 0
M  V30 1020 N 100.683 -2.06527 5.42519 0
M  V30 1021 H 103.448 1.05088 2.80672 0
M  V30 1022 H 101.009 0.701667 1.45905 0
M  V30 1023 H 103.001 -1.25669 3.84694 0
M  V30 1024 H 101.571 -1.40105 2.79445 0
M  V30 1025 H 100.791 0.849706 3.84933 0
M  V30 1026 H 102.079 0.635643 5.04814 0
M  V30 1027 H 101.477 -2.54554 5.05192 0
M  V30 1028 H 100.034 -2.58464 5.98364 0
M  V30 1029 N 103.467 -1.45747 0.599634 0
M  V30 1030 C 104.692 -2.07178 0.0960198 0
M  V30 1031 C 105.117 -1.44268 -1.207 0
M  V30 1032 O 104.475 -0.532503 -1.73303 0
M  V30 1033 C 104.523 -3.60579 -0.0385348 0
M  V30 1034 O 103.627 -3.97713 -1.0908 0
M  V30 1035 H 102.968 -0.660251 0.0704593 0
M  V30 1036 H 105.498 -1.87124 0.827385 0
M  V30 1037 H 105.508 -4.07298 -0.239304 0
M  V30 1038 H 104.183 -4.05756 0.912947 0
M  V30 1039 H 102.76 -3.62678 -0.867135 0
M  V30 1040 N 104.945 -0.338344 -1.53925 0
M  V30 1041 C 105.875 0.51328 -2.27789 0
M  V30 1042 C 106.856 1.107 -1.29149 0
M  V30 1043 O 108.041 1.12937 -1.57984 0
M  V30 1044 C 105.171 1.66697 -3.04679 0
M  V30 1045 C 104.125 1.20183 -4.1078 0
M  V30 1046 C 103.451 2.44363 -4.75595 0
M  V30 1047 C 104.751 0.30605 -5.21403 0
M  V30 1048 H 106.445 -0.102883 -2.99223 0
M  V30 1049 H 103.991 -0.0509219 -1.4391 0
M  V30 1050 H 105.944 2.26915 -3.55088 0
M  V30 1051 H 104.668 2.30995 -2.30887 0
M  V30 1052 H 103.327 0.622499 -3.61276 0
M  V30 1053 H 102.975 3.07057 -3.98403 0
M  V30 1054 H 102.675 2.13925 -5.47275 0
M  V30 1055 H 104.199 3.05317 -5.28786 0
M  V30 1056 H 105.613 0.814929 -5.67478 0
M  V30 1057 H 104.01 0.0937929 -6.00027 0
M  V30 1058 H 105.08 -0.65921 -4.80398 0
M  V30 1059 N 106.423 1.57458 -0.0668435 0
M  V30 1060 C 107.672 1.92477 0.602947 0
M  V30 1061 C 107.985 0.948419 1.71068 0
M  V30 1062 O 109.191 1.19124 2.43971 0
M  V30 1063 C 107.647 3.41903 1.12383 0
M  V30 1064 C 107.255 4.47975 0.04737 0
M  V30 1065 C 108.999 3.85931 1.76797 0
M  V30 1066 C 106.906 5.88529 0.582022 0
M  V30 1067 H 105.836 0.718387 0.22899 0
M  V30 1068 H 108.487 1.82978 -0.138276 0
M  V30 1069 H 106.869 3.46459 1.91787 0
M  V30 1070 H 108.043 4.55029 -0.726978 0
M  V30 1071 H 106.358 4.13384 -0.500243 0
M  V30 1072 H 108.955 4.88322 2.17821 0
M  V30 1073 H 109.298 3.23029 2.62599 0
M  V30 1074 H 109.831 3.83958 1.04024 0
M  V30 1075 H 106.57 6.55065 -0.238721 0
M  V30 1076 H 106.09 5.85004 1.324 0
M  V30 1077 H 107.769 6.38258 1.05999 0
M  V30 1078 N 107.901 -0.206675 1.56239 0
M  V30 1079 C 108.811 -1.27686 1.96808 0
M  V30 1080 C 109.827 -1.50455 0.874035 0
M  V30 1081 O 111.003 -1.63295 1.17884 0
M  V30 1082 C 108.068 -2.60358 2.28942 0
M  V30 1083 C 107.129 -2.45762 3.51994 0
M  V30 1084 C 106.362 -3.72108 3.82585 0
M  V30 1085 O 106.585 -4.75776 3.14631 0
M  V30 1086 O 105.519 -3.6833 4.76043 0
M  V30 1087 H 109.345 -0.962593 2.88041 0
M  V30 1088 H 106.93 -0.410746 1.43643 0
M  V30 1089 H 108.812 -3.38687 2.50737 0
M  V30 1090 H 107.487 -2.91435 1.4088 0
M  V30 1091 H 106.394 -1.65584 3.35459 0
M  V30 1092 H 107.727 -2.19621 4.40486 0
M  V30 1093 N 109.379 -1.50304 -0.473955 0
M  V30 1094 C 110.656 -1.51667 -1.23518 0
M  V30 1095 C 111.036 -0.259701 -2.09496 0
M  V30 1096 O 110.384 0.756986 -2.15597 0
M  V30 1097 C 110.594 -2.81082 -2.06868 0
M  V30 1098 C 111.942 -3.31631 -2.65153 0
M  V30 1099 O 112.966 -2.82384 -2.17113 0
M  V30 1100 O 111.825 -4.17471 -3.52675 0
M  V30 1101 H 108.919 -0.60822 -0.560355 0
M  V30 1102 H 111.465 -1.62592 -0.486011 0
M  V30 1103 H 110.237 -3.64041 -1.4349 0
M  V30 1104 H 109.86 -2.73146 -2.88924 0
M  V30 1105 N 110.857 0.726932 -1.39834 0
M  V30 1106 C 111.82 1.82269 -1.38962 0
M  V30 1107 C 112.82 1.58248 -0.285334 0
M  V30 1108 O 114.01 1.65499 -0.54366 0
M  V30 1109 C 111.142 3.20186 -1.17019 0
M  V30 1110 H 112.335 1.84443 -2.36476 0
M  V30 1111 H 109.888 0.931416 -1.25516 0
M  V30 1112 H 110.623 3.23669 -0.202204 0
M  V30 1113 H 110.408 3.3902 -1.96998 0
M  V30 1114 H 111.898 4.00235 -1.1917 0
M  V30 1115 N 112.336 1.25143 0.95797 0
M  V30 1116 C 113.752 1.01892 1.22842 0
M  V30 1117 C 113.952 -0.266311 1.99732 0
M  V30 1118 O 113.008 -0.979913 2.3271 0
M  V30 1119 C 114.321 2.24004 2.00606 0
M  V30 1120 C 115.869 2.28731 2.13662 0
M  V30 1121 C 116.344 3.5049 2.94823 0
M  V30 1122 N 117.835 3.50866 3.02403 0
M  V30 1123 C 118.57 4.4174 3.65586 0
M  V30 1124 N 118.066 5.42882 4.30408 0
M  V30 1125 N 119.859 4.29429 3.62694 0
M  V30 1126 H 112.01 2.07718 0.443493 0
M  V30 1127 H 114.273 0.912031 0.258657 0
M  V30 1128 H 113.979 3.17395 1.51503 0
M  V30 1129 H 113.853 2.26907 3.01319 0
M  V30 1130 H 116.24 1.35865 2.61963 0
M  V30 1131 H 116.321 2.29848 1.12265 0
M  V30 1132 H 115.965 4.43676 2.47213 0
M  V30 1133 H 115.895 3.46617 3.96439 0
M  V30 1134 H 118.386 2.777 2.56302 0
M  V30 1135 H 118.699 6.0844 4.76467 0
M  V30 1136 H 117.044 5.46758 4.29047 0
M  V30 1137 H 120.235 3.49643 3.11236 0
M  V30 1138 H 120.408 5.00448 4.1165 0
M  V30 1139 N 113.814 -1.1601 1.06675 0
M  V30 1140 C 114.761 -2.20525 0.680967 0
M  V30 1141 C 115.731 -1.62904 -0.324283 0
M  V30 1142 O 116.916 -1.89615 -0.212294 0
M  V30 1143 C 114.056 -3.45013 0.0776551 0
M  V30 1144 C 113.169 -4.16863 1.13355 0
M  V30 1145 C 112.304 -5.2888 0.49597 0
M  V30 1146 C 111.343 -5.92537 1.53513 0
M  V30 1147 N 110.48 -6.96038 0.920631 0
M  V30 1148 H 115.32 -2.52876 1.57663 0
M  V30 1149 H 112.857 -1.24199 0.788223 0
M  V30 1150 H 114.815 -4.16193 -0.289704 0
M  V30 1151 H 113.445 -3.132 -0.781393 0
M  V30 1152 H 112.497 -3.44248 1.61857 0
M  V30 1153 H 113.809 -4.60294 1.92174 0
M  V30 1154 H 112.963 -6.06653 0.0758604 0
M  V30 1155 H 111.702 -4.86622 -0.324062 0
M  V30 1156 H 110.707 -5.13482 1.9651 0
M  V30 1157 H 111.932 -6.36873 2.35733 0
M  V30 1158 H 109.878 -6.55888 0.12138 0
M  V30 1159 H 109.795 -7.3786 1.64616 0
M  V30 1160 H 111.063 -7.77725 0.525795 0
M  V30 1161 N 115.292 -0.849877 -1.32721 0
M  V30 1162 C 116.202 -0.293791 -2.32753 0
M  V30 1163 C 117.218 0.585906 -1.63839 0
M  V30 1164 O 118.394 0.487413 -1.95413 0
M  V30 1165 C 115.459 0.512752 -3.42887 0
M  V30 1166 C 114.52 -0.39252 -4.27502 0
M  V30 1167 C 113.753 0.375625 -5.32377 0
M  V30 1168 O 113.976 1.60613 -5.4732 0
M  V30 1169 O 112.91 -0.256094 -6.01355 0
M  V30 1170 H 116.736 -1.12242 -2.82197 0
M  V30 1171 H 114.321 -0.612685 -1.36259 0
M  V30 1172 H 116.203 0.970704 -4.10067 0
M  V30 1173 H 114.878 1.31826 -2.95641 0
M  V30 1174 H 113.785 -0.898547 -3.63149 0
M  V30 1175 H 115.118 -1.16309 -4.7826 0
M  V30 1176 N 116.77 1.45427 -0.607355 0
M  V30 1177 C 118.186 1.57283 -0.270985 0
M  V30 1178 C 118.386 1.59875 1.22647 0
M  V30 1179 O 117.442 1.52893 2.00948 0
M  V30 1180 C 118.755 2.85566 -0.941952 0
M  V30 1181 C 120.303 2.9924 -0.917849 0
M  V30 1182 C 120.778 4.30293 -1.56882 0
M  V30 1183 N 122.269 4.37051 -1.5343 0
M  V30 1184 C 123.004 5.37123 -2.00715 0
M  V30 1185 N 122.5 6.43734 -2.56084 0
M  V30 1186 N 124.293 5.28479 -1.91484 0
M  V30 1187 H 116.444 1.41988 -1.57966 0
M  V30 1188 H 118.707 0.67885 -0.661715 0
M  V30 1189 H 118.413 2.8955 -1.99633 0
M  V30 1190 H 118.287 3.74322 -0.465096 0
M  V30 1191 H 120.674 2.94822 0.127984 0
M  V30 1192 H 120.755 2.11895 -1.43297 0
M  V30 1193 H 120.399 4.35469 -2.61398 0
M  V30 1194 H 120.329 5.16454 -1.02873 0
M  V30 1195 H 122.82 3.60615 -1.12982 0
M  V30 1196 H 123.133 7.16341 -2.89958 0
M  V30 1197 H 121.478 6.44485 -2.60122 0
M  V30 1198 H 124.669 4.44098 -1.47967 0
M  V30 1199 H 124.842 6.0632 -2.28648 0
M  V30 1200 N 118.248 0.346503 1.53744 0
M  V30 1201 C 119.158 -0.517293 2.28826 0
M  V30 1202 C 120.174 -1.10935 1.3405 0
M  V30 1203 O 121.35 -1.1244 1.6709 0
M  V30 1204 C 118.415 -1.65098 3.04866 0
M  V30 1205 C 117.476 -1.0884 4.15274 0
M  V30 1206 C 116.709 -2.16806 4.87679 0
M  V30 1207 O 116.932 -3.3758 4.59778 0
M  V30 1208 O 115.866 -1.80934 5.74061 0
M  V30 1209 H 119.692 0.0931396 3.03557 0
M  V30 1210 H 117.277 0.111458 1.48984 0
M  V30 1211 H 119.159 -2.31053 3.5241 0
M  V30 1212 H 117.834 -2.24717 2.32989 0
M  V30 1213 H 116.741 -0.3933 3.72027 0
M  V30 1214 H 118.074 -0.537036 4.89261 0
M  V30 1215 N 119.726 -1.57421 0.075193 0
M  V30 1216 C 120.689 -2.11791 -0.876203 0
M  V30 1217 C 121.689 -1.04268 -1.22412 0
M  V30 1218 O 122.879 -1.30242 -1.15684 0
M  V30 1219 C 120.011 -2.62207 -2.17854 0
M  V30 1220 H 121.204 -2.9716 -0.40444 0
M  V30 1221 H 118.757 -1.55333 -0.173557 0
M  V30 1222 H 119.492 -1.803 -2.6956 0
M  V30 1223 H 119.277 -3.40802 -1.93897 0
M  V30 1224 H 120.767 -3.04335 -2.85955 0
M  V30 1225 N 121.204 0.198386 -1.56346 0
M  V30 1226 C 122.167 1.22952 -1.93431 0
M  V30 1227 C 123.167 1.38611 -0.815092 0
M  V30 1228 O 124.357 1.36479 -1.08255 0
M  V30 1229 C 121.489 2.59946 -2.20546 0
M  V30 1230 H 122.682 0.912626 -2.85677 0
M  V30 1231 H 120.235 0.43977 -1.49986 0
M  V30 1232 H 120.97 2.96696 -1.30927 0
M  V30 1233 H 120.755 2.49953 -3.02102 0
M  V30 1234 H 122.245 3.3431 -2.50253 0
M  V30 1235 N 122.682 1.50554 0.465978 0
M  V30 1236 C 123.928 1.62038 1.21949 0
M  V30 1237 C 124.261 0.322116 1.9151 0
M  V30 1238 O 123.536 -0.676723 1.82348 0
M  V30 1239 C 123.819 2.80421 2.25912 0
M  V30 1240 C 123.672 4.20144 1.60622 0
M  V30 1241 C 124.991 2.94354 3.27176 0
M  V30 1242 H 122.11 0.589752 0.441998 0
M  V30 1243 H 124.752 1.82956 0.51257 0
M  V30 1244 H 122.902 2.62717 2.86203 0
M  V30 1245 H 124.574 4.49449 1.03889 0
M  V30 1246 H 122.817 4.24165 0.909211 0
M  V30 1247 H 123.488 4.98914 2.36196 0
M  V30 1248 H 125.964 3.10578 2.76913 0
M  V30 1249 H 124.84 3.788 3.97242 0
M  V30 1250 H 125.101 2.05186 3.916 0
M  V30 1251 N 124.16 -0.719506 1.40217 0
M  V30 1252 C 125.123 -1.8153 1.39927 0
M  V30 1253 C 126.123 -1.58095 0.293723 0
M  V30 1254 O 127.313 -1.65209 0.552429 0
M  V30 1255 C 124.445 -3.19561 1.18716 0
M  V30 1256 H 125.638 -1.83186 2.37451 0
M  V30 1257 H 123.191 -0.924746 1.26008 0
M  V30 1258 H 123.926 -3.23557 0.219366 0
M  V30 1259 H 123.711 -3.3797 1.98793 0
M  V30 1260 H 125.201 -3.99598 1.21291 0
M  V30 1261 N 125.638 -1.25649 -0.95132 0
M  V30 1262 C 126.601 -1.06399 -2.03007 0
M  V30 1263 C 127.601 -0.0156794 -1.60792 0
M  V30 1264 O 128.791 -0.25817 -1.72276 0
M  V30 1265 C 125.923 -0.616184 -3.35285 0
M  V30 1266 H 127.116 -2.02164 -2.21517 0
M  V30 1267 H 124.669 -1.08103 -1.12887 0
M  V30 1268 H 125.404 0.343917 -3.22471 0
M  V30 1269 H 125.189 -1.37301 -3.67275 0
M  V30 1270 H 126.679 -0.503032 -4.14559 0
M  V30 1271 N 127.117 1.15442 -1.07289 0
M  V30 1272 C 128.08 2.18358 -0.696591 0
M  V30 1273 C 129.08 1.58637 0.262837 0
M  V30 1274 O 130.27 1.74145 0.0438809 0
M  V30 1275 C 127.402 3.4089 -0.0266151 0
M  V30 1276 H 128.595 2.53162 -1.60776 0
M  V30 1277 H 126.148 1.29893 -0.869342 0
M  V30 1278 H 126.883 3.11653 0.896822 0
M  V30 1279 H 126.668 3.85495 -0.716657 0
M  V30 1280 H 128.158 4.17009 0.222028 0
M  V30 1281 N 128.595 0.856903 1.32268 0
M  V30 1282 C 129.558 0.308171 2.27119 0
M  V30 1283 C 130.558 -0.533421 1.51695 0
M  V30 1284 O 131.748 -0.344607 1.70757 0
M  V30 1285 C 128.88 -0.563757 3.36206 0
M  V30 1286 H 130.073 1.14535 2.77167 0
M  V30 1287 H 127.626 0.631421 1.42978 0
M  V30 1288 H 128.361 -1.42266 2.91429 0
M  V30 1289 H 128.146 0.0386749 3.92081 0
M  V30 1290 H 129.636 -0.940386 4.06874 0
M  V30 1291 N 130.073 -1.45103 0.615059 0
M  V30 1292 C 131.036 -2.29025 -0.0895485 0
M  V30 1293 C 132.036 -1.40174 -0.787906 0
M  V30 1294 O 133.226 -1.62217 -0.634933 0
M  V30 1295 C 130.358 -3.21376 -1.13711 0
M  V30 1296 H 131.551 -2.92807 0.648382 0
M  V30 1297 H 129.104 -1.51749 0.374444 0
M  V30 1298 H 129.839 -2.6241 -1.90556 0
M  V30 1299 H 129.624 -3.86834 -0.640475 0
M  V30 1300 H 131.114 -3.84459 -1.63036 0
M  V30 1301 N 131.551 -0.354651 -1.53558 0
M  V30 1302 C 132.514 0.484566 -2.24019 0
M  V30 1303 C 133.514 1.01861 -1.24422 0
M  V30 1304 O 134.704 0.906097 -1.4878 0
M  V30 1305 C 131.836 1.67615 -2.96847 0
M  V30 1306 H 133.029 -0.131843 -2.9961 0
M  V30 1307 H 130.582 -0.106165 -1.55939 0
M  V30 1308 H 131.317 2.33095 -2.25471 0
M  V30 1309 H 131.102 1.30029 -3.69912 0
M  V30 1310 H 132.592 2.27114 -3.50441 0
M  V30 1311 N 133.029 1.57378 -0.0835403 0
M  V30 1312 C 134.275 1.94217 0.583733 0
M  V30 1313 C 134.608 0.964653 1.68547 0
M  V30 1314 O 133.883 -0.00422258 1.945 0
M  V30 1315 C 134.166 3.41253 1.14972 0
M  V30 1316 C 134.019 4.49768 0.0538277 0
M  V30 1317 C 135.338 3.89352 2.05166 0
M  V30 1318 H 132.457 0.706233 0.210724 0
M  V30 1319 H 135.099 1.89392 -0.1519 0
M  V30 1320 H 133.249 3.45496 1.77665 0
M  V30 1321 H 134.921 4.57641 -0.579851 0
M  V30 1322 H 133.164 4.29432 -0.614068 0
M  V30 1323 H 133.835 5.49817 0.490452 0
M  V30 1324 H 136.311 3.87189 1.52393 0
M  V30 1325 H 135.187 4.92822 2.41698 0
M  V30 1326 H 135.448 3.27973 2.96456 0
M  V30 1327 N 134.507 -0.190092 1.56449 0
M  V30 1328 C 135.918 -0.754312 1.70784 0
M  V30 1329 C 136.269 -1.83631 0.690951 0
M  V30 1330 O 135.394 -2.15868 -0.151604 0
M  V30 1331 C 135.989 -1.37503 3.09642 0
M  V30 1332 C 134.548 -1.88628 3.25725 0
M  V30 1333 C 133.695 -0.758098 2.66736 0
M  V30 1334 H 136.646 0.0350524 1.58661 0
M  V30 1335 H 136.667 -2.2445 3.0725 0
M  V30 1336 H 136.179 -0.587302 3.83631 0
M  V30 1337 H 134.28 -2.70103 2.56661 0
M  V30 1338 H 134.393 -2.04462 4.3328 0
M  V30 1339 H 132.757 -1.17369 2.26046 0
M  V30 1340 H 133.54 0.0174705 3.43296 0
M  V30 1341 N 135.985 -1.50799 -0.457987 0
M  V30 1342 C 137.21 -1.66496 -1.23668 0
M  V30 1343 C 137.635 -0.353288 -1.84752 0
M  V30 1344 O 136.993 0.684346 -1.67888 0
M  V30 1345 C 137.041 -2.76763 -2.3116 0
M  V30 1346 O 136.145 -2.38928 -3.36136 0
M  V30 1347 H 135.486 -0.555828 -0.363252 0
M  V30 1348 H 138.016 -1.9725 -0.543474 0
M  V30 1349 H 138.026 -3.00232 -2.76269 0
M  V30 1350 H 136.701 -3.71954 -1.86073 0
M  V30 1351 H 135.278 -2.25953 -2.96647 0
M  V30 1352 N 137.463 0.71206 -1.40597 0
M  V30 1353 C 138.373 1.8562 -1.43466 0
M  V30 1354 C 139.389 1.70902 -0.326902 0
M  V30 1355 O 140.565 1.93105 -0.572043 0
M  V30 1356 C 137.63 3.21451 -1.29884 0
M  V30 1357 C 136.691 3.48398 -2.50833 0
M  V30 1358 C 135.924 4.77749 -2.3789 0
M  V30 1359 O 136.147 5.53089 -1.39459 0
M  V30 1360 O 135.081 5.05111 -3.27333 0
M  V30 1361 H 138.907 1.86155 -2.39958 0
M  V30 1362 H 136.492 0.86295 -1.21957 0
M  V30 1363 H 138.374 4.02579 -1.24531 0
M  V30 1364 H 137.049 3.21636 -0.364997 0
M  V30 1365 H 135.956 2.67265 -2.61763 0
M  V30 1366 H 137.289 3.53014 -3.4299 0
M  V30 1367 N 138.941 1.26152 0.944643 0
M  V30 1368 C 140.352 1.10454 1.50522 0
M  V30 1369 C 140.703 -0.31635 1.93633 0
M  V30 1370 O 139.828 -1.20746 1.79581 0
M  V30 1371 C 140.423 1.99891 2.73549 0
M  V30 1372 C 138.982 1.88348 3.25886 0
M  V30 1373 C 138.129 1.93447 1.9868 0
M  V30 1374 H 141.08 1.39292 0.760489 0
M  V30 1375 H 141.101 1.54477 3.47732 0
M  V30 1376 H 140.613 3.03297 2.42141 0
M  V30 1377 H 138.714 0.878636 3.62092 0
M  V30 1378 H 138.827 2.73696 3.93227 0
M  V30 1379 H 137.191 1.37456 2.14425 0
M  V30 1380 H 137.974 2.98476 1.69607 0
M  V30 1381 N 140.419 -1.14872 1.07899 0
M  V30 1382 C 141.667 -1.85422 0.803941 0
M  V30 1383 C 141.988 -1.83051 -0.67211 0
M  V30 1384 O 141.258 -1.27532 -1.48703 0
M  V30 1385 H 139.838 -0.686537 0.294408 0
M  V30 1386 H 142.5 -1.39226 1.3639 0
M  V30 1387 H 141.596 -2.90399 1.14346 0
M  V30 1388 N 141.898 -0.863906 -1.31812 0
M  V30 1389 C 143.175 -0.39275 -1.91616 0
M  V30 1390 C 143.555 1.12461 -1.7865 0
M  V30 1391 O 142.903 1.95045 -1.19037 0
M  V30 1392 C 143.113 -0.867385 -3.38049 0
M  V30 1393 C 144.461 -0.889966 -4.15168 0
M  V30 1394 O 145.485 -0.812635 -3.46806 0
M  V30 1395 O 144.344 -1.00079 -5.37258 0
M  V30 1396 H 141.438 -0.116358 -0.818773 0
M  V30 1397 H 143.984 -0.951418 -1.40521 0
M  V30 1398 H 142.756 -1.91081 -3.41473 0
M  V30 1399 H 142.379 -0.286687 -3.96565 0
M  V30 1400 N 143.376 1.44774 -0.622745 0
M  V30 1401 C 144.787 1.85546 -0.207226 0
M  V30 1402 C 145.138 1.52093 1.23944 0
M  V30 1403 O 144.263 0.95492 1.94191 0
M  V30 1404 C 144.858 3.36781 -0.369313 0
M  V30 1405 C 143.417 3.76399 -0.00836847 0
M  V30 1406 C 142.564 2.68664 -0.686651 0
M  V30 1407 H 145.515 1.3536 -0.828454 0
M  V30 1408 H 145.536 3.78453 0.394162 0
M  V30 1409 H 145.048 3.61098 -1.42231 0
M  V30 1410 H 143.149 3.57698 1.04322 0
M  V30 1411 H 143.262 4.7732 -0.412584 0
M  V30 1412 H 141.626 2.54404 -0.122777 0
M  V30 1413 H 142.409 2.95815 -1.74208 0
M  V30 1414 N 144.854 0.36279 1.53368 0
M  V30 1415 C 145.784 -0.476976 2.28576 0
M  V30 1416 C 146.765 -1.08631 1.30894 0
M  V30 1417 O 147.95 -1.10409 1.59761 0
M  V30 1418 C 145.08 -1.61828 3.07293 0
M  V30 1419 C 144.034 -1.13633 4.1264 0
M  V30 1420 C 143.36 -2.36766 4.79423 0
M  V30 1421 C 144.66 -0.223061 5.21823 0
M  V30 1422 H 146.354 0.150474 2.99022 0
M  V30 1423 H 143.9 0.0738103 1.43811 0
M  V30 1424 H 145.853 -2.21237 3.58653 0
M  V30 1425 H 144.577 -2.27292 2.34533 0
M  V30 1426 H 143.236 -0.564945 3.62221 0
M  V30 1427 H 142.884 -3.0068 4.03238 0
M  V30 1428 H 142.584 -2.05192 5.50609 0
M  V30 1429 H 144.108 -2.96865 5.33576 0
M  V30 1430 H 145.522 -0.724545 5.68703 0
M  V30 1431 H 143.919 0.001678 6.001 0
M  V30 1432 H 144.989 0.735553 4.79289 0
M  V30 1433 N 146.332 -1.57332 0.0918853 0
M  V30 1434 C 147.242 -2.17368 -0.882505 0
M  V30 1435 C 148.258 -1.14226 -1.31257 0
M  V30 1436 O 149.434 -1.46582 -1.38115 0
M  V30 1437 C 146.499 -2.73962 -2.12476 0
M  V30 1438 C 145.56 -3.92048 -1.7492 0
M  V30 1439 C 144.793 -4.45933 -2.93223 0
M  V30 1440 O 145.016 -3.98764 -4.07852 0
M  V30 1441 O 143.95 -5.36999 -2.71875 0
M  V30 1442 H 147.776 -3.01031 -0.40172 0
M  V30 1443 H 145.361 -1.48813 -0.132291 0
M  V30 1444 H 147.243 -3.10147 -2.85283 0
M  V30 1445 H 145.918 -1.93347 -2.59613 0
M  V30 1446 H 144.825 -3.6068 -0.993025 0
M  V30 1447 H 146.158 -4.74017 -1.32548 0
M  V30 1448 N 147.81 0.181792 -1.56548 0
M  V30 1449 C 148.773 1.20894 -1.94724 0
M  V30 1450 C 149.773 1.37738 -0.829747 0
M  V30 1451 O 150.963 1.35323 -1.09697 0
M  V30 1452 C 148.095 2.57593 -2.23291 0
M  V30 1453 H 149.288 0.882275 -2.86629 0
M  V30 1454 H 146.841 0.423838 -1.50444 0
M  V30 1455 H 147.576 2.95291 -1.34067 0
M  V30 1456 H 147.361 2.46735 -3.04736 0
M  V30 1457 H 148.851 3.31637 -2.53785 0
M  V30 1458 N 149.288 1.51039 0.449983 0
M  V30 1459 C 150.534 1.63322 1.20223 0
M  V30 1460 C 150.867 0.34241 1.91158 0
M  V30 1461 O 150.142 -0.657344 1.83055 0
M  V30 1462 C 150.425 2.82801 2.22925 0
M  V30 1463 C 150.278 4.21823 1.56157 0
M  V30 1464 C 151.597 2.97807 3.24035 0
M  V30 1465 H 148.716 0.594407 0.435718 0
M  V30 1466 H 151.358 1.83489 0.493136 0
M  V30 1467 H 149.508 2.65738 2.834 0
M  V30 1468 H 151.18 4.50526 0.991162 0
M  V30 1469 H 149.423 4.25105 0.864172 0
M  V30 1470 H 150.094 5.01391 2.30891 0
M  V30 1471 H 152.57 3.13497 2.73603 0
M  V30 1472 H 151.446 3.82992 3.93202 0
M  V30 1473 H 151.707 2.09328 3.89402 0
M  V30 1474 N 150.766 -0.704594 1.40972 0
M  V30 1475 C 151.729 -1.80035 1.41845 0
M  V30 1476 C 152.729 -1.57774 0.310474 0
M  V30 1477 O 153.919 -1.64613 0.56992 0
M  V30 1478 C 151.051 -3.18284 1.22098 0
M  V30 1479 H 152.244 -1.80658 2.3938 0
M  V30 1480 H 149.797 -0.911329 1.26982 0
M  V30 1481 H 150.532 -3.23306 0.253672 0
M  V30 1482 H 150.317 -3.35843 2.02366 0
M  V30 1483 H 151.807 -3.98289 1.25522 0
M  V30 1484 N 152.244 -1.26651 -0.937939 0
M  V30 1485 C 153.491 -1.12387 -1.6845 0
M  V30 1486 C 153.819 0.332208 -1.91642 0
M  V30 1487 O 153.074 1.2602 -1.49725 0
M  V30 1488 C 153.373 -1.84168 -3.06295 0
M  V30 1489 C 153.039 -3.34056 -3.02849 0
M  V30 1490 C 151.701 -3.74942 -3.01616 0
M  V30 1491 C 154.053 -4.29741 -2.9491 0
M  V30 1492 C 151.381 -5.09894 -2.90215 0
M  V30 1493 C 153.733 -5.64738 -2.8505 0
M  V30 1494 C 152.397 -6.0493 -2.82162 0
M  V30 1495 H 151.667 -0.411252 -0.616403 0
M  V30 1496 H 154.314 -1.57134 -1.09459 0
M  V30 1497 H 152.619 -1.319 -3.6893 0
M  V30 1498 H 154.316 -1.70569 -3.62915 0
M  V30 1499 H 150.906 -3.01534 -3.0459 0
M  V30 1500 H 155.09 -3.99133 -2.94969 0
M  V30 1501 H 150.346 -5.40194 -2.86358 0
M  V30 1502 H 154.52 -6.38561 -2.77872 0
M  V30 1503 H 152.147 -7.09457 -2.73084 0
M  V30 1504 N 153.722 1.14298 -1.08507 0
M  V30 1505 C 154.632 2.23027 -0.727753 0
M  V30 1506 C 155.648 1.71952 0.26619 0
M  V30 1507 O 156.824 2.011 0.109882 0
M  V30 1508 C 153.889 3.46403 -0.143541 0
M  V30 1509 C 152.95 4.12413 -1.19223 0
M  V30 1510 C 152.183 5.29899 -0.635798 0
M  V30 1511 O 152.406 5.67796 0.544393 0
M  V30 1512 O 151.34 5.85717 -1.38634 0
M  V30 1513 H 155.166 2.55945 -1.63481 0
M  V30 1514 H 152.751 1.22248 -0.858817 0
M  V30 1515 H 154.633 4.21018 0.179404 0
M  V30 1516 H 153.308 3.15206 0.736659 0
M  V30 1517 H 152.215 3.39667 -1.56772 0
M  V30 1518 H 153.548 4.47718 -2.04474 0
M  V30 1519 N 155.201 0.870884 1.31352 0
M  V30 1520 C 156.111 0.330783 2.32256 0
M  V30 1521 C 157.127 -0.559767 1.6475 0
M  V30 1522 O 158.303 -0.456263 1.96164 0
M  V30 1523 C 155.368 -0.458137 3.4366 0
M  V30 1524 C 154.429 0.460482 4.26823 0
M  V30 1525 C 153.662 -0.290881 5.32907 0
M  V30 1526 O 153.885 -1.51885 5.49806 0
M  V30 1527 O 152.819 0.351732 6.00871 0
M  V30 1528 H 156.645 1.16718 2.80376 0
M  V30 1529 H 154.23 0.634285 1.35267 0
M  V30 1530 H 156.112 -0.905343 4.1156 0
M  V30 1531 H 154.787 -1.27106 2.97701 0
M  V30 1532 H 153.694 0.956207 3.61673 0
M  V30 1533 H 155.027 1.23903 4.7635 0
M  V30 1534 N 156.679 -1.44442 0.630414 0
M  V30 1535 C 157.626 -2.30678 -0.0749355 0
M  V30 1536 C 158.596 -1.4344 -0.837502 0
M  V30 1537 O 159.781 -1.72343 -0.818684 0
M  V30 1538 C 156.921 -3.28706 -1.05103 0
M  V30 1539 C 156.034 -4.31046 -0.286954 0
M  V30 1540 C 155.169 -5.16167 -1.2548 0
M  V30 1541 C 154.208 -6.10216 -0.479843 0
M  V30 1542 N 153.345 -6.88039 -1.39811 0
M  V30 1543 H 158.185 -2.90454 0.666386 0
M  V30 1544 H 155.722 -1.43107 0.340404 0
M  V30 1545 H 157.68 -3.84027 -1.63031 0
M  V30 1546 H 156.31 -2.70632 -1.75949 0
M  V30 1547 H 155.362 -3.78203 0.408243 0
M  V30 1548 H 156.674 -4.97794 0.316657 0
M  V30 1549 H 155.828 -5.76002 -1.90544 0
M  V30 1550 H 154.567 -4.49491 -1.89233 0
M  V30 1551 H 153.572 -5.49491 0.184295 0
M  V30 1552 H 154.797 -6.78928 0.152965 0
M  V30 1553 H 152.743 -6.24032 -2.02287 0
M  V30 1554 H 152.66 -7.51223 -0.848508 0
M  V30 1555 H 153.928 -7.52397 -2.03762 0
M  V30 1556 N 158.157 -0.370918 -1.53173 0
M  V30 1557 C 159.067 0.480823 -2.2962 0
M  V30 1558 C 160.083 1.08789 -1.35798 0
M  V30 1559 O 161.259 1.09768 -1.68858 0
M  V30 1560 C 158.324 1.60227 -3.07454 0
M  V30 1561 C 157.385 1.0222 -4.16953 0
M  V30 1562 C 156.618 2.0902 -4.91066 0
M  V30 1563 O 156.841 3.30222 -4.65091 0
M  V30 1564 O 155.775 1.71778 -5.76867 0
M  V30 1565 H 159.601 -0.141421 -3.03371 0
M  V30 1566 H 157.186 -0.135146 -1.48787 0
M  V30 1567 H 159.068 2.25417 -3.56041 0
M  V30 1568 H 157.743 2.20982 -2.36535 0
M  V30 1569 H 156.65 0.334064 -3.72605 0
M  V30 1570 H 157.983 0.459131 -4.90054 0
M  V30 1571 N 159.635 1.57281 -0.100228 0
M  V30 1572 C 160.883 1.94153 0.561157 0
M  V30 1573 C 161.204 0.983157 1.68401 0
M  V30 1574 O 160.474 0.0361132 1.95867 0
M  V30 1575 H 159.054 0.716791 0.210283 0
M  V30 1576 H 161.716 1.94202 -0.164765 0
M  V30 1577 H 160.812 2.96709 0.968008 0
M  V30 1578 N 161.113 -0.173488 1.56642 0
M  V30 1579 C 162.06 -1.21482 1.96242 0
M  V30 1580 C 163.03 -1.44104 0.826027 0
M  V30 1581 O 164.215 -1.5688 1.08597 0
M  V30 1582 C 161.355 -2.54964 2.32567 0
M  V30 1583 C 160.468 -2.39739 3.59373 0
M  V30 1584 C 159.603 -3.66072 3.84921 0
M  V30 1585 C 158.642 -3.45771 5.05083 0
M  V30 1586 N 157.779 -4.64169 5.26775 0
M  V30 1587 H 162.619 -0.870123 2.85014 0
M  V30 1588 H 160.156 -0.418245 1.41029 0
M  V30 1589 H 162.114 -3.32758 2.5165 0
M  V30 1590 H 160.744 -2.87433 1.46908 0
M  V30 1591 H 159.796 -1.53131 3.48217 0
M  V30 1592 H 161.108 -2.20683 4.47326 0
M  V30 1593 H 160.262 -4.52303 4.0436 0
M  V30 1594 H 159.001 -3.88105 2.9534 0
M  V30 1595 H 158.006 -2.57927 4.85545 0
M  V30 1596 H 159.231 -3.25163 5.96193 0
M  V30 1597 H 157.177 -4.86425 4.40144 0
M  V30 1598 H 157.094 -4.48019 6.08946 0
M  V30 1599 H 158.362 -5.51689 5.5069 0
M  V30 1600 N 162.591 -1.51276 -0.441967 0
M  V30 1601 C 163.554 -1.7167 -1.51862 0
M  V30 1602 C 164.554 -0.586793 -1.49711 0
M  V30 1603 O 165.744 -0.854276 -1.51815 0
M  V30 1604 C 162.876 -1.76889 -2.91416 0
M  V30 1605 H 164.069 -2.67754 -1.35084 0
M  V30 1606 H 161.622 -1.41196 -0.670333 0
M  V30 1607 H 162.357 -0.826026 -3.13604 0
M  V30 1608 H 162.142 -2.59001 -2.94382 0
M  V30 1609 H 163.632 -1.94522 -3.69528 0
M  V30 1610 N 164.069 0.697108 -1.41344 0
M  V30 1611 C 165.315 1.4593 -1.40827 0
M  V30 1612 C 165.648 1.94193 -0.0167098 0
M  V30 1613 O 164.923 1.69425 0.955263 0
M  V30 1614 C 165.206 2.67229 -2.41373 0
M  V30 1615 C 165.059 2.24741 -3.8963 0
M  V30 1616 C 166.378 3.69423 -2.39196 0
M  V30 1617 H 163.497 0.529303 -0.512842 0
M  V30 1618 H 166.139 0.794112 -1.72609 0
M  V30 1619 H 164.289 3.23982 -2.14401 0
M  V30 1620 H 165.961 1.73327 -4.27499 0
M  V30 1621 H 164.204 1.56542 -4.0457 0
M  V30 1622 H 164.875 3.1177 -4.55525 0
M  V30 1623 H 167.351 3.2234 -2.63128 0
M  V30 1624 H 166.227 4.51907 -3.11563 0
M  V30 1625 H 166.488 4.19012 -1.41001 0
M  V30 1626 N 165.547 1.27147 0.931209 0
M  V30 1627 C 166.477 1.12081 2.04842 0
M  V30 1628 C 167.458 0.0232364 1.70084 0
M  V30 1629 O 168.643 0.197085 1.93197 0
M  V30 1630 C 165.773 0.76354 3.38803 0
M  V30 1631 C 164.727 1.81396 3.87659 0
M  V30 1632 C 164.053 1.31075 5.18385 0
M  V30 1633 C 165.353 3.21739 4.11438 0
M  V30 1634 H 167.047 2.05537 2.17703 0
M  V30 1635 H 164.593 0.989603 1.04608 0
M  V30 1636 H 166.546 0.644982 4.16435 0
M  V30 1637 H 165.27 -0.206727 3.25945 0
M  V30 1638 H 163.929 1.92136 3.12217 0
M  V30 1639 H 163.577 0.330037 5.01916 0
M  V30 1640 H 163.277 2.013 5.52044 0
M  V30 1641 H 164.801 1.20506 5.98591 0
M  V30 1642 H 166.215 3.14019 4.79651 0
M  V30 1643 H 164.612 3.89644 4.56397 0
M  V30 1644 H 165.682 3.67054 3.16859 0
M  V30 1645 N 167.025 -1.13721 1.09112 0
M  V30 1646 C 167.973 -2.21103 0.722219 0
M  V30 1647 C 168.967 -1.67147 -0.275374 0
M  V30 1648 O 170.173 -1.79477 -0.137176 0
M  V30 1649 H 166.548 -0.720445 0.215553 0
M  V30 1650 H 168.519 -2.49483 1.63709 0
M  V30 1651 C 167.268 -3.47352 0.15543 0
M  V30 1652 H 166.591 -3.89206 0.914246 0
M  V30 1653 H 168.031 -4.2395 -0.0647967 0
M  V30 1654 C 166.49 -3.1814 -1.10852 0
M  V30 1655 O 167.02 -3.36604 -2.19227 0
M  V30 1656 N 165.226 -2.72045 -1.02176 0
M  V30 1657 H 164.773 -2.57221 -0.139764 0
M  V30 1658 H 164.731 -2.52875 -1.8682 0
M  V30 1659 N 168.503 -0.877838 -1.30888 0
M  V30 1660 C 169.433 -0.35534 -2.3078 0
M  V30 1661 C 170.414 0.557994 -1.60687 0
M  V30 1662 O 171.599 0.473355 -1.88343 0
M  V30 1663 C 168.729 0.437221 -3.44537 0
M  V30 1664 C 167.683 -0.383715 -4.26276 0
M  V30 1665 C 167.009 0.535014 -5.32017 0
M  V30 1666 C 168.309 -1.62201 -4.96476 0
M  V30 1667 H 170.003 -1.19007 -2.74732 0
M  V30 1668 H 167.549 -0.573698 -1.32078 0
M  V30 1669 H 169.502 0.813334 -4.13477 0
M  V30 1670 H 168.226 1.30553 -2.99372 0
M  V30 1671 H 166.885 -0.741874 -3.59015 0
M  V30 1672 H 166.533 1.40083 -4.831 0
M  V30 1673 H 166.233 -0.0104211 -5.87599 0
M  V30 1674 H 167.757 0.907799 -6.03814 0
M  V30 1675 H 169.171 -1.31689 -5.5797 0
M  V30 1676 H 167.568 -2.10711 -5.61891 0
M  V30 1677 H 168.638 -2.37044 -4.23011 0
M  V30 1678 N 169.982 1.44106 -0.638065 0
M  V30 1679 C 170.912 2.33448 0.0494287 0
M  V30 1680 C 171.893 1.48606 0.827672 0
M  V30 1681 O 173.078 1.77308 0.792173 0
M  V30 1682 C 170.208 3.31771 1.02691 0
M  V30 1683 C 169.162 4.26485 0.359823 0
M  V30 1684 C 168.488 5.14729 1.44769 0
M  V30 1685 C 169.788 5.17056 -0.738296 0
M  V30 1686 H 171.482 2.91183 -0.696636 0
M  V30 1687 H 169.028 1.40014 -0.336456 0
M  V30 1688 H 170.981 3.93161 1.51666 0
M  V30 1689 H 169.705 2.7226 1.80395 0
M  V30 1690 H 168.364 3.66437 -0.10934 0
M  V30 1691 H 168.012 4.51566 2.21578 0
M  V30 1692 H 167.712 5.78913 1.00668 0
M  V30 1693 H 169.236 5.78991 1.93911 0
M  V30 1694 H 170.65 5.72342 -0.331354 0
M  V30 1695 H 169.047 5.89879 -1.10286 0
M  V30 1696 H 170.117 4.57652 -1.60258 0
M  V30 1697 N 171.46 0.379036 1.52974 0
M  V30 1698 C 172.707 -0.206421 2.01445 0
M  V30 1699 C 173.035 -1.47668 1.26587 0
M  V30 1700 O 172.29 -1.92514 0.351675 0
M  V30 1701 C 172.589 -0.53096 3.53434 0
M  V30 1702 C 172.255 0.646546 4.46241 0
M  V30 1703 C 170.917 0.969604 4.7133 0
M  V30 1704 C 173.269 1.43479 5.01062 0
M  V30 1705 C 170.597 2.08263 5.48492 0
M  V30 1706 C 172.949 2.53834 5.7944 0
M  V30 1707 C 171.613 2.86659 6.02812 0
M  V30 1708 H 170.883 -0.0755349 0.73714 0
M  V30 1709 H 173.53 0.514271 1.84465 0
M  V30 1710 H 171.835 -1.33285 3.68432 0
M  V30 1711 H 173.532 -0.996417 3.88423 0
M  V30 1712 H 170.122 0.384734 4.2687 0
M  V30 1713 H 174.306 1.19844 4.81613 0
M  V30 1714 H 169.562 2.34078 5.64816 0
M  V30 1715 H 173.736 3.15319 6.20924 0
M  V30 1716 H 171.363 3.73026 6.62387 0
M  V30 1717 N 172.938 -1.57226 0.108567 0
M  V30 1718 C 174.163 -1.99604 -0.563303 0
M  V30 1719 C 174.588 -0.987563 -1.6009 0
M  V30 1720 O 173.946 0.0421687 -1.81251 0
M  V30 1721 C 173.994 -3.40902 -1.17552 0
M  V30 1722 O 173.098 -3.42896 -2.2912 0
M  V30 1723 H 172.439 -0.648704 -0.1417 0
M  V30 1724 H 174.969 -2.03679 0.193961 0
M  V30 1725 H 174.979 -3.78886 -1.51357 0
M  V30 1726 H 173.654 -4.1382 -0.415445 0
M  V30 1727 H 172.231 -3.1672 -1.96832 0
M  V30 1728 N 174.416 0.165178 -1.56732 0
M  V30 1729 C 175.827 0.727046 -1.71962 0
M  V30 1730 C 176.178 1.82508 -0.720078 0
M  V30 1731 O 175.303 2.16082 0.117242 0
M  V30 1732 C 175.898 1.32559 -3.11791 0
M  V30 1733 C 174.457 1.83422 -3.28684 0
M  V30 1734 C 173.604 0.715567 -2.67908 0
M  V30 1735 H 176.555 -0.0602896 -1.58585 0
M  V30 1736 H 176.576 2.19533 -3.10782 0
M  V30 1737 H 176.088 0.526195 -3.84516 0
M  V30 1738 H 174.189 2.65986 -2.60926 0
M  V30 1739 H 174.302 1.97543 -4.36478 0
M  V30 1740 H 172.666 1.13758 -2.27884 0
M  V30 1741 H 173.449 -0.0720836 -3.43224 0
M  V30 1742 N 175.894 1.51508 0.433938 0
M  V30 1743 C 177.31 1.39759 0.770682 0
M  V30 1744 C 177.51 0.482594 1.95636 0
M  V30 1745 O 176.566 -0.0609691 2.52426 0
M  V30 1746 C 177.879 2.81851 1.04787 0
M  V30 1747 C 179.427 2.91025 1.1521 0
M  V30 1748 C 179.902 4.34032 1.46219 0
M  V30 1749 N 181.393 4.37154 1.53136 0
M  V30 1750 C 182.128 5.4484 1.78709 0
M  V30 1751 N 181.624 6.62682 2.02051 0
M  V30 1752 N 183.417 5.32324 1.80519 0
M  V30 1753 H 175.568 2.09548 -0.346892 0
M  V30 1754 H 177.831 0.943446 -0.0928074 0
M  V30 1755 H 177.537 3.50815 0.249304 0
M  V30 1756 H 177.411 3.21386 1.97461 0
M  V30 1757 H 179.798 2.22257 1.94128 0
M  V30 1758 H 179.879 2.54983 0.204281 0
M  V30 1759 H 179.523 5.03351 0.678274 0
M  V30 1760 H 179.453 4.6759 2.42212 0
M  V30 1761 H 181.944 3.52197 1.36987 0
M  V30 1762 H 182.257 7.40543 2.20943 0
M  V30 1763 H 180.602 6.65791 1.99366 0
M  V30 1764 H 183.793 4.39246 1.61805 0
M  V30 1765 H 183.966 6.16328 2.00111 0
M  V30 1766 N 177.372 -0.689602 1.41712 0
M  V30 1767 C 178.335 -1.78521 1.43746 0
M  V30 1768 C 179.335 -1.57436 0.327191 0
M  V30 1769 O 180.525 -1.64 0.587348 0
M  V30 1770 C 177.657 -3.16971 1.25467 0
M  V30 1771 H 178.85 -1.78108 2.41283 0
M  V30 1772 H 176.403 -0.89781 1.27942 0
M  V30 1773 H 177.138 -3.23019 0.287948 0
M  V30 1774 H 176.923 -3.33678 2.05917 0
M  V30 1775 H 178.413 -3.96935 1.2974 0
M  V30 1776 N 178.85 -1.27639 -0.924453 0
M  V30 1777 C 180.078 -1.16989 -1.70649 0
M  V30 1778 C 180.493 0.272869 -1.86818 0
M  V30 1779 O 179.85 1.18549 -1.38753 0
M  V30 1780 C 179.901 -1.85229 -3.10439 0
M  V30 1781 O 179.622 -3.23868 -2.95028 0
M  V30 1782 C 181.123 -1.80746 -4.04779 0
M  V30 1783 H 178.343 -0.406595 -0.53378 0
M  V30 1784 H 180.887 -1.68569 -1.15778 0
M  V30 1785 H 179.042 -1.37545 -3.6216 0
M  V30 1786 H 179.456 -3.57889 -3.83426 0
M  V30 1787 H 180.93 -2.33101 -5.00368 0
M  V30 1788 H 181.407 -0.777499 -4.32263 0
M  V30 1789 H 182.013 -2.28059 -3.58984 0
M  V30 1790 N 180.328 1.1314 -1.09713 0
M  V30 1791 C 181.275 2.18642 -0.739196 0
M  V30 1792 C 182.245 1.63706 0.280978 0
M  V30 1793 O 183.43 1.90111 0.161946 0
M  V30 1794 C 180.57 3.44685 -0.169102 0
M  V30 1795 C 179.683 4.13711 -1.24367 0
M  V30 1796 C 178.818 5.27379 -0.636019 0
M  V30 1797 C 177.857 5.88259 -1.69169 0
M  V30 1798 N 176.994 6.93352 -1.10485 0
M  V30 1799 H 181.834 2.48607 -1.64312 0
M  V30 1800 H 179.371 1.22066 -0.820875 0
M  V30 1801 H 181.329 4.16815 0.179256 0
M  V30 1802 H 179.959 3.15161 0.698079 0
M  V30 1803 H 179.011 3.39835 -1.70927 0
M  V30 1804 H 180.323 4.55037 -2.04311 0
M  V30 1805 H 179.477 6.06238 -0.236677 0
M  V30 1806 H 178.216 4.8731 0.194928 0
M  V30 1807 H 177.221 5.08092 -2.10055 0
M  V30 1808 H 178.446 6.30399 -2.52536 0
M  V30 1809 H 176.392 6.55335 -0.295234 0
M  V30 1810 H 176.309 7.33236 -1.84121 0
M  V30 1811 H 177.577 7.76057 -0.73181 0
M  V30 1812 N 181.806 0.884767 1.30421 0
M  V30 1813 C 183.217 0.553656 1.78302 0
M  V30 1814 C 183.568 -0.930153 1.7275 0
M  V30 1815 O 182.693 -1.72681 1.30423 0
M  V30 1816 C 183.288 0.998234 3.2376 0
M  V30 1817 C 181.847 0.71854 3.69478 0
M  V30 1818 C 180.994 1.18132 2.50879 0
M  V30 1819 H 183.945 1.06901 1.17294 0
M  V30 1820 H 183.966 0.327118 3.79091 0
M  V30 1821 H 183.478 2.0782 3.27769 0
M  V30 1822 H 181.579 -0.349444 3.70958 0
M  V30 1823 H 181.692 1.30595 4.60958 0
M  V30 1824 H 180.056 0.600669 2.47516 0
M  V30 1825 H 180.839 2.26902 2.57624 0
M  V30 1826 N 183.284 -1.43765 0.645699 0
M  V30 1827 C 184.509 -2.06767 0.161883 0
M  V30 1828 C 184.934 -1.48034 -1.16049 0
M  V30 1829 O 184.292 -0.587369 -1.71522 0
M  V30 1830 C 184.34 -3.60519 0.0762003 0
M  V30 1831 O 183.444 -4.00982 -0.963721 0
M  V30 1832 H 182.785 -0.657675 0.091429 0
M  V30 1833 H 185.315 -1.84397 0.886499 0
M  V30 1834 H 185.325 -4.07853 -0.109604 0
M  V30 1835 H 184 -4.02646 1.04157 0
M  V30 1836 H 182.577 -3.65253 -0.751312 0
M  V30 1837 N 184.763 -0.387143 -1.52771 0
M  V30 1838 C 185.726 0.436939 -2.24997 0
M  V30 1839 C 186.726 0.991991 -1.26555 0
M  V30 1840 O 187.916 0.874335 -1.50669 0
M  V30 1841 C 185.048 1.61281 -3.00335 0
M  V30 1842 H 186.241 -0.195365 -2.99263 0
M  V30 1843 H 183.794 -0.139218 -1.55679 0
M  V30 1844 H 184.529 2.2826 -2.30364 0
M  V30 1845 H 184.314 1.22154 -3.72587 0
M  V30 1846 H 185.804 2.19629 -3.5518 0
M  V30 1847 N 186.241 1.57166 -0.116904 0
M  V30 1848 C 187.171 2.18222 0.830759 0
M  V30 1849 C 188.152 1.12167 1.27877 0
M  V30 1850 O 189.337 1.40394 1.34176 0
M  V30 1851 C 186.467 2.77996 2.08172 0
M  V30 1852 C 185.421 3.89614 1.77157 0
M  V30 1853 C 184.747 4.36187 3.09265 0
M  V30 1854 C 186.047 5.1181 1.04151 0
M  V30 1855 H 187.741 2.97664 0.321992 0
M  V30 1856 H 185.287 1.4318 0.153434 0
M  V30 1857 H 187.24 3.19366 2.74924 0
M  V30 1858 H 185.964 1.9584 2.6137 0
M  V30 1859 H 184.623 3.48816 1.12796 0
M  V30 1860 H 184.271 3.50893 3.60393 0
M  V30 1861 H 183.971 5.11455 2.89288 0
M  V30 1862 H 185.495 4.80207 3.77139 0
M  V30 1863 H 186.909 5.50214 1.61052 0
M  V30 1864 H 185.306 5.92648 0.942762 0
M  V30 1865 H 186.376 4.84892 0.0279022 0
M  V30 1866 N 187.719 -0.156864 1.56817 0
M  V30 1867 C 188.944 -0.890331 1.87318 0
M  V30 1868 C 189.369 -1.74394 0.704855 0
M  V30 1869 O 188.727 -1.77972 -0.345786 0
M  V30 1870 C 188.775 -1.73102 3.16336 0
M  V30 1871 O 187.879 -2.83422 2.99576 0
M  V30 1872 H 187.22 -0.24857 0.615718 0
M  V30 1873 H 189.75 -0.150649 2.04045 0
M  V30 1874 H 189.76 -2.12803 3.48107 0
M  V30 1875 H 188.435 -1.10412 4.00976 0
M  V30 1876 H 187.012 -2.47199 2.7919 0
M  V30 1877 N 189.197 -1.51736 -0.425897 0
M  V30 1878 C 190.613 -1.40166 -0.76326 0
M  V30 1879 C 190.813 -0.492962 -1.95377 0
M  V30 1880 O 189.869 0.0475815 -2.52455 0
M  V30 1881 C 191.182 -2.82403 -1.03291 0
M  V30 1882 C 192.73 -2.91632 -1.13665 0
M  V30 1883 C 193.205 -4.34801 -1.43916 0
M  V30 1884 N 194.696 -4.3796 -1.50816 0
M  V30 1885 C 195.431 -5.4578 -1.75817 0
M  V30 1886 N 194.927 -6.63744 -1.98534 0
M  V30 1887 N 196.72 -5.33274 -1.77694 0
M  V30 1888 H 188.871 -2.09361 0.358 0
M  V30 1889 H 191.134 -0.942941 0.0978094 0
M  V30 1890 H 190.84 -3.50943 -0.230696 0
M  V30 1891 H 190.714 -3.22428 -1.95754 0
M  V30 1892 H 193.101 -2.23284 -1.92947 0
M  V30 1893 H 193.182 -2.55088 -0.190756 0
M  V30 1894 H 192.826 -5.03703 -0.65157 0
M  V30 1895 H 192.756 -4.68868 -2.39729 0
M  V30 1896 H 195.247 -3.52919 -1.35118 0
M  V30 1897 H 195.56 -7.41704 -2.17013 0
M  V30 1898 H 193.905 -6.66839 -1.95832 0
M  V30 1899 H 197.096 -4.40098 -1.59473 0
M  V30 1900 H 197.269 -6.1738 -1.9684 0
M  V30 1901 N 190.675 0.682077 -1.42076 0
M  V30 1902 C 191.638 1.77756 -1.44691 0
M  V30 1903 C 192.638 1.5726 -0.335535 0
M  V30 1904 O 193.828 1.63686 -0.596037 0
M  V30 1905 C 190.96 3.16301 -1.27146 0
M  V30 1906 H 192.153 1.76826 -2.42224 0
M  V30 1907 H 189.706 0.891012 -1.28416 0
M  V30 1908 H 190.441 3.22862 -0.305075 0
M  V30 1909 H 190.226 3.32581 -2.07683 0
M  V30 1910 H 191.716 3.96241 -1.31843 0
M  V30 1911 N 192.153 1.28127 0.917671 0
M  V30 1912 C 193.399 1.15223 1.66888 0
M  V30 1913 C 193.732 -0.299293 1.9188 0
M  V30 1914 O 193.007 -1.21805 1.51637 0
M  V30 1915 C 193.29 1.94706 3.02922 0
M  V30 1916 C 193.143 3.47898 2.85109 0
M  V30 1917 C 194.462 1.75939 4.03402 0
M  V30 1918 H 191.581 0.419946 0.605652 0
M  V30 1919 H 194.223 1.57398 1.06423 0
M  V30 1920 H 192.373 1.58864 3.54534 0
M  V30 1921 H 194.045 3.93624 2.40537 0
M  V30 1922 H 192.288 3.7373 2.20246 0
M  V30 1923 H 192.959 3.98765 3.81694 0
M  V30 1924 H 195.435 2.07209 3.60837 0
M  V30 1925 H 194.311 2.33931 4.96556 0
M  V30 1926 H 194.572 0.709877 4.36364 0
M  V30 1927 N 193.631 -1.12557 1.10312 0
M  V30 1928 C 194.578 -2.18247 0.750781 0
M  V30 1929 C 195.548 -1.63853 -0.272293 0
M  V30 1930 O 196.733 -1.90195 -0.151862 0
M  V30 1931 C 193.873 -3.44591 0.187379 0
M  V30 1932 C 192.986 -4.13046 1.2656 0
M  V30 1933 C 192.121 -5.27034 0.663978 0
M  V30 1934 C 191.16 -5.87353 1.72287 0
M  V30 1935 N 190.297 -6.92757 1.1416 0
M  V30 1936 H 195.137 -2.47732 1.65628 0
M  V30 1937 H 192.674 -1.21629 0.827337 0
M  V30 1938 H 194.632 -4.16904 -0.157148 0
M  V30 1939 H 193.262 -3.15527 -0.681355 0
M  V30 1940 H 192.314 -3.38924 1.72727 0
M  V30 1941 H 193.626 -4.53947 2.06721 0
M  V30 1942 H 192.78 -6.06104 0.268824 0
M  V30 1943 H 191.519 -4.87407 -0.169082 0
M  V30 1944 H 190.524 -5.06971 2.12746 0
M  V30 1945 H 191.749 -6.29051 2.55875 0
M  V30 1946 H 189.695 -6.5517 0.329984 0
M  V30 1947 H 189.612 -7.3225 1.88007 0
M  V30 1948 H 190.88 -7.75658 0.772956 0
M  V30 1949 N 195.109 -0.891671 -1.2995 0
M  V30 1950 C 196.355 -0.514261 -1.96171 0
M  V30 1951 C 196.688 0.935506 -1.70182 0
M  V30 1952 O 195.963 1.66204 -1.01028 0
M  V30 1953 C 196.246 -0.797719 -3.51153 0
M  V30 1954 C 196.099 -2.2986 -3.86632 0
M  V30 1955 C 197.418 -0.278749 -4.39216 0
M  V30 1956 H 194.537 -0.188314 -0.712535 0
M  V30 1957 H 197.179 -1.11689 -1.53706 0
M  V30 1958 H 195.329 -0.284826 -3.87455 0
M  V30 1959 H 197.001 -2.88042 -3.60319 0
M  V30 1960 H 195.244 -2.76257 -3.34462 0
M  V30 1961 H 195.915 -2.44753 -4.94773 0
M  V30 1962 H 198.391 -0.717825 -4.09862 0
M  V30 1963 H 197.267 -0.506353 -5.46559 0
M  V30 1964 H 197.528 0.820266 -4.34424 0
M  V30 1965 N 196.587 1.43421 -0.653314 0
M  V30 1966 C 197.834 2.01812 -0.166745 0
M  V30 1967 C 198.162 1.51535 1.21931 0
M  V30 1968 O 197.417 0.698975 1.82792 0
M  V30 1969 C 197.716 3.57176 -0.126623 0
M  V30 1970 C 197.382 4.26798 -1.45444 0
M  V30 1971 C 196.044 4.45534 -1.81805 0
M  V30 1972 C 198.396 4.66225 -2.32989 0
M  V30 1973 C 195.724 5.00961 -3.05377 0
M  V30 1974 C 198.076 5.23021 -3.55853 0
M  V30 1975 C 196.74 5.39973 -3.9241 0
M  V30 1976 H 196.01 0.738484 -0.0610162 0
M  V30 1977 H 198.657 1.71896 -0.84404 0
M  V30 1978 H 196.962 3.86634 0.634123 0
M  V30 1979 H 198.659 4.00112 0.266723 0
M  V30 1980 H 195.249 4.12561 -1.16153 0
M  V30 1981 H 199.433 4.51443 -2.06187 0
M  V30 1982 H 194.689 5.12271 -3.3375 0
M  V30 1983 H 198.863 5.52518 -4.23907 0
M  V30 1984 H 196.49 5.82687 -4.88242 0
M  V30 1985 N 198.065 0.39524 1.52563 0
M  V30 1986 C 198.975 -0.444232 2.30356 0
M  V30 1987 C 199.991 -1.06615 1.37511 0
M  V30 1988 O 201.167 -1.07067 1.70583 0
M  V30 1989 C 198.232 -1.55315 3.09964 0
M  V30 1990 C 197.293 -0.955734 4.18526 0
M  V30 1991 C 196.526 -2.01181 4.9433 0
M  V30 1992 O 196.749 -3.22781 4.70285 0
M  V30 1993 O 195.683 -1.62579 5.79527 0
M  V30 1994 H 199.509 0.189667 3.03107 0
M  V30 1995 H 197.094 0.1588 1.48554 0
M  V30 1996 H 198.976 -2.19724 3.59582 0
M  V30 1997 H 197.651 -2.17191 2.4002 0
M  V30 1998 H 196.558 -0.274743 3.7309 0
M  V30 1999 H 197.891 -0.381109 4.90722 0
M  V30 2000 N 199.544 -1.57102 0.125237 0
M  V30 2001 C 200.772 -1.99761 -0.538797 0
M  V30 2002 C 201.187 -1.00503 -1.59827 0
M  V30 2003 O 200.544 0.00119474 -1.825 0
M  V30 2004 C 200.595 -3.42408 -1.15927 0
M  V30 2005 O 200.316 -4.37869 -0.142143 0
M  V30 2006 C 201.817 -4.00232 -1.90602 0
M  V30 2007 H 199.037 -0.655772 -0.14214 0
M  V30 2008 H 201.581 -2.03383 0.213413 0
M  V30 2009 H 199.736 -3.39706 -1.86223 0
M  V30 2010 H 200.15 -5.21128 -0.593775 0
M  V30 2011 H 201.624 -5.02105 -2.29335 0
M  V30 2012 H 202.101 -3.39721 -2.78363 0
M  V30 2013 H 202.707 -4.06499 -1.25055 0
M  V30 2014 N 201.022 0.148545 -1.56898 0
M  V30 2015 C 202.269 0.861418 -1.83264 0
M  V30 2016 C 202.597 1.81239 -0.705883 0
M  V30 2017 O 201.852 1.93305 0.305212 0
M  V30 2018 C 202.151 1.67064 -3.1595 0
M  V30 2019 C 201.817 0.866591 -4.42494 0
M  V30 2020 C 200.479 0.644762 -4.76861 0
M  V30 2021 C 202.831 0.30418 -5.20312 0
M  V30 2022 C 200.159 -0.15021 -5.86508 0
M  V30 2023 C 202.511 -0.477824 -6.30793 0
M  V30 2024 C 201.175 -0.710244 -6.63711 0
M  V30 2025 H 200.445 0.315215 -0.670612 0
M  V30 2026 H 203.092 0.125142 -1.91091 0
M  V30 2027 H 201.397 2.47698 -3.03567 0
M  V30 2028 H 203.094 2.22566 -3.33565 0
M  V30 2029 H 199.684 1.04955 -4.15551 0
M  V30 2030 H 203.868 0.462844 -4.94137 0
M  V30 2031 H 199.124 -0.339796 -6.10455 0
M  V30 2032 H 203.298 -0.92076 -6.90286 0
M  V30 2033 H 200.925 -1.3281 -7.48509 0
M  V30 2034 N 202.5 1.5196 0.417844 0
M  V30 2035 C 203.41 1.77554 1.53336 0
M  V30 2036 C 204.426 0.660655 1.6097 0
M  V30 2037 O 205.602 0.945099 1.77848 0
M  V30 2038 C 202.667 1.91291 2.89152 0
M  V30 2039 C 201.728 3.15183 2.91475 0
M  V30 2040 C 200.961 3.28256 4.20813 0
M  V30 2041 O 201.184 2.46798 5.14244 0
M  V30 2042 O 200.118 4.21356 4.29817 0
M  V30 2043 H 203.944 2.7222 1.34647 0
M  V30 2044 H 201.529 1.36698 0.602828 0
M  V30 2045 H 203.411 2.02199 3.69721 0
M  V30 2046 H 202.086 0.998129 3.07927 0
M  V30 2047 H 200.993 3.09739 2.09791 0
M  V30 2048 H 202.326 4.06414 2.77648 0
M  V30 2049 N 203.978 -0.674533 1.42435 0
M  V30 2050 C 204.941 -1.76986 1.45632 0
M  V30 2051 C 205.941 -1.5708 0.343871 0
M  V30 2052 O 207.131 -1.63367 0.604709 0
M  V30 2053 C 204.263 -3.15623 1.28822 0
M  V30 2054 H 205.456 -1.75539 2.43158 0
M  V30 2055 H 203.009 -0.884189 1.28887 0
M  V30 2056 H 203.744 -3.22696 0.322193 0
M  V30 2057 H 203.529 -3.31475 2.09444 0
M  V30 2058 H 205.019 -3.95537 1.33942 0
M  V30 2059 N 205.456 -1.28612 -0.910864 0
M  V30 2060 C 206.403 -1.12786 -2.01365 0
M  V30 2061 C 207.373 -0.024201 -1.66082 0
M  V30 2062 O 208.558 -0.189667 -1.89855 0
M  V30 2063 C 205.698 -0.798743 -3.35729 0
M  V30 2064 C 204.811 -1.98173 -3.83864 0
M  V30 2065 C 203.946 -1.59298 -5.06752 0
M  V30 2066 C 202.985 -2.74245 -5.47226 0
M  V30 2067 N 202.122 -2.35842 -6.61304 0
M  V30 2068 H 206.962 -2.07142 -2.14234 0
M  V30 2069 H 204.499 -1.03093 -1.0493 0
M  V30 2070 H 206.457 -0.588662 -4.13026 0
M  V30 2071 H 205.087 0.10789 -3.2262 0
M  V30 2072 H 204.139 -2.30386 -3.02699 0
M  V30 2073 H 205.451 -2.84343 -4.09818 0
M  V30 2074 H 204.605 -1.34513 -5.916 0
M  V30 2075 H 203.344 -0.702618 -4.82612 0
M  V30 2076 H 202.349 -2.99725 -4.60918 0
M  V30 2077 H 203.574 -3.63928 -5.73353 0
M  V30 2078 H 201.52 -1.49279 -6.38789 0
M  V30 2079 H 201.437 -3.15546 -6.86998 0
M  V30 2080 H 202.705 -2.14348 -7.4945 0
M  V30 2081 N 206.934 1.1197 -1.10907 0
M  V30 2082 C 208.183 1.82947 -0.849302 0
M  V30 2083 C 208.496 1.85275 0.627112 0
M  V30 2084 O 209.702 2.52296 1.00295 0
M  V30 2085 C 208.158 3.28529 -1.46959 0
M  V30 2086 C 207.766 3.34546 -2.97965 0
M  V30 2087 C 209.51 4.04443 -1.28942 0
M  V30 2088 C 207.417 4.74491 -3.53004 0
M  V30 2089 H 206.347 0.685477 -0.314065 0
M  V30 2090 H 208.998 1.2604 -1.33365 0
M  V30 2091 H 207.38 3.85333 -0.912917 0
M  V30 2092 H 208.554 2.87654 -3.59989 0
M  V30 2093 H 206.869 2.72108 -3.15192 0
M  V30 2094 H 209.466 5.07787 -1.67502 0
M  V30 2095 H 209.809 4.15656 -0.231456 0
M  V30 2096 H 210.342 3.5401 -1.81443 0
M  V30 2097 H 207.081 4.68474 -4.58489 0
M  V30 2098 H 206.601 5.21816 -2.9575 0
M  V30 2099 H 208.28 5.4344 -3.51115 0
M  V30 2100 N 208.412 0.89855 1.29475 0
M  V30 2101 C 209.362 0.346767 2.25348 0
M  V30 2102 C 210.346 -0.532509 1.51833 0
M  V30 2103 O 211.538 -0.374714 1.72988 0
M  V30 2104 C 208.667 -0.425681 3.40651 0
M  V30 2105 C 207.753 0.46845 4.21505 0
M  V30 2106 N 208.144 1.57514 4.80648 0
M  V30 2107 C 206.442 0.26603 4.45206 0
M  V30 2108 C 207.143 2.12889 5.41344 0
M  V30 2109 N 206.119 1.42208 5.24669 0
M  V30 2110 H 209.921 1.19219 2.68634 0
M  V30 2111 H 207.435 0.749473 1.44072 0
M  V30 2112 H 209.432 -0.837716 4.08397 0
M  V30 2113 H 208.092 -1.26838 2.98902 0
M  V30 2114 H 209.103 1.95789 4.79465 0
M  V30 2115 H 205.78 -0.538394 4.14014 0
M  V30 2116 H 207.17 3.05901 5.98226 0
M  V30 2117 N 209.89 -1.43072 0.660911 0
M  V30 2118 C 210.84 -2.27948 -0.04847 0
M  V30 2119 C 211.824 -1.40325 -0.787246 0
M  V30 2120 O 213.016 -1.63893 -0.668446 0
M  V30 2121 C 210.145 -3.28143 -1.00881 0
M  V30 2122 C 209.231 -4.23252 -0.268108 0
M  V30 2123 N 209.622 -5.00656 0.719528 0
M  V30 2124 C 207.92 -4.43092 -0.508493 0
M  V30 2125 C 208.621 -5.70019 1.15988 0
M  V30 2126 N 207.597 -5.41364 0.492584 0
M  V30 2127 H 211.399 -2.85213 0.709279 0
M  V30 2128 H 208.913 -1.54869 0.488822 0
M  V30 2129 H 210.91 -3.87736 -1.53188 0
M  V30 2130 H 209.57 -2.7244 -1.76654 0
M  V30 2131 H 210.581 -5.06115 1.09855 0
M  V30 2132 H 207.258 -3.98449 -1.24679 0
M  V30 2133 H 208.648 -6.4214 1.97751 0
M  V30 2134 N 211.368 -0.403325 -1.52352 0
M  V30 2135 C 212.298 0.416205 -2.29761 0
M  V30 2136 C 213.279 1.05123 -1.33728 0
M  V30 2137 O 214.464 1.06134 -1.62632 0
M  V30 2138 C 211.594 1.53624 -3.11475 0
M  V30 2139 C 210.548 1.02653 -4.15507 0
M  V30 2140 C 209.874 2.23971 -4.85532 0
M  V30 2141 C 211.174 0.08463 -5.22231 0
M  V30 2142 H 212.868 -0.229701 -2.98518 0
M  V30 2143 H 210.414 -0.111913 -1.43564 0
M  V30 2144 H 212.367 2.1165 -3.64393 0
M  V30 2145 H 211.091 2.20994 -2.40477 0
M  V30 2146 H 209.75 0.46871 -3.63591 0
M  V30 2147 H 209.398 2.89883 -4.11068 0
M  V30 2148 H 209.098 1.90521 -5.55856 0
M  V30 2149 H 210.622 2.82614 -5.41259 0
M  V30 2150 H 212.036 0.573509 -5.70424 0
M  V30 2151 H 210.433 -0.160783 -5.99885 0
M  V30 2152 H 211.503 -0.86237 -4.7717 0
M  V30 2153 N 212.846 1.57033 -0.133567 0
M  V30 2154 C 213.756 2.19632 0.824564 0
M  V30 2155 C 214.772 1.17666 1.28182 0
M  V30 2156 O 215.948 1.50193 1.3418 0
M  V30 2157 C 213.013 2.79499 2.05137 0
M  V30 2158 C 212.074 3.96548 1.64464 0
M  V30 2159 C 211.307 4.5355 2.81297 0
M  V30 2160 O 211.53 4.09438 3.97136 0
M  V30 2161 O 210.464 5.44018 2.57542 0
M  V30 2162 H 214.29 3.01991 0.321766 0
M  V30 2163 H 211.875 1.49112 0.0927889 0
M  V30 2164 H 213.757 3.17602 2.7696 0
M  V30 2165 H 212.432 2.00162 2.54395 0
M  V30 2166 H 211.339 3.63186 0.897048 0
M  V30 2167 H 212.672 4.77364 1.19934 0
M  V30 2168 N 214.325 -0.140222 1.56975 0
M  V30 2169 C 215.553 -0.866437 1.87884 0
M  V30 2170 C 215.968 -1.74428 0.722517 0
M  V30 2171 O 215.325 -1.79891 -0.30749 0
M  V30 2172 C 215.376 -1.71753 3.18093 0
M  V30 2173 O 215.097 -0.875056 4.29272 0
M  V30 2174 C 216.598 -2.55074 3.62563 0
M  V30 2175 H 213.818 -0.25019 0.622612 0
M  V30 2176 H 216.362 -0.130977 2.0408 0
M  V30 2177 H 214.517 -2.40598 3.03631 0
M  V30 2178 H 214.931 -1.46002 5.03769 0
M  V30 2179 H 216.405 -3.10356 4.5649 0
M  V30 2180 H 216.882 -3.31434 2.88181 0
M  V30 2181 H 217.488 -1.91509 3.79743 0
M  V30 2182 N 215.803 -1.52179 -0.40978 0
M  V30 2183 C 217.219 -1.40968 -0.74835 0
M  V30 2184 C 217.419 -0.513657 -1.94843 0
M  V30 2185 O 216.475 0.0208026 -2.52491 0
M  V30 2186 C 217.788 -2.83483 -1.0029 0
M  V30 2187 C 219.336 -2.92821 -1.10565 0
M  V30 2188 C 219.811 -4.36303 -1.39296 0
M  V30 2189 N 221.302 -4.39535 -1.46162 0
M  V30 2190 C 222.037 -5.47614 -1.70018 0
M  V30 2191 N 221.533 -6.65812 -1.91483 0
M  V30 2192 N 223.326 -5.35129 -1.72027 0
M  V30 2193 H 215.477 -2.0897 0.380186 0
M  V30 2194 H 217.74 -0.94185 0.107805 0
M  V30 2195 H 217.446 -3.51168 -0.193461 0
M  V30 2196 H 217.32 -3.24487 -1.92323 0
M  V30 2197 H 219.707 -2.25318 -1.90568 0
M  V30 2198 H 219.788 -2.55276 -0.16369 0
M  V30 2199 H 219.432 -5.04366 -0.598109 0
M  V30 2200 H 219.362 -4.71385 -2.34743 0
M  V30 2201 H 221.853 -3.54332 -1.31367 0
M  V30 2202 H 222.166 -7.43964 -2.09134 0
M  V30 2203 H 220.511 -6.68879 -1.88749 0
M  V30 2204 H 223.702 -4.41764 -1.54796 0
M  V30 2205 H 223.875 -6.19433 -1.9028 0
M  V30 2206 N 217.281 0.66697 -1.42791 0
M  V30 2207 C 218.692 1.2478 -1.38877 0
M  V30 2208 C 219.043 1.96012 -0.0859426 0
M  V30 2209 O 218.168 2.00463 0.815081 0
M  V30 2210 C 218.763 2.26938 -2.51564 0
M  V30 2211 C 217.322 2.80529 -2.50959 0
M  V30 2212 C 216.469 1.54965 -2.29959 0
M  V30 2213 H 219.42 0.459853 -1.51892 0
M  V30 2214 H 219.441 3.08834 -2.22265 0
M  V30 2215 H 218.953 1.75065 -3.46372 0
M  V30 2216 H 217.054 3.36502 -1.59991 0
M  V30 2217 H 217.167 3.29012 -3.48265 0
M  V30 2218 H 215.531 1.81817 -1.78366 0
M  V30 2219 H 216.314 1.05047 -3.26833 0
M  V30 2220 N 218.759 1.29093 0.90403 0
M  V30 2221 C 219.722 1.1386 1.98919 0
M  V30 2222 C 220.722 0.0753457 1.60623 0
M  V30 2223 O 221.912 0.321931 1.71199 0
M  V30 2224 C 219.044 0.740198 3.32767 0
M  V30 2225 H 220.237 2.10246 2.13861 0
M  V30 2226 H 217.79 1.12218 1.08797 0
M  V30 2227 H 218.525 -0.223997 3.23525 0
M  V30 2228 H 218.31 1.50838 3.61926 0
M  V30 2229 H 219.8 0.656546 4.12407 0
M  V30 2230 N 220.237 -1.11381 1.11499 0
M  V30 2231 C 221.169 -2.17207 0.731704 0
M  V30 2232 C 222.182 -1.61066 -0.236957 0
M  V30 2233 O 223.371 -1.78489 -0.0197591 0
M  V30 2234 C 220.471 -3.38846 0.0607624 0
M  V30 2235 C 219.644 -4.24451 1.0564 0
M  V30 2236 C 218.703 -5.24562 0.4149 0
M  V30 2237 O 217.729 -5.59071 1.069 0
M  V30 2238 N 218.931 -5.74651 -0.821943 0
M  V30 2239 H 221.696 -2.50699 1.64225 0
M  V30 2240 H 219.257 -1.26908 1.00529 0
M  V30 2241 H 221.249 -4.02911 -0.380139 0
M  V30 2242 H 219.819 -3.03411 -0.752376 0
M  V30 2243 H 219.039 -3.56833 1.67524 0
M  V30 2244 H 220.327 -4.78486 1.72998 0
M  V30 2245 H 219.725 -5.48797 -1.37252 0
M  V30 2246 H 218.282 -6.40549 -1.20582 0
M  V30 2247 N 221.715 -0.905404 -1.28997 0
M  V30 2248 C 223.131 -0.60233 -1.47798 0
M  V30 2249 C 223.331 0.854645 -1.82478 0
M  V30 2250 O 222.387 1.63439 -1.92468 0
M  V30 2251 C 223.7 -1.53306 -2.58685 0
M  V30 2252 C 225.248 -1.53887 -2.72558 0
M  V30 2253 C 225.723 -2.45602 -3.86579 0
M  V30 2254 N 227.214 -2.43681 -3.93921 0
M  V30 2255 C 227.949 -3.11347 -4.81509 0
M  V30 2256 N 227.445 -3.88313 -5.73746 0
M  V30 2257 N 229.238 -3.00476 -4.75048 0
M  V30 2258 H 221.389 -1.84765 -1.04764 0
M  V30 2259 H 223.652 -0.792025 -0.520961 0
M  V30 2260 H 223.358 -2.57141 -2.39941 0
M  V30 2261 H 223.232 -1.25787 -3.55609 0
M  V30 2262 H 225.619 -0.507941 -2.90696 0
M  V30 2263 H 225.7 -1.85447 -1.76191 0
M  V30 2264 H 225.344 -3.48792 -3.69197 0
M  V30 2265 H 225.274 -2.11349 -4.82327 0
M  V30 2266 H 227.765 -1.87767 -3.27951 0
M  V30 2267 H 228.078 -4.36985 -6.37389 0
M  V30 2268 H 226.423 -3.92419 -5.73614 0
M  V30 2269 H 229.614 -2.39858 -4.01977 0
M  V30 2270 H 229.787 -3.53485 -5.43095 0
M  V30 2271 N 223.193 1.4272 -0.668489 0
M  V30 2272 C 224.604 1.84793 -0.266151 0
M  V30 2273 C 224.955 1.55959 1.19043 0
M  V30 2274 O 224.08 1.01622 1.91055 0
M  V30 2275 C 224.675 3.35436 -0.476271 0
M  V30 2276 C 223.234 3.76182 -0.128113 0
M  V30 2277 C 222.381 2.66344 -0.771777 0
M  V30 2278 H 225.332 1.32656 -0.871098 0
M  V30 2279 H 225.353 3.79515 0.273561 0
M  V30 2280 H 224.865 3.5639 -1.53647 0
M  V30 2281 H 222.966 3.60836 0.928891 0
M  V30 2282 H 223.079 4.75766 -0.564231 0
M  V30 2283 H 221.443 2.53885 -0.203652 0
M  V30 2284 H 222.226 2.90123 -1.83531 0
M  V30 2285 N 224.671 0.411399 1.52136 0
M  V30 2286 C 226.087 0.0623865 1.59478 0
M  V30 2287 C 226.287 -1.42554 1.4241 0
M  V30 2288 O 225.343 -2.19263 1.2522 0
M  V30 2289 C 226.656 0.559331 2.95452 0
M  V30 2290 C 228.204 0.517503 3.08692 0
M  V30 2291 C 228.679 0.990994 4.4715 0
M  V30 2292 N 230.17 0.947908 4.53397 0
M  V30 2293 C 230.905 1.28544 5.58806 0
M  V30 2294 N 230.401 1.69454 6.71757 0
M  V30 2295 N 232.194 1.20526 5.49026 0
M  V30 2296 H 224.345 1.37982 1.61477 0
M  V30 2297 H 226.608 0.566977 0.759764 0
M  V30 2298 H 226.314 1.59938 3.1323 0
M  V30 2299 H 226.188 -0.0298014 3.77188 0
M  V30 2300 H 228.575 -0.513505 2.90598 0
M  V30 2301 H 228.656 1.14272 2.28857 0
M  V30 2302 H 228.3 2.02034 4.65988 0
M  V30 2303 H 228.23 0.34257 5.25485 0
M  V30 2304 H 230.721 0.647157 3.72317 0
M  V30 2305 H 231.034 1.93513 7.48179 0
M  V30 2306 H 229.379 1.73359 6.73032 0
M  V30 2307 H 232.57 0.884505 4.59667 0
M  V30 2308 H 232.743 1.47161 6.31069 0
M  V30 2309 N 226.149 -1.5696 0.141893 0
M  V30 2310 C 227.112 -2.15316 -0.785587 0
M  V30 2311 C 228.112 -1.09366 -1.1788 0
M  V30 2312 O 229.302 -1.35031 -1.10056 0
M  V30 2313 C 226.434 -2.71211 -2.06537 0
M  V30 2314 H 227.627 -2.98608 -0.278041 0
M  V30 2315 H 225.18 -1.5593 -0.107519 0
M  V30 2316 H 225.915 -1.91571 -2.6167 0
M  V30 2317 H 225.7 -3.4872 -1.79268 0
M  V30 2318 H 227.19 -3.16189 -2.72789 0
M  V30 2319 N 227.627 0.131896 -1.57047 0
M  V30 2320 C 228.875 0.840269 -1.83804 0
M  V30 2321 C 229.196 1.81017 -0.72512 0
M  V30 2322 O 228.466 1.94272 0.251995 0
M  V30 2323 H 227.046 0.313294 -0.678127 0
M  V30 2324 H 229.708 0.122294 -1.94516 0
M  V30 2325 H 228.804 1.39335 -2.79271 0
M  V30 2326 N 229.106 1.52395 0.401703 0
M  V30 2327 C 230.354 1.66488 1.14569 0
M  V30 2328 C 230.675 0.400897 1.90835 0
M  V30 2329 O 229.945 -0.584415 1.8698 0
M  V30 2330 H 228.525 0.613672 0.425929 0
M  V30 2331 H 231.187 1.89464 0.457093 0
M  V30 2332 H 230.283 2.50942 1.85566 0
M  V30 2333 N 230.584 -0.659388 1.43143 0
M  V30 2334 C 231.995 -1.24041 1.39537 0
M  V30 2335 C 232.346 -1.95963 0.0963364 0
M  V30 2336 O 231.471 -2.00892 -0.804438 0
M  V30 2337 C 232.066 -2.25601 2.52764 0
M  V30 2338 C 230.625 -2.79195 2.52443 0
M  V30 2339 C 229.772 -1.53743 2.30778 0
M  V30 2340 H 232.723 -0.451792 1.52133 0
M  V30 2341 H 232.744 -3.07651 2.23899 0
M  V30 2342 H 232.256 -1.73226 3.47296 0
M  V30 2343 H 230.357 -3.35649 1.61773 0
M  V30 2344 H 230.47 -3.2716 3.50004 0
M  V30 2345 H 228.834 -1.80869 1.79328 0
M  V30 2346 H 229.617 -1.03312 3.27386 0
M  V30 2347 N 232.062 -1.29571 -0.897171 0
M  V30 2348 C 233.012 -1.11539 -1.98855 0
M  V30 2349 C 233.996 -0.0340716 -1.60864 0
M  V30 2350 O 235.188 -0.256062 -1.75138 0
M  V30 2351 C 232.317 -0.796603 -3.3393 0
M  V30 2352 C 231.403 -1.91758 -3.78272 0
M  V30 2353 N 231.794 -3.16143 -3.94826 0
M  V30 2354 C 230.092 -1.81119 -4.07568 0
M  V30 2355 C 230.793 -3.89293 -4.32233 0
M  V30 2356 N 229.769 -3.17255 -4.41419 0
M  V30 2357 H 233.571 -2.05894 -2.09726 0
M  V30 2358 H 231.085 -1.20732 -1.08616 0
M  V30 2359 H 233.082 -0.648459 -4.11826 0
M  V30 2360 H 231.742 0.139003 -3.24402 0
M  V30 2361 H 232.753 -3.5157 -3.80288 0
M  V30 2362 H 229.43 -0.948461 -4.06584 0
M  V30 2363 H 230.82 -4.9635 -4.52865 0
M  V30 2364 N 233.54 1.10788 -1.12088 0
M  V30 2365 C 234.47 2.19083 -0.807755 0
M  V30 2366 C 235.451 1.6858 0.226859 0
M  V30 2367 O 236.636 1.93997 0.0888475 0
M  V30 2368 C 233.766 3.46344 -0.257576 0
M  V30 2369 C 232.72 4.101 -1.22483 0
M  V30 2370 C 232.046 5.32016 -0.535052 0
M  V30 2371 C 233.346 4.54236 -2.57811 0
M  V30 2372 H 235.04 2.45534 -1.71328 0
M  V30 2373 H 232.586 1.1801 -0.825205 0
M  V30 2374 H 234.539 4.21392 -0.0262679 0
M  V30 2375 H 233.263 3.19373 0.683278 0
M  V30 2376 H 231.922 3.37054 -1.44189 0
M  V30 2377 H 231.57 5.01319 0.410827 0
M  V30 2378 H 231.27 5.75625 -1.18024 0
M  V30 2379 H 232.794 6.09799 -0.312695 0
M  V30 2380 H 234.208 5.20575 -2.40155 0
M  V30 2381 H 232.605 5.08682 -3.18375 0
M  V30 2382 H 233.675 3.6734 -3.16528 0
M  V30 2383 N 235.018 0.912232 1.28515 0
M  V30 2384 C 235.928 0.404506 2.31086 0
M  V30 2385 C 236.944 -0.50707 1.66448 0
M  V30 2386 O 238.12 -0.393624 1.97516 0
M  V30 2387 C 235.185 -0.348572 3.44943 0
M  V30 2388 C 234.246 0.59604 4.25142 0
M  V30 2389 C 233.479 -0.121194 5.33562 0
M  V30 2390 O 233.702 -1.34317 5.5436 0
M  V30 2391 O 232.636 0.542716 5.99448 0
M  V30 2392 H 236.462 1.25579 2.76521 0
M  V30 2393 H 234.047 0.676998 1.33181 0
M  V30 2394 H 235.929 -0.77395 4.14232 0
M  V30 2395 H 234.604 -1.17571 3.01594 0
M  V30 2396 H 233.511 1.07079 3.58448 0
M  V30 2397 H 234.844 1.38995 4.72167 0
M  V30 2398 N 236.496 -1.42363 0.676048 0
M  V30 2399 C 237.726 -2.05561 0.206967 0
M  V30 2400 C 238.134 -1.50887 -1.14148 0
M  V30 2401 O 237.477 -0.643933 -1.72044 0
M  V30 2402 C 237.539 -3.5944 0.0659508 0
M  V30 2403 C 237.203 -4.36812 1.34331 0
M  V30 2404 C 238.2 -4.67383 2.27704 0
M  V30 2405 C 235.885 -4.76429 1.59125 0
M  V30 2406 C 237.879 -5.36509 3.44147 0
M  V30 2407 C 235.566 -5.45294 2.75857 0
M  V30 2408 C 236.564 -5.75259 3.68193 0
M  V30 2409 O 236.252 -6.42712 4.82883 0
M  V30 2410 H 235.984 -0.668872 0.0979084 0
M  V30 2411 H 238.538 -1.83467 0.923531 0
M  V30 2412 H 236.768 -3.80197 -0.706204 0
M  V30 2413 H 238.457 -4.0427 -0.363418 0
M  V30 2414 H 239.223 -4.37275 2.09799 0
M  V30 2415 H 235.102 -4.52498 0.881258 0
M  V30 2416 H 238.646 -5.59814 4.16238 0
M  V30 2417 H 234.543 -5.7482 2.93688 0
M  V30 2418 H 235.311 -6.61204 4.82444 0
M  V30 2419 N 237.974 -0.419461 -1.51915 0
M  V30 2420 C 239.221 0.152939 -2.01922 0
M  V30 2421 C 239.549 1.4426 -1.30458 0
M  V30 2422 O 238.804 1.91514 -0.402593 0
M  V30 2423 C 239.103 0.437067 -3.54717 0
M  V30 2424 C 238.769 -0.764632 -4.44369 0
M  V30 2425 C 237.431 -1.09423 -4.68594 0
M  V30 2426 C 239.783 -1.56713 -4.97082 0
M  V30 2427 C 237.111 -2.22732 -5.42777 0
M  V30 2428 C 239.463 -2.69107 -5.72507 0
M  V30 2429 C 238.127 -3.02541 -5.95 0
M  V30 2430 H 237.397 0.0559644 -0.738884 0
M  V30 2431 H 240.044 -0.562998 -1.83037 0
M  V30 2432 H 238.349 1.23469 -3.71837 0
M  V30 2433 H 240.046 0.893083 -3.90928 0
M  V30 2434 H 236.636 -0.497775 -4.257 0
M  V30 2435 H 240.82 -1.32571 -4.78266 0
M  V30 2436 H 236.076 -2.48971 -5.58411 0
M  V30 2437 H 240.25 -3.31671 -6.12346 0
M  V30 2438 H 237.877 -3.90457 -6.52264 0
M  V30 2439 N 239.452 1.56882 -0.150215 0
M  V30 2440 C 240.698 1.96518 0.500834 0
M  V30 2441 C 241.031 1.03527 1.64304 0
M  V30 2442 O 240.306 0.0782751 1.94342 0
M  V30 2443 C 240.589 3.45822 1.00395 0
M  V30 2444 C 240.442 4.49591 -0.136983 0
M  V30 2445 C 241.761 3.97704 1.88467 0
M  V30 2446 H 238.88 0.714535 0.18058 0
M  V30 2447 H 241.522 1.88577 -0.232091 0
M  V30 2448 H 239.672 3.5272 1.62851 0
M  V30 2449 H 241.344 4.5477 -0.77343 0
M  V30 2450 H 239.587 4.26441 -0.795652 0
M  V30 2451 H 240.258 5.51402 0.256815 0
M  V30 2452 H 242.734 3.93304 1.35834 0
M  V30 2453 H 241.61 5.0263 2.20578 0
M  V30 2454 H 241.871 3.40252 2.82279 0
M  V30 2455 N 240.93 -0.123565 1.57115 0
M  V30 2456 C 242.346 -0.476961 1.52306 0
M  V30 2457 C 242.546 -1.82109 0.86248 0
M  V30 2458 O 241.602 -2.48586 0.442884 0
M  V30 2459 C 242.915 -0.465661 2.97073 0
M  V30 2460 C 244.463 -0.549534 3.08138 0
M  V30 2461 C 244.938 -0.568669 4.54456 0
M  V30 2462 N 246.429 -0.630237 4.58892 0
M  V30 2463 C 247.164 -0.666415 5.69514 0
M  V30 2464 N 246.66 -0.660514 6.89644 0
M  V30 2465 N 248.453 -0.709077 5.5761 0
M  V30 2466 H 240.604 0.757198 1.98445 0
M  V30 2467 H 242.867 0.278808 0.906074 0
M  V30 2468 H 242.573 0.454232 3.48754 0
M  V30 2469 H 242.447 -1.29513 3.54269 0
M  V30 2470 H 244.834 -1.45985 2.56461 0
M  V30 2471 H 244.915 0.307532 2.53945 0
M  V30 2472 H 244.559 0.337581 5.06777 0
M  V30 2473 H 244.489 -1.44256 5.06456 0
M  V30 2474 H 246.98 -0.641146 3.72421 0
M  V30 2475 H 247.293 -0.690616 7.69708 0
M  V30 2476 H 245.638 -0.628012 6.92157 0
M  V30 2477 H 248.829 -0.711019 4.62668 0
M  V30 2478 H 249.002 -0.733804 6.43832 0
M  V30 2479 N 242.408 -1.52605 -0.393616 0
M  V30 2480 C 243.338 -1.80022 -1.48709 0
M  V30 2481 C 244.319 -0.651995 -1.57108 0
M  V30 2482 O 245.504 -0.89913 -1.72132 0
M  V30 2483 C 242.634 -1.96492 -2.86371 0
M  V30 2484 C 241.588 -3.12161 -2.92813 0
M  V30 2485 C 240.914 -3.13877 -4.3288 0
M  V30 2486 C 242.214 -4.51322 -2.6288 0
M  V30 2487 H 243.908 -2.71589 -1.26015 0
M  V30 2488 H 241.454 -1.30684 -0.604778 0
M  V30 2489 H 243.407 -2.14255 -3.62867 0
M  V30 2490 H 242.131 -1.01611 -3.10391 0
M  V30 2491 H 240.79 -2.94173 -2.18764 0
M  V30 2492 H 240.438 -2.16687 -4.53933 0
M  V30 2493 H 240.138 -3.91576 -4.38112 0
M  V30 2494 H 241.662 -3.33789 -5.1129 0
M  V30 2495 H 243.076 -4.69435 -3.29096 0
M  V30 2496 H 241.473 -5.31053 -2.79468 0
M  V30 2497 H 242.543 -4.58353 -1.58242 0
M  V30 2498 N 243.887 0.651787 -1.4349 0
M  V30 2499 C 244.797 1.79368 -1.5121 0
M  V30 2500 C 245.813 1.69361 -0.399093 0
M  V30 2501 O 246.989 1.90505 -0.653431 0
M  V30 2502 C 244.054 3.15653 -1.43401 0
M  V30 2503 C 243.115 3.37446 -2.65384 0
M  V30 2504 C 242.348 4.67229 -2.57939 0
M  V30 2505 O 242.571 5.46676 -1.62792 0
M  V30 2506 O 241.505 4.90773 -3.48462 0
M  V30 2507 H 245.331 1.7581 -2.47638 0
M  V30 2508 H 242.916 0.810447 -1.25507 0
M  V30 2509 H 244.798 3.96935 -1.41494 0
M  V30 2510 H 243.473 3.19798 -0.501085 0
M  V30 2511 H 242.38 2.55923 -2.72863 0
M  V30 2512 H 243.713 3.38148 -3.57654 0
M  V30 2513 N 245.365 1.30045 0.890287 0
M  V30 2514 C 246.611 1.18737 1.64406 0
M  V30 2515 C 246.944 -0.258525 1.92472 0
M  V30 2516 O 246.219 -1.18562 1.54186 0
M  V30 2517 C 246.502 2.01087 2.98724 0
M  V30 2518 C 246.355 3.53867 2.77665 0
M  V30 2519 C 247.674 1.84457 3.9958 0
M  V30 2520 H 244.793 0.432698 0.596608 0
M  V30 2521 H 247.435 1.5962 1.0306 0
M  V30 2522 H 245.585 1.66349 3.51084 0
M  V30 2523 H 247.257 3.98637 2.32133 0
M  V30 2524 H 245.5 3.78318 2.12269 0
M  V30 2525 H 246.171 4.06772 3.7315 0
M  V30 2526 H 248.647 2.14817 3.56361 0
M  V30 2527 H 247.523 2.44411 4.91482 0
M  V30 2528 H 247.784 0.802276 4.3476 0
M  V30 2529 N 246.843 -1.10192 1.12674 0
M  V30 2530 C 248.259 -1.34235 0.863317 0
M  V30 2531 C 248.459 -1.95062 -0.505277 0
M  V30 2532 O 247.515 -2.19192 -1.25345 0
M  V30 2533 C 248.828 -2.2616 1.98172 0
M  V30 2534 C 250.376 -2.3969 2.0129 0
M  V30 2535 C 250.851 -3.34946 3.1237 0
M  V30 2536 N 252.342 -3.42515 3.11829 0
M  V30 2537 C 253.077 -4.16199 3.94419 0
M  V30 2538 N 252.573 -4.92747 4.87004 0
M  V30 2539 N 254.366 -4.11843 3.82547 0
M  V30 2540 H 246.517 -0.690798 2.00853 0
M  V30 2541 H 248.78 -0.366774 0.874174 0
M  V30 2542 H 248.486 -1.8868 2.96804 0
M  V30 2543 H 248.36 -3.26488 1.88906 0
M  V30 2544 H 250.747 -2.76438 1.03276 0
M  V30 2545 H 250.828 -1.39169 2.14629 0
M  V30 2546 H 250.472 -2.98923 4.10619 0
M  V30 2547 H 250.402 -4.35353 2.96269 0
M  V30 2548 H 252.893 -2.87926 2.44759 0
M  V30 2549 H 253.206 -5.46376 5.46528 0
M  V30 2550 H 251.551 -4.91862 4.91016 0
M  V30 2551 H 254.742 -3.51136 3.0955 0
M  V30 2552 H 254.915 -4.69007 4.47142 0
M  V30 2553 N 248.321 -0.919034 -1.28029 0
M  V30 2554 C 249.737 -0.617972 -1.4715 0
M  V30 2555 C 249.937 0.835242 -1.83374 0
M  V30 2556 O 248.993 1.61388 -1.94191 0
M  V30 2557 C 250.306 -1.56041 -2.57044 0
M  V30 2558 C 251.854 -1.56769 -2.7091 0
M  V30 2559 C 252.329 -2.49688 -3.83953 0
M  V30 2560 N 253.82 -2.47845 -3.91314 0
M  V30 2561 C 254.555 -3.16437 -4.78179 0
M  V30 2562 N 254.051 -3.94376 -5.69596 0
M  V30 2563 N 255.844 -3.05498 -4.71834 0
M  V30 2564 H 247.995 -1.85866 -1.02798 0
M  V30 2565 H 250.258 -0.797506 -0.512531 0
M  V30 2566 H 249.964 -2.59671 -2.372 0
M  V30 2567 H 249.838 -1.29551 -3.54255 0
M  V30 2568 H 252.225 -0.538745 -2.90141 0
M  V30 2569 H 252.306 -1.87305 -1.74214 0
M  V30 2570 H 251.95 -3.52688 -3.65477 0
M  V30 2571 H 251.88 -2.16453 -4.80058 0
M  V30 2572 H 254.371 -1.91234 -3.25941 0
M  V30 2573 H 254.684 -4.43721 -6.32718 0
M  V30 2574 H 253.029 -3.98481 -5.69419 0
M  V30 2575 H 256.22 -2.44108 -3.99411 0
M  V30 2576 H 256.393 -3.59225 -5.39316 0
M  V30 2577 N 249.799 1.42003 -0.683588 0
M  V30 2578 C 251.047 2.01015 -0.209101 0
M  V30 2579 C 251.368 1.54365 1.19149 0
M  V30 2580 O 250.638 0.769083 1.80172 0
M  V30 2581 H 249.218 0.743294 -0.074315 0
M  V30 2582 H 251.88 1.73798 -0.882066 0
M  V30 2583 H 250.976 3.11343 -0.2172 0
M  V30 2584 N 251.277 0.427512 1.51691 0
M  V30 2585 C 252.554 -0.201684 1.94557 0
M  V30 2586 C 252.934 -1.60981 1.36559 0
M  V30 2587 O 252.282 -2.21814 0.548702 0
M  V30 2588 C 252.492 -0.189394 3.48486 0
M  V30 2589 C 253.84 -0.39978 4.22714 0
M  V30 2590 O 254.864 -0.267945 3.55191 0
M  V30 2591 O 253.723 -0.661249 5.42485 0
M  V30 2592 H 250.817 -0.135261 0.815864 0
M  V30 2593 H 253.363 0.484782 1.62628 0
M  V30 2594 H 252.135 0.795431 3.8313 0
M  V30 2595 H 251.758 -0.919187 3.86829 0
M  V30 2596 N 252.755 -1.56801 0.158532 0
M  V30 2597 C 253.685 -2.20347 -0.772609 0
M  V30 2598 C 254.666 -1.15518 -1.24859 0
M  V30 2599 O 255.851 -1.43902 -1.30406 0
M  V30 2600 C 252.981 -2.83417 -2.00729 0
M  V30 2601 C 251.935 -3.94174 -1.66765 0
M  V30 2602 C 251.261 -4.44233 -2.97592 0
M  V30 2603 C 252.561 -5.14392 -0.905447 0
M  V30 2604 H 254.255 -2.98413 -0.242959 0
M  V30 2605 H 251.801 -1.43537 -0.115419 0
M  V30 2606 H 253.754 -3.26543 -2.6636 0
M  V30 2607 H 252.478 -2.02701 -2.56086 0
M  V30 2608 H 251.137 -3.51684 -1.03508 0
M  V30 2609 H 250.785 -3.60325 -3.50963 0
M  V30 2610 H 250.485 -5.18945 -2.75626 0
M  V30 2611 H 252.009 -4.90037 -3.64274 0
M  V30 2612 H 253.423 -5.5429 -1.46408 0
M  V30 2613 H 251.82 -5.9494 -0.7853 0
M  V30 2614 H 252.89 -4.84795 0.100668 0
M  V30 2615 N 254.233 0.115231 -1.57178 0
M  V30 2616 C 255.196 1.12526 -1.99676 0
M  V30 2617 C 256.196 1.34095 -0.88742 0
M  V30 2618 O 257.386 1.30548 -1.15337 0
M  V30 2619 C 254.518 2.4789 -2.34015 0
M  V30 2620 H 255.711 0.759912 -2.90113 0
M  V30 2621 H 253.264 0.359648 -1.52106 0
M  V30 2622 H 253.999 2.89339 -1.4647 0
M  V30 2623 H 253.784 2.33588 -3.14927 0
M  V30 2624 H 255.274 3.20575 -2.67622 0
M  V30 2625 N 255.711 1.52812 0.385517 0
M  V30 2626 C 256.674 1.77188 1.45386 0
M  V30 2627 C 257.674 0.641953 1.4743 0
M  V30 2628 O 258.864 0.910033 1.4854 0
M  V30 2629 C 255.996 1.87582 2.8465 0
M  V30 2630 H 257.189 2.72583 1.25054 0
M  V30 2631 H 254.742 1.43586 0.617467 0
M  V30 2632 H 255.477 0.941849 3.10322 0
M  V30 2633 H 255.262 2.69748 2.84567 0
M  V30 2634 H 256.752 2.08102 3.62054 0
M  V30 2635 N 257.189 -0.644168 1.43834 0
M  V30 2636 C 258.119 -1.76814 1.52509 0
M  V30 2637 C 259.1 -1.65823 0.379052 0
M  V30 2638 O 260.285 -1.84781 0.597466 0
M  V30 2639 C 257.415 -3.15288 1.4564 0
M  V30 2640 C 256.369 -3.41053 2.58586 0
M  V30 2641 C 255.695 -4.79421 2.36769 0
M  V30 2642 C 256.995 -3.34902 4.00797 0
M  V30 2643 H 258.689 -1.69812 2.46586 0
M  V30 2644 H 256.235 -0.815542 1.1868 0
M  V30 2645 H 258.188 -3.93681 1.50311 0
M  V30 2646 H 256.912 -3.23043 0.480725 0
M  V30 2647 H 255.571 -2.65035 2.53282 0
M  V30 2648 H 255.219 -4.83863 1.37424 0
M  V30 2649 H 254.919 -4.9762 3.12487 0
M  V30 2650 H 256.443 -5.6006 2.43238 0
M  V30 2651 H 257.857 -4.03218 4.07539 0
M  V30 2652 H 256.254 -3.64637 4.76613 0
M  V30 2653 H 257.324 -2.32928 4.25291 0
M  V30 2654 N 258.668 -1.30515 -0.883378 0
M  V30 2655 C 259.598 -1.19607 -2.00541 0
M  V30 2656 C 260.579 -0.086346 -1.69881 0
M  V30 2657 O 261.764 -0.268654 -1.92333 0
M  V30 2658 C 258.894 -0.888758 -3.35736 0
M  V30 2659 C 257.848 -1.95659 -3.8066 0
M  V30 2660 C 257.174 -1.50224 -5.13164 0
M  V30 2661 C 258.474 -3.36788 -3.99213 0
M  V30 2662 H 260.168 -2.13476 -2.09925 0
M  V30 2663 H 257.714 -1.02775 -1.00863 0
M  V30 2664 H 259.667 -0.799094 -4.13754 0
M  V30 2665 H 258.391 0.0856125 -3.26488 0
M  V30 2666 H 257.05 -2.03591 -3.04871 0
M  V30 2667 H 256.698 -0.516092 -5.00345 0
M  V30 2668 H 256.398 -2.2165 -5.44192 0
M  V30 2669 H 257.922 -1.42639 -5.93706 0
M  V30 2670 H 259.336 -3.31605 -4.67665 0
M  V30 2671 H 257.733 -4.06314 -4.41621 0
M  V30 2672 H 258.803 -3.78561 -3.03017 0
M  V30 2673 N 260.146 1.09593 -1.13257 0
M  V30 2674 C 261.371 1.8604 -0.916732 0
M  V30 2675 C 261.796 1.80504 0.529146 0
M  V30 2676 O 261.154 1.18127 1.37534 0
M  V30 2677 C 261.202 3.32017 -1.40703 0
M  V30 2678 O 260.306 4.08141 -0.591153 0
M  V30 2679 H 259.647 0.576943 -0.328683 0
M  V30 2680 H 262.177 1.38405 -1.50682 0
M  V30 2681 H 262.187 3.82865 -1.4099 0
M  V30 2682 H 260.862 3.35361 -2.45979 0
M  V30 2683 H 259.439 3.67084 -0.656005 0
M  V30 2684 N 261.624 0.925811 1.2754 0
M  V30 2685 C 262.872 0.564138 1.94067 0
M  V30 2686 C 263.193 -0.897188 1.73134 0
M  V30 2687 O 262.463 -1.63573 1.07799 0
M  V30 2688 H 261.043 0.205645 0.718136 0
M  V30 2689 H 263.705 1.1778 1.55287 0
M  V30 2690 H 262.801 0.76881 3.02483 0
M  V30 2691 N 263.102 -1.41638 0.69111 0
M  V30 2692 C 264.348 -2.01598 0.220519 0
M  V30 2693 C 264.681 -1.54594 -1.17535 0
M  V30 2694 O 263.956 -0.755177 -1.79241 0
M  V30 2695 C 264.239 -3.59062 0.273243 0
M  V30 2696 C 264.092 -4.16203 1.70573 0
M  V30 2697 C 265.411 -4.38546 -0.369457 0
M  V30 2698 H 262.53 -0.732468 0.0816045 0
M  V30 2699 H 265.172 -1.68445 0.878986 0
M  V30 2700 H 263.322 -3.87435 -0.287411 0
M  V30 2701 H 264.994 -3.98722 2.31989 0
M  V30 2702 H 263.237 -3.71414 2.2413 0
M  V30 2703 H 263.908 -5.25358 1.69419 0
M  V30 2704 H 266.384 -4.1596 0.107977 0
M  V30 2705 H 265.26 -5.48069 -0.302002 0
M  V30 2706 H 265.521 -4.17662 -1.44951 0
M  V30 2707 N 264.58 -0.43555 -1.51462 0
M  V30 2708 C 265.996 -0.0877501 -1.59359 0
M  V30 2709 C 266.196 1.4027 -1.4466 0
M  V30 2710 O 265.252 2.17243 -1.28693 0
M  V30 2711 C 266.565 -0.606264 -2.94525 0
M  V30 2712 C 268.113 -0.566548 -3.0783 0
M  V30 2713 C 268.588 -1.06201 -4.45517 0
M  V30 2714 N 270.079 -1.01992 -4.51832 0
M  V30 2715 C 270.814 -1.37417 -5.5669 0
M  V30 2716 N 270.31 -1.80119 -6.68976 0
M  V30 2717 N 272.103 -1.29245 -5.47039 0
M  V30 2718 H 264.254 -1.40533 -1.59261 0
M  V30 2719 H 266.517 -0.578992 -0.750648 0
M  V30 2720 H 266.223 -1.64901 -3.10645 0
M  V30 2721 H 266.097 -0.0302097 -3.77188 0
M  V30 2722 H 268.484 0.467208 -2.91378 0
M  V30 2723 H 268.565 -1.17898 -2.2701 0
M  V30 2724 H 268.209 -2.09422 -4.62715 0
M  V30 2725 H 268.139 -0.426127 -5.24873 0
M  V30 2726 H 270.63 -0.706308 -3.71241 0
M  V30 2727 H 270.943 -2.05392 -7.45006 0
M  V30 2728 H 269.288 -1.84044 -6.70189 0
M  V30 2729 H 272.479 -0.957522 -4.58202 0
M  V30 2730 H 272.652 -1.57182 -6.28648 0
M  V30 2731 N 266.058 1.56714 -0.166846 0
M  V30 2732 C 266.99 2.14914 0.796537 0
M  V30 2733 C 268.003 1.10357 1.19688 0
M  V30 2734 O 269.192 1.37561 1.13751 0
M  V30 2735 C 266.292 2.67326 2.08303 0
M  V30 2736 C 265.465 3.96493 1.84696 0
M  V30 2737 C 264.524 4.34014 2.97521 0
M  V30 2738 O 263.55 5.01973 2.6835 0
M  V30 2739 N 264.752 3.95208 4.25196 0
M  V30 2740 H 267.517 2.98205 0.299006 0
M  V30 2741 H 265.078 1.61892 0.0160839 0
M  V30 2742 H 267.07 2.89428 2.82867 0
M  V30 2743 H 265.64 1.88649 2.4926 0
M  V30 2744 H 264.86 3.82814 0.940602 0
M  V30 2745 H 266.148 4.8086 1.66285 0
M  V30 2746 H 265.546 3.40487 4.51758 0
M  V30 2747 H 264.103 4.2232 4.96477 0
M  V30 2748 N 267.536 -0.106894 1.57237 0
M  V30 2749 C 268.782 -0.81373 1.85759 0
M  V30 2750 C 269.115 -1.78952 0.754315 0
M  V30 2751 O 268.39 -1.93029 -0.23879 0
M  V30 2752 C 268.673 -1.55293 3.24894 0
M  V30 2753 C 268.526 -0.595929 4.45835 0
M  V30 2754 C 269.845 -2.5063 3.61763 0
M  V30 2755 H 266.964 -0.294369 0.67566 0
M  V30 2756 H 269.606 -0.0776472 1.89841 0
M  V30 2757 H 267.756 -2.1804 3.21544 0
M  V30 2758 H 269.428 0.0236262 4.61294 0
M  V30 2759 H 267.671 0.0916191 4.33703 0
M  V30 2760 H 268.342 -1.15004 5.39887 0
M  V30 2761 H 270.818 -1.97982 3.65981 0
M  V30 2762 H 269.694 -2.99376 4.60071 0
M  V30 2763 H 269.955 -3.3385 2.89821 0
M  V30 2764 N 269.014 -1.53014 -0.377408 0
M  V30 2765 C 270.239 -1.72818 -1.14668 0
M  V30 2766 C 270.664 -0.450725 -1.8262 0
M  V30 2767 O 270.022 0.59439 -1.7128 0
M  V30 2768 C 270.07 -2.88627 -2.16164 0
M  V30 2769 O 269.174 -2.56409 -3.22998 0
M  V30 2770 H 268.515 -0.574301 -0.333278 0
M  V30 2771 H 271.045 -1.99853 -0.438152 0
M  V30 2772 H 271.055 -3.14455 -2.59966 0
M  V30 2773 H 269.73 -3.81294 -1.66095 0
M  V30 2774 H 268.307 -2.4136 -2.84253 0
M  V30 2775 N 270.492 0.636531 -1.44174 0
M  V30 2776 C 271.402 1.77754 -1.53103 0
M  V30 2777 C 272.418 1.68928 -0.417034 0
M  V30 2778 O 273.594 1.89801 -0.6736 0
M  V30 2779 C 270.659 3.14115 -1.46741 0
M  V30 2780 C 269.72 3.34612 -2.68948 0
M  V30 2781 C 268.953 4.64467 -2.6288 0
M  V30 2782 O 269.176 5.44919 -1.68581 0
M  V30 2783 O 268.11 4.87049 -3.53648 0
M  V30 2784 H 271.936 1.73174 -2.49489 0
M  V30 2785 H 269.521 0.79709 -1.2636 0
M  V30 2786 H 271.403 3.95412 -1.45696 0
M  V30 2787 H 270.078 3.19249 -0.534975 0
M  V30 2788 H 268.985 2.53014 -2.75562 0
M  V30 2789 H 270.318 3.34336 -3.61221 0
M  V30 2790 N 271.97 1.30982 0.876444 0
M  V30 2791 C 273.247 1.10942 1.61094 0
M  V30 2792 C 273.627 -0.338223 2.08373 0
M  V30 2793 O 272.975 -1.33122 1.85717 0
M  V30 2794 C 273.185 2.11789 2.77392 0
M  V30 2795 C 274.533 2.43965 3.47514 0
M  V30 2796 O 275.557 2.10166 2.87591 0
M  V30 2797 O 274.416 3.01817 4.55597 0
M  V30 2798 H 271.51 0.42667 0.708436 0
M  V30 2799 H 274.056 1.42438 0.922474 0
M  V30 2800 H 272.828 3.09194 2.39823 0
M  V30 2801 H 272.451 1.81161 3.5393 0
M  V30 2802 N 273.449 -1.08991 1.13837 0
M  V30 2803 C 274.695 -1.81526 0.90422 0
M  V30 2804 C 275.028 -1.85706 -0.568066 0
M  V30 2805 O 274.303 -1.32855 -1.42056 0
M  V30 2806 C 274.586 -3.27447 1.49835 0
M  V30 2807 C 274.439 -3.31512 3.04006 0
M  V30 2808 C 275.758 -4.24256 1.17025 0
M  V30 2809 H 272.877 -0.659029 0.329923 0
M  V30 2810 H 275.519 -1.27644 1.40737 0
M  V30 2811 H 273.669 -3.73462 1.07044 0
M  V30 2812 H 275.341 -2.93867 3.55584 0
M  V30 2813 H 273.584 -2.70963 3.38765 0
M  V30 2814 H 274.255 -4.34329 3.40679 0
M  V30 2815 H 276.731 -3.86549 1.54009 0
M  V30 2816 H 275.607 -5.24684 1.61237 0
M  V30 2817 H 275.868 -4.42019 0.0846274 0
M  V30 2818 N 274.927 -0.932562 -1.27047 0
M  V30 2819 C 276.343 -0.633544 -1.46487 0
M  V30 2820 C 276.543 0.815746 -1.84249 0
M  V30 2821 O 275.599 1.59319 -1.95892 0
M  V30 2822 C 276.912 -1.58758 -2.55375 0
M  V30 2823 C 278.46 -1.59634 -2.69232 0
M  V30 2824 C 278.935 -2.53747 -3.81283 0
M  V30 2825 N 280.426 -2.51982 -3.88664 0
M  V30 2826 C 281.161 -3.21491 -4.74796 0
M  V30 2827 N 280.657 -4.00395 -5.65381 0
M  V30 2828 N 282.45 -3.10485 -4.68568 0
M  V30 2829 H 274.601 -1.86946 -1.00821 0
M  V30 2830 H 276.864 -0.802897 -0.504044 0
M  V30 2831 H 276.57 -2.62172 -2.34432 0
M  V30 2832 H 276.444 -1.33301 -3.52861 0
M  V30 2833 H 278.831 -0.569488 -2.89553 0
M  V30 2834 H 278.912 -1.89142 -1.72218 0
M  V30 2835 H 278.556 -3.56545 -3.61715 0
M  V30 2836 H 278.486 -2.21532 -4.77735 0
M  V30 2837 H 280.977 -1.94681 -3.23895 0
M  V30 2838 H 281.29 -4.50406 -6.27976 0
M  V30 2839 H 279.635 -4.04498 -5.65161 0
M  V30 2840 H 282.826 -2.48331 -3.96799 0
M  V30 2841 H 282.999 -3.64925 -5.35475 0
M  V30 2842 N 276.405 1.4127 -0.698611 0
M  V30 2843 C 277.63 2.06024 -0.238512 0
M  V30 2844 C 278.055 1.5224 1.10475 0
M  V30 2845 O 277.413 0.650623 1.69223 0
M  V30 2846 C 277.461 3.59988 -0.209952 0
M  V30 2847 O 276.565 4.04282 0.814235 0
M  V30 2848 H 275.906 0.653829 -0.115775 0
M  V30 2849 H 278.436 1.8098 -0.954326 0
M  V30 2850 H 278.446 4.07979 -0.0418436 0
M  V30 2851 H 277.121 3.98503 -1.1903 0
M  V30 2852 H 275.698 3.6779 0.615234 0
M  V30 2853 N 277.883 0.443576 1.51229 0
M  V30 2854 C 279.294 -0.0180867 1.86691 0
M  V30 2855 C 279.645 -1.41384 1.36033 0
M  V30 2856 O 278.77 -2.04291 0.713722 0
M  V30 2857 C 279.365 -0.039597 3.38777 0
M  V30 2858 C 277.924 -0.445692 3.73752 0
M  V30 2859 C 277.071 0.357584 2.74985 0
M  V30 2860 H 280.022 0.659138 1.44364 0
M  V30 2861 H 280.043 -0.847761 3.70936 0
M  V30 2862 H 279.555 0.976382 3.75617 0
M  V30 2863 H 277.656 -1.46704 3.42503 0
M  V30 2864 H 277.769 -0.166155 4.78812 0
M  V30 2865 H 276.133 -0.184973 2.54027 0
M  V30 2866 H 276.916 1.37256 3.14668 0
M  V30 2867 N 279.361 -1.56624 0.175154 0
M  V30 2868 C 280.324 -2.16934 -0.739738 0
M  V30 2869 C 281.324 -1.11842 -1.15533 0
M  V30 2870 O 282.514 -1.37335 -1.07167 0
M  V30 2871 C 279.646 -2.75531 -2.00738 0
M  V30 2872 H 280.839 -2.99131 -0.214639 0
M  V30 2873 H 278.392 -1.56123 -0.0744197 0
M  V30 2874 H 279.127 -1.97078 -2.57548 0
M  V30 2875 H 278.912 -3.52444 -1.71831 0
M  V30 2876 H 280.402 -3.21904 -2.66021 0
M  V30 2877 N 280.839 0.0985539 -1.57292 0
M  V30 2878 C 282.087 0.801092 -1.85545 0
M  V30 2879 C 282.408 1.79438 -0.763353 0
M  V30 2880 O 281.678 1.94763 0.21073 0
M  V30 2881 H 280.258 0.29884 -0.684619 0
M  V30 2882 H 282.92 0.0810064 -1.94732 0
M  V30 2883 H 282.016 1.3338 -2.82163 0
M  V30 2884 N 282.317 1.53212 0.369288 0
M  V30 2885 C 283.728 1.60943 0.946276 0
M  V30 2886 C 284.079 0.47452 1.90375 0
M  V30 2887 O 283.204 -0.399597 2.12679 0
M  V30 2888 C 283.799 2.91715 1.72302 0
M  V30 2889 C 282.358 3.01792 2.24941 0
M  V30 2890 C 281.505 2.56211 1.06072 0
M  V30 2891 H 284.456 1.58007 0.148198 0
M  V30 2892 H 284.477 2.79309 2.58393 0
M  V30 2893 H 283.989 3.74295 1.0259 0
M  V30 2894 H 282.09 2.23791 2.97906 0
M  V30 2895 H 282.203 4.06803 2.53077 0
M  V30 2896 H 280.567 2.10998 1.4266 0
M  V30 2897 H 281.35 3.41206 0.378639 0
M  V30 2898 N 283.795 -0.628877 1.44509 0
M  V30 2899 C 284.742 -1.74074 1.51549 0
M  V30 2900 C 285.712 -1.62084 0.363021 0
M  V30 2901 O 286.897 -1.81975 0.573567 0
M  V30 2902 C 284.037 -3.12328 1.46784 0
M  V30 2903 C 283.15 -3.35277 2.72422 0
M  V30 2904 C 282.285 -4.63515 2.59475 0
M  V30 2905 C 281.324 -4.7965 3.80266 0
M  V30 2906 N 280.461 -5.99168 3.65981 0
M  V30 2907 H 285.301 -1.67392 2.46544 0
M  V30 2908 H 282.838 -0.816527 1.22357 0
M  V30 2909 H 284.796 -3.92286 1.42012 0
M  V30 2910 H 283.426 -3.18018 0.553544 0
M  V30 2911 H 282.478 -2.49242 2.87372 0
M  V30 2912 H 283.79 -3.43078 3.62076 0
M  V30 2913 H 282.944 -5.51638 2.52548 0
M  V30 2914 H 281.683 -4.58076 1.67384 0
M  V30 2915 H 280.688 -3.89957 3.87574 0
M  V30 2916 H 281.913 -4.86902 4.73395 0
M  V30 2917 H 279.859 -5.94814 2.76644 0
M  V30 2918 H 279.776 -6.08035 4.49254 0
M  V30 2919 H 281.044 -6.89846 3.6295 0
M  V30 2920 N 285.273 -1.31445 -0.869486 0
M  V30 2921 C 286.519 -1.21337 -1.62496 0
M  V30 2922 C 286.852 0.227872 -1.92858 0
M  V30 2923 O 286.127 1.16094 -1.56053 0
M  V30 2924 C 286.41 -2.05814 -2.95487 0
M  V30 2925 C 286.263 -3.5824 -2.72 0
M  V30 2926 C 287.582 -1.9079 -3.96594 0
M  V30 2927 H 284.701 -0.442135 -0.589649 0
M  V30 2928 H 287.343 -1.6124 -1.00507 0
M  V30 2929 H 285.493 -1.71913 -3.48394 0
M  V30 2930 H 287.165 -4.0228 -2.25762 0
M  V30 2931 H 285.408 -3.81647 -2.06224 0
M  V30 2932 H 286.079 -4.12657 -3.66631 0
M  V30 2933 H 288.555 -2.20459 -3.52898 0
M  V30 2934 H 287.431 -2.52199 -4.87531 0
M  V30 2935 H 287.692 -0.871341 -4.33428 0
M  V30 2936 N 286.751 1.08385 -1.14413 0
M  V30 2937 C 288.162 1.62258 -0.923535 0
M  V30 2938 C 288.513 1.88691 0.537595 0
M  V30 2939 O 287.638 1.64454 1.40655 0
M  V30 2940 C 288.233 2.94781 -1.67002 0
M  V30 2941 C 286.792 3.45437 -1.495 0
M  V30 2942 C 285.939 2.19668 -1.69238 0
M  V30 2943 H 288.89 0.916086 -1.2959 0
M  V30 2944 H 288.911 3.63229 -1.13334 0
M  V30 2945 H 288.423 2.7551 -2.73342 0
M  V30 2946 H 286.524 3.6981 -0.455097 0
M  V30 2947 H 286.637 4.22173 -2.2651 0
M  V30 2948 H 285.001 2.28849 -1.11804 0
M  V30 2949 H 285.784 2.02905 -2.7692 0
M  V30 2950 N 288.23 0.939286 1.26551 0
M  V30 2951 C 289.476 0.596234 1.94465 0
M  V30 2952 C 289.831 -0.855013 1.72358 0
M  V30 2953 O 289.124 -1.6034 1.04889 0
M  V30 2954 C 289.318 0.872106 3.46596 0
M  V30 2955 C 289.147 2.34862 3.83497 0
M  V30 2956 C 287.917 3.00344 4.06352 0
M  V30 2957 C 290.115 3.32697 3.92195 0
M  V30 2958 N 288.097 4.38027 4.30123 0
M  V30 2959 C 289.468 4.55631 4.20476 0
M  V30 2960 C 291.523 3.27747 3.74815 0
M  V30 2961 C 290.226 5.74233 4.33185 0
M  V30 2962 C 292.252 4.45672 3.88755 0
M  V30 2963 C 291.614 5.67388 4.17433 0
M  V30 2964 H 287.713 0.268515 0.734455 0
M  V30 2965 H 290.297 1.2083 1.5267 0
M  V30 2966 H 288.468 0.289102 3.87323 0
M  V30 2967 H 290.2 0.490513 4.01716 0
M  V30 2968 H 286.955 2.50969 4.01636 0
M  V30 2969 H 287.379 5.09288 4.46044 0
M  V30 2970 H 292.021 2.34703 3.51673 0
M  V30 2971 H 289.739 6.67731 4.55149 0
M  V30 2972 H 293.325 4.43372 3.76713 0
M  V30 2973 H 292.205 6.57115 4.27983 0
M  V30 2974 N 289.708 -1.40897 0.706093 0
M  V30 2975 C 290.955 -2.01054 0.241531 0
M  V30 2976 C 291.283 -1.55956 -1.16223 0
M  V30 2977 O 290.538 -0.766336 -1.80072 0
M  V30 2978 C 290.837 -3.5646 0.259099 0
M  V30 2979 C 290.503 -4.21106 1.61184 0
M  V30 2980 C 289.165 -4.38479 1.98216 0
M  V30 2981 C 291.517 -4.57256 2.50132 0
M  V30 2982 C 288.845 -4.89282 3.2376 0
M  V30 2983 C 291.197 -5.09454 3.7502 0
M  V30 2984 C 289.861 -5.25037 4.12181 0
M  V30 2985 H 289.131 -0.73571 0.0883825 0
M  V30 2986 H 291.778 -1.68645 0.907257 0
M  V30 2987 H 290.083 -3.88721 -0.490189 0
M  V30 2988 H 291.78 -4.00826 -0.11804 0
M  V30 2989 H 288.37 -4.07966 1.31384 0
M  V30 2990 H 292.554 -4.43479 2.228 0
M  V30 2991 H 287.81 -4.99531 3.52532 0
M  V30 2992 H 291.984 -5.36404 4.44121 0
M  V30 2993 H 289.611 -5.64164 5.09532 0
M  V30 2994 N 291.186 -0.45159 -1.50991 0
M  V30 2995 C 292.597 0.00818571 -1.86698 0
M  V30 2996 C 292.948 1.40661 -1.3678 0
M  V30 2997 O 292.073 2.0391 -0.724546 0
M  V30 2998 C 292.668 0.0216303 -3.38793 0
M  V30 2999 C 291.227 0.425865 -3.73983 0
M  V30 3000 C 290.374 -0.372163 -2.74791 0
M  V30 3001 H 293.325 -0.666785 -1.44013 0
M  V30 3002 H 293.346 0.828078 -3.7138 0
M  V30 3003 H 292.858 -0.996288 -3.75094 0
M  V30 3004 H 290.959 1.44886 -3.43277 0
M  V30 3005 H 291.072 0.140761 -4.78893 0
M  V30 3006 H 289.436 0.171498 -2.54122 0
M  V30 3007 H 290.219 -1.38922 -3.13935 0
M  V30 3008 N 292.664 1.56529 -0.183458 0
M  V30 3009 C 294.08 1.58664 0.172554 0
M  V30 3010 C 294.28 1.19925 1.61926 0
M  V30 3011 O 293.336 0.916534 2.35278 0
M  V30 3012 C 294.649 3.00463 -0.119262 0
M  V30 3013 C 296.197 3.12945 -0.0584396 0
M  V30 3014 C 296.672 4.56857 -0.323408 0
M  V30 3015 N 298.163 4.62403 -0.271612 0
M  V30 3016 C 298.898 5.71626 -0.450639 0
M  V30 3017 N 298.394 6.89362 -0.689384 0
M  V30 3018 N 300.187 5.60775 -0.385701 0
M  V30 3019 H 292.338 1.79994 -1.12765 0
M  V30 3020 H 294.601 0.834808 -0.449222 0
M  V30 3021 H 294.307 3.33326 -1.12192 0
M  V30 3022 H 294.181 3.72659 0.583544 0
M  V30 3023 H 296.568 2.79902 0.934805 0
M  V30 3024 H 296.649 2.4316 -0.794144 0
M  V30 3025 H 296.293 4.9061 -1.31392 0
M  V30 3026 H 296.223 5.24816 0.43305 0
M  V30 3027 H 298.714 3.77785 -0.0932256 0
M  V30 3028 H 299.027 7.68489 -0.815113 0
M  V30 3029 H 297.372 6.91196 -0.726142 0
M  V30 3030 H 300.563 4.67674 -0.199687 0
M  V30 3031 H 300.736 6.4584 -0.528646 0
M  V30 3032 N 294.142 -0.090211 1.57342 0
M  V30 3033 C 295.089 -1.10909 2.02405 0
M  V30 3034 C 296.059 -1.39523 0.901252 0
M  V30 3035 O 297.244 -1.50903 1.1676 0
M  V30 3036 C 294.384 -2.42277 2.45755 0
M  V30 3037 C 293.497 -2.20352 3.71576 0
M  V30 3038 C 292.632 -3.45154 4.03785 0
M  V30 3039 C 291.671 -3.18512 5.22701 0
M  V30 3040 N 290.808 -4.35593 5.50639 0
M  V30 3041 H 295.648 -0.71782 2.89225 0
M  V30 3042 H 293.185 -0.342901 1.43048 0
M  V30 3043 H 295.143 -3.18951 2.68935 0
M  V30 3044 H 293.773 -2.79242 1.61938 0
M  V30 3045 H 292.825 -1.34458 3.55844 0
M  V30 3046 H 294.137 -1.96661 4.58395 0
M  V30 3047 H 293.291 -4.30233 4.27767 0
M  V30 3048 H 292.03 -3.71904 3.15498 0
M  V30 3049 H 291.035 -2.31827 4.98534 0
M  V30 3050 H 292.26 -2.93103 6.12591 0
M  V30 3051 H 290.206 -4.6241 4.6531 0
M  V30 3052 H 290.123 -4.1511 6.31838 0
M  V30 3053 H 291.391 -5.21723 5.7916 0
M  V30 3054 N 295.62 -1.53406 -0.361157 0
M  V30 3055 C 296.866 -1.70054 -1.10496 0
M  V30 3056 C 297.199 -0.453278 -1.88836 0
M  V30 3057 O 296.474 0.5495 -1.86576 0
M  V30 3058 C 296.757 -2.95317 -2.06058 0
M  V30 3059 C 296.61 -4.3021 -1.31298 0
M  V30 3060 C 297.929 -3.16193 -3.06121 0
M  V30 3061 H 295.048 -0.618799 -0.400321 0
M  V30 3062 H 297.69 -1.86052 -0.385318 0
M  V30 3063 H 295.84 -2.81809 -2.67425 0
M  V30 3064 H 297.512 -4.55538 -0.726807 0
M  V30 3065 H 295.755 -4.29421 -0.614853 0
M  V30 3066 H 296.426 -5.14 -2.01265 0
M  V30 3067 H 298.902 -3.28916 -2.5486 0
M  V30 3068 H 297.778 -4.05266 -3.70204 0
M  V30 3069 H 298.039 -2.31676 -3.76535 0
M  V30 3070 N 297.098 0.621204 -1.44841 0
M  V30 3071 C 298.323 1.41244 -1.51871 0
M  V30 3072 C 298.748 1.87519 -0.147764 0
M  V30 3073 O 298.106 1.59334 0.865 0
M  V30 3074 C 298.154 2.60221 -2.49634 0
M  V30 3075 O 297.258 3.60395 -2.00473 0
M  V30 3076 H 296.599 0.42223 -0.512463 0
M  V30 3077 H 299.129 0.757305 -1.90069 0
M  V30 3078 H 299.139 3.0764 -2.67996 0
M  V30 3079 H 297.814 2.25887 -3.4921 0
M  V30 3080 H 296.391 3.19717 -1.91925 0
M  V30 3081 N 298.576 1.31904 0.862503 0
M  V30 3082 C 299.486 1.22161 2.00285 0
M  V30 3083 C 300.502 0.136785 1.73462 0
M  V30 3084 O 301.678 0.355994 1.98229 0
M  V30 3085 C 298.743 0.937093 3.33796 0
M  V30 3086 C 297.804 2.10957 3.73893 0
M  V30 3087 C 297.037 1.83853 5.01033 0
M  V30 3088 O 297.26 0.777274 5.65079 0
M  V30 3089 O 296.194 2.69741 5.38074 0
M  V30 3090 H 300.02 2.18008 2.11439 0
M  V30 3091 H 297.605 1.11716 0.991957 0
M  V30 3092 H 299.487 0.794583 4.13841 0
M  V30 3093 H 298.162 0.00871894 3.23699 0
M  V30 3094 H 297.069 2.30752 2.94456 0
M  V30 3095 H 298.402 3.02046 3.88625 0
M  V30 3096 N 300.054 -1.07777 1.14986 0
M  V30 3097 C 300.984 -2.16865 0.865557 0
M  V30 3098 C 301.965 -1.69123 -0.182083 0
M  V30 3099 O 303.15 -1.94164 -0.0373815 0
M  V30 3100 C 300.28 -3.45539 0.349313 0
M  V30 3101 C 299.234 -4.06708 1.33313 0
M  V30 3102 C 298.56 -5.30411 0.675918 0
M  V30 3103 C 299.86 -4.47241 2.69764 0
M  V30 3104 H 301.554 -2.40905 1.77778 0
M  V30 3105 H 299.1 -1.15781 0.856203 0
M  V30 3106 H 301.053 -4.21174 0.137983 0
M  V30 3107 H 299.777 -3.21072 -0.598362 0
M  V30 3108 H 298.436 -3.33112 1.53075 0
M  V30 3109 H 298.084 -5.02232 -0.277767 0
M  V30 3110 H 297.784 -5.72293 1.33244 0
M  V30 3111 H 299.308 -6.08755 0.474262 0
M  V30 3112 H 300.722 -5.14025 2.53873 0
M  V30 3113 H 299.119 -5.00062 3.3175 0
M  V30 3114 H 300.189 -3.58818 3.26156 0
M  V30 3115 N 301.532 -0.945985 -1.26051 0
M  V30 3116 C 302.809 -0.513816 -1.88731 0
M  V30 3117 C 303.189 1.00872 -1.8544 0
M  V30 3118 O 302.537 1.8708 -1.312 0
M  V30 3119 C 302.747 -1.08062 -3.31849 0
M  V30 3120 C 304.095 -1.1522 -4.08668 0
M  V30 3121 O 305.119 -1.03155 -3.40936 0
M  V30 3122 O 303.978 -1.34044 -5.29806 0
M  V30 3123 H 301.072 -0.168193 -0.809716 0
M  V30 3124 H 303.618 -1.03886 -1.34186 0
M  V30 3125 H 302.39 -2.1241 -3.2863 0
M  V30 3126 H 302.013 -0.538307 -3.93939 0
M  V30 3127 N 303.011 1.40521 -0.713556 0
M  V30 3128 C 303.958 2.30723 -0.059684 0
M  V30 3129 C 304.928 1.48079 0.752448 0
M  V30 3130 O 306.113 1.76823 0.71681 0
M  V30 3131 C 303.253 3.34274 0.857594 0
M  V30 3132 C 302.366 4.31986 0.0351536 0
M  V30 3133 C 301.501 5.22605 0.951724 0
M  V30 3134 C 300.54 6.11976 0.123253 0
M  V30 3135 N 299.677 6.9502 0.99459 0
M  V30 3136 H 304.517 2.86074 -0.834596 0
M  V30 3137 H 302.054 1.40879 -0.42326 0
M  V30 3138 H 304.012 3.92879 1.40364 0
M  V30 3139 H 302.642 2.8043 1.59871 0
M  V30 3140 H 301.694 3.7518 -0.628052 0
M  V30 3141 H 303.006 4.95101 -0.606347 0
M  V30 3142 H 302.16 5.86131 1.56638 0
M  V30 3143 H 300.899 4.59759 1.62705 0
M  V30 3144 H 299.904 5.47482 -0.50435 0
M  V30 3145 H 301.129 6.76881 -0.548539 0
M  V30 3146 H 299.075 6.34764 1.6556 0
M  V30 3147 H 298.992 7.54892 0.40908 0
M  V30 3148 H 300.26 7.62997 1.59549 0
M  V30 3149 N 304.489 0.459591 1.5075 0
M  V30 3150 C 305.729 -0.09824 2.04164 0
M  V30 3151 C 306.093 -1.3801 1.33481 0
M  V30 3152 O 307.294 -2.01959 1.77387 0
M  V30 3153 C 305.565 -0.289467 3.56226 0
M  V30 3154 S 307.124 -0.807507 4.31306 0
M  V30 3155 H 303.942 -0.0213845 0.710678 0
M  V30 3156 H 306.544 0.624098 1.85271 0
M  V30 3157 H 305.248 0.649461 4.05229 0
M  V30 3158 H 304.779 -1.03825 3.79452 0
M  V30 3159 H 306.794 -2.0824 4.50389 0
M  V30 3160 N 305.967 -1.56429 0.191757 0
M  V30 3161 C 306.917 -2.15548 -0.743184 0
M  V30 3162 C 307.901 -1.09531 -1.17863 0
M  V30 3163 O 309.093 -1.35602 -1.13759 0
M  V30 3164 C 306.222 -2.81577 -1.96391 0
M  V30 3165 C 305.308 -3.9478 -1.54951 0
M  V30 3166 N 305.699 -4.98677 -0.845876 0
M  V30 3167 C 303.997 -4.06319 -1.83905 0
M  V30 3168 C 304.698 -5.78183 -0.638724 0
M  V30 3169 N 303.674 -5.30495 -1.18643 0
M  V30 3170 H 307.476 -2.9324 -0.196839 0
M  V30 3171 H 304.99 -1.62398 -0.0081603 0
M  V30 3172 H 306.987 -3.22321 -2.64415 0
M  V30 3173 H 305.647 -2.05371 -2.51501 0
M  V30 3174 H 306.658 -5.15464 -0.501704 0
M  V30 3175 H 303.335 -3.41238 -2.40548 0
M  V30 3176 H 304.725 -6.71851 -0.0807929 0
M  V30 3177 N 307.445 0.0818655 -1.57387 0
M  V30 3178 C 308.395 1.10501 -1.99433 0
M  V30 3179 C 309.379 1.35041 -0.874798 0
M  V30 3180 O 310.571 1.35511 -1.13868 0
M  V30 3181 C 307.7 2.42159 -2.43339 0
M  V30 3182 C 306.786 2.20937 -3.62005 0
M  V30 3183 N 307.177 1.69616 -4.76512 0
M  V30 3184 C 305.475 2.51451 -3.68359 0
M  V30 3185 C 306.176 1.62973 -5.58404 0
M  V30 3186 N 305.152 2.08664 -5.01956 0
M  V30 3187 H 308.954 0.701373 -2.85408 0
M  V30 3188 H 306.468 0.289096 -1.59806 0
M  V30 3189 H 308.465 3.16208 -2.71695 0
M  V30 3190 H 307.125 2.83249 -1.58746 0
M  V30 3191 H 308.136 1.38624 -4.99003 0
M  V30 3192 H 304.813 2.95975 -2.94457 0
M  V30 3193 H 306.203 1.24233 -6.60315 0
M  V30 3194 N 308.923 1.53595 0.353017 0
M  V30 3195 C 309.853 1.83902 1.43883 0
M  V30 3196 C 310.834 0.693421 1.55324 0
M  V30 3197 O 312.019 0.944452 1.69687 0
M  V30 3198 C 309.149 2.04016 2.8106 0
M  V30 3199 C 308.103 3.19814 2.84434 0
M  V30 3200 C 307.429 3.25244 4.24406 0
M  V30 3201 C 308.729 4.58133 2.50822 0
M  V30 3202 H 310.423 2.74835 1.1877 0
M  V30 3203 H 307.969 1.32242 0.569917 0
M  V30 3204 H 309.922 2.238 3.57059 0
M  V30 3205 H 308.646 1.09804 3.07588 0
M  V30 3206 H 307.305 2.9987 2.10887 0
M  V30 3207 H 306.953 2.28646 4.48029 0
M  V30 3208 H 306.653 4.03054 4.27576 0
M  V30 3209 H 308.177 3.47228 5.0226 0
M  V30 3210 H 309.591 4.77995 3.16534 0
M  V30 3211 H 307.988 5.38276 2.6529 0
M  V30 3212 H 309.058 4.62387 1.46034 0
M  V30 3213 N 310.401 -0.613514 1.45168 0
M  V30 3214 C 311.647 -1.37471 1.49096 0
M  V30 3215 C 311.98 -1.93765 0.129901 0
M  V30 3216 O 311.255 -1.74707 -0.854858 0
M  V30 3217 C 311.538 -2.52701 2.56542 0
M  V30 3218 C 311.391 -2.01643 4.0207 0
M  V30 3219 C 312.71 -3.54849 2.60327 0
M  V30 3220 H 309.829 -0.498502 0.54283 0
M  V30 3221 H 312.471 -0.692125 1.76945 0
M  V30 3222 H 310.621 -3.10931 2.32926 0
M  V30 3223 H 312.293 -1.48108 4.36877 0
M  V30 3224 H 310.536 -1.32688 4.13009 0
M  V30 3225 H 311.207 -2.84681 4.72928 0
M  V30 3226 H 313.683 -3.0645 2.81474 0
M  V30 3227 H 312.559 -4.32973 3.37381 0
M  V30 3228 H 312.82 -4.10079 1.6519 0
M  V30 3229 N 311.879 -1.3236 -0.855495 0
M  V30 3230 C 313.107 -1.2587 -1.64208 0
M  V30 3231 C 313.522 0.173457 -1.88002 0
M  V30 3232 O 312.879 1.11027 -1.44842 0
M  V30 3233 C 312.93 -2.01424 -3.00184 0
M  V30 3234 O 312.651 -3.39051 -2.77445 0
M  V30 3235 C 314.152 -2.01948 -3.94629 0
M  V30 3236 H 311.372 -0.434318 -0.511477 0
M  V30 3237 H 313.916 -1.74469 -1.0668 0
M  V30 3238 H 312.071 -1.56549 -3.5436 0
M  V30 3239 H 312.485 -3.77711 -3.63916 0
M  V30 3240 H 313.959 -2.59297 -4.87308 0
M  V30 3241 H 314.436 -1.00554 -4.27534 0
M  V30 3242 H 315.042 -2.46767 -3.4639 0
M  V30 3243 N 313.357 1.07166 -1.15556 0
M  V30 3244 C 314.304 2.14417 -0.854055 0
M  V30 3245 C 315.274 1.64965 0.193806 0
M  V30 3246 O 316.459 1.90703 0.0609443 0
M  V30 3247 C 313.599 3.43304 -0.351574 0
M  V30 3248 C 312.712 4.06537 -1.46123 0
M  V30 3249 C 311.847 5.23266 -0.914677 0
M  V30 3250 C 310.886 5.78464 -2.00114 0
M  V30 3251 N 310.023 6.86521 -1.47083 0
M  V30 3252 H 314.863 2.39548 -1.77259 0
M  V30 3253 H 312.4 1.17543 -0.884425 0
M  V30 3254 H 314.358 4.17179 -0.0419409 0
M  V30 3255 H 312.988 3.18419 0.530037 0
M  V30 3256 H 312.04 3.30297 -1.88701 0
M  V30 3257 H 313.352 4.43567 -2.28144 0
M  V30 3258 H 312.506 6.04131 -0.557698 0
M  V30 3259 H 311.245 4.87658 -0.0636583 0
M  V30 3260 H 310.25 4.96243 -2.36692 0
M  V30 3261 H 311.475 6.16126 -2.85597 0
M  V30 3262 H 309.421 6.52849 -0.642198 0
M  V30 3263 H 309.338 7.22446 -2.22729 0
M  V30 3264 H 310.606 7.71087 -1.14215 0
M  V30 3265 N 314.835 0.952656 1.25548 0
M  V30 3266 C 316.082 0.606373 1.93208 0
M  V30 3267 C 316.41 -0.85631 1.74636 0
M  V30 3268 O 315.665 -1.62951 1.08376 0
M  V30 3269 C 315.964 0.908818 3.45652 0
M  V30 3270 C 315.63 2.35722 3.84378 0
M  V30 3271 C 314.292 2.75312 3.9466 0
M  V30 3272 C 316.644 3.29793 4.03591 0
M  V30 3273 C 313.972 4.08047 4.21562 0
M  V30 3274 C 316.324 4.62138 4.31985 0
M  V30 3275 C 314.988 5.01528 4.40484 0
M  V30 3276 H 314.258 0.221888 0.706998 0
M  V30 3277 H 316.905 1.20132 1.49133 0
M  V30 3278 H 315.21 0.231456 3.91116 0
M  V30 3279 H 316.907 0.619498 3.96186 0
M  V30 3280 H 313.497 2.04017 3.76928 0
M  V30 3281 H 317.681 3.00397 3.95064 0
M  V30 3282 H 312.937 4.38212 4.26357 0
M  V30 3283 H 317.111 5.35012 4.45797 0
M  V30 3284 H 314.738 6.04406 4.61083 0
M  V30 3285 N 316.313 -1.40141 0.720998 0
M  V30 3286 C 317.59 -1.94677 0.189757 0
M  V30 3287 C 317.97 -1.65879 -1.30566 0
M  V30 3288 O 317.318 -0.979391 -2.06447 0
M  V30 3289 C 317.528 -3.45279 0.508304 0
M  V30 3290 C 318.876 -4.22209 0.449934 0
M  V30 3291 O 319.9 -3.53413 0.444677 0
M  V30 3292 O 318.759 -5.44788 0.432189 0
M  V30 3293 H 315.853 -0.826459 0.0299026 0
M  V30 3294 H 318.399 -1.49719 0.7989 0
M  V30 3295 H 317.171 -3.59619 1.54239 0
M  V30 3296 H 316.794 -3.97386 -0.130525 0
M  V30 3297 N 317.792 -0.46758 -1.50504 0
M  V30 3298 C 319.203 -0.0116166 -1.86696 0
M  V30 3299 C 319.554 1.39202 -1.38265 0
M  V30 3300 O 318.679 2.0313 -0.746132 0
M  V30 3301 C 319.274 -0.0143044 -3.38797 0
M  V30 3302 C 317.833 0.386175 -3.74414 0
M  V30 3303 C 316.98 -0.401287 -2.74381 0
M  V30 3304 H 319.931 -0.682022 -1.43297 0
M  V30 3305 H 319.952 0.788641 -3.72237 0
M  V30 3306 H 319.464 -1.03602 -3.74016 0
M  V30 3307 H 317.565 1.41237 -3.44794 0
M  V30 3308 H 317.678 0.0899596 -4.79016 0
M  V30 3309 H 316.042 0.144536 -2.5429 0
M  V30 3310 H 316.825 -1.42244 -3.12444 0
M  V30 3311 N 319.27 1.56325 -0.20005 0
M  V30 3312 C 320.547 1.89484 0.48529 0
M  V30 3313 C 320.927 1.1143 1.79294 0
M  V30 3314 O 320.275 0.216919 2.27468 0
M  V30 3315 C 320.485 3.41923 0.699243 0
M  V30 3316 C 321.833 4.12256 1.01638 0
M  V30 3317 O 322.857 3.47402 0.786792 0
M  V30 3318 O 321.716 5.26887 1.45095 0
M  V30 3319 H 318.81 0.787144 0.253639 0
M  V30 3320 H 321.356 1.67985 -0.240633 0
M  V30 3321 H 320.128 3.90658 -0.224008 0
M  V30 3322 H 319.751 3.69131 1.47744 0
M  V30 3323 N 320.748 -0.0735177 1.57428 0
M  V30 3324 C 321.678 -1.0879 2.06608 0
M  V30 3325 C 322.659 -1.40473 0.959237 0
M  V30 3326 O 323.844 -1.5013 1.23185 0
M  V30 3327 C 320.974 -2.40183 2.50857 0
M  V30 3328 C 319.928 -2.22858 3.65402 0
M  V30 3329 C 319.254 -3.59619 3.957 0
M  V30 3330 C 320.554 -1.65123 4.95511 0
M  V30 3331 H 322.248 -0.678673 2.91607 0
M  V30 3332 H 319.794 -0.325013 1.40284 0
M  V30 3333 H 321.747 -3.11437 2.83874 0
M  V30 3334 H 320.471 -2.83083 1.62885 0
M  V30 3335 H 319.13 -1.54045 3.32664 0
M  V30 3336 H 318.778 -4.00086 3.04861 0
M  V30 3337 H 318.478 -3.48866 4.72828 0
M  V30 3338 H 320.002 -4.32306 4.31212 0
M  V30 3339 H 321.416 -2.26241 5.26771 0
M  V30 3340 H 319.813 -1.65071 5.7695 0
M  V30 3341 H 320.883 -0.612559 4.81015 0
M  V30 3342 N 322.226 -1.5378 -0.344866 0
M  V30 3343 C 323.503 -1.61589 -1.10219 0
M  V30 3344 C 323.883 -0.436316 -2.06542 0
M  V30 3345 O 323.231 0.571543 -2.21237 0
M  V30 3346 C 323.441 -2.97602 -1.82301 0
M  V30 3347 C 324.789 -3.5291 -2.36093 0
M  V30 3348 O 325.813 -2.99768 -1.924 0
M  V30 3349 O 324.672 -4.45859 -3.16026 0
M  V30 3350 H 321.766 -0.653522 -0.506792 0
M  V30 3351 H 324.312 -1.66126 -0.346465 0
M  V30 3352 H 323.084 -3.74893 -1.12121 0
M  V30 3353 H 322.707 -2.9665 -2.64735 0
M  V30 3354 N 323.704 0.605807 -1.45491 0
M  V30 3355 C 324.634 1.72709 -1.57143 0
M  V30 3356 C 325.615 1.6476 -0.422884 0
M  V30 3357 O 326.8 1.83132 -0.646247 0
M  V30 3358 C 323.93 3.11316 -1.53948 0
M  V30 3359 C 322.884 3.34077 -2.67537 0
M  V30 3360 C 322.21 4.72975 -2.49397 0
M  V30 3361 C 323.51 3.24158 -4.09535 0
M  V30 3362 H 325.204 1.63214 -2.51001 0
M  V30 3363 H 322.75 0.78379 -1.208 0
M  V30 3364 H 324.703 3.89557 -1.60696 0
M  V30 3365 H 323.427 3.21655 -0.566205 0
M  V30 3366 H 322.086 2.58227 -2.6022 0
M  V30 3367 H 321.734 4.8005 -1.50205 0
M  V30 3368 H 321.434 4.8916 -3.25571 0
M  V30 3369 H 322.958 5.53414 -2.58002 0
M  V30 3370 H 324.372 3.92271 -4.18086 0
M  V30 3371 H 322.769 3.51872 -4.86113 0
M  V30 3372 H 323.839 2.2157 -4.31317 0
M  V30 3373 N 325.182 1.32811 0.848464 0
M  V30 3374 C 326.459 1.14334 1.58704 0
M  V30 3375 C 326.839 -0.293948 2.09043 0
M  V30 3376 O 326.187 -1.29153 1.88499 0
M  V30 3377 C 326.397 2.17626 2.72837 0
M  V30 3378 C 327.745 2.51282 3.42261 0
M  V30 3379 O 328.769 2.16219 2.83068 0
M  V30 3380 O 327.628 3.11413 4.49093 0
M  V30 3381 H 324.722 0.441601 0.699226 0
M  V30 3382 H 327.268 1.44362 0.892053 0
M  V30 3383 H 326.04 3.14211 2.3321 0
M  V30 3384 H 325.663 1.88628 3.50008 0
M  V30 3385 N 326.66 -1.06551 1.16123 0
M  V30 3386 C 327.61 -2.12209 0.833736 0
M  V30 3387 C 328.594 -1.59825 -0.185656 0
M  V30 3388 O 329.786 -1.76994 0.0147906 0
M  V30 3389 C 326.915 -3.41674 0.333697 0
M  V30 3390 C 326.001 -4.00892 1.38372 0
M  V30 3391 N 326.392 -4.34256 2.59337 0
M  V30 3392 C 324.69 -4.28463 1.23836 0
M  V30 3393 C 325.391 -4.81291 3.26701 0
M  V30 3394 N 324.367 -4.80565 2.54083 0
M  V30 3395 H 328.169 -2.35849 1.75364 0
M  V30 3396 H 325.683 -1.24068 1.04789 0
M  V30 3397 H 327.68 -4.16822 0.0806918 0
M  V30 3398 H 326.34 -3.19475 -0.58017 0
M  V30 3399 H 327.351 -4.24687 2.96415 0
M  V30 3400 H 324.028 -4.15721 0.38504 0
M  V30 3401 H 325.418 -5.16332 4.29943 0
M  V30 3402 N 328.138 -0.959301 -1.25041 0
M  V30 3403 C 329.549 -0.65667 -1.74771 0
M  V30 3404 C 329.9 0.827852 -1.77879 0
M  V30 3405 O 329.025 1.64783 -1.40269 0
M  V30 3406 C 329.62 -1.1853 -3.1739 0
M  V30 3407 C 328.179 -0.932734 -3.6466 0
M  V30 3408 C 327.326 -1.32558 -2.43564 0
M  V30 3409 H 330.277 -1.13558 -1.10862 0
M  V30 3410 H 330.298 -0.547582 -3.76539 0
M  V30 3411 H 329.81 -2.26576 -3.15095 0
M  V30 3412 H 327.911 0.13257 -3.72364 0
M  V30 3413 H 328.024 -1.57248 -4.52559 0
M  V30 3414 H 326.388 -0.743956 -2.43593 0
M  V30 3415 H 327.171 -2.41537 -2.43957 0
M  V30 3416 N 329.616 1.39756 -0.72842 0
M  V30 3417 C 330.864 2.00248 -0.272946 0
M  V30 3418 C 331.185 1.58077 1.14178 0
M  V30 3419 O 330.455 0.826014 1.77634 0
M  V30 3420 H 329.035 0.740554 -0.0979247 0
M  V30 3421 H 331.697 1.70903 -0.936912 0
M  V30 3422 H 330.793 3.10495 -0.316142 0
M  V30 3423 N 331.094 0.475555 1.50254 0
M  V30 3424 C 332.341 -0.0778919 2.0235 0
M  V30 3425 C 332.669 -1.39319 1.35722 0
M  V30 3426 O 331.924 -1.89888 0.473395 0
M  V30 3427 C 332.223 -0.305114 3.56095 0
M  V30 3428 C 331.889 0.92903 4.41225 0
M  V30 3429 C 330.551 1.26739 4.6421 0
M  V30 3430 C 332.903 1.75054 4.90923 0
M  V30 3431 C 330.231 2.42724 5.34137 0
M  V30 3432 C 332.583 2.9017 5.62125 0
M  V30 3433 C 331.247 3.24416 5.83362 0
M  V30 3434 H 330.517 -0.0285027 0.740452 0
M  V30 3435 H 333.164 0.630543 1.80821 0
M  V30 3436 H 331.469 -1.09584 3.76163 0
M  V30 3437 H 333.166 -0.747377 3.93974 0
M  V30 3438 H 329.756 0.655428 4.23559 0
M  V30 3439 H 333.94 1.50231 4.73016 0
M  V30 3440 H 329.196 2.69525 5.48786 0
M  V30 3441 H 333.37 3.54169 5.99614 0
M  V30 3442 H 330.997 4.14396 6.37323 0
M  V30 3443 N 332.573 -1.56217 0.208337 0
M  V30 3444 C 333.798 -2.02782 -0.435222 0
M  V30 3445 C 334.223 -1.08738 -1.53485 0
M  V30 3446 O 333.581 -0.0731855 -1.81152 0
M  V30 3447 C 333.629 -3.47687 -0.956335 0
M  V30 3448 O 332.733 -3.56773 -2.06849 0
M  V30 3449 H 332.074 -0.656403 -0.100158 0
M  V30 3450 H 334.604 -2.02033 0.3231 0
M  V30 3451 H 334.614 -3.87745 -1.26955 0
M  V30 3452 H 333.289 -4.15624 -0.15143 0
M  V30 3453 H 331.866 -3.28597 -1.76292 0
M  V30 3454 N 334.051 0.0651679 -1.57465 0
M  V30 3455 C 335.328 0.79644 -1.78651 0
M  V30 3456 C 335.708 1.95454 -0.797566 0
M  V30 3457 O 335.056 2.27882 0.167946 0
M  V30 3458 C 335.266 1.26322 -3.25337 0
M  V30 3459 C 336.614 1.6939 -3.89348 0
M  V30 3460 O 337.638 1.35872 -3.29268 0
M  V30 3461 O 336.497 2.31471 -4.95059 0
M  V30 3462 H 333.591 0.382157 -0.733407 0
M  V30 3463 H 336.137 0.0447311 -1.69641 0
M  V30 3464 H 334.909 0.434859 -3.88876 0
M  V30 3465 H 334.532 2.07604 -3.39096 0
M  V30 3466 N 335.529 1.53961 0.336706 0
M  V30 3467 C 336.461 1.78751 1.4346 0
M  V30 3468 C 337.474 0.669019 1.48418 0
M  V30 3469 O 338.663 0.945884 1.51378 0
M  V30 3470 C 335.763 1.87844 2.82078 0
M  V30 3471 C 334.936 3.17854 3.00479 0
M  V30 3472 C 333.995 3.17816 4.19379 0
M  V30 3473 O 333.021 3.91511 4.13168 0
M  V30 3474 N 334.223 2.40669 5.2826 0
M  V30 3475 H 336.988 2.73493 1.22563 0
M  V30 3476 H 334.549 1.53096 0.526625 0
M  V30 3477 H 336.541 1.85261 3.59806 0
M  V30 3478 H 335.111 1.00257 2.96086 0
M  V30 3479 H 334.331 3.33504 2.10163 0
M  V30 3480 H 335.619 4.03718 3.0966 0
M  V30 3481 H 335.017 1.8036 5.36178 0
M  V30 3482 H 333.574 2.43877 6.04456 0
M  V30 3483 N 337.007 -0.598083 1.45811 0
M  V30 3484 C 338.253 -1.35882 1.50545 0
M  V30 3485 C 338.586 -1.93616 0.150445 0
M  V30 3486 O 337.861 -1.75604 -0.83628 0
M  V30 3487 C 338.144 -2.49966 2.59208 0
M  V30 3488 C 337.997 -1.97367 4.04186 0
M  V30 3489 C 339.316 -3.52068 2.64076 0
M  V30 3490 H 336.435 -0.492717 0.548087 0
M  V30 3491 H 339.077 -0.673319 1.77669 0
M  V30 3492 H 337.227 -3.08443 2.3621 0
M  V30 3493 H 338.899 -1.43466 4.38423 0
M  V30 3494 H 337.142 -1.283 4.14393 0
M  V30 3495 H 337.813 -2.79649 4.75921 0
M  V30 3496 H 340.289 -3.03448 2.84708 0
M  V30 3497 H 339.165 -4.2937 3.41954 0
M  V30 3498 H 339.426 -4.08304 1.69531 0
M  V30 3499 N 338.485 -1.33259 -0.841409 0
M  V30 3500 C 339.715 -1.2742 -1.62628 0
M  V30 3501 C 340.123 0.157604 -1.88542 0
M  V30 3502 O 339.466 1.10938 -1.46419 0
M  V30 3503 C 339.528 -1.97797 -3.00194 0
M  V30 3504 C 339.192 -3.47109 -2.97261 0
M  V30 3505 C 340.189 -4.42358 -2.73159 0
M  V30 3506 C 337.874 -3.89247 -3.17478 0
M  V30 3507 C 339.868 -5.77718 -2.69296 0
M  V30 3508 C 337.555 -5.24713 -3.13241 0
M  V30 3509 C 338.553 -6.1876 -2.89181 0
M  V30 3510 O 338.241 -7.51745 -2.84843 0
M  V30 3511 H 337.973 -0.440436 -0.512827 0
M  V30 3512 H 340.527 -1.76153 -1.05638 0
M  V30 3513 H 338.757 -1.43652 -3.59028 0
M  V30 3514 H 340.446 -1.8549 -3.61038 0
M  V30 3515 H 341.212 -4.11127 -2.57294 0
M  V30 3516 H 337.091 -3.16456 -3.35226 0
M  V30 3517 H 340.635 -6.51097 -2.50436 0
M  V30 3518 H 336.532 -5.55569 -3.28654 0
M  V30 3519 H 337.3 -7.61262 -3.00702 0
M  V30 3520 N 339.963 1.05934 -1.16686 0
M  V30 3521 C 341.379 1.30938 -0.912542 0
M  V30 3522 C 341.579 1.96803 0.432533 0
M  V30 3523 O 340.635 2.23693 1.17123 0
M  V30 3524 C 341.948 2.18649 -2.06429 0
M  V30 3525 C 343.496 2.32055 -2.10047 0
M  V30 3526 C 343.971 3.23122 -3.24586 0
M  V30 3527 N 345.462 3.30706 -3.24327 0
M  V30 3528 C 346.197 4.01273 -4.09594 0
M  V30 3529 N 345.693 4.74332 -5.04956 0
M  V30 3530 N 347.486 3.97361 -3.97569 0
M  V30 3531 H 339.637 0.615777 -2.03278 0
M  V30 3532 H 341.9 0.334077 -0.887185 0
M  V30 3533 H 341.606 1.77534 -3.03603 0
M  V30 3534 H 341.48 3.19252 -2.00894 0
M  V30 3535 H 343.867 2.72415 -1.13464 0
M  V30 3536 H 343.948 1.31107 -2.19647 0
M  V30 3537 H 343.592 2.83477 -4.2143 0
M  V30 3538 H 343.522 4.24057 -3.12223 0
M  V30 3539 H 346.013 2.78644 -2.55276 0
M  V30 3540 H 346.326 5.25716 -5.6643 0
M  V30 3541 H 344.671 4.733 -5.08933 0
M  V30 3542 H 347.862 3.39405 -3.22369 0
M  V30 3543 H 348.035 4.52089 -4.64241 0
M  V30 3544 N 341.441 0.965919 1.2453 0
M  V30 3545 C 342.373 0.452465 2.2469 0
M  V30 3546 C 343.386 -0.437821 1.56802 0
M  V30 3547 O 344.575 -0.244283 1.76821 0
M  V30 3548 C 341.675 -0.366258 3.36915 0
M  V30 3549 C 340.848 0.513701 4.34373 0
M  V30 3550 C 339.907 -0.248716 5.25612 0
M  V30 3551 O 338.933 0.356745 5.68081 0
M  V30 3552 N 340.135 -1.53877 5.59734 0
M  V30 3553 H 342.9 1.31361 2.69378 0
M  V30 3554 H 340.461 0.837541 1.38553 0
M  V30 3555 H 342.453 -0.884297 3.94921 0
M  V30 3556 H 341.023 -1.12832 2.91526 0
M  V30 3557 H 340.243 1.21273 3.75082 0
M  V30 3558 H 341.531 1.11391 4.96457 0
M  V30 3559 H 340.929 -2.05243 5.27154 0
M  V30 3560 H 339.486 -2.00254 6.20275 0
M  V30 3561 N 342.919 -1.39368 0.735821 0
M  V30 3562 C 344.335 -1.54204 0.411492 0
M  V30 3563 C 344.535 -1.70268 -1.07755 0
M  V30 3564 O 343.591 -1.70364 -1.86366 0
M  V30 3565 C 344.904 -2.75925 1.19523 0
M  V30 3566 C 346.452 -2.89761 1.18354 0
M  V30 3567 C 346.927 -4.14421 1.94986 0
M  V30 3568 N 348.418 -4.21462 1.92156 0
M  V30 3569 C 349.153 -5.16871 2.48258 0
M  V30 3570 N 348.649 -6.18063 3.13001 0
M  V30 3571 N 350.442 -5.09093 2.38287 0
M  V30 3572 H 342.593 -1.27189 1.70108 0
M  V30 3573 H 344.856 -0.616517 0.720147 0
M  V30 3574 H 344.562 -2.70401 2.24892 0
M  V30 3575 H 344.436 -3.68614 0.800222 0
M  V30 3576 H 346.823 -2.94777 0.137975 0
M  V30 3577 H 346.904 -1.98133 1.61793 0
M  V30 3578 H 346.548 -4.10166 2.99543 0
M  V30 3579 H 346.478 -5.05095 1.48953 0
M  V30 3580 H 348.969 -3.48979 1.44991 0
M  V30 3581 H 349.282 -6.87326 3.53275 0
M  V30 3582 H 347.627 -6.18448 3.17091 0
M  V30 3583 H 350.818 -4.28973 1.8735 0
M  V30 3584 H 350.991 -5.83272 2.82308 0
M  V30 3585 N 344.397 -0.483516 -1.5 0
M  V30 3586 C 345.813 -0.138404 -1.58999 0
M  V30 3587 C 346.013 1.35597 -1.4905 0
M  V30 3588 O 345.069 2.13039 -1.35539 0
M  V30 3589 C 346.382 -0.699658 -2.92447 0
M  V30 3590 C 347.93 -0.664195 -3.05872 0
M  V30 3591 C 348.405 -1.20321 -4.41913 0
M  V30 3592 N 349.896 -1.16315 -4.48358 0
M  V30 3593 C 350.631 -1.55058 -5.52037 0
M  V30 3594 N 350.127 -2.01311 -6.62907 0
M  V30 3595 N 351.92 -1.46584 -5.42651 0
M  V30 3596 H 344.071 -1.45529 -1.5471 0
M  V30 3597 H 346.334 -0.60258 -0.731848 0
M  V30 3598 H 346.04 -1.747 -3.05242 0
M  V30 3599 H 345.914 -0.150194 -3.76901 0
M  V30 3600 H 348.301 0.374272 -2.92717 0
M  V30 3601 H 348.382 -1.25061 -2.23144 0
M  V30 3602 H 348.026 -2.24037 -4.55818 0
M  V30 3603 H 347.956 -0.592896 -5.23252 0
M  V30 3604 H 350.447 -0.824058 -3.68806 0
M  V30 3605 H 350.76 -2.2899 -7.38095 0
M  V30 3606 H 349.105 -2.05273 -6.63994 0
M  V30 3607 H 352.296 -1.10281 -4.54924 0
M  V30 3608 H 352.469 -1.77103 -6.23329 0
M  V30 3609 N 345.875 1.56104 -0.216619 0
M  V30 3610 C 346.822 2.2007 0.695531 0
M  V30 3611 C 347.792 1.15471 1.19397 0
M  V30 3612 O 348.977 1.43807 1.25396 0
M  V30 3613 C 346.117 2.88073 1.90021 0
M  V30 3614 C 345.23 4.07253 1.44113 0
M  V30 3615 C 344.365 4.63052 2.603 0
M  V30 3616 C 343.404 5.74545 2.11103 0
M  V30 3617 N 342.541 6.24656 3.20545 0
M  V30 3618 H 347.381 2.97655 0.143327 0
M  V30 3619 H 344.918 1.46982 0.0589934 0
M  V30 3620 H 346.876 3.25681 2.60745 0
M  V30 3621 H 345.506 2.13015 2.42538 0
M  V30 3622 H 344.558 3.75164 0.628999 0
M  V30 3623 H 345.87 4.8783 1.04036 0
M  V30 3624 H 345.024 5.03078 3.39113 0
M  V30 3625 H 343.763 3.81628 3.03663 0
M  V30 3626 H 342.768 5.34027 1.3075 0
M  V30 3627 H 343.993 6.57801 1.68746 0
M  V30 3628 H 341.939 5.46148 3.63399 0
M  V30 3629 H 341.856 7.00343 2.84704 0
M  V30 3630 H 343.124 6.69338 3.99508 0
M  V30 3631 N 347.353 -0.0568162 1.57498 0
M  V30 3632 C 348.283 -1.06593 2.0775 0
M  V30 3633 C 349.264 -1.39448 0.974082 0
M  V30 3634 O 350.449 -1.48815 1.24771 0
M  V30 3635 C 347.579 -2.37509 2.5339 0
M  V30 3636 C 346.533 -2.1897 3.67745 0
M  V30 3637 C 345.859 -3.55402 3.99492 0
M  V30 3638 C 347.159 -1.59859 4.97235 0
M  V30 3639 H 348.853 -0.647706 2.9231 0
M  V30 3640 H 346.399 -0.310116 1.40621 0
M  V30 3641 H 348.352 -3.08409 2.87162 0
M  V30 3642 H 347.076 -2.8134 1.65878 0
M  V30 3643 H 345.735 -1.50508 3.3428 0
M  V30 3644 H 345.383 -3.9683 3.09088 0
M  V30 3645 H 345.083 -3.43831 4.76502 0
M  V30 3646 H 346.607 -4.27708 4.35773 0
M  V30 3647 H 348.021 -2.20642 5.29141 0
M  V30 3648 H 346.418 -1.58942 5.78669 0
M  V30 3649 H 347.488 -0.561506 4.81638 0
M  V30 3650 N 348.832 -1.54138 -0.328536 0
M  V30 3651 C 350.081 -1.71318 -1.06456 0
M  V30 3652 C 350.394 -0.491109 -1.89334 0
M  V30 3653 O 351.6 -0.54416 -2.65991 0
M  V30 3654 C 350.056 -3.03 -1.94214 0
M  V30 3655 C 349.664 -4.32595 -1.16471 0
M  V30 3656 C 351.408 -3.29544 -2.67583 0
M  V30 3657 C 349.315 -5.55341 -2.03347 0
M  V30 3658 H 348.245 -0.638429 -0.401155 0
M  V30 3659 H 350.896 -1.80633 -0.323106 0
M  V30 3660 H 349.278 -2.87579 -2.72239 0
M  V30 3661 H 350.452 -4.58766 -0.432525 0
M  V30 3662 H 348.767 -4.12777 -0.548063 0
M  V30 3663 H 351.364 -4.18444 -3.3288 0
M  V30 3664 H 351.707 -2.47206 -3.34955 0
M  V30 3665 H 352.24 -3.45809 -1.96623 0
M  V30 3666 H 348.979 -6.40268 -1.40491 0
M  V30 3667 H 348.499 -5.33397 -2.74313 0
M  V30 3668 H 350.178 -5.91557 -2.62049 0
M  V30 3669 N 350.31 0.590341 -1.46126 0
M  V30 3670 C 351.273 1.68194 -1.55703 0
M  V30 3671 C 352.273 1.54808 -0.434868 0
M  V30 3672 O 353.463 1.59564 -0.698928 0
M  V30 3673 C 350.595 3.07575 -1.47005 0
M  V30 3674 H 351.788 1.61064 -2.52979 0
M  V30 3675 H 349.341 0.807541 -1.33823 0
M  V30 3676 H 350.076 3.20268 -0.509785 0
M  V30 3677 H 349.861 3.187 -2.28414 0
M  V30 3678 H 351.351 3.87055 -1.56776 0
M  V30 3679 N 351.788 1.33704 0.83433 0
M  V30 3680 C 352.698 1.26382 1.97648 0
M  V30 3681 C 353.714 0.173548 1.73132 0
M  V30 3682 O 354.89 0.397962 1.97429 0
M  V30 3683 C 351.955 1.00769 3.31733 0
M  V30 3684 C 351.016 2.1884 3.69334 0
M  V30 3685 C 350.249 1.9444 4.9702 0
M  V30 3686 O 350.472 0.896961 5.63303 0
M  V30 3687 O 349.406 2.81093 5.32231 0
M  V30 3688 H 353.232 2.22444 2.06767 0
M  V30 3689 H 350.817 1.13795 0.968037 0
M  V30 3690 H 352.699 0.882186 4.12062 0
M  V30 3691 H 351.374 0.0773783 3.23608 0
M  V30 3692 H 350.281 2.36946 2.89495 0
M  V30 3693 H 351.614 3.10221 3.82131 0
M  V30 3694 N 353.266 -1.05314 1.17247 0
M  V30 3695 C 354.515 -1.77685 0.954521 0
M  V30 3696 C 354.828 -1.88616 -0.518025 0
M  V30 3697 O 356.034 -2.57714 -0.854144 0
M  V30 3698 C 354.49 -3.19402 1.65863 0
M  V30 3699 C 354.098 -3.16605 3.16963 0
M  V30 3700 C 355.842 -3.96237 1.52303 0
M  V30 3701 C 353.749 -4.53103 3.80068 0
M  V30 3702 H 352.679 -0.666 0.353496 0
M  V30 3703 H 355.33 -1.1805 1.40486 0
M  V30 3704 H 353.712 -3.79355 1.13602 0
M  V30 3705 H 354.886 -2.66176 3.76148 0
M  V30 3706 H 353.201 -2.53268 3.30521 0
M  V30 3707 H 355.798 -4.97157 1.96822 0
M  V30 3708 H 356.141 -4.136 0.473401 0
M  V30 3709 H 356.674 -3.42829 2.01775 0
M  V30 3710 H 353.413 -4.40946 4.85023 0
M  V30 3711 H 352.933 -5.03686 3.2567 0
M  V30 3712 H 354.612 -5.22045 3.82202 0
M  V30 3713 N 354.744 -0.972509 -1.24016 0
M  V30 3714 C 355.707 -0.511403 -2.23422 0
M  V30 3715 C 356.707 0.394679 -1.55881 0
M  V30 3716 O 357.897 0.189469 -1.73167 0
M  V30 3717 C 355.029 0.258769 -3.39916 0
M  V30 3718 H 356.222 -1.39024 -2.6573 0
M  V30 3719 H 353.775 -0.757585 -1.36713 0
M  V30 3720 H 354.51 1.1545 -3.03054 0
M  V30 3721 H 354.295 -0.391522 -3.9014 0
M  V30 3722 H 355.785 0.570244 -4.13688 0
M  V30 3723 N 356.222 1.38976 -0.743202 0
M  V30 3724 C 357.469 2.00343 -0.294752 0
M  V30 3725 C 357.797 1.58983 1.12047 0
M  V30 3726 O 357.052 0.813809 1.77977 0
M  V30 3727 C 357.351 3.55647 -0.353517 0
M  V30 3728 C 357.017 4.16685 -1.72292 0
M  V30 3729 C 355.679 4.3307 -2.09771 0
M  V30 3730 C 358.031 4.50464 -2.62168 0
M  V30 3731 C 355.359 4.80526 -3.36618 0
M  V30 3732 C 357.711 4.99332 -3.88395 0
M  V30 3733 C 356.375 5.13924 -4.25956 0
M  V30 3734 H 355.645 0.733108 -0.107857 0
M  V30 3735 H 358.292 1.6618 -0.951651 0
M  V30 3736 H 356.597 3.89884 0.386954 0
M  V30 3737 H 358.294 4.00998 0.0117269 0
M  V30 3738 H 354.884 4.04339 -1.42155 0
M  V30 3739 H 359.068 4.37416 -2.3448 0
M  V30 3740 H 354.324 4.90008 -3.65653 0
M  V30 3741 H 358.498 5.2444 -4.58187 0
M  V30 3742 H 356.125 5.50457 -5.2431 0
M  V30 3743 N 357.7 0.491464 1.49741 0
M  V30 3744 C 358.632 -0.328609 2.26832 0
M  V30 3745 C 359.645 -0.939113 1.32983 0
M  V30 3746 O 360.834 -0.824067 1.58339 0
M  V30 3747 C 357.934 -1.47675 3.05033 0
M  V30 3748 C 357.107 -0.975305 4.26388 0
M  V30 3749 C 356.166 -1.99991 4.86714 0
M  V30 3750 O 355.192 -1.57229 5.47054 0
M  V30 3751 N 356.394 -3.32962 4.75517 0
M  V30 3752 H 359.159 0.332377 2.97851 0
M  V30 3753 H 356.72 0.323441 1.58636 0
M  V30 3754 H 358.712 -2.15954 3.42266 0
M  V30 3755 H 357.282 -2.04206 2.36683 0
M  V30 3756 H 356.502 -0.117723 3.94024 0
M  V30 3757 H 357.79 -0.618531 5.05026 0
M  V30 3758 H 357.188 -3.70399 4.27576 0
M  V30 3759 H 355.745 -3.96982 5.16961 0
M  V30 3760 N 359.178 -1.55987 0.224894 0
M  V30 3761 C 360.408 -2.02489 -0.41007 0
M  V30 3762 C 360.816 -1.10391 -1.53657 0
M  V30 3763 O 360.159 -0.106458 -1.83391 0
M  V30 3764 C 360.221 -3.45319 -0.999757 0
M  V30 3765 C 359.885 -4.56999 -0.00827976 0
M  V30 3766 C 360.882 -5.13812 0.793314 0
M  V30 3767 C 358.567 -5.02176 0.111442 0
M  V30 3768 C 360.561 -6.14276 1.7013 0
M  V30 3769 C 358.248 -6.02477 1.02296 0
M  V30 3770 C 359.246 -6.58403 1.81643 0
M  V30 3771 O 358.934 -7.56751 2.71262 0
M  V30 3772 H 358.666 -0.667915 -0.104235 0
M  V30 3773 H 361.22 -2.0257 0.339782 0
M  V30 3774 H 359.45 -3.42318 -1.79876 0
M  V30 3775 H 361.139 -3.7545 -1.54248 0
M  V30 3776 H 361.905 -4.79756 0.711288 0
M  V30 3777 H 357.784 -4.58323 -0.49605 0
M  V30 3778 H 361.328 -6.57854 2.32107 0
M  V30 3779 H 357.225 -6.35954 1.10599 0
M  V30 3780 H 357.993 -7.74286 2.65375 0
M  V30 3781 N 360.656 0.0484629 -1.57525 0
M  V30 3782 C 362.072 0.40375 -1.54409 0
M  V30 3783 C 362.272 1.77786 -0.948384 0
M  V30 3784 O 361.328 2.46189 -0.560983 0
M  V30 3785 C 362.641 0.323394 -2.98956 0
M  V30 3786 C 364.189 0.401892 -3.10409 0
M  V30 3787 C 364.664 0.351195 -4.56652 0
M  V30 3788 N 366.155 0.410576 -4.61377 0
M  V30 3789 C 366.89 0.393933 -5.72045 0
M  V30 3790 N 366.386 0.330724 -6.9201 0
M  V30 3791 N 368.179 0.442227 -5.60358 0
M  V30 3792 H 360.33 -0.851016 -1.94606 0
M  V30 3793 H 362.593 -0.321721 -0.89174 0
M  V30 3794 H 362.299 -0.62011 -3.4619 0
M  V30 3795 H 362.173 1.12463 -3.60044 0
M  V30 3796 H 364.56 1.33582 -2.63134 0
M  V30 3797 H 364.641 -0.428342 -2.52188 0
M  V30 3798 H 364.285 -0.578987 -5.04589 0
M  V30 3799 H 364.215 1.19928 -5.12762 0
M  V30 3800 H 366.706 0.462729 -3.75056 0
M  V30 3801 H 367.019 0.322592 -7.72126 0
M  V30 3802 H 365.364 0.29706 -6.94365 0
M  V30 3803 H 368.555 0.489464 -4.65534 0
M  V30 3804 H 368.728 0.425788 -6.466 0
M  V30 3805 N 362.134 1.5431 0.320358 0
M  V30 3806 C 363.084 1.803 1.39556 0
M  V30 3807 C 364.068 0.659166 1.46778 0
M  V30 3808 O 365.26 0.91926 1.51257 0
M  V30 3809 C 362.389 2.03665 2.76361 0
M  V30 3810 C 361.475 3.24178 2.73439 0
M  V30 3811 N 361.866 4.4516 2.40137 0
M  V30 3812 C 360.164 3.25816 3.04565 0
M  V30 3813 C 360.865 5.27109 2.4603 0
M  V30 3814 N 359.841 4.64368 2.82601 0
M  V30 3815 H 363.643 2.71416 1.12742 0
M  V30 3816 H 361.157 1.53548 0.528856 0
M  V30 3817 H 363.154 2.20425 3.53862 0
M  V30 3818 H 361.814 1.13805 3.04103 0
M  V30 3819 H 362.825 4.72104 2.12927 0
M  V30 3820 H 359.502 2.46001 3.37328 0
M  V30 3821 H 360.892 6.33728 2.23246 0
M  V30 3822 N 363.613 -0.582584 1.46437 0
M  V30 3823 C 364.861 -1.33814 1.51453 0
M  V30 3824 C 365.182 -1.94277 0.167792 0
M  V30 3825 O 364.452 -1.78566 -0.805677 0
M  V30 3826 H 363.032 -0.496838 0.557818 0
M  V30 3827 H 365.694 -0.682281 1.82568 0
M  V30 3828 H 364.79 -2.14479 2.26728 0
M  V30 3829 N 365.091 -1.34144 -0.827227 0
M  V30 3830 C 366.368 -1.16844 -1.56865 0
M  V30 3831 C 366.748 0.260654 -2.09485 0
M  V30 3832 O 366.096 1.26138 -1.9053 0
M  V30 3833 C 366.306 -2.21939 -2.6934 0
M  V30 3834 C 367.654 -2.56695 -3.3822 0
M  V30 3835 O 368.678 -2.20695 -2.79593 0
M  V30 3836 O 367.537 -3.18518 -4.44082 0
M  V30 3837 H 364.631 -0.452669 -0.692112 0
M  V30 3838 H 367.177 -1.45763 -0.868973 0
M  V30 3839 H 365.949 -3.17882 -2.28182 0
M  V30 3840 H 365.572 -1.94172 -3.46962 0
M  V30 3841 N 366.569 1.04691 -1.17803 0
M  V30 3842 C 367.98 1.59238 -0.974689 0
M  V30 3843 C 368.331 1.90306 0.477292 0
M  V30 3844 O 367.456 1.68846 1.35352 0
M  V30 3845 C 368.051 2.89318 -1.76296 0
M  V30 3846 C 366.61 3.40506 -1.60414 0
M  V30 3847 C 365.757 2.14172 -1.76141 0
M  V30 3848 H 368.708 0.874395 -1.32439 0
M  V30 3849 H 368.729 3.5944 -1.24833 0
M  V30 3850 H 368.241 2.66675 -2.81968 0
M  V30 3851 H 366.342 3.68175 -0.572519 0
M  V30 3852 H 366.455 4.14753 -2.39827 0
M  V30 3853 H 364.819 2.25176 -1.19028 0
M  V30 3854 H 365.602 1.93992 -2.83235 0
M  V30 3855 N 368.047 0.979072 1.23499 0
M  V30 3856 C 369.296 0.642751 1.91185 0
M  V30 3857 C 369.609 -0.827253 1.77245 0
M  V30 3858 O 370.815 -1.27458 2.39722 0
M  V30 3859 C 369.271 1.09901 3.42709 0
M  V30 3860 C 368.879 2.59327 3.65313 0
M  V30 3861 C 370.623 0.836371 4.16179 0
M  V30 3862 C 368.53 2.98627 5.10467 0
M  V30 3863 H 367.46 0.236698 0.715884 0
M  V30 3864 H 370.111 1.1868 1.39955 0
M  V30 3865 H 368.493 0.48319 3.93041 0
M  V30 3866 H 369.667 3.26136 3.25533 0
M  V30 3867 H 367.982 2.83323 3.05151 0
M  V30 3868 H 370.579 1.10586 5.23139 0
M  V30 3869 H 370.922 -0.227509 4.15678 0
M  V30 3870 H 371.455 1.41371 3.71832 0
M  V30 3871 H 368.194 4.04133 5.16098 0
M  V30 3872 H 367.714 2.3651 5.51201 0
M  V30 3873 H 369.393 2.89159 5.78788 0
M  V30 3874 N 369.525 -1.3858 0.750561 0
M  V30 3875 C 370.936 -1.82927 0.373438 0
M  V30 3876 C 371.287 -1.62634 -1.09748 0
M  V30 3877 O 370.412 -1.12588 -1.84805 0
M  V30 3878 C 371.007 -3.32088 0.671029 0
M  V30 3879 C 369.566 -3.74795 0.34722 0
M  V30 3880 C 368.713 -2.61391 0.92575 0
M  V30 3881 H 371.664 -1.27351 0.946958 0
M  V30 3882 H 371.685 -3.80465 -0.0518269 0
M  V30 3883 H 371.197 -3.46826 1.74164 0
M  V30 3884 H 369.298 -3.65638 -0.716933 0
M  V30 3885 H 369.411 -4.71667 0.840656 0
M  V30 3886 H 367.775 -2.52265 0.351327 0
M  V30 3887 H 368.558 -2.78929 2.00133 0
M  V30 3888 N 371.003 -0.499398 -1.49478 0
M  V30 3889 C 372.419 -0.155261 -1.58843 0
M  V30 3890 C 372.619 1.34008 -1.50479 0
M  V30 3891 O 371.675 2.11589 -1.37791 0
M  V30 3892 C 372.988 -0.730636 -2.91689 0
M  V30 3893 C 374.536 -0.696599 -3.0515 0
M  V30 3894 C 375.011 -1.25001 -4.40612 0
M  V30 3895 N 376.502 -1.21064 -4.47099 0
M  V30 3896 C 377.237 -1.60905 -5.50361 0
M  V30 3897 N 376.733 -2.08331 -6.60735 0
M  V30 3898 N 378.526 -1.52331 -5.41065 0
M  V30 3899 H 370.677 -1.47162 -1.53158 0
M  V30 3900 H 372.94 -0.610309 -0.725415 0
M  V30 3901 H 372.646 -1.77928 -3.03372 0
M  V30 3902 H 372.52 -0.190161 -3.7672 0
M  V30 3903 H 374.907 0.343204 -2.93097 0
M  V30 3904 H 374.988 -1.2742 -2.21806 0
M  V30 3905 H 374.632 -2.28859 -4.53416 0
M  V30 3906 H 374.562 -0.64836 -5.22593 0
M  V30 3907 H 377.053 -0.863128 -3.67911 0
M  V30 3908 H 377.366 -2.36805 -7.35624 0
M  V30 3909 H 375.711 -2.12304 -6.6178 0
M  V30 3910 H 378.902 -1.151 -4.53729 0
M  V30 3911 H 379.075 -1.83704 -6.21415 0
M  V30 3912 N 372.481 1.55866 -0.233164 0
M  V30 3913 C 373.727 1.98897 0.395959 0
M  V30 3914 C 374.06 1.12091 1.58585 0
M  V30 3915 O 373.335 0.181182 1.93654 0
M  V30 3916 C 373.618 3.50658 0.819224 0
M  V30 3917 C 373.471 4.48233 -0.375109 0
M  V30 3918 C 374.79 4.07135 1.67121 0
M  V30 3919 H 371.909 0.723102 0.142451 0
M  V30 3920 H 374.551 1.87082 -0.331725 0
M  V30 3921 H 372.701 3.60857 1.43925 0
M  V30 3922 H 374.373 4.50031 -1.01341 0
M  V30 3923 H 372.616 4.21624 -1.02058 0
M  V30 3924 H 373.287 5.51988 -0.0358328 0
M  V30 3925 H 375.763 3.99952 1.14795 0
M  V30 3926 H 374.639 5.13615 1.93625 0
M  V30 3927 H 374.9 3.54736 2.63846 0
M  V30 3928 N 373.959 -0.0401083 1.57549 0
M  V30 3929 C 374.869 -1.06133 2.0922 0
M  V30 3930 C 375.885 -1.40356 1.0284 0
M  V30 3931 O 377.061 -1.49897 1.34509 0
M  V30 3932 C 374.126 -2.34658 2.55218 0
M  V30 3933 C 373.187 -2.07117 3.76033 0
M  V30 3934 C 372.42 -3.29514 4.19829 0
M  V30 3935 O 372.643 -4.39794 3.63232 0
M  V30 3936 O 371.577 -3.15863 5.12362 0
M  V30 3937 H 375.403 -0.652244 2.96613 0
M  V30 3938 H 372.988 -0.256368 1.47184 0
M  V30 3939 H 374.87 -3.10239 2.85184 0
M  V30 3940 H 373.545 -2.74883 1.70941 0
M  V30 3941 H 372.452 -1.29139 3.51104 0
M  V30 3942 H 373.785 -1.71754 4.61261 0
M  V30 3943 N 375.437 -1.54477 -0.31217 0
M  V30 3944 C 376.667 -1.76948 -1.06645 0
M  V30 3945 C 377.075 -0.523593 -1.81811 0
M  V30 3946 O 376.418 0.51578 -1.76311 0
M  V30 3947 C 376.48 -2.91668 -2.10166 0
M  V30 3948 C 376.144 -4.30165 -1.54296 0
M  V30 3949 C 377.141 -5.10603 -0.978793 0
M  V30 3950 C 374.826 -4.76738 -1.58196 0
M  V30 3951 C 376.82 -6.3573 -0.461048 0
M  V30 3952 C 374.507 -6.01831 -1.06034 0
M  V30 3953 C 375.505 -6.81161 -0.500844 0
M  V30 3954 O 375.193 -8.03899 0.0128958 0
M  V30 3955 H 374.925 -0.594088 -0.322546 0
M  V30 3956 H 377.479 -2.02213 -0.360441 0
M  V30 3957 H 375.709 -2.62001 -2.84416 0
M  V30 3958 H 377.398 -3.01817 -2.71406 0
M  V30 3959 H 378.164 -4.75771 -0.941651 0
M  V30 3960 H 374.043 -4.15027 -2.00683 0
M  V30 3961 H 377.587 -6.97596 -0.0236894 0
M  V30 3962 H 373.484 -6.36152 -1.09459 0
M  V30 3963 H 374.252 -8.18437 -0.101457 0
M  V30 3964 N 376.915 0.57481 -1.46744 0
M  V30 3965 C 378.143 1.35856 -1.56047 0
M  V30 3966 C 378.558 1.87691 -0.204365 0
M  V30 3967 O 377.915 1.64049 0.79963 0
M  V30 3968 C 377.966 2.54066 -2.57163 0
M  V30 3969 O 377.687 2.04377 -3.87507 0
M  V30 3970 C 379.188 3.46514 -2.76483 0
M  V30 3971 H 376.408 0.414754 -0.527466 0
M  V30 3972 H 378.952 0.698035 -1.92218 0
M  V30 3973 H 377.107 3.16092 -2.23974 0
M  V30 3974 H 377.521 2.81419 -4.4261 0
M  V30 3975 H 378.995 4.25919 -3.51137 0
M  V30 3976 H 379.472 3.98951 -1.83671 0
M  V30 3977 H 380.078 2.90318 -3.10799 0
M  V30 3978 N 378.394 1.34581 0.820102 0
M  V30 3979 C 379.357 1.2628 1.91275 0
M  V30 3980 C 380.357 0.177344 1.59819 0
M  V30 3981 O 381.547 0.430156 1.68806 0
M  V30 3982 C 378.679 0.950327 3.27386 0
M  V30 3983 H 379.872 2.23421 2.00057 0
M  V30 3984 H 377.425 1.1891 1.0144 0
M  V30 3985 H 378.16 -0.0177938 3.24295 0
M  V30 3986 H 377.945 1.73549 3.51601 0
M  V30 3987 H 379.435 0.917492 4.07396 0
M  V30 3988 N 379.872 -1.04064 1.18357 0
M  V30 3989 C 380.782 -2.15569 0.925596 0
M  V30 3990 C 381.798 -1.7365 -0.110295 0
M  V30 3991 O 382.974 -2.01273 0.0716218 0
M  V30 3992 C 380.039 -3.43704 0.454836 0
M  V30 3993 C 379.1 -4.00004 1.55869 0
M  V30 3994 C 378.333 -5.22023 1.1103 0
M  V30 3995 O 378.556 -5.70392 -0.0309756 0
M  V30 3996 O 377.49 -5.70856 1.90805 0
M  V30 3997 H 381.316 -2.40187 1.8586 0
M  V30 3998 H 378.901 -1.1402 0.965394 0
M  V30 3999 H 380.783 -4.20923 0.200382 0
M  V30 4000 H 379.458 -3.20559 -0.449876 0
M  V30 4001 H 378.365 -3.24172 1.86716 0
M  V30 4002 H 379.698 -4.2749 2.43953 0
M  V30 4003 N 381.35 -0.985608 -1.22978 0
M  V30 4004 C 382.26 -0.538548 -2.28335 0
M  V30 4005 C 383.276 0.409163 -1.69121 0
M  V30 4006 O 384.452 0.277797 -1.99475 0
M  V30 4007 C 381.517 0.146867 -3.46389 0
M  V30 4008 C 380.578 -0.842896 -4.20944 0
M  V30 4009 C 379.811 -0.190095 -5.33361 0
M  V30 4010 O 380.034 1.01767 -5.61248 0
M  V30 4011 O 378.968 -0.891289 -5.95264 0
M  V30 4012 H 382.794 -1.41487 -2.68729 0
M  V30 4013 H 380.379 -0.753495 -1.29007 0
M  V30 4014 H 382.261 0.531125 -4.1804 0
M  V30 4015 H 380.936 0.997871 -3.07935 0
M  V30 4016 H 379.843 -1.27795 -3.51595 0
M  V30 4017 H 381.176 -1.66287 -4.6326 0
M  V30 4018 N 382.828 1.3818 -0.7579 0
M  V30 4019 C 384.077 1.99261 -0.312744 0
M  V30 4020 C 384.39 1.60846 1.11301 0
M  V30 4021 O 385.596 2.14929 1.65885 0
M  V30 4022 C 384.052 3.56294 -0.50821 0
M  V30 4023 C 383.66 4.03657 -1.94333 0
M  V30 4024 C 385.404 4.24313 -0.125982 0
M  V30 4025 C 383.311 5.53347 -2.08712 0
M  V30 4026 H 382.241 0.745456 -0.113185 0
M  V30 4027 H 384.892 1.57889 -0.935056 0
M  V30 4028 H 383.274 3.95575 0.183353 0
M  V30 4029 H 384.448 3.75655 -2.66871 0
M  V30 4030 H 382.763 3.48376 -2.28086 0
M  V30 4031 H 385.36 5.34279 -0.212125 0
M  V30 4032 H 385.703 4.05962 0.921964 0
M  V30 4033 H 386.236 3.90285 -0.769563 0
M  V30 4034 H 382.975 5.76607 -3.11777 0
M  V30 4035 H 382.495 5.83078 -1.4064 0
M  V30 4036 H 384.174 6.19111 -1.87912 0
M  V30 4037 N 384.306 0.507319 1.49211 0
M  V30 4038 C 385.269 -0.256763 2.27757 0
M  V30 4039 C 386.269 -0.888287 1.34038 0
M  V30 4040 O 387.459 -0.751841 1.5714 0
M  V30 4041 C 384.591 -1.36905 3.12202 0
M  V30 4042 H 385.784 0.432557 2.96764 0
M  V30 4043 H 383.337 0.262488 1.5408 0
M  V30 4044 H 384.072 -2.09233 2.47775 0
M  V30 4045 H 383.857 -0.921599 3.81115 0
M  V30 4046 H 385.347 -1.9071 3.7151 0
M  V30 4047 N 385.784 -1.5574 0.241426 0
M  V30 4048 C 387.012 -2.03208 -0.389134 0
M  V30 4049 C 387.427 -1.12082 -1.51931 0
M  V30 4050 O 386.784 -0.134183 -1.82006 0
M  V30 4051 C 386.835 -3.50064 -0.902087 0
M  V30 4052 O 386.556 -4.37717 0.18305 0
M  V30 4053 C 388.057 -4.13268 -1.60389 0
M  V30 4054 H 385.277 -0.664509 -0.0931053 0
M  V30 4055 H 387.821 -2.0124 0.36369 0
M  V30 4056 H 385.976 -3.52583 -1.60511 0
M  V30 4057 H 386.39 -5.24097 -0.205579 0
M  V30 4058 H 387.864 -5.17733 -1.91458 0
M  V30 4059 H 388.341 -3.59434 -2.52397 0
M  V30 4060 H 388.947 -4.14655 -0.945576 0
M  V30 4061 N 387.262 0.0317525 -1.57568 0
M  V30 4062 C 388.508 0.718712 -1.90279 0
M  V30 4063 C 388.863 1.73108 -0.839727 0
M  V30 4064 O 388.156 1.90997 0.15188 0
M  V30 4065 C 388.35 1.43167 -3.27472 0
M  V30 4066 C 388.179 0.489869 -4.47024 0
M  V30 4067 C 386.949 0.111909 -5.05176 0
M  V30 4068 C 389.147 -0.230592 -5.13783 0
M  V30 4069 N 387.129 -0.831427 -6.08244 0
M  V30 4070 C 388.5 -1.02968 -6.1139 0
M  V30 4071 C 390.555 -0.297821 -4.97008 0
M  V30 4072 C 389.258 -1.88982 -6.9403 0
M  V30 4073 C 391.284 -1.14507 -5.80209 0
M  V30 4074 C 390.646 -1.9321 -6.77384 0
M  V30 4075 H 386.745 0.237177 -0.745165 0
M  V30 4076 H 389.329 -0.0211267 -1.94689 0
M  V30 4077 H 387.5 2.14199 -3.23996 0
M  V30 4078 H 389.232 2.0708 -3.47707 0
M  V30 4079 H 385.987 0.473513 -4.71227 0
M  V30 4080 H 386.411 -1.29752 -6.6445 0
M  V30 4081 H 391.053 0.296346 -4.2176 0
M  V30 4082 H 388.771 -2.4948 -7.68626 0
M  V30 4083 H 392.357 -1.20059 -5.69278 0
M  V30 4084 H 391.237 -2.57711 -7.40645 0
M  V30 4085 N 388.74 1.54641 0.303973 0
M  V30 4086 C 389.687 1.85386 1.37479 0
M  V30 4087 C 390.657 0.702528 1.50512 0
M  V30 4088 O 391.842 0.950867 1.65418 0
M  V30 4089 C 388.982 2.10413 2.73533 0
M  V30 4090 C 388.095 3.38049 2.68974 0
M  V30 4091 C 387.23 3.52934 3.97002 0
M  V30 4092 C 386.269 4.74373 3.86829 0
M  V30 4093 N 385.406 4.8608 5.06627 0
M  V30 4094 H 390.246 2.76732 1.1056 0
M  V30 4095 H 387.783 1.37034 0.534805 0
M  V30 4096 H 389.741 2.22919 3.52652 0
M  V30 4097 H 388.371 1.22338 2.98719 0
M  V30 4098 H 387.423 3.3418 1.81736 0
M  V30 4099 H 388.735 4.27288 2.57346 0
M  V30 4100 H 387.889 3.65088 4.84557 0
M  V30 4101 H 386.628 2.61824 4.1146 0
M  V30 4102 H 385.633 4.62255 2.97658 0
M  V30 4103 H 386.858 5.66888 3.73918 0
M  V30 4104 H 384.804 3.97891 5.21554 0
M  V30 4105 H 384.721 5.69315 4.9741 0
M  V30 4106 H 385.989 5.02587 5.95841 0
M  V30 4107 N 390.218 -0.567019 1.47046 0
M  V30 4108 C 391.128 -1.70247 1.6141 0
M  V30 4109 C 392.144 -1.66746 0.497157 0
M  V30 4110 O 393.32 -1.86371 0.763389 0
M  V30 4111 C 390.385 -3.06756 1.61561 0
M  V30 4112 C 389.446 -3.21399 2.84607 0
M  V30 4113 C 388.679 -4.51396 2.84741 0
M  V30 4114 O 388.902 -5.36255 1.94388 0
M  V30 4115 O 387.836 -4.69621 3.76483 0
M  V30 4116 H 391.662 -1.61073 2.57467 0
M  V30 4117 H 389.247 -0.735894 1.30019 0
M  V30 4118 H 391.129 -3.8801 1.64396 0
M  V30 4119 H 389.804 -3.16333 0.686684 0
M  V30 4120 H 388.711 -2.39579 2.8732 0
M  V30 4121 H 390.044 -3.16721 3.76761 0
M  V30 4122 N 391.696 -1.35014 -0.812953 0
M  V30 4123 C 392.942 -1.2812 -1.57204 0
M  V30 4124 C 393.275 0.145869 -1.93651 0
M  V30 4125 O 392.55 1.0937 -1.60836 0
M  V30 4126 C 392.833 -2.18162 -2.86492 0
M  V30 4127 C 392.686 -3.69454 -2.56561 0
M  V30 4128 C 394.005 -2.07439 -3.88145 0
M  V30 4129 H 391.124 -0.466746 -0.570366 0
M  V30 4130 H 393.766 -1.65357 -0.935783 0
M  V30 4131 H 391.916 -1.86535 -3.40789 0
M  V30 4132 H 393.588 -4.11493 -2.08497 0
M  V30 4133 H 391.831 -3.9005 -1.89851 0
M  V30 4134 H 392.502 -4.27835 -3.48799 0
M  V30 4135 H 394.978 -2.35228 -3.4323 0
M  V30 4136 H 393.854 -2.7265 -4.76396 0
M  V30 4137 H 394.115 -1.05439 -4.29343 0
M  V30 4138 N 393.175 1.03435 -1.18907 0
M  V30 4139 C 394.405 1.8012 -1.01195 0
M  V30 4140 C 394.813 1.8395 0.442613 0
M  V30 4141 O 394.156 1.27836 1.31923 0
M  V30 4142 C 394.218 3.26792 -1.49823 0
M  V30 4143 C 393.882 3.46609 -2.97844 0
M  V30 4144 C 394.879 3.37278 -3.95651 0
M  V30 4145 C 392.564 3.73001 -3.36416 0
M  V30 4146 C 394.558 3.54054 -5.30023 0
M  V30 4147 C 392.245 3.89423 -4.70949 0
M  V30 4148 C 393.243 3.79951 -5.67562 0
M  V30 4149 O 392.931 3.95895 -6.99659 0
M  V30 4150 H 392.663 0.573865 -0.357289 0
M  V30 4151 H 395.217 1.31207 -1.58031 0
M  V30 4152 H 393.447 3.76703 -0.873578 0
M  V30 4153 H 395.136 3.85055 -1.28404 0
M  V30 4154 H 395.902 3.16846 -3.67197 0
M  V30 4155 H 391.781 3.79469 -2.61772 0
M  V30 4156 H 395.325 3.46577 -6.05417 0
M  V30 4157 H 391.222 4.09351 -4.99101 0
M  V30 4158 H 391.99 4.13019 -7.06653 0
M  V30 4159 N 394.653 0.992116 1.22453 0
M  V30 4160 C 395.881 0.685944 1.95198 0
M  V30 4161 C 396.296 -0.749233 1.73297 0
M  V30 4162 O 395.653 -1.50549 1.03156 0
M  V30 4163 C 395.704 0.981395 3.47924 0
M  V30 4164 O 395.425 2.36018 3.6909 0
M  V30 4165 C 396.926 0.692815 4.37853 0
M  V30 4166 H 394.146 0.253821 0.621141 0
M  V30 4167 H 396.69 1.32668 1.55626 0
M  V30 4168 H 394.845 0.386481 3.85467 0
M  V30 4169 H 395.259 2.45884 4.63294 0
M  V30 4170 H 396.733 0.949818 5.43767 0
M  V30 4171 H 397.21 -0.373181 4.37612 0
M  V30 4172 H 397.816 1.26874 4.05935 0
M  V30 4173 N 396.131 -1.37776 0.765217 0
M  V30 4174 C 397.359 -2.04124 0.337767 0
M  V30 4175 C 397.774 -1.57715 -1.03785 0
M  V30 4176 O 397.131 -0.755447 -1.6613 0
M  V30 4177 C 397.182 -3.59658 0.364442 0
M  V30 4178 O 396.903 -4.04367 1.68579 0
M  V30 4179 C 398.404 -4.43236 -0.0754221 0
M  V30 4180 H 395.624 -0.655696 0.142491 0
M  V30 4181 H 398.168 -1.76238 1.03732 0
M  V30 4182 H 396.323 -3.86339 -0.286471 0
M  V30 4183 H 396.737 -4.98857 1.61993 0
M  V30 4184 H 398.211 -5.52 -0.00560067 0
M  V30 4185 H 398.688 -4.2455 -1.12491 0
M  V30 4186 H 399.294 -4.21767 0.547055 0
M  V30 4187 N 397.609 -0.515225 -1.4894 0
M  V30 4188 C 398.539 0.244628 -2.32215 0
M  V30 4189 C 399.52 0.949136 -1.41157 0
M  V30 4190 O 400.705 0.937783 -1.70057 0
M  V30 4191 C 397.835 1.30096 -3.22013 0
M  V30 4192 C 396.789 0.715486 -4.21977 0
M  V30 4193 C 396.115 1.87339 -5.00808 0
M  V30 4194 C 397.415 -0.302982 -5.2142 0
M  V30 4195 H 399.109 -0.450501 -2.95991 0
M  V30 4196 H 396.655 -0.218098 -1.42339 0
M  V30 4197 H 398.608 1.84037 -3.79089 0
M  V30 4198 H 397.332 2.02547 -2.56207 0
M  V30 4199 H 395.991 0.197715 -3.66066 0
M  V30 4200 H 395.639 2.58592 -4.31438 0
M  V30 4201 H 395.339 1.48764 -5.68457 0
M  V30 4202 H 396.863 2.41686 -5.60732 0
M  V30 4203 H 398.277 0.148802 -5.73107 0
M  V30 4204 H 396.674 -0.60532 -5.97039 0
M  V30 4205 H 397.744 -1.21395 -4.69459 0
M  V30 4206 N 399.087 1.5561 -0.249682 0
M  V30 4207 C 400.034 2.21496 0.648694 0
M  V30 4208 C 401.004 1.17977 1.16921 0
M  V30 4209 O 402.189 1.46434 1.22318 0
M  V30 4210 C 399.329 2.92039 1.83868 0
M  V30 4211 C 398.442 4.10219 1.35442 0
M  V30 4212 C 397.577 4.6847 2.50419 0
M  V30 4213 C 396.616 5.78893 1.98869 0
M  V30 4214 N 395.753 6.31315 3.07223 0
M  V30 4215 H 400.593 2.97892 0.0801582 0
M  V30 4216 H 398.13 1.47074 0.0278031 0
M  V30 4217 H 400.088 3.31138 2.53778 0
M  V30 4218 H 398.718 2.18111 2.37965 0
M  V30 4219 H 397.77 3.76413 0.54928 0
M  V30 4220 H 399.082 4.89927 0.936649 0
M  V30 4221 H 398.236 5.10158 3.28366 0
M  V30 4222 H 396.975 3.87984 2.95499 0
M  V30 4223 H 395.98 5.3668 1.19393 0
M  V30 4224 H 397.205 6.61232 1.54755 0
M  V30 4225 H 395.151 5.53733 3.51732 0
M  V30 4226 H 395.068 7.06224 2.69784 0
M  V30 4227 H 396.336 6.77662 3.8522 0
M  V30 4228 N 400.565 -0.0233959 1.57583 0
M  V30 4229 C 401.813 -0.711654 1.89156 0
M  V30 4230 C 402.134 -1.75591 0.848096 0
M  V30 4231 O 401.404 -1.95547 -0.117566 0
M  V30 4232 H 399.984 -0.265835 0.698098 0
M  V30 4233 H 402.646 0.0119948 1.94896 0
M  V30 4234 H 401.742 -1.19766 2.88206 0
M  V30 4235 N 402.043 -1.548 -0.295768 0
M  V30 4236 C 402.973 -1.89115 -1.36959 0
M  V30 4237 C 403.954 -0.75059 -1.52644 0
M  V30 4238 O 405.139 -1.00678 -1.66065 0
M  V30 4239 C 402.269 -2.14307 -2.73295 0
M  V30 4240 C 401.223 -3.30151 -2.72368 0
M  V30 4241 C 400.549 -3.40772 -4.12042 0
M  V30 4242 C 401.849 -4.67126 -2.33646 0
M  V30 4243 H 403.543 -2.79053 -1.08488 0
M  V30 4244 H 401.089 -1.34266 -0.520443 0
M  V30 4245 H 403.042 -2.36898 -3.48507 0
M  V30 4246 H 401.766 -1.21145 -3.03301 0
M  V30 4247 H 400.425 -3.0749 -1.99613 0
M  V30 4248 H 400.073 -2.45117 -4.39234 0
M  V30 4249 H 399.773 -4.18645 -4.12322 0
M  V30 4250 H 401.297 -3.6563 -4.89027 0
M  V30 4251 H 402.711 -4.89414 -2.98575 0
M  V30 4252 H 401.108 -5.47751 -2.45129 0
M  V30 4253 H 402.178 -4.67489 -1.28772 0
M  V30 4254 N 403.521 0.559213 -1.47345 0
M  V30 4255 C 404.751 1.33999 -1.57251 0
M  V30 4256 C 405.159 1.87905 -0.220978 0
M  V30 4257 O 404.502 1.65577 0.795617 0
M  V30 4258 C 404.564 2.54798 -2.53611 0
M  V30 4259 C 404.228 2.22192 -3.99349 0
M  V30 4260 C 405.225 1.79607 -4.87891 0
M  V30 4261 C 402.91 2.33613 -4.44669 0
M  V30 4262 C 404.904 1.48868 -6.19772 0
M  V30 4263 C 402.591 2.02487 -5.76578 0
M  V30 4264 C 403.589 1.60183 -6.63951 0
M  V30 4265 O 403.277 1.29451 -7.93409 0
M  V30 4266 H 403.009 0.414858 -0.533731 0
M  V30 4267 H 405.563 0.684465 -1.9366 0
M  V30 4268 H 403.793 3.23235 -2.12265 0
M  V30 4269 H 405.482 3.16873 -2.53666 0
M  V30 4270 H 406.248 1.70278 -4.54126 0
M  V30 4271 H 402.127 2.65501 -3.76869 0
M  V30 4272 H 405.671 1.15775 -6.87926 0
M  V30 4273 H 401.568 2.11448 -6.09885 0
M  V30 4274 H 402.336 1.43098 -8.05894 0
M  V30 4275 N 404.999 1.35443 0.805782 0
M  V30 4276 C 405.962 1.28301 1.89925 0
M  V30 4277 C 406.962 0.194285 1.59622 0
M  V30 4278 O 408.152 0.448036 1.6834 0
M  V30 4279 C 405.284 0.984997 3.2636 0
M  V30 4280 H 406.477 2.2553 1.97677 0
M  V30 4281 H 404.03 1.19979 1.00173 0
M  V30 4282 H 404.765 0.016603 3.24296 0
M  V30 4283 H 404.55 1.77269 3.4974 0
M  V30 4284 H 406.04 0.960651 4.064 0
M  V30 4285 N 406.477 -1.02803 1.19454 0
M  V30 4286 C 407.705 -1.79841 1.02297 0
M  V30 4287 C 408.12 -1.83879 -0.428259 0
M  V30 4288 O 407.477 -1.28345 -1.29745 0
M  V30 4289 C 407.528 -3.24852 1.58598 0
M  V30 4290 O 407.249 -3.21097 2.98041 0
M  V30 4291 C 408.75 -4.18485 1.46236 0
M  V30 4292 H 405.97 -0.565936 0.360496 0
M  V30 4293 H 408.514 -1.2948 1.58288 0
M  V30 4294 H 406.669 -3.72401 1.06753 0
M  V30 4295 H 407.083 -4.12033 3.24545 0
M  V30 4296 H 408.557 -5.18121 1.90407 0
M  V30 4297 H 409.034 -4.37254 0.41301 0
M  V30 4298 H 409.64 -3.76811 1.97215 0
M  V30 4299 N 407.956 -0.998596 -1.21925 0
M  V30 4300 C 408.906 -0.524743 -2.21879 0
M  V30 4301 C 409.89 0.41017 -1.55584 0
M  V30 4302 O 411.082 0.236063 -1.75419 0
M  V30 4303 C 408.211 0.153636 -3.42956 0
M  V30 4304 C 407.297 -0.801918 -4.16449 0
M  V30 4305 N 407.688 -1.95211 -4.66611 0
M  V30 4306 C 405.986 -0.618972 -4.41684 0
M  V30 4307 C 406.687 -2.55234 -5.22715 0
M  V30 4308 N 405.663 -1.83451 -5.1171 0
M  V30 4309 H 409.465 -1.40189 -2.58311 0
M  V30 4310 H 406.979 -0.86159 -1.3766 0
M  V30 4311 H 408.976 0.510534 -4.13762 0
M  V30 4312 H 407.636 1.02684 -3.08036 0
M  V30 4313 H 408.647 -2.33271 -4.62391 0
M  V30 4314 H 405.324 0.207694 -4.16983 0
M  V30 4315 H 406.714 -3.52471 -5.72026 0
M  V30 4316 N 409.434 1.37368 -0.772513 0
M  V30 4317 C 410.397 2.28601 -0.165541 0
M  V30 4318 C 411.397 1.48062 0.627238 0
M  V30 4319 O 412.587 1.68268 0.450715 0
M  V30 4320 C 409.719 3.32023 0.772897 0
M  V30 4321 H 410.912 2.83787 -0.969787 0
M  V30 4322 H 408.465 1.46647 -0.540775 0
M  V30 4323 H 409.2 2.81962 1.60212 0
M  V30 4324 H 408.985 3.91555 0.206585 0
M  V30 4325 H 410.475 4.00197 1.19298 0
M  V30 4326 N 410.912 0.523116 1.48665 0
M  V30 4327 C 412.152 -0.0115588 2.04397 0
M  V30 4328 C 412.516 -1.32225 1.39214 0
M  V30 4329 O 413.717 -1.94253 1.85793 0
M  V30 4330 C 411.988 -0.138119 3.57133 0
M  V30 4331 S 413.547 -0.623849 4.34343 0
M  V30 4332 H 410.365 0.00877706 0.710946 0
M  V30 4333 H 412.967 0.702116 1.82457 0
M  V30 4334 H 411.671 0.820748 4.02109 0
M  V30 4335 H 411.202 -0.876377 3.83514 0
M  V30 4336 H 413.217 -1.8895 4.58816 0
M  V30 4337 N 412.39 -1.55475 0.257931 0
M  V30 4338 C 413.638 -1.98813 -0.363009 0
M  V30 4339 C 413.959 -1.14757 -1.57657 0
M  V30 4340 O 413.229 -0.232956 -1.9451 0
M  V30 4341 H 411.809 -0.734308 -0.137113 0
M  V30 4342 H 414.471 -1.9156 0.359281 0
M  V30 4343 H 413.567 -3.04941 -0.664634 0
M  V30 4344 N 413.868 0.0150385 -1.57593 0
M  V30 4345 C 414.778 1.02791 -2.10882 0
M  V30 4346 C 415.794 1.38702 -1.0506 0
M  V30 4347 O 416.97 1.47739 -1.36877 0
M  V30 4348 C 414.035 2.30568 -2.58919 0
M  V30 4349 C 413.096 2.01108 -3.79281 0
M  V30 4350 C 412.329 3.22794 -4.25018 0
M  V30 4351 O 412.552 4.33959 -3.70183 0
M  V30 4352 O 411.486 3.07672 -5.17322 0
M  V30 4353 H 415.312 0.604973 -2.97613 0
M  V30 4354 H 412.897 0.23292 -1.47573 0
M  V30 4355 H 414.779 3.05662 -2.90084 0
M  V30 4356 H 413.454 2.72129 -1.75293 0
M  V30 4357 H 412.361 1.23537 -3.53114 0
M  V30 4358 H 413.694 1.64394 -4.63935 0
M  V30 4359 N 415.346 1.54954 0.287554 0
M  V30 4360 C 416.296 1.8322 1.357 0
M  V30 4361 C 417.28 0.690152 1.45347 0
M  V30 4362 O 418.472 0.951137 1.49273 0
M  V30 4363 C 415.601 2.09481 2.71979 0
M  V30 4364 C 414.687 3.29906 2.66502 0
M  V30 4365 N 415.078 4.50154 2.30641 0
M  V30 4366 C 413.376 3.32203 2.97585 0
M  V30 4367 C 414.077 5.32209 2.34794 0
M  V30 4368 N 413.053 4.70258 2.72688 0
M  V30 4369 H 416.855 2.73746 1.0696 0
M  V30 4370 H 414.369 1.54635 0.496167 0
M  V30 4371 H 416.366 2.27882 3.49107 0
M  V30 4372 H 415.026 1.2023 3.0162 0
M  V30 4373 H 416.037 4.76515 2.02865 0
M  V30 4374 H 412.714 2.53101 3.32034 0
M  V30 4375 H 414.104 6.38321 2.09753 0
M  V30 4376 N 416.824 -0.551391 1.4764 0
M  V30 4377 C 417.754 -1.66757 1.63445 0
M  V30 4378 C 418.735 -1.63077 0.483742 0
M  V30 4379 O 419.92 -1.80607 0.71377 0
M  V30 4380 C 417.05 -3.05387 1.65396 0
M  V30 4381 C 416.004 -3.23918 2.79752 0
M  V30 4382 C 415.33 -4.63393 2.66779 0
M  V30 4383 C 416.63 -3.08735 4.21284 0
M  V30 4384 H 418.324 -1.53786 2.56886 0
M  V30 4385 H 415.87 -0.738415 1.23626 0
M  V30 4386 H 417.823 -3.83325 1.75043 0
M  V30 4387 H 416.547 -3.19332 0.685195 0
M  V30 4388 H 415.206 -2.48391 2.69625 0
M  V30 4389 H 414.854 -4.74144 1.67918 0
M  V30 4390 H 414.554 -4.7674 3.43501 0
M  V30 4391 H 416.078 -5.43458 2.78364 0
M  V30 4392 H 417.492 -3.76484 4.32357 0
M  V30 4393 H 415.889 -3.33588 4.98838 0
M  V30 4394 H 416.959 -2.0541 4.39243 0
M  V30 4395 N 418.302 -1.35869 -0.798587 0
M  V30 4396 C 419.212 -1.31578 -1.94228 0
M  V30 4397 C 420.228 -0.21939 -1.72611 0
M  V30 4398 O 421.404 -0.450167 -1.96305 0
M  V30 4399 C 418.469 -1.09528 -3.28944 0
M  V30 4400 C 417.53 -2.28556 -3.63402 0
M  V30 4401 C 416.763 -2.07549 -4.9169 0
M  V30 4402 O 416.986 -1.046 -5.60727 0
M  V30 4403 O 415.92 -2.95106 -5.24591 0
M  V30 4404 H 419.746 -2.27847 -2.00796 0
M  V30 4405 H 417.331 -1.16322 -0.937526 0
M  V30 4406 H 419.213 -0.991127 -4.09579 0
M  V30 4407 H 417.888 -0.16315 -3.23289 0
M  V30 4408 H 416.795 -2.44538 -2.83112 0
M  V30 4409 H 418.128 -3.20244 -3.73771 0
M  V30 4410 N 419.78 1.02168 -1.19998 0
M  V30 4411 C 420.743 2.08765 -0.94604 0
M  V30 4412 C 421.743 1.60618 0.0763846 0
M  V30 4413 O 422.933 1.73472 -0.159135 0
M  V30 4414 C 420.065 3.38262 -0.423255 0
M  V30 4415 H 421.258 2.32726 -1.89153 0
M  V30 4416 H 418.811 1.1889 -1.01464 0
M  V30 4417 H 419.546 3.19974 0.527938 0
M  V30 4418 H 419.331 3.74532 -1.16053 0
M  V30 4419 H 420.821 4.16759 -0.264911 0
M  V30 4420 N 421.258 1.00505 1.21394 0
M  V30 4421 C 422.505 0.687774 1.90462 0
M  V30 4422 C 422.833 -0.78147 1.7811 0
M  V30 4423 O 422.088 -1.58208 1.1519 0
M  V30 4424 C 422.387 1.0546 3.41486 0
M  V30 4425 C 422.053 2.51812 3.74034 0
M  V30 4426 C 420.715 2.91804 3.82628 0
M  V30 4427 C 423.067 3.46614 3.8924 0
M  V30 4428 C 420.395 4.2556 4.03876 0
M  V30 4429 C 422.747 4.80044 4.11995 0
M  V30 4430 C 421.411 5.19759 4.18816 0
M  V30 4431 H 420.681 0.251674 0.696951 0
M  V30 4432 H 423.328 1.26349 1.43903 0
M  V30 4433 H 421.633 0.397133 3.89782 0
M  V30 4434 H 423.33 0.786976 3.93202 0
M  V30 4435 H 419.92 2.1982 3.67936 0
M  V30 4436 H 424.104 3.16883 3.81967 0
M  V30 4437 H 419.36 4.55901 4.07387 0
M  V30 4438 H 423.534 5.53439 4.22704 0
M  V30 4439 H 421.161 6.23418 4.35033 0
M  V30 4440 N 422.737 -1.36956 0.779787 0
M  V30 4441 C 423.7 -2.2851 0.177662 0
M  V30 4442 C 424.7 -1.48393 -0.619377 0
M  V30 4443 O 425.89 -1.68505 -0.441785 0
M  V30 4444 C 423.022 -3.32428 -0.755279 0
M  V30 4445 H 424.215 -2.83269 0.984823 0
M  V30 4446 H 421.768 -1.46358 0.548544 0
M  V30 4447 H 422.503 -2.82808 -1.58714 0
M  V30 4448 H 422.288 -3.91659 -0.185817 0
M  V30 4449 H 423.778 -4.00824 -1.17174 0
M  V30 4450 N 424.215 -0.530993 -1.48385 0
M  V30 4451 C 425.145 0.219985 -2.32461 0
M  V30 4452 C 426.126 0.934111 -1.42156 0
M  V30 4453 O 427.311 0.919694 -1.71042 0
M  V30 4454 C 424.441 1.26674 -3.23375 0
M  V30 4455 C 423.395 0.67069 -4.22712 0
M  V30 4456 C 422.721 1.82017 -5.02766 0
M  V30 4457 C 424.021 -0.358268 -5.2107 0
M  V30 4458 H 425.715 -0.48187 -2.95497 0
M  V30 4459 H 423.261 -0.233182 -1.42099 0
M  V30 4460 H 425.214 1.80006 -3.81019 0
M  V30 4461 H 423.938 1.99818 -2.58341 0
M  V30 4462 H 422.597 0.158878 -3.66256 0
M  V30 4463 H 422.245 2.54002 -4.34157 0
M  V30 4464 H 421.945 1.42727 -5.70003 0
M  V30 4465 H 423.469 2.35725 -5.63264 0
M  V30 4466 H 424.883 0.0880081 -5.73232 0
M  V30 4467 H 423.28 -0.66861 -5.96364 0
M  V30 4468 H 424.35 -1.26367 -4.68145 0
M  V30 4469 N 425.693 1.55336 -0.266172 0
M  V30 4470 C 426.623 2.25146 0.618981 0
M  V30 4471 C 427.604 1.23845 1.16604 0
M  V30 4472 O 428.789 1.52544 1.20183 0
M  V30 4473 C 425.919 2.96572 1.80728 0
M  V30 4474 C 424.873 4.04726 1.39215 0
M  V30 4475 C 424.199 4.63678 2.66283 0
M  V30 4476 C 425.499 5.19407 0.548942 0
M  V30 4477 H 427.193 2.99377 0.0368116 0
M  V30 4478 H 424.739 1.43991 0.0162651 0
M  V30 4479 H 426.692 3.44116 2.43232 0
M  V30 4480 H 425.416 2.19861 2.41514 0
M  V30 4481 H 424.075 3.57979 0.790351 0
M  V30 4482 H 423.723 3.83646 3.25308 0
M  V30 4483 H 423.423 5.367 2.39222 0
M  V30 4484 H 424.947 5.13967 3.29651 0
M  V30 4485 H 426.361 5.63059 1.07876 0
M  V30 4486 H 424.758 5.98936 0.373593 0
M  V30 4487 H 425.828 4.8295 -0.434394 0
M  V30 4488 N 427.171 -0.0066808 1.57599 0
M  V30 4489 C 428.081 -1.01671 2.11424 0
M  V30 4490 C 429.097 -1.38143 1.05795 0
M  V30 4491 O 430.273 -1.47011 1.37658 0
M  V30 4492 C 427.338 -2.29192 2.60139 0
M  V30 4493 C 426.399 -1.99094 3.80342 0
M  V30 4494 C 425.632 -3.20535 4.26724 0
M  V30 4495 O 425.855 -4.3199 3.72479 0
M  V30 4496 O 424.789 -3.04924 5.18946 0
M  V30 4497 H 428.615 -0.589181 2.9793 0
M  V30 4498 H 426.2 -0.225091 1.47695 0
M  V30 4499 H 428.082 -3.0412 2.917 0
M  V30 4500 H 426.757 -2.71195 1.76733 0
M  V30 4501 H 425.664 -1.21663 3.53764 0
M  V30 4502 H 426.997 -1.61931 4.648 0
M  V30 4503 N 428.649 -1.55105 -0.279332 0
M  V30 4504 C 430.065 -1.46803 -0.626187 0
M  V30 4505 C 430.265 -0.676939 -1.89789 0
M  V30 4506 O 429.321 -0.19326 -2.51759 0
M  V30 4507 C 430.634 -2.90962 -0.759034 0
M  V30 4508 C 432.182 -3.01138 -0.853504 0
M  V30 4509 C 432.657 -4.46539 -1.01818 0
M  V30 4510 N 434.148 -4.50341 -1.08386 0
M  V30 4511 C 434.883 -5.60053 -1.22996 0
M  V30 4512 N 434.379 -6.79645 -1.34366 0
M  V30 4513 N 436.172 -5.47783 -1.26056 0
M  V30 4514 H 428.323 -2.04996 0.555921 0
M  V30 4515 H 430.586 -0.929325 0.187239 0
M  V30 4516 H 430.292 -3.51544 0.104852 0
M  V30 4517 H 430.166 -3.39619 -1.64131 0
M  V30 4518 H 432.553 -2.40658 -1.70786 0
M  V30 4519 H 432.634 -2.55745 0.0532466 0
M  V30 4520 H 432.278 -5.0762 -0.168504 0
M  V30 4521 H 432.208 -4.89583 -1.93948 0
M  V30 4522 H 434.699 -3.64191 -1.00864 0
M  V30 4523 H 435.012 -7.59012 -1.4533 0
M  V30 4524 H 433.357 -6.82469 -1.31382 0
M  V30 4525 H 436.548 -4.53294 -1.168 0
M  V30 4526 H 436.721 -6.33331 -1.37098 0
M  V30 4527 N 430.127 0.543554 -1.4793 0
M  V30 4528 C 431.374 1.30008 -1.55255 0
M  V30 4529 C 431.702 1.93245 -0.220612 0
M  V30 4530 O 430.957 1.79141 0.787843 0
M  V30 4531 C 431.256 2.42078 -2.62932 0
M  V30 4532 C 430.922 1.96583 -4.0579 0
M  V30 4533 C 429.584 1.83893 -4.44676 0
M  V30 4534 C 431.936 1.62034 -4.95373 0
M  V30 4535 C 429.264 1.34969 -5.70964 0
M  V30 4536 C 431.616 1.14577 -6.22137 0
M  V30 4537 C 430.28 1.00493 -6.59892 0
M  V30 4538 H 429.55 0.475735 -0.568117 0
M  V30 4539 H 432.197 0.608075 -1.81589 0
M  V30 4540 H 430.502 3.16892 -2.30406 0
M  V30 4541 H 432.199 3.00236 -2.65818 0
M  V30 4542 H 428.789 2.07407 -3.75074 0
M  V30 4543 H 432.973 1.70705 -4.66019 0
M  V30 4544 H 428.229 1.2274 -5.98953 0
M  V30 4545 H 432.403 0.869109 -6.90955 0
M  V30 4546 H 430.03 0.623624 -7.57638 0
M  V30 4547 N 431.605 1.3629 0.791371 0
M  V30 4548 C 432.83 1.33726 1.58531 0
M  V30 4549 C 433.255 -0.0794933 1.87932 0
M  V30 4550 O 432.613 -1.05087 1.47738 0
M  V30 4551 C 432.661 2.16425 2.88431 0
M  V30 4552 O 431.765 1.5554 3.81944 0
M  V30 4553 H 431.106 0.457793 0.480959 0
M  V30 4554 H 433.636 1.79547 0.981031 0
M  V30 4555 H 433.646 2.28933 3.37718 0
M  V30 4556 H 432.321 3.19415 2.66359 0
M  V30 4557 H 430.898 1.51961 3.40532 0
M  V30 4558 N 433.083 -1.0153 1.20538 0
M  V30 4559 C 434.331 -1.74803 1.01432 0
M  V30 4560 C 434.652 -1.8963 -0.454456 0
M  V30 4561 O 433.922 -1.43975 -1.32846 0
M  V30 4562 H 432.502 -0.647598 0.372324 0
M  V30 4563 H 435.164 -1.22402 1.5167 0
M  V30 4564 H 434.26 -2.75114 1.47373 0
M  V30 4565 N 434.561 -1.01147 -1.20859 0
M  V30 4566 C 435.791 -0.715872 -1.93801 0
M  V30 4567 C 436.199 0.726592 -1.74692 0
M  V30 4568 O 435.542 1.50397 -1.05482 0
M  V30 4569 C 435.604 -0.965269 -3.46299 0
M  V30 4570 C 435.268 -2.39584 -3.89164 0
M  V30 4571 C 436.265 -3.3764 -3.95342 0
M  V30 4572 C 433.95 -2.73522 -4.21297 0
M  V30 4573 C 435.944 -4.67698 -4.33056 0
M  V30 4574 C 433.631 -4.03794 -4.58687 0
M  V30 4575 C 434.629 -5.00693 -4.64538 0
M  V30 4576 O 434.317 -6.28635 -5.01072 0
M  V30 4577 H 434.049 -0.262524 -0.622942 0
M  V30 4578 H 436.603 -1.35413 -1.54443 0
M  V30 4579 H 434.833 -0.269847 -3.85757 0
M  V30 4580 H 436.522 -0.662051 -4.00464 0
M  V30 4581 H 437.288 -3.12757 -3.70686 0
M  V30 4582 H 433.167 -1.9879 -4.15937 0
M  V30 4583 H 436.711 -5.4333 -4.37537 0
M  V30 4584 H 432.608 -4.28459 -4.82797 0
M  V30 4585 H 433.376 -6.32847 -5.19083 0
M  V30 4586 N 436.039 1.36541 -0.78704 0
M  V30 4587 C 437.455 1.52571 -0.46844 0
M  V30 4588 C 437.655 1.7415 1.01361 0
M  V30 4589 O 436.711 1.77163 1.79915 0
M  V30 4590 C 438.024 2.71299 -1.29682 0
M  V30 4591 C 439.572 2.85169 -1.29027 0
M  V30 4592 C 440.047 4.06898 -2.10233 0
M  V30 4593 N 441.538 4.1404 -2.07666 0
M  V30 4594 C 442.273 5.07301 -2.67271 0
M  V30 4595 N 441.769 6.06021 -3.35724 0
M  V30 4596 N 443.562 4.99898 -2.57018 0
M  V30 4597 H 435.713 1.20788 -1.74711 0
M  V30 4598 H 437.976 0.589364 -0.742532 0
M  V30 4599 H 437.682 2.61868 -2.34773 0
M  V30 4600 H 437.556 3.6539 -0.936479 0
M  V30 4601 H 439.943 2.94062 -0.247284 0
M  V30 4602 H 440.024 1.91992 -1.69035 0
M  V30 4603 H 439.668 3.98766 -3.1456 0
M  V30 4604 H 439.598 4.99218 -1.67597 0
M  V30 4605 H 442.089 3.43357 -1.57843 0
M  V30 4606 H 442.402 6.73741 -3.78541 0
M  V30 4607 H 440.747 6.06253 -3.39826 0
M  V30 4608 H 443.938 4.21724 -2.03142 0
M  V30 4609 H 444.111 5.72392 -3.03761 0
M  V30 4610 N 437.518 0.538854 1.48102 0
M  V30 4611 C 438.428 -0.222648 2.33541 0
M  V30 4612 C 439.444 -0.930225 1.47047 0
M  V30 4613 O 440.62 -0.903211 1.80011 0
M  V30 4614 C 437.685 -1.25064 3.23357 0
M  V30 4615 C 436.746 -0.552469 4.2573 0
M  V30 4616 C 435.979 -1.53149 5.11254 0
M  V30 4617 O 436.202 -2.76487 4.9891 0
M  V30 4618 O 435.136 -1.06602 5.92385 0
M  V30 4619 H 438.962 0.477707 2.99919 0
M  V30 4620 H 436.547 0.299669 1.46364 0
M  V30 4621 H 438.429 -1.8445 3.78888 0
M  V30 4622 H 437.104 -1.93325 2.59629 0
M  V30 4623 H 436.011 0.082114 3.7401 0
M  V30 4624 H 437.344 0.0883526 4.92121 0
M  V30 4625 N 438.996 -1.55193 0.274407 0
M  V30 4626 C 440.273 -1.91584 -0.394331 0
M  V30 4627 C 440.653 -1.19858 -1.73774 0
M  V30 4628 O 440.001 -0.3252 -2.26174 0
M  V30 4629 C 440.211 -3.4487 -0.535311 0
M  V30 4630 C 441.559 -4.16636 -0.818534 0
M  V30 4631 O 442.583 -3.5076 -0.620146 0
M  V30 4632 O 441.442 -5.33209 -1.19792 0
M  V30 4633 H 438.536 -0.798349 -0.215794 0
M  V30 4634 H 441.082 -1.66646 0.320507 0
M  V30 4635 H 439.854 -3.89145 0.410141 0
M  V30 4636 H 439.477 -3.75759 -1.29964 0
M  V30 4637 N 440.474 -0.00167713 -1.576 0
M  V30 4638 C 441.422 1.0074 -2.09652 0
M  V30 4639 C 442.416 1.35483 -1.01689 0
M  V30 4640 O 443.622 1.34028 -1.20152 0
M  V30 4641 H 439.997 0.342537 -0.669457 0
M  V30 4642 H 441.968 0.542841 -2.93421 0
M  V30 4643 C 440.717 2.2899 -2.61647 0
M  V30 4644 H 440.04 2.03124 -3.44355 0
M  V30 4645 H 441.48 2.9787 -3.01744 0
M  V30 4646 C 439.939 3.00085 -1.53136 0
M  V30 4647 O 440.469 3.91135 -0.91524 0
M  V30 4648 N 438.675 2.6194 -1.25841 0
M  V30 4649 H 438.222 1.8798 -1.76129 0
M  V30 4650 H 438.18 3.09822 -0.534576 0
M  V30 4651 N 441.952 1.55251 0.271103 0
M  V30 4652 C 443.201 1.75151 1.00025 0
M  V30 4653 C 443.514 0.561041 1.87381 0
M  V30 4654 O 444.72 0.642506 2.63788 0
M  V30 4655 C 443.176 3.09999 1.82835 0
M  V30 4656 C 442.784 4.3662 1.00336 0
M  V30 4657 C 444.528 3.39249 2.55168 0
M  V30 4658 C 442.435 5.62506 1.82595 0
M  V30 4659 H 441.365 0.652877 0.377183 0
M  V30 4660 H 444.016 1.81708 0.255843 0
M  V30 4661 H 442.398 2.97485 2.61378 0
M  V30 4662 H 443.572 4.60055 0.261959 0
M  V30 4663 H 441.887 4.14527 0.394486 0
M  V30 4664 H 444.484 4.3051 3.1712 0
M  V30 4665 H 444.827 2.59467 3.2555 0
M  V30 4666 H 445.36 3.52869 1.83653 0
M  V30 4667 H 442.099 6.45041 1.16631 0
M  V30 4668 H 441.619 5.43211 2.54327 0
M  V30 4669 H 443.298 6.00875 2.39913 0
M  V30 4670 N 443.43 -0.535701 1.48216 0
M  V30 4671 C 444.841 -1.11769 1.49548 0
M  V30 4672 C 445.192 -1.94442 0.26207 0
M  V30 4673 O 444.317 -2.06987 -0.631287 0
M  V30 4674 C 444.912 -2.03367 2.70975 0
M  V30 4675 C 443.471 -2.56795 2.75196 0
M  V30 4676 C 442.618 -1.33631 2.42977 0
M  V30 4677 H 445.569 -0.321232 1.55415 0
M  V30 4678 H 445.59 -2.87569 2.49167 0
M  V30 4679 H 445.102 -1.43169 3.60727 0
M  V30 4680 H 443.203 -3.20731 1.89638 0
M  V30 4681 H 443.316 -2.9632 3.76472 0
M  V30 4682 H 441.68 -1.6502 1.94012 0
M  V30 4683 H 442.463 -0.75194 3.34964 0
M  V30 4684 N 444.908 -1.36708 -0.784132 0
M  V30 4685 C 445.84 -1.27333 -1.90575 0
M  V30 4686 C 446.853 -0.191706 -1.61667 0
M  V30 4687 O 448.042 -0.446854 -1.72816 0
M  V30 4688 C 445.142 -0.943177 -3.25511 0
M  V30 4689 C 444.315 -2.12776 -3.82158 0
M  V30 4690 C 443.374 -1.76983 -4.95544 0
M  V30 4691 O 442.4 -2.49134 -5.11782 0
M  V30 4692 N 443.602 -0.706624 -5.76183 0
M  V30 4693 H 446.367 -2.23974 -1.99138 0
M  V30 4694 H 443.928 -1.30171 -0.962656 0
M  V30 4695 H 445.92 -0.684799 -3.98864 0
M  V30 4696 H 444.49 -0.0657333 -3.12531 0
M  V30 4697 H 443.71 -2.54863 -3.0073 0
M  V30 4698 H 444.998 -2.91904 -4.16737 0
M  V30 4699 H 444.396 -0.107643 -5.65598 0
M  V30 4700 H 442.953 -0.50808 -6.49817 0
M  V30 4701 N 446.386 1.0089 -1.21074 0
M  V30 4702 C 447.316 2.1145 -0.990523 0
M  V30 4703 C 448.297 1.69897 0.0831699 0
M  V30 4704 O 449.482 1.94052 -0.0758853 0
M  V30 4705 C 446.612 3.42914 -0.550177 0
M  V30 4706 C 445.566 3.98244 -1.56799 0
M  V30 4707 C 444.892 5.25568 -0.984013 0
M  V30 4708 C 446.192 4.30752 -2.95381 0
M  V30 4709 H 447.886 2.3013 -1.91521 0
M  V30 4710 H 445.432 1.10592 -0.92225 0
M  V30 4711 H 447.385 4.19653 -0.383305 0
M  V30 4712 H 446.109 3.24014 0.41015 0
M  V30 4713 H 444.768 3.23621 -1.72236 0
M  V30 4714 H 444.416 5.02998 -0.0155216 0
M  V30 4715 H 444.116 5.63551 -1.66384 0
M  V30 4716 H 445.64 6.04955 -0.828378 0
M  V30 4717 H 447.054 4.98349 -2.8341 0
M  V30 4718 H 445.451 4.79869 -3.60341 0
M  V30 4719 H 446.521 3.39192 -3.46521 0
M  V30 4720 N 447.864 1.01787 1.20321 0
M  V30 4721 C 448.774 0.598898 2.26827 0
M  V30 4722 C 449.79 -0.36418 1.70146 0
M  V30 4723 O 450.966 -0.224812 2.00141 0
M  V30 4724 C 448.031 -0.0549769 3.46656 0
M  V30 4725 C 447.092 0.954205 4.18561 0
M  V30 4726 C 446.325 0.331439 5.3267 0
M  V30 4727 O 446.548 -0.86851 5.63749 0
M  V30 4728 O 445.482 1.0488 5.92692 0
M  V30 4729 H 449.308 1.48562 2.64883 0
M  V30 4730 H 446.893 0.787434 1.26964 0
M  V30 4731 H 448.775 -0.420102 4.19301 0
M  V30 4732 H 447.45 -0.915876 3.10473 0
M  V30 4733 H 446.357 1.37072 3.48083 0
M  V30 4734 H 447.69 1.78511 4.58688 0
M  V30 4735 N 449.342 -1.36122 0.79427 0
M  V30 4736 C 450.619 -1.93398 0.292685 0
M  V30 4737 C 450.999 -1.72567 -1.21589 0
M  V30 4738 O 450.347 -1.08745 -2.00965 0
M  V30 4739 C 450.557 -3.42099 0.690614 0
M  V30 4740 C 451.905 -4.19231 0.673105 0
M  V30 4741 O 452.929 -3.50559 0.631389 0
M  V30 4742 O 451.788 -5.41732 0.720362 0
M  V30 4743 H 448.882 -0.823712 0.0736693 0
M  V30 4744 H 451.428 -1.45273 0.87714 0
M  V30 4745 H 450.2 -3.50938 1.73085 0
M  V30 4746 H 449.823 -3.97519 0.0803036 0
M  V30 4747 N 450.82 -0.546701 -1.47814 0
M  V30 4748 C 452.066 -0.0187684 -2.02791 0
M  V30 4749 C 452.399 1.32338 -1.42128 0
M  V30 4750 O 451.674 1.85867 -0.573023 0
M  V30 4751 C 451.957 0.0854985 -3.59998 0
M  V30 4752 C 451.81 -1.283 -4.31114 0
M  V30 4753 C 453.129 0.80412 -4.32691 0
M  V30 4754 H 450.248 -0.0082946 -0.736953 0
M  V30 4755 H 452.89 -0.706962 -1.76358 0
M  V30 4756 H 451.04 0.671609 -3.82651 0
M  V30 4757 H 452.712 -1.91151 -4.19832 0
M  V30 4758 H 450.955 -1.86049 -3.91878 0
M  V30 4759 H 451.626 -1.16287 -5.39612 0
M  V30 4760 H 454.102 0.306576 -4.14969 0
M  V30 4761 H 452.978 0.846011 -5.42341 0
M  V30 4762 H 453.239 1.85802 -4.01161 0
M  V30 4763 N 452.299 1.55045 -0.282633 0
M  V30 4764 C 453.524 2.04628 0.337977 0
M  V30 4765 C 453.949 1.15937 1.48123 0
M  V30 4766 O 453.307 0.159532 1.80597 0
M  V30 4767 C 453.355 3.51854 0.78936 0
M  V30 4768 O 452.459 3.66236 1.89592 0
M  V30 4769 H 451.8 0.660434 0.0687261 0
M  V30 4770 H 454.33 2.00261 -0.419124 0
M  V30 4771 H 454.34 3.93361 1.08311 0
M  V30 4772 H 453.015 4.15873 -0.0470419 0
M  V30 4773 H 451.592 3.36633 1.60413 0
M  V30 4774 N 453.777 0.010035 1.57597 0
M  V30 4775 C 455.193 -0.346164 1.55801 0
M  V30 4776 C 455.393 -1.74144 1.01371 0
M  V30 4777 O 454.449 -2.43938 0.651968 0
M  V30 4778 C 455.762 -0.212216 2.9995 0
M  V30 4779 C 457.31 -0.286409 3.11687 0
M  V30 4780 C 457.785 -0.18147 4.5764 0
M  V30 4781 N 459.276 -0.239056 4.62583 0
M  V30 4782 C 460.011 -0.181351 5.73113 0
M  V30 4783 N 459.507 -0.073661 6.92761 0
M  V30 4784 N 461.3 -0.233949 5.61613 0
M  V30 4785 H 453.451 0.922657 1.91313 0
M  V30 4786 H 455.714 0.354595 0.879185 0
M  V30 4787 H 455.42 0.748169 3.4365 0
M  V30 4788 H 455.294 -0.990224 3.6397 0
M  V30 4789 H 457.681 -1.23724 2.67911 0
M  V30 4790 H 457.762 0.521645 2.50425 0
M  V30 4791 H 457.406 0.765863 5.02093 0
M  V30 4792 H 457.336 -1.00814 5.1686 0
M  V30 4793 H 459.827 -0.32321 3.76515 0
M  V30 4794 H 460.14 -0.0358003 7.72792 0
M  V30 4795 H 458.485 -0.0391461 6.94989 0
M  V30 4796 H 461.676 -0.316347 4.6703 0
M  V30 4797 H 461.849 -0.185514 6.47734 0
M  V30 4798 N 455.255 -1.55392 -0.262866 0
M  V30 4799 C 456.502 -1.76476 -0.993109 0
M  V30 4800 C 456.83 -0.571479 -1.85915 0
M  V30 4801 O 456.085 0.445733 -1.90556 0
M  V30 4802 C 456.384 -3.02889 -1.89718 0
M  V30 4803 C 456.05 -4.34974 -1.18781 0
M  V30 4804 C 454.712 -4.7087 -0.991699 0
M  V30 4805 C 457.064 -5.16695 -0.683798 0
M  V30 4806 C 454.392 -5.86036 -0.279024 0
M  V30 4807 C 456.744 -6.32598 0.0153327 0
M  V30 4808 C 455.408 -6.67127 0.223062 0
M  V30 4809 H 454.678 -0.64577 -0.363404 0
M  V30 4810 H 457.325 -1.89664 -0.264525 0
M  V30 4811 H 455.63 -2.84644 -2.6923 0
M  V30 4812 H 457.327 -3.16399 -2.46359 0
M  V30 4813 H 453.917 -4.06765 -1.35058 0
M  V30 4814 H 458.101 -4.8943 -0.8229 0
M  V30 4815 H 453.357 -6.11306 -0.107456 0
M  V30 4816 H 457.531 -6.95171 0.413584 0
M  V30 4817 H 455.158 -7.56216 0.777265 0
M  V30 4818 N 456.733 0.527833 -1.48498 0
M  V30 4819 C 457.663 1.64136 -1.66077 0
M  V30 4820 C 458.644 1.62286 -0.509625 0
M  V30 4821 O 459.829 1.79449 -0.742413 0
M  V30 4822 C 456.959 3.02717 -1.70234 0
M  V30 4823 C 455.913 3.19426 -2.8487 0
M  V30 4824 C 455.239 4.5909 -2.74118 0
M  V30 4825 C 456.539 3.01993 -4.26142 0
M  V30 4826 H 458.233 1.4968 -2.593 0
M  V30 4827 H 455.779 0.718654 -1.24785 0
M  V30 4828 H 457.732 3.80491 -1.8112 0
M  V30 4829 H 456.456 3.18201 -0.735911 0
M  V30 4830 H 455.115 2.4407 -2.73542 0
M  V30 4831 H 454.763 4.71413 -1.7544 0
M  V30 4832 H 454.463 4.71214 -3.51042 0
M  V30 4833 H 455.987 5.3896 -2.86974 0
M  V30 4834 H 457.401 3.69558 -4.38292 0
M  V30 4835 H 455.798 3.2561 -5.04082 0
M  V30 4836 H 456.868 1.98396 -4.42456 0
M  V30 4837 N 458.211 1.37122 0.776871 0
M  V30 4838 C 459.158 1.3247 1.88998 0
M  V30 4839 C 460.128 0.191143 1.64997 0
M  V30 4840 O 461.313 0.379683 1.86984 0
M  V30 4841 C 458.453 1.13241 3.25992 0
M  V30 4842 C 457.566 2.35782 3.61982 0
M  V30 4843 C 456.701 2.09465 4.88158 0
M  V30 4844 C 455.74 3.279 5.16864 0
M  V30 4845 N 454.877 3.01167 6.34226 0
M  V30 4846 H 459.717 2.27642 1.9231 0
M  V30 4847 H 457.254 1.13125 0.94027 0
M  V30 4848 H 459.212 1.00115 4.0501 0
M  V30 4849 H 457.842 0.217186 3.22069 0
M  V30 4850 H 456.894 2.59666 2.77989 0
M  V30 4851 H 458.206 3.24125 3.79137 0
M  V30 4852 H 457.36 1.93341 5.75069 0
M  V30 4853 H 456.099 1.18452 4.73097 0
M  V30 4854 H 455.104 3.44569 4.2843 0
M  V30 4855 H 456.329 4.19757 5.33836 0
M  V30 4856 H 454.275 2.12779 6.20533 0
M  V30 4857 H 454.192 3.83052 6.51772 0
M  V30 4858 H 455.46 2.88649 7.24087 0
M  V30 4859 N 459.689 -1.00246 1.21608 0
M  V30 4860 C 460.599 -2.12515 0.993709 0
M  V30 4861 C 461.615 -1.73913 -0.0549939 0
M  V30 4862 O 462.791 -2.00943 0.135619 0
M  V30 4863 C 459.856 -3.42083 0.563953 0
M  V30 4864 C 458.917 -3.94843 1.68516 0
M  V30 4865 C 458.15 -5.18226 1.27582 0
M  V30 4866 O 458.373 -5.70201 0.150506 0
M  V30 4867 O 457.307 -5.64497 2.0887 0
M  V30 4868 H 461.133 -2.34152 1.93407 0
M  V30 4869 H 458.718 -1.10891 1.00118 0
M  V30 4870 H 460.6 -4.20073 0.334194 0
M  V30 4871 H 459.275 -3.21828 -0.347665 0
M  V30 4872 H 458.182 -3.18068 1.96935 0
M  V30 4873 H 459.515 -4.19512 2.5743 0
M  V30 4874 N 461.167 -1.02423 -1.1978 0
M  V30 4875 C 462.583 -0.740459 -1.41384 0
M  V30 4876 C 462.783 0.676827 -1.89793 0
M  V30 4877 O 461.839 1.4435 -2.0717 0
M  V30 4878 C 463.152 -1.77264 -2.42895 0
M  V30 4879 C 464.7 -1.79165 -2.56649 0
M  V30 4880 C 465.175 -2.8133 -3.6141 0
M  V30 4881 N 466.666 -2.80118 -3.68901 0
M  V30 4882 C 467.401 -3.55824 -4.49641 0
M  V30 4883 N 466.897 -4.41231 -5.34123 0
M  V30 4884 N 468.69 -3.44387 -4.44246 0
M  V30 4885 H 460.841 -1.9391 -0.866764 0
M  V30 4886 H 463.104 -0.838074 -0.443098 0
M  V30 4887 H 462.81 -2.7884 -2.14339 0
M  V30 4888 H 462.684 -1.59108 -3.42001 0
M  V30 4889 H 465.071 -0.782702 -2.84531 0
M  V30 4890 H 465.152 -2.01396 -1.57713 0
M  V30 4891 H 464.796 -3.82394 -3.34271 0
M  V30 4892 H 464.726 -2.56359 -4.59986 0
M  V30 4893 H 467.217 -2.1817 -3.08562 0
M  V30 4894 H 467.53 -4.95747 -5.92836 0
M  V30 4895 H 465.875 -4.45306 -5.33599 0
M  V30 4896 H 469.066 -2.7708 -3.77285 0
M  V30 4897 H 469.239 -4.0364 -5.06931 0
M  V30 4898 N 462.645 1.35699 -0.801477 0
M  V30 4899 C 463.873 2.03157 -0.391768 0
M  V30 4900 C 464.288 1.60412 0.995668 0
M  V30 4901 O 463.645 0.799228 1.64069 0
M  V30 4902 C 463.696 3.58566 -0.459671 0
M  V30 4903 O 463.417 3.99756 -1.7924 0
M  V30 4904 C 464.918 4.4328 -0.0421205 0
M  V30 4905 H 462.138 0.651688 -0.159825 0
M  V30 4906 H 464.682 1.73426 -1.08368 0
M  V30 4907 H 462.837 3.86963 0.183939 0
M  V30 4908 H 463.251 4.94387 -1.75162 0
M  V30 4909 H 464.725 5.51821 -0.140754 0
M  V30 4910 H 465.202 4.27383 1.01196 0
M  V30 4911 H 465.808 4.20168 -0.658687 0
M  V30 4912 N 464.123 0.554532 1.47522 0
M  V30 4913 C 465.371 0.0294208 2.02079 0
M  V30 4914 C 465.692 -1.32411 1.43151 0
M  V30 4915 O 464.962 -1.863 0.605728 0
M  V30 4916 H 463.542 0.00788672 0.746958 0
M  V30 4917 H 466.204 0.723934 1.80956 0
M  V30 4918 H 465.3 -0.0606745 3.12041 0
M  V30 4919 N 465.601 -1.54893 0.290851 0
M  V30 4920 C 466.848 -1.99933 -0.321391 0
M  V30 4921 C 467.176 -1.17927 -1.54672 0
M  V30 4922 O 466.431 -0.240902 -1.94212 0
M  V30 4923 C 466.73 -3.49815 -0.732397 0
M  V30 4924 C 466.396 -4.4921 0.390056 0
M  V30 4925 C 465.058 -4.76107 0.698223 0
M  V30 4926 C 467.41 -5.08453 1.14562 0
M  V30 4927 C 464.738 -5.59514 1.76526 0
M  V30 4928 C 467.09 -5.9302 2.2025 0
M  V30 4929 C 465.754 -6.18232 2.51684 0
M  V30 4930 H 465.024 -0.731608 -0.117605 0
M  V30 4931 H 467.671 -1.87107 0.407839 0
M  V30 4932 H 465.976 -3.60199 -1.54155 0
M  V30 4933 H 467.673 -3.82083 -1.21712 0
M  V30 4934 H 464.263 -4.28372 0.13976 0
M  V30 4935 H 468.447 -4.87683 0.920801 0
M  V30 4936 H 463.703 -5.77289 2.01364 0
M  V30 4937 H 467.877 -6.37955 2.7926 0
M  V30 4938 H 465.504 -6.82653 3.34499 0
M  V30 4939 N 467.08 -0.0183926 -1.57589 0
M  V30 4940 C 468.012 0.995557 -2.06449 0
M  V30 4941 C 469.025 1.29556 -0.985849 0
M  V30 4942 O 470.214 1.2621 -1.26227 0
M  V30 4943 C 467.314 2.32572 -2.46502 0
M  V30 4944 C 466.487 2.21245 -3.77319 0
M  V30 4945 C 465.546 3.37104 -4.04039 0
M  V30 4946 O 464.572 3.14468 -4.74445 0
M  V30 4947 N 465.774 4.60553 -3.53372 0
M  V30 4948 H 468.539 0.578746 -2.94059 0
M  V30 4949 H 466.1 0.168603 -1.6102 0
M  V30 4950 H 468.092 3.08887 -2.61478 0
M  V30 4951 H 466.662 2.65931 -1.64315 0
M  V30 4952 H 465.882 1.29723 -3.72244 0
M  V30 4953 H 467.17 2.10868 -4.63047 0
M  V30 4954 H 466.568 4.81839 -2.96391 0
M  V30 4955 H 465.125 5.34072 -3.73644 0
M  V30 4956 N 468.558 1.5553 0.254621 0
M  V30 4957 C 469.488 1.9268 1.31897 0
M  V30 4958 C 470.469 0.790797 1.506 0
M  V30 4959 O 471.654 1.05045 1.63337 0
M  V30 4960 C 468.784 2.21477 2.67517 0
M  V30 4961 C 467.738 3.37256 2.63519 0
M  V30 4962 C 467.064 3.51576 4.02862 0
M  V30 4963 C 468.364 4.73157 2.21179 0
M  V30 4964 H 470.058 2.81832 1.01051 0
M  V30 4965 H 467.604 1.35599 0.484662 0
M  V30 4966 H 469.557 2.46055 3.42104 0
M  V30 4967 H 468.281 1.29144 2.99982 0
M  V30 4968 H 466.94 3.12675 1.9139 0
M  V30 4969 H 466.588 2.56676 4.32581 0
M  V30 4970 H 466.288 4.2943 4.01078 0
M  V30 4971 H 467.812 3.78467 4.79161 0
M  V30 4972 H 469.226 4.97158 2.85494 0
M  V30 4973 H 467.623 5.54058 2.30521 0
M  V30 4974 H 468.693 4.70739 1.16332 0
M  V30 4975 N 470.036 -0.519951 1.48776 0
M  V30 4976 C 471.452 -0.849418 1.35119 0
M  V30 4977 C 471.652 -1.98077 0.36982 0
M  V30 4978 O 470.708 -2.51664 -0.205359 0
M  V30 4979 C 472.021 -1.20748 2.75391 0
M  V30 4980 C 473.569 -1.31679 2.83954 0
M  V30 4981 C 474.044 -1.70824 4.24951 0
M  V30 4982 N 475.535 -1.77908 4.27672 0
M  V30 4983 C 476.27 -2.09603 5.33717 0
M  V30 4984 N 475.766 -2.39652 6.5003 0
M  V30 4985 N 477.559 -2.10694 5.21119 0
M  V30 4986 H 469.71 0.226377 2.1119 0
M  V30 4987 H 471.973 0.0386519 0.947212 0
M  V30 4988 H 471.679 -0.449703 3.48813 0
M  V30 4989 H 471.553 -2.15534 3.09556 0
M  V30 4990 H 473.94 -2.06532 2.10781 0
M  V30 4991 H 474.021 -0.3499 2.53396 0
M  V30 4992 H 473.665 -0.965282 4.98643 0
M  V30 4993 H 473.595 -2.6858 4.52959 0
M  V30 4994 H 476.086 -1.56923 3.43779 0
M  V30 4995 H 476.399 -2.6297 7.26682 0
M  V30 4996 H 474.744 -2.37149 6.53288 0
M  V30 4997 H 477.935 -1.86682 4.29264 0
M  V30 4998 H 478.108 -2.35062 6.03863 0
M  V30 4999 N 471.514 -1.37532 -0.769588 0
M  V30 5000 C 472.925 -1.29382 -1.346 0
M  V30 5001 C 473.276 0.0576039 -1.96115 0
M  V30 5002 O 472.401 0.95947 -1.93967 0
M  V30 5003 C 472.996 -2.34298 -2.44724 0
M  V30 5004 C 471.555 -2.29776 -2.98128 0
M  V30 5005 C 470.702 -2.18013 -1.71364 0
M  V30 5006 H 473.653 -1.48123 -0.56968 0
M  V30 5007 H 473.674 -1.99089 -3.24259 0
M  V30 5008 H 473.186 -3.32645 -1.99922 0
M  V30 5009 H 471.287 -1.34959 -3.47299 0
M  V30 5010 H 471.4 -3.23276 -3.53595 0
M  V30 5011 H 469.764 -1.64595 -1.94372 0
M  V30 5012 H 470.547 -3.18278 -1.28662 0
M  V30 5013 N 472.992 0.995999 -1.22138 0
M  V30 5014 C 474.238 1.73767 -1.04561 0
M  V30 5015 C 474.571 1.89633 0.418698 0
M  V30 5016 O 473.846 1.43723 1.3105 0
M  V30 5017 C 474.129 3.14505 -1.75382 0
M  V30 5018 C 473.982 3.06306 -3.29388 0
M  V30 5019 C 475.301 4.13615 -1.50369 0
M  V30 5020 H 472.42 0.630728 -0.38125 0
M  V30 5021 H 475.062 1.16057 -1.50435 0
M  V30 5022 H 473.212 3.63775 -1.36383 0
M  V30 5023 H 474.884 2.64681 -3.77812 0
M  V30 5024 H 473.127 2.43186 -3.59226 0
M  V30 5025 H 473.798 4.05884 -3.74116 0
M  V30 5026 H 476.274 3.73089 -1.84239 0
M  V30 5027 H 475.15 5.10212 -2.02421 0
M  V30 5028 H 475.411 4.39949 -0.435611 0
M  V30 5029 N 474.47 1.03057 1.19235 0
M  V30 5030 C 475.433 0.617418 2.20727 0
M  V30 5031 C 476.433 -0.319856 1.57587 0
M  V30 5032 O 477.623 -0.106633 1.73873 0
M  V30 5033 C 474.755 -0.096296 3.40764 0
M  V30 5034 H 475.948 1.51544 2.58794 0
M  V30 5035 H 473.501 0.821949 1.32942 0
M  V30 5036 H 474.236 -1.00859 3.08217 0
M  V30 5037 H 474.021 0.577217 3.87828 0
M  V30 5038 H 475.511 -0.372219 4.15938 0
M  V30 5039 N 475.948 -1.35272 0.808662 0
M  V30 5040 C 477.196 -1.98316 0.389233 0
M  V30 5041 C 477.517 -1.64465 -1.04767 0
M  V30 5042 O 476.787 -0.928175 -1.72516 0
M  V30 5043 H 475.367 -0.733585 0.140935 0
M  V30 5044 H 478.029 -1.6515 1.03496 0
M  V30 5045 H 477.125 -3.08123 0.496631 0
M  V30 5046 N 477.426 -0.562348 -1.47226 0
M  V30 5047 C 478.356 0.170627 -2.32876 0
M  V30 5048 C 479.337 0.903748 -1.44106 0
M  V30 5049 O 480.522 0.883206 -1.72954 0
M  V30 5050 C 477.652 1.19786 -3.25989 0
M  V30 5051 C 476.606 0.580875 -4.2404 0
M  V30 5052 C 475.932 1.71311 -5.06514 0
M  V30 5053 C 477.232 -0.468714 -5.20193 0
M  V30 5054 H 478.926 -0.544441 -2.94408 0
M  V30 5055 H 476.472 -0.263271 -1.41573 0
M  V30 5056 H 478.425 1.71884 -3.84752 0
M  V30 5057 H 477.149 1.94294 -2.62521 0
M  V30 5058 H 475.808 0.0811538 -3.6651 0
M  V30 5059 H 475.456 2.44736 -4.39447 0
M  V30 5060 H 475.156 1.30604 -5.72902 0
M  V30 5061 H 476.68 2.23725 -5.68137 0
M  V30 5062 H 478.094 -0.0336028 -5.7329 0
M  V30 5063 H 476.491 -0.794957 -5.94811 0
M  V30 5064 H 477.561 -1.36269 -4.65359 0
M  V30 5065 N 478.904 1.54736 -0.299062 0
M  V30 5066 C 479.834 2.26409 0.571085 0
M  V30 5067 C 480.815 1.2629 1.13951 0
M  V30 5068 O 482 1.55059 1.16921 0
M  V30 5069 C 479.13 3.00338 1.74396 0
M  V30 5070 C 478.084 4.07588 1.30599 0
M  V30 5071 C 477.41 4.69222 2.56387 0
M  V30 5072 C 478.71 5.20455 0.438645 0
M  V30 5073 H 480.404 2.99388 -0.0266991 0
M  V30 5074 H 477.95 1.43993 -0.0142812 0
M  V30 5075 H 479.903 3.49198 2.35878 0
M  V30 5076 H 478.627 2.24934 2.36796 0
M  V30 5077 H 477.286 3.59575 0.71424 0
M  V30 5078 H 476.934 3.9046 3.17097 0
M  V30 5079 H 476.634 5.41653 2.27784 0
M  V30 5080 H 478.158 5.20844 3.18675 0
M  V30 5081 H 479.572 5.65221 0.959085 0
M  V30 5082 H 477.969 5.99594 0.246466 0
M  V30 5083 H 479.039 4.8192 -0.536738 0
M  V30 5084 N 480.382 0.0267497 1.57577 0
M  V30 5085 C 481.607 -0.666227 1.96408 0
M  V30 5086 C 482.032 -1.65004 0.903071 0
M  V30 5087 O 481.39 -1.80787 -0.136263 0
M  V30 5088 C 481.438 -1.35101 3.34335 0
M  V30 5089 O 480.542 -2.46623 3.30531 0
M  V30 5090 H 479.883 -0.175206 0.640468 0
M  V30 5091 H 482.413 0.0878977 2.04411 0
M  V30 5092 H 482.423 -1.70834 3.70513 0
M  V30 5093 H 481.098 -0.629844 4.11103 0
M  V30 5094 H 479.675 -2.13019 3.06068 0
M  V30 5095 N 481.861 -1.55662 -0.24637 0
M  V30 5096 C 482.824 -1.89558 -1.28842 0
M  V30 5097 C 483.824 -0.772082 -1.41052 0
M  V30 5098 O 485.014 -1.04007 -1.39743 0
M  V30 5099 C 482.146 -2.12449 -2.66605 0
M  V30 5100 H 483.339 -2.82735 -1.00004 0
M  V30 5101 H 480.892 -1.48562 -0.485684 0
M  V30 5102 H 481.627 -1.21742 -3.00582 0
M  V30 5103 H 481.412 -2.94273 -2.59125 0
M  V30 5104 H 482.902 -2.39854 -3.41847 0
M  V30 5105 N 483.339 0.512053 -1.4905 0
M  V30 5106 C 484.755 0.84224 -1.35567 0
M  V30 5107 C 484.955 1.97878 -0.380319 0
M  V30 5108 O 484.011 2.51769 0.19201 0
M  V30 5109 C 485.324 1.19286 -2.76028 0
M  V30 5110 C 486.872 1.30171 -2.84648 0
M  V30 5111 C 487.347 1.68568 -4.25851 0
M  V30 5112 N 488.838 1.75638 -4.28609 0
M  V30 5113 C 489.573 2.06769 -5.34821 0
M  V30 5114 N 489.069 2.36201 -6.51292 0
M  V30 5115 N 490.862 2.07927 -5.22229 0
M  V30 5116 H 483.013 -0.237574 -2.11067 0
M  V30 5117 H 485.276 -0.0436747 -0.946993 0
M  V30 5118 H 484.982 0.431199 -3.49047 0
M  V30 5119 H 484.856 2.13889 -3.10695 0
M  V30 5120 H 487.243 2.05411 -2.11873 0
M  V30 5121 H 487.324 0.336457 -2.53578 0
M  V30 5122 H 486.968 0.938824 -4.99148 0
M  V30 5123 H 486.898 2.66174 -4.54377 0
M  V30 5124 H 489.389 1.55097 -3.44606 0
M  V30 5125 H 489.702 2.59112 -7.28066 0
M  V30 5126 H 488.047 2.33681 -6.54536 0
M  V30 5127 H 491.238 1.84403 -4.30248 0
M  V30 5128 H 491.411 2.31856 -6.05101 0
M  V30 5129 N 484.817 1.37938 0.762283 0
M  V30 5130 C 486.094 1.24196 1.51112 0
M  V30 5131 C 486.474 -0.160409 2.1049 0
M  V30 5132 O 485.822 -1.16904 1.96331 0
M  V30 5133 C 486.032 2.34537 2.58445 0
M  V30 5134 C 487.38 2.7254 3.25588 0
M  V30 5135 O 488.404 2.33783 2.68745 0
M  V30 5136 O 487.263 3.39343 4.28379 0
M  V30 5137 H 484.357 0.485175 0.669727 0
M  V30 5138 H 486.903 1.49743 0.798438 0
M  V30 5139 H 485.675 3.28406 2.12756 0
M  V30 5140 H 485.298 2.10505 3.37303 0
M  V30 5141 N 486.295 -0.989507 1.22664 0
M  V30 5142 C 487.542 -1.72953 1.05325 0
M  V30 5143 C 487.87 -1.90104 -0.411168 0
M  V30 5144 O 487.125 -1.44386 -1.32103 0
M  V30 5145 C 487.424 -3.13649 1.71345 0
M  V30 5146 C 487.09 -3.16403 3.21248 0
M  V30 5147 C 485.752 -3.16862 3.62149 0
M  V30 5148 C 488.104 -3.12428 4.17179 0
M  V30 5149 C 485.432 -3.11051 4.97458 0
M  V30 5150 C 487.784 -3.08159 5.52468 0
M  V30 5151 C 486.448 -3.06935 5.92746 0
M  V30 5152 H 485.718 -0.632881 0.385412 0
M  V30 5153 H 488.365 -1.15863 1.52473 0
M  V30 5154 H 486.67 -3.74069 1.16532 0
M  V30 5155 H 488.367 -3.69658 1.55416 0
M  V30 5156 H 484.957 -3.16798 2.88682 0
M  V30 5157 H 489.141 -3.11221 3.86595 0
M  V30 5158 H 484.397 -3.0845 5.27891 0
M  V30 5159 H 488.571 -3.04039 6.26525 0
M  V30 5160 H 486.198 -3.02186 6.97558 0
M  V30 5161 N 487.773 -1.03688 -1.18687 0
M  V30 5162 C 488.703 -0.645407 -2.24403 0
M  V30 5163 C 489.684 0.349511 -1.66471 0
M  V30 5164 O 490.869 0.230453 -1.92828 0
M  V30 5165 C 487.999 -0.00365337 -3.473 0
M  V30 5166 C 486.953 -0.921705 -4.17958 0
M  V30 5167 C 486.279 -0.144629 -5.34504 0
M  V30 5168 C 487.579 -2.23909 -4.71871 0
M  V30 5169 H 489.273 -1.52917 -2.57404 0
M  V30 5170 H 486.819 -0.736711 -1.23728 0
M  V30 5171 H 488.772 0.281908 -4.20456 0
M  V30 5172 H 487.496 0.914963 -3.13522 0
M  V30 5173 H 486.155 -1.19159 -3.46694 0
M  V30 5174 H 485.803 0.776274 -4.96974 0
M  V30 5175 H 485.503 -0.756206 -5.82714 0
M  V30 5176 H 487.027 0.134004 -6.10453 0
M  V30 5177 H 488.441 -2.0145 -5.36741 0
M  V30 5178 H 486.838 -2.8033 -5.30599 0
M  V30 5179 H 487.908 -2.88822 -3.895 0
M  V30 5180 N 489.251 1.34841 -0.815825 0
M  V30 5181 C 490.214 2.27959 -0.238185 0
M  V30 5182 C 491.214 1.49983 0.579816 0
M  V30 5183 O 492.404 1.69617 0.396953 0
M  V30 5184 C 489.536 3.34314 0.666876 0
M  V30 5185 H 490.729 2.80558 -1.05958 0
M  V30 5186 H 488.282 1.44852 -0.587156 0
M  V30 5187 H 489.017 2.86916 1.5116 0
M  V30 5188 H 488.802 3.92014 0.0819106 0
M  V30 5189 H 490.292 4.0379 1.06506 0
M  V30 5190 N 490.729 0.570148 1.46925 0
M  V30 5191 C 491.954 0.0542592 2.07329 0
M  V30 5192 C 492.379 -1.23582 1.41806 0
M  V30 5193 O 491.737 -1.74341 0.497479 0
M  V30 5194 C 491.785 -0.111175 3.60429 0
M  V30 5195 O 490.889 -1.17071 3.95434 0
M  V30 5196 H 490.23 0.0571425 0.661537 0
M  V30 5197 H 492.76 0.789516 1.88753 0
M  V30 5198 H 492.77 -0.321315 4.06733 0
M  V30 5199 H 491.445 0.831012 4.07513 0
M  V30 5200 H 490.022 -0.940029 3.60857 0
M  V30 5201 N 492.207 -1.54576 0.307264 0
M  V30 5202 C 493.137 -2.26708 -0.55907 0
M  V30 5203 C 494.118 -1.26893 -1.1328 0
M  V30 5204 O 495.303 -1.55677 -1.16097 0
M  V30 5205 C 492.433 -3.01259 -1.72801 0
M  V30 5206 C 491.387 -4.08275 -1.28435 0
M  V30 5207 C 490.713 -4.70575 -2.53895 0
M  V30 5208 C 492.013 -5.2068 -0.411038 0
M  V30 5209 H 493.707 -2.9937 0.042576 0
M  V30 5210 H 491.253 -1.43983 0.0219173 0
M  V30 5211 H 493.206 -3.50444 -2.34023 0
M  V30 5212 H 491.93 -2.26187 -2.356 0
M  V30 5213 H 490.589 -3.59949 -0.695161 0
M  V30 5214 H 490.237 -3.92136 -3.15021 0
M  V30 5215 H 489.937 -5.42854 -2.24908 0
M  V30 5216 H 491.461 -5.22527 -3.15908 0
M  V30 5217 H 492.875 -5.65721 -0.929097 0
M  V30 5218 H 491.272 -5.99716 -0.214664 0
M  V30 5219 H 492.342 -4.81629 0.562287 0
M  V30 5220 N 493.685 -0.035106 -1.57561 0
M  V30 5221 C 494.648 0.929819 -2.09492 0
M  V30 5222 C 495.648 1.25026 -1.01119 0
M  V30 5223 O 496.838 1.18961 -1.27255 0
M  V30 5224 C 493.97 2.24457 -2.56577 0
M  V30 5225 H 495.163 0.479935 -2.96035 0
M  V30 5226 H 492.716 0.213033 -1.54841 0
M  V30 5227 H 493.451 2.74061 -1.73382 0
M  V30 5228 H 493.236 2.02508 -3.35757 0
M  V30 5229 H 494.726 2.93607 -2.96959 0
M  V30 5230 N 495.163 1.55791 0.238111 0
M  V30 5231 C 496.41 1.78033 0.964907 0
M  V30 5232 C 496.738 0.600984 1.84982 0
M  V30 5233 O 495.993 -0.41536 1.91241 0
M  V30 5234 C 496.292 3.05869 1.84875 0
M  V30 5235 C 495.958 4.36808 1.11846 0
M  V30 5236 C 494.62 4.72388 0.916662 0
M  V30 5237 C 496.972 5.17717 0.60151 0
M  V30 5238 C 494.3 5.86406 0.185756 0
M  V30 5239 C 496.652 6.32494 -0.115972 0
M  V30 5240 C 495.316 6.66688 -0.329168 0
M  V30 5241 H 494.586 0.651469 0.353085 0
M  V30 5242 H 497.233 1.90061 0.234318 0
M  V30 5243 H 495.538 2.88891 2.64668 0
M  V30 5244 H 497.235 3.20278 2.41294 0
M  V30 5245 H 493.825 4.08862 1.28569 0
M  V30 5246 H 498.009 4.90678 0.744932 0
M  V30 5247 H 493.265 6.11399 0.0101886 0
M  V30 5248 H 497.439 6.94425 -0.524127 0
M  V30 5249 H 495.066 7.54884 -0.897474 0
M  V30 5250 N 496.642 -0.504142 1.49319 0
M  V30 5251 C 498.058 -0.835039 1.36012 0
M  V30 5252 C 498.258 -1.97674 0.390808 0
M  V30 5253 O 497.314 -2.51867 -0.178655 0
M  V30 5254 C 498.627 -1.17821 2.76656 0
M  V30 5255 C 500.175 -1.2866 2.85334 0
M  V30 5256 C 500.65 -1.66307 4.26739 0
M  V30 5257 N 502.141 -1.73362 4.29534 0
M  V30 5258 C 502.876 -2.0393 5.35911 0
M  V30 5259 N 502.372 -2.32744 6.52535 0
M  V30 5260 N 504.165 -2.05155 5.23324 0
M  V30 5261 H 496.316 0.248764 2.10938 0
M  V30 5262 H 498.579 0.0486962 0.946748 0
M  V30 5263 H 498.285 -0.412682 3.4927 0
M  V30 5264 H 498.159 -2.12239 3.11825 0
M  V30 5265 H 500.546 -2.04285 2.1296 0
M  V30 5266 H 500.627 -0.323004 2.53752 0
M  V30 5267 H 500.271 -0.91234 4.99639 0
M  V30 5268 H 500.201 -2.63761 4.55782 0
M  V30 5269 H 502.692 -1.53268 3.45424 0
M  V30 5270 H 503.005 -2.55248 7.2943 0
M  V30 5271 H 501.35 -2.30207 6.55767 0
M  V30 5272 H 504.541 -1.82119 4.3122 0
M  V30 5273 H 504.714 -2.28644 6.06322 0
M  V30 5274 N 498.12 -1.38341 -0.754957 0
M  V30 5275 C 499.366 -1.34672 -1.51628 0
M  V30 5276 C 499.699 0.0636036 -1.94096 0
M  V30 5277 O 498.974 1.0245 -1.6533 0
M  V30 5278 C 499.257 -2.30116 -2.76981 0
M  V30 5279 C 499.11 -3.80003 -2.4066 0
M  V30 5280 C 500.429 -2.23715 -3.78998 0
M  V30 5281 H 497.548 -0.490517 -0.550056 0
M  V30 5282 H 500.19 -1.69178 -0.864807 0
M  V30 5283 H 498.34 -2.00821 -3.3257 0
M  V30 5284 H 500.012 -4.19966 -1.90856 0
M  V30 5285 H 498.255 -3.97751 -1.73137 0
M  V30 5286 H 498.926 -4.42244 -3.30339 0
M  V30 5287 H 501.402 -2.49574 -3.32945 0
M  V30 5288 H 500.278 -2.9261 -4.64403 0
M  V30 5289 H 500.539 -1.23554 -4.24484 0
M  V30 5290 N 499.598 0.982988 -1.23187 0
M  V30 5291 C 500.845 1.72392 -1.06241 0
M  V30 5292 C 501.173 1.9032 0.40108 0
M  V30 5293 O 500.428 1.45084 1.31336 0
M  V30 5294 C 500.727 3.12736 -1.73006 0
M  V30 5295 C 500.393 3.14695 -3.22921 0
M  V30 5296 C 499.055 3.14937 -3.63824 0
M  V30 5297 C 501.407 3.10211 -4.1883 0
M  V30 5298 C 498.735 3.08408 -4.99101 0
M  V30 5299 C 501.087 3.05224 -5.54095 0
M  V30 5300 C 499.751 3.03787 -5.94365 0
M  V30 5301 H 499.021 0.630829 -0.388762 0
M  V30 5302 H 501.668 1.15053 -1.53085 0
M  V30 5303 H 499.973 3.73446 -1.18514 0
M  V30 5304 H 501.67 3.68828 -1.57374 0
M  V30 5305 H 498.26 3.15262 -2.90358 0
M  V30 5306 H 502.444 3.09166 -3.8824 0
M  V30 5307 H 497.7 3.05646 -5.29519 0
M  V30 5308 H 501.874 3.00712 -6.28128 0
M  V30 5309 H 499.501 2.98483 -6.99151 0
M  V30 5310 N 501.076 1.04316 1.18135 0
M  V30 5311 C 502.008 0.594444 2.21357 0
M  V30 5312 C 503.021 -0.337215 1.59269 0
M  V30 5313 O 504.21 -0.131337 1.78016 0
M  V30 5314 C 501.31 -0.151251 3.38562 0
M  V30 5315 C 500.483 0.788907 4.30227 0
M  V30 5316 C 499.542 0.0860572 5.2613 0
M  V30 5317 O 498.568 0.717302 5.64662 0
M  V30 5318 N 499.77 -1.17969 5.68387 0
M  V30 5319 H 502.535 1.48227 2.60478 0
M  V30 5320 H 500.096 0.92396 1.32946 0
M  V30 5321 H 502.088 -0.631352 3.99745 0
M  V30 5322 H 500.658 -0.940639 2.98112 0
M  V30 5323 H 499.878 1.44882 3.6661 0
M  V30 5324 H 501.166 1.42738 4.88368 0
M  V30 5325 H 500.564 -1.71302 5.3914 0
M  V30 5326 H 499.121 -1.60402 6.31755 0
M  V30 5327 N 502.554 -1.34406 0.822964 0
M  V30 5328 C 503.794 -2.00103 0.416915 0
M  V30 5329 C 504.158 -1.63826 -1.00125 0
M  V30 5330 O 505.359 -2.22367 -1.51018 0
M  V30 5331 C 503.63 -3.52101 0.613151 0
M  V30 5332 S 505.189 -4.37774 0.299956 0
M  V30 5333 H 502.007 -0.69333 0.157527 0
M  V30 5334 H 504.609 -1.63698 1.06879 0
M  V30 5335 H 503.313 -3.75991 1.64496 0
M  V30 5336 H 502.844 -3.93364 -0.0534554 0
M  V30 5337 H 504.859 -4.8822 -0.886336 0
M  V30 5338 N 504.032 -0.577932 -1.46621 0
M  V30 5339 C 505.26 -0.0671642 -2.06791 0
M  V30 5340 C 505.675 1.23571 -1.42743 0
M  V30 5341 O 505.032 1.74602 -0.531062 0
M  V30 5342 C 505.083 0.110357 -3.61332 0
M  V30 5343 O 504.804 -1.14095 -4.22982 0
M  V30 5344 C 506.305 0.656025 -4.38419 0
M  V30 5345 H 503.525 -0.0552732 -0.66872 0
M  V30 5346 H 506.069 -0.797242 -1.8832 0
M  V30 5347 H 504.224 0.790637 -3.79246 0
M  V30 5348 H 504.638 -0.951742 -5.15793 0
M  V30 5349 H 506.112 0.729438 -5.47159 0
M  V30 5350 H 506.589 1.67195 -4.06131 0
M  V30 5351 H 507.195 0.0107692 -4.25299 0
M  V30 5352 N 505.51 1.54411 -0.315457 0
M  V30 5353 C 506.442 2.21527 0.588067 0
M  V30 5354 C 507.455 1.21263 1.08624 0
M  V30 5355 O 508.644 1.47777 1.00121 0
M  V30 5356 C 505.744 2.85963 1.81875 0
M  V30 5357 C 504.917 4.12291 1.46063 0
M  V30 5358 C 503.976 4.60396 2.54799 0
M  V30 5359 O 503.002 5.25265 2.19283 0
M  V30 5360 N 504.204 4.33935 3.85591 0
M  V30 5361 H 506.969 2.99697 0.013414 0
M  V30 5362 H 504.53 1.61308 -0.138295 0
M  V30 5363 H 506.522 3.15071 2.53993 0
M  V30 5364 H 505.092 2.11548 2.30144 0
M  V30 5365 H 504.312 3.90036 0.571445 0
M  V30 5366 H 505.6 4.9452 1.19695 0
M  V30 5367 H 504.998 3.81996 4.17248 0
M  V30 5368 H 503.555 4.67718 4.53964 0
M  V30 5369 N 506.988 0.0434614 1.5754 0
M  V30 5370 C 508.218 -0.640905 1.96408 0
M  V30 5371 C 508.626 -1.65365 0.919297 0
M  V30 5372 O 507.969 -1.83395 -0.105795 0
M  V30 5373 C 508.031 -1.39141 3.31482 0
M  V30 5374 C 507.695 -0.535375 4.53853 0
M  V30 5375 C 508.692 0.195335 5.19533 0
M  V30 5376 C 506.377 -0.468564 5.0011 0
M  V30 5377 C 508.371 0.981377 6.298 0
M  V30 5378 C 506.058 0.321171 6.10255 0
M  V30 5379 C 507.056 1.04484 6.74961 0
M  V30 5380 O 506.744 1.8216 7.8299 0
M  V30 5381 H 506.476 -0.180584 0.651433 0
M  V30 5382 H 509.03 0.103848 2.05137 0
M  V30 5383 H 507.26 -2.18162 3.19284 0
M  V30 5384 H 508.949 -1.96526 3.55151 0
M  V30 5385 H 509.715 0.15314 4.84758 0
M  V30 5386 H 505.594 -1.02142 4.49542 0
M  V30 5387 H 509.138 1.54674 6.80237 0
M  V30 5388 H 505.035 0.365032 6.44467 0
M  V30 5389 H 505.803 1.74289 7.99728 0
M  V30 5390 N 508.466 -1.55915 -0.229846 0
M  V30 5391 C 509.715 -1.77742 -0.953455 0
M  V30 5392 C 510.028 -0.610524 -1.85828 0
M  V30 5393 O 511.234 -0.712219 -2.61992 0
M  V30 5394 C 509.69 -3.14738 -1.74551 0
M  V30 5395 C 509.298 -4.39126 -0.887242 0
M  V30 5396 C 511.042 -3.45895 -2.46084 0
M  V30 5397 C 508.949 -5.67149 -1.67617 0
M  V30 5398 H 507.879 -0.662648 -0.359741 0
M  V30 5399 H 510.53 -1.82322 -0.207576 0
M  V30 5400 H 508.912 -3.04311 -2.53399 0
M  V30 5401 H 510.086 -4.60588 -0.139892 0
M  V30 5402 H 508.401 -4.15427 -0.284443 0
M  V30 5403 H 510.998 -4.38767 -3.05594 0
M  V30 5404 H 511.341 -2.68007 -3.18556 0
M  V30 5405 H 511.874 -3.57614 -1.74233 0
M  V30 5406 H 508.613 -6.47906 -0.994881 0
M  V30 5407 H 508.133 -5.49763 -2.39836 0
M  V30 5408 H 509.812 -6.07025 -2.23898 0
M  V30 5409 N 509.944 0.496216 -1.49584 0
M  V30 5410 C 511.36 0.827814 -1.36453 0
M  V30 5411 C 511.56 1.97464 -0.401285 0
M  V30 5412 O 510.616 2.51958 0.165296 0
M  V30 5413 C 511.929 1.16352 -2.77277 0
M  V30 5414 C 513.477 1.27145 -2.86013 0
M  V30 5415 C 513.952 1.64042 -4.27615 0
M  V30 5416 N 515.443 1.71082 -4.30448 0
M  V30 5417 C 516.178 2.01085 -5.36984 0
M  V30 5418 N 515.674 2.2928 -6.5376 0
M  V30 5419 N 517.467 2.02376 -5.24405 0
M  V30 5420 H 509.618 -0.259947 -2.10803 0
M  V30 5421 H 511.881 -0.0537163 -0.946477 0
M  V30 5422 H 511.587 0.394153 -3.49484 0
M  V30 5423 H 511.461 2.10582 -3.12946 0
M  V30 5424 H 513.848 2.03152 -2.1404 0
M  V30 5425 H 513.929 0.309542 -2.5392 0
M  V30 5426 H 513.573 0.88583 -5.00115 0
M  V30 5427 H 513.503 2.6134 -4.57175 0
M  V30 5428 H 515.994 1.51434 -3.46232 0
M  V30 5429 H 516.307 2.51376 -7.30774 0
M  V30 5430 H 514.652 2.26726 -6.56978 0
M  V30 5431 H 517.843 1.79829 -4.32179 0
M  V30 5432 H 518.016 2.25425 -6.07526 0
M  V30 5433 N 511.423 1.38739 0.74761 0
M  V30 5434 C 512.373 1.32948 1.85226 0
M  V30 5435 C 513.357 0.212642 1.59489 0
M  V30 5436 O 514.549 0.449121 1.71207 0
M  V30 5437 C 511.678 1.16279 3.23008 0
M  V30 5438 C 510.764 2.32611 3.54617 0
M  V30 5439 N 511.155 3.58065 3.57244 0
M  V30 5440 C 509.453 2.25293 3.84914 0
M  V30 5441 C 510.154 4.34919 3.8629 0
M  V30 5442 N 509.13 3.64348 4.03425 0
M  V30 5443 H 512.932 2.27927 1.85544 0
M  V30 5444 H 510.446 1.32056 0.945253 0
M  V30 5445 H 512.443 1.10214 4.02068 0
M  V30 5446 H 511.103 0.222394 3.23937 0
M  V30 5447 H 512.114 3.91656 3.3886 0
M  V30 5448 H 508.791 1.39446 3.93524 0
M  V30 5449 H 510.181 5.43605 3.94896 0
M  V30 5450 N 512.901 -0.976442 1.23707 0
M  V30 5451 C 513.864 -2.0511 1.02287 0
M  V30 5452 C 514.864 -1.60791 -0.0167195 0
M  V30 5453 O 516.054 -1.72761 0.223408 0
M  V30 5454 C 513.186 -3.36458 0.548507 0
M  V30 5455 H 514.379 -2.25545 1.9766 0
M  V30 5456 H 511.932 -1.15042 1.05806 0
M  V30 5457 H 512.667 -3.21713 -0.408818 0
M  V30 5458 H 512.452 -3.69967 1.29874 0
M  V30 5459 H 513.942 -4.15489 0.419406 0
M  V30 5460 N 514.379 -1.04941 -1.1758 0
M  V30 5461 C 515.604 -0.778253 -1.92245 0
M  V30 5462 C 516.029 0.659707 -1.76152 0
M  V30 5463 O 515.387 1.45803 -1.07755 0
M  V30 5464 C 515.435 -1.16051 -3.41416 0
M  V30 5465 O 514.539 -0.291153 -4.11371 0
M  V30 5466 H 513.88 -0.285619 -0.599431 0
M  V30 5467 H 516.41 -1.40159 -1.49052 0
M  V30 5468 H 516.42 -1.12619 -3.92149 0
M  V30 5469 H 515.095 -2.208 -3.52449 0
M  V30 5470 H 513.672 -0.385851 -3.70898 0
M  V30 5471 N 515.857 1.33968 -0.830081 0
M  V30 5472 C 517.082 2.02813 -0.433796 0
M  V30 5473 C 517.507 1.62076 0.954614 0
M  V30 5474 O 516.865 0.808955 1.62252 0
M  V30 5475 C 516.913 3.56348 -0.552115 0
M  V30 5476 O 516.017 4.10202 0.425191 0
M  V30 5477 H 515.358 0.639817 -0.177567 0
M  V30 5478 H 517.888 1.7106 -1.12248 0
M  V30 5479 H 517.898 4.05722 -0.430513 0
M  V30 5480 H 516.573 3.85344 -1.56471 0
M  V30 5481 H 515.15 3.71979 0.261878 0
M  V30 5482 N 517.335 0.585699 1.46312 0
M  V30 5483 C 518.746 0.159938 1.86014 0
M  V30 5484 C 519.097 -1.27775 1.48889 0
M  V30 5485 O 518.222 -1.96559 0.90519 0
M  V30 5486 C 518.817 0.283485 3.37612 0
M  V30 5487 C 517.376 -0.0874256 3.76298 0
M  V30 5488 C 516.523 0.618055 2.70325 0
M  V30 5489 H 519.474 0.793737 1.37425 0
M  V30 5490 H 519.495 -0.490348 3.77327 0
M  V30 5491 H 519.007 1.32995 3.64601 0
M  V30 5492 H 517.108 -1.13391 3.54927 0
M  V30 5493 H 517.221 0.290975 4.78216 0
M  V30 5494 H 515.585 0.057993 2.54634 0
M  V30 5495 H 516.368 1.66623 3.00153 0
M  V30 5496 N 518.813 -1.54241 0.323641 0
M  V30 5497 C 519.746 -2.20579 -0.584833 0
M  V30 5498 C 520.724 -1.18286 -1.11567 0
M  V30 5499 O 521.908 -1.47025 -1.17966 0
M  V30 5500 C 519.035 -2.86754 -1.80249 0
M  V30 5501 C 518.081 -4.02767 -1.4029 0
M  V30 5502 S 518.914 -5.33693 -0.439539 0
M  V30 5503 C 520.07 -6.03362 -1.66448 0
M  V30 5504 H 520.303 -2.97292 -0.0213238 0
M  V30 5505 H 517.836 -1.54024 0.107726 0
M  V30 5506 H 519.794 -3.25503 -2.50116 0
M  V30 5507 H 518.455 -2.09844 -2.33719 0
M  V30 5508 H 517.648 -4.47933 -2.31024 0
M  V30 5509 H 517.25 -3.65692 -0.783928 0
M  V30 5510 H 519.542 -6.25546 -2.6019 0
M  V30 5511 H 520.485 -6.9689 -1.25498 0
M  V30 5512 H 520.893 -5.33273 -1.85149 0
M  V30 5513 N 520.291 -0.0518155 -1.57515 0
M  V30 5514 C 521.241 0.932017 -2.0808 0
M  V30 5515 C 522.225 1.27141 -0.986098 0
M  V30 5516 O 523.417 1.25373 -1.24943 0
M  V30 5517 C 520.546 2.20665 -2.62986 0
M  V30 5518 C 519.632 1.89462 -3.79427 0
M  V30 5519 N 520.023 1.28621 -4.89173 0
M  V30 5520 C 518.321 2.19327 -3.88345 0
M  V30 5521 C 519.022 1.15062 -5.70207 0
M  V30 5522 N 517.998 1.65372 -5.17835 0
M  V30 5523 H 521.8 0.456964 -2.90326 0
M  V30 5524 H 519.314 0.152619 -1.61681 0
M  V30 5525 H 521.311 2.92044 -2.97516 0
M  V30 5526 H 519.971 2.68776 -1.8218 0
M  V30 5527 H 520.982 0.958341 -5.08956 0
M  V30 5528 H 517.659 2.69955 -3.18482 0
M  V30 5529 H 519.049 0.678243 -6.68468 0
M  V30 5530 N 521.769 1.56035 0.221574 0
M  V30 5531 C 522.994 1.83476 0.967026 0
M  V30 5532 C 523.419 0.632139 1.7716 0
M  V30 5533 O 522.777 -0.419082 1.7639 0
M  V30 5534 C 522.825 3.08907 1.86034 0
M  V30 5535 O 521.929 2.876 2.95567 0
M  V30 5536 H 521.27 0.604913 0.273817 0
M  V30 5537 H 523.8 2.03247 0.234893 0
M  V30 5538 H 523.81 3.3901 2.27016 0
M  V30 5539 H 522.485 3.96068 1.26898 0
M  V30 5540 H 521.062 2.6873 2.58532 0
M  V30 5541 N 523.247 -0.488276 1.49845 0
M  V30 5542 C 524.658 -1.06955 1.53028 0
M  V30 5543 C 525.009 -1.9351 0.323797 0
M  V30 5544 O 524.134 -2.08891 -0.565116 0
M  V30 5545 C 524.729 -1.94643 2.77307 0
M  V30 5546 C 523.288 -2.4791 2.83227 0
M  V30 5547 C 522.435 -1.25833 2.47106 0
M  V30 5548 H 525.386 -0.271626 1.56358 0
M  V30 5549 H 525.407 -2.79496 2.5819 0
M  V30 5550 H 524.919 -1.31621 3.65099 0
M  V30 5551 H 523.02 -3.14535 1.99745 0
M  V30 5552 H 523.133 -2.84193 3.85709 0
M  V30 5553 H 521.497 -1.58764 1.99163 0
M  V30 5554 H 522.28 -0.644993 3.37186 0
M  V30 5555 N 524.725 -1.39134 -0.740242 0
M  V30 5556 C 525.635 -1.39697 -1.88473 0
M  V30 5557 C 526.651 -0.292403 -1.71526 0
M  V30 5558 O 527.827 -0.533021 -1.94219 0
M  V30 5559 C 524.892 -1.23382 -3.24003 0
M  V30 5560 C 523.953 -2.43763 -3.53381 0
M  V30 5561 C 523.186 -2.28216 -4.82445 0
M  V30 5562 O 523.409 -1.28288 -5.55786 0
M  V30 5563 O 522.343 -3.1709 -5.11603 0
M  V30 5564 H 526.169 -2.36159 -1.90952 0
M  V30 5565 H 523.754 -1.20194 -0.887346 0
M  V30 5566 H 525.636 -1.16395 -4.05006 0
M  V30 5567 H 524.311 -0.300121 -3.22306 0
M  V30 5568 H 523.218 -2.56325 -2.72485 0
M  V30 5569 H 524.551 -3.35808 -3.59852 0
M  V30 5570 N 526.204 0.969867 -1.24223 0
M  V30 5571 C 527.615 1.52717 -1.07399 0
M  V30 5572 C 527.966 1.92956 0.355298 0
M  V30 5573 O 527.091 1.77112 1.2434 0
M  V30 5574 C 527.686 2.77521 -1.94339 0
M  V30 5575 C 526.245 3.29615 -1.81744 0
M  V30 5576 C 525.392 2.02537 -1.89405 0
M  V30 5577 H 528.343 0.788399 -1.37732 0
M  V30 5578 H 528.364 3.50773 -1.47439 0
M  V30 5579 H 527.876 2.48203 -2.98357 0
M  V30 5580 H 525.977 3.63789 -0.805505 0
M  V30 5581 H 526.09 3.98661 -2.65718 0
M  V30 5582 H 524.454 2.17151 -1.33108 0
M  V30 5583 H 525.237 1.75587 -2.94999 0
M  V30 5584 N 527.682 1.05563 1.17022 0
M  V30 5585 C 528.959 0.68165 1.83338 0
M  V30 5586 C 529.339 -0.837665 1.93769 0
M  V30 5587 O 528.687 -1.74507 1.47511 0
M  V30 5588 C 528.897 1.375 3.20772 0
M  V30 5589 C 530.245 1.51545 3.96635 0
M  V30 5590 O 531.269 1.33431 3.30264 0
M  V30 5591 O 530.128 1.812 5.15586 0
M  V30 5592 H 527.222 0.240412 0.791285 0
M  V30 5593 H 529.768 1.15545 1.24288 0
M  V30 5594 H 528.54 2.41135 3.08171 0
M  V30 5595 H 528.163 0.890798 3.87493 0
M  V30 5596 N 529.16 -1.33526 0.837174 0
M  V30 5597 C 530.4 -1.99649 0.438115 0
M  V30 5598 C 530.764 -1.64879 -0.983816 0
M  V30 5599 O 531.965 -2.23956 -1.48651 0
M  V30 5600 C 530.236 -3.51431 0.650461 0
M  V30 5601 S 531.795 -4.37431 0.346371 0
M  V30 5602 H 528.613 -0.69162 0.164872 0
M  V30 5603 H 531.215 -1.62556 1.08609 0
M  V30 5604 H 529.919 -3.74225 1.68475 0
M  V30 5605 H 529.45 -3.93398 -0.0117309 0
M  V30 5606 H 531.465 -4.89132 -0.834504 0
M  V30 5607 N 530.638 -0.59345 -1.46 0
M  V30 5608 C 531.878 -0.0859747 -2.04219 0
M  V30 5609 C 532.242 1.25432 -1.45364 0
M  V30 5610 O 533.443 1.85168 -1.9485 0
M  V30 5611 C 531.714 -0.0324314 -3.57385 0
M  V30 5612 S 533.273 0.415908 -4.36824 0
M  V30 5613 H 530.091 -0.0426872 -0.709717 0
M  V30 5614 H 532.693 -0.788369 -1.78899 0
M  V30 5615 H 531.397 -1.01166 -3.97735 0
M  V30 5616 H 530.928 0.6924 -3.87259 0
M  V30 5617 H 532.943 1.66844 -4.67309 0
M  V30 5618 N 532.116 1.54067 -0.331816 0
M  V30 5619 C 533.066 2.21363 0.546101 0
M  V30 5620 C 534.05 1.19698 1.07523 0
M  V30 5621 O 535.242 1.45293 1.01088 0
M  V30 5622 C 532.371 2.98115 1.70242 0
M  V30 5623 C 531.457 4.07127 1.18779 0
M  V30 5624 N 531.848 5.04267 0.393465 0
M  V30 5625 C 530.146 4.21226 1.46576 0
M  V30 5626 C 530.847 5.81585 0.115572 0
M  V30 5627 N 529.823 5.39022 0.703987 0
M  V30 5628 H 533.625 2.93821 -0.0679751 0
M  V30 5629 H 531.139 1.61812 -0.138085 0
M  V30 5630 H 533.136 3.44818 2.34321 0
M  V30 5631 H 531.796 2.27181 2.31989 0
M  V30 5632 H 532.807 5.17888 0.0355757 0
M  V30 5633 H 529.484 3.61509 2.08848 0
M  V30 5634 H 530.874 6.6985 -0.524426 0
M  V30 5635 N 533.594 0.0601682 1.57485 0
M  V30 5636 C 534.504 -0.926121 2.15546 0
M  V30 5637 C 535.52 -1.33532 1.11558 0
M  V30 5638 O 536.696 -1.4104 1.4377 0
M  V30 5639 C 533.761 -2.17952 2.69625 0
M  V30 5640 C 532.822 -1.82783 3.88444 0
M  V30 5641 C 532.055 -3.02148 4.39935 0
M  V30 5642 O 532.278 -4.15803 3.90466 0
M  V30 5643 O 531.212 -2.82639 5.31412 0
M  V30 5644 H 535.038 -0.462289 3.00161 0
M  V30 5645 H 532.623 -0.162246 1.48516 0
M  V30 5646 H 534.505 -2.91474 3.04337 0
M  V30 5647 H 533.18 -2.63456 1.88077 0
M  V30 5648 H 532.087 -1.06549 3.58606 0
M  V30 5649 H 533.42 -1.42072 4.7125 0
M  V30 5650 N 535.072 -1.5615 -0.213296 0
M  V30 5651 C 536.002 -1.96109 -1.26742 0
M  V30 5652 C 536.983 -0.830448 -1.48451 0
M  V30 5653 O 538.168 -1.09339 -1.60495 0
M  V30 5654 C 535.298 -2.28492 -2.61551 0
M  V30 5655 C 534.252 -3.44124 -2.54485 0
M  V30 5656 C 533.578 -3.62134 -3.93399 0
M  V30 5657 C 534.878 -4.78855 -2.08556 0
M  V30 5658 H 536.572 -2.84412 -0.935434 0
M  V30 5659 H 534.118 -1.36836 -0.44854 0
M  V30 5660 H 536.071 -2.55039 -3.3546 0
M  V30 5661 H 534.795 -1.37052 -2.96453 0
M  V30 5662 H 533.454 -3.17639 -1.83033 0
M  V30 5663 H 533.102 -2.68055 -4.25623 0
M  V30 5664 H 532.802 -4.39913 -3.89551 0
M  V30 5665 H 534.326 -3.91038 -4.68958 0
M  V30 5666 H 535.74 -5.04552 -2.72213 0
M  V30 5667 H 534.137 -5.59975 -2.1575 0
M  V30 5668 H 535.207 -4.73657 -1.03811 0
M  V30 5669 N 536.55 0.480323 -1.50102 0
M  V30 5670 C 537.48 1.58769 -1.71215 0
M  V30 5671 C 538.461 1.60583 -0.560997 0
M  V30 5672 O 539.646 1.76996 -0.799127 0
M  V30 5673 C 536.776 2.97148 -1.79778 0
M  V30 5674 C 535.73 3.10201 -2.94888 0
M  V30 5675 C 535.056 4.50137 -2.88584 0
M  V30 5676 C 536.356 2.88283 -4.35534 0
M  V30 5677 H 538.05 1.41354 -2.6393 0
M  V30 5678 H 535.596 0.678591 -1.27008 0
M  V30 5679 H 537.549 3.74536 -1.93133 0
M  V30 5680 H 536.273 3.15699 -0.836772 0
M  V30 5681 H 534.932 2.35244 -2.81169 0
M  V30 5682 H 534.58 4.65593 -1.90349 0
M  V30 5683 H 534.28 4.59808 -3.65856 0
M  V30 5684 H 535.804 5.29558 -3.03976 0
M  V30 5685 H 537.218 3.55427 -4.49827 0
M  V30 5686 H 535.615 3.09408 -5.14186 0
M  V30 5687 H 536.685 1.84219 -4.48544 0
M  V30 5688 N 538.028 1.39524 0.732853 0
M  V30 5689 C 539.276 1.36594 1.48951 0
M  V30 5690 C 539.597 -0.0367507 1.94965 0
M  V30 5691 O 538.867 -0.988391 1.69138 0
M  V30 5692 H 537.447 0.502673 0.552566 0
M  V30 5693 H 540.109 1.74411 0.869869 0
M  V30 5694 H 539.205 2.03 2.3706 0
M  V30 5695 N 539.506 -0.963266 1.24736 0
M  V30 5696 C 540.456 -2.0438 1.01058 0
M  V30 5697 C 541.44 -1.60824 -0.0495354 0
M  V30 5698 O 542.632 -1.76232 0.164741 0
M  V30 5699 C 539.761 -3.37617 0.622067 0
M  V30 5700 C 538.847 -3.87722 1.7185 0
M  V30 5701 N 539.238 -4.10715 2.95207 0
M  V30 5702 C 537.536 -4.16426 1.59703 0
M  V30 5703 C 538.237 -4.51872 3.66315 0
M  V30 5704 N 537.213 -4.57302 2.93897 0
M  V30 5705 H 541.015 -2.20138 1.94721 0
M  V30 5706 H 538.529 -1.14741 1.14927 0
M  V30 5707 H 540.526 -4.14638 0.43366 0
M  V30 5708 H 539.186 -3.23242 -0.307327 0
M  V30 5709 H 540.197 -3.98037 3.31341 0
M  V30 5710 H 536.874 -4.10962 0.73598 0
M  V30 5711 H 538.264 -4.78037 4.72155 0
M  V30 5712 N 540.985 -1.06182 -1.16461 0
M  V30 5713 C 542.231 -0.779015 -1.87241 0
M  V30 5714 C 542.564 0.692715 -1.81425 0
M  V30 5715 O 541.839 1.5074 -1.22913 0
M  V30 5716 C 542.122 -1.2728 -3.36856 0
M  V30 5717 C 541.975 -2.80821 -3.51368 0
M  V30 5718 C 543.294 -0.879799 -4.31216 0
M  V30 5719 H 540.413 -0.284464 -0.679889 0
M  V30 5720 H 543.055 -1.31755 -1.36896 0
M  V30 5721 H 541.205 -0.814673 -3.79862 0
M  V30 5722 H 542.877 -3.34833 -3.17308 0
M  V30 5723 H 541.12 -3.19606 -2.93316 0
M  V30 5724 H 541.791 -3.10435 -4.56436 0
M  V30 5725 H 544.267 -1.27436 -3.96105 0
M  V30 5726 H 543.143 -1.25278 -5.34412 0
M  V30 5727 H 543.404 0.215372 -4.41575 0
M  V30 5728 N 542.463 1.3308 -0.844243 0
M  V30 5729 C 543.874 1.7992 -0.498566 0
M  V30 5730 C 544.225 1.69808 0.982834 0
M  V30 5731 O 543.35 1.25051 1.7661 0
M  V30 5732 C 543.945 3.26677 -0.898204 0
M  V30 5733 C 542.504 3.71513 -0.604583 0
M  V30 5734 C 541.651 2.54393 -1.10362 0
M  V30 5735 H 544.602 1.20526 -1.03244 0
M  V30 5736 H 544.623 3.79918 -0.21039 0
M  V30 5737 H 544.135 3.34004 -1.97643 0
M  V30 5738 H 542.236 3.69708 0.46335 0
M  V30 5739 H 542.349 4.64755 -1.16358 0
M  V30 5740 H 540.713 2.49246 -0.524273 0
M  V30 5741 H 541.496 2.6448 -2.18873 0
M  V30 5742 N 543.941 0.601185 1.45683 0
M  V30 5743 C 544.874 -0.17013 2.27565 0
M  V30 5744 C 545.852 -0.879661 1.36751 0
M  V30 5745 O 547.036 -0.889827 1.66176 0
M  V30 5746 C 544.163 -1.24568 3.14961 0
M  V30 5747 C 543.209 -0.639978 4.21671 0
M  V30 5748 S 544.042 0.547275 5.32696 0
M  V30 5749 C 545.198 -0.529019 6.2366 0
M  V30 5750 H 545.431 0.524583 2.92635 0
M  V30 5751 H 542.964 0.388537 1.49431 0
M  V30 5752 H 544.922 -1.86138 3.65873 0
M  V30 5753 H 543.583 -1.91243 2.49169 0
M  V30 5754 H 542.776 -1.44903 4.8272 0
M  V30 5755 H 542.378 -0.0995558 3.73867 0
M  V30 5756 H 544.67 -1.40981 6.62669 0
M  V30 5757 H 545.613 0.0451599 7.08086 0
M  V30 5758 H 546.021 -0.84147 5.58193 0
M  V30 5759 N 545.419 -1.53889 0.339982 0
M  V30 5760 C 546.349 -2.27843 -0.510856 0
M  V30 5761 C 547.33 -1.29267 -1.10563 0
M  V30 5762 O 548.515 -1.58104 -1.12768 0
M  V30 5763 C 545.645 -3.04857 -1.66372 0
M  V30 5764 C 544.599 -4.10907 -1.19746 0
M  V30 5765 C 543.925 -4.75855 -2.43857 0
M  V30 5766 C 545.225 -5.21435 -0.300501 0
M  V30 5767 H 546.919 -2.99212 0.106067 0
M  V30 5768 H 544.465 -1.43904 0.0524533 0
M  V30 5769 H 546.418 -3.5533 -2.26537 0
M  V30 5770 H 545.142 -2.31133 -2.30749 0
M  V30 5771 H 543.801 -3.61342 -0.618654 0
M  V30 5772 H 543.449 -3.9873 -3.06633 0
M  V30 5773 H 543.149 -5.47502 -2.13343 0
M  V30 5774 H 544.673 -5.2911 -3.04754 0
M  V30 5775 H 546.087 -5.67565 -0.80889 0
M  V30 5776 H 544.484 -6.00036 -0.0874076 0
M  V30 5777 H 545.554 -4.80328 0.664321 0
M  V30 5778 N 546.897 -0.0685191 -1.57451 0
M  V30 5779 C 547.86 0.885173 -2.11417 0
M  V30 5780 C 548.86 1.22853 -1.03748 0
M  V30 5781 O 550.05 1.16235 -1.2975 0
M  V30 5782 C 547.182 2.18964 -2.61281 0
M  V30 5783 H 548.375 0.417034 -2.96986 0
M  V30 5784 H 545.928 0.18014 -1.55258 0
M  V30 5785 H 546.663 2.70321 -1.79156 0
M  V30 5786 H 546.448 1.9534 -3.39977 0
M  V30 5787 H 547.938 2.87242 -3.0312 0
M  V30 5788 N 548.375 1.56261 0.205012 0
M  V30 5789 C 549.652 1.70856 0.952233 0
M  V30 5790 C 550.032 0.620501 2.01775 0
M  V30 5791 O 549.38 -0.370035 2.25484 0
M  V30 5792 C 549.59 3.12807 1.54767 0
M  V30 5793 C 550.938 3.72733 2.0336 0
M  V30 5794 O 551.962 3.15873 1.64629 0
M  V30 5795 O 550.821 4.72501 2.746 0
M  V30 5796 H 547.915 0.696496 0.445895 0
M  V30 5797 H 550.461 1.6857 0.195489 0
M  V30 5798 H 549.233 3.83465 0.779132 0
M  V30 5799 H 548.856 3.1928 2.36951 0
M  V30 5800 N 549.853 -0.472356 1.50355 0
M  V30 5801 C 551.269 -0.806001 1.37753 0
M  V30 5802 C 551.469 -1.968 0.432649 0
M  V30 5803 O 550.525 -2.52189 -0.12519 0
M  V30 5804 C 551.838 -1.11926 2.79093 0
M  V30 5805 C 553.386 -1.22579 2.87999 0
M  V30 5806 C 553.861 -1.57218 4.3017 0
M  V30 5807 N 555.352 -1.64212 4.33115 0
M  V30 5808 C 556.087 -1.92517 5.40116 0
M  V30 5809 N 555.583 -2.1885 6.57325 0
M  V30 5810 N 557.376 -1.94008 5.27558 0
M  V30 5811 H 549.527 0.293451 2.10363 0
M  V30 5812 H 551.79 0.0687672 0.945503 0
M  V30 5813 H 551.496 -0.338504 3.50067 0
M  V30 5814 H 551.37 -2.05577 3.16256 0
M  V30 5815 H 553.757 -1.99722 2.17245 0
M  V30 5816 H 553.838 -0.269107 2.54381 0
M  V30 5817 H 553.482 -0.806154 5.01461 0
M  V30 5818 H 553.412 -2.54034 4.61275 0
M  V30 5819 H 555.903 -1.45906 3.48597 0
M  V30 5820 H 556.216 -2.39718 7.3468 0
M  V30 5821 H 554.561 -2.16245 6.60502 0
M  V30 5822 H 557.752 -1.72931 4.34986 0
M  V30 5823 H 557.925 -2.15731 6.11035 0
M  V30 5824 N 551.331 -1.39911 -0.725443 0
M  V30 5825 C 552.559 -1.40949 -1.51463 0
M  V30 5826 C 552.974 -0.0065242 -1.88799 0
M  V30 5827 O 552.331 0.967163 -1.54765 0
M  V30 5828 C 552.382 -2.29119 -2.79619 0
M  V30 5829 O 552.103 -3.63952 -2.43866 0
M  V30 5830 C 553.604 -2.38642 -3.73584 0
M  V30 5831 H 550.824 -0.481091 -0.467752 0
M  V30 5832 H 553.368 -1.83843 -0.895651 0
M  V30 5833 H 551.523 -1.89612 -3.37826 0
M  V30 5834 H 551.937 -4.10677 -3.26258 0
M  V30 5835 H 553.411 -3.04563 -4.60375 0
M  V30 5836 H 553.888 -1.40846 -4.16004 0
M  V30 5837 H 554.494 -2.78659 -3.21293 0
M  V30 5838 N 552.809 0.956637 -1.25245 0
M  V30 5839 C 554.056 1.701 -1.09874 0
M  V30 5840 C 554.384 1.91128 0.36062 0
M  V30 5841 O 553.639 1.47837 1.28229 0
M  V30 5842 C 553.938 3.08996 -1.79601 0
M  V30 5843 C 553.604 3.07774 -3.29523 0
M  V30 5844 C 552.266 3.07149 -3.70423 0
M  V30 5845 C 554.618 3.01257 -4.25316 0
M  V30 5846 C 551.946 2.97752 -5.0553 0
M  V30 5847 C 554.298 2.93403 -5.60444 0
M  V30 5848 C 552.962 2.91111 -6.00675 0
M  V30 5849 H 552.232 0.62244 -0.402056 0
M  V30 5850 H 554.879 1.1178 -1.55491 0
M  V30 5851 H 553.184 3.70848 -1.26408 0
M  V30 5852 H 554.881 3.65407 -1.65162 0
M  V30 5853 H 551.471 3.09032 -2.9698 0
M  V30 5854 H 555.655 3.00861 -3.9471 0
M  V30 5855 H 550.911 2.94346 -5.35883 0
M  V30 5856 H 555.085 2.87321 -6.34366 0
M  V30 5857 H 552.712 2.83586 -7.05325 0
M  V30 5858 N 554.287 1.06798 1.15896 0
M  V30 5859 C 555.25 0.687328 2.18651 0
M  V30 5860 C 556.25 -0.269559 1.58524 0
M  V30 5861 O 557.44 -0.0512627 1.74125 0
M  V30 5862 C 554.572 0.0121642 3.40898 0
M  V30 5863 H 555.765 1.59701 2.53842 0
M  V30 5864 H 553.318 0.863828 1.3026 0
M  V30 5865 H 554.053 -0.910025 3.1127 0
M  V30 5866 H 553.838 0.700309 3.85795 0
M  V30 5867 H 555.328 -0.239703 4.16911 0
M  V30 5868 N 555.766 -1.3263 0.851289 0
M  V30 5869 C 556.698 -2.27824 0.250757 0
M  V30 5870 C 557.711 -1.52285 -0.575598 0
M  V30 5871 O 558.9 -1.73946 -0.400638 0
M  V30 5872 C 556 -3.3232 -0.664571 0
M  V30 5873 C 555.173 -4.37221 0.125187 0
M  V30 5874 C 554.232 -5.21314 -0.715385 0
M  V30 5875 O 553.258 -5.69002 -0.150111 0
M  V30 5876 N 554.46 -5.43823 -2.03069 0
M  V30 5877 H 557.225 -2.79997 1.06873 0
M  V30 5878 H 554.786 -1.45455 0.710943 0
M  V30 5879 H 556.778 -3.85486 -1.23216 0
M  V30 5880 H 555.348 -2.80331 -1.38323 0
M  V30 5881 H 554.568 -3.84384 0.874199 0
M  V30 5882 H 555.856 -5.04399 0.667774 0
M  V30 5883 H 555.254 -5.06803 -2.51332 0
M  V30 5884 H 553.811 -5.99998 -2.54648 0
M  V30 5885 N 557.244 -0.608902 -1.45362 0
M  V30 5886 C 558.491 -0.104607 -2.0223 0
M  V30 5887 C 558.819 1.26534 -1.47714 0
M  V30 5888 O 558.074 1.84855 -0.642435 0
M  V30 5889 C 558.373 -0.0167296 -3.57396 0
M  V30 5890 C 558.039 -1.32251 -4.31069 0
M  V30 5891 C 556.701 -1.68019 -4.50914 0
M  V30 5892 C 559.053 -2.18542 -4.73169 0
M  V30 5893 C 556.381 -2.89828 -5.10114 0
M  V30 5894 C 558.733 -3.39602 -5.33717 0
M  V30 5895 C 557.397 -3.7562 -5.51784 0
M  V30 5896 H 556.667 -0.0382785 -0.740011 0
M  V30 5897 H 559.314 -0.790782 -1.7441 0
M  V30 5898 H 557.619 0.752715 -3.84502 0
M  V30 5899 H 559.316 0.389634 -3.99103 0
M  V30 5900 H 555.906 -1.03411 -4.15938 0
M  V30 5901 H 560.09 -1.92208 -4.5757 0
M  V30 5902 H 555.346 -3.17839 -5.22291 0
M  V30 5903 H 559.52 -4.06716 -5.65292 0
M  V30 5904 H 557.147 -4.70093 -5.97425 0
M  V30 5905 N 558.722 1.53707 -0.348139 0
M  V30 5906 C 559.947 2.05877 0.250883 0
M  V30 5907 C 560.372 1.22115 1.43072 0
M  V30 5908 O 559.73 0.235986 1.79758 0
M  V30 5909 C 559.778 3.54886 0.639416 0
M  V30 5910 O 558.882 3.73948 1.73888 0
M  V30 5911 H 558.223 0.662754 0.040653 0
M  V30 5912 H 560.753 1.98303 -0.503685 0
M  V30 5913 H 560.763 3.97601 0.915295 0
M  V30 5914 H 559.438 4.153 -0.223386 0
M  V30 5915 H 558.015 3.43134 1.45991 0
M  V30 5916 N 560.2 0.0768682 1.57412 0
M  V30 5917 C 561.132 -0.918248 2.10002 0
M  V30 5918 C 562.145 -1.25808 1.03325 0
M  V30 5919 O 563.334 -1.21438 1.30824 0
M  V30 5920 C 560.434 -2.23263 2.54964 0
M  V30 5921 C 559.607 -2.07088 3.8527 0
M  V30 5922 C 558.666 -3.21876 4.16272 0
M  V30 5923 O 557.692 -2.96643 4.8579 0
M  V30 5924 N 558.894 -4.4712 3.70221 0
M  V30 5925 H 561.659 -0.469209 2.96004 0
M  V30 5926 H 559.22 -0.108725 1.61535 0
M  V30 5927 H 561.212 -2.9897 2.72762 0
M  V30 5928 H 559.782 -2.59649 1.74072 0
M  V30 5929 H 559.002 -1.15818 3.76802 0
M  V30 5930 H 560.29 -1.93537 4.70554 0
M  V30 5931 H 559.688 -4.70506 3.1407 0
M  V30 5932 H 558.245 -5.19837 3.93209 0
M  V30 5933 N 561.678 -1.56367 -0.196722 0
M  V30 5934 C 562.955 -1.71359 -0.943159 0
M  V30 5935 C 563.335 -0.631192 -2.01443 0
M  V30 5936 O 562.683 0.358071 -2.25677 0
M  V30 5937 C 562.893 -3.13623 -1.53106 0
M  V30 5938 C 564.241 -3.73806 -2.01381 0
M  V30 5939 O 565.265 -3.16742 -1.62951 0
M  V30 5940 O 564.124 -4.73951 -2.7209 0
M  V30 5941 H 561.218 -0.698851 -0.442195 0
M  V30 5942 H 563.764 -1.68672 -0.186547 0
M  V30 5943 H 562.536 -3.83873 -0.758785 0
M  V30 5944 H 562.159 -3.20532 -2.35255 0
M  V30 5945 N 563.156 0.464375 -1.50603 0
M  V30 5946 C 564.405 1.21277 -1.61167 0
M  V30 5947 C 564.718 1.92953 -0.320704 0
M  V30 5948 O 565.924 2.69778 -0.30534 0
M  V30 5949 C 564.38 2.20403 -2.84518 0
M  V30 5950 C 563.988 1.54499 -4.20516 0
M  V30 5951 C 565.732 2.95843 -3.0443 0
M  V30 5952 C 563.639 2.51951 -5.35047 0
M  V30 5953 H 562.569 0.456367 -0.600204 0
M  V30 5954 H 565.22 0.48254 -1.77042 0
M  V30 5955 H 563.602 2.96746 -2.62217 0
M  V30 5956 H 564.776 0.83899 -4.53098 0
M  V30 5957 H 563.091 0.913152 -4.06264 0
M  V30 5958 H 565.688 3.6879 -3.87167 0
M  V30 5959 H 566.031 3.55622 -2.16423 0
M  V30 5960 H 566.564 2.26611 -3.26944 0
M  V30 5961 H 563.303 1.96901 -6.25228 0
M  V30 5962 H 562.823 3.20683 -5.06875 0
M  V30 5963 H 564.502 3.13643 -5.65895 0
M  V30 5964 N 564.634 1.40294 0.718013 0
M  V30 5965 C 565.882 1.38167 1.47494 0
M  V30 5966 C 566.203 -0.01607 1.94993 0
M  V30 5967 O 565.473 -0.970396 1.70177 0
M  V30 5968 H 564.053 0.508505 0.547203 0
M  V30 5969 H 566.715 1.75324 0.851322 0
M  V30 5970 H 565.811 2.05503 2.34894 0
M  V30 5971 N 566.112 -0.949982 1.2575 0
M  V30 5972 C 567.042 -2.06483 1.09028 0
M  V30 5973 C 568.023 -1.701 -0.00201532 0
M  V30 5974 O 569.208 -1.93469 0.168383 0
M  V30 5975 C 566.338 -3.39899 0.71316 0
M  V30 5976 C 565.292 -3.90309 1.75621 0
M  V30 5977 C 564.618 -5.20274 1.23365 0
M  V30 5978 C 565.918 -4.16169 3.15596 0
M  V30 5979 H 567.612 -2.20731 2.02283 0
M  V30 5980 H 565.158 -1.06066 0.973964 0
M  V30 5981 H 567.111 -4.17346 0.58309 0
M  V30 5982 H 565.835 -3.25602 -0.255091 0
M  V30 5983 H 564.494 -3.15035 1.8748 0
M  V30 5984 H 564.142 -5.02351 0.255491 0
M  V30 5985 H 563.842 -5.54971 1.93082 0
M  V30 5986 H 565.366 -6.00314 1.11607 0
M  V30 5987 H 566.78 -4.84259 3.06864 0
M  V30 5988 H 565.177 -4.62131 3.82825 0
M  V30 5989 H 566.247 -3.22273 3.6231 0
M  V30 5990 N 567.59 -1.07411 -1.15328 0
M  V30 5991 C 568.553 -0.698914 -2.18284 0
M  V30 5992 C 569.553 0.261149 -1.58665 0
M  V30 5993 O 570.743 0.0420277 -1.74149 0
M  V30 5994 C 567.875 -0.0302427 -3.40887 0
M  V30 5995 H 569.068 -1.61045 -2.52991 0
M  V30 5996 H 566.621 -0.870724 -1.298 0
M  V30 5997 H 567.356 0.893505 -3.11748 0
M  V30 5998 H 567.141 -0.720759 -3.85419 0
M  V30 5999 H 568.631 0.21759 -4.17033 0
M  V30 6000 N 569.068 1.32177 -0.85831 0
M  V30 6001 C 570.293 2.01847 -0.476718 0
M  V30 6002 C 570.718 1.64065 0.920021 0
M  V30 6003 O 570.076 0.843189 1.60499 0
M  V30 6004 C 570.124 3.55097 -0.627578 0
M  V30 6005 O 569.228 4.11012 0.338086 0
M  V30 6006 H 568.569 0.635907 -0.191099 0
M  V30 6007 H 571.099 1.68641 -1.15851 0
M  V30 6008 H 571.109 4.04718 -0.516476 0
M  V30 6009 H 569.784 3.81938 -1.64609 0
M  V30 6010 H 568.361 3.72451 0.182917 0
M  V30 6011 N 570.547 0.616602 1.45037 0
M  V30 6012 C 571.477 -0.0840787 2.33349 0
M  V30 6013 C 572.458 -0.849641 1.4736 0
M  V30 6014 O 573.643 -0.818407 1.76113 0
M  V30 6015 C 570.773 -1.07604 3.3021 0
M  V30 6016 C 569.727 -0.423096 4.25904 0
M  V30 6017 C 569.053 -1.52394 5.12523 0
M  V30 6018 C 570.353 0.661457 5.18095 0
M  V30 6019 H 572.047 0.653333 2.92185 0
M  V30 6020 H 569.593 0.315634 1.40498 0
M  V30 6021 H 571.546 -1.57485 3.90866 0
M  V30 6022 H 570.27 -1.84416 2.69552 0
M  V30 6023 H 568.929 0.05493 3.66559 0
M  V30 6024 H 568.577 -2.28257 4.48227 0
M  V30 6025 H 568.277 -1.09251 5.77354 0
M  V30 6026 H 569.801 -2.02485 5.76049 0
M  V30 6027 H 571.215 0.246353 5.7277 0
M  V30 6028 H 569.612 1.01517 5.91451 0
M  V30 6029 H 570.682 1.53446 4.59981 0
M  V30 6030 N 572.025 -1.5352 0.356285 0
M  V30 6031 C 573.273 -2.00719 -0.235837 0
M  V30 6032 C 573.594 -1.24551 -1.5004 0
M  V30 6033 O 572.864 -0.356185 -1.92635 0
M  V30 6034 H 571.444 -0.741542 -0.0901366 0
M  V30 6035 H 574.106 -1.88887 0.480378 0
M  V30 6036 H 573.202 -3.08551 -0.469357 0
M  V30 6037 N 573.503 -0.0852151 -1.57369 0
M  V30 6038 C 574.466 0.8627 -2.12344 0
M  V30 6039 C 575.466 1.21746 -1.05046 0
M  V30 6040 O 576.656 1.14852 -1.30976 0
M  V30 6041 C 573.788 2.1618 -2.63589 0
M  V30 6042 H 574.981 0.385511 -2.97412 0
M  V30 6043 H 572.534 0.163663 -1.55441 0
M  V30 6044 H 573.269 2.68406 -1.82013 0
M  V30 6045 H 573.054 1.91723 -3.4203 0
M  V30 6046 H 574.544 2.84011 -3.06149 0
M  V30 6047 N 574.981 1.5647 0.188427 0
M  V30 6048 C 576.206 1.85486 0.927891 0
M  V30 6049 C 576.631 0.669575 1.75779 0
M  V30 6050 O 575.989 -0.381573 1.77239 0
M  V30 6051 C 576.037 3.12784 1.7944 0
M  V30 6052 O 575.141 2.93805 2.894 0
M  V30 6053 H 574.482 0.610585 0.260925 0
M  V30 6054 H 577.012 2.037 0.191729 0
M  V30 6055 H 577.022 3.43749 2.19774 0
M  V30 6056 H 575.697 3.98671 1.18468 0
M  V30 6057 H 574.274 2.74153 2.52774 0
M  V30 6058 N 576.459 -0.456382 1.50847 0
M  V30 6059 C 577.736 -1.21739 1.53098 0
M  V30 6060 C 578.116 -2.09179 0.284132 0
M  V30 6061 O 577.464 -2.16466 -0.731773 0
M  V30 6062 C 577.674 -2.03573 2.83477 0
M  V30 6063 C 579.022 -2.61264 3.34703 0
M  V30 6064 O 580.046 -2.13802 2.84898 0
M  V30 6065 O 578.905 -3.47779 4.21559 0
M  V30 6066 H 575.999 -0.553219 0.614718 0
M  V30 6067 H 578.545 -0.467003 1.63148 0
M  V30 6068 H 577.317 -1.39232 3.65691 0
M  V30 6069 H 576.94 -2.85716 2.76499 0
M  V30 6070 N 577.937 -1.40673 -0.710563 0
M  V30 6071 C 578.847 -1.43663 -1.85467 0
M  V30 6072 C 579.863 -0.328721 -1.70867 0
M  V30 6073 O 581.039 -0.574098 -1.93044 0
M  V30 6074 C 578.104 -1.30226 -3.21313 0
M  V30 6075 C 577.165 -2.51204 -3.48131 0
M  V30 6076 C 576.398 -2.38398 -4.77495 0
M  V30 6077 O 576.621 -1.40048 -5.5294 0
M  V30 6078 O 575.555 -3.2787 -5.04762 0
M  V30 6079 H 579.381 -2.40156 -1.859 0
M  V30 6080 H 576.966 -1.22049 -0.861652 0
M  V30 6081 H 578.848 -1.2496 -4.02446 0
M  V30 6082 H 577.523 -0.368419 -3.21597 0
M  V30 6083 H 576.43 -2.62048 -2.66987 0
M  V30 6084 H 577.763 -3.43366 -3.52648 0
M  V30 6085 N 579.415 0.9433 -1.26252 0
M  V30 6086 C 580.325 2.07532 -1.09397 0
M  V30 6087 C 581.341 1.73977 -0.0280449 0
M  V30 6088 O 582.517 2.00067 -0.231337 0
M  V30 6089 C 579.582 3.39002 -0.726523 0
M  V30 6090 C 578.643 3.86353 -1.87163 0
M  V30 6091 C 577.876 5.11549 -1.52162 0
M  V30 6092 O 578.099 5.68834 -0.422385 0
M  V30 6093 O 577.033 5.53889 -2.35565 0
M  V30 6094 H 580.859 2.24658 -2.04359 0
M  V30 6095 H 578.444 1.05988 -1.05295 0
M  V30 6096 H 580.326 4.18 -0.534236 0
M  V30 6097 H 579.001 3.2312 0.193721 0
M  V30 6098 H 577.908 3.0831 -2.11886 0
M  V30 6099 H 579.241 4.06752 -2.77152 0
M  V30 6100 N 580.893 1.08022 1.14757 0
M  V30 6101 C 582.142 0.802468 1.8505 0
M  V30 6102 C 582.455 -0.674061 1.83619 0
M  V30 6103 O 583.661 -1.06683 2.49662 0
M  V30 6104 C 582.117 1.38551 3.32162 0
M  V30 6105 C 581.725 2.89354 3.42021 0
M  V30 6106 C 583.469 1.18608 4.07594 0
M  V30 6107 C 581.376 3.40815 4.83321 0
M  V30 6108 H 580.306 0.296518 0.693248 0
M  V30 6109 H 582.957 1.30114 1.29393 0
M  V30 6110 H 581.339 0.814556 3.87532 0
M  V30 6111 H 582.513 3.52552 2.96722 0
M  V30 6112 H 580.828 3.08165 2.80041 0
M  V30 6113 H 583.425 1.54525 5.11885 0
M  V30 6114 H 583.768 0.125599 4.1611 0
M  V30 6115 H 584.301 1.72375 3.58513 0
M  V30 6116 H 581.04 4.46418 4.79991 0
M  V30 6117 H 580.56 2.82374 5.29174 0
M  V30 6118 H 582.239 3.37171 5.522 0
M  V30 6119 N 582.371 -1.3172 0.865308 0
M  V30 6120 C 583.281 -2.32394 0.320935 0
M  V30 6121 C 584.297 -1.64511 -0.566746 0
M  V30 6122 O 585.473 -1.95969 -0.464575 0
M  V30 6123 C 582.538 -3.43462 -0.472701 0
M  V30 6124 C 581.599 -4.27015 0.442385 0
M  V30 6125 C 580.832 -5.32779 -0.313469 0
M  V30 6126 O 581.055 -5.49158 -1.54214 0
M  V30 6127 O 579.989 -6.01015 0.326257 0
M  V30 6128 H 583.815 -2.80868 1.15528 0
M  V30 6129 H 581.4 -1.35535 0.628545 0
M  V30 6130 H 583.282 -4.11172 -0.922781 0
M  V30 6131 H 581.957 -2.97159 -1.28367 0
M  V30 6132 H 580.864 -3.62075 0.940866 0
M  V30 6133 H 582.197 -4.76871 1.21882 0
M  V30 6134 N 583.85 -0.624285 -1.44708 0
M  V30 6135 C 584.797 0.0847135 -2.30644 0
M  V30 6136 C 585.767 0.843575 -1.43084 0
M  V30 6137 O 586.952 0.825982 -1.71995 0
M  V30 6138 C 584.091 1.06495 -3.28257 0
M  V30 6139 C 583.205 0.305224 -4.3092 0
M  V30 6140 C 582.34 1.27667 -5.1563 0
M  V30 6141 C 581.379 0.505706 -6.10007 0
M  V30 6142 N 580.516 1.42727 -6.8744 0
M  V30 6143 H 585.356 -0.654068 -2.90733 0
M  V30 6144 H 582.893 -0.334334 -1.4325 0
M  V30 6145 H 584.851 1.64658 -3.83332 0
M  V30 6146 H 583.481 1.77094 -2.69884 0
M  V30 6147 H 582.533 -0.392207 -3.78373 0
M  V30 6148 H 583.845 -0.295553 -4.97924 0
M  V30 6149 H 582.999 1.92984 -5.75189 0
M  V30 6150 H 581.738 1.91137 -4.48685 0
M  V30 6151 H 580.743 -0.160999 -5.49564 0
M  V30 6152 H 581.968 -0.124183 -6.78986 0
M  V30 6153 H 579.913 2.04931 -6.23169 0
M  V30 6154 H 579.831 0.880345 -7.50857 0
M  V30 6155 H 581.099 2.0695 -7.51526 0
M  V30 6156 N 585.328 1.53329 -0.364422 0
M  V30 6157 C 586.258 2.28627 0.474543 0
M  V30 6158 C 587.239 1.31009 1.08492 0
M  V30 6159 O 588.424 1.59878 1.10239 0
M  V30 6160 C 585.554 3.07465 1.61501 0
M  V30 6161 C 584.508 4.1276 1.13194 0
M  V30 6162 C 583.834 4.79674 2.36255 0
M  V30 6163 C 585.134 5.21847 0.217507 0
M  V30 6164 H 586.828 2.99005 -0.153656 0
M  V30 6165 H 584.374 1.43803 -0.0753406 0
M  V30 6166 H 586.327 3.58889 2.20855 0
M  V30 6167 H 585.051 2.34775 2.27042 0
M  V30 6168 H 583.71 3.62281 0.56109 0
M  V30 6169 H 583.358 4.03557 3.00251 0
M  V30 6170 H 583.058 5.50827 2.04606 0
M  V30 6171 H 584.582 5.33892 2.96297 0
M  V30 6172 H 585.996 5.6878 0.718493 0
M  V30 6173 H 584.393 6.00099 -0.00806408 0
M  V30 6174 H 585.463 4.7921 -0.740653 0
M  V30 6175 N 586.806 0.0935595 1.57322 0
M  V30 6176 C 588.031 -0.582324 1.99057 0
M  V30 6177 C 588.456 -1.61025 0.972242 0
M  V30 6178 O 587.814 -1.81202 -0.0594622 0
M  V30 6179 C 587.862 -1.20799 3.39765 0
M  V30 6180 O 586.966 -2.32382 3.40694 0
M  V30 6181 H 586.307 -0.147884 0.647323 0
M  V30 6182 H 588.837 0.174516 2.03854 0
M  V30 6183 H 588.847 -1.54966 3.77425 0
M  V30 6184 H 587.522 -0.454914 4.13405 0
M  V30 6185 H 586.099 -1.99845 3.14827 0
M  V30 6186 N 588.284 -1.56567 -0.180126 0
M  V30 6187 C 589.512 -1.85618 -0.913972 0
M  V30 6188 C 589.927 -0.677892 -1.7621 0
M  V30 6189 O 589.284 0.353171 -1.7905 0
M  V30 6190 C 589.335 -3.13619 -1.79793 0
M  V30 6191 O 589.056 -4.26906 -0.98402 0
M  V30 6192 C 590.557 -3.55954 -2.64219 0
M  V30 6193 H 587.777 -0.616043 -0.265954 0
M  V30 6194 H 590.321 -2.03681 -0.182872 0
M  V30 6195 H 588.476 -2.97409 -2.48247 0
M  V30 6196 H 588.89 -4.9989 -1.58776 0
M  V30 6197 H 590.364 -4.48444 -3.21873 0
M  V30 6198 H 590.841 -2.79653 -3.38661 0
M  V30 6199 H 591.447 -3.74746 -2.01111 0
M  V30 6200 N 589.762 0.448376 -1.51087 0
M  V30 6201 C 590.692 1.55102 -1.74544 0
M  V30 6202 C 591.673 1.59357 -0.594932 0
M  V30 6203 O 592.858 1.75261 -0.836491 0
M  V30 6204 C 589.988 2.93268 -1.86041 0
M  V30 6205 C 588.942 3.03877 -3.01402 0
M  V30 6206 C 588.268 4.43914 -2.98068 0
M  V30 6207 C 589.568 2.7898 -4.41551 0
M  V30 6208 H 591.262 1.35724 -2.66869 0
M  V30 6209 H 588.808 0.651498 -1.28419 0
M  V30 6210 H 590.761 3.70356 -2.01034 0
M  V30 6211 H 589.485 3.13853 -0.903548 0
M  V30 6212 H 588.144 2.29227 -2.86096 0
M  V30 6213 H 587.792 4.6145 -2.00182 0
M  V30 6214 H 587.492 4.51944 -3.75527 0
M  V30 6215 H 589.016 5.22991 -3.1514 0
M  V30 6216 H 590.43 3.45805 -4.57265 0
M  V30 6217 H 588.827 2.98431 -5.20633 0
M  V30 6218 H 589.897 1.74663 -4.5235 0
M  V30 6219 N 591.24 1.41047 0.703093 0
M  V30 6220 C 592.47 1.43133 1.48985 0
M  V30 6221 C 592.878 0.0328537 1.89171 0
M  V30 6222 O 592.221 -0.956469 1.56835 0
M  V30 6223 C 592.283 2.26991 2.78775 0
M  V30 6224 C 591.947 3.7525 2.60837 0
M  V30 6225 C 592.944 4.67591 2.27276 0
M  V30 6226 C 590.629 4.19208 2.76712 0
M  V30 6227 C 592.623 6.01877 2.09817 0
M  V30 6228 C 590.31 5.53561 2.5887 0
M  V30 6229 C 591.308 6.4471 2.25472 0
M  V30 6230 O 590.996 7.76584 2.07778 0
M  V30 6231 H 590.728 0.489788 0.465922 0
M  V30 6232 H 593.282 1.85886 0.873822 0
M  V30 6233 H 591.512 1.79038 3.42757 0
M  V30 6234 H 593.201 2.20867 3.40547 0
M  V30 6235 H 593.967 4.34923 2.14633 0
M  V30 6236 H 589.846 3.48572 3.01693 0
M  V30 6237 H 593.39 6.72986 1.83671 0
M  V30 6238 H 589.287 5.85811 2.71102 0
M  V30 6239 H 590.055 7.87649 2.22601 0
M  V30 6240 N 592.718 -0.936591 1.26751 0
M  V30 6241 C 593.964 -1.68625 1.13741 0
M  V30 6242 C 594.319 -1.898 -0.315221 0
M  V30 6243 O 593.612 -1.47088 -1.22783 0
M  V30 6244 C 593.806 -3.06099 1.84494 0
M  V30 6245 C 593.635 -2.98338 3.36488 0
M  V30 6246 C 592.405 -3.01104 4.05789 0
M  V30 6247 C 594.603 -2.78128 4.32608 0
M  V30 6248 N 592.585 -2.8369 5.4442 0
M  V30 6249 C 593.956 -2.69329 5.58446 0
M  V30 6250 C 596.011 -2.62946 4.22804 0
M  V30 6251 C 594.714 -2.46899 6.75598 0
M  V30 6252 C 596.74 -2.41892 5.39669 0
M  V30 6253 C 596.102 -2.33829 6.64457 0
M  V30 6254 H 592.201 -0.624227 0.471025 0
M  V30 6255 H 594.785 -1.10798 1.601 0
M  V30 6256 H 592.956 -3.62057 1.40604 0
M  V30 6257 H 594.688 -3.69951 1.64067 0
M  V30 6258 H 591.443 -3.10992 3.57185 0
M  V30 6259 H 591.867 -2.78138 6.17226 0
M  V30 6260 H 596.509 -2.67944 3.27056 0
M  V30 6261 H 594.227 -2.40642 7.71438 0
M  V30 6262 H 597.813 -2.31043 5.33957 0
M  V30 6263 H 596.693 -2.17754 7.53361 0
M  V30 6264 N 594.196 -1.08629 -1.14182 0
M  V30 6265 C 595.443 -0.817345 -1.85272 0
M  V30 6266 C 595.771 0.656917 -1.83071 0
M  V30 6267 O 595.026 1.49897 -1.25815 0
M  V30 6268 C 595.325 -1.28734 -3.3341 0
M  V30 6269 C 594.991 -2.76981 -3.55798 0
M  V30 6270 C 593.653 -3.17469 -3.61617 0
M  V30 6271 C 596.005 -3.72605 -3.64438 0
M  V30 6272 C 593.333 -4.52371 -3.736 0
M  V30 6273 C 595.685 -5.07286 -3.77947 0
M  V30 6274 C 594.349 -5.47376 -3.82016 0
M  V30 6275 H 593.619 -0.299088 -0.677958 0
M  V30 6276 H 596.266 -1.35962 -1.34857 0
M  V30 6277 H 594.571 -0.664702 -3.8612 0
M  V30 6278 H 596.268 -1.05598 -3.86846 0
M  V30 6279 H 592.858 -2.44644 -3.51919 0
M  V30 6280 H 597.042 -3.42443 -3.5923 0
M  V30 6281 H 592.298 -4.82882 -3.75013 0
M  V30 6282 H 596.472 -5.81243 -3.83575 0
M  V30 6283 H 594.099 -6.51906 -3.91054 0
M  V30 6284 N 595.674 1.31259 -0.872281 0
M  V30 6285 C 596.902 2.00795 -0.498907 0
M  V30 6286 C 597.317 1.65464 0.909238 0
M  V30 6287 O 596.674 0.885073 1.59602 0
M  V30 6288 C 596.725 3.55625 -0.649092 0
M  V30 6289 O 596.446 3.89692 -2.00179 0
M  V30 6290 C 597.947 4.42434 -0.277034 0
M  V30 6291 H 595.167 0.642299 -0.194145 0
M  V30 6292 H 597.711 1.67438 -1.17408 0
M  V30 6293 H 595.866 3.87394 -0.0214402 0
M  V30 6294 H 596.28 4.84407 -2.01122 0
M  V30 6295 H 597.754 5.50299 -0.433064 0
M  V30 6296 H 598.231 4.32146 0.783989 0
M  V30 6297 H 598.837 4.16086 -0.880483 0
M  V30 6298 N 597.152 0.631951 1.44375 0
M  V30 6299 C 598.398 0.13697 2.02337 0
M  V30 6300 C 598.731 -1.23826 1.49602 0
M  V30 6301 O 598.006 -1.8221 0.680415 0
M  V30 6302 C 598.289 0.124536 3.59885 0
M  V30 6303 C 598.142 1.53217 4.229 0
M  V30 6304 C 599.461 -0.550481 4.36644 0
M  V30 6305 H 596.58 0.051247 0.735216 0
M  V30 6306 H 599.222 0.808581 1.71936 0
M  V30 6307 H 597.372 -0.44737 3.85916 0
M  V30 6308 H 599.044 2.15303 4.07973 0
M  V30 6309 H 597.287 2.0858 3.80364 0
M  V30 6310 H 597.958 1.4755 5.31914 0
M  V30 6311 H 600.434 -0.0641154 4.16051 0
M  V30 6312 H 599.31 -0.528371 5.46351 0
M  V30 6313 H 599.571 -1.62097 4.11311 0
M  V30 6314 N 598.631 -1.53133 0.372548 0
M  V30 6315 C 599.541 -2.29671 -0.478379 0
M  V30 6316 C 600.557 -1.35913 -1.08644 0
M  V30 6317 O 601.733 -1.68975 -1.09588 0
M  V30 6318 C 598.798 -3.07625 -1.599 0
M  V30 6319 C 597.859 -4.17061 -1.01776 0
M  V30 6320 C 597.092 -4.91289 -2.08497 0
M  V30 6321 O 597.315 -4.65442 -3.29727 0
M  V30 6322 O 596.249 -5.7705 -1.71164 0
M  V30 6323 H 600.075 -3.03355 0.144649 0
M  V30 6324 H 597.66 -1.48773 0.136729 0
M  V30 6325 H 599.542 -3.56281 -2.25038 0
M  V30 6326 H 598.217 -2.3677 -2.2073 0
M  V30 6327 H 597.124 -3.72641 -0.330098 0
M  V30 6328 H 598.457 -4.90102 -0.453915 0
M  V30 6329 N 600.109 -0.101901 -1.5727 0
M  V30 6330 C 601.356 0.560197 -1.94597 0
M  V30 6331 C 601.684 1.67767 -0.984101 0
M  V30 6332 O 600.939 1.95699 -0.00489193 0
M  V30 6333 C 601.238 1.14898 -3.38427 0
M  V30 6334 C 600.904 0.154613 -4.50635 0
M  V30 6335 C 599.566 -0.118861 -4.81053 0
M  V30 6336 C 601.918 -0.523979 -5.18559 0
M  V30 6337 C 599.246 -1.0775 -5.76721 0
M  V30 6338 C 601.598 -1.47114 -6.15256 0
M  V30 6339 C 600.262 -1.75278 -6.44076 0
M  V30 6340 H 599.532 0.204991 -0.712081 0
M  V30 6341 H 602.179 -0.17918 -1.9066 0
M  V30 6342 H 600.484 1.96476 -3.38976 0
M  V30 6343 H 602.181 1.66909 -3.64613 0
M  V30 6344 H 598.771 0.377948 -4.2693 0
M  V30 6345 H 602.955 -0.325851 -4.95229 0
M  V30 6346 H 598.211 -1.30263 -5.97362 0
M  V30 6347 H 602.385 -2.00274 -6.66981 0
M  V30 6348 H 600.012 -2.49717 -7.18015 0
M  V30 6349 N 601.587 1.56661 0.17182 0
M  V30 6350 C 602.835 1.81606 0.886774 0
M  V30 6351 C 603.156 0.678818 1.82803 0
M  V30 6352 O 602.426 -0.301354 1.93568 0
M  V30 6353 H 601.006 0.669934 0.330451 0
M  V30 6354 H 603.668 1.94142 0.171757 0
M  V30 6355 H 602.764 2.75634 1.46398 0
M  V30 6356 N 603.065 -0.440357 1.51323 0
M  V30 6357 C 603.995 -1.54174 1.75364 0
M  V30 6358 C 604.976 -1.59039 0.603375 0
M  V30 6359 O 606.161 -1.74815 0.845774 0
M  V30 6360 C 603.291 -2.92277 1.87593 0
M  V30 6361 C 602.245 -3.02274 3.03009 0
M  V30 6362 C 601.571 -4.42327 3.00418 0
M  V30 6363 C 602.871 -2.76634 4.43024 0
M  V30 6364 H 604.565 -1.34307 2.67585 0
M  V30 6365 H 602.111 -0.644678 1.28763 0
M  V30 6366 H 604.064 -3.69284 2.02995 0
M  V30 6367 H 602.788 -3.13369 0.920179 0
M  V30 6368 H 601.447 -2.27706 2.87307 0
M  V30 6369 H 601.095 -4.60382 2.02626 0
M  V30 6370 H 600.795 -4.49946 3.77918 0
M  V30 6371 H 602.319 -5.21312 3.17909 0
M  V30 6372 H 603.733 -3.43376 4.59093 0
M  V30 6373 H 602.13 -2.95666 5.22208 0
M  V30 6374 H 603.2 -1.72262 4.5327 0
M  V30 6375 N 604.543 -1.41418 -0.695603 0
M  V30 6376 C 605.783 -1.42241 -1.46788 0
M  V30 6377 C 606.147 -0.0300827 -1.91976 0
M  V30 6378 O 607.348 0.0868914 -2.6866 0
M  V30 6379 C 605.619 -2.4011 -2.6473 0
M  V30 6380 S 607.178 -2.59462 -3.53871 0
M  V30 6381 H 603.996 -0.503893 -0.50161 0
M  V30 6382 H 606.598 -1.77855 -0.811654 0
M  V30 6383 H 605.302 -3.40073 -2.29736 0
M  V30 6384 H 604.833 -2.05849 -3.35246 0
M  V30 6385 H 606.848 -1.862 -4.59939 0
M  V30 6386 N 606.021 0.929856 -1.27246 0
M  V30 6387 C 606.968 2.03017 -1.09785 0
M  V30 6388 C 607.938 1.661 0.000456744 0
M  V30 6389 O 609.123 1.90116 -0.161462 0
M  V30 6390 C 606.263 3.36878 -0.748816 0
M  V30 6391 C 605.376 3.86763 -1.92453 0
M  V30 6392 C 604.511 5.09061 -1.51758 0
M  V30 6393 C 603.55 5.51237 -2.66091 0
M  V30 6394 N 602.687 6.64732 -2.25999 0
M  V30 6395 H 607.527 2.17285 -2.03939 0
M  V30 6396 H 605.064 1.06448 -1.01524 0
M  V30 6397 H 607.022 4.13855 -0.527283 0
M  V30 6398 H 605.652 3.22424 0.155771 0
M  V30 6399 H 604.704 3.06086 -2.25867 0
M  V30 6400 H 606.016 4.13994 -2.78227 0
M  V30 6401 H 605.17 5.93532 -1.25716 0
M  V30 6402 H 603.909 4.83602 -0.630896 0
M  V30 6403 H 602.914 4.65316 -2.92849 0
M  V30 6404 H 604.139 5.78692 -3.55377 0
M  V30 6405 H 602.085 6.40935 -1.3978 0
M  V30 6406 H 602.002 6.91607 -3.05313 0
M  V30 6407 H 603.27 7.52549 -2.03199 0
M  V30 6408 N 607.499 1.09233 1.13605 0
M  V30 6409 C 608.431 0.687794 2.18637 0
M  V30 6410 C 609.444 -0.26936 1.60556 0
M  V30 6411 O 610.633 -0.0557162 1.78413 0
M  V30 6412 C 607.733 -0.00751901 3.38899 0
M  V30 6413 C 606.906 0.97067 4.26494 0
M  V30 6414 C 605.965 0.309129 5.25291 0
M  V30 6415 O 604.991 0.956149 5.61112 0
M  V30 6416 N 606.193 -0.937555 5.72879 0
M  V30 6417 H 608.958 1.59141 2.53957 0
M  V30 6418 H 606.519 0.979515 1.28907 0
M  V30 6419 H 608.511 -0.461238 4.02063 0
M  V30 6420 H 607.081 -0.813353 3.01833 0
M  V30 6421 H 606.301 1.603 3.60135 0
M  V30 6422 H 607.589 1.63323 4.81875 0
M  V30 6423 H 606.987 -1.48281 5.4592 0
M  V30 6424 H 605.544 -1.33463 6.3799 0
M  V30 6425 N 608.977 -1.30795 0.87923 0
M  V30 6426 C 609.925 -2.30231 0.331112 0
M  V30 6427 C 610.919 -1.59918 -0.558794 0
M  V30 6428 O 612.125 -1.74441 -0.443866 0
M  V30 6429 H 608.5 -0.746785 0.088409 0
M  V30 6430 H 610.471 -2.73925 1.18353 0
M  V30 6431 C 609.22 -3.44848 -0.444401 0
M  V30 6432 H 608.543 -3.99131 0.231106 0
M  V30 6433 H 609.983 -4.16516 -0.793109 0
M  V30 6434 C 608.442 -2.94329 -1.63926 0
M  V30 6435 O 608.972 -2.93875 -2.73862 0
M  V30 6436 N 607.178 -2.50413 -1.4745 0
M  V30 6437 H 606.725 -2.50982 -0.58015 0
M  V30 6438 H 606.683 -2.16969 -2.27534 0
M  V30 6439 N 610.455 -0.639598 -1.44038 0
M  V30 6440 C 611.703 -0.147188 -2.01563 0
M  V30 6441 C 612.024 1.2384 -1.50628 0
M  V30 6442 O 611.294 1.82452 -0.713316 0
M  V30 6443 H 609.874 -0.0514231 -0.745228 0
M  V30 6444 H 612.536 -0.828205 -1.76428 0
M  V30 6445 H 611.632 -0.121358 -3.11864 0
M  V30 6446 N 611.933 1.52934 -0.380664 0
M  V30 6447 C 612.843 2.29921 0.466192 0
M  V30 6448 C 613.859 1.36488 1.07922 0
M  V30 6449 O 615.035 1.69553 1.0869 0
M  V30 6450 C 612.1 3.08468 1.58266 0
M  V30 6451 C 611.161 4.17595 0.995627 0
M  V30 6452 C 610.394 4.92387 2.05889 0
M  V30 6453 O 610.617 4.67184 3.27254 0
M  V30 6454 O 609.551 5.77949 1.68102 0
M  V30 6455 H 613.377 3.03274 -0.160735 0
M  V30 6456 H 610.962 1.48698 -0.144617 0
M  V30 6457 H 612.844 3.57469 2.23145 0
M  V30 6458 H 611.519 2.37937 2.19471 0
M  V30 6459 H 610.426 3.72811 0.310332 0
M  V30 6460 H 611.759 4.90336 0.427918 0
M  V30 6461 N 613.412 0.11024 1.57214 0
M  V30 6462 C 614.658 -0.550684 1.9518 0
M  V30 6463 C 614.991 -1.66885 0.993122 0
M  V30 6464 O 614.266 -1.94479 0.0287907 0
M  V30 6465 C 614.549 -1.09163 3.43155 0
M  V30 6466 C 614.402 0.0225198 4.49794 0
M  V30 6467 C 615.721 -1.98527 3.92778 0
M  V30 6468 H 612.84 -0.198706 0.709708 0
M  V30 6469 H 615.482 0.184024 1.89107 0
M  V30 6470 H 613.632 -1.71775 3.48462 0
M  V30 6471 H 615.304 0.657443 4.56591 0
M  V30 6472 H 613.547 0.686868 4.28328 0
M  V30 6473 H 614.218 -0.39706 5.5057 0
M  V30 6474 H 616.694 -1.458 3.8972 0
M  V30 6475 H 615.57 -2.33298 4.96853 0
M  V30 6476 H 615.831 -2.90846 3.32958 0
M  V30 6477 N 614.89 -1.56749 -0.16351 0
M  V30 6478 C 615.837 -1.97011 -1.2023 0
M  V30 6479 C 616.807 -0.835186 -1.43575 0
M  V30 6480 O 617.992 -1.09594 -1.56185 0
M  V30 6481 C 615.132 -2.34186 -2.53478 0
M  V30 6482 C 614.245 -3.60893 -2.37446 0
M  V30 6483 C 613.38 -3.87245 -3.63614 0
M  V30 6484 C 612.419 -5.07274 -3.42548 0
M  V30 6485 N 611.556 -5.29719 -4.60806 0
M  V30 6486 H 616.396 -2.85562 -0.851958 0
M  V30 6487 H 613.933 -1.41292 -0.409257 0
M  V30 6488 H 615.891 -2.53764 -3.31149 0
M  V30 6489 H 614.521 -1.48736 -2.86492 0
M  V30 6490 H 613.573 -3.49185 -1.50911 0
M  V30 6491 H 614.885 -4.48722 -2.1783 0
M  V30 6492 H 614.039 -4.07232 -4.49719 0
M  V30 6493 H 612.778 -2.97806 -3.86216 0
M  V30 6494 H 611.783 -4.87177 -2.5483 0
M  V30 6495 H 613.008 -5.98251 -3.2136 0
M  V30 6496 H 610.954 -4.43233 -4.83612 0
M  V30 6497 H 610.871 -6.11786 -4.44132 0
M  V30 6498 H 612.139 -5.54192 -5.48171 0
M  V30 6499 N 616.368 0.432326 -1.51554 0
M  V30 6500 C 617.331 1.50765 -1.72634 0
M  V30 6501 C 618.331 1.49334 -0.596314 0
M  V30 6502 O 619.521 1.51268 -0.863925 0
M  V30 6503 C 616.653 2.90284 -1.7874 0
M  V30 6504 H 617.846 1.33377 -2.68609 0
M  V30 6505 H 615.399 0.661329 -1.4162 0
M  V30 6506 H 616.134 3.13071 -0.845977 0
M  V30 6507 H 615.919 2.92727 -2.6087 0
M  V30 6508 H 617.409 3.68282 -1.96871 0
M  V30 6509 N 617.846 1.41785 0.688094 0
M  V30 6510 C 619.076 1.44705 1.47459 0
M  V30 6511 C 619.484 0.052916 1.89126 0
M  V30 6512 O 618.827 -0.939781 1.57841 0
M  V30 6513 C 618.889 2.29935 2.76352 0
M  V30 6514 C 618.553 3.77996 2.56843 0
M  V30 6515 C 619.55 4.69976 2.22304 0
M  V30 6516 C 617.235 4.2212 2.7225 0
M  V30 6517 C 619.229 6.04068 2.03421 0
M  V30 6518 C 616.916 5.56275 2.52985 0
M  V30 6519 C 617.914 6.47065 2.18621 0
M  V30 6520 O 617.602 7.78744 1.9953 0
M  V30 6521 H 617.334 0.494703 0.460701 0
M  V30 6522 H 619.888 1.86802 0.854057 0
M  V30 6523 H 618.118 1.82664 3.40839 0
M  V30 6524 H 619.807 2.24467 3.38186 0
M  V30 6525 H 620.573 4.37175 2.10008 0
M  V30 6526 H 616.452 3.51752 2.97979 0
M  V30 6527 H 619.996 6.74897 1.76523 0
M  V30 6528 H 615.893 5.88653 2.64873 0
M  V30 6529 H 616.661 7.89966 2.14234 0
M  V30 6530 N 619.324 -0.923095 1.27737 0
M  V30 6531 C 620.572 -1.66797 1.14119 0
M  V30 6532 C 620.893 -1.92479 -0.312541 0
M  V30 6533 O 620.163 -1.53432 -1.218 0
M  V30 6534 H 618.743 -0.618196 0.419336 0
M  V30 6535 H 621.405 -1.10815 1.60331 0
M  V30 6536 H 620.501 -2.63424 1.67374 0
M  V30 6537 N 620.802 -1.09834 -1.13024 0
M  V30 6538 C 621.765 -0.745058 -2.16752 0
M  V30 6539 C 622.765 0.227435 -1.59183 0
M  V30 6540 O 623.955 0.0050786 -1.74199 0
M  V30 6541 C 621.087 -0.102543 -3.40746 0
M  V30 6542 H 622.28 -1.66375 -2.49518 0
M  V30 6543 H 619.833 -0.898061 -1.27924 0
M  V30 6544 H 620.568 0.827177 -3.13573 0
M  V30 6545 H 620.353 -0.80235 -3.83803 0
M  V30 6546 H 621.843 0.129082 -4.174 0
M  V30 6547 N 622.28 1.30327 -0.886154 0
M  V30 6548 C 623.528 1.9571 -0.504195 0
M  V30 6549 C 623.849 1.70294 0.950003 0
M  V30 6550 O 623.119 1.02718 1.66811 0
M  V30 6551 H 621.699 0.72412 -0.183465 0
M  V30 6552 H 624.361 1.58835 -1.12949 0
M  V30 6553 H 623.457 3.04704 -0.675431 0
M  V30 6554 N 623.758 0.647228 1.43697 0
M  V30 6555 C 624.688 -0.0345631 2.33474 0
M  V30 6556 C 625.669 -0.818193 1.4913 0
M  V30 6557 O 626.854 -0.780867 1.77809 0
M  V30 6558 C 623.984 -1.00576 3.32418 0
M  V30 6559 C 622.938 -0.33266 4.26705 0
M  V30 6560 C 622.264 -1.41489 5.1564 0
M  V30 6561 C 623.564 0.771204 5.16575 0
M  V30 6562 H 625.258 0.715163 2.90733 0
M  V30 6563 H 622.804 0.345364 1.39797 0
M  V30 6564 H 624.757 -1.49159 3.94119 0
M  V30 6565 H 623.481 -1.78657 2.73403 0
M  V30 6566 H 622.14 0.13267 3.6636 0
M  V30 6567 H 621.788 -2.18698 4.52968 0
M  V30 6568 H 621.488 -0.969799 5.79542 0
M  V30 6569 H 623.012 -1.9022 5.80214 0
M  V30 6570 H 624.426 0.36779 5.72119 0
M  V30 6571 H 622.823 1.1404 5.89165 0
M  V30 6572 H 623.893 1.63169 4.56622 0
M  V30 6573 N 625.236 -1.5273 0.388769 0
M  V30 6574 C 626.166 -2.29353 -0.438111 0
M  V30 6575 C 627.147 -1.32719 -1.06394 0
M  V30 6576 O 628.332 -1.61612 -1.07681 0
M  V30 6577 C 625.462 -3.09995 -1.56589 0
M  V30 6578 C 624.416 -4.14509 -1.06613 0
M  V30 6579 C 623.742 -4.83372 -2.28594 0
M  V30 6580 C 625.042 -5.22127 -0.134459 0
M  V30 6581 H 626.736 -2.98723 0.201206 0
M  V30 6582 H 624.282 -1.43665 0.0982089 0
M  V30 6583 H 626.235 -3.62357 -2.15118 0
M  V30 6584 H 624.959 -2.38357 -2.23279 0
M  V30 6585 H 623.618 -3.63128 -0.503383 0
M  V30 6586 H 623.266 -4.08283 -2.93792 0
M  V30 6587 H 622.966 -5.54012 -1.95817 0
M  V30 6588 H 624.49 -5.38538 -2.87766 0
M  V30 6589 H 625.904 -5.69851 -0.627914 0
M  V30 6590 H 624.301 -6.00011 0.103534 0
M  V30 6591 H 625.371 -4.77971 0.816798 0
M  V30 6592 N 626.714 -0.118576 -1.57153 0
M  V30 6593 C 627.939 0.550582 -1.99958 0
M  V30 6594 C 628.364 1.59458 -0.997736 0
M  V30 6595 O 627.722 1.81274 0.0306269 0
M  V30 6596 C 627.77 1.15379 -3.41643 0
M  V30 6597 O 626.874 2.26932 -3.44348 0
M  V30 6598 H 626.215 0.137567 -0.649593 0
M  V30 6599 H 628.745 -0.206926 -2.03551 0
M  V30 6600 H 628.755 1.48942 -3.79843 0
M  V30 6601 H 627.43 0.389087 -4.14076 0
M  V30 6602 H 626.007 1.94812 -3.17967 0
M  V30 6603 N 628.193 1.56834 0.155195 0
M  V30 6604 C 629.418 1.87412 0.888337 0
M  V30 6605 C 629.843 0.70671 1.74319 0
M  V30 6606 O 629.201 -0.343892 1.78009 0
M  V30 6607 C 629.249 3.1652 1.72765 0
M  V30 6608 O 628.353 2.99877 2.83103 0
M  V30 6609 H 627.694 0.615983 0.247914 0
M  V30 6610 H 630.224 2.04061 0.148478 0
M  V30 6611 H 630.234 3.48334 2.12433 0
M  V30 6612 H 628.909 4.01094 1.09985 0
M  V30 6613 H 627.486 2.79453 2.46902 0
M  V30 6614 N 629.671 -0.424282 1.51781 0
M  V30 6615 C 630.901 -1.19297 1.68677 0
M  V30 6616 C 631.309 -1.85152 0.389258 0
M  V30 6617 O 630.652 -1.72067 -0.643311 0
M  V30 6618 C 630.714 -2.30929 2.75521 0
M  V30 6619 C 630.378 -1.85335 4.17732 0
M  V30 6620 C 631.375 -1.34951 5.0208 0
M  V30 6621 C 629.06 -1.92629 4.63896 0
M  V30 6622 C 631.054 -0.924636 6.30658 0
M  V30 6623 C 628.741 -1.49754 5.92467 0
M  V30 6624 C 629.739 -0.997543 6.75676 0
M  V30 6625 O 629.427 -0.57492 8.01842 0
M  V30 6626 H 629.159 -0.36512 0.568914 0
M  V30 6627 H 631.713 -0.507327 1.99036 0
M  V30 6628 H 629.943 -3.02811 2.40505 0
M  V30 6629 H 631.632 -2.92748 2.81165 0
M  V30 6630 H 632.398 -1.287 4.67612 0
M  V30 6631 H 628.277 -2.30491 3.99243 0
M  V30 6632 H 631.821 -0.533682 6.95556 0
M  V30 6633 H 627.718 -1.55679 6.26446 0
M  V30 6634 H 628.486 -0.699597 8.15505 0
M  V30 6635 N 631.149 -1.42148 -0.680565 0
M  V30 6636 C 632.397 -1.42029 -1.43779 0
M  V30 6637 C 632.718 -0.0356347 -1.94967 0
M  V30 6638 O 631.988 0.924936 -1.7269 0
M  V30 6639 H 630.568 -0.522835 -0.533529 0
M  V30 6640 H 633.23 -1.7752 -0.804538 0
M  V30 6641 H 632.326 -2.11658 -2.29363 0
M  V30 6642 N 632.627 0.916307 -1.28225 0
M  V30 6643 C 633.537 2.05165 -1.13775 0
M  V30 6644 C 634.553 1.73879 -0.0649418 0
M  V30 6645 O 635.729 1.99531 -0.273722 0
M  V30 6646 C 632.794 3.37385 -0.798267 0
M  V30 6647 C 631.855 3.82296 -1.95316 0
M  V30 6648 C 631.088 5.08206 -1.62978 0
M  V30 6649 O 631.311 5.6781 -0.542948 0
M  V30 6650 O 630.245 5.48768 -2.47261 0
M  V30 6651 H 634.071 2.20273 -2.09078 0
M  V30 6652 H 631.656 1.0373 -1.07519 0
M  V30 6653 H 633.538 4.16773 -0.62278 0
M  V30 6654 H 632.213 3.23458 0.125139 0
M  V30 6655 H 631.12 3.03746 -2.18378 0
M  V30 6656 H 632.453 4.00782 -2.85718 0
M  V30 6657 N 634.105 1.10431 1.1244 0
M  V30 6658 C 635.035 0.775143 2.20258 0
M  V30 6659 C 636.016 -0.25186 1.68225 0
M  V30 6660 O 637.201 -0.117637 1.93843 0
M  V30 6661 C 634.331 0.206133 3.46688 0
M  V30 6662 C 633.285 1.16382 4.11873 0
M  V30 6663 C 632.611 0.456014 5.32752 0
M  V30 6664 C 633.911 2.5104 4.58013 0
M  V30 6665 H 635.605 1.67665 2.4805 0
M  V30 6666 H 633.151 0.807595 1.19222 0
M  V30 6667 H 635.104 -0.036291 4.21384 0
M  V30 6668 H 633.828 -0.730614 3.18323 0
M  V30 6669 H 632.487 1.39169 3.39157 0
M  V30 6670 H 632.135 -0.485203 5.00654 0
M  V30 6671 H 631.835 1.09466 5.77314 0
M  V30 6672 H 633.359 0.222135 6.10196 0
M  V30 6673 H 634.773 2.32401 5.24083 0
M  V30 6674 H 633.17 3.10789 5.13352 0
M  V30 6675 H 634.24 3.11039 3.71998 0
M  V30 6676 N 635.583 -1.29855 0.893053 0
M  V30 6677 C 636.513 -2.3035 0.382249 0
M  V30 6678 C 637.494 -1.61328 -0.539203 0
M  V30 6679 O 638.679 -1.88882 -0.451342 0
M  V30 6680 C 635.809 -3.45024 -0.396983 0
M  V30 6681 C 634.763 -4.258 0.433437 0
M  V30 6682 C 634.089 -5.32605 -0.472889 0
M  V30 6683 C 635.389 -4.94549 1.67984 0
M  V30 6684 H 637.083 -2.73325 1.22205 0
M  V30 6685 H 634.629 -1.314 0.589073 0
M  V30 6686 H 636.582 -4.14398 -0.765024 0
M  V30 6687 H 635.306 -3.00875 -1.2705 0
M  V30 6688 H 633.965 -3.58125 0.783723 0
M  V30 6689 H 633.613 -4.84702 -1.34435 0
M  V30 6690 H 633.313 -5.87547 0.0789958 0
M  V30 6691 H 634.837 -6.04832 -0.837269 0
M  V30 6692 H 636.251 -5.56395 1.38192 0
M  V30 6693 H 634.648 -5.59393 2.17254 0
M  V30 6694 H 635.718 -4.20215 2.41965 0
M  V30 6695 N 637.061 -0.65484 -1.43351 0
M  V30 6696 C 638.011 0.0581325 -2.27926 0
M  V30 6697 C 638.995 0.793188 -1.3999 0
M  V30 6698 O 640.187 0.675387 -1.63608 0
M  V30 6699 C 637.316 1.02272 -3.27712 0
M  V30 6700 C 636.402 0.286048 -4.23134 0
M  V30 6701 N 636.793 -0.698298 -5.00957 0
M  V30 6702 C 635.091 0.527272 -4.42872 0
M  V30 6703 C 635.792 -1.1357 -5.70506 0
M  V30 6704 N 634.768 -0.469631 -5.41568 0
M  V30 6705 H 638.57 -0.697182 -2.85511 0
M  V30 6706 H 636.084 -0.482252 -1.55074 0
M  V30 6707 H 638.081 1.5483 -3.87083 0
M  V30 6708 H 636.741 1.77807 -2.71688 0
M  V30 6709 H 637.752 -1.07708 -5.06576 0
M  V30 6710 H 634.429 1.26367 -3.97916 0
M  V30 6711 H 635.819 -1.95027 -6.42973 0
M  V30 6712 N 638.539 1.52521 -0.396863 0
M  V30 6713 C 639.779 2.03583 0.182578 0
M  V30 6714 C 640.143 1.2766 1.43412 0
M  V30 6715 O 641.344 1.68884 2.09121 0
M  V30 6716 C 639.615 3.54724 0.436519 0
M  V30 6717 S 641.174 4.27598 0.985163 0
M  V30 6718 H 637.992 0.709186 0.0507529 0
M  V30 6719 H 640.594 1.87693 -0.546955 0
M  V30 6720 H 639.298 4.07567 -0.481343 0
M  V30 6721 H 638.829 3.74834 1.19427 0
M  V30 6722 H 640.844 4.41393 2.26686 0
M  V30 6723 N 640.017 0.126909 1.57088 0
M  V30 6724 C 640.947 -0.816847 2.18746 0
M  V30 6725 C 641.928 -1.27161 1.12979 0
M  V30 6726 O 643.113 -1.33279 1.41246 0
M  V30 6727 C 640.243 -2.06398 2.79315 0
M  V30 6728 C 639.197 -1.74673 3.90735 0
M  V30 6729 C 638.523 -3.06482 4.38147 0
M  V30 6730 C 639.823 -1.0089 5.12463 0
M  V30 6731 H 641.517 -0.303032 2.97863 0
M  V30 6732 H 639.063 -0.144314 1.43275 0
M  V30 6733 H 641.016 -2.72885 3.2111 0
M  V30 6734 H 639.74 -2.60118 1.975 0
M  V30 6735 H 638.399 -1.10572 3.49527 0
M  V30 6736 H 638.047 -3.58152 3.5318 0
M  V30 6737 H 637.747 -2.86025 5.13287 0
M  V30 6738 H 639.271 -3.74073 4.82599 0
M  V30 6739 H 640.685 -1.57546 5.51228 0
M  V30 6740 H 639.082 -0.905006 5.93237 0
M  V30 6741 H 640.152 0.00297335 4.849 0
M  V30 6742 N 641.495 -1.56914 -0.146875 0
M  V30 6743 C 642.72 -1.87881 -0.878386 0
M  V30 6744 C 643.145 -0.715945 -1.73942 0
M  V30 6745 O 642.503 0.334447 -1.78189 0
M  V30 6746 C 642.551 -3.17431 -1.71084 0
M  V30 6747 O 641.655 -3.01374 -2.81509 0
M  V30 6748 H 640.996 -0.617289 -0.244644 0
M  V30 6749 H 643.526 -2.04136 -0.137654 0
M  V30 6750 H 643.536 -3.49455 -2.10582 0
M  V30 6751 H 642.211 -4.01671 -1.07856 0
M  V30 6752 H 640.788 -2.80758 -2.45416 0
M  V30 6753 N 642.974 0.416227 -1.52004 0
M  V30 6754 C 643.884 1.53147 -1.77717 0
M  V30 6755 C 644.9 1.609 -0.662368 0
M  V30 6756 O 646.076 1.77747 -0.946991 0
M  V30 6757 C 643.141 2.88948 -1.91598 0
M  V30 6758 C 642.202 2.9114 -3.15493 0
M  V30 6759 C 641.435 4.20464 -3.28703 0
M  V30 6760 O 641.658 5.13981 -2.47345 0
M  V30 6761 O 640.592 4.29368 -4.21813 0
M  V30 6762 H 644.418 1.34357 -2.72363 0
M  V30 6763 H 642.003 0.601373 -1.36762 0
M  V30 6764 H 643.885 3.69505 -2.02593 0
M  V30 6765 H 642.56 3.07821 -1.00141 0
M  V30 6766 H 641.467 2.09461 -3.09962 0
M  V30 6767 H 642.8 2.77216 -4.06709 0
M  V30 6768 N 644.452 1.42507 0.673017 0
M  V30 6769 C 645.362 1.4853 1.81593 0
M  V30 6770 C 646.378 0.373907 1.69935 0
M  V30 6771 O 647.554 0.625078 1.91454 0
M  V30 6772 C 644.619 1.387 3.17747 0
M  V30 6773 C 643.68 2.60346 3.41348 0
M  V30 6774 C 642.913 2.50975 4.71007 0
M  V30 6775 O 643.136 1.54659 5.49033 0
M  V30 6776 O 642.07 3.41138 4.95892 0
M  V30 6777 H 645.896 2.45001 1.79467 0
M  V30 6778 H 643.481 1.2429 0.82899 0
M  V30 6779 H 645.363 1.35586 3.98992 0
M  V30 6780 H 644.038 0.453555 3.20507 0
M  V30 6781 H 642.945 2.69034 2.59945 0
M  V30 6782 H 644.278 3.52595 3.43421 0
M  V30 6783 N 645.93 -0.909495 1.28709 0
M  V30 6784 C 647.341 -1.47419 1.14563 0
M  V30 6785 C 647.692 -1.94432 -0.262832 0
M  V30 6786 O 646.817 -1.82842 -1.15748 0
M  V30 6787 C 647.412 -2.67933 2.07358 0
M  V30 6788 C 645.971 -3.20568 1.97264 0
M  V30 6789 C 645.118 -1.93269 1.98852 0
M  V30 6790 H 648.069 -0.721787 1.41336 0
M  V30 6791 H 648.09 -3.43339 1.64007 0
M  V30 6792 H 647.602 -2.33685 3.09859 0
M  V30 6793 H 645.703 -3.59531 0.978157 0
M  V30 6794 H 645.816 -3.85529 2.84436 0
M  V30 6795 H 644.18 -2.10553 1.43317 0
M  V30 6796 H 644.963 -1.61312 3.0304 0
M  V30 6797 N 647.408 -1.11026 -1.11852 0
M  V30 6798 C 648.318 -0.777252 -2.2135 0
M  V30 6799 C 649.334 0.227821 -1.72502 0
M  V30 6800 O 650.51 0.0650587 -2.01295 0
M  V30 6801 C 647.575 -0.220668 -3.45997 0
M  V30 6802 C 646.636 -1.2838 -4.09655 0
M  V30 6803 C 645.869 -0.753678 -5.28352 0
M  V30 6804 O 646.092 0.417779 -5.68868 0
M  V30 6805 O 645.026 -1.51647 -5.82483 0
M  V30 6806 H 648.852 -1.69141 -2.5224 0
M  V30 6807 H 646.437 -0.885836 -1.20305 0
M  V30 6808 H 648.319 0.0855756 -4.21313 0
M  V30 6809 H 646.994 0.666262 -3.16769 0
M  V30 6810 H 645.901 -1.64299 -3.3609 0
M  V30 6811 H 647.234 -2.14396 -4.43052 0
M  V30 6812 N 648.886 1.2938 -0.899927 0
M  V30 6813 C 650.135 1.9483 -0.521937 0
M  V30 6814 C 650.448 1.71725 0.936473 0
M  V30 6815 O 651.654 2.31282 1.42199 0
M  V30 6816 C 650.11 3.48911 -0.88255 0
M  V30 6817 C 649.718 3.80815 -2.35974 0
M  V30 6818 C 651.462 4.20595 -0.57448 0
M  V30 6819 C 649.369 5.28142 -2.66121 0
M  V30 6820 H 648.299 0.729285 -0.191468 0
M  V30 6821 H 650.95 1.47103 -1.09695 0
M  V30 6822 H 649.332 3.95293 -0.236459 0
M  V30 6823 H 650.506 3.45291 -3.05141 0
M  V30 6824 H 648.821 3.22271 -2.63686 0
M  V30 6825 H 651.418 5.29031 -0.776556 0
M  V30 6826 H 651.761 4.13442 0.487005 0
M  V30 6827 H 652.294 3.79945 -1.17842 0
M  V30 6828 H 649.033 5.4036 -3.71068 0
M  V30 6829 H 648.553 5.64913 -2.01578 0
M  V30 6830 H 650.232 5.95738 -2.52399 0
M  V30 6831 N 650.364 0.662433 1.43002 0
M  V30 6832 C 651.78 0.330835 1.56133 0
M  V30 6833 C 651.98 -1.16454 1.64441 0
M  V30 6834 O 651.036 -1.94964 1.60453 0
M  V30 6835 C 652.349 1.05029 2.81761 0
M  V30 6836 C 653.897 1.03142 2.95518 0
M  V30 6837 C 654.372 1.73196 4.2399 0
M  V30 6838 N 655.863 1.70004 4.30875 0
M  V30 6839 C 656.598 2.21074 5.29069 0
M  V30 6840 N 656.094 2.80473 6.33488 0
M  V30 6841 N 657.887 2.1152 5.20784 0
M  V30 6842 H 650.038 1.63272 1.35853 0
M  V30 6843 H 652.301 0.687149 0.653092 0
M  V30 6844 H 652.007 2.10542 2.81718 0
M  V30 6845 H 651.881 0.607664 3.72273 0
M  V30 6846 H 654.268 -0.0153339 2.95096 0
M  V30 6847 H 654.349 1.51282 2.0627 0
M  V30 6848 H 653.993 2.77833 4.25172 0
M  V30 6849 H 653.923 1.22515 5.1215 0
M  V30 6850 H 656.414 1.26667 3.56039 0
M  V30 6851 H 656.727 3.17094 7.04749 0
M  V30 6852 H 655.072 2.84538 6.34085 0
M  V30 6853 H 658.263 1.64814 4.38126 0
M  V30 6854 H 658.436 2.51629 5.97149 0
M  V30 6855 N 651.842 -1.52309 0.404946 0
M  V30 6856 C 652.805 -2.25491 -0.410651 0
M  V30 6857 C 653.805 -1.27704 -0.977154 0
M  V30 6858 O 654.995 -1.51679 -0.856691 0
M  V30 6859 C 652.127 -3.02197 -1.57765 0
M  V30 6860 H 653.32 -2.99015 0.230277 0
M  V30 6861 H 650.873 -1.55506 0.157377 0
M  V30 6862 H 651.608 -2.33013 -2.25556 0
M  V30 6863 H 651.393 -3.73987 -1.17797 0
M  V30 6864 H 652.883 -3.57719 -2.15469 0
M  V30 6865 N 653.32 -0.135238 -1.57019 0
M  V30 6866 C 654.567 0.518794 -1.95742 0
M  V30 6867 C 654.895 1.65642 -1.01947 0
M  V30 6868 O 654.15 1.95645 -0.0464016 0
M  V30 6869 C 654.449 1.07694 -3.40788 0
M  V30 6870 C 654.115 0.058992 -4.50861 0
M  V30 6871 C 652.777 -0.220872 -4.80693 0
M  V30 6872 C 655.129 -0.633856 -5.17331 0
M  V30 6873 C 652.457 -1.19959 -5.74305 0
M  V30 6874 C 654.809 -1.60131 -6.11997 0
M  V30 6875 C 653.473 -1.889 -6.40213 0
M  V30 6876 H 652.743 0.18984 -0.716269 0
M  V30 6877 H 655.39 -0.219581 -1.90237 0
M  V30 6878 H 653.695 1.89241 -3.43067 0
M  V30 6879 H 655.392 1.59137 -3.68071 0
M  V30 6880 H 651.982 0.287304 -4.27636 0
M  V30 6881 H 656.166 -0.430823 -4.94427 0
M  V30 6882 H 651.422 -1.42905 -5.94465 0
M  V30 6883 H 655.596 -2.14376 -6.62583 0
M  V30 6884 H 653.223 -2.64891 -7.12556 0
M  V30 6885 N 654.798 1.5699 0.138552 0
M  V30 6886 C 656.075 1.74741 0.87891 0
M  V30 6887 C 656.455 0.705522 1.98961 0
M  V30 6888 O 655.803 -0.274066 2.2685 0
M  V30 6889 C 656.013 3.1909 1.4136 0
M  V30 6890 C 657.361 3.81023 1.87368 0
M  V30 6891 O 658.385 3.22571 1.51084 0
M  V30 6892 O 657.244 4.83722 2.54312 0
M  V30 6893 H 654.338 0.714781 0.415953 0
M  V30 6894 H 656.884 1.69248 0.123817 0
M  V30 6895 H 655.656 3.86424 0.61579 0
M  V30 6896 H 655.279 3.29043 2.23196 0
M  V30 6897 N 656.276 -0.40816 1.52223 0
M  V30 6898 C 657.687 -0.986929 1.58482 0
M  V30 6899 C 658.038 -1.91521 0.425917 0
M  V30 6900 O 657.163 -2.11593 -0.453593 0
M  V30 6901 C 657.758 -1.7967 2.87235 0
M  V30 6902 C 656.317 -2.32549 2.9597 0
M  V30 6903 C 655.464 -1.12558 2.53428 0
M  V30 6904 H 658.415 -0.188362 1.57578 0
M  V30 6905 H 658.436 -2.65417 2.72642 0
M  V30 6906 H 657.948 -1.12082 3.71563 0
M  V30 6907 H 656.049 -3.03505 2.16137 0
M  V30 6908 H 656.162 -2.63348 4.00231 0
M  V30 6909 H 654.526 -1.47984 2.07299 0
M  V30 6910 H 655.309 -0.465351 3.40131 0
M  V30 6911 N 657.755 -1.42862 -0.66545 0
M  V30 6912 C 658.665 -1.49491 -1.80803 0
M  V30 6913 C 659.681 -0.382914 -1.69734 0
M  V30 6914 O 660.857 -0.635223 -1.9112 0
M  V30 6915 C 657.922 -1.40383 -3.17007 0
M  V30 6916 C 656.983 -2.62152 -3.39963 0
M  V30 6917 C 656.216 -2.53469 -4.69669 0
M  V30 6918 O 656.439 -1.57568 -5.48205 0
M  V30 6919 O 655.373 -3.43763 -4.94075 0
M  V30 6920 H 659.199 -2.45949 -1.78165 0
M  V30 6921 H 656.784 -1.24728 -0.822387 0
M  V30 6922 H 658.666 -1.377 -3.98267 0
M  V30 6923 H 657.341 -0.470546 -3.20262 0
M  V30 6924 H 656.248 -2.70409 -2.58515 0
M  V30 6925 H 657.581 -3.54411 -3.41546 0
M  V30 6926 N 659.233 0.902656 -1.29189 0
M  V30 6927 C 660.196 1.98797 -1.14071 0
M  V30 6928 C 661.196 1.60615 -0.0770549 0
M  V30 6929 O 662.386 1.71165 -0.323753 0
M  V30 6930 C 659.518 3.32688 -0.743739 0
M  V30 6931 H 660.711 2.13637 -2.10473 0
M  V30 6932 H 658.264 1.08678 -1.12334 0
M  V30 6933 H 658.999 3.23549 0.220554 0
M  V30 6934 H 658.784 3.61765 -1.51223 0
M  V30 6935 H 660.274 4.12337 -0.660935 0
M  V30 6936 N 660.711 1.11618 1.11262 0
M  V30 6937 C 661.674 0.779447 2.15539 0
M  V30 6938 C 662.674 -0.202081 1.59525 0
M  V30 6939 O 663.864 0.0226356 1.74185 0
M  V30 6940 C 660.996 0.15674 3.40539 0
M  V30 6941 H 662.189 1.70324 2.4684 0
M  V30 6942 H 659.742 0.918298 1.26479 0
M  V30 6943 H 660.477 -0.777186 3.1485 0
M  V30 6944 H 660.262 0.863308 3.82478 0
M  V30 6945 H 661.752 -0.062661 4.17553 0
M  V30 6946 N 662.189 -1.289 0.906776 0
M  V30 6947 C 663.152 -2.25777 0.394656 0
M  V30 6948 C 664.152 -1.53621 -0.475119 0
M  V30 6949 O 665.342 -1.71949 -0.279165 0
M  V30 6950 C 662.474 -3.38113 -0.43499 0
M  V30 6951 H 663.667 -2.72592 1.25033 0
M  V30 6952 H 661.22 -1.40463 0.685547 0
M  V30 6953 H 661.955 -2.96648 -1.31036 0
M  V30 6954 H 661.74 -3.91647 0.188334 0
M  V30 6955 H 663.23 -4.10168 -0.784365 0
M  V30 6956 N 663.667 -0.670007 -1.42649 0
M  V30 6957 C 664.913 -0.190568 -2.01903 0
M  V30 6958 C 665.246 1.19817 -1.52832 0
M  V30 6959 O 664.521 1.80342 -0.728485 0
M  V30 6960 C 664.804 -0.21991 -3.59428 0
M  V30 6961 C 664.657 -1.64376 -4.18689 0
M  V30 6962 C 665.976 0.434519 -4.3795 0
M  V30 6963 H 663.095 -0.0707219 -0.733599 0
M  V30 6964 H 665.737 -0.853883 -1.69732 0
M  V30 6965 H 663.887 0.344894 -3.86966 0
M  V30 6966 H 665.559 -2.26044 -4.02122 0
M  V30 6967 H 663.802 -2.18591 -3.747 0
M  V30 6968 H 664.473 -1.61601 -5.27815 0
M  V30 6969 H 666.949 -0.0462156 -4.16074 0
M  V30 6970 H 665.825 0.38333 -5.4756 0
M  V30 6971 H 666.086 1.51135 -4.15464 0
M  V30 6972 N 665.145 1.52092 -0.413018 0
M  V30 6973 C 666.077 2.24819 0.445994 0
M  V30 6974 C 667.09 1.27925 1.00692 0
M  V30 6975 O 668.279 1.53845 0.905204 0
M  V30 6976 C 665.379 2.96951 1.6332 0
M  V30 6977 C 664.552 4.20746 1.19548 0
M  V30 6978 C 663.611 4.75668 2.25003 0
M  V30 6979 O 662.637 5.38148 1.85434 0
M  V30 6980 N 663.839 4.57579 3.57214 0
M  V30 6981 H 666.604 2.99176 -0.177209 0
M  V30 6982 H 664.165 1.60102 -0.240601 0
M  V30 6983 H 666.157 3.30586 2.33441 0
M  V30 6984 H 664.727 2.25756 2.16225 0
M  V30 6985 H 663.947 3.92881 0.32224 0
M  V30 6986 H 665.235 5.01132 0.880033 0
M  V30 6987 H 664.633 4.07758 3.92109 0
M  V30 6988 H 663.19 4.95642 4.23299 0
M  V30 6989 N 666.623 0.143563 1.56945 0
M  V30 6990 C 668.034 -0.37783 1.82837 0
M  V30 6991 C 668.385 -1.64967 1.06209 0
M  V30 6992 O 667.51 -2.14221 0.306291 0
M  V30 6993 C 668.105 -0.692274 3.31652 0
M  V30 6994 C 666.664 -1.1582 3.58138 0
M  V30 6995 C 665.811 -0.17951 2.76718 0
M  V30 6996 H 668.762 0.368317 1.54367 0
M  V30 6997 H 668.783 -1.54729 3.47619 0
M  V30 6998 H 668.295 0.233572 3.87397 0
M  V30 6999 H 666.396 -2.10011 3.07776 0
M  V30 7000 H 666.509 -1.08655 4.66616 0
M  V30 7001 H 664.873 -0.671458 2.4569 0
M  V30 7002 H 665.656 0.739865 3.35233 0
M  V30 7003 N 668.101 -1.57061 -0.130224 0
M  V30 7004 C 669.331 -1.88159 -0.853217 0
M  V30 7005 C 669.739 -0.731675 -1.7448 0
M  V30 7006 O 669.082 0.307035 -1.81116 0
M  V30 7007 C 669.144 -3.1415 -1.74785 0
M  V30 7008 C 668.808 -4.45202 -1.03173 0
M  V30 7009 C 669.805 -5.18526 -0.377759 0
M  V30 7010 C 667.49 -4.91912 -1.01624 0
M  V30 7011 C 669.484 -6.36775 0.282123 0
M  V30 7012 C 667.171 -6.10082 -0.352555 0
M  V30 7013 C 668.169 -6.82361 0.295483 0
M  V30 7014 O 667.857 -7.98284 0.948606 0
M  V30 7015 H 667.589 -0.627596 -0.251197 0
M  V30 7016 H 670.143 -2.05034 -0.1226 0
M  V30 7017 H 668.373 -2.93328 -2.51983 0
M  V30 7018 H 670.062 -3.31359 -2.34427 0
M  V30 7019 H 670.828 -4.83498 -0.381417 0
M  V30 7020 H 666.707 -4.35566 -1.51007 0
M  V30 7021 H 670.251 -6.93129 0.788525 0
M  V30 7022 H 666.148 -6.44569 -0.346621 0
M  V30 7023 H 666.916 -8.14054 0.851954 0
M  V30 7024 N 669.579 0.400081 -1.52437 0
M  V30 7025 C 670.511 1.50729 -1.72666 0
M  V30 7026 C 671.524 1.51058 -0.607075 0
M  V30 7027 O 672.713 1.5516 -0.88248 0
M  V30 7028 C 669.813 2.89604 -1.76019 0
M  V30 7029 C 668.986 3.13365 -3.05157 0
M  V30 7030 C 668.045 4.32163 -3.00203 0
M  V30 7031 O 667.071 4.29004 -3.74092 0
M  V30 7032 N 668.273 5.3776 -2.18619 0
M  V30 7033 H 671.038 1.33767 -2.68191 0
M  V30 7034 H 668.599 0.58948 -1.50787 0
M  V30 7035 H 670.591 3.67159 -1.70225 0
M  V30 7036 H 669.161 2.99979 -0.879284 0
M  V30 7037 H 668.381 2.23774 -3.24529 0
M  V30 7038 H 669.669 3.26089 -3.90568 0
M  V30 7039 H 669.067 5.43177 -1.58035 0
M  V30 7040 H 667.624 6.14023 -2.18674 0
M  V30 7041 N 671.057 1.43213 0.657864 0
M  V30 7042 C 672.334 1.35063 1.41483 0
M  V30 7043 C 672.714 -0.0038314 2.111 0
M  V30 7044 O 672.062 -1.02018 2.04462 0
M  V30 7045 C 672.272 2.53061 2.40335 0
M  V30 7046 C 673.62 2.9594 3.04474 0
M  V30 7047 O 674.644 2.53074 2.50663 0
M  V30 7048 O 673.503 3.70184 4.02027 0
M  V30 7049 H 670.597 0.533517 0.631893 0
M  V30 7050 H 673.143 1.55253 0.685162 0
M  V30 7051 H 671.915 3.43283 1.87809 0
M  V30 7052 H 671.538 2.34945 3.20759 0
M  V30 7053 N 672.536 -0.895792 1.29666 0
M  V30 7054 C 673.468 -2.00563 1.10937 0
M  V30 7055 C 674.481 -1.62705 0.055734 0
M  V30 7056 O 675.67 -1.7595 0.300656 0
M  V30 7057 C 672.77 -3.32262 0.667448 0
M  V30 7058 C 671.943 -3.98625 1.80047 0
M  V30 7059 C 671.002 -5.08617 1.3489 0
M  V30 7060 O 670.028 -5.30837 2.05429 0
M  V30 7061 N 671.23 -5.80076 0.221937 0
M  V30 7062 H 673.995 -2.17184 2.06522 0
M  V30 7063 H 671.556 -1.06822 1.21658 0
M  V30 7064 H 673.548 -4.03196 0.348586 0
M  V30 7065 H 672.118 -3.11985 -0.196055 0
M  V30 7066 H 671.338 -3.21005 2.28801 0
M  V30 7067 H 672.626 -4.39704 2.56003 0
M  V30 7068 H 672.024 -5.64514 -0.366084 0
M  V30 7069 H 670.581 -6.51789 -0.0375346 0
M  V30 7070 N 674.014 -1.12206 -1.10668 0
M  V30 7071 C 675.242 -0.898635 -1.86366 0
M  V30 7072 C 675.657 0.551991 -1.80551 0
M  V30 7073 O 675.014 1.38152 -1.19249 0
M  V30 7074 C 675.065 -1.36199 -3.34861 0
M  V30 7075 O 674.786 -2.75576 -3.40573 0
M  V30 7076 C 676.287 -1.17515 -4.2744 0
M  V30 7077 H 673.507 -0.321281 -0.589084 0
M  V30 7078 H 676.051 -1.49142 -1.39918 0
M  V30 7079 H 674.206 -0.81249 -3.78784 0
M  V30 7080 H 674.62 -2.95851 -4.33096 0
M  V30 7081 H 676.094 -1.54827 -5.29842 0
M  V30 7082 H 676.571 -0.115486 -4.39048 0
M  V30 7083 H 677.177 -1.71203 -3.89319 0
M  V30 7084 N 675.492 1.28418 -0.913599 0
M  V30 7085 C 676.722 1.98817 -0.56172 0
M  V30 7086 C 677.13 1.68457 0.861321 0
M  V30 7087 O 676.473 0.933653 1.58204 0
M  V30 7088 C 676.535 3.52801 -0.690785 0
M  V30 7089 C 676.199 4.0675 -2.08334 0
M  V30 7090 C 677.196 4.20597 -3.05604 0
M  V30 7091 C 674.881 4.41445 -2.39648 0
M  V30 7092 C 676.875 4.68392 -4.32305 0
M  V30 7093 C 674.562 4.88934 -3.66588 0
M  V30 7094 C 675.56 5.02364 -4.6273 0
M  V30 7095 O 675.248 5.48817 -5.87414 0
M  V30 7096 H 674.98 0.641608 -0.212874 0
M  V30 7097 H 677.534 1.64584 -1.22887 0
M  V30 7098 H 675.764 3.86686 0.0334336 0
M  V30 7099 H 677.453 4.04422 -0.346031 0
M  V30 7100 H 678.219 3.94067 -2.8273 0
M  V30 7101 H 674.098 4.30242 -1.65567 0
M  V30 7102 H 677.642 4.7879 -5.07352 0
M  V30 7103 H 673.539 5.14904 -3.89287 0
M  V30 7104 H 674.307 5.67103 -5.90201 0
M  V30 7105 N 676.97 0.677563 1.42291 0
M  V30 7106 C 677.902 -0.0380218 2.29168 0
M  V30 7107 C 678.915 -0.762714 1.43828 0
M  V30 7108 O 680.104 -0.616413 1.67519 0
M  V30 7109 C 677.204 -1.07761 3.21311 0
M  V30 7110 C 676.377 -0.42618 4.35319 0
M  V30 7111 C 675.436 -1.36592 5.08162 0
M  V30 7112 O 674.462 -0.865174 5.62586 0
M  V30 7113 N 675.664 -2.69909 5.13935 0
M  V30 7114 H 678.429 0.707766 2.91223 0
M  V30 7115 H 675.99 0.52219 1.53247 0
M  V30 7116 H 677.982 -1.70761 3.6691 0
M  V30 7117 H 676.552 -1.72511 2.60689 0
M  V30 7118 H 675.772 0.383385 3.92331 0
M  V30 7119 H 677.06 0.0275277 5.08793 0
M  V30 7120 H 676.458 -3.13129 4.71134 0
M  V30 7121 H 675.015 -3.2815 5.6317 0
M  V30 7122 N 678.448 -1.51871 0.421078 0
M  V30 7123 C 679.673 -2.0684 -0.152371 0
M  V30 7124 C 680.098 -1.28802 -1.37083 0
M  V30 7125 O 679.456 -0.321482 -1.78427 0
M  V30 7126 C 679.504 -3.57532 -0.469368 0
M  V30 7127 O 678.608 -3.81818 -1.55848 0
M  V30 7128 H 677.949 -0.663939 -0.00898586 0
M  V30 7129 H 680.479 -1.95674 0.597724 0
M  V30 7130 H 680.489 -4.01515 -0.724553 0
M  V30 7131 H 679.164 -4.13761 0.421276 0
M  V30 7132 H 677.741 -3.49709 -1.29453 0
M  V30 7133 N 679.926 -0.151884 -1.56866 0
M  V30 7134 C 681.172 0.498742 -1.96572 0
M  V30 7135 C 681.505 1.64194 -1.03702 0
M  V30 7136 O 680.78 1.94334 -0.0803432 0
M  V30 7137 C 681.063 1.00027 -3.45929 0
M  V30 7138 C 680.916 -0.141767 -4.49577 0
M  V30 7139 C 682.235 1.88044 -3.97904 0
M  V30 7140 H 679.354 0.17982 -0.714726 0
M  V30 7141 H 681.996 -0.234097 -1.88552 0
M  V30 7142 H 680.146 1.62476 -3.52894 0
M  V30 7143 H 681.818 -0.778269 -4.54687 0
M  V30 7144 H 680.061 -0.80019 -4.26356 0
M  V30 7145 H 680.732 0.250947 -5.51429 0
M  V30 7146 H 683.208 1.35416 -3.93449 0
M  V30 7147 H 682.084 2.20043 -5.02864 0
M  V30 7148 H 682.345 2.81916 -3.40552 0
M  V30 7149 N 681.404 1.57128 0.121893 0
M  V30 7150 C 682.634 1.88609 0.843227 0
M  V30 7151 C 683.042 0.740917 1.74089 0
M  V30 7152 O 682.385 -0.297426 1.81276 0
M  V30 7153 C 682.447 3.15073 1.73117 0
M  V30 7154 C 682.111 4.45742 1.0081 0
M  V30 7155 C 683.108 5.18719 0.350255 0
M  V30 7156 C 680.793 4.92444 0.99014 0
M  V30 7157 C 682.787 6.36617 -0.315889 0
M  V30 7158 C 680.474 6.10261 0.320196 0
M  V30 7159 C 681.472 6.82194 -0.331666 0
M  V30 7160 O 681.16 7.97769 -0.990927 0
M  V30 7161 H 680.892 0.628919 0.247865 0
M  V30 7162 H 683.446 2.05096 0.111725 0
M  V30 7163 H 681.676 2.9466 2.50424 0
M  V30 7164 H 683.365 3.32597 2.32667 0
M  V30 7165 H 684.131 4.83693 0.35577 0
M  V30 7166 H 680.01 4.36361 1.48695 0
M  V30 7167 H 683.554 6.92701 -0.825272 0
M  V30 7168 H 679.451 6.44743 0.312433 0
M  V30 7169 H 680.219 8.13591 -0.895113 0
M  V30 7170 N 682.882 -0.391992 1.52647 0
M  V30 7171 C 684.129 -1.13732 1.67545 0
M  V30 7172 C 684.457 -1.90045 0.413881 0
M  V30 7173 O 683.712 -1.86157 -0.603646 0
M  V30 7174 C 684.011 -2.14401 2.85949 0
M  V30 7175 C 683.677 -1.54767 4.23507 0
M  V30 7176 C 682.339 -1.38229 4.60919 0
M  V30 7177 C 684.691 -1.11382 5.0916 0
M  V30 7178 C 682.019 -0.7685 5.81645 0
M  V30 7179 C 684.371 -0.514143 6.30507 0
M  V30 7180 C 683.035 -0.33604 6.66654 0
M  V30 7181 H 682.305 -0.416174 0.613091 0
M  V30 7182 H 684.952 -0.422327 1.86785 0
M  V30 7183 H 683.257 -2.92108 2.61114 0
M  V30 7184 H 684.954 -2.71974 2.94671 0
M  V30 7185 H 681.544 -1.68626 3.94035 0
M  V30 7186 H 685.728 -1.22962 4.80826 0
M  V30 7187 H 680.984 -0.618681 6.08262 0
M  V30 7188 H 685.158 -0.169657 6.96193 0
M  V30 7189 H 682.785 0.14166 7.60068 0
M  V30 7190 N 684.36 -1.4356 -0.65026 0
M  V30 7191 C 685.606 -1.45549 -1.41221 0
M  V30 7192 C 685.939 -0.0805472 -1.94033 0
M  V30 7193 O 685.214 0.899043 -1.72475 0
M  V30 7194 C 685.497 -2.50028 -2.59148 0
M  V30 7195 C 685.35 -3.96808 -2.1181 0
M  V30 7196 C 686.669 -2.51212 -3.61359 0
M  V30 7197 H 683.788 -0.529967 -0.512156 0
M  V30 7198 H 686.43 -1.75127 -0.736933 0
M  V30 7199 H 684.58 -2.24937 -3.16758 0
M  V30 7200 H 686.252 -4.32966 -1.59178 0
M  V30 7201 H 684.495 -4.09498 -1.43156 0
M  V30 7202 H 685.166 -4.6553 -2.96625 0
M  V30 7203 H 687.642 -2.73583 -3.13515 0
M  V30 7204 H 686.518 -3.26252 -4.41419 0
M  V30 7205 H 686.779 -1.54701 -4.1415 0
M  V30 7206 N 685.838 0.888903 -1.30139 0
M  V30 7207 C 687.063 1.67884 -1.21777 0
M  V30 7208 C 687.488 1.86848 0.216689 0
M  V30 7209 O 686.846 1.39659 1.15608 0
M  V30 7210 C 686.894 3.03483 -1.94757 0
M  V30 7211 O 685.998 3.92294 -1.27198 0
M  V30 7212 H 685.339 0.513144 -0.421402 0
M  V30 7213 H 687.869 1.10968 -1.71893 0
M  V30 7214 H 687.879 3.53553 -2.03627 0
M  V30 7215 H 686.554 2.89 -2.99085 0
M  V30 7216 H 685.131 3.50732 -1.26655 0
M  V30 7217 N 687.317 1.12792 1.10072 0
M  V30 7218 C 688.227 0.812369 2.20086 0
M  V30 7219 C 689.243 -0.200349 1.72843 0
M  V30 7220 O 690.419 -0.0330262 2.01373 0
M  V30 7221 C 687.484 0.275685 3.45602 0
M  V30 7222 C 686.545 1.34881 4.07561 0
M  V30 7223 C 685.778 0.837639 5.27086 0
M  V30 7224 O 686.001 -0.327224 5.69461 0
M  V30 7225 O 684.935 1.60894 5.79997 0
M  V30 7226 H 688.761 1.73133 2.49517 0
M  V30 7227 H 686.346 0.904863 1.18881 0
M  V30 7228 H 688.228 -0.0185375 4.21396 0
M  V30 7229 H 686.903 -0.615783 3.17789 0
M  V30 7230 H 685.81 1.69625 3.33434 0
M  V30 7231 H 687.143 2.21418 4.39585 0
M  V30 7232 N 688.795 -1.27931 0.920396 0
M  V30 7233 C 690.02 -1.99343 0.572478 0
M  V30 7234 C 690.445 -1.68267 -0.840696 0
M  V30 7235 O 689.803 -0.918805 -1.56294 0
M  V30 7236 C 689.851 -3.51698 0.796284 0
M  V30 7237 O 688.955 -4.12157 -0.141602 0
M  V30 7238 H 688.296 -0.626065 0.221221 0
M  V30 7239 H 690.826 -1.62921 1.23765 0
M  V30 7240 H 690.836 -4.01793 0.708984 0
M  V30 7241 H 689.511 -3.73649 1.82644 0
M  V30 7242 H 688.088 -3.729 -0.005007 0
M  V30 7243 N 690.273 -0.685099 -1.4193 0
M  V30 7244 C 691.52 -0.211658 -2.01391 0
M  V30 7245 C 691.848 1.18526 -1.54214 0
M  V30 7246 O 691.103 1.81189 -0.739519 0
M  V30 7247 C 691.402 -0.206154 -3.56805 0
M  V30 7248 C 691.068 -1.54915 -4.23453 0
M  V30 7249 C 689.73 -1.91684 -4.41373 0
M  V30 7250 C 692.082 -2.43317 -4.60919 0
M  V30 7251 C 689.41 -3.16461 -4.94034 0
M  V30 7252 C 691.762 -3.67415 -5.14965 0
M  V30 7253 C 690.426 -4.04341 -5.31098 0
M  V30 7254 H 689.696 -0.0774511 -0.736941 0
M  V30 7255 H 692.343 -0.882121 -1.69973 0
M  V30 7256 H 690.648 0.547841 -3.87951 0
M  V30 7257 H 692.345 0.17753 -4.00607 0
M  V30 7258 H 688.935 -1.25314 -4.09871 0
M  V30 7259 H 693.119 -2.16192 -4.46738 0
M  V30 7260 H 688.375 -3.45078 -5.04709 0
M  V30 7261 H 692.549 -4.3611 -5.42938 0
M  V30 7262 H 690.176 -5.01101 -5.71666 0
M  V30 7263 N 691.751 1.51645 -0.429126 0
M  V30 7264 C 692.976 2.06917 0.141399 0
M  V30 7265 C 693.401 1.29527 1.36398 0
M  V30 7266 O 692.759 0.33094 1.78254 0
M  V30 7267 C 692.807 3.57776 0.4504 0
M  V30 7268 O 691.911 3.82639 1.53821 0
M  V30 7269 H 691.252 0.663978 0.0054647 0
M  V30 7270 H 693.782 1.95355 -0.608093 0
M  V30 7271 H 693.792 4.01894 0.703249 0
M  V30 7272 H 692.467 4.13532 -0.443213 0
M  V30 7273 H 691.044 3.5039 1.27597 0
M  V30 7274 N 693.229 0.160201 1.56784 0
M  V30 7275 C 694.506 -0.533355 1.88188 0
M  V30 7276 C 694.886 -1.82072 1.06831 0
M  V30 7277 O 694.234 -2.27946 0.158959 0
M  V30 7278 C 694.444 -0.786034 3.40033 0
M  V30 7279 C 695.792 -1.12097 4.09536 0
M  V30 7280 O 696.816 -0.874949 3.45287 0
M  V30 7281 O 695.675 -1.58457 5.23023 0
M  V30 7282 H 692.769 -0.273589 0.780434 0
M  V30 7283 H 695.315 0.197803 1.68543 0
M  V30 7284 H 694.087 0.124515 3.91102 0
M  V30 7285 H 693.71 -1.57091 3.65251 0
M  V30 7286 N 694.707 -1.5719 -0.113559 0
M  V30 7287 C 695.67 -1.99796 -1.12314 0
M  V30 7288 C 696.67 -0.888847 -1.34001 0
M  V30 7289 O 697.86 -1.15476 -1.30426 0
M  V30 7290 C 694.992 -2.34279 -2.47641 0
M  V30 7291 H 696.185 -2.90193 -0.756825 0
M  V30 7292 H 693.738 -1.52144 -0.358029 0
M  V30 7293 H 694.473 -1.46778 -2.89183 0
M  V30 7294 H 694.258 -3.15175 -2.33253 0
M  V30 7295 H 695.748 -2.67963 -3.2029 0
M  V30 7296 N 696.185 0.383891 -1.52853 0
M  V30 7297 C 697.132 1.46924 -1.77995 0
M  V30 7298 C 698.102 1.53958 -0.623396 0
M  V30 7299 O 699.287 1.70134 -0.863657 0
M  V30 7300 C 696.427 2.84093 -1.95921 0
M  V30 7301 C 695.54 2.86171 -3.23621 0
M  V30 7302 C 694.675 4.14799 -3.31836 0
M  V30 7303 C 693.714 4.10948 -4.53639 0
M  V30 7304 N 692.851 5.31192 -4.59107 0
M  V30 7305 H 697.691 1.24786 -2.70615 0
M  V30 7306 H 695.228 0.605265 -1.34071 0
M  V30 7307 H 697.186 3.63755 -2.04299 0
M  V30 7308 H 695.816 3.04671 -1.06656 0
M  V30 7309 H 694.868 1.9885 -3.24288 0
M  V30 7310 H 696.18 2.79194 -4.13343 0
M  V30 7311 H 695.334 5.02867 -3.39425 0
M  V30 7312 H 694.073 4.24505 -2.40097 0
M  V30 7313 H 693.078 3.21268 -4.46169 0
M  V30 7314 H 694.303 4.0286 -5.467 0
M  V30 7315 H 692.249 5.41518 -3.70262 0
M  V30 7316 H 692.166 5.26311 -5.42708 0
M  V30 7317 H 693.434 6.21143 -4.70958 0
M  V30 7318 N 697.663 1.43903 0.642637 0
M  V30 7319 C 698.94 1.36556 1.40043 0
M  V30 7320 C 699.32 0.0185588 2.11092 0
M  V30 7321 O 698.668 -0.998438 2.05532 0
M  V30 7322 C 698.878 2.55596 2.37638 0
M  V30 7323 C 700.226 2.99153 3.01318 0
M  V30 7324 O 701.25 2.55719 2.47965 0
M  V30 7325 O 700.109 3.74427 3.98078 0
M  V30 7326 H 697.203 0.540189 0.626198 0
M  V30 7327 H 699.749 1.55971 0.668657 0
M  V30 7328 H 698.521 3.45256 1.84158 0
M  V30 7329 H 698.144 2.38334 3.18249 0
M  V30 7330 N 699.141 -0.881989 1.30609 0
M  V30 7331 C 700.088 -1.98803 1.17244 0
M  V30 7332 C 701.058 -1.65987 0.0611905 0
M  V30 7333 O 702.243 -1.89385 0.231911 0
M  V30 7334 C 699.383 -3.33867 0.87333 0
M  V30 7335 C 698.496 -3.79354 2.06675 0
M  V30 7336 C 697.631 -5.03078 1.70547 0
M  V30 7337 C 696.67 -5.40981 2.86366 0
M  V30 7338 N 695.807 -6.55886 2.50514 0
M  V30 7339 H 700.647 -2.09566 2.11863 0
M  V30 7340 H 698.184 -1.02607 1.05405 0
M  V30 7341 H 700.142 -4.11612 0.680519 0
M  V30 7342 H 698.772 -3.2278 -0.0359983 0
M  V30 7343 H 697.824 -2.97492 2.37071 0
M  V30 7344 H 699.136 -4.03382 2.93401 0
M  V30 7345 H 698.29 -5.88457 1.47658 0
M  V30 7346 H 697.029 -4.80927 0.809947 0
M  V30 7347 H 696.034 -4.54127 3.09917 0
M  V30 7348 H 697.259 -5.65104 3.76609 0
M  V30 7349 H 695.205 -6.35306 1.63471 0
M  V30 7350 H 695.122 -6.79799 3.30771 0
M  V30 7351 H 696.39 -7.44489 2.30989 0
M  V30 7352 N 700.619 -1.13374 -1.09472 0
M  V30 7353 C 701.549 -0.833268 -2.18126 0
M  V30 7354 C 702.53 0.207169 -1.68834 0
M  V30 7355 O 703.715 0.0662012 -1.94087 0
M  V30 7356 C 700.845 -0.297979 -3.46019 0
M  V30 7357 C 699.799 -1.27261 -4.08642 0
M  V30 7358 C 699.125 -0.597104 -5.31356 0
M  V30 7359 C 700.425 -2.63095 -4.51197 0
M  V30 7360 H 702.119 -1.74182 -2.43518 0
M  V30 7361 H 699.665 -0.838921 -1.17039 0
M  V30 7362 H 701.618 -0.0754444 -4.21332 0
M  V30 7363 H 700.342 0.645959 -3.20148 0
M  V30 7364 H 699.001 -1.48113 -3.35348 0
M  V30 7365 H 698.649 0.352293 -5.01765 0
M  V30 7366 H 698.349 -1.24734 -5.74208 0
M  V30 7367 H 699.873 -0.38384 -6.09392 0
M  V30 7368 H 701.287 -2.46214 -5.17737 0
M  V30 7369 H 699.684 -3.2429 -5.04932 0
M  V30 7370 H 700.754 -3.20793 -3.6362 0
M  V30 7371 N 702.098 1.27442 -0.927168 0
M  V30 7372 C 703.514 1.46754 -0.627329 0
M  V30 7373 C 703.714 1.83902 0.823549 0
M  V30 7374 O 702.77 1.95215 1.60148 0
M  V30 7375 C 704.083 2.56045 -1.57674 0
M  V30 7376 C 705.631 2.69906 -1.58491 0
M  V30 7377 C 706.106 3.82355 -2.52128 0
M  V30 7378 N 707.597 3.89728 -2.50332 0
M  V30 7379 C 708.332 4.76155 -3.19475 0
M  V30 7380 N 707.828 5.67073 -3.97995 0
M  V30 7381 N 709.621 4.6988 -3.08496 0
M  V30 7382 H 701.772 1.01613 -1.86517 0
M  V30 7383 H 704.035 0.507443 -0.800753 0
M  V30 7384 H 703.741 2.35542 -2.61176 0
M  V30 7385 H 703.615 3.53423 -1.31804 0
M  V30 7386 H 706.002 2.89792 -0.557208 0
M  V30 7387 H 706.083 1.73018 -1.8841 0
M  V30 7388 H 705.727 3.63224 -3.55008 0
M  V30 7389 H 705.657 4.7867 -2.19505 0
M  V30 7390 H 708.148 3.24717 -1.93306 0
M  V30 7391 H 708.461 6.2988 -4.4774 0
M  V30 7392 H 706.806 5.6687 -4.02098 0
M  V30 7393 H 709.997 3.97848 -2.46646 0
M  V30 7394 H 710.17 5.37017 -3.62652 0
M  V30 7395 N 703.576 0.692616 1.41565 0
M  V30 7396 C 704.801 0.229776 2.06123 0
M  V30 7397 C 705.226 -1.11119 1.5177 0
M  V30 7398 O 704.584 -1.69498 0.643444 0
M  V30 7399 C 704.632 0.19469 3.60074 0
M  V30 7400 O 703.736 -0.831366 4.03933 0
M  V30 7401 H 703.077 0.113002 0.654314 0
M  V30 7402 H 705.607 0.946645 1.81383 0
M  V30 7403 H 705.617 0.0245487 4.07993 0
M  V30 7404 H 704.292 1.17339 3.99004 0
M  V30 7405 H 702.869 -0.630819 3.67526 0
M  V30 7406 N 705.054 -1.51416 0.437162 0
M  V30 7407 C 706.284 -2.06204 -0.127859 0
M  V30 7408 C 706.692 -1.30463 -1.37026 0
M  V30 7409 O 706.035 -0.357516 -1.80187 0
M  V30 7410 C 706.097 -3.55783 -0.515632 0
M  V30 7411 C 705.761 -4.52776 0.619937 0
M  V30 7412 C 706.758 -4.98031 1.49201 0
M  V30 7413 C 704.443 -4.95878 0.800618 0
M  V30 7414 C 706.437 -5.85061 2.52947 0
M  V30 7415 C 704.124 -5.82699 1.84135 0
M  V30 7416 C 705.122 -6.27188 2.70416 0
M  V30 7417 O 704.81 -7.12284 3.72702 0
M  V30 7418 H 704.542 -0.675903 -0.011442 0
M  V30 7419 H 707.096 -1.95977 0.614986 0
M  V30 7420 H 705.326 -3.63793 -1.31118 0
M  V30 7421 H 707.015 -3.93087 -1.01179 0
M  V30 7422 H 707.781 -4.65426 1.36395 0
M  V30 7423 H 703.66 -4.60792 0.138617 0
M  V30 7424 H 707.204 -6.19708 3.20325 0
M  V30 7425 H 703.101 -6.14717 1.9696 0
M  V30 7426 H 703.869 -7.30462 3.69281 0
M  V30 7427 N 706.532 -0.168513 -1.56696 0
M  V30 7428 C 707.495 0.748928 -2.16619 0
M  V30 7429 C 708.495 1.16007 -1.11351 0
M  V30 7430 O 709.685 1.07748 -1.3688 0
M  V30 7431 C 706.817 2.01904 -2.74677 0
M  V30 7432 H 708.01 0.227317 -2.99037 0
M  V30 7433 H 705.563 0.0810372 -1.5609 0
M  V30 7434 H 706.298 2.58381 -1.95985 0
M  V30 7435 H 706.083 1.73323 -3.51712 0
M  V30 7436 H 707.573 2.67383 -3.20774 0
M  V30 7437 N 708.01 1.57248 0.105221 0
M  V30 7438 C 709.235 1.90143 0.828264 0
M  V30 7439 C 709.66 0.761811 1.71983 0
M  V30 7440 O 709.018 -0.287086 1.79013 0
M  V30 7441 C 709.066 3.21856 1.62608 0
M  V30 7442 O 708.17 3.08732 2.7342 0
M  V30 7443 H 707.511 0.623558 0.228192 0
M  V30 7444 H 710.041 2.0443 0.0834826 0
M  V30 7445 H 710.051 3.54916 2.01243 0
M  V30 7446 H 708.726 4.0439 0.971687 0
M  V30 7447 H 707.303 2.87167 2.37886 0
M  V30 7448 N 709.488 -0.375779 1.53054 0
M  V30 7449 C 710.904 -0.716764 1.426 0
M  V30 7450 C 711.104 -1.93651 0.556931 0
M  V30 7451 O 710.16 -2.52475 0.0354461 0
M  V30 7452 C 711.473 -0.939499 2.85646 0
M  V30 7453 C 713.021 -1.04015 2.95212 0
M  V30 7454 C 713.496 -1.29543 4.39298 0
M  V30 7455 N 714.987 -1.36335 4.42682 0
M  V30 7456 C 715.722 -1.57778 5.51266 0
M  V30 7457 N 715.218 -1.76604 6.69913 0
M  V30 7458 N 717.011 -1.60065 5.38828 0
M  V30 7459 H 709.162 0.42664 2.08071 0
M  V30 7460 H 711.425 0.128758 0.939215 0
M  V30 7461 H 711.131 -0.115189 3.51511 0
M  V30 7462 H 711.005 -1.85048 3.2869 0
M  V30 7463 H 713.392 -1.85501 2.29507 0
M  V30 7464 H 713.473 -0.106785 2.55577 0
M  V30 7465 H 713.117 -0.485611 5.05573 0
M  V30 7466 H 713.047 -2.24184 4.76497 0
M  V30 7467 H 715.538 -1.23441 3.5717 0
M  V30 7468 H 715.851 -1.9251 7.48438 0
M  V30 7469 H 714.196 -1.73802 6.72917 0
M  V30 7470 H 717.387 -1.44917 4.45103 0
M  V30 7471 H 717.56 -1.76435 6.23518 0
M  V30 7472 N 710.966 -1.44241 -0.634997 0
M  V30 7473 C 712.215 -1.46102 -1.39058 0
M  V30 7474 C 712.528 -0.0959909 -1.95364 0
M  V30 7475 O 713.734 0.00788751 -2.71499 0
M  V30 7476 C 712.19 -2.57195 -2.51751 0
M  V30 7477 C 711.798 -3.99888 -2.01974 0
M  V30 7478 C 713.542 -2.68272 -3.28984 0
M  V30 7479 C 711.449 -5.02412 -3.11987 0
M  V30 7480 H 710.379 -0.543556 -0.522554 0
M  V30 7481 H 713.03 -1.70294 -0.683538 0
M  V30 7482 H 711.412 -2.26237 -3.25012 0
M  V30 7483 H 712.586 -4.40396 -1.35604 0
M  V30 7484 H 710.901 -3.93019 -1.37568 0
M  V30 7485 H 713.498 -3.42042 -4.10988 0
M  V30 7486 H 713.841 -1.73957 -3.78212 0
M  V30 7487 H 714.374 -2.98622 -2.62812 0
M  V30 7488 H 711.113 -5.98342 -2.67707 0
M  V30 7489 H 710.633 -4.66501 -3.77011 0
M  V30 7490 H 712.312 -5.25939 -3.76825 0
M  V30 7491 N 712.444 0.87505 -1.31075 0
M  V30 7492 C 713.376 1.98773 -1.14114 0
M  V30 7493 C 714.389 1.62595 -0.0816119 0
M  V30 7494 O 715.578 1.75449 -0.32861 0
M  V30 7495 C 712.678 3.31159 -0.720224 0
M  V30 7496 C 711.851 3.9571 -1.86366 0
M  V30 7497 C 710.91 5.06407 -1.42965 0
M  V30 7498 O 709.936 5.27501 -2.13848 0
M  V30 7499 N 711.138 5.79649 -0.314194 0
M  V30 7500 H 713.903 2.1387 -2.09951 0
M  V30 7501 H 711.464 1.04873 -1.23342 0
M  V30 7502 H 713.456 4.0259 -0.412687 0
M  V30 7503 H 712.026 3.12257 0.146396 0
M  V30 7504 H 711.246 3.17324 -2.33879 0
M  V30 7505 H 712.534 4.35576 -2.62966 0
M  V30 7506 H 711.932 5.65025 0.276228 0
M  V30 7507 H 710.489 6.51766 -0.0661641 0
M  V30 7508 N 713.922 1.13953 1.08869 0
M  V30 7509 C 715.338 0.878924 1.33218 0
M  V30 7510 C 715.538 -0.482478 1.95638 0
M  V30 7511 O 714.594 -1.22778 2.2064 0
M  V30 7512 C 715.907 2.00798 2.23832 0
M  V30 7513 C 717.455 2.04073 2.37325 0
M  V30 7514 C 717.93 3.16258 3.31278 0
M  V30 7515 N 719.421 3.15805 3.38853 0
M  V30 7516 C 720.156 3.99249 4.11567 0
M  V30 7517 N 719.652 4.92721 4.87029 0
M  V30 7518 N 721.445 3.87327 4.0735 0
M  V30 7519 H 713.596 2.01645 0.66731 0
M  V30 7520 H 715.859 0.878395 0.356547 0
M  V30 7521 H 715.565 2.98986 1.85203 0
M  V30 7522 H 715.439 1.92704 3.24261 0
M  V30 7523 H 717.826 1.06495 2.75214 0
M  V30 7524 H 717.907 2.16239 1.36654 0
M  V30 7525 H 717.551 4.14079 2.9411 0
M  V30 7526 H 717.481 3.0133 4.31866 0
M  V30 7527 H 719.972 2.48102 2.8505 0
M  V30 7528 H 720.285 5.52867 5.39961 0
M  V30 7529 H 718.63 4.96723 4.86098 0
M  V30 7530 H 721.821 3.13627 3.475 0
M  V30 7531 H 721.994 4.52585 4.63757 0
M  V30 7532 N 715.4 -1.26948 0.933913 0
M  V30 7533 C 716.811 -1.76058 0.621324 0
M  V30 7534 C 717.162 -1.76175 -0.863522 0
M  V30 7535 O 716.287 -1.36921 -1.67576 0
M  V30 7536 C 716.882 -3.19713 1.12111 0
M  V30 7537 C 715.441 -3.66465 0.859074 0
M  V30 7538 C 714.588 -2.46186 1.27624 0
M  V30 7539 H 717.539 -1.13127 1.11301 0
M  V30 7540 H 717.56 -3.77566 0.471608 0
M  V30 7541 H 717.072 -3.19596 2.20182 0
M  V30 7542 H 715.173 -3.72021 -0.207566 0
M  V30 7543 H 715.286 -4.55636 1.48098 0
M  V30 7544 H 713.65 -2.45042 0.694727 0
M  V30 7545 H 714.433 -2.48774 2.36572 0
M  V30 7546 N 716.879 -0.700114 -1.41195 0
M  V30 7547 C 718.126 -0.233006 -2.01155 0
M  V30 7548 C 718.454 1.16883 -1.55462 0
M  V30 7549 O 717.709 1.80395 -0.758695 0
M  V30 7550 C 718.008 -0.243986 -3.56566 0
M  V30 7551 C 717.674 -1.59397 -4.21786 0
M  V30 7552 C 716.336 -1.96355 -4.39316 0
M  V30 7553 C 718.688 -2.48192 -4.58312 0
M  V30 7554 C 716.016 -3.21683 -4.9065 0
M  V30 7555 C 718.368 -3.72857 -5.11039 0
M  V30 7556 C 717.032 -4.09951 -5.26779 0
M  V30 7557 H 716.302 -0.085263 -0.736078 0
M  V30 7558 H 718.949 -0.9001 -1.69028 0
M  V30 7559 H 717.254 0.506663 -3.8851 0
M  V30 7560 H 718.951 0.135031 -4.00773 0
M  V30 7561 H 715.541 -1.29654 -4.08519 0
M  V30 7562 H 719.725 -2.20918 -4.4442 0
M  V30 7563 H 714.981 -3.50412 -5.01021 0
M  V30 7564 H 719.155 -4.41844 -5.38282 0
M  V30 7565 H 716.782 -5.07136 -5.66319 0
M  V30 7566 N 718.357 1.51182 -0.445186 0
M  V30 7567 C 719.582 2.07056 0.119445 0
M  V30 7568 C 720.007 1.30966 1.35016 0
M  V30 7569 O 719.365 0.349827 1.77893 0
M  V30 7570 C 719.413 3.58234 0.412428 0
M  V30 7571 O 718.517 3.84249 1.49754 0
M  V30 7572 H 717.858 0.663998 -0.00157797 0
M  V30 7573 H 720.388 1.94699 -0.628779 0
M  V30 7574 H 720.398 4.02617 0.660583 0
M  V30 7575 H 719.073 4.13038 -0.487049 0
M  V30 7576 H 717.65 3.51724 1.23873 0
M  V30 7577 N 719.835 0.176821 1.56605 0
M  V30 7578 C 721.081 -0.467406 1.9734 0
M  V30 7579 C 721.414 -1.62523 1.06301 0
M  V30 7580 O 720.689 -1.94182 0.11125 0
M  V30 7581 C 720.972 -0.945106 3.47476 0
M  V30 7582 C 720.825 0.213273 4.49294 0
M  V30 7583 C 722.144 -1.8169 4.00845 0
M  V30 7584 H 719.263 -0.168426 0.717497 0
M  V30 7585 H 721.905 0.264065 1.88156 0
M  V30 7586 H 720.055 -1.56841 3.55434 0
M  V30 7587 H 721.727 0.850508 4.53392 0
M  V30 7588 H 719.97 0.867918 4.25029 0
M  V30 7589 H 720.641 -0.163187 5.51759 0
M  V30 7590 H 723.117 -1.29139 3.95553 0
M  V30 7591 H 721.993 -2.12015 5.06301 0
M  V30 7592 H 722.254 -2.76463 3.44994 0
M  V30 7593 N 721.313 -1.57302 -0.09688 0
M  V30 7594 C 722.26 -2.01933 -1.11766 0
M  V30 7595 C 723.23 -0.895329 -1.39904 0
M  V30 7596 O 724.415 -1.16119 -1.51397 0
M  V30 7597 C 721.555 -2.44726 -2.43317 0
M  V30 7598 C 720.668 -3.70639 -2.21925 0
M  V30 7599 C 719.803 -4.02318 -3.46862 0
M  V30 7600 C 718.842 -5.21346 -3.20725 0
M  V30 7601 N 717.979 -5.48787 -4.37924 0
M  V30 7602 H 722.819 -2.88919 -0.730075 0
M  V30 7603 H 720.356 -1.42901 -0.348962 0
M  V30 7604 H 722.314 -2.6758 -3.20088 0
M  V30 7605 H 720.944 -1.60753 -2.79926 0
M  V30 7606 H 719.996 -3.55271 -1.35965 0
M  V30 7607 H 721.308 -4.57557 -1.98603 0
M  V30 7608 H 720.462 -4.25939 -4.32042 0
M  V30 7609 H 719.201 -3.13918 -3.73238 0
M  V30 7610 H 718.206 -4.97547 -2.33938 0
M  V30 7611 H 719.431 -6.11343 -2.95697 0
M  V30 7612 H 717.377 -4.63346 -4.64378 0
M  V30 7613 H 717.294 -6.30073 -4.17785 0
M  V30 7614 H 718.562 -5.76943 -5.24173 0
M  V30 7615 N 722.791 0.367657 -1.53252 0
M  V30 7616 C 724.038 1.11052 -1.69333 0
M  V30 7617 C 724.366 1.89363 -0.444064 0
M  V30 7618 O 723.621 1.87094 0.573953 0
M  V30 7619 C 723.92 2.09825 -2.89324 0
M  V30 7620 C 723.586 1.4801 -4.25915 0
M  V30 7621 C 722.248 1.30879 -4.6306 0
M  V30 7622 C 724.6 1.03268 -5.10867 0
M  V30 7623 C 721.928 0.675868 -5.82794 0
M  V30 7624 C 724.28 0.41377 -6.31245 0
M  V30 7625 C 722.944 0.229939 -6.67104 0
M  V30 7626 H 722.214 0.406367 -0.619634 0
M  V30 7627 H 724.861 0.392558 -1.87433 0
M  V30 7628 H 723.166 2.87917 -2.65728 0
M  V30 7629 H 724.863 2.67252 -2.98961 0
M  V30 7630 H 721.453 1.62336 -3.96667 0
M  V30 7631 H 725.637 1.15297 -4.82722 0
M  V30 7632 H 720.893 0.521833 -6.09169 0
M  V30 7633 H 725.067 0.0588768 -6.96375 0
M  V30 7634 H 722.694 -0.262562 -7.59746 0
M  V30 7635 N 724.269 1.44576 0.627338 0
M  V30 7636 C 725.546 1.38033 1.38586 0
M  V30 7637 C 725.926 0.0409468 2.1106 0
M  V30 7638 O 725.274 -0.976582 2.0658 0
M  V30 7639 C 725.484 2.58102 2.34913 0
M  V30 7640 C 726.832 3.02332 2.98129 0
M  V30 7641 O 727.856 2.58334 2.45238 0
M  V30 7642 O 726.715 3.78628 3.94085 0
M  V30 7643 H 723.809 0.546801 0.620434 0
M  V30 7644 H 726.355 1.56672 0.652077 0
M  V30 7645 H 725.127 3.4719 1.80485 0
M  V30 7646 H 724.75 2.41696 3.15703 0
M  V30 7647 N 725.747 -0.868086 1.31537 0
M  V30 7648 C 727.158 -1.437 1.19195 0
M  V30 7649 C 727.509 -1.95169 -0.200842 0
M  V30 7650 O 726.634 -1.86432 -1.09872 0
M  V30 7651 C 727.229 -2.612 2.15778 0
M  V30 7652 C 725.788 -3.1413 2.07363 0
M  V30 7653 C 724.935 -1.86845 2.049 0
M  V30 7654 H 727.886 -0.676457 1.43561 0
M  V30 7655 H 727.907 -3.37948 1.74847 0
M  V30 7656 H 727.419 -2.23709 3.17137 0
M  V30 7657 H 725.52 -3.56238 1.09204 0
M  V30 7658 H 725.633 -3.76285 2.96557 0
M  V30 7659 H 723.997 -2.05886 1.49943 0
M  V30 7660 H 724.78 -1.51589 3.08019 0
M  V30 7661 N 727.225 -1.14528 -1.08264 0
M  V30 7662 C 728.455 -0.936604 -1.8415 0
M  V30 7663 C 728.863 0.518298 -1.81962 0
M  V30 7664 O 728.206 1.37096 -1.22272 0
M  V30 7665 C 728.268 -1.36182 -3.32708 0
M  V30 7666 C 727.932 -2.83257 -3.58629 0
M  V30 7667 C 728.929 -3.81366 -3.5335 0
M  V30 7668 C 726.614 -3.20704 -3.86593 0
M  V30 7669 C 728.608 -5.14929 -3.75668 0
M  V30 7670 C 726.295 -4.54443 -4.08564 0
M  V30 7671 C 727.293 -5.51365 -4.03095 0
M  V30 7672 O 726.981 -6.8269 -4.24488 0
M  V30 7673 H 726.713 -0.333254 -0.588148 0
M  V30 7674 H 729.267 -1.5247 -1.3763 0
M  V30 7675 H 727.497 -0.717063 -3.79994 0
M  V30 7676 H 729.186 -1.12372 -3.90035 0
M  V30 7677 H 729.952 -3.53781 -3.31759 0
M  V30 7678 H 725.831 -2.45857 -3.89969 0
M  V30 7679 H 729.375 -5.90568 -3.71315 0
M  V30 7680 H 725.272 -4.81747 -4.29639 0
M  V30 7681 H 726.04 -6.8897 -4.41886 0
M  V30 7682 N 728.703 1.26451 -0.940633 0
M  V30 7683 C 729.931 1.97868 -0.604642 0
M  V30 7684 C 730.346 1.70051 0.820251 0
M  V30 7685 O 729.703 0.96843 1.54686 0
M  V30 7686 C 729.754 3.51684 -0.836689 0
M  V30 7687 O 729.475 3.78533 -2.20554 0
M  V30 7688 C 730.976 4.40343 -0.511169 0
M  V30 7689 H 728.196 0.631105 -0.227919 0
M  V30 7690 H 730.74 1.60979 -1.26119 0
M  V30 7691 H 728.895 3.86736 -0.226759 0
M  V30 7692 H 729.309 4.73065 -2.26517 0
M  V30 7693 H 730.783 5.47229 -0.724157 0
M  V30 7694 H 731.26 4.35694 0.553815 0
M  V30 7695 H 731.866 4.10834 -1.0998 0
M  V30 7696 N 730.181 0.707592 1.40822 0
M  V30 7697 C 731.111 0.0644925 2.33411 0
M  V30 7698 C 732.092 -0.754205 1.52466 0
M  V30 7699 O 733.277 -0.704749 1.80961 0
M  V30 7700 C 730.407 -0.863865 3.36385 0
M  V30 7701 C 729.361 -0.15138 4.27732 0
M  V30 7702 C 728.687 -1.19491 5.21177 0
M  V30 7703 C 729.987 0.989607 5.12839 0
M  V30 7704 H 731.681 0.837829 2.87438 0
M  V30 7705 H 729.227 0.404346 1.38207 0
M  V30 7706 H 731.18 -1.32309 4.0009 0
M  V30 7707 H 729.904 -1.66901 2.80734 0
M  V30 7708 H 728.563 0.287937 3.65467 0
M  V30 7709 H 728.211 -1.9929 4.61836 0
M  V30 7710 H 727.911 -0.723123 5.83134 0
M  V30 7711 H 729.435 -1.6544 5.8776 0
M  V30 7712 H 730.849 0.610114 5.70044 0
M  V30 7713 H 729.246 1.38926 5.83798 0
M  V30 7714 H 730.316 1.82389 4.49291 0
M  V30 7715 N 731.66 -1.50943 0.453197 0
M  V30 7716 C 732.623 -2.26684 -0.338705 0
M  V30 7717 C 733.623 -1.30748 -0.936032 0
M  V30 7718 O 734.813 -1.54327 -0.808002 0
M  V30 7719 C 731.945 -3.07063 -1.48071 0
M  V30 7720 H 733.138 -2.98131 0.325289 0
M  V30 7721 H 730.691 -1.54926 0.206771 0
M  V30 7722 H 731.426 -2.4007 -2.18029 0
M  V30 7723 H 731.211 -3.77545 -1.0584 0
M  V30 7724 H 732.701 -3.64393 -2.0398 0
M  V30 7725 N 733.138 -0.185124 -1.56509 0
M  V30 7726 C 734.387 0.456421 -1.96468 0
M  V30 7727 C 734.7 1.63448 -1.07444 0
M  V30 7728 O 735.906 2.34316 -1.37143 0
M  V30 7729 C 734.362 0.863404 -3.4939 0
M  V30 7730 C 733.97 -0.289815 -4.47062 0
M  V30 7731 C 735.714 1.47259 -3.98139 0
M  V30 7732 C 733.621 0.137571 -5.9124 0
M  V30 7733 H 732.551 0.17429 -0.733579 0
M  V30 7734 H 735.202 -0.275554 -1.81419 0
M  V30 7735 H 733.584 1.65176 -3.59907 0
M  V30 7736 H 734.758 -1.06728 -4.4827 0
M  V30 7737 H 733.073 -0.809851 -4.08449 0
M  V30 7738 H 735.67 1.80463 -5.03326 0
M  V30 7739 H 736.013 2.3755 -3.41871 0
M  V30 7740 H 736.546 0.748405 -3.90696 0
M  V30 7741 H 733.285 -0.730907 -6.51412 0
M  V30 7742 H 732.805 0.8801 -5.93308 0
M  V30 7743 H 734.484 0.576771 -6.44424 0
M  V30 7744 N 734.616 1.57351 0.0885366 0
M  V30 7745 C 735.893 1.77449 0.822873 0
M  V30 7746 C 736.273 0.768463 1.96616 0
M  V30 7747 O 735.621 -0.201757 2.27608 0
M  V30 7748 C 735.831 3.23425 1.31137 0
M  V30 7749 C 737.179 3.86791 1.75152 0
M  V30 7750 O 738.203 3.27215 1.40745 0
M  V30 7751 O 737.062 4.91568 2.38794 0
M  V30 7752 H 734.156 0.727653 0.393002 0
M  V30 7753 H 736.702 1.69556 0.0699095 0
M  V30 7754 H 735.474 3.88188 0.49254 0
M  V30 7755 H 735.097 3.35977 2.12615 0
M  V30 7756 N 736.094 -0.359525 1.53444 0
M  V30 7757 C 737.34 -1.10315 1.70172 0
M  V30 7758 C 737.673 -1.88788 0.455287 0
M  V30 7759 O 736.948 -1.86635 -0.547514 0
M  V30 7760 C 737.231 -2.05744 2.95536 0
M  V30 7761 C 737.084 -1.3084 4.3035 0
M  V30 7762 C 738.403 -3.05784 3.16518 0
M  V30 7763 H 735.522 -0.399662 0.619225 0
M  V30 7764 H 738.164 -0.383338 1.86093 0
M  V30 7765 H 736.314 -2.67125 2.82093 0
M  V30 7766 H 737.986 -0.721959 4.55615 0
M  V30 7767 H 736.229 -0.610283 4.29486 0
M  V30 7768 H 736.9 -2.00718 5.14214 0
M  V30 7769 H 739.376 -2.5451 3.29187 0
M  V30 7770 H 738.252 -3.69772 4.05659 0
M  V30 7771 H 738.513 -3.76289 2.32076 0
M  V30 7772 N 737.572 -1.44907 -0.619662 0
M  V30 7773 C 738.502 -1.55488 -1.742 0
M  V30 7774 C 739.483 -0.407143 -1.65156 0
M  V30 7775 O 740.668 -0.628743 -1.8374 0
M  V30 7776 C 737.798 -1.5097 -3.1277 0
M  V30 7777 C 736.752 -2.64337 -3.36615 0
M  V30 7778 C 736.078 -2.44872 -4.75333 0
M  V30 7779 C 737.378 -4.06423 -3.28051 0
M  V30 7780 H 739.072 -2.49432 -1.65602 0
M  V30 7781 H 736.618 -1.20047 -0.795281 0
M  V30 7782 H 738.571 -1.56971 -3.91073 0
M  V30 7783 H 737.295 -0.535486 -3.2218 0
M  V30 7784 H 735.954 -2.57744 -2.60698 0
M  V30 7785 H 735.602 -1.45617 -4.81461 0
M  V30 7786 H 735.302 -3.20888 -4.92244 0
M  V30 7787 H 736.826 -2.52709 -5.55851 0
M  V30 7788 H 738.24 -4.14324 -3.96243 0
M  V30 7789 H 736.637 -4.82733 -3.56495 0
M  V30 7790 H 737.707 -4.29183 -2.25676 0
M  V30 7791 N 739.05 0.861098 -1.31996 0
M  V30 7792 C 740.327 1.59788 -1.12814 0
M  V30 7793 C 740.707 2.08753 0.313882 0
M  V30 7794 O 740.055 1.87258 1.30946 0
M  V30 7795 C 740.265 2.74901 -2.15012 0
M  V30 7796 C 741.613 3.44643 -2.48004 0
M  V30 7797 O 742.637 2.85119 -2.13508 0
M  V30 7798 O 741.496 4.52044 -3.07113 0
M  V30 7799 H 738.59 0.703408 -0.434909 0
M  V30 7800 H 741.136 0.905788 -1.43505 0
M  V30 7801 H 739.908 2.36198 -3.11971 0
M  V30 7802 H 739.531 3.51792 -1.85279 0
M  V30 7803 N 740.528 1.15101 1.07655 0
M  V30 7804 C 741.753 0.948177 1.84457 0
M  V30 7805 C 742.178 -0.498432 1.81376 0
M  V30 7806 O 741.536 -1.35509 1.20445 0
M  V30 7807 C 741.584 1.46318 3.29581 0
M  V30 7808 O 740.688 0.660342 4.07079 0
M  V30 7809 H 740.029 0.338428 0.571281 0
M  V30 7810 H 742.559 1.5301 1.35828 0
M  V30 7811 H 742.569 1.47468 3.80417 0
M  V30 7812 H 741.244 2.51635 3.31138 0
M  V30 7813 H 739.821 0.718216 3.65918 0
M  V30 7814 N 742.006 -1.2595 0.947325 0
M  V30 7815 C 743.417 -1.75389 0.639963 0
M  V30 7816 C 743.768 -1.77081 -0.844788 0
M  V30 7817 O 742.893 -1.3869 -1.66114 0
M  V30 7818 C 743.488 -3.18506 1.15496 0
M  V30 7819 C 742.047 -3.65534 0.897894 0
M  V30 7820 C 741.194 -2.44818 1.30228 0
M  V30 7821 H 744.145 -1.1194 1.12495 0
M  V30 7822 H 744.166 -3.77045 0.511627 0
M  V30 7823 H 743.678 -3.17243 2.23559 0
M  V30 7824 H 741.779 -3.72221 -0.168096 0
M  V30 7825 H 741.892 -4.54039 1.52922 0
M  V30 7826 H 740.256 -2.44291 0.720678 0
M  V30 7827 H 741.039 -2.46251 2.39198 0
M  V30 7828 N 743.484 -0.715051 -1.40445 0
M  V30 7829 C 744.416 -0.0227516 -2.29189 0
M  V30 7830 C 745.429 0.724313 -1.458 0
M  V30 7831 O 746.618 0.571781 -1.69094 0
M  V30 7832 C 743.718 0.992038 -3.24055 0
M  V30 7833 C 742.891 0.310613 -4.36296 0
M  V30 7834 C 741.95 1.23071 -5.11605 0
M  V30 7835 O 740.976 0.71571 -5.64682 0
M  V30 7836 N 742.178 2.56188 -5.2091 0
M  V30 7837 H 744.943 -0.78473 -2.89244 0
M  V30 7838 H 742.504 -0.562637 -1.51809 0
M  V30 7839 H 744.496 1.60973 -3.71308 0
M  V30 7840 H 743.066 1.65538 -2.65171 0
M  V30 7841 H 742.286 -0.487269 -3.91177 0
M  V30 7842 H 743.574 -0.162415 -5.08541 0
M  V30 7843 H 742.972 3.00527 -4.7927 0
M  V30 7844 H 741.529 3.13103 -5.71673 0
M  V30 7845 N 744.962 1.50701 -0.461195 0
M  V30 7846 C 745.925 2.2686 0.326679 0
M  V30 7847 C 746.925 1.31243 0.929085 0
M  V30 7848 O 748.115 1.54754 0.799807 0
M  V30 7849 C 745.247 3.07844 1.46441 0
M  V30 7850 H 746.44 2.97954 -0.341095 0
M  V30 7851 H 743.993 1.54814 -0.214984 0
M  V30 7852 H 744.728 2.41223 2.16753 0
M  V30 7853 H 744.513 3.78101 1.03836 0
M  V30 7854 H 746.003 3.65469 2.02044 0
M  V30 7855 N 746.441 0.193421 1.56409 0
M  V30 7856 C 747.687 -0.446449 1.97825 0
M  V30 7857 C 748.02 -1.61386 1.08019 0
M  V30 7858 O 747.295 -1.94053 0.131839 0
M  V30 7859 C 747.578 -0.908199 3.48459 0
M  V30 7860 C 747.431 0.260914 4.49043 0
M  V30 7861 C 748.75 -1.77428 4.0275 0
M  V30 7862 H 745.869 -0.160807 0.719243 0
M  V30 7863 H 748.511 0.284006 1.87865 0
M  V30 7864 H 746.661 -1.53062 3.57077 0
M  V30 7865 H 748.333 0.898548 4.52464 0
M  V30 7866 H 746.576 0.912949 4.24085 0
M  V30 7867 H 747.247 -0.104657 5.51901 0
M  V30 7868 H 749.723 -1.24936 3.96901 0
M  V30 7869 H 748.599 -2.06633 5.08521 0
M  V30 7870 H 748.86 -2.72788 3.47907 0
M  V30 7871 N 747.919 -1.57396 -0.0801906 0
M  V30 7872 C 749.335 -1.53564 -0.434778 0
M  V30 7873 C 749.535 -0.912372 -1.79661 0
M  V30 7874 O 748.591 -0.511268 -2.4727 0
M  V30 7875 C 749.904 -2.98244 -0.383561 0
M  V30 7876 C 751.452 -3.09536 -0.46435 0
M  V30 7877 C 751.927 -4.55851 -0.443128 0
M  V30 7878 N 753.418 -4.60456 -0.503448 0
M  V30 7879 C 754.153 -5.71135 -0.509106 0
M  V30 7880 N 753.649 -6.91203 -0.47008 0
M  V30 7881 N 755.442 -5.59353 -0.555035 0
M  V30 7882 H 747.593 -1.96281 0.811635 0
M  V30 7883 H 749.856 -0.898041 0.303689 0
M  V30 7884 H 749.562 -3.47369 0.550236 0
M  V30 7885 H 749.436 -3.57705 -1.19694 0
M  V30 7886 H 751.823 -2.6039 -1.38857 0
M  V30 7887 H 751.904 -2.53 0.377445 0
M  V30 7888 H 751.548 -5.05653 0.477207 0
M  V30 7889 H 751.478 -5.10242 -1.30234 0
M  V30 7890 H 753.969 -3.74048 -0.538199 0
M  V30 7891 H 754.282 -7.7132 -0.478091 0
M  V30 7892 H 752.627 -6.93625 -0.436897 0
M  V30 7893 H 755.818 -4.64453 -0.583158 0
M  V30 7894 H 755.991 -6.4561 -0.555976 0
M  V30 7895 N 749.397 0.351382 -1.53633 0
M  V30 7896 C 750.813 0.693987 -1.43722 0
M  V30 7897 C 751.013 1.9274 -0.587669 0
M  V30 7898 O 750.069 2.52387 -0.0756082 0
M  V30 7899 C 751.382 0.893937 -2.87105 0
M  V30 7900 C 752.93 0.993051 -2.96829 0
M  V30 7901 C 753.405 1.22537 -4.41303 0
M  V30 7902 N 754.896 1.29275 -4.44795 0
M  V30 7903 C 755.631 1.48988 -5.53706 0
M  V30 7904 N 755.127 1.65924 -6.72637 0
M  V30 7905 N 756.92 1.51472 -5.41306 0
M  V30 7906 H 749.071 -0.459688 -2.07366 0
M  V30 7907 H 751.334 -0.143684 -0.937048 0
M  V30 7908 H 751.04 0.0592517 -3.5165 0
M  V30 7909 H 750.914 1.79795 -3.31592 0
M  V30 7910 H 753.301 1.81827 -2.32429 0
M  V30 7911 H 753.382 0.0661119 -2.55715 0
M  V30 7912 H 753.026 0.405117 -5.06282 0
M  V30 7913 H 752.956 2.16575 -4.80003 0
M  V30 7914 H 755.447 1.17743 -3.59089 0
M  V30 7915 H 755.76 1.80578 -7.51406 0
M  V30 7916 H 754.105 1.63075 -6.75597 0
M  V30 7917 H 757.296 1.37818 -4.47352 0
M  V30 7918 H 757.469 1.66493 -6.26246 0
M  V30 7919 N 750.875 1.45233 0.611969 0
M  V30 7920 C 752.1 1.52767 1.40274 0
M  V30 7921 C 752.525 0.159701 1.87421 0
M  V30 7922 O 751.883 -0.854837 1.59882 0
M  V30 7923 C 751.931 2.51286 2.58626 0
M  V30 7924 O 751.035 2.02764 3.59111 0
M  V30 7925 H 750.376 0.515141 0.418958 0
M  V30 7926 H 752.906 1.90547 0.745188 0
M  V30 7927 H 752.916 2.69949 3.05927 0
M  V30 7928 H 751.591 3.50641 2.23659 0
M  V30 7929 H 750.168 1.93957 3.18489 0
M  V30 7930 N 752.353 -0.854086 1.3245 0
M  V30 7931 C 753.283 -1.97827 1.24044 0
M  V30 7932 C 754.264 -1.69646 0.124166 0
M  V30 7933 O 755.449 -1.91687 0.31143 0
M  V30 7934 C 752.579 -3.33673 0.963324 0
M  V30 7935 C 751.533 -3.76207 2.04089 0
M  V30 7936 C 750.859 -5.0969 1.61618 0
M  V30 7937 C 752.159 -3.91612 3.45597 0
M  V30 7938 H 753.853 -2.05118 2.18099 0
M  V30 7939 H 751.399 -0.985489 1.04996 0
M  V30 7940 H 753.352 -4.11871 0.891061 0
M  V30 7941 H 752.076 -3.26597 -0.0128649 0
M  V30 7942 H 750.735 -3.0026 2.10332 0
M  V30 7943 H 750.383 -4.99072 0.627418 0
M  V30 7944 H 750.083 -5.3912 2.33717 0
M  V30 7945 H 751.607 -5.90381 1.55829 0
M  V30 7946 H 753.021 -4.60163 3.4194 0
M  V30 7947 H 751.418 -4.3246 4.16051 0
M  V30 7948 H 752.488 -2.9451 3.85217 0
M  V30 7949 N 753.831 -1.1567 -1.07043 0
M  V30 7950 C 754.741 -0.870435 -2.17855 0
M  V30 7951 C 755.757 0.154452 -1.73313 0
M  V30 7952 O 756.933 -0.0203759 -2.0139 0
M  V30 7953 C 753.998 -0.367219 -3.4475 0
M  V30 7954 C 753.059 -1.45639 -4.03841 0
M  V30 7955 C 752.292 -0.977092 -5.2468 0
M  V30 7956 O 752.515 0.176127 -5.70128 0
M  V30 7957 O 751.449 -1.76215 -5.75527 0
M  V30 7958 H 755.275 -1.79687 -2.44839 0
M  V30 7959 H 752.86 -0.936064 -1.1644 0
M  V30 7960 H 754.742 -0.0931947 -4.21297 0
M  V30 7961 H 753.417 0.53131 -3.1931 0
M  V30 7962 H 752.324 -1.78406 -3.28819 0
M  V30 7963 H 753.657 -2.32995 -4.3356 0
M  V30 7964 N 755.309 1.25446 -0.953992 0
M  V30 7965 C 756.557 1.92762 -0.607227 0
M  V30 7966 C 756.878 1.7509 0.858399 0
M  V30 7967 O 756.148 1.11416 1.61132 0
M  V30 7968 H 754.728 0.713377 -0.221591 0
M  V30 7969 H 757.39 1.52625 -1.21209 0
M  V30 7970 H 756.486 3.00695 -0.835998 0
M  V30 7971 N 756.787 0.722489 1.40064 0
M  V30 7972 C 758.033 0.265371 2.01056 0
M  V30 7973 C 758.366 -1.14062 1.57174 0
M  V30 7974 O 757.641 -1.77514 0.794916 0
M  V30 7975 C 757.924 0.353157 3.58364 0
M  V30 7976 C 757.777 1.79802 4.123 0
M  V30 7977 C 759.096 -0.271677 4.39261 0
M  V30 7978 H 756.215 0.0979002 0.730469 0
M  V30 7979 H 758.857 0.916289 1.66446 0
M  V30 7980 H 757.007 -0.201037 3.87979 0
M  V30 7981 H 758.679 2.40813 3.93455 0
M  V30 7982 H 756.922 2.32348 3.66329 0
M  V30 7983 H 757.593 1.81079 5.21454 0
M  V30 7984 H 760.069 0.200607 4.15616 0
M  V30 7985 H 758.945 -0.179843 5.48605 0
M  V30 7986 H 759.206 -1.35611 4.20787 0
M  V30 7987 N 758.265 -1.50454 0.469181 0
M  V30 7988 C 759.197 -2.26319 -0.362247 0
M  V30 7989 C 760.21 -1.31574 -0.958751 0
M  V30 7990 O 761.399 -1.57099 -0.847482 0
M  V30 7991 C 758.499 -3.02808 -1.52187 0
M  V30 7992 C 757.672 -4.24893 -1.03849 0
M  V30 7993 C 756.731 -4.83691 -2.07194 0
M  V30 7994 O 755.757 -5.44659 -1.65333 0
M  V30 7995 N 756.959 -4.70522 -3.39985 0
M  V30 7996 H 759.724 -2.98312 0.288124 0
M  V30 7997 H 757.285 -1.59099 0.299856 0
M  V30 7998 H 759.277 -3.39023 -2.21011 0
M  V30 7999 H 757.847 -2.33625 -2.07697 0
M  V30 8000 H 757.067 -3.93806 -0.176203 0
M  V30 8001 H 758.355 -5.04053 -0.693435 0
M  V30 8002 H 757.753 -4.2203 -3.76706 0
M  V30 8003 H 756.31 -5.11011 -4.04612 0
M  V30 8004 N 759.743 -0.201713 -1.56304 0
M  V30 8005 C 761.02 0.483273 -1.89536 0
M  V30 8006 C 761.4 1.79176 -1.11621 0
M  V30 8007 O 760.748 2.27445 -0.219339 0
M  V30 8008 C 760.958 0.695604 -3.41998 0
M  V30 8009 C 762.306 1.012 -4.12364 0
M  V30 8010 O 763.33 0.783094 -3.47485 0
M  V30 8011 O 762.189 1.44534 -5.27041 0
M  V30 8012 H 759.283 0.252801 -0.787414 0
M  V30 8013 H 761.829 -0.24242 -1.6796 0
M  V30 8014 H 760.601 -0.228165 -3.90634 0
M  V30 8015 H 760.224 1.47351 -3.69288 0
M  V30 8016 N 761.222 1.57436 0.0718424 0
M  V30 8017 C 762.132 2.07039 1.10326 0
M  V30 8018 C 763.148 0.999918 1.424 0
M  V30 8019 O 764.324 1.31462 1.52577 0
M  V30 8020 C 761.389 2.50439 2.39752 0
M  V30 8021 C 760.45 3.71784 2.14651 0
M  V30 8022 C 759.683 4.13104 3.37906 0
M  V30 8023 O 759.906 3.54298 4.47023 0
M  V30 8024 O 758.84 5.05894 3.26121 0
M  V30 8025 H 762.666 2.95239 0.711872 0
M  V30 8026 H 760.251 1.46638 0.28597 0
M  V30 8027 H 762.133 2.78876 3.15921 0
M  V30 8028 H 760.808 1.65368 2.78271 0
M  V30 8029 H 759.715 3.48431 1.36187 0
M  V30 8030 H 761.048 4.57707 1.81012 0
M  V30 8031 N 762.7 -0.34323 1.53817 0
M  V30 8032 C 763.63 -1.42709 1.84814 0
M  V30 8033 C 764.611 -1.5488 0.703297 0
M  V30 8034 O 765.796 -1.69082 0.955237 0
M  V30 8035 C 762.926 -2.79756 2.05801 0
M  V30 8036 C 761.88 -2.82392 3.21619 0
M  V30 8037 C 761.206 -4.22326 3.2794 0
M  V30 8038 C 762.506 -2.479 4.59721 0
M  V30 8039 H 764.2 -1.17018 2.75585 0
M  V30 8040 H 761.746 -0.561485 1.32602 0
M  V30 8041 H 763.699 -3.55627 2.26069 0
M  V30 8042 H 762.423 -3.06883 1.11761 0
M  V30 8043 H 761.082 -2.08974 3.01207 0
M  V30 8044 H 760.73 -4.46564 2.31494 0
M  V30 8045 H 760.43 -4.25001 4.05768 0
M  V30 8046 H 761.954 -5.00039 3.50419 0
M  V30 8047 H 763.368 -3.13484 4.80001 0
M  V30 8048 H 761.765 -2.61857 5.39954 0
M  V30 8049 H 762.835 -1.43087 4.63308 0
M  V30 8050 N 764.178 -1.45556 -0.604258 0
M  V30 8051 C 765.455 -1.40221 -1.36373 0
M  V30 8052 C 765.835 -0.0745195 -2.10968 0
M  V30 8053 O 765.183 0.943594 -2.08107 0
M  V30 8054 C 765.393 -2.61807 -2.30777 0
M  V30 8055 C 766.741 -3.07037 -2.93281 0
M  V30 8056 O 767.765 -2.62203 -2.41097 0
M  V30 8057 O 766.624 -3.8485 -3.88011 0
M  V30 8058 H 763.718 -0.556602 -0.611656 0
M  V30 8059 H 766.264 -1.57689 -0.627069 0
M  V30 8060 H 765.036 -3.50017 -1.74939 0
M  V30 8061 H 764.659 -2.46688 -3.11818 0
M  V30 8062 N 765.656 0.84705 -1.32902 0
M  V30 8063 C 766.884 1.63403 -1.26913 0
M  V30 8064 C 767.299 1.88108 0.161483 0
M  V30 8065 O 766.656 1.45546 1.10103 0
M  V30 8066 C 766.707 2.98896 -2.03331 0
M  V30 8067 O 766.428 2.75281 -3.40811 0
M  V30 8068 C 767.929 3.93335 -2.04457 0
M  V30 8069 H 765.149 0.508701 -0.437566 0
M  V30 8070 H 767.693 1.05567 -1.75145 0
M  V30 8071 H 765.848 3.53356 -1.58802 0
M  V30 8072 H 766.262 3.61504 -3.8002 0
M  V30 8073 H 767.736 4.85647 -2.62394 0
M  V30 8074 H 768.213 4.26885 -1.03274 0
M  V30 8075 H 768.819 3.44812 -2.48967 0
M  V30 8076 N 767.134 1.16236 1.06428 0
M  V30 8077 C 768.064 0.890807 2.1584 0
M  V30 8078 C 769.045 -0.162333 1.69324 0
M  V30 8079 O 770.23 -0.0147191 1.94194 0
M  V30 8080 C 767.36 0.389615 3.45108 0
M  V30 8081 C 766.314 1.38051 4.05125 0
M  V30 8082 C 765.64 0.737773 5.29586 0
M  V30 8083 C 766.94 2.74965 4.44062 0
M  V30 8084 H 768.634 1.80577 2.38814 0
M  V30 8085 H 766.18 0.869657 1.14774 0
M  V30 8086 H 768.133 0.187127 4.20984 0
M  V30 8087 H 766.857 -0.560851 3.21748 0
M  V30 8088 H 765.516 1.56952 3.31303 0
M  V30 8089 H 765.164 -0.219135 5.02522 0
M  V30 8090 H 764.864 1.39914 5.70699 0
M  V30 8091 H 766.388 0.545275 6.0816 0
M  V30 8092 H 767.802 2.59855 5.11027 0
M  V30 8093 H 766.199 3.37563 4.96156 0
M  V30 8094 H 767.269 3.30321 3.54987 0
M  V30 8095 N 768.612 -1.24939 0.960631 0
M  V30 8096 C 769.575 -2.239 0.49006 0
M  V30 8097 C 770.575 -1.55497 -0.409535 0
M  V30 8098 O 771.765 -1.72978 -0.205984 0
M  V30 8099 C 768.897 -3.39654 -0.291193 0
M  V30 8100 H 770.09 -2.67044 1.36482 0
M  V30 8101 H 767.643 -1.37429 0.744505 0
M  V30 8102 H 768.378 -3.01939 -1.18336 0
M  V30 8103 H 768.163 -3.90496 0.354276 0
M  V30 8104 H 769.653 -4.13125 -0.609693 0
M  V30 8105 N 770.09 -0.729906 -1.39679 0
M  V30 8106 C 771.04 -0.0627678 -2.27914 0
M  V30 8107 C 772.024 0.717867 -1.43998 0
M  V30 8108 O 773.216 0.587713 -1.66958 0
M  V30 8109 C 770.345 0.847564 -3.32673 0
M  V30 8110 C 769.431 0.0613515 -4.24056 0
M  V30 8111 N 769.822 -0.962863 -4.96551 0
M  V30 8112 C 768.12 0.291773 -4.45045 0
M  V30 8113 C 768.821 -1.43652 -5.63683 0
M  V30 8114 N 767.797 -0.756044 -5.38317 0
M  V30 8115 H 771.599 -0.847545 -2.81414 0
M  V30 8116 H 769.113 -0.563776 -1.523 0
M  V30 8117 H 771.11 1.34094 -3.94746 0
M  V30 8118 H 769.77 1.63156 -2.80732 0
M  V30 8119 H 770.781 -1.34409 -5.00154 0
M  V30 8120 H 767.458 1.05097 -4.04056 0
M  V30 8121 H 768.848 -2.28835 -6.31731 0
M  V30 8122 N 771.568 1.50203 -0.477153 0
M  V30 8123 C 772.531 2.27194 0.302599 0
M  V30 8124 C 773.531 1.32221 0.915112 0
M  V30 8125 O 774.721 1.55593 0.783348 0
M  V30 8126 C 771.853 3.0938 1.43167 0
M  V30 8127 H 773.046 2.97575 -0.372678 0
M  V30 8128 H 770.599 1.54578 -0.231392 0
M  V30 8129 H 771.334 2.43509 2.14182 0
M  V30 8130 H 771.119 3.79181 0.998197 0
M  V30 8131 H 772.609 3.67592 1.98157 0
M  V30 8132 N 773.046 0.209999 1.56195 0
M  V30 8133 C 773.976 -0.699746 2.22769 0
M  V30 8134 C 774.957 -1.20993 1.1956 0
M  V30 8135 O 776.142 -1.25605 1.48112 0
M  V30 8136 C 773.272 -1.91302 2.89863 0
M  V30 8137 C 772.226 -1.53715 3.99444 0
M  V30 8138 C 771.552 -2.82826 4.53777 0
M  V30 8139 C 772.852 -0.735836 5.17091 0
M  V30 8140 H 774.546 -0.144716 2.9905 0
M  V30 8141 H 772.092 -0.0681645 1.43839 0
M  V30 8142 H 774.045 -2.5548 3.35124 0
M  V30 8143 H 772.769 -2.49283 2.11011 0
M  V30 8144 H 771.428 -0.918892 3.54897 0
M  V30 8145 H 771.076 -3.38927 3.71669 0
M  V30 8146 H 770.776 -2.58415 5.27727 0
M  V30 8147 H 772.3 -3.47966 5.01749 0
M  V30 8148 H 773.714 -1.28105 5.58804 0
M  V30 8149 H 772.111 -0.589272 5.972 0
M  V30 8150 H 773.181 0.260004 4.84202 0
M  V30 8151 N 774.524 -1.57472 -0.0634922 0
M  V30 8152 C 775.749 -1.92273 -0.77756 0
M  V30 8153 C 776.174 -0.807141 -1.69902 0
M  V30 8154 O 775.532 0.239523 -1.79711 0
M  V30 8155 C 775.58 -3.26054 -1.54017 0
M  V30 8156 O 774.684 -3.15873 -2.65138 0
M  V30 8157 H 774.025 -0.629389 -0.211579 0
M  V30 8158 H 776.555 -2.04579 -0.0292523 0
M  V30 8159 H 776.565 -3.60127 -1.91763 0
M  V30 8160 H 775.24 -4.06824 -0.864128 0
M  V30 8161 H 773.817 -2.93373 -2.30189 0
M  V30 8162 N 776.003 0.335068 -1.53997 0
M  V30 8163 C 776.966 1.39481 -1.81872 0
M  V30 8164 C 777.966 1.4524 -0.690078 0
M  V30 8165 O 779.156 1.45467 -0.958377 0
M  V30 8166 C 776.288 2.78329 -1.9684 0
M  V30 8167 H 777.481 1.16024 -2.76547 0
M  V30 8168 H 775.034 0.569926 -1.45539 0
M  V30 8169 H 775.769 3.07058 -1.04337 0
M  V30 8170 H 775.554 2.75544 -2.78958 0
M  V30 8171 H 777.044 3.55016 -2.19894 0
M  V30 8172 N 777.481 1.45874 0.596531 0
M  V30 8173 C 778.73 1.49737 1.35135 0
M  V30 8174 C 779.043 0.147755 1.95041 0
M  V30 8175 O 780.249 0.0640984 2.71424 0
M  V30 8176 C 778.705 2.6378 2.44843 0
M  V30 8177 C 778.313 4.05102 1.91301 0
M  V30 8178 C 780.057 2.769 3.21755 0
M  V30 8179 C 777.964 5.10508 2.98557 0
M  V30 8180 H 776.894 0.557219 0.507959 0
M  V30 8181 H 779.545 1.72046 0.638147 0
M  V30 8182 H 777.927 2.34774 3.189 0
M  V30 8183 H 779.101 4.43836 1.2388 0
M  V30 8184 H 777.416 3.96528 1.271 0
M  V30 8185 H 780.013 3.52819 4.01775 0
M  V30 8186 H 780.356 1.83924 3.73467 0
M  V30 8187 H 780.889 3.05485 2.54802 0
M  V30 8188 H 777.628 6.0523 2.51749 0
M  V30 8189 H 777.148 4.76332 3.6451 0
M  V30 8190 H 778.827 5.35745 3.62748 0
M  V30 8191 N 778.959 -0.83999 1.33349 0
M  V30 8192 C 780.207 -1.59202 1.24496 0
M  V30 8193 C 780.528 -1.94077 -0.189499 0
M  V30 8194 O 779.798 -1.60868 -1.11796 0
M  V30 8195 H 778.378 -0.590276 0.457802 0
M  V30 8196 H 781.04 -1.00394 1.67054 0
M  V30 8197 H 780.136 -2.52247 1.83788 0
M  V30 8198 O 780.476 -1.28535 -0.977803 0
M  V30 8199 H 781.167 -1.08805 -1.60253 0
M  V30 END ATOM
M  V30 BEGIN BOND
M  V30 END BOND
M  V30 END CTAB
M  END
$$$$
