drugbank_target|O90777 HIV-1 protease (DB00220; DB15623)
 OpenBabel12092119363D

  0  0  0     0  0            999 V3000
M  V30 BEGIN CTAB
M  V30 COUNTS 1551 1564 0 0 0
M  V30 BEGIN ATOM
M  V30 1 H -0.908 1.98254 -0.117106 0
M  V30 2 N 0 1.576 0 0
M  V30 3 C 1.411 1.78635 0.542811 0
M  V30 4 C 1.762 0.907396 1.73956 0
M  V30 5 O 0.887 0.109876 2.16121 0
M  V30 6 C 1.482 3.23967 0.991508 0
M  V30 7 C 0.041 3.46098 1.47963 0
M  V30 8 C -0.812 2.73933 0.430836 0
M  V30 9 H 2.139 1.5708 -0.226168 0
M  V30 10 H 2.16 3.32079 1.85751 0
M  V30 11 H 1.672 3.87914 0.120292 0
M  V30 12 H -0.227 2.87366 2.37174 0
M  V30 13 H -0.114 4.54779 1.50709 0
M  V30 14 H -1.75 2.38552 0.892473 0
M  V30 15 H -0.967 3.40578 -0.431414 0
M  V30 16 N 1.4781 -0.272755 1.55222 0
M  V30 17 C 2.4101 -1.35946 1.8453 0
M  V30 18 C 3.4231 -1.45525 0.729818 0
M  V30 19 O 4.6121 -1.47337 1.00767 0
M  V30 20 C 1.7121 -2.74069 1.99347 0
M  V30 21 C 0.8851 -2.87079 3.30007 0
M  V30 22 C -0.0559 -4.05879 3.34886 0
M  V30 23 O -1.0299 -3.96626 4.08261 0
M  V30 24 N 0.1721 -5.17857 2.62307 0
M  V30 25 H 2.9371 -1.11149 2.78327 0
M  V30 26 H 0.4981 -0.462869 1.55142 0
M  V30 27 H 2.4901 -3.51838 1.99981 0
M  V30 28 H 1.0601 -2.91688 1.12415 0
M  V30 29 H 0.2801 -1.96193 3.41909 0
M  V30 30 H 1.5681 -2.92701 4.16177 0
M  V30 31 H 0.9661 -5.28261 2.02377 0
M  V30 32 H -0.4769 -5.93855 2.68663 0
M  V30 33 N 2.9562 -1.48159 -0.537278 0
M  V30 34 C 4.2022 -1.56035 -1.29541 0
M  V30 35 C 4.5352 -0.230377 -1.92829 0
M  V30 36 O 3.8102 0.762952 -1.78911 0
M  V30 37 C 4.0932 -2.69323 -2.39034 0
M  V30 38 C 3.9462 -4.12002 -1.80485 0
M  V30 39 C 5.2652 -2.78408 -3.40847 0
M  V30 40 H 2.3842 -0.567992 -0.469632 0
M  V30 41 H 5.0262 -1.80302 -0.599277 0
M  V30 42 H 3.1762 -2.48763 -2.98412 0
M  V30 43 H 4.8482 -4.43981 -1.25215 0
M  V30 44 H 3.0912 -4.19344 -1.11055 0
M  V30 45 H 3.7622 -4.87077 -2.59731 0
M  V30 46 H 6.2382 -2.97012 -2.91416 0
M  V30 47 H 5.1142 -3.59416 -4.14863 0
M  V30 48 H 5.3752 -1.86269 -4.00944 0
M  V30 49 N 4.4343 0.785586 -1.36625 0
M  V30 50 C 5.6623 1.57448 -1.3423 0
M  V30 51 C 6.0773 1.88649 0.0755653 0
M  V30 52 O 5.4343 1.50414 1.03354 0
M  V30 53 C 5.4853 2.89316 -2.16745 0
M  V30 54 O 5.2063 2.59459 -3.53005 0
M  V30 55 C 6.7073 3.83606 -2.22174 0
M  V30 56 H 3.9273 0.488226 -0.4603 0
M  V30 57 H 6.4713 0.974733 -1.79775 0
M  V30 58 H 4.6263 3.4575 -1.74745 0
M  V30 59 H 5.0403 3.43804 -3.96105 0
M  V30 60 H 6.5143 4.73181 -2.8426 0
M  V30 61 H 6.9913 4.21734 -1.22627 0
M  V30 62 H 7.5973 3.33104 -2.64427 0
M  V30 63 N 5.9124 1.20967 1.01018 0
M  V30 64 C 6.8424 0.988272 2.11555 0
M  V30 65 C 7.8234 -0.0849778 1.69888 0
M  V30 66 O 9.0084 0.0738202 1.9406 0
M  V30 67 C 6.1384 0.546528 3.42973 0
M  V30 68 C 5.0924 1.56375 3.9841 0
M  V30 69 C 4.4184 0.97842 5.25672 0
M  V30 70 C 5.7184 2.94922 4.31066 0
M  V30 71 H 7.4124 1.91276 2.30334 0
M  V30 72 H 4.9584 0.921073 1.1069 0
M  V30 73 H 6.9114 0.378839 4.19694 0
M  V30 74 H 5.6354 -0.413598 3.23971 0
M  V30 75 H 4.2944 1.71891 3.23804 0
M  V30 76 H 3.9424 0.0101688 5.02999 0
M  V30 77 H 3.6424 1.65784 5.63728 0
M  V30 78 H 5.1664 0.821939 6.05043 0
M  V30 79 H 6.5804 2.8288 4.9865 0
M  V30 80 H 4.9774 3.5983 4.80253 0
M  V30 81 H 6.0474 3.4616 3.39561 0
M  V30 82 N 7.3905 -1.2043 1.01659 0
M  V30 83 C 8.6365 -1.90356 0.716674 0
M  V30 84 C 8.9915 -1.77367 -0.745557 0
M  V30 85 O 8.2845 -1.1471 -1.53467 0
M  V30 86 C 8.4785 -3.40464 1.08714 0
M  V30 87 C 8.3075 -3.6806 2.58384 0
M  V30 88 C 7.0775 -3.86775 3.25167 0
M  V30 89 C 9.2755 -3.70623 3.56572 0
M  V30 90 N 7.2575 -4.01889 4.64067 0
M  V30 91 C 8.6285 -3.91161 4.81034 0
M  V30 92 C 10.6835 -3.53586 3.50544 0
M  V30 93 C 9.3865 -3.96428 6.00198 0
M  V30 94 C 11.4125 -3.60125 4.6911 0
M  V30 95 C 10.7745 -3.81135 5.92381 0
M  V30 96 H 6.8735 -0.716226 0.313918 0
M  V30 97 H 9.4575 -1.44815 1.30141 0
M  V30 98 H 7.6285 -3.84757 0.530745 0
M  V30 99 H 9.3605 -3.97863 0.740763 0
M  V30 100 H 6.1155 -3.85156 2.75594 0
M  V30 101 H 6.5395 -4.13323 5.36184 0
M  V30 102 H 11.1815 -3.36308 2.56235 0
M  V30 103 H 8.8995 -4.12502 6.94887 0
M  V30 104 H 12.4855 -3.4825 4.66062 0
M  V30 105 H 11.3655 -3.86054 6.82592 0
M  V30 106 N 8.8686 -0.792821 -1.36206 0
M  V30 107 C 9.8006 -0.151469 -2.28699 0
M  V30 108 C 10.8136 0.641262 -1.49638 0
M  V30 109 O 12.0026 0.475885 -1.72039 0
M  V30 110 C 9.1026 0.808424 -3.29117 0
M  V30 111 C 8.2756 0.0650202 -4.37352 0
M  V30 112 C 7.3346 0.941358 -5.17711 0
M  V30 113 O 6.3606 0.397352 -5.67811 0
M  V30 114 N 7.5626 2.2652 -5.3448 0
M  V30 115 H 10.3276 -0.945982 -2.84379 0
M  V30 116 H 7.8886 -0.647032 -1.48409 0
M  V30 117 H 9.8806 1.3986 -3.79765 0
M  V30 118 H 8.4506 1.5038 -2.74052 0
M  V30 119 H 7.6706 -0.706255 -3.87822 0
M  V30 120 H 8.9586 -0.447847 -5.06825 0
M  V30 121 H 8.3566 2.73128 -4.95396 0
M  V30 122 H 6.9136 2.80493 -5.88359 0
M  V30 123 N 10.3467 1.47872 -0.545128 0
M  V30 124 C 11.7627 1.5829 -0.204032 0
M  V30 125 C 11.9627 1.54529 1.29317 0
M  V30 126 O 11.0187 1.44232 2.07252 0
M  V30 127 C 12.3317 2.89304 -0.819987 0
M  V30 128 C 13.8797 3.02864 -0.790105 0
M  V30 129 C 14.3547 4.3656 -1.38491 0
M  V30 130 N 15.8457 4.43165 -1.34755 0
M  V30 131 C 16.5807 5.45153 -1.77753 0
M  V30 132 N 16.0767 6.54016 -2.2855 0
M  V30 133 N 17.8697 5.36125 -1.68897 0
M  V30 134 H 10.0207 1.4856 -1.51802 0
M  V30 135 H 12.2837 0.706305 -0.632327 0
M  V30 136 H 11.9897 2.97757 -1.87173 0
M  V30 137 H 11.8637 3.75957 -0.305915 0
M  V30 138 H 14.2507 2.94014 0.252913 0
M  V30 139 H 14.3317 2.17782 -1.34181 0
M  V30 140 H 13.9757 4.46164 -2.42693 0
M  V30 141 H 13.9057 5.20353 -0.808754 0
M  V30 142 H 16.3967 3.65083 -0.975855 0
M  V30 143 H 16.7097 7.27994 -2.59314 0
M  V30 144 H 15.0547 6.54938 -2.32553 0
M  V30 145 H 18.2457 4.49975 -1.28998 0
M  V30 146 H 18.4187 6.15472 -2.02726 0
M  V30 147 N 11.8248 0.280983 1.55075 0
M  V30 148 C 13.2358 -0.215629 1.85451 0
M  V30 149 C 13.5868 -1.54991 1.203 0
M  V30 150 O 12.7118 -2.10699 0.493435 0
M  V30 151 C 13.3068 -0.398026 3.36454 0
M  V30 152 C 11.8658 -0.838866 3.66933 0
M  V30 153 C 11.0128 0.064458 2.77225 0
M  V30 154 H 13.9638 0.502601 1.50531 0
M  V30 155 H 13.9848 -1.23569 3.59876 0
M  V30 156 H 13.4968 0.573241 3.83843 0
M  V30 157 H 11.5978 -1.8214 3.25048 0
M  V30 158 H 11.7108 -0.672123 4.74362 0
M  V30 159 H 10.0748 -0.452863 2.50642 0
M  V30 160 H 10.8578 1.03172 3.2743 0
M  V30 161 N 13.3029 -1.57598 0.00835791 0
M  V30 162 C 14.5519 -1.90107 -0.673968 0
M  V30 163 C 14.8649 -0.884275 -1.7447 0
M  V30 164 O 16.0709 -1.09987 -2.48224 0
M  V30 165 C 14.5269 -3.37497 -1.24995 0
M  V30 166 C 14.1349 -4.47491 -0.2136 0
M  V30 167 C 15.8789 -3.79104 -1.90999 0
M  V30 168 C 13.7859 -5.85963 -0.80005 0
M  V30 169 H 12.7159 -0.709393 -0.255495 0
M  V30 170 H 15.3669 -1.83365 0.0702693 0
M  V30 171 H 13.7489 -3.39102 -2.04513 0
M  V30 172 H 14.9229 -4.57414 0.557596 0
M  V30 173 H 13.2379 -4.14956 0.346474 0
M  V30 174 H 15.8349 -4.79901 -2.35795 0
M  V30 175 H 16.1779 -3.1306 -2.74407 0
M  V30 176 H 16.7109 -3.79833 -1.18203 0
M  V30 177 H 13.4499 -6.555 -0.00456708 0
M  V30 178 H 12.9699 -5.79687 -1.54021 0
M  V30 179 H 14.6489 -6.33884 -1.29615 0
M  V30 180 N 14.781 0.264519 -1.55364 0
M  V30 181 C 16.027 0.99646 -1.76631 0
M  V30 182 C 16.36 1.85632 -0.570478 0
M  V30 183 O 15.635 1.89647 0.43175 0
M  V30 184 C 15.918 1.87187 -3.07625 0
M  V30 185 C 15.771 1.04138 -4.37579 0
M  V30 186 C 17.09 2.85749 -3.34717 0
M  V30 187 H 14.209 0.360841 -0.642622 0
M  V30 188 H 16.851 0.268218 -1.88097 0
M  V30 189 H 15.001 2.49279 -2.9798 0
M  V30 190 H 16.673 0.440517 -4.59192 0
M  V30 191 H 14.916 0.345115 -4.32425 0
M  V30 192 H 15.587 1.68729 -5.2558 0
M  V30 193 H 18.063 2.33793 -3.4421 0
M  V30 194 H 16.939 3.44136 -4.27623 0
M  V30 195 H 17.2 3.61311 -2.54768 0
M  V30 196 N 16.2591 1.48442 0.529413 0
M  V30 197 C 17.4871 1.60151 1.30994 0
M  V30 198 C 17.9021 0.261985 1.86973 0
M  V30 199 O 17.2591 -0.748805 1.66431 0
M  V30 200 C 17.3101 2.64854 2.46038 0
M  V30 201 O 17.0311 3.93608 1.92365 0
M  V30 202 C 18.5321 2.87007 3.37849 0
M  V30 203 H 15.7521 0.539971 0.398338 0
M  V30 204 H 18.2961 1.94273 0.638597 0
M  V30 205 H 16.4511 2.33589 3.09055 0
M  V30 206 H 16.8651 4.51055 2.67675 0
M  V30 207 H 18.3391 3.64068 4.14919 0
M  V30 208 H 18.8161 1.95852 3.93114 0
M  V30 209 H 19.4221 3.19579 2.80623 0
M  V30 210 N 17.7372 -0.778329 1.37039 0
M  V30 211 C 18.9862 -1.53189 1.3121 0
M  V30 212 C 19.2992 -1.95328 -0.103095 0
M  V30 213 O 20.5052 -2.70012 -0.283826 0
M  V30 214 C 18.9612 -2.76591 2.30272 0
M  V30 215 C 18.5692 -2.41577 3.77286 0
M  V30 216 C 20.3132 -3.5455 2.33441 0
M  V30 217 C 18.2202 -3.61441 4.68096 0
M  V30 218 H 17.1502 -0.5751 0.487622 0
M  V30 219 H 19.8012 -0.853101 1.62464 0
M  V30 220 H 18.1832 -3.46326 1.92027 0
M  V30 221 H 19.3572 -1.79668 4.2433 0
M  V30 222 H 17.6722 -1.76806 3.76999 0
M  V30 223 H 20.2692 -4.43628 2.98493 0
M  V30 224 H 20.6122 -3.93936 1.34611 0
M  V30 225 H 21.1452 -2.91805 2.7036 0
M  V30 226 H 17.8842 -3.27142 5.6803 0
M  V30 227 H 17.4042 -4.22478 4.25761 0
M  V30 228 H 19.0832 -4.28335 4.8491 0
M  V30 229 N 19.2153 -1.21501 -1.00376 0
M  V30 230 C 20.1623 -0.975387 -2.09177 0
M  V30 231 C 21.1323 0.0990615 -1.65804 0
M  V30 232 O 22.3173 -0.0483147 -1.90739 0
M  V30 233 C 19.4573 -0.547507 -3.40729 0
M  V30 234 C 18.5703 -1.69153 -3.97506 0
M  V30 235 C 17.7053 -1.2127 -5.17172 0
M  V30 236 C 16.7443 -2.32897 -5.66061 0
M  V30 237 N 15.8813 -1.86138 -6.76976 0
M  V30 238 H 20.7213 -1.9068 -2.29009 0
M  V30 239 H 18.2583 -0.950257 -1.12288 0
M  V30 240 H 20.2163 -0.280667 -4.16255 0
M  V30 241 H 18.8463 0.346904 -3.20931 0
M  V30 242 H 17.8983 -2.07298 -3.18954 0
M  V30 243 H 19.2103 -2.5316 -4.29781 0
M  V30 244 H 18.3643 -0.902591 -5.99948 0
M  V30 245 H 17.1033 -0.342692 -4.86495 0
M  V30 246 H 16.1083 -2.64709 -4.81881 0
M  V30 247 H 17.3333 -3.20396 -5.98768 0
M  V30 248 H 15.2793 -1.01484 -6.48103 0
M  V30 249 H 15.1963 -2.63717 -7.08512 0
M  V30 250 H 16.4643 -1.58165 -7.63285 0
M  V30 251 N 20.6934 1.19889 -1.02296 0
M  V30 252 C 21.9424 1.88743 -0.711257 0
M  V30 253 C 22.2554 1.80112 0.762817 0
M  V30 254 O 23.4614 2.44161 1.18733 0
M  V30 255 C 21.9174 3.38525 -1.22185 0
M  V30 256 C 21.5254 3.55727 -2.72328 0
M  V30 257 C 23.2694 4.12893 -0.985864 0
M  V30 258 C 21.1764 4.99369 -3.16835 0
M  V30 259 H 20.1064 0.706885 -0.262353 0
M  V30 260 H 22.7574 1.35586 -1.23648 0
M  V30 261 H 21.1394 3.91044 -0.624571 0
M  V30 262 H 22.3134 3.13564 -3.3766 0
M  V30 263 H 20.6284 2.94739 -2.9414 0
M  V30 264 H 23.2254 5.18813 -1.29374 0
M  V30 265 H 23.5684 4.16228 0.0775055 0
M  V30 266 H 24.1014 3.66494 -1.54684 0
M  V30 267 H 20.8404 5.01193 -4.22476 0
M  V30 268 H 20.3604 5.42317 -2.56228 0
M  V30 269 H 22.0394 5.67988 -3.09837 0
M  V30 270 N 22.1715 0.800033 1.35784 0
M  V30 271 C 23.4195 0.376597 1.9856 0
M  V30 272 C 23.7405 -1.05812 1.63795 0
M  V30 273 O 23.0105 -1.73103 0.917171 0
M  V30 274 H 21.5905 0.136261 0.734467 0
M  V30 275 H 24.2525 1.02442 1.65806 0
M  V30 276 H 23.3485 0.477002 3.08433 0
M  V30 277 N 23.6496 -1.47581 0.552962 0
M  V30 278 C 24.8976 -2.02082 0.0272703 0
M  V30 279 C 25.2186 -1.4301 -1.32563 0
M  V30 280 O 24.4886 -0.603745 -1.86365 0
M  V30 281 H 23.0686 -0.746966 0.00709182 0
M  V30 282 H 25.7306 -1.81033 0.722008 0
M  V30 283 H 24.8266 -3.12034 -0.0639951 0
M  V30 284 N 25.1277 -0.289203 -1.54924 0
M  V30 285 C 26.0597 0.625583 -2.20497 0
M  V30 286 C 27.0727 1.10667 -1.19402 0
M  V30 287 O 28.2617 1.02615 -1.46056 0
M  V30 288 C 25.3617 1.86702 -2.82835 0
M  V30 289 C 24.5347 1.5304 -4.09753 0
M  V30 290 C 23.5937 2.62576 -4.56005 0
M  V30 291 O 22.6197 2.28167 -5.21468 0
M  V30 292 N 23.8217 3.92901 -4.27328 0
M  V30 293 H 26.5867 0.0642801 -2.99631 0
M  V30 294 H 24.1477 -0.110896 -1.6152 0
M  V30 295 H 26.1397 2.59304 -3.10715 0
M  V30 296 H 24.7097 2.33702 -2.07611 0
M  V30 297 H 23.9297 0.637564 -3.8901 0
M  V30 298 H 25.2177 1.28072 -4.92418 0
M  V30 299 H 24.6157 4.23671 -3.74859 0
M  V30 300 H 23.1727 4.61837 -4.59946 0
M  V30 301 N 26.6058 1.57591 -0.0167156 0
M  V30 302 C 27.5358 2.12496 0.967858 0
M  V30 303 C 28.5168 1.03807 1.34752 0
M  V30 304 O 29.7018 1.31577 1.42833 0
M  V30 305 C 26.8318 2.64194 2.25431 0
M  V30 306 C 25.7858 3.77559 2.01576 0
M  V30 307 C 25.1118 4.15636 3.36379 0
M  V30 308 C 26.4118 5.04151 1.36489 0
M  V30 309 H 28.1058 2.95013 0.510643 0
M  V30 310 H 25.6518 1.41915 0.244181 0
M  V30 311 H 27.6048 3.01236 2.94678 0
M  V30 312 H 26.3288 1.78821 2.73296 0
M  V30 313 H 24.9878 3.40937 1.34751 0
M  V30 314 H 24.6358 3.27263 3.81979 0
M  V30 315 H 24.3358 4.92022 3.21229 0
M  V30 316 H 25.8598 4.5525 4.06915 0
M  V30 317 H 27.2738 5.38857 1.95718 0
M  V30 318 H 25.6708 5.85453 1.31776 0
M  V30 319 H 26.7408 4.83733 0.336219 0
M  V30 320 N 28.0839 -0.256276 1.55502 0
M  V30 321 C 29.0309 -1.31714 1.89526 0
M  V30 322 C 30.0009 -1.4828 0.748479 0
M  V30 323 O 31.1859 -1.62416 1.00128 0
M  V30 324 C 28.3259 -2.66933 2.18725 0
M  V30 325 C 27.4389 -2.58452 3.4616 0
M  V30 326 C 26.5739 -3.85961 3.64976 0
M  V30 327 C 25.6129 -3.72059 4.86044 0
M  V30 328 N 24.7499 -4.9144 5.01429 0
M  V30 329 H 29.5899 -1.01998 2.80001 0
M  V30 330 H 27.1269 -0.492413 1.38613 0
M  V30 331 H 29.0849 -3.4563 2.33657 0
M  V30 332 H 27.7149 -2.94816 1.31466 0
M  V30 333 H 26.7669 -1.71374 3.3961 0
M  V30 334 H 28.0789 -2.44085 4.34999 0
M  V30 335 H 27.2329 -4.73101 3.79816 0
M  V30 336 H 25.9719 -4.03215 2.74353 0
M  V30 337 H 24.9769 -2.83302 4.7119 0
M  V30 338 H 26.2019 -3.56309 5.78118 0
M  V30 339 H 24.1479 -5.09072 4.13741 0
M  V30 340 H 24.0649 -4.79668 5.84341 0
M  V30 341 H 25.3329 -5.80104 5.20672 0
M  V30 342 N 29.562 -1.4872 -0.521534 0
M  V30 343 C 30.472 -1.66569 -1.65203 0
M  V30 344 C 31.488 -0.548197 -1.65139 0
M  V30 345 O 32.664 -0.820339 -1.83936 0
M  V30 346 C 29.729 -1.70917 -3.01642 0
M  V30 347 C 28.79 -2.94356 -3.12495 0
M  V30 348 C 28.023 -2.98487 -4.42426 0
M  V30 349 O 28.246 -2.10786 -5.30024 0
M  V30 350 O 27.18 -3.90746 -4.57822 0
M  V30 351 H 31.006 -2.62298 -1.5308 0
M  V30 352 H 28.591 -1.3222 -0.695565 0
M  V30 353 H 30.473 -1.7625 -3.82771 0
M  V30 354 H 29.148 -0.783633 -3.14071 0
M  V30 355 H 28.055 -2.94552 -2.3063 0
M  V30 356 H 29.388 -3.86322 -3.04986 0
M  V30 357 N 31.0401 0.771051 -1.3745 0
M  V30 358 C 32.0031 1.86598 -1.33093 0
M  V30 359 C 33.0031 1.59076 -0.234845 0
M  V30 360 O 34.1931 1.67145 -0.490732 0
M  V30 361 C 31.3251 3.23747 -1.06773 0
M  V30 362 H 32.5181 1.91873 -2.30488 0
M  V30 363 H 30.0711 0.970876 -1.2249 0
M  V30 364 H 30.8061 3.24148 -0.099129 0
M  V30 365 H 30.5911 3.45115 -1.86112 0
M  V30 366 H 32.0811 4.03824 -1.06377 0
M  V30 367 N 32.5182 1.22032 0.997298 0
M  V30 368 C 33.4482 1.01065 2.10495 0
M  V30 369 C 34.4292 -0.0669542 1.69968 0
M  V30 370 O 35.6142 0.0943987 1.9397 0
M  V30 371 C 32.7442 0.582874 3.42374 0
M  V30 372 C 31.6982 1.60592 3.96729 0
M  V30 373 C 31.0242 1.03412 5.24605 0
M  V30 374 C 32.3242 2.99478 4.27914 0
M  V30 375 H 34.0182 1.93708 2.28292 0
M  V30 376 H 31.5642 0.932761 1.09707 0
M  V30 377 H 33.5172 0.423332 4.19268 0
M  V30 378 H 32.2412 -0.379213 3.24391 0
M  V30 379 H 30.9002 1.75316 3.21963 0
M  V30 380 H 30.5482 0.063518 5.0296 0
M  V30 381 H 30.2482 1.71754 5.61938 0
M  V30 382 H 31.7722 0.886066 6.04137 0
M  V30 383 H 33.1862 2.88153 4.95622 0
M  V30 384 H 31.5832 3.64903 4.76409 0
M  V30 385 H 32.6532 3.49742 3.3587 0
M  V30 386 N 33.9963 -1.19345 1.0293 0
M  V30 387 C 34.9263 -2.2481 0.631105 0
M  V30 388 C 35.9073 -1.66245 -0.360104 0
M  V30 389 O 37.0923 -1.92677 -0.242726 0
M  V30 390 C 34.2223 -3.47295 -0.0184607 0
M  V30 391 C 33.1763 -4.18536 0.895073 0
M  V30 392 C 32.5023 -5.34586 0.110592 0
M  V30 393 C 33.8023 -4.73287 2.209 0
M  V30 394 H 35.4963 -2.58372 1.51275 0
M  V30 395 H 33.0423 -1.24194 0.728818 0
M  V30 396 H 34.9953 -4.20268 -0.308675 0
M  V30 397 H 33.7193 -3.12933 -0.934907 0
M  V30 398 H 32.3783 -3.47446 1.16949 0
M  V30 399 H 32.0263 -4.96469 -0.807902 0
M  V30 400 H 31.7263 -5.83183 0.719087 0
M  V30 401 H 33.2503 -6.10355 -0.172871 0
M  V30 402 H 34.6643 -5.38013 1.98028 0
M  V30 403 H 33.0613 -5.32373 2.76946 0
M  V30 404 H 34.1313 -3.91331 2.86336 0
M  V30 405 N 35.4744 -0.807222 -1.35358 0
M  V30 406 C 36.7514 -0.311126 -1.9311 0
M  V30 407 C 37.1314 1.19937 -1.73719 0
M  V30 408 O 36.4794 1.99918 -1.10657 0
M  V30 409 C 36.6894 -0.723226 -3.41424 0
M  V30 410 C 38.0374 -0.713078 -4.18569 0
M  V30 411 O 39.0614 -0.664811 -3.49941 0
M  V30 412 O 37.9204 -0.772022 -5.41019 0
M  V30 413 H 35.0144 -0.081526 -0.822972 0
M  V30 414 H 37.5604 -0.890962 -1.4443 0
M  V30 415 H 36.3324 -1.76426 -3.4927 0
M  V30 416 H 35.9554 -0.118232 -3.97424 0
M  V30 417 N 36.9525 1.47285 -0.560781 0
M  V30 418 C 38.1805 2.06855 -0.0430262 0
M  V30 419 C 38.5955 1.41291 1.25229 0
M  V30 420 O 37.9525 0.510648 1.7521 0
M  V30 421 C 38.0035 3.61178 0.152518 0
M  V30 422 O 37.7245 4.24285 -1.0915 0
M  V30 423 C 39.2255 4.37624 0.707145 0
M  V30 424 H 36.4455 0.669319 -0.0474652 0
M  V30 425 H 38.9895 1.89237 -0.77521 0
M  V30 426 H 37.1445 3.78298 0.834843 0
M  V30 427 H 37.5585 5.16868 -0.891482 0
M  V30 428 H 39.0325 5.46271 0.793244 0
M  V30 429 H 39.5095 4.04152 1.71923 0
M  V30 430 H 40.1155 4.25257 0.0604027 0
M  V30 431 N 38.4306 0.297415 1.54768 0
M  V30 432 C 39.6786 -0.312295 1.99673 0
M  V30 433 C 39.9996 -1.54686 1.18732 0
M  V30 434 O 39.2696 -1.93854 0.282382 0
M  V30 435 H 37.8496 -0.118381 0.73756 0
M  V30 436 H 40.5116 0.407915 1.90583 0
M  V30 437 H 39.6076 -0.586813 3.06534 0
M  V30 438 N 39.9087 -1.5758 0.0250728 0
M  V30 439 C 40.8717 -2.08896 -0.943139 0
M  V30 440 C 41.8717 -1.00321 -1.25668 0
M  V30 441 O 43.0617 -1.26495 -1.19769 0
M  V30 442 C 40.1937 -2.55143 -2.26086 0
M  V30 443 H 41.3867 -2.95723 -0.498775 0
M  V30 444 H 38.9397 -1.54703 -0.222888 0
M  V30 445 H 39.6747 -1.71633 -2.75159 0
M  V30 446 H 39.4597 -3.34461 -2.04641 0
M  V30 447 H 40.9497 -2.95083 -2.95492 0
M  V30 448 N 41.3868 0.248026 -1.55636 0
M  V30 449 C 42.6638 0.998988 -1.68165 0
M  V30 450 C 43.0438 2.03409 -0.564621 0
M  V30 451 O 42.3918 2.24378 0.432076 0
M  V30 452 C 42.6018 1.63334 -3.0842 0
M  V30 453 C 43.9498 2.13562 -3.66983 0
M  V30 454 O 44.9738 1.73277 -3.11213 0
M  V30 455 O 43.8328 2.87526 -4.64749 0
M  V30 456 H 40.9268 0.464933 -0.683935 0
M  V30 457 H 43.4728 0.241902 -1.67967 0
M  V30 458 H 42.2448 0.884583 -3.8117 0
M  V30 459 H 41.8678 2.45666 -3.12624 0
M  V30 460 N 42.8649 1.48995 0.513639 0
M  V30 461 C 44.1419 1.48338 1.27495 0
M  V30 462 C 44.5219 0.204065 2.10111 0
M  V30 463 O 43.8699 -0.813881 2.13514 0
M  V30 464 C 44.0799 2.75498 2.14247 0
M  V30 465 C 45.4279 3.24484 2.73852 0
M  V30 466 O 46.4519 2.76528 2.24523 0
M  V30 467 O 45.3109 4.07974 3.6362 0
M  V30 468 H 42.4049 0.593149 0.576284 0
M  V30 469 H 44.9509 1.61246 0.528948 0
M  V30 470 H 43.7229 3.60109 1.53092 0
M  V30 471 H 43.3459 2.6539 2.96064 0
M  V30 472 N 44.343 -0.763751 1.37857 0
M  V30 473 C 45.571 -1.55293 1.36718 0
M  V30 474 C 45.986 -1.88745 -0.0455434 0
M  V30 475 O 45.343 -1.52039 -1.00947 0
M  V30 476 C 45.394 -2.85831 2.2132 0
M  V30 477 O 45.115 -2.5381 3.57089 0
M  V30 478 C 46.616 -3.80023 2.28249 0
M  V30 479 H 43.836 -0.480841 0.468009 0
M  V30 480 H 46.38 -0.946009 1.81303 0
M  V30 481 H 44.535 -3.42926 1.80223 0
M  V30 482 H 44.949 -3.37459 4.01524 0
M  V30 483 H 46.423 -4.68599 2.91752 0
M  V30 484 H 46.9 -4.1973 1.2932 0
M  V30 485 H 47.506 -3.28855 2.69693 0
M  V30 486 N 45.8211 -1.22559 -0.990812 0
M  V30 487 C 47.0671 -1.05297 -1.73322 0
M  V30 488 C 47.4001 0.410655 -1.89808 0
M  V30 489 O 46.6751 1.30439 -1.44277 0
M  V30 490 C 46.9581 -1.76713 -3.13759 0
M  V30 491 C 46.8111 -3.30684 -3.04907 0
M  V30 492 C 48.1301 -1.52121 -4.12974 0
M  V30 493 H 45.2491 -0.38392 -0.629106 0
M  V30 494 H 47.8911 -1.50926 -1.15418 0
M  V30 495 H 46.0411 -1.37924 -3.63193 0
M  V30 496 H 47.7131 -3.7893 -2.63077 0
M  V30 497 H 45.9561 -3.60253 -2.41661 0
M  V30 498 H 46.6271 -3.75833 -4.04294 0
M  V30 499 H 49.1031 -1.85819 -3.72304 0
M  V30 500 H 47.9791 -2.04582 -5.0935 0
M  V30 501 H 48.2401 -0.454257 -4.3976 0
M  V30 502 N 47.2992 1.18797 -1.03562 0
M  V30 503 C 48.2292 2.24472 -0.643019 0
M  V30 504 C 49.2102 1.66433 0.351283 0
M  V30 505 O 50.3952 1.92803 0.232505 0
M  V30 506 C 47.5252 3.473 4.24935e-05 0
M  V30 507 C 46.4792 4.18055 -0.917257 0
M  V30 508 C 45.8052 5.34519 -0.138941 0
M  V30 509 C 47.1052 4.72109 -2.23407 0
M  V30 510 H 48.7992 2.57566 -1.52643 0
M  V30 511 H 46.3452 1.23806 -0.735394 0
M  V30 512 H 48.2982 4.20426 0.286383 0
M  V30 513 H 47.0222 3.13424 0.918299 0
M  V30 514 H 45.6812 3.46821 -1.1879 0
M  V30 515 H 45.3292 4.96891 0.781562 0
M  V30 516 H 45.0292 5.82794 -0.750005 0
M  V30 517 H 46.5532 6.10438 0.1405 0
M  V30 518 H 47.9672 5.36955 -2.00879 0
M  V30 519 H 46.3642 5.30897 -2.79765 0
M  V30 520 H 47.4342 3.89807 -2.88407 0
M  V30 521 N 48.7773 0.814389 1.34928 0
M  V30 522 C 49.6873 0.231978 2.3345 0
M  V30 523 C 50.7033 -0.629139 1.62228 0
M  V30 524 O 51.8793 -0.539052 1.94052 0
M  V30 525 C 48.9443 -0.603482 3.41407 0
M  V30 526 C 48.0053 0.279037 4.28392 0
M  V30 527 C 47.2383 -0.516643 5.31193 0
M  V30 528 O 47.4613 -1.75068 5.4287 0
M  V30 529 O 46.3953 0.0965652 6.01823 0
M  V30 530 H 50.2213 1.04721 2.85074 0
M  V30 531 H 47.8063 0.576343 1.37836 0
M  V30 532 H 49.6883 -1.07908 4.0735 0
M  V30 533 H 48.3633 -1.39618 2.92042 0
M  V30 534 H 47.2703 0.801948 3.65403 0
M  V30 535 H 48.6033 1.03588 4.81176 0
M  V30 536 N 50.2554 -1.46986 0.568584 0
M  V30 537 C 51.1654 -2.33942 -0.17555 0
M  V30 538 C 52.1814 -1.48891 -0.90041 0
M  V30 539 O 53.3574 -1.81794 -0.86676 0
M  V30 540 C 50.4224 -3.25811 -1.18524 0
M  V30 541 C 49.4834 -4.26757 -0.466582 0
M  V30 542 C 48.7164 -5.14236 -1.42817 0
M  V30 543 O 48.9394 -5.04379 -2.66379 0
M  V30 544 O 47.8734 -5.94412 -0.946453 0
M  V30 545 H 51.6994 -2.98896 0.538036 0
M  V30 546 H 49.2844 -1.4573 0.329097 0
M  V30 547 H 51.1664 -3.82527 -1.76779 0
M  V30 548 H 49.8414 -2.63471 -1.88055 0
M  V30 549 H 48.7484 -3.73769 0.157451 0
M  V30 550 H 50.0814 -4.91843 0.187485 0
M  V30 551 N 51.7335 -0.305618 -1.54608 0
M  V30 552 C 52.6665 0.610536 -2.19881 0
M  V30 553 C 53.6445 1.1294 -1.16976 0
M  V30 554 O 54.8285 1.19673 -1.45638 0
M  V30 555 C 51.9555 1.83583 -2.84631 0
M  V30 556 C 51.0015 1.4498 -4.01102 0
M  V30 557 S 51.8345 0.501793 -5.33144 0
M  V30 558 C 52.9905 1.73478 -6.01379 0
M  V30 559 H 53.2235 0.0560177 -2.97247 0
M  V30 560 H 50.7565 -0.0897434 -1.54139 0
M  V30 561 H 52.7145 2.53898 -3.22562 0
M  V30 562 H 51.3755 2.36152 -2.07102 0
M  V30 563 H 50.5685 2.36236 -4.45206 0
M  V30 564 H 50.1705 0.826553 -3.64752 0
M  V30 565 H 52.4625 2.67473 -6.22467 0
M  V30 566 H 53.4055 1.33622 -6.95378 0
M  V30 567 H 53.8135 1.9136 -5.31076 0
M  V30 568 N 53.2116 1.57565 -0.0334293 0
M  V30 569 C 54.4366 1.96689 0.657895 0
M  V30 570 C 54.8616 0.910057 1.64619 0
M  V30 571 O 54.2196 -0.128598 1.80843 0
M  V30 572 C 54.2676 3.34905 1.33683 0
M  V30 573 O 53.3716 3.31574 2.45219 0
M  V30 574 H 52.7126 0.641205 0.172489 0
M  V30 575 H 55.2426 2.04372 -0.0965621 0
M  V30 576 H 55.2526 3.71234 1.69262 0
M  V30 577 H 53.9276 4.11366 0.612411 0
M  V30 578 H 52.5046 3.06968 2.11719 0
M  V30 579 N 54.6897 -0.239769 1.55765 0
M  V30 580 C 55.6197 -1.30052 1.9393 0
M  V30 581 C 56.6007 -1.49839 0.805132 0
M  V30 582 O 57.7857 -1.62328 1.06599 0
M  V30 583 C 54.9157 -2.65391 2.2402 0
M  V30 584 C 53.8697 -2.60289 3.39755 0
M  V30 585 C 53.1957 -3.99489 3.55405 0
M  V30 586 C 54.4957 -2.16654 4.75246 0
M  V30 587 H 56.1897 -0.983573 2.82783 0
M  V30 588 H 53.7357 -0.471701 1.36055 0
M  V30 589 H 55.6887 -3.3974 2.49308 0
M  V30 590 H 54.4127 -2.98736 1.32 0
M  V30 591 H 53.0717 -1.88398 3.14487 0
M  V30 592 H 52.7197 -4.30112 2.60793 0
M  V30 593 H 52.4197 -3.96962 4.33238 0
M  V30 594 H 53.9437 -4.75528 3.83022 0
M  V30 595 H 55.3577 -2.80737 4.99859 0
M  V30 596 H 53.7547 -2.25223 5.56232 0
M  V30 597 H 54.8247 -1.11835 4.71827 0
M  V30 598 N 56.1678 -1.49265 -0.50573 0
M  V30 599 C 57.5788 -1.51769 -1.08734 0
M  V30 600 C 57.9298 -0.301192 -1.93874 0
M  V30 601 O 57.0548 0.589456 -2.08217 0
M  V30 602 C 57.6498 -2.75017 -1.97867 0
M  V30 603 C 56.2088 -2.80314 -2.51199 0
M  V30 604 C 55.3558 -2.4562 -1.28709 0
M  V30 605 H 58.3068 -1.56031 -0.289855 0
M  V30 606 H 58.3278 -2.5491 -2.82491 0
M  V30 607 H 57.8398 -3.63539 -1.35873 0
M  V30 608 H 55.9408 -1.96061 -3.16845 0
M  V30 609 H 56.0538 -3.82366 -2.88675 0
M  V30 610 H 54.4178 -1.97297 -1.61078 0
M  V30 611 H 55.2008 -3.36411 -0.6843 0
M  V30 612 N 57.6459 0.756429 -1.3826 0
M  V30 613 C 58.8939 1.51248 -1.34047 0
M  V30 614 C 59.2149 1.94875 0.0698372 0
M  V30 615 O 58.4849 1.67436 1.01696 0
M  V30 616 H 57.0649 0.561018 -0.493222 0
M  V30 617 H 59.7269 0.899347 -1.7291 0
M  V30 618 H 58.8229 2.40472 -1.98947 0
M  V30 619 N 59.124 1.23083 0.984299 0
M  V30 620 C 60.071 1.00854 2.07598 0
M  V30 621 C 61.041 -0.0726709 1.65941 0
M  V30 622 O 62.226 0.0786535 1.90638 0
M  V30 623 C 59.366 0.601645 3.39815 0
M  V30 624 C 58.479 1.75456 3.94765 0
M  V30 625 C 57.614 1.29482 5.15177 0
M  V30 626 C 56.653 2.41873 5.62284 0
M  V30 627 N 55.79 1.96885 6.73929 0
M  V30 628 H 60.63 1.943 2.25946 0
M  V30 629 H 58.167 0.968001 1.10762 0
M  V30 630 H 60.125 0.346854 4.15756 0
M  V30 631 H 58.755 -0.295803 3.21442 0
M  V30 632 H 57.807 2.12346 3.15616 0
M  V30 633 H 59.119 2.59965 4.25699 0
M  V30 634 H 58.273 0.997923 5.98437 0
M  V30 635 H 57.012 0.420046 4.85888 0
M  V30 636 H 56.017 2.72342 4.77608 0
M  V30 637 H 57.242 3.29881 5.93595 0
M  V30 638 H 55.188 1.11782 6.46406 0
M  V30 639 H 55.105 2.74956 7.04227 0
M  V30 640 H 56.373 1.70289 7.60672 0
M  V30 641 N 60.6021 -1.18246 1.0419 0
M  V30 642 C 61.8481 -1.88793 0.75689 0
M  V30 643 C 62.2031 -1.78909 -0.707767 0
M  V30 644 O 61.4961 -1.1794 -1.50999 0
M  V30 645 C 61.6901 -3.38082 1.15911 0
M  V30 646 C 61.5191 -3.62496 2.66133 0
M  V30 647 C 60.2891 -3.7979 3.33298 0
M  V30 648 C 62.4871 -3.62976 3.64353 0
M  V30 649 N 60.4691 -3.91955 4.72487 0
M  V30 650 C 61.8401 -3.80869 4.89222 0
M  V30 651 C 63.8951 -3.46071 3.57965 0
M  V30 652 C 62.5981 -3.83608 6.08471 0
M  V30 653 C 64.6241 -3.50093 4.76643 0
M  V30 654 C 63.9861 -3.68484 6.00332 0
M  V30 655 H 60.0851 -0.709406 0.32904 0
M  V30 656 H 62.6691 -1.42022 1.33183 0
M  V30 657 H 60.8401 -3.83544 0.612238 0
M  V30 658 H 62.5721 -3.96202 0.824989 0
M  V30 659 H 59.3271 -3.79224 2.83701 0
M  V30 660 H 59.7511 -4.01857 5.44831 0
M  V30 661 H 64.3931 -3.30797 2.63311 0
M  V30 662 H 62.1111 -3.97669 7.0348 0
M  V30 663 H 65.6971 -3.38285 4.73344 0
M  V30 664 H 64.5771 -3.71488 6.90627 0
M  V30 665 N 62.0802 -0.821533 -1.34494 0
M  V30 666 C 63.0272 -0.240397 -2.29545 0
M  V30 667 C 63.9972 0.634031 -1.53523 0
M  V30 668 O 65.1822 0.575966 -1.81899 0
M  V30 669 C 62.3222 0.592869 -3.39969 0
M  V30 670 C 61.4352 -0.30365 -4.30932 0
M  V30 671 C 60.5702 0.539049 -5.28458 0
M  V30 672 C 59.6092 -0.356942 -6.11058 0
M  V30 673 N 58.7462 0.446603 -7.00678 0
M  V30 674 H 63.5862 -1.05632 -2.7865 0
M  V30 675 H 61.1232 -0.532413 -1.37127 0
M  V30 676 H 63.0812 1.09129 -4.02675 0
M  V30 677 H 61.7112 1.37392 -2.92102 0
M  V30 678 H 60.7632 -0.920276 -3.691 0
M  V30 679 H 62.0752 -0.992661 -4.88823 0
M  V30 680 H 61.2292 1.102 -5.96608 0
M  V30 681 H 59.9682 1.26157 -4.71101 0
M  V30 682 H 58.9732 -0.932047 -5.41842 0
M  V30 683 H 60.1982 -1.07755 -6.70497 0
M  V30 684 H 58.1442 1.15282 -6.45791 0
M  V30 685 H 58.0612 -0.184048 -7.55776 0
M  V30 686 H 59.3292 0.992352 -7.73158 0
M  V30 687 N 63.5583 1.46682 -0.576371 0
M  V30 688 C 64.9693 1.86112 -0.148091 0
M  V30 689 C 65.3203 1.48073 1.2872 0
M  V30 690 O 64.4453 0.892656 1.97131 0
M  V30 691 C 65.0403 3.37786 -0.261982 0
M  V30 692 C 63.5993 3.76235 0.111384 0
M  V30 693 C 62.7463 2.70713 -0.60083 0
M  V30 694 H 65.6973 1.37927 -0.78497 0
M  V30 695 H 65.7183 3.77007 0.514364 0
M  V30 696 H 65.2303 3.6544 -1.30671 0
M  V30 697 H 63.3313 3.54198 1.15649 0
M  V30 698 H 63.4443 4.78391 -0.26052 0
M  V30 699 H 61.8083 2.54666 -0.0417783 0
M  V30 700 H 62.5913 3.01208 -1.64708 0
M  V30 701 N 65.0364 0.313813 1.54444 0
M  V30 702 C 65.9834 -0.55655 2.23989 0
M  V30 703 C 66.9534 -1.11943 1.22711 0
M  V30 704 O 68.1384 -1.16158 1.51367 0
M  V30 705 C 65.2784 -1.71635 2.99392 0
M  V30 706 C 64.3914 -1.18364 4.15468 0
M  V30 707 C 63.5264 -2.30834 4.78424 0
M  V30 708 C 62.5654 -1.74762 5.86622 0
M  V30 709 N 61.7024 -2.80855 6.43479 0
M  V30 710 H 66.5424 0.0430893 2.97969 0
M  V30 711 H 64.0794 0.0330359 1.47063 0
M  V30 712 H 66.0374 -2.39868 3.41349 0
M  V30 713 H 64.6674 -2.28742 2.27765 0
M  V30 714 H 63.7194 -0.393163 3.78363 0
M  V30 715 H 65.0314 -0.733262 4.93381 0
M  V30 716 H 64.1854 -3.0699 5.23299 0
M  V30 717 H 62.9244 -2.79204 3.99871 0
M  V30 718 H 61.9294 -0.970995 5.41158 0
M  V30 719 H 63.1544 -1.2728 6.67066 0
M  V30 720 H 61.1004 -3.28535 5.67804 0
M  V30 721 H 61.0174 -2.40351 7.16776 0
M  V30 722 H 62.2854 -3.5687 6.93011 0
M  V30 723 N 66.5145 -1.57545 0.0417849 0
M  V30 724 C 67.4475 -2.06514 -0.970928 0
M  V30 725 C 68.4255 -0.963607 -1.30971 0
M  V30 726 O 69.6095 -1.23486 -1.4242 0
M  V30 727 C 66.7365 -2.4978 -2.28752 0
M  V30 728 C 65.7825 -3.71078 -2.10246 0
M  V30 729 S 66.6155 -5.17158 -1.38952 0
M  V30 730 C 67.7715 -5.6373 -2.71954 0
M  V30 731 H 68.0045 -2.9209 -0.554129 0
M  V30 732 H 65.5375 -1.53459 -0.17024 0
M  V30 733 H 67.4955 -2.75371 -3.04435 0
M  V30 734 H 66.1565 -1.64527 -2.67562 0
M  V30 735 H 65.3495 -3.9924 -3.07609 0
M  V30 736 H 64.9515 -3.45705 -1.42704 0
M  V30 737 H 67.2435 -5.68743 -3.68154 0
M  V30 738 H 68.1865 -6.63086 -2.4844 0
M  V30 739 H 68.5945 -4.91424 -2.77782 0
M  V30 740 N 67.9926 0.231505 -1.5589 0
M  V30 741 C 69.2416 0.955346 -1.7764 0
M  V30 742 C 69.5546 1.85893 -0.608546 0
M  V30 743 O 70.7606 2.62067 -0.70943 0
M  V30 744 C 69.2166 1.74886 -3.14552 0
M  V30 745 C 68.8246 0.891915 -4.39032 0
M  V30 746 C 70.5686 2.46452 -3.45633 0
M  V30 747 C 68.4756 1.68221 -5.66971 0
M  V30 748 H 67.4056 0.360446 -0.662265 0
M  V30 749 H 70.0566 0.209516 -1.823 0
M  V30 750 H 68.4386 2.53723 -3.04041 0
M  V30 751 H 69.6126 0.144793 -4.60572 0
M  V30 752 H 67.9276 0.288863 -4.15397 0
M  V30 753 H 70.5246 3.06061 -4.38441 0
M  V30 754 H 70.8676 3.18841 -2.67668 0
M  V30 755 H 71.4006 1.74613 -3.57428 0
M  V30 756 H 68.1396 1.00178 -6.478 0
M  V30 757 H 67.6596 2.4042 -5.49507 0
M  V30 758 H 69.3386 2.24544 -6.06786 0
M  V30 759 N 69.4707 1.49531 0.497807 0
M  V30 760 C 70.7187 1.58865 1.24926 0
M  V30 761 C 71.0397 0.278721 1.92998 0
M  V30 762 O 70.3097 -0.702144 1.82885 0
M  V30 763 H 68.8897 0.585343 0.464094 0
M  V30 764 H 71.5517 1.86174 0.57666 0
M  V30 765 H 70.6477 2.38633 2.01149 0
M  V30 766 N 70.9488 -0.749086 1.3866 0
M  V30 767 C 72.1968 -1.50535 1.34847 0
M  V30 768 C 72.5178 -1.94909 -0.0595016 0
M  V30 769 O 71.7878 -1.67973 -1.00806 0
M  V30 770 H 70.3678 -0.558395 0.49619 0
M  V30 771 H 73.0298 -0.890165 1.73384 0
M  V30 772 H 72.1258 -2.39413 2.00219 0
M  V30 773 N 72.4269 -1.23603 -0.977757 0
M  V30 774 C 73.6759 -1.06377 -1.71368 0
M  V30 775 C 73.9889 0.399062 -1.91486 0
M  V30 776 O 75.1949 0.691312 -2.62551 0
M  V30 777 C 73.6509 -1.85512 -3.08404 0
M  V30 778 C 73.2589 -3.36141 -2.96164 0
M  V30 779 C 75.0029 -1.76783 -3.85938 0
M  V30 780 C 72.9099 -4.07659 -4.28449 0
M  V30 781 H 71.8399 -0.394452 -0.642591 0
M  V30 782 H 74.4909 -1.47594 -1.09034 0
M  V30 783 H 72.8729 -1.37103 -3.71509 0
M  V30 784 H 74.0469 -3.92056 -2.42133 0
M  V30 785 H 72.3619 -3.45712 -2.32104 0
M  V30 786 H 74.9589 -2.27526 -4.83876 0
M  V30 787 H 75.3019 -0.731116 -4.0983 0
M  V30 788 H 75.8349 -2.22818 -3.2954 0
M  V30 789 H 72.5739 -5.11648 -4.09752 0
M  V30 790 H 72.0939 -3.5653 -4.82334 0
M  V30 791 H 73.7729 -4.141 -4.97122 0
M  V30 792 N 73.905 1.17692 -1.04816 0
M  V30 793 C 75.153 1.87488 -0.754497 0
M  V30 794 C 75.474 1.81205 0.720407 0
M  V30 795 O 74.744 1.23544 1.52032 0
M  V30 796 H 73.324 0.694101 -0.276102 0
M  V30 797 H 75.986 1.42793 -1.32651 0
M  V30 798 H 75.082 2.93328 -1.06606 0
M  V30 799 N 75.3831 0.828654 1.34056 0
M  V30 800 C 76.6311 0.41863 1.97717 0
M  V30 801 C 76.9521 -1.02314 1.66002 0
M  V30 802 O 76.2221 -1.71119 0.953683 0
M  V30 803 H 74.8021 0.151809 0.731412 0
M  V30 804 H 77.4641 1.05936 1.63596 0
M  V30 805 H 76.5601 0.542318 3.07352 0
M  V30 806 N 76.8612 -1.46375 0.584142 0
M  V30 807 C 78.1082 -2.02378 0.0702675 0
M  V30 808 C 78.4362 -1.45545 -1.29023 0
M  V30 809 O 77.6912 -0.610967 -1.85918 0
M  V30 810 C 77.9902 -3.57373 -0.0439342 0
M  V30 811 C 77.6562 -4.33252 1.24915 0
M  V30 812 C 76.3182 -4.53701 1.60341 0
M  V30 813 C 78.6702 -4.7681 2.1048 0
M  V30 814 C 75.9982 -5.1496 2.81128 0
M  V30 815 C 78.3502 -5.39404 3.30494 0
M  V30 816 C 77.0142 -5.5808 3.66201 0
M  V30 817 H 76.2842 -0.740554 0.0257127 0
M  V30 818 H 78.9312 -1.75727 0.761065 0
M  V30 819 H 77.2362 -3.83169 -0.817869 0
M  V30 820 H 78.9332 -3.98384 -0.457318 0
M  V30 821 H 75.5232 -4.17633 0.963364 0
M  V30 822 H 79.7072 -4.60766 1.84414 0
M  V30 823 H 74.9632 -5.27611 3.08928 0
M  V30 824 H 79.1372 -5.72114 3.97063 0
M  V30 825 H 76.7642 -6.05318 4.59885 0
M  V30 826 N 78.3393 -0.321999 -1.54275 0
M  V30 827 C 79.5883 0.281931 -1.9972 0
M  V30 828 C 79.9013 1.53369 -1.21397 0
M  V30 829 O 81.1073 2.21352 -1.57211 0
M  V30 830 C 79.5633 0.5529 -3.55628 0
M  V30 831 C 79.1713 -0.681721 -4.42783 0
M  V30 832 C 80.9153 1.11687 -4.09544 0
M  V30 833 C 78.8223 -0.382742 -5.9016 0
M  V30 834 H 77.7523 0.109124 -0.746062 0
M  V30 835 H 80.4033 -0.43398 -1.78294 0
M  V30 836 H 78.7853 1.32896 -3.73035 0
M  V30 837 H 79.9593 -1.45723 -4.37151 0
M  V30 838 H 78.2743 -1.1658 -3.99748 0
M  V30 839 H 80.8713 1.35515 -5.17242 0
M  V30 840 H 81.2143 2.06575 -3.61431 0
M  V30 841 H 81.7473 0.402032 -3.95763 0
M  V30 842 H 78.4863 -1.30076 -6.42464 0
M  V30 843 H 78.0063 0.355094 -5.98748 0
M  V30 844 H 79.6853 0.00800157 -6.47 0
M  V30 845 N 79.8174 1.5752 -0.0501392 0
M  V30 846 C 80.7644 2.1147 0.924603 0
M  V30 847 C 81.7344 1.02182 1.30951 0
M  V30 848 O 82.9194 1.29723 1.39916 0
M  V30 849 C 80.0594 2.66337 2.19451 0
M  V30 850 C 79.1724 3.89708 1.86418 0
M  V30 851 C 78.3074 4.32893 3.07859 0
M  V30 852 C 77.3464 5.48967 2.70742 0
M  V30 853 N 76.4834 5.87211 3.84874 0
M  V30 854 H 81.3234 2.94465 0.457639 0
M  V30 855 H 78.8604 1.45531 0.214266 0
M  V30 856 H 80.8184 2.96247 2.93758 0
M  V30 857 H 79.4484 1.86141 2.63726 0
M  V30 858 H 78.5004 3.66396 1.02264 0
M  V30 859 H 79.8124 4.74074 1.55096 0
M  V30 860 H 78.9664 4.6435 3.90466 0
M  V30 861 H 77.7054 3.47336 3.42358 0
M  V30 862 H 76.7104 5.17183 1.86551 0
M  V30 863 H 77.9354 6.3624 2.37436 0
M  V30 864 H 75.8814 5.04607 4.19175 0
M  V30 865 H 75.7984 6.66266 3.57247 0
M  V30 866 H 77.0664 6.23282 4.68123 0
M  V30 867 N 81.2955 -0.223234 1.56011 0
M  V30 868 C 82.5415 -0.949279 1.79211 0
M  V30 869 C 82.8745 -1.84054 0.619494 0
M  V30 870 O 82.1495 -1.90726 -0.381317 0
M  V30 871 C 82.4325 -1.78965 3.12479 0
M  V30 872 C 82.2855 -0.924997 4.40186 0
M  V30 873 C 83.6045 -2.76774 3.42175 0
M  V30 874 H 80.7235 -0.343676 0.651963 0
M  V30 875 H 83.3655 -0.218253 1.88742 0
M  V30 876 H 81.5155 -2.41291 3.04485 0
M  V30 877 H 83.1875 -0.318615 4.60198 0
M  V30 878 H 81.4305 -0.230344 4.33188 0
M  V30 879 H 82.1015 -1.54735 5.29869 0
M  V30 880 H 84.5775 -2.24584 3.50287 0
M  V30 881 H 83.4535 -3.32678 4.36597 0
M  V30 882 H 83.7145 -3.54429 2.64258 0
M  V30 883 N 82.7736 -1.49793 -0.48987 0
M  V30 884 C 84.1896 -1.36803 -0.822022 0
M  V30 885 C 84.3896 -0.409652 -1.97292 0
M  V30 886 O 83.4456 0.154614 -2.52026 0
M  V30 887 C 84.7586 -2.77768 -1.15175 0
M  V30 888 C 86.3066 -2.86549 -1.25931 0
M  V30 889 C 86.7816 -4.28306 -1.62228 0
M  V30 890 N 88.2726 -4.31169 -1.69256 0
M  V30 891 C 89.0076 -5.37832 -1.98807 0
M  V30 892 N 88.5036 -6.54726 -2.26507 0
M  V30 893 N 90.2966 -5.25258 -2.00152 0
M  V30 894 H 82.4476 -2.10691 0.268881 0
M  V30 895 H 84.7106 -0.946241 0.057728 0
M  V30 896 H 84.4166 -3.49648 -0.379335 0
M  V30 897 H 84.2906 -3.13836 -2.09253 0
M  V30 898 H 86.6776 -2.14899 -2.02243 0
M  V30 899 H 86.7586 -2.54049 -0.298776 0
M  V30 900 H 86.4026 -5.00486 -0.864622 0
M  V30 901 H 86.3326 -4.58279 -2.594 0
M  V30 902 H 88.8236 -3.4687 -1.49965 0
M  V30 903 H 89.1366 -7.31833 -2.48276 0
M  V30 904 H 87.4816 -6.57933 -2.23939 0
M  V30 905 H 90.6726 -4.32938 -1.77996 0
M  V30 906 H 90.8456 -6.08476 -2.22848 0
M  V30 907 N 84.2517 0.741722 -1.39055 0
M  V30 908 C 85.1837 1.8657 -1.33133 0
M  V30 909 C 86.1967 1.61001 -0.241329 0
M  V30 910 O 87.3857 1.7136 -0.499784 0
M  V30 911 C 84.4857 3.22457 -1.04283 0
M  V30 912 C 83.6587 3.75435 -2.24427 0
M  V30 913 C 82.7177 4.89867 -1.92138 0
M  V30 914 O 81.7437 5.03879 -2.64754 0
M  V30 915 N 82.9457 5.73738 -0.88347 0
M  V30 916 H 85.7107 1.92156 -2.29991 0
M  V30 917 H 83.2717 0.922172 -1.3307 0
M  V30 918 H 85.2637 3.9657 -0.807128 0
M  V30 919 H 83.8337 3.12181 -0.161807 0
M  V30 920 H 83.0537 2.92751 -2.6399 0
M  V30 921 H 84.3417 4.07563 -3.04581 0
M  V30 922 H 83.7397 5.64999 -0.281517 0
M  V30 923 H 82.2967 6.47947 -0.707662 0
M  V30 924 N 85.7298 1.2412 0.971189 0
M  V30 925 C 86.9598 1.10415 1.7462 0
M  V30 926 C 87.3678 -0.346462 1.86001 0
M  V30 927 O 86.7108 -1.25104 1.34517 0
M  V30 928 C 86.7728 1.66596 3.18568 0
M  V30 929 C 86.4368 3.15446 3.3067 0
M  V30 930 C 87.4338 4.12636 3.16271 0
M  V30 931 C 85.1188 3.55337 3.55022 0
M  V30 932 C 87.1128 5.47699 3.26044 0
M  V30 933 C 84.7998 4.90542 3.64434 0
M  V30 934 C 85.7978 5.86532 3.49956 0
M  V30 935 O 85.4858 7.19279 3.59017 0
M  V30 936 H 85.2178 0.386616 0.55453 0
M  V30 937 H 87.7718 1.64633 1.22821 0
M  V30 938 H 86.0018 1.06808 3.71657 0
M  V30 939 H 87.6908 1.48232 3.77865 0
M  V30 940 H 88.4568 3.8316 2.97344 0
M  V30 941 H 84.3358 2.8113 3.65359 0
M  V30 942 H 87.8798 6.22603 3.14661 0
M  V30 943 H 83.7768 5.19691 3.82873 0
M  V30 944 H 84.5448 7.27153 3.75754 0
M  V30 945 N 87.2079 -1.17134 1.05439 0
M  V30 946 C 88.4849 -1.83411 0.679699 0
M  V30 947 C 88.8649 -1.9368 -0.839726 0
M  V30 948 O 88.2129 -1.47325 -1.74664 0
M  V30 949 C 88.4229 -3.20918 1.37159 0
M  V30 950 C 89.7709 -3.96796 1.51123 0
M  V30 951 O 90.7949 -3.30406 1.3308 0
M  V30 952 O 89.6539 -5.15778 1.80651 0
M  V30 953 H 86.7479 -0.79154 0.239569 0
M  V30 954 H 89.2939 -1.24411 1.15413 0
M  V30 955 H 88.0659 -3.08428 2.40807 0
M  V30 956 H 87.6889 -3.87587 0.886674 0
M  V30 957 N 88.686 -0.835752 -1.33615 0
M  V30 958 C 89.618 -0.224151 -2.28101 0
M  V30 959 C 90.631 0.593331 -1.51603 0
M  V30 960 O 91.82 0.420911 -1.73466 0
M  V30 961 C 88.92 0.703309 -3.31522 0
M  V30 962 C 88.093 -0.0741528 -4.37337 0
M  V30 963 C 87.152 0.776176 -5.20444 0
M  V30 964 O 86.178 0.216506 -5.68788 0
M  V30 965 N 87.38 2.09401 -5.41416 0
M  V30 966 H 90.145 -1.03598 -2.81225 0
M  V30 967 H 87.706 -0.69392 -1.46275 0
M  V30 968 H 89.698 1.27707 -3.84022 0
M  V30 969 H 88.268 1.41585 -2.78698 0
M  V30 970 H 87.488 -0.82928 -3.85378 0
M  V30 971 H 88.776 -0.608863 -5.05144 0
M  V30 972 H 88.174 2.57229 -5.03835 0
M  V30 973 H 86.731 2.61633 -5.96985 0
M  V30 974 N 90.1641 1.46063 -0.591896 0
M  V30 975 C 91.4101 2.02638 -0.0811191 0
M  V30 976 C 91.7431 1.4613 1.27905 0
M  V30 977 O 91.0181 0.629908 1.84017 0
M  V30 978 C 91.3011 3.60091 -0.0252436 0
M  V30 979 C 91.1541 4.26965 -1.41496 0
M  V30 980 C 92.4731 4.3496 0.670685 0
M  V30 981 H 89.5921 0.73635 -0.0309524 0
M  V30 982 H 92.2341 1.741 -0.760859 0
M  V30 983 H 90.3841 3.84535 0.553624 0
M  V30 984 H 92.0561 4.13756 -2.0397 0
M  V30 985 H 90.2991 3.85971 -1.98011 0
M  V30 986 H 90.9701 5.35781 -1.32825 0
M  V30 987 H 93.4461 4.15716 0.178825 0
M  V30 988 H 92.3221 5.44686 0.678837 0
M  V30 989 H 92.5831 4.06685 1.73379 0
M  V30 990 N 91.6422 0.330177 1.54103 0
M  V30 991 C 92.8672 -0.274893 2.0557 0
M  V30 992 C 93.2922 -1.44487 1.20437 0
M  V30 993 O 92.6502 -1.80021 0.214991 0
M  V30 994 C 92.6982 -0.68079 3.54115 0
M  V30 995 O 91.8022 -1.7824 3.71893 0
M  V30 996 H 91.1432 -0.0483849 0.662235 0
M  V30 997 H 93.6732 0.480508 1.98878 0
M  V30 998 H 93.6832 -0.961635 3.96505 0
M  V30 999 H 92.3582 0.174903 4.15532 0
M  V30 1000 H 90.9352 -1.49985 3.41407 0
M  V30 1001 N 93.1203 -1.57491 0.0584922 0
M  V30 1002 C 94.3693 -1.92155 -0.613146 0
M  V30 1003 C 94.6823 -0.939334 -1.71569 0
M  V30 1004 O 95.8883 -1.17829 -2.44599 0
M  V30 1005 C 94.3443 -3.41303 -1.14195 0
M  V30 1006 C 93.9523 -4.47944 -0.0711265 0
M  V30 1007 C 95.6963 -3.84988 -1.78841 0
M  V30 1008 C 93.6033 -5.88212 -0.613225 0
M  V30 1009 H 92.5333 -0.717162 -0.232796 0
M  V30 1010 H 95.1843 -1.83049 0.12857 0
M  V30 1011 H 93.5663 -3.45437 -1.93621 0
M  V30 1012 H 94.7403 -4.55408 0.702836 0
M  V30 1013 H 93.0553 -4.13644 0.478313 0
M  V30 1014 H 95.6523 -4.87159 -2.20408 0
M  V30 1015 H 95.9953 -3.21632 -2.64308 0
M  V30 1016 H 96.5283 -3.83401 -1.06059 0
M  V30 1017 H 93.2673 -6.55183 0.203978 0
M  V30 1018 H 92.7873 -5.84294 -1.35501 0
M  V30 1019 H 94.4663 -6.37687 -1.09383 0
M  V30 1020 N 94.5984 0.214957 -1.56127 0
M  V30 1021 C 95.5084 1.28727 -1.96129 0
M  V30 1022 C 96.5244 1.50916 -0.866044 0
M  V30 1023 O 97.7004 1.63918 -1.17016 0
M  V30 1024 C 94.7654 2.61569 -2.27558 0
M  V30 1025 C 93.8264 2.47625 -3.50685 0
M  V30 1026 C 93.0594 3.74132 -3.80606 0
M  V30 1027 O 93.2824 4.77438 -3.12104 0
M  V30 1028 O 92.2164 3.70849 -4.74083 0
M  V30 1029 H 96.0424 0.977855 -2.87527 0
M  V30 1030 H 93.6274 0.418358 -1.43423 0
M  V30 1031 H 95.5094 3.40012 -2.48938 0
M  V30 1032 H 94.1844 2.92178 -1.39332 0
M  V30 1033 H 93.0914 1.67361 -3.34576 0
M  V30 1034 H 94.4244 2.21954 -4.39315 0
M  V30 1035 N 96.0765 1.50051 0.48192 0
M  V30 1036 C 97.3255 1.59741 1.23149 0
M  V30 1037 C 97.6385 0.298163 1.93314 0
M  V30 1038 O 98.8445 0.273835 2.70116 0
M  V30 1039 C 97.3005 2.81926 2.23708 0
M  V30 1040 C 96.9085 4.18685 1.59396 0
M  V30 1041 C 98.6525 3.00956 2.99375 0
M  V30 1042 C 96.5595 5.3207 2.58178 0
M  V30 1043 H 95.4895 0.594838 0.46334 0
M  V30 1044 H 98.1405 1.76467 0.503169 0
M  V30 1045 H 96.5225 2.58736 2.99786 0
M  V30 1046 H 97.6965 4.52088 0.891811 0
M  V30 1047 H 96.0115 4.05171 0.960503 0
M  V30 1048 H 98.6085 3.82836 3.73283 0
M  V30 1049 H 98.9515 2.12258 3.58123 0
M  V30 1050 H 99.4845 3.24277 2.30411 0
M  V30 1051 H 96.2235 6.22888 2.04184 0
M  V30 1052 H 95.7435 5.03098 3.26577 0
M  V30 1053 H 97.4225 5.62196 3.20225 0
M  V30 1054 N 97.5546 -0.734337 1.39446 0
M  V30 1055 C 98.7946 -1.50655 1.38139 0
M  V30 1056 C 99.1586 -1.91986 -0.0228701 0
M  V30 1057 O 100.36 -2.68318 -0.160947 0
M  V30 1058 C 98.6306 -2.71251 2.32718 0
M  V30 1059 S 100.19 -3.60892 2.49605 0
M  V30 1060 H 97.0076 -0.515315 0.489869 0
M  V30 1061 H 99.6096 -0.860392 1.75549 0
M  V30 1062 H 98.3136 -2.39027 3.33608 0
M  V30 1063 H 97.8446 -3.40795 1.96526 0
M  V30 1064 H 99.8596 -4.64899 1.73446 0
M  V30 1065 N 99.0327 -1.24633 -0.964593 0
M  V30 1066 C 100.281 -1.08573 -1.70459 0
M  V30 1067 C 100.602 0.375655 -1.91347 0
M  V30 1068 O 99.8717 1.26779 -1.49345 0
M  V30 1069 H 98.4517 -0.398784 -0.631649 0
M  V30 1070 H 101.114 -1.56601 -1.16026 0
M  V30 1071 H 100.21 -1.58623 -2.68785 0
M  V30 1072 N 100.511 1.16574 -1.06058 0
M  V30 1073 C 101.461 2.18854 -0.63929 0
M  V30 1074 C 102.445 1.57505 0.328798 0
M  V30 1075 O 103.637 1.76408 0.144623 0
M  V30 1076 C 100.766 3.43291 -0.0247203 0
M  V30 1077 C 99.8518 4.11722 -1.01716 0
M  V30 1078 N 100.243 4.55841 -2.19186 0
M  V30 1079 C 98.5408 4.37872 -0.847569 0
M  V30 1080 C 99.2418 5.08751 -2.82042 0
M  V30 1081 N 98.2178 5.01489 -2.09784 0
M  V30 1082 H 102.02 2.5068 -1.53417 0
M  V30 1083 H 99.5338 1.32999 -0.931935 0
M  V30 1084 H 101.531 4.15856 0.294915 0
M  V30 1085 H 100.191 3.12954 0.865448 0
M  V30 1086 H 101.202 4.49649 -2.56975 0
M  V30 1087 H 97.8788 4.17499 -0.00918848 0
M  V30 1088 H 99.2688 5.52944 -3.81709 0
M  V30 1089 N 101.989 0.842826 1.3317 0
M  V30 1090 C 102.936 0.276885 2.29133 0
M  V30 1091 C 103.906 -0.609527 1.54512 0
M  V30 1092 O 105.091 -0.546955 1.82792 0
M  V30 1093 C 102.231 -0.538707 3.40869 0
M  V30 1094 C 101.344 0.372169 4.30394 0
M  V30 1095 C 100.479 -0.454908 5.29249 0
M  V30 1096 C 99.5179 0.45411 6.10413 0
M  V30 1097 N 98.6549 -0.335075 7.013 0
M  V30 1098 H 103.495 1.10052 2.76934 0
M  V30 1099 H 101.032 0.554161 1.36262 0
M  V30 1100 H 102.99 -1.02709 4.0436 0
M  V30 1101 H 101.62 -1.32727 2.9425 0
M  V30 1102 H 100.672 0.97888 3.6759 0
M  V30 1103 H 101.984 1.0703 4.87182 0
M  V30 1104 H 101.138 -1.00695 5.98285 0
M  V30 1105 H 99.8769 -1.18646 4.73048 0
M  V30 1106 H 98.8819 1.01813 5.40291 0
M  V30 1107 H 100.107 1.18409 6.68697 0
M  V30 1108 H 98.0529 -1.04994 6.47543 0
M  V30 1109 H 97.9699 0.304262 7.55387 0
M  V30 1110 H 99.2379 -0.869224 7.74638 0
M  V30 1111 N 103.467 -1.45747 0.599634 0
M  V30 1112 C 104.43 -2.28917 -0.113835 0
M  V30 1113 C 105.43 -1.3933 -0.802729 0
M  V30 1114 O 106.62 -1.61534 -0.652103 0
M  V30 1115 C 103.752 -3.20152 -1.17114 0
M  V30 1116 H 104.945 -2.93478 0.617289 0
M  V30 1117 H 102.498 -1.52137 0.358327 0
M  V30 1118 H 103.233 -2.60374 -1.93329 0
M  V30 1119 H 103.018 -3.86133 -0.681468 0
M  V30 1120 H 104.508 -3.82708 -1.67105 0
M  V30 1121 N 104.945 -0.338344 -1.53925 0
M  V30 1122 C 106.194 0.260732 -2.00008 0
M  V30 1123 C 106.507 1.52073 -1.23017 0
M  V30 1124 O 107.713 2.19672 -1.5955 0
M  V30 1125 C 106.169 0.51515 -3.56194 0
M  V30 1126 C 105.777 -0.728645 -4.42035 0
M  V30 1127 C 107.521 1.07337 -4.10706 0
M  V30 1128 C 105.428 -0.445315 -5.89721 0
M  V30 1129 H 104.358 0.101205 -0.747177 0
M  V30 1130 H 107.009 -0.452866 -1.77824 0
M  V30 1131 H 105.391 1.28932 -3.74423 0
M  V30 1132 H 106.565 -1.50352 -4.35581 0
M  V30 1133 H 104.88 -1.20813 -3.98489 0
M  V30 1134 H 107.477 1.30022 -5.18651 0
M  V30 1135 H 107.82 2.0273 -3.63602 0
M  V30 1136 H 108.353 0.360034 -3.96167 0
M  V30 1137 H 105.092 -1.36883 -6.41049 0
M  V30 1138 H 104.612 0.291569 -5.99091 0
M  V30 1139 H 106.291 -0.0606218 -6.46972 0
M  V30 1140 N 106.423 1.57458 -0.0668435 0
M  V30 1141 C 107.671 1.92919 0.602214 0
M  V30 1142 C 107.992 0.947215 1.70449 0
M  V30 1143 O 107.262 -0.00544117 1.95899 0
M  V30 1144 H 105.842 0.71217 0.22544 0
M  V30 1145 H 108.504 1.94508 -0.123535 0
M  V30 1146 H 107.6 2.94589 1.03073 0
M  V30 1147 N 107.901 -0.206675 1.56239 0
M  V30 1148 C 109.129 -0.945345 1.8404 0
M  V30 1149 C 109.544 -1.77336 0.647885 0
M  V30 1150 O 108.901 -1.78425 -0.383511 0
M  V30 1151 C 108.952 -1.8509 3.10522 0
M  V30 1152 O 108.673 -1.05634 4.25174 0
M  V30 1153 C 110.174 -2.70222 3.51418 0
M  V30 1154 H 107.394 -0.276372 0.61144 0
M  V30 1155 H 109.938 -0.217417 2.03341 0
M  V30 1156 H 108.093 -2.53259 2.93153 0
M  V30 1157 H 108.507 -1.67238 4.97124 0
M  V30 1158 H 109.981 -3.29438 4.42916 0
M  V30 1159 H 110.458 -3.43358 2.73864 0
M  V30 1160 H 111.064 -2.07443 3.71278 0
M  V30 1161 N 109.379 -1.50304 -0.473955 0
M  V30 1162 C 110.625 -1.61389 -1.22806 0
M  V30 1163 C 110.958 -0.311955 -1.91678 0
M  V30 1164 O 110.233 0.686384 -1.81986 0
M  V30 1165 C 110.516 -2.79219 -2.27396 0
M  V30 1166 C 110.369 -4.19286 -1.62848 0
M  V30 1167 C 111.688 -2.92614 -3.28732 0
M  V30 1168 H 108.807 -0.587399 -0.445119 0
M  V30 1169 H 111.449 -1.82681 -0.522265 0
M  V30 1170 H 109.599 -2.61195 -2.87592 0
M  V30 1171 H 111.271 -4.48892 -1.06271 0
M  V30 1172 H 109.514 -4.23677 -0.931693 0
M  V30 1173 H 110.185 -4.97655 -2.38838 0
M  V30 1174 H 112.661 -3.09105 -2.78556 0
M  V30 1175 H 111.537 -3.76688 -3.99246 0
M  V30 1176 H 111.798 -2.03107 -3.92683 0
M  V30 1177 N 110.857 0.726932 -1.39834 0
M  V30 1178 C 111.787 1.85405 -1.41941 0
M  V30 1179 C 112.768 1.67751 -0.281728 0
M  V30 1180 O 113.953 1.8795 -0.488717 0
M  V30 1181 C 111.083 3.23243 -1.2701 0
M  V30 1182 C 110.037 3.55549 -2.38262 0
M  V30 1183 C 109.363 4.9241 -2.08415 0
M  V30 1184 C 110.663 3.577 -3.80589 0
M  V30 1185 H 112.357 1.83899 -2.36266 0
M  V30 1186 H 109.903 0.883349 -1.13723 0
M  V30 1187 H 111.856 4.01775 -1.27103 0
M  V30 1188 H 110.58 3.25296 -0.291564 0
M  V30 1189 H 109.239 2.79351 -2.37399 0
M  V30 1190 H 108.887 4.91052 -1.0898 0
M  V30 1191 H 108.587 5.14992 -2.82943 0
M  V30 1192 H 110.111 5.73289 -2.10171 0
M  V30 1193 H 111.525 4.26293 -3.83337 0
M  V30 1194 H 109.922 3.91804 -4.54543 0
M  V30 1195 H 110.992 2.57328 -4.10987 0
M  V30 1196 N 112.336 1.25143 0.95797 0
M  V30 1197 C 113.585 1.0909 1.69654 0
M  V30 1198 C 113.898 -0.368548 1.92097 0
M  V30 1199 O 115.104 -0.649455 2.63618 0
M  V30 1200 C 113.56 1.90395 3.05414 0
M  V30 1201 C 113.168 3.4081 2.90779 0
M  V30 1202 C 114.912 1.82901 3.83076 0
M  V30 1203 C 112.819 4.14423 4.21909 0
M  V30 1204 H 111.749 0.404625 0.636235 0
M  V30 1205 H 114.4 1.4931 1.06672 0
M  V30 1206 H 112.782 1.42996 3.69281 0
M  V30 1207 H 113.956 3.95859 2.35865 0
M  V30 1208 H 112.271 3.49361 2.26575 0
M  V30 1209 H 114.868 2.35196 4.80195 0
M  V30 1210 H 115.211 0.796224 4.08615 0
M  V30 1211 H 115.744 2.28033 3.25954 0
M  V30 1212 H 112.483 5.18102 4.01561 0
M  V30 1213 H 112.003 3.64159 4.76601 0
M  V30 1214 H 113.682 4.21956 4.90471 0
M  V30 1215 N 113.814 -1.1601 1.06675 0
M  V30 1216 C 115.062 -1.86264 0.784229 0
M  V30 1217 C 115.383 -1.82328 -0.691488 0
M  V30 1218 O 114.653 -1.25947 -1.50047 0
M  V30 1219 H 113.233 -0.689621 0.28711 0
M  V30 1220 H 115.895 -1.40664 1.34906 0
M  V30 1221 H 114.991 -2.91595 1.11259 0
M  V30 1222 N 115.292 -0.849877 -1.32721 0
M  V30 1223 C 116.703 -0.506188 -1.79707 0
M  V30 1224 C 117.054 0.975627 -1.70223 0
M  V30 1225 O 116.179 1.76078 -1.25799 0
M  V30 1226 C 116.774 -0.912044 -3.26293 0
M  V30 1227 C 115.333 -0.620326 -3.71253 0
M  V30 1228 C 114.48 -1.11439 -2.53922 0
M  V30 1229 H 117.431 -1.03754 -1.20087 0
M  V30 1230 H 117.452 -0.226493 -3.79825 0
M  V30 1231 H 116.964 -1.99057 -3.33164 0
M  V30 1232 H 115.065 0.447674 -3.69901 0
M  V30 1233 H 115.178 -1.18327 -4.64258 0
M  V30 1234 H 113.542 -0.534834 -2.49021 0
M  V30 1235 H 114.325 -2.19992 -2.6355 0
M  V30 1236 N 116.77 1.45427 -0.607355 0
M  V30 1237 C 117.998 2.06614 -0.108814 0
M  V30 1238 C 118.413 1.45204 1.2067 0
M  V30 1239 O 117.77 0.566132 1.73497 0
M  V30 1240 C 117.821 3.61481 0.0375347 0
M  V30 1241 O 117.542 4.20598 -1.22593 0
M  V30 1242 C 119.043 4.39652 0.567561 0
M  V30 1243 H 116.263 0.66747 -0.0687351 0
M  V30 1244 H 118.807 1.86675 -0.835022 0
M  V30 1245 H 116.962 3.80762 0.714068 0
M  V30 1246 H 117.376 5.1377 -1.05547 0
M  V30 1247 H 118.85 5.48518 0.61905 0
M  V30 1248 H 119.327 4.09417 1.58978 0
M  V30 1249 H 119.933 4.25234 -0.0749202 0
M  V30 1250 N 118.248 0.346503 1.53744 0
M  V30 1251 C 119.659 -0.136779 1.86198 0
M  V30 1252 C 120.01 -1.49749 1.26766 0
M  V30 1253 O 119.135 -2.08417 0.582355 0
M  V30 1254 C 119.73 -0.254966 3.37839 0
M  V30 1255 C 118.289 -0.682482 3.70161 0
M  V30 1256 C 117.436 0.181981 2.76702 0
M  V30 1257 H 120.387 0.565994 1.48264 0
M  V30 1258 H 120.408 -1.08195 3.64793 0
M  V30 1259 H 119.92 0.735526 3.81066 0
M  V30 1260 H 118.021 -1.68189 3.3248 0
M  V30 1261 H 118.134 -0.470326 4.76786 0
M  V30 1262 H 116.498 -0.34615 2.52337 0
M  V30 1263 H 117.281 1.16966 3.2276 0
M  V30 1264 N 119.726 -1.57421 0.075193 0
M  V30 1265 C 120.972 -1.93905 -0.594025 0
M  V30 1266 C 121.305 -0.955701 -1.69056 0
M  V30 1267 O 120.58 0.0145373 -1.94495 0
M  V30 1268 C 120.863 -3.40638 -1.1678 0
M  V30 1269 C 120.716 -4.49733 -0.0776792 0
M  V30 1270 C 122.035 -3.88259 -2.07228 0
M  V30 1271 H 119.154 -0.705105 -0.214466 0
M  V30 1272 H 121.796 -1.8947 0.141854 0
M  V30 1273 H 119.946 -3.44549 -1.79494 0
M  V30 1274 H 121.618 -4.57942 0.555573 0
M  V30 1275 H 119.861 -4.29751 0.591286 0
M  V30 1276 H 120.532 -5.49549 -0.519603 0
M  V30 1277 H 123.008 -3.86376 -1.54445 0
M  V30 1278 H 121.884 -4.91533 -2.44308 0
M  V30 1279 H 122.145 -3.26396 -2.98191 0
M  V30 1280 N 121.204 0.198386 -1.56346 0
M  V30 1281 C 122.152 1.26538 -1.95169 0
M  V30 1282 C 123.146 1.47295 -0.836685 0
M  V30 1283 O 124.352 1.48195 -1.02167 0
M  V30 1284 H 120.727 0.424744 -0.620561 0
M  V30 1285 H 122.698 0.910904 -2.84157 0
M  V30 1286 C 121.447 2.6035 -2.30463 0
M  V30 1287 H 120.77 2.45192 -3.15786 0
M  V30 1288 H 122.21 3.33762 -2.61494 0
M  V30 1289 C 120.669 3.17096 -1.13806 0
M  V30 1290 O 121.199 3.99588 -0.41135 0
M  V30 1291 N 119.405 2.75795 -0.915736 0
M  V30 1292 H 118.952 2.08816 -1.50843 0
M  V30 1293 H 118.91 3.14101 -0.136979 0
M  V30 1294 N 122.682 1.50554 0.465978 0
M  V30 1295 C 123.931 1.61038 1.21448 0
M  V30 1296 C 124.244 0.31865 1.92987 0
M  V30 1297 O 125.45 0.302469 2.6981 0
M  V30 1298 C 123.906 2.84283 2.20706 0
M  V30 1299 C 123.514 4.20352 1.54946 0
M  V30 1300 C 125.258 3.04115 2.96166 0
M  V30 1301 C 123.165 5.34778 2.5252 0
M  V30 1302 H 122.095 0.599718 0.457005 0
M  V30 1303 H 124.746 1.7699 0.484424 0
M  V30 1304 H 123.128 2.61901 2.97025 0
M  V30 1305 H 124.302 4.53008 0.843811 0
M  V30 1306 H 122.617 4.06167 0.917475 0
M  V30 1307 H 125.214 3.86774 3.69202 0
M  V30 1308 H 125.557 2.16045 3.55852 0
M  V30 1309 H 126.09 3.26702 2.26959 0
M  V30 1310 H 122.829 6.25018 1.97566 0
M  V30 1311 H 122.349 5.06534 3.21222 0
M  V30 1312 H 124.028 5.65561 3.14245 0
M  V30 1313 N 124.16 -0.719506 1.40217 0
M  V30 1314 C 125.409 -1.47486 1.37589 0
M  V30 1315 C 125.722 -1.9559 -0.0201568 0
M  V30 1316 O 126.928 -2.70973 -0.169049 0
M  V30 1317 C 125.384 -2.66575 2.41796 0
M  V30 1318 C 124.992 -2.25358 3.87192 0
M  V30 1319 C 126.736 -3.4433 2.48269 0
M  V30 1320 C 124.643 -3.41262 4.83005 0
M  V30 1321 H 123.573 -0.553901 0.511576 0
M  V30 1322 H 126.224 -0.783427 1.65936 0
M  V30 1323 H 124.606 -3.3787 2.06543 0
M  V30 1324 H 125.78 -1.61509 4.31569 0
M  V30 1325 H 124.095 -1.60657 3.84159 0
M  V30 1326 H 126.692 -4.30569 3.17041 0
M  V30 1327 H 127.035 -3.87872 1.51198 0
M  V30 1328 H 127.568 -2.80076 2.82493 0
M  V30 1329 H 124.307 -3.02755 5.81394 0
M  V30 1330 H 123.827 -4.0404 4.43297 0
M  V30 1331 H 125.506 -4.07383 5.02641 0
M  V30 1332 N 125.638 -1.25649 -0.95132 0
M  V30 1333 C 126.886 -1.10375 -1.69298 0
M  V30 1334 C 127.207 0.355339 -1.91735 0
M  V30 1335 O 126.477 1.25188 -1.50681 0
M  V30 1336 H 125.057 -0.405461 -0.627384 0
M  V30 1337 H 127.719 -1.57823 -1.14358 0
M  V30 1338 H 126.815 -1.61465 -2.67087 0
M  V30 1339 N 127.117 1.15442 -1.07289 0
M  V30 1340 C 128.533 1.38201 -0.798288 0
M  V30 1341 C 128.733 1.92429 0.597769 0
M  V30 1342 O 127.789 2.12962 1.3566 0
M  V30 1343 C 129.102 2.35357 -1.87156 0
M  V30 1344 C 130.65 2.49021 -1.89624 0
M  V30 1345 C 131.125 3.49468 -2.96034 0
M  V30 1346 N 132.616 3.57003 -2.95132 0
M  V30 1347 C 133.351 4.34543 -3.74112 0
M  V30 1348 N 132.847 5.15421 -4.6294 0
M  V30 1349 N 134.64 4.29625 -3.62462 0
M  V30 1350 H 126.791 0.78584 -1.97328 0
M  V30 1351 H 129.054 0.408065 -0.855679 0
M  V30 1352 H 128.76 2.02626 -2.87464 0
M  V30 1353 H 128.634 3.35129 -1.73114 0
M  V30 1354 H 131.021 2.81051 -0.899687 0
M  V30 1355 H 131.102 1.4925 -2.07745 0
M  V30 1356 H 130.746 3.18173 -3.95889 0
M  V30 1357 H 130.676 4.48992 -2.75161 0
M  V30 1358 H 133.167 2.99276 -2.30743 0
M  V30 1359 H 133.48 5.7183 -5.19837 0
M  V30 1360 H 131.825 5.14729 -4.66989 0
M  V30 1361 H 135.016 3.65505 -2.92444 0
M  V30 1362 H 135.189 4.89807 -4.24256 0
M  V30 1363 N 128.595 0.856903 1.32268 0
M  V30 1364 C 129.543 0.291987 2.3076 0
M  V30 1365 C 130.537 -0.585857 1.58947 0
M  V30 1366 O 131.743 -0.47341 1.73663 0
M  V30 1367 H 128.118 0.075721 0.748178 0
M  V30 1368 H 130.089 1.13687 2.75895 0
M  V30 1369 C 128.838 -0.502869 3.44044 0
M  V30 1370 H 128.161 0.163328 3.99466 0
M  V30 1371 H 129.601 -0.863691 4.1511 0
M  V30 1372 C 128.06 -1.68898 2.91505 0
M  V30 1373 O 128.59 -2.78811 2.89184 0
M  V30 1374 N 126.796 -1.51679 2.47875 0
M  V30 1375 H 126.343 -0.622666 2.49961 0
M  V30 1376 H 126.301 -2.31184 2.13076 0
M  V30 1377 N 130.073 -1.45103 0.615059 0
M  V30 1378 C 131.003 -2.33339 -0.0865619 0
M  V30 1379 C 131.984 -1.4727 -0.851209 0
M  V30 1380 O 133.169 -1.76026 -0.820281 0
M  V30 1381 C 130.299 -3.30095 -1.07956 0
M  V30 1382 C 129.253 -4.25858 -0.427628 0
M  V30 1383 C 128.579 -5.12361 -1.5294 0
M  V30 1384 C 129.879 -5.18165 0.655944 0
M  V30 1385 H 131.573 -2.92254 0.650224 0
M  V30 1386 H 129.119 -1.40532 0.314138 0
M  V30 1387 H 131.072 -3.90698 -1.57901 0
M  V30 1388 H 129.796 -2.69355 -1.84703 0
M  V30 1389 H 128.455 -3.66564 0.0510292 0
M  V30 1390 H 128.103 -4.47984 -2.28734 0
M  V30 1391 H 127.803 -5.77238 -1.09865 0
M  V30 1392 H 129.327 -5.75833 -2.03098 0
M  V30 1393 H 130.741 -5.72796 0.240257 0
M  V30 1394 H 129.138 -5.91559 1.00888 0
M  V30 1395 H 130.208 -4.60144 1.52957 0
M  V30 1396 N 131.551 -0.354651 -1.53558 0
M  V30 1397 C 132.481 0.489091 -2.2832 0
M  V30 1398 C 133.462 1.09324 -1.30316 0
M  V30 1399 O 134.647 1.11255 -1.59173 0
M  V30 1400 C 131.777 1.63456 -3.0643 0
M  V30 1401 C 130.731 1.1582 -4.12031 0
M  V30 1402 C 130.057 2.39305 -4.7816 0
M  V30 1403 C 131.357 0.250731 -5.21698 0
M  V30 1404 H 133.051 -0.134614 -2.99097 0
M  V30 1405 H 130.597 -0.0661826 -1.43848 0
M  V30 1406 H 132.55 2.23136 -3.57475 0
M  V30 1407 H 131.274 2.28533 -2.33325 0
M  V30 1408 H 129.933 0.584146 -3.61916 0
M  V30 1409 H 129.581 3.02814 -4.01637 0
M  V30 1410 H 129.281 2.08109 -5.49513 0
M  V30 1411 H 130.805 2.99691 -5.31994 0
M  V30 1412 H 132.219 0.754695 -5.68311 0
M  V30 1413 H 130.616 0.0301468 -6.00092 0
M  V30 1414 H 131.686 -0.710125 -4.79672 0
M  V30 1415 N 133.029 1.57378 -0.0835403 0
M  V30 1416 C 134.257 1.98263 0.59157 0
M  V30 1417 C 134.672 0.962302 1.62435 0
M  V30 1418 O 134.029 -0.049581 1.82433 0
M  V30 1419 C 134.08 3.39214 1.24965 0
M  V30 1420 O 133.801 4.37339 0.258186 0
M  V30 1421 C 135.302 3.95038 2.01147 0
M  V30 1422 H 132.522 0.651773 0.159477 0
M  V30 1423 H 135.066 2.03878 -0.159415 0
M  V30 1424 H 133.221 3.34649 1.95164 0
M  V30 1425 H 133.635 5.19371 0.731734 0
M  V30 1426 H 135.109 4.95848 2.42567 0
M  V30 1427 H 135.586 3.32222 2.87272 0
M  V30 1428 H 136.192 4.0304 1.35789 0
M  V30 1429 N 134.507 -0.190092 1.56449 0
M  V30 1430 C 135.439 -1.25973 1.91477 0
M  V30 1431 C 136.452 -1.41452 0.805931 0
M  V30 1432 O 137.641 -1.41789 1.08435 0
M  V30 1433 C 134.741 -2.63117 2.13594 0
M  V30 1434 C 133.914 -2.69182 3.4476 0
M  V30 1435 C 132.973 -3.87557 3.5593 0
M  V30 1436 O 131.999 -3.74427 4.28711 0
M  V30 1437 N 133.201 -5.03224 2.89388 0
M  V30 1438 H 135.966 -0.962394 2.83828 0
M  V30 1439 H 133.527 -0.379981 1.57378 0
M  V30 1440 H 135.519 -3.40742 2.1835 0
M  V30 1441 H 134.089 -2.85319 1.27719 0
M  V30 1442 H 133.309 -1.77793 3.51828 0
M  V30 1443 H 134.597 -2.70229 4.31107 0
M  V30 1444 H 133.995 -5.16791 2.30094 0
M  V30 1445 H 132.552 -5.78778 2.99764 0
M  V30 1446 N 135.985 -1.50799 -0.457987 0
M  V30 1447 C 136.915 -1.73553 -1.5621 0
M  V30 1448 C 137.896 -0.584774 -1.59732 0
M  V30 1449 O 139.081 -0.825314 -1.7579 0
M  V30 1450 C 136.211 -1.84169 -2.94447 0
M  V30 1451 C 135.165 -2.99461 -3.0579 0
M  V30 1452 C 134.491 -2.95235 -4.45803 0
M  V30 1453 C 135.791 -4.39766 -2.81786 0
M  V30 1454 H 137.485 -2.66 -1.37421 0
M  V30 1455 H 135.031 -1.28002 -0.659662 0
M  V30 1456 H 136.984 -1.98672 -3.71628 0
M  V30 1457 H 135.708 -0.883545 -3.14422 0
M  V30 1458 H 134.367 -2.8463 -2.31044 0
M  V30 1459 H 134.015 -1.97239 -4.62715 0
M  V30 1460 H 133.715 -3.72642 -4.54326 0
M  V30 1461 H 135.239 -3.11803 -5.24987 0
M  V30 1462 H 136.653 -4.55054 -3.4871 0
M  V30 1463 H 135.05 -5.18722 -3.0174 0
M  V30 1464 H 136.12 -4.51229 -1.7754 0
M  V30 1465 N 137.463 0.71206 -1.40597 0
M  V30 1466 C 138.711 1.46907 -1.38791 0
M  V30 1467 C 139.032 1.94998 0.00780391 0
M  V30 1468 O 138.302 1.70587 0.963174 0
M  V30 1469 H 136.882 0.545043 -0.51082 0
M  V30 1470 H 139.544 0.843882 -1.75683 0
M  V30 1471 H 138.64 2.34021 -2.06496 0
M  V30 1472 N 138.941 1.26152 0.944643 0
M  V30 1473 C 140.181 1.12708 1.70517 0
M  V30 1474 C 140.545 -0.324727 1.89234 0
M  V30 1475 O 141.746 -0.581211 2.62441 0
M  V30 1476 C 140.017 1.8713 3.04495 0
M  V30 1477 S 141.576 1.89698 3.95677 0
M  V30 1478 H 138.394 0.402665 0.585988 0
M  V30 1479 H 140.996 1.59821 1.12594 0
M  V30 1480 H 139.7 2.91833 2.88551 0
M  V30 1481 H 139.231 1.40444 3.67477 0
M  V30 1482 H 141.246 0.981198 4.86402 0
M  V30 1483 N 140.419 -1.14872 1.07899 0
M  V30 1484 C 141.647 -1.89661 0.82683 0
M  V30 1485 C 142.062 -1.78312 -0.620519 0
M  V30 1486 O 141.419 -1.13888 -1.42604 0
M  V30 1487 C 141.47 -3.39817 1.23316 0
M  V30 1488 O 141.191 -3.50845 2.62372 0
M  V30 1489 C 142.692 -4.31615 1.0111 0
M  V30 1490 H 139.912 -0.60092 0.298557 0
M  V30 1491 H 142.456 -1.4551 1.43691 0
M  V30 1492 H 140.611 -3.8161 0.667286 0
M  V30 1493 H 141.025 -4.44076 2.79101 0
M  V30 1494 H 142.499 -5.35367 1.34486 0
M  V30 1495 H 142.976 -4.39169 -0.0522168 0
M  V30 1496 H 143.582 -3.95572 1.56215 0
M  V30 1497 N 141.898 -0.863906 -1.31812 0
M  V30 1498 C 142.828 -0.330843 -2.31144 0
M  V30 1499 C 143.809 0.575005 -1.60087 0
M  V30 1500 O 144.994 0.493304 -1.8783 0
M  V30 1501 C 142.124 0.47374 -3.44054 0
M  V30 1502 C 141.078 -0.338481 -4.26659 0
M  V30 1503 C 140.404 0.591412 -5.31419 0
M  V30 1504 C 141.704 -1.56926 -4.98168 0
M  V30 1505 H 143.398 -1.16086 -2.75979 0
M  V30 1506 H 140.944 -0.559657 -1.32679 0
M  V30 1507 H 142.897 0.857143 -4.12591 0
M  V30 1508 H 141.621 1.33721 -2.9797 0
M  V30 1509 H 140.28 -0.703754 -3.59782 0
M  V30 1510 H 139.928 1.45199 -4.81587 0
M  V30 1511 H 139.628 0.0519022 -5.87577 0
M  V30 1512 H 141.152 0.97179 -6.02817 0
M  V30 1513 H 142.566 -1.25764 -5.59336 0
M  V30 1514 H 140.963 -2.04739 -5.64094 0
M  V30 1515 H 142.033 -2.32544 -4.25501 0
M  V30 1516 N 143.376 1.44774 -0.622745 0
M  V30 1517 C 144.324 2.32387 0.0994683 0
M  V30 1518 C 145.318 1.46859 0.844326 0
M  V30 1519 O 146.524 1.63254 0.758174 0
M  V30 1520 H 142.899 0.750273 0.0509291 0
M  V30 1521 H 144.87 2.91062 -0.65767 0
M  V30 1522 C 143.619 3.30723 1.07319 0
M  V30 1523 H 142.942 3.96541 0.509462 0
M  V30 1524 H 144.382 3.94725 1.54817 0
M  V30 1525 C 142.841 2.59021 2.15429 0
M  V30 1526 O 143.371 2.38286 3.23393 0
M  V30 1527 N 141.577 2.189 1.91131 0
M  V30 1528 H 141.124 2.35964 1.03337 0
M  V30 1529 H 141.082 1.71251 2.63668 0
M  V30 1530 N 144.854 0.36279 1.53368 0
M  V30 1531 C 146.101 -0.227776 2.01215 0
M  V30 1532 C 146.429 -1.49003 1.25014 0
M  V30 1533 O 145.684 -1.92876 0.331236 0
M  V30 1534 C 145.983 -0.568417 3.52851 0
M  V30 1535 C 145.649 0.59918 4.46901 0
M  V30 1536 C 144.311 0.919559 4.72332 0
M  V30 1537 C 146.663 1.38156 5.02556 0
M  V30 1538 C 143.991 2.02434 5.5067 0
M  V30 1539 C 146.343 2.47674 5.821 0
M  V30 1540 C 145.007 2.8025 6.05819 0
M  V30 1541 H 144.277 -0.083349 0.736297 0
M  V30 1542 H 146.924 0.494677 1.85001 0
M  V30 1543 H 145.229 -1.37185 3.66998 0
M  V30 1544 H 146.926 -1.03756 3.87344 0
M  V30 1545 H 143.516 0.339437 4.27254 0
M  V30 1546 H 147.7 1.14729 4.82857 0
M  V30 1547 H 142.956 2.28075 5.67267 0
M  V30 1548 H 147.13 3.08716 6.24234 0
M  V30 1549 H 144.757 3.65979 6.66306 0
M  V30 1550 O 146.371 -1.59827 0.231878 0
M  V30 1551 H 147.062 -1.90573 -0.346636 0
M  V30 END ATOM
M  V30 BEGIN BOND
M  V30 END BOND
M  V30 END CTAB
M  END
$$$$
