drugbank_target|P48729 Casein kinase I isoform alpha (DB12010)
 OpenBabel12092121153D

  0  0  0     0  0            999 V3000
M  V30 BEGIN CTAB
M  V30 COUNTS 5490 5549 0 0 0
M  V30 BEGIN ATOM
M  V30 1 H -0.908 1.98254 -0.117106 0
M  V30 2 N 0 1.576 0 0
M  V30 3 C 0.933 2.03868 1.02534 0
M  V30 4 C 1.911 0.928543 1.3348 0
M  V30 5 O 3.095 1.19667 1.45644 0
M  V30 6 C 0.222 2.43627 2.35294 0
M  V30 7 C -0.732 3.65373 2.2001 0
M  V30 8 S 0.101 5.13292 1.52614 0
M  V30 9 C 1.257 5.56322 2.86805 0
M  V30 10 H 1.49 2.90518 0.631377 0
M  V30 11 H -0.977 1.52953 0.210867 0
M  V30 12 H 0.981 2.67203 3.11629 0
M  V30 13 H -0.358 1.57376 2.7183 0
M  V30 14 H -1.165 3.90944 3.18086 0
M  V30 15 H -1.563 3.418 1.51819 0
M  V30 16 H 0.729 5.58782 3.83104 0
M  V30 17 H 1.672 6.56266 2.65933 0
M  V30 18 H 2.08 4.83886 2.90714 0
M  V30 19 N 1.4781 -0.272755 1.55222 0
M  V30 20 C 2.4411 -1.32041 1.87344 0
M  V30 21 C 3.4411 -1.42342 0.74803 0
M  V30 22 O 4.6311 -1.41488 1.0162 0
M  V30 23 C 1.7631 -2.70173 2.07893 0
M  V30 24 H 2.9561 -1.04789 2.80997 0
M  V30 25 H 0.5091 -0.51083 1.47717 0
M  V30 26 H 1.2441 -3.02605 1.16622 0
M  V30 27 H 1.0291 -2.64082 2.89833 0
M  V30 28 H 2.5191 -3.45869 2.34017 0
M  V30 29 N 2.9562 -1.48159 -0.537278 0
M  V30 30 C 4.1812 -1.59707 -1.32319 0
M  V30 31 C 4.6062 -0.254859 -1.86365 0
M  V30 32 O 3.9642 0.772378 -1.64024 0
M  V30 33 C 4.0122 -2.6412 -2.45505 0
M  V30 34 O 3.1162 -2.20774 -3.48328 0
M  V30 35 H 2.4572 -0.535791 -0.392204 0
M  V30 36 H 4.9872 -1.94092 -0.647268 0
M  V30 37 H 4.9972 -2.85166 -2.91795 0
M  V30 38 H 3.6722 -3.61567 -2.05528 0
M  V30 39 H 2.2492 -2.09911 -3.08207 0
M  V30 40 N 4.4343 0.785586 -1.36625 0
M  V30 41 C 5.6593 1.57963 -1.34397 0
M  V30 42 C 6.0843 1.87964 0.071526 0
M  V30 43 O 5.4423 1.48182 1.0446 0
M  V30 44 C 5.4903 2.87511 -2.17646 0
M  V30 45 O 4.5943 3.81281 -1.57158 0
M  V30 46 H 3.9353 0.479014 -0.459828 0
M  V30 47 H 6.4653 0.973411 -1.79961 0
M  V30 48 H 6.4753 3.36745 -2.30362 0
M  V30 49 H 5.1503 2.65002 -3.20541 0
M  V30 50 H 3.7273 3.39885 -1.53403 0
M  V30 51 N 5.9124 1.20967 1.01018 0
M  V30 52 C 7.1374 1.0503 1.78839 0
M  V30 53 C 7.5624 -0.395752 1.8389 0
M  V30 54 O 6.9204 -1.28529 1.27867 0
M  V30 55 C 6.9684 1.64602 3.2084 0
M  V30 56 O 6.0724 0.887988 4.02726 0
M  V30 57 H 5.4134 0.369987 0.551367 0
M  V30 58 H 7.9434 1.60399 1.27018 0
M  V30 59 H 7.9534 1.68607 3.71532 0
M  V30 60 H 6.6284 2.69841 3.16479 0
M  V30 61 H 5.2054 0.922648 3.61305 0
M  V30 62 N 7.3905 -1.2043 1.01659 0
M  V30 63 C 8.6385 -1.89423 0.704522 0
M  V30 64 C 8.9595 -1.79231 -0.768197 0
M  V30 65 O 8.2295 -1.1947 -1.55254 0
M  V30 66 H 6.8095 -0.701178 0.257602 0
M  V30 67 H 9.4715 -1.4626 1.28818 0
M  V30 68 H 8.5675 -2.96052 0.987916 0
M  V30 69 N 8.8686 -0.792821 -1.36206 0
M  V30 70 C 10.0936 -0.377701 -2.03932 0
M  V30 71 C 10.5186 0.998947 -1.59382 0
M  V30 72 O 9.8766 1.64421 -0.763903 0
M  V30 73 C 9.9246 -0.453635 -3.57735 0
M  V30 74 O 9.0286 0.538151 -4.08874 0
M  V30 75 H 8.3696 -0.159855 -0.644471 0
M  V30 76 H 10.8996 -1.07488 -1.7409 0
M  V30 77 H 10.9096 -0.318464 -4.06755 0
M  V30 78 H 9.5846 -1.45784 -3.89512 0
M  V30 79 H 8.1616 0.364359 -3.71116 0
M  V30 80 N 10.3467 1.47872 -0.545128 0
M  V30 81 C 11.2937 2.29849 0.2093 0
M  V30 82 C 12.2637 1.38313 0.919707 0
M  V30 83 O 13.4487 1.67277 0.917772 0
M  V30 84 C 10.5887 3.22019 1.24088 0
M  V30 85 C 9.7017 4.2864 0.537778 0
M  V30 86 C 8.8367 5.07973 1.5536 0
M  V30 87 C 7.8757 6.06381 0.8348 0
M  V30 88 N 7.0127 6.78717 1.79688 0
M  V30 89 H 11.8527 2.93845 -0.49591 0
M  V30 90 H 9.3897 1.44848 -0.256389 0
M  V30 91 H 11.3477 3.73868 1.85144 0
M  V30 92 H 9.9777 2.59914 1.91428 0
M  V30 93 H 9.0297 3.7994 -0.187046 0
M  V30 94 H 10.3417 4.98793 -0.0258907 0
M  V30 95 H 9.4957 5.63912 2.23803 0
M  V30 96 H 8.2347 4.37693 2.15118 0
M  V30 97 H 7.2397 5.49631 0.136388 0
M  V30 98 H 8.4647 6.78665 0.24313 0
M  V30 99 H 6.4107 6.11177 2.38326 0
M  V30 100 H 6.3277 7.44998 1.28505 0
M  V30 101 H 7.5957 7.39237 2.47282 0
M  V30 102 N 11.8248 0.280983 1.55075 0
M  V30 103 C 12.7878 -0.590896 2.21452 0
M  V30 104 C 13.7878 -1.07682 1.19421 0
M  V30 105 O 14.9778 -0.97605 1.44288 0
M  V30 106 C 12.1098 -1.81587 2.88511 0
M  V30 107 H 13.3028 -0.0112554 2.99898 0
M  V30 108 H 10.8558 0.0316438 1.56268 0
M  V30 109 H 11.5908 -2.43587 2.14093 0
M  V30 110 H 11.3758 -1.4753 3.63287 0
M  V30 111 H 12.8658 -2.43575 3.39206 0
M  V30 112 N 13.3029 -1.57598 0.00835791 0
M  V30 113 C 14.2129 -2.12385 -0.996487 0
M  V30 114 C 15.2289 -1.07108 -1.37127 0
M  V30 115 O 16.4049 -1.39055 -1.4569 0
M  V30 116 C 13.4699 -2.62314 -2.26699 0
M  V30 117 C 12.5309 -3.82225 -1.95456 0
M  V30 118 C 11.7639 -4.29763 -3.16449 0
M  V30 119 O 11.9869 -3.76584 -4.28416 0
M  V30 120 O 10.9209 -5.21832 -2.99958 0
M  V30 121 H 14.7469 -2.98479 -0.560725 0
M  V30 122 H 12.3319 -1.47903 -0.210987 0
M  V30 123 H 14.2139 -2.94589 -3.01322 0
M  V30 124 H 12.8889 -1.79313 -2.69497 0
M  V30 125 H 11.7959 -3.54909 -1.18282 0
M  V30 126 H 13.1289 -4.66324 -1.57489 0
M  V30 127 N 14.781 0.264519 -1.55364 0
M  V30 128 C 16.028 0.994986 -1.7637 0
M  V30 129 C 16.356 1.85976 -0.5695 0
M  V30 130 O 15.611 1.90509 0.44776 0
M  V30 131 C 15.91 1.9004 -3.02687 0
M  V30 132 C 15.576 1.19243 -4.34847 0
M  V30 133 C 14.238 0.996709 -4.70764 0
M  V30 134 C 16.59 0.689296 -5.16622 0
M  V30 135 C 13.918 0.285261 -5.86006 0
M  V30 136 C 16.27 -0.00860079 -6.32599 0
M  V30 137 C 14.934 -0.215963 -6.67151 0
M  V30 138 H 14.204 0.364091 -0.645383 0
M  V30 139 H 16.851 0.266543 -1.89636 0
M  V30 140 H 15.156 2.69533 -2.84357 0
M  V30 141 H 16.853 2.46695 -3.16137 0
M  V30 142 H 13.443 1.3549 -4.06621 0
M  V30 143 H 17.627 0.828108 -4.89342 0
M  V30 144 H 12.883 0.113961 -6.11294 0
M  V30 145 H 17.057 -0.406186 -6.95214 0
M  V30 146 H 14.684 -0.769217 -7.56298 0
M  V30 147 N 16.2591 1.48442 0.529413 0
M  V30 148 C 17.5081 1.55742 1.28169 0
M  V30 149 C 17.8211 0.236511 1.94165 0
M  V30 150 O 19.0271 0.187761 2.7085 0
M  V30 151 C 17.4831 2.74667 2.32564 0
M  V30 152 C 17.0911 4.13402 1.72636 0
M  V30 153 C 18.8351 2.9128 3.08798 0
M  V30 154 C 16.7421 5.23587 2.74975 0
M  V30 155 H 15.6721 0.579796 0.48203 0
M  V30 156 H 18.3231 1.74776 0.559056 0
M  V30 157 H 16.7051 2.49067 3.07866 0
M  V30 158 H 17.8791 4.49022 1.03519 0
M  V30 159 H 16.1941 4.0191 1.08892 0
M  V30 160 H 18.7911 3.70767 3.85274 0
M  V30 161 H 19.1341 2.00757 3.64695 0
M  V30 162 H 19.6671 3.16782 2.40611 0
M  V30 163 H 16.4061 6.16076 2.23897 0
M  V30 164 H 15.9261 4.92454 3.42417 0
M  V30 165 H 17.6051 5.51724 3.37949 0
M  V30 166 N 17.7372 -0.778329 1.37039 0
M  V30 167 C 18.9832 -1.53892 1.32079 0
M  V30 168 C 19.3162 -1.9396 -0.0965386 0
M  V30 169 O 18.5912 -1.63568 -1.05242 0
M  V30 170 C 18.8742 -2.80847 2.25382 0
M  V30 171 C 18.7272 -2.47076 3.75864 0
M  V30 172 C 20.0462 -3.82741 2.1725 0
M  V30 173 H 17.1652 -0.558303 0.48111 0
M  V30 174 H 19.8072 -0.893397 1.67685 0
M  V30 175 H 17.9572 -3.35931 1.95148 0
M  V30 176 H 19.6292 -1.97957 4.16666 0
M  V30 177 H 17.8722 -1.79863 3.94755 0
M  V30 178 H 18.5432 -3.37798 4.36574 0
M  V30 179 H 21.0192 -3.37133 2.43887 0
M  V30 180 H 19.8952 -4.69303 2.84686 0
M  V30 181 H 20.1562 -4.2652 1.16331 0
M  V30 182 N 19.2153 -1.21501 -1.00376 0
M  V30 183 C 20.4633 -1.03095 -1.73827 0
M  V30 184 C 20.7843 0.436341 -1.90055 0
M  V30 185 O 20.0543 1.31466 -1.45236 0
M  V30 186 H 18.6343 -0.378487 -0.644016 0
M  V30 187 H 21.2963 -1.52831 -1.20949 0
M  V30 188 H 20.3923 -1.49991 -2.73695 0
M  V30 189 N 20.6934 1.19889 -1.02296 0
M  V30 190 C 21.9414 1.89046 -0.714558 0
M  V30 191 C 22.2624 1.79636 0.758681 0
M  V30 192 O 21.5324 1.20292 1.54618 0
M  V30 193 H 20.1124 0.699802 -0.261317 0
M  V30 194 H 22.7744 1.45574 -1.29592 0
M  V30 195 H 21.8704 2.95524 -1.0036 0
M  V30 196 N 22.1715 0.800033 1.35784 0
M  V30 197 C 23.1185 0.203848 2.29898 0
M  V30 198 C 24.0885 -0.658375 1.52495 0
M  V30 199 O 25.2735 -0.604832 1.8096 0
M  V30 200 C 22.4135 -0.64688 3.38983 0
M  V30 201 C 21.5265 0.235054 4.3136 0
M  V30 202 C 20.6615 -0.623054 5.27533 0
M  V30 203 C 19.7005 0.259682 6.11549 0
M  V30 204 N 18.8375 -0.558019 6.99879 0
M  V30 205 H 23.6775 1.01186 2.80295 0
M  V30 206 H 21.2145 0.51053 1.37957 0
M  V30 207 H 23.1725 -1.15521 4.00887 0
M  V30 208 H 21.8025 -1.42021 2.89879 0
M  V30 209 H 20.8545 0.861438 3.70518 0
M  V30 210 H 22.1665 0.914768 4.9034 0
M  V30 211 H 21.3205 -1.19678 5.94779 0
M  V30 212 H 20.0595 -1.33636 4.69034 0
M  V30 213 H 19.0645 0.845726 5.43256 0
M  V30 214 H 20.2895 0.970748 6.72126 0
M  V30 215 H 18.2355 -1.25542 6.43875 0
M  V30 216 H 18.1525 0.0637872 7.55973 0
M  V30 217 H 19.4205 -1.11523 7.71481 0
M  V30 218 N 23.6496 -1.47581 0.552962 0
M  V30 219 C 24.8796 -2.06575 0.0320091 0
M  V30 220 C 25.2876 -1.4067 -1.26525 0
M  V30 221 O 24.6306 -0.495808 -1.76883 0
M  V30 222 C 24.6926 -3.58705 -0.238913 0
M  V30 223 C 24.3566 -4.46625 0.968272 0
M  V30 224 C 25.3536 -4.85 1.87274 0
M  V30 225 C 23.0386 -4.88201 1.18175 0
M  V30 226 C 25.0326 -5.63745 2.9744 0
M  V30 227 C 22.7196 -5.66712 2.28651 0
M  V30 228 C 23.7176 -6.04394 3.18114 0
M  V30 229 O 23.4056 -6.81324 4.26676 0
M  V30 230 H 23.1376 -0.674763 0.0408689 0
M  V30 231 H 25.6916 -1.90634 0.764719 0
M  V30 232 H 23.9216 -3.72844 -1.02588 0
M  V30 233 H 25.6106 -3.99735 -0.704731 0
M  V30 234 H 26.3766 -4.53482 1.71984 0
M  V30 235 H 22.2556 -4.58339 0.494593 0
M  V30 236 H 25.7996 -5.93077 3.67296 0
M  V30 237 H 21.6966 -5.97642 2.43915 0
M  V30 238 H 22.4646 -6.99712 4.24671 0
M  V30 239 N 25.1277 -0.289203 -1.54924 0
M  V30 240 C 26.0747 0.592115 -2.23075 0
M  V30 241 C 27.0447 1.13881 -1.20915 0
M  V30 242 O 28.2297 1.18551 -1.495 0
M  V30 243 C 25.3697 1.76376 -2.96623 0
M  V30 244 C 24.4827 1.24959 -4.13533 0
M  V30 245 C 23.6177 2.38416 -4.74691 0
M  V30 246 C 22.6567 1.84072 -5.83767 0
M  V30 247 N 21.7937 2.91057 -6.38929 0
M  V30 248 H 26.6337 0.00432038 -2.98 0
M  V30 249 H 24.1707 -0.00963529 -1.47097 0
M  V30 250 H 26.1287 2.45268 -3.3749 0
M  V30 251 H 24.7587 2.32337 -2.24097 0
M  V30 252 H 23.8107 0.453307 -3.77689 0
M  V30 253 H 25.1227 0.811662 -4.92152 0
M  V30 254 H 24.2767 3.15276 -5.18349 0
M  V30 255 H 23.0157 2.8553 -3.95378 0
M  V30 256 H 22.0207 1.05697 -5.39545 0
M  V30 257 H 23.2457 1.37877 -6.64956 0
M  V30 258 H 21.1917 3.37526 -5.62505 0
M  V30 259 H 21.1087 2.51724 -7.12861 0
M  V30 260 H 22.3767 3.6785 -6.87246 0
M  V30 261 N 26.6058 1.57591 -0.0167156 0
M  V30 262 C 27.5358 2.12496 0.967858 0
M  V30 263 C 28.5168 1.03807 1.34752 0
M  V30 264 O 29.7018 1.31577 1.42833 0
M  V30 265 C 26.8318 2.64194 2.25431 0
M  V30 266 C 25.7858 3.77559 2.01576 0
M  V30 267 C 25.1118 4.15636 3.36379 0
M  V30 268 C 26.4118 5.04151 1.36489 0
M  V30 269 H 28.1058 2.95013 0.510643 0
M  V30 270 H 25.6518 1.41915 0.244181 0
M  V30 271 H 27.6048 3.01236 2.94678 0
M  V30 272 H 26.3288 1.78821 2.73296 0
M  V30 273 H 24.9878 3.40937 1.34751 0
M  V30 274 H 24.6358 3.27263 3.81979 0
M  V30 275 H 24.3358 4.92022 3.21229 0
M  V30 276 H 25.8598 4.5525 4.06915 0
M  V30 277 H 27.2738 5.38857 1.95718 0
M  V30 278 H 25.6708 5.85453 1.31776 0
M  V30 279 H 26.7408 4.83733 0.336219 0
M  V30 280 N 28.0839 -0.256276 1.55502 0
M  V30 281 C 29.3299 -0.987079 1.77157 0
M  V30 282 C 29.6629 -1.85327 0.580315 0
M  V30 283 O 28.9379 -1.89874 -0.421686 0
M  V30 284 C 29.2209 -1.85553 3.08613 0
M  V30 285 C 29.0739 -1.01816 4.38125 0
M  V30 286 C 30.3929 -2.8397 3.36228 0
M  V30 287 H 27.5119 -0.357428 0.644526 0
M  V30 288 H 30.1539 -0.258239 1.88237 0
M  V30 289 H 28.3039 -2.47695 2.99298 0
M  V30 290 H 29.9759 -0.416159 4.59419 0
M  V30 291 H 28.2189 -0.322178 4.32602 0
M  V30 292 H 28.8899 -1.65939 5.26468 0
M  V30 293 H 31.3659 -2.31964 3.45445 0
M  V30 294 H 30.2419 -3.41864 4.29442 0
M  V30 295 H 30.5029 -3.59955 2.56681 0
M  V30 296 N 29.562 -1.4872 -0.521534 0
M  V30 297 C 30.978 -1.35028 -0.850855 0
M  V30 298 C 31.178 -0.367712 -1.98116 0
M  V30 299 O 30.234 0.208037 -2.51642 0
M  V30 300 C 31.547 -2.75263 -1.21041 0
M  V30 301 C 33.095 -2.83813 -1.31981 0
M  V30 302 C 33.57 -4.24769 -1.71276 0
M  V30 303 N 35.061 -4.27482 -1.78363 0
M  V30 304 C 35.796 -5.33494 -2.1017 0
M  V30 305 N 35.292 -6.49775 -2.40343 0
M  V30 306 N 37.085 -5.20894 -2.11248 0
M  V30 307 H 29.236 -2.11214 0.22413 0
M  V30 308 H 31.499 -0.947252 0.0376439 0
M  V30 309 H 31.205 -3.48765 -0.453415 0
M  V30 310 H 31.079 -3.09327 -2.15863 0
M  V30 311 H 33.466 -2.10561 -2.06756 0
M  V30 312 H 33.547 -2.53358 -0.352596 0
M  V30 313 H 33.191 -4.9854 -0.970588 0
M  V30 314 H 33.121 -4.52673 -2.69062 0
M  V30 315 H 35.612 -3.43611 -1.57288 0
M  V30 316 H 35.925 -7.26402 -2.63743 0
M  V30 317 H 34.27 -6.53035 -2.37844 0
M  V30 318 H 37.461 -4.29065 -1.87139 0
M  V30 319 H 37.634 -6.03612 -2.35704 0
M  V30 320 N 31.0401 0.771051 -1.3745 0
M  V30 321 C 31.9871 1.88435 -1.3327 0
M  V30 322 C 32.9571 1.64914 -0.198136 0
M  V30 323 O 34.1421 1.86821 -0.387606 0
M  V30 324 C 31.2821 3.25509 -1.14622 0
M  V30 325 C 30.3951 3.60979 -2.37314 0
M  V30 326 C 29.5301 4.87265 -2.11533 0
M  V30 327 C 28.5691 5.15469 -3.30088 0
M  V30 328 N 27.7061 6.32944 -3.03853 0
M  V30 329 H 32.5461 1.91344 -2.28455 0
M  V30 330 H 30.0831 0.935466 -1.13523 0
M  V30 331 H 32.0411 4.04582 -1.01831 0
M  V30 332 H 30.6711 3.21974 -0.230837 0
M  V30 333 H 29.7231 2.76885 -2.60842 0
M  V30 334 H 31.0351 3.77759 -3.25729 0
M  V30 335 H 30.1891 5.74244 -1.95777 0
M  V30 336 H 28.9281 4.7259 -1.20457 0
M  V30 337 H 27.9331 4.26966 -3.46382 0
M  V30 338 H 29.1581 5.32052 -4.22016 0
M  V30 339 H 27.1041 6.19625 -2.15407 0
M  V30 340 H 27.0211 6.50143 -3.85812 0
M  V30 341 H 28.2891 7.22857 -2.91716 0
M  V30 342 N 32.5182 1.22032 0.997298 0
M  V30 343 C 33.7672 1.03637 1.73038 0
M  V30 344 C 34.0802 -0.429475 1.90827 0
M  V30 345 O 35.2862 -0.732995 2.61418 0
M  V30 346 C 33.7422 1.80582 3.11317 0
M  V30 347 C 33.3502 3.31387 3.01474 0
M  V30 348 C 35.0942 1.70621 3.88701 0
M  V30 349 C 33.0012 4.00791 4.3488 0
M  V30 350 H 31.9312 0.384179 0.648785 0
M  V30 351 H 34.5822 1.4584 1.11368 0
M  V30 352 H 32.9642 1.31175 3.73643 0
M  V30 353 H 34.1382 3.88155 2.4834 0
M  V30 354 H 32.4532 3.41976 2.37575 0
M  V30 355 H 35.0502 2.19799 4.87434 0
M  V30 356 H 35.3932 0.665823 4.10941 0
M  V30 357 H 35.9262 2.17547 3.33044 0
M  V30 358 H 32.6652 5.05064 4.1784 0
M  V30 359 H 32.1852 3.48811 4.87945 0
M  V30 360 H 33.8642 4.06139 5.03647 0
M  V30 361 N 33.9963 -1.19345 1.0293 0
M  V30 362 C 35.2443 -1.88665 0.724574 0
M  V30 363 C 35.5653 -1.80036 -0.749144 0
M  V30 364 O 34.8353 -1.2111 -1.53978 0
M  V30 365 H 33.4153 -0.698406 0.265025 0
M  V30 366 H 36.0773 -1.44885 1.30362 0
M  V30 367 H 35.1733 -2.94987 1.01926 0
M  V30 368 N 35.4744 -0.807222 -1.35358 0
M  V30 369 C 36.6994 -0.399309 -2.0352 0
M  V30 370 C 37.1244 0.981986 -1.60433 0
M  V30 371 O 36.4824 1.63601 -0.781299 0
M  V30 372 C 36.5304 -0.491552 -3.57234 0
M  V30 373 O 35.6344 0.494754 -4.09421 0
M  V30 374 H 34.9754 -0.166682 -0.642739 0
M  V30 375 H 37.5054 -1.09328 -1.72941 0
M  V30 376 H 37.5154 -0.361588 -4.06395 0
M  V30 377 H 36.1904 -1.49907 -3.87944 0
M  V30 378 H 34.7674 0.324977 -3.71481 0
M  V30 379 N 36.9525 1.47285 -0.560781 0
M  V30 380 C 38.2005 2.02064 -0.0379868 0
M  V30 381 C 38.5215 1.43711 1.31803 0
M  V30 382 O 37.7915 0.61362 1.86042 0
M  V30 383 H 36.3715 0.746918 -0.0110531 0
M  V30 384 H 39.0335 1.80648 -0.731598 0
M  V30 385 H 38.1295 3.12064 0.0474463 0
M  V30 386 N 38.4306 0.297415 1.54768 0
M  V30 387 C 39.6556 -0.318435 2.04941 0
M  V30 388 C 40.0806 -1.4701 1.17345 0
M  V30 389 O 39.4386 -1.80436 0.176758 0
M  V30 390 C 39.4866 -0.755749 3.52592 0
M  V30 391 O 38.5906 -1.86088 3.68028 0
M  V30 392 H 37.9316 -0.062421 0.661059 0
M  V30 393 H 40.4616 0.438215 1.99852 0
M  V30 394 H 40.4716 -1.04552 3.94376 0
M  V30 395 H 39.1466 0.0867233 4.1581 0
M  V30 396 H 37.7236 -1.57193 3.38149 0
M  V30 397 N 39.9087 -1.5758 0.0250728 0
M  V30 398 C 41.1557 -1.91633 -0.654444 0
M  V30 399 C 41.4837 -0.901103 -1.72367 0
M  V30 400 O 40.7387 0.0905647 -1.9549 0
M  V30 401 C 41.0377 -3.32421 -1.31268 0
M  V30 402 C 40.7037 -4.49344 -0.374223 0
M  V30 403 C 39.3657 -4.8106 -0.115911 0
M  V30 404 C 41.7177 -5.20498 0.270432 0
M  V30 405 C 39.0457 -5.8129 0.79493 0
M  V30 406 C 41.3977 -6.21699 1.1693 0
M  V30 407 C 40.0617 -6.51859 1.43655 0
M  V30 408 H 39.3317 -0.701236 -0.239478 0
M  V30 409 H 41.9787 -1.91307 0.0859734 0
M  V30 410 H 40.2837 -3.28989 -2.12775 0
M  V30 411 H 41.9807 -3.56038 -1.84494 0
M  V30 412 H 38.5707 -4.24579 -0.58573 0
M  V30 413 H 42.7547 -4.96229 0.0839194 0
M  V30 414 H 38.0107 -6.03005 1.00973 0
M  V30 415 H 42.1847 -6.75955 1.67504 0
M  V30 416 H 39.8117 -7.2934 2.144 0
M  V30 417 N 41.3868 0.248026 -1.55636 0
M  V30 418 C 42.6348 0.974295 -1.77065 0
M  V30 419 C 42.9558 1.85897 -0.588849 0
M  V30 420 O 42.2258 1.91868 0.395407 0
M  V30 421 H 40.8058 0.362733 -0.653019 0
M  V30 422 H 43.4678 0.266244 -1.93073 0
M  V30 423 H 42.5638 1.59667 -2.68166 0
M  V30 424 N 42.8649 1.48995 0.513639 0
M  V30 425 C 44.1419 1.48338 1.27495 0
M  V30 426 C 44.5219 0.204065 2.10111 0
M  V30 427 O 43.8699 -0.813881 2.13514 0
M  V30 428 C 44.0799 2.75498 2.14247 0
M  V30 429 C 45.4279 3.24484 2.73852 0
M  V30 430 O 46.4519 2.76528 2.24523 0
M  V30 431 O 45.3109 4.07974 3.6362 0
M  V30 432 H 42.4049 0.593149 0.576284 0
M  V30 433 H 44.9509 1.61246 0.528948 0
M  V30 434 H 43.7229 3.60109 1.53092 0
M  V30 435 H 43.3459 2.6539 2.96064 0
M  V30 436 N 44.343 -0.763751 1.37857 0
M  V30 437 C 45.592 -1.51789 1.32827 0
M  V30 438 C 45.905 -1.95426 -0.0823719 0
M  V30 439 O 47.111 -2.70298 -0.255172 0
M  V30 440 C 45.567 -2.74133 2.33193 0
M  V30 441 C 45.175 -2.37562 3.79827 0
M  V30 442 C 46.919 -3.52054 2.37188 0
M  V30 443 C 44.826 -3.56456 4.71904 0
M  V30 444 H 43.756 -0.569896 0.493695 0
M  V30 445 H 46.407 -0.835822 1.63359 0
M  V30 446 H 44.789 -3.4427 1.9569 0
M  V30 447 H 45.963 -1.75157 4.26212 0
M  V30 448 H 44.278 -1.72798 3.78853 0
M  V30 449 H 46.875 -4.40437 3.03182 0
M  V30 450 H 47.218 -3.92486 1.38782 0
M  V30 451 H 47.751 -2.88921 2.7344 0
M  V30 452 H 44.49 -3.21099 5.71468 0
M  V30 453 H 44.01 -4.17938 4.30218 0
M  V30 454 H 45.689 -4.23168 4.89426 0
M  V30 455 N 45.8211 -1.22559 -0.990812 0
M  V30 456 C 47.0511 -1.07623 -1.76355 0
M  V30 457 C 47.4591 0.37601 -1.85426 0
M  V30 458 O 46.8021 1.27228 -1.32509 0
M  V30 459 C 46.8641 -1.61507 -3.21179 0
M  V30 460 C 46.5281 -3.10146 -3.35646 0
M  V30 461 C 47.5251 -4.07553 -3.22796 0
M  V30 462 C 45.2101 -3.49644 -3.60631 0
M  V30 463 C 47.2041 -5.42442 -3.34716 0
M  V30 464 C 44.8911 -4.84682 -3.72192 0
M  V30 465 C 45.8891 -5.8089 -3.59243 0
M  V30 466 O 45.5771 -7.13476 -3.70415 0
M  V30 467 H 45.3091 -0.377745 -0.560611 0
M  V30 468 H 47.8631 -1.62658 -1.25425 0
M  V30 469 H 46.0931 -1.00881 -3.73309 0
M  V30 470 H 47.7821 -1.42202 -3.80175 0
M  V30 471 H 48.5481 -3.78381 -3.03403 0
M  V30 472 H 44.4271 -2.75282 -3.69785 0
M  V30 473 H 47.9711 -6.17518 -3.24526 0
M  V30 474 H 43.8681 -5.13534 -3.91092 0
M  V30 475 H 44.6361 -7.21083 -3.87275 0
M  V30 476 N 47.2992 1.18797 -1.03562 0
M  V30 477 C 48.2292 2.24472 -0.643019 0
M  V30 478 C 49.2102 1.66433 0.351283 0
M  V30 479 O 50.3952 1.92803 0.232505 0
M  V30 480 C 47.5252 3.473 4.24935e-05 0
M  V30 481 C 46.4792 4.18055 -0.917257 0
M  V30 482 C 45.8052 5.34519 -0.138941 0
M  V30 483 C 47.1052 4.72109 -2.23407 0
M  V30 484 H 48.7992 2.57566 -1.52643 0
M  V30 485 H 46.3452 1.23806 -0.735394 0
M  V30 486 H 48.2982 4.20426 0.286383 0
M  V30 487 H 47.0222 3.13424 0.918299 0
M  V30 488 H 45.6812 3.46821 -1.1879 0
M  V30 489 H 45.3292 4.96891 0.781562 0
M  V30 490 H 45.0292 5.82794 -0.750005 0
M  V30 491 H 46.5532 6.10438 0.1405 0
M  V30 492 H 47.9672 5.36955 -2.00879 0
M  V30 493 H 46.3642 5.30897 -2.79765 0
M  V30 494 H 47.4342 3.89807 -2.88407 0
M  V30 495 N 48.7773 0.814389 1.34928 0
M  V30 496 C 49.7403 0.235759 2.27984 0
M  V30 497 C 50.7403 -0.581412 1.49921 0
M  V30 498 O 51.9303 -0.398758 1.69575 0
M  V30 499 C 49.0623 -0.670433 3.34242 0
M  V30 500 H 50.2553 1.05659 2.80671 0
M  V30 501 H 47.8083 0.585614 1.44915 0
M  V30 502 H 48.5433 -1.51466 2.86755 0
M  V30 503 H 48.3283 -0.0860822 3.92005 0
M  V30 504 H 49.8183 -1.06935 4.03676 0
M  V30 505 N 50.2554 -1.46986 0.568584 0
M  V30 506 C 51.5044 -2.01646 0.0465894 0
M  V30 507 C 51.8174 -1.44721 -1.31587 0
M  V30 508 O 53.0234 -1.91113 -1.92842 0
M  V30 509 C 51.4794 -3.59885 0.032752 0
M  V30 510 C 51.0874 -4.25804 1.39266 0
M  V30 511 C 52.8314 -4.22255 -0.436038 0
M  V30 512 C 50.7384 -5.76081 1.33732 0
M  V30 513 H 49.6684 -0.753876 0.013647 0
M  V30 514 H 52.3194 -1.68864 0.718131 0
M  V30 515 H 50.7014 -3.8968 -0.704669 0
M  V30 516 H 51.8754 -4.07637 2.1487 0
M  V30 517 H 50.1904 -3.7547 1.80032 0
M  V30 518 H 52.7874 -5.32394 -0.49602 0
M  V30 519 H 53.1304 -3.90212 -1.45053 0
M  V30 520 H 53.6634 -3.97033 0.246877 0
M  V30 521 H 50.4024 -6.12761 2.32817 0
M  V30 522 H 49.9224 -5.96553 0.623267 0
M  V30 523 H 51.6014 -6.38518 1.0442 0
M  V30 524 N 51.7335 -0.305618 -1.54608 0
M  V30 525 C 52.6815 0.584119 -2.25146 0
M  V30 526 C 53.6755 1.13326 -1.25911 0
M  V30 527 O 54.8815 1.08337 -1.43747 0
M  V30 528 H 51.2565 0.206983 -0.722954 0
M  V30 529 H 53.2275 -0.033291 -2.98381 0
M  V30 530 C 51.9765 1.74225 -3.009 0
M  V30 531 H 51.2995 1.32892 -3.77067 0
M  V30 532 H 52.7395 2.34077 -3.53531 0
M  V30 533 C 51.1985 2.64914 -2.0814 0
M  V30 534 O 51.7285 3.66137 -1.65246 0
M  V30 535 N 49.9345 2.3275 -1.74 0
M  V30 536 H 49.4815 1.50479 -2.09078 0
M  V30 537 H 49.4395 2.93694 -1.12211 0
M  V30 538 N 53.2116 1.57565 -0.0334293 0
M  V30 539 C 54.4606 1.91155 0.643639 0
M  V30 540 C 54.7736 0.91192 1.73042 0
M  V30 541 O 55.9796 1.13923 2.46442 0
M  V30 542 C 54.4356 3.39443 1.1961 0
M  V30 543 C 54.0436 4.47774 0.142381 0
M  V30 544 C 55.7876 3.82094 1.84944 0
M  V30 545 C 53.6946 5.87162 0.706727 0
M  V30 546 H 52.6246 0.713368 0.244176 0
M  V30 547 H 55.2756 1.8323 -0.0994323 0
M  V30 548 H 53.6576 3.42313 1.99092 0
M  V30 549 H 54.8316 4.56469 -0.630296 0
M  V30 550 H 53.1466 4.14352 -0.412446 0
M  V30 551 H 55.7436 4.83591 2.2813 0
M  V30 552 H 56.0866 3.17386 2.69392 0
M  V30 553 H 56.6196 3.81665 1.12145 0
M  V30 554 H 53.3586 6.55424 -0.0997178 0
M  V30 555 H 52.8786 5.82064 1.44779 0
M  V30 556 H 54.5576 6.35866 1.19514 0
M  V30 557 N 54.6897 -0.239769 1.55765 0
M  V30 558 C 55.9177 -0.98417 1.81994 0
M  V30 559 C 56.3327 -1.7867 0.610124 0
M  V30 560 O 55.6897 -1.77571 -0.421271 0
M  V30 561 C 55.7407 -1.91635 3.06526 0
M  V30 562 O 55.4617 -1.14629 4.22838 0
M  V30 563 C 56.9627 -2.77616 3.45607 0
M  V30 564 H 54.1827 -0.28928 0.605441 0
M  V30 565 H 56.7267 -0.260499 2.02834 0
M  V30 566 H 54.8817 -2.5942 2.87715 0
M  V30 567 H 55.2957 -1.77745 4.93464 0
M  V30 568 H 56.7697 -3.38759 4.35828 0
M  V30 569 H 57.2467 -3.4909 2.6652 0
M  V30 570 H 57.8527 -2.15271 3.66795 0
M  V30 571 N 56.1678 -1.49265 -0.50573 0
M  V30 572 C 57.1158 -1.66065 -1.62866 0
M  V30 573 C 58.1098 -0.526636 -1.61006 0
M  V30 574 O 59.3158 -0.706126 -1.65571 0
M  V30 575 H 55.6908 -0.52356 -0.539805 0
M  V30 576 H 57.6618 -2.60329 -1.45848 0
M  V30 577 C 56.4108 -1.74008 -3.01026 0
M  V30 578 H 55.7338 -2.6064 -3.03161 0
M  V30 579 H 57.1738 -1.89798 -3.79147 0
M  V30 580 C 55.6328 -0.483868 -3.33407 0
M  V30 581 O 56.1628 0.392548 -3.99777 0
M  V30 582 N 54.3688 -0.348236 -2.88506 0
M  V30 583 H 53.9158 -1.06242 -2.34671 0
M  V30 584 H 53.8738 0.491204 -3.10539 0
M  V30 585 N 57.6459 0.756429 -1.3826 0
M  V30 586 C 58.8939 1.51248 -1.34047 0
M  V30 587 C 59.2149 1.94875 0.0698372 0
M  V30 588 O 58.4849 1.67436 1.01696 0
M  V30 589 H 57.0649 0.561018 -0.493222 0
M  V30 590 H 59.7269 0.899347 -1.7291 0
M  V30 591 H 58.8229 2.40472 -1.98947 0
M  V30 592 N 59.124 1.23083 0.984299 0
M  V30 593 C 60.034 1.02515 2.11016 0
M  V30 594 C 61.05 -0.0291702 1.73976 0
M  V30 595 O 62.226 0.165434 2.00719 0
M  V30 596 C 59.291 0.614673 3.41208 0
M  V30 597 C 58.352 1.74359 3.92297 0
M  V30 598 C 57.585 1.35261 5.16275 0
M  V30 599 O 57.808 0.235136 5.69915 0
M  V30 600 O 56.742 2.17227 5.61334 0
M  V30 601 H 60.568 1.96862 2.31255 0
M  V30 602 H 58.153 1.01753 1.09392 0
M  V30 603 H 60.035 0.396518 4.1953 0
M  V30 604 H 58.71 -0.299851 3.22308 0
M  V30 605 H 57.617 2.01635 3.1511 0
M  V30 606 H 58.95 2.63629 4.15645 0
M  V30 607 N 60.6021 -1.18246 1.0419 0
M  V30 608 C 61.5121 -2.25574 0.644476 0
M  V30 609 C 62.5281 -1.70845 -0.329826 0
M  V30 610 O 63.7041 -2.00554 -0.184443 0
M  V30 611 C 60.7691 -3.46697 0.014877 0
M  V30 612 C 59.8301 -4.16554 1.03834 0
M  V30 613 C 59.0631 -5.31894 0.438692 0
M  V30 614 O 59.2861 -5.65385 -0.754752 0
M  V30 615 O 58.2201 -5.90459 1.168 0
M  V30 616 H 62.0461 -2.61836 1.53869 0
M  V30 617 H 59.6311 -1.25352 0.812854 0
M  V30 618 H 61.5131 -4.20062 -0.335538 0
M  V30 619 H 60.1881 -3.12255 -0.853138 0
M  V30 620 H 59.0951 -3.45251 1.44057 0
M  V30 621 H 60.4281 -4.54998 1.87716 0
M  V30 622 N 62.0802 -0.821533 -1.34494 0
M  V30 623 C 63.3262 -0.409552 -1.98622 0
M  V30 624 C 63.6592 1.0244 -1.64984 0
M  V30 625 O 62.9342 1.71325 -0.920758 0
M  V30 626 C 63.2172 -0.610458 -3.54888 0
M  V30 627 C 63.0702 -2.09043 -3.98273 0
M  V30 628 C 64.3892 -0.0455379 -4.40076 0
M  V30 629 H 61.5082 -0.15028 -0.721516 0
M  V30 630 H 64.1502 -1.03384 -1.59411 0
M  V30 631 H 62.3002 -0.079044 -3.8842 0
M  V30 632 H 63.9722 -2.68537 -3.75081 0
M  V30 633 H 62.2152 -2.58139 -3.48635 0
M  V30 634 H 62.8862 -2.18182 -5.07051 0
M  V30 635 H 65.3622 -0.499557 -4.1309 0
M  V30 636 H 64.2382 -0.215922 -5.48475 0
M  V30 637 H 64.4992 1.04939 -4.29465 0
M  V30 638 N 63.5583 1.46682 -0.576371 0
M  V30 639 C 64.5213 2.28707 0.150239 0
M  V30 640 C 65.5213 1.38035 0.824794 0
M  V30 641 O 66.7113 1.60476 0.677719 0
M  V30 642 C 63.8433 3.18248 1.22192 0
M  V30 643 H 65.0363 2.94423 -0.570521 0
M  V30 644 H 62.5893 1.52688 -0.334078 0
M  V30 645 H 63.3243 2.57265 1.97447 0
M  V30 646 H 63.1093 3.85 0.742812 0
M  V30 647 H 64.5993 3.80001 1.73172 0
M  V30 648 N 65.0364 0.313813 1.54444 0
M  V30 649 C 66.2824 -0.292108 2.00685 0
M  V30 650 C 66.6154 -1.52548 1.20177 0
M  V30 651 O 65.8904 -1.92452 0.281531 0
M  V30 652 C 66.1734 -0.635968 3.5444 0
M  V30 653 C 66.0264 0.607437 4.4568 0
M  V30 654 C 67.3454 -1.45747 4.15266 0
M  V30 655 H 64.4644 -0.104697 0.729526 0
M  V30 656 H 67.1064 0.428457 1.85106 0
M  V30 657 H 65.2564 -1.24986 3.67846 0
M  V30 658 H 66.9284 1.24581 4.44159 0
M  V30 659 H 65.1714 1.23822 4.15753 0
M  V30 660 H 65.8424 0.322515 5.51057 0
M  V30 661 H 68.3184 -0.938645 4.05375 0
M  V30 662 H 67.1944 -1.66683 5.2298 0
M  V30 663 H 67.4554 -2.45063 3.67963 0
M  V30 664 N 66.5145 -1.57545 0.0417849 0
M  V30 665 C 67.4615 -2.10977 -0.935805 0
M  V30 666 C 68.4315 -1.01486 -1.31491 0
M  V30 667 O 69.6165 -1.2898 -1.40602 0
M  V30 668 C 66.7565 -2.65169 -2.2086 0
M  V30 669 C 65.8695 -3.88714 -1.88482 0
M  V30 670 C 65.0045 -4.31254 -3.1015 0
M  V30 671 C 64.0435 -5.47524 -2.7365 0
M  V30 672 N 63.1805 -5.85162 -3.87982 0
M  V30 673 H 68.0205 -2.94218 -0.473249 0
M  V30 674 H 65.5575 -1.45415 -0.221981 0
M  V30 675 H 67.5155 -2.94685 -2.95325 0
M  V30 676 H 66.1455 -1.8474 -2.64709 0
M  V30 677 H 65.1975 -3.65849 -1.04205 0
M  V30 678 H 66.5095 -4.73245 -1.57608 0
M  V30 679 H 65.6635 -4.62273 -3.92923 0
M  V30 680 H 64.4025 -3.45516 -3.44195 0
M  V30 681 H 63.4075 -5.16187 -1.89291 0
M  V30 682 H 64.6325 -6.34971 -2.40807 0
M  V30 683 H 62.5785 -5.02377 -4.21846 0
M  V30 684 H 62.4955 -6.64362 -3.60775 0
M  V30 685 H 63.7635 -6.20791 -4.71422 0
M  V30 686 N 67.9926 0.231505 -1.5589 0
M  V30 687 C 68.9226 1.29022 -1.94617 0
M  V30 688 C 69.9036 1.4941 -0.813067 0
M  V30 689 O 71.0886 1.6176 -1.07459 0
M  V30 690 C 68.2186 2.64199 -2.25424 0
M  V30 691 C 67.1726 2.58484 -3.41131 0
M  V30 692 C 66.4986 3.97599 -3.57518 0
M  V30 693 C 67.7986 2.1413 -4.76388 0
M  V30 694 H 69.4926 0.968563 -2.83301 0
M  V30 695 H 67.0386 0.464479 -1.36303 0
M  V30 696 H 68.9916 3.38413 -2.51107 0
M  V30 697 H 67.7156 2.98032 -1.33583 0
M  V30 698 H 66.3746 1.86727 -3.15481 0
M  V30 699 H 66.0226 4.28723 -2.6307 0
M  V30 700 H 65.7226 3.94659 -4.35337 0
M  V30 701 H 67.2466 4.7349 -3.85538 0
M  V30 702 H 68.6606 2.78083 -5.01341 0
M  V30 703 H 67.0576 2.2227 -5.57419 0
M  V30 704 H 68.1276 1.09331 -4.72414 0
M  V30 705 N 69.4707 1.49531 0.497807 0
M  V30 706 C 70.3807 1.69176 1.62532 0
M  V30 707 C 71.3967 0.5744 1.64246 0
M  V30 708 O 72.5727 0.849497 1.82608 0
M  V30 709 C 69.6377 1.75695 2.98885 0
M  V30 710 C 68.6987 2.9929 3.07773 0
M  V30 711 C 67.9317 3.05488 4.37622 0
M  V30 712 O 68.1547 2.19192 5.26603 0
M  V30 713 O 67.0887 3.9798 4.51548 0
M  V30 714 H 70.9147 2.647 1.48887 0
M  V30 715 H 68.4997 1.3331 0.674441 0
M  V30 716 H 70.3817 1.82317 3.79919 0
M  V30 717 H 69.0567 0.8335 3.12785 0
M  V30 718 H 67.9637 2.98183 2.25915 0
M  V30 719 H 69.2967 3.91125 2.98801 0
M  V30 720 N 70.9488 -0.749086 1.3866 0
M  V30 721 C 72.1738 -1.54344 1.38538 0
M  V30 722 C 72.5988 -1.88088 -0.0216655 0
M  V30 723 O 71.9568 -1.50899 -1.00494 0
M  V30 724 C 72.0048 -2.8164 2.25192 0
M  V30 725 O 71.1088 -3.7698 1.67212 0
M  V30 726 H 70.4498 -0.466654 0.472367 0
M  V30 727 H 72.9798 -0.925355 1.82478 0
M  V30 728 H 72.9898 -3.30519 2.3921 0
M  V30 729 H 71.6648 -2.56411 3.27454 0
M  V30 730 H 70.2418 -3.35699 1.6236 0
M  V30 731 N 72.4269 -1.23603 -0.977757 0
M  V30 732 C 73.3589 -0.977369 -2.07317 0
M  V30 733 C 74.3719 0.0495845 -1.62724 0
M  V30 734 O 75.5609 -0.186261 -1.77526 0
M  V30 735 C 72.6609 -0.451216 -3.35883 0
M  V30 736 C 71.8339 -1.53896 -4.09432 0
M  V30 737 C 70.8929 -1.01721 -5.16274 0
M  V30 738 O 69.9189 -1.70676 -5.43009 0
M  V30 739 N 71.1209 0.153594 -5.80297 0
M  V30 740 H 73.8859 -1.92047 -2.30082 0
M  V30 741 H 71.4469 -1.14497 -1.14465 0
M  V30 742 H 73.4389 -0.0871574 -4.04606 0
M  V30 743 H 72.0089 0.397368 -3.10064 0
M  V30 744 H 71.2289 -2.07566 -3.35127 0
M  V30 745 H 72.5169 -2.27037 -4.55337 0
M  V30 746 H 71.9149 0.730323 -5.60966 0
M  V30 747 H 70.4719 0.458892 -6.50183 0
M  V30 748 N 73.905 1.17692 -1.04816 0
M  V30 749 C 74.852 2.21581 -0.645797 0
M  V30 750 C 75.822 1.62367 0.350159 0
M  V30 751 O 77.007 1.89254 0.242433 0
M  V30 752 C 74.147 3.45092 -0.0227568 0
M  V30 753 C 73.26 4.18613 -1.06709 0
M  V30 754 C 72.395 5.29602 -0.411767 0
M  V30 755 C 71.434 5.94904 -1.44067 0
M  V30 756 N 70.571 6.97414 -0.809781 0
M  V30 757 H 75.411 2.55353 -1.5362 0
M  V30 758 H 72.948 1.25438 -0.768364 0
M  V30 759 H 74.906 4.15679 0.35588 0
M  V30 760 H 73.536 3.11917 0.831122 0
M  V30 761 H 72.588 3.46779 -1.5636 0
M  V30 762 H 73.9 4.63293 -1.84827 0
M  V30 763 H 73.054 6.06696 0.0206623 0
M  V30 764 H 71.793 4.86045 0.401438 0
M  V30 765 H 70.798 5.16544 -1.88316 0
M  V30 766 H 72.023 6.40542 -2.25571 0
M  V30 767 H 69.969 6.55998 -0.0170186 0
M  V30 768 H 69.886 7.40386 -1.52856 0
M  V30 769 H 71.154 7.78463 -0.401999 0
M  V30 770 N 75.3831 0.828654 1.34056 0
M  V30 771 C 76.3461 0.259927 2.27721 0
M  V30 772 C 77.3461 -0.565478 1.50529 0
M  V30 773 O 78.5361 -0.38075 1.69988 0
M  V30 774 C 75.6681 -0.634944 3.34935 0
M  V30 775 H 76.8611 1.0863 2.79534 0
M  V30 776 H 74.4141 0.600951 1.44285 0
M  V30 777 H 75.1491 -1.48416 2.88346 0
M  V30 778 H 74.9341 -0.0444999 3.92075 0
M  V30 779 H 76.4241 -1.02648 4.04788 0
M  V30 780 N 76.8612 -1.46375 0.584142 0
M  V30 781 C 78.2772 -1.57694 0.245929 0
M  V30 782 C 78.4772 -1.57903 -1.25175 0
M  V30 783 O 77.5332 -1.49676 -2.03355 0
M  V30 784 C 78.8462 -2.87028 0.896402 0
M  V30 785 C 80.3942 -3.00662 0.870127 0
M  V30 786 C 80.8692 -4.32734 1.50017 0
M  V30 787 N 82.3602 -4.39436 1.46458 0
M  V30 788 C 83.0952 -5.40248 1.92144 0
M  V30 789 N 82.5912 -6.47726 2.4581 0
M  V30 790 N 84.3842 -5.31459 1.83052 0
M  V30 791 H 76.5352 -1.44483 1.55687 0
M  V30 792 H 78.7982 -0.689291 0.650831 0
M  V30 793 H 78.5042 -2.9269 1.95002 0
M  V30 794 H 78.3782 -3.75014 0.405486 0
M  V30 795 H 80.7652 -2.94581 -0.174871 0
M  V30 796 H 80.8462 -2.14148 1.39908 0
M  V30 797 H 80.4902 -4.39573 2.54437 0
M  V30 798 H 80.4202 -5.18025 0.946432 0
M  V30 799 H 82.9112 -3.62367 1.07231 0
M  V30 800 H 83.2242 -7.20863 2.78525 0
M  V30 801 H 81.5692 -6.48542 2.49836 0
M  V30 802 H 84.7602 -4.46396 1.40883 0
M  V30 803 H 84.9332 -6.09881 2.18973 0
M  V30 804 N 78.3393 -0.321999 -1.54275 0
M  V30 805 C 79.2893 0.560185 -2.21011 0
M  V30 806 C 80.2733 1.08283 -1.19011 0
M  V30 807 O 81.4653 1.02011 -1.44647 0
M  V30 808 C 78.5943 1.72137 -2.97025 0
M  V30 809 C 77.6803 1.21369 -4.06363 0
M  V30 810 N 78.0713 0.425566 -5.04007 0
M  V30 811 C 76.3693 1.49255 -4.20284 0
M  V30 812 C 77.0703 0.152601 -5.815 0
M  V30 813 N 76.0463 0.738294 -5.38563 0
M  V30 814 H 79.8483 -0.049265 -2.93859 0
M  V30 815 H 77.3623 -0.127779 -1.61897 0
M  V30 816 H 79.3593 2.36512 -3.43319 0
M  V30 817 H 78.0193 2.33431 -2.25699 0
M  V30 818 H 79.0303 0.068551 -5.17855 0
M  V30 819 H 75.7073 2.11145 -3.60172 0
M  V30 820 H 77.0973 -0.481764 -6.70171 0
M  V30 821 N 79.8174 1.5752 -0.0501392 0
M  V30 822 C 81.2284 1.80271 0.485705 0
M  V30 823 C 81.5794 0.96228 1.70981 0
M  V30 824 O 80.7044 0.178578 2.15662 0
M  V30 825 C 81.2994 3.26957 0.887938 0
M  V30 826 C 79.8584 3.5063 1.36877 0
M  V30 827 C 79.0054 2.75165 0.343468 0
M  V30 828 H 81.9564 1.56281 -0.276028 0
M  V30 829 H 81.9774 3.37821 1.75093 0
M  V30 830 H 81.4894 3.881 -0.0031809 0
M  V30 831 H 79.5904 2.94766 2.27911 0
M  V30 832 H 79.7034 4.59343 1.36164 0
M  V30 833 H 78.0674 2.4127 0.816128 0
M  V30 834 H 78.8504 3.39034 -0.539548 0
M  V30 835 N 81.2955 -0.223234 1.56011 0
M  V30 836 C 82.2275 -1.30006 1.88762 0
M  V30 837 C 83.2405 -1.43129 0.775746 0
M  V30 838 O 84.4295 -1.44057 1.05403 0
M  V30 839 C 81.5295 -2.67589 2.07965 0
M  V30 840 C 80.7025 -2.76434 3.38973 0
M  V30 841 C 79.7615 -3.95019 3.47629 0
M  V30 842 O 78.7875 -3.83436 4.20672 0
M  V30 843 N 79.9895 -5.09249 2.78649 0
M  V30 844 H 82.7545 -1.02238 2.81722 0
M  V30 845 H 80.3155 -0.413278 1.56536 0
M  V30 846 H 82.3075 -3.45297 2.11073 0
M  V30 847 H 80.8775 -2.87964 1.21638 0
M  V30 848 H 80.0975 -1.85216 3.47978 0
M  V30 849 H 81.3855 -2.79313 4.25278 0
M  V30 850 H 80.7835 -5.21556 2.19081 0
M  V30 851 H 79.3405 -5.85007 2.8742 0
M  V30 852 N 82.7736 -1.49793 -0.48987 0
M  V30 853 C 83.7036 -1.70201 -1.59856 0
M  V30 854 C 84.6846 -0.55076 -1.60937 0
M  V30 855 O 85.8696 -0.787841 -1.77501 0
M  V30 856 C 82.9996 -1.77882 -2.98287 0
M  V30 857 C 81.9536 -2.92907 -3.12073 0
M  V30 858 C 81.2796 -2.85712 -4.51965 0
M  V30 859 C 82.5796 -4.3369 -2.91051 0
M  V30 860 H 84.2736 -2.63025 -1.43032 0
M  V30 861 H 81.8196 -1.26574 -0.686664 0
M  V30 862 H 83.7726 -1.90744 -3.75759 0
M  V30 863 H 82.4966 -0.816653 -3.16225 0
M  V30 864 H 81.1556 -2.79665 -2.37029 0
M  V30 865 H 80.8036 -1.8738 -4.66795 0
M  V30 866 H 80.5036 -3.62921 -4.62128 0
M  V30 867 H 82.0276 -3.00598 -5.31482 0
M  V30 868 H 83.4416 -4.47555 -3.58284 0
M  V30 869 H 81.8386 -5.12205 -3.12675 0
M  V30 870 H 82.9086 -4.47362 -1.87071 0
M  V30 871 N 84.2517 0.741722 -1.39055 0
M  V30 872 C 85.1817 1.869 -1.39966 0
M  V30 873 C 86.1627 1.6804 -0.26392 0
M  V30 874 O 87.3477 1.88458 -0.468755 0
M  V30 875 C 84.4777 3.24572 -1.23574 0
M  V30 876 C 83.4317 3.58056 -2.34477 0
M  V30 877 C 82.7577 4.94593 -2.0318 0
M  V30 878 C 84.0577 3.61716 -3.76774 0
M  V30 879 H 85.7517 1.86395 -2.34302 0
M  V30 880 H 83.2977 0.895361 -1.1278 0
M  V30 881 H 85.2507 4.031 -1.22834 0
M  V30 882 H 83.9747 3.25587 -0.257045 0
M  V30 883 H 82.6337 2.81854 -2.34423 0
M  V30 884 H 82.2817 4.92181 -1.03765 0
M  V30 885 H 81.9817 5.17964 -2.77465 0
M  V30 886 H 83.5057 5.75486 -2.04079 0
M  V30 887 H 84.9197 4.30335 -3.78794 0
M  V30 888 H 83.3167 3.96603 -4.50362 0
M  V30 889 H 84.3867 2.61672 -4.08235 0
M  V30 890 N 85.7298 1.2412 0.971189 0
M  V30 891 C 86.9598 1.10415 1.7462 0
M  V30 892 C 87.3678 -0.346462 1.86001 0
M  V30 893 O 86.7108 -1.25104 1.34517 0
M  V30 894 C 86.7728 1.66596 3.18568 0
M  V30 895 C 86.4368 3.15446 3.3067 0
M  V30 896 C 87.4338 4.12636 3.16271 0
M  V30 897 C 85.1188 3.55337 3.55022 0
M  V30 898 C 87.1128 5.47699 3.26044 0
M  V30 899 C 84.7998 4.90542 3.64434 0
M  V30 900 C 85.7978 5.86532 3.49956 0
M  V30 901 O 85.4858 7.19279 3.59017 0
M  V30 902 H 85.2178 0.386616 0.55453 0
M  V30 903 H 87.7718 1.64633 1.22821 0
M  V30 904 H 86.0018 1.06808 3.71657 0
M  V30 905 H 87.6908 1.48232 3.77865 0
M  V30 906 H 88.4568 3.8316 2.97344 0
M  V30 907 H 84.3358 2.8113 3.65359 0
M  V30 908 H 87.8798 6.22603 3.14661 0
M  V30 909 H 83.7768 5.19691 3.82873 0
M  V30 910 H 84.5448 7.27153 3.75754 0
M  V30 911 N 87.2079 -1.17134 1.05439 0
M  V30 912 C 88.1179 -2.24878 0.668365 0
M  V30 913 C 89.1339 -1.71186 -0.311687 0
M  V30 914 O 90.3099 -2.00738 -0.163161 0
M  V30 915 C 87.3749 -3.46662 0.051648 0
M  V30 916 C 86.4359 -4.15429 1.08246 0
M  V30 917 C 85.6689 -5.31399 0.495082 0
M  V30 918 O 85.8919 -5.66153 -0.694743 0
M  V30 919 O 84.8259 -5.89187 1.23056 0
M  V30 920 H 88.6519 -2.60189 1.56637 0
M  V30 921 H 86.2369 -1.24482 0.826104 0
M  V30 922 H 88.1189 -4.20394 -0.290966 0
M  V30 923 H 86.7939 -3.13142 -0.819971 0
M  V30 924 H 85.7009 -3.43704 1.47711 0
M  V30 925 H 87.0339 -4.52982 1.92532 0
M  V30 926 N 88.686 -0.835752 -1.33615 0
M  V30 927 C 89.911 -0.442389 -2.02627 0
M  V30 928 C 90.336 0.947735 -1.62479 0
M  V30 929 O 89.694 1.61907 -0.815826 0
M  V30 930 C 89.742 -0.567216 -3.56111 0
M  V30 931 O 88.846 0.407799 -4.10379 0
M  V30 932 H 88.187 -0.180278 -0.639059 0
M  V30 933 H 90.717 -1.12972 -1.70583 0
M  V30 934 H 90.727 -0.447708 -4.05536 0
M  V30 935 H 89.402 -1.58103 -3.84677 0
M  V30 936 H 87.979 0.246107 -3.72087 0
M  V30 937 N 90.1641 1.46063 -0.591896 0
M  V30 938 C 91.1111 2.30399 0.136069 0
M  V30 939 C 92.0811 1.41169 0.875238 0
M  V30 940 O 93.2661 1.70112 0.86409 0
M  V30 941 C 90.4061 3.25804 1.13781 0
M  V30 942 C 89.5191 4.30134 0.401137 0
M  V30 943 C 88.6541 5.12659 1.39121 0
M  V30 944 C 87.6931 6.0873 0.641462 0
M  V30 945 N 86.8301 6.8409 1.58004 0
M  V30 946 H 91.6701 2.92118 -0.589144 0
M  V30 947 H 89.2071 1.43959 -0.302342 0
M  V30 948 H 91.1651 3.79569 1.73156 0
M  V30 949 H 89.7951 2.65872 1.83062 0
M  V30 950 H 88.8471 3.79152 -0.307826 0
M  V30 951 H 90.1591 4.98458 -0.184565 0
M  V30 952 H 89.3131 5.70747 2.05749 0
M  V30 953 H 88.0521 4.44316 2.01084 0
M  V30 954 H 87.0571 5.49786 -0.0385419 0
M  V30 955 H 88.2821 6.79095 0.0270945 0
M  V30 956 H 86.2281 6.18449 2.18761 0
M  V30 957 H 86.1451 7.48709 1.04738 0
M  V30 958 H 87.4131 7.4673 2.23639 0
M  V30 959 N 91.6422 0.330177 1.54103 0
M  V30 960 C 92.5722 -0.525353 2.27513 0
M  V30 961 C 93.5532 -1.11383 1.2856 0
M  V30 962 O 94.7382 -1.13773 1.57383 0
M  V30 963 C 91.8682 -1.6831 3.03791 0
M  V30 964 C 90.8222 -1.2236 4.10137 0
M  V30 965 C 90.1482 -2.46882 4.74293 0
M  V30 966 C 91.4482 -0.333697 5.21233 0
M  V30 967 H 93.1422 0.087013 2.99274 0
M  V30 968 H 90.6882 0.0432893 1.43935 0
M  V30 969 H 92.6412 -2.28795 3.5388 0
M  V30 970 H 91.3652 -2.32216 2.29659 0
M  V30 971 H 90.0242 -0.64165 3.60941 0
M  V30 972 H 89.6722 -3.09165 3.96769 0
M  V30 973 H 89.3722 -2.16825 5.46133 0
M  V30 974 H 90.8962 -3.08117 5.27159 0
M  V30 975 H 92.3102 -0.845013 5.67038 0
M  V30 976 H 90.7072 -0.125612 5.99969 0
M  V30 977 H 91.7772 0.633724 4.80741 0
M  V30 978 N 93.1203 -1.57491 0.0584922 0
M  V30 979 C 94.3503 -1.9701 -0.622134 0
M  V30 980 C 94.7583 -0.935034 -1.6448 0
M  V30 981 O 94.1013 0.0882904 -1.83488 0
M  V30 982 C 94.1633 -3.32794 -1.35972 0
M  V30 983 C 93.8273 -4.54343 -0.492043 0
M  V30 984 C 94.8243 -5.19323 0.244901 0
M  V30 985 C 92.5093 -5.00534 -0.420821 0
M  V30 986 C 94.5033 -6.28835 1.04143 0
M  V30 987 C 92.1903 -6.09921 0.379389 0
M  V30 988 C 93.1883 -6.73933 1.10919 0
M  V30 989 O 92.8763 -7.81216 1.89623 0
M  V30 990 H 92.6083 -0.653127 -0.174359 0
M  V30 991 H 95.1623 -2.05029 0.123418 0
M  V30 992 H 93.3923 -3.21351 -2.15105 0
M  V30 993 H 95.0813 -3.5701 -1.93129 0
M  V30 994 H 95.8473 -4.8459 0.19939 0
M  V30 995 H 91.7263 -4.50496 -0.978474 0
M  V30 996 H 95.2703 -6.7873 1.61157 0
M  V30 997 H 91.1673 -6.44089 0.426512 0
M  V30 998 H 91.9353 -7.98029 1.81913 0
M  V30 999 N 94.5984 0.214957 -1.56127 0
M  V30 1000 C 95.5454 1.26642 -1.92952 0
M  V30 1001 C 96.5154 1.46244 -0.78753 0
M  V30 1002 O 97.7004 1.59704 -1.04399 0
M  V30 1003 C 94.8404 2.6104 -2.25726 0
M  V30 1004 C 93.9534 2.49183 -3.52891 0
M  V30 1005 C 93.0884 3.76149 -3.7508 0
M  V30 1006 C 92.1274 3.59041 -4.95738 0
M  V30 1007 N 91.2644 4.77972 -5.14283 0
M  V30 1008 H 96.1044 0.945384 -2.82607 0
M  V30 1009 H 93.6414 0.455489 -1.3987 0
M  V30 1010 H 95.5994 3.39313 -2.42739 0
M  V30 1011 H 94.2294 2.91227 -1.39236 0
M  V30 1012 H 93.2814 1.6231 -3.44034 0
M  V30 1013 H 94.5934 2.32466 -4.41318 0
M  V30 1014 H 93.7474 4.62865 -3.92226 0
M  V30 1015 H 92.4864 3.95799 -2.84947 0
M  V30 1016 H 91.4914 2.7071 -4.78535 0
M  V30 1017 H 92.7164 3.40856 -5.87362 0
M  V30 1018 H 90.6624 4.97923 -4.27093 0
M  V30 1019 H 90.5794 4.64006 -5.96853 0
M  V30 1020 H 91.8474 5.66096 -5.35869 0
M  V30 1021 N 96.0765 1.50051 0.48192 0
M  V30 1022 C 97.3255 1.59741 1.23149 0
M  V30 1023 C 97.6385 0.298163 1.93314 0
M  V30 1024 O 98.8445 0.273835 2.70116 0
M  V30 1025 C 97.3005 2.81926 2.23708 0
M  V30 1026 C 96.9085 4.18685 1.59396 0
M  V30 1027 C 98.6525 3.00956 2.99375 0
M  V30 1028 C 96.5595 5.3207 2.58178 0
M  V30 1029 H 95.4895 0.594838 0.46334 0
M  V30 1030 H 98.1405 1.76467 0.503169 0
M  V30 1031 H 96.5225 2.58736 2.99786 0
M  V30 1032 H 97.6965 4.52088 0.891811 0
M  V30 1033 H 96.0115 4.05171 0.960503 0
M  V30 1034 H 98.6085 3.82836 3.73283 0
M  V30 1035 H 98.9515 2.12258 3.58123 0
M  V30 1036 H 99.4845 3.24277 2.30411 0
M  V30 1037 H 96.2235 6.22888 2.04184 0
M  V30 1038 H 95.7435 5.03098 3.26577 0
M  V30 1039 H 97.4225 5.62196 3.20225 0
M  V30 1040 N 97.5546 -0.734337 1.39446 0
M  V30 1041 C 98.4846 -1.86155 1.40955 0
M  V30 1042 C 99.4656 -1.67898 0.272827 0
M  V30 1043 O 100.651 -1.88207 0.478743 0
M  V30 1044 C 97.7806 -3.23912 1.25294 0
M  V30 1045 C 96.7346 -3.56808 2.36373 0
M  V30 1046 C 96.0606 -4.93508 2.058 0
M  V30 1047 C 97.3606 -3.59713 3.78687 0
M  V30 1048 H 99.0546 -1.8515 2.35287 0
M  V30 1049 H 96.6006 -0.889367 1.13253 0
M  V30 1050 H 98.5536 -4.02443 1.2497 0
M  V30 1051 H 97.2776 -3.25446 0.274308 0
M  V30 1052 H 95.9366 -2.80606 2.35914 0
M  V30 1053 H 95.5846 -4.91623 1.06374 0
M  V30 1054 H 95.2846 -5.16486 2.80208 0
M  V30 1055 H 96.8086 -5.74396 2.07128 0
M  V30 1056 H 98.2226 -4.2832 3.81071 0
M  V30 1057 H 96.6196 -3.94209 4.52459 0
M  V30 1058 H 97.6896 -2.59504 4.09617 0
M  V30 1059 N 99.0327 -1.24633 -0.964593 0
M  V30 1060 C 99.9647 -0.999302 -2.06268 0
M  V30 1061 C 100.978 0.0323226 -1.62768 0
M  V30 1062 O 102.167 -0.205079 -1.77318 0
M  V30 1063 C 99.2667 -0.486816 -3.35385 0
M  V30 1064 C 98.4397 -1.5823 -4.07777 0
M  V30 1065 C 97.4987 -1.07191 -5.15166 0
M  V30 1066 O 96.5247 -1.76426 -5.41168 0
M  V30 1067 N 97.7267 0.0920373 -5.80427 0
M  V30 1068 H 100.492 -1.94477 -2.28033 0
M  V30 1069 H 98.0527 -1.15704 -1.13244 0
M  V30 1070 H 100.045 -0.130066 -4.04491 0
M  V30 1071 H 98.6147 0.364459 -3.10468 0
M  V30 1072 H 97.8347 -2.11109 -3.32906 0
M  V30 1073 H 99.1227 -2.31854 -4.52903 0
M  V30 1074 H 98.5207 0.670784 -5.61709 0
M  V30 1075 H 97.0777 0.389905 -6.50633 0
M  V30 1076 N 100.511 1.16574 -1.06058 0
M  V30 1077 C 101.759 1.86677 -0.77434 0
M  V30 1078 C 102.08 1.81959 0.701147 0
M  V30 1079 O 101.35 1.2515 1.50713 0
M  V30 1080 H 99.9298 0.691134 -0.283449 0
M  V30 1081 H 102.592 1.41378 -1.34158 0
M  V30 1082 H 101.688 2.92181 -1.09711 0
M  V30 1083 N 101.989 0.842826 1.3317 0
M  V30 1084 C 103.237 0.439577 1.97262 0
M  V30 1085 C 103.558 -1.00548 1.67078 0
M  V30 1086 O 102.828 -1.70098 0.971779 0
M  V30 1087 H 101.408 0.159558 0.72976 0
M  V30 1088 H 104.07 1.07665 1.62463 0
M  V30 1089 H 103.166 0.574886 3.0676 0
M  V30 1090 N 103.467 -1.45747 0.599634 0
M  V30 1091 C 104.713 -2.02592 0.0918643 0
M  V30 1092 C 105.046 -1.46806 -1.27128 0
M  V30 1093 O 104.321 -0.639658 -1.83681 0
M  V30 1094 C 104.604 -3.60073 0.0443398 0
M  V30 1095 C 104.457 -4.26208 1.43759 0
M  V30 1096 C 105.776 -4.35309 -0.647608 0
M  V30 1097 H 102.895 -0.736175 0.034857 0
M  V30 1098 H 105.537 -1.73694 0.770081 0
M  V30 1099 H 103.687 -3.84823 -0.533224 0
M  V30 1100 H 105.359 -4.12668 2.06162 0
M  V30 1101 H 103.602 -3.84916 2.00056 0
M  V30 1102 H 104.273 -5.35069 1.35665 0
M  V30 1103 H 106.749 -4.15805 -0.156776 0
M  V30 1104 H 105.625 -5.45038 -0.649942 0
M  V30 1105 H 105.886 -4.07598 -1.71219 0
M  V30 1106 N 104.945 -0.338344 -1.53925 0
M  V30 1107 C 106.193 0.259245 -2.0043 0
M  V30 1108 C 106.514 1.51484 -1.22791 0
M  V30 1109 O 105.784 1.93037 -0.33368 0
M  V30 1110 H 104.364 0.0987845 -0.740439 0
M  V30 1111 H 107.026 -0.458302 -1.89435 0
M  V30 1112 H 106.122 0.505334 -3.07982 0
M  V30 1113 N 106.423 1.57458 -0.0668435 0
M  V30 1114 C 107.672 1.92477 0.602947 0
M  V30 1115 C 107.985 0.948419 1.71068 0
M  V30 1116 O 109.191 1.19124 2.43971 0
M  V30 1117 C 107.647 3.41903 1.12383 0
M  V30 1118 C 107.255 4.47975 0.04737 0
M  V30 1119 C 108.999 3.85931 1.76797 0
M  V30 1120 C 106.906 5.88529 0.582022 0
M  V30 1121 H 105.836 0.718387 0.22899 0
M  V30 1122 H 108.487 1.82978 -0.138276 0
M  V30 1123 H 106.869 3.46459 1.91787 0
M  V30 1124 H 108.043 4.55029 -0.726978 0
M  V30 1125 H 106.358 4.13384 -0.500243 0
M  V30 1126 H 108.955 4.88322 2.17821 0
M  V30 1127 H 109.298 3.23029 2.62599 0
M  V30 1128 H 109.831 3.83958 1.04024 0
M  V30 1129 H 106.57 6.55065 -0.238721 0
M  V30 1130 H 106.09 5.85004 1.324 0
M  V30 1131 H 107.769 6.38258 1.05999 0
M  V30 1132 N 107.901 -0.206675 1.56239 0
M  V30 1133 C 109.312 -0.772383 1.69974 0
M  V30 1134 C 109.663 -1.84353 0.671436 0
M  V30 1135 O 108.788 -2.15695 -0.174491 0
M  V30 1136 C 109.383 -1.40779 3.08167 0
M  V30 1137 C 107.942 -1.92072 3.23706 0
M  V30 1138 C 107.089 -0.786347 2.65917 0
M  V30 1139 H 110.04 0.0182223 1.5869 0
M  V30 1140 H 110.061 -2.27696 3.04852 0
M  V30 1141 H 109.573 -0.627958 3.82986 0
M  V30 1142 H 107.674 -2.7281 2.53782 0
M  V30 1143 H 107.787 -2.09046 4.31087 0
M  V30 1144 H 106.151 -1.1976 2.24788 0
M  V30 1145 H 106.934 -0.0189416 3.43295 0
M  V30 1146 N 109.379 -1.50304 -0.473955 0
M  V30 1147 C 110.329 -1.65347 -1.56985 0
M  V30 1148 C 111.313 -0.508176 -1.52664 0
M  V30 1149 O 112.505 -0.762446 -1.59737 0
M  V30 1150 C 109.634 -1.74832 -2.95447 0
M  V30 1151 C 108.72 -2.95028 -3.04662 0
M  V30 1152 N 109.111 -4.18747 -2.83698 0
M  V30 1153 C 107.409 -2.93527 -3.35795 0
M  V30 1154 C 108.11 -4.99687 -2.97805 0
M  V30 1155 N 107.086 -4.33585 -3.2788 0
M  V30 1156 H 110.888 -2.58698 -1.39472 0
M  V30 1157 H 108.402 -1.47449 -0.680629 0
M  V30 1158 H 110.399 -1.83712 -3.7424 0
M  V30 1159 H 109.059 -0.826376 -3.14008 0
M  V30 1160 H 110.07 -4.48291 -2.59337 0
M  V30 1161 H 106.747 -2.10821 -3.60362 0
M  V30 1162 H 108.137 -6.08057 -2.85861 0
M  V30 1163 N 110.857 0.726932 -1.39834 0
M  V30 1164 C 112.106 1.48214 -1.36805 0
M  V30 1165 C 112.419 1.95576 0.0305291 0
M  V30 1166 O 113.625 2.7088 0.183417 0
M  V30 1167 C 112.081 2.67854 -2.40379 0
M  V30 1168 C 111.689 2.27408 -3.85992 0
M  V30 1169 C 113.433 3.45641 -2.46439 0
M  V30 1170 C 111.34 3.43819 -4.81189 0
M  V30 1171 H 110.27 0.556606 -0.508631 0
M  V30 1172 H 112.921 0.792216 -1.65518 0
M  V30 1173 H 111.303 3.3896 -2.04749 0
M  V30 1174 H 112.477 1.63795 -4.30706 0
M  V30 1175 H 110.792 1.62692 -3.83302 0
M  V30 1176 H 113.389 4.32244 -3.14753 0
M  V30 1177 H 113.732 3.88669 -1.49139 0
M  V30 1178 H 114.265 2.8157 -2.81004 0
M  V30 1179 H 111.004 3.05834 -5.79781 0
M  V30 1180 H 110.524 4.06385 -4.41148 0
M  V30 1181 H 112.203 4.10043 -5.00474 0
M  V30 1182 N 112.336 1.25143 0.95797 0
M  V30 1183 C 113.752 1.01892 1.22842 0
M  V30 1184 C 113.952 -0.266311 1.99732 0
M  V30 1185 O 113.008 -0.979913 2.3271 0
M  V30 1186 C 114.321 2.24004 2.00606 0
M  V30 1187 C 115.869 2.28731 2.13662 0
M  V30 1188 C 116.344 3.5049 2.94823 0
M  V30 1189 N 117.835 3.50866 3.02403 0
M  V30 1190 C 118.57 4.4174 3.65586 0
M  V30 1191 N 118.066 5.42882 4.30408 0
M  V30 1192 N 119.859 4.29429 3.62694 0
M  V30 1193 H 112.01 2.07718 0.443493 0
M  V30 1194 H 114.273 0.912031 0.258657 0
M  V30 1195 H 113.979 3.17395 1.51503 0
M  V30 1196 H 113.853 2.26907 3.01319 0
M  V30 1197 H 116.24 1.35865 2.61963 0
M  V30 1198 H 116.321 2.29848 1.12265 0
M  V30 1199 H 115.965 4.43676 2.47213 0
M  V30 1200 H 115.895 3.46617 3.96439 0
M  V30 1201 H 118.386 2.777 2.56302 0
M  V30 1202 H 118.699 6.0844 4.76467 0
M  V30 1203 H 117.044 5.46758 4.29047 0
M  V30 1204 H 120.235 3.49643 3.11236 0
M  V30 1205 H 120.408 5.00448 4.1165 0
M  V30 1206 N 113.814 -1.1601 1.06675 0
M  V30 1207 C 115.06 -1.87145 0.796766 0
M  V30 1208 C 115.415 -1.8037 -0.669658 0
M  V30 1209 O 114.708 -1.21116 -1.48463 0
M  V30 1210 C 114.902 -3.35547 1.23057 0
M  V30 1211 C 114.731 -3.56769 2.73762 0
M  V30 1212 C 113.501 -3.72635 3.41279 0
M  V30 1213 C 115.699 -3.55166 3.7197 0
M  V30 1214 N 113.681 -3.81845 4.80695 0
M  V30 1215 C 115.052 -3.70406 4.97191 0
M  V30 1216 C 117.107 -3.384 3.65226 0
M  V30 1217 C 115.81 -3.70615 6.16471 0
M  V30 1218 C 117.836 -3.39904 4.83962 0
M  V30 1219 C 117.198 -3.55667 6.08013 0
M  V30 1220 H 113.297 -0.702267 0.344014 0
M  V30 1221 H 115.881 -1.39165 1.36166 0
M  V30 1222 H 114.052 -3.82159 0.693456 0
M  V30 1223 H 115.784 -3.94363 0.908844 0
M  V30 1224 H 112.539 -3.73121 2.91681 0
M  V30 1225 H 112.963 -3.90209 5.53232 0
M  V30 1226 H 117.605 -3.25138 2.70269 0
M  V30 1227 H 115.323 -3.82658 7.11757 0
M  V30 1228 H 118.909 -3.28169 4.80413 0
M  V30 1229 H 117.789 -3.56755 6.98352 0
M  V30 1230 N 115.292 -0.849877 -1.32721 0
M  V30 1231 C 116.522 -0.46408 -2.0132 0
M  V30 1232 C 116.93 0.94246 -1.64056 0
M  V30 1233 O 116.273 1.6257 -0.855379 0
M  V30 1234 C 116.335 -0.517887 -3.5575 0
M  V30 1235 C 115.999 -1.88248 -4.16427 0
M  V30 1236 C 116.996 -2.84726 -4.35002 0
M  V30 1237 C 114.681 -2.17832 -4.52609 0
M  V30 1238 C 116.675 -4.08945 -4.8892 0
M  V30 1239 C 114.362 -3.42304 -5.06232 0
M  V30 1240 C 115.36 -4.37677 -5.24335 0
M  V30 1241 O 115.048 -5.59946 -5.76815 0
M  V30 1242 H 114.78 -0.181327 -0.651227 0
M  V30 1243 H 117.334 -1.14713 -1.70382 0
M  V30 1244 H 115.564 0.221997 -3.86062 0
M  V30 1245 H 117.253 -0.148366 -4.05629 0
M  V30 1246 H 118.019 -2.63174 -4.07388 0
M  V30 1247 H 113.898 -1.44385 -4.37806 0
M  V30 1248 H 117.442 -4.83396 -5.02966 0
M  V30 1249 H 113.339 -3.63709 -5.33278 0
M  V30 1250 H 114.107 -5.61838 -5.95214 0
M  V30 1251 N 116.77 1.45427 -0.607355 0
M  V30 1252 C 118.018 2.01841 -0.102253 0
M  V30 1253 C 118.339 1.47832 1.27164 0
M  V30 1254 O 117.609 0.672497 1.83995 0
M  V30 1255 H 116.189 0.746188 -0.0348101 0
M  V30 1256 H 118.851 1.78229 -0.7887 0
M  V30 1257 H 117.947 3.12057 -0.0518585 0
M  V30 1258 N 118.248 0.346503 1.53744 0
M  V30 1259 C 119.18 -0.543316 2.22667 0
M  V30 1260 C 120.193 -1.06159 1.23427 0
M  V30 1261 O 121.382 -0.971235 1.49764 0
M  V30 1262 C 118.482 -1.76076 2.89569 0
M  V30 1263 C 117.655 -1.37727 4.15151 0
M  V30 1264 C 116.714 -2.45471 4.65436 0
M  V30 1265 O 115.74 -2.08655 5.29577 0
M  V30 1266 N 116.942 -3.7677 4.41616 0
M  V30 1267 H 119.707 0.0469703 2.99663 0
M  V30 1268 H 117.268 0.170766 1.60997 0
M  V30 1269 H 119.26 -2.47593 3.20125 0
M  V30 1270 H 117.83 -2.25835 2.16142 0
M  V30 1271 H 117.05 -0.492746 3.91108 0
M  V30 1272 H 118.338 -1.09708 4.96832 0
M  V30 1273 H 117.736 -4.09467 3.90325 0
M  V30 1274 H 116.293 -4.44448 4.7677 0
M  V30 1275 N 119.726 -1.57421 0.075193 0
M  V30 1276 C 120.636 -2.1642 -0.905511 0
M  V30 1277 C 121.652 -1.12828 -1.32461 0
M  V30 1278 O 122.828 -1.45109 -1.39661 0
M  V30 1279 C 119.893 -2.71693 -2.15369 0
M  V30 1280 C 118.954 -3.90171 -1.79068 0
M  V30 1281 C 118.187 -4.42798 -2.97936 0
M  V30 1282 O 118.41 -3.94416 -4.12058 0
M  V30 1283 O 117.344 -5.34085 -2.77555 0
M  V30 1284 H 121.17 -3.00588 -0.433626 0
M  V30 1285 H 118.755 -1.48664 -0.148067 0
M  V30 1286 H 120.637 -3.07104 -2.88557 0
M  V30 1287 H 119.312 -1.90582 -2.61649 0
M  V30 1288 H 118.219 -3.59606 -1.03122 0
M  V30 1289 H 119.552 -4.72584 -1.37569 0
M  V30 1290 N 121.204 0.198386 -1.56346 0
M  V30 1291 C 122.151 1.24589 -1.94284 0
M  V30 1292 C 123.121 1.454 -0.802997 0
M  V30 1293 O 124.306 1.58588 -1.06087 0
M  V30 1294 C 121.446 2.58631 -2.28482 0
M  V30 1295 C 120.559 2.45426 -3.55514 0
M  V30 1296 C 119.694 3.7215 -3.79049 0
M  V30 1297 C 118.733 3.53763 -4.99518 0
M  V30 1298 N 117.87 4.72491 -5.19323 0
M  V30 1299 H 122.71 0.915356 -2.83593 0
M  V30 1300 H 120.247 0.440629 -1.40346 0
M  V30 1301 H 122.205 3.3672 -2.46324 0
M  V30 1302 H 120.835 2.89734 -1.42317 0
M  V30 1303 H 119.887 1.58652 -3.45737 0
M  V30 1304 H 121.199 2.27772 -4.43758 0
M  V30 1305 H 120.353 4.58679 -3.97113 0
M  V30 1306 H 119.092 3.92754 -2.89129 0
M  V30 1307 H 118.097 2.65619 -4.8138 0
M  V30 1308 H 119.322 3.34607 -5.90944 0
M  V30 1309 H 117.268 4.93365 -4.3235 0
M  V30 1310 H 117.185 4.5765 -6.01741 0
M  V30 1311 H 118.453 5.6038 -5.41843 0
M  V30 1312 N 122.682 1.50554 0.465978 0
M  V30 1313 C 123.959 1.5232 1.22712 0
M  V30 1314 C 124.339 0.270807 2.09356 0
M  V30 1315 O 123.687 -0.745541 2.15995 0
M  V30 1316 C 123.897 2.82175 2.05374 0
M  V30 1317 C 125.245 3.33033 2.6339 0
M  V30 1318 O 126.269 2.83531 2.15612 0
M  V30 1319 O 125.128 4.19336 3.50456 0
M  V30 1320 H 122.222 0.611183 0.557122 0
M  V30 1321 H 124.768 1.62847 0.477381 0
M  V30 1322 H 123.54 3.64797 1.41558 0
M  V30 1323 H 123.163 2.74675 2.87471 0
M  V30 1324 N 124.16 -0.719506 1.40217 0
M  V30 1325 C 125.39 -1.50646 1.41384 0
M  V30 1326 C 125.798 -1.89197 0.0107743 0
M  V30 1327 O 125.141 -1.55709 -0.974708 0
M  V30 1328 C 125.203 -2.81405 2.23722 0
M  V30 1329 C 124.867 -2.65199 3.72181 0
M  V30 1330 C 125.864 -2.32717 4.64907 0
M  V30 1331 C 123.549 -2.81586 4.1595 0
M  V30 1332 C 125.543 -2.16827 5.99387 0
M  V30 1333 C 123.23 -2.65313 5.50502 0
M  V30 1334 C 124.228 -2.32981 6.42035 0
M  V30 1335 O 123.916 -2.16827 7.74107 0
M  V30 1336 H 123.648 -0.471606 0.484318 0
M  V30 1337 H 126.202 -0.895456 1.84853 0
M  V30 1338 H 124.432 -3.44823 1.75026 0
M  V30 1339 H 126.121 -3.43102 2.16878 0
M  V30 1340 H 126.887 -2.19694 4.32388 0
M  V30 1341 H 122.766 -3.0574 3.45027 0
M  V30 1342 H 126.31 -1.91513 6.70797 0
M  V30 1343 H 122.207 -2.7792 5.82607 0
M  V30 1344 H 122.975 -2.31778 7.84998 0
M  V30 1345 N 125.638 -1.25649 -0.95132 0
M  V30 1346 C 126.586 -1.06118 -2.06982 0
M  V30 1347 C 127.58 0.00889169 -1.69398 0
M  V30 1348 O 128.786 -0.146988 -1.79399 0
M  V30 1349 H 125.161 -0.326248 -0.677544 0
M  V30 1350 H 127.132 -2.00932 -2.2061 0
M  V30 1351 C 125.881 -0.700145 -3.40578 0
M  V30 1352 H 125.204 -1.51537 -3.69968 0
M  V30 1353 H 126.644 -0.603211 -4.19687 0
M  V30 1354 C 125.103 0.59403 -3.31622 0
M  V30 1355 O 125.633 1.63522 -3.66911 0
M  V30 1356 N 123.839 0.58089 -2.84735 0
M  V30 1357 H 123.386 -0.266783 -2.56215 0
M  V30 1358 H 123.344 1.44695 -2.79125 0
M  V30 1359 N 127.117 1.15442 -1.07289 0
M  V30 1360 C 128.363 1.86489 -0.796846 0
M  V30 1361 C 128.696 1.82078 0.675371 0
M  V30 1362 O 127.971 1.24346 1.4956 0
M  V30 1363 C 128.254 3.35626 -1.30489 0
M  V30 1364 C 128.107 3.48673 -2.84161 0
M  V30 1365 C 129.426 4.30357 -0.920907 0
M  V30 1366 H 126.545 0.677144 -0.290939 0
M  V30 1367 H 129.187 1.35633 -1.33056 0
M  V30 1368 H 127.337 3.79068 -0.850883 0
M  V30 1369 H 129.009 3.14099 -3.37846 0
M  V30 1370 H 127.252 2.90253 -3.22391 0
M  V30 1371 H 127.923 4.53453 -3.14777 0
M  V30 1372 H 130.399 3.94871 -1.3121 0
M  V30 1373 H 129.275 5.33193 -1.30372 0
M  V30 1374 H 129.536 4.4176 0.173226 0
M  V30 1375 N 128.595 0.856903 1.32268 0
M  V30 1376 C 129.525 0.31858 2.31316 0
M  V30 1377 C 130.506 -0.583487 1.59779 0
M  V30 1378 O 131.691 -0.503259 1.87566 0
M  V30 1379 C 128.821 -0.491979 3.43798 0
M  V30 1380 C 127.775 0.315849 4.26833 0
M  V30 1381 C 127.101 -0.619586 5.31098 0
M  V30 1382 C 128.401 1.54282 4.98993 0
M  V30 1383 H 130.095 1.14621 2.76591 0
M  V30 1384 H 127.641 0.552613 1.32974 0
M  V30 1385 H 129.594 -0.879012 4.1213 0
M  V30 1386 H 128.318 -1.35299 2.97257 0
M  V30 1387 H 126.977 0.684664 3.6015 0
M  V30 1388 H 126.625 -1.47751 4.8081 0
M  V30 1389 H 126.325 -0.0830621 5.87541 0
M  V30 1390 H 127.849 -1.00375 6.02293 0
M  V30 1391 H 129.263 1.22796 5.59995 0
M  V30 1392 H 127.66 2.01745 5.65172 0
M  V30 1393 H 128.73 2.30285 4.26728 0
M  V30 1394 N 130.073 -1.45103 0.615059 0
M  V30 1395 C 131.319 -2.02483 0.113347 0
M  V30 1396 C 131.652 -1.48146 -1.25564 0
M  V30 1397 O 130.927 -0.659104 -1.82992 0
M  V30 1398 C 131.21 -3.60005 0.0825278 0
M  V30 1399 C 131.063 -4.2466 1.48271 0
M  V30 1400 C 132.382 -4.35972 -0.601401 0
M  V30 1401 H 129.501 -0.735764 0.0426632 0
M  V30 1402 H 132.143 -1.72868 0.788461 0
M  V30 1403 H 130.293 -3.85367 -0.492378 0
M  V30 1404 H 131.965 -4.10458 2.10527 0
M  V30 1405 H 130.208 -3.82772 2.04127 0
M  V30 1406 H 130.879 -5.336 1.41332 0
M  V30 1407 H 133.355 -4.15947 -0.112666 0
M  V30 1408 H 132.231 -5.45697 -0.592097 0
M  V30 1409 H 132.492 -4.09391 -1.66887 0
M  V30 1410 N 131.551 -0.354651 -1.53558 0
M  V30 1411 C 132.484 0.540273 -2.21712 0
M  V30 1412 C 133.462 1.09161 -1.2051 0
M  V30 1413 O 134.646 1.14979 -1.49372 0
M  V30 1414 C 131.773 1.74435 -2.90328 0
M  V30 1415 C 130.819 1.32146 -4.05512 0
M  V30 1416 S 131.652 0.331924 -5.3447 0
M  V30 1417 C 132.808 1.54258 -6.06593 0
M  V30 1418 H 133.041 -0.0385776 -2.97275 0
M  V30 1419 H 130.574 -0.138736 -1.53775 0
M  V30 1420 H 132.532 2.43507 -3.30476 0
M  V30 1421 H 131.193 2.29444 -2.1451 0
M  V30 1422 H 130.386 2.21952 -4.52497 0
M  V30 1423 H 129.988 0.710091 -3.67197 0
M  V30 1424 H 132.28 2.47534 -6.30661 0
M  V30 1425 H 133.223 1.11431 -6.99277 0
M  V30 1426 H 133.631 1.74367 -5.36895 0
M  V30 1427 N 133.029 1.57378 -0.0835403 0
M  V30 1428 C 134.306 1.85363 0.624507 0
M  V30 1429 C 134.686 0.978239 1.87066 0
M  V30 1430 O 134.034 0.0475908 2.2845 0
M  V30 1431 C 134.244 3.35795 0.950947 0
M  V30 1432 C 135.592 4.03581 1.31939 0
M  V30 1433 O 136.616 3.40609 1.04232 0
M  V30 1434 O 135.475 5.14672 1.83779 0
M  V30 1435 H 132.569 0.766162 0.311329 0
M  V30 1436 H 135.115 1.69307 -0.115362 0
M  V30 1437 H 133.887 3.91244 0.0663899 0
M  V30 1438 H 133.51 3.57154 1.74719 0
M  V30 1439 N 134.507 -0.190092 1.56449 0
M  V30 1440 C 135.437 -1.23816 1.97969 0
M  V30 1441 C 136.418 -1.47201 0.852395 0
M  V30 1442 O 137.603 -1.58854 1.1171 0
M  V30 1443 C 134.733 -2.5813 2.3235 0
M  V30 1444 C 133.687 -2.49348 3.47864 0
M  V30 1445 C 133.013 -3.8798 3.67934 0
M  V30 1446 C 134.313 -2.01424 4.81898 0
M  V30 1447 H 136.007 -0.89311 2.85769 0
M  V30 1448 H 133.553 -0.428177 1.37487 0
M  V30 1449 H 135.506 -3.31637 2.59991 0
M  V30 1450 H 134.23 -2.94386 1.41438 0
M  V30 1451 H 132.889 -1.78297 3.20321 0
M  V30 1452 H 132.537 -4.21597 2.74344 0
M  V30 1453 H 132.237 -3.82978 4.45648 0
M  V30 1454 H 133.761 -4.63101 3.97957 0
M  V30 1455 H 135.175 -2.64693 5.08538 0
M  V30 1456 H 133.572 -2.07413 5.63116 0
M  V30 1457 H 134.642 -0.967677 4.75146 0
M  V30 1458 N 135.985 -1.50799 -0.457987 0
M  V30 1459 C 136.915 -1.73553 -1.5621 0
M  V30 1460 C 137.896 -0.584774 -1.59732 0
M  V30 1461 O 139.081 -0.825314 -1.7579 0
M  V30 1462 C 136.211 -1.84169 -2.94447 0
M  V30 1463 C 135.165 -2.99461 -3.0579 0
M  V30 1464 C 134.491 -2.95235 -4.45803 0
M  V30 1465 C 135.791 -4.39766 -2.81786 0
M  V30 1466 H 137.485 -2.66 -1.37421 0
M  V30 1467 H 135.031 -1.28002 -0.659662 0
M  V30 1468 H 136.984 -1.98672 -3.71628 0
M  V30 1469 H 135.708 -0.883545 -3.14422 0
M  V30 1470 H 134.367 -2.8463 -2.31044 0
M  V30 1471 H 134.015 -1.97239 -4.62715 0
M  V30 1472 H 133.715 -3.72642 -4.54326 0
M  V30 1473 H 135.239 -3.11803 -5.24987 0
M  V30 1474 H 136.653 -4.55054 -3.4871 0
M  V30 1475 H 135.05 -5.18722 -3.0174 0
M  V30 1476 H 136.12 -4.51229 -1.7754 0
M  V30 1477 N 137.463 0.71206 -1.40597 0
M  V30 1478 C 138.711 1.46907 -1.38791 0
M  V30 1479 C 139.032 1.94998 0.00780391 0
M  V30 1480 O 138.302 1.70587 0.963174 0
M  V30 1481 H 136.882 0.545043 -0.51082 0
M  V30 1482 H 139.544 0.843882 -1.75683 0
M  V30 1483 H 138.64 2.34021 -2.06496 0
M  V30 1484 N 138.941 1.26152 0.944643 0
M  V30 1485 C 140.352 1.10454 1.50522 0
M  V30 1486 C 140.703 -0.31635 1.93633 0
M  V30 1487 O 139.828 -1.20746 1.79581 0
M  V30 1488 C 140.423 1.99891 2.73549 0
M  V30 1489 C 138.982 1.88348 3.25886 0
M  V30 1490 C 138.129 1.93447 1.9868 0
M  V30 1491 H 141.08 1.39292 0.760489 0
M  V30 1492 H 141.101 1.54477 3.47732 0
M  V30 1493 H 140.613 3.03297 2.42141 0
M  V30 1494 H 138.714 0.878636 3.62092 0
M  V30 1495 H 138.827 2.73696 3.93227 0
M  V30 1496 H 137.191 1.37456 2.14425 0
M  V30 1497 H 137.974 2.98476 1.69607 0
M  V30 1498 N 140.419 -1.14872 1.07899 0
M  V30 1499 C 141.644 -1.90202 0.826926 0
M  V30 1500 C 142.069 -1.77774 -0.614664 0
M  V30 1501 O 141.427 -1.11431 -1.43013 0
M  V30 1502 C 141.475 -3.38352 1.24702 0
M  V30 1503 O 140.579 -4.10497 0.39575 0
M  V30 1504 H 139.92 -0.591968 0.300782 0
M  V30 1505 H 142.45 -1.45437 1.43907 0
M  V30 1506 H 142.46 -3.89156 1.22563 0
M  V30 1507 H 141.135 -3.46715 2.29698 0
M  V30 1508 H 139.712 -3.69796 0.480117 0
M  V30 1509 N 141.898 -0.863906 -1.31812 0
M  V30 1510 C 142.828 -0.330843 -2.31144 0
M  V30 1511 C 143.809 0.575005 -1.60087 0
M  V30 1512 O 144.994 0.493304 -1.8783 0
M  V30 1513 C 142.124 0.47374 -3.44054 0
M  V30 1514 C 141.078 -0.338481 -4.26659 0
M  V30 1515 C 140.404 0.591412 -5.31419 0
M  V30 1516 C 141.704 -1.56926 -4.98168 0
M  V30 1517 H 143.398 -1.16086 -2.75979 0
M  V30 1518 H 140.944 -0.559657 -1.32679 0
M  V30 1519 H 142.897 0.857143 -4.12591 0
M  V30 1520 H 141.621 1.33721 -2.9797 0
M  V30 1521 H 140.28 -0.703754 -3.59782 0
M  V30 1522 H 139.928 1.45199 -4.81587 0
M  V30 1523 H 139.628 0.0519022 -5.87577 0
M  V30 1524 H 141.152 0.97179 -6.02817 0
M  V30 1525 H 142.566 -1.25764 -5.59336 0
M  V30 1526 H 140.963 -2.04739 -5.64094 0
M  V30 1527 H 142.033 -2.32544 -4.25501 0
M  V30 1528 N 143.376 1.44774 -0.622745 0
M  V30 1529 C 144.286 2.34433 0.0886031 0
M  V30 1530 C 145.302 1.52131 0.844529 0
M  V30 1531 O 146.478 1.84886 0.798691 0
M  V30 1532 C 143.543 3.29986 1.0635 0
M  V30 1533 C 142.604 4.28195 0.307873 0
M  V30 1534 C 141.837 5.19183 1.23633 0
M  V30 1535 O 142.06 5.13918 2.47476 0
M  V30 1536 O 140.994 5.97515 0.725189 0
M  V30 1537 H 144.82 2.96693 -0.648599 0
M  V30 1538 H 142.405 1.44408 -0.382957 0
M  V30 1539 H 144.287 3.88825 1.6246 0
M  V30 1540 H 142.962 2.70269 1.78146 0
M  V30 1541 H 141.869 3.72927 -0.296064 0
M  V30 1542 H 143.202 4.90808 -0.3699 0
M  V30 1543 N 144.854 0.36279 1.53368 0
M  V30 1544 C 146.131 -0.284021 1.93527 0
M  V30 1545 C 146.511 -1.66628 1.29608 0
M  V30 1546 O 145.859 -2.23942 0.45413 0
M  V30 1547 C 146.069 -0.337028 3.47369 0
M  V30 1548 C 147.417 -0.578708 4.20638 0
M  V30 1549 O 148.441 -0.418352 3.53735 0
M  V30 1550 O 147.3 -0.89074 5.39192 0
M  V30 1551 H 144.394 -0.169743 0.809393 0
M  V30 1552 H 146.94 0.41537 1.64538 0
M  V30 1553 H 145.712 0.632217 3.86159 0
M  V30 1554 H 145.335 -1.08243 3.82582 0
M  V30 1555 N 146.332 -1.57332 0.0918853 0
M  V30 1556 C 147.262 -2.16872 -0.865371 0
M  V30 1557 C 148.243 -1.10118 -1.29646 0
M  V30 1558 O 149.428 -1.38242 -1.36392 0
M  V30 1559 C 146.558 -2.74649 -2.12569 0
M  V30 1560 C 145.512 -3.86747 -1.83333 0
M  V30 1561 C 144.838 -4.31212 -3.16166 0
M  V30 1562 C 146.138 -5.10089 -1.1228 0
M  V30 1563 H 147.832 -2.97114 -0.369307 0
M  V30 1564 H 145.378 -1.42918 -0.176194 0
M  V30 1565 H 147.331 -3.14952 -2.7997 0
M  V30 1566 H 146.055 -1.91657 -2.64452 0
M  V30 1567 H 144.714 -3.46978 -1.18331 0
M  V30 1568 H 144.362 -3.45115 -3.6593 0
M  V30 1569 H 144.062 -5.06788 -2.97388 0
M  V30 1570 H 145.586 -4.74146 -3.84731 0
M  V30 1571 H 147 -5.47582 -1.69785 0
M  V30 1572 H 145.397 -5.91073 -1.03693 0
M  V30 1573 H 146.467 -4.84786 -0.105041 0
M  V30 1574 N 147.81 0.181792 -1.56548 0
M  V30 1575 C 149.057 0.900097 -1.81396 0
M  V30 1576 C 149.385 1.82695 -0.667281 0
M  V30 1577 O 148.64 1.92614 0.346146 0
M  V30 1578 C 148.939 1.73728 -3.12335 0
M  V30 1579 C 148.605 0.960255 -4.40556 0
M  V30 1580 C 147.267 0.745766 -4.75386 0
M  V30 1581 C 149.619 0.414477 -5.19549 0
M  V30 1582 C 146.947 -0.0257694 -5.86694 0
M  V30 1583 C 149.299 -0.343916 -6.31664 0
M  V30 1584 C 147.963 -0.569301 -6.65068 0
M  V30 1585 H 147.233 0.329369 -0.663775 0
M  V30 1586 H 149.88 0.165647 -1.90782 0
M  V30 1587 H 148.185 2.54081 -2.98245 0
M  V30 1588 H 149.882 2.29591 -3.28769 0
M  V30 1589 H 146.472 1.13746 -4.13231 0
M  V30 1590 H 150.656 0.567554 -4.93044 0
M  V30 1591 H 145.912 -0.210233 -6.11038 0
M  V30 1592 H 150.086 -0.774133 -6.92084 0
M  V30 1593 H 147.713 -1.16903 -7.51158 0
M  V30 1594 N 149.288 1.51039 0.449983 0
M  V30 1595 C 150.236 1.71995 1.5659 0
M  V30 1596 C 151.23 0.586029 1.5894 0
M  V30 1597 O 152.436 0.76709 1.62837 0
M  V30 1598 H 148.811 0.543233 0.520001 0
M  V30 1599 H 150.782 2.65562 1.36085 0
M  V30 1600 C 149.531 1.8506 2.9436 0
M  V30 1601 H 148.854 2.71712 2.93279 0
M  V30 1602 H 150.294 2.0374 3.71842 0
M  V30 1603 C 148.753 0.607277 3.31382 0
M  V30 1604 O 149.283 -0.243903 4.00959 0
M  V30 1605 N 147.489 0.455073 2.87015 0
M  V30 1606 H 147.036 1.14879 2.30566 0
M  V30 1607 H 146.994 -0.375611 3.12148 0
M  V30 1608 N 150.766 -0.704594 1.40972 0
M  V30 1609 C 152.013 -1.46458 1.39844 0
M  V30 1610 C 152.341 -1.94499 0.00447594 0
M  V30 1611 O 151.596 -1.69275 -0.982057 0
M  V30 1612 C 151.895 -2.698 2.34399 0
M  V30 1613 C 151.561 -2.40464 3.81429 0
M  V30 1614 C 150.223 -2.32174 4.21484 0
M  V30 1615 C 152.575 -2.16086 4.74296 0
M  V30 1616 C 149.903 -1.97589 5.52427 0
M  V30 1617 C 152.255 -1.83011 6.05549 0
M  V30 1618 C 150.919 -1.7321 6.44635 0
M  V30 1619 H 150.189 -0.535927 0.511725 0
M  V30 1620 H 152.836 -0.806124 1.73706 0
M  V30 1621 H 151.141 -3.40536 1.93759 0
M  V30 1622 H 152.838 -3.27919 2.30804 0
M  V30 1623 H 149.428 -2.47808 3.49699 0
M  V30 1624 H 153.612 -2.2144 4.4416 0
M  V30 1625 H 148.868 -1.88547 5.81601 0
M  V30 1626 H 153.042 -1.63164 6.77016 0
M  V30 1627 H 150.669 -1.46179 7.46013 0
M  V30 1628 N 152.244 -1.26651 -0.937939 0
M  V30 1629 C 153.484 -1.13611 -1.69917 0
M  V30 1630 C 153.848 0.314687 -1.89404 0
M  V30 1631 O 155.049 0.567285 -2.62746 0
M  V30 1632 C 153.32 -1.88742 -3.03498 0
M  V30 1633 S 154.879 -1.91794 -3.94665 0
M  V30 1634 H 151.697 -0.405767 -0.583844 0
M  V30 1635 H 154.299 -1.60416 -1.11745 0
M  V30 1636 H 153.003 -2.9336 -2.86999 0
M  V30 1637 H 152.534 -1.42391 -3.66727 0
M  V30 1638 H 154.549 -1.00698 -4.85875 0
M  V30 1639 N 153.722 1.14298 -1.08507 0
M  V30 1640 C 154.947 1.8976 -0.837001 0
M  V30 1641 C 155.372 1.78097 0.605228 0
M  V30 1642 O 154.73 1.12188 1.4242 0
M  V30 1643 C 154.778 3.37685 -1.26495 0
M  V30 1644 O 153.882 4.10281 -0.417514 0
M  V30 1645 H 153.223 0.590365 -0.303917 0
M  V30 1646 H 155.753 1.44672 -1.44676 0
M  V30 1647 H 155.763 3.88501 -1.24625 0
M  V30 1648 H 154.438 3.45492 -2.31534 0
M  V30 1649 H 153.015 3.69536 -0.499722 0
M  V30 1650 N 155.201 0.870884 1.31352 0
M  V30 1651 C 156.617 0.562932 1.49343 0
M  V30 1652 C 156.817 -0.902725 1.80148 0
M  V30 1653 O 155.873 -1.68484 1.88067 0
M  V30 1654 C 157.186 1.46393 2.62659 0
M  V30 1655 C 158.734 1.46607 2.76542 0
M  V30 1656 C 159.209 2.35266 3.92955 0
M  V30 1657 N 160.7 2.33151 4.00243 0
M  V30 1658 C 161.435 2.98471 4.89594 0
M  V30 1659 N 160.931 3.72964 5.8384 0
M  V30 1660 N 162.724 2.87775 4.82848 0
M  V30 1661 H 154.875 1.81923 1.09626 0
M  V30 1662 H 157.138 0.777934 0.541777 0
M  V30 1663 H 156.844 2.50689 2.46674 0
M  V30 1664 H 156.718 1.16314 3.58819 0
M  V30 1665 H 159.105 0.43069 2.9194 0
M  V30 1666 H 159.186 1.8071 1.81046 0
M  V30 1667 H 158.83 3.38881 3.78315 0
M  V30 1668 H 158.76 1.98487 4.87761 0
M  V30 1669 H 161.251 1.79006 3.32814 0
M  V30 1670 H 161.564 4.19932 6.4875 0
M  V30 1671 H 159.909 3.77073 5.83816 0
M  V30 1672 H 163.1 2.29116 4.08195 0
M  V30 1673 H 163.273 3.38961 5.52277 0
M  V30 1674 N 156.679 -1.44442 0.630414 0
M  V30 1675 C 158.095 -1.56832 0.295973 0
M  V30 1676 C 158.295 -1.61806 -1.20088 0
M  V30 1677 O 157.351 -1.5607 -1.9849 0
M  V30 1678 C 158.664 -2.84031 0.987264 0
M  V30 1679 C 160.212 -2.97742 0.96534 0
M  V30 1680 C 160.687 -4.27743 1.63708 0
M  V30 1681 N 162.178 -4.34555 1.60364 0
M  V30 1682 C 162.913 -5.33862 2.09234 0
M  V30 1683 N 162.409 -6.39578 2.66292 0
M  V30 1684 N 164.202 -5.25366 1.99867 0
M  V30 1685 H 156.353 -1.39457 1.60205 0
M  V30 1686 H 158.616 -0.668237 0.672431 0
M  V30 1687 H 158.322 -2.86338 2.04215 0
M  V30 1688 H 158.196 -3.73534 0.524588 0
M  V30 1689 H 160.583 -2.94989 -0.0810639 0
M  V30 1690 H 160.664 -2.09589 1.4665 0
M  V30 1691 H 160.308 -4.31255 2.68293 0
M  V30 1692 H 160.238 -5.14752 1.11076 0
M  V30 1693 H 162.729 -3.58772 1.18705 0
M  V30 1694 H 163.042 -7.11637 3.01317 0
M  V30 1695 H 161.387 -6.40265 2.70343 0
M  V30 1696 H 164.578 -4.41688 1.55013 0
M  V30 1697 H 164.751 -6.02606 2.38265 0
M  V30 1698 N 158.157 -0.370918 -1.53173 0
M  V30 1699 C 159.404 0.217102 -2.01333 0
M  V30 1700 C 159.732 1.48338 -1.25802 0
M  V30 1701 O 158.987 1.92698 -0.34146 0
M  V30 1702 C 159.286 0.549696 -3.53147 0
M  V30 1703 C 158.952 -0.622872 -4.46577 0
M  V30 1704 C 157.614 -0.944595 -4.71838 0
M  V30 1705 C 159.966 -1.40819 -5.01816 0
M  V30 1706 C 157.294 -2.05351 -5.49589 0
M  V30 1707 C 159.646 -2.50757 -5.80778 0
M  V30 1708 C 158.31 -2.83458 -6.04324 0
M  V30 1709 H 157.58 0.0794431 -0.736729 0
M  V30 1710 H 160.227 -0.504481 -1.84736 0
M  V30 1711 H 158.532 1.35237 -3.6772 0
M  V30 1712 H 160.229 1.017 -3.87889 0
M  V30 1713 H 156.819 -0.36209 -4.27068 0
M  V30 1714 H 161.003 -1.17289 -4.82242 0
M  V30 1715 H 156.259 -2.3108 -5.6605 0
M  V30 1716 H 160.433 -3.12022 -6.22588 0
M  V30 1717 H 158.06 -3.69508 -6.64355 0
M  V30 1718 N 159.635 1.57281 -0.100228 0
M  V30 1719 C 160.863 1.98879 0.570509 0
M  V30 1720 C 161.278 0.979476 1.61405 0
M  V30 1721 O 160.635 -0.0302288 1.82475 0
M  V30 1722 C 160.686 3.4052 1.2136 0
M  V30 1723 O 160.407 4.37588 0.211786 0
M  V30 1724 C 161.908 3.97149 1.96945 0
M  V30 1725 H 159.128 0.653428 0.152555 0
M  V30 1726 H 161.672 2.03697 -0.18103 0
M  V30 1727 H 159.827 3.367 1.91603 0
M  V30 1728 H 160.241 5.20118 0.676607 0
M  V30 1729 H 161.715 4.98393 2.37294 0
M  V30 1730 H 162.192 3.3525 2.83733 0
M  V30 1731 H 162.798 4.04458 1.31506 0
M  V30 1732 N 161.113 -0.173488 1.56642 0
M  V30 1733 C 162.046 -1.24353 1.91342 0
M  V30 1734 C 163.024 -1.4289 0.775965 0
M  V30 1735 O 164.208 -1.57932 1.02907 0
M  V30 1736 C 161.335 -2.60683 2.16245 0
M  V30 1737 C 160.381 -2.58894 3.38934 0
M  V30 1738 S 161.214 -2.0819 4.93373 0
M  V30 1739 C 162.37 -3.46302 5.21369 0
M  V30 1740 H 162.603 -0.947345 2.81803 0
M  V30 1741 H 160.136 -0.377958 1.49703 0
M  V30 1742 H 162.094 -3.39149 2.31275 0
M  V30 1743 H 160.755 -2.87502 1.26496 0
M  V30 1744 H 159.948 -3.59188 3.53553 0
M  V30 1745 H 159.55 -1.88522 3.2301 0
M  V30 1746 H 161.842 -4.42287 5.13214 0
M  V30 1747 H 162.785 -3.3656 6.23003 0
M  V30 1748 H 163.193 -3.42214 4.48943 0
M  V30 1749 N 162.591 -1.51276 -0.441967 0
M  V30 1750 C 163.538 -1.72256 -1.53612 0
M  V30 1751 C 164.508 -0.564164 -1.56225 0
M  V30 1752 O 165.693 -0.798074 -1.73307 0
M  V30 1753 C 162.833 -1.84932 -2.91366 0
M  V30 1754 C 161.946 -3.12459 -2.98317 0
M  V30 1755 C 161.081 -3.15758 -4.27166 0
M  V30 1756 C 160.12 -4.37619 -4.27967 0
M  V30 1757 N 159.257 -4.38493 -5.48333 0
M  V30 1758 H 164.097 -2.65654 -1.35026 0
M  V30 1759 H 161.634 -1.31662 -0.656009 0
M  V30 1760 H 163.592 -1.90263 -3.7129 0
M  V30 1761 H 162.222 -0.949461 -3.08521 0
M  V30 1762 H 161.274 -3.1646 -2.11086 0
M  V30 1763 H 162.586 -4.02382 -2.94771 0
M  V30 1764 H 161.74 -3.19979 -5.15459 0
M  V30 1765 H 160.479 -2.23715 -4.33362 0
M  V30 1766 H 159.484 -4.33579 -3.38067 0
M  V30 1767 H 160.709 -5.30921 -4.23438 0
M  V30 1768 H 158.655 -3.49318 -5.55259 0
M  V30 1769 H 158.572 -5.22219 -5.46647 0
M  V30 1770 H 159.84 -4.469 -6.38671 0
M  V30 1771 N 164.069 0.697108 -1.41344 0
M  V30 1772 C 165.297 1.48593 -1.43972 0
M  V30 1773 C 165.712 1.88747 -0.0445612 0
M  V30 1774 O 165.069 1.56682 0.935785 0
M  V30 1775 C 165.12 2.74946 -2.34706 0
M  V30 1776 O 164.841 2.36484 -3.68791 0
M  V30 1777 C 166.342 3.687 -2.46121 0
M  V30 1778 H 163.562 0.457964 -0.490418 0
M  V30 1779 H 166.106 0.858429 -1.8561 0
M  V30 1780 H 164.261 3.33937 -1.9638 0
M  V30 1781 H 164.675 3.17918 -4.17167 0
M  V30 1782 H 166.149 4.54145 -3.13777 0
M  V30 1783 H 166.626 4.13081 -1.49199 0
M  V30 1784 H 167.232 3.15613 -2.85076 0
M  V30 1785 N 165.547 1.27147 0.931209 0
M  V30 1786 C 166.793 1.13446 1.68101 0
M  V30 1787 C 167.126 -0.319628 1.91552 0
M  V30 1788 O 166.401 -1.23407 1.50336 0
M  V30 1789 C 166.684 1.91482 3.0497 0
M  V30 1790 C 166.537 3.44855 2.88782 0
M  V30 1791 C 167.856 1.71651 4.05246 0
M  V30 1792 H 164.975 0.413498 0.610072 0
M  V30 1793 H 167.617 1.56261 1.08086 0
M  V30 1794 H 165.767 1.55095 3.56199 0
M  V30 1795 H 167.439 3.9105 2.44698 0
M  V30 1796 H 165.682 3.71373 2.24198 0
M  V30 1797 H 166.353 3.94694 3.85902 0
M  V30 1798 H 168.829 2.0337 3.63015 0
M  V30 1799 H 167.705 2.28651 4.99009 0
M  V30 1800 H 167.966 0.663555 4.37092 0
M  V30 1801 N 167.025 -1.13721 1.09112 0
M  V30 1802 C 167.955 -2.21148 0.749385 0
M  V30 1803 C 168.936 -1.6792 -0.271475 0
M  V30 1804 O 170.121 -1.93693 -0.140251 0
M  V30 1805 C 167.251 -3.46905 0.165659 0
M  V30 1806 C 166.205 -4.13203 1.11567 0
M  V30 1807 C 165.531 -5.33248 0.393809 0
M  V30 1808 C 166.831 -4.60912 2.45678 0
M  V30 1809 H 168.525 -2.4999 1.64758 0
M  V30 1810 H 166.071 -1.20156 0.793626 0
M  V30 1811 H 168.024 -4.21313 -0.085466 0
M  V30 1812 H 166.748 -3.17449 -0.767714 0
M  V30 1813 H 165.407 -3.40758 1.35202 0
M  V30 1814 H 165.055 -5.00054 -0.543599 0
M  V30 1815 H 164.755 -5.78552 1.02721 0
M  V30 1816 H 166.279 -6.10413 0.150908 0
M  V30 1817 H 167.693 -5.26759 2.26269 0
M  V30 1818 H 166.09 -5.16944 3.04776 0
M  V30 1819 H 167.16 -3.75603 3.06677 0
M  V30 1820 N 168.503 -0.877838 -1.30888 0
M  V30 1821 C 169.436 -0.283995 -2.26426 0
M  V30 1822 C 170.414 0.591361 -1.51465 0
M  V30 1823 O 171.598 0.54304 -1.80509 0
M  V30 1824 C 168.725 0.597129 -3.33395 0
M  V30 1825 C 167.771 -0.207937 -4.25993 0
M  V30 1826 S 168.604 -1.59158 -5.11301 0
M  V30 1827 C 169.76 -0.716791 -6.21782 0
M  V30 1828 H 169.993 -1.09383 -2.76446 0
M  V30 1829 H 167.526 -0.676828 -1.38775 0
M  V30 1830 H 169.484 1.09978 -3.95493 0
M  V30 1831 H 168.145 1.38099 -2.82113 0
M  V30 1832 H 167.338 0.464163 -5.01858 0
M  V30 1833 H 166.94 -0.642963 -3.68432 0
M  V30 1834 H 169.232 0.0692833 -6.77465 0
M  V30 1835 H 170.175 -1.44682 -6.93161 0
M  V30 1836 H 170.583 -0.280855 -5.63801 0
M  V30 1837 N 169.982 1.44106 -0.638065 0
M  V30 1838 C 170.912 2.33448 0.0494287 0
M  V30 1839 C 171.893 1.48606 0.827672 0
M  V30 1840 O 173.078 1.77308 0.792173 0
M  V30 1841 C 170.208 3.31771 1.02691 0
M  V30 1842 C 169.162 4.26485 0.359823 0
M  V30 1843 C 168.488 5.14729 1.44769 0
M  V30 1844 C 169.788 5.17056 -0.738296 0
M  V30 1845 H 171.482 2.91183 -0.696636 0
M  V30 1846 H 169.028 1.40014 -0.336456 0
M  V30 1847 H 170.981 3.93161 1.51666 0
M  V30 1848 H 169.705 2.7226 1.80395 0
M  V30 1849 H 168.364 3.66437 -0.10934 0
M  V30 1850 H 168.012 4.51566 2.21578 0
M  V30 1851 H 167.712 5.78913 1.00668 0
M  V30 1852 H 169.236 5.78991 1.93911 0
M  V30 1853 H 170.65 5.72342 -0.331354 0
M  V30 1854 H 169.047 5.89879 -1.10286 0
M  V30 1855 H 170.117 4.57652 -1.60258 0
M  V30 1856 N 171.46 0.379036 1.52974 0
M  V30 1857 C 172.423 -0.448865 2.24762 0
M  V30 1858 C 173.423 -0.998689 1.26027 0
M  V30 1859 O 174.613 -0.882313 1.50203 0
M  V30 1860 C 171.745 -1.62872 2.99476 0
M  V30 1861 H 172.938 0.179491 2.99362 0
M  V30 1862 H 170.491 0.13096 1.5575 0
M  V30 1863 H 171.226 -2.29479 2.29151 0
M  V30 1864 H 171.011 -1.24128 3.71934 0
M  V30 1865 H 172.501 -2.2151 3.5401 0
M  V30 1866 N 172.938 -1.57226 0.108567 0
M  V30 1867 C 174.215 -1.86333 -0.594939 0
M  V30 1868 C 174.595 -1.00788 -1.85486 0
M  V30 1869 O 173.943 -0.0839293 -2.28346 0
M  V30 1870 C 174.153 -3.37265 -0.897405 0
M  V30 1871 C 175.501 -4.05629 -1.25501 0
M  V30 1872 O 176.525 -3.42224 -0.987998 0
M  V30 1873 O 175.384 -5.17531 -1.75567 0
M  V30 1874 H 172.478 -0.771018 -0.2991 0
M  V30 1875 H 175.024 -1.69102 0.142283 0
M  V30 1876 H 173.796 -3.913 -0.00413806 0
M  V30 1877 H 173.419 -3.59889 -1.69014 0
M  V30 1878 N 174.416 0.165178 -1.56732 0
M  V30 1879 C 175.348 1.22911 -1.93457 0
M  V30 1880 C 176.361 1.40152 -0.828333 0
M  V30 1881 O 177.55 1.40046 -1.10677 0
M  V30 1882 C 174.65 2.59686 -2.17753 0
M  V30 1883 C 173.823 2.63663 -3.48999 0
M  V30 1884 C 172.882 3.81845 -3.62051 0
M  V30 1885 O 171.908 3.67559 -4.34613 0
M  V30 1886 N 173.11 4.98557 -2.97357 0
M  V30 1887 H 175.875 0.917118 -2.85323 0
M  V30 1888 H 173.436 0.354895 -1.57962 0
M  V30 1889 H 175.428 3.37225 -2.23743 0
M  V30 1890 H 173.998 2.83251 -1.32242 0
M  V30 1891 H 173.218 1.72173 -3.54612 0
M  V30 1892 H 174.506 2.63336 -4.35352 0
M  V30 1893 H 173.904 5.13065 -2.38287 0
M  V30 1894 H 172.461 5.73936 -3.08934 0
M  V30 1895 N 175.894 1.51508 0.433938 0
M  V30 1896 C 176.827 1.67756 1.54704 0
M  V30 1897 C 177.805 0.525127 1.53887 0
M  V30 1898 O 178.989 0.749393 1.72963 0
M  V30 1899 C 176.116 1.69424 2.9328 0
M  V30 1900 C 175.162 2.90673 3.12108 0
M  V30 1901 S 175.995 4.51431 2.88046 0
M  V30 1902 C 177.151 4.55849 4.28897 0
M  V30 1903 H 177.384 2.61904 1.40689 0
M  V30 1904 H 174.917 1.41235 0.62386 0
M  V30 1905 H 176.875 1.7107 3.73156 0
M  V30 1906 H 175.536 0.764464 3.04655 0
M  V30 1907 H 174.729 2.88251 4.13434 0
M  V30 1908 H 174.331 2.86786 2.40062 0
M  V30 1909 H 176.623 4.31699 5.22152 0
M  V30 1910 H 177.566 5.57676 4.36351 0
M  V30 1911 H 177.974 3.85137 4.12711 0
M  V30 1912 N 177.372 -0.689602 1.41712 0
M  V30 1913 C 178.621 -1.44534 1.40686 0
M  V30 1914 C 178.934 -1.95588 0.0213352 0
M  V30 1915 O 180.14 -2.71271 -0.111534 0
M  V30 1916 C 178.596 -2.61387 2.47396 0
M  V30 1917 C 178.204 -2.17094 3.91885 0
M  V30 1918 C 179.948 -3.38986 2.55517 0
M  V30 1919 C 177.855 -3.3094 4.90135 0
M  V30 1920 H 176.785 -0.542925 0.52321 0
M  V30 1921 H 179.436 -0.748054 1.6756 0
M  V30 1922 H 177.818 -3.33412 2.13664 0
M  V30 1923 H 178.992 -1.52318 4.34897 0
M  V30 1924 H 177.307 -1.52473 3.8748 0
M  V30 1925 H 179.904 -4.23747 3.26102 0
M  V30 1926 H 180.247 -3.84578 1.59391 0
M  V30 1927 H 180.78 -2.74021 2.8837 0
M  V30 1928 H 177.519 -2.90355 5.87685 0
M  V30 1929 H 177.039 -3.94546 4.51767 0
M  V30 1930 H 178.718 -3.9663 5.11169 0
M  V30 1931 N 178.85 -1.27639 -0.924453 0
M  V30 1932 C 180.075 -1.17101 -1.71179 0
M  V30 1933 C 180.5 0.268134 -1.86179 0
M  V30 1934 O 179.858 1.19415 -1.36418 0
M  V30 1935 C 179.906 -1.86313 -3.08739 0
M  V30 1936 O 179.01 -1.16331 -3.95652 0
M  V30 1937 H 178.351 -0.407091 -0.524569 0
M  V30 1938 H 180.881 -1.68767 -1.15666 0
M  V30 1939 H 180.891 -1.938 -3.59034 0
M  V30 1940 H 179.566 -2.91001 -2.97138 0
M  V30 1941 H 178.143 -1.16935 -3.54091 0
M  V30 1942 N 180.328 1.1314 -1.09713 0
M  V30 1943 C 181.744 1.36477 -0.827423 0
M  V30 1944 C 181.944 1.93654 0.556817 0
M  V30 1945 O 181 2.15791 1.31112 0
M  V30 1946 C 182.313 2.31334 -1.92106 0
M  V30 1947 C 183.861 2.44943 -1.94864 0
M  V30 1948 C 184.336 3.4311 -3.0338 0
M  V30 1949 N 185.827 3.50662 -3.02639 0
M  V30 1950 C 186.562 4.2651 -3.83246 0
M  V30 1951 N 186.058 5.05485 -4.73768 0
M  V30 1952 N 187.851 4.2184 -3.71493 0
M  V30 1953 H 180.002 0.743807 -1.9895 0
M  V30 1954 H 182.265 0.389823 -0.864143 0
M  V30 1955 H 181.971 1.96483 -2.91698 0
M  V30 1956 H 181.845 3.31381 -1.80184 0
M  V30 1957 H 184.232 2.79079 -0.959099 0
M  V30 1958 H 184.313 1.4481 -2.10864 0
M  V30 1959 H 183.957 3.09704 -4.02549 0
M  V30 1960 H 183.887 4.43055 -2.84622 0
M  V30 1961 H 186.378 2.94315 -2.37039 0
M  V30 1962 H 186.691 5.60675 -5.3185 0
M  V30 1963 H 185.036 5.04708 -4.77802 0
M  V30 1964 H 188.227 3.5922 -3.00131 0
M  V30 1965 H 188.4 4.80697 -4.3455 0
M  V30 1966 N 181.806 0.884767 1.30421 0
M  V30 1967 C 183.055 0.499164 1.95426 0
M  V30 1968 C 183.368 -0.95645 1.70621 0
M  V30 1969 O 184.574 -1.44889 2.29607 0
M  V30 1970 C 183.03 0.84177 3.49917 0
M  V30 1971 C 182.638 2.31514 3.83543 0
M  V30 1972 C 184.382 0.525355 4.21237 0
M  V30 1973 C 182.289 2.59939 5.31212 0
M  V30 1974 H 181.219 0.182944 0.73147 0
M  V30 1975 H 183.87 1.07971 1.48373 0
M  V30 1976 H 182.252 0.190311 3.95542 0
M  V30 1977 H 183.426 3.0109 3.48829 0
M  V30 1978 H 181.741 2.59907 3.25326 0
M  V30 1979 H 184.338 0.714762 5.29901 0
M  V30 1980 H 184.681 -0.535222 4.12845 0
M  V30 1981 H 185.214 1.134 3.81294 0
M  V30 1982 H 181.953 3.64736 5.44654 0
M  V30 1983 H 181.473 1.94972 5.67227 0
M  V30 1984 H 183.152 2.45429 5.98643 0
M  V30 1985 N 183.284 -1.43765 0.645699 0
M  V30 1986 C 184.194 -2.34544 -0.0512957 0
M  V30 1987 C 185.21 -1.53455 -0.82022 0
M  V30 1988 O 186.386 -1.86133 -0.769176 0
M  V30 1989 C 183.451 -3.31636 -1.01087 0
M  V30 1990 C 182.512 -4.2863 -0.239712 0
M  V30 1991 C 181.745 -5.21084 -1.15358 0
M  V30 1992 O 181.968 -5.1779 -2.39269 0
M  V30 1993 O 180.902 -5.98593 -0.630038 0
M  V30 1994 H 184.728 -2.95624 0.695718 0
M  V30 1995 H 182.313 -1.43781 0.405882 0
M  V30 1996 H 184.195 -3.9136 -1.56254 0
M  V30 1997 H 182.87 -2.73069 -1.73824 0
M  V30 1998 H 181.777 -3.72408 0.355356 0
M  V30 1999 H 183.11 -4.90157 0.447936 0
M  V30 2000 N 184.763 -0.387143 -1.52771 0
M  V30 2001 C 185.993 0.195585 -2.05672 0
M  V30 2002 C 186.401 1.41241 -1.25887 0
M  V30 2003 O 185.744 1.81265 -0.298081 0
M  V30 2004 C 185.806 0.632327 -3.53895 0
M  V30 2005 C 185.47 -0.470739 -4.54569 0
M  V30 2006 C 186.467 -1.32746 -5.02667 0
M  V30 2007 C 184.152 -0.637151 -4.98243 0
M  V30 2008 C 186.146 -2.33574 -5.93061 0
M  V30 2009 C 183.833 -1.64877 -5.88438 0
M  V30 2010 C 184.831 -2.49649 -6.35739 0
M  V30 2011 O 184.519 -3.49082 -7.24153 0
M  V30 2012 H 184.251 0.033658 -0.675162 0
M  V30 2013 H 186.805 -0.550221 -1.97893 0
M  V30 2014 H 185.035 1.43008 -3.59285 0
M  V30 2015 H 186.724 1.14048 -3.89548 0
M  V30 2016 H 187.49 -1.21019 -4.69659 0
M  V30 2017 H 183.369 0.0129567 -4.60998 0
M  V30 2018 H 186.913 -2.99777 -6.29904 0
M  V30 2019 H 182.81 -1.76643 -6.2086 0
M  V30 2020 H 183.578 -3.45065 -7.42208 0
M  V30 2021 N 186.241 1.57166 -0.116904 0
M  V30 2022 C 187.487 1.95412 0.542405 0
M  V30 2023 C 187.82 1.00019 1.66463 0
M  V30 2024 O 187.095 0.0370346 1.94465 0
M  V30 2025 C 187.378 3.43615 1.07708 0
M  V30 2026 C 187.231 4.49781 -0.0415868 0
M  V30 2027 C 188.55 3.93616 1.96861 0
M  V30 2028 H 185.669 0.710543 0.195696 0
M  V30 2029 H 188.311 1.89027 -0.192038 0
M  V30 2030 H 186.461 3.49187 1.70296 0
M  V30 2031 H 188.133 4.56308 -0.676793 0
M  V30 2032 H 186.376 4.28033 -0.705019 0
M  V30 2033 H 187.047 5.50733 0.373717 0
M  V30 2034 H 189.523 3.90335 1.44146 0
M  V30 2035 H 188.399 4.97838 2.3119 0
M  V30 2036 H 188.66 3.34188 2.89432 0
M  V30 2037 N 187.719 -0.156864 1.56817 0
M  V30 2038 C 188.669 -1.19891 1.93934 0
M  V30 2039 C 189.653 -1.39061 0.809372 0
M  V30 2040 O 190.845 -1.40789 1.07273 0
M  V30 2041 C 187.974 -2.53493 2.31508 0
M  V30 2042 C 187.06 -2.37957 3.51052 0
M  V30 2043 N 187.451 -1.92158 4.67877 0
M  V30 2044 C 185.749 -2.68739 3.55943 0
M  V30 2045 C 186.45 -1.8943 5.49992 0
M  V30 2046 N 185.426 -2.32375 4.91429 0
M  V30 2047 H 189.228 -0.836746 2.81737 0
M  V30 2048 H 186.742 -0.365012 1.58245 0
M  V30 2049 H 188.739 -3.28811 2.56299 0
M  V30 2050 H 187.399 -2.905 1.45051 0
M  V30 2051 H 188.41 -1.62274 4.91821 0
M  V30 2052 H 185.087 -3.09687 2.80001 0
M  V30 2053 H 186.477 -1.55596 6.53636 0
M  V30 2054 N 189.197 -1.51736 -0.425897 0
M  V30 2055 C 190.425 -1.68794 -1.1965 0
M  V30 2056 C 190.84 -0.390164 -1.84725 0
M  V30 2057 O 190.197 0.632376 -1.71194 0
M  V30 2058 C 190.248 -2.81174 -2.27208 0
M  V30 2059 O 189.969 -4.05925 -1.64793 0
M  V30 2060 C 191.47 -3.09599 -3.17275 0
M  V30 2061 H 188.69 -0.566128 -0.360194 0
M  V30 2062 H 191.234 -1.98211 -0.503249 0
M  V30 2063 H 189.389 -2.54324 -2.9223 0
M  V30 2064 H 189.803 -4.68423 -2.35967 0
M  V30 2065 H 191.277 -3.91786 -3.88854 0
M  V30 2066 H 191.754 -2.22468 -3.78688 0
M  V30 2067 H 192.36 -3.38151 -2.57941 0
M  V30 2068 N 190.675 0.682077 -1.42076 0
M  V30 2069 C 191.622 1.79578 -1.44984 0
M  V30 2070 C 192.592 1.6332 -0.302614 0
M  V30 2071 O 193.777 1.83978 -0.505633 0
M  V30 2072 C 190.917 3.1756 -1.35091 0
M  V30 2073 C 190.03 3.45156 -2.59791 0
M  V30 2074 C 189.165 4.72826 -2.42093 0
M  V30 2075 C 188.204 4.93433 -3.62202 0
M  V30 2076 N 187.341 6.12338 -3.43491 0
M  V30 2077 H 192.181 1.76427 -2.40161 0
M  V30 2078 H 189.718 0.861376 -1.19242 0
M  V30 2079 H 191.676 3.97287 -1.27354 0
M  V30 2080 H 190.306 3.19854 -0.435133 0
M  V30 2081 H 189.358 2.59736 -2.77923 0
M  V30 2082 H 190.67 3.5628 -3.49094 0
M  V30 2083 H 189.824 5.60631 -2.319 0
M  V30 2084 H 188.563 4.63973 -1.50268 0
M  V30 2085 H 187.568 4.04073 -3.72834 0
M  V30 2086 H 188.793 5.04136 -4.54998 0
M  V30 2087 H 186.739 6.04672 -2.54377 0
M  V30 2088 H 186.656 6.2429 -4.26377 0
M  V30 2089 H 187.924 7.02841 -3.37097 0
M  V30 2090 N 192.153 1.28127 0.917671 0
M  V30 2091 C 193.101 1.11569 2.04096 0
M  V30 2092 C 194.095 0.0360242 1.69362 0
M  V30 2093 O 195.301 0.194501 1.78946 0
M  V30 2094 H 191.676 0.344097 0.668656 0
M  V30 2095 H 193.647 2.06711 2.15205 0
M  V30 2096 C 192.396 0.790197 3.38602 0
M  V30 2097 H 191.719 1.61293 3.6582 0
M  V30 2098 H 193.159 0.714271 4.1794 0
M  V30 2099 C 191.618 -0.505897 3.3308 0
M  V30 2100 O 192.148 -1.53736 3.71117 0
M  V30 2101 N 190.354 -0.505193 2.86175 0
M  V30 2102 H 189.901 0.334621 2.55417 0
M  V30 2103 H 189.859 -1.37243 2.82863 0
M  V30 2104 N 193.631 -1.12557 1.10312 0
M  V30 2105 C 194.878 -1.84038 0.844759 0
M  V30 2106 C 195.206 -1.84026 -0.629668 0
M  V30 2107 O 194.461 -1.28026 -1.48013 0
M  V30 2108 C 194.76 -3.31462 1.33669 0
M  V30 2109 C 194.426 -3.51647 2.82232 0
M  V30 2110 C 193.088 -3.56864 3.22802 0
M  V30 2111 C 195.44 -3.58867 3.77974 0
M  V30 2112 C 192.768 -3.66844 4.57867 0
M  V30 2113 C 195.12 -3.70375 5.1284 0
M  V30 2114 C 193.784 -3.73848 5.52986 0
M  V30 2115 H 193.054 -0.673444 0.309119 0
M  V30 2116 H 195.701 -1.32824 1.37949 0
M  V30 2117 H 194.006 -3.85091 0.721949 0
M  V30 2118 H 195.703 -3.85236 1.11329 0
M  V30 2119 H 192.293 -3.48249 2.49842 0
M  V30 2120 H 196.477 -3.54107 3.47738 0
M  V30 2121 H 191.733 -3.67804 4.88396 0
M  V30 2122 H 195.907 -3.74904 5.86873 0
M  V30 2123 H 193.534 -3.81333 6.57639 0
M  V30 2124 N 195.109 -0.891671 -1.2995 0
M  V30 2125 C 196.358 -0.509521 -1.95158 0
M  V30 2126 C 196.671 0.947388 -1.71125 0
M  V30 2127 O 197.877 1.43669 -2.30372 0
M  V30 2128 C 196.333 -0.860315 -3.49466 0
M  V30 2129 C 195.941 -2.33545 -3.8231 0
M  V30 2130 C 197.685 -0.547687 -4.20952 0
M  V30 2131 C 195.592 -2.62752 -5.29826 0
M  V30 2132 H 194.522 -0.18682 -0.730489 0
M  V30 2133 H 197.173 -1.08756 -1.47798 0
M  V30 2134 H 195.555 -0.211285 -3.95436 0
M  V30 2135 H 196.729 -3.02936 -3.47227 0
M  V30 2136 H 195.044 -2.61629 -3.23944 0
M  V30 2137 H 197.641 -0.742854 -5.29515 0
M  V30 2138 H 197.984 0.51332 -4.13123 0
M  V30 2139 H 198.517 -1.1542 -3.80688 0
M  V30 2140 H 195.256 -3.6762 -5.42712 0
M  V30 2141 H 194.776 -1.97977 -5.66185 0
M  V30 2142 H 196.455 -2.48601 -5.97333 0
M  V30 2143 N 196.587 1.43421 -0.653314 0
M  V30 2144 C 197.537 2.2792 0.060558 0
M  V30 2145 C 198.521 1.39906 0.794677 0
M  V30 2146 O 199.713 1.63536 0.677128 0
M  V30 2147 C 196.842 3.27603 1.0262 0
M  V30 2148 C 195.928 4.23104 0.290551 0
M  V30 2149 N 196.319 5.01031 -0.692967 0
M  V30 2150 C 194.617 4.42816 0.531984 0
M  V30 2151 C 195.318 5.70626 -1.12963 0
M  V30 2152 N 194.294 5.41617 -0.463867 0
M  V30 2153 H 198.096 2.85585 -0.694143 0
M  V30 2154 H 195.61 1.55126 -0.480602 0
M  V30 2155 H 197.607 3.86918 1.55242 0
M  V30 2156 H 196.267 2.71499 1.78096 0
M  V30 2157 H 197.278 5.0669 -1.07169 0
M  V30 2158 H 193.955 3.97782 1.26791 0
M  V30 2159 H 195.345 6.4318 -1.94343 0
M  V30 2160 N 198.065 0.39524 1.52563 0
M  V30 2161 C 199.481 0.0454682 1.59535 0
M  V30 2162 C 199.681 -1.44056 1.4089 0
M  V30 2163 O 198.737 -2.20579 1.22888 0
M  V30 2164 C 200.05 0.527963 2.96029 0
M  V30 2165 C 201.598 0.484733 3.09224 0
M  V30 2166 C 202.073 0.943512 4.48176 0
M  V30 2167 N 203.564 0.899765 4.54377 0
M  V30 2168 C 204.299 1.22609 5.60138 0
M  V30 2169 N 203.795 1.62319 6.73516 0
M  V30 2170 N 205.588 1.14696 5.50274 0
M  V30 2171 H 197.739 1.36261 1.62931 0
M  V30 2172 H 200.002 0.558887 0.765735 0
M  V30 2173 H 199.708 1.56607 3.14908 0
M  V30 2174 H 199.582 -0.0698056 3.77135 0
M  V30 2175 H 201.969 -0.544298 2.90037 0
M  V30 2176 H 202.05 1.11838 2.30056 0
M  V30 2177 H 201.694 1.9708 4.68104 0
M  V30 2178 H 201.624 0.286817 5.25818 0
M  V30 2179 H 204.115 0.607632 3.72983 0
M  V30 2180 H 204.428 1.85567 7.5019 0
M  V30 2181 H 202.773 1.66211 6.74833 0
M  V30 2182 H 205.964 0.835701 4.6058 0
M  V30 2183 H 206.137 1.40459 6.32594 0
M  V30 2184 N 199.544 -1.57102 0.125237 0
M  V30 2185 C 200.821 -1.86953 -0.575142 0
M  V30 2186 C 201.201 -1.02749 -1.84407 0
M  V30 2187 O 200.549 -0.108144 -2.28244 0
M  V30 2188 C 200.759 -3.38198 -0.861583 0
M  V30 2189 C 202.107 -4.06937 -1.21192 0
M  V30 2190 O 203.131 -3.43252 -0.951645 0
M  V30 2191 O 201.99 -5.19364 -1.70068 0
M  V30 2192 H 199.084 -0.774147 -0.290906 0
M  V30 2193 H 201.63 -1.68942 0.160211 0
M  V30 2194 H 200.402 -3.91282 0.0373647 0
M  V30 2195 H 200.025 -3.61661 -1.65188 0
M  V30 2196 N 201.022 0.148545 -1.56898 0
M  V30 2197 C 202.271 0.85984 -1.82454 0
M  V30 2198 C 202.584 1.82406 -0.706229 0
M  V30 2199 O 203.79 2.57938 -0.847349 0
M  V30 2200 C 202.246 1.57967 -3.2338 0
M  V30 2201 C 201.854 0.65794 -4.43142 0
M  V30 2202 C 203.598 2.27784 -3.58211 0
M  V30 2203 C 201.505 1.3793 -5.75091 0
M  V30 2204 H 200.435 0.324834 -0.68044 0
M  V30 2205 H 203.086 0.112588 -1.83154 0
M  V30 2206 H 201.468 2.37249 -3.17063 0
M  V30 2207 H 202.642 -0.0995497 -4.60692 0
M  V30 2208 H 200.957 0.0682643 -4.16344 0
M  V30 2209 H 203.554 2.8239 -4.54048 0
M  V30 2210 H 203.897 3.04204 -2.84193 0
M  V30 2211 H 204.43 1.55421 -3.66182 0
M  V30 2212 H 201.169 0.656982 -6.52199 0
M  V30 2213 H 200.689 2.10954 -5.61479 0
M  V30 2214 H 202.368 1.92063 -6.17835 0
M  V30 2215 N 202.5 1.5196 0.417844 0
M  V30 2216 C 203.447 1.74678 1.50852 0
M  V30 2217 C 204.417 0.588947 1.55308 0
M  V30 2218 O 205.602 0.825544 1.72016 0
M  V30 2219 C 202.742 1.89544 2.88387 0
M  V30 2220 C 201.855 3.17166 2.93309 0
M  V30 2221 C 200.99 3.22513 4.22088 0
M  V30 2222 C 200.029 4.44372 4.20951 0
M  V30 2223 N 199.166 4.47161 5.41287 0
M  V30 2224 H 204.006 2.67768 1.30783 0
M  V30 2225 H 201.543 1.32689 0.63498 0
M  V30 2226 H 203.501 1.96146 3.68216 0
M  V30 2227 H 202.131 0.998424 3.06971 0
M  V30 2228 H 201.183 3.19778 2.06024 0
M  V30 2229 H 202.495 4.07021 2.88332 0
M  V30 2230 H 201.649 3.28139 5.10303 0
M  V30 2231 H 200.388 2.30581 4.29748 0
M  V30 2232 H 199.393 4.38902 3.31127 0
M  V30 2233 H 200.618 5.3759 4.14938 0
M  V30 2234 H 198.564 3.58108 5.49632 0
M  V30 2235 H 198.481 5.3085 5.3827 0
M  V30 2236 H 199.749 4.57005 6.3148 0
M  V30 2237 N 203.978 -0.674533 1.42435 0
M  V30 2238 C 205.389 -1.25514 1.38214 0
M  V30 2239 C 205.74 -1.96055 0.0755464 0
M  V30 2240 O 204.865 -2.00028 -0.8257 0
M  V30 2241 C 205.46 -2.28269 2.50357 0
M  V30 2242 C 204.019 -2.81856 2.49467 0
M  V30 2243 C 203.166 -1.56182 2.29134 0
M  V30 2244 H 206.117 -0.467902 1.51646 0
M  V30 2245 H 206.138 -3.10009 2.20624 0
M  V30 2246 H 205.65 -1.769 3.45439 0
M  V30 2247 H 203.751 -3.37346 1.58204 0
M  V30 2248 H 203.864 -3.30854 3.46515 0
M  V30 2249 H 202.228 -1.82761 1.774 0
M  V30 2250 H 203.011 -1.06778 3.26272 0
M  V30 2251 N 205.456 -1.28612 -0.910864 0
M  V30 2252 C 206.733 -1.06632 -1.63979 0
M  V30 2253 C 207.113 0.393351 -2.07403 0
M  V30 2254 O 206.461 1.37999 -1.82122 0
M  V30 2255 C 206.671 -2.0436 -2.8291 0
M  V30 2256 C 208.019 -2.34666 -3.5386 0
M  V30 2257 O 209.043 -2.02467 -2.93062 0
M  V30 2258 O 207.902 -2.89631 -4.63439 0
M  V30 2259 H 204.996 -0.407737 -0.7195 0
M  V30 2260 H 207.542 -1.39942 -0.959914 0
M  V30 2261 H 206.314 -3.02727 -2.47936 0
M  V30 2262 H 205.937 -1.71714 -3.58609 0
M  V30 2263 N 206.934 1.1197 -1.10907 0
M  V30 2264 C 207.882 2.19927 -0.757303 0
M  V30 2265 C 208.876 1.67564 0.248747 0
M  V30 2266 O 210.082 1.79672 0.108605 0
M  V30 2267 H 206.457 0.716925 -0.226987 0
M  V30 2268 H 208.428 2.46847 -1.67658 0
M  V30 2269 C 207.177 3.47061 -0.210671 0
M  V30 2270 H 206.5 3.87703 -0.976049 0
M  V30 2271 H 207.94 4.24 -0.0026584 0
M  V30 2272 C 206.399 3.19864 1.05777 0
M  V30 2273 O 206.929 3.40049 2.13845 0
M  V30 2274 N 205.135 2.73636 0.978349 0
M  V30 2275 H 204.682 2.5741 0.0988246 0
M  V30 2276 H 204.64 2.55815 1.82773 0
M  V30 2277 N 208.412 0.89855 1.29475 0
M  V30 2278 C 209.659 0.523882 1.95606 0
M  V30 2279 C 209.987 -0.929608 1.70847 0
M  V30 2280 O 209.242 -1.67401 1.01367 0
M  V30 2281 C 209.541 0.761398 3.49195 0
M  V30 2282 C 209.207 2.19207 3.94029 0
M  V30 2283 C 207.869 2.58326 4.05982 0
M  V30 2284 C 210.221 3.12379 4.17216 0
M  V30 2285 C 207.549 3.898 4.38489 0
M  V30 2286 C 209.901 4.43401 4.51197 0
M  V30 2287 C 208.565 4.82394 4.61359 0
M  V30 2288 H 207.835 0.191702 0.715773 0
M  V30 2289 H 210.482 1.13699 1.54094 0
M  V30 2290 H 208.787 0.0653622 3.91745 0
M  V30 2291 H 210.484 0.450904 3.98457 0
M  V30 2292 H 207.074 1.87846 3.85242 0
M  V30 2293 H 211.258 2.83371 4.07449 0
M  V30 2294 H 206.514 4.19734 4.44559 0
M  V30 2295 H 210.688 5.15623 4.68087 0
M  V30 2296 H 208.315 5.84306 4.86303 0
M  V30 2297 N 209.89 -1.43072 0.660911 0
M  V30 2298 C 210.82 -2.33497 -0.0122829 0
M  V30 2299 C 211.801 -1.49903 -0.803925 0
M  V30 2300 O 212.986 -1.78546 -0.763864 0
M  V30 2301 C 210.116 -3.33363 -0.973994 0
M  V30 2302 C 209.07 -4.27003 -0.291928 0
M  V30 2303 C 208.396 -5.16967 -1.36562 0
M  V30 2304 C 209.696 -5.15816 0.820462 0
M  V30 2305 H 211.39 -2.90038 0.742873 0
M  V30 2306 H 208.936 -1.39461 0.358688 0
M  V30 2307 H 210.889 -3.95524 -1.45392 0
M  V30 2308 H 209.613 -2.75095 -1.7604 0
M  V30 2309 H 208.272 -3.66217 0.167623 0
M  V30 2310 H 207.92 -4.55034 -2.14366 0
M  V30 2311 H 207.62 -5.80441 -0.914454 0
M  V30 2312 H 209.144 -5.82003 -1.84675 0
M  V30 2313 H 210.558 -5.71742 0.422366 0
M  V30 2314 H 208.955 -5.8805 1.19656 0
M  V30 2315 H 210.025 -4.55045 1.67518 0
M  V30 2316 N 211.368 -0.403325 -1.52352 0
M  V30 2317 C 212.301 0.469463 -2.23319 0
M  V30 2318 C 213.279 1.05272 -1.23922 0
M  V30 2319 O 214.463 1.10169 -1.52954 0
M  V30 2320 C 211.59 1.6511 -2.9573 0
M  V30 2321 C 210.636 1.19178 -4.0951 0
M  V30 2322 S 211.469 0.161718 -5.35256 0
M  V30 2323 C 212.625 1.34882 -6.11194 0
M  V30 2324 H 212.858 -0.133134 -2.97002 0
M  V30 2325 H 210.391 -0.187588 -1.53256 0
M  V30 2326 H 212.349 2.3287 -3.38056 0
M  V30 2327 H 211.01 2.22503 -2.21701 0
M  V30 2328 H 210.203 2.07444 -4.59329 0
M  V30 2329 H 209.805 0.592911 -3.6927 0
M  V30 2330 H 212.097 2.27345 -6.38217 0
M  V30 2331 H 213.04 0.89128 -7.02468 0
M  V30 2332 H 213.448 1.57198 -5.42171 0
M  V30 2333 N 212.846 1.57033 -0.133567 0
M  V30 2334 C 214.094 1.953 0.519848 0
M  V30 2335 C 214.415 1.01866 1.66278 0
M  V30 2336 O 213.685 0.0776513 1.95746 0
M  V30 2337 H 212.265 0.721091 0.195032 0
M  V30 2338 H 214.927 1.93809 -0.205921 0
M  V30 2339 H 214.023 2.98695 0.904854 0
M  V30 2340 N 214.325 -0.140222 1.56975 0
M  V30 2341 C 215.574 -0.850152 1.82908 0
M  V30 2342 C 215.887 -1.82028 0.715892 0
M  V30 2343 O 217.093 -2.57485 0.861016 0
M  V30 2344 C 215.549 -1.5625 3.24213 0
M  V30 2345 C 215.157 -0.63443 4.43485 0
M  V30 2346 C 216.901 -2.25881 3.59413 0
M  V30 2347 C 214.808 -1.34879 5.75814 0
M  V30 2348 H 213.738 -0.321221 0.682153 0
M  V30 2349 H 216.389 -0.102874 1.83211 0
M  V30 2350 H 214.771 -2.35565 3.18316 0
M  V30 2351 H 215.945 0.12398 4.60633 0
M  V30 2352 H 214.26 -0.0461836 4.16374 0
M  V30 2353 H 216.857 -2.79978 4.5554 0
M  V30 2354 H 217.2 -3.02693 2.85802 0
M  V30 2355 H 217.733 -1.53477 3.67001 0
M  V30 2356 H 214.472 -0.622385 6.52539 0
M  V30 2357 H 213.992 -2.07974 5.6259 0
M  V30 2358 H 215.671 -1.88784 6.18845 0
M  V30 2359 N 215.803 -1.52179 -0.40978 0
M  V30 2360 C 217.051 -1.65878 -1.15451 0
M  V30 2361 C 217.372 -0.390771 -1.91044 0
M  V30 2362 O 216.642 0.594323 -1.86667 0
M  V30 2363 H 215.222 -0.611405 -0.429177 0
M  V30 2364 H 217.884 -1.89219 -0.467134 0
M  V30 2365 H 216.98 -2.49954 -1.86894 0
M  V30 2366 N 217.281 0.66697 -1.42791 0
M  V30 2367 C 218.697 0.981027 -1.25889 0
M  V30 2368 C 218.897 2.00793 -0.168695 0
M  V30 2369 O 217.953 2.48321 0.45747 0
M  V30 2370 C 219.266 1.47838 -2.61848 0
M  V30 2371 C 220.814 1.59575 -2.69267 0
M  V30 2372 C 221.289 2.12704 -4.05612 0
M  V30 2373 N 222.78 2.20026 -4.07606 0
M  V30 2374 C 223.515 2.62227 -5.09926 0
M  V30 2375 N 223.011 3.03824 -6.22626 0
M  V30 2376 N 224.804 2.62045 -4.97281 0
M  V30 2377 H 216.955 -0.0127891 -2.12396 0
M  V30 2378 H 219.218 0.0568258 -0.946295 0
M  V30 2379 H 218.924 0.798299 -3.4252 0
M  V30 2380 H 218.798 2.45579 -2.86305 0
M  V30 2381 H 221.185 2.26687 -1.88936 0
M  V30 2382 H 221.266 0.60302 -2.48591 0
M  V30 2383 H 220.91 1.46198 -4.86404 0
M  V30 2384 H 220.84 3.12782 -4.23645 0
M  V30 2385 H 223.331 1.90708 -3.2625 0
M  V30 2386 H 223.644 3.34734 -6.96544 0
M  V30 2387 H 221.989 3.01662 -6.26119 0
M  V30 2388 H 225.18 2.28916 -4.08308 0
M  V30 2389 H 225.353 2.94613 -5.77154 0
M  V30 2390 N 218.759 1.29093 0.90403 0
M  V30 2391 C 219.709 1.10482 1.99443 0
M  V30 2392 C 220.693 0.0255401 1.6088 0
M  V30 2393 O 221.885 0.24677 1.75271 0
M  V30 2394 C 219.014 0.778882 3.34348 0
M  V30 2395 C 218.1 1.89749 3.79284 0
M  V30 2396 N 218.491 3.14045 3.96497 0
M  V30 2397 C 216.789 1.78955 4.08523 0
M  V30 2398 C 217.49 3.86996 4.34292 0
M  V30 2399 N 216.466 3.14909 4.43095 0
M  V30 2400 H 220.268 2.04778 2.10815 0
M  V30 2401 H 217.782 1.20155 1.09255 0
M  V30 2402 H 219.779 0.62661 4.12164 0
M  V30 2403 H 218.439 -0.156205 3.24324 0
M  V30 2404 H 219.45 3.49548 3.82148 0
M  V30 2405 H 216.127 0.926886 4.07081 0
M  V30 2406 H 217.517 4.93941 4.55491 0
M  V30 2407 N 220.237 -1.11381 1.11499 0
M  V30 2408 C 221.477 -1.84763 0.874188 0
M  V30 2409 C 221.841 -1.82726 -0.589496 0
M  V30 2410 O 223.042 -2.51562 -0.947089 0
M  V30 2411 C 221.313 -3.27931 1.42112 0
M  V30 2412 S 222.872 -4.18557 1.31739 0
M  V30 2413 H 219.69 -0.637115 0.315603 0
M  V30 2414 H 222.292 -1.34097 1.42261 0
M  V30 2415 H 220.996 -3.26978 2.48019 0
M  V30 2416 H 220.527 -3.83665 0.869761 0
M  V30 2417 H 222.542 -4.95396 0.282335 0
M  V30 2418 N 221.715 -0.905404 -1.28997 0
M  V30 2419 C 222.663 -0.377431 -2.29517 0
M  V30 2420 C 223.657 0.526461 -1.61012 0
M  V30 2421 O 224.863 0.40863 -1.753 0
M  V30 2422 H 221.238 -0.103437 -0.744852 0
M  V30 2423 H 223.209 -1.23848 -2.71485 0
M  V30 2424 C 221.958 0.374833 -3.45674 0
M  V30 2425 H 221.281 -0.311474 -3.98585 0
M  V30 2426 H 222.721 0.70903 -4.1803 0
M  V30 2427 C 221.18 1.57963 -2.97572 0
M  V30 2428 O 221.71 2.67886 -2.99333 0
M  V30 2429 N 219.916 1.42375 -2.53333 0
M  V30 2430 H 219.463 0.529466 -2.521 0
M  V30 2431 H 219.421 2.23117 -2.21509 0
M  V30 2432 N 223.193 1.4272 -0.668489 0
M  V30 2433 C 224.14 2.30796 0.0137489 0
M  V30 2434 C 225.11 1.4561 0.799177 0
M  V30 2435 O 226.295 1.74453 0.772702 0
M  V30 2436 C 223.435 3.31377 0.963507 0
M  V30 2437 C 222.548 4.31655 0.172569 0
M  V30 2438 C 221.683 5.19312 1.1175 0
M  V30 2439 C 220.722 6.11274 0.317886 0
M  V30 2440 N 219.859 6.91504 1.2152 0
M  V30 2441 H 224.699 2.88585 -0.743161 0
M  V30 2442 H 222.236 1.42154 -0.378226 0
M  V30 2443 H 224.194 3.88214 1.52792 0
M  V30 2444 H 222.824 2.75202 1.68712 0
M  V30 2445 H 221.876 3.76988 -0.508374 0
M  V30 2446 H 223.188 4.96779 -0.448527 0
M  V30 2447 H 222.342 5.80851 1.75206 0
M  V30 2448 H 221.081 4.5435 1.77249 0
M  V30 2449 H 220.086 5.48809 -0.329918 0
M  V30 2450 H 221.311 6.78283 -0.332917 0
M  V30 2451 H 219.257 6.29176 1.85671 0
M  V30 2452 H 219.174 7.53209 0.649036 0
M  V30 2453 H 220.442 7.57535 1.83742 0
M  V30 2454 N 224.671 0.411399 1.52136 0
M  V30 2455 C 225.601 -0.404015 2.29978 0
M  V30 2456 C 226.582 -1.04412 1.34284 0
M  V30 2457 O 227.767 -1.0527 1.63192 0
M  V30 2458 C 224.897 -1.5197 3.12286 0
M  V30 2459 C 223.851 -1.00448 4.16046 0
M  V30 2460 C 223.177 -2.21393 4.86712 0
M  V30 2461 C 224.477 -0.0569336 5.22269 0
M  V30 2462 H 226.171 0.245529 2.98392 0
M  V30 2463 H 223.717 0.119525 1.43503 0
M  V30 2464 H 225.67 -2.09715 3.6551 0
M  V30 2465 H 224.394 -2.19716 2.41646 0
M  V30 2466 H 223.053 -0.449421 3.63835 0
M  V30 2467 H 222.701 -2.87699 4.12599 0
M  V30 2468 H 222.401 -1.87571 5.56858 0
M  V30 2469 H 223.925 -2.7974 5.4275 0
M  V30 2470 H 225.339 -0.54325 5.7072 0
M  V30 2471 H 223.736 0.192594 5.99791 0
M  V30 2472 H 224.806 0.887663 4.76706 0
M  V30 2473 N 226.149 -1.5696 0.141893 0
M  V30 2474 C 227.396 -1.9596 -0.510492 0
M  V30 2475 C 227.724 -1.02648 -1.65208 0
M  V30 2476 O 226.979 -0.0546947 -1.95624 0
M  V30 2477 C 227.278 -3.41242 -1.06249 0
M  V30 2478 C 226.944 -4.50882 -0.0398791 0
M  V30 2479 C 225.606 -4.80595 0.241247 0
M  V30 2480 C 227.958 -5.17058 0.65578 0
M  V30 2481 C 225.286 -5.73792 1.22393 0
M  V30 2482 C 227.638 -6.11313 1.62724 0
M  V30 2483 C 226.302 -6.39407 1.91612 0
M  V30 2484 H 225.572 -0.717068 -0.186802 0
M  V30 2485 H 228.219 -1.90142 0.227643 0
M  V30 2486 H 226.524 -3.43866 -1.87785 0
M  V30 2487 H 228.221 -3.68742 -1.57576 0
M  V30 2488 H 224.811 -4.27754 -0.269174 0
M  V30 2489 H 228.995 -4.94239 0.451779 0
M  V30 2490 H 224.251 -5.93853 1.45424 0
M  V30 2491 H 228.425 -6.61668 2.17183 0
M  V30 2492 H 226.052 -7.11427 2.6791 0
M  V30 2493 N 227.627 0.131896 -1.57047 0
M  V30 2494 C 228.557 1.16384 -2.02428 0
M  V30 2495 C 229.538 1.43936 -0.90644 0
M  V30 2496 O 230.723 1.54599 -1.17528 0
M  V30 2497 C 227.853 2.49328 -2.4177 0
M  V30 2498 C 226.807 2.36266 -3.56879 0
M  V30 2499 C 226.133 3.74057 -3.8208 0
M  V30 2500 C 227.433 1.834 -4.89042 0
M  V30 2501 H 229.127 0.786433 -2.88887 0
M  V30 2502 H 226.673 0.376855 -1.38981 0
M  V30 2503 H 228.626 3.21759 -2.7212 0
M  V30 2504 H 227.35 2.88934 -1.52266 0
M  V30 2505 H 226.009 1.66286 -3.26718 0
M  V30 2506 H 225.657 4.11125 -2.89803 0
M  V30 2507 H 225.357 3.66174 -4.59554 0
M  V30 2508 H 226.881 4.48012 -4.1487 0
M  V30 2509 H 228.295 2.45636 -5.18011 0
M  V30 2510 H 226.692 1.8637 -5.70426 0
M  V30 2511 H 227.762 0.790662 -4.7841 0
M  V30 2512 N 229.106 1.52395 0.401703 0
M  V30 2513 C 230.355 1.66044 1.14509 0
M  V30 2514 C 230.668 0.400216 1.91462 0
M  V30 2515 O 231.874 0.416632 2.68284 0
M  V30 2516 C 230.33 2.93388 2.0845 0
M  V30 2517 C 229.938 4.26545 1.36978 0
M  V30 2518 C 231.682 3.16402 2.83001 0
M  V30 2519 C 229.589 5.45007 2.29611 0
M  V30 2520 H 228.519 0.618562 0.431158 0
M  V30 2521 H 231.17 1.78886 0.40892 0
M  V30 2522 H 229.552 2.74263 2.8565 0
M  V30 2523 H 230.726 4.56179 0.650916 0
M  V30 2524 H 229.041 4.09692 0.74438 0
M  V30 2525 H 231.638 4.02085 3.52465 0
M  V30 2526 H 231.981 2.30943 3.46368 0
M  V30 2527 H 232.514 3.36034 2.12898 0
M  V30 2528 H 229.253 6.32835 1.70879 0
M  V30 2529 H 228.773 5.19702 2.9945 0
M  V30 2530 H 230.452 5.7838 2.89974 0
M  V30 2531 N 230.584 -0.659388 1.43143 0
M  V30 2532 C 231.861 -1.41627 1.34912 0
M  V30 2533 C 232.241 -2.11099 -0.00607785 0
M  V30 2534 O 231.589 -2.04353 -1.02236 0
M  V30 2535 C 231.799 -2.40604 2.52805 0
M  V30 2536 C 233.147 -3.04789 2.95616 0
M  V30 2537 O 234.171 -2.50932 2.52807 0
M  V30 2538 O 233.03 -4.02421 3.69756 0
M  V30 2539 H 230.124 -0.63246 0.532844 0
M  V30 2540 H 232.67 -0.686814 1.5518 0
M  V30 2541 H 231.442 -1.88174 3.43083 0
M  V30 2542 H 231.065 -3.21009 2.34604 0
M  V30 2543 N 232.062 -1.29571 -0.897171 0
M  V30 2544 C 233.309 -1.17689 -1.6479 0
M  V30 2545 C 233.637 0.27107 -1.92602 0
M  V30 2546 O 232.892 1.21193 -1.53658 0
M  V30 2547 C 233.191 -1.9382 -3.00281 0
M  V30 2548 C 232.857 -3.43522 -2.92068 0
M  V30 2549 C 231.519 -3.84348 -2.89535 0
M  V30 2550 C 233.871 -4.38906 -2.81089 0
M  V30 2551 C 231.199 -5.18869 -2.73846 0
M  V30 2552 C 233.551 -5.73521 -2.66939 0
M  V30 2553 C 232.215 -6.13601 -2.62774 0
M  V30 2554 H 231.485 -0.430654 -0.603008 0
M  V30 2555 H 234.132 -1.60536 -1.04404 0
M  V30 2556 H 232.437 -1.4357 -3.64547 0
M  V30 2557 H 234.134 -1.82028 -3.57305 0
M  V30 2558 H 230.724 -3.11072 -2.94842 0
M  V30 2559 H 234.908 -4.08315 -2.82121 0
M  V30 2560 H 230.164 -5.4903 -2.69027 0
M  V30 2561 H 234.338 -6.47078 -2.57416 0
M  V30 2562 H 231.965 -7.17786 -2.50375 0
M  V30 2563 N 233.54 1.10788 -1.12088 0
M  V30 2564 C 234.788 1.8231 -0.872205 0
M  V30 2565 C 235.109 1.85419 0.603709 0
M  V30 2566 O 234.379 1.32963 1.43867 0
M  V30 2567 H 232.959 0.675137 -0.319686 0
M  V30 2568 H 235.621 1.34068 -1.41463 0
M  V30 2569 H 234.717 2.85955 -1.25045 0
M  V30 2570 N 235.018 0.912232 1.28515 0
M  V30 2571 C 235.948 0.416403 2.29757 0
M  V30 2572 C 236.929 -0.515194 1.6211 0
M  V30 2573 O 238.114 -0.423253 1.89532 0
M  V30 2574 C 235.244 -0.34572 3.45575 0
M  V30 2575 C 234.198 0.496599 4.25109 0
M  V30 2576 C 233.524 -0.393771 5.33248 0
M  V30 2577 C 234.824 1.75307 4.92001 0
M  V30 2578 H 236.518 1.26249 2.7148 0
M  V30 2579 H 234.064 0.608515 1.30511 0
M  V30 2580 H 236.017 -0.703422 4.15488 0
M  V30 2581 H 234.741 -1.2257 3.02728 0
M  V30 2582 H 233.4 0.8368 3.56922 0
M  V30 2583 H 233.048 -1.27225 4.86644 0
M  V30 2584 H 232.748 0.166209 5.87365 0
M  V30 2585 H 234.272 -0.747389 6.06009 0
M  V30 2586 H 235.686 1.46437 5.54283 0
M  V30 2587 H 234.083 2.25534 5.56106 0
M  V30 2588 H 235.153 2.48176 4.16577 0
M  V30 2589 N 236.496 -1.42363 0.676048 0
M  V30 2590 C 237.459 -2.29199 0.00766941 0
M  V30 2591 C 238.459 -1.43389 -0.727745 0
M  V30 2592 O 239.649 -1.64764 -0.56556 0
M  V30 2593 C 236.781 -3.2591 -0.999785 0
M  V30 2594 H 237.974 -2.89794 0.771988 0
M  V30 2595 H 235.527 -1.50024 0.438468 0
M  V30 2596 H 236.262 -2.70256 -1.79255 0
M  V30 2597 H 236.047 -3.89202 -0.475829 0
M  V30 2598 H 237.537 -3.91028 -1.46583 0
M  V30 2599 N 237.974 -0.419461 -1.51915 0
M  V30 2600 C 238.921 0.400927 -2.27291 0
M  V30 2601 C 239.891 1.03224 -1.30131 0
M  V30 2602 O 241.076 1.05455 -1.59009 0
M  V30 2603 C 238.216 1.50603 -3.10504 0
M  V30 2604 C 237.329 0.89462 -4.22635 0
M  V30 2605 C 236.464 1.97328 -4.93189 0
M  V30 2606 C 235.503 1.33935 -5.97267 0
M  V30 2607 N 234.64 2.3586 -6.61298 0
M  V30 2608 H 239.48 -0.248251 -2.96964 0
M  V30 2609 H 237.017 -0.134266 -1.46486 0
M  V30 2610 H 238.975 2.15783 -3.57062 0
M  V30 2611 H 237.605 2.12509 -2.42981 0
M  V30 2612 H 236.657 0.131583 -3.80172 0
M  V30 2613 H 237.969 0.391641 -4.9726 0
M  V30 2614 H 237.123 2.70211 -5.43204 0
M  V30 2615 H 235.862 2.50994 -4.18155 0
M  V30 2616 H 234.867 0.595896 -5.46561 0
M  V30 2617 H 236.092 0.810252 -6.74249 0
M  V30 2618 H 234.038 2.88639 -5.89087 0
M  V30 2619 H 233.955 1.90403 -7.3163 0
M  V30 2620 H 235.223 3.08282 -7.15949 0
M  V30 2621 N 239.452 1.56882 -0.150215 0
M  V30 2622 C 240.399 2.16922 0.788244 0
M  V30 2623 C 241.369 1.10303 1.24187 0
M  V30 2624 O 242.554 1.38359 1.31383 0
M  V30 2625 C 239.694 2.79754 2.02068 0
M  V30 2626 C 238.807 4.00775 1.61257 0
M  V30 2627 C 237.942 4.51595 2.79705 0
M  V30 2628 C 236.981 5.65074 2.35282 0
M  V30 2629 N 236.118 6.10499 3.4675 0
M  V30 2630 H 240.958 2.96779 0.269444 0
M  V30 2631 H 238.495 1.46599 0.12128 0
M  V30 2632 H 240.453 3.14329 2.74323 0
M  V30 2633 H 239.083 2.02536 2.51354 0
M  V30 2634 H 238.135 3.72158 0.787553 0
M  V30 2635 H 239.447 4.82978 1.24633 0
M  V30 2636 H 238.601 4.88242 3.60145 0
M  V30 2637 H 237.34 3.68406 3.19576 0
M  V30 2638 H 236.345 5.28 1.53283 0
M  V30 2639 H 237.57 6.50052 1.96493 0
M  V30 2640 H 235.516 5.30243 3.86236 0
M  V30 2641 H 235.433 6.87637 3.14152 0
M  V30 2642 H 236.701 6.51791 4.27537 0
M  V30 2643 N 240.93 -0.123565 1.57115 0
M  V30 2644 C 242.16 -0.845233 1.88519 0
M  V30 2645 C 242.568 -1.74168 0.739064 0
M  V30 2646 O 241.911 -1.81244 -0.299355 0
M  V30 2647 C 241.973 -1.73452 3.14888 0
M  V30 2648 C 241.637 -1.01285 4.45635 0
M  V30 2649 C 242.634 -0.355774 5.18681 0
M  V30 2650 C 240.319 -0.99538 4.92339 0
M  V30 2651 C 242.313 0.309114 6.3665 0
M  V30 2652 C 240 -0.32669 6.10226 0
M  V30 2653 C 240.998 0.324406 6.82229 0
M  V30 2654 O 240.686 0.982437 7.97874 0
M  V30 2655 H 240.418 -0.248534 0.628655 0
M  V30 2656 H 242.972 -0.113907 2.05084 0
M  V30 2657 H 241.202 -2.50737 2.94394 0
M  V30 2658 H 242.891 -2.33021 3.32349 0
M  V30 2659 H 243.657 -0.360918 4.83655 0
M  V30 2660 H 239.536 -1.49159 4.36202 0
M  V30 2661 H 243.08 0.8179 6.92789 0
M  V30 2662 H 238.977 -0.319294 6.4471 0
M  V30 2663 H 239.745 0.886454 8.13686 0
M  V30 2664 N 242.408 -1.52605 -0.393616 0
M  V30 2665 C 243.824 -1.41753 -0.733357 0
M  V30 2666 C 244.024 -0.534293 -1.94287 0
M  V30 2667 O 243.08 -0.0059787 -2.52499 0
M  V30 2668 C 244.393 -2.84531 -0.972772 0
M  V30 2669 C 245.941 -2.93978 -1.07453 0
M  V30 2670 C 246.416 -4.37756 -1.3466 0
M  V30 2671 N 247.907 -4.4106 -1.41492 0
M  V30 2672 C 248.642 -5.49387 -1.642 0
M  V30 2673 N 248.138 -6.67806 -1.8441 0
M  V30 2674 N 249.931 -5.36923 -1.66342 0
M  V30 2675 H 242.082 -2.08555 0.402328 0
M  V30 2676 H 244.345 -0.940654 0.117789 0
M  V30 2677 H 244.051 -3.51353 -0.156204 0
M  V30 2678 H 243.925 -3.26508 -1.88871 0
M  V30 2679 H 246.312 -2.27326 -1.88167 0
M  V30 2680 H 246.393 -2.55435 -0.136605 0
M  V30 2681 H 246.037 -5.04972 -0.544581 0
M  V30 2682 H 245.967 -4.73848 -2.2973 0
M  V30 2683 H 248.458 -3.55705 -1.27601 0
M  V30 2684 H 248.771 -7.46141 -2.01231 0
M  V30 2685 H 247.116 -6.70843 -1.81644 0
M  V30 2686 H 250.307 -4.43381 -1.50102 0
M  V30 2687 H 250.48 -6.21416 -1.837 0
M  V30 2688 N 243.887 0.651787 -1.4349 0
M  V30 2689 C 245.164 1.40909 -1.35661 0
M  V30 2690 C 245.544 2.11099 -0.00511733 0
M  V30 2691 O 244.892 2.04892 1.0115 0
M  V30 2692 C 245.102 2.3926 -2.54078 0
M  V30 2693 C 246.45 3.03217 -2.97228 0
M  V30 2694 O 247.474 2.49588 -2.54135 0
M  V30 2695 O 246.333 4.00455 -3.71885 0
M  V30 2696 H 243.427 0.629625 -0.536191 0
M  V30 2697 H 245.973 0.678575 -1.55542 0
M  V30 2698 H 244.745 1.86352 -3.44076 0
M  V30 2699 H 244.368 3.1976 -2.36303 0
M  V30 2700 N 245.365 1.30045 0.890287 0
M  V30 2701 C 246.313 1.15873 2.01683 0
M  V30 2702 C 247.307 0.0719403 1.69247 0
M  V30 2703 O 248.513 0.232414 1.78493 0
M  V30 2704 H 244.888 0.358203 0.661207 0
M  V30 2705 H 246.859 2.11229 2.10772 0
M  V30 2706 C 245.608 0.861842 3.36849 0
M  V30 2707 H 244.931 1.69016 3.62317 0
M  V30 2708 H 246.371 0.802762 4.16331 0
M  V30 2709 C 244.83 -0.435132 3.34078 0
M  V30 2710 O 245.36 -1.4583 3.74295 0
M  V30 2711 N 243.566 -0.444377 2.87182 0
M  V30 2712 H 243.113 0.388723 2.5465 0
M  V30 2713 H 243.071 -1.31213 2.85711 0
M  V30 2714 N 246.843 -1.10192 1.12674 0
M  V30 2715 C 248.259 -1.34235 0.863317 0
M  V30 2716 C 248.459 -1.95062 -0.505277 0
M  V30 2717 O 247.515 -2.19192 -1.25345 0
M  V30 2718 C 248.828 -2.2616 1.98172 0
M  V30 2719 C 250.376 -2.3969 2.0129 0
M  V30 2720 C 250.851 -3.34946 3.1237 0
M  V30 2721 N 252.342 -3.42515 3.11829 0
M  V30 2722 C 253.077 -4.16199 3.94419 0
M  V30 2723 N 252.573 -4.92747 4.87004 0
M  V30 2724 N 254.366 -4.11843 3.82547 0
M  V30 2725 H 246.517 -0.690798 2.00853 0
M  V30 2726 H 248.78 -0.366774 0.874174 0
M  V30 2727 H 248.486 -1.8868 2.96804 0
M  V30 2728 H 248.36 -3.26488 1.88906 0
M  V30 2729 H 250.747 -2.76438 1.03276 0
M  V30 2730 H 250.828 -1.39169 2.14629 0
M  V30 2731 H 250.472 -2.98923 4.10619 0
M  V30 2732 H 250.402 -4.35353 2.96269 0
M  V30 2733 H 252.893 -2.87926 2.44759 0
M  V30 2734 H 253.206 -5.46376 5.46528 0
M  V30 2735 H 251.551 -4.91862 4.91016 0
M  V30 2736 H 254.742 -3.51136 3.0955 0
M  V30 2737 H 254.915 -4.69007 4.47142 0
M  V30 2738 N 248.321 -0.919034 -1.28029 0
M  V30 2739 C 249.549 -0.570971 -1.98866 0
M  V30 2740 C 249.964 0.848996 -1.68634 0
M  V30 2741 O 249.321 1.56307 -0.942036 0
M  V30 2742 C 249.372 -0.776876 -3.53054 0
M  V30 2743 O 249.093 -2.14097 -3.82222 0
M  V30 2744 C 250.594 -0.436356 -4.41147 0
M  V30 2745 H 247.814 -0.217175 -0.634883 0
M  V30 2746 H 250.358 -1.23368 -1.63097 0
M  V30 2747 H 248.513 -0.161085 -3.87065 0
M  V30 2748 H 248.927 -2.18455 -4.76841 0
M  V30 2749 H 250.401 -0.63117 -5.4838 0
M  V30 2750 H 250.878 0.627686 -4.34692 0
M  V30 2751 H 251.484 -1.02991 -4.12641 0
M  V30 2752 N 249.799 1.42003 -0.683588 0
M  V30 2753 C 251.215 1.55625 -0.353976 0
M  V30 2754 C 251.415 1.66151 1.14 0
M  V30 2755 O 250.471 1.63329 1.92561 0
M  V30 2756 C 251.784 2.80171 -1.092 0
M  V30 2757 C 253.332 2.93954 -1.07518 0
M  V30 2758 C 253.807 4.21372 -1.79471 0
M  V30 2759 N 255.298 4.28303 -1.76381 0
M  V30 2760 C 256.033 5.25729 -2.28904 0
M  V30 2761 N 255.529 6.29254 -2.89846 0
M  V30 2762 N 257.322 5.17586 -2.19228 0
M  V30 2763 H 249.473 1.33415 -1.6527 0
M  V30 2764 H 251.736 0.64282 -0.696769 0
M  V30 2765 H 251.442 2.78561 -2.14701 0
M  V30 2766 H 251.316 3.7133 -0.662862 0
M  V30 2767 H 253.703 2.95086 -0.028475 0
M  V30 2768 H 253.784 2.04002 -1.54328 0
M  V30 2769 H 253.428 4.21001 -2.84114 0
M  V30 2770 H 253.358 5.10275 -1.30104 0
M  V30 2771 H 255.849 3.54119 -1.31939 0
M  V30 2772 H 256.162 6.99964 -3.27522 0
M  V30 2773 H 254.507 6.29791 -2.93919 0
M  V30 2774 H 257.698 4.35631 -1.71299 0
M  V30 2775 H 257.871 5.93348 -2.60466 0
M  V30 2776 N 251.277 0.427512 1.51691 0
M  V30 2777 C 252.209 -0.424521 2.25234 0
M  V30 2778 C 253.222 -0.994671 1.2888 0
M  V30 2779 O 254.411 -0.890483 1.54702 0
M  V30 2780 C 251.511 -1.60479 2.98496 0
M  V30 2781 C 250.684 -1.15527 4.21868 0
M  V30 2782 C 249.743 -2.20454 4.77793 0
M  V30 2783 O 248.769 -1.8029 5.39893 0
M  V30 2784 N 249.971 -3.52831 4.60967 0
M  V30 2785 H 252.736 0.205749 2.98993 0
M  V30 2786 H 250.297 0.255867 1.59865 0
M  V30 2787 H 252.289 -2.30276 3.32799 0
M  V30 2788 H 250.859 -2.14061 2.27809 0
M  V30 2789 H 250.079 -0.284736 3.9317 0
M  V30 2790 H 251.367 -0.832173 5.01949 0
M  V30 2791 H 250.765 -3.88201 4.11481 0
M  V30 2792 H 249.322 -4.18551 4.99658 0
M  V30 2793 N 252.755 -1.56801 0.158532 0
M  V30 2794 C 253.705 -2.13923 -0.788738 0
M  V30 2795 C 254.689 -1.07006 -1.2016 0
M  V30 2796 O 255.881 -1.33159 -1.1661 0
M  V30 2797 C 253.01 -2.77348 -2.02319 0
M  V30 2798 C 252.096 -3.91404 -1.6329 0
M  V30 2799 N 252.487 -4.9677 -0.951463 0
M  V30 2800 C 250.785 -4.02326 -1.92482 0
M  V30 2801 C 251.486 -5.76698 -0.761221 0
M  V30 2802 N 250.462 -5.27859 -1.29869 0
M  V30 2803 H 254.264 -2.92757 -0.258995 0
M  V30 2804 H 251.778 -1.62344 -0.0426055 0
M  V30 2805 H 253.775 -3.16639 -2.71192 0
M  V30 2806 H 252.435 -1.99991 -2.558 0
M  V30 2807 H 253.446 -5.14284 -0.610928 0
M  V30 2808 H 250.123 -3.36059 -2.47732 0
M  V30 2809 H 251.513 -6.71529 -0.223284 0
M  V30 2810 N 254.233 0.115231 -1.57178 0
M  V30 2811 C 255.482 0.820945 -1.84237 0
M  V30 2812 C 255.795 1.80866 -0.744761 0
M  V30 2813 O 257.001 2.56083 -0.901871 0
M  V30 2814 C 255.457 1.51072 -3.26658 0
M  V30 2815 C 255.065 0.563795 -4.44438 0
M  V30 2816 C 256.809 2.20134 -3.62962 0
M  V30 2817 C 254.716 1.25701 -5.77887 0
M  V30 2818 H 253.646 0.310328 -0.687177 0
M  V30 2819 H 256.297 0.0737134 -1.83352 0
M  V30 2820 H 254.679 2.30471 -3.22024 0
M  V30 2821 H 255.853 -0.197247 -4.60378 0
M  V30 2822 H 254.168 -0.0200638 -4.16395 0
M  V30 2823 H 256.765 2.72696 -4.59936 0
M  V30 2824 H 257.108 2.98107 -2.90582 0
M  V30 2825 H 257.641 1.47619 -3.69396 0
M  V30 2826 H 254.38 0.518493 -6.53446 0
M  V30 2827 H 253.9 1.98997 -5.65827 0
M  V30 2828 H 255.579 1.78915 -6.2177 0
M  V30 2829 N 255.711 1.52812 0.385517 0
M  V30 2830 C 257.122 1.5993 0.963293 0
M  V30 2831 C 257.473 0.454302 1.90868 0
M  V30 2832 O 256.598 -0.422132 2.12243 0
M  V30 2833 C 257.193 2.89871 1.75387 0
M  V30 2834 C 255.752 2.99389 2.28129 0
M  V30 2835 C 254.899 2.55071 1.08783 0
M  V30 2836 H 257.85 1.5784 0.164948 0
M  V30 2837 H 257.871 2.76553 2.61341 0
M  V30 2838 H 257.383 3.73186 1.06554 0
M  V30 2839 H 255.484 2.20619 3.00263 0
M  V30 2840 H 255.597 4.04096 2.57377 0
M  V30 2841 H 253.961 2.09473 1.4489 0
M  V30 2842 H 254.744 3.40785 0.414807 0
M  V30 2843 N 257.189 -0.644168 1.43834 0
M  V30 2844 C 258.419 -1.42939 1.49171 0
M  V30 2845 C 258.827 -1.88874 0.111048 0
M  V30 2846 O 258.17 -1.60656 -0.8908 0
M  V30 2847 C 258.232 -2.69151 2.38324 0
M  V30 2848 C 257.896 -2.45097 3.85715 0
M  V30 2849 C 258.893 -2.07747 4.76589 0
M  V30 2850 C 256.578 -2.59141 4.30292 0
M  V30 2851 C 258.572 -1.8475 6.10038 0
M  V30 2852 C 256.259 -2.35759 5.63792 0
M  V30 2853 C 257.257 -1.9862 6.53482 0
M  V30 2854 O 256.945 -1.75489 7.84512 0
M  V30 2855 H 256.677 -0.445271 0.508635 0
M  V30 2856 H 259.231 -0.79621 1.8934 0
M  V30 2857 H 257.461 -3.3506 1.93058 0
M  V30 2858 H 259.15 -3.31123 2.3476 0
M  V30 2859 H 259.916 -1.96465 4.43426 0
M  V30 2860 H 255.795 -2.87022 3.60749 0
M  V30 2861 H 259.339 -1.55686 6.80006 0
M  V30 2862 H 255.236 -2.46646 5.9652 0
M  V30 2863 H 256.004 -1.89841 7.9618 0
M  V30 2864 N 258.668 -1.30515 -0.883378 0
M  V30 2865 C 260.084 -1.08881 -1.16692 0
M  V30 2866 C 260.284 0.149409 -2.00945 0
M  V30 2867 O 259.34 0.84257 -2.38027 0
M  V30 2868 C 260.653 -2.35319 -1.87204 0
M  V30 2869 C 262.201 -2.40799 -1.99962 0
M  V30 2870 C 262.676 -3.67083 -2.73887 0
M  V30 2871 N 264.167 -3.679 -2.81432 0
M  V30 2872 C 264.902 -4.62303 -3.3921 0
M  V30 2873 N 264.398 -5.67052 -3.98025 0
M  V30 2874 N 266.191 -4.49845 -3.3704 0
M  V30 2875 H 258.342 -2.09951 -0.321633 0
M  V30 2876 H 260.605 -0.92556 -0.205043 0
M  V30 2877 H 260.311 -3.25689 -1.3274 0
M  V30 2878 H 260.185 -2.44089 -2.87577 0
M  V30 2879 H 262.572 -1.50907 -2.53597 0
M  V30 2880 H 262.653 -2.36003 -0.98673 0
M  V30 2881 H 262.297 -4.57334 -2.20925 0
M  V30 2882 H 262.227 -3.69141 -3.75556 0
M  V30 2883 H 264.718 -2.92171 -2.39676 0
M  V30 2884 H 265.031 -6.35184 -4.40183 0
M  V30 2885 H 263.376 -5.70842 -3.96439 0
M  V30 2886 H 266.567 -3.67194 -2.90321 0
M  V30 2887 H 266.74 -5.23597 -3.81772 0
M  V30 2888 N 260.146 1.09593 -1.13257 0
M  V30 2889 C 261.056 2.19739 -0.821691 0
M  V30 2890 C 262.072 1.72926 0.19302 0
M  V30 2891 O 263.248 2.01385 0.0244895 0
M  V30 2892 C 260.313 3.45482 -0.290333 0
M  V30 2893 C 259.374 4.06985 -1.36607 0
M  V30 2894 C 258.607 5.26726 -0.859975 0
M  V30 2895 O 258.83 5.69594 0.303082 0
M  V30 2896 O 257.764 5.7931 -1.63351 0
M  V30 2897 H 261.59 2.48781 -1.74189 0
M  V30 2898 H 259.175 1.18496 -0.909894 0
M  V30 2899 H 261.057 4.214 0.000674022 0
M  V30 2900 H 259.732 3.18047 0.602306 0
M  V30 2901 H 258.639 3.32712 -1.71037 0
M  V30 2902 H 259.972 4.38643 -2.23279 0
M  V30 2903 N 261.624 0.925811 1.2754 0
M  V30 2904 C 262.901 0.483726 1.89524 0
M  V30 2905 C 263.281 -1.03809 1.83812 0
M  V30 2906 O 262.629 -1.89143 1.28207 0
M  V30 2907 C 262.839 1.02769 3.33526 0
M  V30 2908 C 264.187 1.08703 4.10449 0
M  V30 2909 O 265.211 0.977175 3.42534 0
M  V30 2910 O 264.07 1.25599 5.31871 0
M  V30 2911 H 261.164 0.15529 0.812289 0
M  V30 2912 H 263.71 1.01738 1.35822 0
M  V30 2913 H 262.482 2.07155 3.31967 0
M  V30 2914 H 262.105 0.475567 3.94746 0
M  V30 2915 N 263.102 -1.41638 0.69111 0
M  V30 2916 C 264.049 -2.30789 0.0229705 0
M  V30 2917 C 265.019 -1.46863 -0.775911 0
M  V30 2918 O 266.204 -1.75661 -0.74485 0
M  V30 2919 C 263.344 -3.32868 -0.910666 0
M  V30 2920 C 262.457 -4.31875 -0.103874 0
M  V30 2921 C 261.592 -5.21024 -1.03475 0
M  V30 2922 C 260.631 -6.11702 -0.220598 0
M  V30 2923 N 259.768 -6.93349 -1.10504 0
M  V30 2924 H 264.608 -2.87366 0.788978 0
M  V30 2925 H 262.145 -1.41535 0.400794 0
M  V30 2926 H 264.103 -3.90596 -1.46597 0
M  V30 2927 H 262.733 -2.77851 -1.64312 0
M  V30 2928 H 261.785 -3.76131 0.568285 0
M  V30 2929 H 263.097 -4.96003 0.527504 0
M  V30 2930 H 262.251 -5.83565 -1.65943 0
M  V30 2931 H 260.99 -4.57112 -1.69999 0
M  V30 2932 H 259.995 -5.48215 0.417187 0
M  V30 2933 H 261.22 -6.77668 0.440784 0
M  V30 2934 H 259.166 -6.3205 -1.75638 0
M  V30 2935 H 259.083 -7.54146 -0.529125 0
M  V30 2936 H 260.351 -7.60362 -1.71667 0
M  V30 2937 N 264.58 -0.43555 -1.51462 0
M  V30 2938 C 265.528 0.391205 -2.29287 0
M  V30 2939 C 266.522 1.02247 -1.35062 0
M  V30 2940 O 267.728 0.957646 -1.52411 0
M  V30 2941 H 264.103 0.144968 -0.737895 0
M  V30 2942 H 266.074 -0.286051 -2.97026 0
M  V30 2943 C 264.823 1.48096 -3.14583 0
M  V30 2944 H 264.146 1.00457 -3.86973 0
M  V30 2945 H 265.586 2.03273 -3.72097 0
M  V30 2946 C 264.045 2.46321 -2.29843 0
M  V30 2947 O 264.575 3.50815 -1.95682 0
M  V30 2948 N 262.781 2.17166 -1.931 0
M  V30 2949 H 262.328 1.32218 -2.21079 0
M  V30 2950 H 262.286 2.83127 -1.36698 0
M  V30 2951 N 266.058 1.56714 -0.166846 0
M  V30 2952 C 266.988 2.20754 0.760913 0
M  V30 2953 C 267.969 1.16178 1.24244 0
M  V30 2954 O 269.154 1.44592 1.29641 0
M  V30 2955 C 266.284 2.84478 1.99223 0
M  V30 2956 C 265.238 3.95053 1.64672 0
M  V30 2957 C 264.564 4.45805 2.95232 0
M  V30 2958 C 265.864 5.14865 0.878155 0
M  V30 2959 H 267.558 2.98537 0.22713 0
M  V30 2960 H 265.104 1.43596 0.107805 0
M  V30 2961 H 267.057 3.27951 2.64624 0
M  V30 2962 H 265.781 2.04056 2.55007 0
M  V30 2963 H 264.44 3.52228 1.01641 0
M  V30 2964 H 264.088 3.62181 3.49047 0
M  V30 2965 H 263.788 5.204 2.7287 0
M  V30 2966 H 265.312 4.91962 3.6167 0
M  V30 2967 H 266.726 5.55059 1.43466 0
M  V30 2968 H 265.123 5.95348 0.753738 0
M  V30 2969 H 266.193 4.84735 -0.126377 0
M  V30 2970 N 267.536 -0.106894 1.57237 0
M  V30 2971 C 268.764 -0.826389 1.8968 0
M  V30 2972 C 269.179 -1.72856 0.759353 0
M  V30 2973 O 268.536 -1.80503 -0.269263 0
M  V30 2974 C 268.587 -1.64967 3.21665 0
M  V30 2975 O 268.308 -0.783804 4.31031 0
M  V30 2976 C 269.809 -2.47326 3.67892 0
M  V30 2977 H 267.029 -0.236927 0.627779 0
M  V30 2978 H 269.573 -0.0876593 2.04312 0
M  V30 2979 H 267.728 -2.34103 3.08666 0
M  V30 2980 H 268.142 -1.35284 5.06753 0
M  V30 2981 H 269.616 -3.00604 4.6297 0
M  V30 2982 H 270.093 -3.25247 2.95146 0
M  V30 2983 H 270.699 -1.83411 3.83719 0
M  V30 2984 N 269.014 -1.53014 -0.377408 0
M  V30 2985 C 270.262 -1.6829 -1.11906 0
M  V30 2986 C 270.583 -0.431206 -1.90173 0
M  V30 2987 O 269.853 0.554595 -1.87886 0
M  V30 2988 H 268.433 -0.620371 -0.416112 0
M  V30 2989 H 271.095 -1.90167 -0.426893 0
M  V30 2990 H 270.191 -2.53862 -1.8155 0
M  V30 2991 N 270.492 0.636531 -1.44174 0
M  V30 2992 C 271.72 1.42353 -1.50144 0
M  V30 2993 C 272.135 1.88389 -0.124575 0
M  V30 2994 O 271.492 1.6051 0.868489 0
M  V30 2995 C 271.543 2.64744 -2.46156 0
M  V30 2996 O 271.264 2.20629 -3.7849 0
M  V30 2997 C 272.765 3.57929 -2.61537 0
M  V30 2998 H 269.985 0.436752 -0.5094 0
M  V30 2999 H 272.529 0.778933 -1.89084 0
M  V30 3000 H 270.684 3.25307 -2.10366 0
M  V30 3001 H 271.098 2.99938 -4.30276 0
M  V30 3002 H 272.572 4.40428 -3.32757 0
M  V30 3003 H 273.049 4.06382 -1.66585 0
M  V30 3004 H 273.655 3.03238 -2.98206 0
M  V30 3005 N 271.97 1.30982 0.876444 0
M  V30 3006 C 272.933 1.18054 1.96459 0
M  V30 3007 C 273.933 0.109399 1.60427 0
M  V30 3008 O 275.123 0.358173 1.70478 0
M  V30 3009 C 272.255 0.810616 3.31122 0
M  V30 3010 H 273.448 2.14735 2.09354 0
M  V30 3011 H 271.001 1.145 1.06392 0
M  V30 3012 H 271.736 -0.155322 3.23928 0
M  V30 3013 H 271.521 1.58481 3.58645 0
M  V30 3014 H 273.011 0.743876 4.10921 0
M  V30 3015 N 273.449 -1.08991 1.13837 0
M  V30 3016 C 274.865 -1.33312 0.877506 0
M  V30 3017 C 275.065 -1.95587 -0.48456 0
M  V30 3018 O 274.121 -2.20509 -1.23013 0
M  V30 3019 C 275.434 -2.24045 2.0056 0
M  V30 3020 C 276.982 -2.37542 2.03821 0
M  V30 3021 C 277.457 -3.31614 3.15905 0
M  V30 3022 N 278.948 -3.39189 3.15445 0
M  V30 3023 C 279.683 -4.11992 3.98811 0
M  V30 3024 N 279.179 -4.87553 4.92203 0
M  V30 3025 N 280.972 -4.07762 3.86894 0
M  V30 3026 H 273.123 -0.669456 2.01574 0
M  V30 3027 H 275.386 -0.357482 0.878015 0
M  V30 3028 H 275.092 -1.85521 2.98789 0
M  V30 3029 H 274.966 -3.24466 1.92359 0
M  V30 3030 H 277.353 -2.75327 1.06202 0
M  V30 3031 H 277.434 -1.36884 2.16093 0
M  V30 3032 H 277.078 -2.94551 4.13766 0
M  V30 3033 H 277.008 -4.32186 3.0087 0
M  V30 3034 H 279.499 -2.85314 2.47799 0
M  V30 3035 H 279.812 -5.40549 5.52292 0
M  V30 3036 H 278.157 -4.86627 4.96205 0
M  V30 3037 H 281.348 -3.47833 3.13257 0
M  V30 3038 H 281.521 -4.64238 4.52092 0
M  V30 3039 N 274.927 -0.932562 -1.27047 0
M  V30 3040 C 276.157 -0.591173 -1.97961 0
M  V30 3041 C 276.565 0.836219 -1.69717 0
M  V30 3042 O 275.908 1.56801 -0.957036 0
M  V30 3043 C 275.97 -0.743082 -3.51736 0
M  V30 3044 C 275.634 -2.1435 -4.03613 0
M  V30 3045 C 276.631 -3.11815 -4.16014 0
M  V30 3046 C 274.316 -2.46175 -4.37839 0
M  V30 3047 C 276.31 -4.39211 -4.61923 0
M  V30 3048 C 273.997 -3.73806 -4.83438 0
M  V30 3049 C 274.995 -4.70137 -4.95439 0
M  V30 3050 O 274.683 -5.95496 -5.40037 0
M  V30 3051 H 274.415 -0.222375 -0.638377 0
M  V30 3052 H 276.969 -1.25317 -1.62742 0
M  V30 3053 H 275.199 -0.0239739 -3.86693 0
M  V30 3054 H 276.888 -0.40603 -4.03864 0
M  V30 3055 H 277.654 -2.88549 -3.89826 0
M  V30 3056 H 273.533 -1.71936 -4.27737 0
M  V30 3057 H 277.077 -5.14404 -4.71205 0
M  V30 3058 H 272.974 -3.96888 -5.09068 0
M  V30 3059 H 273.742 -5.98554 -5.58279 0
M  V30 3060 N 276.405 1.4127 -0.698611 0
M  V30 3061 C 277.368 2.29158 -0.044132 0
M  V30 3062 C 278.368 1.44529 0.704841 0
M  V30 3063 O 279.558 1.65643 0.539276 0
M  V30 3064 C 276.69 3.27459 0.947809 0
M  V30 3065 H 277.883 2.88529 -0.817994 0
M  V30 3066 H 275.436 1.49307 -0.46228 0
M  V30 3067 H 276.171 2.73073 1.74933 0
M  V30 3068 H 275.956 3.8991 0.41385 0
M  V30 3069 H 277.446 3.93311 1.40344 0
M  V30 3070 N 277.883 0.443576 1.51229 0
M  V30 3071 C 279.108 -0.121648 2.07043 0
M  V30 3072 C 279.533 -1.35156 1.30823 0
M  V30 3073 O 278.891 -1.7793 0.347934 0
M  V30 3074 C 278.939 -0.41624 3.5819 0
M  V30 3075 O 278.043 -1.50163 3.8409 0
M  V30 3076 H 277.384 0.000871367 0.663999 0
M  V30 3077 H 279.914 0.626706 1.94765 0
M  V30 3078 H 279.924 -0.664867 4.02546 0
M  V30 3079 H 278.599 0.482653 4.1309 0
M  V30 3080 H 277.176 -1.24248 3.51592 0
M  V30 3081 N 279.361 -1.56624 0.175154 0
M  V30 3082 C 280.61 -1.96173 -0.468921 0
M  V30 3083 C 280.923 -1.06401 -1.64128 0
M  V30 3084 O 282.129 -1.35648 -2.35185 0
M  V30 3085 C 280.585 -3.48833 -0.885633 0
M  V30 3086 C 280.193 -4.47237 0.261343 0
M  V30 3087 C 281.937 -3.97194 -1.49791 0
M  V30 3088 C 279.844 -5.9114 -0.175214 0
M  V30 3089 H 278.774 -0.732455 -0.178958 0
M  V30 3090 H 281.425 -1.81591 0.263997 0
M  V30 3091 H 279.807 -3.58848 -1.67464 0
M  V30 3092 H 280.981 -4.4894 1.03871 0
M  V30 3093 H 279.296 -4.08956 0.783827 0
M  V30 3094 H 281.893 -5.02167 -1.83665 0
M  V30 3095 H 282.236 -3.40351 -2.39722 0
M  V30 3096 H 282.769 -3.90212 -0.773267 0
M  V30 3097 H 279.508 -6.51865 0.689414 0
M  V30 3098 H 279.028 -5.92735 -0.91786 0
M  V30 3099 H 280.707 -6.44044 -0.617792 0
M  V30 3100 N 280.839 0.0985539 -1.57292 0
M  V30 3101 C 281.787 1.1387 -2.02821 0
M  V30 3102 C 282.781 1.41676 -0.928666 0
M  V30 3103 O 283.987 1.41398 -1.11385 0
M  V30 3104 H 280.362 0.384419 -0.646317 0
M  V30 3105 H 282.333 0.728347 -2.89375 0
M  V30 3106 C 281.082 2.45166 -2.46554 0
M  V30 3107 H 280.405 2.24613 -3.3074 0
M  V30 3108 H 281.845 3.16456 -2.8219 0
M  V30 3109 C 280.304 3.09216 -1.33742 0
M  V30 3110 O 280.834 3.96163 -0.66464 0
M  V30 3111 N 279.04 2.69413 -1.08928 0
M  V30 3112 H 278.587 1.98801 -1.63817 0
M  V30 3113 H 278.545 3.12594 -0.336458 0
M  V30 3114 N 282.317 1.53212 0.369288 0
M  V30 3115 C 283.28 1.7872 1.43498 0
M  V30 3116 C 284.28 0.657554 1.46741 0
M  V30 3117 O 285.47 0.925736 1.47566 0
M  V30 3118 C 282.602 1.90591 2.82645 0
M  V30 3119 H 283.795 2.73894 1.22156 0
M  V30 3120 H 281.348 1.44233 0.602203 0
M  V30 3121 H 282.083 0.974709 3.09306 0
M  V30 3122 H 281.868 2.72751 2.8169 0
M  V30 3123 H 283.358 2.11931 3.59826 0
M  V30 3124 N 283.795 -0.628877 1.44509 0
M  V30 3125 C 284.745 -1.7345 1.47983 0
M  V30 3126 C 285.729 -1.5715 0.345373 0
M  V30 3127 O 286.921 -1.66848 0.590829 0
M  V30 3128 C 284.05 -3.12143 1.42904 0
M  V30 3129 C 283.136 -3.33906 2.61472 0
M  V30 3130 N 283.527 -3.26024 3.86706 0
M  V30 3131 C 281.825 -3.64709 2.56716 0
M  V30 3132 C 282.526 -3.48536 4.65722 0
M  V30 3133 N 281.502 -3.71517 3.96832 0
M  V30 3134 H 285.304 -1.65818 2.42655 0
M  V30 3135 H 282.818 -0.831419 1.39503 0
M  V30 3136 H 284.815 -3.91433 1.43476 0
M  V30 3137 H 283.475 -3.2094 0.492717 0
M  V30 3138 H 284.486 -3.04893 4.18641 0
M  V30 3139 H 281.163 -3.80473 1.71891 0
M  V30 3140 H 282.553 -3.48016 5.74747 0
M  V30 3141 N 285.273 -1.31445 -0.869486 0
M  V30 3142 C 286.203 -1.21727 -1.99261 0
M  V30 3143 C 287.184 -0.104359 -1.6978 0
M  V30 3144 O 288.369 -0.289038 -1.92037 0
M  V30 3145 C 285.499 -0.924317 -3.34774 0
M  V30 3146 C 284.453 -1.99685 -3.78563 0
M  V30 3147 C 283.779 -1.55658 -5.11541 0
M  V30 3148 C 285.079 -3.41003 -3.95619 0
M  V30 3149 H 286.773 -2.1569 -2.07649 0
M  V30 3150 H 284.319 -1.03839 -0.997675 0
M  V30 3151 H 286.272 -0.842934 -4.12883 0
M  V30 3152 H 284.996 0.0509793 -3.2656 0
M  V30 3153 H 283.655 -2.06813 -3.02694 0
M  V30 3154 H 283.303 -0.569132 -4.9977 0
M  V30 3155 H 283.003 -2.27409 -5.41811 0
M  V30 3156 H 284.527 -1.48928 -5.92159 0
M  V30 3157 H 285.941 -3.36547 -4.64122 0
M  V30 3158 H 284.338 -4.10975 -4.37286 0
M  V30 3159 H 285.408 -3.81754 -2.98985 0
M  V30 3160 N 286.751 1.08385 -1.14413 0
M  V30 3161 C 287.999 1.80419 -0.910679 0
M  V30 3162 C 288.32 1.86658 0.564243 0
M  V30 3163 O 287.59 1.35985 1.41014 0
M  V30 3164 H 286.17 0.668204 -0.333934 0
M  V30 3165 H 288.832 1.31037 -1.44275 0
M  V30 3166 H 287.928 2.83238 -1.31082 0
M  V30 3167 N 288.23 0.939286 1.26551 0
M  V30 3168 C 289.479 0.581601 1.93133 0
M  V30 3169 C 289.792 -0.883224 1.74524 0
M  V30 3170 O 290.998 -1.3502 2.35546 0
M  V30 3171 C 289.454 0.989425 3.46032 0
M  V30 3172 C 289.062 2.47573 3.73379 0
M  V30 3173 C 290.806 0.703544 4.18629 0
M  V30 3174 C 288.713 2.82235 5.19709 0
M  V30 3175 H 287.643 0.213803 0.723052 0
M  V30 3176 H 290.294 1.14167 1.4366 0
M  V30 3177 H 288.676 0.357902 3.94379 0
M  V30 3178 H 289.85 3.15614 3.35744 0
M  V30 3179 H 288.165 2.73471 3.1401 0
M  V30 3180 H 290.762 0.938869 5.26393 0
M  V30 3181 H 291.105 -0.359639 4.14744 0
M  V30 3182 H 291.638 1.2947 3.76141 0
M  V30 3183 H 288.377 3.87509 5.28694 0
M  V30 3184 H 287.897 2.18854 5.58447 0
M  V30 3185 H 289.576 2.70599 5.87695 0
M  V30 3186 N 289.708 -1.40897 0.706093 0
M  V30 3187 C 290.618 -2.3455 0.0482286 0
M  V30 3188 C 291.634 -1.56796 -0.754396 0
M  V30 3189 O 292.81 -1.89228 -0.689538 0
M  V30 3190 C 289.875 -3.35625 -0.869303 0
M  V30 3191 C 288.936 -4.29261 -0.0576994 0
M  V30 3192 C 288.169 -5.25508 -0.931531 0
M  V30 3193 O 288.392 -5.27472 -2.17092 0
M  V30 3194 O 287.326 -6.00727 -0.375587 0
M  V30 3195 H 291.152 -2.92407 0.820476 0
M  V30 3196 H 288.737 -1.4193 0.4665 0
M  V30 3197 H 290.619 -3.97635 -1.39514 0
M  V30 3198 H 289.294 -2.80196 -1.62086 0
M  V30 3199 H 288.201 -3.70566 0.512988 0
M  V30 3200 H 289.534 -4.87817 0.655426 0
M  V30 3201 N 291.186 -0.45159 -1.50991 0
M  V30 3202 C 292.118 0.388634 -2.25881 0
M  V30 3203 C 293.131 0.974041 -1.30446 0
M  V30 3204 O 294.32 0.865758 -1.56099 0
M  V30 3205 C 291.42 1.5571 -3.01011 0
M  V30 3206 C 290.593 1.08801 -4.23652 0
M  V30 3207 C 289.652 2.12825 -4.8124 0
M  V30 3208 O 288.678 1.71678 -5.42693 0
M  V30 3209 N 289.88 3.45453 -4.66522 0
M  V30 3210 H 292.645 -0.25329 -2.98628 0
M  V30 3211 H 290.206 -0.281268 -1.59438 0
M  V30 3212 H 292.198 2.24952 -3.3642 0
M  V30 3213 H 290.768 2.10409 -2.31186 0
M  V30 3214 H 289.988 0.22215 -3.93574 0
M  V30 3215 H 291.276 0.752213 -5.03209 0
M  V30 3216 H 290.674 3.81605 -4.17605 0
M  V30 3217 H 289.231 4.10549 -5.06254 0
M  V30 3218 N 292.664 1.56529 -0.183458 0
M  V30 3219 C 293.889 2.02064 0.467428 0
M  V30 3220 C 294.314 1.06282 1.55196 0
M  V30 3221 O 293.672 0.0443565 1.81246 0
M  V30 3222 C 293.72 3.46122 1.01153 0
M  V30 3223 O 292.824 3.53437 2.12499 0
M  V30 3224 H 292.165 0.654726 0.110588 0
M  V30 3225 H 294.695 2.02521 -0.290917 0
M  V30 3226 H 294.705 3.85676 1.33108 0
M  V30 3227 H 293.38 4.15331 0.217533 0
M  V30 3228 H 291.957 3.2575 1.81497 0
M  V30 3229 N 294.142 -0.090211 1.57342 0
M  V30 3230 C 295.558 -0.444547 1.53284 0
M  V30 3231 C 295.758 -1.80238 0.900914 0
M  V30 3232 O 294.814 -2.4759 0.495513 0
M  V30 3233 C 296.127 -0.402543 2.97993 0
M  V30 3234 C 297.675 -0.48405 3.09234 0
M  V30 3235 C 298.15 -0.472144 4.5556 0
M  V30 3236 N 299.641 -0.532757 4.60126 0
M  V30 3237 C 300.376 -0.545462 5.708 0
M  V30 3238 N 299.872 -0.514082 6.9089 0
M  V30 3239 N 301.665 -0.59064 5.58988 0
M  V30 3240 H 293.816 0.799121 1.96794 0
M  V30 3241 H 296.079 0.297965 0.899956 0
M  V30 3242 H 295.785 0.528106 3.47712 0
M  V30 3243 H 295.659 -1.21969 3.56936 0
M  V30 3244 H 298.046 -1.40512 2.595 0
M  V30 3245 H 298.127 0.361328 2.53235 0
M  V30 3246 H 297.771 0.445 5.05947 0
M  V30 3247 H 297.701 -1.3348 5.09402 0
M  V30 3248 H 300.192 -0.562006 3.73698 0
M  V30 3249 H 300.505 -0.527195 7.71 0
M  V30 3250 H 298.85 -0.481054 6.93333 0
M  V30 3251 H 302.041 -0.61272 4.64073 0
M  V30 3252 H 302.214 -0.597073 6.45243 0
M  V30 3253 N 295.62 -1.53406 -0.361157 0
M  V30 3254 C 297.036 -1.43277 -0.703124 0
M  V30 3255 C 297.236 -0.575384 -1.9311 0
M  V30 3256 O 296.292 -0.0595362 -2.5243 0
M  V30 3257 C 297.605 -2.8653 -0.9122 0
M  V30 3258 C 299.153 -2.96191 -1.01193 0
M  V30 3259 C 299.628 -4.40514 -1.25345 0
M  V30 3260 N 301.119 -4.43962 -1.32105 0
M  V30 3261 C 301.854 -5.52746 -1.5251 0
M  V30 3262 N 301.35 -6.71567 -1.70203 0
M  V30 3263 N 303.143 -5.40331 -1.54916 0
M  V30 3264 H 295.294 -2.07654 0.446475 0
M  V30 3265 H 297.557 -0.937944 0.137715 0
M  V30 3266 H 297.263 -3.51605 -0.0816414 0
M  V30 3267 H 297.137 -3.30441 -1.81903 0
M  V30 3268 H 299.524 -2.31266 -1.83303 0
M  V30 3269 H 299.605 -2.55667 -0.0823929 0
M  V30 3270 H 299.249 -5.06014 -0.437346 0
M  V30 3271 H 299.179 -4.78614 -2.19627 0
M  V30 3272 H 301.67 -3.58332 -1.20028 0
M  V30 3273 H 301.983 -7.50241 -1.85359 0
M  V30 3274 H 300.328 -6.74545 -1.67373 0
M  V30 3275 H 303.519 -4.46465 -1.40663 0
M  V30 3276 H 303.692 -6.25173 -1.70477 0
M  V30 3277 N 297.098 0.621204 -1.44841 0
M  V30 3278 C 298.375 1.38 -1.38619 0
M  V30 3279 C 298.755 2.11041 -0.0498935 0
M  V30 3280 O 298.103 2.06992 0.967816 0
M  V30 3281 C 298.313 2.33817 -2.59096 0
M  V30 3282 C 299.661 2.96844 -3.03593 0
M  V30 3283 O 300.685 2.44141 -2.59371 0
M  V30 3284 O 299.544 3.92476 -3.80296 0
M  V30 3285 H 296.638 0.61811 -0.549426 0
M  V30 3286 H 299.184 0.645429 -1.56947 0
M  V30 3287 H 297.956 1.79012 -3.47952 0
M  V30 3288 H 297.579 3.14676 -2.43032 0
M  V30 3289 N 298.576 1.31904 0.862503 0
M  V30 3290 C 299.853 1.12644 1.59908 0
M  V30 3291 C 300.233 -0.316104 2.0872 0
M  V30 3292 O 299.581 -1.31145 1.87118 0
M  V30 3293 C 299.791 2.1472 2.7513 0
M  V30 3294 C 301.139 2.47637 3.44907 0
M  V30 3295 O 302.163 2.13205 2.85346 0
M  V30 3296 O 301.022 3.06632 4.52371 0
M  V30 3297 H 298.116 0.43416 0.703871 0
M  V30 3298 H 300.662 1.43408 0.907314 0
M  V30 3299 H 299.434 3.1172 2.3653 0
M  V30 3300 H 299.057 1.84905 3.51989 0
M  V30 3301 N 300.054 -1.07777 1.14986 0
M  V30 3302 C 300.987 -2.14228 0.786243 0
M  V30 3303 C 301.965 -1.60888 -0.235347 0
M  V30 3304 O 303.149 -1.88099 -0.122909 0
M  V30 3305 C 300.276 -3.38281 0.168433 0
M  V30 3306 C 299.322 -4.10387 1.16123 0
M  V30 3307 S 300.155 -4.62371 2.70135 0
M  V30 3308 C 301.311 -5.89704 2.09762 0
M  V30 3309 H 301.544 -2.44741 1.68787 0
M  V30 3310 H 299.077 -1.19984 0.971756 0
M  V30 3311 H 301.035 -4.10098 -0.181588 0
M  V30 3312 H 299.696 -3.05953 -0.710725 0
M  V30 3313 H 298.889 -4.99431 0.677086 0
M  V30 3314 H 298.491 -3.44513 1.45556 0
M  V30 3315 H 300.783 -6.61648 1.45701 0
M  V30 3316 H 301.726 -6.42824 2.96955 0
M  V30 3317 H 302.134 -5.4302 1.54239 0
M  V30 3318 N 301.532 -0.945985 -1.26051 0
M  V30 3319 C 302.442 -0.465633 -2.29933 0
M  V30 3320 C 303.458 0.462761 -1.67733 0
M  V30 3321 O 304.634 0.341118 -1.9849 0
M  V30 3322 C 301.699 0.256994 -3.45746 0
M  V30 3323 C 300.76 -0.708549 -4.23412 0
M  V30 3324 C 299.993 -0.0203135 -5.33696 0
M  V30 3325 O 300.216 1.19571 -5.57726 0
M  V30 3326 O 299.15 -0.701459 -5.97799 0
M  V30 3327 H 302.976 -1.32866 -2.73094 0
M  V30 3328 H 300.561 -0.712071 -1.31339 0
M  V30 3329 H 302.443 0.663852 -4.16138 0
M  V30 3330 H 301.118 1.09533 -3.04605 0
M  V30 3331 H 300.025 -1.16545 -3.55483 0
M  V30 3332 H 301.358 -1.51465 -4.68315 0
M  V30 3333 N 303.011 1.40521 -0.713556 0
M  V30 3334 C 304.236 2.05759 -0.26035 0
M  V30 3335 C 304.661 1.53403 1.08854 0
M  V30 3336 O 304.019 0.668535 1.68524 0
M  V30 3337 C 304.067 3.59745 -0.248122 0
M  V30 3338 O 303.171 4.05123 0.77131 0
M  V30 3339 H 302.512 0.652564 -0.122703 0
M  V30 3340 H 305.042 1.79958 -0.973467 0
M  V30 3341 H 305.052 4.07911 -0.0851129 0
M  V30 3342 H 303.727 3.97218 -1.2325 0
M  V30 3343 H 302.304 3.68422 0.57619 0
M  V30 3344 N 304.489 0.459591 1.5075 0
M  V30 3345 C 305.419 -0.330644 2.31147 0
M  V30 3346 C 306.4 -1.00087 1.37538 0
M  V30 3347 O 307.585 -1.00025 1.66459 0
M  V30 3348 C 304.715 -1.41958 3.16962 0
M  V30 3349 C 303.669 -0.871608 4.19031 0
M  V30 3350 C 302.995 -2.05797 4.9351 0
M  V30 3351 C 304.295 0.109251 5.22186 0
M  V30 3352 H 305.989 0.340336 2.97459 0
M  V30 3353 H 303.535 0.165119 1.4305 0
M  V30 3354 H 305.488 -1.9798 3.71997 0
M  V30 3355 H 304.212 -2.11917 2.48513 0
M  V30 3356 H 302.871 -0.333442 3.6508 0
M  V30 3357 H 302.519 -2.74427 4.21544 0
M  V30 3358 H 302.219 -1.6976 5.62544 0
M  V30 3359 H 303.743 -2.62331 5.51375 0
M  V30 3360 H 305.157 -0.361405 5.7216 0
M  V30 3361 H 303.554 0.383316 5.98875 0
M  V30 3362 H 304.624 1.03887 4.73641 0
M  V30 3363 N 305.967 -1.56429 0.191757 0
M  V30 3364 C 307.215 -1.97095 -0.447006 0
M  V30 3365 C 307.536 -1.07967 -1.62383 0
M  V30 3366 O 306.806 -0.150248 -1.95323 0
M  V30 3367 H 305.386 -0.727832 -0.168135 0
M  V30 3368 H 308.048 -1.92911 0.27771 0
M  V30 3369 H 307.144 -3.01848 -0.793371 0
M  V30 3370 N 307.445 0.0818655 -1.57387 0
M  V30 3371 C 308.675 0.794954 -1.90694 0
M  V30 3372 C 309.083 1.72147 -0.784982 0
M  V30 3373 O 308.426 1.81974 0.251196 0
M  V30 3374 C 308.488 1.65042 -3.19376 0
M  V30 3375 C 308.152 0.894337 -4.48164 0
M  V30 3376 C 309.149 0.21813 -5.19442 0
M  V30 3377 C 306.834 0.864495 -4.94805 0
M  V30 3378 C 308.828 -0.477802 -6.35607 0
M  V30 3379 C 306.515 0.164785 -6.10878 0
M  V30 3380 C 307.513 -0.505173 -6.81129 0
M  V30 3381 O 307.201 -1.19363 -7.94989 0
M  V30 3382 H 306.933 0.231779 -0.635023 0
M  V30 3383 H 309.487 0.059493 -2.05314 0
M  V30 3384 H 307.717 2.42844 -3.00938 0
M  V30 3385 H 309.406 2.24127 -3.38411 0
M  V30 3386 H 310.172 0.232558 -4.84442 0
M  V30 3387 H 306.051 1.37542 -4.40004 0
M  V30 3388 H 309.595 -1.00129 -6.90377 0
M  V30 3389 H 305.492 0.148249 -6.4533 0
M  V30 3390 H 306.26 -1.10188 -8.11049 0
M  V30 3391 N 308.923 1.53595 0.353017 0
M  V30 3392 C 310.169 1.70638 1.09593 0
M  V30 3393 C 310.502 0.463286 1.88593 0
M  V30 3394 O 309.777 -0.539597 1.86865 0
M  V30 3395 C 310.06 2.96406 2.04489 0
M  V30 3396 C 309.913 4.30901 1.29014 0
M  V30 3397 C 311.232 3.17812 3.0444 0
M  V30 3398 H 308.351 0.620913 0.397034 0
M  V30 3399 H 310.993 1.86254 0.375446 0
M  V30 3400 H 309.143 2.83223 2.65927 0
M  V30 3401 H 310.815 4.55917 0.702638 0
M  V30 3402 H 309.058 4.29741 0.592071 0
M  V30 3403 H 309.729 5.1506 1.98537 0
M  V30 3404 H 312.205 3.30263 2.53112 0
M  V30 3405 H 311.081 4.07223 3.6805 0
M  V30 3406 H 311.342 2.33669 3.75301 0
M  V30 3407 N 310.401 -0.613514 1.45168 0
M  V30 3408 C 311.331 -1.7354 1.56225 0
M  V30 3409 C 312.312 -1.64981 0.41414 0
M  V30 3410 O 313.497 -1.83472 0.636526 0
M  V30 3411 C 310.627 -3.12128 1.52295 0
M  V30 3412 C 309.581 -3.35491 2.65762 0
M  V30 3413 C 308.907 -4.74291 2.46885 0
M  V30 3414 C 310.207 -3.26325 4.0781 0
M  V30 3415 H 311.901 -1.64543 2.50132 0
M  V30 3416 H 309.447 -0.790185 1.20383 0
M  V30 3417 H 311.4 -3.90404 1.58628 0
M  V30 3418 H 310.124 -3.2195 0.549139 0
M  V30 3419 H 308.783 -2.59603 2.58847 0
M  V30 3420 H 308.431 -4.80839 1.47657 0
M  V30 3421 H 308.131 -4.9088 3.22972 0
M  V30 3422 H 309.655 -5.54775 2.55063 0
M  V30 3423 H 311.069 -3.94483 4.16 0
M  V30 3424 H 309.466 -3.54445 4.8424 0
M  V30 3425 H 310.536 -2.23855 4.30136 0
M  V30 3426 N 311.879 -1.3236 -0.855495 0
M  V30 3427 C 312.812 -1.15559 -1.96777 0
M  V30 3428 C 313.79 -0.0552681 -1.62506 0
M  V30 3429 O 314.974 -0.214419 -1.87277 0
M  V30 3430 C 312.101 -0.768851 -3.29858 0
M  V30 3431 C 311.147 -1.87429 -3.83109 0
M  V30 3432 S 311.98 -3.48243 -4.06801 0
M  V30 3433 C 313.136 -3.11539 -5.42858 0
M  V30 3434 H 313.369 -2.09717 -2.10727 0
M  V30 3435 H 310.902 -1.17011 -1.00737 0
M  V30 3436 H 312.86 -0.55248 -4.06765 0
M  V30 3437 H 311.521 0.153857 -3.13723 0
M  V30 3438 H 310.714 -1.55667 -4.79358 0
M  V30 3439 H 310.316 -2.04647 -3.13042 0
M  V30 3440 H 312.608 -2.61331 -6.2507 0
M  V30 3441 H 313.551 -4.06806 -5.79582 0
M  V30 3442 H 313.959 -2.48582 -5.06821 0
M  V30 3443 N 313.357 1.07166 -1.15556 0
M  V30 3444 C 314.587 1.83248 -0.954133 0
M  V30 3445 C 314.995 1.82449 0.500911 0
M  V30 3446 O 314.338 1.23575 1.35923 0
M  V30 3447 C 314.4 3.31393 -1.39351 0
M  V30 3448 C 314.064 3.5591 -2.86666 0
M  V30 3449 C 315.061 3.49695 -3.8472 0
M  V30 3450 C 312.746 3.83515 -3.24379 0
M  V30 3451 C 314.74 3.70737 -5.18491 0
M  V30 3452 C 312.427 4.04209 -4.58321 0
M  V30 3453 C 313.425 3.97815 -5.55186 0
M  V30 3454 O 313.113 4.17954 -6.86709 0
M  V30 3455 H 312.845 0.584941 -0.338851 0
M  V30 3456 H 315.399 1.36169 -1.53777 0
M  V30 3457 H 313.629 3.79292 -0.75329 0
M  V30 3458 H 315.318 3.88945 -1.16089 0
M  V30 3459 H 316.084 3.28368 -3.56931 0
M  V30 3460 H 311.963 3.87605 -2.49567 0
M  V30 3461 H 315.507 3.65663 -5.94085 0
M  V30 3462 H 311.404 4.25023 -4.85825 0
M  V30 3463 H 312.172 4.35291 -6.93155 0
M  V30 3464 N 314.835 0.952656 1.25548 0
M  V30 3465 C 316.082 0.606373 1.93208 0
M  V30 3466 C 316.41 -0.85631 1.74636 0
M  V30 3467 O 315.665 -1.62951 1.08376 0
M  V30 3468 C 315.964 0.908818 3.45652 0
M  V30 3469 C 315.63 2.35722 3.84378 0
M  V30 3470 C 314.292 2.75312 3.9466 0
M  V30 3471 C 316.644 3.29793 4.03591 0
M  V30 3472 C 313.972 4.08047 4.21562 0
M  V30 3473 C 316.324 4.62138 4.31985 0
M  V30 3474 C 314.988 5.01528 4.40484 0
M  V30 3475 H 314.258 0.221888 0.706998 0
M  V30 3476 H 316.905 1.20132 1.49133 0
M  V30 3477 H 315.21 0.231456 3.91116 0
M  V30 3478 H 316.907 0.619498 3.96186 0
M  V30 3479 H 313.497 2.04017 3.76928 0
M  V30 3480 H 317.681 3.00397 3.95064 0
M  V30 3481 H 312.937 4.38212 4.26357 0
M  V30 3482 H 317.111 5.35012 4.45797 0
M  V30 3483 H 314.738 6.04406 4.61083 0
M  V30 3484 N 316.313 -1.40141 0.720998 0
M  V30 3485 C 317.261 -2.3252 0.0608547 0
M  V30 3486 C 318.255 -1.52326 -0.741152 0
M  V30 3487 O 319.461 -1.68089 -0.643911 0
M  V30 3488 H 315.836 -0.751999 0.000876664 0
M  V30 3489 H 317.807 -2.8584 0.856614 0
M  V30 3490 C 316.556 -3.37331 -0.842809 0
M  V30 3491 H 315.879 -3.99108 -0.235084 0
M  V30 3492 H 317.319 -4.04452 -1.27257 0
M  V30 3493 C 315.778 -2.73246 -1.97074 0
M  V30 3494 O 316.308 -2.59998 -3.06209 0
M  V30 3495 N 314.514 -2.31547 -1.75597 0
M  V30 3496 H 314.061 -2.42522 -0.868368 0
M  V30 3497 H 314.019 -1.89007 -2.51244 0
M  V30 3498 N 317.792 -0.46758 -1.50504 0
M  V30 3499 C 319.208 -0.121533 -1.59137 0
M  V30 3500 C 319.408 1.3717 -1.47603 0
M  V30 3501 O 318.464 2.14464 -1.33272 0
M  V30 3502 C 319.777 -0.6686 -2.93173 0
M  V30 3503 C 321.325 -0.631716 -3.06559 0
M  V30 3504 C 321.8 -1.15627 -4.43164 0
M  V30 3505 N 323.291 -1.11553 -4.49567 0
M  V30 3506 C 324.026 -1.49195 -5.5365 0
M  V30 3507 N 323.522 -1.94269 -6.65005 0
M  V30 3508 N 325.315 -1.4082 -5.44175 0
M  V30 3509 H 317.466 -1.4388 -1.56245 0
M  V30 3510 H 319.729 -0.594784 -0.738198 0
M  V30 3511 H 319.435 -1.71453 -3.07078 0
M  V30 3512 H 319.309 -0.11021 -3.77039 0
M  V30 3513 H 321.696 0.405297 -2.92304 0
M  V30 3514 H 321.777 -1.22687 -2.24458 0
M  V30 3515 H 321.421 -2.1919 -4.58168 0
M  V30 3516 H 321.351 -0.537365 -5.23851 0
M  V30 3517 H 323.842 -0.784895 -3.69659 0
M  V30 3518 H 324.155 -2.21148 -7.40482 0
M  V30 3519 H 322.5 -1.98219 -6.66134 0
M  V30 3520 H 325.691 -1.0545 -4.56068 0
M  V30 3521 H 325.864 -1.70481 -6.25172 0
M  V30 3522 N 319.27 1.56325 -0.20005 0
M  V30 3523 C 320.498 2.02105 0.442874 0
M  V30 3524 C 320.913 1.08014 1.5485 0
M  V30 3525 O 320.27 0.0858797 1.82298 0
M  V30 3526 C 320.321 3.47549 0.994583 0
M  V30 3527 O 320.042 4.38049 -0.0669322 0
M  V30 3528 C 321.543 4.0887 1.7129 0
M  V30 3529 H 318.763 0.661807 0.110691 0
M  V30 3530 H 321.307 2.02134 -0.310207 0
M  V30 3531 H 319.462 3.48204 1.69803 0
M  V30 3532 H 319.876 5.23368 0.344462 0
M  V30 3533 H 321.35 5.12475 2.05118 0
M  V30 3534 H 321.827 3.52615 2.61838 0
M  V30 3535 H 322.433 4.12002 1.05518 0
M  V30 3536 N 320.748 -0.0735177 1.57428 0
M  V30 3537 C 321.973 -0.789787 1.91774 0
M  V30 3538 C 322.398 -1.70413 0.796306 0
M  V30 3539 O 321.756 -1.79555 -0.250961 0
M  V30 3540 C 321.804 -1.5609 3.25067 0
M  V30 3541 O 320.908 -2.67144 3.14178 0
M  V30 3542 H 320.249 -0.215582 0.628029 0
M  V30 3543 H 322.779 -0.0422781 2.04556 0
M  V30 3544 H 322.789 -1.94052 3.58898 0
M  V30 3545 H 321.464 -0.890015 4.06265 0
M  V30 3546 H 320.041 -2.32052 2.91901 0
M  V30 3547 N 322.226 -1.5378 -0.344866 0
M  V30 3548 C 323.156 -1.84662 -1.42906 0
M  V30 3549 C 324.137 -0.701648 -1.54955 0
M  V30 3550 O 325.322 -0.953438 -1.69184 0
M  V30 3551 C 322.452 -2.05503 -2.79974 0
M  V30 3552 C 321.406 -3.21318 -2.82734 0
M  V30 3553 C 320.732 -3.2749 -4.22675 0
M  V30 3554 C 322.032 -4.59456 -2.48389 0
M  V30 3555 H 323.726 -2.75461 -1.17311 0
M  V30 3556 H 321.272 -1.32542 -0.562896 0
M  V30 3557 H 323.225 -2.25691 -3.55867 0
M  V30 3558 H 321.949 -1.11434 -3.07002 0
M  V30 3559 H 320.608 -3.00984 -2.09294 0
M  V30 3560 H 320.256 -2.31019 -4.4681 0
M  V30 3561 H 319.956 -4.05316 -4.25433 0
M  V30 3562 H 321.48 -3.49887 -5.00412 0
M  V30 3563 H 322.894 -4.79667 -3.13995 0
M  V30 3564 H 321.291 -5.39675 -2.62432 0
M  V30 3565 H 322.361 -4.63155 -1.4358 0
M  V30 3566 N 323.704 0.605807 -1.45491 0
M  V30 3567 C 325.115 1.18777 -1.44045 0
M  V30 3568 C 325.466 1.95471 -0.169001 0
M  V30 3569 O 324.591 2.0374 0.729324 0
M  V30 3570 C 325.186 2.16064 -2.60963 0
M  V30 3571 C 323.745 2.69633 -2.62631 0
M  V30 3572 C 322.892 1.45072 -2.36325 0
M  V30 3573 H 325.843 0.395017 -1.53705 0
M  V30 3574 H 325.864 2.9913 -2.35163 0
M  V30 3575 H 325.376 1.60217 -3.53486 0
M  V30 3576 H 323.477 3.29414 -1.74119 0
M  V30 3577 H 323.59 3.13944 -3.61906 0
M  V30 3578 H 321.954 1.74089 -1.85917 0
M  V30 3579 H 322.737 0.910899 -3.30995 0
M  V30 3580 N 325.182 1.32811 0.848464 0
M  V30 3581 C 326.428 1.24917 1.60522 0
M  V30 3582 C 326.783 -0.185761 1.91501 0
M  V30 3583 O 326.076 -1.12524 1.55077 0
M  V30 3584 C 326.27 2.04831 2.92881 0
M  V30 3585 C 326.099 3.55949 2.74828 0
M  V30 3586 C 324.869 4.25277 2.72887 0
M  V30 3587 C 327.067 4.50476 2.48145 0
M  V30 3588 N 325.049 5.62408 2.46111 0
M  V30 3589 C 326.42 5.75427 2.30832 0
M  V30 3590 C 328.475 4.39665 2.33664 0
M  V30 3591 C 327.178 6.90789 2.00508 0
M  V30 3592 C 329.204 5.54833 2.04731 0
M  V30 3593 C 328.566 6.78787 1.88223 0
M  V30 3594 H 324.665 0.512279 0.590842 0
M  V30 3595 H 327.249 1.67246 0.996839 0
M  V30 3596 H 325.42 1.64837 3.51686 0
M  V30 3597 H 327.152 1.88782 3.57971 0
M  V30 3598 H 323.907 3.77456 2.86049 0
M  V30 3599 H 324.331 6.3467 2.35634 0
M  V30 3600 H 328.973 3.44477 2.45144 0
M  V30 3601 H 326.691 7.85984 1.87765 0
M  V30 3602 H 330.277 5.48398 1.94295 0
M  V30 3603 H 329.157 7.66396 1.66155 0
M  V30 3604 N 326.66 -1.06551 1.16123 0
M  V30 3605 C 327.592 -2.13908 0.823171 0
M  V30 3606 C 328.605 -1.61926 -0.16843 0
M  V30 3607 O 329.794 -1.78412 0.055962 0
M  V30 3608 C 326.894 -3.38283 0.204424 0
M  V30 3609 C 326.067 -4.19589 1.23548 0
M  V30 3610 C 325.126 -5.2233 0.637011 0
M  V30 3611 O 324.152 -5.54034 1.30516 0
M  V30 3612 N 325.354 -5.77621 -0.577474 0
M  V30 3613 H 328.119 -2.43508 1.74711 0
M  V30 3614 H 325.68 -1.2253 1.05821 0
M  V30 3615 H 327.672 -4.0416 -0.208909 0
M  V30 3616 H 326.242 -3.06329 -0.623012 0
M  V30 3617 H 325.462 -3.49406 1.82507 0
M  V30 3618 H 326.75 -4.70718 1.93137 0
M  V30 3619 H 326.148 -5.54125 -1.13853 0
M  V30 3620 H 324.705 -6.45087 -0.933053 0
M  V30 3621 N 328.138 -0.959301 -1.25041 0
M  V30 3622 C 329.386 -0.615393 -1.92503 0
M  V30 3623 C 329.707 0.850969 -1.75452 0
M  V30 3624 O 328.977 1.60658 -1.12098 0
M  V30 3625 H 327.557 -0.224613 -0.712431 0
M  V30 3626 H 330.219 -1.21855 -1.5211 0
M  V30 3627 H 329.315 -0.848738 -3.00338 0
M  V30 3628 N 329.616 1.39756 -0.72842 0
M  V30 3629 C 330.546 2.33289 -0.0991354 0
M  V30 3630 C 331.527 1.53568 0.731489 0
M  V30 3631 O 332.712 1.81987 0.677807 0
M  V30 3632 C 329.842 3.3763 0.813834 0
M  V30 3633 C 328.796 4.2791 0.0878663 0
M  V30 3634 C 328.122 5.22894 1.11741 0
M  V30 3635 C 329.422 5.11314 -1.06563 0
M  V30 3636 H 331.116 2.86163 -0.880408 0
M  V30 3637 H 328.662 1.37591 -0.424819 0
M  V30 3638 H 330.615 4.0201 1.26355 0
M  V30 3639 H 329.339 2.83181 1.62715 0
M  V30 3640 H 327.998 3.65 -0.342159 0
M  V30 3641 H 327.646 4.64744 1.92412 0
M  V30 3642 H 327.346 5.84143 0.636477 0
M  V30 3643 H 328.87 5.90151 1.56697 0
M  V30 3644 H 330.284 5.69076 -0.694671 0
M  V30 3645 H 328.681 5.81671 -1.47577 0
M  V30 3646 H 329.751 4.46534 -1.89038 0
M  V30 3647 N 331.094 0.475555 1.50254 0
M  V30 3648 C 332.041 -0.316293 2.28622 0
M  V30 3649 C 333.011 -0.983227 1.33873 0
M  V30 3650 O 334.196 -0.994805 1.62814 0
M  V30 3651 C 331.336 -1.38975 3.1588 0
M  V30 3652 C 330.449 -0.737146 4.25664 0
M  V30 3653 C 329.584 -1.78887 5.00173 0
M  V30 3654 C 328.623 -1.11676 6.01826 0
M  V30 3655 N 327.76 -2.11154 6.69596 0
M  V30 3656 H 332.6 0.358297 2.95838 0
M  V30 3657 H 330.137 0.188541 1.45887 0
M  V30 3658 H 332.095 -2.02383 3.64825 0
M  V30 3659 H 330.725 -2.03344 2.50701 0
M  V30 3660 H 329.777 0.0096065 3.80399 0
M  V30 3661 H 331.089 -0.206816 4.98371 0
M  V30 3662 H 330.243 -2.49865 5.52859 0
M  V30 3663 H 328.982 -2.35302 4.27182 0
M  V30 3664 H 327.987 -0.392633 5.48396 0
M  V30 3665 H 329.212 -0.55945 6.76792 0
M  V30 3666 H 327.158 -2.66577 5.99394 0
M  V30 3667 H 327.075 -1.63118 7.38193 0
M  V30 3668 H 328.343 -2.81497 7.26897 0
M  V30 3669 N 332.573 -1.56217 0.208337 0
M  V30 3670 C 333.536 -2.18455 -0.693557 0
M  V30 3671 C 334.536 -1.14268 -1.13135 0
M  V30 3672 O 335.726 -1.39577 -1.0423 0
M  V30 3673 C 332.858 -2.79727 -1.94848 0
M  V30 3674 H 334.051 -2.99519 -0.15114 0
M  V30 3675 H 331.604 -1.56245 -0.041287 0
M  V30 3676 H 332.339 -2.02497 -2.53309 0
M  V30 3677 H 332.124 -3.56009 -1.64316 0
M  V30 3678 H 333.614 -3.27475 -2.59133 0
M  V30 3679 N 334.051 0.0651679 -1.57465 0
M  V30 3680 C 335.014 1.06117 -2.03155 0
M  V30 3681 C 336.014 1.31204 -0.929632 0
M  V30 3682 O 337.204 1.26813 -1.19432 0
M  V30 3683 C 334.336 2.4032 -2.41783 0
M  V30 3684 H 335.529 0.667231 -2.92383 0
M  V30 3685 H 333.082 0.311075 -1.53173 0
M  V30 3686 H 333.817 2.84532 -1.55601 0
M  V30 3687 H 333.602 2.23451 -3.22199 0
M  V30 3688 H 335.092 3.11898 -2.77685 0
M  V30 3689 N 335.529 1.53961 0.336706 0
M  V30 3690 C 336.757 1.75483 1.09605 0
M  V30 3691 C 337.172 0.4972 1.82136 0
M  V30 3692 O 336.529 -0.53149 1.74589 0
M  V30 3693 C 336.58 2.93943 2.10428 0
M  V30 3694 O 336.301 4.14842 1.40846 0
M  V30 3695 C 337.802 3.27571 2.98684 0
M  V30 3696 H 335.022 0.586166 0.326574 0
M  V30 3697 H 337.566 2.00808 0.38683 0
M  V30 3698 H 335.721 2.70929 2.76905 0
M  V30 3699 H 336.135 4.81383 2.08255 0
M  V30 3700 H 337.609 4.13791 3.6535 0
M  V30 3701 H 338.086 2.44168 3.65074 0
M  V30 3702 H 338.692 3.52615 2.37787 0
M  V30 3703 N 337.007 -0.598083 1.45811 0
M  V30 3704 C 337.954 -1.7082 1.55207 0
M  V30 3705 C 338.924 -1.61278 0.39732 0
M  V30 3706 O 340.109 -1.80717 0.612038 0
M  V30 3707 C 337.249 -3.09144 1.53376 0
M  V30 3708 C 336.362 -3.29423 2.79472 0
M  V30 3709 C 335.497 -4.57907 2.69248 0
M  V30 3710 C 334.536 -4.71476 3.90354 0
M  V30 3711 N 333.673 -5.9127 3.78608 0
M  V30 3712 H 338.513 -1.62125 2.50039 0
M  V30 3713 H 336.05 -0.790389 1.24062 0
M  V30 3714 H 338.008 -3.89186 1.50301 0
M  V30 3715 H 336.638 -3.16773 0.620876 0
M  V30 3716 H 335.69 -2.43091 2.92594 0
M  V30 3717 H 337.002 -3.3532 3.69272 0
M  V30 3718 H 336.156 -5.46157 2.64192 0
M  V30 3719 H 334.895 -4.54423 1.77063 0
M  V30 3720 H 333.9 -3.81648 3.95759 0
M  V30 3721 H 335.125 -4.76751 4.83617 0
M  V30 3722 H 333.071 -5.88813 2.89199 0
M  V30 3723 H 332.988 -5.98369 4.6205 0
M  V30 3724 H 334.256 -6.81992 3.77501 0
M  V30 3725 N 338.485 -1.33259 -0.841409 0
M  V30 3726 C 339.432 -1.23302 -1.95103 0
M  V30 3727 C 340.402 -0.112204 -1.65721 0
M  V30 3728 O 341.587 -0.290038 -1.88583 0
M  V30 3729 C 338.727 -0.975583 -3.31023 0
M  V30 3730 C 337.84 -2.18243 -3.72819 0
M  V30 3731 C 336.975 -1.85936 -4.97595 0
M  V30 3732 C 336.014 -3.02866 -5.3192 0
M  V30 3733 N 335.151 -2.70565 -6.47873 0
M  V30 3734 H 339.991 -2.18207 -2.02952 0
M  V30 3735 H 337.528 -1.0851 -0.993173 0
M  V30 3736 H 339.486 -0.80677 -4.09325 0
M  V30 3737 H 338.116 -0.0632755 -3.22738 0
M  V30 3738 H 337.168 -2.46107 -2.90061 0
M  V30 3739 H 338.48 -3.05666 -3.94169 0
M  V30 3740 H 337.634 -1.65684 -5.83638 0
M  V30 3741 H 336.373 -0.957452 -4.78209 0
M  V30 3742 H 335.378 -3.23736 -4.44382 0
M  V30 3743 H 336.603 -3.93809 -5.53255 0
M  V30 3744 H 334.549 -1.8293 -6.29978 0
M  V30 3745 H 334.466 -3.51519 -6.69306 0
M  V30 3746 H 335.734 -2.53774 -7.37034 0
M  V30 3747 N 339.963 1.05934 -1.16686 0
M  V30 3748 C 340.895 2.13468 -0.834503 0
M  V30 3749 C 341.908 1.62013 0.15984 0
M  V30 3750 O 343.097 1.7838 -0.0654228 0
M  V30 3751 C 340.197 3.3817 -0.222361 0
M  V30 3752 C 339.37 4.18928 -1.25771 0
M  V30 3753 C 338.429 5.21985 -0.664703 0
M  V30 3754 O 337.455 5.53334 -1.33453 0
M  V30 3755 N 338.657 5.77919 0.546834 0
M  V30 3756 H 341.422 2.42578 -1.75999 0
M  V30 3757 H 338.983 1.21967 -1.06469 0
M  V30 3758 H 340.975 4.04266 0.187472 0
M  V30 3759 H 339.545 3.06655 0.606758 0
M  V30 3760 H 338.765 3.48433 -1.84358 0
M  V30 3761 H 340.053 4.69687 -1.95631 0
M  V30 3762 H 339.451 5.54721 1.10912 0
M  V30 3763 H 338.008 6.45573 0.898829 0
M  V30 3764 N 341.441 0.965919 1.2453 0
M  V30 3765 C 342.388 0.49402 2.25451 0
M  V30 3766 C 343.358 -0.45948 1.59618 0
M  V30 3767 O 344.543 -0.370238 1.87173 0
M  V30 3768 C 341.683 -0.211359 3.44452 0
M  V30 3769 C 340.796 0.7807 4.24887 0
M  V30 3770 C 339.931 0.0516105 5.31175 0
M  V30 3771 C 338.97 1.03385 6.03306 0
M  V30 3772 N 338.107 0.334887 7.01301 0
M  V30 3773 H 342.947 1.35946 2.65184 0
M  V30 3774 H 340.484 0.681515 1.3036 0
M  V30 3775 H 342.442 -0.637 4.12308 0
M  V30 3776 H 341.072 -1.04077 3.05562 0
M  V30 3777 H 340.124 1.32479 3.56586 0
M  V30 3778 H 341.436 1.52978 4.74762 0
M  V30 3779 H 340.59 -0.432114 6.05159 0
M  V30 3780 H 339.329 -0.730179 4.82203 0
M  V30 3781 H 338.334 1.52847 5.28127 0
M  V30 3782 H 339.559 1.81606 6.54367 0
M  V30 3783 H 337.505 -0.427959 6.54603 0
M  V30 3784 H 337.422 1.02287 7.49048 0
M  V30 3785 H 338.69 -0.126928 7.79397 0
M  V30 3786 N 342.919 -1.39368 0.735821 0
M  V30 3787 C 344.149 -2.04498 0.293967 0
M  V30 3788 C 344.557 -1.55593 -1.07645 0
M  V30 3789 O 343.9 -0.716324 -1.69158 0
M  V30 3790 C 343.962 -3.58836 0.218342 0
M  V30 3791 C 343.626 -4.30721 1.52736 0
M  V30 3792 C 344.623 -4.57305 2.47322 0
M  V30 3793 C 342.308 -4.69251 1.79189 0
M  V30 3794 C 344.302 -5.21429 3.66593 0
M  V30 3795 C 341.989 -5.33104 2.98737 0
M  V30 3796 C 342.987 -5.59125 3.9226 0
M  V30 3797 O 342.675 -6.21653 5.09708 0
M  V30 3798 H 342.407 -0.664118 0.126189 0
M  V30 3799 H 344.961 -1.79385 1.00051 0
M  V30 3800 H 343.191 -3.8285 -0.544314 0
M  V30 3801 H 344.88 -4.05447 -0.191626 0
M  V30 3802 H 345.646 -4.27983 2.28156 0
M  V30 3803 H 341.525 -4.48354 1.07239 0
M  V30 3804 H 345.069 -5.41656 4.39607 0
M  V30 3805 H 340.966 -5.61846 3.17803 0
M  V30 3806 H 341.734 -6.40146 5.10054 0
M  V30 3807 N 344.397 -0.483516 -1.5 0
M  V30 3808 C 345.307 0.309172 -2.32554 0
M  V30 3809 C 346.323 0.984159 -1.43493 0
M  V30 3810 O 347.499 0.969399 -1.76535 0
M  V30 3811 C 344.564 1.36979 -3.18493 0
M  V30 3812 C 343.625 0.710095 -4.23387 0
M  V30 3813 C 342.858 1.72018 -5.05218 0
M  V30 3814 O 343.081 2.94813 -4.88305 0
M  V30 3815 O 342.015 1.28515 -5.8802 0
M  V30 3816 H 345.841 -0.366064 -3.01486 0
M  V30 3817 H 343.426 -0.24514 -1.47375 0
M  V30 3818 H 345.308 1.98385 -3.71781 0
M  V30 3819 H 343.983 2.02828 -2.52275 0
M  V30 3820 H 342.89 0.0567539 -3.74057 0
M  V30 3821 H 344.223 0.0943557 -4.9211 0
M  V30 3822 N 345.875 1.56104 -0.216619 0
M  V30 3823 C 346.822 2.2007 0.695531 0
M  V30 3824 C 347.792 1.15471 1.19397 0
M  V30 3825 O 348.977 1.43807 1.25396 0
M  V30 3826 C 346.117 2.88073 1.90021 0
M  V30 3827 C 345.23 4.07253 1.44113 0
M  V30 3828 C 344.365 4.63052 2.603 0
M  V30 3829 C 343.404 5.74545 2.11103 0
M  V30 3830 N 342.541 6.24656 3.20545 0
M  V30 3831 H 347.381 2.97655 0.143327 0
M  V30 3832 H 344.918 1.46982 0.0589934 0
M  V30 3833 H 346.876 3.25681 2.60745 0
M  V30 3834 H 345.506 2.13015 2.42538 0
M  V30 3835 H 344.558 3.75164 0.628999 0
M  V30 3836 H 345.87 4.8783 1.04036 0
M  V30 3837 H 345.024 5.03078 3.39113 0
M  V30 3838 H 343.763 3.81628 3.03663 0
M  V30 3839 H 342.768 5.34027 1.3075 0
M  V30 3840 H 343.993 6.57801 1.68746 0
M  V30 3841 H 341.939 5.46148 3.63399 0
M  V30 3842 H 341.856 7.00343 2.84704 0
M  V30 3843 H 343.124 6.69338 3.99508 0
M  V30 3844 N 347.353 -0.0568162 1.57498 0
M  V30 3845 C 348.602 -0.752001 1.87157 0
M  V30 3846 C 348.915 -1.77978 0.811375 0
M  V30 3847 O 350.121 -2.52559 0.996293 0
M  V30 3848 C 348.577 -1.38844 3.3204 0
M  V30 3849 C 348.185 -0.398456 4.46225 0
M  V30 3850 C 349.929 -2.06512 3.70882 0
M  V30 3851 C 347.836 -1.04166 5.82154 0
M  V30 3852 H 346.766 -0.28461 0.698222 0
M  V30 3853 H 349.417 -0.00561272 1.83499 0
M  V30 3854 H 347.799 -2.1836 3.30356 0
M  V30 3855 H 348.973 0.367977 4.59328 0
M  V30 3856 H 347.288 0.174592 4.16034 0
M  V30 3857 H 349.885 -2.55437 4.6974 0
M  V30 3858 H 350.228 -2.87117 3.01445 0
M  V30 3859 H 350.761 -1.33808 3.7462 0
M  V30 3860 H 347.5 -0.275614 6.5492 0
M  V30 3861 H 347.02 -1.7786 5.72823 0
M  V30 3862 H 348.699 -1.55715 6.27982 0
M  V30 3863 N 348.832 -1.54138 -0.328536 0
M  V30 3864 C 350.057 -1.76378 -1.09112 0
M  V30 3865 C 350.482 -0.508596 -1.81094 0
M  V30 3866 O 349.84 0.539598 -1.73084 0
M  V30 3867 C 349.888 -2.95358 -2.06872 0
M  V30 3868 O 348.992 -2.66556 -3.14677 0
M  V30 3869 H 348.333 -0.584614 -0.314838 0
M  V30 3870 H 350.863 -2.01146 -0.374348 0
M  V30 3871 H 350.873 -3.22566 -2.4983 0
M  V30 3872 H 349.548 -3.86385 -1.5388 0
M  V30 3873 H 348.125 -2.50282 -2.7643 0
M  V30 3874 N 350.31 0.590341 -1.46126 0
M  V30 3875 C 351.22 1.72793 -1.58681 0
M  V30 3876 C 352.236 1.67516 -0.470566 0
M  V30 3877 O 353.412 1.87562 -0.733642 0
M  V30 3878 C 350.477 3.09287 -1.5666 0
M  V30 3879 C 349.538 3.25886 -2.79458 0
M  V30 3880 C 348.771 4.55869 -2.77524 0
M  V30 3881 O 348.994 5.3928 -1.85832 0
M  V30 3882 O 347.928 4.75552 -3.68964 0
M  V30 3883 H 351.754 1.65149 -2.54872 0
M  V30 3884 H 349.339 0.756486 -1.28832 0
M  V30 3885 H 351.221 3.90577 -1.58202 0
M  V30 3886 H 349.896 3.17385 -0.636271 0
M  V30 3887 H 348.803 2.44119 -2.83472 0
M  V30 3888 H 350.136 3.22675 -3.71674 0
M  V30 3889 N 351.788 1.33704 0.83433 0
M  V30 3890 C 352.735 1.24335 1.94447 0
M  V30 3891 C 353.705 0.120991 1.65659 0
M  V30 3892 O 354.89 0.300035 1.88426 0
M  V30 3893 C 352.03 0.993124 3.30501 0
M  V30 3894 C 351.143 2.20217 3.71657 0
M  V30 3895 C 350.278 1.88572 4.96602 0
M  V30 3896 C 349.317 3.05683 5.30306 0
M  V30 3897 N 348.454 2.73997 6.46429 0
M  V30 3898 H 353.294 2.1928 2.01792 0
M  V30 3899 H 350.831 1.09035 0.987404 0
M  V30 3900 H 352.789 0.828467 4.08892 0
M  V30 3901 H 351.419 0.0803902 3.227 0
M  V30 3902 H 350.471 2.47642 2.88752 0
M  V30 3903 H 351.783 3.07752 3.92543 0
M  V30 3904 H 350.937 1.68776 5.82752 0
M  V30 3905 H 349.676 0.982799 4.77695 0
M  V30 3906 H 348.681 3.26088 4.42659 0
M  V30 3907 H 349.906 3.96737 5.51159 0
M  V30 3908 H 347.852 1.86268 6.28999 0
M  V30 3909 H 347.769 3.55064 6.67432 0
M  V30 3910 H 349.037 2.57679 7.35678 0
M  V30 3911 N 353.266 -1.05314 1.17247 0
M  V30 3912 C 354.213 -2.13031 0.888058 0
M  V30 3913 C 355.183 -1.65253 -0.167537 0
M  V30 3914 O 356.368 -1.90775 -0.0305974 0
M  V30 3915 C 353.508 -3.42702 0.406147 0
M  V30 3916 C 352.621 -4.04161 1.52572 0
M  V30 3917 C 351.756 -5.21744 0.997808 0
M  V30 3918 C 350.795 -5.75207 2.09291 0
M  V30 3919 N 349.932 -6.84094 1.57986 0
M  V30 3920 H 354.772 -2.36698 1.81048 0
M  V30 3921 H 352.309 -1.16121 0.903013 0
M  V30 3922 H 354.267 -4.17059 0.108305 0
M  V30 3923 H 352.897 -3.19222 -0.479313 0
M  V30 3924 H 351.949 -3.27253 1.93931 0
M  V30 3925 H 353.261 -4.39881 2.35172 0
M  V30 3926 H 352.415 -6.03168 0.653739 0
M  V30 3927 H 351.154 -4.87495 0.141232 0
M  V30 3928 H 350.159 -4.92414 2.44557 0
M  V30 3929 H 351.384 -6.11505 2.95362 0
M  V30 3930 H 349.33 -6.51745 0.74598 0
M  V30 3931 H 349.247 -7.18811 2.34195 0
M  V30 3932 H 350.515 -7.69172 1.26468 0
M  V30 3933 N 354.744 -0.972509 -1.24016 0
M  V30 3934 C 355.677 -0.45117 -2.23696 0
M  V30 3935 C 356.655 0.477378 -1.55434 0
M  V30 3936 O 357.839 0.407647 -1.84039 0
M  V30 3937 C 354.966 0.34818 -3.36906 0
M  V30 3938 C 354.012 -0.523355 -4.23277 0
M  V30 3939 S 354.845 -1.96647 -4.98087 0
M  V30 3940 C 356.001 -1.17604 -6.14752 0
M  V30 3941 H 356.234 -1.29588 -2.67571 0
M  V30 3942 H 353.767 -0.777903 -1.33372 0
M  V30 3943 H 355.725 0.803387 -4.02562 0
M  V30 3944 H 354.386 1.16792 -2.91579 0
M  V30 3945 H 353.579 0.0906181 -5.03919 0
M  V30 3946 H 353.181 -0.914485 -3.62647 0
M  V30 3947 H 355.473 -0.433434 -6.76112 0
M  V30 3948 H 356.416 -1.95701 -6.8052 0
M  V30 3949 H 356.824 -0.698295 -5.60164 0
M  V30 3950 N 356.222 1.38976 -0.743202 0
M  V30 3951 C 357.447 2.05161 -0.303936 0
M  V30 3952 C 357.872 1.55677 1.05576 0
M  V30 3953 O 357.23 0.704131 1.67068 0
M  V30 3954 C 357.278 3.59138 -0.324373 0
M  V30 3955 O 356.382 4.06668 0.685204 0
M  V30 3956 H 355.723 0.649815 -0.136518 0
M  V30 3957 H 358.253 1.77852 -1.01142 0
M  V30 3958 H 358.263 4.07639 -0.171618 0
M  V30 3959 H 356.938 3.94515 -1.31647 0
M  V30 3960 H 355.515 3.69561 0.497913 0
M  V30 3961 N 357.7 0.491464 1.49741 0
M  V30 3962 C 358.928 -0.0535151 2.06831 0
M  V30 3963 C 359.343 -1.31683 1.35296 0
M  V30 3964 O 358.7 -1.77402 0.42836 0
M  V30 3965 C 358.751 -0.320835 3.60073 0
M  V30 3966 O 358.472 0.892394 4.28915 0
M  V30 3967 C 359.973 -0.910519 4.33848 0
M  V30 3968 H 357.193 0.0161909 0.670805 0
M  V30 3969 H 359.737 0.68609 1.92647 0
M  V30 3970 H 357.892 -1.0104 3.73991 0
M  V30 3971 H 358.306 0.649401 5.20464 0
M  V30 3972 H 359.78 -1.04721 5.41976 0
M  V30 3973 H 360.257 -1.90589 3.95692 0
M  V30 3974 H 360.863 -0.258712 4.24512 0
M  V30 3975 N 359.178 -1.55987 0.224894 0
M  V30 3976 C 360.589 -1.84553 -0.282345 0
M  V30 3977 C 360.94 -1.14634 -1.59227 0
M  V30 3978 O 360.065 -0.417155 -2.12341 0
M  V30 3979 C 360.66 -3.348 -0.519062 0
M  V30 3980 C 359.219 -3.63671 -0.970604 0
M  V30 3981 C 358.366 -2.77277 -0.0355261 0
M  V30 3982 H 361.317 -1.52245 0.448006 0
M  V30 3983 H 361.338 -3.55187 -1.36463 0
M  V30 3984 H 360.85 -3.8566 0.43449 0
M  V30 3985 H 358.951 -3.1827 -1.9374 0
M  V30 3986 H 359.064 -4.71631 -0.842698 0
M  V30 3987 H 357.428 -2.48846 -0.542927 0
M  V30 3988 H 358.211 -3.30937 0.913003 0
M  V30 3989 N 360.656 0.0484629 -1.57525 0
M  V30 3990 C 361.902 0.744226 -1.88651 0
M  V30 3991 C 362.235 1.76029 -0.820212 0
M  V30 3992 O 361.51 1.93782 0.166985 0
M  V30 3993 C 361.793 1.43128 -3.30434 0
M  V30 3994 C 361.646 0.43005 -4.47739 0
M  V30 3995 C 362.965 2.37031 -3.70816 0
M  V30 3996 H 360.084 0.269089 -0.68612 0
M  V30 3997 H 362.726 0.00713532 -1.89999 0
M  V30 3998 H 360.876 2.05956 -3.29415 0
M  V30 3999 H 362.548 -0.194816 -4.60888 0
M  V30 4000 H 360.791 -0.252522 -4.33064 0
M  V30 4001 H 361.462 0.948874 -5.43783 0
M  V30 4002 H 363.938 1.84263 -3.73077 0
M  V30 4003 H 362.814 2.82094 -4.70865 0
M  V30 4004 H 363.075 3.22864 -3.02012 0
M  V30 4005 N 362.134 1.5431 0.320358 0
M  V30 4006 C 363.044 1.86946 1.41734 0
M  V30 4007 C 364.06 0.761689 1.56443 0
M  V30 4008 O 365.236 1.05629 1.71477 0
M  V30 4009 C 362.301 2.09293 2.76401 0
M  V30 4010 C 361.362 3.33082 2.70841 0
M  V30 4011 C 360.595 3.54353 3.99086 0
M  V30 4012 O 360.818 2.79002 4.97508 0
M  V30 4013 O 359.752 4.47838 4.0215 0
M  V30 4014 H 363.578 2.80232 1.17062 0
M  V30 4015 H 361.163 1.40255 0.514673 0
M  V30 4016 H 363.045 2.25303 3.56113 0
M  V30 4017 H 361.72 1.19194 3.00956 0
M  V30 4018 H 360.627 3.22454 1.89668 0
M  V30 4019 H 361.96 4.23249 2.5124 0
M  V30 4020 N 363.613 -0.582584 1.46437 0
M  V30 4021 C 364.859 -1.34278 1.51978 0
M  V30 4022 C 365.192 -1.93446 0.170973 0
M  V30 4023 O 364.467 -1.76481 -0.817608 0
M  V30 4024 C 364.75 -2.47203 2.61845 0
M  V30 4025 C 364.603 -1.93069 4.06257 0
M  V30 4026 C 365.922 -3.49247 2.67795 0
M  V30 4027 H 363.041 -0.486876 0.553282 0
M  V30 4028 H 365.683 -0.654437 1.78374 0
M  V30 4029 H 363.833 -3.0592 2.39469 0
M  V30 4030 H 365.505 -1.38808 4.3992 0
M  V30 4031 H 363.748 -1.23898 4.1573 0
M  V30 4032 H 364.419 -2.74586 4.7886 0
M  V30 4033 H 366.895 -3.00411 2.8791 0
M  V30 4034 H 365.771 -4.25719 3.46489 0
M  V30 4035 H 366.032 -4.06482 1.73852 0
M  V30 4036 N 365.091 -1.34144 -0.827227 0
M  V30 4037 C 366.021 -1.28005 -1.95287 0
M  V30 4038 C 367.002 -0.158321 -1.69362 0
M  V30 4039 O 368.187 -0.349987 -1.9102 0
M  V30 4040 C 365.317 -1.03036 -3.31664 0
M  V30 4041 C 364.271 -2.11628 -3.72019 0
M  V30 4042 C 363.597 -1.71854 -5.0633 0
M  V30 4043 C 364.897 -3.53417 -3.8457 0
M  V30 4044 H 366.591 -2.22187 -2.00682 0
M  V30 4045 H 364.137 -1.0696 -0.964135 0
M  V30 4046 H 366.09 -0.973863 -4.09993 0
M  V30 4047 H 364.814 -0.0529391 -3.26557 0
M  V30 4048 H 363.473 -2.16339 -2.95961 0
M  V30 4049 H 363.121 -0.727841 -4.97706 0
M  V30 4050 H 362.821 -2.44531 -5.34302 0
M  V30 4051 H 364.345 -1.67692 -5.87122 0
M  V30 4052 H 365.759 -3.51142 -4.5318 0
M  V30 4053 H 364.156 -4.24679 -4.2399 0
M  V30 4054 H 365.226 -3.91072 -2.86689 0
M  V30 4055 N 366.569 1.04691 -1.17803 0
M  V30 4056 C 367.809 1.79352 -0.980423 0
M  V30 4057 C 368.173 1.85853 0.481958 0
M  V30 4058 O 369.374 2.56656 0.798809 0
M  V30 4059 C 367.645 3.19088 -1.6099 0
M  V30 4060 S 369.204 4.10164 -1.55918 0
M  V30 4061 H 366.022 0.617631 -0.352211 0
M  V30 4062 H 368.624 1.25575 -1.49837 0
M  V30 4063 H 367.328 3.11962 -2.66661 0
M  V30 4064 H 366.859 3.77941 -1.09197 0
M  V30 4065 H 368.874 4.92907 -0.570685 0
M  V30 4066 N 368.047 0.979072 1.23499 0
M  V30 4067 C 368.994 0.517904 2.24914 0
M  V30 4068 C 369.964 -0.442525 1.60097 0
M  V30 4069 O 371.149 -0.350365 1.87556 0
M  V30 4070 C 368.289 -0.174813 3.44657 0
M  V30 4071 C 367.402 0.825721 4.24035 0
M  V30 4072 C 366.537 0.107946 5.3109 0
M  V30 4073 C 365.576 1.09778 6.02175 0
M  V30 4074 N 364.713 0.40925 7.00906 0
M  V30 4075 H 369.553 1.38751 2.63727 0
M  V30 4076 H 367.09 0.695303 1.2963 0
M  V30 4077 H 369.048 -0.593233 4.12961 0
M  V30 4078 H 367.678 -1.0083 3.06648 0
M  V30 4079 H 366.73 1.36253 3.55161 0
M  V30 4080 H 368.042 1.58005 4.73113 0
M  V30 4081 H 367.196 -0.367904 6.05583 0
M  V30 4082 H 365.935 -0.678994 4.8295 0
M  V30 4083 H 364.94 1.5844 5.26476 0
M  V30 4084 H 366.165 1.88536 6.52404 0
M  V30 4085 H 364.111 -0.358506 6.5502 0
M  V30 4086 H 364.028 1.10226 7.47921 0
M  V30 4087 H 365.296 -0.0442557 7.79487 0
M  V30 4088 N 369.525 -1.3858 0.750561 0
M  V30 4089 C 370.773 -1.99789 0.30477 0
M  V30 4090 C 371.094 -1.59874 -1.11649 0
M  V30 4091 O 370.364 -0.85417 -1.76297 0
M  V30 4092 H 368.944 -0.738902 0.109694 0
M  V30 4093 H 371.606 -1.69391 0.963983 0
M  V30 4094 H 370.702 -3.09952 0.365499 0
M  V30 4095 N 371.003 -0.499398 -1.49478 0
M  V30 4096 C 372.25 0.0456899 -2.02448 0
M  V30 4097 C 372.578 1.37142 -1.37921 0
M  V30 4098 O 371.833 1.89111 -0.503544 0
M  V30 4099 C 372.132 0.248424 -3.56536 0
M  V30 4100 C 371.798 -0.999107 -4.39692 0
M  V30 4101 C 370.46 -1.34108 -4.62135 0
M  V30 4102 C 372.812 -1.82842 -4.88076 0
M  V30 4103 C 370.14 -2.51191 -5.30208 0
M  V30 4104 C 372.492 -2.99076 -5.57437 0
M  V30 4105 C 371.156 -3.33655 -5.78127 0
M  V30 4106 H 370.426 0.0167191 -0.740811 0
M  V30 4107 H 373.073 -0.65923 -1.79795 0
M  V30 4108 H 371.378 1.03586 -3.77859 0
M  V30 4109 H 373.075 0.684605 -3.95113 0
M  V30 4110 H 369.665 -0.722729 -4.22463 0
M  V30 4111 H 373.849 -1.57737 -4.70566 0
M  V30 4112 H 369.105 -2.78221 -5.44429 0
M  V30 4113 H 373.279 -3.63664 -5.93904 0
M  V30 4114 H 370.906 -4.24483 -6.30649 0
M  V30 4115 N 372.481 1.55866 -0.233164 0
M  V30 4116 C 373.892 1.847 0.272554 0
M  V30 4117 C 374.243 1.15477 1.58617 0
M  V30 4118 O 373.368 0.42841 2.12117 0
M  V30 4119 C 373.963 3.35071 0.501299 0
M  V30 4120 C 372.522 3.6418 0.951304 0
M  V30 4121 C 371.669 2.77292 0.0208209 0
M  V30 4122 H 374.62 1.52005 -0.456074 0
M  V30 4123 H 374.641 3.55906 1.34577 0
M  V30 4124 H 374.153 3.85424 -0.454936 0
M  V30 4125 H 372.254 3.19293 1.92049 0
M  V30 4126 H 372.367 4.72071 0.817675 0
M  V30 4127 H 370.731 2.49131 0.529723 0
M  V30 4128 H 371.514 3.30448 -0.93054 0
M  V30 4129 N 373.959 -0.0401083 1.57549 0
M  V30 4130 C 374.922 -1.02871 2.04817 0
M  V30 4131 C 375.922 -1.29708 0.950388 0
M  V30 4132 O 377.112 -1.24897 1.21435 0
M  V30 4133 C 374.244 -2.36443 2.45576 0
M  V30 4134 H 375.437 -0.620631 2.93408 0
M  V30 4135 H 372.99 -0.286667 1.53649 0
M  V30 4136 H 373.725 -2.82021 1.60108 0
M  V30 4137 H 373.51 -2.18296 3.25713 0
M  V30 4138 H 375 -3.07441 2.82612 0
M  V30 4139 N 375.437 -1.54477 -0.31217 0
M  V30 4140 C 376.347 -1.87695 -1.4074 0
M  V30 4141 C 377.363 -0.769975 -1.56036 0
M  V30 4142 O 378.539 -1.06537 -1.70915 0
M  V30 4143 C 375.604 -2.10755 -2.75287 0
M  V30 4144 C 374.665 -3.34514 -2.69071 0
M  V30 4145 C 373.898 -3.56465 -3.97201 0
M  V30 4146 O 374.121 -2.81637 -4.96021 0
M  V30 4147 O 373.055 -4.49964 -3.9977 0
M  V30 4148 H 376.881 -2.80849 -1.15574 0
M  V30 4149 H 374.466 -1.40526 -0.507228 0
M  V30 4150 H 376.348 -2.27188 -3.54913 0
M  V30 4151 H 375.023 -1.20788 -3.0032 0
M  V30 4152 H 373.93 -3.23456 -1.87955 0
M  V30 4153 H 375.263 -4.24575 -2.48992 0
M  V30 4154 N 376.915 0.57481 -1.46744 0
M  V30 4155 C 378.162 1.33272 -1.52462 0
M  V30 4156 C 378.49 1.93669 -0.179572 0
M  V30 4157 O 377.745 1.7743 0.825664 0
M  V30 4158 C 378.044 2.476 -2.57738 0
M  V30 4159 C 377.71 2.05146 -4.01529 0
M  V30 4160 C 376.372 1.93284 -4.40676 0
M  V30 4161 C 378.724 1.72506 -4.91824 0
M  V30 4162 C 376.052 1.47049 -5.67973 0
M  V30 4163 C 378.404 1.27748 -6.19567 0
M  V30 4164 C 377.068 1.14468 -6.57612 0
M  V30 4165 H 376.338 0.487678 -0.557899 0
M  V30 4166 H 378.985 0.646456 -1.80259 0
M  V30 4167 H 377.29 3.21708 -2.23632 0
M  V30 4168 H 378.987 3.05807 -2.5939 0
M  V30 4169 H 375.577 2.15316 -3.7059 0
M  V30 4170 H 379.761 1.80552 -4.62293 0
M  V30 4171 H 375.017 1.35417 -5.96215 0
M  V30 4172 H 379.191 1.01547 -6.88957 0
M  V30 4173 H 376.818 0.78419 -7.56145 0
M  V30 4174 N 378.394 1.34581 0.820102 0
M  V30 4175 C 379.357 1.2628 1.91275 0
M  V30 4176 C 380.357 0.177344 1.59819 0
M  V30 4177 O 381.547 0.430156 1.68806 0
M  V30 4178 C 378.679 0.950327 3.27386 0
M  V30 4179 H 379.872 2.23421 2.00057 0
M  V30 4180 H 377.425 1.1891 1.0144 0
M  V30 4181 H 378.16 -0.0177938 3.24295 0
M  V30 4182 H 377.945 1.73549 3.51601 0
M  V30 4183 H 379.435 0.917492 4.07396 0
M  V30 4184 N 379.872 -1.04064 1.18357 0
M  V30 4185 C 380.805 -2.11618 0.854 0
M  V30 4186 C 381.783 -1.61555 -0.184043 0
M  V30 4187 O 382.967 -1.88395 -0.0630048 0
M  V30 4188 C 380.094 -3.37574 0.27597 0
M  V30 4189 C 379.14 -4.06485 1.2912 0
M  V30 4190 S 379.973 -4.53543 2.84709 0
M  V30 4191 C 381.129 -5.82732 2.28417 0
M  V30 4192 H 381.362 -2.39247 1.76488 0
M  V30 4193 H 378.895 -1.16832 1.00944 0
M  V30 4194 H 380.853 -4.10468 -0.051026 0
M  V30 4195 H 379.514 -3.0806 -0.613028 0
M  V30 4196 H 378.707 -4.97024 0.835633 0
M  V30 4197 H 378.309 -3.39708 1.56443 0
M  V30 4198 H 380.601 -6.56677 1.66677 0
M  V30 4199 H 381.544 -6.33052 3.17256 0
M  V30 4200 H 381.952 -5.37838 1.71436 0
M  V30 4201 N 381.35 -0.985608 -1.22978 0
M  V30 4202 C 382.58 -0.674603 -1.95276 0
M  V30 4203 C 382.988 0.763483 -1.73111 0
M  V30 4204 O 382.331 1.52601 -1.02268 0
M  V30 4205 C 382.393 -0.891597 -3.48268 0
M  V30 4206 C 382.057 -2.31275 -3.94158 0
M  V30 4207 C 383.054 -3.29179 -4.02415 0
M  V30 4208 C 380.739 -2.64524 -4.27004 0
M  V30 4209 C 382.733 -4.58407 -4.42879 0
M  V30 4210 C 380.42 -3.93974 -4.67149 0
M  V30 4211 C 381.418 -4.90727 -4.75053 0
M  V30 4212 O 381.106 -6.17865 -5.14294 0
M  V30 4213 H 380.838 -0.249251 -0.628371 0
M  V30 4214 H 383.392 -1.32106 -1.5728 0
M  V30 4215 H 381.622 -0.187962 -3.86243 0
M  V30 4216 H 383.311 -0.576957 -4.01779 0
M  V30 4217 H 384.077 -3.04823 -3.77237 0
M  V30 4218 H 379.956 -1.89923 -4.2006 0
M  V30 4219 H 383.5 -5.33926 -4.48964 0
M  V30 4220 H 379.397 -4.18122 -4.91777 0
M  V30 4221 H 380.165 -6.21694 -5.32389 0
M  V30 4222 N 382.828 1.3818 -0.7579 0
M  V30 4223 C 383.758 2.33027 -0.148597 0
M  V30 4224 C 384.739 1.55085 0.69875 0
M  V30 4225 O 385.924 1.83384 0.639053 0
M  V30 4226 C 383.054 3.3928 0.742034 0
M  V30 4227 C 382.008 4.28 -0.00291946 0
M  V30 4228 C 381.334 5.25146 1.00625 0
M  V30 4229 C 382.634 5.08938 -1.17385 0
M  V30 4230 H 384.328 2.84231 -0.940909 0
M  V30 4231 H 381.874 1.36659 -0.453908 0
M  V30 4232 H 383.827 4.046 1.17799 0
M  V30 4233 H 382.551 2.86569 1.56671 0
M  V30 4234 H 381.21 3.64192 -0.419504 0
M  V30 4235 H 380.858 4.68721 1.8251 0
M  V30 4236 H 380.558 5.85361 0.512428 0
M  V30 4237 H 382.082 5.93342 1.44143 0
M  V30 4238 H 383.496 5.67474 -0.815224 0
M  V30 4239 H 381.893 5.7841 -1.59882 0
M  V30 4240 H 382.963 4.42424 -1.98468 0
M  V30 4241 N 384.306 0.507319 1.49211 0
M  V30 4242 C 385.254 -0.281364 2.30892 0
M  V30 4243 C 386.248 -0.95687 1.39787 0
M  V30 4244 O 387.454 -0.883838 1.56807 0
M  V30 4245 H 383.829 -0.109597 0.743971 0
M  V30 4246 H 385.8 0.42744 2.95323 0
M  V30 4247 C 384.549 -1.32918 3.21291 0
M  V30 4248 H 383.872 -0.818799 3.91326 0
M  V30 4249 H 385.312 -1.85288 3.81372 0
M  V30 4250 C 383.771 -2.35074 2.41333 0
M  V30 4251 O 384.301 -3.4108 2.12197 0
M  V30 4252 N 382.507 -2.07705 2.03241 0
M  V30 4253 H 382.054 -1.2152 2.27136 0
M  V30 4254 H 382.012 -2.76283 1.50051 0
M  V30 4255 N 385.784 -1.5574 0.241426 0
M  V30 4256 C 387.014 -2.02913 -0.38857 0
M  V30 4257 C 387.422 -1.12014 -1.52478 0
M  V30 4258 O 386.765 -0.125903 -1.83268 0
M  V30 4259 C 386.827 -3.4636 -0.963075 0
M  V30 4260 C 386.491 -4.56982 0.0401916 0
M  V30 4261 C 387.488 -5.12941 0.847766 0
M  V30 4262 C 385.173 -5.0203 0.164699 0
M  V30 4263 C 387.167 -6.12437 1.76636 0
M  V30 4264 C 384.854 -6.01358 1.0868 0
M  V30 4265 C 385.852 -6.5644 1.88616 0
M  V30 4266 O 385.54 -7.53831 2.79273 0
M  V30 4267 H 385.272 -0.668983 -0.0971452 0
M  V30 4268 H 387.826 -2.02198 0.361248 0
M  V30 4269 H 386.056 -3.44206 -1.76235 0
M  V30 4270 H 387.745 -3.77065 -1.50257 0
M  V30 4271 H 388.511 -4.78974 0.762133 0
M  V30 4272 H 384.39 -4.58824 -0.447411 0
M  V30 4273 H 387.934 -6.55355 2.39071 0
M  V30 4274 H 383.831 -6.34746 1.17338 0
M  V30 4275 H 384.599 -7.71428 2.73572 0
M  V30 4276 N 387.262 0.0317525 -1.57568 0
M  V30 4277 C 388.502 0.727979 -1.90997 0
M  V30 4278 C 388.866 1.72664 -0.839708 0
M  V30 4279 O 390.067 2.47092 -1.05825 0
M  V30 4280 C 388.338 1.38239 -3.29583 0
M  V30 4281 S 389.897 2.10814 -3.84841 0
M  V30 4282 H 386.715 0.241226 -0.668828 0
M  V30 4283 H 389.317 -0.0173037 -1.95492 0
M  V30 4284 H 388.021 0.642288 -4.05343 0
M  V30 4285 H 387.552 2.16628 -3.28384 0
M  V30 4286 H 389.567 3.3792 -3.63352 0
M  V30 4287 N 388.74 1.54641 0.303973 0
M  V30 4288 C 390.156 1.45788 0.649463 0
M  V30 4289 C 390.356 0.64666 1.90842 0
M  V30 4290 O 389.412 0.153183 2.52035 0
M  V30 4291 C 390.725 2.89718 0.805227 0
M  V30 4292 C 392.273 2.99742 0.901305 0
M  V30 4293 C 392.748 4.44863 1.08909 0
M  V30 4294 N 394.239 4.48559 1.15536 0
M  V30 4295 C 394.974 5.58026 1.3189 0
M  V30 4296 N 394.47 6.77422 1.45161 0
M  V30 4297 N 396.263 5.45708 1.34755 0
M  V30 4298 H 388.414 2.05854 -0.523237 0
M  V30 4299 H 390.677 0.932186 -0.172431 0
M  V30 4300 H 390.383 3.51666 -0.0489108 0
M  V30 4301 H 390.257 3.36964 1.69513 0
M  V30 4302 H 392.644 2.3791 1.74593 0
M  V30 4303 H 392.725 2.55797 -0.0125531 0
M  V30 4304 H 392.369 5.07288 0.249241 0
M  V30 4305 H 392.299 4.86436 2.01713 0
M  V30 4306 H 394.79 3.6254 1.06646 0
M  V30 4307 H 395.103 7.56604 1.57387 0
M  V30 4308 H 393.448 6.80292 1.42223 0
M  V30 4309 H 396.639 4.51378 1.23996 0
M  V30 4310 H 396.812 6.3107 1.47157 0
M  V30 4311 N 390.218 -0.567019 1.47046 0
M  V30 4312 C 391.466 -1.322 1.52864 0
M  V30 4313 C 391.787 -1.94088 0.188388 0
M  V30 4314 O 391.057 -1.7941 -0.786693 0
M  V30 4315 H 389.637 -0.490894 0.563056 0
M  V30 4316 H 392.299 -0.662879 1.83281 0
M  V30 4317 H 391.395 -2.12062 2.2899 0
M  V30 4318 N 391.696 -1.35014 -0.812953 0
M  V30 4319 C 392.626 -1.30069 -1.93919 0
M  V30 4320 C 393.607 -0.176275 -1.69184 0
M  V30 4321 O 394.792 -0.370227 -1.90638 0
M  V30 4322 C 391.922 -1.06547 -3.30552 0
M  V30 4323 C 390.876 -2.15561 -3.69753 0
M  V30 4324 C 390.202 -1.77214 -5.04479 0
M  V30 4325 C 391.502 -3.57476 -3.808 0
M  V30 4326 H 393.196 -2.24303 -1.98314 0
M  V30 4327 H 390.742 -1.07977 -0.952736 0
M  V30 4328 H 392.695 -1.01729 -4.08937 0
M  V30 4329 H 391.419 -0.0875719 -3.26483 0
M  V30 4330 H 390.078 -2.19466 -2.9365 0
M  V30 4331 H 389.726 -0.780589 -4.96906 0
M  V30 4332 H 389.426 -2.50184 -5.31678 0
M  V30 4333 H 390.95 -1.7391 -5.8531 0
M  V30 4334 H 392.364 -3.55929 -4.4943 0
M  V30 4335 H 390.761 -4.29152 -4.19462 0
M  V30 4336 H 391.831 -3.94091 -2.82525 0
M  V30 4337 N 393.175 1.03435 -1.18907 0
M  V30 4338 C 394.591 1.28973 -0.940111 0
M  V30 4339 C 394.791 1.97676 0.390691 0
M  V30 4340 O 393.847 2.26127 1.12352 0
M  V30 4341 C 395.16 2.14221 -2.11021 0
M  V30 4342 C 396.708 2.27547 -2.14922 0
M  V30 4343 C 397.183 3.16164 -3.31367 0
M  V30 4344 N 398.674 3.23752 -3.31269 0
M  V30 4345 C 399.409 3.92495 -4.18014 0
M  V30 4346 N 398.905 4.63515 -5.14904 0
M  V30 4347 N 400.698 3.88838 -4.05908 0
M  V30 4348 H 392.849 0.57252 -2.04538 0
M  V30 4349 H 395.112 0.315184 -0.894071 0
M  V30 4350 H 394.818 1.71054 -3.073 0
M  V30 4351 H 394.692 3.14919 -2.0762 0
M  V30 4352 H 397.079 2.69947 -1.19217 0
M  V30 4353 H 397.16 1.26418 -2.22378 0
M  V30 4354 H 396.804 2.74474 -4.27348 0
M  V30 4355 H 396.734 4.17339 -3.21148 0
M  V30 4356 H 399.225 2.73167 -2.61129 0
M  V30 4357 H 399.538 5.13583 -5.77453 0
M  V30 4358 H 397.883 4.62398 -5.18857 0
M  V30 4359 H 401.074 3.32491 -3.29495 0
M  V30 4360 H 401.247 4.4214 -4.73726 0
M  V30 4361 N 394.653 0.992116 1.22453 0
M  V30 4362 C 395.9 0.667534 1.91181 0
M  V30 4363 C 396.228 -0.800317 1.77271 0
M  V30 4364 O 395.483 -1.59421 1.13505 0
M  V30 4365 C 395.782 1.01832 3.42586 0
M  V30 4366 C 395.448 2.47831 3.76684 0
M  V30 4367 C 394.11 2.87729 3.85701 0
M  V30 4368 C 396.462 3.42466 3.92895 0
M  V30 4369 C 393.79 4.21252 4.08367 0
M  V30 4370 C 396.142 4.75648 4.17064 0
M  V30 4371 C 394.806 5.15288 4.24305 0
M  V30 4372 H 394.076 0.244268 0.699581 0
M  V30 4373 H 396.723 1.24816 1.45235 0
M  V30 4374 H 395.028 0.355769 3.90181 0
M  V30 4375 H 396.725 0.745228 3.94014 0
M  V30 4376 H 393.315 2.15905 3.70247 0
M  V30 4377 H 397.499 3.12814 3.85307 0
M  V30 4378 H 392.755 4.51554 4.122 0
M  V30 4379 H 396.929 5.48924 4.2855 0
M  V30 4380 H 394.556 6.18769 4.41621 0
M  V30 4381 N 396.131 -1.37776 0.765217 0
M  V30 4382 C 397.041 -2.34135 0.147666 0
M  V30 4383 C 398.057 -1.59854 -0.687215 0
M  V30 4384 O 399.233 -1.91983 -0.608659 0
M  V30 4385 C 396.298 -3.3901 -0.72617 0
M  V30 4386 C 395.359 -4.2912 0.124417 0
M  V30 4387 C 394.592 -5.28986 -0.707807 0
M  V30 4388 O 394.815 -5.36205 -1.94525 0
M  V30 4389 O 393.749 -6.01779 -0.12046 0
M  V30 4390 H 397.575 -2.88664 0.943758 0
M  V30 4391 H 395.16 -1.39824 0.526277 0
M  V30 4392 H 397.042 -4.03195 -1.22524 0
M  V30 4393 H 395.717 -2.86819 -1.50056 0
M  V30 4394 H 394.624 -3.68057 0.669696 0
M  V30 4395 H 395.957 -4.84598 0.861736 0
M  V30 4396 N 397.609 -0.515225 -1.4894 0
M  V30 4397 C 398.519 0.259774 -2.33157 0
M  V30 4398 C 399.535 0.953501 -1.45548 0
M  V30 4399 O 400.711 0.931735 -1.78552 0
M  V30 4400 C 397.776 1.30193 -3.21326 0
M  V30 4401 C 396.837 0.620129 -4.24797 0
M  V30 4402 C 396.07 1.61263 -5.08753 0
M  V30 4403 O 396.293 2.84389 -4.94448 0
M  V30 4404 O 395.227 1.16013 -5.90614 0
M  V30 4405 H 399.053 -0.429932 -3.00641 0
M  V30 4406 H 396.638 -0.276346 -1.46822 0
M  V30 4407 H 398.52 1.90455 -3.75905 0
M  V30 4408 H 397.195 1.97431 -2.56521 0
M  V30 4409 H 396.102 -0.0226019 -3.74093 0
M  V30 4410 H 397.435 -0.0100493 -4.92199 0
M  V30 4411 N 399.087 1.5561 -0.249682 0
M  V30 4412 C 400.05 2.20217 0.635394 0
M  V30 4413 C 401.05 1.17227 1.10066 0
M  V30 4414 O 402.24 1.42292 1.00492 0
M  V30 4415 C 399.372 2.84794 1.87363 0
M  V30 4416 H 400.565 2.99814 0.0716752 0
M  V30 4417 H 398.118 1.563 -0.000153234 0
M  V30 4418 H 398.853 2.09142 2.47851 0
M  V30 4419 H 398.638 3.60241 1.5482 0
M  V30 4420 H 400.128 3.3423 2.5036 0
M  V30 4421 N 400.565 -0.0233959 1.57583 0
M  V30 4422 C 401.976 -0.56927 1.77809 0
M  V30 4423 C 402.327 -1.75284 0.881472 0
M  V30 4424 O 401.452 -2.1626 0.0777805 0
M  V30 4425 C 402.047 -1.03949 3.22459 0
M  V30 4426 C 400.606 -1.53084 3.43864 0
M  V30 4427 C 399.753 -0.471454 2.73263 0
M  V30 4428 H 402.704 0.202825 1.57399 0
M  V30 4429 H 402.725 -1.90661 3.29285 0
M  V30 4430 H 402.237 -0.177865 3.87692 0
M  V30 4431 H 400.338 -2.41414 2.83814 0
M  V30 4432 H 400.451 -1.57443 4.52491 0
M  V30 4433 H 398.815 -0.927788 2.37201 0
M  V30 4434 H 399.598 0.380808 3.41181 0
M  V30 4435 N 402.043 -1.548 -0.295768 0
M  V30 4436 C 403.32 -1.65014 -1.05023 0
M  V30 4437 C 403.7 -0.501805 -2.05049 0
M  V30 4438 O 403.048 0.500869 -2.22943 0
M  V30 4439 C 403.258 -3.03252 -1.72741 0
M  V30 4440 C 404.606 -3.60242 -2.24746 0
M  V30 4441 O 405.63 -3.05737 -1.82765 0
M  V30 4442 O 404.489 -4.55687 -3.01681 0
M  V30 4443 H 401.583 -0.669314 -0.485744 0
M  V30 4444 H 404.129 -1.67144 -0.293438 0
M  V30 4445 H 402.901 -3.7827 -1.00138 0
M  V30 4446 H 402.524 -3.04922 -2.55163 0
M  V30 4447 N 403.521 0.559213 -1.47345 0
M  V30 4448 C 404.751 1.33999 -1.57251 0
M  V30 4449 C 405.159 1.87905 -0.220978 0
M  V30 4450 O 404.502 1.65577 0.795617 0
M  V30 4451 C 404.564 2.54798 -2.53611 0
M  V30 4452 C 404.228 2.22192 -3.99349 0
M  V30 4453 C 405.225 1.79607 -4.87891 0
M  V30 4454 C 402.91 2.33613 -4.44669 0
M  V30 4455 C 404.904 1.48868 -6.19772 0
M  V30 4456 C 402.591 2.02487 -5.76578 0
M  V30 4457 C 403.589 1.60183 -6.63951 0
M  V30 4458 O 403.277 1.29451 -7.93409 0
M  V30 4459 H 403.009 0.414858 -0.533731 0
M  V30 4460 H 405.563 0.684465 -1.9366 0
M  V30 4461 H 403.793 3.23235 -2.12265 0
M  V30 4462 H 405.482 3.16873 -2.53666 0
M  V30 4463 H 406.248 1.70278 -4.54126 0
M  V30 4464 H 402.127 2.65501 -3.76869 0
M  V30 4465 H 405.671 1.15775 -6.87926 0
M  V30 4466 H 401.568 2.11448 -6.09885 0
M  V30 4467 H 402.336 1.43098 -8.05894 0
M  V30 4468 N 404.999 1.35443 0.805782 0
M  V30 4469 C 405.932 1.22783 1.92353 0
M  V30 4470 C 406.91 0.115543 1.62189 0
M  V30 4471 O 408.094 0.283778 1.86352 0
M  V30 4472 C 405.221 0.890746 3.26777 0
M  V30 4473 C 404.267 2.01519 3.75889 0
M  V30 4474 S 405.1 3.63101 3.93596 0
M  V30 4475 C 406.256 3.31472 5.30921 0
M  V30 4476 H 406.489 2.17394 2.02798 0
M  V30 4477 H 404.022 1.20669 0.963245 0
M  V30 4478 H 405.98 0.703068 4.04434 0
M  V30 4479 H 404.641 -0.0373152 3.14078 0
M  V30 4480 H 403.834 1.7335 4.7325 0
M  V30 4481 H 403.436 2.16124 3.05231 0
M  V30 4482 H 405.728 2.8435 6.1494 0
M  V30 4483 H 406.671 4.28036 5.64084 0
M  V30 4484 H 407.079 2.67221 4.97246 0
M  V30 4485 N 406.477 -1.02803 1.19454 0
M  V30 4486 C 407.707 -1.79581 1.02149 0
M  V30 4487 C 408.115 -1.84182 -0.432851 0
M  V30 4488 O 407.458 -1.28534 -1.31243 0
M  V30 4489 C 407.52 -3.25993 1.51554 0
M  V30 4490 C 407.184 -3.45025 2.99678 0
M  V30 4491 C 408.181 -3.35175 3.97434 0
M  V30 4492 C 405.866 -3.71212 3.38389 0
M  V30 4493 C 407.86 -3.51238 5.31893 0
M  V30 4494 C 405.547 -3.8692 4.73008 0
M  V30 4495 C 406.545 -3.76936 5.69569 0
M  V30 4496 O 406.233 -3.92179 7.01748 0
M  V30 4497 H 405.965 -0.571962 0.360327 0
M  V30 4498 H 408.519 -1.30367 1.58725 0
M  V30 4499 H 406.749 -3.76235 0.893543 0
M  V30 4500 H 408.438 -3.84368 1.30444 0
M  V30 4501 H 409.204 -3.14895 3.68872 0
M  V30 4502 H 405.083 -3.78075 2.6378 0
M  V30 4503 H 408.627 -3.43362 6.07247 0
M  V30 4504 H 404.524 -4.06699 5.01265 0
M  V30 4505 H 405.292 -4.09265 7.08833 0
M  V30 4506 N 407.956 -0.998596 -1.21925 0
M  V30 4507 C 408.886 -0.573688 -2.26343 0
M  V30 4508 C 409.867 0.402296 -1.65274 0
M  V30 4509 O 411.052 0.291683 -1.91997 0
M  V30 4510 C 408.182 0.106839 -3.47136 0
M  V30 4511 C 407.136 -0.788269 -4.20678 0
M  V30 4512 C 406.462 0.0254927 -5.34694 0
M  V30 4513 C 407.762 -2.08784 -4.78755 0
M  V30 4514 H 409.456 -1.44651 -2.62138 0
M  V30 4515 H 407.002 -0.696975 -1.26009 0
M  V30 4516 H 408.955 0.415531 -4.19346 0
M  V30 4517 H 407.679 1.01424 -3.10452 0
M  V30 4518 H 406.338 -1.08069 -3.50309 0
M  V30 4519 H 405.986 0.933989 -4.94253 0
M  V30 4520 H 405.686 -0.570437 -5.84825 0
M  V30 4521 H 407.21 0.328147 -6.09718 0
M  V30 4522 H 408.624 -1.84272 -5.42878 0
M  V30 4523 H 407.021 -2.63307 -5.39249 0
M  V30 4524 H 408.091 -2.76284 -3.98491 0
M  V30 4525 N 409.434 1.37368 -0.772513 0
M  V30 4526 C 410.85 1.53059 -0.452231 0
M  V30 4527 C 411.05 1.73065 1.03203 0
M  V30 4528 O 410.106 1.75245 1.81784 0
M  V30 4529 C 411.419 2.72659 -1.26797 0
M  V30 4530 C 412.967 2.86521 -1.25995 0
M  V30 4531 C 413.442 4.09105 -2.05905 0
M  V30 4532 N 414.933 4.16219 -2.03263 0
M  V30 4533 C 415.668 5.10107 -2.61875 0
M  V30 4534 N 415.164 6.09547 -3.29278 0
M  V30 4535 N 416.957 5.02596 -2.51701 0
M  V30 4536 H 409.108 1.22634 -1.7342 0
M  V30 4537 H 411.371 0.597206 -0.736239 0
M  V30 4538 H 411.077 2.64343 -2.31982 0
M  V30 4539 H 410.951 3.66363 -0.897672 0
M  V30 4540 H 413.338 2.94308 -0.216081 0
M  V30 4541 H 413.419 1.93774 -1.66989 0
M  V30 4542 H 413.063 4.0208 -3.10313 0
M  V30 4543 H 412.993 5.00968 -1.62292 0
M  V30 4544 H 415.484 3.45012 -1.54192 0
M  V30 4545 H 415.797 6.77718 -3.71374 0
M  V30 4546 H 414.142 6.09824 -3.33377 0
M  V30 4547 H 417.333 4.23855 -1.98657 0
M  V30 4548 H 417.506 5.75582 -2.97673 0
M  V30 4549 N 410.912 0.523116 1.48665 0
M  V30 4550 C 411.844 -0.280421 2.27478 0
M  V30 4551 C 412.857 -0.910694 1.34945 0
M  V30 4552 O 414.046 -0.790295 1.60052 0
M  V30 4553 C 411.146 -1.41171 3.08097 0
M  V30 4554 C 410.319 -0.884642 4.28361 0
M  V30 4555 C 409.378 -1.89622 4.90846 0
M  V30 4556 O 408.404 -1.4559 5.50265 0
M  V30 4557 N 409.606 -3.22801 4.82472 0
M  V30 4558 H 412.371 0.395481 2.97079 0
M  V30 4559 H 409.932 0.357018 1.57915 0
M  V30 4560 H 411.924 -2.08645 3.4677 0
M  V30 4561 H 410.494 -1.99139 2.40961 0
M  V30 4562 H 409.714 -0.0341177 3.94185 0
M  V30 4563 H 411.002 -0.511268 5.06225 0
M  V30 4564 H 410.4 -3.61246 4.35336 0
M  V30 4565 H 408.957 -3.85927 5.25265 0
M  V30 4566 N 412.39 -1.55475 0.257931 0
M  V30 4567 C 413.32 -2.24815 -0.630912 0
M  V30 4568 C 414.301 -1.23224 -1.17259 0
M  V30 4569 O 415.486 -1.51904 -1.20991 0
M  V30 4570 C 412.616 -2.95609 -1.82298 0
M  V30 4571 C 411.57 -4.03982 -1.41359 0
M  V30 4572 C 410.896 -4.6226 -2.68738 0
M  V30 4573 C 412.196 -5.19109 -0.57648 0
M  V30 4574 H 413.89 -2.99354 -0.0526878 0
M  V30 4575 H 411.436 -1.4398 -0.023901 0
M  V30 4576 H 413.389 -3.42822 -2.45054 0
M  V30 4577 H 412.113 -2.18577 -2.42676 0
M  V30 4578 H 410.772 -3.57555 -0.809324 0
M  V30 4579 H 410.42 -3.81915 -3.27338 0
M  V30 4580 H 410.12 -5.35424 -2.42065 0
M  V30 4581 H 411.644 -5.12212 -3.32372 0
M  V30 4582 H 413.058 -5.62479 -1.10861 0
M  V30 4583 H 411.455 -5.98729 -0.405351 0
M  V30 4584 H 412.525 -4.83174 0.408776 0
M  V30 4585 N 413.868 0.0150385 -1.57593 0
M  V30 4586 C 415.115 0.703001 -1.89906 0
M  V30 4587 C 415.443 1.74604 -0.856944 0
M  V30 4588 O 414.698 1.95197 0.140287 0
M  V30 4589 C 414.997 1.39686 -3.28972 0
M  V30 4590 C 414.663 0.488457 -4.48246 0
M  V30 4591 C 413.325 0.2383 -4.8061 0
M  V30 4592 C 415.677 -0.137881 -5.21018 0
M  V30 4593 C 413.005 -0.646738 -5.83125 0
M  V30 4594 C 415.357 -1.0107 -6.24474 0
M  V30 4595 C 414.021 -1.27019 -6.55303 0
M  V30 4596 H 413.291 0.257246 -0.694914 0
M  V30 4597 H 415.938 -0.037259 -1.91464 0
M  V30 4598 H 414.243 2.21079 -3.23468 0
M  V30 4599 H 415.94 1.93495 -3.51227 0
M  V30 4600 H 412.53 0.693593 -4.22951 0
M  V30 4601 H 416.714 0.0423953 -4.96282 0
M  V30 4602 H 411.97 -0.855937 -6.05379 0
M  V30 4603 H 416.144 -1.50247 -6.79999 0
M  V30 4604 H 413.771 -1.95769 -7.3456 0
M  V30 4605 N 415.346 1.54954 0.287554 0
M  V30 4606 C 416.762 1.46469 0.633964 0
M  V30 4607 C 416.962 0.666865 1.90145 0
M  V30 4608 O 416.018 0.179906 2.51858 0
M  V30 4609 C 417.331 2.90556 0.774454 0
M  V30 4610 C 418.879 3.00681 0.869462 0
M  V30 4611 C 419.354 4.45993 1.04184 0
M  V30 4612 N 420.845 4.4976 1.10772 0
M  V30 4613 C 421.58 5.59393 1.25964 0
M  V30 4614 N 421.076 6.78923 1.37968 0
M  V30 4615 N 422.869 5.47107 1.28959 0
M  V30 4616 H 415.02 2.05288 -0.545041 0
M  V30 4617 H 417.283 0.930305 -0.182308 0
M  V30 4618 H 416.989 3.51594 -0.086207 0
M  V30 4619 H 416.863 3.38743 1.6593 0
M  V30 4620 H 419.25 2.39749 1.7206 0
M  V30 4621 H 419.331 2.55769 -0.0396831 0
M  V30 4622 H 418.975 5.07524 0.195422 0
M  V30 4623 H 418.905 4.88548 1.96542 0
M  V30 4624 H 421.396 3.63651 1.02794 0
M  V30 4625 H 421.709 7.58231 1.49353 0
M  V30 4626 H 420.054 6.81763 1.34999 0
M  V30 4627 H 423.245 4.52668 1.19202 0
M  V30 4628 H 423.418 6.32595 1.40455 0
M  V30 4629 N 416.824 -0.551391 1.4764 0
M  V30 4630 C 418.073 -1.30467 1.53822 0
M  V30 4631 C 418.386 -1.94495 0.207661 0
M  V30 4632 O 419.592 -2.71099 0.147533 0
M  V30 4633 C 418.048 -2.36616 2.71184 0
M  V30 4634 C 417.656 -1.78754 4.10793 0
M  V30 4635 C 419.4 -3.13088 2.86663 0
M  V30 4636 C 417.307 -2.82717 5.19447 0
M  V30 4637 H 416.237 -0.490584 0.572576 0
M  V30 4638 H 418.888 -0.58494 1.73927 0
M  V30 4639 H 417.27 -3.11529 2.4447 0
M  V30 4640 H 418.444 -1.10173 4.47435 0
M  V30 4641 H 416.759 -1.14846 4.00249 0
M  V30 4642 H 419.356 -3.90736 3.65007 0
M  V30 4643 H 419.699 -3.67635 1.95321 0
M  V30 4644 H 420.232 -2.45288 3.13175 0
M  V30 4645 H 416.971 -2.33018 6.12685 0
M  V30 4646 H 416.491 -3.4969 4.87316 0
M  V30 4647 H 418.17 -3.46102 5.46646 0
M  V30 4648 N 418.302 -1.35869 -0.798587 0
M  V30 4649 C 419.232 -1.32118 -1.92528 0
M  V30 4650 C 420.213 -0.194209 -1.68988 0
M  V30 4651 O 421.398 -0.390426 -1.90235 0
M  V30 4652 C 418.528 -1.10047 -3.29404 0
M  V30 4653 C 417.482 -2.19471 -3.67446 0
M  V30 4654 C 416.808 -1.82555 -5.02571 0
M  V30 4655 C 418.108 -3.61495 -3.76987 0
M  V30 4656 H 419.802 -2.26394 -1.95924 0
M  V30 4657 H 417.348 -1.08981 -0.94123 0
M  V30 4658 H 419.301 -1.06061 -4.07835 0
M  V30 4659 H 418.025 -0.122195 -3.26371 0
M  V30 4660 H 416.684 -2.22568 -2.91306 0
M  V30 4661 H 416.332 -0.833249 -4.9605 0
M  V30 4662 H 416.032 -2.5581 -5.28995 0
M  V30 4663 H 417.556 -1.80108 -5.83432 0
M  V30 4664 H 418.97 -3.60676 -4.4563 0
M  V30 4665 H 417.367 -4.33577 -4.14887 0
M  V30 4666 H 418.437 -3.97065 -2.78329 0
M  V30 4667 N 419.78 1.02168 -1.19998 0
M  V30 4668 C 421.027 1.75685 -1.00702 0
M  V30 4669 C 421.355 1.88947 0.461426 0
M  V30 4670 O 420.61 1.40832 1.35885 0
M  V30 4671 C 420.909 3.18081 -1.62969 0
M  V30 4672 C 420.575 3.24809 -3.12746 0
M  V30 4673 C 419.237 3.26352 -3.53621 0
M  V30 4674 C 421.589 3.23379 -4.08749 0
M  V30 4675 C 418.917 3.2413 -4.89036 0
M  V30 4676 C 421.269 3.22698 -5.44104 0
M  V30 4677 C 419.933 3.22542 -5.84399 0
M  V30 4678 H 419.203 0.642877 -0.368496 0
M  V30 4679 H 421.85 1.19865 -1.49348 0
M  V30 4680 H 420.155 3.77027 -1.06573 0
M  V30 4681 H 421.852 3.73648 -1.45561 0
M  V30 4682 H 418.442 3.2434 -2.80181 0
M  V30 4683 H 422.626 3.21361 -3.78207 0
M  V30 4684 H 417.882 3.22338 -5.19527 0
M  V30 4685 H 422.056 3.20543 -6.18244 0
M  V30 4686 H 419.683 3.20575 -6.89301 0
M  V30 4687 N 421.258 1.00505 1.21394 0
M  V30 4688 C 422.674 0.717873 1.42544 0
M  V30 4689 C 422.874 -0.706936 1.88692 0
M  V30 4690 O 421.93 -1.47627 2.04847 0
M  V30 4691 C 423.243 1.73377 2.45684 0
M  V30 4692 C 424.791 1.75059 2.59467 0
M  V30 4693 C 425.266 2.75545 3.6584 0
M  V30 4694 N 426.757 2.74213 3.73311 0
M  V30 4695 C 427.492 3.48626 4.55245 0
M  V30 4696 N 426.988 4.32678 5.41075 0
M  V30 4697 N 428.781 3.37276 4.49668 0
M  V30 4698 H 420.932 1.92506 0.897503 0
M  V30 4699 H 423.195 0.830919 0.456375 0
M  V30 4700 H 422.901 2.75395 2.18748 0
M  V30 4701 H 422.775 1.53647 3.44489 0
M  V30 4702 H 425.162 0.737337 2.8574 0
M  V30 4703 H 425.243 1.98861 1.60897 0
M  V30 4704 H 424.887 3.77028 3.40313 0
M  V30 4705 H 424.817 2.49009 4.64007 0
M  V30 4706 H 427.308 2.13234 3.11993 0
M  V30 4707 H 427.621 4.86253 6.00648 0
M  V30 4708 H 425.966 4.3676 5.40616 0
M  V30 4709 H 429.157 2.71043 3.81646 0
M  V30 4710 H 429.33 3.95524 5.13288 0
M  V30 4711 N 422.737 -1.36956 0.779787 0
M  V30 4712 C 423.965 -2.03755 0.359398 0
M  V30 4713 C 424.38 -1.58807 -1.02106 0
M  V30 4714 O 423.737 -0.773024 -1.6532 0
M  V30 4715 C 423.788 -3.59251 0.402568 0
M  V30 4716 O 423.509 -4.02557 1.72858 0
M  V30 4717 C 425.01 -4.43291 -0.0284068 0
M  V30 4718 H 422.23 -0.654148 0.149437 0
M  V30 4719 H 424.774 -1.75128 1.05595 0
M  V30 4720 H 422.929 -3.86621 -0.245478 0
M  V30 4721 H 423.343 -4.97111 1.67275 0
M  V30 4722 H 424.817 -5.51975 0.0529466 0
M  V30 4723 H 425.294 -4.25719 -1.07982 0
M  V30 4724 H 425.9 -4.21163 0.591758 0
M  V30 4725 N 424.215 -0.530993 -1.48385 0
M  V30 4726 C 425.145 0.219985 -2.32461 0
M  V30 4727 C 426.126 0.934111 -1.42156 0
M  V30 4728 O 427.311 0.919694 -1.71042 0
M  V30 4729 C 424.441 1.26674 -3.23375 0
M  V30 4730 C 423.395 0.67069 -4.22712 0
M  V30 4731 C 422.721 1.82017 -5.02766 0
M  V30 4732 C 424.021 -0.358268 -5.2107 0
M  V30 4733 H 425.715 -0.48187 -2.95497 0
M  V30 4734 H 423.261 -0.233182 -1.42099 0
M  V30 4735 H 425.214 1.80006 -3.81019 0
M  V30 4736 H 423.938 1.99818 -2.58341 0
M  V30 4737 H 422.597 0.158878 -3.66256 0
M  V30 4738 H 422.245 2.54002 -4.34157 0
M  V30 4739 H 421.945 1.42727 -5.70003 0
M  V30 4740 H 423.469 2.35725 -5.63264 0
M  V30 4741 H 424.883 0.0880081 -5.73232 0
M  V30 4742 H 423.28 -0.66861 -5.96364 0
M  V30 4743 H 424.35 -1.26367 -4.68145 0
M  V30 4744 N 425.693 1.55336 -0.266172 0
M  V30 4745 C 426.641 2.23587 0.641228 0
M  V30 4746 C 427.635 1.22986 1.16494 0
M  V30 4747 O 428.841 1.40943 1.1196 0
M  V30 4748 H 425.216 0.717452 0.225315 0
M  V30 4749 H 427.187 2.9837 0.0426561 0
M  V30 4750 C 425.936 2.96369 1.81826 0
M  V30 4751 H 425.259 3.73563 1.42445 0
M  V30 4752 H 426.699 3.47459 2.42998 0
M  V30 4753 C 425.158 2.0133 2.70125 0
M  V30 4754 O 425.688 1.55875 3.70224 0
M  V30 4755 N 423.894 1.6802 2.37102 0
M  V30 4756 H 423.441 2.05181 1.55751 0
M  V30 4757 H 423.399 1.047 2.96454 0
M  V30 4758 N 427.171 -0.0066808 1.57599 0
M  V30 4759 C 428.121 -1.0086 2.04478 0
M  V30 4760 C 429.105 -1.30714 0.938231 0
M  V30 4761 O 430.297 -1.29924 1.20203 0
M  V30 4762 C 427.426 -2.30273 2.54615 0
M  V30 4763 C 426.512 -2.03413 3.72134 0
M  V30 4764 N 426.903 -1.46688 4.84062 0
M  V30 4765 C 425.201 -2.33589 3.79937 0
M  V30 4766 C 425.902 -1.36146 5.65543 0
M  V30 4767 N 424.878 -1.84477 5.1134 0
M  V30 4768 H 428.68 -0.564402 2.8843 0
M  V30 4769 H 426.194 -0.212521 1.61003 0
M  V30 4770 H 428.191 -3.02885 2.86472 0
M  V30 4771 H 426.851 -2.75352 1.72079 0
M  V30 4772 H 427.862 -1.14658 5.05049 0
M  V30 4773 H 424.539 -2.81589 3.08243 0
M  V30 4774 H 425.929 -0.925873 6.6549 0
M  V30 4775 N 428.649 -1.55105 -0.279332 0
M  V30 4776 C 429.581 -1.83952 -1.36727 0
M  V30 4777 C 430.594 -0.723642 -1.45833 0
M  V30 4778 O 431.783 -1.00141 -1.47763 0
M  V30 4779 C 428.883 -1.98183 -2.74912 0
M  V30 4780 C 428.056 -3.28787 -2.88475 0
M  V30 4781 C 427.115 -3.33162 -4.07295 0
M  V30 4782 O 426.141 -4.06576 -3.98353 0
M  V30 4783 N 427.343 -2.60109 -5.18964 0
M  V30 4784 H 430.108 -2.77853 -1.12328 0
M  V30 4785 H 427.669 -1.54945 -0.469442 0
M  V30 4786 H 429.661 -1.98488 -3.52682 0
M  V30 4787 H 428.231 -1.11177 -2.92162 0
M  V30 4788 H 427.451 -3.41075 -1.97641 0
M  V30 4789 H 428.739 -4.14933 -2.94463 0
M  V30 4790 H 428.137 -2.00136 -5.29115 0
M  V30 4791 H 426.694 -2.66143 -5.94988 0
M  V30 4792 N 430.127 0.543554 -1.4793 0
M  V30 4793 C 431.357 1.32324 -1.58663 0
M  V30 4794 C 431.765 1.8766 -0.240896 0
M  V30 4795 O 431.108 1.66411 0.778011 0
M  V30 4796 C 431.17 2.52094 -2.56299 0
M  V30 4797 C 430.834 2.17944 -4.01683 0
M  V30 4798 C 431.831 1.74422 -4.89768 0
M  V30 4799 C 429.516 2.28884 -4.47121 0
M  V30 4800 C 431.51 1.42287 -6.21316 0
M  V30 4801 C 429.197 1.96361 -5.78693 0
M  V30 4802 C 430.195 1.53132 -6.65612 0
M  V30 4803 O 429.883 1.21029 -7.94737 0
M  V30 4804 H 429.615 0.409174 -0.538101 0
M  V30 4805 H 432.169 0.663887 -1.94375 0
M  V30 4806 H 430.399 3.20965 -2.15681 0
M  V30 4807 H 432.088 3.14165 -2.57012 0
M  V30 4808 H 432.854 1.65452 -4.55907 0
M  V30 4809 H 428.733 2.61488 -3.79664 0
M  V30 4810 H 432.277 1.08472 -6.89115 0
M  V30 4811 H 428.174 2.04967 -6.12094 0
M  V30 4812 H 428.942 1.34543 -8.07366 0
M  V30 4813 N 431.605 1.3629 0.791371 0
M  V30 4814 C 432.882 1.20962 1.53712 0
M  V30 4815 C 433.262 -0.205021 2.10102 0
M  V30 4816 O 432.61 -1.21042 1.93807 0
M  V30 4817 C 432.82 2.29002 2.63361 0
M  V30 4818 C 434.168 2.65572 3.31295 0
M  V30 4819 O 435.192 2.2803 2.73643 0
M  V30 4820 O 434.051 3.3018 4.35481 0
M  V30 4821 H 431.145 0.47086 0.679867 0
M  V30 4822 H 433.691 1.48016 0.830021 0
M  V30 4823 H 432.463 3.2382 2.19674 0
M  V30 4824 H 432.086 2.03303 3.41692 0
M  V30 4825 N 433.083 -1.0153 1.20538 0
M  V30 4826 C 434.313 -1.78487 1.04048 0
M  V30 4827 C 434.721 -1.84631 -0.413292 0
M  V30 4828 O 434.064 -1.29919 -1.29872 0
M  V30 4829 C 434.126 -3.24367 1.55003 0
M  V30 4830 C 433.79 -3.41827 3.0332 0
M  V30 4831 C 434.787 -3.30941 4.00966 0
M  V30 4832 C 432.472 -3.67602 3.42307 0
M  V30 4833 C 434.466 -3.45577 5.35589 0
M  V30 4834 C 432.153 -3.81881 4.77085 0
M  V30 4835 C 433.151 -3.70874 5.73534 0
M  V30 4836 O 432.839 -3.84714 7.05868 0
M  V30 4837 H 432.571 -0.568108 0.366373 0
M  V30 4838 H 435.125 -1.28677 1.60098 0
M  V30 4839 H 433.355 -3.75266 0.933397 0
M  V30 4840 H 435.044 -3.82963 1.34514 0
M  V30 4841 H 435.81 -3.10964 3.72191 0
M  V30 4842 H 431.689 -3.75256 2.67776 0
M  V30 4843 H 435.233 -3.36902 6.10854 0
M  V30 4844 H 431.13 -4.01359 5.0555 0
M  V30 4845 H 431.898 -4.01724 7.13134 0
M  V30 4846 N 434.561 -1.01147 -1.20859 0
M  V30 4847 C 435.789 -0.716911 -1.94082 0
M  V30 4848 C 436.204 0.721568 -1.74467 0
M  V30 4849 O 435.561 1.48889 -1.05539 0
M  V30 4850 C 435.612 -1.03662 -3.46318 0
M  V30 4851 O 435.333 -2.4186 -3.65288 0
M  V30 4852 C 436.834 -0.762386 -4.36695 0
M  V30 4853 H 434.054 -0.26367 -0.617024 0
M  V30 4854 H 436.598 -1.35127 -1.53496 0
M  V30 4855 H 434.753 -0.447757 -3.84804 0
M  V30 4856 H 435.167 -2.53224 -4.59323 0
M  V30 4857 H 436.641 -1.03621 -5.42187 0
M  V30 4858 H 437.118 0.303514 -4.3815 0
M  V30 4859 H 437.724 -1.33316 -4.03865 0
M  V30 4860 N 436.039 1.36541 -0.78704 0
M  V30 4861 C 437.286 1.99304 -0.358341 0
M  V30 4862 C 437.614 1.62467 1.06933 0
M  V30 4863 O 436.869 0.870019 1.75297 0
M  V30 4864 C 437.168 3.54343 -0.466485 0
M  V30 4865 C 436.834 4.10993 -1.85461 0
M  V30 4866 C 435.496 4.26177 -2.23443 0
M  V30 4867 C 437.848 4.41895 -2.76366 0
M  V30 4868 C 435.176 4.69573 -3.51736 0
M  V30 4869 C 437.528 4.86722 -4.04084 0
M  V30 4870 C 436.192 5.00112 -4.42091 0
M  V30 4871 H 435.462 0.729306 -0.131126 0
M  V30 4872 H 438.109 1.63068 -1.00404 0
M  V30 4873 H 436.414 3.90918 0.262719 0
M  V30 4874 H 438.111 4.00833 -0.115854 0
M  V30 4875 H 434.701 3.99612 -1.54946 0
M  V30 4876 H 438.885 4.29735 -2.48277 0
M  V30 4877 H 434.141 4.78127 -3.81057 0
M  V30 4878 H 438.315 5.09598 -4.7464 0
M  V30 4879 H 435.942 5.33498 -5.41557 0
M  V30 4880 N 437.518 0.538854 1.48102 0
M  V30 4881 C 438.795 -0.0568108 1.95517 0
M  V30 4882 C 439.175 -1.50408 1.48124 0
M  V30 4883 O 438.523 -2.17133 0.711727 0
M  V30 4884 C 438.733 0.0696262 3.48931 0
M  V30 4885 C 440.081 -0.0851202 4.24515 0
M  V30 4886 O 441.105 -0.0037347 3.562 0
M  V30 4887 O 439.964 -0.257025 5.45895 0
M  V30 4888 H 437.058 -0.0743695 0.823649 0
M  V30 4889 H 439.604 0.604081 1.58584 0
M  V30 4890 H 438.376 1.07744 3.76174 0
M  V30 4891 H 437.999 -0.629714 3.92582 0
M  V30 4892 N 438.996 -1.55193 0.274407 0
M  V30 4893 C 440.242 -2.00604 -0.33608 0
M  V30 4894 C 440.597 -1.15948 -1.53538 0
M  V30 4895 O 439.89 -0.221385 -1.90317 0
M  V30 4896 C 440.084 -3.49019 -0.769458 0
M  V30 4897 C 439.913 -4.48038 0.386301 0
M  V30 4898 C 438.683 -4.97757 0.869854 0
M  V30 4899 C 440.881 -4.99558 1.22254 0
M  V30 4900 N 438.863 -5.80575 1.99515 0
M  V30 4901 C 440.234 -5.79816 2.19575 0
M  V30 4902 C 442.289 -4.81799 1.25597 0
M  V30 4903 C 440.992 -6.44208 3.19981 0
M  V30 4904 C 443.018 -5.46989 2.24848 0
M  V30 4905 C 442.38 -6.27058 3.20901 0
M  V30 4906 H 438.479 -0.777013 -0.088172 0
M  V30 4907 H 441.063 -1.90583 0.398266 0
M  V30 4908 H 439.234 -3.59383 -1.47303 0
M  V30 4909 H 440.966 -3.81263 -1.35722 0
M  V30 4910 H 437.721 -4.71464 0.449281 0
M  V30 4911 H 438.145 -6.26675 2.5614 0
M  V30 4912 H 442.787 -4.19501 0.527158 0
M  V30 4913 H 440.505 -7.05656 3.93796 0
M  V30 4914 H 444.091 -5.35189 2.28174 0
M  V30 4915 H 442.971 -6.7661 3.96445 0
M  V30 4916 N 440.474 -0.00167713 -1.576 0
M  V30 4917 C 441.702 0.693759 -1.94922 0
M  V30 4918 C 442.117 1.67215 -0.876626 0
M  V30 4919 O 441.474 1.81929 0.144279 0
M  V30 4920 C 441.525 1.42416 -3.32265 0
M  V30 4921 O 441.246 0.485014 -4.35407 0
M  V30 4922 C 442.747 2.21395 -3.84056 0
M  V30 4923 H 439.967 0.193118 -0.642609 0
M  V30 4924 H 442.511 -0.0532952 -2.04431 0
M  V30 4925 H 440.666 2.12284 -3.24059 0
M  V30 4926 H 441.08 1.00053 -5.14868 0
M  V30 4927 H 442.554 2.67996 -4.82578 0
M  V30 4928 H 443.031 3.04142 -3.16851 0
M  V30 4929 H 443.637 1.56542 -3.95443 0
M  V30 4930 N 441.952 1.55251 0.271103 0
M  V30 4931 C 442.885 1.83191 1.36075 0
M  V30 4932 C 443.863 0.685091 1.47463 0
M  V30 4933 O 445.047 0.928292 1.64058 0
M  V30 4934 C 442.174 1.99521 2.73696 0
M  V30 4935 C 441.22 3.22081 2.79582 0
M  V30 4936 S 442.053 4.79388 2.38636 0
M  V30 4937 C 443.209 4.98693 3.78228 0
M  V30 4938 H 443.442 2.75327 1.12171 0
M  V30 4939 H 440.975 1.47046 0.470833 0
M  V30 4940 H 442.933 2.09613 3.52948 0
M  V30 4941 H 441.594 1.0827 2.9485 0
M  V30 4942 H 440.787 3.304 3.80594 0
M  V30 4943 H 440.389 3.10589 2.08352 0
M  V30 4944 H 442.681 4.84551 4.73515 0
M  V30 4945 H 443.624 6.00738 3.7486 0
M  V30 4946 H 444.032 4.26665 3.69618 0
M  V30 4947 N 443.43 -0.535701 1.48216 0
M  V30 4948 C 444.36 -1.65014 1.65204 0
M  V30 4949 C 445.341 -1.62554 0.501011 0
M  V30 4950 O 446.526 -1.7984 0.732886 0
M  V30 4951 C 443.656 -3.03616 1.68626 0
M  V30 4952 C 442.61 -3.20932 2.83172 0
M  V30 4953 C 441.936 -4.60537 2.71679 0
M  V30 4954 C 443.236 -3.04249 4.24535 0
M  V30 4955 H 444.93 -1.51053 2.58502 0
M  V30 4956 H 442.476 -0.725262 1.24402 0
M  V30 4957 H 444.429 -3.81446 1.79099 0
M  V30 4958 H 443.153 -3.18587 0.719026 0
M  V30 4959 H 441.812 -2.45517 2.72244 0
M  V30 4960 H 441.46 -4.72336 1.72937 0
M  V30 4961 H 441.16 -4.73069 3.48538 0
M  V30 4962 H 442.684 -5.40475 2.84112 0
M  V30 4963 H 444.098 -3.71877 4.36326 0
M  V30 4964 H 442.495 -3.28278 5.02348 0
M  V30 4965 H 443.565 -2.00739 4.41397 0
M  V30 4966 N 444.908 -1.36708 -0.784132 0
M  V30 4967 C 445.855 -1.31466 -1.89698 0
M  V30 4968 C 446.825 -0.18239 -1.65096 0
M  V30 4969 O 448.01 -0.369762 -1.87183 0
M  V30 4970 C 445.15 -1.1151 -3.26588 0
M  V30 4971 C 444.263 -2.33859 -3.63227 0
M  V30 4972 C 443.398 -2.06873 -4.89262 0
M  V30 4973 C 442.437 -3.25154 -5.18595 0
M  V30 4974 N 441.574 -2.978 -6.35814 0
M  V30 4975 H 446.414 -2.26619 -1.93515 0
M  V30 4976 H 443.951 -1.12625 -0.946256 0
M  V30 4977 H 445.909 -0.979653 -4.05535 0
M  V30 4978 H 444.539 -0.200103 -3.22179 0
M  V30 4979 H 443.591 -2.58188 -2.79362 0
M  V30 4980 H 444.903 -3.22109 -3.8085 0
M  V30 4981 H 444.057 -1.90289 -5.76086 0
M  V30 4982 H 442.796 -1.15942 -4.73718 0
M  V30 4983 H 441.801 -3.42292 -4.30251 0
M  V30 4984 H 443.026 -4.1692 -5.36055 0
M  V30 4985 H 440.972 -2.09485 -6.21653 0
M  V30 4986 H 440.889 -3.7959 -6.53794 0
M  V30 4987 H 442.157 -2.84805 -7.25607 0
M  V30 4988 N 446.386 1.0089 -1.21074 0
M  V30 4989 C 447.318 2.09737 -0.924291 0
M  V30 4990 C 448.331 1.62546 0.0909809 0
M  V30 4991 O 449.52 1.77942 -0.141021 0
M  V30 4992 C 446.62 3.36922 -0.36559 0
M  V30 4993 C 445.793 4.13216 -1.43426 0
M  V30 4994 C 444.852 5.18696 -0.885496 0
M  V30 4995 O 443.878 5.47176 -1.56801 0
M  V30 4996 N 445.08 5.79718 0.301227 0
M  V30 4997 H 447.845 2.34895 -1.8613 0
M  V30 4998 H 445.406 1.17341 -1.11546 0
M  V30 4999 H 447.398 4.04697 0.0158407 0
M  V30 5000 H 445.968 3.08952 0.476149 0
M  V30 5001 H 445.188 3.40301 -1.9897 0
M  V30 5002 H 446.476 4.60967 -2.15376 0
M  V30 5003 H 445.874 5.58926 0.872849 0
M  V30 5004 H 444.431 6.48804 0.624211 0
M  V30 5005 N 447.864 1.01787 1.20321 0
M  V30 5006 C 448.811 0.589197 2.23153 0
M  V30 5007 C 449.781 -0.391367 1.61423 0
M  V30 5008 O 450.966 -0.290518 1.88575 0
M  V30 5009 C 448.106 -0.0650747 3.45039 0
M  V30 5010 C 447.219 0.960207 4.21194 0
M  V30 5011 C 446.354 0.276854 5.30478 0
M  V30 5012 C 445.393 1.2888 5.98378 0
M  V30 5013 N 444.53 0.632031 6.99249 0
M  V30 5014 H 449.37 1.47071 2.59179 0
M  V30 5015 H 446.907 0.736192 1.27352 0
M  V30 5016 H 448.865 -0.461552 4.14639 0
M  V30 5017 H 447.495 -0.910233 3.09701 0
M  V30 5018 H 446.547 1.47484 3.50646 0
M  V30 5019 H 447.859 1.72977 4.67847 0
M  V30 5020 H 447.013 -0.175056 6.06447 0
M  V30 5021 H 445.752 -0.525004 4.84866 0
M  V30 5022 H 444.757 1.75109 5.21169 0
M  V30 5023 H 445.982 2.09196 6.46076 0
M  V30 5024 H 443.928 -0.149935 6.55829 0
M  V30 5025 H 443.845 1.33964 7.44036 0
M  V30 5026 H 445.113 0.203755 7.79234 0
M  V30 5027 N 449.342 -1.36122 0.79427 0
M  V30 5028 C 450.305 -2.28309 0.201889 0
M  V30 5029 C 451.305 -1.49041 -0.603603 0
M  V30 5030 O 452.495 -1.68964 -0.423888 0
M  V30 5031 C 449.627 -3.3321 -0.719978 0
M  V30 5032 H 450.82 -2.82208 1.01481 0
M  V30 5033 H 448.373 -1.45768 0.564037 0
M  V30 5034 H 449.108 -2.84475 -1.55706 0
M  V30 5035 H 448.893 -3.91835 -0.144266 0
M  V30 5036 H 450.383 -4.02044 -1.12916 0
M  V30 5037 N 450.82 -0.546701 -1.47814 0
M  V30 5038 C 451.783 0.196287 -2.28358 0
M  V30 5039 C 452.783 0.852437 -1.36346 0
M  V30 5040 O 453.973 0.709913 -1.59078 0
M  V30 5041 C 451.105 1.28579 -3.15722 0
M  V30 5042 H 452.298 -0.511086 -2.95513 0
M  V30 5043 H 449.851 -0.303248 -1.5333 0
M  V30 5044 H 450.586 2.0259 -2.53235 0
M  V30 5045 H 450.371 0.820229 -3.83425 0
M  V30 5046 H 451.861 1.80793 -3.76435 0
M  V30 5047 N 452.299 1.55045 -0.282633 0
M  V30 5048 C 453.231 2.2023 0.634924 0
M  V30 5049 C 454.244 1.18931 1.11172 0
M  V30 5050 O 455.433 1.4562 1.03233 0
M  V30 5051 C 452.533 2.82041 1.87899 0
M  V30 5052 C 451.706 4.091 1.54776 0
M  V30 5053 C 450.765 4.54887 2.64507 0
M  V30 5054 O 449.791 5.20496 2.30375 0
M  V30 5055 N 450.993 4.25659 3.94709 0
M  V30 5056 H 453.758 2.99601 0.0769811 0
M  V30 5057 H 451.319 1.61565 -0.104048 0
M  V30 5058 H 453.311 3.09613 2.60619 0
M  V30 5059 H 451.881 2.06618 2.3458 0
M  V30 5060 H 451.101 3.88736 0.654049 0
M  V30 5061 H 452.389 4.9187 1.30158 0
M  V30 5062 H 451.787 3.7306 4.25256 0
M  V30 5063 H 450.344 4.57984 4.63782 0
M  V30 5064 N 453.777 0.010035 1.57597 0
M  V30 5065 C 454.709 -1.00649 2.05918 0
M  V30 5066 C 455.722 -1.30077 0.978964 0
M  V30 5067 O 456.911 -1.26878 1.25556 0
M  V30 5068 C 454.011 -2.33876 2.45265 0
M  V30 5069 C 453.184 -2.23242 3.7614 0
M  V30 5070 C 452.243 -3.39242 4.02245 0
M  V30 5071 O 451.269 -3.1698 4.72771 0
M  V30 5072 N 452.471 -4.6242 3.50924 0
M  V30 5073 H 455.236 -0.594333 2.93748 0
M  V30 5074 H 452.797 -0.17714 1.60928 0
M  V30 5075 H 454.789 -3.1027 2.59836 0
M  V30 5076 H 453.359 -2.66799 1.62902 0
M  V30 5077 H 452.579 -1.31696 3.71551 0
M  V30 5078 H 453.867 -2.13321 4.61922 0
M  V30 5079 H 453.265 -4.83404 2.93832 0
M  V30 5080 H 451.822 -5.36046 3.70807 0
M  V30 5081 N 455.255 -1.55392 -0.262866 0
M  V30 5082 C 456.218 -1.88181 -1.30846 0
M  V30 5083 C 457.218 -0.757079 -1.41862 0
M  V30 5084 O 458.408 -1.02519 -1.40838 0
M  V30 5085 C 455.54 -2.09609 -2.68844 0
M  V30 5086 H 456.733 -2.81659 -1.02997 0
M  V30 5087 H 454.286 -1.48039 -0.501414 0
M  V30 5088 H 455.021 -1.18547 -3.01856 0
M  V30 5089 H 454.806 -2.91508 -2.62231 0
M  V30 5090 H 456.296 -2.36215 -3.44372 0
M  V30 5091 N 456.733 0.527833 -1.48498 0
M  V30 5092 C 457.696 1.61439 -1.62696 0
M  V30 5093 C 458.696 1.52824 -0.500136 0
M  V30 5094 O 459.886 1.56456 -0.765976 0
M  V30 5095 C 457.018 3.01063 -1.59918 0
M  V30 5096 H 458.211 1.50189 -2.59583 0
M  V30 5097 H 455.764 0.750055 -1.37127 0
M  V30 5098 H 456.499 3.17818 -0.645163 0
M  V30 5099 H 456.284 3.08725 -2.41726 0
M  V30 5100 H 457.774 3.80057 -1.73051 0
M  V30 5101 N 458.211 1.37122 0.776871 0
M  V30 5102 C 459.436 1.354 1.57104 0
M  V30 5103 C 459.861 -0.0595562 1.88006 0
M  V30 5104 O 459.219 -1.03514 1.48844 0
M  V30 5105 C 459.267 2.19472 2.8612 0
M  V30 5106 O 458.371 1.59582 3.80273 0
M  V30 5107 H 457.712 0.462869 0.476076 0
M  V30 5108 H 460.242 1.80577 0.961932 0
M  V30 5109 H 460.252 2.32502 3.35271 0
M  V30 5110 H 458.927 3.22222 2.62956 0
M  V30 5111 H 457.504 1.55564 3.38902 0
M  V30 5112 N 459.689 -1.00246 1.21608 0
M  V30 5113 C 460.914 -1.78167 1.06167 0
M  V30 5114 C 461.339 -1.84138 -0.384035 0
M  V30 5115 O 460.697 -1.28683 -1.27712 0
M  V30 5116 C 460.745 -3.19786 1.66642 0
M  V30 5117 O 459.849 -4.02153 0.913613 0
M  V30 5118 H 459.19 -0.549 0.37349 0
M  V30 5119 H 461.72 -1.25994 1.61204 0
M  V30 5120 H 461.73 -3.70451 1.70969 0
M  V30 5121 H 460.405 -3.14754 2.7185 0
M  V30 5122 H 458.982 -3.60711 0.945635 0
M  V30 5123 N 461.167 -1.02423 -1.1978 0
M  V30 5124 C 462.392 -0.7373 -1.93852 0
M  V30 5125 C 462.817 0.696923 -1.74713 0
M  V30 5126 O 462.175 1.48056 -1.04638 0
M  V30 5127 C 462.223 -1.08783 -3.438 0
M  V30 5128 O 461.327 -0.20383 -4.11896 0
M  V30 5129 H 460.668 -0.27284 -0.605355 0
M  V30 5130 H 463.198 -1.36966 -1.51992 0
M  V30 5131 H 463.208 -1.04276 -3.9445 0
M  V30 5132 H 461.883 -2.13274 -3.57053 0
M  V30 5133 H 460.46 -0.307091 -3.71633 0
M  V30 5134 N 462.645 1.35699 -0.801477 0
M  V30 5135 C 463.893 1.9852 -0.37871 0
M  V30 5136 C 464.214 1.63907 1.05638 0
M  V30 5137 O 463.484 0.919013 1.73006 0
M  V30 5138 H 462.064 0.734322 -0.137042 0
M  V30 5139 H 464.726 1.65697 -1.02619 0
M  V30 5140 H 463.822 3.08382 -0.480284 0
M  V30 5141 N 464.123 0.554532 1.47522 0
M  V30 5142 C 465.055 -0.232106 2.28022 0
M  V30 5143 C 466.068 -0.881865 1.36847 0
M  V30 5144 O 467.257 -0.756168 1.61692 0
M  V30 5145 C 464.357 -1.34604 3.11022 0
M  V30 5146 C 463.53 -0.793582 4.30141 0
M  V30 5147 C 462.589 -1.79168 4.94758 0
M  V30 5148 O 461.615 -1.33886 5.5323 0
M  V30 5149 N 462.817 -3.12495 4.89211 0
M  V30 5150 H 465.582 0.458407 2.96173 0
M  V30 5151 H 463.143 0.390433 1.57122 0
M  V30 5152 H 465.135 -2.01243 3.51118 0
M  V30 5153 H 463.705 -1.93983 2.45131 0
M  V30 5154 H 462.925 0.0495025 3.94169 0
M  V30 5155 H 464.213 -0.403776 5.07195 0
M  V30 5156 H 463.611 -3.51931 4.42901 0
M  V30 5157 H 462.168 -3.74698 5.33333 0
M  V30 5158 N 465.601 -1.54893 0.290851 0
M  V30 5159 C 466.849 -1.99538 -0.320756 0
M  V30 5160 C 467.17 -1.18075 -1.55188 0
M  V30 5161 O 466.44 -0.274162 -1.93972 0
M  V30 5162 H 465.02 -0.737052 -0.121507 0
M  V30 5163 H 467.682 -1.90755 0.399832 0
M  V30 5164 H 466.778 -3.06282 -0.599802 0
M  V30 5165 N 467.08 -0.0183926 -1.57589 0
M  V30 5166 C 468.012 0.995557 -2.06449 0
M  V30 5167 C 469.025 1.29556 -0.985849 0
M  V30 5168 O 470.214 1.2621 -1.26227 0
M  V30 5169 C 467.314 2.32572 -2.46502 0
M  V30 5170 C 466.487 2.21245 -3.77319 0
M  V30 5171 C 465.546 3.37104 -4.04039 0
M  V30 5172 O 464.572 3.14468 -4.74445 0
M  V30 5173 N 465.774 4.60553 -3.53372 0
M  V30 5174 H 468.539 0.578746 -2.94059 0
M  V30 5175 H 466.1 0.168603 -1.6102 0
M  V30 5176 H 468.092 3.08887 -2.61478 0
M  V30 5177 H 466.662 2.65931 -1.64315 0
M  V30 5178 H 465.882 1.29723 -3.72244 0
M  V30 5179 H 467.17 2.10868 -4.63047 0
M  V30 5180 H 466.568 4.81839 -2.96391 0
M  V30 5181 H 465.125 5.34072 -3.73644 0
M  V30 5182 N 468.558 1.5553 0.254621 0
M  V30 5183 C 469.49 1.86104 1.33783 0
M  V30 5184 C 470.503 0.746752 1.44663 0
M  V30 5185 O 471.692 1.0248 1.46151 0
M  V30 5186 C 468.792 2.02532 2.71724 0
M  V30 5187 C 467.965 3.33335 2.83208 0
M  V30 5188 C 467.024 3.396 4.01943 0
M  V30 5189 O 466.05 4.12862 3.91834 0
M  V30 5190 N 467.252 2.68332 5.1476 0
M  V30 5191 H 470.017 2.79605 1.07893 0
M  V30 5192 H 467.578 1.55672 0.444732 0
M  V30 5193 H 469.57 2.04074 3.4948 0
M  V30 5194 H 468.14 1.15811 2.90356 0
M  V30 5195 H 467.36 3.44176 1.92189 0
M  V30 5196 H 468.648 4.19565 2.87824 0
M  V30 5197 H 468.046 2.08528 5.25864 0
M  V30 5198 H 466.603 2.75575 5.90679 0
M  V30 5199 N 470.036 -0.519951 1.48776 0
M  V30 5200 C 470.999 -1.60574 1.6355 0
M  V30 5201 C 471.999 -1.52557 0.508234 0
M  V30 5202 O 473.189 -1.56047 0.774262 0
M  V30 5203 C 470.321 -3.00211 1.61512 0
M  V30 5204 H 471.514 -1.4881 2.60376 0
M  V30 5205 H 469.067 -0.742772 1.37523 0
M  V30 5206 H 469.802 -3.17471 0.662009 0
M  V30 5207 H 469.587 -3.07439 2.43359 0
M  V30 5208 H 471.077 -3.79134 1.75064 0
M  V30 5209 N 471.514 -1.37532 -0.769588 0
M  V30 5210 C 472.446 -1.29347 -1.89214 0
M  V30 5211 C 473.459 -0.208842 -1.61455 0
M  V30 5212 O 474.648 -0.465158 -1.72333 0
M  V30 5213 C 471.748 -0.977649 -3.24492 0
M  V30 5214 C 470.921 -2.16817 -3.7988 0
M  V30 5215 C 469.98 -1.82229 -4.93639 0
M  V30 5216 O 469.006 -2.54548 -5.09111 0
M  V30 5217 N 470.208 -0.767696 -5.75401 0
M  V30 5218 H 472.973 -2.26073 -1.96751 0
M  V30 5219 H 470.534 -1.31185 -0.948795 0
M  V30 5220 H 472.526 -0.727065 -3.98115 0
M  V30 5221 H 471.096 -0.0988777 -3.12444 0
M  V30 5222 H 470.316 -2.58038 -2.9801 0
M  V30 5223 H 471.604 -2.96308 -4.13617 0
M  V30 5224 H 471.002 -0.167626 -5.65452 0
M  V30 5225 H 469.559 -0.576973 -6.49241 0
M  V30 5226 N 472.992 0.995999 -1.22138 0
M  V30 5227 C 474.22 1.77066 -1.07029 0
M  V30 5228 C 474.635 1.8495 0.379357 0
M  V30 5229 O 473.992 1.3174 1.26297 0
M  V30 5230 C 474.043 3.20533 -1.67155 0
M  V30 5231 O 473.764 3.13082 -3.06449 0
M  V30 5232 C 475.265 4.14461 -1.5728 0
M  V30 5233 H 472.485 0.556179 -0.375374 0
M  V30 5234 H 475.029 1.25238 -1.61666 0
M  V30 5235 H 473.184 3.6944 -1.16589 0
M  V30 5236 H 473.598 4.03283 -3.35355 0
M  V30 5237 H 475.072 5.1289 -2.04078 0
M  V30 5238 H 475.549 4.36005 -0.528795 0
M  V30 5239 H 476.155 3.71449 -2.07136 0
M  V30 5240 N 474.47 1.03057 1.19235 0
M  V30 5241 C 475.881 0.757449 1.70645 0
M  V30 5242 C 476.232 -0.722735 1.82403 0
M  V30 5243 O 475.357 -1.56325 1.49638 0
M  V30 5244 C 475.952 1.36833 3.09939 0
M  V30 5245 C 474.511 1.14375 3.58602 0
M  V30 5246 C 473.658 1.46533 2.35422 0
M  V30 5247 H 476.609 1.19828 1.04052 0
M  V30 5248 H 476.63 0.766184 3.72706 0
M  V30 5249 H 476.142 2.44562 3.01349 0
M  V30 5250 H 474.243 0.0847542 3.72504 0
M  V30 5251 H 474.356 1.83366 4.42622 0
M  V30 5252 H 472.72 0.884712 2.38841 0
M  V30 5253 H 473.503 2.55349 2.2946 0
M  V30 5254 N 475.948 -1.35272 0.808662 0
M  V30 5255 C 477.176 -2.02946 0.402537 0
M  V30 5256 C 477.591 -1.60937 -0.987147 0
M  V30 5257 O 476.948 -0.807917 -1.63643 0
M  V30 5258 C 476.999 -3.58317 0.47868 0
M  V30 5259 O 476.72 -3.98799 1.81358 0
M  V30 5260 C 478.221 -4.43251 0.0656281 0
M  V30 5261 H 475.441 -0.650831 0.163279 0
M  V30 5262 H 477.985 -1.72849 1.09286 0
M  V30 5263 H 476.14 -3.87055 -0.163415 0
M  V30 5264 H 476.554 -4.93451 1.77781 0
M  V30 5265 H 478.028 -5.51738 0.170017 0
M  V30 5266 H 478.505 -4.27913 -0.989278 0
M  V30 5267 H 479.111 -4.19813 0.68096 0
M  V30 5268 N 477.426 -0.562348 -1.47226 0
M  V30 5269 C 478.674 -0.0401371 -2.0206 0
M  V30 5270 C 478.995 1.3165 -1.43852 0
M  V30 5271 O 478.265 1.85976 -0.615599 0
M  V30 5272 H 476.845 -0.0118479 -0.746906 0
M  V30 5273 H 479.507 -0.73352 -1.8057 0
M  V30 5274 H 478.603 0.0441254 -3.12069 0
M  V30 5275 N 478.904 1.54736 -0.299062 0
M  V30 5276 C 479.851 2.23448 0.577899 0
M  V30 5277 C 480.821 1.21637 1.13109 0
M  V30 5278 O 482.006 1.50252 1.17597 0
M  V30 5279 C 479.146 2.9774 1.74484 0
M  V30 5280 C 478.259 4.1432 1.22323 0
M  V30 5281 C 477.394 4.76199 2.35388 0
M  V30 5282 C 476.433 5.84927 1.80351 0
M  V30 5283 N 475.57 6.4077 2.86982 0
M  V30 5284 H 480.41 2.97996 -0.0146545 0
M  V30 5285 H 477.947 1.47088 -0.0190013 0
M  V30 5286 H 479.905 3.39045 2.43114 0
M  V30 5287 H 478.535 2.25572 2.30905 0
M  V30 5288 H 477.587 3.7797 0.429249 0
M  V30 5289 H 478.899 4.92659 0.780309 0
M  V30 5290 H 478.053 5.20346 3.11969 0
M  V30 5291 H 476.792 3.97188 2.83006 0
M  V30 5292 H 475.797 5.40207 1.02259 0
M  V30 5293 H 477.022 6.65821 1.3364 0
M  V30 5294 H 474.968 5.64643 3.33938 0
M  V30 5295 H 474.885 7.1445 2.4718 0
M  V30 5296 H 476.153 6.89574 3.63466 0
M  V30 5297 N 480.382 0.0267497 1.57577 0
M  V30 5298 C 481.314 -0.984594 2.06974 0
M  V30 5299 C 482.327 -1.29032 0.992705 0
M  V30 5300 O 483.516 -1.25539 1.26895 0
M  V30 5301 C 480.616 -2.31262 2.47732 0
M  V30 5302 C 479.789 -2.1924 3.78487 0
M  V30 5303 C 478.848 -3.34956 4.05821 0
M  V30 5304 O 477.874 -3.11948 4.76106 0
M  V30 5305 N 479.076 -4.58672 3.55809 0
M  V30 5306 H 481.841 -0.563143 2.94362 0
M  V30 5307 H 479.402 -0.160061 1.61107 0
M  V30 5308 H 481.394 -3.07496 2.63112 0
M  V30 5309 H 479.964 -2.65056 1.65723 0
M  V30 5310 H 479.184 -1.27747 3.72927 0
M  V30 5311 H 480.472 -2.08409 4.64158 0
M  V30 5312 H 479.87 -4.8026 2.98942 0
M  V30 5313 H 478.427 -5.32083 3.76472 0
M  V30 5314 N 481.861 -1.55662 -0.24637 0
M  V30 5315 C 483.089 -1.81575 -0.991876 0
M  V30 5316 C 483.504 -0.602545 -1.78927 0
M  V30 5317 O 482.861 0.428795 -1.77391 0
M  V30 5318 C 482.912 -3.05711 -1.92933 0
M  V30 5319 O 482.633 -4.22348 -1.1642 0
M  V30 5320 C 484.134 -3.44428 -2.79078 0
M  V30 5321 H 481.354 -0.604209 -0.291844 0
M  V30 5322 H 483.898 -2.02722 -0.269095 0
M  V30 5323 H 482.053 -2.86612 -2.60638 0
M  V30 5324 H 482.467 -4.92706 -1.79835 0
M  V30 5325 H 483.941 -4.34388 -3.40603 0
M  V30 5326 H 484.418 -2.65037 -3.50217 0
M  V30 5327 H 485.024 -3.65879 -2.16824 0
M  V30 5328 N 483.339 0.512053 -1.4905 0
M  V30 5329 C 484.616 1.27337 -1.48474 0
M  V30 5330 C 484.996 2.1009 -0.206301 0
M  V30 5331 O 484.344 2.136 0.811609 0
M  V30 5332 C 484.554 2.13954 -2.75726 0
M  V30 5333 C 485.902 2.73507 -3.24776 0
M  V30 5334 O 486.926 2.24229 -2.76767 0
M  V30 5335 O 485.785 3.63186 -4.08361 0
M  V30 5336 H 482.879 0.575652 -0.593762 0
M  V30 5337 H 485.425 0.527232 -1.61302 0
M  V30 5338 H 484.197 1.52709 -3.60272 0
M  V30 5339 H 483.82 2.95782 -2.65705 0
M  V30 5340 N 484.817 1.37938 0.762283 0
M  V30 5341 C 485.764 1.34467 1.87583 0
M  V30 5342 C 486.734 0.208633 1.64785 0
M  V30 5343 O 487.919 0.399494 1.86571 0
M  V30 5344 C 485.059 1.16692 3.24772 0
M  V30 5345 C 484.172 2.39608 3.59461 0
M  V30 5346 C 483.307 2.14631 4.85908 0
M  V30 5347 C 482.346 3.33364 5.13357 0
M  V30 5348 N 481.483 3.07877 6.30996 0
M  V30 5349 H 486.323 2.29669 1.89885 0
M  V30 5350 H 483.86 1.14116 0.928219 0
M  V30 5351 H 485.818 1.04405 4.03925 0
M  V30 5352 H 484.448 0.251333 3.2182 0
M  V30 5353 H 483.5 2.626 2.75219 0
M  V30 5354 H 484.812 3.28128 3.75678 0
M  V30 5355 H 483.966 1.99429 5.72986 0
M  V30 5356 H 482.705 1.23463 4.71814 0
M  V30 5357 H 481.71 3.49094 4.24751 0
M  V30 5358 H 482.935 4.25395 5.29354 0
M  V30 5359 H 480.881 2.19348 6.18241 0
M  V30 5360 H 480.798 3.89944 6.47673 0
M  V30 5361 H 482.066 2.96313 7.20985 0
M  V30 5362 N 486.295 -0.989507 1.22664 0
M  V30 5363 C 487.523 -1.76496 1.07967 0
M  V30 5364 C 487.938 -1.85148 -0.369543 0
M  V30 5365 O 487.295 -1.32408 -1.25596 0
M  V30 5366 C 487.346 -3.19642 1.68853 0
M  V30 5367 O 487.067 -3.11453 3.08105 0
M  V30 5368 C 488.568 -4.13621 1.59475 0
M  V30 5369 H 485.788 -0.55418 0.378319 0
M  V30 5370 H 488.332 -1.24378 1.62328 0
M  V30 5371 H 486.487 -3.68816 1.18547 0
M  V30 5372 H 486.901 -4.01499 3.37489 0
M  V30 5373 H 488.375 -5.11801 2.06795 0
M  V30 5374 H 488.852 -4.35718 0.55191 0
M  V30 5375 H 489.458 -3.70346 2.09103 0
M  V30 5376 N 487.773 -1.03688 -1.18687 0
M  V30 5377 C 488.72 -0.624624 -2.22187 0
M  V30 5378 C 489.69 0.365636 -1.62026 0
M  V30 5379 O 490.875 0.260481 -1.89014 0
M  V30 5380 C 488.015 0.0101738 -3.45099 0
M  V30 5381 C 487.128 -1.02709 -4.19613 0
M  V30 5382 C 486.263 -0.361213 -5.2997 0
M  V30 5383 C 485.302 -1.38384 -5.96252 0
M  V30 5384 N 484.439 -0.743196 -6.98155 0
M  V30 5385 H 489.279 -1.51176 -2.56807 0
M  V30 5386 H 486.816 -0.75636 -1.26165 0
M  V30 5387 H 488.774 0.395528 -4.15321 0
M  V30 5388 H 487.404 0.860848 -3.1111 0
M  V30 5389 H 486.456 -1.53043 -3.48256 0
M  V30 5390 H 487.768 -1.80398 -4.65036 0
M  V30 5391 H 486.922 0.0785537 -6.06649 0
M  V30 5392 H 485.661 0.447799 -4.8564 0
M  V30 5393 H 484.666 -1.83378 -5.18317 0
M  V30 5394 H 485.891 -2.19448 -6.42666 0
M  V30 5395 H 483.837 0.0455789 -6.55984 0
M  V30 5396 H 483.754 -1.45784 -7.41811 0
M  V30 5397 H 485.022 -0.327698 -7.78811 0
M  V30 5398 N 489.251 1.34841 -0.815825 0
M  V30 5399 C 490.476 2.03261 -0.41226 0
M  V30 5400 C 490.901 1.61055 0.971751 0
M  V30 5401 O 490.259 0.7917 1.63101 0
M  V30 5402 C 490.307 3.56914 -0.514289 0
M  V30 5403 O 489.411 4.09728 0.468675 0
M  V30 5404 H 488.752 0.641664 -0.170771 0
M  V30 5405 H 491.282 1.72241 -1.10427 0
M  V30 5406 H 491.292 4.06156 -0.387457 0
M  V30 5407 H 489.967 3.86982 -1.52375 0
M  V30 5408 H 488.544 3.71681 0.301316 0
M  V30 5409 N 490.729 0.570148 1.46925 0
M  V30 5410 C 491.677 -0.183181 2.31878 0
M  V30 5411 C 492.671 -0.896721 1.43719 0
M  V30 5412 O 493.877 -0.816536 1.60414 0
M  V30 5413 H 490.252 -0.077944 0.74795 0
M  V30 5414 H 492.223 0.552312 2.93244 0
M  V30 5415 C 490.972 -1.19172 3.2664 0
M  V30 5416 H 490.295 -0.652088 3.94446 0
M  V30 5417 H 491.735 -1.68946 3.88887 0
M  V30 5418 C 490.194 -2.24627 2.51086 0
M  V30 5419 O 490.724 -3.31773 2.26472 0
M  V30 5420 N 488.93 -1.98898 2.11867 0
M  V30 5421 H 488.477 -1.11777 2.32086 0
M  V30 5422 H 488.435 -2.6967 1.61634 0
M  V30 5423 N 492.207 -1.54576 0.307264 0
M  V30 5424 C 493.14 -2.19946 -0.608195 0
M  V30 5425 C 494.118 -1.17096 -1.12815 0
M  V30 5426 O 495.302 -1.45766 -1.19518 0
M  V30 5427 C 492.429 -2.84826 -1.8328 0
M  V30 5428 C 491.475 -4.01256 -1.44554 0
M  V30 5429 S 492.308 -5.33197 -0.49612 0
M  V30 5430 C 493.464 -6.01563 -1.72838 0
M  V30 5431 H 493.697 -2.97253 -0.0528544 0
M  V30 5432 H 491.23 -1.54129 0.0913837 0
M  V30 5433 H 493.188 -3.22832 -2.53554 0
M  V30 5434 H 491.849 -2.07353 -2.35931 0
M  V30 5435 H 491.042 -4.45457 -2.35762 0
M  V30 5436 H 490.644 -3.6484 -0.822671 0
M  V30 5437 H 492.936 -6.22751 -2.6681 0
M  V30 5438 H 493.879 -6.9552 -1.32882 0
M  V30 5439 H 494.287 -5.31279 -1.90795 0
M  V30 5440 N 493.685 -0.035106 -1.57561 0
M  V30 5441 C 494.632 0.94474 -2.10578 0
M  V30 5442 C 495.602 1.3192 -1.00927 0
M  V30 5443 O 496.787 1.41147 -1.28382 0
M  V30 5444 C 493.927 2.21982 -2.64231 0
M  V30 5445 C 493.04 1.90128 -3.87911 0
M  V30 5446 C 492.175 3.11975 -4.29936 0
M  V30 5447 C 491.214 2.75968 -5.46359 0
M  V30 5448 N 490.351 3.90459 -5.83512 0
M  V30 5449 H 495.191 0.485717 -2.94015 0
M  V30 5450 H 492.728 0.228143 -1.4532 0
M  V30 5451 H 494.686 2.96572 -2.9343 0
M  V30 5452 H 493.316 2.6549 -1.83616 0
M  V30 5453 H 492.368 1.05755 -3.65404 0
M  V30 5454 H 493.68 1.59613 -4.72573 0
M  V30 5455 H 492.834 3.9488 -4.60603 0
M  V30 5456 H 491.573 3.45657 -3.44053 0
M  V30 5457 H 490.578 1.91478 -5.1538 0
M  V30 5458 H 491.803 2.43497 -6.33945 0
M  V30 5459 H 489.749 4.23971 -5.00584 0
M  V30 5460 H 489.666 3.63588 -6.62827 0
M  V30 5461 H 490.934 4.7405 -6.18787 0
M  V30 5462 N 495.163 1.55791 0.238111 0
M  V30 5463 C 496.411 1.77681 0.963001 0
M  V30 5464 C 496.732 0.600674 1.85518 0
M  V30 5465 O 496.002 -0.383182 1.92116 0
M  V30 5466 H 494.582 0.655315 0.358568 0
M  V30 5467 H 497.244 1.93239 0.253945 0
M  V30 5468 H 496.34 2.69177 1.57956 0
M  V30 5469 N 496.642 -0.504142 1.49319 0
M  V30 5470 C 497.889 -1.25846 1.58647 0
M  V30 5471 C 498.217 -1.92592 0.27177 0
M  V30 5472 O 497.472 -1.81167 -0.74007 0
M  V30 5473 C 497.771 -2.35021 2.69258 0
M  V30 5474 C 497.437 -1.85755 4.1086 0
M  V30 5475 C 496.099 -1.72038 4.49395 0
M  V30 5476 C 498.451 -1.48844 4.99495 0
M  V30 5477 C 495.779 -1.19783 5.74342 0
M  V30 5478 C 498.131 -0.980422 6.24956 0
M  V30 5479 C 496.795 -0.829622 6.62324 0
M  V30 5480 H 496.065 -0.460505 0.580531 0
M  V30 5481 H 498.712 -0.559716 1.83138 0
M  V30 5482 H 497.017 -3.10672 2.38726 0
M  V30 5483 H 498.714 -2.93083 2.73685 0
M  V30 5484 H 495.304 -1.9739 3.80441 0
M  V30 5485 H 499.488 -1.5829 4.70381 0
M  V30 5486 H 494.744 -1.06817 6.01997 0
M  V30 5487 H 498.918 -0.685608 6.93017 0
M  V30 5488 H 496.545 -0.42253 7.59025 0
M  V30 5489 O 498.159 -1.47868 -0.649398 0
M  V30 5490 H 498.85 -1.43327 -1.30297 0
M  V30 END ATOM
M  V30 BEGIN BOND
M  V30 END BOND
M  V30 END CTAB
M  END
$$$$
