drugbank_target|Q96QT4 Transient receptor potential cation channel subfamily M member 7 (DB04395; DB04447)
 OpenBabel12092120563D

  0  0  0     0  0            999 V3000
M  V30 BEGIN CTAB
M  V30 COUNTS 29950 30295 0 0 0
M  V30 BEGIN ATOM
M  V30 1 H -0.908 1.98254 -0.117106 0
M  V30 2 N 0 1.576 0 0
M  V30 3 C 0.933 2.03868 1.02534 0
M  V30 4 C 1.911 0.928543 1.3348 0
M  V30 5 O 3.095 1.19667 1.45644 0
M  V30 6 C 0.222 2.43627 2.35294 0
M  V30 7 C -0.732 3.65373 2.2001 0
M  V30 8 S 0.101 5.13292 1.52614 0
M  V30 9 C 1.257 5.56322 2.86805 0
M  V30 10 H 1.49 2.90518 0.631377 0
M  V30 11 H -0.977 1.52953 0.210867 0
M  V30 12 H 0.981 2.67203 3.11629 0
M  V30 13 H -0.358 1.57376 2.7183 0
M  V30 14 H -1.165 3.90944 3.18086 0
M  V30 15 H -1.563 3.418 1.51819 0
M  V30 16 H 0.729 5.58782 3.83104 0
M  V30 17 H 1.672 6.56266 2.65933 0
M  V30 18 H 2.08 4.83886 2.90714 0
M  V30 19 N 1.4781 -0.272755 1.55222 0
M  V30 20 C 2.7031 -1.02683 1.80197 0
M  V30 21 C 3.1281 -1.79142 0.573551 0
M  V30 22 O 2.4861 -1.74917 -0.476849 0
M  V30 23 C 2.5341 -1.9609 3.02624 0
M  V30 24 O 1.6381 -3.04863 2.77727 0
M  V30 25 H 0.9791 -0.293557 0.595584 0
M  V30 26 H 3.5091 -0.30159 2.02365 0
M  V30 27 H 3.5191 -2.38039 3.31363 0
M  V30 28 H 2.1941 -1.39851 3.91682 0
M  V30 29 H 0.7711 -2.67228 2.60084 0
M  V30 30 N 2.9562 -1.48159 -0.537278 0
M  V30 31 C 3.8882 -1.58218 -1.65831 0
M  V30 32 C 4.9012 -0.466948 -1.5596 0
M  V30 33 O 6.0902 -0.73747 -1.62553 0
M  V30 34 C 3.1902 -1.48906 -3.04434 0
M  V30 35 C 2.3632 -2.75343 -3.3986 0
M  V30 36 C 1.4222 -2.59588 -4.57712 0
M  V30 37 O 0.4482 -3.33457 -4.61297 0
M  V30 38 N 1.6502 -1.68724 -5.55439 0
M  V30 39 H 4.4152 -2.54891 -1.57641 0
M  V30 40 H 1.9762 -1.4479 -0.724386 0
M  V30 41 H 3.9682 -1.36072 -3.81139 0
M  V30 42 H 2.5382 -0.602368 -3.06741 0
M  V30 43 H 1.7582 -3.02795 -2.52406 0
M  V30 44 H 3.0462 -3.5924 -3.60311 0
M  V30 45 H 2.4442 -1.07898 -5.55315 0
M  V30 46 H 1.0012 -1.61832 -6.3139 0
M  V30 47 N 4.4343 0.785586 -1.36625 0
M  V30 48 C 5.3813 1.89838 -1.31264 0
M  V30 49 C 6.3513 1.65115 -0.180633 0
M  V30 50 O 7.5363 1.87222 -0.36777 0
M  V30 51 C 4.6763 3.26706 -1.11163 0
M  V30 52 C 3.7893 3.63476 -2.33472 0
M  V30 53 C 2.9243 4.89481 -2.06353 0
M  V30 54 C 1.9633 5.18941 -3.24602 0
M  V30 55 N 1.1003 6.36131 -2.97123 0
M  V30 56 H 5.9403 1.93756 -2.26413 0
M  V30 57 H 3.4773 0.947454 -1.12524 0
M  V30 58 H 5.4353 4.05639 -0.975337 0
M  V30 59 H 4.0653 3.222 -0.196674 0
M  V30 60 H 3.1173 2.79636 -2.57891 0
M  V30 61 H 4.4293 3.81193 -3.21704 0
M  V30 62 H 3.5833 5.76288 -1.89675 0
M  V30 63 H 2.3223 4.73841 -1.15437 0
M  V30 64 H 1.3273 4.30615 -3.41834 0
M  V30 65 H 2.5523 5.36498 -4.16349 0
M  V30 66 H 0.4983 6.21875 -2.08823 0
M  V30 67 H 0.4153 6.54198 -3.78894 0
M  V30 68 H 1.6833 7.2591 -2.84033 0
M  V30 69 N 5.9124 1.20967 1.01018 0
M  V30 70 C 7.1374 1.0503 1.78839 0
M  V30 71 C 7.5624 -0.395752 1.8389 0
M  V30 72 O 6.9204 -1.28529 1.27867 0
M  V30 73 C 6.9684 1.64602 3.2084 0
M  V30 74 O 6.0724 0.887988 4.02726 0
M  V30 75 H 5.4134 0.369987 0.551367 0
M  V30 76 H 7.9434 1.60399 1.27018 0
M  V30 77 H 7.9534 1.68607 3.71532 0
M  V30 78 H 6.6284 2.69841 3.16479 0
M  V30 79 H 5.2054 0.922648 3.61305 0
M  V30 80 N 7.3905 -1.2043 1.01659 0
M  V30 81 C 8.6365 -1.90356 0.716674 0
M  V30 82 C 8.9915 -1.77367 -0.745557 0
M  V30 83 O 8.2845 -1.1471 -1.53467 0
M  V30 84 C 8.4785 -3.40464 1.08714 0
M  V30 85 C 8.3075 -3.6806 2.58384 0
M  V30 86 C 7.0775 -3.86775 3.25167 0
M  V30 87 C 9.2755 -3.70623 3.56572 0
M  V30 88 N 7.2575 -4.01889 4.64067 0
M  V30 89 C 8.6285 -3.91161 4.81034 0
M  V30 90 C 10.6835 -3.53586 3.50544 0
M  V30 91 C 9.3865 -3.96428 6.00198 0
M  V30 92 C 11.4125 -3.60125 4.6911 0
M  V30 93 C 10.7745 -3.81135 5.92381 0
M  V30 94 H 6.8735 -0.716226 0.313918 0
M  V30 95 H 9.4575 -1.44815 1.30141 0
M  V30 96 H 7.6285 -3.84757 0.530745 0
M  V30 97 H 9.3605 -3.97863 0.740763 0
M  V30 98 H 6.1155 -3.85156 2.75594 0
M  V30 99 H 6.5395 -4.13323 5.36184 0
M  V30 100 H 11.1815 -3.36308 2.56235 0
M  V30 101 H 8.8995 -4.12502 6.94887 0
M  V30 102 H 12.4855 -3.4825 4.66062 0
M  V30 103 H 11.3655 -3.86054 6.82592 0
M  V30 104 N 8.8686 -0.792821 -1.36206 0
M  V30 105 C 10.1176 -0.363353 -1.984 0
M  V30 106 C 10.4306 1.07172 -1.63626 0
M  V30 107 O 11.6366 1.60362 -2.19081 0
M  V30 108 C 10.0926 -0.59872 -3.54885 0
M  V30 109 C 9.7006 -2.04543 -3.9858 0
M  V30 110 C 11.4446 -0.233926 -4.23855 0
M  V30 111 C 9.3516 -2.22727 -5.47856 0
M  V30 112 H 8.2816 -0.13212 -0.742334 0
M  V30 113 H 10.9326 -0.974935 -1.55458 0
M  V30 114 H 9.3146 0.0826222 -3.95914 0
M  V30 115 H 10.4886 -2.76345 -3.68741 0
M  V30 116 H 8.8036 -2.36879 -3.42458 0
M  V30 117 H 11.4006 -0.348027 -5.33566 0
M  V30 118 H 11.7436 0.818351 -4.08177 0
M  V30 119 H 12.2766 -0.868639 -3.882 0
M  V30 120 H 9.0156 -3.2635 -5.68486 0
M  V30 121 H 8.5356 -1.55434 -5.7931 0
M  V30 122 H 10.2146 -2.03607 -6.14128 0
M  V30 123 N 10.3467 1.47872 -0.545128 0
M  V30 124 C 11.2567 2.33633 0.212746 0
M  V30 125 C 12.2727 1.4744 0.923983 0
M  V30 126 O 13.4487 1.80393 0.895572 0
M  V30 127 C 10.5137 3.23884 1.23693 0
M  V30 128 C 9.5747 4.25961 0.534417 0
M  V30 129 C 8.8077 5.11899 1.5098 0
M  V30 130 O 9.0307 5.00077 2.7437 0
M  V30 131 O 7.9647 5.92831 1.0409 0
M  V30 132 H 11.7907 2.99714 -0.490416 0
M  V30 133 H 9.3757 1.46235 -0.305871 0
M  V30 134 H 11.2577 3.79666 1.82843 0
M  V30 135 H 9.9327 2.60446 1.92222 0
M  V30 136 H 8.8397 3.73972 -0.0979679 0
M  V30 137 H 10.1727 4.92079 -0.109213 0
M  V30 138 N 11.8248 0.280983 1.55075 0
M  V30 139 C 13.0498 -0.340154 2.04592 0
M  V30 140 C 13.4748 -1.48246 1.15779 0
M  V30 141 O 12.8328 -1.80614 0.15761 0
M  V30 142 C 12.8808 -0.793104 3.5177 0
M  V30 143 O 11.9848 -1.89981 3.66034 0
M  V30 144 H 11.3258 -0.0694289 0.66036 0
M  V30 145 H 13.8558 0.416993 2.00306 0
M  V30 146 H 13.8658 -1.08729 3.93245 0
M  V30 147 H 12.5408 0.0426163 4.15878 0
M  V30 148 H 11.1178 -1.60771 3.36463 0
M  V30 149 N 13.3029 -1.57598 0.00835791 0
M  V30 150 C 14.5309 -1.95214 -0.68549 0
M  V30 151 C 14.9459 -0.883706 -1.66841 0
M  V30 152 O 14.3029 0.136565 -1.81988 0
M  V30 153 C 14.3539 -3.32865 -1.41007 0
M  V30 154 O 14.0749 -4.35609 -0.466552 0
M  V30 155 C 15.5759 -3.84991 -2.19765 0
M  V30 156 H 12.7959 -0.643422 -0.190392 0
M  V30 157 H 15.3399 -2.04406 0.0619607 0
M  V30 158 H 13.4949 -3.24956 -2.10908 0
M  V30 159 H 13.9089 -5.15288 -0.978699 0
M  V30 160 H 15.3829 -4.8371 -2.65948 0
M  V30 161 H 15.8599 -3.18137 -3.02796 0
M  V30 162 H 16.4659 -3.96103 -1.54864 0
M  V30 163 N 14.781 0.264519 -1.55364 0
M  V30 164 C 15.711 1.33121 -1.91836 0
M  V30 165 C 16.692 1.51101 -0.781192 0
M  V30 166 O 17.877 1.64003 -1.04003 0
M  V30 167 C 15.007 2.68921 -2.19769 0
M  V30 168 C 13.961 2.65661 -3.35571 0
M  V30 169 C 13.287 4.05093 -3.49004 0
M  V30 170 C 14.587 2.24187 -4.71739 0
M  V30 171 H 16.281 1.02844 -2.81182 0
M  V30 172 H 13.827 0.493286 -1.35287 0
M  V30 173 H 15.78 3.43663 -2.43872 0
M  V30 174 H 14.504 3.00799 -1.27231 0
M  V30 175 H 13.163 1.93377 -3.1145 0
M  V30 176 H 12.811 4.34206 -2.53917 0
M  V30 177 H 12.511 4.03804 -4.26868 0
M  V30 178 H 14.035 4.81561 -3.75408 0
M  V30 179 H 15.449 2.88654 -4.9533 0
M  V30 180 H 13.846 2.34044 -5.52579 0
M  V30 181 H 14.916 1.19327 -4.69988 0
M  V30 182 N 16.2591 1.48442 0.529413 0
M  V30 183 C 17.4871 1.60151 1.30994 0
M  V30 184 C 17.9021 0.261985 1.86973 0
M  V30 185 O 17.2591 -0.748805 1.66431 0
M  V30 186 C 17.3101 2.64854 2.46038 0
M  V30 187 O 17.0311 3.93608 1.92365 0
M  V30 188 C 18.5321 2.87007 3.37849 0
M  V30 189 H 15.7521 0.539971 0.398338 0
M  V30 190 H 18.2961 1.94273 0.638597 0
M  V30 191 H 16.4511 2.33589 3.09055 0
M  V30 192 H 16.8651 4.51055 2.67675 0
M  V30 193 H 18.3391 3.64068 4.14919 0
M  V30 194 H 18.8161 1.95852 3.93114 0
M  V30 195 H 19.4221 3.19579 2.80623 0
M  V30 196 N 17.7372 -0.778329 1.37039 0
M  V30 197 C 18.6842 -1.89139 1.32269 0
M  V30 198 C 19.6542 -1.65017 0.189387 0
M  V30 199 O 20.8392 -1.87024 0.377693 0
M  V30 200 C 17.9792 -3.26112 1.12894 0
M  V30 201 C 17.0922 -3.62233 2.35396 0
M  V30 202 C 16.2272 -4.8838 2.08946 0
M  V30 203 C 15.2662 -5.17212 3.2735 0
M  V30 204 N 14.4032 -6.34546 3.00492 0
M  V30 205 H 19.2432 -1.92552 2.27437 0
M  V30 206 H 16.7802 -0.941473 1.13025 0
M  V30 207 H 18.7382 -4.05116 0.996835 0
M  V30 208 H 17.3682 -3.22091 0.213758 0
M  V30 209 H 16.4202 -2.78265 2.5937 0
M  V30 210 H 17.7322 -3.79481 3.23721 0
M  V30 211 H 16.8862 -5.75274 1.92729 0
M  V30 212 H 15.6252 -4.73222 1.17949 0
M  V30 213 H 14.6302 -4.28796 3.44113 0
M  V30 214 H 15.8552 -5.34283 4.19188 0
M  V30 215 H 13.8012 -6.20759 2.12118 0
M  V30 216 H 13.7182 -6.52179 3.82358 0
M  V30 217 H 14.9862 -7.24394 2.87879 0
M  V30 218 N 19.2153 -1.21501 -1.00376 0
M  V30 219 C 20.6313 -0.972629 -1.26539 0
M  V30 220 C 20.8313 0.340257 -1.98606 0
M  V30 221 O 19.8873 1.06561 -2.28913 0
M  V30 222 C 21.2003 -2.16404 -2.08781 0
M  V30 223 C 22.7483 -2.20643 -2.22004 0
M  V30 224 C 23.2233 -3.39306 -3.07629 0
M  V30 225 N 24.7143 -3.39401 -3.15217 0
M  V30 226 C 25.4493 -4.27867 -3.81729 0
M  V30 227 N 24.9453 -5.26533 -4.5026 0
M  V30 228 N 26.7383 -4.15672 -3.78382 0
M  V30 229 H 18.8893 -2.05929 -0.520281 0
M  V30 230 H 21.1523 -0.901803 -0.292328 0
M  V30 231 H 20.8583 -3.11554 -1.63178 0
M  V30 232 H 20.7323 -2.15567 -3.09533 0
M  V30 233 H 23.1193 -1.26048 -2.66825 0
M  V30 234 H 23.2003 -2.25523 -1.20718 0
M  V30 235 H 22.8443 -4.34195 -2.63509 0
M  V30 236 H 22.7743 -3.31665 -4.09031 0
M  V30 237 H 25.2653 -2.67997 -2.66432 0
M  V30 238 H 25.5783 -5.90337 -4.98721 0
M  V30 239 H 23.9233 -5.30457 -4.49044 0
M  V30 240 H 27.1143 -3.3785 -3.23998 0
M  V30 241 H 27.2873 -4.84825 -4.2994 0
M  V30 242 N 20.6934 1.19889 -1.02296 0
M  V30 243 C 21.6034 2.26571 -0.608508 0
M  V30 244 C 22.6194 1.70299 0.356964 0
M  V30 245 O 23.7954 2.00235 0.216326 0
M  V30 246 C 20.8604 3.46677 0.0402814 0
M  V30 247 C 19.9214 4.18153 -0.97194 0
M  V30 248 C 19.1544 5.32525 -0.354016 0
M  V30 249 O 19.3774 5.64112 0.844604 0
M  V30 250 O 18.3114 5.92242 -1.07391 0
M  V30 251 H 22.1374 2.64251 -1.49684 0
M  V30 252 H 19.7224 1.26629 -0.792809 0
M  V30 253 H 21.6044 4.19475 0.402324 0
M  V30 254 H 20.2794 3.10858 0.902707 0
M  V30 255 H 19.1864 3.47499 -1.38546 0
M  V30 256 H 20.5194 4.57927 -1.80454 0
M  V30 257 N 22.1715 0.800033 1.35784 0
M  V30 258 C 23.4115 0.382891 2.00782 0
M  V30 259 C 23.7755 -1.02891 1.62103 0
M  V30 260 O 24.9765 -1.54771 2.19771 0
M  V30 261 C 23.2475 0.553299 3.53091 0
M  V30 262 S 24.8065 0.225608 4.3822 0
M  V30 263 H 21.6245 0.145737 0.695904 0
M  V30 264 H 24.2265 1.04085 1.65489 0
M  V30 265 H 22.9305 1.58091 3.78729 0
M  V30 266 H 22.4615 -0.120214 3.93216 0
M  V30 267 H 24.4765 -0.969074 4.86645 0
M  V30 268 N 23.6496 -1.47581 0.552962 0
M  V30 269 C 24.8956 -2.02782 0.0273648 0
M  V30 270 C 25.2286 -1.42687 -1.31734 0
M  V30 271 O 24.5036 -0.580897 -1.85623 0
M  V30 272 C 24.7866 -3.60031 -0.0702371 0
M  V30 273 C 24.6396 -4.30566 1.30126 0
M  V30 274 C 25.9586 -4.33028 -0.785771 0
M  V30 275 H 23.0776 -0.736912 0.0114185 0
M  V30 276 H 25.7196 -1.76056 0.714432 0
M  V30 277 H 23.8696 -3.82932 -0.655382 0
M  V30 278 H 25.5416 -4.19018 1.92929 0
M  V30 279 H 23.7846 -3.91086 1.87709 0
M  V30 280 H 24.4556 -5.39114 1.18573 0
M  V30 281 H 26.9316 -4.15095 -0.288982 0
M  V30 282 H 25.8076 -5.42695 -0.823013 0
M  V30 283 H 26.0686 -4.01945 -1.841 0
M  V30 284 N 25.1277 -0.289203 -1.54924 0
M  V30 285 C 26.3577 0.325989 -2.04012 0
M  V30 286 C 26.7657 1.48961 -1.1665 0
M  V30 287 O 26.1087 1.82794 -0.1822 0
M  V30 288 C 26.1707 0.856112 -3.49158 0
M  V30 289 C 25.8347 -0.180697 -4.56643 0
M  V30 290 C 26.8317 -1.0051 -5.10092 0
M  V30 291 C 24.5167 -0.318998 -5.01286 0
M  V30 292 C 26.5107 -1.95385 -6.06715 0
M  V30 293 C 24.1977 -1.27121 -5.97732 0
M  V30 294 C 25.1957 -2.08713 -6.50329 0
M  V30 295 O 24.8837 -3.02322 -7.44887 0
M  V30 296 H 24.6157 0.0765276 -0.671654 0
M  V30 297 H 27.1697 -0.423254 -2.00992 0
M  V30 298 H 25.3997 1.65567 -3.49463 0
M  V30 299 H 27.0887 1.38591 -3.81507 0
M  V30 300 H 27.8547 -0.90906 -4.76404 0
M  V30 301 H 23.7337 0.306108 -4.59983 0
M  V30 302 H 27.2777 -2.59111 -6.47694 0
M  V30 303 H 23.1747 -1.36801 -6.30837 0
M  V30 304 H 23.9427 -2.97165 -7.6265 0
M  V30 305 N 26.6058 1.57591 -0.0167156 0
M  V30 306 C 27.8548 1.90461 0.663877 0
M  V30 307 C 28.1678 0.893515 1.73999 0
M  V30 308 O 29.3738 1.11302 2.47637 0
M  V30 309 C 27.8298 3.38155 1.23204 0
M  V30 310 C 27.4378 4.47597 0.189866 0
M  V30 311 C 29.1818 3.80111 1.88986 0
M  V30 312 C 27.0888 5.86379 0.768964 0
M  V30 313 H 26.0188 0.710738 0.251729 0
M  V30 314 H 28.6698 1.83326 -0.0799926 0
M  V30 315 H 27.0518 3.40182 2.02712 0
M  V30 316 H 28.2258 4.57112 -0.581846 0
M  V30 317 H 26.5408 4.14766 -0.368475 0
M  V30 318 H 29.1378 4.81145 2.33247 0
M  V30 319 H 29.4808 3.14511 2.72743 0
M  V30 320 H 30.0138 3.80454 1.16187 0
M  V30 321 H 26.7528 6.55493 -0.0301957 0
M  V30 322 H 26.2728 5.80496 1.50945 0
M  V30 323 H 27.9518 6.34563 1.26251 0
M  V30 324 N 28.0839 -0.256276 1.55502 0
M  V30 325 C 29.3329 -0.983486 1.76098 0
M  V30 326 C 29.6459 -1.86837 0.578896 0
M  V30 327 O 30.8519 -2.63163 0.667648 0
M  V30 328 C 29.3079 -1.79868 3.1173 0
M  V30 329 C 28.9159 -0.961648 4.37557 0
M  V30 330 C 30.6599 -2.51919 3.41668 0
M  V30 331 C 28.5669 -1.77219 5.64223 0
M  V30 332 H 27.4969 -0.370936 0.656447 0
M  V30 333 H 30.1479 -0.238492 1.81944 0
M  V30 334 H 28.5299 -2.58527 2.99966 0
M  V30 335 H 29.7039 -0.218048 4.60284 0
M  V30 336 H 28.0189 -0.354913 4.14885 0
M  V30 337 H 30.6159 -3.12998 4.33516 0
M  V30 338 H 30.9589 -3.23059 2.62562 0
M  V30 339 H 31.4919 -1.80278 3.54605 0
M  V30 340 H 28.2309 -1.10471 6.46124 0
M  V30 341 H 27.7509 -2.49132 5.45613 0
M  V30 342 H 29.4299 -2.34169 6.03137 0
M  V30 343 N 29.562 -1.4872 -0.521534 0
M  V30 344 C 30.973 -1.50607 -1.10337 0
M  V30 345 C 31.324 -0.280612 -1.94183 0
M  V30 346 O 30.449 0.611507 -2.0758 0
M  V30 347 C 31.044 -2.72903 -2.00772 0
M  V30 348 C 29.603 -2.77634 -2.54158 0
M  V30 349 C 28.75 -2.44241 -1.31307 0
M  V30 350 H 31.701 -1.55714 -0.306388 0
M  V30 351 H 31.722 -2.519 -2.85178 0
M  V30 352 H 31.234 -3.62077 -1.39721 0
M  V30 353 H 29.335 -1.92689 -3.18907 0
M  V30 354 H 29.448 -3.79283 -2.92714 0
M  V30 355 H 27.812 -1.95577 -1.63161 0
M  V30 356 H 28.595 -3.35666 -0.719943 0
M  V30 357 N 31.0401 0.771051 -1.3745 0
M  V30 358 C 32.2651 1.56529 -1.36065 0
M  V30 359 C 32.6901 1.88029 0.0515859 0
M  V30 360 O 32.0481 1.49282 1.02882 0
M  V30 361 C 32.0961 2.85187 -2.20683 0
M  V30 362 O 31.2001 3.79593 -1.61193 0
M  V30 363 H 30.5411 0.47411 -0.464883 0
M  V30 364 H 33.0711 0.954269 -1.80983 0
M  V30 365 H 33.0811 3.34283 -2.33921 0
M  V30 366 H 31.7561 2.61588 -3.23334 0
M  V30 367 H 30.3331 3.38239 -1.56999 0
M  V30 368 N 32.5182 1.22032 0.997298 0
M  V30 369 C 33.7432 1.06921 1.77715 0
M  V30 370 C 34.1682 -0.376226 1.84299 0
M  V30 371 O 33.5262 -1.27165 1.29223 0
M  V30 372 C 33.5742 1.67996 3.19076 0
M  V30 373 O 32.6782 0.930653 4.01762 0
M  V30 374 H 32.0192 0.375814 0.547412 0
M  V30 375 H 34.5492 1.61737 1.25309 0
M  V30 376 H 34.5592 1.72538 3.69723 0
M  V30 377 H 33.2342 2.73182 3.13599 0
M  V30 378 H 31.8112 0.960917 3.60307 0
M  V30 379 N 33.9963 -1.19345 1.0293 0
M  V30 380 C 34.9433 -2.2258 0.610464 0
M  V30 381 C 35.9133 -1.6179 -0.375946 0
M  V30 382 O 37.0983 -1.88844 -0.272511 0
M  V30 383 C 34.2383 -3.45085 -0.0321473 0
M  V30 384 C 33.3513 -4.20258 1.00035 0
M  V30 385 C 32.4863 -5.3019 0.32746 0
M  V30 386 C 31.5253 -5.97121 1.34584 0
M  V30 387 N 30.6623 -6.98615 0.698726 0
M  V30 388 H 35.5023 -2.57764 1.49538 0
M  V30 389 H 33.0393 -1.26644 0.748311 0
M  V30 390 H 34.9973 -4.15061 -0.421966 0
M  V30 391 H 33.6273 -3.10555 -0.88064 0
M  V30 392 H 32.6793 -3.49223 1.50823 0
M  V30 393 H 33.9913 -4.66175 1.77433 0
M  V30 394 H 33.1453 -6.06587 -0.11718 0
M  V30 395 H 31.8843 -4.85345 -0.478713 0
M  V30 396 H 30.8893 -5.19474 1.80074 0
M  V30 397 H 32.1143 -6.4405 2.15352 0
M  V30 398 H 30.0603 -6.55942 -0.0873471 0
M  V30 399 H 29.9773 -7.42724 1.41058 0
M  V30 400 H 31.2453 -7.79004 0.278102 0
M  V30 401 N 35.4744 -0.807222 -1.35358 0
M  V30 402 C 36.7514 -0.311126 -1.9311 0
M  V30 403 C 37.1314 1.19937 -1.73719 0
M  V30 404 O 36.4794 1.99918 -1.10657 0
M  V30 405 C 36.6894 -0.723226 -3.41424 0
M  V30 406 C 38.0374 -0.713078 -4.18569 0
M  V30 407 O 39.0614 -0.664811 -3.49941 0
M  V30 408 O 37.9204 -0.772022 -5.41019 0
M  V30 409 H 35.0144 -0.081526 -0.822972 0
M  V30 410 H 37.5604 -0.890962 -1.4443 0
M  V30 411 H 36.3324 -1.76426 -3.4927 0
M  V30 412 H 35.9554 -0.118232 -3.97424 0
M  V30 413 N 36.9525 1.47285 -0.560781 0
M  V30 414 C 38.3635 1.86258 -0.128343 0
M  V30 415 C 38.7145 1.46699 1.30284 0
M  V30 416 O 37.8395 0.871698 1.98067 0
M  V30 417 C 38.4345 3.38044 -0.22614 0
M  V30 418 C 36.9935 3.76096 0.151283 0
M  V30 419 C 36.1405 2.71335 -0.572084 0
M  V30 420 H 39.0915 1.38752 -0.770297 0
M  V30 421 H 39.1125 3.76441 0.554322 0
M  V30 422 H 38.6245 3.66806 -1.26788 0
M  V30 423 H 36.7255 3.52951 1.19399 0
M  V30 424 H 36.8385 4.78641 -0.209765 0
M  V30 425 H 35.2025 2.54696 -0.0147653 0
M  V30 426 H 35.9855 3.02938 -1.61504 0
M  V30 427 N 38.4306 0.297415 1.54768 0
M  V30 428 C 39.3806 -0.595275 2.20092 0
M  V30 429 C 40.3646 -1.10163 1.17273 0
M  V30 430 O 41.5566 -1.043 1.43006 0
M  V30 431 C 38.6856 -1.7684 2.94249 0
M  V30 432 C 37.7716 -1.27818 4.0438 0
M  V30 433 N 38.1626 -0.505695 5.03266 0
M  V30 434 C 36.4606 -1.55923 4.17857 0
M  V30 435 C 37.1616 -0.245094 5.81183 0
M  V30 436 N 36.1376 -0.823881 5.3732 0
M  V30 437 H 39.9396 0.00250837 2.939 0
M  V30 438 H 37.4536 0.102007 1.62079 0
M  V30 439 H 39.4506 -2.41944 3.39513 0
M  V30 440 H 38.1106 -2.36992 2.21957 0
M  V30 441 H 39.1216 -0.150928 5.1768 0
M  V30 442 H 35.7986 -2.16849 3.56767 0
M  V30 443 H 37.1886 0.375084 6.70852 0
M  V30 444 N 39.9087 -1.5758 0.0250728 0
M  V30 445 C 41.3247 -1.56124 -0.331282 0
M  V30 446 C 41.5247 -1.03029 -1.73169 0
M  V30 447 O 40.5807 -0.675215 -2.43305 0
M  V30 448 C 41.8937 -3.00139 -0.183584 0
M  V30 449 C 43.4417 -3.11946 -0.256654 0
M  V30 450 C 43.9167 -4.57793 -0.137792 0
M  V30 451 N 45.4077 -4.6279 -0.194904 0
M  V30 452 C 46.1427 -5.7326 -0.126655 0
M  V30 453 N 45.6387 -6.928 -0.00755288 0
M  V30 454 N 47.4317 -5.61811 -0.180348 0
M  V30 455 H 39.5827 -1.90424 0.94087 0
M  V30 456 H 41.8457 -0.875761 0.362968 0
M  V30 457 H 41.5517 -3.4292 0.780927 0
M  V30 458 H 41.4257 -3.64899 -0.955448 0
M  V30 459 H 43.8127 -2.69079 -1.21162 0
M  V30 460 H 43.8937 -2.49915 0.545517 0
M  V30 461 H 43.5377 -5.01339 0.813739 0
M  V30 462 H 43.4677 -5.17798 -0.958775 0
M  V30 463 H 45.9587 -3.76807 -0.287267 0
M  V30 464 H 46.2717 -7.72791 0.0379428 0
M  V30 465 H 44.6167 -6.94995 0.0271731 0
M  V30 466 H 47.8077 -4.6731 -0.271767 0
M  V30 467 H 47.9807 -6.47882 -0.123697 0
M  V30 468 N 41.3868 0.248026 -1.55636 0
M  V30 469 C 42.6268 0.983592 -1.79178 0
M  V30 470 C 42.9908 1.82567 -0.594414 0
M  V30 471 O 44.1918 2.59292 -0.708583 0
M  V30 472 C 42.4628 1.82228 -3.07454 0
M  V30 473 S 44.0218 2.61709 -3.52213 0
M  V30 474 H 40.8398 0.330866 -0.629324 0
M  V30 475 H 43.4418 0.251562 -1.93875 0
M  V30 476 H 42.1458 1.19333 -3.92668 0
M  V30 477 H 41.6768 2.59708 -2.95492 0
M  V30 478 H 43.6918 3.84655 -3.13457 0
M  V30 479 N 42.8649 1.48995 0.513639 0
M  V30 480 C 43.7949 1.67636 1.62544 0
M  V30 481 C 44.7759 0.525087 1.61793 0
M  V30 482 O 45.9609 0.759502 1.78732 0
M  V30 483 C 43.0909 1.73114 3.01079 0
M  V30 484 C 42.0449 2.87905 3.16693 0
M  V30 485 C 41.3709 2.78486 4.56453 0
M  V30 486 C 42.6709 4.29005 2.97913 0
M  V30 487 H 44.3649 2.60716 1.47198 0
M  V30 488 H 41.9109 1.25465 0.706714 0
M  V30 489 H 43.8639 1.84742 3.78746 0
M  V30 490 H 42.5879 0.766241 3.17484 0
M  V30 491 H 41.2469 2.75859 2.41448 0
M  V30 492 H 40.8949 1.7993 4.69717 0
M  V30 493 H 40.5949 3.55523 4.67843 0
M  V30 494 H 42.1189 2.92104 5.36197 0
M  V30 495 H 43.5329 4.41798 3.65359 0
M  V30 496 H 41.9299 5.07166 3.20785 0
M  V30 497 H 42.9999 4.44329 1.94165 0
M  V30 498 N 44.343 -0.763751 1.37857 0
M  V30 499 C 45.754 -1.3405 1.29952 0
M  V30 500 C 46.105 -1.96138 -0.0492898 0
M  V30 501 O 45.23 -1.94372 -0.951239 0
M  V30 502 C 45.825 -2.43729 2.35333 0
M  V30 503 C 44.384 -2.97151 2.31037 0
M  V30 504 C 43.531 -1.70438 2.18738 0
M  V30 505 H 46.482 -0.563396 1.48363 0
M  V30 506 H 46.503 -3.23412 2.00462 0
M  V30 507 H 46.015 -1.9851 3.33489 0
M  V30 508 H 44.116 -3.46724 1.3643 0
M  V30 509 H 44.229 -3.52221 3.24772 0
M  V30 510 H 42.593 -1.93673 1.65418 0
M  V30 511 H 43.376 -1.27312 3.18821 0
M  V30 512 N 45.8211 -1.22559 -0.990812 0
M  V30 513 C 47.0691 -1.04933 -1.72724 0
M  V30 514 C 47.3901 0.416158 -1.90508 0
M  V30 515 O 46.6601 1.29918 -1.46622 0
M  V30 516 H 45.2401 -0.385296 -0.639965 0
M  V30 517 H 47.9021 -1.54105 -1.19322 0
M  V30 518 H 46.9981 -1.52886 -2.72089 0
M  V30 519 N 47.2992 1.18797 -1.03562 0
M  V30 520 C 48.5392 1.90346 -0.744832 0
M  V30 521 C 48.9032 1.78231 0.713972 0
M  V30 522 O 50.1042 2.44441 1.11813 0
M  V30 523 C 48.3752 3.36942 -1.19184 0
M  V30 524 S 49.9342 4.26638 -1.02593 0
M  V30 525 H 46.7522 0.657343 -0.270963 0
M  V30 526 H 49.3542 1.43579 -1.32685 0
M  V30 527 H 48.0582 3.43287 -2.24905 0
M  V30 528 H 47.5892 3.88745 -0.603397 0
M  V30 529 H 49.6042 4.96164 0.0596033 0
M  V30 530 N 48.7773 0.814389 1.34928 0
M  V30 531 C 49.7093 0.187834 2.28429 0
M  V30 532 C 50.7223 -0.617374 1.5064 0
M  V30 533 O 51.9113 -0.448454 1.72775 0
M  V30 534 C 49.0113 -0.755962 3.30361 0
M  V30 535 C 48.1843 0.00456686 4.374 0
M  V30 536 C 47.2433 -0.858876 5.19143 0
M  V30 537 O 46.2693 -0.306968 5.68372 0
M  V30 538 N 47.4713 -2.17988 5.38016 0
M  V30 539 H 50.2363 0.991105 2.82838 0
M  V30 540 H 47.7973 0.670561 1.4736 0
M  V30 541 H 49.7893 -1.338 3.81942 0
M  V30 542 H 48.3593 -1.46001 2.7641 0
M  V30 543 H 47.5793 0.767865 3.86649 0
M  V30 544 H 48.8673 0.528422 5.06049 0
M  V30 545 H 48.2653 -2.65212 4.99679 0
M  V30 546 H 46.8223 -2.71098 5.92747 0
M  V30 547 N 50.2554 -1.46986 0.568584 0
M  V30 548 C 51.5044 -2.01646 0.0465894 0
M  V30 549 C 51.8174 -1.44721 -1.31587 0
M  V30 550 O 53.0234 -1.91113 -1.92842 0
M  V30 551 C 51.4794 -3.59885 0.032752 0
M  V30 552 C 51.0874 -4.25804 1.39266 0
M  V30 553 C 52.8314 -4.22255 -0.436038 0
M  V30 554 C 50.7384 -5.76081 1.33732 0
M  V30 555 H 49.6684 -0.753876 0.013647 0
M  V30 556 H 52.3194 -1.68864 0.718131 0
M  V30 557 H 50.7014 -3.8968 -0.704669 0
M  V30 558 H 51.8754 -4.07637 2.1487 0
M  V30 559 H 50.1904 -3.7547 1.80032 0
M  V30 560 H 52.7874 -5.32394 -0.49602 0
M  V30 561 H 53.1304 -3.90212 -1.45053 0
M  V30 562 H 53.6634 -3.97033 0.246877 0
M  V30 563 H 50.4024 -6.12761 2.32817 0
M  V30 564 H 49.9224 -5.96553 0.623267 0
M  V30 565 H 51.6014 -6.38518 1.0442 0
M  V30 566 N 51.7335 -0.305618 -1.54608 0
M  V30 567 C 52.9735 0.303114 -2.0214 0
M  V30 568 C 53.3375 1.50737 -1.18921 0
M  V30 569 O 54.5385 2.18778 -1.56172 0
M  V30 570 C 52.8095 0.646332 -3.51507 0
M  V30 571 S 54.3685 1.23727 -4.20995 0
M  V30 572 H 51.1865 0.0927643 -0.704923 0
M  V30 573 H 53.7885 -0.434566 -1.90609 0
M  V30 574 H 52.4925 -0.238541 -4.09706 0
M  V30 575 H 52.0235 1.41468 -3.67084 0
M  V30 576 H 54.0385 2.52489 -4.27158 0
M  V30 577 N 53.2116 1.57565 -0.0334293 0
M  V30 578 C 54.1436 2.0739 0.975811 0
M  V30 579 C 55.1566 0.998166 1.2861 0
M  V30 580 O 56.3456 1.27426 1.25 0
M  V30 581 C 53.4456 2.4871 2.30209 0
M  V30 582 C 52.6186 3.79413 2.17634 0
M  V30 583 C 51.6776 4.07237 3.33233 0
M  V30 584 O 50.7036 4.77425 3.09927 0
M  V30 585 N 51.9056 3.5775 4.5716 0
M  V30 586 H 54.6706 2.94598 0.55066 0
M  V30 587 H 52.2316 1.61173 0.15323 0
M  V30 588 H 54.2236 2.64413 3.06378 0
M  V30 589 H 52.7936 1.66845 2.64351 0
M  V30 590 H 52.0136 3.73465 1.26165 0
M  V30 591 H 53.3016 4.65038 2.0644 0
M  V30 592 H 52.6996 3.00976 4.78989 0
M  V30 593 H 51.2566 3.78724 5.30482 0
M  V30 594 N 54.6897 -0.239769 1.55765 0
M  V30 595 C 55.6217 -1.32001 1.87372 0
M  V30 596 C 56.6347 -1.43944 0.760522 0
M  V30 597 O 57.8237 -1.45167 1.0387 0
M  V30 598 C 54.9237 -2.69779 2.05115 0
M  V30 599 C 54.0967 -2.80014 3.36022 0
M  V30 600 C 53.1557 -3.98684 3.4342 0
M  V30 601 O 52.1817 -3.87877 4.16582 0
M  V30 602 N 53.3837 -5.12176 2.73232 0
M  V30 603 H 56.1487 -1.0522 2.80622 0
M  V30 604 H 53.7097 -0.429857 1.56089 0
M  V30 605 H 55.7017 -3.47517 2.07399 0
M  V30 606 H 54.2717 -2.89237 1.18577 0
M  V30 607 H 53.4917 -1.88896 3.45994 0
M  V30 608 H 54.7797 -2.83808 4.22292 0
M  V30 609 H 54.1777 -5.2385 2.13536 0
M  V30 610 H 52.7347 -5.88022 2.81199 0
M  V30 611 N 56.1678 -1.49265 -0.50573 0
M  V30 612 C 57.0978 -1.68495 -1.61653 0
M  V30 613 C 58.0788 -0.53366 -1.61512 0
M  V30 614 O 59.2638 -0.76897 -1.78327 0
M  V30 615 C 56.3938 -1.74709 -3.00157 0
M  V30 616 C 55.3478 -2.89581 -3.15162 0
M  V30 617 C 54.6738 -2.80903 -4.5497 0
M  V30 618 C 55.9738 -4.30578 -2.95634 0
M  V30 619 H 57.6678 -2.61493 -1.45814 0
M  V30 620 H 55.2138 -1.25838 -0.70005 0
M  V30 621 H 57.1668 -1.86748 -3.77761 0
M  V30 622 H 55.8908 -0.783067 -3.17074 0
M  V30 623 H 54.5498 -2.77136 -2.39982 0
M  V30 624 H 54.1978 -1.82419 -4.68756 0
M  V30 625 H 53.8978 -3.57999 -4.65951 0
M  V30 626 H 55.4218 -2.94944 -5.34641 0
M  V30 627 H 56.8358 -4.4373 -3.63011 0
M  V30 628 H 55.2328 -5.0886 -3.18091 0
M  V30 629 H 56.3028 -4.45352 -1.91806 0
M  V30 630 N 57.6459 0.756429 -1.3826 0
M  V30 631 C 58.8919 1.51772 -1.34511 0
M  V30 632 C 59.2249 1.94089 0.0656691 0
M  V30 633 O 58.4999 1.65221 1.02626 0
M  V30 634 C 58.7829 2.77226 -2.29821 0
M  V30 635 C 58.6359 2.41065 -3.79747 0
M  V30 636 C 59.9549 3.79236 -2.23312 0
M  V30 637 H 57.0739 0.550578 -0.489931 0
M  V30 638 H 59.7159 0.866607 -1.69086 0
M  V30 639 H 57.8659 3.32784 -2.00467 0
M  V30 640 H 59.5379 1.91303 -4.19763 0
M  V30 641 H 57.7809 1.7356 -3.97567 0
M  V30 642 H 58.4519 3.3081 -4.41892 0
M  V30 643 H 60.9279 3.3321 -2.49219 0
M  V30 644 H 59.8039 4.64714 -2.92116 0
M  V30 645 H 60.0649 4.24615 -1.23102 0
M  V30 646 N 59.124 1.23083 0.984299 0
M  V30 647 C 60.54 0.992637 1.24975 0
M  V30 648 C 60.74 -0.308618 1.99123 0
M  V30 649 O 59.796 -1.02905 2.30579 0
M  V30 650 C 61.109 2.19698 2.05312 0
M  V30 651 C 62.657 2.24147 2.18465 0
M  V30 652 C 63.132 3.44157 3.02192 0
M  V30 653 N 64.623 3.44372 3.09777 0
M  V30 654 C 65.358 4.33886 3.74874 0
M  V30 655 N 64.854 5.3363 4.41827 0
M  V30 656 N 66.647 4.21639 3.71721 0
M  V30 657 H 58.798 2.06731 0.487453 0
M  V30 658 H 61.061 0.906339 0.277944 0
M  V30 659 H 60.767 3.1411 1.58201 0
M  V30 660 H 60.641 2.20465 3.06064 0
M  V30 661 H 63.028 1.30277 2.64786 0
M  V30 662 H 63.109 2.27415 1.17115 0
M  V30 663 H 62.753 4.38332 2.56568 0
M  V30 664 H 62.683 3.3813 4.03702 0
M  V30 665 H 65.174 2.72201 2.62135 0
M  V30 666 H 65.487 5.98196 4.89266 0
M  V30 667 H 63.832 5.37534 4.40548 0
M  V30 668 H 67.023 3.42962 3.18582 0
M  V30 669 H 67.196 4.91604 4.22173 0
M  V30 670 N 60.6021 -1.18246 1.0419 0
M  V30 671 C 61.8421 -1.89948 0.754916 0
M  V30 672 C 62.2061 -1.78608 -0.70451 0
M  V30 673 O 63.4071 -2.4503 -1.10516 0
M  V30 674 C 61.6781 -3.36305 1.20969 0
M  V30 675 S 63.2371 -4.26088 1.04854 0
M  V30 676 H 60.0551 -0.655897 0.274446 0
M  V30 677 H 62.6571 -1.42873 1.33445 0
M  V30 678 H 61.3611 -3.42089 2.26722 0
M  V30 679 H 60.8921 -3.8842 0.624004 0
M  V30 680 H 62.9071 -4.96189 -0.0332896 0
M  V30 681 N 62.0802 -0.821533 -1.34494 0
M  V30 682 C 63.3272 -0.408946 -1.98328 0
M  V30 683 C 63.6552 1.02764 -1.65136 0
M  V30 684 O 62.9102 1.73026 -0.914349 0
M  V30 685 C 63.2092 -0.556512 -3.53041 0
M  V30 686 C 62.8752 -1.95861 -4.0614 0
M  V30 687 C 61.5372 -2.34217 -4.20352 0
M  V30 688 C 63.8892 -2.87523 -4.34718 0
M  V30 689 C 61.2172 -3.63572 -4.6047 0
M  V30 690 C 63.5692 -4.1634 -4.76281 0
M  V30 691 C 62.2332 -4.54675 -4.88699 0
M  V30 692 H 61.5032 -0.149644 -0.725732 0
M  V30 693 H 64.1502 -1.04521 -1.6046 0
M  V30 694 H 62.4552 0.163148 -3.9146 0
M  V30 695 H 64.1522 -0.217826 -4.00408 0
M  V30 696 H 60.7422 -1.65066 -3.95539 0
M  V30 697 H 64.9262 -2.59133 -4.23277 0
M  V30 698 H 60.1822 -3.93101 -4.68275 0
M  V30 699 H 64.3562 -4.87455 -4.97354 0
M  V30 700 H 61.9832 -5.54959 -5.19542 0
M  V30 701 N 63.5583 1.46682 -0.576371 0
M  V30 702 C 64.7983 2.04306 -0.0621356 0
M  V30 703 C 65.1623 1.4389 1.2712 0
M  V30 704 O 66.3633 1.92675 1.87429 0
M  V30 705 C 64.6343 3.57399 0.00927922 0
M  V30 706 S 66.1933 4.36309 0.466859 0
M  V30 707 H 63.0113 0.710167 -0.0344016 0
M  V30 708 H 65.6133 1.79807 -0.767437 0
M  V30 709 H 64.3173 3.98889 -0.965178 0
M  V30 710 H 63.8483 3.86424 0.737547 0
M  V30 711 H 65.8633 4.6533 1.72287 0
M  V30 712 N 65.0364 0.313813 1.54444 0
M  V30 713 C 66.2844 -0.291099 1.99993 0
M  V30 714 C 66.6054 -1.53418 1.20366 0
M  V30 715 O 65.8754 -1.93544 0.302927 0
M  V30 716 H 64.4554 -0.110552 0.738774 0
M  V30 717 H 67.1174 0.428106 1.9014 0
M  V30 718 H 66.2134 -0.554268 3.07139 0
M  V30 719 N 66.5145 -1.57545 0.0417849 0
M  V30 720 C 67.9305 -1.56467 -0.314704 0
M  V30 721 C 68.1305 -1.04859 -1.72066 0
M  V30 722 O 67.1865 -0.700983 -2.42575 0
M  V30 723 C 68.4995 -3.00317 -0.15174 0
M  V30 724 C 70.0475 -3.12201 -0.223553 0
M  V30 725 C 70.5225 -4.57913 -0.0892295 0
M  V30 726 N 72.0135 -4.6297 -0.145808 0
M  V30 727 C 72.7485 -5.73362 -0.0658459 0
M  V30 728 N 72.2445 -6.92769 0.0659282 0
M  V30 729 N 74.0375 -5.6197 -0.12075 0
M  V30 730 H 66.1885 -1.89416 0.961014 0
M  V30 731 H 68.4515 -0.871862 0.372237 0
M  V30 732 H 68.1575 -3.42073 0.817254 0
M  V30 733 H 68.0315 -3.65892 -0.916692 0
M  V30 734 H 70.4185 -2.70349 -1.18301 0
M  V30 735 H 70.4995 -2.49323 0.571994 0
M  V30 736 H 70.1435 -5.00448 0.866867 0
M  V30 737 H 70.0735 -5.18786 -0.903802 0
M  V30 738 H 72.5645 -3.7709 -0.247286 0
M  V30 739 H 72.8775 -7.72707 0.119905 0
M  V30 740 H 71.2225 -6.94927 0.100885 0
M  V30 741 H 74.4135 -4.67572 -0.222187 0
M  V30 742 H 74.5865 -6.47977 -0.0549735 0
M  V30 743 N 67.9926 0.231505 -1.5589 0
M  V30 744 C 68.9226 1.29022 -1.94617 0
M  V30 745 C 69.9036 1.4941 -0.813067 0
M  V30 746 O 71.0886 1.6176 -1.07459 0
M  V30 747 C 68.2186 2.64199 -2.25424 0
M  V30 748 C 67.1726 2.58484 -3.41131 0
M  V30 749 C 66.4986 3.97599 -3.57518 0
M  V30 750 C 67.7986 2.1413 -4.76388 0
M  V30 751 H 69.4926 0.968563 -2.83301 0
M  V30 752 H 67.0386 0.464479 -1.36303 0
M  V30 753 H 68.9916 3.38413 -2.51107 0
M  V30 754 H 67.7156 2.98032 -1.33583 0
M  V30 755 H 66.3746 1.86727 -3.15481 0
M  V30 756 H 66.0226 4.28723 -2.6307 0
M  V30 757 H 65.7226 3.94659 -4.35337 0
M  V30 758 H 67.2466 4.7349 -3.85538 0
M  V30 759 H 68.6606 2.78083 -5.01341 0
M  V30 760 H 67.0576 2.2227 -5.57419 0
M  V30 761 H 68.1276 1.09331 -4.72414 0
M  V30 762 N 69.4707 1.49531 0.497807 0
M  V30 763 C 70.7167 1.59415 1.25358 0
M  V30 764 C 71.0497 0.281422 1.9215 0
M  V30 765 O 70.3247 -0.715249 1.80871 0
M  V30 766 C 70.6077 2.75566 2.3181 0
M  V30 767 C 70.4607 4.16642 1.69498 0
M  V30 768 C 71.7797 2.87347 3.33346 0
M  V30 769 H 68.8987 0.580244 0.454408 0
M  V30 770 H 71.5407 1.81827 0.551262 0
M  V30 771 H 69.6907 2.56587 2.91711 0
M  V30 772 H 71.3627 4.47145 1.13399 0
M  V30 773 H 69.6057 4.22141 0.998978 0
M  V30 774 H 70.2767 4.93792 2.46725 0
M  V30 775 H 72.7527 3.04634 2.83438 0
M  V30 776 H 71.6287 3.70289 4.05188 0
M  V30 777 H 71.8897 1.96834 3.95865 0
M  V30 778 N 70.9488 -0.749086 1.3866 0
M  V30 779 C 71.8958 -1.86291 1.36251 0
M  V30 780 C 72.8658 -1.64578 0.224347 0
M  V30 781 O 74.0508 -1.86181 0.417279 0
M  V30 782 C 71.1908 -3.23644 1.19786 0
M  V30 783 C 70.3038 -3.57158 2.43027 0
M  V30 784 C 69.4388 -4.83838 2.19258 0
M  V30 785 C 68.4778 -5.10152 3.38247 0
M  V30 786 N 67.6148 -6.28029 3.13884 0
M  V30 787 H 72.4548 -1.87685 2.3147 0
M  V30 788 H 69.9918 -0.917287 1.14997 0
M  V30 789 H 71.9498 -4.0291 1.08254 0
M  V30 790 H 70.5798 -3.21566 0.282031 0
M  V30 791 H 69.6318 -2.72701 2.65214 0
M  V30 792 H 70.9438 -3.7253 3.31697 0
M  V30 793 H 70.0978 -5.71057 2.04888 0
M  V30 794 H 68.8368 -4.70614 1.2796 0
M  V30 795 H 67.8418 -4.21401 3.53131 0
M  V30 796 H 69.0668 -5.25271 4.30427 0
M  V30 797 H 67.0128 -6.1612 2.25238 0
M  V30 798 H 66.9298 -6.43922 3.96106 0
M  V30 799 H 68.1978 -7.18124 3.03179 0
M  V30 800 N 72.4269 -1.23603 -0.977757 0
M  V30 801 C 73.3589 -0.977369 -2.07317 0
M  V30 802 C 74.3719 0.0495845 -1.62724 0
M  V30 803 O 75.5609 -0.186261 -1.77526 0
M  V30 804 C 72.6609 -0.451216 -3.35883 0
M  V30 805 C 71.8339 -1.53896 -4.09432 0
M  V30 806 C 70.8929 -1.01721 -5.16274 0
M  V30 807 O 69.9189 -1.70676 -5.43009 0
M  V30 808 N 71.1209 0.153594 -5.80297 0
M  V30 809 H 73.8859 -1.92047 -2.30082 0
M  V30 810 H 71.4469 -1.14497 -1.14465 0
M  V30 811 H 73.4389 -0.0871574 -4.04606 0
M  V30 812 H 72.0089 0.397368 -3.10064 0
M  V30 813 H 71.2289 -2.07566 -3.35127 0
M  V30 814 H 72.5169 -2.27037 -4.55337 0
M  V30 815 H 71.9149 0.730323 -5.60966 0
M  V30 816 H 70.4719 0.458892 -6.50183 0
M  V30 817 N 73.905 1.17692 -1.04816 0
M  V30 818 C 74.855 2.1952 -0.616042 0
M  V30 819 C 75.839 1.57147 0.345485 0
M  V30 820 O 77.031 1.76245 0.163325 0
M  V30 821 C 74.16 3.43298 0.0116917 0
M  V30 822 C 73.246 4.12777 -0.973435 0
M  V30 823 N 73.637 4.5814 -2.14339 0
M  V30 824 C 71.935 4.38747 -0.80108 0
M  V30 825 C 72.636 5.11713 -2.7663 0
M  V30 826 N 71.612 5.03686 -2.04453 0
M  V30 827 H 75.414 2.52293 -1.5075 0
M  V30 828 H 72.928 1.3398 -0.917776 0
M  V30 829 H 74.925 4.15519 0.339006 0
M  V30 830 H 73.585 3.12018 0.898593 0
M  V30 831 H 74.596 4.52349 -2.52191 0
M  V30 832 H 71.273 4.17485 0.0350934 0
M  V30 833 H 72.663 5.56962 -3.75823 0
M  V30 834 N 75.3831 0.828654 1.34056 0
M  V30 835 C 76.3461 0.259927 2.27721 0
M  V30 836 C 77.3461 -0.565478 1.50529 0
M  V30 837 O 78.5361 -0.38075 1.69988 0
M  V30 838 C 75.6681 -0.634944 3.34935 0
M  V30 839 H 76.8611 1.0863 2.79534 0
M  V30 840 H 74.4141 0.600951 1.44285 0
M  V30 841 H 75.1491 -1.48416 2.88346 0
M  V30 842 H 74.9341 -0.0444999 3.92075 0
M  V30 843 H 76.4241 -1.02648 4.04788 0
M  V30 844 N 76.8612 -1.46375 0.584142 0
M  V30 845 C 78.1012 -2.0427 0.0729695 0
M  V30 846 C 78.4652 -1.44563 -1.26355 0
M  V30 847 O 79.6662 -1.93667 -1.86405 0
M  V30 848 C 77.9372 -3.57399 0.00967464 0
M  V30 849 S 79.4962 -4.36551 -0.443714 0
M  V30 850 H 76.3142 -0.709975 0.0381673 0
M  V30 851 H 78.9162 -1.79398 0.776962 0
M  V30 852 H 77.6202 -3.98372 0.986319 0
M  V30 853 H 77.1512 -3.8681 -0.717044 0
M  V30 854 H 79.1662 -4.66237 -1.69816 0
M  V30 855 N 78.3393 -0.321999 -1.54275 0
M  V30 856 C 79.5863 0.281044 -2.0054 0
M  V30 857 C 79.9143 1.52265 -1.21019 0
M  V30 858 O 79.1693 1.93687 -0.279982 0
M  V30 859 C 79.4683 0.661769 -3.5122 0
M  V30 860 C 79.1343 -0.480482 -4.48333 0
M  V30 861 C 77.7963 -0.794005 -4.74604 0
M  V30 862 C 80.1483 -1.24783 -5.06042 0
M  V30 863 C 77.4763 -1.87763 -5.55844 0
M  V30 864 C 79.8283 -2.32153 -5.88462 0
M  V30 865 C 78.4923 -2.64089 -6.13036 0
M  V30 866 H 77.7623 0.102841 -0.733829 0
M  V30 867 H 80.4093 -0.445453 -1.86247 0
M  V30 868 H 78.7143 1.46867 -3.63232 0
M  V30 869 H 80.4113 1.13989 -3.84457 0
M  V30 870 H 77.0013 -0.226039 -4.28004 0
M  V30 871 H 81.1853 -1.01887 -4.85729 0
M  V30 872 H 76.4413 -2.12954 -5.73115 0
M  V30 873 H 80.6153 -2.92057 -6.32199 0
M  V30 874 H 78.2423 -3.48185 -6.75775 0
M  V30 875 N 79.8174 1.5752 -0.0501392 0
M  V30 876 C 81.0454 1.96963 0.633492 0
M  V30 877 C 81.4604 0.927631 1.6444 0
M  V30 878 O 80.8174 -0.0882665 1.82286 0
M  V30 879 C 80.8684 3.36487 1.32132 0
M  V30 880 O 80.5894 4.36693 0.350894 0
M  V30 881 C 82.0904 3.90682 2.09481 0
M  V30 882 H 79.3104 0.648244 0.173266 0
M  V30 883 H 81.8544 2.0417 -0.116134 0
M  V30 884 H 80.0094 3.30434 2.02218 0
M  V30 885 H 80.4234 5.17702 0.841735 0
M  V30 886 H 81.8974 4.90591 2.5303 0
M  V30 887 H 82.3744 3.26053 2.94255 0
M  V30 888 H 82.9804 4.00069 1.44307 0
M  V30 889 N 81.2955 -0.223234 1.56011 0
M  V30 890 C 82.2585 -1.26014 1.9145 0
M  V30 891 C 83.2585 -1.3989 0.792937 0
M  V30 892 O 84.4485 -1.38184 1.0607 0
M  V30 893 C 81.5805 -2.63422 2.16383 0
M  V30 894 H 82.7735 -0.95796 2.84189 0
M  V30 895 H 80.3265 -0.463576 1.49267 0
M  V30 896 H 81.0615 -2.98741 1.2619 0
M  V30 897 H 80.8465 -2.54728 2.98088 0
M  V30 898 H 82.3365 -3.38249 2.44903 0
M  V30 899 N 82.7736 -1.49793 -0.48987 0
M  V30 900 C 83.9986 -1.63836 -1.27172 0
M  V30 901 C 84.4236 -0.31402 -1.8546 0
M  V30 902 O 83.7816 0.719803 -1.66399 0
M  V30 903 C 83.8296 -2.71797 -2.36978 0
M  V30 904 O 82.9336 -2.31744 -3.41128 0
M  V30 905 H 82.2746 -0.547997 -0.37496 0
M  V30 906 H 84.8046 -1.96053 -0.585191 0
M  V30 907 H 84.8146 -2.94305 -2.82575 0
M  V30 908 H 83.4896 -3.67923 -1.93921 0
M  V30 909 H 82.0666 -2.1961 -3.01373 0
M  V30 910 N 84.2517 0.741722 -1.39055 0
M  V30 911 C 85.1817 1.869 -1.39966 0
M  V30 912 C 86.1627 1.6804 -0.26392 0
M  V30 913 O 87.3477 1.88458 -0.468755 0
M  V30 914 C 84.4777 3.24572 -1.23574 0
M  V30 915 C 83.4317 3.58056 -2.34477 0
M  V30 916 C 82.7577 4.94593 -2.0318 0
M  V30 917 C 84.0577 3.61716 -3.76774 0
M  V30 918 H 85.7517 1.86395 -2.34302 0
M  V30 919 H 83.2977 0.895361 -1.1278 0
M  V30 920 H 85.2507 4.031 -1.22834 0
M  V30 921 H 83.9747 3.25587 -0.257045 0
M  V30 922 H 82.6337 2.81854 -2.34423 0
M  V30 923 H 82.2817 4.92181 -1.03765 0
M  V30 924 H 81.9817 5.17964 -2.77465 0
M  V30 925 H 83.5057 5.75486 -2.04079 0
M  V30 926 H 84.9197 4.30335 -3.78794 0
M  V30 927 H 83.3167 3.96603 -4.50362 0
M  V30 928 H 84.3867 2.61672 -4.08235 0
M  V30 929 N 85.7298 1.2412 0.971189 0
M  V30 930 C 86.6928 1.03156 2.04674 0
M  V30 931 C 87.6928 -0.00990322 1.60797 0
M  V30 932 O 88.8828 0.230729 1.72665 0
M  V30 933 C 86.0148 0.562765 3.36223 0
M  V30 934 H 87.2078 1.98614 2.24705 0
M  V30 935 H 84.7608 1.06293 1.14593 0
M  V30 936 H 85.4958 -0.395176 3.21883 0
M  V30 937 H 85.2808 1.31441 3.69413 0
M  V30 938 H 86.7708 0.437015 4.15307 0
M  V30 939 N 87.2079 -1.17134 1.05439 0
M  V30 940 C 88.1409 -2.2012 0.601855 0
M  V30 941 C 89.1189 -1.58314 -0.370854 0
M  V30 942 O 90.3029 -1.8638 -0.281882 0
M  V30 943 C 87.4299 -3.38491 -0.118868 0
M  V30 944 C 86.4759 -4.18752 0.809242 0
M  V30 945 S 87.3089 -4.83602 2.29977 0
M  V30 946 C 88.4649 -6.0536 1.59029 0
M  V30 947 H 88.6979 -2.58165 1.47438 0
M  V30 948 H 86.2309 -1.27788 0.866573 0
M  V30 949 H 88.1889 -4.07084 -0.528495 0
M  V30 950 H 86.8499 -2.98829 -0.967465 0
M  V30 951 H 86.0429 -5.03373 0.251379 0
M  V30 952 H 85.6449 -3.5561 1.15835 0
M  V30 953 H 87.9369 -6.71615 0.891017 0
M  V30 954 H 88.8799 -6.65679 2.41407 0
M  V30 955 H 89.2879 -5.54138 1.07663 0
M  V30 956 N 88.686 -0.835752 -1.33615 0
M  V30 957 C 89.633 -0.26473 -2.29277 0
M  V30 958 C 90.603 0.617712 -1.54187 0
M  V30 959 O 91.788 0.556641 -1.825 0
M  V30 960 C 88.928 0.556777 -3.40579 0
M  V30 961 C 88.041 -0.349339 -4.30585 0
M  V30 962 C 87.176 0.482969 -5.29 0
M  V30 963 C 86.215 -0.421732 -6.10645 0
M  V30 964 N 85.352 0.372262 -7.01112 0
M  V30 965 H 90.192 -1.08582 -2.77514 0
M  V30 966 H 87.729 -0.546927 -1.36554 0
M  V30 967 H 89.687 1.04852 -4.03809 0
M  V30 968 H 88.317 1.34286 -2.93542 0
M  V30 969 H 87.369 -0.959372 -3.68104 0
M  V30 970 H 88.681 -1.04445 -4.87742 0
M  V30 971 H 87.835 1.03866 -5.97743 0
M  V30 972 H 86.574 1.21153 -4.72412 0
M  V30 973 H 85.579 -0.989464 -5.40823 0
M  V30 974 H 86.804 -1.14861 -6.69316 0
M  V30 975 H 84.75 1.08426 -6.46977 0
M  V30 976 H 84.667 -0.264198 -7.55538 0
M  V30 977 H 85.935 0.910293 -7.74167 0
M  V30 978 N 90.1641 1.46063 -0.591896 0
M  V30 979 C 91.3941 2.06418 -0.0867676 0
M  V30 980 C 91.8021 1.43975 1.22751 0
M  V30 981 O 91.1451 0.542531 1.75506 0
M  V30 982 C 91.2071 3.59213 0.143725 0
M  V30 983 C 90.8711 4.439 -1.08635 0
M  V30 984 C 91.8681 4.79864 -2.00067 0
M  V30 985 C 89.5531 4.84896 -1.31077 0
M  V30 986 C 91.5471 5.55661 -3.12282 0
M  V30 987 C 89.2341 5.6045 -2.43596 0
M  V30 988 C 90.2321 5.95747 -3.34027 0
M  V30 989 O 89.9201 6.69772 -4.4459 0
M  V30 990 H 89.6521 0.673443 -0.0587447 0
M  V30 991 H 92.2061 1.88539 -0.814994 0
M  V30 992 H 90.4361 3.75433 0.926668 0
M  V30 993 H 92.1251 4.01463 0.5985 0
M  V30 994 H 92.8911 4.48763 -1.83947 0
M  V30 995 H 88.7701 4.56867 -0.61594 0
M  V30 996 H 92.3141 5.8313 -3.82891 0
M  V30 997 H 88.2111 5.90965 -2.59674 0
M  V30 998 H 88.9791 6.88207 -4.43073 0
M  V30 999 N 91.6422 0.330177 1.54103 0
M  V30 1000 C 92.8672 -0.274893 2.0557 0
M  V30 1001 C 93.2922 -1.44487 1.20437 0
M  V30 1002 O 92.6502 -1.80021 0.214991 0
M  V30 1003 C 92.6982 -0.68079 3.54115 0
M  V30 1004 O 91.8022 -1.7824 3.71893 0
M  V30 1005 H 91.1432 -0.0483849 0.662235 0
M  V30 1006 H 93.6732 0.480508 1.98878 0
M  V30 1007 H 93.6832 -0.961635 3.96505 0
M  V30 1008 H 92.3582 0.174903 4.15532 0
M  V30 1009 H 90.9352 -1.49985 3.41407 0
M  V30 1010 N 93.1203 -1.57491 0.0584922 0
M  V30 1011 C 94.3973 -1.84346 -0.653918 0
M  V30 1012 C 94.7773 -0.948355 -1.88599 0
M  V30 1013 O 94.1253 -0.0112403 -2.28497 0
M  V30 1014 C 94.3353 -3.34239 -1.00425 0
M  V30 1015 C 95.6833 -4.01431 -1.38342 0
M  V30 1016 O 96.7073 -3.38907 -1.09637 0
M  V30 1017 O 95.5663 -5.11683 -1.91943 0
M  V30 1018 H 92.6603 -0.761112 -0.323478 0
M  V30 1019 H 95.2063 -1.6947 0.0884125 0
M  V30 1020 H 93.9783 -3.91089 -0.128625 0
M  V30 1021 H 93.6013 -3.54329 -1.80378 0
M  V30 1022 N 94.5984 0.214957 -1.56127 0
M  V30 1023 C 95.8444 0.939762 -1.79712 0
M  V30 1024 C 96.1774 1.83723 -0.629247 0
M  V30 1025 O 95.4524 1.90925 0.371197 0
M  V30 1026 C 95.7354 1.77306 -3.13424 0
M  V30 1027 C 95.5884 0.90164 -4.40671 0
M  V30 1028 C 96.9074 2.74956 -3.43638 0
M  V30 1029 H 94.0264 0.340214 -0.653776 0
M  V30 1030 H 96.6684 0.20824 -1.88855 0
M  V30 1031 H 94.8184 2.39673 -3.0576 0
M  V30 1032 H 96.4904 0.294206 -4.60361 0
M  V30 1033 H 94.7334 0.207368 -4.33304 0
M  V30 1034 H 95.4044 1.51923 -5.30682 0
M  V30 1035 H 97.8804 2.22724 -3.51473 0
M  V30 1036 H 96.7564 3.30358 -4.38355 0
M  V30 1037 H 97.0174 3.53023 -2.66134 0
M  V30 1038 N 96.0765 1.50051 0.48192 0
M  V30 1039 C 97.0235 1.68122 1.58125 0
M  V30 1040 C 97.9935 0.522545 1.57666 0
M  V30 1041 O 99.1785 0.751844 1.75362 0
M  V30 1042 C 96.3185 1.77142 2.96167 0
M  V30 1043 C 95.4315 3.0444 3.06497 0
M  V30 1044 C 94.5665 3.04321 4.35387 0
M  V30 1045 C 93.6055 4.26118 4.3942 0
M  V30 1046 N 92.7425 4.238 5.59766 0
M  V30 1047 H 97.5825 2.6198 1.42022 0
M  V30 1048 H 95.1195 1.29877 0.690687 0
M  V30 1049 H 97.0775 1.80352 3.76203 0
M  V30 1050 H 95.7075 0.867329 3.1093 0
M  V30 1051 H 94.7595 3.10752 2.19402 0
M  V30 1052 H 96.0715 3.94426 3.05336 0
M  V30 1053 H 95.2255 3.062 5.23762 0
M  V30 1054 H 93.9645 2.12147 4.39141 0
M  V30 1055 H 92.9695 4.24463 3.49444 0
M  V30 1056 H 94.1945 5.19507 4.37366 0
M  V30 1057 H 92.1405 3.34474 5.64326 0
M  V30 1058 H 92.0575 5.07542 5.60301 0
M  V30 1059 H 93.3255 4.2981 6.50295 0
M  V30 1060 N 97.5546 -0.734337 1.39446 0
M  V30 1061 C 98.4846 -1.86155 1.40955 0
M  V30 1062 C 99.4656 -1.67898 0.272827 0
M  V30 1063 O 100.651 -1.88207 0.478743 0
M  V30 1064 C 97.7806 -3.23912 1.25294 0
M  V30 1065 C 96.7346 -3.56808 2.36373 0
M  V30 1066 C 96.0606 -4.93508 2.058 0
M  V30 1067 C 97.3606 -3.59713 3.78687 0
M  V30 1068 H 99.0546 -1.8515 2.35287 0
M  V30 1069 H 96.6006 -0.889367 1.13253 0
M  V30 1070 H 98.5536 -4.02443 1.2497 0
M  V30 1071 H 97.2776 -3.25446 0.274308 0
M  V30 1072 H 95.9366 -2.80606 2.35914 0
M  V30 1073 H 95.5846 -4.91623 1.06374 0
M  V30 1074 H 95.2846 -5.16486 2.80208 0
M  V30 1075 H 96.8086 -5.74396 2.07128 0
M  V30 1076 H 98.2226 -4.2832 3.81071 0
M  V30 1077 H 96.6196 -3.94209 4.52459 0
M  V30 1078 H 97.6896 -2.59504 4.09617 0
M  V30 1079 N 99.0327 -1.24633 -0.964593 0
M  V30 1080 C 100.281 -1.08573 -1.70459 0
M  V30 1081 C 100.602 0.375655 -1.91347 0
M  V30 1082 O 99.8717 1.26779 -1.49345 0
M  V30 1083 H 98.4517 -0.398784 -0.631649 0
M  V30 1084 H 101.114 -1.56601 -1.16026 0
M  V30 1085 H 100.21 -1.58623 -2.68785 0
M  V30 1086 N 100.511 1.16574 -1.06058 0
M  V30 1087 C 101.788 1.83048 -0.689416 0
M  V30 1088 C 102.168 1.94122 0.829443 0
M  V30 1089 O 101.516 1.48249 1.7388 0
M  V30 1090 C 101.726 3.20186 -1.38859 0
M  V30 1091 C 103.074 3.95989 -1.53226 0
M  V30 1092 O 104.098 3.29696 -1.3483 0
M  V30 1093 O 102.957 5.14813 -1.83384 0
M  V30 1094 H 100.051 0.790258 -0.243764 0
M  V30 1095 H 102.597 1.23797 -1.16071 0
M  V30 1096 H 101.369 3.07146 -2.4244 0
M  V30 1097 H 100.992 3.87112 -0.907216 0
M  V30 1098 N 101.989 0.842826 1.3317 0
M  V30 1099 C 102.939 0.250877 2.26616 0
M  V30 1100 C 103.923 -0.596427 1.49437 0
M  V30 1101 O 105.115 -0.447747 1.71243 0
M  V30 1102 C 102.244 -0.569779 3.38539 0
M  V30 1103 C 101.33 0.289254 4.23112 0
M  V30 1104 N 101.721 1.36987 4.86897 0
M  V30 1105 C 100.019 0.0769631 4.45934 0
M  V30 1106 C 100.72 1.89737 5.49886 0
M  V30 1107 N 99.6959 1.19827 5.30229 0
M  V30 1108 H 103.498 1.07718 2.73448 0
M  V30 1109 H 101.012 0.687693 1.47121 0
M  V30 1110 H 103.009 -1.01018 4.04476 0
M  V30 1111 H 101.669 -1.39401 2.93253 0
M  V30 1112 H 102.68 1.75277 4.87338 0
M  V30 1113 H 99.3569 -0.713507 4.11358 0
M  V30 1114 H 100.747 2.80253 6.10662 0
M  V30 1115 N 103.467 -1.45747 0.599634 0
M  V30 1116 C 104.714 -2.02292 0.0917284 0
M  V30 1117 C 105.042 -1.46906 -1.27472 0
M  V30 1118 O 104.297 -0.630652 -1.8526 0
M  V30 1119 C 104.596 -3.57399 -0.00602758 0
M  V30 1120 C 104.262 -4.31902 1.29503 0
M  V30 1121 C 102.924 -4.51974 1.65144 0
M  V30 1122 C 105.276 -4.74551 2.15525 0
M  V30 1123 C 102.604 -5.11949 2.86574 0
M  V30 1124 C 104.956 -5.35868 3.36196 0
M  V30 1125 C 103.62 -5.54165 3.72099 0
M  V30 1126 H 102.89 -0.740239 0.0335658 0
M  V30 1127 H 105.537 -1.7491 0.779661 0
M  V30 1128 H 103.842 -3.84014 -0.777183 0
M  V30 1129 H 105.539 -3.98846 -0.415038 0
M  V30 1130 H 102.129 -4.16588 1.00761 0
M  V30 1131 H 106.313 -4.58784 1.8929 0
M  V30 1132 H 101.569 -5.24305 3.14507 0
M  V30 1133 H 105.743 -5.6787 4.03109 0
M  V30 1134 H 103.37 -6.00406 4.6628 0
M  V30 1135 N 104.945 -0.338344 -1.53925 0
M  V30 1136 C 105.893 0.536231 -2.26335 0
M  V30 1137 C 106.887 1.1063 -1.28286 0
M  V30 1138 O 108.093 1.05264 -1.46012 0
M  V30 1139 H 104.468 0.191602 -0.727181 0
M  V30 1140 H 106.439 -0.0965747 -2.98244 0
M  V30 1141 C 105.188 1.67803 -3.04528 0
M  V30 1142 H 104.511 1.24864 -3.79801 0
M  V30 1143 H 105.951 2.26526 -3.58416 0
M  V30 1144 C 104.41 2.60439 -2.13712 0
M  V30 1145 O 104.94 3.6255 -1.72975 0
M  V30 1146 N 103.146 2.29006 -1.78898 0
M  V30 1147 H 102.693 1.46011 -2.12223 0
M  V30 1148 H 102.651 2.91248 -1.18416 0
M  V30 1149 N 106.423 1.57458 -0.0668435 0
M  V30 1150 C 107.355 2.09413 0.931601 0
M  V30 1151 C 108.368 1.02522 1.26464 0
M  V30 1152 O 109.557 1.30049 1.22269 0
M  V30 1153 C 106.657 2.53537 2.24882 0
M  V30 1154 C 105.83 3.83944 2.09537 0
M  V30 1155 C 104.889 4.14214 3.2452 0
M  V30 1156 O 103.915 4.83891 2.9973 0
M  V30 1157 N 105.117 3.67367 4.49469 0
M  V30 1158 H 107.882 2.95699 0.488048 0
M  V30 1159 H 105.443 1.61462 0.119009 0
M  V30 1160 H 107.435 2.70853 3.00701 0
M  V30 1161 H 106.005 1.72415 2.60753 0
M  V30 1162 H 105.225 3.76057 1.18215 0
M  V30 1163 H 106.513 4.69312 1.96529 0
M  V30 1164 H 105.911 3.11068 4.72497 0
M  V30 1165 H 104.468 3.89891 5.2233 0
M  V30 1166 N 107.901 -0.206675 1.56239 0
M  V30 1167 C 108.864 -1.23976 1.92776 0
M  V30 1168 C 109.864 -1.39041 0.807729 0
M  V30 1169 O 111.054 -1.37051 1.0753 0
M  V30 1170 C 108.186 -2.61112 2.19165 0
M  V30 1171 H 109.379 -0.927764 2.85189 0
M  V30 1172 H 106.932 -0.447718 1.4975 0
M  V30 1173 H 107.667 -2.97386 1.29352 0
M  V30 1174 H 107.452 -2.51552 3.00772 0
M  V30 1175 H 108.942 -3.35633 2.48476 0
M  V30 1176 N 109.379 -1.50304 -0.473955 0
M  V30 1177 C 110.628 -1.60392 -1.22301 0
M  V30 1178 C 110.941 -0.308411 -1.93153 0
M  V30 1179 O 112.147 -0.288156 -2.69966 0
M  V30 1180 C 110.603 -2.83109 -2.2221 0
M  V30 1181 C 110.211 -4.19524 -1.57173 0
M  V30 1182 C 111.955 -3.0254 -2.97775 0
M  V30 1183 C 109.862 -5.33431 -2.55353 0
M  V30 1184 H 108.792 -0.597286 -0.460179 0
M  V30 1185 H 111.443 -1.76731 -0.493803 0
M  V30 1186 H 109.825 -2.60322 -2.9841 0
M  V30 1187 H 110.999 -4.52554 -0.867824 0
M  V30 1188 H 109.314 -4.05674 -0.939002 0
M  V30 1189 H 111.911 -3.84811 -3.71248 0
M  V30 1190 H 112.254 -2.14154 -3.56992 0
M  V30 1191 H 112.787 -3.25494 -2.28688 0
M  V30 1192 H 109.526 -6.23962 -2.00878 0
M  V30 1193 H 109.046 -5.04823 -3.23904 0
M  V30 1194 H 110.725 -5.63887 -3.17239 0
M  V30 1195 N 110.857 0.726932 -1.39834 0
M  V30 1196 C 111.767 1.87131 -1.41489 0
M  V30 1197 C 112.783 1.71239 -0.308757 0
M  V30 1198 O 113.959 1.93701 -0.551529 0
M  V30 1199 C 111.024 3.22811 -1.26468 0
M  V30 1200 C 110.085 3.51039 -2.47124 0
M  V30 1201 C 109.318 4.80245 -2.3281 0
M  V30 1202 O 109.541 5.54537 -1.33585 0
M  V30 1203 O 108.475 5.08554 -3.21957 0
M  V30 1204 H 112.301 1.8869 -2.3797 0
M  V30 1205 H 109.886 0.875837 -1.21035 0
M  V30 1206 H 111.768 4.03877 -1.20255 0
M  V30 1207 H 110.443 3.22005 -0.330862 0
M  V30 1208 H 109.35 2.70027 -2.58914 0
M  V30 1209 H 110.683 3.56632 -3.39227 0
M  V30 1210 N 112.336 1.25143 0.95797 0
M  V30 1211 C 113.246 1.06968 2.08794 0
M  V30 1212 C 114.262 0.00773911 1.73998 0
M  V30 1213 O 115.438 0.207972 2.00323 0
M  V30 1214 C 112.503 0.68691 3.39827 0
M  V30 1215 C 111.564 1.82641 3.88511 0
M  V30 1216 C 110.797 1.46181 5.1329 0
M  V30 1217 O 111.02 0.355971 5.69288 0
M  V30 1218 O 109.954 2.29085 5.566 0
M  V30 1219 H 113.78 2.01723 2.27027 0
M  V30 1220 H 111.365 1.04051 1.07209 0
M  V30 1221 H 113.247 0.485417 4.18595 0
M  V30 1222 H 111.922 -0.231417 3.22872 0
M  V30 1223 H 110.829 2.08274 3.10762 0
M  V30 1224 H 112.162 2.72386 4.09959 0
M  V30 1225 N 113.814 -1.1601 1.06675 0
M  V30 1226 C 115.06 -1.87145 0.796766 0
M  V30 1227 C 115.415 -1.8037 -0.669658 0
M  V30 1228 O 114.708 -1.21116 -1.48463 0
M  V30 1229 C 114.902 -3.35547 1.23057 0
M  V30 1230 C 114.731 -3.56769 2.73762 0
M  V30 1231 C 113.501 -3.72635 3.41279 0
M  V30 1232 C 115.699 -3.55166 3.7197 0
M  V30 1233 N 113.681 -3.81845 4.80695 0
M  V30 1234 C 115.052 -3.70406 4.97191 0
M  V30 1235 C 117.107 -3.384 3.65226 0
M  V30 1236 C 115.81 -3.70615 6.16471 0
M  V30 1237 C 117.836 -3.39904 4.83962 0
M  V30 1238 C 117.198 -3.55667 6.08013 0
M  V30 1239 H 113.297 -0.702267 0.344014 0
M  V30 1240 H 115.881 -1.39165 1.36166 0
M  V30 1241 H 114.052 -3.82159 0.693456 0
M  V30 1242 H 115.784 -3.94363 0.908844 0
M  V30 1243 H 112.539 -3.73121 2.91681 0
M  V30 1244 H 112.963 -3.90209 5.53232 0
M  V30 1245 H 117.605 -3.25138 2.70269 0
M  V30 1246 H 115.323 -3.82658 7.11757 0
M  V30 1247 H 118.909 -3.28169 4.80413 0
M  V30 1248 H 117.789 -3.56755 6.98352 0
M  V30 1249 N 115.292 -0.849877 -1.32721 0
M  V30 1250 C 116.517 -0.463856 -2.02146 0
M  V30 1251 C 116.942 0.930449 -1.63476 0
M  V30 1252 O 116.3 1.61033 -0.832952 0
M  V30 1253 C 116.348 -0.604955 -3.55489 0
M  V30 1254 O 115.452 0.36425 -4.10788 0
M  V30 1255 H 114.793 -0.187046 -0.637111 0
M  V30 1256 H 117.323 -1.14775 -1.69375 0
M  V30 1257 H 117.333 -0.490696 -4.05038 0
M  V30 1258 H 116.008 -1.62174 -3.82978 0
M  V30 1259 H 114.585 0.206628 -3.72327 0
M  V30 1260 N 116.77 1.45427 -0.607355 0
M  V30 1261 C 118.016 2.0254 -0.102607 0
M  V30 1262 C 118.349 1.47478 1.26348 0
M  V30 1263 O 117.624 0.64939 1.83339 0
M  V30 1264 C 117.907 3.60044 -0.0634347 0
M  V30 1265 C 117.76 4.2544 -1.46017 0
M  V30 1266 C 119.079 4.35646 0.624514 0
M  V30 1267 H 116.198 0.73598 -0.0387607 0
M  V30 1268 H 118.84 1.73284 -0.779282 0
M  V30 1269 H 116.99 3.85101 0.512808 0
M  V30 1270 H 118.662 4.11569 -2.08347 0
M  V30 1271 H 116.905 3.83849 -2.02094 0
M  V30 1272 H 117.576 5.34342 -1.385 0
M  V30 1273 H 120.052 4.15882 0.134723 0
M  V30 1274 H 118.928 5.45376 0.621028 0
M  V30 1275 H 119.189 4.08501 1.69055 0
M  V30 1276 N 118.248 0.346503 1.53744 0
M  V30 1277 C 119.158 -0.517293 2.28826 0
M  V30 1278 C 120.174 -1.10935 1.3405 0
M  V30 1279 O 121.35 -1.1244 1.6709 0
M  V30 1280 C 118.415 -1.65098 3.04866 0
M  V30 1281 C 117.476 -1.0884 4.15274 0
M  V30 1282 C 116.709 -2.16806 4.87679 0
M  V30 1283 O 116.932 -3.3758 4.59778 0
M  V30 1284 O 115.866 -1.80934 5.74061 0
M  V30 1285 H 119.692 0.0931396 3.03557 0
M  V30 1286 H 117.277 0.111458 1.48984 0
M  V30 1287 H 119.159 -2.31053 3.5241 0
M  V30 1288 H 117.834 -2.24717 2.32989 0
M  V30 1289 H 116.741 -0.3933 3.72027 0
M  V30 1290 H 118.074 -0.537036 4.89261 0
M  V30 1291 N 119.726 -1.57421 0.075193 0
M  V30 1292 C 120.673 -2.12915 -0.890843 0
M  V30 1293 C 121.643 -1.04252 -1.29309 0
M  V30 1294 O 122.828 -1.31933 -1.37834 0
M  V30 1295 C 119.968 -2.69795 -2.15186 0
M  V30 1296 C 119.081 -3.92624 -1.80194 0
M  V30 1297 C 118.216 -4.37736 -3.00933 0
M  V30 1298 C 117.255 -5.53205 -2.61974 0
M  V30 1299 N 116.392 -5.9326 -3.75483 0
M  V30 1300 H 121.232 -2.95156 -0.410735 0
M  V30 1301 H 118.769 -1.45854 -0.191086 0
M  V30 1302 H 120.727 -3.00883 -2.89008 0
M  V30 1303 H 119.357 -1.90313 -2.60731 0
M  V30 1304 H 118.409 -3.67977 -0.964218 0
M  V30 1305 H 119.721 -4.76482 -1.47534 0
M  V30 1306 H 118.875 -4.70503 -3.8303 0
M  V30 1307 H 117.614 -3.52739 -3.36789 0
M  V30 1308 H 116.619 -5.20086 -1.783 0
M  V30 1309 H 117.844 -6.39936 -2.27284 0
M  V30 1310 H 115.79 -5.11212 -4.11094 0
M  V30 1311 H 115.707 -6.71865 -3.46602 0
M  V30 1312 H 116.975 -6.30651 -4.58148 0
M  V30 1313 N 121.204 0.198386 -1.56346 0
M  V30 1314 C 122.154 1.2499 -1.90687 0
M  V30 1315 C 123.138 1.41158 -0.772217 0
M  V30 1316 O 124.33 1.43584 -1.03502 0
M  V30 1317 C 121.459 2.59542 -2.24706 0
M  V30 1318 C 120.545 2.47181 -3.44619 0
M  V30 1319 N 120.936 2.04495 -4.62618 0
M  V30 1320 C 119.234 2.78082 -3.48692 0
M  V30 1321 C 119.935 2.03945 -5.44776 0
M  V30 1322 N 118.911 2.45323 -4.85095 0
M  V30 1323 H 122.713 0.911149 -2.7942 0
M  V30 1324 H 120.227 0.40684 -1.57221 0
M  V30 1325 H 122.224 3.3549 -2.47491 0
M  V30 1326 H 120.884 2.94244 -1.37298 0
M  V30 1327 H 121.895 1.75256 -4.87345 0
M  V30 1328 H 118.572 3.17002 -2.71691 0
M  V30 1329 H 119.962 1.72872 -6.4928 0
M  V30 1330 N 122.682 1.50554 0.465978 0
M  V30 1331 C 123.91 1.65563 1.24083 0
M  V30 1332 C 124.325 0.341051 1.85694 0
M  V30 1333 O 123.682 -0.677543 1.69457 0
M  V30 1334 C 123.733 2.75051 2.34583 0
M  V30 1335 O 123.454 4.01413 1.75497 0
M  V30 1336 C 124.955 3.01078 3.25372 0
M  V30 1337 H 122.175 0.55638 0.375077 0
M  V30 1338 H 124.719 1.96807 0.555624 0
M  V30 1339 H 122.874 2.46486 2.9887 0
M  V30 1340 H 123.288 4.62002 2.48303 0
M  V30 1341 H 124.762 3.81339 3.99105 0
M  V30 1342 H 125.239 2.12349 3.84453 0
M  V30 1343 H 125.845 3.31194 2.66816 0
M  V30 1344 N 124.16 -0.719506 1.40217 0
M  V30 1345 C 125.07 -1.86378 1.42479 0
M  V30 1346 C 126.086 -1.71073 0.317834 0
M  V30 1347 O 127.262 -1.93406 0.561794 0
M  V30 1348 C 124.327 -3.22136 1.28178 0
M  V30 1349 C 123.388 -3.49723 2.48982 0
M  V30 1350 C 122.621 -4.79004 2.35353 0
M  V30 1351 O 122.844 -5.53821 1.36524 0
M  V30 1352 O 121.778 -5.06839 3.2465 0
M  V30 1353 H 125.604 -1.87425 2.38968 0
M  V30 1354 H 123.189 -0.869405 1.21498 0
M  V30 1355 H 125.071 -4.03234 1.22395 0
M  V30 1356 H 123.746 -3.21825 0.347934 0
M  V30 1357 H 122.653 -2.6865 2.60342 0
M  V30 1358 H 123.986 -3.54828 3.41113 0
M  V30 1359 N 125.638 -1.25649 -0.95132 0
M  V30 1360 C 126.57 -1.02112 -2.05197 0
M  V30 1361 C 127.583 0.0150571 -1.62793 0
M  V30 1362 O 128.772 -0.223874 -1.77091 0
M  V30 1363 C 125.872 -0.522361 -3.3485 0
M  V30 1364 C 125.045 -1.62546 -4.06076 0
M  V30 1365 C 124.104 -1.12649 -5.14001 0
M  V30 1366 O 123.13 -1.82156 -5.39266 0
M  V30 1367 N 124.332 0.03047 -5.80492 0
M  V30 1368 H 127.097 -1.96885 -2.25957 0
M  V30 1369 H 124.658 -1.16899 -1.1201 0
M  V30 1370 H 126.65 -0.172961 -4.0433 0
M  V30 1371 H 125.22 0.33151 -3.10837 0
M  V30 1372 H 124.44 -2.14628 -3.30649 0
M  V30 1373 H 125.728 -2.36644 -4.50419 0
M  V30 1374 H 125.126 0.611169 -5.62389 0
M  V30 1375 H 123.683 0.320875 -6.5101 0
M  V30 1376 N 127.117 1.15442 -1.07289 0
M  V30 1377 C 128.342 1.90638 -0.816828 0
M  V30 1378 C 128.767 1.77445 0.624083 0
M  V30 1379 O 128.125 1.10671 1.43602 0
M  V30 1380 C 128.173 3.39008 -1.22906 0
M  V30 1381 O 127.277 4.10701 -0.373975 0
M  V30 1382 H 126.618 0.593555 -0.297638 0
M  V30 1383 H 129.148 1.46198 -1.43134 0
M  V30 1384 H 129.158 3.89801 -1.20497 0
M  V30 1385 H 127.833 3.47929 -2.27856 0
M  V30 1386 H 126.41 3.70046 -0.460499 0
M  V30 1387 N 128.595 0.856903 1.32268 0
M  V30 1388 C 130.006 0.515711 1.79436 0
M  V30 1389 C 130.357 -0.966586 1.70738 0
M  V30 1390 O 129.482 -1.75409 1.26731 0
M  V30 1391 C 130.077 0.929335 3.25805 0
M  V30 1392 C 128.636 0.640006 3.70919 0
M  V30 1393 C 127.783 1.12784 2.53328 0
M  V30 1394 H 130.734 1.04389 1.19535 0
M  V30 1395 H 130.755 0.246633 3.797 0
M  V30 1396 H 130.267 2.00821 3.32103 0
M  V30 1397 H 128.368 -0.428051 3.70133 0
M  V30 1398 H 128.481 1.20788 4.63624 0
M  V30 1399 H 126.845 0.548033 2.48734 0
M  V30 1400 H 127.628 2.21387 2.62379 0
M  V30 1401 N 130.073 -1.45103 0.615059 0
M  V30 1402 C 131.301 -2.06553 0.11977 0
M  V30 1403 C 131.716 -1.45842 -1.19898 0
M  V30 1404 O 131.073 -0.575325 -1.73194 0
M  V30 1405 C 131.124 -3.61495 -0.018364 0
M  V30 1406 O 130.845 -4.19942 1.24822 0
M  V30 1407 C 132.346 -4.39947 -0.544237 0
M  V30 1408 H 129.566 -0.667096 0.0722739 0
M  V30 1409 H 132.11 -1.8623 0.84491 0
M  V30 1410 H 130.265 -3.81135 -0.693865 0
M  V30 1411 H 130.679 -5.13204 1.0827 0
M  V30 1412 H 132.153 -5.48838 -0.589953 0
M  V30 1413 H 132.63 -4.10255 -1.56805 0
M  V30 1414 H 133.236 -4.25188 0.0974703 0
M  V30 1415 N 131.551 -0.354651 -1.53558 0
M  V30 1416 C 132.828 0.294281 -1.93374 0
M  V30 1417 C 133.208 1.67313 -1.28723 0
M  V30 1418 O 132.556 2.24179 -0.442247 0
M  V30 1419 C 132.766 0.355445 -3.47185 0
M  V30 1420 C 134.114 0.601007 -4.20325 0
M  V30 1421 O 135.138 0.437106 -3.53508 0
M  V30 1422 O 133.997 0.919322 -5.38712 0
M  V30 1423 H 131.091 0.174033 -0.808481 0
M  V30 1424 H 133.637 -0.406638 -1.64756 0
M  V30 1425 H 132.409 -0.611729 -3.86489 0
M  V30 1426 H 132.032 1.1027 -3.82003 0
M  V30 1427 N 133.029 1.57378 -0.0835403 0
M  V30 1428 C 133.992 2.12252 0.864959 0
M  V30 1429 C 134.992 1.04916 1.21858 0
M  V30 1430 O 136.182 1.30853 1.14991 0
M  V30 1431 C 133.314 2.63358 2.16461 0
M  V30 1432 H 134.507 2.97371 0.388676 0
M  V30 1433 H 132.06 1.55423 0.165317 0
M  V30 1434 H 132.795 1.81727 2.686 0
M  V30 1435 H 132.58 3.41826 1.92087 0
M  V30 1436 H 134.07 3.05847 2.84337 0
M  V30 1437 N 134.507 -0.190092 1.56449 0
M  V30 1438 C 135.737 -0.92443 1.84764 0
M  V30 1439 C 136.145 -1.77146 0.664529 0
M  V30 1440 O 135.488 -1.79812 -0.375957 0
M  V30 1441 C 135.55 -1.86651 3.07248 0
M  V30 1442 C 135.214 -1.20094 4.40938 0
M  V30 1443 C 136.211 -0.575445 5.16706 0
M  V30 1444 C 133.896 -1.2033 4.87674 0
M  V30 1445 C 135.89 0.0388111 6.37388 0
M  V30 1446 C 133.577 -0.585214 6.08291 0
M  V30 1447 C 134.575 0.0347578 6.82991 0
M  V30 1448 O 134.263 0.643147 8.01323 0
M  V30 1449 H 133.995 -0.274974 0.617548 0
M  V30 1450 H 136.549 -0.200788 2.04416 0
M  V30 1451 H 134.779 -2.62998 2.83494 0
M  V30 1452 H 136.468 -2.46907 3.22167 0
M  V30 1453 H 137.234 -0.565728 4.81689 0
M  V30 1454 H 133.113 -1.67526 4.29484 0
M  V30 1455 H 136.657 0.523329 6.95634 0
M  V30 1456 H 132.554 -0.592451 6.42775 0
M  V30 1457 H 133.322 0.540545 8.16713 0
M  V30 1458 N 135.985 -1.50799 -0.457987 0
M  V30 1459 C 137.233 -1.62121 -1.2067 0
M  V30 1460 C 137.554 -0.329793 -1.92191 0
M  V30 1461 O 136.824 0.653409 -1.84682 0
M  V30 1462 H 135.404 -0.597441 -0.448411 0
M  V30 1463 H 138.066 -1.87637 -0.527096 0
M  V30 1464 H 137.162 -2.43882 -1.94751 0
M  V30 1465 N 137.463 0.71206 -1.40597 0
M  V30 1466 C 138.709 1.47416 -1.39271 0
M  V30 1467 C 139.042 1.942 0.00388791 0
M  V30 1468 O 138.317 1.68403 0.973179 0
M  V30 1469 C 138.6 2.69774 -2.38525 0
M  V30 1470 C 138.453 2.28861 -3.87224 0
M  V30 1471 C 139.772 3.71939 -2.35264 0
M  V30 1472 H 136.891 0.534713 -0.5072 0
M  V30 1473 H 139.533 0.812375 -1.71757 0
M  V30 1474 H 137.683 3.26238 -2.10953 0
M  V30 1475 H 139.355 1.77852 -4.25636 0
M  V30 1476 H 137.598 1.60824 -4.02887 0
M  V30 1477 H 138.269 3.16584 -4.52193 0
M  V30 1478 H 140.745 3.25113 -2.59694 0
M  V30 1479 H 139.621 4.55186 -3.06753 0
M  V30 1480 H 139.882 4.20484 -1.36549 0
M  V30 1481 N 138.941 1.26152 0.944643 0
M  V30 1482 C 140.19 1.10883 1.68487 0
M  V30 1483 C 140.503 -0.348153 1.92477 0
M  V30 1484 O 141.709 -0.621459 2.64292 0
M  V30 1485 C 140.165 1.93624 3.03377 0
M  V30 1486 C 139.773 3.43875 2.87148 0
M  V30 1487 C 141.517 1.86954 3.81115 0
M  V30 1488 C 139.424 4.18875 4.1749 0
M  V30 1489 H 138.354 0.41135 0.631907 0
M  V30 1490 H 141.005 1.50433 1.05082 0
M  V30 1491 H 139.387 1.46904 3.67743 0
M  V30 1492 H 140.561 3.98338 2.31653 0
M  V30 1493 H 138.876 3.51744 2.22856 0
M  V30 1494 H 141.473 2.40275 4.77673 0
M  V30 1495 H 141.816 0.839518 4.07747 0
M  V30 1496 H 142.349 2.31477 3.23517 0
M  V30 1497 H 139.088 5.22332 3.96043 0
M  V30 1498 H 138.608 3.69193 4.72712 0
M  V30 1499 H 140.287 4.27134 4.85968 0
M  V30 1500 N 140.419 -1.14872 1.07899 0
M  V30 1501 C 141.367 -2.21857 0.698727 0
M  V30 1502 C 142.361 -1.66845 -0.293086 0
M  V30 1503 O 143.567 -1.79321 -0.156204 0
M  V30 1504 H 139.942 -0.722691 0.207899 0
M  V30 1505 H 141.913 -2.51205 1.61054 0
M  V30 1506 C 140.662 -3.47498 0.11858 0
M  V30 1507 H 139.985 -3.90154 0.872914 0
M  V30 1508 H 141.425 -4.23858 -0.109759 0
M  V30 1509 C 139.884 -3.16947 -1.1422 0
M  V30 1510 O 140.414 -3.3426 -2.22785 0
M  V30 1511 N 138.62 -2.70946 -1.05055 0
M  V30 1512 H 138.167 -2.57058 -0.167038 0
M  V30 1513 H 138.125 -2.50879 -1.89491 0
M  V30 1514 N 141.898 -0.863906 -1.31812 0
M  V30 1515 C 143.145 -0.471836 -1.96926 0
M  V30 1516 C 143.473 0.974578 -1.68322 0
M  V30 1517 O 142.728 1.7003 -0.968933 0
M  V30 1518 C 143.027 -0.668547 -3.51091 0
M  V30 1519 C 142.693 -2.08683 -3.99703 0
M  V30 1520 C 141.355 -2.47471 -4.12688 0
M  V30 1521 C 143.707 -3.01207 -4.25351 0
M  V30 1522 C 141.035 -3.78037 -4.4867 0
M  V30 1523 C 143.387 -4.31282 -4.62794 0
M  V30 1524 C 142.051 -4.69992 -4.73987 0
M  V30 1525 H 141.321 -0.172657 -0.720604 0
M  V30 1526 H 143.968 -1.09573 -1.57054 0
M  V30 1527 H 142.273 0.0385252 -3.91781 0
M  V30 1528 H 143.97 -0.345102 -3.99512 0
M  V30 1529 H 140.56 -1.77566 -3.90087 0
M  V30 1530 H 144.744 -2.72469 -4.14819 0
M  V30 1531 H 140 -4.078 -4.55532 0
M  V30 1532 H 144.174 -5.03031 -4.81594 0
M  V30 1533 H 141.801 -5.71207 -5.01624 0
M  V30 1534 N 143.376 1.44774 -0.622745 0
M  V30 1535 C 144.308 2.28856 0.125485 0
M  V30 1536 C 145.321 1.40811 0.817069 0
M  V30 1537 O 146.51 1.65044 0.679918 0
M  V30 1538 C 143.61 3.16963 1.19949 0
M  V30 1539 C 142.783 4.33374 0.592064 0
M  V30 1540 C 141.842 5.02577 1.55893 0
M  V30 1541 O 140.868 5.58873 1.07933 0
M  V30 1542 N 142.07 5.03256 2.89334 0
M  V30 1543 H 144.835 2.93713 -0.596068 0
M  V30 1544 H 142.396 1.55129 -0.463303 0
M  V30 1545 H 144.388 3.60123 1.84644 0
M  V30 1546 H 142.958 2.53913 1.82337 0
M  V30 1547 H 142.178 3.93509 -0.233322 0
M  V30 1548 H 143.466 5.08527 0.166738 0
M  V30 1549 H 142.864 4.58836 3.30887 0
M  V30 1550 H 141.421 5.50232 3.49412 0
M  V30 1551 N 144.854 0.36279 1.53368 0
M  V30 1552 C 146.102 -0.227326 2.00817 0
M  V30 1553 C 146.423 -1.49511 1.25186 0
M  V30 1554 O 145.693 -1.92482 0.364348 0
M  V30 1555 H 144.273 -0.0869923 0.741917 0
M  V30 1556 H 146.935 0.488381 1.88682 0
M  V30 1557 H 146.031 -0.456273 3.08747 0
M  V30 1558 N 146.332 -1.57332 0.0918853 0
M  V30 1559 C 147.58 -1.93853 -0.571446 0
M  V30 1560 C 147.901 -0.974212 -1.6892 0
M  V30 1561 O 147.171 -0.0257254 -1.95883 0
M  V30 1562 H 145.751 -0.715666 -0.214082 0
M  V30 1563 H 148.413 -1.94287 0.154464 0
M  V30 1564 H 147.509 -2.96191 -0.983729 0
M  V30 1565 N 147.81 0.181792 -1.56548 0
M  V30 1566 C 149.035 0.920019 -1.85877 0
M  V30 1567 C 149.46 1.75494 -0.677021 0
M  V30 1568 O 148.818 1.77399 0.374056 0
M  V30 1569 C 148.866 1.78112 -3.13542 0
M  V30 1570 O 147.97 2.88152 -2.95029 0
M  V30 1571 H 147.311 0.258334 -0.611686 0
M  V30 1572 H 149.841 0.183092 -2.03779 0
M  V30 1573 H 149.851 2.18314 -3.44678 0
M  V30 1574 H 148.526 1.16777 -3.99169 0
M  V30 1575 H 147.103 2.51609 -2.75222 0
M  V30 1576 N 149.288 1.51039 0.449983 0
M  V30 1577 C 150.238 1.67824 1.54335 0
M  V30 1578 C 151.222 0.5324 1.51836 0
M  V30 1579 O 152.414 0.787762 1.58503 0
M  V30 1580 C 149.543 1.7951 2.92628 0
M  V30 1581 C 148.629 2.99838 2.9993 0
M  V30 1582 N 149.02 4.23207 2.77001 0
M  V30 1583 C 147.318 2.98832 3.31082 0
M  V30 1584 C 148.019 5.04361 2.89818 0
M  V30 1585 N 146.995 4.38746 3.2094 0
M  V30 1586 H 150.797 2.60884 1.35339 0
M  V30 1587 H 148.311 1.48513 0.657085 0
M  V30 1588 H 150.308 1.89642 3.7127 0
M  V30 1589 H 148.968 0.876227 3.12654 0
M  V30 1590 H 149.979 4.5236 2.52172 0
M  V30 1591 H 146.656 2.16527 3.56963 0
M  V30 1592 H 148.046 6.12528 2.76151 0
M  V30 1593 N 150.766 -0.704594 1.40972 0
M  V30 1594 C 151.991 -1.49858 1.43378 0
M  V30 1595 C 152.416 -1.88061 0.038184 0
M  V30 1596 O 151.774 -1.5402 -0.956425 0
M  V30 1597 C 151.822 -2.74333 2.34038 0
M  V30 1598 O 150.926 -3.7147 1.7912 0
M  V30 1599 H 150.267 -0.45139 0.486974 0
M  V30 1600 H 152.797 -0.866832 1.8533 0
M  V30 1601 H 152.807 -3.22741 2.49604 0
M  V30 1602 H 151.482 -2.45863 3.35446 0
M  V30 1603 H 150.059 -3.30363 1.72958 0
M  V30 1604 N 152.244 -1.26651 -0.937939 0
M  V30 1605 C 153.474 -1.15006 -1.71631 0
M  V30 1606 C 153.882 0.297026 -1.86854 0
M  V30 1607 O 153.225 1.21493 -1.37786 0
M  V30 1608 C 153.287 -1.74984 -3.14039 0
M  V30 1609 C 152.951 -3.24103 -3.2219 0
M  V30 1610 C 153.948 -4.20877 -3.05219 0
M  V30 1611 C 151.633 -3.64625 -3.45476 0
M  V30 1612 C 153.627 -5.56151 -3.11408 0
M  V30 1613 C 151.314 -5.00032 -3.513 0
M  V30 1614 C 152.312 -5.95604 -3.34282 0
M  V30 1615 O 152 -7.28545 -3.3982 0
M  V30 1616 H 151.732 -0.401183 -0.544085 0
M  V30 1617 H 154.286 -1.67832 -1.18413 0
M  V30 1618 H 152.516 -1.16624 -3.68695 0
M  V30 1619 H 154.205 -1.58199 -3.73802 0
M  V30 1620 H 154.971 -3.90908 -2.87081 0
M  V30 1621 H 150.85 -2.90718 -3.57777 0
M  V30 1622 H 154.394 -6.30727 -2.98043 0
M  V30 1623 H 150.291 -5.29659 -3.68959 0
M  V30 1624 H 151.059 -7.3686 -3.56343 0
M  V30 1625 N 153.722 1.14298 -1.08507 0
M  V30 1626 C 155.138 1.37347 -0.812901 0
M  V30 1627 C 155.338 1.93052 0.577325 0
M  V30 1628 O 154.394 2.14389 1.33393 0
M  V30 1629 C 155.707 2.33359 -1.89642 0
M  V30 1630 C 157.255 2.46996 -1.92255 0
M  V30 1631 C 157.73 3.46309 -2.99724 0
M  V30 1632 N 159.221 3.53853 -2.98902 0
M  V30 1633 C 159.956 4.3055 -3.787 0
M  V30 1634 N 159.452 5.10482 -4.6838 0
M  V30 1635 N 161.245 4.25757 -3.66998 0
M  V30 1636 H 153.396 0.764867 -1.9815 0
M  V30 1637 H 155.659 0.398966 -0.859959 0
M  V30 1638 H 155.365 1.99565 -2.89597 0
M  V30 1639 H 155.239 3.33274 -1.76659 0
M  V30 1640 H 157.626 2.80081 -0.929445 0
M  V30 1641 H 157.707 1.47039 -2.09316 0
M  V30 1642 H 157.351 3.13957 -3.99241 0
M  V30 1643 H 157.281 4.46049 -2.79907 0
M  V30 1644 H 159.772 2.96812 -2.33904 0
M  V30 1645 H 160.085 5.66284 -5.25873 0
M  V30 1646 H 158.43 5.09747 -4.72422 0
M  V30 1647 H 161.621 3.62383 -2.96304 0
M  V30 1648 H 161.794 4.85279 -4.29427 0
M  V30 1649 N 155.201 0.870884 1.31352 0
M  V30 1650 C 156.164 0.332243 2.26779 0
M  V30 1651 C 157.164 -0.517302 1.52252 0
M  V30 1652 O 158.354 -0.326477 1.71113 0
M  V30 1653 C 155.486 -0.528066 3.36785 0
M  V30 1654 H 156.679 1.17469 2.75937 0
M  V30 1655 H 154.232 0.64655 1.423 0
M  V30 1656 H 154.967 -1.39167 2.92922 0
M  V30 1657 H 154.752 0.0802582 3.92018 0
M  V30 1658 H 156.242 -0.897179 4.07849 0
M  V30 1659 N 156.679 -1.44442 0.630414 0
M  V30 1660 C 157.626 -2.30678 -0.0749355 0
M  V30 1661 C 158.596 -1.4344 -0.837502 0
M  V30 1662 O 159.781 -1.72343 -0.818684 0
M  V30 1663 C 156.921 -3.28706 -1.05103 0
M  V30 1664 C 156.034 -4.31046 -0.286954 0
M  V30 1665 C 155.169 -5.16167 -1.2548 0
M  V30 1666 C 154.208 -6.10216 -0.479843 0
M  V30 1667 N 153.345 -6.88039 -1.39811 0
M  V30 1668 H 158.185 -2.90454 0.666386 0
M  V30 1669 H 155.722 -1.43107 0.340404 0
M  V30 1670 H 157.68 -3.84027 -1.63031 0
M  V30 1671 H 156.31 -2.70632 -1.75949 0
M  V30 1672 H 155.362 -3.78203 0.408243 0
M  V30 1673 H 156.674 -4.97794 0.316657 0
M  V30 1674 H 155.828 -5.76002 -1.90544 0
M  V30 1675 H 154.567 -4.49491 -1.89233 0
M  V30 1676 H 153.572 -5.49491 0.184295 0
M  V30 1677 H 154.797 -6.78928 0.152965 0
M  V30 1678 H 152.743 -6.24032 -2.02287 0
M  V30 1679 H 152.66 -7.51223 -0.848508 0
M  V30 1680 H 153.928 -7.52397 -2.03762 0
M  V30 1681 N 158.157 -0.370918 -1.53173 0
M  V30 1682 C 159.387 0.217389 -2.05453 0
M  V30 1683 C 159.795 1.42568 -1.24382 0
M  V30 1684 O 159.138 1.81571 -0.278839 0
M  V30 1685 C 159.2 0.669827 -3.53205 0
M  V30 1686 C 158.864 -0.4225 -4.55043 0
M  V30 1687 C 159.861 -1.27407 -5.04047 0
M  V30 1688 C 157.546 -0.58427 -4.9889 0
M  V30 1689 C 159.54 -2.27271 -5.95505 0
M  V30 1690 C 157.227 -1.58627 -5.90153 0
M  V30 1691 C 158.225 -2.42892 -6.38351 0
M  V30 1692 O 157.913 -3.41382 -7.27814 0
M  V30 1693 H 157.645 0.0408171 -0.674767 0
M  V30 1694 H 160.199 -0.5292 -1.98466 0
M  V30 1695 H 158.429 1.4681 -3.57748 0
M  V30 1696 H 160.118 1.18173 -3.88317 0
M  V30 1697 H 160.884 -1.16031 -4.70916 0
M  V30 1698 H 156.763 0.061851 -4.60959 0
M  V30 1699 H 160.307 -2.93079 -6.33049 0
M  V30 1700 H 156.204 -1.70048 -6.22699 0
M  V30 1701 H 156.972 -3.37173 -7.45826 0
M  V30 1702 N 159.635 1.57281 -0.100228 0
M  V30 1703 C 160.881 1.94826 0.563101 0
M  V30 1704 C 161.214 0.982475 1.67514 0
M  V30 1705 O 160.489 0.0164069 1.94493 0
M  V30 1706 C 160.772 3.42453 1.11346 0
M  V30 1707 C 160.625 4.498 0.00612081 0
M  V30 1708 C 161.944 3.91506 2.01024 0
M  V30 1709 H 159.063 0.708428 0.203221 0
M  V30 1710 H 161.705 1.8922 -0.171979 0
M  V30 1711 H 159.855 3.47361 1.7399 0
M  V30 1712 H 161.527 4.57 -0.628357 0
M  V30 1713 H 159.77 4.28756 -0.659581 0
M  V30 1714 H 160.441 5.50306 0.432109 0
M  V30 1715 H 162.917 3.88784 1.48278 0
M  V30 1716 H 161.793 4.95358 2.36457 0
M  V30 1717 H 162.054 3.31099 2.92961 0
M  V30 1718 N 161.113 -0.173488 1.56642 0
M  V30 1719 C 162.529 -0.525174 1.50712 0
M  V30 1720 C 162.729 -1.8476 0.804107 0
M  V30 1721 O 161.785 -2.49869 0.363574 0
M  V30 1722 C 163.098 -0.559937 2.95441 0
M  V30 1723 C 164.646 -0.647288 3.06234 0
M  V30 1724 C 165.121 -0.712963 4.52417 0
M  V30 1725 N 166.612 -0.775911 4.56655 0
M  V30 1726 C 167.347 -0.847264 5.67106 0
M  V30 1727 N 166.843 -0.879585 6.87194 0
M  V30 1728 N 168.636 -0.886117 5.55071 0
M  V30 1729 H 160.787 0.693681 2.00753 0
M  V30 1730 H 163.05 0.249841 0.914485 0
M  V30 1731 H 162.756 0.343049 3.50023 0
M  V30 1732 H 162.63 -1.40718 3.49969 0
M  V30 1733 H 165.017 -1.5407 2.51687 0
M  V30 1734 H 165.098 0.226586 2.54794 0
M  V30 1735 H 164.742 0.176183 5.07594 0
M  V30 1736 H 164.672 -1.60295 5.0161 0
M  V30 1737 H 167.163 -0.759304 3.70193 0
M  V30 1738 H 167.476 -0.935144 7.67121 0
M  V30 1739 H 165.821 -0.847898 6.89808 0
M  V30 1740 H 169.012 -0.857853 4.60172 0
M  V30 1741 H 169.185 -0.938263 6.41171 0
M  V30 1742 N 162.591 -1.51276 -0.441967 0
M  V30 1743 C 163.521 -1.752 -1.54361 0
M  V30 1744 C 164.502 -0.601682 -1.59103 0
M  V30 1745 O 165.687 -0.843913 -1.74905 0
M  V30 1746 C 162.817 -1.87282 -2.92477 0
M  V30 1747 C 161.771 -3.02687 -3.02596 0
M  V30 1748 C 161.097 -2.99947 -4.42647 0
M  V30 1749 C 162.397 -4.4273 -2.77106 0
M  V30 1750 H 164.091 -2.67442 -1.34592 0
M  V30 1751 H 161.637 -1.28694 -0.646048 0
M  V30 1752 H 163.59 -2.02602 -3.695 0
M  V30 1753 H 162.314 -0.916844 -3.13467 0
M  V30 1754 H 160.973 -2.87065 -2.28012 0
M  V30 1755 H 160.621 -2.02136 -4.60597 0
M  V30 1756 H 160.321 -3.77439 -4.50348 0
M  V30 1757 H 161.845 -3.17354 -5.2165 0
M  V30 1758 H 163.259 -4.58727 -3.43864 0
M  V30 1759 H 161.656 -5.21893 -2.96222 0
M  V30 1760 H 162.726 -4.53087 -1.72744 0
M  V30 1761 N 164.069 0.697108 -1.41344 0
M  V30 1762 C 165.294 1.49096 -1.44171 0
M  V30 1763 C 165.719 1.88038 -0.0481568 0
M  V30 1764 O 165.077 1.54525 0.948243 0
M  V30 1765 C 165.125 2.73088 -2.3549 0
M  V30 1766 O 164.229 3.70514 -1.81088 0
M  V30 1767 H 163.57 0.448801 -0.489361 0
M  V30 1768 H 166.1 0.856992 -1.85787 0
M  V30 1769 H 166.11 3.21413 -2.51312 0
M  V30 1770 H 164.785 2.44081 -3.36745 0
M  V30 1771 H 163.362 3.29441 -1.74708 0
M  V30 1772 N 165.547 1.27147 0.931209 0
M  V30 1773 C 166.777 1.15914 1.71019 0
M  V30 1774 C 167.185 -0.287112 1.87009 0
M  V30 1775 O 166.528 -1.20761 1.38429 0
M  V30 1776 C 166.59 1.76647 3.13107 0
M  V30 1777 C 166.254 3.25807 3.20467 0
M  V30 1778 C 167.251 4.22489 3.02983 0
M  V30 1779 C 164.936 3.66452 3.43538 0
M  V30 1780 C 166.93 5.57794 3.08454 0
M  V30 1781 C 164.617 5.01888 3.48643 0
M  V30 1782 C 165.615 5.97369 3.31119 0
M  V30 1783 O 165.303 7.30337 3.35952 0
M  V30 1784 H 165.035 0.404062 0.54195 0
M  V30 1785 H 167.589 1.68457 1.17521 0
M  V30 1786 H 165.819 1.18578 3.68071 0
M  V30 1787 H 167.508 1.60179 3.72958 0
M  V30 1788 H 168.274 3.92425 2.85004 0
M  V30 1789 H 164.153 2.92611 3.5623 0
M  V30 1790 H 167.697 6.32298 2.94694 0
M  V30 1791 H 163.594 5.31609 3.66145 0
M  V30 1792 H 164.362 7.38739 3.5243 0
M  V30 1793 N 167.025 -1.13721 1.09112 0
M  V30 1794 C 168.302 -1.81155 0.737706 0
M  V30 1795 C 168.682 -1.96253 -0.777683 0
M  V30 1796 O 168.03 -1.52807 -1.69889 0
M  V30 1797 C 168.24 -3.16392 1.47299 0
M  V30 1798 C 169.588 -3.91787 1.63671 0
M  V30 1799 O 170.612 -3.26005 1.43524 0
M  V30 1800 O 169.471 -5.0977 1.96969 0
M  V30 1801 H 166.565 -0.783518 0.26463 0
M  V30 1802 H 169.111 -1.20676 1.19312 0
M  V30 1803 H 167.883 -3.0061 2.50498 0
M  V30 1804 H 167.506 -3.8457 1.00953 0
M  V30 1805 N 168.503 -0.877838 -1.30888 0
M  V30 1806 C 169.731 -0.507414 -2.00581 0
M  V30 1807 C 170.146 0.902216 -1.65848 0
M  V30 1808 O 169.503 1.59225 -0.891831 0
M  V30 1809 C 169.554 -0.664162 -3.55347 0
M  V30 1810 O 169.275 -2.01829 -3.8884 0
M  V30 1811 C 170.776 -0.295787 -4.42312 0
M  V30 1812 H 167.996 -0.196866 -0.641471 0
M  V30 1813 H 170.54 -1.18117 -1.66939 0
M  V30 1814 H 168.695 -0.0378619 -3.87381 0
M  V30 1815 H 169.109 -2.03174 -4.8355 0
M  V30 1816 H 170.583 -0.456388 -5.5011 0
M  V30 1817 H 171.06 0.765663 -4.32475 0
M  V30 1818 H 171.666 -0.898113 -4.15709 0
M  V30 1819 N 169.982 1.44106 -0.638065 0
M  V30 1820 C 170.929 2.30715 0.062701 0
M  V30 1821 C 171.899 1.43882 0.829883 0
M  V30 1822 O 173.084 1.72775 0.809532 0
M  V30 1823 C 170.224 3.29258 1.03358 0
M  V30 1824 C 169.337 4.31192 0.26409 0
M  V30 1825 C 168.472 5.16825 1.22741 0
M  V30 1826 C 167.511 6.10462 0.447475 0
M  V30 1827 N 166.648 6.8877 1.36161 0
M  V30 1828 H 171.488 2.90096 -0.681781 0
M  V30 1829 H 169.025 1.42925 -0.347988 0
M  V30 1830 H 170.983 3.84886 1.60992 0
M  V30 1831 H 169.613 2.71562 1.74511 0
M  V30 1832 H 168.665 3.77981 -0.428295 0
M  V30 1833 H 169.977 4.97619 -0.343052 0
M  V30 1834 H 169.131 5.77004 1.87487 0
M  V30 1835 H 167.87 4.50488 1.86847 0
M  V30 1836 H 166.875 5.49386 -0.213433 0
M  V30 1837 H 168.1 6.78837 -0.188968 0
M  V30 1838 H 166.046 6.25096 1.98975 0
M  V30 1839 H 165.963 7.51663 0.808656 0
M  V30 1840 H 167.231 7.53467 1.99769 0
M  V30 1841 N 171.46 0.379036 1.52974 0
M  V30 1842 C 172.871 -0.0972525 1.86447 0
M  V30 1843 C 173.222 -1.47027 1.29914 0
M  V30 1844 O 172.347 -2.07135 0.626433 0
M  V30 1845 C 172.942 -0.183248 3.38304 0
M  V30 1846 C 171.501 -0.603812 3.71525 0
M  V30 1847 C 170.648 0.240632 2.76254 0
M  V30 1848 H 173.599 0.597316 1.4703 0
M  V30 1849 H 173.62 -1.00432 3.67006 0
M  V30 1850 H 173.132 0.816191 3.79421 0
M  V30 1851 H 171.233 -1.61099 3.35973 0
M  V30 1852 H 171.346 -0.369086 4.77676 0
M  V30 1853 H 169.71 -0.292548 2.53014 0
M  V30 1854 H 170.493 1.23786 3.20206 0
M  V30 1855 N 172.938 -1.57226 0.108567 0
M  V30 1856 C 173.848 -2.18292 -0.859401 0
M  V30 1857 C 174.864 -1.15612 -1.30038 0
M  V30 1858 O 176.04 -1.48039 -1.36552 0
M  V30 1859 C 173.105 -2.762 -2.09558 0
M  V30 1860 C 172.166 -3.93881 -1.70752 0
M  V30 1861 C 171.399 -4.49018 -2.88477 0
M  V30 1862 O 171.622 -4.03068 -4.036 0
M  V30 1863 O 170.556 -5.39852 -2.66164 0
M  V30 1864 H 174.382 -3.01441 -0.369769 0
M  V30 1865 H 171.967 -1.48945 -0.1165 0
M  V30 1866 H 173.849 -3.13156 -2.81978 0
M  V30 1867 H 172.524 -1.96089 -2.57548 0
M  V30 1868 H 171.431 -3.61713 -0.954714 0
M  V30 1869 H 172.764 -4.75396 -1.27513 0
M  V30 1870 N 174.416 0.165178 -1.56732 0
M  V30 1871 C 175.662 0.882112 -1.82611 0
M  V30 1872 C 175.995 1.81628 -0.687378 0
M  V30 1873 O 175.27 1.92009 0.310267 0
M  V30 1874 C 175.553 1.67245 -3.18906 0
M  V30 1875 C 175.406 0.760987 -4.43316 0
M  V30 1876 C 176.725 2.63884 -3.52212 0
M  V30 1877 H 173.844 0.319242 -0.664269 0
M  V30 1878 H 176.486 0.148052 -1.89422 0
M  V30 1879 H 174.636 2.29824 -3.1323 0
M  V30 1880 H 176.308 0.147596 -4.61064 0
M  V30 1881 H 174.551 0.0694102 -4.33744 0
M  V30 1882 H 175.222 1.34962 -5.35247 0
M  V30 1883 H 177.698 2.11429 -3.58381 0
M  V30 1884 H 176.574 3.16245 -4.48643 0
M  V30 1885 H 176.835 3.44377 -2.77231 0
M  V30 1886 N 175.894 1.51508 0.433938 0
M  V30 1887 C 177.143 1.63578 1.18005 0
M  V30 1888 C 177.456 0.359514 1.92268 0
M  V30 1889 O 178.662 0.359632 2.69108 0
M  V30 1890 C 177.118 2.88901 2.14626 0
M  V30 1891 C 176.726 4.23544 1.45995 0
M  V30 1892 C 178.47 3.10328 2.89649 0
M  V30 1893 C 176.377 5.40014 2.4112 0
M  V30 1894 H 175.307 0.609277 0.444182 0
M  V30 1895 H 177.958 1.77978 0.446773 0
M  V30 1896 H 176.34 2.68142 2.91403 0
M  V30 1897 H 177.514 4.54696 0.747532 0
M  V30 1898 H 175.829 4.08021 0.831115 0
M  V30 1899 H 178.426 3.94518 3.60915 0
M  V30 1900 H 178.769 2.23544 3.51189 0
M  V30 1901 H 179.302 3.31443 2.19978 0
M  V30 1902 H 176.041 6.29068 1.84264 0
M  V30 1903 H 175.561 5.13233 3.10406 0
M  V30 1904 H 177.24 5.72099 3.02177 0
M  V30 1905 N 177.372 -0.689602 1.41712 0
M  V30 1906 C 178.302 -1.81577 1.46806 0
M  V30 1907 C 179.283 -1.66945 0.326105 0
M  V30 1908 O 180.468 -1.86588 0.538377 0
M  V30 1909 C 177.598 -3.19762 1.35535 0
M  V30 1910 C 176.552 -3.49107 2.47605 0
M  V30 1911 C 175.878 -4.86711 2.21397 0
M  V30 1912 C 177.178 -3.47483 3.89939 0
M  V30 1913 H 178.872 -1.7757 2.41058 0
M  V30 1914 H 176.418 -0.852887 1.16025 0
M  V30 1915 H 178.371 -3.98263 1.3771 0
M  V30 1916 H 177.095 -3.24409 0.377708 0
M  V30 1917 H 175.754 -2.72959 2.44722 0
M  V30 1918 H 175.402 -4.8799 1.21961 0
M  V30 1919 H 175.102 -5.0731 2.96497 0
M  V30 1920 H 176.626 -5.67515 2.25297 0
M  V30 1921 H 178.04 -4.1598 3.94505 0
M  V30 1922 H 176.437 -3.79615 4.64771 0
M  V30 1923 H 177.507 -2.46341 4.17665 0
M  V30 1924 N 178.85 -1.27639 -0.924453 0
M  V30 1925 C 179.782 -1.06442 -2.02985 0
M  V30 1926 C 180.795 -0.0194771 -1.62788 0
M  V30 1927 O 181.984 -0.261388 -1.76576 0
M  V30 1928 C 179.084 -0.59327 -3.33667 0
M  V30 1929 C 178.257 -1.71123 -4.02537 0
M  V30 1930 C 177.316 -1.23527 -5.11495 0
M  V30 1931 O 176.342 -1.93553 -5.35281 0
M  V30 1932 N 177.544 -0.0926678 -5.80426 0
M  V30 1933 H 180.309 -2.01633 -2.2173 0
M  V30 1934 H 177.87 -1.19248 -1.09505 0
M  V30 1935 H 179.862 -0.258686 -4.03872 0
M  V30 1936 H 178.432 0.265502 -3.1147 0
M  V30 1937 H 177.652 -2.21593 -3.26022 0
M  V30 1938 H 178.94 -2.46145 -4.45298 0
M  V30 1939 H 178.338 0.491741 -5.63559 0
M  V30 1940 H 176.895 0.182714 -6.51544 0
M  V30 1941 N 180.328 1.1314 -1.09713 0
M  V30 1942 C 181.258 2.20748 -0.761102 0
M  V30 1943 C 182.239 1.68061 0.262566 0
M  V30 1944 O 183.424 1.93765 0.129977 0
M  V30 1945 C 180.554 3.46812 -0.184054 0
M  V30 1946 C 179.508 4.12606 -1.13757 0
M  V30 1947 C 178.834 5.33031 -0.422083 0
M  V30 1948 C 180.134 4.59603 -2.48118 0
M  V30 1949 H 181.828 2.49113 -1.66082 0
M  V30 1950 H 179.374 1.19734 -0.799987 0
M  V30 1951 H 181.327 4.21353 0.0631215 0
M  V30 1952 H 180.051 3.17851 0.750868 0
M  V30 1953 H 178.71 3.40036 -1.37007 0
M  V30 1954 H 178.358 5.00335 0.517072 0
M  V30 1955 H 178.058 5.77999 -1.05788 0
M  V30 1956 H 179.582 6.10325 -0.183277 0
M  V30 1957 H 180.996 5.25552 -2.29059 0
M  V30 1958 H 179.393 5.15321 -3.07514 0
M  V30 1959 H 180.463 3.73971 -3.08665 0
M  V30 1960 N 181.806 0.884767 1.30421 0
M  V30 1961 C 182.736 0.367574 2.30589 0
M  V30 1962 C 183.717 -0.549464 1.60981 0
M  V30 1963 O 184.902 -0.46336 1.88591 0
M  V30 1964 C 182.032 -0.418944 3.44764 0
M  V30 1965 C 180.986 0.406316 4.26067 0
M  V30 1966 C 180.312 -0.506793 5.32293 0
M  V30 1967 C 181.612 1.64832 4.95608 0
M  V30 1968 H 183.306 1.20462 2.74097 0
M  V30 1969 H 180.852 0.580695 1.31772 0
M  V30 1970 H 182.805 -0.791395 4.13902 0
M  V30 1971 H 181.529 -1.28964 3.0006 0
M  V30 1972 H 180.188 0.760903 3.58617 0
M  V30 1973 H 179.836 -1.37519 4.83836 0
M  V30 1974 H 179.536 0.0415828 5.87585 0
M  V30 1975 H 181.06 -0.875764 6.04287 0
M  V30 1976 H 182.474 1.34646 5.57264 0
M  V30 1977 H 180.871 2.13688 5.60765 0
M  V30 1978 H 181.941 2.39284 4.21748 0
M  V30 1979 N 183.284 -1.43765 0.645699 0
M  V30 1980 C 184.214 -2.33471 -0.0370477 0
M  V30 1981 C 185.195 -1.49042 -0.819779 0
M  V30 1982 O 186.38 -1.77726 -0.782758 0
M  V30 1983 C 183.51 -3.32311 -1.0093 0
M  V30 1984 C 182.464 -4.2667 -0.337201 0
M  V30 1985 C 181.79 -5.1549 -1.42037 0
M  V30 1986 C 183.09 -5.16657 0.765706 0
M  V30 1987 H 184.784 -2.90809 0.712069 0
M  V30 1988 H 182.33 -1.39834 0.343876 0
M  V30 1989 H 184.283 -3.9396 -1.49578 0
M  V30 1990 H 183.007 -2.73213 -1.78948 0
M  V30 1991 H 181.666 -3.66374 0.128771 0
M  V30 1992 H 181.314 -4.52735 -2.1918 0
M  V30 1993 H 181.014 -5.79438 -0.975966 0
M  V30 1994 H 182.538 -5.80012 -1.90838 0
M  V30 1995 H 183.952 -5.72158 0.361702 0
M  V30 1996 H 182.349 -5.89286 1.13413 0
M  V30 1997 H 183.419 -4.56796 1.62683 0
M  V30 1998 N 184.763 -0.387143 -1.52771 0
M  V30 1999 C 185.71 0.449048 -2.26389 0
M  V30 2000 C 186.68 1.05961 -1.27912 0
M  V30 2001 O 187.865 1.08804 -1.56737 0
M  V30 2002 C 185.005 1.57155 -3.0724 0
M  V30 2003 C 184.118 0.984066 -4.20643 0
M  V30 2004 C 183.253 2.07745 -4.88892 0
M  V30 2005 C 182.292 1.46574 -5.94292 0
M  V30 2006 N 181.429 2.49834 -6.56146 0
M  V30 2007 H 186.269 -0.185205 -2.97424 0
M  V30 2008 H 183.806 -0.103164 -1.46738 0
M  V30 2009 H 185.764 2.23309 -3.52405 0
M  V30 2010 H 184.394 2.17615 -2.38419 0
M  V30 2011 H 183.446 0.212193 -3.79808 0
M  V30 2012 H 184.758 0.497029 -4.96318 0
M  V30 2013 H 183.912 2.81673 -5.3735 0
M  V30 2014 H 182.651 2.59807 -4.12737 0
M  V30 2015 H 181.656 0.711696 -5.45174 0
M  V30 2016 H 182.881 0.953088 -6.72379 0
M  V30 2017 H 180.827 3.0107 -5.82832 0
M  V30 2018 H 180.744 2.05879 -7.27427 0
M  V30 2019 H 182.012 3.23399 -7.09249 0
M  V30 2020 N 186.241 1.57166 -0.116904 0
M  V30 2021 C 187.151 2.18745 0.847812 0
M  V30 2022 C 188.167 1.163 1.29423 0
M  V30 2023 O 189.343 1.48761 1.35765 0
M  V30 2024 C 186.408 2.77307 2.0809 0
M  V30 2025 C 185.469 3.94781 1.68661 0
M  V30 2026 C 184.702 4.50541 2.86091 0
M  V30 2027 O 184.925 4.05202 4.01456 0
M  V30 2028 O 183.859 5.41256 2.63298 0
M  V30 2029 H 187.685 3.01632 0.353778 0
M  V30 2030 H 185.27 1.49005 0.108599 0
M  V30 2031 H 187.152 3.14647 2.80313 0
M  V30 2032 H 185.827 1.97452 2.56504 0
M  V30 2033 H 184.734 3.62214 0.935518 0
M  V30 2034 H 186.067 4.76065 1.24991 0
M  V30 2035 N 187.719 -0.156864 1.56817 0
M  V30 2036 C 188.965 -0.867645 1.83966 0
M  V30 2037 C 189.32 -1.79233 0.699511 0
M  V30 2038 O 188.613 -1.89186 -0.303176 0
M  V30 2039 C 188.807 -1.68737 3.1506 0
M  V30 2040 C 188.636 -0.843548 4.41718 0
M  V30 2041 C 187.406 -0.512994 5.02689 0
M  V30 2042 C 189.604 -0.178416 5.1399 0
M  V30 2043 N 187.586 0.345456 6.12927 0
M  V30 2044 C 188.957 0.540586 6.17639 0
M  V30 2045 C 191.012 -0.0980696 4.97803 0
M  V30 2046 C 189.715 1.33233 7.06853 0
M  V30 2047 C 191.741 0.680387 5.87473 0
M  V30 2048 C 191.103 1.3877 6.90596 0
M  V30 2049 H 187.202 -0.295642 0.723961 0
M  V30 2050 H 189.786 -0.13365 1.94241 0
M  V30 2051 H 187.957 -2.39268 3.0595 0
M  V30 2052 H 189.689 -2.34056 3.30151 0
M  V30 2053 H 186.444 -0.846476 4.65974 0
M  V30 2054 H 186.868 0.765415 6.72659 0
M  V30 2055 H 191.51 -0.630562 4.18071 0
M  V30 2056 H 189.228 1.87612 7.8602 0
M  V30 2057 H 192.814 0.744415 5.77018 0
M  V30 2058 H 191.694 1.9804 7.58782 0
M  V30 2059 N 189.197 -1.51736 -0.425897 0
M  V30 2060 C 190.129 -1.70083 -1.53638 0
M  V30 2061 C 191.142 -0.581349 -1.52066 0
M  V30 2062 O 192.331 -0.856017 -1.56635 0
M  V30 2063 C 189.431 -1.71078 -2.9255 0
M  V30 2064 C 188.604 -2.99795 -3.185 0
M  V30 2065 C 187.663 -2.92825 -4.37196 0
M  V30 2066 O 186.689 -3.66756 -4.35291 0
M  V30 2067 N 187.891 -2.0946 -5.41393 0
M  V30 2068 H 190.656 -2.65882 -1.383 0
M  V30 2069 H 188.217 -1.49765 -0.614988 0
M  V30 2070 H 190.209 -1.63969 -3.69995 0
M  V30 2071 H 188.779 -0.828242 -3.01428 0
M  V30 2072 H 187.999 -3.20684 -2.2925 0
M  V30 2073 H 189.287 -3.84977 -3.32671 0
M  V30 2074 H 188.685 -1.48792 -5.45781 0
M  V30 2075 H 187.242 -2.08221 -6.17647 0
M  V30 2076 N 190.675 0.682077 -1.42076 0
M  V30 2077 C 191.608 1.80666 -1.3941 0
M  V30 2078 C 192.586 1.60518 -0.25939 0
M  V30 2079 O 193.77 1.83088 -0.448456 0
M  V30 2080 C 190.897 3.17556 -1.17796 0
M  V30 2081 C 189.943 3.56468 -2.34164 0
M  V30 2082 S 190.776 3.59729 -3.96681 0
M  V30 2083 C 191.932 4.99323 -3.77395 0
M  V30 2084 H 192.165 1.82652 -2.34575 0
M  V30 2085 H 189.698 0.852062 -1.2876 0
M  V30 2086 H 191.656 3.96575 -1.06012 0
M  V30 2087 H 190.317 3.13164 -0.242279 0
M  V30 2088 H 189.51 4.5595 -2.1477 0
M  V30 2089 H 189.112 2.84792 -2.42425 0
M  V30 2090 H 191.404 5.87202 -3.37935 0
M  V30 2091 H 192.347 5.23763 -4.76527 0
M  V30 2092 H 192.755 4.71498 -3.10403 0
M  V30 2093 N 192.153 1.28127 0.917671 0
M  V30 2094 C 193.063 1.13556 2.05286 0
M  V30 2095 C 194.079 0.0630914 1.73886 0
M  V30 2096 O 195.255 0.271598 1.9956 0
M  V30 2097 C 192.32 0.794676 3.3747 0
M  V30 2098 C 191.381 1.94909 3.82504 0
M  V30 2099 C 190.614 1.62437 5.0838 0
M  V30 2100 O 190.837 0.536905 5.67867 0
M  V30 2101 O 189.771 2.46677 5.4903 0
M  V30 2102 H 193.597 2.08844 2.20495 0
M  V30 2103 H 191.182 1.07409 1.03845 0
M  V30 2104 H 193.064 0.618344 4.16839 0
M  V30 2105 H 191.739 -0.128581 3.23445 0
M  V30 2106 H 190.646 2.18055 3.03978 0
M  V30 2107 H 191.979 2.85291 4.01086 0
M  V30 2108 N 193.631 -1.12557 1.10312 0
M  V30 2109 C 194.561 -2.20341 0.772798 0
M  V30 2110 C 195.542 -1.68198 -0.25365 0
M  V30 2111 O 196.727 -1.93831 -0.119699 0
M  V30 2112 C 193.857 -3.46709 0.202443 0
M  V30 2113 C 192.811 -4.11996 1.15943 0
M  V30 2114 C 192.137 -5.328 0.450345 0
M  V30 2115 C 193.437 -4.5828 2.50552 0
M  V30 2116 H 195.131 -2.48229 1.674 0
M  V30 2117 H 192.677 -1.19308 0.806326 0
M  V30 2118 H 194.63 -4.2138 -0.0407752 0
M  V30 2119 H 193.354 -3.18245 -0.734001 0
M  V30 2120 H 192.013 -3.39305 1.38808 0
M  V30 2121 H 191.661 -5.00602 -0.490531 0
M  V30 2122 H 191.361 -5.7743 1.08851 0
M  V30 2123 H 192.885 -6.10219 0.215642 0
M  V30 2124 H 194.299 -5.2433 2.31843 0
M  V30 2125 H 192.696 -5.13683 3.10242 0
M  V30 2126 H 193.766 -3.72329 3.10643 0
M  V30 2127 N 195.109 -0.891671 -1.2995 0
M  V30 2128 C 196.52 -0.563104 -1.78006 0
M  V30 2129 C 196.871 0.920978 -1.73241 0
M  V30 2130 O 195.996 1.71987 -1.31337 0
M  V30 2131 C 196.591 -1.01539 -3.23226 0
M  V30 2132 C 195.15 -0.738124 -3.69092 0
M  V30 2133 C 194.297 -1.19461 -2.50249 0
M  V30 2134 H 197.248 -1.07522 -1.16725 0
M  V30 2135 H 197.269 -0.347217 -3.78912 0
M  V30 2136 H 196.781 -2.09555 -3.26662 0
M  V30 2137 H 194.882 0.329766 -3.71138 0
M  V30 2138 H 194.995 -1.33037 -4.60259 0
M  V30 2139 H 193.359 -0.613787 -2.47194 0
M  V30 2140 H 194.142 -2.28265 -2.56417 0
M  V30 2141 N 196.587 1.43421 -0.653314 0
M  V30 2142 C 197.534 2.30768 0.0382271 0
M  V30 2143 C 198.504 1.44755 0.814576 0
M  V30 2144 O 199.689 1.73624 0.791162 0
M  V30 2145 C 196.829 3.30336 0.998599 0
M  V30 2146 C 195.942 4.31448 0.218342 0
M  V30 2147 C 195.077 5.18098 1.17252 0
M  V30 2148 C 194.116 6.10902 0.382702 0
M  V30 2149 N 193.253 6.90176 1.28848 0
M  V30 2150 H 198.093 2.89357 -0.712511 0
M  V30 2151 H 195.63 1.42548 -0.363128 0
M  V30 2152 H 197.588 3.86572 1.56901 0
M  V30 2153 H 196.218 2.73397 1.71621 0
M  V30 2154 H 195.27 3.77506 -0.46836 0
M  V30 2155 H 196.582 4.97227 -0.395812 0
M  V30 2156 H 195.736 5.7896 1.81356 0
M  V30 2157 H 194.475 4.52444 1.82058 0
M  V30 2158 H 193.48 5.49128 -0.27169 0
M  V30 2159 H 194.705 6.78598 -0.260957 0
M  V30 2160 H 192.651 6.27171 1.92334 0
M  V30 2161 H 192.568 7.52478 0.728887 0
M  V30 2162 H 193.836 7.55543 1.91766 0
M  V30 2163 N 198.065 0.39524 1.52563 0
M  V30 2164 C 198.995 -0.428384 2.29537 0
M  V30 2165 C 199.976 -1.05831 1.33169 0
M  V30 2166 O 201.161 -1.06995 1.62067 0
M  V30 2167 C 198.291 -1.55274 3.10656 0
M  V30 2168 C 197.245 -1.04855 4.14957 0
M  V30 2169 C 196.571 -2.26543 4.84337 0
M  V30 2170 C 197.871 -0.112324 5.22179 0
M  V30 2171 H 199.565 0.213867 2.98635 0
M  V30 2172 H 197.111 0.104298 1.43622 0
M  V30 2173 H 199.064 -2.1358 3.63265 0
M  V30 2174 H 197.788 -2.22266 2.39302 0
M  V30 2175 H 196.447 -0.487985 3.63338 0
M  V30 2176 H 196.095 -2.92059 4.09525 0
M  V30 2177 H 195.795 -1.93466 5.54837 0
M  V30 2178 H 197.319 -2.85481 5.39753 0
M  V30 2179 H 198.733 -0.603752 5.70112 0
M  V30 2180 H 197.13 0.128968 5.99961 0
M  V30 2181 H 198.2 0.837052 4.77621 0
M  V30 2182 N 199.544 -1.57102 0.125237 0
M  V30 2183 C 200.79 -1.95697 -0.532035 0
M  V30 2184 C 201.123 -1.009 -1.6593 0
M  V30 2185 O 200.398 -0.047347 -1.94442 0
M  V30 2186 C 200.681 -3.44181 -1.05884 0
M  V30 2187 C 200.534 -4.49752 0.0654392 0
M  V30 2188 C 201.853 -3.94655 -1.9477 0
M  V30 2189 H 198.972 -0.711571 -0.191925 0
M  V30 2190 H 201.614 -1.88923 0.20206 0
M  V30 2191 H 199.764 -3.50085 -1.68442 0
M  V30 2192 H 201.436 -4.55943 0.700982 0
M  V30 2193 H 199.679 -4.27653 0.727709 0
M  V30 2194 H 200.35 -5.50924 -0.344505 0
M  V30 2195 H 202.826 -3.91094 -1.42074 0
M  V30 2196 H 201.702 -4.99057 -2.28546 0
M  V30 2197 H 201.963 -3.35718 -2.87656 0
M  V30 2198 N 201.022 0.148545 -1.56898 0
M  V30 2199 C 202.271 0.85984 -1.82454 0
M  V30 2200 C 202.584 1.82406 -0.706229 0
M  V30 2201 O 203.79 2.57938 -0.847349 0
M  V30 2202 C 202.246 1.57967 -3.2338 0
M  V30 2203 C 201.854 0.65794 -4.43142 0
M  V30 2204 C 203.598 2.27784 -3.58211 0
M  V30 2205 C 201.505 1.3793 -5.75091 0
M  V30 2206 H 200.435 0.324834 -0.68044 0
M  V30 2207 H 203.086 0.112588 -1.83154 0
M  V30 2208 H 201.468 2.37249 -3.17063 0
M  V30 2209 H 202.642 -0.0995497 -4.60692 0
M  V30 2210 H 200.957 0.0682643 -4.16344 0
M  V30 2211 H 203.554 2.8239 -4.54048 0
M  V30 2212 H 203.897 3.04204 -2.84193 0
M  V30 2213 H 204.43 1.55421 -3.66182 0
M  V30 2214 H 201.169 0.656982 -6.52199 0
M  V30 2215 H 200.689 2.10954 -5.61479 0
M  V30 2216 H 202.368 1.92063 -6.17835 0
M  V30 2217 N 202.5 1.5196 0.417844 0
M  V30 2218 C 203.725 1.69717 1.1921 0
M  V30 2219 C 204.15 0.402148 1.83751 0
M  V30 2220 O 203.508 -0.639593 1.69643 0
M  V30 2221 C 203.556 2.82794 2.2374 0
M  V30 2222 O 202.66 2.47756 3.29683 0
M  V30 2223 H 202.001 0.565263 0.348387 0
M  V30 2224 H 204.531 1.98621 0.490985 0
M  V30 2225 H 204.541 3.07452 2.68212 0
M  V30 2226 H 203.216 3.76756 1.76146 0
M  V30 2227 H 201.793 2.33739 2.90552 0
M  V30 2228 N 203.978 -0.674533 1.42435 0
M  V30 2229 C 205.224 -1.43671 1.43131 0
M  V30 2230 C 205.557 -1.94142 0.0476021 0
M  V30 2231 O 204.832 -1.70924 -0.928188 0
M  V30 2232 C 205.115 -2.63355 2.45594 0
M  V30 2233 C 204.968 -2.18514 3.93156 0
M  V30 2234 C 206.287 -3.65571 2.45043 0
M  V30 2235 H 203.406 -0.521077 0.521198 0
M  V30 2236 H 206.048 -0.766551 1.7385 0
M  V30 2237 H 204.198 -3.2053 2.19528 0
M  V30 2238 H 205.87 -1.66504 4.30202 0
M  V30 2239 H 204.113 -1.50086 4.07009 0
M  V30 2240 H 204.784 -3.04484 4.60428 0
M  V30 2241 H 207.26 -3.18113 2.68223 0
M  V30 2242 H 206.136 -4.46893 3.18713 0
M  V30 2243 H 206.397 -4.16716 1.47649 0
M  V30 2244 N 205.456 -1.28612 -0.910864 0
M  V30 2245 C 206.406 -1.09423 -2.00026 0
M  V30 2246 C 207.39 -0.0170079 -1.60891 0
M  V30 2247 O 208.582 -0.237472 -1.754 0
M  V30 2248 C 205.711 -0.76114 -3.34756 0
M  V30 2249 C 204.797 -1.87735 -3.80285 0
M  V30 2250 N 205.188 -3.11938 -3.98156 0
M  V30 2251 C 203.486 -1.76786 -4.09467 0
M  V30 2252 C 204.187 -3.84687 -4.36338 0
M  V30 2253 N 203.163 -3.12555 -4.44759 0
M  V30 2254 H 206.965 -2.03658 -2.11898 0
M  V30 2255 H 204.479 -1.19573 -1.09891 0
M  V30 2256 H 206.476 -0.604743 -4.12491 0
M  V30 2257 H 205.136 0.173403 -3.24237 0
M  V30 2258 H 206.147 -3.47516 -3.83996 0
M  V30 2259 H 202.824 -0.905284 -4.07567 0
M  V30 2260 H 204.214 -4.91518 -4.58104 0
M  V30 2261 N 206.934 1.1197 -1.10907 0
M  V30 2262 C 208.182 1.83225 -0.852819 0
M  V30 2263 C 208.503 1.84769 0.623341 0
M  V30 2264 O 207.773 1.3143 1.45269 0
M  V30 2265 H 206.353 0.67849 -0.312507 0
M  V30 2266 H 209.015 1.3556 -1.40033 0
M  V30 2267 H 208.111 2.87265 -1.22005 0
M  V30 2268 N 208.412 0.89855 1.29475 0
M  V30 2269 C 209.66 0.522847 1.9522 0
M  V30 2270 C 209.981 -0.93371 1.71192 0
M  V30 2271 O 209.251 -1.65823 1.04305 0
M  V30 2272 H 207.831 0.190366 0.722336 0
M  V30 2273 H 210.493 1.14459 1.5775 0
M  V30 2274 H 209.589 0.704476 3.04045 0
M  V30 2275 N 209.89 -1.43072 0.660911 0
M  V30 2276 C 210.823 -2.28074 -0.0758862 0
M  V30 2277 C 211.801 -1.40271 -0.822362 0
M  V30 2278 O 212.985 -1.69713 -0.820352 0
M  V30 2279 C 210.112 -3.19843 -1.11437 0
M  V30 2280 C 209.158 -4.23957 -0.465069 0
M  V30 2281 S 209.991 -5.29978 0.767078 0
M  V30 2282 C 211.147 -6.25314 -0.270682 0
M  V30 2283 H 211.38 -2.90216 0.645139 0
M  V30 2284 H 208.913 -1.47697 0.449995 0
M  V30 2285 H 210.871 -3.73257 -1.70849 0
M  V30 2286 H 209.532 -2.56863 -1.80776 0
M  V30 2287 H 208.725 -4.88299 -1.24819 0
M  V30 2288 H 208.327 -3.73959 0.0551242 0
M  V30 2289 H 210.619 -6.67932 -1.13459 0
M  V30 2290 H 211.562 -7.07293 0.337916 0
M  V30 2291 H 211.97 -5.61195 -0.609937 0
M  V30 2292 N 211.368 -0.403325 -1.52352 0
M  V30 2293 C 212.3 0.4603 -2.2453 0
M  V30 2294 C 213.313 1.01505 -1.27282 0
M  V30 2295 O 214.502 0.914982 -1.53266 0
M  V30 2296 C 211.602 1.65208 -2.95905 0
M  V30 2297 C 210.775 1.22224 -4.19976 0
M  V30 2298 C 209.834 2.28028 -4.74226 0
M  V30 2299 O 208.86 1.88857 -5.36956 0
M  V30 2300 N 210.062 3.6012 -4.55295 0
M  V30 2301 H 212.827 -0.158156 -2.99282 0
M  V30 2302 H 210.388 -0.230402 -1.60252 0
M  V30 2303 H 212.38 2.35541 -3.29093 0
M  V30 2304 H 210.95 2.17658 -2.24374 0
M  V30 2305 H 210.17 0.34725 -3.92668 0
M  V30 2306 H 211.458 0.911924 -5.00561 0
M  V30 2307 H 210.856 3.94698 -4.05253 0
M  V30 2308 H 209.413 4.26447 -4.92936 0
M  V30 2309 N 212.846 1.57033 -0.133567 0
M  V30 2310 C 213.793 2.16074 0.811208 0
M  V30 2311 C 214.763 1.08979 1.2535 0
M  V30 2312 O 215.948 1.36958 1.32843 0
M  V30 2313 C 213.088 2.77595 2.05024 0
M  V30 2314 C 212.201 3.99042 1.65498 0
M  V30 2315 C 211.336 4.48603 2.84479 0
M  V30 2316 C 210.375 5.62547 2.41262 0
M  V30 2317 N 209.512 6.06787 3.53206 0
M  V30 2318 H 214.352 2.96477 0.300906 0
M  V30 2319 H 211.889 1.46462 0.136822 0
M  V30 2320 H 213.847 3.11402 2.77642 0
M  V30 2321 H 212.477 1.99859 2.53488 0
M  V30 2322 H 211.529 3.71302 0.826981 0
M  V30 2323 H 212.841 4.81629 1.29748 0
M  V30 2324 H 211.995 4.84395 3.65303 0
M  V30 2325 H 210.734 3.64995 3.23465 0
M  V30 2326 H 209.739 5.26345 1.58874 0
M  V30 2327 H 210.964 6.47931 2.03377 0
M  V30 2328 H 208.91 5.26117 3.91838 0
M  V30 2329 H 208.827 6.84266 3.21427 0
M  V30 2330 H 210.095 6.4722 4.34427 0
M  V30 2331 N 214.325 -0.140222 1.56975 0
M  V30 2332 C 215.572 -0.851687 1.83719 0
M  V30 2333 C 215.9 -1.80862 0.715485 0
M  V30 2334 O 215.155 -1.93464 -0.294956 0
M  V30 2335 C 215.454 -1.65386 3.16832 0
M  V30 2336 C 215.12 -0.843112 4.42947 0
M  V30 2337 C 213.782 -0.619464 4.77196 0
M  V30 2338 C 216.134 -0.276582 5.20466 0
M  V30 2339 C 213.462 0.181312 5.8642 0
M  V30 2340 C 215.814 0.51127 6.30531 0
M  V30 2341 C 214.478 0.745432 6.63325 0
M  V30 2342 H 213.748 -0.311654 0.672274 0
M  V30 2343 H 216.395 -0.115006 1.91154 0
M  V30 2344 H 214.7 -2.46084 3.04877 0
M  V30 2345 H 216.397 -2.20793 3.34741 0
M  V30 2346 H 212.987 -1.0275 4.16101 0
M  V30 2347 H 217.171 -0.436632 4.94376 0
M  V30 2348 H 212.427 0.372165 6.10266 0
M  V30 2349 H 216.601 0.957354 6.89788 0
M  V30 2350 H 214.228 1.36778 7.47794 0
M  V30 2351 N 215.803 -1.52179 -0.40978 0
M  V30 2352 C 216.713 -1.78364 -1.52392 0
M  V30 2353 C 217.729 -0.669183 -1.60617 0
M  V30 2354 O 218.905 -0.954518 -1.77344 0
M  V30 2355 C 215.97 -1.92822 -2.88133 0
M  V30 2356 C 215.031 -3.16725 -2.898 0
M  V30 2357 C 214.264 -3.30483 -4.19067 0
M  V30 2358 O 214.487 -2.49522 -5.12928 0
M  V30 2359 O 213.421 -4.2363 -4.27576 0
M  V30 2360 H 217.247 -2.72931 -1.33201 0
M  V30 2361 H 214.832 -1.37016 -0.59557 0
M  V30 2362 H 216.714 -2.04157 -3.68643 0
M  V30 2363 H 215.389 -1.01444 -3.07393 0
M  V30 2364 H 214.296 -3.10848 -2.08146 0
M  V30 2365 H 215.629 -4.07881 -2.75489 0
M  V30 2366 N 217.281 0.66697 -1.42791 0
M  V30 2367 C 218.211 1.79218 -1.49677 0
M  V30 2368 C 219.192 1.66405 -0.352623 0
M  V30 2369 O 220.377 1.85708 -0.567993 0
M  V30 2370 C 217.507 3.17565 -1.40605 0
M  V30 2371 C 216.461 3.45124 -2.53127 0
M  V30 2372 C 215.787 4.83127 -2.29112 0
M  V30 2373 C 217.087 3.41236 -3.95418 0
M  V30 2374 H 218.781 1.73713 -2.43853 0
M  V30 2375 H 216.327 0.83432 -1.17367 0
M  V30 2376 H 218.28 3.96022 -1.44029 0
M  V30 2377 H 217.004 3.23767 -0.429271 0
M  V30 2378 H 215.663 2.69031 -2.49034 0
M  V30 2379 H 215.311 4.85988 -1.29709 0
M  V30 2380 H 215.011 5.02528 -3.04531 0
M  V30 2381 H 216.535 5.63859 -2.34297 0
M  V30 2382 H 217.949 4.09651 -4.01073 0
M  V30 2383 H 216.346 3.72173 -4.70752 0
M  V30 2384 H 217.416 2.39665 -4.21532 0
M  V30 2385 N 218.759 1.29093 0.90403 0
M  V30 2386 C 219.709 1.10482 1.99443 0
M  V30 2387 C 220.693 0.0255401 1.6088 0
M  V30 2388 O 221.885 0.24677 1.75271 0
M  V30 2389 C 219.014 0.778882 3.34348 0
M  V30 2390 C 218.1 1.89749 3.79284 0
M  V30 2391 N 218.491 3.14045 3.96497 0
M  V30 2392 C 216.789 1.78955 4.08523 0
M  V30 2393 C 217.49 3.86996 4.34292 0
M  V30 2394 N 216.466 3.14909 4.43095 0
M  V30 2395 H 220.268 2.04778 2.10815 0
M  V30 2396 H 217.782 1.20155 1.09255 0
M  V30 2397 H 219.779 0.62661 4.12164 0
M  V30 2398 H 218.439 -0.156205 3.24324 0
M  V30 2399 H 219.45 3.49548 3.82148 0
M  V30 2400 H 216.127 0.926886 4.07081 0
M  V30 2401 H 217.517 4.93941 4.55491 0
M  V30 2402 N 220.237 -1.11381 1.11499 0
M  V30 2403 C 221.648 -1.6465 0.880191 0
M  V30 2404 C 221.999 -1.87199 -0.587434 0
M  V30 2405 O 221.124 -1.60667 -1.44966 0
M  V30 2406 C 221.719 -2.99105 1.59128 0
M  V30 2407 C 220.278 -3.49279 1.40289 0
M  V30 2408 C 219.425 -2.24077 1.63354 0
M  V30 2409 H 222.376 -0.950123 1.27116 0
M  V30 2410 H 222.397 -3.66107 1.03664 0
M  V30 2411 H 221.909 -2.82661 2.65941 0
M  V30 2412 H 220.01 -3.70887 0.356888 0
M  V30 2413 H 220.123 -4.2803 2.15238 0
M  V30 2414 H 218.487 -2.31733 1.05698 0
M  V30 2415 H 219.27 -2.10175 2.71443 0
M  V30 2416 N 221.715 -0.905404 -1.28997 0
M  V30 2417 C 223.131 -0.60233 -1.47798 0
M  V30 2418 C 223.331 0.854645 -1.82478 0
M  V30 2419 O 222.387 1.63439 -1.92468 0
M  V30 2420 C 223.7 -1.53306 -2.58685 0
M  V30 2421 C 225.248 -1.53887 -2.72558 0
M  V30 2422 C 225.723 -2.45602 -3.86579 0
M  V30 2423 N 227.214 -2.43681 -3.93921 0
M  V30 2424 C 227.949 -3.11347 -4.81509 0
M  V30 2425 N 227.445 -3.88313 -5.73746 0
M  V30 2426 N 229.238 -3.00476 -4.75048 0
M  V30 2427 H 221.389 -1.84765 -1.04764 0
M  V30 2428 H 223.652 -0.792025 -0.520961 0
M  V30 2429 H 223.358 -2.57141 -2.39941 0
M  V30 2430 H 223.232 -1.25787 -3.55609 0
M  V30 2431 H 225.619 -0.507941 -2.90696 0
M  V30 2432 H 225.7 -1.85447 -1.76191 0
M  V30 2433 H 225.344 -3.48792 -3.69197 0
M  V30 2434 H 225.274 -2.11349 -4.82327 0
M  V30 2435 H 227.765 -1.87767 -3.27951 0
M  V30 2436 H 228.078 -4.36985 -6.37389 0
M  V30 2437 H 226.423 -3.92419 -5.73614 0
M  V30 2438 H 229.614 -2.39858 -4.01977 0
M  V30 2439 H 229.787 -3.53485 -5.43095 0
M  V30 2440 N 223.193 1.4272 -0.668489 0
M  V30 2441 C 224.442 2.00846 -0.185389 0
M  V30 2442 C 224.755 1.53442 1.21305 0
M  V30 2443 O 225.961 2.03944 1.79218 0
M  V30 2444 C 224.417 3.58805 -0.280591 0
M  V30 2445 C 224.025 4.15198 -1.68268 0
M  V30 2446 C 225.769 4.24255 0.14412 0
M  V30 2447 C 223.676 5.655 -1.73099 0
M  V30 2448 H 222.606 0.751145 -0.0655475 0
M  V30 2449 H 225.257 1.63516 -0.832752 0
M  V30 2450 H 223.639 3.93608 0.434553 0
M  V30 2451 H 224.813 3.91866 -2.42441 0
M  V30 2452 H 223.128 3.62176 -2.05469 0
M  V30 2453 H 225.725 5.34547 0.128086 0
M  V30 2454 H 226.068 3.99277 1.17827 0
M  V30 2455 H 226.601 3.94389 -0.519798 0
M  V30 2456 H 223.34 5.95268 -2.74475 0
M  V30 2457 H 222.86 5.90842 -1.03274 0
M  V30 2458 H 224.539 6.29808 -1.48158 0
M  V30 2459 N 224.671 0.411399 1.52136 0
M  V30 2460 C 225.618 -0.412975 2.27075 0
M  V30 2461 C 226.588 -1.03912 1.29582 0
M  V30 2462 O 227.773 -1.06296 1.58448 0
M  V30 2463 C 224.913 -1.52247 3.09701 0
M  V30 2464 C 224.026 -0.917021 4.22155 0
M  V30 2465 C 223.161 -1.9994 4.92135 0
M  V30 2466 C 222.2 -1.37101 5.96548 0
M  V30 2467 N 221.337 -2.39364 6.60038 0
M  V30 2468 H 226.177 0.232499 2.97092 0
M  V30 2469 H 223.714 0.126496 1.46555 0
M  V30 2470 H 225.672 -2.17674 3.55913 0
M  V30 2471 H 224.302 -2.13794 2.41851 0
M  V30 2472 H 223.354 -0.151742 3.80097 0
M  V30 2473 H 224.666 -0.418006 4.97045 0
M  V30 2474 H 223.82 -2.73088 5.41763 0
M  V30 2475 H 222.559 -2.53208 4.16818 0
M  V30 2476 H 221.564 -0.624873 5.46237 0
M  V30 2477 H 222.789 -0.845998 6.7381 0
M  V30 2478 H 220.735 -2.91759 5.87548 0
M  V30 2479 H 220.652 -1.9428 7.3061 0
M  V30 2480 H 221.92 -3.12074 7.14304 0
M  V30 2481 N 226.149 -1.5696 0.141893 0
M  V30 2482 C 227.081 -2.13619 -0.830627 0
M  V30 2483 C 228.094 -1.08439 -1.21428 0
M  V30 2484 O 229.283 -1.35734 -1.15925 0
M  V30 2485 C 226.383 -2.63978 -2.12529 0
M  V30 2486 C 225.556 -3.93504 -1.9098 0
M  V30 2487 C 224.615 -4.29225 -3.04388 0
M  V30 2488 O 223.641 -4.97641 -2.76302 0
M  V30 2489 N 224.843 -3.88393 -4.31429 0
M  V30 2490 H 227.608 -2.97691 -0.34641 0
M  V30 2491 H 225.169 -1.61846 -0.0418375 0
M  V30 2492 H 227.161 -2.84891 -2.87436 0
M  V30 2493 H 225.731 -1.84659 -2.52229 0
M  V30 2494 H 224.951 -3.81269 -1.00139 0
M  V30 2495 H 226.239 -4.78154 -1.73914 0
M  V30 2496 H 225.637 -3.33257 -4.57117 0
M  V30 2497 H 224.194 -4.14368 -5.03133 0
M  V30 2498 N 227.627 0.131896 -1.57047 0
M  V30 2499 C 228.557 1.16384 -2.02428 0
M  V30 2500 C 229.538 1.43936 -0.90644 0
M  V30 2501 O 230.723 1.54599 -1.17528 0
M  V30 2502 C 227.853 2.49328 -2.4177 0
M  V30 2503 C 226.807 2.36266 -3.56879 0
M  V30 2504 C 226.133 3.74057 -3.8208 0
M  V30 2505 C 227.433 1.834 -4.89042 0
M  V30 2506 H 229.127 0.786433 -2.88887 0
M  V30 2507 H 226.673 0.376855 -1.38981 0
M  V30 2508 H 228.626 3.21759 -2.7212 0
M  V30 2509 H 227.35 2.88934 -1.52266 0
M  V30 2510 H 226.009 1.66286 -3.26718 0
M  V30 2511 H 225.657 4.11125 -2.89803 0
M  V30 2512 H 225.357 3.66174 -4.59554 0
M  V30 2513 H 226.881 4.48012 -4.1487 0
M  V30 2514 H 228.295 2.45636 -5.18011 0
M  V30 2515 H 226.692 1.8637 -5.70426 0
M  V30 2516 H 227.762 0.790662 -4.7841 0
M  V30 2517 N 229.106 1.52395 0.401703 0
M  V30 2518 C 230.036 1.79231 1.49661 0
M  V30 2519 C 231.017 0.643654 1.57452 0
M  V30 2520 O 232.202 0.889989 1.72606 0
M  V30 2521 C 229.332 1.94971 2.87409 0
M  V30 2522 C 228.286 3.10604 2.94465 0
M  V30 2523 C 227.612 3.11577 4.34538 0
M  V30 2524 C 228.912 4.49921 2.6527 0
M  V30 2525 H 230.606 2.70917 1.27454 0
M  V30 2526 H 228.152 1.30362 0.6117 0
M  V30 2527 H 230.105 2.12328 3.63999 0
M  V30 2528 H 228.829 0.999632 3.10926 0
M  V30 2529 H 227.488 2.93009 2.20321 0
M  V30 2530 H 227.136 2.14277 4.55076 0
M  V30 2531 H 226.836 3.89247 4.40183 0
M  V30 2532 H 228.36 3.31073 5.13053 0
M  V30 2533 H 229.774 4.67683 3.31581 0
M  V30 2534 H 228.171 5.29564 2.82281 0
M  V30 2535 H 229.241 4.57507 1.60671 0
M  V30 2536 N 230.584 -0.659388 1.43143 0
M  V30 2537 C 231.832 -1.41654 1.44147 0
M  V30 2538 C 232.153 -1.94893 0.0645739 0
M  V30 2539 O 231.423 -1.74044 -0.899198 0
M  V30 2540 H 230.003 -0.525708 0.530697 0
M  V30 2541 H 232.665 -0.778097 1.78694 0
M  V30 2542 H 231.761 -2.26195 2.1504 0
M  V30 2543 N 232.062 -1.29571 -0.897171 0
M  V30 2544 C 233.009 -1.14916 -2.00158 0
M  V30 2545 C 233.979 -0.0418149 -1.66047 0
M  V30 2546 O 235.164 -0.209793 -1.89643 0
M  V30 2547 C 232.304 -0.834307 -3.34863 0
M  V30 2548 C 231.417 -2.02234 -3.8174 0
M  V30 2549 C 230.552 -1.64664 -5.05034 0
M  V30 2550 C 229.591 -2.80033 -5.44286 0
M  V30 2551 N 228.728 -2.42843 -6.58765 0
M  V30 2552 H 233.568 -2.09403 -2.12025 0
M  V30 2553 H 231.105 -1.042 -1.0383 0
M  V30 2554 H 233.063 -0.632436 -4.12379 0
M  V30 2555 H 231.693 0.0736656 -3.22716 0
M  V30 2556 H 230.745 -2.33583 -3.00238 0
M  V30 2557 H 232.057 -2.88673 -4.06779 0
M  V30 2558 H 231.211 -1.4078 -5.9014 0
M  V30 2559 H 229.95 -0.753766 -4.8184 0
M  V30 2560 H 228.955 -3.04596 -4.57713 0
M  V30 2561 H 230.18 -3.69989 -5.6946 0
M  V30 2562 H 228.126 -1.56046 -6.3717 0
M  V30 2563 H 228.043 -3.22815 -6.83613 0
M  V30 2564 H 229.311 -2.22285 -7.47134 0
M  V30 2565 N 233.54 1.10788 -1.12088 0
M  V30 2566 C 234.788 1.8231 -0.872205 0
M  V30 2567 C 235.109 1.85419 0.603709 0
M  V30 2568 O 234.379 1.32963 1.43867 0
M  V30 2569 H 232.959 0.675137 -0.319686 0
M  V30 2570 H 235.621 1.34068 -1.41463 0
M  V30 2571 H 234.717 2.85955 -1.25045 0
M  V30 2572 N 235.018 0.912232 1.28515 0
M  V30 2573 C 235.948 0.416403 2.29757 0
M  V30 2574 C 236.929 -0.515194 1.6211 0
M  V30 2575 O 238.114 -0.423253 1.89532 0
M  V30 2576 C 235.244 -0.34572 3.45575 0
M  V30 2577 C 234.198 0.496599 4.25109 0
M  V30 2578 C 233.524 -0.393771 5.33248 0
M  V30 2579 C 234.824 1.75307 4.92001 0
M  V30 2580 H 236.518 1.26249 2.7148 0
M  V30 2581 H 234.064 0.608515 1.30511 0
M  V30 2582 H 236.017 -0.703422 4.15488 0
M  V30 2583 H 234.741 -1.2257 3.02728 0
M  V30 2584 H 233.4 0.8368 3.56922 0
M  V30 2585 H 233.048 -1.27225 4.86644 0
M  V30 2586 H 232.748 0.166209 5.87365 0
M  V30 2587 H 234.272 -0.747389 6.06009 0
M  V30 2588 H 235.686 1.46437 5.54283 0
M  V30 2589 H 234.083 2.25534 5.56106 0
M  V30 2590 H 235.153 2.48176 4.16577 0
M  V30 2591 N 236.496 -1.42363 0.676048 0
M  V30 2592 C 237.745 -2.00745 0.196037 0
M  V30 2593 C 238.058 -1.54083 -1.20489 0
M  V30 2594 O 239.264 -2.04891 -1.78134 0
M  V30 2595 C 237.72 -3.58651 0.299616 0
M  V30 2596 C 237.328 -4.143 1.70468 0
M  V30 2597 C 239.072 -4.24326 -0.121619 0
M  V30 2598 C 236.979 -5.64574 1.76096 0
M  V30 2599 H 235.909 -0.750787 0.0695301 0
M  V30 2600 H 238.56 -1.63072 0.841412 0
M  V30 2601 H 236.942 -3.93833 -0.413673 0
M  V30 2602 H 238.116 -3.90575 2.44515 0
M  V30 2603 H 236.431 -3.61081 2.07387 0
M  V30 2604 H 239.028 -5.34607 -0.0997362 0
M  V30 2605 H 239.371 -3.99897 -1.15708 0
M  V30 2606 H 239.904 -3.94108 0.540706 0
M  V30 2607 H 236.643 -5.93804 2.77628 0
M  V30 2608 H 236.163 -5.90286 1.06406 0
M  V30 2609 H 237.842 -6.29013 1.51496 0
M  V30 2610 N 237.974 -0.419461 -1.51915 0
M  V30 2611 C 238.921 0.400927 -2.27291 0
M  V30 2612 C 239.891 1.03224 -1.30131 0
M  V30 2613 O 241.076 1.05455 -1.59009 0
M  V30 2614 C 238.216 1.50603 -3.10504 0
M  V30 2615 C 237.329 0.89462 -4.22635 0
M  V30 2616 C 236.464 1.97328 -4.93189 0
M  V30 2617 C 235.503 1.33935 -5.97267 0
M  V30 2618 N 234.64 2.3586 -6.61298 0
M  V30 2619 H 239.48 -0.248251 -2.96964 0
M  V30 2620 H 237.017 -0.134266 -1.46486 0
M  V30 2621 H 238.975 2.15783 -3.57062 0
M  V30 2622 H 237.605 2.12509 -2.42981 0
M  V30 2623 H 236.657 0.131583 -3.80172 0
M  V30 2624 H 237.969 0.391641 -4.9726 0
M  V30 2625 H 237.123 2.70211 -5.43204 0
M  V30 2626 H 235.862 2.50994 -4.18155 0
M  V30 2627 H 234.867 0.595896 -5.46561 0
M  V30 2628 H 236.092 0.810252 -6.74249 0
M  V30 2629 H 234.038 2.88639 -5.89087 0
M  V30 2630 H 233.955 1.90403 -7.3163 0
M  V30 2631 H 235.223 3.08282 -7.15949 0
M  V30 2632 N 239.452 1.56882 -0.150215 0
M  V30 2633 C 240.415 2.1573 0.774157 0
M  V30 2634 C 241.415 1.0999 1.17298 0
M  V30 2635 O 242.605 1.35613 1.09338 0
M  V30 2636 C 239.737 2.72302 2.05096 0
M  V30 2637 H 240.93 2.98752 0.262201 0
M  V30 2638 H 238.483 1.55985 0.099248 0
M  V30 2639 H 239.218 1.92956 2.6065 0
M  V30 2640 H 239.003 3.49665 1.77416 0
M  V30 2641 H 240.493 3.17632 2.71109 0
M  V30 2642 N 240.93 -0.123565 1.57115 0
M  V30 2643 C 241.893 -1.13583 1.99076 0
M  V30 2644 C 242.893 -1.34564 0.880296 0
M  V30 2645 O 244.083 -1.31158 1.14644 0
M  V30 2646 C 241.215 -2.49128 2.32698 0
M  V30 2647 H 242.408 -0.775287 2.89706 0
M  V30 2648 H 239.961 -0.36771 1.51913 0
M  V30 2649 H 240.696 -2.90111 1.44934 0
M  V30 2650 H 240.481 -2.35255 3.13684 0
M  V30 2651 H 241.971 -3.2199 2.65918 0
M  V30 2652 N 242.408 -1.52605 -0.393616 0
M  V30 2653 C 243.654 -1.67672 -1.14079 0
M  V30 2654 C 243.987 -0.413121 -1.89755 0
M  V30 2655 O 243.262 0.588952 -1.85369 0
M  V30 2656 C 243.545 -2.9088 -2.12276 0
M  V30 2657 C 243.398 -4.27329 -1.40394 0
M  V30 2658 C 244.717 -3.09628 -3.12759 0
M  V30 2659 H 241.836 -0.610168 -0.413356 0
M  V30 2660 H 244.478 -1.85193 -0.424696 0
M  V30 2661 H 242.628 -2.76073 -2.73342 0
M  V30 2662 H 244.3 -4.53894 -0.82327 0
M  V30 2663 H 242.543 -4.2802 -0.705801 0
M  V30 2664 H 243.214 -5.09615 -2.12123 0
M  V30 2665 H 245.69 -3.23436 -2.61779 0
M  V30 2666 H 244.566 -3.97322 -3.78717 0
M  V30 2667 H 244.827 -2.23637 -3.81365 0
M  V30 2668 N 243.887 0.651787 -1.4349 0
M  V30 2669 C 245.115 1.43937 -1.48626 0
M  V30 2670 C 245.53 1.8851 -0.104587 0
M  V30 2671 O 244.887 1.5958 0.885464 0
M  V30 2672 C 244.938 2.6734 -2.43334 0
M  V30 2673 O 244.659 2.24631 -3.76128 0
M  V30 2674 C 246.16 3.60683 -2.57726 0
M  V30 2675 H 243.38 0.44213 -0.504739 0
M  V30 2676 H 245.924 0.798944 -1.88248 0
M  V30 2677 H 244.079 3.2752 -2.06904 0
M  V30 2678 H 244.493 3.04485 -4.2707 0
M  V30 2679 H 245.967 4.43933 -3.28067 0
M  V30 2680 H 246.444 4.08126 -1.62265 0
M  V30 2681 H 247.05 3.06384 -2.94973 0
M  V30 2682 N 245.365 1.30045 0.890287 0
M  V30 2683 C 246.593 1.21472 1.67487 0
M  V30 2684 C 247.008 -0.223241 1.87476 0
M  V30 2685 O 246.365 -1.14828 1.41847 0
M  V30 2686 C 246.416 1.93394 3.05419 0
M  V30 2687 O 246.137 3.31576 2.86337 0
M  V30 2688 C 247.638 1.91414 3.99844 0
M  V30 2689 H 244.858 0.420604 0.522813 0
M  V30 2690 H 247.402 1.7158 1.11268 0
M  V30 2691 H 245.557 1.47099 3.58386 0
M  V30 2692 H 245.971 3.67929 3.73802 0
M  V30 2693 H 247.445 2.46285 4.94012 0
M  V30 2694 H 247.922 0.891833 4.3005 0
M  V30 2695 H 248.528 2.37496 3.52811 0
M  V30 2696 N 246.843 -1.10192 1.12674 0
M  V30 2697 C 248.091 -1.81845 0.881861 0
M  V30 2698 C 248.412 -1.85737 -0.593867 0
M  V30 2699 O 247.682 -1.33724 -1.4316 0
M  V30 2700 H 246.262 -0.673432 0.323261 0
M  V30 2701 H 248.924 -1.33316 1.42172 0
M  V30 2702 H 248.02 -2.85288 1.2656 0
M  V30 2703 N 248.321 -0.919034 -1.28029 0
M  V30 2704 C 249.284 -0.416182 -2.2539 0
M  V30 2705 C 250.284 0.460438 -1.54067 0
M  V30 2706 O 251.474 0.262744 -1.72207 0
M  V30 2707 C 248.606 0.402707 -3.38513 0
M  V30 2708 H 249.799 -1.27629 -2.71387 0
M  V30 2709 H 247.352 -0.698919 -1.39803 0
M  V30 2710 H 248.087 1.282 -2.97885 0
M  V30 2711 H 247.872 -0.225698 -3.9145 0
M  V30 2712 H 249.362 0.745191 -4.10897 0
M  V30 2713 N 249.799 1.42003 -0.683588 0
M  V30 2714 C 251.045 2.02223 -0.218536 0
M  V30 2715 C 251.4 1.53126 1.16492 0
M  V30 2716 O 250.693 0.727459 1.77253 0
M  V30 2717 C 250.887 3.56827 -0.202357 0
M  V30 2718 C 250.716 4.20928 -1.5827 0
M  V30 2719 C 249.486 4.5573 -2.18262 0
M  V30 2720 C 251.684 4.47933 -2.52706 0
M  V30 2721 N 249.666 5.05056 -3.48986 0
M  V30 2722 C 251.037 4.98906 -3.68094 0
M  V30 2723 C 253.092 4.29931 -2.51125 0
M  V30 2724 C 251.795 5.33768 -4.82166 0
M  V30 2725 C 253.821 4.65875 -3.643 0
M  V30 2726 C 253.183 5.17008 -4.78417 0
M  V30 2727 H 249.282 0.771931 -0.125088 0
M  V30 2728 H 251.866 1.72729 -0.898479 0
M  V30 2729 H 250.037 3.85819 0.447029 0
M  V30 2730 H 251.769 4.03755 0.276399 0
M  V30 2731 H 248.524 4.41781 -1.70665 0
M  V30 2732 H 248.948 5.34139 -4.15962 0
M  V30 2733 H 253.59 3.89647 -1.6412 0
M  V30 2734 H 251.308 5.72981 -5.6984 0
M  V30 2735 H 254.894 4.53615 -3.64314 0
M  V30 2736 H 253.774 5.44301 -5.64541 0
M  V30 2737 N 251.277 0.427512 1.51691 0
M  V30 2738 C 252.526 -0.143679 2.01188 0
M  V30 2739 C 252.839 -1.44642 1.31674 0
M  V30 2740 O 254.045 -2.09997 1.72086 0
M  V30 2741 C 252.501 -0.306602 3.58592 0
M  V30 2742 C 252.109 0.985125 4.37035 0
M  V30 2743 C 253.853 -0.832091 4.16265 0
M  V30 2744 C 251.76 0.788382 5.86122 0
M  V30 2745 H 250.69 -0.0574701 0.751807 0
M  V30 2746 H 253.341 0.555772 1.74881 0
M  V30 2747 H 251.723 -1.06882 3.81303 0
M  V30 2748 H 252.897 1.75492 4.26074 0
M  V30 2749 H 251.212 1.4384 3.90767 0
M  V30 2750 H 253.809 -0.995617 5.25349 0
M  V30 2751 H 254.152 -1.81186 3.74803 0
M  V30 2752 H 254.685 -0.128444 3.97593 0
M  V30 2753 H 251.424 1.74025 6.31978 0
M  V30 2754 H 250.944 0.0582143 5.99772 0
M  V30 2755 H 252.623 0.437722 6.45518 0
M  V30 2756 N 252.755 -1.56801 0.158532 0
M  V30 2757 C 253.685 -2.20347 -0.772609 0
M  V30 2758 C 254.666 -1.15518 -1.24859 0
M  V30 2759 O 255.851 -1.43902 -1.30406 0
M  V30 2760 C 252.981 -2.83417 -2.00729 0
M  V30 2761 C 251.935 -3.94174 -1.66765 0
M  V30 2762 C 251.261 -4.44233 -2.97592 0
M  V30 2763 C 252.561 -5.14392 -0.905447 0
M  V30 2764 H 254.255 -2.98413 -0.242959 0
M  V30 2765 H 251.801 -1.43537 -0.115419 0
M  V30 2766 H 253.754 -3.26543 -2.6636 0
M  V30 2767 H 252.478 -2.02701 -2.56086 0
M  V30 2768 H 251.137 -3.51684 -1.03508 0
M  V30 2769 H 250.785 -3.60325 -3.50963 0
M  V30 2770 H 250.485 -5.18945 -2.75626 0
M  V30 2771 H 252.009 -4.90037 -3.64274 0
M  V30 2772 H 253.423 -5.5429 -1.46408 0
M  V30 2773 H 251.82 -5.9494 -0.7853 0
M  V30 2774 H 252.89 -4.84795 0.100668 0
M  V30 2775 N 254.233 0.115231 -1.57178 0
M  V30 2776 C 255.461 0.836437 -1.89239 0
M  V30 2777 C 255.876 1.73256 -0.750175 0
M  V30 2778 O 255.233 1.80357 0.278832 0
M  V30 2779 C 255.284 1.66671 -3.20785 0
M  V30 2780 O 255.005 0.806652 -4.3061 0
M  V30 2781 C 256.506 2.49274 -3.66575 0
M  V30 2782 H 253.726 0.240253 -0.626514 0
M  V30 2783 H 256.27 0.0984932 -2.04263 0
M  V30 2784 H 254.425 2.35737 -3.0742 0
M  V30 2785 H 254.839 1.37969 -5.06028 0
M  V30 2786 H 256.313 3.03055 -4.6137 0
M  V30 2787 H 256.79 3.26807 -2.93417 0
M  V30 2788 H 257.396 1.85443 -3.82741 0
M  V30 2789 N 255.711 1.52812 0.385517 0
M  V30 2790 C 256.959 1.67694 1.12797 0
M  V30 2791 C 257.28 0.421115 1.90399 0
M  V30 2792 O 256.55 -0.564551 1.87589 0
M  V30 2793 H 255.13 0.618155 0.419396 0
M  V30 2794 H 257.792 1.89938 0.436972 0
M  V30 2795 H 256.888 2.52896 1.82894 0
M  V30 2796 N 257.189 -0.644168 1.43834 0
M  V30 2797 C 258.437 -1.40117 1.45642 0
M  V30 2798 C 258.758 -1.94814 0.0852413 0
M  V30 2799 O 258.028 -1.74988 -0.880688 0
M  V30 2800 H 256.608 -0.52005 0.536243 0
M  V30 2801 H 259.27 -0.7591 1.7951 0
M  V30 2802 H 258.366 -2.23902 2.17427 0
M  V30 2803 N 258.668 -1.30515 -0.883378 0
M  V30 2804 C 259.914 -1.19607 -1.63774 0
M  V30 2805 C 260.247 0.248314 -1.92606 0
M  V30 2806 O 259.522 1.17742 -1.54813 0
M  V30 2807 C 259.805 -2.02669 -2.97653 0
M  V30 2808 C 259.658 -3.55335 -2.75784 0
M  V30 2809 C 260.977 -1.86573 -3.98596 0
M  V30 2810 H 258.096 -0.435856 -0.594305 0
M  V30 2811 H 260.738 -1.60165 -1.02212 0
M  V30 2812 H 258.888 -1.68208 -3.50197 0
M  V30 2813 H 260.56 -3.99863 -2.30016 0
M  V30 2814 H 258.803 -3.79438 -2.1026 0
M  V30 2815 H 259.474 -4.08745 -3.70988 0
M  V30 2816 H 261.95 -2.16703 -3.55217 0
M  V30 2817 H 260.826 -2.47014 -4.90179 0
M  V30 2818 H 261.087 -0.825321 -4.34328 0
M  V30 2819 N 260.146 1.09593 -1.13257 0
M  V30 2820 C 261.094 2.18271 -0.803783 0
M  V30 2821 C 262.088 1.68054 0.213148 0
M  V30 2822 O 263.294 1.79862 0.0704699 0
M  V30 2823 H 259.669 0.711949 -0.242143 0
M  V30 2824 H 261.64 2.43235 -1.72856 0
M  V30 2825 C 260.389 3.46536 -0.28424 0
M  V30 2826 H 259.712 3.85545 -1.05807 0
M  V30 2827 H 261.152 4.23899 -0.0925945 0
M  V30 2828 C 259.611 3.22036 0.989684 0
M  V30 2829 O 260.141 3.44509 2.06584 0
M  V30 2830 N 258.347 2.7565 0.920086 0
M  V30 2831 H 257.894 2.57562 0.0442019 0
M  V30 2832 H 257.852 2.59635 1.77306 0
M  V30 2833 N 261.624 0.925811 1.2754 0
M  V30 2834 C 262.852 0.581509 1.9856 0
M  V30 2835 C 263.267 -0.840041 1.69082 0
M  V30 2836 O 262.624 -1.55805 0.950312 0
M  V30 2837 C 262.675 0.795589 3.52637 0
M  V30 2838 O 262.396 2.16121 3.81082 0
M  V30 2839 C 263.897 0.459744 4.4091 0
M  V30 2840 H 261.117 0.220538 0.633722 0
M  V30 2841 H 263.661 1.24232 1.6244 0
M  V30 2842 H 261.816 0.18161 3.86974 0
M  V30 2843 H 262.23 2.2098 4.75676 0
M  V30 2844 H 263.704 0.660244 5.48037 0
M  V30 2845 H 264.181 -0.604625 4.35018 0
M  V30 2846 H 264.787 1.05178 4.12089 0
M  V30 2847 N 263.102 -1.41638 0.69111 0
M  V30 2848 C 264.35 -2.00902 0.219758 0
M  V30 2849 C 264.671 -1.54994 -1.18329 0
M  V30 2850 O 263.941 -0.778628 -1.79762 0
M  V30 2851 H 262.521 -0.74289 0.0782558 0
M  V30 2852 H 265.183 -1.73327 0.891271 0
M  V30 2853 H 264.279 -3.11224 0.233708 0
M  V30 2854 N 264.58 -0.43555 -1.51462 0
M  V30 2855 C 265.826 0.131709 -2.02372 0
M  V30 2856 C 266.159 1.42516 -1.3192 0
M  V30 2857 O 265.434 1.89606 -0.433573 0
M  V30 2858 C 265.717 0.352301 -3.58373 0
M  V30 2859 C 265.57 -0.959676 -4.39443 0
M  V30 2860 C 266.889 1.12286 -4.25535 0
M  V30 2861 H 264.008 0.0463936 -0.735538 0
M  V30 2862 H 266.65 -0.574197 -1.81116 0
M  V30 2863 H 264.8 0.9536 -3.76615 0
M  V30 2864 H 266.472 -1.59482 -4.32855 0
M  V30 2865 H 264.715 -1.56468 -4.04599 0
M  V30 2866 H 265.386 -0.759394 -5.46752 0
M  V30 2867 H 267.862 0.613545 -4.11552 0
M  V30 2868 H 266.738 1.24598 -5.34571 0
M  V30 2869 H 266.999 2.15048 -3.86273 0
M  V30 2870 N 266.058 1.56714 -0.166846 0
M  V30 2871 C 267.021 2.16539 0.751232 0
M  V30 2872 C 268.021 1.11228 1.16125 0
M  V30 2873 O 269.211 1.36765 1.07894 0
M  V30 2874 C 266.343 2.74462 2.02196 0
M  V30 2875 H 267.536 2.99013 0.230499 0
M  V30 2876 H 265.089 1.56081 0.0826982 0
M  V30 2877 H 265.824 1.95709 2.58589 0
M  V30 2878 H 265.609 3.51527 1.73698 0
M  V30 2879 H 267.099 3.20489 2.67725 0
M  V30 2880 N 267.536 -0.106894 1.57237 0
M  V30 2881 C 268.483 -1.13049 2.01217 0
M  V30 2882 C 269.453 -1.40471 0.886403 0
M  V30 2883 O 270.638 -1.52133 1.15153 0
M  V30 2884 C 267.778 -2.4487 2.43172 0
M  V30 2885 C 266.891 -2.24281 3.69218 0
M  V30 2886 C 266.026 -3.49417 4.00101 0
M  V30 2887 C 265.065 -3.24038 5.19294 0
M  V30 2888 N 264.202 -4.41409 5.45988 0
M  V30 2889 H 269.042 -0.748456 2.88448 0
M  V30 2890 H 266.579 -0.358054 1.42676 0
M  V30 2891 H 268.537 -3.21786 2.65537 0
M  V30 2892 H 267.167 -2.80944 1.58967 0
M  V30 2893 H 266.219 -1.38224 3.54398 0
M  V30 2894 H 267.531 -2.01512 4.56283 0
M  V30 2895 H 266.685 -4.34746 4.2318 0
M  V30 2896 H 265.424 -3.75229 3.11535 0
M  V30 2897 H 264.429 -2.37102 4.96047 0
M  V30 2898 H 265.654 -2.99584 6.09447 0
M  V30 2899 H 263.6 -4.67319 4.60379 0
M  V30 2900 H 263.517 -4.21788 6.274 0
M  V30 2901 H 264.785 -5.27836 5.73593 0
M  V30 2902 N 269.014 -1.53014 -0.377408 0
M  V30 2903 C 269.964 -1.74996 -1.46152 0
M  V30 2904 C 270.948 -0.604236 -1.49123 0
M  V30 2905 O 272.14 -0.862489 -1.54564 0
M  V30 2906 C 269.269 -1.93267 -2.8373 0
M  V30 2907 C 268.355 -3.13807 -2.85283 0
M  V30 2908 N 268.746 -4.35941 -2.56493 0
M  V30 2909 C 267.044 -3.14288 -3.16448 0
M  V30 2910 C 267.745 -5.17615 -2.65424 0
M  V30 2911 N 266.721 -4.53559 -2.99641 0
M  V30 2912 H 270.523 -2.67044 -1.22738 0
M  V30 2913 H 268.037 -1.51479 -0.585479 0
M  V30 2914 H 270.034 -2.0714 -3.61799 0
M  V30 2915 H 268.694 -1.0244 -3.08117 0
M  V30 2916 H 269.705 -4.63876 -2.30302 0
M  V30 2917 H 266.382 -2.33312 -3.46225 0
M  V30 2918 H 267.772 -6.25006 -2.46612 0
M  V30 2919 N 270.492 0.636531 -1.44174 0
M  V30 2920 C 271.738 1.39826 -1.4689 0
M  V30 2921 C 272.071 1.93947 -0.0990585 0
M  V30 2922 O 271.346 1.73325 0.882544 0
M  V30 2923 C 271.629 2.56751 -2.5249 0
M  V30 2924 C 271.482 2.08014 -3.98811 0
M  V30 2925 C 272.801 3.58946 -2.54649 0
M  V30 2926 H 269.92 0.507075 -0.53483 0
M  V30 2927 H 272.562 0.720188 -1.75822 0
M  V30 2928 H 270.712 3.14597 -2.2795 0
M  V30 2929 H 272.384 1.5504 -4.34466 0
M  V30 2930 H 270.627 1.39242 -4.10846 0
M  V30 2931 H 271.298 2.92169 -4.68339 0
M  V30 2932 H 273.774 3.1089 -2.76563 0
M  V30 2933 H 272.65 4.38286 -3.3045 0
M  V30 2934 H 272.911 4.12655 -1.58646 0
M  V30 2935 N 271.97 1.30982 0.876444 0
M  V30 2936 C 273.218 1.20058 1.62575 0
M  V30 2937 C 273.539 -0.242947 1.93481 0
M  V30 2938 O 272.809 -1.1619 1.57724 0
M  V30 2939 H 271.389 0.44135 0.602677 0
M  V30 2940 H 274.051 1.64222 1.04962 0
M  V30 2941 H 273.147 1.76762 2.57219 0
M  V30 2942 N 273.449 -1.08991 1.13837 0
M  V30 2943 C 274.726 -1.77863 0.813876 0
M  V30 2944 C 275.106 -1.99375 -0.693746 0
M  V30 2945 O 274.454 -1.59875 -1.63255 0
M  V30 2946 C 274.664 -3.0986 1.60586 0
M  V30 2947 C 276.012 -3.84493 1.8014 0
M  V30 2948 O 277.036 -3.19624 1.57222 0
M  V30 2949 O 275.895 -5.00957 2.18413 0
M  V30 2950 H 272.989 -0.771589 0.297624 0
M  V30 2951 H 275.535 -1.15507 1.24323 0
M  V30 2952 H 274.307 -2.89715 2.63022 0
M  V30 2953 H 273.93 -3.79942 1.17173 0
M  V30 2954 N 274.927 -0.932562 -1.27047 0
M  V30 2955 C 275.89 -0.440064 -2.24936 0
M  V30 2956 C 276.89 0.444071 -1.54547 0
M  V30 2957 O 278.08 0.244465 -1.72476 0
M  V30 2958 C 275.212 0.36678 -3.38921 0
M  V30 2959 H 276.405 -1.305 -2.70018 0
M  V30 2960 H 273.958 -0.713707 -1.39054 0
M  V30 2961 H 274.693 1.25033 -2.99228 0
M  V30 2962 H 274.478 -0.267204 -3.91188 0
M  V30 2963 H 275.968 0.701567 -4.11665 0
M  V30 2964 N 276.405 1.4127 -0.698611 0
M  V30 2965 C 277.335 2.33447 -0.049629 0
M  V30 2966 C 278.316 1.51982 0.763898 0
M  V30 2967 O 279.501 1.80509 0.716257 0
M  V30 2968 C 276.631 3.35828 0.885267 0
M  V30 2969 C 275.585 4.27627 0.178613 0
M  V30 2970 C 274.911 5.20406 1.22807 0
M  V30 2971 C 276.211 5.13459 -0.956933 0
M  V30 2972 H 277.905 2.87966 -0.81951 0
M  V30 2973 H 275.451 1.38461 -0.395538 0
M  V30 2974 H 277.404 3.9924 1.34854 0
M  V30 2975 H 276.128 2.79666 1.68685 0
M  V30 2976 H 274.787 3.65643 -0.26466 0
M  V30 2977 H 274.435 4.60558 2.02226 0
M  V30 2978 H 274.135 5.82661 0.760239 0
M  V30 2979 H 275.659 5.86695 1.69179 0
M  V30 2980 H 277.073 5.70421 -0.573805 0
M  V30 2981 H 275.47 5.8467 -1.35205 0
M  V30 2982 H 276.54 4.50443 -1.79524 0
M  V30 2983 N 277.883 0.443576 1.51229 0
M  V30 2984 C 278.83 -0.364716 2.279 0
M  V30 2985 C 279.8 -1.0114 1.31757 0
M  V30 2986 O 280.985 -1.02912 1.60667 0
M  V30 2987 C 278.125 -1.45644 3.12861 0
M  V30 2988 C 277.238 -0.827269 4.24005 0
M  V30 2989 C 276.373 -1.89456 4.96266 0
M  V30 2990 C 275.412 -1.24416 5.99322 0
M  V30 2991 N 274.549 -2.25309 6.64966 0
M  V30 2992 H 279.389 0.295464 2.96532 0
M  V30 2993 H 276.926 0.157554 1.46254 0
M  V30 2994 H 278.884 -2.10076 3.6045 0
M  V30 2995 H 277.514 -2.08616 2.46331 0
M  V30 2996 H 276.566 -0.0710839 3.80334 0
M  V30 2997 H 277.878 -0.312481 4.9782 0
M  V30 2998 H 277.032 -2.61535 5.47434 0
M  V30 2999 H 275.771 -2.4431 4.22095 0
M  V30 3000 H 274.776 -0.508868 5.4744 0
M  V30 3001 H 276.001 -0.702882 6.75453 0
M  V30 3002 H 273.947 -2.79231 5.93604 0
M  V30 3003 H 273.864 -1.78739 7.34567 0
M  V30 3004 H 275.132 -2.96853 7.20763 0
M  V30 3005 N 279.361 -1.56624 0.175154 0
M  V30 3006 C 280.271 -2.21741 -0.766042 0
M  V30 3007 C 281.287 -1.21023 -1.25018 0
M  V30 3008 O 282.463 -1.53697 -1.3015 0
M  V30 3009 C 279.528 -2.84839 -1.97655 0
M  V30 3010 C 278.589 -4.00769 -1.53892 0
M  V30 3011 C 277.822 -4.60849 -2.69173 0
M  V30 3012 O 278.045 -4.19823 -3.86141 0
M  V30 3013 O 276.979 -5.50655 -2.43028 0
M  V30 3014 H 280.805 -3.02738 -0.241585 0
M  V30 3015 H 278.39 -1.49305 -0.053222 0
M  V30 3016 H 280.272 -3.24834 -2.68442 0
M  V30 3017 H 278.947 -2.06836 -2.48999 0
M  V30 3018 H 277.854 -3.65436 -0.80044 0
M  V30 3019 H 279.187 -4.80376 -1.07236 0
M  V30 3020 N 280.839 0.0985539 -1.57292 0
M  V30 3021 C 281.789 1.1261 -1.9825 0
M  V30 3022 C 282.773 1.35961 -0.860426 0
M  V30 3023 O 283.965 1.36711 -1.12424 0
M  V30 3024 C 281.094 2.44727 -2.40757 0
M  V30 3025 C 280.18 2.24764 -3.59642 0
M  V30 3026 N 280.571 1.74661 -4.74687 0
M  V30 3027 C 278.869 2.55344 -3.65672 0
M  V30 3028 C 279.57 1.68887 -5.56644 0
M  V30 3029 N 278.546 2.13976 -4.99715 0
M  V30 3030 H 282.348 0.731604 -2.84648 0
M  V30 3031 H 279.862 0.306029 -1.59491 0
M  V30 3032 H 281.859 3.19072 -2.68326 0
M  V30 3033 H 280.519 2.84917 -1.55733 0
M  V30 3034 H 281.53 1.43908 -4.97505 0
M  V30 3035 H 278.207 2.99081 -2.91302 0
M  V30 3036 H 279.597 1.3123 -6.5896 0
M  V30 3037 N 282.317 1.53212 0.369288 0
M  V30 3038 C 283.28 1.7872 1.43498 0
M  V30 3039 C 284.28 0.657554 1.46741 0
M  V30 3040 O 285.47 0.925736 1.47566 0
M  V30 3041 C 282.602 1.90591 2.82645 0
M  V30 3042 H 283.795 2.73894 1.22156 0
M  V30 3043 H 281.348 1.44233 0.602203 0
M  V30 3044 H 282.083 0.974709 3.09306 0
M  V30 3045 H 281.868 2.72751 2.8169 0
M  V30 3046 H 283.358 2.11931 3.59826 0
M  V30 3047 N 283.795 -0.628877 1.44509 0
M  V30 3048 C 285.02 -1.42048 1.5112 0
M  V30 3049 C 285.445 -1.87594 0.137818 0
M  V30 3050 O 284.803 -1.58873 -0.873437 0
M  V30 3051 C 284.851 -2.61541 2.48251 0
M  V30 3052 O 283.955 -3.61453 1.98559 0
M  V30 3053 H 283.296 -0.424942 0.510216 0
M  V30 3054 H 285.826 -0.767374 1.89664 0
M  V30 3055 H 285.836 -3.09057 2.66361 0
M  V30 3056 H 284.511 -2.27736 3.48007 0
M  V30 3057 H 283.088 -3.20731 1.90227 0
M  V30 3058 N 285.273 -1.31445 -0.869486 0
M  V30 3059 C 286.689 -1.10113 -1.15531 0
M  V30 3060 C 286.889 0.128087 -2.01092 0
M  V30 3061 O 285.945 0.817276 -2.38908 0
M  V30 3062 C 287.258 -2.37291 -1.84698 0
M  V30 3063 C 288.806 -2.42906 -1.97397 0
M  V30 3064 C 289.281 -3.69967 -2.69979 0
M  V30 3065 N 290.772 -3.70864 -2.77514 0
M  V30 3066 C 291.507 -4.65875 -3.34287 0
M  V30 3067 N 291.003 -5.71242 -3.91988 0
M  V30 3068 N 292.796 -4.53394 -3.3225 0
M  V30 3069 H 284.947 -2.1028 -0.299347 0
M  V30 3070 H 287.21 -0.927683 -0.195214 0
M  V30 3071 H 286.916 -3.27078 -1.29278 0
M  V30 3072 H 286.79 -2.47125 -2.84972 0
M  V30 3073 H 289.177 -1.53588 -2.51982 0
M  V30 3074 H 289.258 -2.37036 -0.961643 0
M  V30 3075 H 288.902 -4.59652 -2.16062 0
M  V30 3076 H 288.832 -3.73103 -3.7162 0
M  V30 3077 H 291.323 -2.94697 -2.36563 0
M  V30 3078 H 291.636 -6.39817 -4.33421 0
M  V30 3079 H 289.981 -5.75015 -3.90362 0
M  V30 3080 H 293.172 -3.70252 -2.8641 0
M  V30 3081 H 293.345 -5.27617 -3.76197 0
M  V30 3082 N 286.751 1.08385 -1.14413 0
M  V30 3083 C 287.976 1.85057 -0.936413 0
M  V30 3084 C 288.401 1.81055 0.509971 0
M  V30 3085 O 287.759 1.1958 1.36273 0
M  V30 3086 C 287.807 3.30505 -1.44217 0
M  V30 3087 O 286.911 4.07491 -0.634409 0
M  V30 3088 H 286.252 0.573425 -0.334784 0
M  V30 3089 H 288.782 1.36799 -1.52142 0
M  V30 3090 H 288.792 3.81348 -1.45043 0
M  V30 3091 H 287.467 3.32734 -2.49522 0
M  V30 3092 H 286.044 3.66368 -0.694902 0
M  V30 3093 N 288.23 0.939286 1.26551 0
M  V30 3094 C 289.455 0.602008 1.98471 0
M  V30 3095 C 289.88 -0.815624 1.69497 0
M  V30 3096 O 289.238 -1.54912 0.941905 0
M  V30 3097 C 289.286 0.848407 3.50477 0
M  V30 3098 O 288.39 -0.0804009 4.12322 0
M  V30 3099 H 287.731 0.23049 0.622712 0
M  V30 3100 H 290.261 1.2617 1.61066 0
M  V30 3101 H 290.271 0.768553 4.00696 0
M  V30 3102 H 288.946 1.88171 3.70897 0
M  V30 3103 H 287.523 0.0503508 3.72866 0
M  V30 3104 N 289.708 -1.40897 0.706093 0
M  V30 3105 C 291.124 -1.55042 0.37869 0
M  V30 3106 C 291.324 -1.67944 -1.11342 0
M  V30 3107 O 290.38 -1.66372 -1.89938 0
M  V30 3108 C 291.693 -2.78398 1.13643 0
M  V30 3109 C 293.241 -2.92206 1.12181 0
M  V30 3110 C 293.716 -4.18463 1.86152 0
M  V30 3111 N 295.207 -4.25443 1.83173 0
M  V30 3112 C 295.942 -5.2202 2.37239 0
M  V30 3113 N 295.438 -6.24563 2.99821 0
M  V30 3114 N 297.231 -5.14033 2.27435 0
M  V30 3115 H 289.382 -1.30769 1.67372 0
M  V30 3116 H 291.645 -0.631653 0.706907 0
M  V30 3117 H 291.351 -2.7511 2.19106 0
M  V30 3118 H 291.225 -3.70228 0.721853 0
M  V30 3119 H 293.612 -2.95004 0.0754171 0
M  V30 3120 H 293.693 -2.01521 1.57554 0
M  V30 3121 H 293.337 -4.16427 2.90776 0
M  V30 3122 H 293.267 -5.08141 1.38206 0
M  V30 3123 H 295.758 -3.51976 1.37556 0
M  V30 3124 H 296.071 -6.94665 3.38616 0
M  V30 3125 H 294.416 -6.25035 3.03902 0
M  V30 3126 H 297.607 -4.3285 1.78208 0
M  V30 3127 H 297.78 -5.89129 2.69873 0
M  V30 3128 N 291.186 -0.45159 -1.50991 0
M  V30 3129 C 292.133 0.352625 -2.2809 0
M  V30 3130 C 293.103 1.0044 -1.32291 0
M  V30 3131 O 294.288 1.02058 -1.6121 0
M  V30 3132 C 291.428 1.43983 -3.13629 0
M  V30 3133 C 290.541 0.804772 -4.24438 0
M  V30 3134 C 289.676 1.86822 -4.97263 0
M  V30 3135 C 288.715 1.21236 -5.99973 0
M  V30 3136 N 287.852 2.2178 -6.66152 0
M  V30 3137 H 292.692 -0.311186 -2.96371 0
M  V30 3138 H 290.229 -0.165308 -1.46168 0
M  V30 3139 H 292.187 2.08161 -3.61559 0
M  V30 3140 H 290.817 2.07307 -2.47434 0
M  V30 3141 H 289.869 0.0509129 -3.80366 0
M  V30 3142 H 291.181 0.286076 -4.97979 0
M  V30 3143 H 290.335 2.58628 -5.48813 0
M  V30 3144 H 289.074 2.42068 -4.23385 0
M  V30 3145 H 288.079 0.479828 -5.47702 0
M  V30 3146 H 289.304 0.667051 -6.75816 0
M  V30 3147 H 287.25 2.76079 -5.95077 0
M  V30 3148 H 287.167 1.74841 -7.35504 0
M  V30 3149 H 288.435 2.93026 -7.22327 0
M  V30 3150 N 292.664 1.56529 -0.183458 0
M  V30 3151 C 293.913 1.96419 0.458511 0
M  V30 3152 C 294.226 1.0727 1.63562 0
M  V30 3153 O 295.432 1.36893 2.34462 0
M  V30 3154 C 293.888 3.49298 0.867122 0
M  V30 3155 C 293.496 4.47092 -0.285057 0
M  V30 3156 C 295.24 3.97983 1.47683 0
M  V30 3157 C 293.147 5.91225 0.143862 0
M  V30 3158 H 292.077 0.733394 0.175071 0
M  V30 3159 H 294.728 1.81448 -0.273624 0
M  V30 3160 H 293.11 3.59731 1.65559 0
M  V30 3161 H 294.284 4.48383 -1.0625 0
M  V30 3162 H 292.599 4.08535 -0.805503 0
M  V30 3163 H 295.196 5.03134 1.80999 0
M  V30 3164 H 295.539 3.41618 2.37914 0
M  V30 3165 H 296.072 3.90617 0.752562 0
M  V30 3166 H 292.811 6.5149 -0.723974 0
M  V30 3167 H 292.331 5.93214 0.886413 0
M  V30 3168 H 294.01 6.44362 0.583628 0
M  V30 3169 N 294.142 -0.090211 1.57342 0
M  V30 3170 C 295.382 -0.798365 1.88163 0
M  V30 3171 C 295.746 -1.75662 0.775046 0
M  V30 3172 O 296.947 -2.50849 0.965816 0
M  V30 3173 C 295.218 -1.50376 3.24225 0
M  V30 3174 S 296.777 -2.24952 3.76752 0
M  V30 3175 H 293.595 -0.265883 0.659414 0
M  V30 3176 H 296.197 -0.055264 1.95422 0
M  V30 3177 H 294.901 -0.792286 4.0268 0
M  V30 3178 H 294.432 -2.28666 3.20118 0
M  V30 3179 H 296.447 -3.51173 3.5056 0
M  V30 3180 N 295.62 -1.53406 -0.361157 0
M  V30 3181 C 296.848 -1.73717 -1.12383 0
M  V30 3182 C 297.263 -0.468161 -1.82904 0
M  V30 3183 O 296.62 0.559198 -1.73722 0
M  V30 3184 C 296.671 -2.90558 -2.15078 0
M  V30 3185 O 296.392 -4.12549 -1.47428 0
M  V30 3186 C 297.893 -3.22777 -3.03858 0
M  V30 3187 H 295.113 -0.580896 -0.335858 0
M  V30 3188 H 297.657 -2.00167 -0.418728 0
M  V30 3189 H 295.812 -2.66489 -2.8118 0
M  V30 3190 H 296.226 -4.78009 -2.15887 0
M  V30 3191 H 297.7 -4.07927 -3.71887 0
M  V30 3192 H 298.177 -2.38329 -3.68912 0
M  V30 3193 H 298.783 -3.48787 -2.43367 0
M  V30 3194 N 297.098 0.621204 -1.44841 0
M  V30 3195 C 298.347 1.37658 -1.47422 0
M  V30 3196 C 298.66 1.95264 -0.114629 0
M  V30 3197 O 299.866 2.71494 -0.0180199 0
M  V30 3198 C 298.322 2.49285 -2.59586 0
M  V30 3199 C 297.93 1.98149 -4.01797 0
M  V30 3200 C 299.674 3.26409 -2.71399 0
M  V30 3201 C 297.581 3.07178 -5.05367 0
M  V30 3202 H 296.511 0.517344 -0.548517 0
M  V30 3203 H 299.162 0.667257 -1.70938 0
M  V30 3204 H 297.544 3.22839 -2.29328 0
M  V30 3205 H 298.718 1.31395 -4.41669 0
M  V30 3206 H 297.033 1.33812 -3.94314 0
M  V30 3207 H 299.63 4.07706 -3.45948 0
M  V30 3208 H 299.973 3.76535 -1.77559 0
M  V30 3209 H 300.506 2.5995 -3.01116 0
M  V30 3210 H 297.245 2.61985 -6.00869 0
M  V30 3211 H 296.765 3.72542 -4.70077 0
M  V30 3212 H 298.444 3.71789 -5.29511 0
M  V30 3213 N 298.576 1.31904 0.862503 0
M  V30 3214 C 299.824 1.21776 1.61292 0
M  V30 3215 C 300.145 -0.222413 1.93727 0
M  V30 3216 O 299.415 -1.1451 1.58947 0
M  V30 3217 H 297.995 0.447717 0.597962 0
M  V30 3218 H 300.657 1.65326 1.03215 0
M  V30 3219 H 299.753 1.7948 2.5533 0
M  V30 3220 N 300.054 -1.07777 1.14986 0
M  V30 3221 C 301.303 -1.79669 0.916617 0
M  V30 3222 C 301.616 -1.87474 -0.557917 0
M  V30 3223 O 302.822 -2.55845 -0.908617 0
M  V30 3224 C 301.278 -3.22848 1.59051 0
M  V30 3225 C 300.886 -3.23257 3.10176 0
M  V30 3226 C 302.63 -3.99379 1.43864 0
M  V30 3227 C 300.537 -4.61063 3.70372 0
M  V30 3228 H 299.467 -0.673349 0.33929 0
M  V30 3229 H 302.118 -1.21003 1.37951 0
M  V30 3230 H 300.5 -3.8168 1.0553 0
M  V30 3231 H 301.674 -2.74095 3.70417 0
M  V30 3232 H 299.989 -2.60222 3.25074 0
M  V30 3233 H 302.586 -5.0122 1.86232 0
M  V30 3234 H 302.929 -4.14511 0.385564 0
M  V30 3235 H 303.462 -3.47032 1.94457 0
M  V30 3236 H 300.201 -4.51135 4.7556 0
M  V30 3237 H 299.721 -5.1048 3.14913 0
M  V30 3238 H 301.4 -5.30034 3.71043 0
M  V30 3239 N 301.532 -0.945985 -1.26051 0
M  V30 3240 C 302.495 -0.463897 -2.24456 0
M  V30 3241 C 303.495 0.427655 -1.55009 0
M  V30 3242 O 304.685 0.226157 -1.72726 0
M  V30 3243 C 301.817 0.330812 -3.39291 0
M  V30 3244 H 303.01 -1.33357 -2.68619 0
M  V30 3245 H 300.563 -0.728416 -1.38289 0
M  V30 3246 H 301.298 1.21852 -3.00537 0
M  V30 3247 H 301.083 -0.308679 -3.90883 0
M  V30 3248 H 302.573 0.657865 -4.12386 0
M  V30 3249 N 303.011 1.40521 -0.713556 0
M  V30 3250 C 304.422 1.83853 -0.324807 0
M  V30 3251 C 304.773 1.59667 1.14021 0
M  V30 3252 O 303.898 1.07649 1.87725 0
M  V30 3253 C 304.493 3.33751 -0.582746 0
M  V30 3254 C 303.052 3.75584 -0.247727 0
M  V30 3255 C 302.199 2.63753 -0.856121 0
M  V30 3256 H 305.15 1.29817 -0.91286 0
M  V30 3257 H 305.171 3.80194 0.152682 0
M  V30 3258 H 304.683 3.51322 -1.64908 0
M  V30 3259 H 302.784 3.63608 0.813624 0
M  V30 3260 H 302.897 4.7373 -0.715307 0
M  V30 3261 H 301.261 2.53108 -0.28432 0
M  V30 3262 H 302.044 2.84137 -1.92668 0
M  V30 3263 N 304.489 0.459591 1.5075 0
M  V30 3264 C 305.735 -0.091664 2.03193 0
M  V30 3265 C 306.09 -1.38432 1.3362 0
M  V30 3266 O 305.383 -1.86257 0.449322 0
M  V30 3267 C 305.577 -0.342866 3.55752 0
M  V30 3268 C 305.406 0.923888 4.40107 0
M  V30 3269 C 304.176 1.46388 4.83631 0
M  V30 3270 C 306.374 1.81617 4.81165 0
M  V30 3271 N 304.356 2.68086 5.52271 0
M  V30 3272 C 305.727 2.87907 5.49099 0
M  V30 3273 C 307.782 1.82793 4.63132 0
M  V30 3274 C 306.485 3.95347 6.0091 0
M  V30 3275 C 308.511 2.89182 5.15876 0
M  V30 3276 C 307.873 3.94191 5.83774 0
M  V30 3277 H 303.972 0.00619247 0.781975 0
M  V30 3278 H 306.556 0.625233 1.84388 0
M  V30 3279 H 304.727 -1.0288 3.74527 0
M  V30 3280 H 306.459 -0.887445 3.9485 0
M  V30 3281 H 303.214 1.01466 4.62603 0
M  V30 3282 H 303.638 3.29857 5.91205 0
M  V30 3283 H 308.28 1.0293 4.1008 0
M  V30 3284 H 305.998 4.76035 6.53006 0
M  V30 3285 H 309.584 2.91061 5.0376 0
M  V30 3286 H 308.464 4.75161 6.23853 0
M  V30 3287 N 305.967 -1.56429 0.191757 0
M  V30 3288 C 307.215 -1.97095 -0.447006 0
M  V30 3289 C 307.536 -1.07967 -1.62383 0
M  V30 3290 O 306.806 -0.150248 -1.95323 0
M  V30 3291 H 305.386 -0.727832 -0.168135 0
M  V30 3292 H 308.048 -1.92911 0.27771 0
M  V30 3293 H 307.144 -3.01848 -0.793371 0
M  V30 3294 N 307.445 0.0818655 -1.57387 0
M  V30 3295 C 308.691 0.784074 -1.8703 0
M  V30 3296 C 309.024 1.77729 -0.782689 0
M  V30 3297 O 308.299 1.93384 0.208051 0
M  V30 3298 C 308.582 1.50105 -3.27323 0
M  V30 3299 C 308.435 0.524925 -4.46727 0
M  V30 3300 C 309.754 2.44843 -3.65705 0
M  V30 3301 H 306.873 0.283582 -0.680257 0
M  V30 3302 H 309.515 0.0474352 -1.89941 0
M  V30 3303 H 307.665 2.12897 -3.24972 0
M  V30 3304 H 309.337 -0.0970111 -4.61198 0
M  V30 3305 H 307.58 -0.160606 -4.33503 0
M  V30 3306 H 308.251 1.064 -5.41648 0
M  V30 3307 H 310.727 1.92135 -3.69085 0
M  V30 3308 H 309.603 2.92018 -4.64776 0
M  V30 3309 H 309.864 3.29197 -2.95096 0
M  V30 3310 N 308.923 1.53595 0.353017 0
M  V30 3311 C 310.172 1.69603 1.09168 0
M  V30 3312 C 310.485 0.460925 1.90092 0
M  V30 3313 O 311.691 0.501774 2.66823 0
M  V30 3314 C 310.147 2.99872 1.9901 0
M  V30 3315 C 309.755 4.30687 1.23339 0
M  V30 3316 C 311.499 3.25246 2.72792 0
M  V30 3317 C 309.406 5.52036 2.12156 0
M  V30 3318 H 308.336 0.631966 0.411261 0
M  V30 3319 H 310.987 1.80096 0.351802 0
M  V30 3320 H 309.369 2.83212 2.7678 0
M  V30 3321 H 310.543 4.58019 0.505456 0
M  V30 3322 H 308.858 4.11853 0.613663 0
M  V30 3323 H 311.455 4.13095 3.39495 0
M  V30 3324 H 311.798 2.41846 3.38846 0
M  V30 3325 H 312.331 3.42638 2.021 0
M  V30 3326 H 309.07 6.37951 1.50659 0
M  V30 3327 H 308.59 5.28966 2.82764 0
M  V30 3328 H 310.269 5.87313 2.71427 0
M  V30 3329 N 310.401 -0.613514 1.45168 0
M  V30 3330 C 311.311 -1.75296 1.55912 0
M  V30 3331 C 312.327 -1.68244 0.443856 0
M  V30 3332 O 313.503 -1.88706 0.70371 0
M  V30 3333 C 310.568 -3.1174 1.5172 0
M  V30 3334 C 309.629 -3.30291 2.74238 0
M  V30 3335 C 308.862 -4.60226 2.70236 0
M  V30 3336 O 309.085 -5.42168 1.77229 0
M  V30 3337 O 308.019 -4.81361 3.61352 0
M  V30 3338 H 311.845 -1.69183 2.52212 0
M  V30 3339 H 309.43 -0.776886 1.27612 0
M  V30 3340 H 311.312 -3.93044 1.51968 0
M  V30 3341 H 309.987 -3.18357 0.585697 0
M  V30 3342 H 308.894 -2.48598 2.79553 0
M  V30 3343 H 310.227 -3.28547 3.66494 0
M  V30 3344 N 311.879 -1.3236 -0.855495 0
M  V30 3345 C 312.827 -1.2118 -1.9854 0
M  V30 3346 C 313.821 -0.116788 -1.68997 0
M  V30 3347 O 315.027 -0.279657 -1.77814 0
M  V30 3348 H 311.402 -0.375608 -0.651477 0
M  V30 3349 H 313.373 -2.16743 -2.05098 0
M  V30 3350 C 312.122 -0.950849 -3.34446 0
M  V30 3351 H 311.445 -1.78563 -3.57708 0
M  V30 3352 H 312.885 -0.912863 -4.14057 0
M  V30 3353 C 311.344 0.346404 -3.35114 0
M  V30 3354 O 311.874 1.35855 -3.7803 0
M  V30 3355 N 310.08 0.36808 -2.88259 0
M  V30 3356 H 309.627 -0.456102 -2.5353 0
M  V30 3357 H 309.585 1.23591 -2.89089 0
M  V30 3358 N 313.357 1.07166 -1.15556 0
M  V30 3359 C 314.773 1.31899 -0.898603 0
M  V30 3360 C 314.973 1.96333 0.453383 0
M  V30 3361 O 314.029 2.22438 1.19489 0
M  V30 3362 C 315.342 2.20826 -2.04099 0
M  V30 3363 C 316.89 2.34269 -2.07574 0
M  V30 3364 C 317.365 3.26546 -3.21141 0
M  V30 3365 N 318.856 3.34127 -3.20801 0
M  V30 3366 C 319.591 4.05595 -4.05315 0
M  V30 3367 N 319.087 4.79661 -4.99897 0
M  V30 3368 N 320.88 4.01555 -3.93332 0
M  V30 3369 H 313.031 0.637302 -2.02613 0
M  V30 3370 H 315.294 0.343468 -0.883591 0
M  V30 3371 H 315 1.80744 -3.01703 0
M  V30 3372 H 314.874 3.21364 -1.97496 0
M  V30 3373 H 317.261 2.73603 -1.10568 0
M  V30 3374 H 317.342 1.33429 -2.18244 0
M  V30 3375 H 316.986 2.87931 -4.184 0
M  V30 3376 H 316.916 4.27345 -3.07708 0
M  V30 3377 H 319.407 2.81336 -2.52306 0
M  V30 3378 H 319.72 5.31694 -5.60822 0
M  V30 3379 H 318.065 4.78671 -5.03884 0
M  V30 3380 H 321.256 3.42806 -3.18751 0
M  V30 3381 H 321.429 4.56987 -4.5942 0
M  V30 3382 N 314.835 0.952656 1.25548 0
M  V30 3383 C 315.783 0.462354 2.27958 0
M  V30 3384 C 316.777 -0.46634 1.62855 0
M  V30 3385 O 317.983 -0.343287 1.76696 0
M  V30 3386 H 314.358 0.13101 0.7405 0
M  V30 3387 H 316.329 1.33839 2.66702 0
M  V30 3388 C 315.078 -0.24628 3.46827 0
M  V30 3389 H 314.401 0.459192 3.97154 0
M  V30 3390 H 315.841 -0.553393 4.20373 0
M  V30 3391 C 314.3 -1.4681 3.0323 0
M  V30 3392 O 314.83 -2.56591 3.09069 0
M  V30 3393 N 313.036 -1.32874 2.58443 0
M  V30 3394 H 312.583 -0.435536 2.53891 0
M  V30 3395 H 312.541 -2.14742 2.29637 0
M  V30 3396 N 316.313 -1.40141 0.720998 0
M  V30 3397 C 317.59 -1.94677 0.189757 0
M  V30 3398 C 317.97 -1.65879 -1.30566 0
M  V30 3399 O 317.318 -0.979391 -2.06447 0
M  V30 3400 C 317.528 -3.45279 0.508304 0
M  V30 3401 C 318.876 -4.22209 0.449934 0
M  V30 3402 O 319.9 -3.53413 0.444677 0
M  V30 3403 O 318.759 -5.44788 0.432189 0
M  V30 3404 H 315.853 -0.826459 0.0299026 0
M  V30 3405 H 318.399 -1.49719 0.7989 0
M  V30 3406 H 317.171 -3.59619 1.54239 0
M  V30 3407 H 316.794 -3.97386 -0.130525 0
M  V30 3408 N 317.792 -0.46758 -1.50504 0
M  V30 3409 C 318.722 0.318381 -2.31319 0
M  V30 3410 C 319.703 0.993564 -1.38066 0
M  V30 3411 O 320.888 0.991411 -1.66987 0
M  V30 3412 C 318.018 1.40275 -3.17711 0
M  V30 3413 C 316.972 0.849373 -4.19487 0
M  V30 3414 C 316.298 2.03177 -4.94594 0
M  V30 3415 C 317.598 -0.136942 -5.2212 0
M  V30 3416 H 319.292 -0.356106 -2.97275 0
M  V30 3417 H 316.838 -0.172703 -1.42961 0
M  V30 3418 H 318.791 1.96004 -3.73042 0
M  V30 3419 H 317.515 2.10596 -2.49634 0
M  V30 3420 H 316.174 0.314076 -3.65252 0
M  V30 3421 H 315.822 2.72187 -4.22993 0
M  V30 3422 H 315.522 1.66774 -5.63436 0
M  V30 3423 H 317.046 2.59403 -5.52759 0
M  V30 3424 H 318.46 0.331056 -5.72343 0
M  V30 3425 H 316.857 -0.41507 -5.98663 0
M  V30 3426 H 317.927 -1.06398 -4.73083 0
M  V30 3427 N 319.27 1.56325 -0.20005 0
M  V30 3428 C 320.516 1.98012 0.438059 0
M  V30 3429 C 320.849 1.08702 1.60927 0
M  V30 3430 O 320.124 0.140064 1.93995 0
M  V30 3431 C 320.407 3.48841 0.893419 0
M  V30 3432 C 320.26 4.48928 -0.279947 0
M  V30 3433 C 321.579 4.03498 1.75719 0
M  V30 3434 H 318.698 0.719918 0.157757 0
M  V30 3435 H 321.34 1.87743 -0.291968 0
M  V30 3436 H 319.49 3.57723 1.51547 0
M  V30 3437 H 321.162 4.52079 -0.91772 0
M  V30 3438 H 319.405 4.23694 -0.930919 0
M  V30 3439 H 320.076 5.5194 0.0812601 0
M  V30 3440 H 322.552 3.97427 1.23253 0
M  V30 3441 H 321.428 5.09393 2.04476 0
M  V30 3442 H 321.689 3.4906 2.71311 0
M  V30 3443 N 320.748 -0.0735177 1.57428 0
M  V30 3444 C 321.996 -0.771472 1.86796 0
M  V30 3445 C 322.317 -1.78201 0.791804 0
M  V30 3446 O 321.587 -1.95074 -0.179718 0
M  V30 3447 H 320.167 -0.28791 0.689287 0
M  V30 3448 H 322.829 -0.0500161 1.94836 0
M  V30 3449 H 321.925 -1.28874 2.8425 0
M  V30 3450 N 322.226 -1.5378 -0.344866 0
M  V30 3451 C 323.642 -1.44015 -0.687888 0
M  V30 3452 C 323.842 -0.595834 -1.92489 0
M  V30 3453 O 322.898 -0.0863064 -2.52352 0
M  V30 3454 C 324.211 -2.87481 -0.881758 0
M  V30 3455 C 325.759 -2.97247 -0.980459 0
M  V30 3456 C 326.234 -4.41819 -1.20665 0
M  V30 3457 N 327.725 -4.45339 -1.27389 0
M  V30 3458 C 328.46 -5.54333 -1.46639 0
M  V30 3459 N 327.956 -6.73335 -1.63071 0
M  V30 3460 N 329.749 -5.41944 -1.49176 0
M  V30 3461 H 321.9 -2.07169 0.468475 0
M  V30 3462 H 324.163 -0.93643 0.147655 0
M  V30 3463 H 323.869 -3.51672 -0.0443444 0
M  V30 3464 H 323.743 -3.32352 -1.78388 0
M  V30 3465 H 326.13 -2.33197 -1.8084 0
M  V30 3466 H 326.211 -2.5574 -0.0552713 0
M  V30 3467 H 325.855 -5.06449 -0.383652 0
M  V30 3468 H 325.785 -4.80917 -2.14539 0
M  V30 3469 H 328.276 -3.59585 -1.1622 0
M  V30 3470 H 328.589 -7.52165 -1.77391 0
M  V30 3471 H 326.934 -6.76282 -1.60209 0
M  V30 3472 H 330.125 -4.47932 -1.3592 0
M  V30 3473 H 330.298 -6.26946 -1.63837 0
M  V30 3474 N 323.704 0.605807 -1.45491 0
M  V30 3475 C 324.981 1.36522 -1.40075 0
M  V30 3476 C 325.361 2.10976 -0.0722744 0
M  V30 3477 O 324.709 2.08007 0.945808 0
M  V30 3478 C 324.919 2.31056 -2.61561 0
M  V30 3479 C 326.267 2.93608 -3.06724 0
M  V30 3480 O 327.291 2.41376 -2.61946 0
M  V30 3481 O 326.15 3.88421 -3.84437 0
M  V30 3482 H 323.244 0.612248 -0.555951 0
M  V30 3483 H 325.79 0.628747 -1.57623 0
M  V30 3484 H 324.562 1.75311 -3.49831 0
M  V30 3485 H 324.185 3.12081 -2.46356 0
M  V30 3486 N 325.182 1.32811 0.848464 0
M  V30 3487 C 326.428 1.23907 1.60546 0
M  V30 3488 C 326.761 -0.197161 1.93197 0
M  V30 3489 O 326.036 -1.13596 1.5788 0
M  V30 3490 C 326.319 2.10489 2.92175 0
M  V30 3491 C 326.172 3.62522 2.66266 0
M  V30 3492 C 327.491 1.97075 3.93509 0
M  V30 3493 H 324.61 0.451459 0.58254 0
M  V30 3494 H 327.252 1.62818 0.979296 0
M  V30 3495 H 325.402 1.77434 3.45614 0
M  V30 3496 H 327.074 4.05821 2.19334 0
M  V30 3497 H 325.317 3.84879 2.00126 0
M  V30 3498 H 325.988 4.18437 3.6002 0
M  V30 3499 H 328.464 2.26045 3.49346 0
M  V30 3500 H 327.34 2.59923 4.83457 0
M  V30 3501 H 327.601 0.940186 4.31987 0
M  V30 3502 N 326.66 -1.06551 1.16123 0
M  V30 3503 C 327.906 -1.79567 0.94252 0
M  V30 3504 C 328.239 -1.86869 -0.528547 0
M  V30 3505 O 327.514 -1.35838 -1.39206 0
M  V30 3506 C 327.797 -3.24195 1.56747 0
M  V30 3507 C 327.65 -3.24989 3.10969 0
M  V30 3508 C 328.969 -4.21678 1.25998 0
M  V30 3509 H 326.088 -0.651883 0.343828 0
M  V30 3510 H 328.73 -1.2463 1.43413 0
M  V30 3511 H 326.88 -3.71107 1.14942 0
M  V30 3512 H 328.552 -2.86258 3.61737 0
M  V30 3513 H 326.795 -2.63716 3.44436 0
M  V30 3514 H 327.466 -4.27005 3.49815 0
M  V30 3515 H 329.942 -3.83196 1.62174 0
M  V30 3516 H 328.818 -5.21146 1.7233 0
M  V30 3517 H 329.079 -4.4174 0.178367 0
M  V30 3518 N 328.138 -0.959301 -1.25041 0
M  V30 3519 C 329.101 -0.487677 -2.23952 0
M  V30 3520 C 330.101 0.41119 -1.55454 0
M  V30 3521 O 331.291 0.207825 -1.72956 0
M  V30 3522 C 328.423 0.294807 -3.39623 0
M  V30 3523 H 329.616 -1.36198 -2.67189 0
M  V30 3524 H 327.169 -0.743042 -1.37508 0
M  V30 3525 H 327.904 1.18658 -3.01813 0
M  V30 3526 H 327.689 -0.35012 -3.90534 0
M  V30 3527 H 329.179 0.614089 -4.1306 0
M  V30 3528 N 329.616 1.39756 -0.72842 0
M  V30 3529 C 331.027 1.83498 -0.344289 0
M  V30 3530 C 331.378 1.60868 1.12321 0
M  V30 3531 O 330.503 1.09634 1.86573 0
M  V30 3532 C 331.098 3.33114 -0.618112 0
M  V30 3533 C 329.657 3.753 -0.287549 0
M  V30 3534 C 328.804 2.62831 -0.884048 0
M  V30 3535 H 331.755 1.28842 -0.926578 0
M  V30 3536 H 331.776 3.80334 0.112349 0
M  V30 3537 H 331.288 3.49553 -1.68625 0
M  V30 3538 H 329.389 3.64451 0.775012 0
M  V30 3539 H 329.502 4.72945 -0.765512 0
M  V30 3540 H 327.866 2.52792 -0.311149 0
M  V30 3541 H 328.649 2.82078 -1.95671 0
M  V30 3542 N 331.094 0.475555 1.50254 0
M  V30 3543 C 332.324 -0.0753399 2.06463 0
M  V30 3544 C 332.732 -1.33661 1.33908 0
M  V30 3545 O 332.075 -1.79219 0.403257 0
M  V30 3546 C 332.137 -0.424921 3.5698 0
M  V30 3547 C 331.801 0.734965 4.51051 0
M  V30 3548 C 332.798 1.61827 4.94073 0
M  V30 3549 C 330.483 0.926557 4.9368 0
M  V30 3550 C 332.477 2.67754 5.78434 0
M  V30 3551 C 330.164 1.98904 5.77824 0
M  V30 3552 C 331.162 2.8629 6.20103 0
M  V30 3553 O 330.85 3.90708 7.02568 0
M  V30 3554 H 330.582 0.00576308 0.675975 0
M  V30 3555 H 333.136 0.664662 1.94349 0
M  V30 3556 H 331.366 -1.21817 3.67012 0
M  V30 3557 H 333.055 -0.911422 3.95535 0
M  V30 3558 H 333.821 1.48196 4.61804 0
M  V30 3559 H 329.7 0.25584 4.6029 0
M  V30 3560 H 333.244 3.35992 6.11355 0
M  V30 3561 H 329.141 2.12541 6.09505 0
M  V30 3562 H 329.909 3.87751 7.20827 0
M  V30 3563 N 332.573 -1.56217 0.208337 0
M  V30 3564 C 333.505 -2.1695 -0.739276 0
M  V30 3565 C 334.518 -1.13492 -1.1672 0
M  V30 3566 O 335.707 -1.40529 -1.10063 0
M  V30 3567 C 332.807 -2.72755 -2.01142 0
M  V30 3568 C 331.98 -4.0125 -1.74118 0
M  V30 3569 C 331.039 -4.41749 -2.85909 0
M  V30 3570 O 330.065 -5.08912 -2.54946 0
M  V30 3571 N 331.267 -4.06342 -4.14568 0
M  V30 3572 H 334.032 -2.98893 -0.219837 0
M  V30 3573 H 331.593 -1.61878 0.0268445 0
M  V30 3574 H 333.585 -2.96826 -2.75094 0
M  V30 3575 H 332.155 -1.95191 -2.4417 0
M  V30 3576 H 331.375 -3.85173 -0.838775 0
M  V30 3577 H 332.663 -4.851 -1.53477 0
M  V30 3578 H 332.061 -3.52345 -4.42571 0
M  V30 3579 H 330.618 -4.35335 -4.85105 0
M  V30 3580 N 334.051 0.0651679 -1.57465 0
M  V30 3581 C 335.279 0.775808 -1.91804 0
M  V30 3582 C 335.694 1.70782 -0.804916 0
M  V30 3583 O 335.051 1.81153 0.221311 0
M  V30 3584 C 335.102 1.56381 -3.25925 0
M  V30 3585 O 334.823 0.669248 -4.32958 0
M  V30 3586 C 336.324 2.37485 -3.7432 0
M  V30 3587 H 333.544 0.2202 -0.63384 0
M  V30 3588 H 336.088 0.0334587 -2.04473 0
M  V30 3589 H 334.243 2.25837 -3.14764 0
M  V30 3590 H 334.657 1.21801 -5.10162 0
M  V30 3591 H 336.131 2.88223 -4.70778 0
M  V30 3592 H 336.608 3.17307 -3.03666 0
M  V30 3593 H 337.214 1.73173 -3.88447 0
M  V30 3594 N 335.529 1.53961 0.336706 0
M  V30 3595 C 336.459 1.85417 1.41925 0
M  V30 3596 C 337.44 0.709856 1.5458 0
M  V30 3597 O 338.625 0.962396 1.68676 0
M  V30 3598 C 335.755 2.06985 2.78881 0
M  V30 3599 C 334.709 3.22813 2.81026 0
M  V30 3600 C 334.035 3.29727 4.20932 0
M  V30 3601 C 335.335 4.60767 2.45949 0
M  V30 3602 H 337.029 2.76079 1.15848 0
M  V30 3603 H 334.575 1.32839 0.555859 0
M  V30 3604 H 336.528 2.27575 3.54665 0
M  V30 3605 H 335.252 1.13061 3.06406 0
M  V30 3606 H 333.911 3.0209 2.07695 0
M  V30 3607 H 333.559 2.33385 4.45579 0
M  V30 3608 H 333.259 4.07566 4.23277 0
M  V30 3609 H 334.783 3.52536 4.98549 0
M  V30 3610 H 336.197 4.81325 3.11446 0
M  V30 3611 H 334.594 5.4106 2.59566 0
M  V30 3612 H 335.664 4.6391 1.41122 0
M  V30 3613 N 337.007 -0.598083 1.45811 0
M  V30 3614 C 337.937 -1.71873 1.58057 0
M  V30 3615 C 338.918 -1.64533 0.431615 0
M  V30 3616 O 340.103 -1.82787 0.65595 0
M  V30 3617 C 337.233 -3.10495 1.55597 0
M  V30 3618 C 336.187 -3.32654 2.69305 0
M  V30 3619 C 335.513 -4.71646 2.51902 0
M  V30 3620 C 336.813 -3.21981 4.11248 0
M  V30 3621 H 338.507 -1.61881 2.51863 0
M  V30 3622 H 336.053 -0.777372 1.21214 0
M  V30 3623 H 338.006 -3.88699 1.6276 0
M  V30 3624 H 336.73 -3.2135 0.583255 0
M  V30 3625 H 335.389 -2.56843 2.61586 0
M  V30 3626 H 335.037 -4.79246 1.52748 0
M  V30 3627 H 334.737 -4.87426 3.2816 0
M  V30 3628 H 336.261 -5.52038 2.60933 0
M  V30 3629 H 337.675 -3.90049 4.20161 0
M  V30 3630 H 336.072 -3.49289 4.87972 0
M  V30 3631 H 337.142 -2.1928 4.32486 0
M  V30 3632 N 338.485 -1.33259 -0.841409 0
M  V30 3633 C 339.433 -1.23279 -1.97244 0
M  V30 3634 C 340.427 -0.134706 -1.68864 0
M  V30 3635 O 341.633 -0.298501 -1.77508 0
M  V30 3636 H 338.008 -0.382497 -0.647457 0
M  V30 3637 H 339.979 -2.18906 -2.02787 0
M  V30 3638 C 338.728 -0.986268 -3.33419 0
M  V30 3639 H 338.051 -1.82347 -3.55794 0
M  V30 3640 H 339.491 -0.956728 -4.13065 0
M  V30 3641 C 337.95 0.310842 -3.35463 0
M  V30 3642 O 338.48 1.31838 -3.79449 0
M  V30 3643 N 336.686 0.337485 -2.88634 0
M  V30 3644 H 336.233 -0.482967 -2.53032 0
M  V30 3645 H 336.191 1.20518 -2.90384 0
M  V30 3646 N 339.963 1.05934 -1.16686 0
M  V30 3647 C 341.374 1.60263 -0.957745 0
M  V30 3648 C 341.725 1.89789 0.49745 0
M  V30 3649 O 340.85 1.67401 1.37135 0
M  V30 3650 C 341.445 2.91172 -1.73218 0
M  V30 3651 C 340.004 3.42188 -1.56794 0
M  V30 3652 C 339.151 2.16028 -1.73859 0
M  V30 3653 H 342.102 0.888392 -1.31504 0
M  V30 3654 H 342.123 3.60744 -1.21014 0
M  V30 3655 H 341.635 2.6965 -2.79124 0
M  V30 3656 H 339.736 3.68762 -0.533437 0
M  V30 3657 H 339.849 4.17273 -2.35414 0
M  V30 3658 H 338.213 2.26426 -1.16633 0
M  V30 3659 H 338.996 1.96985 -2.81161 0
M  V30 3660 N 341.441 0.965919 1.2453 0
M  V30 3661 C 342.371 0.513476 2.27784 0
M  V30 3662 C 343.352 -0.445974 1.6415 0
M  V30 3663 O 344.537 -0.342485 1.91156 0
M  V30 3664 C 341.667 -0.198839 3.4673 0
M  V30 3665 C 340.621 0.676456 4.2262 0
M  V30 3666 C 339.947 -0.167248 5.34438 0
M  V30 3667 C 341.247 1.96017 4.84123 0
M  V30 3668 H 342.941 1.3765 2.65881 0
M  V30 3669 H 340.487 0.663321 1.27813 0
M  V30 3670 H 342.44 -0.526567 4.18097 0
M  V30 3671 H 341.164 -1.0962 3.07654 0
M  V30 3672 H 339.823 0.98743 3.53052 0
M  V30 3673 H 339.471 -1.0647 4.91603 0
M  V30 3674 H 339.171 0.415181 5.86131 0
M  V30 3675 H 340.695 -0.489688 6.08633 0
M  V30 3676 H 342.109 1.69814 5.47573 0
M  V30 3677 H 340.506 2.48918 5.4604 0
M  V30 3678 H 341.576 2.65622 4.05676 0
M  V30 3679 N 342.919 -1.39368 0.735821 0
M  V30 3680 C 344.144 -2.05319 0.293052 0
M  V30 3681 C 344.569 -1.55115 -1.064 0
M  V30 3682 O 343.927 -0.695261 -1.67439 0
M  V30 3683 C 343.975 -3.59305 0.305323 0
M  V30 3684 O 343.079 -4.06299 -0.706761 0
M  V30 3685 H 342.42 -0.650529 0.13307 0
M  V30 3686 H 344.95 -1.78386 1.00197 0
M  V30 3687 H 344.96 -4.07724 0.149997 0
M  V30 3688 H 343.635 -3.95207 1.29553 0
M  V30 3689 H 342.212 -3.69292 -0.517504 0
M  V30 3690 N 344.397 -0.483516 -1.5 0
M  V30 3691 C 345.344 0.304164 -2.28787 0
M  V30 3692 C 346.314 0.976114 -1.34392 0
M  V30 3693 O 347.499 0.986156 -1.63339 0
M  V30 3694 C 344.639 1.37298 -3.16612 0
M  V30 3695 C 343.752 0.714561 -4.26049 0
M  V30 3696 C 342.887 1.76232 -5.01114 0
M  V30 3697 C 341.926 1.08483 -6.0241 0
M  V30 3698 N 341.063 2.076 -6.70706 0
M  V30 3699 H 345.903 -0.373981 -2.95644 0
M  V30 3700 H 343.44 -0.196275 -1.45785 0
M  V30 3701 H 345.398 2.00445 -3.65893 0
M  V30 3702 H 344.028 2.02012 -2.51776 0
M  V30 3703 H 343.08 -0.0297798 -3.80388 0
M  V30 3704 H 344.392 0.180383 -4.98474 0
M  V30 3705 H 343.546 2.46929 -5.54176 0
M  V30 3706 H 342.285 2.33033 -4.28424 0
M  V30 3707 H 341.29 0.363545 -5.48597 0
M  V30 3708 H 342.515 0.523551 -6.77079 0
M  V30 3709 H 340.461 2.63394 -6.00799 0
M  V30 3710 H 340.378 1.59201 -7.39047 0
M  V30 3711 H 341.646 2.77639 -7.2838 0
M  V30 3712 N 345.875 1.56104 -0.216619 0
M  V30 3713 C 346.805 2.23063 0.690296 0
M  V30 3714 C 347.786 1.20072 1.20485 0
M  V30 3715 O 348.971 1.48643 1.24976 0
M  V30 3716 C 346.101 2.90672 1.90072 0
M  V30 3717 C 345.055 4.00092 1.5202 0
M  V30 3718 C 344.381 4.54972 2.80899 0
M  V30 3719 C 345.681 5.17398 0.71391 0
M  V30 3720 H 347.375 2.99109 0.132038 0
M  V30 3721 H 344.921 1.43866 0.0620664 0
M  V30 3722 H 346.874 3.36204 2.54057 0
M  V30 3723 H 345.598 2.12066 2.48386 0
M  V30 3724 H 344.257 3.55283 0.903839 0
M  V30 3725 H 343.905 3.73102 3.37348 0
M  V30 3726 H 343.605 5.28817 2.56176 0
M  V30 3727 H 345.129 5.0322 3.45836 0
M  V30 3728 H 346.543 5.59342 1.25735 0
M  V30 3729 H 344.94 5.97444 0.563951 0
M  V30 3730 H 346.01 4.84088 -0.280527 0
M  V30 3731 N 347.353 -0.0568162 1.57498 0
M  V30 3732 C 348.301 -1.08452 2.05769 0
M  V30 3733 C 349.295 -1.39164 0.965903 0
M  V30 3734 O 350.501 -1.38395 1.15095 0
M  V30 3735 H 346.876 -0.367148 0.656282 0
M  V30 3736 H 348.847 -0.651368 2.91204 0
M  V30 3737 C 347.596 -2.38543 2.52968 0
M  V30 3738 H 346.919 -2.15765 3.36579 0
M  V30 3739 H 348.359 -3.08863 2.90481 0
M  V30 3740 C 346.818 -3.05562 1.41893 0
M  V30 3741 O 347.348 -3.94262 0.769442 0
M  V30 3742 N 345.554 -2.6643 1.16032 0
M  V30 3743 H 345.101 -1.94387 1.6903 0
M  V30 3744 H 345.059 -3.11593 0.419219 0
M  V30 3745 N 348.832 -1.54138 -0.328536 0
M  V30 3746 C 350.078 -1.7236 -1.06865 0
M  V30 3747 C 350.411 -0.493231 -1.87832 0
M  V30 3748 O 349.686 0.5098 -1.877 0
M  V30 3749 C 349.969 -2.99621 -1.99747 0
M  V30 3750 C 349.822 -4.32899 -1.22143 0
M  V30 3751 C 351.141 -3.22615 -2.99345 0
M  V30 3752 H 348.26 -0.627151 -0.387105 0
M  V30 3753 H 350.902 -1.86827 -0.345767 0
M  V30 3754 H 349.052 -2.87418 -2.61387 0
M  V30 3755 H 350.724 -4.56978 -0.630017 0
M  V30 3756 H 348.967 -4.30628 -0.523628 0
M  V30 3757 H 349.638 -5.18154 -1.90318 0
M  V30 3758 H 352.114 -3.34248 -2.47826 0
M  V30 3759 H 350.99 -4.13027 -3.61524 0
M  V30 3760 H 351.251 -2.3961 -3.71536 0
M  V30 3761 N 350.31 0.590341 -1.46126 0
M  V30 3762 C 351.24 1.71032 -1.58966 0
M  V30 3763 C 352.221 1.64302 -0.440335 0
M  V30 3764 O 353.406 1.82436 -0.665634 0
M  V30 3765 C 350.536 3.09665 -1.57241 0
M  V30 3766 C 349.49 3.31221 -2.71066 0
M  V30 3767 C 348.816 4.70303 -2.54399 0
M  V30 3768 C 350.116 3.19796 -4.1295 0
M  V30 3769 H 351.81 1.60543 -2.52718 0
M  V30 3770 H 349.356 0.770933 -1.21625 0
M  V30 3771 H 351.309 3.87831 -1.64819 0
M  V30 3772 H 350.033 3.21036 -0.600289 0
M  V30 3773 H 348.692 2.55452 -2.62944 0
M  V30 3774 H 348.34 4.78429 -1.55288 0
M  V30 3775 H 348.04 4.85679 -3.30741 0
M  V30 3776 H 349.564 5.50647 -2.63857 0
M  V30 3777 H 350.978 3.87815 -4.22223 0
M  V30 3778 H 349.375 3.46696 -4.89818 0
M  V30 3779 H 350.445 2.16983 -4.33643 0
M  V30 3780 N 351.788 1.33704 0.83433 0
M  V30 3781 C 352.736 1.24323 1.96587 0
M  V30 3782 C 353.73 0.143659 1.6879 0
M  V30 3783 O 354.936 0.30791 1.77347 0
M  V30 3784 H 351.311 0.385925 0.645419 0
M  V30 3785 H 353.282 2.19978 2.01624 0
M  V30 3786 C 352.031 1.00394 3.32891 0
M  V30 3787 H 351.354 1.84231 3.54822 0
M  V30 3788 H 352.794 0.97862 4.12552 0
M  V30 3789 C 351.253 -0.293047 3.35623 0
M  V30 3790 O 351.783 -1.29823 3.80143 0
M  V30 3791 N 349.989 -0.322174 2.88809 0
M  V30 3792 H 349.536 0.496379 2.52772 0
M  V30 3793 H 349.494 -1.18977 2.91019 0
M  V30 3794 N 353.266 -1.05314 1.17247 0
M  V30 3795 C 354.214 -2.15137 0.884238 0
M  V30 3796 C 355.208 -1.68729 -0.15063 0
M  V30 3797 O 356.414 -1.8 -0.00366673 0
M  V30 3798 H 352.789 -0.702471 0.2684 0
M  V30 3799 H 354.76 -2.36652 1.81764 0
M  V30 3800 C 353.509 -3.45243 0.412659 0
M  V30 3801 H 352.832 -3.81352 1.20043 0
M  V30 3802 H 354.272 -4.23263 0.249858 0
M  V30 3803 C 352.731 -3.25487 -0.86948 0
M  V30 3804 O 353.261 -3.51938 -1.93655 0
M  V30 3805 N 351.467 -2.78875 -0.817147 0
M  V30 3806 H 351.014 -2.57549 0.0514211 0
M  V30 3807 H 350.972 -2.66036 -1.67547 0
M  V30 3808 N 354.744 -0.972509 -1.24016 0
M  V30 3809 C 355.674 -0.525548 -2.27509 0
M  V30 3810 C 356.655 0.437262 -1.64384 0
M  V30 3811 O 357.84 0.332343 -1.91335 0
M  V30 3812 C 354.97 0.180448 -3.46831 0
M  V30 3813 C 353.924 -0.698859 -4.22256 0
M  V30 3814 C 353.25 0.138903 -5.3452 0
M  V30 3815 C 354.55 -1.98582 -4.83076 0
M  V30 3816 H 356.244 -1.39058 -2.65148 0
M  V30 3817 H 353.79 -0.67009 -1.27459 0
M  V30 3818 H 355.743 0.504387 -4.18371 0
M  V30 3819 H 354.467 1.07987 -3.08231 0
M  V30 3820 H 353.126 -1.00614 -3.52523 0
M  V30 3821 H 352.774 1.03862 -4.9216 0
M  V30 3822 H 352.474 -0.446259 -5.85903 0
M  V30 3823 H 353.998 0.457404 -6.08884 0
M  V30 3824 H 355.412 -1.72715 -5.46665 0
M  V30 3825 H 353.809 -2.5181 -5.44713 0
M  V30 3826 H 354.879 -2.67769 -4.04262 0
M  V30 3827 N 356.222 1.38976 -0.743202 0
M  V30 3828 C 357.172 2.27843 -0.084513 0
M  V30 3829 C 358.156 1.44677 0.704094 0
M  V30 3830 O 359.348 1.67511 0.571755 0
M  V30 3831 C 356.477 3.33466 0.815781 0
M  V30 3832 C 355.563 4.24095 0.0208844 0
M  V30 3833 N 355.954 4.95609 -1.0102 0
M  V30 3834 C 354.252 4.45303 0.249293 0
M  V30 3835 C 354.953 5.62287 -1.49024 0
M  V30 3836 N 353.929 5.37571 -0.807377 0
M  V30 3837 H 357.731 2.80593 -0.87436 0
M  V30 3838 H 355.245 1.51755 -0.578283 0
M  V30 3839 H 357.242 3.96008 1.30321 0
M  V30 3840 H 355.902 2.82276 1.6047 0
M  V30 3841 H 356.913 4.98849 -1.39176 0
M  V30 3842 H 353.59 4.0504 1.01237 0
M  V30 3843 H 354.98 6.29519 -2.34853 0
M  V30 3844 N 357.7 0.491464 1.49741 0
M  V30 3845 C 358.925 -0.0557177 2.07325 0
M  V30 3846 C 359.35 -1.30925 1.35056 0
M  V30 3847 O 358.708 -1.76733 0.404365 0
M  V30 3848 C 358.756 -0.302074 3.59333 0
M  V30 3849 O 357.86 -1.37868 3.88672 0
M  V30 3850 H 357.201 0.0219956 0.663636 0
M  V30 3851 H 359.731 0.688352 1.92673 0
M  V30 3852 H 359.741 -0.536464 4.04458 0
M  V30 3853 H 358.416 0.61383 4.11345 0
M  V30 3854 H 356.993 -1.12999 3.55367 0
M  V30 3855 N 359.178 -1.55987 0.224894 0
M  V30 3856 C 360.128 -2.17076 -0.697296 0
M  V30 3857 C 361.112 -1.12006 -1.15514 0
M  V30 3858 O 362.304 -1.37985 -1.10857 0
M  V30 3859 C 359.433 -2.85679 -1.90374 0
M  V30 3860 C 358.519 -3.97977 -1.46543 0
M  V30 3861 N 358.91 -5.00359 -0.739909 0
M  V30 3862 C 357.208 -4.10128 -1.75245 0
M  V30 3863 C 357.909 -5.79407 -0.515939 0
M  V30 3864 N 356.885 -5.32892 -1.07364 0
M  V30 3865 H 360.687 -2.93592 -0.134594 0
M  V30 3866 H 358.201 -1.62379 0.0262885 0
M  V30 3867 H 360.198 -3.27857 -2.57518 0
M  V30 3868 H 358.858 -2.1066 -2.47088 0
M  V30 3869 H 359.869 -5.16412 -0.392253 0
M  V30 3870 H 356.546 -3.46263 -2.33255 0
M  V30 3871 H 357.936 -6.71872 0.0617349 0
M  V30 3872 N 360.656 0.0484629 -1.57525 0
M  V30 3873 C 361.903 0.743125 -1.88372 0
M  V30 3874 C 362.231 1.76383 -0.819715 0
M  V30 3875 O 361.486 1.94855 0.181659 0
M  V30 3876 C 361.785 1.46632 -3.25935 0
M  V30 3877 C 361.451 0.583427 -4.4711 0
M  V30 3878 C 360.113 0.340191 -4.79996 0
M  V30 3879 C 362.465 -0.0273345 -5.21193 0
M  V30 3880 C 359.793 -0.522903 -5.84365 0
M  V30 3881 C 362.145 -0.878017 -6.26477 0
M  V30 3882 C 360.809 -1.1309 -6.5785 0
M  V30 3883 H 360.079 0.271929 -0.689301 0
M  V30 3884 H 362.726 0.00336166 -1.915 0
M  V30 3885 H 361.031 2.2789 -3.18706 0
M  V30 3886 H 362.728 2.00902 -3.47044 0
M  V30 3887 H 359.318 0.783151 -4.21384 0
M  V30 3888 H 363.502 0.147654 -4.9608 0
M  V30 3889 H 358.758 -0.727335 -6.07058 0
M  V30 3890 H 362.932 -1.35789 -6.83033 0
M  V30 3891 H 360.559 -1.80144 -7.38547 0
M  V30 3892 N 362.134 1.5431 0.320358 0
M  V30 3893 C 363.383 1.7188 1.05546 0
M  V30 3894 C 363.696 0.501143 1.89071 0
M  V30 3895 O 364.902 0.558258 2.65699 0
M  V30 3896 C 363.358 3.04025 1.92605 0
M  V30 3897 C 362.966 4.33207 1.14176 0
M  V30 3898 C 364.71 3.30959 2.65832 0
M  V30 3899 C 362.617 5.56412 2.00399 0
M  V30 3900 H 361.547 0.640547 0.397763 0
M  V30 3901 H 364.198 1.80802 0.313522 0
M  V30 3902 H 362.58 2.89019 2.7071 0
M  V30 3903 H 363.754 4.58989 0.40819 0
M  V30 3904 H 362.069 4.13062 0.526165 0
M  V30 3905 H 364.666 4.20203 3.30656 0
M  V30 3906 H 365.009 2.48979 3.33639 0
M  V30 3907 H 365.542 3.46847 1.94787 0
M  V30 3908 H 362.281 6.41004 1.37094 0
M  V30 3909 H 361.801 5.34844 2.7148 0
M  V30 3910 H 363.48 5.92938 2.58908 0
M  V30 3911 N 363.613 -0.582584 1.46437 0
M  V30 3912 C 364.543 -1.70187 1.59871 0
M  V30 3913 C 365.524 -1.64066 0.449042 0
M  V30 3914 O 366.709 -1.82081 0.6753 0
M  V30 3915 C 363.839 -3.08827 1.58881 0
M  V30 3916 C 362.793 -3.29779 2.72819 0
M  V30 3917 C 362.119 -4.68947 2.5689 0
M  V30 3918 C 363.419 -3.17601 4.1464 0
M  V30 3919 H 365.113 -1.592 2.53566 0
M  V30 3920 H 362.659 -0.764472 1.22032 0
M  V30 3921 H 364.612 -3.86951 1.66873 0
M  V30 3922 H 363.336 -3.20713 0.617306 0
M  V30 3923 H 361.995 -2.54054 2.64296 0
M  V30 3924 H 361.643 -4.77599 1.57823 0
M  V30 3925 H 361.343 -4.83919 3.33312 0
M  V30 3926 H 362.867 -5.4924 2.66773 0
M  V30 3927 H 364.281 -3.8557 4.24274 0
M  V30 3928 H 362.678 -3.44094 4.9165 0
M  V30 3929 H 363.748 -2.14681 4.34788 0
M  V30 3930 N 365.091 -1.34144 -0.827227 0
M  V30 3931 C 366.337 -1.26446 -1.58554 0
M  V30 3932 C 366.67 0.1664 -1.93486 0
M  V30 3933 O 365.945 1.1107 -1.59667 0
M  V30 3934 C 366.228 -2.15111 -2.8879 0
M  V30 3935 C 366.081 -3.66712 -2.60465 0
M  V30 3936 C 367.4 -2.03311 -3.90324 0
M  V30 3937 H 364.519 -0.46067 -0.575284 0
M  V30 3938 H 367.161 -1.64356 -0.953269 0
M  V30 3939 H 365.311 -1.8291 -3.42748 0
M  V30 3940 H 366.983 -4.09259 -2.1285 0
M  V30 3941 H 365.226 -3.88014 -1.93978 0
M  V30 3942 H 365.897 -4.24112 -3.53317 0
M  V30 3943 H 368.373 -2.31574 -3.45706 0
M  V30 3944 H 367.249 -2.67582 -4.79261 0
M  V30 3945 H 367.51 -1.00879 -4.30437 0
M  V30 3946 N 366.569 1.04691 -1.17803 0
M  V30 3947 C 367.846 1.7472 -0.879328 0
M  V30 3948 C 368.226 2.01812 0.619271 0
M  V30 3949 O 367.574 1.65824 1.57209 0
M  V30 3950 C 367.784 3.03686 -1.71976 0
M  V30 3951 C 369.132 3.77542 -1.94286 0
M  V30 3952 O 370.156 3.13569 -1.68976 0
M  V30 3953 O 369.015 4.92506 -2.36855 0
M  V30 3954 H 366.109 0.760011 -0.326056 0
M  V30 3955 H 368.655 1.10813 -1.28525 0
M  V30 3956 H 367.427 2.79754 -2.73594 0
M  V30 3957 H 367.05 3.75332 -1.31194 0
M  V30 3958 N 368.047 0.979072 1.23499 0
M  V30 3959 C 369.324 0.563674 1.87302 0
M  V30 3960 C 369.704 -0.959199 1.88049 0
M  V30 3961 O 369.052 -1.83535 1.36114 0
M  V30 3962 C 369.262 1.16822 3.28867 0
M  V30 3963 C 370.61 1.26014 4.0547 0
M  V30 3964 O 371.634 1.12158 3.38082 0
M  V30 3965 O 370.493 1.48044 5.26066 0
M  V30 3966 H 367.587 0.189602 0.804972 0
M  V30 3967 H 370.133 1.07407 1.31384 0
M  V30 3968 H 368.905 2.21049 3.22883 0
M  V30 3969 H 368.528 0.642564 3.92373 0
M  V30 3970 N 369.525 -1.3858 0.750561 0
M  V30 3971 C 370.773 -1.99789 0.30477 0
M  V30 3972 C 371.094 -1.59874 -1.11649 0
M  V30 3973 O 370.364 -0.85417 -1.76297 0
M  V30 3974 H 368.944 -0.738902 0.109694 0
M  V30 3975 H 371.606 -1.69391 0.963983 0
M  V30 3976 H 370.702 -3.09952 0.365499 0
M  V30 3977 N 371.003 -0.499398 -1.49478 0
M  V30 3978 C 372.231 0.0425456 -2.06856 0
M  V30 3979 C 372.646 1.30964 -1.35992 0
M  V30 3980 O 372.003 1.77172 -0.437762 0
M  V30 3981 C 372.054 0.301735 -3.60239 0
M  V30 3982 O 371.775 -0.915127 -4.28436 0
M  V30 3983 C 373.276 0.887499 -4.34325 0
M  V30 3984 H 370.496 -0.0197482 -0.670709 0
M  V30 3985 H 373.04 -0.696297 -1.92281 0
M  V30 3986 H 371.195 0.990556 -3.74522 0
M  V30 3987 H 371.609 -0.676993 -5.20113 0
M  V30 3988 H 373.083 1.01845 -5.42523 0
M  V30 3989 H 373.56 1.88488 -3.96698 0
M  V30 3990 H 374.166 0.236196 -4.24644 0
M  V30 3991 N 372.481 1.55866 -0.233164 0
M  V30 3992 C 373.727 1.98897 0.395959 0
M  V30 3993 C 374.06 1.12091 1.58585 0
M  V30 3994 O 373.335 0.181182 1.93654 0
M  V30 3995 C 373.618 3.50658 0.819224 0
M  V30 3996 C 373.471 4.48233 -0.375109 0
M  V30 3997 C 374.79 4.07135 1.67121 0
M  V30 3998 H 371.909 0.723102 0.142451 0
M  V30 3999 H 374.551 1.87082 -0.331725 0
M  V30 4000 H 372.701 3.60857 1.43925 0
M  V30 4001 H 374.373 4.50031 -1.01341 0
M  V30 4002 H 372.616 4.21624 -1.02058 0
M  V30 4003 H 373.287 5.51988 -0.0358328 0
M  V30 4004 H 375.763 3.99952 1.14795 0
M  V30 4005 H 374.639 5.13615 1.93625 0
M  V30 4006 H 374.9 3.54736 2.63846 0
M  V30 4007 N 373.959 -0.0401083 1.57549 0
M  V30 4008 C 375.207 -0.731677 1.8839 0
M  V30 4009 C 375.528 -1.76481 0.829425 0
M  V30 4010 O 374.798 -1.95411 -0.1383 0
M  V30 4011 H 373.378 -0.273225 0.695239 0
M  V30 4012 H 376.04 -0.00867725 1.94898 0
M  V30 4013 H 375.136 -1.22816 2.86919 0
M  V30 4014 N 375.437 -1.54477 -0.31217 0
M  V30 4015 C 376.384 -1.84655 -1.38461 0
M  V30 4016 C 377.354 -0.694536 -1.50882 0
M  V30 4017 O 378.539 -0.942081 -1.6592 0
M  V30 4018 C 375.679 -2.0896 -2.74645 0
M  V30 4019 C 374.792 -3.36618 -2.70763 0
M  V30 4020 C 373.927 -3.50824 -3.98868 0
M  V30 4021 C 372.966 -4.72315 -3.89339 0
M  V30 4022 N 372.103 -4.83387 -5.09197 0
M  V30 4023 H 376.943 -2.76142 -1.12026 0
M  V30 4024 H 374.48 -1.36748 -0.542065 0
M  V30 4025 H 376.438 -2.21045 -3.53829 0
M  V30 4026 H 375.068 -1.20752 -2.99364 0
M  V30 4027 H 374.12 -3.33211 -1.83506 0
M  V30 4028 H 375.432 -4.25917 -2.59608 0
M  V30 4029 H 374.586 -3.62513 -4.86486 0
M  V30 4030 H 373.325 -2.59638 -4.12843 0
M  V30 4031 H 372.33 -4.6067 -3.00105 0
M  V30 4032 H 373.555 -5.64897 -3.76919 0
M  V30 4033 H 371.501 -3.9512 -5.23657 0
M  V30 4034 H 371.418 -5.66669 -5.00422 0
M  V30 4035 H 372.686 -4.9942 -5.98498 0
M  V30 4036 N 376.915 0.57481 -1.46744 0
M  V30 4037 C 378.145 1.35659 -1.55821 0
M  V30 4038 C 378.553 1.88129 -0.201036 0
M  V30 4039 O 377.896 1.64723 0.813134 0
M  V30 4040 C 377.958 2.57473 -2.50894 0
M  V30 4041 C 377.622 2.26415 -3.9697 0
M  V30 4042 C 378.619 1.84771 -4.85958 0
M  V30 4043 C 376.304 2.38316 -4.42166 0
M  V30 4044 C 378.298 1.55434 -6.18158 0
M  V30 4045 C 375.985 2.08591 -5.74398 0
M  V30 4046 C 376.983 1.67216 -6.62214 0
M  V30 4047 O 376.671 1.37859 -7.91991 0
M  V30 4048 H 376.403 0.420496 -0.529301 0
M  V30 4049 H 378.957 0.704967 -1.92923 0
M  V30 4050 H 377.187 3.25468 -2.08824 0
M  V30 4051 H 378.876 3.19546 -2.50291 0
M  V30 4052 H 379.642 1.75085 -4.52295 0
M  V30 4053 H 375.521 2.69483 -3.74032 0
M  V30 4054 H 379.065 1.23065 -6.86659 0
M  V30 4055 H 374.962 2.17905 -6.07608 0
M  V30 4056 H 375.73 1.51638 -8.04331 0
M  V30 4057 N 378.394 1.34581 0.820102 0
M  V30 4058 C 379.642 1.26845 1.57336 0
M  V30 4059 C 379.963 -0.160667 1.94337 0
M  V30 4060 O 379.233 -1.09396 1.6251 0
M  V30 4061 H 377.813 0.466514 0.583415 0
M  V30 4062 H 380.475 1.68526 0.979027 0
M  V30 4063 H 379.571 1.87513 2.4949 0
M  V30 4064 N 379.872 -1.04064 1.18357 0
M  V30 4065 C 380.835 -2.10243 0.912707 0
M  V30 4066 C 381.835 -1.60477 -0.101928 0
M  V30 4067 O 383.025 -1.73703 0.131517 0
M  V30 4068 C 380.157 -3.38893 0.369387 0
M  V30 4069 H 381.35 -2.35706 1.85426 0
M  V30 4070 H 378.903 -1.20489 0.995594 0
M  V30 4071 H 379.638 -3.19094 -0.578776 0
M  V30 4072 H 379.423 -3.76331 1.1008 0
M  V30 4073 H 380.913 -4.17128 0.198575 0
M  V30 4074 N 381.35 -0.985608 -1.22978 0
M  V30 4075 C 382.26 -0.538548 -2.28335 0
M  V30 4076 C 383.276 0.409163 -1.69121 0
M  V30 4077 O 384.452 0.277797 -1.99475 0
M  V30 4078 C 381.517 0.146867 -3.46389 0
M  V30 4079 C 380.578 -0.842896 -4.20944 0
M  V30 4080 C 379.811 -0.190095 -5.33361 0
M  V30 4081 O 380.034 1.01767 -5.61248 0
M  V30 4082 O 378.968 -0.891289 -5.95264 0
M  V30 4083 H 382.794 -1.41487 -2.68729 0
M  V30 4084 H 380.379 -0.753495 -1.29007 0
M  V30 4085 H 382.261 0.531125 -4.1804 0
M  V30 4086 H 380.936 0.997871 -3.07935 0
M  V30 4087 H 379.843 -1.27795 -3.51595 0
M  V30 4088 H 381.176 -1.66287 -4.6326 0
M  V30 4089 N 382.828 1.3818 -0.7579 0
M  V30 4090 C 384.074 2.00316 -0.316453 0
M  V30 4091 C 384.407 1.60026 1.10025 0
M  V30 4092 O 383.682 0.839835 1.75434 0
M  V30 4093 C 383.965 3.57349 -0.444245 0
M  V30 4094 C 383.818 4.07591 -1.90236 0
M  V30 4095 C 385.137 4.3981 0.1598 0
M  V30 4096 H 382.256 0.727741 -0.116459 0
M  V30 4097 H 384.898 1.6406 -0.958352 0
M  V30 4098 H 383.048 3.88365 0.102233 0
M  V30 4099 H 384.72 3.87199 -2.50748 0
M  V30 4100 H 382.963 3.60297 -2.41595 0
M  V30 4101 H 383.634 5.16677 -1.94291 0
M  V30 4102 H 386.11 4.14971 -0.306314 0
M  V30 4103 H 384.986 5.48885 0.0401675 0
M  V30 4104 H 385.247 4.24102 1.24859 0
M  V30 4105 N 384.306 0.507319 1.49211 0
M  V30 4106 C 385.722 0.163682 1.58758 0
M  V30 4107 C 385.922 -1.33208 1.51188 0
M  V30 4108 O 384.978 -2.10855 1.38911 0
M  V30 4109 C 386.291 0.746095 2.91297 0
M  V30 4110 C 387.839 0.712773 3.04776 0
M  V30 4111 C 388.314 1.27336 4.39943 0
M  V30 4112 N 389.805 1.23433 4.46451 0
M  V30 4113 C 390.54 1.63821 5.495 0
M  V30 4114 N 390.036 2.11832 6.5962 0
M  V30 4115 N 391.829 1.55198 5.4025 0
M  V30 4116 H 383.98 1.47972 1.52375 0
M  V30 4117 H 386.243 0.614147 0.722168 0
M  V30 4118 H 385.949 1.79534 3.02424 0
M  V30 4119 H 385.823 0.210137 3.76614 0
M  V30 4120 H 388.21 -0.327656 2.93275 0
M  V30 4121 H 388.291 1.28595 2.21127 0
M  V30 4122 H 387.935 2.3126 4.52196 0
M  V30 4123 H 387.865 0.676066 5.22242 0
M  V30 4124 H 390.356 0.882627 3.67448 0
M  V30 4125 H 390.669 2.40703 7.34358 0
M  V30 4126 H 389.014 2.1581 6.60644 0
M  V30 4127 H 392.205 1.17505 4.53112 0
M  V30 4128 H 392.378 1.86997 6.20432 0
M  V30 4129 N 385.784 -1.5574 0.241426 0
M  V30 4130 C 386.714 -2.24133 -0.654722 0
M  V30 4131 C 387.695 -1.21974 -1.1856 0
M  V30 4132 O 388.88 -1.50612 -1.22595 0
M  V30 4133 C 386.01 -2.93659 -1.85423 0
M  V30 4134 C 384.964 -4.0246 -1.45636 0
M  V30 4135 C 384.29 -4.59383 -2.73626 0
M  V30 4136 C 385.59 -5.18468 -0.631506 0
M  V30 4137 H 387.284 -2.99281 -0.0844353 0
M  V30 4138 H 384.83 -1.43947 -0.0391707 0
M  V30 4139 H 386.783 -3.40203 -2.48676 0
M  V30 4140 H 385.507 -2.15991 -2.44981 0
M  V30 4141 H 384.166 -3.56676 -0.847202 0
M  V30 4142 H 383.814 -3.78422 -3.3137 0
M  V30 4143 H 383.514 -5.32826 -2.4773 0
M  V30 4144 H 385.038 -5.08658 -3.37786 0
M  V30 4145 H 386.452 -5.61272 -1.1682 0
M  V30 4146 H 384.849 -5.98266 -0.468831 0
M  V30 4147 H 385.919 -4.8358 0.357506 0
M  V30 4148 N 387.262 0.0317525 -1.57568 0
M  V30 4149 C 388.678 0.38735 -1.54828 0
M  V30 4150 C 388.878 1.7677 -0.967187 0
M  V30 4151 O 387.934 2.45581 -0.587063 0
M  V30 4152 C 389.247 0.291667 -2.99282 0
M  V30 4153 C 390.795 0.368946 -3.10818 0
M  V30 4154 C 391.27 0.302741 -4.56998 0
M  V30 4155 N 392.761 0.361617 -4.61786 0
M  V30 4156 C 393.496 0.333238 -5.72431 0
M  V30 4157 N 392.992 0.257308 -6.92322 0
M  V30 4158 N 394.785 0.382769 -5.60795 0
M  V30 4159 H 386.936 -0.871609 -1.93692 0
M  V30 4160 H 389.199 -0.331161 -0.888277 0
M  V30 4161 H 388.905 -0.656794 -3.45513 0
M  V30 4162 H 388.779 1.08638 -3.61217 0
M  V30 4163 H 391.166 1.30784 -2.64536 0
M  V30 4164 H 391.247 -0.455066 -2.5172 0
M  V30 4165 H 390.891 -0.632473 -5.03947 0
M  V30 4166 H 390.821 1.14482 -5.14005 0
M  V30 4167 H 393.312 0.422923 -3.75526 0
M  V30 4168 H 393.625 0.24068 -7.72425 0
M  V30 4169 H 391.97 0.223396 -6.94641 0
M  V30 4170 H 395.161 0.44006 -4.66027 0
M  V30 4171 H 395.334 0.357184 -6.47015 0
M  V30 4172 N 388.74 1.54641 0.303973 0
M  V30 4173 C 390.156 1.45788 0.649463 0
M  V30 4174 C 390.356 0.64666 1.90842 0
M  V30 4175 O 389.412 0.153183 2.52035 0
M  V30 4176 C 390.725 2.89718 0.805227 0
M  V30 4177 C 392.273 2.99742 0.901305 0
M  V30 4178 C 392.748 4.44863 1.08909 0
M  V30 4179 N 394.239 4.48559 1.15536 0
M  V30 4180 C 394.974 5.58026 1.3189 0
M  V30 4181 N 394.47 6.77422 1.45161 0
M  V30 4182 N 396.263 5.45708 1.34755 0
M  V30 4183 H 388.414 2.05854 -0.523237 0
M  V30 4184 H 390.677 0.932186 -0.172431 0
M  V30 4185 H 390.383 3.51666 -0.0489108 0
M  V30 4186 H 390.257 3.36964 1.69513 0
M  V30 4187 H 392.644 2.3791 1.74593 0
M  V30 4188 H 392.725 2.55797 -0.0125531 0
M  V30 4189 H 392.369 5.07288 0.249241 0
M  V30 4190 H 392.299 4.86436 2.01713 0
M  V30 4191 H 394.79 3.6254 1.06646 0
M  V30 4192 H 395.103 7.56604 1.57387 0
M  V30 4193 H 393.448 6.80292 1.42223 0
M  V30 4194 H 396.639 4.51378 1.23996 0
M  V30 4195 H 396.812 6.3107 1.47157 0
M  V30 4196 N 390.218 -0.567019 1.47046 0
M  V30 4197 C 391.128 -1.70247 1.6141 0
M  V30 4198 C 392.144 -1.66746 0.497157 0
M  V30 4199 O 393.32 -1.86371 0.763389 0
M  V30 4200 C 390.385 -3.06756 1.61561 0
M  V30 4201 C 389.446 -3.21399 2.84607 0
M  V30 4202 C 388.679 -4.51396 2.84741 0
M  V30 4203 O 388.902 -5.36255 1.94388 0
M  V30 4204 O 387.836 -4.69621 3.76483 0
M  V30 4205 H 391.662 -1.61073 2.57467 0
M  V30 4206 H 389.247 -0.735894 1.30019 0
M  V30 4207 H 391.129 -3.8801 1.64396 0
M  V30 4208 H 389.804 -3.16333 0.686684 0
M  V30 4209 H 388.711 -2.39579 2.8732 0
M  V30 4210 H 390.044 -3.16721 3.76761 0
M  V30 4211 N 391.696 -1.35014 -0.812953 0
M  V30 4212 C 392.626 -1.30069 -1.93919 0
M  V30 4213 C 393.607 -0.176275 -1.69184 0
M  V30 4214 O 394.792 -0.370227 -1.90638 0
M  V30 4215 C 391.922 -1.06547 -3.30552 0
M  V30 4216 C 390.876 -2.15561 -3.69753 0
M  V30 4217 C 390.202 -1.77214 -5.04479 0
M  V30 4218 C 391.502 -3.57476 -3.808 0
M  V30 4219 H 393.196 -2.24303 -1.98314 0
M  V30 4220 H 390.742 -1.07977 -0.952736 0
M  V30 4221 H 392.695 -1.01729 -4.08937 0
M  V30 4222 H 391.419 -0.0875719 -3.26483 0
M  V30 4223 H 390.078 -2.19466 -2.9365 0
M  V30 4224 H 389.726 -0.780589 -4.96906 0
M  V30 4225 H 389.426 -2.50184 -5.31678 0
M  V30 4226 H 390.95 -1.7391 -5.8531 0
M  V30 4227 H 392.364 -3.55929 -4.4943 0
M  V30 4228 H 390.761 -4.29152 -4.19462 0
M  V30 4229 H 391.831 -3.94091 -2.82525 0
M  V30 4230 N 393.175 1.03435 -1.18907 0
M  V30 4231 C 394.085 2.15075 -0.937015 0
M  V30 4232 C 395.101 1.73706 0.101085 0
M  V30 4233 O 396.277 2.01232 -0.0822948 0
M  V30 4234 C 393.342 3.43458 -0.473057 0
M  V30 4235 C 392.403 3.99172 -1.57989 0
M  V30 4236 C 391.636 5.21427 -1.13797 0
M  V30 4237 O 391.859 5.704 0.000725941 0
M  V30 4238 O 390.793 5.69837 -1.9383 0
M  V30 4239 H 394.619 2.39198 -1.87131 0
M  V30 4240 H 392.204 1.13506 -0.971427 0
M  V30 4241 H 394.086 4.20811 -0.222702 0
M  V30 4242 H 392.761 3.20793 0.432869 0
M  V30 4243 H 391.668 3.23178 -1.88433 0
M  V30 4244 H 393.001 4.2619 -2.46217 0
M  V30 4245 N 394.653 0.992116 1.22453 0
M  V30 4246 C 395.6 0.541731 2.24352 0
M  V30 4247 C 396.57 -0.425519 1.60557 0
M  V30 4248 O 397.755 -0.330453 1.87917 0
M  V30 4249 C 394.895 -0.138248 3.44823 0
M  V30 4250 C 394.008 0.870649 4.23136 0
M  V30 4251 C 393.143 0.164269 5.30946 0
M  V30 4252 C 392.182 1.16159 6.00977 0
M  V30 4253 N 391.319 0.483568 7.00433 0
M  V30 4254 H 396.159 1.41541 2.62241 0
M  V30 4255 H 393.696 0.709013 1.28885 0
M  V30 4256 H 395.654 -0.5494 4.13567 0
M  V30 4257 H 394.284 -0.975721 3.077 0
M  V30 4258 H 393.336 1.40013 3.53696 0
M  V30 4259 H 394.648 1.63014 4.7141 0
M  V30 4260 H 393.802 -0.303653 6.0594 0
M  V30 4261 H 392.541 -0.627733 4.83643 0
M  V30 4262 H 391.546 1.64015 5.24766 0
M  V30 4263 H 392.771 1.95445 6.50368 0
M  V30 4264 H 390.717 -0.289012 6.55363 0
M  V30 4265 H 390.634 1.18152 7.4671 0
M  V30 4266 H 391.902 0.0384219 7.79491 0
M  V30 4267 N 396.131 -1.37776 0.765217 0
M  V30 4268 C 397.359 -2.04124 0.337767 0
M  V30 4269 C 397.774 -1.57715 -1.03785 0
M  V30 4270 O 397.131 -0.755447 -1.6613 0
M  V30 4271 C 397.182 -3.59658 0.364442 0
M  V30 4272 O 396.903 -4.04367 1.68579 0
M  V30 4273 C 398.404 -4.43236 -0.0754221 0
M  V30 4274 H 395.624 -0.655696 0.142491 0
M  V30 4275 H 398.168 -1.76238 1.03732 0
M  V30 4276 H 396.323 -3.86339 -0.286471 0
M  V30 4277 H 396.737 -4.98857 1.61993 0
M  V30 4278 H 398.211 -5.52 -0.00560067 0
M  V30 4279 H 398.688 -4.2455 -1.12491 0
M  V30 4280 H 399.294 -4.21767 0.547055 0
M  V30 4281 N 397.609 -0.515225 -1.4894 0
M  V30 4282 C 398.858 0.0261361 -2.01683 0
M  V30 4283 C 399.171 1.36719 -1.39883 0
M  V30 4284 O 400.377 1.99606 -1.84037 0
M  V30 4285 C 398.833 0.0970111 -3.59769 0
M  V30 4286 C 398.441 -1.23825 -4.30548 0
M  V30 4287 C 400.185 0.587981 -4.20408 0
M  V30 4288 C 398.092 -1.12877 -5.80528 0
M  V30 4289 H 397.022 0.0135398 -0.753878 0
M  V30 4290 H 399.673 -0.656787 -1.71343 0
M  V30 4291 H 398.055 0.844694 -3.86886 0
M  V30 4292 H 399.229 -2.00034 -4.15118 0
M  V30 4293 H 397.544 -1.66379 -3.81716 0
M  V30 4294 H 400.141 0.68763 -5.3026 0
M  V30 4295 H 400.484 1.59026 -3.84729 0
M  V30 4296 H 401.017 -0.103582 -3.97665 0
M  V30 4297 H 397.756 -2.10575 -6.20756 0
M  V30 4298 H 397.276 -0.407799 -5.98412 0
M  V30 4299 H 398.955 -0.813332 -6.41868 0
M  V30 4300 N 399.087 1.5561 -0.249682 0
M  V30 4301 C 400.035 2.22894 0.664906 0
M  V30 4302 C 401.029 1.21743 1.17792 0
M  V30 4303 O 402.235 1.39748 1.13449 0
M  V30 4304 H 398.61 0.715022 0.232912 0
M  V30 4305 H 400.581 2.98307 0.0742998 0
M  V30 4306 C 399.33 2.94424 1.84959 0
M  V30 4307 H 398.653 3.72031 1.46399 0
M  V30 4308 H 400.093 3.44862 2.4667 0
M  V30 4309 C 398.552 1.98454 2.72245 0
M  V30 4310 O 399.082 1.51939 3.71857 0
M  V30 4311 N 397.288 1.65496 2.38871 0
M  V30 4312 H 396.835 2.03517 1.57919 0
M  V30 4313 H 396.793 1.0155 2.97548 0
M  V30 4314 N 400.565 -0.0233959 1.57583 0
M  V30 4315 C 401.497 -1.04994 2.03737 0
M  V30 4316 C 402.51 -1.32125 0.951152 0
M  V30 4317 O 403.699 -1.29512 1.22837 0
M  V30 4318 C 400.799 -2.39026 2.40249 0
M  V30 4319 C 399.972 -2.31171 3.7132 0
M  V30 4320 C 399.031 -3.47698 3.94959 0
M  V30 4321 O 398.057 -3.26937 4.65941 0
M  V30 4322 N 399.259 -4.6976 3.41037 0
M  V30 4323 H 402.024 -0.656507 2.92421 0
M  V30 4324 H 399.585 -0.211235 1.60516 0
M  V30 4325 H 401.577 -3.15712 2.53196 0
M  V30 4326 H 400.147 -2.70194 1.57207 0
M  V30 4327 H 399.367 -1.39547 3.68674 0
M  V30 4328 H 400.655 -2.23071 4.57293 0
M  V30 4329 H 400.053 -4.89528 2.83512 0
M  V30 4330 H 398.61 -5.43791 3.59353 0
M  V30 4331 N 402.043 -1.548 -0.295768 0
M  V30 4332 C 402.975 -1.82492 -1.3867 0
M  V30 4333 C 403.988 -0.708134 -1.46592 0
M  V30 4334 O 405.177 -0.985686 -1.48817 0
M  V30 4335 C 402.277 -1.95256 -2.76999 0
M  V30 4336 C 401.45 -3.25709 -2.91946 0
M  V30 4337 C 400.509 -3.28824 -4.10806 0
M  V30 4338 O 399.535 -4.02328 -4.02643 0
M  V30 4339 N 400.737 -2.5459 -5.21694 0
M  V30 4340 H 403.502 -2.76646 -1.15269 0
M  V30 4341 H 401.063 -1.54438 -0.485849 0
M  V30 4342 H 403.055 -1.94736 -3.54768 0
M  V30 4343 H 401.625 -1.08072 -2.93324 0
M  V30 4344 H 400.845 -3.38959 -2.01247 0
M  V30 4345 H 402.133 -4.11786 -2.98847 0
M  V30 4346 H 401.531 -1.94512 -5.31208 0
M  V30 4347 H 400.088 -2.59818 -5.97778 0
M  V30 4348 N 403.521 0.559213 -1.47345 0
M  V30 4349 C 404.937 0.884943 -1.32819 0
M  V30 4350 C 405.137 1.98988 -0.317173 0
M  V30 4351 O 404.193 2.51031 0.272011 0
M  V30 4352 C 405.506 1.28007 -2.72093 0
M  V30 4353 C 407.054 1.39161 -2.80363 0
M  V30 4354 C 407.529 1.82031 -4.20272 0
M  V30 4355 N 409.02 1.89185 -4.22804 0
M  V30 4356 C 409.755 2.2368 -5.27973 0
M  V30 4357 N 409.251 2.56802 -6.43447 0
M  V30 4358 N 411.044 2.24436 -5.15349 0
M  V30 4359 H 403.195 -0.170304 -2.11716 0
M  V30 4360 H 405.458 -0.0135247 -0.947904 0
M  V30 4361 H 405.164 0.542027 -3.47498 0
M  V30 4362 H 405.038 2.23665 -3.03733 0
M  V30 4363 H 407.425 2.12048 -2.05231 0
M  V30 4364 H 407.506 0.41696 -2.52379 0
M  V30 4365 H 407.15 1.09715 -4.95908 0
M  V30 4366 H 407.08 2.80495 -4.45679 0
M  V30 4367 H 409.571 1.65982 -3.39497 0
M  V30 4368 H 409.884 2.82144 -7.19454 0
M  V30 4369 H 408.229 2.54387 -6.46771 0
M  V30 4370 H 411.42 1.97998 -4.24163 0
M  V30 4371 H 411.593 2.50989 -5.97418 0
M  V30 4372 N 404.999 1.35443 0.805782 0
M  V30 4373 C 406.248 1.28097 1.55801 0
M  V30 4374 C 406.561 -0.142428 1.95081 0
M  V30 4375 O 407.767 -0.33817 2.69386 0
M  V30 4376 C 406.223 2.24653 2.81174 0
M  V30 4377 C 405.831 3.72342 2.49129 0
M  V30 4378 C 407.575 2.2625 3.59181 0
M  V30 4379 C 405.482 4.60719 3.70799 0
M  V30 4380 H 404.412 0.475937 0.584808 0
M  V30 4381 H 407.063 1.60712 0.885661 0
M  V30 4382 H 405.445 1.85011 3.50124 0
M  V30 4383 H 406.619 4.20624 1.88181 0
M  V30 4384 H 404.934 3.73361 1.84366 0
M  V30 4385 H 407.531 2.89495 4.49552 0
M  V30 4386 H 407.874 1.26647 3.96568 0
M  V30 4387 H 408.407 2.64426 2.97193 0
M  V30 4388 H 405.146 5.61324 3.3852 0
M  V30 4389 H 404.666 4.17163 4.3097 0
M  V30 4390 H 406.345 4.76182 4.38018 0
M  V30 4391 N 406.477 -1.02803 1.19454 0
M  V30 4392 C 407.427 -2.0945 0.900827 0
M  V30 4393 C 408.411 -1.60335 -0.134715 0
M  V30 4394 O 409.603 -1.76857 0.0710924 0
M  V30 4395 C 406.732 -3.4044 0.442229 0
M  V30 4396 C 405.818 -3.96286 1.51056 0
M  V30 4397 N 406.209 -4.25785 2.73021 0
M  V30 4398 C 404.507 -4.24307 1.37404 0
M  V30 4399 C 405.208 -4.70654 3.41848 0
M  V30 4400 N 404.184 -4.72238 2.69243 0
M  V30 4401 H 407.986 -2.3015 1.82779 0
M  V30 4402 H 405.5 -1.20672 1.08683 0
M  V30 4403 H 407.497 -4.16354 0.21326 0
M  V30 4404 H 406.157 -3.21159 -0.478238 0
M  V30 4405 H 407.168 -4.15041 3.09776 0
M  V30 4406 H 403.845 -4.14285 0.517103 0
M  V30 4407 H 405.235 -5.02392 4.46152 0
M  V30 4408 N 407.956 -0.998596 -1.21925 0
M  V30 4409 C 408.919 -0.558679 -2.22287 0
M  V30 4410 C 409.919 0.361525 -1.56683 0
M  V30 4411 O 411.109 0.152695 -1.73529 0
M  V30 4412 C 408.241 0.18661 -3.40389 0
M  V30 4413 H 409.434 -1.4463 -2.62721 0
M  V30 4414 H 406.987 -0.786413 -1.35075 0
M  V30 4415 H 407.722 1.08996 -3.05435 0
M  V30 4416 H 407.507 -0.474188 -3.89222 0
M  V30 4417 H 408.997 0.482367 -4.14805 0
M  V30 4418 N 409.434 1.37368 -0.772513 0
M  V30 4419 C 410.85 1.53059 -0.452231 0
M  V30 4420 C 411.05 1.73065 1.03203 0
M  V30 4421 O 410.106 1.75245 1.81784 0
M  V30 4422 C 411.419 2.72659 -1.26797 0
M  V30 4423 C 412.967 2.86521 -1.25995 0
M  V30 4424 C 413.442 4.09105 -2.05905 0
M  V30 4425 N 414.933 4.16219 -2.03263 0
M  V30 4426 C 415.668 5.10107 -2.61875 0
M  V30 4427 N 415.164 6.09547 -3.29278 0
M  V30 4428 N 416.957 5.02596 -2.51701 0
M  V30 4429 H 409.108 1.22634 -1.7342 0
M  V30 4430 H 411.371 0.597206 -0.736239 0
M  V30 4431 H 411.077 2.64343 -2.31982 0
M  V30 4432 H 410.951 3.66363 -0.897672 0
M  V30 4433 H 413.338 2.94308 -0.216081 0
M  V30 4434 H 413.419 1.93774 -1.66989 0
M  V30 4435 H 413.063 4.0208 -3.10313 0
M  V30 4436 H 412.993 5.00968 -1.62292 0
M  V30 4437 H 415.484 3.45012 -1.54192 0
M  V30 4438 H 415.797 6.77718 -3.71374 0
M  V30 4439 H 414.142 6.09824 -3.33377 0
M  V30 4440 H 417.333 4.23855 -1.98657 0
M  V30 4441 H 417.506 5.75582 -2.97673 0
M  V30 4442 N 410.912 0.523116 1.48665 0
M  V30 4443 C 412.161 -0.01544 2.01694 0
M  V30 4444 C 412.474 -1.35975 1.40606 0
M  V30 4445 O 413.68 -1.98627 1.85093 0
M  V30 4446 C 412.136 -0.0779303 3.59816 0
M  V30 4447 C 411.744 1.26107 4.29885 0
M  V30 4448 C 413.488 -0.565678 4.20714 0
M  V30 4449 C 411.395 1.15954 5.79921 0
M  V30 4450 H 410.325 -0.00954163 0.75394 0
M  V30 4451 H 412.976 0.665865 1.70993 0
M  V30 4452 H 411.358 -0.824165 3.87329 0
M  V30 4453 H 412.532 2.02233 4.14051 0
M  V30 4454 H 410.847 1.68401 3.80828 0
M  V30 4455 H 413.444 -0.6595 5.30617 0
M  V30 4456 H 413.787 -1.56984 3.85567 0
M  V30 4457 H 414.32 0.12467 3.97605 0
M  V30 4458 H 411.059 2.13864 6.19631 0
M  V30 4459 H 410.579 0.439529 5.98187 0
M  V30 4460 H 412.258 0.847361 6.41427 0
M  V30 4461 N 412.39 -1.55475 0.257931 0
M  V30 4462 C 413.638 -1.98813 -0.363009 0
M  V30 4463 C 413.959 -1.14757 -1.57657 0
M  V30 4464 O 413.229 -0.232956 -1.9451 0
M  V30 4465 H 411.809 -0.734308 -0.137113 0
M  V30 4466 H 414.471 -1.9156 0.359281 0
M  V30 4467 H 413.567 -3.04941 -0.664634 0
M  V30 4468 N 413.868 0.0150385 -1.57593 0
M  V30 4469 C 414.8 1.03912 -2.04291 0
M  V30 4470 C 415.813 1.31618 -0.958146 0
M  V30 4471 O 417.002 1.28859 -1.23522 0
M  V30 4472 C 414.102 2.37749 -2.41514 0
M  V30 4473 C 413.275 2.29198 -3.72541 0
M  V30 4474 C 412.334 3.45598 -3.96797 0
M  V30 4475 O 411.36 3.24461 -4.67668 0
M  V30 4476 N 412.562 4.67945 -3.43523 0
M  V30 4477 H 415.327 0.64099 -2.92765 0
M  V30 4478 H 412.888 0.20272 -1.60626 0
M  V30 4479 H 414.88 3.14364 -2.54867 0
M  V30 4480 H 413.45 2.69357 -1.58637 0
M  V30 4481 H 412.67 1.3759 -3.69408 0
M  V30 4482 H 413.958 2.20642 -4.5847 0
M  V30 4483 H 413.356 4.88017 -2.86104 0
M  V30 4484 H 411.913 5.41878 -3.62232 0
M  V30 4485 N 415.346 1.54954 0.287554 0
M  V30 4486 C 416.594 1.74528 1.01904 0
M  V30 4487 C 416.915 0.541349 1.87335 0
M  V30 4488 O 416.185 -0.444108 1.908 0
M  V30 4489 H 414.765 0.643576 0.379235 0
M  V30 4490 H 417.427 1.92333 0.315294 0
M  V30 4491 H 416.523 2.64015 1.6644 0
M  V30 4492 N 416.824 -0.551391 1.4764 0
M  V30 4493 C 418.07 -1.31024 1.54792 0
M  V30 4494 C 418.403 -1.9304 0.211967 0
M  V30 4495 O 417.678 -1.78175 -0.77999 0
M  V30 4496 C 417.961 -2.41593 2.67029 0
M  V30 4497 C 417.814 -1.84408 4.10261 0
M  V30 4498 C 419.133 -3.43488 2.75143 0
M  V30 4499 H 416.252 -0.475031 0.563485 0
M  V30 4500 H 418.894 -0.616454 1.79722 0
M  V30 4501 H 417.044 -3.00772 2.45904 0
M  V30 4502 H 418.716 -1.29445 4.42766 0
M  V30 4503 H 416.959 -1.15051 4.18265 0
M  V30 4504 H 417.63 -2.64367 4.84576 0
M  V30 4505 H 420.106 -2.94236 2.94218 0
M  V30 4506 H 418.982 -4.18274 3.55441 0
M  V30 4507 H 419.243 -4.02703 1.82435 0
M  V30 4508 N 418.302 -1.35869 -0.798587 0
M  V30 4509 C 419.713 -1.26498 -1.37314 0
M  V30 4510 C 420.064 0.0991899 -1.95949 0
M  V30 4511 O 419.189 1.0004 -1.91888 0
M  V30 4512 C 419.784 -2.29054 -2.49639 0
M  V30 4513 C 418.343 -2.234 -3.02935 0
M  V30 4514 C 417.49 -2.14329 -1.75949 0
M  V30 4515 H 420.441 -1.46881 -0.600971 0
M  V30 4516 H 420.462 -1.92166 -3.28409 0
M  V30 4517 H 419.974 -3.2833 -2.06933 0
M  V30 4518 H 418.075 -1.27562 -3.50084 0
M  V30 4519 H 418.188 -3.15703 -3.60372 0
M  V30 4520 H 416.552 -1.60435 -1.9782 0
M  V30 4521 H 417.335 -3.15477 -1.35384 0
M  V30 4522 N 419.78 1.02168 -1.19998 0
M  V30 4523 C 421.026 1.75945 -1.00852 0
M  V30 4524 C 421.359 1.88702 0.458828 0
M  V30 4525 O 420.634 1.40911 1.34069 0
M  V30 4526 C 420.917 3.18154 -1.68671 0
M  V30 4527 C 420.77 3.13224 -3.22817 0
M  V30 4528 C 422.089 4.16711 -1.41561 0
M  V30 4529 H 419.208 0.638673 -0.367785 0
M  V30 4530 H 421.85 1.19222 -1.4794 0
M  V30 4531 H 420 3.66586 -1.28636 0
M  V30 4532 H 421.672 2.72635 -3.72112 0
M  V30 4533 H 419.915 2.50751 -3.53986 0
M  V30 4534 H 420.586 4.13728 -3.65422 0
M  V30 4535 H 423.062 3.76913 -1.76284 0
M  V30 4536 H 421.938 5.14391 -1.91553 0
M  V30 4537 H 422.199 4.40774 -0.342193 0
M  V30 4538 N 421.258 1.00505 1.21394 0
M  V30 4539 C 422.504 0.688793 1.90745 0
M  V30 4540 C 422.837 -0.778486 1.77914 0
M  V30 4541 O 422.112 -1.56433 1.15581 0
M  V30 4542 C 422.395 1.11063 3.42545 0
M  V30 4543 C 422.248 2.63737 3.64367 0
M  V30 4544 C 423.567 0.673059 4.34923 0
M  V30 4545 H 420.686 0.251702 0.692687 0
M  V30 4546 H 423.328 1.25074 1.43026 0
M  V30 4547 H 421.478 0.632508 3.83317 0
M  V30 4548 H 423.15 3.19313 3.32922 0
M  V30 4549 H 421.393 3.05248 3.08231 0
M  V30 4550 H 422.064 2.88305 4.70727 0
M  V30 4551 H 424.54 1.08392 4.01734 0
M  V30 4552 H 423.416 0.996383 5.39781 0
M  V30 4553 H 423.677 -0.425808 4.40045 0
M  V30 4554 N 422.737 -1.36956 0.779787 0
M  V30 4555 C 423.7 -2.2851 0.177662 0
M  V30 4556 C 424.7 -1.48393 -0.619377 0
M  V30 4557 O 425.89 -1.68505 -0.441785 0
M  V30 4558 C 423.022 -3.32428 -0.755279 0
M  V30 4559 H 424.215 -2.83269 0.984823 0
M  V30 4560 H 421.768 -1.46358 0.548544 0
M  V30 4561 H 422.503 -2.82808 -1.58714 0
M  V30 4562 H 422.288 -3.91659 -0.185817 0
M  V30 4563 H 423.778 -4.00824 -1.17174 0
M  V30 4564 N 424.215 -0.530993 -1.48385 0
M  V30 4565 C 425.145 0.219985 -2.32461 0
M  V30 4566 C 426.126 0.934111 -1.42156 0
M  V30 4567 O 427.311 0.919694 -1.71042 0
M  V30 4568 C 424.441 1.26674 -3.23375 0
M  V30 4569 C 423.395 0.67069 -4.22712 0
M  V30 4570 C 422.721 1.82017 -5.02766 0
M  V30 4571 C 424.021 -0.358268 -5.2107 0
M  V30 4572 H 425.715 -0.48187 -2.95497 0
M  V30 4573 H 423.261 -0.233182 -1.42099 0
M  V30 4574 H 425.214 1.80006 -3.81019 0
M  V30 4575 H 423.938 1.99818 -2.58341 0
M  V30 4576 H 422.597 0.158878 -3.66256 0
M  V30 4577 H 422.245 2.54002 -4.34157 0
M  V30 4578 H 421.945 1.42727 -5.70003 0
M  V30 4579 H 423.469 2.35725 -5.63264 0
M  V30 4580 H 424.883 0.0880081 -5.73232 0
M  V30 4581 H 423.28 -0.66861 -5.96364 0
M  V30 4582 H 424.35 -1.26367 -4.68145 0
M  V30 4583 N 425.693 1.55336 -0.266172 0
M  V30 4584 C 426.942 1.98574 0.353749 0
M  V30 4585 C 427.255 1.15789 1.57646 0
M  V30 4586 O 428.461 1.49129 2.26876 0
M  V30 4587 C 426.917 3.53403 0.680747 0
M  V30 4588 C 426.525 4.44953 -0.52165 0
M  V30 4589 C 428.269 4.05251 1.26379 0
M  V30 4590 C 426.176 5.91156 -0.169736 0
M  V30 4591 H 425.106 0.741643 0.135949 0
M  V30 4592 H 427.757 1.79743 -0.369421 0
M  V30 4593 H 426.139 3.68001 1.46257 0
M  V30 4594 H 427.313 4.42121 -1.29869 0
M  V30 4595 H 425.628 4.03691 -1.02093 0
M  V30 4596 H 428.225 5.12021 1.54074 0
M  V30 4597 H 428.568 3.53749 2.19471 0
M  V30 4598 H 429.101 3.94057 0.544447 0
M  V30 4599 H 425.84 6.46736 -1.0683 0
M  V30 4600 H 425.36 5.97079 0.570717 0
M  V30 4601 H 427.039 6.4655 0.241245 0
M  V30 4602 N 427.171 -0.0066808 1.57599 0
M  V30 4603 C 428.418 -0.69292 1.90276 0
M  V30 4604 C 428.746 -1.74148 0.866192 0
M  V30 4605 O 428.001 -1.95268 -0.129933 0
M  V30 4606 C 428.3 -1.37939 3.29708 0
M  V30 4607 C 427.966 -0.464679 4.48499 0
M  V30 4608 C 426.628 -0.212809 4.80729 0
M  V30 4609 C 428.98 0.16551 5.20937 0
M  V30 4610 C 426.308 0.677653 5.82773 0
M  V30 4611 C 428.66 1.04381 6.23929 0
M  V30 4612 C 427.324 1.30492 6.54621 0
M  V30 4613 H 426.594 -0.253558 0.696268 0
M  V30 4614 H 429.241 0.0474123 1.91441 0
M  V30 4615 H 427.546 -2.1936 3.24636 0
M  V30 4616 H 429.243 -1.9163 3.52249 0
M  V30 4617 H 425.833 -0.671153 4.23313 0
M  V30 4618 H 430.017 -0.0160756 4.96297 0
M  V30 4619 H 425.273 0.88803 6.04917 0
M  V30 4620 H 429.447 1.53851 6.79193 0
M  V30 4621 H 427.074 1.99662 7.33512 0
M  V30 4622 N 428.649 -1.55105 -0.279332 0
M  V30 4623 C 429.559 -1.90638 -1.36727 0
M  V30 4624 C 430.575 -0.802899 -1.54368 0
M  V30 4625 O 431.751 -1.10138 -1.68616 0
M  V30 4626 C 428.816 -2.16547 -2.70755 0
M  V30 4627 C 427.877 -3.40146 -2.61915 0
M  V30 4628 C 427.11 -3.6481 -3.8955 0
M  V30 4629 O 427.333 -2.92095 -4.89935 0
M  V30 4630 O 426.267 -4.58343 -3.90135 0
M  V30 4631 H 430.093 -2.83237 -1.09591 0
M  V30 4632 H 427.678 -1.4157 -0.477306 0
M  V30 4633 H 429.56 -2.34665 -3.50014 0
M  V30 4634 H 428.235 -1.27131 -2.9769 0
M  V30 4635 H 427.142 -3.2737 -1.81052 0
M  V30 4636 H 428.475 -4.29761 -2.3993 0
M  V30 4637 N 430.127 0.543554 -1.4793 0
M  V30 4638 C 431.375 1.29752 -1.54948 0
M  V30 4639 C 431.696 1.93764 -0.219242 0
M  V30 4640 O 430.966 1.80639 0.75805 0
M  V30 4641 H 429.546 0.481874 -0.570795 0
M  V30 4642 H 432.208 0.633636 -1.84312 0
M  V30 4643 H 431.304 2.08392 -2.32334 0
M  V30 4644 N 431.605 1.3629 0.791371 0
M  V30 4645 C 432.853 1.30154 1.5461 0
M  V30 4646 C 433.174 -0.119409 1.94634 0
M  V30 4647 O 432.444 -1.05924 1.64794 0
M  V30 4648 H 431.024 0.478784 0.573389 0
M  V30 4649 H 433.686 1.70565 0.94306 0
M  V30 4650 H 432.782 1.92762 2.45457 0
M  V30 4651 N 433.083 -1.0153 1.20538 0
M  V30 4652 C 434.494 -1.56598 1.01657 0
M  V30 4653 C 434.845 -1.91505 -0.426668 0
M  V30 4654 O 433.97 -1.72375 -1.30827 0
M  V30 4655 C 434.565 -2.84542 1.83905 0
M  V30 4656 C 433.124 -3.36133 1.69386 0
M  V30 4657 C 432.271 -2.09427 1.81757 0
M  V30 4658 H 435.222 -0.838974 1.34711 0
M  V30 4659 H 435.243 -3.56004 1.34319 0
M  V30 4660 H 434.755 -2.59105 2.8894 0
M  V30 4661 H 432.856 -3.66528 0.669933 0
M  V30 4662 H 432.969 -4.08248 2.50739 0
M  V30 4663 H 431.333 -2.21941 1.24957 0
M  V30 4664 H 432.116 -1.86414 2.88279 0
M  V30 4665 N 434.561 -1.01147 -1.20859 0
M  V30 4666 C 435.509 -0.57059 -2.25493 0
M  V30 4667 C 436.503 0.388109 -1.64894 0
M  V30 4668 O 437.709 0.258592 -1.78133 0
M  V30 4669 H 434.084 -0.166191 -0.733406 0
M  V30 4670 H 436.055 -1.46411 -2.60012 0
M  V30 4671 C 434.804 0.0805241 -3.47607 0
M  V30 4672 H 434.127 -0.648156 -3.94511 0
M  V30 4673 H 435.567 0.352197 -4.22535 0
M  V30 4674 C 434.026 1.32175 -3.09889 0
M  V30 4675 O 434.556 2.41553 -3.20959 0
M  V30 4676 N 432.762 1.20392 -2.64488 0
M  V30 4677 H 432.309 0.313905 -2.5568 0
M  V30 4678 H 432.267 2.03541 -2.39621 0
M  V30 4679 N 436.039 1.36541 -0.78704 0
M  V30 4680 C 437.285 1.99599 -0.358872 0
M  V30 4681 C 437.618 1.62323 1.06606 0
M  V30 4682 O 436.893 0.876858 1.73613 0
M  V30 4683 C 437.176 3.56327 -0.519944 0
M  V30 4684 C 437.029 4.03464 -1.98839 0
M  V30 4685 C 438.348 4.4005 0.0664737 0
M  V30 4686 H 435.467 0.725107 -0.131869 0
M  V30 4687 H 438.109 1.6199 -0.992936 0
M  V30 4688 H 436.259 3.88495 0.0198321 0
M  V30 4689 H 437.931 3.81793 -2.58905 0
M  V30 4690 H 436.174 3.55092 -2.49183 0
M  V30 4691 H 436.845 5.12439 -2.05207 0
M  V30 4692 H 439.321 4.14228 -0.394267 0
M  V30 4693 H 438.197 5.48847 -0.0762682 0
M  V30 4694 H 438.458 4.26655 1.15835 0
M  V30 4695 N 437.518 0.538854 1.48102 0
M  V30 4696 C 438.767 0.0059532 2.01699 0
M  V30 4697 C 439.08 -1.34476 1.42041 0
M  V30 4698 O 440.286 -1.96653 1.87189 0
M  V30 4699 C 438.742 -0.0397627 3.59878 0
M  V30 4700 C 438.35 1.30659 4.28523 0
M  V30 4701 C 440.094 -0.521024 4.2129 0
M  V30 4702 C 438.001 1.22098 5.78659 0
M  V30 4703 H 436.931 -0.00154456 0.753998 0
M  V30 4704 H 439.582 0.683963 1.70277 0
M  V30 4705 H 437.964 -0.783037 3.88181 0
M  V30 4706 H 439.138 2.06613 4.11883 0
M  V30 4707 H 437.453 1.7243 3.79021 0
M  V30 4708 H 440.05 -0.603184 5.31287 0
M  V30 4709 H 440.393 -1.52885 3.8721 0
M  V30 4710 H 440.926 0.166834 3.9745 0
M  V30 4711 H 437.665 2.20424 6.17328 0
M  V30 4712 H 437.185 0.50295 5.97688 0
M  V30 4713 H 438.864 0.915345 6.40492 0
M  V30 4714 N 438.996 -1.55193 0.274407 0
M  V30 4715 C 439.926 -2.25471 -0.607032 0
M  V30 4716 C 440.907 -1.24461 -1.15946 0
M  V30 4717 O 442.092 -1.53179 -1.19373 0
M  V30 4718 C 439.222 -2.97526 -1.79153 0
M  V30 4719 C 438.176 -4.05459 -1.37067 0
M  V30 4720 C 437.502 -4.65084 -2.6382 0
M  V30 4721 C 438.802 -5.19691 -0.521389 0
M  V30 4722 H 440.496 -2.99393 -0.0209343 0
M  V30 4723 H 438.042 -1.43997 -0.00862866 0
M  V30 4724 H 439.995 -3.45402 -2.41404 0
M  V30 4725 H 438.719 -2.21138 -2.40344 0
M  V30 4726 H 437.378 -3.58393 -0.771355 0
M  V30 4727 H 437.026 -3.85365 -3.23268 0
M  V30 4728 H 436.726 -5.37961 -2.36372 0
M  V30 4729 H 438.25 -5.15708 -3.26921 0
M  V30 4730 H 439.664 -5.63623 -1.04889 0
M  V30 4731 H 438.061 -5.99126 -0.341825 0
M  V30 4732 H 439.131 -4.82713 0.46 0
M  V30 4733 N 440.474 -0.00167713 -1.576 0
M  V30 4734 C 441.702 0.693759 -1.94922 0
M  V30 4735 C 442.117 1.67215 -0.876626 0
M  V30 4736 O 441.474 1.81929 0.144279 0
M  V30 4737 C 441.525 1.42416 -3.32265 0
M  V30 4738 O 441.246 0.485014 -4.35407 0
M  V30 4739 C 442.747 2.21395 -3.84056 0
M  V30 4740 H 439.967 0.193118 -0.642609 0
M  V30 4741 H 442.511 -0.0532952 -2.04431 0
M  V30 4742 H 440.666 2.12284 -3.24059 0
M  V30 4743 H 441.08 1.00053 -5.14868 0
M  V30 4744 H 442.554 2.67996 -4.82578 0
M  V30 4745 H 443.031 3.04142 -3.16851 0
M  V30 4746 H 443.637 1.56542 -3.95443 0
M  V30 4747 N 441.952 1.55251 0.271103 0
M  V30 4748 C 443.198 1.76207 1.00394 0
M  V30 4749 C 443.531 0.562604 1.85872 0
M  V30 4750 O 442.806 -0.439785 1.89463 0
M  V30 4751 C 443.089 3.06828 1.8849 0
M  V30 4752 C 442.942 4.37134 1.05992 0
M  V30 4753 C 444.261 3.33503 2.87165 0
M  V30 4754 H 441.38 0.641086 0.363562 0
M  V30 4755 H 444.022 1.87982 0.276189 0
M  V30 4756 H 442.172 2.96921 2.5054 0
M  V30 4757 H 443.844 4.59001 0.459978 0
M  V30 4758 H 442.087 4.32275 0.363443 0
M  V30 4759 H 442.758 5.2486 1.70955 0
M  V30 4760 H 445.234 3.43215 2.3525 0
M  V30 4761 H 444.11 4.2616 3.45946 0
M  V30 4762 H 444.371 2.53235 3.62387 0
M  V30 4763 N 443.43 -0.535701 1.48216 0
M  V30 4764 C 444.36 -1.65014 1.65204 0
M  V30 4765 C 445.341 -1.62554 0.501011 0
M  V30 4766 O 446.526 -1.7984 0.732886 0
M  V30 4767 C 443.656 -3.03616 1.68626 0
M  V30 4768 C 442.61 -3.20932 2.83172 0
M  V30 4769 C 441.936 -4.60537 2.71679 0
M  V30 4770 C 443.236 -3.04249 4.24535 0
M  V30 4771 H 444.93 -1.51053 2.58502 0
M  V30 4772 H 442.476 -0.725262 1.24402 0
M  V30 4773 H 444.429 -3.81446 1.79099 0
M  V30 4774 H 443.153 -3.18587 0.719026 0
M  V30 4775 H 441.812 -2.45517 2.72244 0
M  V30 4776 H 441.46 -4.72336 1.72937 0
M  V30 4777 H 441.16 -4.73069 3.48538 0
M  V30 4778 H 442.684 -5.40475 2.84112 0
M  V30 4779 H 444.098 -3.71877 4.36326 0
M  V30 4780 H 442.495 -3.28278 5.02348 0
M  V30 4781 H 443.565 -2.00739 4.41397 0
M  V30 4782 N 444.908 -1.36708 -0.784132 0
M  V30 4783 C 445.818 -1.3363 -1.92822 0
M  V30 4784 C 446.834 -0.237686 -1.72369 0
M  V30 4785 O 448.01 -0.470962 -1.95816 0
M  V30 4786 C 445.075 -1.13011 -3.27764 0
M  V30 4787 C 444.136 -2.32397 -3.60957 0
M  V30 4788 C 443.369 -2.12752 -4.89461 0
M  V30 4789 O 443.592 -1.10541 -5.59586 0
M  V30 4790 O 442.526 -3.00653 -5.21432 0
M  V30 4791 H 446.352 -2.29964 -1.98369 0
M  V30 4792 H 443.937 -1.1731 -0.925136 0
M  V30 4793 H 445.819 -1.03451 -4.08504 0
M  V30 4794 H 444.494 -0.19743 -3.23097 0
M  V30 4795 H 443.401 -2.47527 -2.80502 0
M  V30 4796 H 444.734 -3.2419 -3.70354 0
M  V30 4797 N 446.386 1.0089 -1.21074 0
M  V30 4798 C 447.616 1.77933 -1.04993 0
M  V30 4799 C 448.024 1.84847 0.403495 0
M  V30 4800 O 447.367 1.30606 1.29181 0
M  V30 4801 C 447.429 3.23541 -1.56722 0
M  V30 4802 C 447.093 3.40214 -3.05129 0
M  V30 4803 C 448.09 3.2881 -4.02716 0
M  V30 4804 C 445.775 3.65781 -3.44252 0
M  V30 4805 C 447.769 3.42732 -5.37414 0
M  V30 4806 C 445.456 3.79346 -4.79103 0
M  V30 4807 C 446.454 3.67827 -5.75493 0
M  V30 4808 O 446.142 3.80965 -7.07899 0
M  V30 4809 H 445.874 0.566157 -0.369381 0
M  V30 4810 H 448.428 1.27826 -1.60779 0
M  V30 4811 H 446.658 3.74766 -0.953285 0
M  V30 4812 H 448.347 3.82245 -1.36543 0
M  V30 4813 H 449.113 3.08986 -3.73835 0
M  V30 4814 H 444.992 3.73831 -2.69762 0
M  V30 4815 H 448.536 3.33658 -6.12632 0
M  V30 4816 H 444.433 3.98672 -5.07672 0
M  V30 4817 H 445.201 3.97937 -7.15254 0
M  V30 4818 N 447.864 1.01787 1.20321 0
M  V30 4819 C 448.794 0.609625 2.25401 0
M  V30 4820 C 449.775 -0.375951 1.65893 0
M  V30 4821 O 450.96 -0.261101 1.92437 0
M  V30 4822 C 448.09 -0.0515995 3.47262 0
M  V30 4823 C 447.044 0.855095 4.19371 0
M  V30 4824 C 446.37 0.0595757 5.34667 0
M  V30 4825 C 447.67 2.16374 4.75373 0
M  V30 4826 H 449.364 1.48803 2.59804 0
M  V30 4827 H 446.91 0.716934 1.24884 0
M  V30 4828 H 448.863 -0.348764 4.19954 0
M  V30 4829 H 447.587 -0.964726 3.12027 0
M  V30 4830 H 446.246 1.13628 3.48546 0
M  V30 4831 H 445.894 -0.85524 4.95676 0
M  V30 4832 H 445.594 0.663406 5.83843 0
M  V30 4833 H 447.118 -0.231105 6.10162 0
M  V30 4834 H 448.532 1.92885 5.39878 0
M  V30 4835 H 446.929 2.71853 5.34991 0
M  V30 4836 H 447.999 2.82589 3.94045 0
M  V30 4837 N 449.342 -1.36122 0.79427 0
M  V30 4838 C 450.274 -2.28683 0.153903 0
M  V30 4839 C 451.287 -1.49707 -0.639669 0
M  V30 4840 O 452.476 -1.7209 -0.474054 0
M  V30 4841 C 449.576 -3.29202 -0.804921 0
M  V30 4842 C 448.749 -4.37358 -0.060366 0
M  V30 4843 C 447.808 -5.17811 -0.935849 0
M  V30 4844 O 446.834 -5.67853 -0.391309 0
M  V30 4845 N 448.036 -5.34721 -2.25951 0
M  V30 4846 H 450.801 -2.84278 0.949008 0
M  V30 4847 H 448.362 -1.4834 0.648611 0
M  V30 4848 H 450.354 -3.79914 -1.39455 0
M  V30 4849 H 448.924 -2.74212 -1.50088 0
M  V30 4850 H 448.144 -3.87746 0.710382 0
M  V30 4851 H 449.432 -5.06777 0.45324 0
M  V30 4852 H 448.83 -4.95687 -2.72601 0
M  V30 4853 H 447.387 -5.88657 -2.79867 0
M  V30 4854 N 450.82 -0.546701 -1.47814 0
M  V30 4855 C 451.73 0.21026 -2.33656 0
M  V30 4856 C 452.746 0.922413 -1.47538 0
M  V30 4857 O 453.922 0.893652 -1.80488 0
M  V30 4858 C 450.987 1.23348 -3.24016 0
M  V30 4859 C 450.048 0.529883 -4.26017 0
M  V30 4860 C 449.281 1.50435 -5.12059 0
M  V30 4861 O 449.504 2.73837 -5.00369 0
M  V30 4862 O 448.438 1.03459 -5.92942 0
M  V30 4863 H 452.264 -0.493605 -2.99662 0
M  V30 4864 H 449.849 -0.307427 -1.46203 0
M  V30 4865 H 451.731 1.82438 -3.79861 0
M  V30 4866 H 450.406 1.91945 -2.60651 0
M  V30 4867 H 449.313 -0.101948 -3.73961 0
M  V30 4868 H 450.646 -0.11445 -4.92067 0
M  V30 4869 N 452.299 1.55045 -0.282633 0
M  V30 4870 C 453.524 2.04628 0.337977 0
M  V30 4871 C 453.949 1.15937 1.48123 0
M  V30 4872 O 453.307 0.159532 1.80597 0
M  V30 4873 C 453.355 3.51854 0.78936 0
M  V30 4874 O 452.459 3.66236 1.89592 0
M  V30 4875 H 451.8 0.660434 0.0687261 0
M  V30 4876 H 454.33 2.00261 -0.419124 0
M  V30 4877 H 454.34 3.93361 1.08311 0
M  V30 4878 H 453.015 4.15873 -0.0470419 0
M  V30 4879 H 451.592 3.36633 1.60413 0
M  V30 4880 N 453.777 0.010035 1.57597 0
M  V30 4881 C 455.188 -0.531426 1.78977 0
M  V30 4882 C 455.539 -1.73375 0.918454 0
M  V30 4883 O 454.664 -2.16047 0.123635 0
M  V30 4884 C 455.259 -0.97086 3.24592 0
M  V30 4885 C 453.818 -1.45756 3.47033 0
M  V30 4886 C 452.965 -0.413384 2.74201 0
M  V30 4887 H 455.916 0.236166 1.56933 0
M  V30 4888 H 455.937 -1.83633 3.33255 0
M  V30 4889 H 455.449 -0.0955893 3.87982 0
M  V30 4890 H 453.55 -2.35339 2.88871 0
M  V30 4891 H 453.663 -1.4781 4.55729 0
M  V30 4892 H 452.027 -0.877266 2.39115 0
M  V30 4893 H 452.81 0.453092 3.40297 0
M  V30 4894 N 455.255 -1.55392 -0.262866 0
M  V30 4895 C 456.666 -1.67079 -0.833158 0
M  V30 4896 C 457.017 -0.604539 -1.86654 0
M  V30 4897 O 456.142 0.252138 -2.14926 0
M  V30 4898 C 456.737 -3.02891 -1.51797 0
M  V30 4899 C 455.296 -3.16571 -2.03617 0
M  V30 4900 C 454.443 -2.62909 -0.881701 0
M  V30 4901 H 457.394 -1.58652 -0.0389986 0
M  V30 4902 H 457.415 -2.96445 -2.38538 0
M  V30 4903 H 456.927 -3.80473 -0.765619 0
M  V30 4904 H 455.028 -2.43782 -2.81782 0
M  V30 4905 H 455.141 -4.23271 -2.24452 0
M  V30 4906 H 453.505 -2.20324 -1.27786 0
M  V30 4907 H 454.288 -3.43003 -0.14269 0
M  V30 4908 N 456.733 0.527833 -1.48498 0
M  V30 4909 C 457.979 1.28545 -1.56857 0
M  V30 4910 C 458.312 1.92678 -0.242651 0
M  V30 4911 O 457.587 1.79394 0.751545 0
M  V30 4912 C 457.87 2.37314 -2.70839 0
M  V30 4913 C 457.723 1.77858 -4.13142 0
M  V30 4914 C 459.042 3.39068 -2.80573 0
M  V30 4915 H 456.161 0.466006 -0.570971 0
M  V30 4916 H 458.803 0.587784 -1.8068 0
M  V30 4917 H 456.953 2.96821 -2.50658 0
M  V30 4918 H 458.625 1.22385 -4.44769 0
M  V30 4919 H 456.868 1.08383 -4.20042 0
M  V30 4920 H 457.539 2.56624 -4.88721 0
M  V30 4921 H 460.015 2.89518 -2.98862 0
M  V30 4922 H 458.891 4.12566 -3.6205 0
M  V30 4923 H 459.152 3.9975 -1.88818 0
M  V30 4924 N 458.211 1.37122 0.776871 0
M  V30 4925 C 459.622 1.28667 1.35284 0
M  V30 4926 C 459.973 -0.0680035 1.96082 0
M  V30 4927 O 459.098 -0.969743 1.93455 0
M  V30 4928 C 459.693 2.32997 2.45963 0
M  V30 4929 C 458.252 2.28191 2.99342 0
M  V30 4930 C 457.399 2.17101 1.72517 0
M  V30 4931 H 460.35 1.47819 0.577527 0
M  V30 4932 H 460.371 1.97366 3.2531 0
M  V30 4933 H 459.883 3.3158 2.01684 0
M  V30 4934 H 457.984 1.33115 3.4801 0
M  V30 4935 H 458.097 3.21397 3.55304 0
M  V30 4936 H 456.461 1.63562 1.95242 0
M  V30 4937 H 457.244 3.17591 1.30348 0
M  V30 4938 N 459.689 -1.00246 1.21608 0
M  V30 4939 C 460.935 -1.74319 1.03638 0
M  V30 4940 C 461.268 -1.89408 -0.428749 0
M  V30 4941 O 460.543 -1.43026 -1.3181 0
M  V30 4942 C 460.826 -3.15431 1.73711 0
M  V30 4943 C 460.679 -3.08049 3.27759 0
M  V30 4944 C 461.998 -4.14407 1.48173 0
M  V30 4945 H 459.117 -0.632741 0.377899 0
M  V30 4946 H 461.759 -1.16853 1.49818 0
M  V30 4947 H 459.909 -3.64493 1.34452 0
M  V30 4948 H 461.581 -2.66681 3.76403 0
M  V30 4949 H 459.824 -2.45088 3.57931 0
M  V30 4950 H 460.495 -4.07862 3.71958 0
M  V30 4951 H 462.971 -3.74061 1.82258 0
M  V30 4952 H 461.847 -5.11279 1.99713 0
M  V30 4953 H 462.108 -4.40174 0.412273 0
M  V30 4954 N 461.167 -1.02423 -1.1978 0
M  V30 4955 C 462.413 -0.719051 -1.89625 0
M  V30 4956 C 462.746 0.750083 -1.7913 0
M  V30 4957 O 462.021 1.54574 -1.18056 0
M  V30 4958 C 462.304 -1.16499 -3.40735 0
M  V30 4959 C 462.157 -2.695 -3.60125 0
M  V30 4960 C 463.476 -0.742166 -4.33797 0
M  V30 4961 H 460.595 -0.26269 -0.688595 0
M  V30 4962 H 463.237 -1.27333 -1.41018 0
M  V30 4963 H 461.387 -0.69341 -3.82262 0
M  V30 4964 H 463.059 -3.24569 -3.278 0
M  V30 4965 H 461.302 -3.10113 -3.03336 0
M  V30 4966 H 461.973 -2.95757 -4.66081 0
M  V30 4967 H 464.449 -1.1477 -3.99959 0
M  V30 4968 H 463.325 -1.08213 -5.38127 0
M  V30 4969 H 463.586 0.355747 -4.40666 0
M  V30 4970 N 462.645 1.35699 -0.801477 0
M  V30 4971 C 463.891 1.99208 -0.380022 0
M  V30 4972 C 464.224 1.63445 1.04878 0
M  V30 4973 O 463.499 0.895223 1.72673 0
M  V30 4974 C 463.782 3.55755 -0.557708 0
M  V30 4975 C 463.635 4.01332 -2.03107 0
M  V30 4976 C 464.954 4.40096 0.0197968 0
M  V30 4977 H 462.073 0.723667 -0.139552 0
M  V30 4978 H 464.715 1.60928 -1.01006 0
M  V30 4979 H 462.865 3.88494 -0.0213741 0
M  V30 4980 H 464.537 3.79026 -2.62939 0
M  V30 4981 H 462.78 3.52429 -2.52936 0
M  V30 4982 H 463.451 5.10234 -2.1063 0
M  V30 4983 H 465.927 4.13786 -0.438179 0
M  V30 4984 H 464.803 5.48735 -0.134477 0
M  V30 4985 H 465.064 4.2786 1.11303 0
M  V30 4986 N 464.123 0.554532 1.47522 0
M  V30 4987 C 465.363 0.0317994 2.04375 0
M  V30 4988 C 465.727 -1.29242 1.41988 0
M  V30 4989 O 466.928 -1.90269 1.89872 0
M  V30 4990 C 465.199 -0.0623344 3.57346 0
M  V30 4991 S 466.758 -0.531578 4.35568 0
M  V30 4992 H 463.576 0.0238553 0.7106 0
M  V30 4993 H 466.178 0.74066 1.80927 0
M  V30 4994 H 464.882 0.905857 4.00278 0
M  V30 4995 H 464.413 -0.794831 3.85287 0
M  V30 4996 H 466.428 -1.79175 4.62721 0
M  V30 4997 N 465.601 -1.54893 0.290851 0
M  V30 4998 C 466.511 -2.26812 -0.59945 0
M  V30 4999 C 467.527 -1.29963 -1.15696 0
M  V30 5000 O 468.703 -1.62928 -1.18391 0
M  V30 5001 C 465.768 -2.98716 -1.75982 0
M  V30 5002 C 464.829 -4.1108 -1.2374 0
M  V30 5003 C 464.062 -4.79546 -2.34246 0
M  V30 5004 O 464.285 -4.47309 -3.53936 0
M  V30 5005 O 463.219 -5.67165 -2.01512 0
M  V30 5006 H 467.045 -3.03696 -0.0163561 0
M  V30 5007 H 464.63 -1.49289 0.0576755 0
M  V30 5008 H 466.512 -3.43851 -2.43607 0
M  V30 5009 H 465.187 -2.24737 -2.3297 0
M  V30 5010 H 464.094 -3.70367 -0.527163 0
M  V30 5011 H 465.427 -4.87007 -0.71307 0
M  V30 5012 N 467.08 -0.0183926 -1.57589 0
M  V30 5013 C 468.328 0.661253 -1.90976 0
M  V30 5014 C 468.649 1.73281 -0.894353 0
M  V30 5015 O 467.919 1.9579 0.0656788 0
M  V30 5016 H 466.499 0.247233 -0.704901 0
M  V30 5017 H 469.161 -0.0636639 -1.94796 0
M  V30 5018 H 468.257 1.12083 -2.9128 0
M  V30 5019 N 468.558 1.5553 0.254621 0
M  V30 5020 C 469.786 1.81046 1.00149 0
M  V30 5021 C 470.201 0.593047 1.79244 0
M  V30 5022 O 469.558 -0.438196 1.77161 0
M  V30 5023 C 469.609 3.04684 1.94551 0
M  V30 5024 O 469.33 4.21725 1.18658 0
M  V30 5025 C 470.831 3.42943 2.80901 0
M  V30 5026 H 468.051 0.602653 0.295044 0
M  V30 5027 H 470.595 2.02576 0.279842 0
M  V30 5028 H 468.75 2.85226 2.62154 0
M  V30 5029 H 469.164 4.91746 1.82445 0
M  V30 5030 H 470.638 4.32576 3.42902 0
M  V30 5031 H 471.115 2.63176 3.51617 0
M  V30 5032 H 471.721 3.64724 2.18762 0
M  V30 5033 N 470.036 -0.519951 1.48776 0
M  V30 5034 C 471.284 -1.2727 1.56993 0
M  V30 5035 C 471.605 -1.9339 0.25004 0
M  V30 5036 O 470.875 -1.81822 -0.729216 0
M  V30 5037 H 469.455 -0.472732 0.578389 0
M  V30 5038 H 472.117 -0.604234 1.85297 0
M  V30 5039 H 471.213 -2.04669 2.3562 0
M  V30 5040 N 471.514 -1.37532 -0.769588 0
M  V30 5041 C 472.93 -1.18379 -1.07045 0
M  V30 5042 C 473.13 -0.0214312 -2.01489 0
M  V30 5043 O 472.186 0.637809 -2.44312 0
M  V30 5044 C 473.499 -2.50338 -1.66588 0
M  V30 5045 C 475.047 -2.56879 -1.78835 0
M  V30 5046 C 475.522 -3.88974 -2.41792 0
M  V30 5047 N 477.013 -3.90428 -2.4924 0
M  V30 5048 C 477.748 -4.89388 -2.98809 0
M  V30 5049 N 477.244 -5.98745 -3.48535 0
M  V30 5050 N 479.037 -4.76791 -2.97703 0
M  V30 5051 H 471.188 -2.11921 -0.142541 0
M  V30 5052 H 473.451 -0.939608 -0.125863 0
M  V30 5053 H 473.157 -3.35767 -1.0466 0
M  V30 5054 H 473.031 -2.67583 -2.65856 0
M  V30 5055 H 475.418 -1.71856 -2.39895 0
M  V30 5056 H 475.499 -2.43516 -0.783166 0
M  V30 5057 H 475.143 -4.74412 -1.81371 0
M  V30 5058 H 475.073 -3.99641 -3.4292 0
M  V30 5059 H 477.564 -3.11433 -2.14052 0
M  V30 5060 H 477.877 -6.70205 -3.84767 0
M  V30 5061 H 476.222 -6.02387 -3.46634 0
M  V30 5062 H 479.413 -3.90478 -2.58157 0
M  V30 5063 H 479.586 -5.54069 -3.36024 0
M  V30 5064 N 472.992 0.995999 -1.22138 0
M  V30 5065 C 473.955 2.06711 -0.990109 0
M  V30 5066 C 474.955 1.60744 0.0422978 0
M  V30 5067 O 476.145 1.73095 -0.195895 0
M  V30 5068 C 473.277 3.37288 -0.49491 0
M  V30 5069 H 474.47 2.28661 -1.94047 0
M  V30 5070 H 472.023 1.16711 -1.03963 0
M  V30 5071 H 472.758 3.21022 0.459948 0
M  V30 5072 H 472.543 3.71986 -1.23971 0
M  V30 5073 H 474.033 4.16103 -0.353253 0
M  V30 5074 N 474.47 1.03057 1.19235 0
M  V30 5075 C 475.433 0.617418 2.20727 0
M  V30 5076 C 476.433 -0.319856 1.57587 0
M  V30 5077 O 477.623 -0.106633 1.73873 0
M  V30 5078 C 474.755 -0.096296 3.40764 0
M  V30 5079 H 475.948 1.51544 2.58794 0
M  V30 5080 H 473.501 0.821949 1.32942 0
M  V30 5081 H 474.236 -1.00859 3.08217 0
M  V30 5082 H 474.021 0.577217 3.87828 0
M  V30 5083 H 475.511 -0.372219 4.15938 0
M  V30 5084 N 475.948 -1.35272 0.808662 0
M  V30 5085 C 477.225 -1.93077 0.313181 0
M  V30 5086 C 477.605 -1.73847 -1.19752 0
M  V30 5087 O 476.953 -1.1087 -1.998 0
M  V30 5088 C 477.163 -3.41347 0.726859 0
M  V30 5089 C 478.511 -4.18493 0.717532 0
M  V30 5090 O 479.535 -3.4987 0.668535 0
M  V30 5091 O 478.394 -5.40937 0.777779 0
M  V30 5092 H 475.488 -0.822885 0.0824018 0
M  V30 5093 H 478.034 -1.44335 0.892499 0
M  V30 5094 H 476.806 -3.49082 1.76797 0
M  V30 5095 H 476.429 -3.97411 0.122461 0
M  V30 5096 N 477.426 -0.562348 -1.47226 0
M  V30 5097 C 478.356 0.170627 -2.32876 0
M  V30 5098 C 479.337 0.903748 -1.44106 0
M  V30 5099 O 480.522 0.883206 -1.72954 0
M  V30 5100 C 477.652 1.19786 -3.25989 0
M  V30 5101 C 476.606 0.580875 -4.2404 0
M  V30 5102 C 475.932 1.71311 -5.06514 0
M  V30 5103 C 477.232 -0.468714 -5.20193 0
M  V30 5104 H 478.926 -0.544441 -2.94408 0
M  V30 5105 H 476.472 -0.263271 -1.41573 0
M  V30 5106 H 478.425 1.71884 -3.84752 0
M  V30 5107 H 477.149 1.94294 -2.62521 0
M  V30 5108 H 475.808 0.0811538 -3.6651 0
M  V30 5109 H 475.456 2.44736 -4.39447 0
M  V30 5110 H 475.156 1.30604 -5.72902 0
M  V30 5111 H 476.68 2.23725 -5.68137 0
M  V30 5112 H 478.094 -0.0336028 -5.7329 0
M  V30 5113 H 476.491 -0.794957 -5.94811 0
M  V30 5114 H 477.561 -1.36269 -4.65359 0
M  V30 5115 N 478.904 1.54736 -0.299062 0
M  V30 5116 C 479.834 2.26409 0.571085 0
M  V30 5117 C 480.815 1.2629 1.13951 0
M  V30 5118 O 482 1.55059 1.16921 0
M  V30 5119 C 479.13 3.00338 1.74396 0
M  V30 5120 C 478.084 4.07588 1.30599 0
M  V30 5121 C 477.41 4.69222 2.56387 0
M  V30 5122 C 478.71 5.20455 0.438645 0
M  V30 5123 H 480.404 2.99388 -0.0266991 0
M  V30 5124 H 477.95 1.43993 -0.0142812 0
M  V30 5125 H 479.903 3.49198 2.35878 0
M  V30 5126 H 478.627 2.24934 2.36796 0
M  V30 5127 H 477.286 3.59575 0.71424 0
M  V30 5128 H 476.934 3.9046 3.17097 0
M  V30 5129 H 476.634 5.41653 2.27784 0
M  V30 5130 H 478.158 5.20844 3.18675 0
M  V30 5131 H 479.572 5.65221 0.959085 0
M  V30 5132 H 477.969 5.99594 0.246466 0
M  V30 5133 H 479.039 4.8192 -0.536738 0
M  V30 5134 N 480.382 0.0267497 1.57577 0
M  V30 5135 C 481.345 -0.940916 2.08996 0
M  V30 5136 C 482.345 -1.25561 1.00455 0
M  V30 5137 O 483.535 -1.19634 1.26623 0
M  V30 5138 C 480.667 -2.25814 2.55384 0
M  V30 5139 H 481.86 -0.495628 2.95776 0
M  V30 5140 H 479.413 -0.221241 1.54726 0
M  V30 5141 H 480.148 -2.74976 1.71926 0
M  V30 5142 H 479.933 -2.04285 3.34679 0
M  V30 5143 H 481.423 -2.95178 2.95398 0
M  V30 5144 N 481.861 -1.55662 -0.24637 0
M  V30 5145 C 483.091 -1.81312 -0.990438 0
M  V30 5146 C 483.499 -0.600234 -1.79426 0
M  V30 5147 O 482.842 0.440537 -1.78339 0
M  V30 5148 C 482.904 -3.0032 -1.97607 0
M  V30 5149 C 482.568 -4.36322 -1.35912 0
M  V30 5150 C 483.565 -5.14295 -0.761348 0
M  V30 5151 C 481.25 -4.83019 -1.37833 0
M  V30 5152 C 483.244 -6.37114 -0.190998 0
M  V30 5153 C 480.931 -6.05786 -0.804128 0
M  V30 5154 C 481.929 -6.82672 -0.211489 0
M  V30 5155 O 481.617 -8.03121 0.353845 0
M  V30 5156 H 481.349 -0.607233 -0.297058 0
M  V30 5157 H 483.903 -2.0356 -0.274351 0
M  V30 5158 H 482.133 -2.73829 -2.73047 0
M  V30 5159 H 483.822 -3.13057 -2.58361 0
M  V30 5160 H 484.588 -4.79337 -0.739013 0
M  V30 5161 H 480.467 -4.23165 -1.829 0
M  V30 5162 H 484.011 -6.97069 0.272206 0
M  V30 5163 H 479.908 -6.40222 -0.823792 0
M  V30 5164 H 480.676 -8.18131 0.245761 0
M  V30 5165 N 483.339 0.512053 -1.4905 0
M  V30 5166 C 484.588 1.26343 -1.57227 0
M  V30 5167 C 484.901 1.93876 -0.259155 0
M  V30 5168 O 486.107 2.70612 -0.219358 0
M  V30 5169 C 484.563 2.29343 -2.77362 0
M  V30 5170 C 484.171 1.67799 -4.15388 0
M  V30 5171 C 485.915 3.05378 -2.94864 0
M  V30 5172 C 483.822 2.68845 -5.2676 0
M  V30 5173 H 482.752 0.475231 -0.585382 0
M  V30 5174 H 485.403 0.53862 -1.75417 0
M  V30 5175 H 483.785 3.04938 -2.52643 0
M  V30 5176 H 484.959 0.982715 -4.50199 0
M  V30 5177 H 483.274 1.04194 -4.03153 0
M  V30 5178 H 485.871 3.80921 -3.75238 0
M  V30 5179 H 486.214 3.62327 -2.05 0
M  V30 5180 H 486.747 2.36898 -3.19569 0
M  V30 5181 H 483.486 2.16692 -6.18647 0
M  V30 5182 H 483.006 3.36647 -4.96416 0
M  V30 5183 H 484.685 3.31487 -5.5563 0
M  V30 5184 N 484.817 1.37938 0.762283 0
M  V30 5185 C 485.767 1.30976 1.86626 0
M  V30 5186 C 486.751 0.195714 1.59705 0
M  V30 5187 O 487.943 0.430937 1.71674 0
M  V30 5188 C 485.072 1.12847 3.24223 0
M  V30 5189 C 484.158 2.28836 3.57064 0
M  V30 5190 N 484.549 3.54256 3.61022 0
M  V30 5191 C 482.847 2.21198 3.87282 0
M  V30 5192 C 483.548 4.30798 3.90881 0
M  V30 5193 N 482.524 3.60049 4.07266 0
M  V30 5194 H 486.326 2.25946 1.87951 0
M  V30 5195 H 483.84 1.31046 0.959206 0
M  V30 5196 H 485.837 1.05943 4.03214 0
M  V30 5197 H 484.497 0.188024 3.24155 0
M  V30 5198 H 485.508 3.8804 3.42995 0
M  V30 5199 H 482.185 1.35264 3.94981 0
M  V30 5200 H 483.575 5.39386 4.00639 0
M  V30 5201 N 486.295 -0.989507 1.22664 0
M  V30 5202 C 487.242 -2.08024 0.999733 0
M  V30 5203 C 488.212 -1.65909 -0.0797047 0
M  V30 5204 O 489.397 -1.90669 0.0705715 0
M  V30 5205 C 486.537 -3.40067 0.587234 0
M  V30 5206 C 485.65 -3.95505 1.73781 0
M  V30 5207 C 484.785 -5.15722 1.27297 0
M  V30 5208 C 483.824 -5.63305 2.39488 0
M  V30 5209 N 482.961 -6.74758 1.94026 0
M  V30 5210 H 487.801 -2.26768 1.9334 0
M  V30 5211 H 485.338 -1.11171 0.963297 0
M  V30 5212 H 487.296 -4.15899 0.329227 0
M  V30 5213 H 485.926 -3.21314 -0.309426 0
M  V30 5214 H 484.978 -3.16513 2.11006 0
M  V30 5215 H 486.29 -4.26797 2.58158 0
M  V30 5216 H 485.444 -5.98854 0.972546 0
M  V30 5217 H 484.183 -4.86061 0.399445 0
M  V30 5218 H 483.188 -4.78759 2.70315 0
M  V30 5219 H 484.413 -5.94988 3.27362 0
M  V30 5220 H 482.359 -6.46874 1.09041 0
M  V30 5221 H 482.276 -7.05386 2.71968 0
M  V30 5222 H 483.544 -7.61387 1.67062 0
M  V30 5223 N 487.773 -1.03688 -1.18687 0
M  V30 5224 C 488.705 -0.582696 -2.21669 0
M  V30 5225 C 489.718 0.345656 -1.59088 0
M  V30 5226 O 490.907 0.140776 -1.77944 0
M  V30 5227 C 488.007 0.169204 -3.38477 0
M  V30 5228 C 487.18 -0.766079 -4.30639 0
M  V30 5229 C 486.239 -0.0581541 -5.26168 0
M  V30 5230 O 485.265 -0.687346 -5.65035 0
M  V30 5231 N 486.467 1.20981 -5.67753 0
M  V30 5232 H 489.232 -1.46843 -2.61261 0
M  V30 5233 H 486.793 -0.916896 -1.33434 0
M  V30 5234 H 488.785 0.652543 -3.99405 0
M  V30 5235 H 487.355 0.956435 -2.97609 0
M  V30 5236 H 486.575 -1.42935 -3.67373 0
M  V30 5237 H 487.863 -1.40146 -4.89118 0
M  V30 5238 H 487.261 1.74159 -5.38224 0
M  V30 5239 H 485.818 1.6375 -6.30896 0
M  V30 5240 N 489.251 1.34841 -0.815825 0
M  V30 5241 C 490.479 2.0273 -0.413294 0
M  V30 5242 C 490.894 1.61459 0.978599 0
M  V30 5243 O 490.251 0.816584 1.63212 0
M  V30 5244 C 490.302 3.58058 -0.497676 0
M  V30 5245 O 490.023 3.97832 -1.8347 0
M  V30 5246 C 491.524 4.4321 -0.0891339 0
M  V30 5247 H 488.744 0.649956 -0.166728 0
M  V30 5248 H 491.288 1.72267 -1.10201 0
M  V30 5249 H 489.443 3.87136 0.142886 0
M  V30 5250 H 489.857 4.92501 -1.80396 0
M  V30 5251 H 491.331 5.5164 -0.199274 0
M  V30 5252 H 491.808 4.28432 0.966571 0
M  V30 5253 H 492.414 4.19446 -0.703214 0
M  V30 5254 N 490.729 0.570148 1.46925 0
M  V30 5255 C 491.639 -0.173061 2.33961 0
M  V30 5256 C 492.655 -0.898825 1.48987 0
M  V30 5257 O 493.831 -0.864825 1.81887 0
M  V30 5258 C 490.896 -1.18177 3.25937 0
M  V30 5259 C 489.957 -0.462041 4.26806 0
M  V30 5260 C 489.19 -1.4227 5.14388 0
M  V30 5261 O 489.413 -2.65842 5.04662 0
M  V30 5262 O 488.347 -0.940127 5.94513 0
M  V30 5263 H 492.173 0.541216 2.98839 0
M  V30 5264 H 489.758 0.330647 1.45695 0
M  V30 5265 H 491.64 -1.76372 3.82715 0
M  V30 5266 H 490.315 -1.87774 2.63671 0
M  V30 5267 H 489.222 0.161429 3.73752 0
M  V30 5268 H 490.555 0.192719 4.91823 0
M  V30 5269 N 492.207 -1.54576 0.307264 0
M  V30 5270 C 493.117 -2.27435 -0.57536 0
M  V30 5271 C 494.133 -1.31183 -1.14311 0
M  V30 5272 O 495.309 -1.64175 -1.16656 0
M  V30 5273 C 492.374 -3.00566 -1.72803 0
M  V30 5274 C 491.435 -4.12369 -1.19373 0
M  V30 5275 C 490.668 -4.82003 -2.29147 0
M  V30 5276 O 490.891 -4.51038 -3.49171 0
M  V30 5277 O 489.825 -5.69271 -1.95485 0
M  V30 5278 H 493.651 -3.03696 0.0158558 0
M  V30 5279 H 491.236 -1.49219 0.0735064 0
M  V30 5280 H 493.118 -3.46416 -2.39946 0
M  V30 5281 H 491.793 -2.27195 -2.30574 0
M  V30 5282 H 490.7 -3.70905 -0.487851 0
M  V30 5283 H 492.033 -4.87736 -0.661376 0
M  V30 5284 N 493.685 -0.035106 -1.57561 0
M  V30 5285 C 494.933 0.64096 -1.91667 0
M  V30 5286 C 495.254 1.72323 -0.912681 0
M  V30 5287 O 494.524 1.95849 0.0449089 0
M  V30 5288 H 493.104 0.239743 -0.707483 0
M  V30 5289 H 495.766 -0.084321 -1.94718 0
M  V30 5290 H 494.862 1.08987 -2.92452 0
M  V30 5291 N 495.163 1.55791 0.238111 0
M  V30 5292 C 496.411 1.77681 0.963001 0
M  V30 5293 C 496.732 0.600674 1.85518 0
M  V30 5294 O 496.002 -0.383182 1.92116 0
M  V30 5295 H 494.582 0.655315 0.358568 0
M  V30 5296 H 497.244 1.93239 0.253945 0
M  V30 5297 H 496.34 2.69177 1.57956 0
M  V30 5298 N 496.642 -0.504142 1.49319 0
M  V30 5299 C 497.59 -1.62689 1.66238 0
M  V30 5300 C 498.584 -1.6095 0.528349 0
M  V30 5301 O 499.79 -1.65496 0.707887 0
M  V30 5302 H 496.165 -0.539247 0.524134 0
M  V30 5303 H 498.136 -1.45571 2.60484 0
M  V30 5304 C 496.885 -3.00841 1.74328 0
M  V30 5305 H 496.208 -3.02884 2.60963 0
M  V30 5306 H 497.648 -3.78945 1.90202 0
M  V30 5307 C 496.107 -3.33355 0.487416 0
M  V30 5308 O 496.637 -3.99819 -0.388294 0
M  V30 5309 N 494.843 -2.88469 0.351306 0
M  V30 5310 H 494.39 -2.34557 1.06492 0
M  V30 5311 H 494.348 -3.10591 -0.487899 0
M  V30 5312 N 498.12 -1.38341 -0.754957 0
M  V30 5313 C 499.05 -1.38176 -1.88227 0
M  V30 5314 C 500.031 -0.247873 -1.68284 0
M  V30 5315 O 501.216 -0.45075 -1.88896 0
M  V30 5316 C 498.346 -1.20471 -3.25736 0
M  V30 5317 C 497.3 -2.3105 -3.60278 0
M  V30 5318 C 496.626 -1.98452 -4.96509 0
M  V30 5319 C 497.926 -3.73305 -3.65295 0
M  V30 5320 H 499.62 -2.32512 -1.88622 0
M  V30 5321 H 497.166 -1.1192 -0.906082 0
M  V30 5322 H 499.119 -1.18982 -4.04254 0
M  V30 5323 H 497.843 -0.225965 -3.25817 0
M  V30 5324 H 496.502 -2.31723 -2.84078 0
M  V30 5325 H 496.15 -0.990641 -4.93148 0
M  V30 5326 H 495.85 -2.7251 -5.20588 0
M  V30 5327 H 497.374 -1.98578 -5.77407 0
M  V30 5328 H 498.788 -3.7467 -4.3393 0
M  V30 5329 H 497.185 -4.46557 -4.00883 0
M  V30 5330 H 498.255 -4.05719 -2.65556 0
M  V30 5331 N 499.598 0.982988 -1.23187 0
M  V30 5332 C 501.009 1.53847 -1.05773 0
M  V30 5333 C 501.36 1.92568 0.375744 0
M  V30 5334 O 500.485 1.75783 1.26211 0
M  V30 5335 C 501.08 2.79567 -1.91384 0
M  V30 5336 C 499.639 3.31524 -1.78238 0
M  V30 5337 C 498.786 2.04534 -1.87246 0
M  V30 5338 H 501.737 0.802962 -1.36888 0
M  V30 5339 H 501.758 3.52317 -1.43711 0
M  V30 5340 H 501.27 2.51353 -2.95708 0
M  V30 5341 H 499.371 3.64623 -0.766875 0
M  V30 5342 H 499.484 4.01457 -2.61475 0
M  V30 5343 H 497.848 2.1855 -1.30797 0
M  V30 5344 H 498.631 1.78706 -2.9312 0
M  V30 5345 N 501.076 1.04316 1.18135 0
M  V30 5346 C 502.353 0.662166 1.84051 0
M  V30 5347 C 502.733 -0.858169 1.9287 0
M  V30 5348 O 502.081 -1.76062 1.45652 0
M  V30 5349 C 502.291 1.3409 3.22212 0
M  V30 5350 C 503.639 1.4733 3.9822 0
M  V30 5351 O 504.663 1.29921 3.31661 0
M  V30 5352 O 503.522 1.75722 5.17479 0
M  V30 5353 H 500.616 0.232005 0.79379 0
M  V30 5354 H 503.162 1.1422 1.25506 0
M  V30 5355 H 501.934 2.37853 3.10711 0
M  V30 5356 H 501.557 0.849649 3.88416 0
M  V30 5357 N 502.554 -1.34406 0.822964 0
M  V30 5358 C 503.517 -2.2783 0.250271 0
M  V30 5359 C 504.517 -1.50288 -0.571854 0
M  V30 5360 O 505.707 -1.69825 -0.387952 0
M  V30 5361 C 502.839 -3.34663 -0.649137 0
M  V30 5362 H 504.032 -2.79992 1.07444 0
M  V30 5363 H 501.585 -1.44539 0.594829 0
M  V30 5364 H 502.32 -2.87714 -1.49637 0
M  V30 5365 H 502.105 -3.92052 -0.0611199 0
M  V30 5366 H 503.595 -4.04349 -1.04363 0
M  V30 5367 N 504.032 -0.577932 -1.46621 0
M  V30 5368 C 504.995 0.147805 -2.28723 0
M  V30 5369 C 505.995 0.823325 -1.38123 0
M  V30 5370 O 507.185 0.676011 -1.60548 0
M  V30 5371 C 504.317 1.21853 -3.18378 0
M  V30 5372 H 505.51 -0.573654 -2.94362 0
M  V30 5373 H 503.063 -0.335703 -1.52652 0
M  V30 5374 H 503.798 1.97173 -2.57475 0
M  V30 5375 H 503.583 0.738714 -3.85078 0
M  V30 5376 H 505.073 1.72768 -3.80186 0
M  V30 5377 N 505.51 1.54411 -0.315457 0
M  V30 5378 C 506.42 2.27737 0.56329 0
M  V30 5379 C 507.436 1.31787 1.13614 0
M  V30 5380 O 508.612 1.64791 1.15784 0
M  V30 5381 C 505.677 3.01478 1.71207 0
M  V30 5382 C 504.738 4.12997 1.17185 0
M  V30 5383 C 503.971 4.83212 2.26588 0
M  V30 5384 O 504.194 4.52884 3.46775 0
M  V30 5385 O 503.128 5.70299 1.92463 0
M  V30 5386 H 506.954 3.03683 -0.0319614 0
M  V30 5387 H 504.539 1.49178 -0.0814188 0
M  V30 5388 H 506.421 3.47683 2.38106 0
M  V30 5389 H 505.096 2.28414 2.29366 0
M  V30 5390 H 504.003 3.71159 0.468174 0
M  V30 5391 H 505.336 4.8808 0.635501 0
M  V30 5392 N 506.988 0.0434614 1.5754 0
M  V30 5393 C 508.399 -0.493343 1.80064 0
M  V30 5394 C 508.75 -1.71388 0.955023 0
M  V30 5395 O 507.875 -2.15736 0.169434 0
M  V30 5396 C 508.47 -0.90179 3.26578 0
M  V30 5397 C 507.029 -1.38362 3.50047 0
M  V30 5398 C 506.176 -0.355129 2.75017 0
M  V30 5399 H 509.127 0.2694 1.56397 0
M  V30 5400 H 509.148 -1.76523 3.37075 0
M  V30 5401 H 508.66 -0.013271 3.88098 0
M  V30 5402 H 506.761 -2.29159 2.93798 0
M  V30 5403 H 506.874 -1.3811 4.58762 0
M  V30 5404 H 505.238 -0.826348 2.40922 0
M  V30 5405 H 506.021 0.525172 3.39259 0
M  V30 5406 N 508.466 -1.55915 -0.229846 0
M  V30 5407 C 509.743 -1.6932 -0.979295 0
M  V30 5408 C 510.123 -0.588321 -2.02736 0
M  V30 5409 O 509.471 0.40586 -2.24867 0
M  V30 5410 C 509.681 -3.10305 -1.59724 0
M  V30 5411 C 511.029 -3.6945 -2.09264 0
M  V30 5412 O 512.053 -3.13214 -1.69633 0
M  V30 5413 O 510.912 -4.68072 -2.82082 0
M  V30 5414 H 508.006 -0.689314 -0.456919 0
M  V30 5415 H 510.552 -1.68238 -0.222283 0
M  V30 5416 H 509.324 -3.82177 -0.840039 0
M  V30 5417 H 508.947 -3.1547 -2.42001 0
M  V30 5418 N 509.944 0.496216 -1.49584 0
M  V30 5419 C 511.193 1.24668 -1.58558 0
M  V30 5420 C 511.506 1.9359 -0.279703 0
M  V30 5421 O 512.712 2.70365 -0.248048 0
M  V30 5422 C 511.168 2.26388 -2.79779 0
M  V30 5423 C 510.776 1.63384 -4.17145 0
M  V30 5424 C 512.52 3.02233 -2.98086 0
M  V30 5425 C 510.427 2.63243 -5.29582 0
M  V30 5426 H 509.357 0.468995 -0.590389 0
M  V30 5427 H 512.008 0.519985 -1.75978 0
M  V30 5428 H 510.39 3.02241 -2.55863 0
M  V30 5429 H 511.564 0.93491 -4.51216 0
M  V30 5430 H 509.879 0.999121 -4.04236 0
M  V30 5431 H 512.476 3.76919 -3.79257 0
M  V30 5432 H 512.819 3.60132 -2.08831 0
M  V30 5433 H 513.352 2.33495 -3.22063 0
M  V30 5434 H 510.091 2.10119 -6.20911 0
M  V30 5435 H 509.611 3.31363 -4.99959 0
M  V30 5436 H 511.29 3.25575 -5.59115 0
M  V30 5437 N 511.423 1.38739 0.74761 0
M  V30 5438 C 512.672 1.3459 1.50228 0
M  V30 5439 C 512.985 -0.0595592 1.95509 0
M  V30 5440 O 514.191 -0.22361 2.70578 0
M  V30 5441 C 512.647 2.36377 2.71393 0
M  V30 5442 C 512.255 3.82573 2.33113 0
M  V30 5443 C 513.999 2.41281 3.49262 0
M  V30 5444 C 511.906 4.76032 3.50924 0
M  V30 5445 H 510.836 0.500312 0.564096 0
M  V30 5446 H 513.487 1.64324 0.8167 0
M  V30 5447 H 511.869 1.99694 3.41962 0
M  V30 5448 H 513.043 4.28227 1.70171 0
M  V30 5449 H 511.358 3.80844 1.68365 0
M  V30 5450 H 513.955 3.08301 4.36869 0
M  V30 5451 H 514.298 1.43353 3.9084 0
M  V30 5452 H 514.831 2.76793 2.85711 0
M  V30 5453 H 511.57 5.75177 3.14408 0
M  V30 5454 H 511.09 4.35066 4.12889 0
M  V30 5455 H 512.769 4.94331 4.17427 0
M  V30 5456 N 512.901 -0.976442 1.23707 0
M  V30 5457 C 514.126 -1.75875 1.09922 0
M  V30 5458 C 514.551 -1.84911 -0.34489 0
M  V30 5459 O 513.909 -1.31363 -1.24954 0
M  V30 5460 C 513.957 -3.16179 1.73388 0
M  V30 5461 O 513.061 -4.00124 0.99871 0
M  V30 5462 H 512.402 -0.540954 0.385052 0
M  V30 5463 H 514.932 -1.22546 1.6384 0
M  V30 5464 H 514.942 -3.66741 1.78788 0
M  V30 5465 H 513.617 -3.08917 2.78466 0
M  V30 5466 H 512.194 -3.58624 1.02193 0
M  V30 5467 N 514.379 -1.04941 -1.1758 0
M  V30 5468 C 515.607 -0.778294 -1.91703 0
M  V30 5469 C 516.022 0.665697 -1.76675 0
M  V30 5470 O 515.379 1.45456 -1.10222 0
M  V30 5471 C 515.43 -1.14628 -3.42845 0
M  V30 5472 O 515.151 -2.53359 -3.57409 0
M  V30 5473 C 516.652 -0.900931 -4.34049 0
M  V30 5474 H 513.872 -0.283167 -0.608323 0
M  V30 5475 H 516.416 -1.39942 -1.49119 0
M  V30 5476 H 514.571 -0.569953 -3.83184 0
M  V30 5477 H 514.985 -2.67709 -4.51035 0
M  V30 5478 H 516.459 -1.20817 -5.38616 0
M  V30 5479 H 516.936 0.163966 -4.38894 0
M  V30 5480 H 517.542 -1.46097 -3.99419 0
M  V30 5481 N 515.857 1.33968 -0.830081 0
M  V30 5482 C 517.106 1.97323 -0.417928 0
M  V30 5483 C 517.419 1.6652 1.02618 0
M  V30 5484 O 518.625 2.2342 1.54259 0
M  V30 5485 C 517.081 3.53099 -0.696359 0
M  V30 5486 C 516.689 3.92788 -2.15457 0
M  V30 5487 C 518.433 4.23049 -0.350724 0
M  V30 5488 C 516.34 5.41506 -2.37751 0
M  V30 5489 H 515.27 0.738409 -0.152541 0
M  V30 5490 H 517.921 1.52711 -1.01744 0
M  V30 5491 H 516.303 3.95991 -0.0265904 0
M  V30 5492 H 517.477 3.6098 -2.86408 0
M  V30 5493 H 515.792 3.35795 -2.46232 0
M  V30 5494 H 518.389 5.32403 -0.495036 0
M  V30 5495 H 518.732 4.10279 0.705476 0
M  V30 5496 H 519.265 3.85657 -0.975362 0
M  V30 5497 H 516.004 5.5927 -3.41903 0
M  V30 5498 H 515.524 5.74804 -1.7135 0
M  V30 5499 H 517.203 6.0828 -2.20465 0
M  V30 5500 N 517.335 0.585699 1.46312 0
M  V30 5501 C 518.282 -0.145835 2.30339 0
M  V30 5502 C 519.252 -0.881215 1.40797 0
M  V30 5503 O 520.437 -0.871293 1.69744 0
M  V30 5504 C 517.577 -1.15161 3.25318 0
M  V30 5505 C 516.69 -0.419367 4.2996 0
M  V30 5506 C 515.825 -1.41293 5.12064 0
M  V30 5507 C 514.864 -0.667261 6.08452 0
M  V30 5508 N 514.001 -1.60903 6.83414 0
M  V30 5509 H 518.841 0.576755 2.92365 0
M  V30 5510 H 516.378 0.296237 1.44086 0
M  V30 5511 H 518.336 -1.74763 3.78832 0
M  V30 5512 H 516.966 -1.84188 2.65094 0
M  V30 5513 H 516.018 0.291751 3.7928 0
M  V30 5514 H 517.33 0.163433 4.98532 0
M  V30 5515 H 516.484 -2.08167 5.6987 0
M  V30 5516 H 515.223 -2.02966 4.43459 0
M  V30 5517 H 514.228 0.0152356 5.49798 0
M  V30 5518 H 515.453 -0.0558817 6.79077 0
M  V30 5519 H 513.399 -2.21381 6.17516 0
M  V30 5520 H 513.316 -1.07911 7.48259 0
M  V30 5521 H 514.584 -2.26802 7.45775 0
M  V30 5522 N 518.813 -1.54241 0.323641 0
M  V30 5523 C 519.76 -2.24339 -0.542277 0
M  V30 5524 C 520.73 -1.23421 -1.11159 0
M  V30 5525 O 521.915 -1.52104 -1.15192 0
M  V30 5526 C 519.055 -3.00479 -1.69725 0
M  V30 5527 C 518.168 -4.16214 -1.15716 0
M  V30 5528 C 517.303 -4.79884 -2.27783 0
M  V30 5529 C 516.342 -5.87722 -1.71023 0
M  V30 5530 N 515.479 -6.45254 -2.76752 0
M  V30 5531 H 520.319 -2.97935 0.0620613 0
M  V30 5532 H 517.856 -1.47039 0.0423993 0
M  V30 5533 H 519.814 -3.42869 -2.3769 0
M  V30 5534 H 518.444 -2.29217 -2.27288 0
M  V30 5535 H 517.496 -3.78605 -0.369063 0
M  V30 5536 H 518.808 -4.93838 -0.701832 0
M  V30 5537 H 517.962 -5.25243 -3.03651 0
M  V30 5538 H 516.701 -4.01641 -2.76652 0
M  V30 5539 H 515.706 -5.41765 -0.936518 0
M  V30 5540 H 516.931 -6.67863 -1.2303 0
M  V30 5541 H 514.877 -5.69884 -3.24912 0
M  V30 5542 H 514.794 -7.18292 -2.35782 0
M  V30 5543 H 516.062 -6.95269 -3.5245 0
M  V30 5544 N 520.291 -0.0518155 -1.57515 0
M  V30 5545 C 521.519 0.631395 -1.9703 0
M  V30 5546 C 521.934 1.64341 -0.92938 0
M  V30 5547 O 521.291 1.82296 0.0863266 0
M  V30 5548 C 521.342 1.31774 -3.36627 0
M  V30 5549 O 521.063 0.346247 -4.3673 0
M  V30 5550 C 522.564 2.09065 -3.90905 0
M  V30 5551 H 519.784 0.172576 -0.648428 0
M  V30 5552 H 522.328 -0.118306 -2.04158 0
M  V30 5553 H 520.483 2.01867 -3.30649 0
M  V30 5554 H 520.897 0.836226 -5.17791 0
M  V30 5555 H 522.371 2.52508 -4.9086 0
M  V30 5556 H 522.848 2.93908 -3.26366 0
M  V30 5557 H 523.454 1.43882 -4.00223 0
M  V30 5558 N 521.769 1.56035 0.221574 0
M  V30 5559 C 523.016 1.79047 0.94597 0
M  V30 5560 C 523.344 0.62057 1.84334 0
M  V30 5561 O 522.599 -0.395053 1.91671 0
M  V30 5562 C 522.898 3.07813 1.8162 0
M  V30 5563 C 522.564 4.3797 1.07206 0
M  V30 5564 C 521.226 4.73334 0.866508 0
M  V30 5565 C 523.578 5.18326 0.546565 0
M  V30 5566 C 520.906 5.8657 0.123549 0
M  V30 5567 C 523.258 6.32335 -0.18305 0
M  V30 5568 C 521.922 6.66301 -0.399861 0
M  V30 5569 H 521.192 0.655178 0.346155 0
M  V30 5570 H 523.839 1.90299 0.214146 0
M  V30 5571 H 522.144 2.91682 2.61589 0
M  V30 5572 H 523.841 3.2282 2.37884 0
M  V30 5573 H 520.431 4.10202 1.24226 0
M  V30 5574 H 524.615 4.9144 0.692847 0
M  V30 5575 H 519.871 6.11376 -0.0546591 0
M  V30 5576 H 524.045 6.9383 -0.59775 0
M  V30 5577 H 521.672 7.53889 -0.977489 0
M  V30 5578 N 523.247 -0.488276 1.49845 0
M  V30 5579 C 524.195 -1.60917 1.67954 0
M  V30 5580 C 525.189 -1.6038 0.54539 0
M  V30 5581 O 526.395 -1.64736 0.7254 0
M  V30 5582 H 522.77 -0.533658 0.529824 0
M  V30 5583 H 524.741 -1.428 2.62013 0
M  V30 5584 C 523.49 -2.98975 1.77509 0
M  V30 5585 H 522.813 -3.00099 2.6416 0
M  V30 5586 H 524.253 -3.76906 1.9421 0
M  V30 5587 C 522.712 -3.3282 0.522745 0
M  V30 5588 O 523.242 -4.00208 -0.345866 0
M  V30 5589 N 521.448 -2.8808 0.381882 0
M  V30 5590 H 520.995 -2.33415 1.08974 0
M  V30 5591 H 520.953 -3.11091 -0.454929 0
M  V30 5592 N 524.725 -1.39134 -0.740242 0
M  V30 5593 C 525.972 -1.36071 -1.49969 0
M  V30 5594 C 526.3 0.0450245 -1.94448 0
M  V30 5595 O 525.555 1.02482 -1.66721 0
M  V30 5596 C 525.854 -2.27457 -2.75678 0
M  V30 5597 C 525.52 -3.75185 -2.50094 0
M  V30 5598 C 524.182 -4.15439 -2.42825 0
M  V30 5599 C 526.534 -4.68643 -2.28086 0
M  V30 5600 C 523.862 -5.4722 -2.11584 0
M  V30 5601 C 526.214 -6.00695 -1.98363 0
M  V30 5602 C 524.878 -6.40018 -1.8956 0
M  V30 5603 H 524.148 -0.497921 -0.548777 0
M  V30 5604 H 526.795 -1.71599 -0.85007 0
M  V30 5605 H 525.1 -1.8503 -3.45356 0
M  V30 5606 H 526.797 -2.22384 -3.33686 0
M  V30 5607 H 523.387 -3.43279 -2.56627 0
M  V30 5608 H 527.571 -4.3838 -2.32672 0
M  V30 5609 H 522.827 -5.76615 -2.03287 0
M  V30 5610 H 527.001 -6.72644 -1.80341 0
M  V30 5611 H 524.628 -7.42051 -1.65117 0
M  V30 5612 N 526.204 0.969867 -1.24223 0
M  V30 5613 C 527.452 1.70918 -1.0785 0
M  V30 5614 C 527.773 1.91186 0.383763 0
M  V30 5615 O 527.043 1.48806 1.27411 0
M  V30 5616 H 525.623 0.633334 -0.396103 0
M  V30 5617 H 528.285 1.16689 -1.56108 0
M  V30 5618 H 527.381 2.69455 -1.57482 0
M  V30 5619 N 527.682 1.05563 1.17022 0
M  V30 5620 C 528.614 0.617888 2.20714 0
M  V30 5621 C 529.627 -0.320303 1.59618 0
M  V30 5622 O 530.816 -0.112449 1.78145 0
M  V30 5623 C 527.916 -0.115333 3.38704 0
M  V30 5624 C 527.089 0.834493 4.29366 0
M  V30 5625 C 526.148 0.141855 5.26009 0
M  V30 5626 O 525.174 0.777151 5.6387 0
M  V30 5627 N 526.376 -1.11934 5.69606 0
M  V30 5628 H 529.141 1.50981 2.58892 0
M  V30 5629 H 526.702 0.938008 1.31958 0
M  V30 5630 H 528.694 -0.588918 4.00392 0
M  V30 5631 H 527.264 -0.908967 2.99093 0
M  V30 5632 H 526.484 1.48762 3.65053 0
M  V30 5633 H 527.772 1.4791 4.86827 0
M  V30 5634 H 527.17 -1.65574 5.40927 0
M  V30 5635 H 525.727 -1.53692 6.33421 0
M  V30 5636 N 529.16 -1.33526 0.837174 0
M  V30 5637 C 530.108 -2.31168 0.257698 0
M  V30 5638 C 531.102 -1.5806 -0.609388 0
M  V30 5639 O 532.308 -1.72941 -0.499139 0
M  V30 5640 H 528.683 -0.74922 0.0646058 0
M  V30 5641 H 530.654 -2.77552 1.09578 0
M  V30 5642 C 529.403 -3.4326 -0.553887 0
M  V30 5643 H 528.726 -3.99665 0.104008 0
M  V30 5644 H 530.166 -4.13782 -0.925219 0
M  V30 5645 C 528.625 -2.88965 -1.73207 0
M  V30 5646 O 529.155 -2.85013 -2.83073 0
M  V30 5647 N 527.361 -2.45596 -1.55342 0
M  V30 5648 H 526.908 -2.49009 -0.659705 0
M  V30 5649 H 526.866 -2.0962 -2.34322 0
M  V30 5650 N 530.638 -0.59345 -1.46 0
M  V30 5651 C 531.548 0.135817 -2.34207 0
M  V30 5652 C 532.564 0.875008 -1.50398 0
M  V30 5653 O 533.74 0.835778 -1.83239 0
M  V30 5654 C 530.805 1.12977 -3.27776 0
M  V30 5655 C 529.866 0.394081 -4.27487 0
M  V30 5656 C 529.099 1.34068 -5.16586 0
M  V30 5657 O 529.322 2.5778 -5.08828 0
M  V30 5658 O 528.256 0.845426 -5.95933 0
M  V30 5659 H 532.082 -0.588691 -2.9794 0
M  V30 5660 H 529.667 -0.353784 -1.45151 0
M  V30 5661 H 531.549 1.70261 -3.85473 0
M  V30 5662 H 530.224 1.83556 -2.66625 0
M  V30 5663 H 529.131 -0.220869 -3.73447 0
M  V30 5664 H 530.464 -0.270939 -4.91454 0
M  V30 5665 N 532.116 1.54067 -0.331816 0
M  V30 5666 C 533.079 2.23275 0.517768 0
M  V30 5667 C 534.079 1.22897 1.03697 0
M  V30 5668 O 535.269 1.47419 0.928084 0
M  V30 5669 C 532.401 2.94326 1.72004 0
M  V30 5670 H 533.594 2.99773 -0.0873507 0
M  V30 5671 H 531.147 1.56079 -0.0830042 0
M  V30 5672 H 531.882 2.21986 2.36417 0
M  V30 5673 H 531.667 3.67941 1.35507 0
M  V30 5674 H 533.157 3.47031 2.32291 0
M  V30 5675 N 533.594 0.0601682 1.57485 0
M  V30 5676 C 534.524 -0.90889 2.15085 0
M  V30 5677 C 535.505 -1.31838 1.07484 0
M  V30 5678 O 536.69 -1.3915 1.35466 0
M  V30 5679 C 533.82 -2.18059 2.7031 0
M  V30 5680 C 532.774 -1.91088 3.82974 0
M  V30 5681 C 532.1 -3.24789 4.24754 0
M  V30 5682 C 533.4 -1.22535 5.07723 0
M  V30 5683 H 535.094 -0.429093 2.96309 0
M  V30 5684 H 532.64 -0.204952 1.42534 0
M  V30 5685 H 534.593 -2.86258 3.09248 0
M  V30 5686 H 533.317 -2.6826 1.8629 0
M  V30 5687 H 531.976 -1.25297 3.44523 0
M  V30 5688 H 531.624 -3.72809 3.37672 0
M  V30 5689 H 531.324 -3.07538 5.00694 0
M  V30 5690 H 532.848 -3.94205 4.66299 0
M  V30 5691 H 534.262 -1.80783 5.4405 0
M  V30 5692 H 532.659 -1.1558 5.88864 0
M  V30 5693 H 533.729 -0.202692 4.84476 0
M  V30 5694 N 535.072 -1.5615 -0.213296 0
M  V30 5695 C 536.022 -1.89485 -1.26804 0
M  V30 5696 C 537.006 -0.758713 -1.41889 0
M  V30 5697 O 538.198 -1.02127 -1.44565 0
M  V30 5698 C 535.327 -2.22219 -2.61675 0
M  V30 5699 C 534.413 -3.42245 -2.50458 0
M  V30 5700 N 534.804 -4.60645 -2.089 0
M  V30 5701 C 533.102 -3.46023 -2.81397 0
M  V30 5702 C 533.803 -5.42805 -2.09135 0
M  V30 5703 N 532.779 -4.82732 -2.49941 0
M  V30 5704 H 536.581 -2.78537 -0.937771 0
M  V30 5705 H 534.095 -1.56826 -0.421824 0
M  V30 5706 H 536.092 -2.44278 -3.37837 0
M  V30 5707 H 534.752 -1.34484 -2.95541 0
M  V30 5708 H 535.763 -4.85651 -1.79899 0
M  V30 5709 H 532.44 -2.68654 -3.1958 0
M  V30 5710 H 533.83 -6.47601 -1.79059 0
M  V30 5711 N 536.55 0.480323 -1.50102 0
M  V30 5712 C 537.48 1.58769 -1.71215 0
M  V30 5713 C 538.461 1.60583 -0.560997 0
M  V30 5714 O 539.646 1.76996 -0.799127 0
M  V30 5715 C 536.776 2.97148 -1.79778 0
M  V30 5716 C 535.73 3.10201 -2.94888 0
M  V30 5717 C 535.056 4.50137 -2.88584 0
M  V30 5718 C 536.356 2.88283 -4.35534 0
M  V30 5719 H 538.05 1.41354 -2.6393 0
M  V30 5720 H 535.596 0.678591 -1.27008 0
M  V30 5721 H 537.549 3.74536 -1.93133 0
M  V30 5722 H 536.273 3.15699 -0.836772 0
M  V30 5723 H 534.932 2.35244 -2.81169 0
M  V30 5724 H 534.58 4.65593 -1.90349 0
M  V30 5725 H 534.28 4.59808 -3.65856 0
M  V30 5726 H 535.804 5.29558 -3.03976 0
M  V30 5727 H 537.218 3.55427 -4.49827 0
M  V30 5728 H 535.615 3.09408 -5.14186 0
M  V30 5729 H 536.685 1.84219 -4.48544 0
M  V30 5730 N 538.028 1.39524 0.732853 0
M  V30 5731 C 539.275 1.36865 1.49246 0
M  V30 5732 C 539.603 -0.0347118 1.94469 0
M  V30 5733 O 538.858 -1.01596 1.67262 0
M  V30 5734 C 539.157 2.28916 2.74468 0
M  V30 5735 C 538.823 3.76506 2.481 0
M  V30 5736 C 537.485 4.16721 2.40619 0
M  V30 5737 C 539.837 4.69846 2.25598 0
M  V30 5738 C 537.165 5.48334 2.08679 0
M  V30 5739 C 539.517 6.01739 1.95174 0
M  V30 5740 C 538.181 6.41015 1.86163 0
M  V30 5741 H 537.451 0.500824 0.546129 0
M  V30 5742 H 540.098 1.72047 0.840958 0
M  V30 5743 H 538.403 1.86859 3.4437 0
M  V30 5744 H 540.1 2.2415 3.32502 0
M  V30 5745 H 536.69 3.44635 2.54803 0
M  V30 5746 H 540.874 4.39608 2.30344 0
M  V30 5747 H 536.13 5.77685 2.00226 0
M  V30 5748 H 540.304 6.73591 1.76771 0
M  V30 5749 H 537.931 7.42917 1.61179 0
M  V30 5750 N 539.506 -0.963266 1.24736 0
M  V30 5751 C 540.438 -2.06162 1.0015 0
M  V30 5752 C 541.451 -1.62771 -0.0305905 0
M  V30 5753 O 542.64 -1.77296 0.206966 0
M  V30 5754 C 539.74 -3.35333 0.490385 0
M  V30 5755 C 538.913 -4.07609 1.58663 0
M  V30 5756 C 537.972 -5.15052 1.0774 0
M  V30 5757 O 536.998 -5.4098 1.77002 0
M  V30 5758 N 538.2 -5.80436 -0.0858605 0
M  V30 5759 H 540.965 -2.27825 1.94719 0
M  V30 5760 H 538.526 -1.13121 1.15825 0
M  V30 5761 H 540.518 -4.04477 0.134371 0
M  V30 5762 H 539.088 -3.10507 -0.361155 0
M  V30 5763 H 538.308 -3.32681 2.11463 0
M  V30 5764 H 539.596 -4.52656 2.32336 0
M  V30 5765 H 538.994 -5.6178 -0.664806 0
M  V30 5766 H 537.551 -6.50674 -0.382981 0
M  V30 5767 N 540.985 -1.06182 -1.16461 0
M  V30 5768 C 542.213 -0.798583 -1.90867 0
M  V30 5769 C 542.628 0.646921 -1.77371 0
M  V30 5770 O 541.985 1.44279 -1.11758 0
M  V30 5771 C 542.036 -1.18258 -3.4161 0
M  V30 5772 O 541.757 -2.57135 -3.54701 0
M  V30 5773 C 543.258 -0.946917 -4.33069 0
M  V30 5774 H 540.478 -0.289603 -0.605286 0
M  V30 5775 H 543.022 -1.41515 -1.47627 0
M  V30 5776 H 541.177 -0.610562 -3.82558 0
M  V30 5777 H 541.591 -2.72477 -4.4817 0
M  V30 5778 H 543.065 -1.26523 -5.37304 0
M  V30 5779 H 543.542 0.117406 -4.39043 0
M  V30 5780 H 544.148 -1.50326 -3.97847 0
M  V30 5781 N 542.463 1.3308 -0.844243 0
M  V30 5782 C 543.393 2.3161 -0.296493 0
M  V30 5783 C 544.374 1.59215 0.598707 0
M  V30 5784 O 545.559 1.87077 0.521134 0
M  V30 5785 C 542.689 3.43313 0.524762 0
M  V30 5786 C 541.643 4.27115 -0.275106 0
M  V30 5787 C 540.969 5.30483 0.670236 0
M  V30 5788 C 542.269 5.00443 -1.49514 0
M  V30 5789 H 543.963 2.77672 -1.11976 0
M  V30 5790 H 541.509 1.33496 -0.539899 0
M  V30 5791 H 543.462 4.11273 0.918298 0
M  V30 5792 H 542.186 2.95952 1.3813 0
M  V30 5793 H 540.845 3.60787 -0.650267 0
M  V30 5794 H 540.493 4.79379 1.52332 0
M  V30 5795 H 540.193 5.87435 0.139123 0
M  V30 5796 H 541.717 6.01308 1.06117 0
M  V30 5797 H 543.131 5.61141 -1.17447 0
M  V30 5798 H 541.528 5.67071 -1.96343 0
M  V30 5799 H 542.598 4.28906 -2.26202 0
M  V30 5800 N 543.941 0.601185 1.45683 0
M  V30 5801 C 544.874 -0.17013 2.27565 0
M  V30 5802 C 545.852 -0.879661 1.36751 0
M  V30 5803 O 547.036 -0.889827 1.66176 0
M  V30 5804 C 544.163 -1.24568 3.14961 0
M  V30 5805 C 543.209 -0.639978 4.21671 0
M  V30 5806 S 544.042 0.547275 5.32696 0
M  V30 5807 C 545.198 -0.529019 6.2366 0
M  V30 5808 H 545.431 0.524583 2.92635 0
M  V30 5809 H 542.964 0.388537 1.49431 0
M  V30 5810 H 544.922 -1.86138 3.65873 0
M  V30 5811 H 543.583 -1.91243 2.49169 0
M  V30 5812 H 542.776 -1.44903 4.8272 0
M  V30 5813 H 542.378 -0.0995558 3.73867 0
M  V30 5814 H 544.67 -1.40981 6.62669 0
M  V30 5815 H 545.613 0.0451599 7.08086 0
M  V30 5816 H 546.021 -0.84147 5.58193 0
M  V30 5817 N 545.419 -1.53889 0.339982 0
M  V30 5818 C 546.329 -2.28604 -0.526988 0
M  V30 5819 C 547.345 -1.33578 -1.11503 0
M  V30 5820 O 548.521 -1.66612 -1.13148 0
M  V30 5821 C 545.586 -3.04164 -1.66389 0
M  V30 5822 C 544.647 -4.14809 -1.10599 0
M  V30 5823 C 543.88 -4.86756 -2.18871 0
M  V30 5824 O 544.103 -4.58343 -3.39526 0
M  V30 5825 O 543.037 -5.73289 -1.83366 0
M  V30 5826 H 546.863 -3.03594 0.0802707 0
M  V30 5827 H 544.448 -1.4903 0.105141 0
M  V30 5828 H 546.33 -3.51427 -2.32544 0
M  V30 5829 H 545.005 -2.32035 -2.25703 0
M  V30 5830 H 543.912 -3.71857 -0.409067 0
M  V30 5831 H 545.245 -4.89029 -0.557771 0
M  V30 5832 N 546.897 -0.0685191 -1.57451 0
M  V30 5833 C 548.137 0.605038 -1.9524 0
M  V30 5834 C 548.501 1.66974 -0.947816 0
M  V30 5835 O 549.702 2.39862 -1.21325 0
M  V30 5836 C 547.973 1.16999 -3.37707 0
M  V30 5837 S 549.532 1.85913 -3.97469 0
M  V30 5838 H 546.35 0.198203 -0.682815 0
M  V30 5839 H 548.952 -0.141594 -1.94987 0
M  V30 5840 H 547.656 0.383205 -4.08607 0
M  V30 5841 H 547.187 1.95305 -3.41496 0
M  V30 5842 H 549.202 3.14128 -3.84107 0
M  V30 5843 N 548.375 1.56261 0.205012 0
M  V30 5844 C 549.308 1.88797 1.28183 0
M  V30 5845 C 550.286 0.747018 1.44424 0
M  V30 5846 O 551.47 0.997039 1.59973 0
M  V30 5847 C 548.597 2.10949 2.64987 0
M  V30 5848 C 547.643 3.33649 2.6567 0
M  V30 5849 S 548.476 4.89078 2.18088 0
M  V30 5850 C 549.632 5.14286 3.56736 0
M  V30 5851 H 549.865 2.79837 1.00393 0
M  V30 5852 H 547.398 1.48911 0.408042 0
M  V30 5853 H 549.356 2.24395 3.4374 0
M  V30 5854 H 548.017 1.20678 2.89993 0
M  V30 5855 H 547.21 3.46245 3.66239 0
M  V30 5856 H 546.812 3.19146 1.94992 0
M  V30 5857 H 549.104 5.04198 4.52537 0
M  V30 5858 H 550.047 6.16096 3.49043 0
M  V30 5859 H 550.455 4.41957 3.51189 0
M  V30 5860 N 549.853 -0.472356 1.50355 0
M  V30 5861 C 550.8 -1.57051 1.69126 0
M  V30 5862 C 551.77 -1.5733 0.532574 0
M  V30 5863 O 552.955 -1.7488 0.762994 0
M  V30 5864 C 550.095 -2.95033 1.79024 0
M  V30 5865 C 549.208 -3.04552 3.06386 0
M  V30 5866 C 548.343 -4.33441 3.07087 0
M  V30 5867 C 547.382 -4.36697 4.28908 0
M  V30 5868 N 546.519 -5.57056 4.27356 0
M  V30 5869 H 551.359 -1.40351 2.62879 0
M  V30 5870 H 548.896 -0.682403 1.30314 0
M  V30 5871 H 550.854 -3.75048 1.82744 0
M  V30 5872 H 549.484 -3.10371 0.887109 0
M  V30 5873 H 548.536 -2.17419 3.12143 0
M  V30 5874 H 549.848 -3.02818 3.96362 0
M  V30 5875 H 549.002 -5.21801 3.09529 0
M  V30 5876 H 547.741 -4.37782 2.14939 0
M  V30 5877 H 546.746 -3.46734 4.2668 0
M  V30 5878 H 547.971 -4.34049 5.22282 0
M  V30 5879 H 545.917 -5.62184 3.3806 0
M  V30 5880 H 545.834 -5.57058 5.111 0
M  V30 5881 H 547.102 -6.47545 4.33942 0
M  V30 5882 N 551.331 -1.39911 -0.725443 0
M  V30 5883 C 552.747 -1.21725 -1.03224 0
M  V30 5884 C 552.947 -0.0855224 -2.01318 0
M  V30 5885 O 552.003 0.55976 -2.46217 0
M  V30 5886 C 553.316 -2.55511 -1.58539 0
M  V30 5887 C 554.864 -2.62439 -1.70572 0
M  V30 5888 C 555.339 -3.9647 -2.29294 0
M  V30 5889 N 556.83 -3.98159 -2.36692 0
M  V30 5890 C 557.565 -4.98647 -2.83088 0
M  V30 5891 N 557.061 -6.0953 -3.2931 0
M  V30 5892 N 558.854 -4.8602 -2.82384 0
M  V30 5893 H 551.005 -2.12267 -0.075048 0
M  V30 5894 H 553.268 -0.943136 -0.0959066 0
M  V30 5895 H 552.974 -3.38926 -0.939249 0
M  V30 5896 H 552.848 -2.75905 -2.57208 0
M  V30 5897 H 555.235 -1.79401 -2.34306 0
M  V30 5898 H 555.316 -2.45885 -0.705297 0
M  V30 5899 H 554.96 -4.79942 -1.66186 0
M  V30 5900 H 554.89 -4.10349 -3.30032 0
M  V30 5901 H 557.381 -3.18085 -2.04035 0
M  V30 5902 H 557.694 -6.82106 -3.6325 0
M  V30 5903 H 556.039 -6.1311 -3.27294 0
M  V30 5904 H 559.23 -3.98493 -2.45603 0
M  V30 5905 H 559.403 -5.64478 -3.18226 0
M  V30 5906 N 552.809 0.956637 -1.25245 0
M  V30 5907 C 553.756 2.053 -1.05454 0
M  V30 5908 C 554.726 1.66062 0.0356889 0
M  V30 5909 O 555.911 1.90415 -0.121099 0
M  V30 5910 C 553.051 3.38391 -0.677191 0
M  V30 5911 C 552.164 3.90758 -1.84206 0
M  V30 5912 C 551.299 5.12165 -1.40926 0
M  V30 5913 C 550.338 5.56757 -2.54338 0
M  V30 5914 N 549.475 6.69376 -2.11848 0
M  V30 5915 H 554.315 2.21562 -1.99284 0
M  V30 5916 H 551.852 1.08578 -0.992434 0
M  V30 5917 H 553.81 4.1488 -0.43938 0
M  V30 5918 H 552.44 3.22021 0.224127 0
M  V30 5919 H 551.492 3.10808 -2.19323 0
M  V30 5920 H 552.804 4.19802 -2.69383 0
M  V30 5921 H 551.958 5.96065 -1.13098 0
M  V30 5922 H 550.697 4.84832 -0.528175 0
M  V30 5923 H 549.702 4.71423 -2.82913 0
M  V30 5924 H 550.927 5.861 -3.43022 0
M  V30 5925 H 548.873 6.43756 -1.26153 0
M  V30 5926 H 548.79 6.97927 -2.90574 0
M  V30 5927 H 550.058 7.5669 -1.87191 0
M  V30 5928 N 554.287 1.06798 1.15896 0
M  V30 5929 C 555.197 0.694564 2.24083 0
M  V30 5930 C 556.213 -0.291687 1.71538 0
M  V30 5931 O 557.389 -0.139723 2.00915 0
M  V30 5932 C 554.454 0.0921014 3.46578 0
M  V30 5933 C 553.515 1.13087 4.14137 0
M  V30 5934 C 552.748 0.557064 5.30785 0
M  V30 5935 O 552.971 -0.628623 5.66925 0
M  V30 5936 O 551.905 1.29924 5.8771 0
M  V30 5937 H 555.731 1.59663 2.58344 0
M  V30 5938 H 553.316 0.840575 1.2351 0
M  V30 5939 H 555.198 -0.241884 4.20705 0
M  V30 5940 H 553.873 -0.78337 3.14078 0
M  V30 5941 H 552.78 1.51712 3.41957 0
M  V30 5942 H 554.113 1.97805 4.50704 0
M  V30 5943 N 555.766 -1.3263 0.851289 0
M  V30 5944 C 556.696 -2.31449 0.308771 0
M  V30 5945 C 557.677 -1.59531 -0.590255 0
M  V30 5946 O 558.862 -1.87351 -0.511205 0
M  V30 5947 C 555.992 -3.43586 -0.506548 0
M  V30 5948 C 554.946 -4.26963 0.297753 0
M  V30 5949 C 554.272 -5.30831 -0.642094 0
M  V30 5950 C 555.572 -4.99643 1.52166 0
M  V30 5951 H 557.266 -2.77074 1.13447 0
M  V30 5952 H 554.812 -1.33207 0.546971 0
M  V30 5953 H 556.765 -4.11754 -0.896474 0
M  V30 5954 H 555.489 -2.96681 -1.36558 0
M  V30 5955 H 554.148 -3.60437 0.669391 0
M  V30 5956 H 553.796 -4.8018 -1.49788 0
M  V30 5957 H 553.496 -5.87501 -0.107968 0
M  V30 5958 H 555.02 -6.01862 -1.02927 0
M  V30 5959 H 556.434 -5.6051 1.20421 0
M  V30 5960 H 554.831 -5.66022 1.99347 0
M  V30 5961 H 555.901 -4.27701 2.28474 0
M  V30 5962 N 557.244 -0.608902 -1.45362 0
M  V30 5963 C 558.493 -0.10218 -2.01441 0
M  V30 5964 C 558.806 1.27546 -1.48295 0
M  V30 5965 O 560.012 1.87498 -1.96359 0
M  V30 5966 C 558.468 -0.131985 -3.59658 0
M  V30 5967 C 558.076 -1.50956 -4.21801 0
M  V30 5968 C 559.82 0.319427 -4.23296 0
M  V30 5969 C 557.727 -1.49568 -5.72174 0
M  V30 5970 H 556.657 -0.0344314 -0.753213 0
M  V30 5971 H 559.308 -0.764426 -1.6682 0
M  V30 5972 H 557.69 0.596939 -3.91475 0
M  V30 5973 H 558.864 -2.26029 -4.01556 0
M  V30 5974 H 557.179 -1.90318 -3.70362 0
M  V30 5975 H 559.776 0.349013 -5.3356 0
M  V30 5976 H 560.119 1.34237 -3.94064 0
M  V30 5977 H 560.652 -0.356273 -3.96201 0
M  V30 5978 H 557.391 -2.49626 -6.06108 0
M  V30 5979 H 556.911 -0.787542 -5.94607 0
M  V30 5980 H 558.59 -1.21989 -6.35396 0
M  V30 5981 N 558.722 1.53707 -0.348139 0
M  V30 5982 C 559.95 2.05406 0.248224 0
M  V30 5983 C 560.365 1.22282 1.43849 0
M  V30 5984 O 559.722 0.259244 1.80649 0
M  V30 5985 C 559.773 3.55446 0.658793 0
M  V30 5986 O 559.494 4.35417 -0.484149 0
M  V30 5987 C 560.995 4.23335 1.31539 0
M  V30 5988 H 558.215 0.669344 0.0471075 0
M  V30 5989 H 560.759 1.98257 -0.501456 0
M  V30 5990 H 558.914 3.62803 1.35841 0
M  V30 5991 H 559.328 5.24268 -0.155949 0
M  V30 5992 H 560.802 5.29692 1.55338 0
M  V30 5993 H 561.279 3.75967 2.27036 0
M  V30 5994 H 561.885 4.20184 0.657683 0
M  V30 5995 N 560.2 0.0768682 1.57412 0
M  V30 5996 C 561.446 -0.591961 1.93968 0
M  V30 5997 C 561.779 -1.68954 0.9575 0
M  V30 5998 O 561.054 -1.94496 -0.0124675 0
M  V30 5999 C 561.337 -1.16418 3.40762 0
M  V30 6000 C 561.19 -0.0728933 4.49741 0
M  V30 6001 C 562.509 -2.06814 3.88479 0
M  V30 6002 H 559.628 -0.213716 0.705333 0
M  V30 6003 H 562.27 0.14387 1.89455 0
M  V30 6004 H 560.42 -1.79128 3.4474 0
M  V30 6005 H 562.092 0.560446 4.57883 0
M  V30 6006 H 560.335 0.595859 4.29688 0
M  V30 6007 H 561.006 -0.513755 5.49604 0
M  V30 6008 H 563.482 -1.54033 3.8654 0
M  V30 6009 H 562.358 -2.43785 4.91793 0
M  V30 6010 H 562.619 -2.97844 3.26713 0
M  V30 6011 N 561.678 -1.56367 -0.196722 0
M  V30 6012 C 562.925 -1.80529 -0.917366 0
M  V30 6013 C 563.253 -0.649817 -1.83324 0
M  V30 6014 O 562.508 0.36451 -1.92275 0
M  V30 6015 C 562.807 -3.10663 -1.767 0
M  V30 6016 C 562.473 -4.3962 -1.00225 0
M  V30 6017 C 561.135 -4.74653 -0.791095 0
M  V30 6018 C 563.487 -5.1913 -0.464035 0
M  V30 6019 C 560.815 -5.86692 -0.0302155 0
M  V30 6020 C 563.167 -6.31964 0.283625 0
M  V30 6021 C 561.831 -6.65581 0.505813 0
M  V30 6022 H 561.101 -0.660602 -0.335688 0
M  V30 6023 H 563.748 -1.90615 -0.183844 0
M  V30 6024 H 562.053 -2.95807 -2.56915 0
M  V30 6025 H 563.75 -3.26563 -2.32718 0
M  V30 6026 H 560.34 -4.12127 -1.17684 0
M  V30 6027 H 564.524 -4.9248 -0.614575 0
M  V30 6028 H 559.78 -6.11211 0.151917 0
M  V30 6029 H 563.954 -6.92791 0.708057 0
M  V30 6030 H 561.581 -7.52239 1.0973 0
M  V30 6031 N 563.156 0.464375 -1.50603 0
M  V30 6032 C 564.106 1.55929 -1.66343 0
M  V30 6033 C 565.09 1.52338 -0.517887 0
M  V30 6034 O 566.282 1.59248 -0.772601 0
M  V30 6035 C 563.411 2.94327 -1.7671 0
M  V30 6036 C 562.497 3.02777 -2.96962 0
M  V30 6037 N 562.888 2.81026 -4.20545 0
M  V30 6038 C 561.186 3.33919 -2.95659 0
M  V30 6039 C 561.887 2.94618 -5.01573 0
M  V30 6040 N 560.863 3.25112 -4.35664 0
M  V30 6041 H 564.665 1.37822 -2.59581 0
M  V30 6042 H 562.179 0.671227 -1.47879 0
M  V30 6043 H 564.176 3.73063 -1.86091 0
M  V30 6044 H 562.836 3.13476 -0.846353 0
M  V30 6045 H 563.847 2.56477 -4.49933 0
M  V30 6046 H 560.524 3.59013 -2.13111 0
M  V30 6047 H 561.914 2.81984 -6.09865 0
M  V30 6048 N 564.634 1.40294 0.718013 0
M  V30 6049 C 565.883 1.37746 1.4734 0
M  V30 6050 C 566.196 -0.0180754 1.95592 0
M  V30 6051 O 567.402 -0.166166 2.70991 0
M  V30 6052 C 565.858 2.4208 2.66318 0
M  V30 6053 C 565.466 3.87432 2.24945 0
M  V30 6054 C 567.21 2.48635 3.44065 0
M  V30 6055 C 565.117 4.83368 3.40748 0
M  V30 6056 H 564.047 0.512165 0.553356 0
M  V30 6057 H 566.698 1.66019 0.781661 0
M  V30 6058 H 565.08 2.06903 3.3765 0
M  V30 6059 H 566.254 4.3174 1.6105 0
M  V30 6060 H 564.569 3.8433 1.60249 0
M  V30 6061 H 567.166 3.17499 4.30231 0
M  V30 6062 H 567.509 1.51611 3.87711 0
M  V30 6063 H 568.042 2.82791 2.79775 0
M  V30 6064 H 564.781 5.81716 3.02136 0
M  V30 6065 H 564.301 4.43726 4.03568 0
M  V30 6066 H 565.98 5.03074 4.06848 0
M  V30 6067 N 566.112 -0.949982 1.2575 0
M  V30 6068 C 567.36 -1.6918 1.10555 0
M  V30 6069 C 567.681 -1.91773 -0.353298 0
M  V30 6070 O 566.951 -1.50814 -1.25027 0
M  V30 6071 H 565.531 -0.626952 0.406129 0
M  V30 6072 H 568.193 -1.1419 1.57945 0
M  V30 6073 H 567.289 -2.66915 1.61749 0
M  V30 6074 N 567.59 -1.07411 -1.15328 0
M  V30 6075 C 568.815 -0.818856 -1.90551 0
M  V30 6076 C 569.24 0.622194 -1.77512 0
M  V30 6077 O 568.598 1.43484 -1.10824 0
M  V30 6078 C 568.646 -1.23267 -3.38877 0
M  V30 6079 O 567.75 -0.378345 -4.10661 0
M  V30 6080 H 567.091 -0.29827 -0.593238 0
M  V30 6081 H 569.621 -1.43289 -1.46046 0
M  V30 6082 H 569.631 -1.20912 -3.89672 0
M  V30 6083 H 568.306 -2.28226 -3.47686 0
M  V30 6084 H 566.883 -0.464437 -3.69996 0
M  V30 6085 N 569.068 1.32177 -0.85831 0
M  V30 6086 C 570.345 1.91781 -0.384624 0
M  V30 6087 C 570.725 1.78171 1.13217 0
M  V30 6088 O 570.073 1.18209 1.95548 0
M  V30 6089 C 570.283 3.38414 -0.853047 0
M  V30 6090 C 571.631 4.15542 -0.872359 0
M  V30 6091 O 572.655 3.47148 -0.797926 0
M  V30 6092 O 571.514 5.37678 -0.978009 0
M  V30 6093 H 568.608 0.819259 -0.112886 0
M  V30 6094 H 571.154 1.40923 -0.945453 0
M  V30 6095 H 569.926 3.4228 -1.89632 0
M  V30 6096 H 569.549 3.96683 -0.269874 0
M  V30 6097 N 570.547 0.616602 1.45037 0
M  V30 6098 C 571.457 -0.0985401 2.34393 0
M  V30 6099 C 572.473 -0.850971 1.51771 0
M  V30 6100 O 573.649 -0.806521 1.84546 0
M  V30 6101 C 570.714 -1.07748 3.29532 0
M  V30 6102 C 569.775 -0.326022 4.2806 0
M  V30 6103 C 569.008 -1.25833 5.18654 0
M  V30 6104 O 569.231 -2.49652 5.12864 0
M  V30 6105 O 568.165 -0.750512 5.97203 0
M  V30 6106 H 571.991 0.636016 2.96966 0
M  V30 6107 H 569.576 0.376832 1.44569 0
M  V30 6108 H 571.458 -1.64107 3.88133 0
M  V30 6109 H 570.133 -1.79291 2.69512 0
M  V30 6110 H 569.04 0.280253 3.73049 0
M  V30 6111 H 570.373 0.349091 4.9096 0
M  V30 6112 N 572.025 -1.5352 0.356285 0
M  V30 6113 C 572.975 -2.22204 -0.510815 0
M  V30 6114 C 573.959 -1.21393 -1.05605 0
M  V30 6115 O 575.151 -1.46883 -0.987639 0
M  V30 6116 C 572.28 -3.00786 -1.65478 0
M  V30 6117 C 571.366 -4.08965 -1.12287 0
M  V30 6118 N 571.757 -5.04829 -0.313191 0
M  V30 6119 C 570.055 -4.23505 -1.39856 0
M  V30 6120 C 570.756 -5.81695 -0.0230322 0
M  V30 6121 N 569.732 -5.40074 -0.618144 0
M  V30 6122 H 573.534 -2.93676 0.114711 0
M  V30 6123 H 571.048 -1.61572 0.163811 0
M  V30 6124 H 573.045 -3.48502 -2.28806 0
M  V30 6125 H 571.705 -2.30843 -2.28345 0
M  V30 6126 H 572.716 -5.17879 0.0468202 0
M  V30 6127 H 569.393 -3.64786 -2.0307 0
M  V30 6128 H 570.783 -6.68931 0.630927 0
M  V30 6129 N 573.503 -0.0852151 -1.57369 0
M  V30 6130 C 574.435 0.907099 -2.10486 0
M  V30 6131 C 575.448 1.25259 -1.03991 0
M  V30 6132 O 576.637 1.20743 -1.31467 0
M  V30 6133 C 573.737 2.21908 -2.56145 0
M  V30 6134 C 572.91 2.05042 -3.86363 0
M  V30 6135 C 571.969 3.19664 -4.17973 0
M  V30 6136 O 570.995 2.94062 -4.87356 0
M  V30 6137 N 572.197 4.45151 -3.72587 0
M  V30 6138 H 574.962 0.453505 -2.96249 0
M  V30 6139 H 572.523 0.100157 -1.6159 0
M  V30 6140 H 574.515 2.97519 -2.74343 0
M  V30 6141 H 573.085 2.58723 -1.75446 0
M  V30 6142 H 572.305 1.13819 -3.77411 0
M  V30 6143 H 573.593 1.91039 -4.71574 0
M  V30 6144 H 572.991 4.68834 -3.16561 0
M  V30 6145 H 571.548 5.17744 -3.9596 0
M  V30 6146 N 574.981 1.5647 0.188427 0
M  V30 6147 C 576.258 1.71857 0.934058 0
M  V30 6148 C 576.638 0.641867 2.01105 0
M  V30 6149 O 575.986 -0.346098 2.25864 0
M  V30 6150 C 576.196 3.14431 1.5144 0
M  V30 6151 C 577.544 3.74869 1.99396 0
M  V30 6152 O 578.568 3.17601 1.61269 0
M  V30 6153 O 577.427 4.75387 2.69573 0
M  V30 6154 H 574.521 0.701186 0.438483 0
M  V30 6155 H 577.067 1.68768 0.177599 0
M  V30 6156 H 575.839 3.8427 0.738416 0
M  V30 6157 H 575.462 3.21775 2.33552 0
M  V30 6158 N 576.459 -0.456382 1.50847 0
M  V30 6159 C 577.708 -1.2042 1.61808 0
M  V30 6160 C 578.021 -1.9278 0.330932 0
M  V30 6161 O 579.227 -2.69612 0.319643 0
M  V30 6162 C 577.683 -2.18891 2.85683 0
M  V30 6163 C 577.291 -1.52267 4.2133 0
M  V30 6164 C 579.035 -2.94224 3.05994 0
M  V30 6165 C 576.942 -2.4911 5.36375 0
M  V30 6166 H 575.872 -0.453177 0.602616 0
M  V30 6167 H 578.523 -0.473144 1.77295 0
M  V30 6168 H 576.905 -2.95351 2.63787 0
M  V30 6169 H 578.079 -0.814949 4.53536 0
M  V30 6170 H 576.394 -0.891594 4.06743 0
M  V30 6171 H 578.991 -3.66732 3.89117 0
M  V30 6172 H 579.334 -3.54469 2.18306 0
M  V30 6173 H 579.867 -2.24874 3.28141 0
M  V30 6174 H 576.606 -1.93582 6.26264 0
M  V30 6175 H 576.126 -3.17991 5.08569 0
M  V30 6176 H 577.805 -3.10637 5.67551 0
M  V30 6177 N 577.937 -1.40673 -0.710563 0
M  V30 6178 C 579.214 -1.29718 -1.46398 0
M  V30 6179 C 579.594 0.082177 -2.1094 0
M  V30 6180 O 578.942 1.09536 -2.00534 0
M  V30 6181 C 579.152 -2.43967 -2.49562 0
M  V30 6182 C 580.5 -2.84436 -3.15248 0
M  V30 6183 O 581.524 -2.43597 -2.59883 0
M  V30 6184 O 580.383 -3.55008 -4.1549 0
M  V30 6185 H 577.477 -0.509697 -0.651258 0
M  V30 6186 H 580.023 -1.52603 -0.742312 0
M  V30 6187 H 578.795 -3.36076 -2.0042 0
M  V30 6188 H 578.418 -2.22879 -3.29258 0
M  V30 6189 N 579.415 0.9433 -1.26252 0
M  V30 6190 C 580.661 1.69175 -1.11837 0
M  V30 6191 C 580.994 1.91238 0.337891 0
M  V30 6192 O 580.269 1.49152 1.24836 0
M  V30 6193 C 580.552 3.06783 -1.88563 0
M  V30 6194 C 580.405 2.9206 -3.42083 0
M  V30 6195 C 581.724 4.06865 -1.67776 0
M  V30 6196 H 578.843 0.61399 -0.407658 0
M  V30 6197 H 581.485 1.09572 -1.55222 0
M  V30 6198 H 579.635 3.57663 -1.51689 0
M  V30 6199 H 581.307 2.48419 -3.88698 0
M  V30 6200 H 579.55 2.27731 -3.69217 0
M  V30 6201 H 580.221 3.89651 -3.90994 0
M  V30 6202 H 582.697 3.64939 -1.99897 0
M  V30 6203 H 581.573 5.01168 -2.23879 0
M  V30 6204 H 581.834 4.37705 -0.621816 0
M  V30 6205 N 580.893 1.08022 1.14757 0
M  V30 6206 C 581.856 0.71048 2.1791 0
M  V30 6207 C 582.856 -0.252731 1.58801 0
M  V30 6208 O 584.046 -0.0327915 1.74169 0
M  V30 6209 C 581.178 0.0483203 3.40866 0
M  V30 6210 H 582.371 1.62384 2.52134 0
M  V30 6211 H 579.924 0.877595 1.29337 0
M  V30 6212 H 580.659 -0.876959 3.12218 0
M  V30 6213 H 580.444 0.741189 3.85031 0
M  V30 6214 H 581.934 -0.195471 4.17142 0
M  V30 6215 N 582.371 -1.3172 0.865308 0
M  V30 6216 C 583.62 -1.96145 0.470098 0
M  V30 6217 C 583.933 -1.69182 -0.981674 0
M  V30 6218 O 585.139 -2.27431 -1.48281 0
M  V30 6219 C 583.595 -3.51129 0.789732 0
M  V30 6220 C 583.203 -3.86938 2.25795 0
M  V30 6221 C 584.947 -4.2197 0.462765 0
M  V30 6222 C 582.854 -5.35012 2.52024 0
M  V30 6223 H 581.784 -0.734105 0.172065 0
M  V30 6224 H 584.435 -1.49959 1.05757 0
M  V30 6225 H 582.817 -3.95781 0.131571 0
M  V30 6226 H 583.991 -3.5326 2.95879 0
M  V30 6227 H 582.306 -3.29149 2.55049 0
M  V30 6228 H 584.903 -5.30904 0.636019 0
M  V30 6229 H 585.246 -4.12005 -0.59645 0
M  V30 6230 H 585.779 -3.82936 1.07727 0
M  V30 6231 H 582.518 -5.50008 3.56611 0
M  V30 6232 H 582.038 -5.70058 1.8653 0
M  V30 6233 H 583.717 -6.0222 2.36515 0
M  V30 6234 N 583.85 -0.624285 -1.44708 0
M  V30 6235 C 584.779 0.0717025 -2.3339 0
M  V30 6236 C 585.76 0.841814 -1.47809 0
M  V30 6237 O 586.946 0.809056 -1.76544 0
M  V30 6238 C 584.076 1.05852 -3.30776 0
M  V30 6239 C 583.029 0.400503 -4.26122 0
M  V30 6240 C 582.356 1.49674 -5.13324 0
M  V30 6241 C 583.656 -0.688924 -5.17737 0
M  V30 6242 H 585.35 -0.668819 -2.91834 0
M  V30 6243 H 582.896 -0.32308 -1.40329 0
M  V30 6244 H 584.849 1.5541 -3.91696 0
M  V30 6245 H 583.572 1.82984 -2.70526 0
M  V30 6246 H 582.231 -0.0743687 -3.66525 0
M  V30 6247 H 581.88 2.25877 -4.49431 0
M  V30 6248 H 581.58 1.06188 -5.77926 0
M  V30 6249 H 583.104 1.99427 -5.77115 0
M  V30 6250 H 584.518 -0.276724 -5.72632 0
M  V30 6251 H 582.915 -1.04652 -5.90904 0
M  V30 6252 H 583.985 -1.55884 -4.5916 0
M  V30 6253 N 585.328 1.53329 -0.364422 0
M  V30 6254 C 586.556 2.05657 0.226424 0
M  V30 6255 C 586.971 1.23801 1.42544 0
M  V30 6256 O 586.328 0.27839 1.80364 0
M  V30 6257 C 586.379 3.56125 0.621056 0
M  V30 6258 O 586.1 4.34879 -0.530304 0
M  V30 6259 C 587.601 4.24706 1.27041 0
M  V30 6260 H 584.821 0.669806 0.0400056 0
M  V30 6261 H 587.365 1.97714 -0.522456 0
M  V30 6262 H 585.52 3.64223 1.31985 0
M  V30 6263 H 585.934 5.24073 -0.211546 0
M  V30 6264 H 587.408 5.3131 1.49711 0
M  V30 6265 H 587.885 3.78354 2.23036 0
M  V30 6266 H 588.491 4.20858 0.613079 0
M  V30 6267 N 586.806 0.0935595 1.57322 0
M  V30 6268 C 587.769 -0.851426 2.12799 0
M  V30 6269 C 588.769 -1.21187 1.0569 0
M  V30 6270 O 589.959 -1.14156 1.31583 0
M  V30 6271 C 587.091 -2.14779 2.64731 0
M  V30 6272 H 588.284 -0.369733 2.97612 0
M  V30 6273 H 585.837 -0.155417 1.55525 0
M  V30 6274 H 586.572 -2.67437 1.83434 0
M  V30 6275 H 586.357 -1.89907 3.43042 0
M  V30 6276 H 587.847 -2.82383 3.07651 0
M  V30 6277 N 588.284 -1.56567 -0.180126 0
M  V30 6278 C 589.214 -1.98753 -1.22553 0
M  V30 6279 C 590.195 -0.86175 -1.46656 0
M  V30 6280 O 591.38 -1.12719 -1.58139 0
M  V30 6281 C 588.51 -2.33988 -2.56645 0
M  V30 6282 C 587.464 -3.49445 -2.47128 0
M  V30 6283 C 586.79 -3.70397 -3.8563 0
M  V30 6284 C 588.09 -4.83171 -1.98352 0
M  V30 6285 H 589.784 -2.86332 -0.874896 0
M  V30 6286 H 587.33 -1.37757 -0.419414 0
M  V30 6287 H 589.283 -2.62097 -3.29974 0
M  V30 6288 H 588.007 -1.43309 -2.93479 0
M  V30 6289 H 586.666 -3.2145 -1.76254 0
M  V30 6290 H 586.314 -2.77023 -4.19842 0
M  V30 6291 H 586.014 -4.48077 -3.80132 0
M  V30 6292 H 587.538 -4.00897 -4.60558 0
M  V30 6293 H 588.952 -5.10213 -2.61449 0
M  V30 6294 H 587.349 -5.64425 -2.03823 0
M  V30 6295 H 588.419 -4.75753 -0.937402 0
M  V30 6296 N 589.762 0.448376 -1.51087 0
M  V30 6297 C 590.692 1.55102 -1.74544 0
M  V30 6298 C 591.673 1.59357 -0.594932 0
M  V30 6299 O 592.858 1.75261 -0.836491 0
M  V30 6300 C 589.988 2.93268 -1.86041 0
M  V30 6301 C 588.942 3.03877 -3.01402 0
M  V30 6302 C 588.268 4.43914 -2.98068 0
M  V30 6303 C 589.568 2.7898 -4.41551 0
M  V30 6304 H 591.262 1.35724 -2.66869 0
M  V30 6305 H 588.808 0.651498 -1.28419 0
M  V30 6306 H 590.761 3.70356 -2.01034 0
M  V30 6307 H 589.485 3.13853 -0.903548 0
M  V30 6308 H 588.144 2.29227 -2.86096 0
M  V30 6309 H 587.792 4.6145 -2.00182 0
M  V30 6310 H 587.492 4.51944 -3.75527 0
M  V30 6311 H 589.016 5.22991 -3.1514 0
M  V30 6312 H 590.43 3.45805 -4.57265 0
M  V30 6313 H 588.827 2.98431 -5.20633 0
M  V30 6314 H 589.897 1.74663 -4.5235 0
M  V30 6315 N 591.24 1.41047 0.703093 0
M  V30 6316 C 592.187 1.42302 1.81711 0
M  V30 6317 C 593.157 0.278336 1.63751 0
M  V30 6318 O 594.342 0.478266 1.84709 0
M  V30 6319 C 591.482 1.30362 3.19531 0
M  V30 6320 C 590.595 2.54638 3.48975 0
M  V30 6321 C 589.73 2.35047 4.76368 0
M  V30 6322 C 588.769 3.54837 4.98756 0
M  V30 6323 N 587.906 3.34363 6.1737 0
M  V30 6324 H 592.746 2.37516 1.79973 0
M  V30 6325 H 590.283 1.1795 0.878983 0
M  V30 6326 H 592.241 1.21443 3.99134 0
M  V30 6327 H 590.871 0.387602 3.20464 0
M  V30 6328 H 589.923 2.74037 2.63833 0
M  V30 6329 H 591.235 3.43766 3.61423 0
M  V30 6330 H 590.389 2.23552 5.64012 0
M  V30 6331 H 589.128 1.43363 4.66153 0
M  V30 6332 H 588.133 3.66795 4.09563 0
M  V30 6333 H 589.358 4.47464 5.10835 0
M  V30 6334 H 587.304 2.45373 6.08382 0
M  V30 6335 H 587.221 4.17063 6.30551 0
M  V30 6336 H 588.489 3.26626 7.07768 0
M  V30 6337 N 592.718 -0.936591 1.26751 0
M  V30 6338 C 593.966 -1.67998 1.12343 0
M  V30 6339 C 594.287 -1.92137 -0.332938 0
M  V30 6340 O 593.557 -1.52132 -1.23421 0
M  V30 6341 H 592.137 -0.622609 0.412756 0
M  V30 6342 H 594.799 -1.12509 1.59147 0
M  V30 6343 H 593.895 -2.65185 1.64571 0
M  V30 6344 N 594.196 -1.08629 -1.14182 0
M  V30 6345 C 595.424 -0.838889 -1.8913 0
M  V30 6346 C 595.839 0.609153 -1.78703 0
M  V30 6347 O 595.196 1.41876 -1.14794 0
M  V30 6348 C 595.247 -1.25477 -3.39025 0
M  V30 6349 O 594.968 -2.64601 -3.49167 0
M  V30 6350 C 596.469 -1.03856 -4.30963 0
M  V30 6351 H 593.689 -0.302377 -0.599007 0
M  V30 6352 H 596.233 -1.44615 -1.44592 0
M  V30 6353 H 594.388 -0.691571 -3.81177 0
M  V30 6354 H 594.802 -2.81922 -4.42289 0
M  V30 6355 H 596.276 -1.37892 -5.345 0
M  V30 6356 H 596.753 0.0242522 -4.39193 0
M  V30 6357 H 597.359 -1.58731 -3.94569 0
M  V30 6358 N 595.674 1.31259 -0.872281 0
M  V30 6359 C 596.622 2.30404 -0.318897 0
M  V30 6360 C 597.616 1.5962 0.567267 0
M  V30 6361 O 598.822 1.74204 0.453111 0
M  V30 6362 H 595.197 0.747243 -0.0844474 0
M  V30 6363 H 597.168 2.74549 -1.16899 0
M  V30 6364 C 595.917 3.44608 0.462683 0
M  V30 6365 H 595.24 3.99248 -0.209936 0
M  V30 6366 H 596.68 4.1609 0.815187 0
M  V30 6367 C 595.139 2.93456 1.65485 0
M  V30 6368 O 595.669 2.92418 2.75417 0
M  V30 6369 N 593.875 2.49628 1.48776 0
M  V30 6370 H 593.422 2.50671 0.593452 0
M  V30 6371 H 593.38 2.15759 2.28682 0
M  V30 6372 N 597.152 0.631951 1.44375 0
M  V30 6373 C 598.115 -0.0628142 2.29114 0
M  V30 6374 C 599.115 -0.771494 1.41084 0
M  V30 6375 O 600.305 -0.615959 1.62947 0
M  V30 6376 C 597.437 -1.09953 3.22681 0
M  V30 6377 H 598.63 0.682509 2.92031 0
M  V30 6378 H 596.183 0.392128 1.51301 0
M  V30 6379 H 596.918 -1.87481 2.64616 0
M  V30 6380 H 596.703 -0.595286 3.87555 0
M  V30 6381 H 598.193 -1.58538 3.86336 0
M  V30 6382 N 598.631 -1.53133 0.372548 0
M  V30 6383 C 599.856 -2.0625 -0.218098 0
M  V30 6384 C 600.281 -1.24375 -1.41111 0
M  V30 6385 O 599.639 -0.264554 -1.79359 0
M  V30 6386 C 599.687 -3.55858 -0.582876 0
M  V30 6387 O 598.791 -3.76667 -1.67917 0
M  V30 6388 H 598.132 -0.663317 -0.030104 0
M  V30 6389 H 600.662 -1.97477 0.535169 0
M  V30 6390 H 600.672 -3.99007 -0.851925 0
M  V30 6391 H 599.347 -4.14892 0.289428 0
M  V30 6392 H 597.924 -3.45413 -1.40513 0
M  V30 6393 N 600.109 -0.101901 -1.5727 0
M  V30 6394 C 601.072 0.840129 -2.13247 0
M  V30 6395 C 602.072 1.20625 -1.06331 0
M  V30 6396 O 603.262 1.13456 -1.32186 0
M  V30 6397 C 600.394 2.13372 -2.65867 0
M  V30 6398 H 601.587 0.353945 -2.97804 0
M  V30 6399 H 599.14 0.147167 -1.55606 0
M  V30 6400 H 599.875 2.66461 -1.84849 0
M  V30 6401 H 599.66 1.88085 -3.44044 0
M  V30 6402 H 601.15 2.80748 -3.09145 0
M  V30 6403 N 601.587 1.56661 0.17182 0
M  V30 6404 C 602.834 1.81965 0.888529 0
M  V30 6405 C 603.162 0.6789 1.82267 0
M  V30 6406 O 602.417 -0.333875 1.92831 0
M  V30 6407 C 602.716 3.13435 1.71736 0
M  V30 6408 C 602.382 4.41159 0.932184 0
M  V30 6409 C 601.044 4.75851 0.715481 0
M  V30 6410 C 603.396 5.19803 0.381387 0
M  V30 6411 C 600.724 5.86666 -0.063126 0
M  V30 6412 C 603.076 6.31433 -0.384129 0
M  V30 6413 C 601.74 6.64692 -0.611637 0
M  V30 6414 H 601.01 0.665859 0.325136 0
M  V30 6415 H 603.657 1.90884 0.153495 0
M  V30 6416 H 601.962 2.99857 2.52177 0
M  V30 6417 H 603.659 3.30224 2.27493 0
M  V30 6418 H 600.249 4.13947 1.11112 0
M  V30 6419 H 604.433 4.93396 0.536148 0
M  V30 6420 H 599.689 6.10892 -0.249136 0
M  V30 6421 H 603.863 6.91577 -0.818185 0
M  V30 6422 H 601.49 7.50398 -1.21684 0
M  V30 6423 N 603.065 -0.440357 1.51323 0
M  V30 6424 C 604.342 -1.20109 1.5438 0
M  V30 6425 C 604.722 -2.08866 0.306303 0
M  V30 6426 O 604.07 -2.1723 -0.708773 0
M  V30 6427 C 604.28 -2.00555 2.8562 0
M  V30 6428 C 605.628 -2.577 3.37455 0
M  V30 6429 O 606.652 -2.10769 2.8715 0
M  V30 6430 O 605.511 -3.43289 4.25224 0
M  V30 6431 H 602.605 -0.546668 0.620551 0
M  V30 6432 H 605.151 -0.449672 1.63634 0
M  V30 6433 H 603.923 -1.35346 3.67147 0
M  V30 6434 H 603.546 -2.82768 2.79514 0
M  V30 6435 N 604.543 -1.41418 -0.695603 0
M  V30 6436 C 605.475 -1.39195 -1.82092 0
M  V30 6437 C 606.488 -0.294132 -1.60121 0
M  V30 6438 O 607.677 -0.555854 -1.69625 0
M  V30 6439 C 604.777 -1.14828 -3.18854 0
M  V30 6440 C 603.95 -2.36649 -3.67853 0
M  V30 6441 C 603.009 -2.08139 -4.83285 0
M  V30 6442 O 602.035 -2.81177 -4.94902 0
M  V30 6443 N 603.237 -1.07162 -5.70523 0
M  V30 6444 H 606.002 -2.36185 -1.84491 0
M  V30 6445 H 603.563 -1.3603 -0.877923 0
M  V30 6446 H 605.555 -0.937075 -3.93702 0
M  V30 6447 H 604.125 -0.264358 -3.1148 0
M  V30 6448 H 603.345 -2.73472 -2.83913 0
M  V30 6449 H 604.633 -3.17816 -3.97329 0
M  V30 6450 H 604.031 -0.467124 -5.63768 0
M  V30 6451 H 602.588 -0.920311 -6.4527 0
M  V30 6452 N 606.021 0.929856 -1.27246 0
M  V30 6453 C 606.951 2.04722 -1.12299 0
M  V30 6454 C 607.932 1.70082 -0.0250464 0
M  V30 6455 O 609.117 1.93176 -0.199141 0
M  V30 6456 C 606.247 3.38721 -0.767145 0
M  V30 6457 C 605.201 3.87466 -1.81808 0
M  V30 6458 C 604.527 5.18246 -1.31626 0
M  V30 6459 C 605.827 4.11095 -3.22177 0
M  V30 6460 H 607.521 2.17485 -2.05769 0
M  V30 6461 H 605.067 1.04503 -0.990715 0
M  V30 6462 H 607.02 4.16366 -0.649413 0
M  V30 6463 H 605.744 3.25967 0.203259 0
M  V30 6464 H 604.403 3.12012 -1.92468 0
M  V30 6465 H 604.051 5.01881 -0.335378 0
M  V30 6466 H 603.751 5.51829 -2.01887 0
M  V30 6467 H 605.275 5.98462 -1.21143 0
M  V30 6468 H 606.689 4.79316 -3.1453 0
M  V30 6469 H 605.086 4.55982 -3.90129 0
M  V30 6470 H 606.156 3.16468 -3.67391 0
M  V30 6471 N 607.499 1.09233 1.13605 0
M  V30 6472 C 608.748 0.82205 1.84188 0
M  V30 6473 C 609.061 -0.654548 1.84323 0
M  V30 6474 O 610.267 -1.04029 2.50779 0
M  V30 6475 C 608.723 1.42066 3.30674 0
M  V30 6476 C 608.331 2.92965 3.38933 0
M  V30 6477 C 610.075 1.22924 4.06313 0
M  V30 6478 C 607.982 3.45922 4.79679 0
M  V30 6479 H 606.912 0.303854 0.690064 0
M  V30 6480 H 609.563 1.31479 1.28006 0
M  V30 6481 H 607.945 0.855613 3.86646 0
M  V30 6482 H 609.119 3.55679 2.92966 0
M  V30 6483 H 607.434 3.11118 2.76757 0
M  V30 6484 H 610.031 1.59945 5.10217 0
M  V30 6485 H 610.374 0.169726 4.15954 0
M  V30 6486 H 610.907 1.76168 3.56665 0
M  V30 6487 H 607.646 4.51484 4.75229 0
M  V30 6488 H 607.166 2.87971 5.26149 0
M  V30 6489 H 608.845 3.43009 5.48592 0
M  V30 6490 N 608.977 -1.30795 0.87923 0
M  V30 6491 C 609.907 -2.30742 0.357796 0
M  V30 6492 C 610.888 -1.60747 -0.556283 0
M  V30 6493 O 612.073 -1.88393 -0.47135 0
M  V30 6494 C 609.203 -3.44583 -0.433555 0
M  V30 6495 C 608.157 -4.26235 0.388251 0
M  V30 6496 C 607.483 -5.32073 -0.529352 0
M  V30 6497 C 608.783 -4.96303 1.62729 0
M  V30 6498 H 610.477 -2.74605 1.19299 0
M  V30 6499 H 608.023 -1.32017 0.575104 0
M  V30 6500 H 609.976 -4.13563 -0.808934 0
M  V30 6501 H 608.7 -2.99511 -1.30234 0
M  V30 6502 H 607.359 -3.58936 0.745695 0
M  V30 6503 H 607.007 -4.83249 -1.39569 0
M  V30 6504 H 606.707 -5.87598 0.0166741 0
M  V30 6505 H 608.231 -6.0391 -0.901373 0
M  V30 6506 H 609.645 -5.5783 1.32283 0
M  V30 6507 H 608.042 -5.61666 2.11309 0
M  V30 6508 H 609.112 -4.22758 2.37494 0
M  V30 6509 N 610.455 -0.639598 -1.44038 0
M  V30 6510 C 611.683 -0.154811 -2.0632 0
M  V30 6511 C 612.098 1.17406 -1.47856 0
M  V30 6512 O 611.455 1.72193 -0.604638 0
M  V30 6513 C 611.506 -0.0429958 -3.61474 0
M  V30 6514 O 611.227 -1.31932 -4.17763 0
M  V30 6515 C 612.728 0.469486 -4.40807 0
M  V30 6516 H 609.948 -0.0835862 -0.665773 0
M  V30 6517 H 612.492 -0.876397 -1.84769 0
M  V30 6518 H 610.647 0.629075 -3.82258 0
M  V30 6519 H 611.061 -1.16965 -5.11292 0
M  V30 6520 H 612.535 0.496712 -5.49761 0
M  V30 6521 H 613.012 1.49819 -4.12857 0
M  V30 6522 H 613.618 -0.169624 -4.24962 0
M  V30 6523 N 611.933 1.52934 -0.380664 0
M  V30 6524 C 612.863 2.29118 0.450268 0
M  V30 6525 C 613.844 1.32153 1.07096 0
M  V30 6526 O 615.029 1.61038 1.08537 0
M  V30 6527 C 612.159 3.09161 1.58231 0
M  V30 6528 C 611.113 4.13938 1.0881 0
M  V30 6529 C 610.439 4.82153 2.31155 0
M  V30 6530 C 611.739 5.22048 0.162146 0
M  V30 6531 H 613.433 2.98826 -0.185361 0
M  V30 6532 H 610.979 1.43715 -0.0905886 0
M  V30 6533 H 612.932 3.61211 2.17036 0
M  V30 6534 H 611.656 2.3717 2.2454 0
M  V30 6535 H 610.315 3.62855 0.522633 0
M  V30 6536 H 609.963 4.06719 2.95953 0
M  V30 6537 H 609.663 5.52966 1.98752 0
M  V30 6538 H 611.187 5.37004 2.90618 0
M  V30 6539 H 612.601 5.6951 0.658126 0
M  V30 6540 H 610.998 6.00057 -0.0717122 0
M  V30 6541 H 612.068 4.78398 -0.791438 0
M  V30 6542 N 613.412 0.11024 1.57214 0
M  V30 6543 C 614.375 -0.828808 2.1369 0
M  V30 6544 C 615.375 -1.20059 1.06969 0
M  V30 6545 O 616.565 -1.12754 1.32786 0
M  V30 6546 C 613.697 -2.11959 2.66994 0
M  V30 6547 H 614.89 -0.338146 2.97988 0
M  V30 6548 H 612.443 -0.138913 1.55681 0
M  V30 6549 H 613.178 -2.65476 1.8626 0
M  V30 6550 H 612.963 -1.86258 3.45037 0
M  V30 6551 H 614.453 -2.79105 3.10629 0
M  V30 6552 N 614.89 -1.56749 -0.16351 0
M  V30 6553 C 616.136 -1.83597 -0.875436 0
M  V30 6554 C 616.491 -0.691907 -1.79528 0
M  V30 6555 O 615.784 0.311193 -1.89056 0
M  V30 6556 C 615.978 -3.14342 -1.70071 0
M  V30 6557 C 615.807 -4.41356 -0.862265 0
M  V30 6558 C 614.577 -5.02467 -0.534299 0
M  V30 6559 C 616.775 -5.1391 -0.200203 0
M  V30 6560 N 614.757 -6.13068 0.31947 0
M  V30 6561 C 616.128 -6.17862 0.514398 0
M  V30 6562 C 618.183 -4.97757 -0.119171 0
M  V30 6563 C 616.886 -7.07412 1.30236 0
M  V30 6564 C 618.912 -5.87756 0.655477 0
M  V30 6565 C 618.274 -6.91178 1.35842 0
M  V30 6566 H 614.373 -0.722702 -0.298708 0
M  V30 6567 H 616.957 -1.94182 -0.141883 0
M  V30 6568 H 615.128 -3.04933 -2.40562 0
M  V30 6569 H 616.86 -3.29156 -2.35453 0
M  V30 6570 H 613.615 -4.65611 -0.866222 0
M  V30 6571 H 614.039 -6.72978 0.736893 0
M  V30 6572 H 618.681 -4.178 -0.648278 0
M  V30 6573 H 616.399 -7.86808 1.84278 0
M  V30 6574 H 619.985 -5.77328 0.719948 0
M  V30 6575 H 618.865 -7.59614 1.94822 0
M  V30 6576 N 616.368 0.432326 -1.51554 0
M  V30 6577 C 617.645 1.19288 -1.55015 0
M  V30 6578 C 618.025 2.08701 -0.317375 0
M  V30 6579 O 617.373 2.17602 0.697243 0
M  V30 6580 C 617.583 1.99037 -2.86679 0
M  V30 6581 C 618.931 2.55907 -3.38817 0
M  V30 6582 O 619.955 2.09243 -2.88263 0
M  V30 6583 O 618.814 3.41029 -4.27038 0
M  V30 6584 H 615.908 0.543369 -0.623441 0
M  V30 6585 H 618.454 0.440988 -1.6387 0
M  V30 6586 H 617.226 1.33397 -3.6786 0
M  V30 6587 H 616.849 2.81281 -2.8101 0
M  V30 6588 N 617.846 1.41785 0.688094 0
M  V30 6589 C 619.262 1.24419 0.999608 0
M  V30 6590 C 619.462 0.138868 2.01021 0
M  V30 6591 O 618.518 -0.494283 2.47615 0
M  V30 6592 C 619.831 2.59625 1.51709 0
M  V30 6593 C 621.379 2.66869 1.63554 0
M  V30 6594 C 621.854 4.0241 2.18702 0
M  V30 6595 N 623.345 4.04295 2.26053 0
M  V30 6596 C 624.08 5.05977 2.69768 0
M  V30 6597 N 623.576 6.18047 3.13033 0
M  V30 6598 N 625.369 4.93336 2.69398 0
M  V30 6599 H 617.52 2.12392 0.0187427 0
M  V30 6600 H 619.783 0.945347 0.0708673 0
M  V30 6601 H 619.489 3.41297 0.849059 0
M  V30 6602 H 619.363 2.82628 2.49803 0
M  V30 6603 H 621.75 1.8555 2.29467 0
M  V30 6604 H 621.831 2.47668 0.639857 0
M  V30 6605 H 621.475 4.8418 1.53402 0
M  V30 6606 H 621.405 4.18955 3.19037 0
M  V30 6607 H 623.896 3.23383 1.9553 0
M  V30 6608 H 624.209 6.91498 3.45038 0
M  V30 6609 H 622.554 6.21572 3.10923 0
M  V30 6610 H 625.745 4.04865 2.34952 0
M  V30 6611 H 625.918 5.72717 3.03148 0
M  V30 6612 N 619.324 -0.923095 1.27737 0
M  V30 6613 C 620.57 -1.67375 1.14514 0
M  V30 6614 C 620.903 -1.91751 -0.307424 0
M  V30 6615 O 620.178 -1.51119 -1.22447 0
M  V30 6616 C 620.461 -3.03745 1.9342 0
M  V30 6617 C 620.314 -2.86581 3.46686 0
M  V30 6618 C 621.633 -4.04144 1.74228 0
M  V30 6619 H 618.752 -0.607427 0.417374 0
M  V30 6620 H 621.394 -1.07089 1.56946 0
M  V30 6621 H 619.544 -3.55204 1.5736 0
M  V30 6622 H 621.216 -2.42203 3.92601 0
M  V30 6623 H 619.459 -2.21829 3.72793 0
M  V30 6624 H 620.13 -3.83381 3.97143 0
M  V30 6625 H 622.606 -3.61712 2.05678 0
M  V30 6626 H 621.482 -4.97543 2.31824 0
M  V30 6627 H 621.743 -4.36661 0.691373 0
M  V30 6628 N 620.802 -1.09834 -1.13024 0
M  V30 6629 C 622.079 -0.749225 -1.80682 0
M  V30 6630 C 622.459 0.765171 -1.96744 0
M  V30 6631 O 621.807 1.68912 -1.53886 0
M  V30 6632 C 622.017 -1.49311 -3.15448 0
M  V30 6633 C 623.365 -1.66162 -3.90737 0
M  V30 6634 O 624.389 -1.45597 -3.25085 0
M  V30 6635 O 623.248 -2.00211 -5.08505 0
M  V30 6636 H 620.342 -0.269614 -0.781817 0
M  V30 6637 H 622.888 -1.20078 -1.19914 0
M  V30 6638 H 621.66 -2.52407 -2.99009 0
M  V30 6639 H 621.283 -1.034 -3.8392 0
M  V30 6640 N 622.28 1.30327 -0.886154 0
M  V30 6641 C 623.529 1.95373 -0.501243 0
M  V30 6642 C 623.842 1.70722 0.954634 0
M  V30 6643 O 625.048 2.29761 1.44644 0
M  V30 6644 C 623.504 3.49828 -0.845493 0
M  V30 6645 C 623.112 3.83296 -2.31922 0
M  V30 6646 C 624.856 4.2118 -0.529838 0
M  V30 6647 C 622.763 5.30935 -2.60504 0
M  V30 6648 H 621.693 0.731274 -0.183722 0
M  V30 6649 H 624.344 1.48258 -1.08129 0
M  V30 6650 H 622.726 3.95522 -0.19452 0
M  V30 6651 H 623.9 3.48508 -3.01461 0
M  V30 6652 H 622.215 3.2505 -2.60253 0
M  V30 6653 H 624.812 5.29825 -0.720401 0
M  V30 6654 H 625.155 4.12902 0.530828 0
M  V30 6655 H 625.688 3.81173 -1.13806 0
M  V30 6656 H 622.427 5.44265 -3.65316 0
M  V30 6657 H 621.947 5.67019 -1.95575 0
M  V30 6658 H 623.626 5.98381 -2.46066 0
M  V30 6659 N 623.758 0.647228 1.43697 0
M  V30 6660 C 624.721 -0.0385101 2.29168 0
M  V30 6661 C 625.721 -0.756487 1.41894 0
M  V30 6662 O 626.911 -0.598641 1.63591 0
M  V30 6663 C 624.043 -1.06524 3.23829 0
M  V30 6664 H 625.236 0.713445 2.9129 0
M  V30 6665 H 622.789 0.408153 1.50877 0
M  V30 6666 H 623.524 -1.84664 2.66589 0
M  V30 6667 H 623.309 -0.554147 3.88164 0
M  V30 6668 H 624.799 -1.54432 3.87996 0
M  V30 6669 N 625.236 -1.5273 0.388769 0
M  V30 6670 C 626.183 -2.26437 -0.446639 0
M  V30 6671 C 627.153 -1.28025 -1.05824 0
M  V30 6672 O 628.338 -1.56852 -1.08637 0
M  V30 6673 C 625.478 -3.07407 -1.56828 0
M  V30 6674 C 624.591 -4.20747 -0.979589 0
M  V30 6675 C 623.726 -4.89113 -2.07224 0
M  V30 6676 C 622.765 -5.94447 -1.45942 0
M  V30 6677 N 621.902 -6.56411 -2.49135 0
M  V30 6678 H 626.742 -2.97404 0.18837 0
M  V30 6679 H 624.279 -1.46727 0.104725 0
M  V30 6680 H 626.237 -3.52642 -2.22934 0
M  V30 6681 H 624.867 -2.3865 -2.17361 0
M  V30 6682 H 623.919 -3.7983 -0.208151 0
M  V30 6683 H 625.231 -4.9637 -0.491747 0
M  V30 6684 H 624.385 -5.3765 -2.81101 0
M  V30 6685 H 623.124 -4.13013 -2.59368 0
M  V30 6686 H 622.129 -5.4525 -0.705894 0
M  V30 6687 H 623.354 -6.7248 -0.945932 0
M  V30 6688 H 621.3 -5.83152 -3.00449 0
M  V30 6689 H 621.217 -7.27645 -2.05105 0
M  V30 6690 H 622.485 -7.09592 -3.22644 0
M  V30 6691 N 626.714 -0.118576 -1.57153 0
M  V30 6692 C 627.662 0.849114 -2.16547 0
M  V30 6693 C 628.656 1.27567 -1.11458 0
M  V30 6694 O 629.862 1.24746 -1.29763 0
M  V30 6695 H 626.237 0.291935 -0.693021 0
M  V30 6696 H 628.208 0.323693 -2.96639 0
M  V30 6697 C 626.957 2.08951 -2.77912 0
M  V30 6698 H 626.28 1.77021 -3.58474 0
M  V30 6699 H 627.72 2.74666 -3.23008 0
M  V30 6700 C 626.179 2.87899 -1.74974 0
M  V30 6701 O 626.709 3.83268 -1.20285 0
M  V30 6702 N 624.915 2.51884 -1.44924 0
M  V30 6703 H 624.462 1.74397 -1.89587 0
M  V30 6704 H 624.42 3.05003 -0.762921 0
M  V30 6705 N 628.193 1.56834 0.155195 0
M  V30 6706 C 629.143 1.94061 1.19684 0
M  V30 6707 C 630.127 0.810851 1.38975 0
M  V30 6708 O 631.319 1.07422 1.40675 0
M  V30 6709 C 628.448 2.31778 2.53247 0
M  V30 6710 C 627.534 3.51305 2.37583 0
M  V30 6711 N 627.925 4.68081 1.9166 0
M  V30 6712 C 626.223 3.56228 2.6836 0
M  V30 6713 C 626.924 5.50193 1.88845 0
M  V30 6714 N 625.9 4.91676 2.31852 0
M  V30 6715 H 629.702 2.81826 0.833747 0
M  V30 6716 H 627.216 1.58284 0.363328 0
M  V30 6717 H 629.213 2.56649 3.28538 0
M  V30 6718 H 627.873 1.4536 2.90346 0
M  V30 6719 H 628.884 4.91993 1.6175 0
M  V30 6720 H 625.561 2.8033 3.09389 0
M  V30 6721 H 626.951 6.53801 1.54901 0
M  V30 6722 N 629.671 -0.424282 1.51781 0
M  V30 6723 C 630.917 -1.17434 1.6534 0
M  V30 6724 C 631.25 -1.90549 0.374806 0
M  V30 6725 O 630.525 -1.84145 -0.626179 0
M  V30 6726 C 630.808 -2.18093 2.86544 0
M  V30 6727 C 630.661 -1.48975 4.24413 0
M  V30 6728 C 631.98 -3.18934 3.03264 0
M  V30 6729 H 629.099 -0.425566 0.601716 0
M  V30 6730 H 631.741 -0.461921 1.84299 0
M  V30 6731 H 629.891 -2.78849 2.7051 0
M  V30 6732 H 631.563 -0.914551 4.52143 0
M  V30 6733 H 629.806 -0.791893 4.26511 0
M  V30 6734 H 630.477 -2.22347 5.05238 0
M  V30 6735 H 632.953 -2.68243 3.18096 0
M  V30 6736 H 631.829 -3.86645 3.89611 0
M  V30 6737 H 632.09 -3.85793 2.15908 0
M  V30 6738 N 631.149 -1.42148 -0.680565 0
M  V30 6739 C 632.396 -1.4231 -1.44063 0
M  V30 6740 C 632.724 -0.037488 -1.94464 0
M  V30 6741 O 631.979 0.953184 -1.70918 0
M  V30 6742 C 632.278 -2.38945 -2.65782 0
M  V30 6743 C 631.944 -3.85455 -2.33956 0
M  V30 6744 C 630.606 -4.25364 -2.24987 0
M  V30 6745 C 632.958 -4.77895 -2.08004 0
M  V30 6746 C 630.286 -5.55701 -1.88184 0
M  V30 6747 C 632.638 -6.08568 -1.72706 0
M  V30 6748 C 631.302 -6.47482 -1.62244 0
M  V30 6749 H 630.572 -0.520748 -0.527164 0
M  V30 6750 H 633.219 -1.7505 -0.776524 0
M  V30 6751 H 631.524 -1.99511 -3.37198 0
M  V30 6752 H 633.221 -2.36336 -3.23954 0
M  V30 6753 H 629.811 -3.53855 -2.41836 0
M  V30 6754 H 633.995 -4.47854 -2.1387 0
M  V30 6755 H 629.251 -5.84718 -1.78648 0
M  V30 6756 H 633.425 -6.79688 -1.5165 0
M  V30 6757 H 631.052 -7.48387 -1.33496 0
M  V30 6758 N 632.627 0.916307 -1.28225 0
M  V30 6759 C 633.873 1.66765 -1.154 0
M  V30 6760 C 634.206 1.91912 0.297251 0
M  V30 6761 O 633.481 1.51766 1.21644 0
M  V30 6762 C 633.764 3.02715 -1.95028 0
M  V30 6763 C 633.617 2.84738 -3.48201 0
M  V30 6764 C 634.936 4.03215 -1.76369 0
M  V30 6765 H 632.055 0.605205 -0.42059 0
M  V30 6766 H 634.697 1.06255 -1.57512 0
M  V30 6767 H 632.847 3.54365 -1.59242 0
M  V30 6768 H 634.519 2.40118 -3.9388 0
M  V30 6769 H 632.762 2.19848 -3.73964 0
M  V30 6770 H 633.433 3.8127 -3.99171 0
M  V30 6771 H 635.909 3.60617 -2.07593 0
M  V30 6772 H 634.785 4.96306 -2.34459 0
M  V30 6773 H 635.046 4.36288 -0.71452 0
M  V30 6774 N 634.105 1.10431 1.1244 0
M  V30 6775 C 635.335 0.867612 1.87499 0
M  V30 6776 C 635.743 -0.585475 1.79913 0
M  V30 6777 O 635.086 -1.41539 1.171 0
M  V30 6778 C 635.148 1.2374 3.37533 0
M  V30 6779 C 634.812 2.69751 3.68895 0
M  V30 6780 C 635.809 3.67988 3.67261 0
M  V30 6781 C 633.494 3.06135 3.98229 0
M  V30 6782 C 635.488 5.00632 3.9452 0
M  V30 6783 C 633.175 4.38967 4.25149 0
M  V30 6784 C 634.173 5.36025 4.23281 0
M  V30 6785 O 633.861 6.66465 4.49533 0
M  V30 6786 H 633.593 0.311196 0.600111 0
M  V30 6787 H 636.147 1.47257 1.43194 0
M  V30 6788 H 634.377 0.575537 3.82393 0
M  V30 6789 H 636.066 0.978187 3.93937 0
M  V30 6790 H 636.832 3.41224 3.44661 0
M  V30 6791 H 632.711 2.31214 3.98825 0
M  V30 6792 H 636.255 5.7638 3.92978 0
M  V30 6793 H 632.152 4.6547 4.47223 0
M  V30 6794 H 632.92 6.72095 4.67152 0
M  V30 6795 N 635.583 -1.29855 0.893053 0
M  V30 6796 C 636.831 -1.9544 0.514566 0
M  V30 6797 C 637.152 -1.70795 -0.940959 0
M  V30 6798 O 636.422 -1.03601 -1.66264 0
M  V30 6799 H 635.002 -0.723137 0.187302 0
M  V30 6800 H 637.664 -1.58234 1.13789 0
M  V30 6801 H 636.76 -3.04341 0.691581 0
M  V30 6802 N 637.061 -0.65484 -1.43351 0
M  V30 6803 C 637.993 0.0744757 -2.29079 0
M  V30 6804 C 639.006 0.7855 -1.42596 0
M  V30 6805 O 640.195 0.642986 -1.66517 0
M  V30 6806 C 637.295 1.12859 -3.19556 0
M  V30 6807 C 636.468 0.495381 -4.34586 0
M  V30 6808 C 635.527 1.44659 -5.05925 0
M  V30 6809 O 634.553 0.954567 -5.61139 0
M  V30 6810 N 635.755 2.78051 -5.09576 0
M  V30 6811 H 638.52 -0.661346 -2.92312 0
M  V30 6812 H 636.081 -0.497744 -1.54059 0
M  V30 6813 H 638.073 1.76577 -3.64147 0
M  V30 6814 H 636.643 1.76636 -2.57912 0
M  V30 6815 H 635.863 -0.32092 -3.92892 0
M  V30 6816 H 637.151 0.0534203 -5.08772 0
M  V30 6817 H 636.549 3.20584 -4.66093 0
M  V30 6818 H 635.106 3.37068 -5.57878 0
M  V30 6819 N 638.539 1.52521 -0.396863 0
M  V30 6820 C 639.471 2.24333 0.469814 0
M  V30 6821 C 640.484 1.2685 1.02043 0
M  V30 6822 O 641.673 1.52876 0.92147 0
M  V30 6823 C 638.773 2.95202 1.66461 0
M  V30 6824 C 637.946 4.19454 1.24003 0
M  V30 6825 C 637.005 4.73255 2.30036 0
M  V30 6826 O 636.031 5.36151 1.91131 0
M  V30 6827 N 637.233 4.53765 3.62047 0
M  V30 6828 H 639.998 2.99347 -0.145468 0
M  V30 6829 H 637.559 1.60348 -0.223606 0
M  V30 6830 H 639.551 3.28092 2.36934 0
M  V30 6831 H 638.121 2.2345 2.18607 0
M  V30 6832 H 637.341 3.92517 0.363892 0
M  V30 6833 H 638.629 5.0017 0.933135 0
M  V30 6834 H 638.027 4.03576 3.96412 0
M  V30 6835 H 636.584 4.91124 4.28533 0
M  V30 6836 N 640.017 0.126909 1.57088 0
M  V30 6837 C 641.263 -0.523662 1.96543 0
M  V30 6838 C 641.618 -1.63783 1.0096 0
M  V30 6839 O 640.911 -1.91556 0.0410175 0
M  V30 6840 C 641.105 -1.095 3.40212 0
M  V30 6841 C 640.934 -0.037715 4.49684 0
M  V30 6842 C 639.704 0.396823 5.03739 0
M  V30 6843 C 641.902 0.746245 5.08857 0
M  V30 6844 N 639.884 1.43905 5.96795 0
M  V30 6845 C 641.255 1.63947 5.97931 0
M  V30 6846 C 643.31 0.796259 4.91492 0
M  V30 6847 C 642.013 2.57837 6.715 0
M  V30 6848 C 644.039 1.7229 5.65747 0
M  V30 6849 C 643.401 2.60369 6.54513 0
M  V30 6850 H 639.5 -0.161016 0.765244 0
M  V30 6851 H 642.084 0.21686 1.93489 0
M  V30 6852 H 640.255 -1.80521 3.43899 0
M  V30 6853 H 641.987 -1.71054 3.66773 0
M  V30 6854 H 638.742 0.00290406 4.736 0
M  V30 6855 H 639.166 1.95932 6.48027 0
M  V30 6856 H 643.808 0.129412 4.22602 0
M  V30 6857 H 641.526 3.25532 7.39631 0
M  V30 6858 H 645.112 1.76715 5.54313 0
M  V30 6859 H 643.992 3.30906 7.10965 0
M  V30 6860 N 641.495 -1.56914 -0.146875 0
M  V30 6861 C 642.425 -2.01308 -1.1831 0
M  V30 6862 C 643.406 -0.892664 -1.44795 0
M  V30 6863 O 644.591 -1.16048 -1.55713 0
M  V30 6864 C 641.721 -2.3938 -2.51624 0
M  V30 6865 C 640.675 -3.54608 -2.3966 0
M  V30 6866 C 640.001 -3.78493 -3.77686 0
M  V30 6867 C 641.301 -4.87269 -1.88058 0
M  V30 6868 H 642.995 -2.88123 -0.813964 0
M  V30 6869 H 640.541 -1.38615 -0.3901 0
M  V30 6870 H 642.494 -2.69037 -3.24341 0
M  V30 6871 H 641.218 -1.49502 -2.90373 0
M  V30 6872 H 639.877 -3.25116 -1.69396 0
M  V30 6873 H 639.525 -2.85866 -4.13871 0
M  V30 6874 H 639.225 -4.56039 -3.70543 0
M  V30 6875 H 640.749 -4.10576 -4.51951 0
M  V30 6876 H 642.163 -5.15644 -2.50568 0
M  V30 6877 H 640.56 -5.68622 -1.91805 0
M  V30 6878 H 641.63 -4.77634 -0.836277 0
M  V30 6879 N 642.974 0.416227 -1.52004 0
M  V30 6880 C 644.22 1.16555 -1.6596 0
M  V30 6881 C 644.553 1.90347 -0.384906 0
M  V30 6882 O 643.828 1.84474 0.616405 0
M  V30 6883 C 644.111 2.1657 -2.87696 0
M  V30 6884 C 643.964 1.46722 -4.25197 0
M  V30 6885 C 645.283 3.17321 -3.04951 0
M  V30 6886 H 642.402 0.422369 -0.603965 0
M  V30 6887 H 645.044 0.452141 -1.84542 0
M  V30 6888 H 643.194 2.77411 -2.71985 0
M  V30 6889 H 644.866 0.89056 -4.52622 0
M  V30 6890 H 643.109 0.769263 -4.26925 0
M  V30 6891 H 643.78 2.19665 -5.0641 0
M  V30 6892 H 646.256 2.66552 -3.19514 0
M  V30 6893 H 645.132 3.84573 -3.91656 0
M  V30 6894 H 645.393 3.84643 -2.17951 0
M  V30 6895 N 644.452 1.42507 0.673017 0
M  V30 6896 C 645.7 1.42789 1.43023 0
M  V30 6897 C 646.021 0.0459738 1.94946 0
M  V30 6898 O 645.291 -0.915765 1.73178 0
M  V30 6899 H 643.871 0.525657 0.530748 0
M  V30 6900 H 646.533 1.77944 0.795113 0
M  V30 6901 H 645.629 2.12872 2.28237 0
M  V30 6902 N 645.93 -0.909495 1.28709 0
M  V30 6903 C 647.155 -1.69801 1.1909 0
M  V30 6904 C 647.58 -1.86479 -0.246388 0
M  V30 6905 O 646.938 -1.37802 -1.17815 0
M  V30 6906 C 646.986 -3.06543 1.89904 0
M  V30 6907 O 646.09 -3.94268 1.2094 0
M  V30 6908 H 645.431 -0.519783 0.413185 0
M  V30 6909 H 647.961 -1.13689 1.70106 0
M  V30 6910 H 647.971 -3.56748 1.97977 0
M  V30 6911 H 646.646 -2.93722 2.94449 0
M  V30 6912 H 645.223 -3.52702 1.2106 0
M  V30 6913 N 647.408 -1.11026 -1.11852 0
M  V30 6914 C 648.338 -0.786812 -2.19844 0
M  V30 6915 C 649.319 0.242935 -1.68356 0
M  V30 6916 O 650.504 0.107355 -1.93903 0
M  V30 6917 C 647.634 -0.224516 -3.46574 0
M  V30 6918 C 646.588 -1.18564 -4.1125 0
M  V30 6919 C 645.914 -0.484261 -5.32503 0
M  V30 6920 C 647.214 -2.53465 -4.56676 0
M  V30 6921 H 648.908 -1.68978 -2.47158 0
M  V30 6922 H 646.454 -0.813906 -1.18792 0
M  V30 6923 H 648.407 0.0139435 -4.21398 0
M  V30 6924 H 647.131 0.713722 -3.18706 0
M  V30 6925 H 645.79 -1.40966 -3.38414 0
M  V30 6926 H 645.438 0.458646 -5.00905 0
M  V30 6927 H 645.138 -1.12526 -5.76725 0
M  V30 6928 H 646.662 -0.254492 -6.10069 0
M  V30 6929 H 648.076 -2.35177 -5.22843 0
M  V30 6930 H 646.473 -3.13507 -5.11697 0
M  V30 6931 H 647.543 -3.13008 -3.70343 0
M  V30 6932 N 648.886 1.2938 -0.899927 0
M  V30 6933 C 649.796 2.31462 -0.382437 0
M  V30 6934 C 650.812 1.65956 0.522929 0
M  V30 6935 O 651.988 1.97131 0.412454 0
M  V30 6936 C 649.053 3.44595 0.381472 0
M  V30 6937 C 648.114 4.25692 -0.555444 0
M  V30 6938 C 647.347 5.33422 0.172102 0
M  V30 6939 O 647.57 5.53053 1.396 0
M  V30 6940 O 646.504 5.99939 -0.485491 0
M  V30 6941 H 650.33 2.77706 -1.22934 0
M  V30 6942 H 647.915 1.33821 -0.664259 0
M  V30 6943 H 649.797 4.13474 0.813442 0
M  V30 6944 H 648.472 3.00458 1.20443 0
M  V30 6945 H 647.379 3.59453 -1.03653 0
M  V30 6946 H 648.712 4.73471 -1.34483 0
M  V30 6947 N 650.364 0.662433 1.43002 0
M  V30 6948 C 651.296 -0.062326 2.29115 0
M  V30 6949 C 652.309 -0.777926 1.43011 0
M  V30 6950 O 653.498 -0.634146 1.66856 0
M  V30 6951 C 650.598 -1.11163 3.2015 0
M  V30 6952 C 649.771 -0.472327 4.34842 0
M  V30 6953 C 648.83 -1.41974 5.06685 0
M  V30 6954 O 647.856 -0.924795 5.61637 0
M  V30 6955 N 649.058 -2.75345 5.11043 0
M  V30 6956 H 651.823 0.676838 2.91957 0
M  V30 6957 H 649.384 0.505907 1.53793 0
M  V30 6958 H 651.376 -1.74643 3.65078 0
M  V30 6959 H 649.946 -1.75266 2.58845 0
M  V30 6960 H 649.166 0.341751 3.92716 0
M  V30 6961 H 650.454 -0.0264381 5.08793 0
M  V30 6962 H 649.852 -3.18108 4.67786 0
M  V30 6963 H 648.409 -3.34105 5.59658 0
M  V30 6964 N 651.842 -1.52309 0.404946 0
M  V30 6965 C 652.805 -2.25491 -0.410651 0
M  V30 6966 C 653.805 -1.27704 -0.977154 0
M  V30 6967 O 654.995 -1.51679 -0.856691 0
M  V30 6968 C 652.127 -3.02197 -1.57765 0
M  V30 6969 H 653.32 -2.99015 0.230277 0
M  V30 6970 H 650.873 -1.55506 0.157377 0
M  V30 6971 H 651.608 -2.33013 -2.25556 0
M  V30 6972 H 651.393 -3.73987 -1.17797 0
M  V30 6973 H 652.883 -3.57719 -2.15469 0
M  V30 6974 N 653.32 -0.135238 -1.57019 0
M  V30 6975 C 654.253 0.846618 -2.11914 0
M  V30 6976 C 655.231 1.25019 -1.03966 0
M  V30 6977 O 656.415 1.34838 -1.31723 0
M  V30 6978 C 653.542 2.1352 -2.6292 0
M  V30 6979 C 652.588 1.87846 -3.82905 0
M  V30 6980 S 653.421 1.08005 -5.24495 0
M  V30 6981 C 654.577 2.38008 -5.78881 0
M  V30 6982 H 654.81 0.379752 -2.94865 0
M  V30 6983 H 652.343 0.0788387 -1.54199 0
M  V30 6984 H 654.301 2.87551 -2.92958 0
M  V30 6985 H 652.962 2.57323 -1.80121 0
M  V30 6986 H 652.155 2.83365 -4.16797 0
M  V30 6987 H 651.757 1.21929 -3.53567 0
M  V30 6988 H 654.049 3.33742 -5.89595 0
M  V30 6989 H 654.992 2.08638 -6.76665 0
M  V30 6990 H 655.4 2.48119 -5.07048 0
M  V30 6991 N 654.798 1.5699 0.138552 0
M  V30 6992 C 655.728 2.01933 1.17241 0
M  V30 6993 C 656.709 0.90033 1.44319 0
M  V30 6994 O 657.894 1.16872 1.55095 0
M  V30 6995 C 655.024 2.40711 2.50351 0
M  V30 6996 C 653.978 3.55874 2.37776 0
M  V30 6997 C 653.304 3.80491 3.75674 0
M  V30 6998 C 654.604 4.8826 1.85472 0
M  V30 6999 H 656.298 2.88551 0.798672 0
M  V30 7000 H 653.844 1.3882 0.382743 0
M  V30 7001 H 655.797 2.70754 3.22909 0
M  V30 7002 H 654.521 1.5104 2.89576 0
M  V30 7003 H 653.18 3.2601 1.67669 0
M  V30 7004 H 652.828 2.88057 4.12349 0
M  V30 7005 H 652.528 4.57998 3.68119 0
M  V30 7006 H 654.052 4.12967 4.49767 0
M  V30 7007 H 655.466 5.16965 2.4783 0
M  V30 7008 H 653.863 5.69631 1.88787 0
M  V30 7009 H 654.933 4.78071 0.810935 0
M  V30 7010 N 656.276 -0.40816 1.52223 0
M  V30 7011 C 657.553 -1.16807 1.56893 0
M  V30 7012 C 657.933 -2.08169 0.350537 0
M  V30 7013 O 657.281 -2.18684 -0.662536 0
M  V30 7014 C 657.491 -1.94451 2.8981 0
M  V30 7015 C 658.839 -2.50484 3.42845 0
M  V30 7016 O 659.863 -2.0463 2.91556 0
M  V30 7017 O 658.722 -3.34192 4.3241 0
M  V30 7018 H 655.816 -0.533382 0.632007 0
M  V30 7019 H 658.362 -0.414862 1.64551 0
M  V30 7020 H 657.134 -1.27527 3.69936 0
M  V30 7021 H 656.757 -2.76775 2.85449 0
M  V30 7022 N 657.755 -1.42862 -0.66545 0
M  V30 7023 C 658.718 -1.46756 -1.76055 0
M  V30 7024 C 659.718 -0.353866 -1.56858 0
M  V30 7025 O 660.908 -0.615099 -1.62979 0
M  V30 7026 C 658.04 -1.30829 -3.14796 0
M  V30 7027 H 659.233 -2.44271 -1.73987 0
M  V30 7028 H 656.786 -1.29447 -0.875965 0
M  V30 7029 H 657.521 -0.342733 -3.22484 0
M  V30 7030 H 657.306 -2.11551 -3.30134 0
M  V30 7031 H 658.796 -1.36458 -3.94676 0
M  V30 7032 N 659.233 0.902656 -1.29189 0
M  V30 7033 C 660.163 2.02294 -1.16616 0
M  V30 7034 C 661.144 1.6999 -0.0611175 0
M  V30 7035 O 662.329 1.9271 -0.240072 0
M  V30 7036 C 659.459 3.37018 -0.83882 0
M  V30 7037 C 658.413 3.83522 -1.89986 0
M  V30 7038 C 657.739 5.15337 -1.42589 0
M  V30 7039 C 659.039 4.04169 -3.30824 0
M  V30 7040 H 660.733 2.13071 -2.10336 0
M  V30 7041 H 658.279 1.02378 -1.01266 0
M  V30 7042 H 660.232 4.14895 -0.737584 0
M  V30 7043 H 658.956 3.26325 0.134071 0
M  V30 7044 H 657.615 3.07859 -1.99043 0
M  V30 7045 H 657.263 5.01056 -0.441759 0
M  V30 7046 H 656.963 5.47423 -2.13547 0
M  V30 7047 H 658.487 5.95758 -1.3381 0
M  V30 7048 H 659.901 4.72537 -3.24626 0
M  V30 7049 H 658.298 4.47604 -3.99713 0
M  V30 7050 H 659.368 3.08604 -3.74021 0
M  V30 7051 N 660.711 1.11618 1.11262 0
M  V30 7052 C 661.957 0.867463 1.83311 0
M  V30 7053 C 662.29 -0.605366 1.84524 0
M  V30 7054 O 661.565 -1.44704 1.29965 0
M  V30 7055 C 661.848 1.43207 3.30399 0
M  V30 7056 C 661.701 2.97265 3.3757 0
M  V30 7057 C 663.02 1.08454 4.26528 0
M  V30 7058 H 660.139 0.316578 0.665543 0
M  V30 7059 H 662.781 1.38137 1.30454 0
M  V30 7060 H 660.931 0.994982 3.75543 0
M  V30 7061 H 662.603 3.49591 3.00971 0
M  V30 7062 H 660.846 3.33237 2.77733 0
M  V30 7063 H 661.517 3.31859 4.41105 0
M  V30 7064 H 663.993 1.4619 3.89574 0
M  V30 7065 H 662.869 1.50633 5.27826 0
M  V30 7066 H 663.13 -0.00444568 4.421 0
M  V30 7067 N 662.189 -1.289 0.906776 0
M  V30 7068 C 663.122 -2.25737 0.334362 0
M  V30 7069 C 664.1 -1.52745 -0.557474 0
M  V30 7070 O 665.284 -1.81673 -0.502697 0
M  V30 7071 C 662.411 -3.34642 -0.522716 0
M  V30 7072 C 661.457 -4.25424 0.302777 0
M  V30 7073 S 662.29 -5.07629 1.70508 0
M  V30 7074 C 663.446 -6.20031 0.855118 0
M  V30 7075 H 663.679 -2.73941 1.15514 0
M  V30 7076 H 661.212 -1.37233 0.707573 0
M  V30 7077 H 663.17 -3.97845 -1.01141 0
M  V30 7078 H 661.831 -2.85119 -1.31781 0
M  V30 7079 H 661.024 -5.02767 -0.352257 0
M  V30 7080 H 660.626 -3.66908 0.724873 0
M  V30 7081 H 662.918 -6.77451 0.0816418 0
M  V30 7082 H 663.861 -6.89767 1.60087 0
M  V30 7083 H 664.269 -5.63035 0.406375 0
M  V30 7084 N 663.667 -0.670007 -1.42649 0
M  V30 7085 C 664.944 -0.119451 -1.95235 0
M  V30 7086 C 665.324 1.36461 -1.61064 0
M  V30 7087 O 664.672 2.09843 -0.904329 0
M  V30 7088 C 664.882 -0.383498 -3.46887 0
M  V30 7089 C 666.23 -0.297431 -4.23557 0
M  V30 7090 O 667.254 -0.31698 -3.54787 0
M  V30 7091 O 666.113 -0.235507 -5.45992 0
M  V30 7092 H 663.207 -8.85474e-05 -0.827 0
M  V30 7093 H 665.753 -0.744406 -1.52501 0
M  V30 7094 H 664.525 -1.41174 -3.64946 0
M  V30 7095 H 664.148 0.273702 -3.96657 0
M  V30 7096 N 665.145 1.52092 -0.413018 0
M  V30 7097 C 666.561 1.59471 -0.0640836 0
M  V30 7098 C 666.761 1.42562 1.42402 0
M  V30 7099 O 665.817 1.25453 2.19129 0
M  V30 7100 C 667.13 2.95392 -0.562474 0
M  V30 7101 C 668.678 3.08637 -0.520788 0
M  V30 7102 C 669.153 4.47044 -0.995752 0
M  V30 7103 N 670.644 4.53296 -0.952732 0
M  V30 7104 C 671.379 5.58669 -1.29138 0
M  V30 7105 N 670.875 6.71576 -1.70168 0
M  V30 7106 N 672.668 5.48898 -1.2111 0
M  V30 7107 H 664.819 1.6133 -1.38153 0
M  V30 7108 H 667.082 0.75916 -0.567785 0
M  V30 7109 H 666.788 3.13059 -1.60271 0
M  V30 7110 H 666.662 3.77191 0.0257875 0
M  V30 7111 H 669.049 2.90652 0.510412 0
M  V30 7112 H 669.13 2.28735 -1.14515 0
M  V30 7113 H 668.774 4.65773 -2.0253 0
M  V30 7114 H 668.704 5.25448 -0.348162 0
M  V30 7115 H 671.195 3.72248 -0.651119 0
M  V30 7116 H 671.508 7.47973 -1.9431 0
M  V30 7117 H 669.853 6.72847 -1.74075 0
M  V30 7118 H 673.044 4.59573 -0.889396 0
M  V30 7119 H 673.217 6.30912 -1.47833 0
M  V30 7120 N 666.623 0.143563 1.56945 0
M  V30 7121 C 667.869 -0.50916 1.96304 0
M  V30 7122 C 668.202 -1.64741 1.0283 0
M  V30 7123 O 667.477 -1.94374 0.0700361 0
M  V30 7124 C 667.76 -1.0186 3.45393 0
M  V30 7125 C 667.613 0.117923 4.49645 0
M  V30 7126 C 668.932 -1.90151 3.96901 0
M  V30 7127 H 666.051 -0.183608 0.713763 0
M  V30 7128 H 668.693 0.224095 1.88674 0
M  V30 7129 H 666.843 -1.64345 3.52027 0
M  V30 7130 H 668.515 0.754145 4.55094 0
M  V30 7131 H 666.758 0.777568 4.26774 0
M  V30 7132 H 667.429 -0.280187 5.51288 0
M  V30 7133 H 669.905 -1.375 3.92725 0
M  V30 7134 H 668.781 -2.22707 5.0169 0
M  V30 7135 H 669.042 -2.83718 3.39052 0
M  V30 7136 N 668.101 -1.57061 -0.130224 0
M  V30 7137 C 669.064 -1.98593 -1.14426 0
M  V30 7138 C 670.064 -0.874584 -1.34936 0
M  V30 7139 O 671.254 -1.14086 -1.31643 0
M  V30 7140 C 668.386 -2.31639 -2.50112 0
M  V30 7141 H 669.579 -2.89374 -0.787561 0
M  V30 7142 H 667.132 -1.51756 -0.374146 0
M  V30 7143 H 667.867 -1.43703 -2.90723 0
M  V30 7144 H 667.652 -3.12684 -2.36583 0
M  V30 7145 H 669.142 -2.64551 -3.23114 0
M  V30 7146 N 669.579 0.400081 -1.52437 0
M  V30 7147 C 670.826 1.14619 -1.6694 0
M  V30 7148 C 671.154 1.90262 -0.403797 0
M  V30 7149 O 670.409 1.85835 0.61351 0
M  V30 7150 C 670.708 2.15914 -2.84808 0
M  V30 7151 C 670.374 1.57011 -4.2268 0
M  V30 7152 C 669.036 1.40672 -4.60179 0
M  V30 7153 C 671.388 1.14081 -5.08562 0
M  V30 7154 C 668.716 0.799335 -5.81229 0
M  V30 7155 C 671.068 0.547573 -6.30226 0
M  V30 7156 C 669.732 0.371389 -6.66466 0
M  V30 7157 H 669.002 0.419419 -0.610875 0
M  V30 7158 H 671.649 0.432227 -1.86558 0
M  V30 7159 H 669.954 2.93488 -2.59561 0
M  V30 7160 H 671.651 2.73533 -2.93225 0
M  V30 7161 H 668.241 1.70713 -3.93135 0
M  V30 7162 H 672.425 1.2551 -4.80168 0
M  V30 7163 H 667.681 0.65093 -6.07925 0
M  V30 7164 H 671.855 0.206575 -6.96094 0
M  V30 7165 H 669.482 -0.10135 -7.60132 0
M  V30 7166 N 671.057 1.43213 0.657864 0
M  V30 7167 C 672.303 1.44798 1.41991 0
M  V30 7168 C 672.636 0.070256 1.94073 0
M  V30 7169 O 671.911 -0.908177 1.71995 0
M  V30 7170 C 672.194 2.4865 2.60471 0
M  V30 7171 C 672.047 3.95679 2.13911 0
M  V30 7172 C 673.366 2.49292 3.62686 0
M  V30 7173 H 670.485 0.527244 0.514959 0
M  V30 7174 H 673.127 1.74733 0.74621 0
M  V30 7175 H 671.277 2.23254 3.17946 0
M  V30 7176 H 672.949 4.32116 1.61472 0
M  V30 7177 H 671.192 4.08733 1.45325 0
M  V30 7178 H 671.863 4.6395 2.99089 0
M  V30 7179 H 674.339 2.71917 3.14961 0
M  V30 7180 H 673.215 3.23907 4.43143 0
M  V30 7181 H 673.476 1.52502 4.14964 0
M  V30 7182 N 672.536 -0.895792 1.29666 0
M  V30 7183 C 673.483 -2.00035 1.15129 0
M  V30 7184 C 674.453 -1.66043 0.0435819 0
M  V30 7185 O 675.638 -1.89621 0.211811 0
M  V30 7186 C 672.778 -3.34774 0.83787 0
M  V30 7187 C 671.891 -3.81525 2.0264 0
M  V30 7188 C 671.026 -5.04858 1.65201 0
M  V30 7189 C 670.065 -5.43988 2.80612 0
M  V30 7190 N 669.202 -6.58507 2.43544 0
M  V30 7191 H 674.042 -2.11802 2.09628 0
M  V30 7192 H 671.579 -1.03719 1.04311 0
M  V30 7193 H 673.537 -4.12311 0.636824 0
M  V30 7194 H 672.167 -3.22724 -0.0702314 0
M  V30 7195 H 671.219 -2.9999 2.33903 0
M  V30 7196 H 672.531 -4.06472 2.89106 0
M  V30 7197 H 671.685 -5.8999 1.41408 0
M  V30 7198 H 670.424 -4.81759 0.758893 0
M  V30 7199 H 669.429 -4.57388 3.05083 0
M  V30 7200 H 670.654 -5.69066 3.70595 0
M  V30 7201 H 668.6 -6.37004 1.56724 0
M  V30 7202 H 668.517 -6.83269 3.23542 0
M  V30 7203 H 669.785 -7.46897 2.2308 0
M  V30 7204 N 674.014 -1.12206 -1.10668 0
M  V30 7205 C 674.944 -0.810086 -2.18997 0
M  V30 7206 C 675.925 0.225065 -1.68604 0
M  V30 7207 O 677.11 0.086783 -1.94006 0
M  V30 7208 C 674.24 -0.261262 -3.46316 0
M  V30 7209 C 673.194 -1.2292 -4.09969 0
M  V30 7210 C 672.52 -0.540713 -5.31959 0
M  V30 7211 C 673.82 -2.58295 -4.53962 0
M  V30 7212 H 675.514 -1.7159 -2.45352 0
M  V30 7213 H 673.06 -0.82646 -1.17922 0
M  V30 7214 H 675.013 -0.0307522 -4.21389 0
M  V30 7215 H 673.737 0.679879 -3.19445 0
M  V30 7216 H 672.396 -1.44548 -3.369 0
M  V30 7217 H 672.044 0.405492 -5.01363 0
M  V30 7218 H 671.744 -1.18637 -5.75499 0
M  V30 7219 H 673.268 -0.319184 -6.09765 0
M  V30 7220 H 674.682 -2.40709 -5.20319 0
M  V30 7221 H 673.079 -3.18916 -5.08343 0
M  V30 7222 H 674.149 -3.16918 -3.67002 0
M  V30 7223 N 675.492 1.28418 -0.913599 0
M  V30 7224 C 676.422 2.29713 -0.418847 0
M  V30 7225 C 677.403 1.62165 0.513469 0
M  V30 7226 O 678.588 1.89576 0.421235 0
M  V30 7227 C 675.718 3.45612 0.342042 0
M  V30 7228 C 674.672 4.25056 -0.501123 0
M  V30 7229 C 673.998 5.3329 0.388097 0
M  V30 7230 C 675.298 4.91814 -1.75831 0
M  V30 7231 H 676.992 2.71346 -1.26538 0
M  V30 7232 H 674.538 1.30446 -0.609903 0
M  V30 7233 H 676.491 4.15562 0.699 0
M  V30 7234 H 675.215 3.02858 1.22248 0
M  V30 7235 H 673.874 3.56833 -0.840598 0
M  V30 7236 H 673.522 4.8678 1.26707 0
M  V30 7237 H 673.222 5.87347 -0.172459 0
M  V30 7238 H 674.746 6.06088 0.74094 0
M  V30 7239 H 676.16 5.54126 -1.47026 0
M  V30 7240 H 674.557 5.55866 -2.26126 0
M  V30 7241 H 675.627 4.16313 -2.4862 0
M  V30 7242 N 676.97 0.677563 1.42291 0
M  V30 7243 C 678.219 0.198173 2.00724 0
M  V30 7244 C 678.532 -1.20325 1.54211 0
M  V30 7245 O 679.738 -1.77916 2.05081 0
M  V30 7246 C 678.194 0.303432 3.58619 0
M  V30 7247 C 677.802 1.70909 4.14119 0
M  V30 7248 C 679.546 -0.117103 4.24338 0
M  V30 7249 C 677.453 1.76696 5.64387 0
M  V30 7250 H 676.383 0.070329 0.750713 0
M  V30 7251 H 679.034 0.843147 1.62982 0
M  V30 7252 H 677.416 -0.409482 3.93877 0
M  V30 7253 H 678.59 2.44931 3.90315 0
M  V30 7254 H 676.905 2.07771 3.6086 0
M  V30 7255 H 679.502 -0.0940471 5.34617 0
M  V30 7256 H 679.845 -1.15283 4.00019 0
M  V30 7257 H 680.378 0.5449 3.9405 0
M  V30 7258 H 677.117 2.7826 5.93508 0
M  V30 7259 H 676.637 1.07034 5.90173 0
M  V30 7260 H 678.316 1.52166 6.28852 0
M  V30 7261 N 678.448 -1.51871 0.421078 0
M  V30 7262 C 679.358 -2.31077 -0.405069 0
M  V30 7263 C 680.374 -1.39301 -1.04265 0
M  V30 7264 O 681.55 -1.72376 -1.04157 0
M  V30 7265 C 678.615 -3.12556 -1.50032 0
M  V30 7266 C 677.676 -4.20088 -0.884559 0
M  V30 7267 C 676.909 -4.97673 -1.92762 0
M  V30 7268 O 677.132 -4.75696 -3.14753 0
M  V30 7269 O 676.066 -5.82203 -1.52719 0
M  V30 7270 H 679.892 -3.02742 0.241086 0
M  V30 7271 H 677.477 -1.48263 0.183991 0
M  V30 7272 H 679.359 -3.6326 -2.13589 0
M  V30 7273 H 678.034 -2.43672 -2.13086 0
M  V30 7274 H 676.941 -3.73502 -0.211379 0
M  V30 7275 H 678.274 -4.91298 -0.297763 0
M  V30 7276 N 679.926 -0.151884 -1.56866 0
M  V30 7277 C 680.874 0.80299 -2.183 0
M  V30 7278 C 681.868 1.25174 -1.14139 0
M  V30 7279 O 683.074 1.21966 -1.3238 0
M  V30 7280 H 679.449 0.277169 -0.699057 0
M  V30 7281 H 681.42 0.260699 -2.97259 0
M  V30 7282 C 680.169 2.03009 -2.82281 0
M  V30 7283 H 679.492 1.69377 -3.62148 0
M  V30 7284 H 680.932 2.67753 -3.28762 0
M  V30 7285 C 679.391 2.84123 -1.81041 0
M  V30 7286 O 679.921 3.8063 -1.28388 0
M  V30 7287 N 678.127 2.48753 -1.50234 0
M  V30 7288 H 677.674 1.70337 -1.93244 0
M  V30 7289 H 677.632 3.03316 -0.827445 0
M  V30 7290 N 681.404 1.57128 0.121893 0
M  V30 7291 C 682.652 1.84335 0.828548 0
M  V30 7292 C 682.973 0.736632 1.80551 0
M  V30 7293 O 682.243 -0.23962 1.94429 0
M  V30 7294 H 680.823 0.680108 0.30897 0
M  V30 7295 H 683.485 1.9459 0.109906 0
M  V30 7296 H 682.581 2.80152 1.37554 0
M  V30 7297 N 682.882 -0.391992 1.52647 0
M  V30 7298 C 684.128 -1.139 1.67793 0
M  V30 7299 C 684.461 -1.89711 0.41514 0
M  V30 7300 O 683.736 -1.85431 -0.586979 0
M  V30 7301 C 684.019 -2.11966 2.91105 0
M  V30 7302 C 683.872 -1.39939 4.27478 0
M  V30 7303 C 685.191 -3.1243 3.09961 0
M  V30 7304 H 682.31 -0.412707 0.610608 0
M  V30 7305 H 684.952 -0.422725 1.85238 0
M  V30 7306 H 683.102 -2.73048 2.76364 0
M  V30 7307 H 684.774 -0.818439 4.53982 0
M  V30 7308 H 683.017 -0.701246 4.28095 0
M  V30 7309 H 683.688 -2.1158 5.09841 0
M  V30 7310 H 686.164 -2.61435 3.23714 0
M  V30 7311 H 685.04 -3.78294 3.97725 0
M  V30 7312 H 685.301 -3.81127 2.24042 0
M  V30 7313 N 684.36 -1.4356 -0.65026 0
M  V30 7314 C 685.585 -1.48995 -1.44275 0
M  V30 7315 C 686.01 -0.109954 -1.87778 0
M  V30 7316 O 685.368 0.896926 -1.57559 0
M  V30 7317 C 685.416 -2.44341 -2.65198 0
M  V30 7318 O 684.52 -1.93172 -3.6436 0
M  V30 7319 H 683.861 -0.503852 -0.432469 0
M  V30 7320 H 686.391 -1.88504 -0.795446 0
M  V30 7321 H 686.401 -2.61743 -3.12977 0
M  V30 7322 H 685.076 -3.44588 -2.32877 0
M  V30 7323 H 683.653 -1.85445 -3.23519 0
M  V30 7324 N 685.838 0.888903 -1.30139 0
M  V30 7325 C 686.771 1.99655 -1.10514 0
M  V30 7326 C 687.749 1.62594 -0.0138934 0
M  V30 7327 O 688.933 1.87762 -0.166689 0
M  V30 7328 C 686.06 3.31708 -0.684655 0
M  V30 7329 C 685.106 3.87755 -1.77619 0
M  V30 7330 S 685.939 4.15532 -3.37777 0
M  V30 7331 C 687.095 5.5061 -2.97622 0
M  V30 7332 H 687.328 2.15996 -2.04287 0
M  V30 7333 H 684.861 1.03682 -1.14409 0
M  V30 7334 H 686.819 4.08039 -0.448782 0
M  V30 7335 H 685.48 3.1323 0.233648 0
M  V30 7336 H 684.673 4.83164 -1.43417 0
M  V30 7337 H 684.275 3.18149 -1.96614 0
M  V30 7338 H 686.567 6.31518 -2.45338 0
M  V30 7339 H 687.51 5.89747 -3.91924 0
M  V30 7340 H 687.918 5.12983 -2.35603 0
M  V30 7341 N 687.317 1.12792 1.10072 0
M  V30 7342 C 688.267 0.768086 2.14673 0
M  V30 7343 C 689.251 -0.234716 1.59179 0
M  V30 7344 O 690.443 -0.039643 1.76956 0
M  V30 7345 C 687.572 0.228472 3.42539 0
M  V30 7346 C 686.658 1.25979 4.04957 0
M  V30 7347 N 687.049 2.4586 4.42025 0
M  V30 7348 C 685.347 1.10602 4.32069 0
M  V30 7349 C 686.048 3.11747 4.9111 0
M  V30 7350 N 685.024 2.39185 4.88151 0
M  V30 7351 H 688.826 1.68029 2.4113 0
M  V30 7352 H 686.34 1.00925 1.27232 0
M  V30 7353 H 688.337 -0.0475216 4.16873 0
M  V30 7354 H 686.997 -0.678136 3.1754 0
M  V30 7355 H 688.008 2.83215 4.33601 0
M  V30 7356 H 684.685 0.257021 4.16708 0
M  V30 7357 H 686.075 4.13862 5.29309 0
M  V30 7358 N 688.795 -1.27931 0.920396 0
M  V30 7359 C 689.742 -2.27085 0.412422 0
M  V30 7360 C 690.712 -1.57858 -0.516725 0
M  V30 7361 O 691.897 -1.85717 -0.437475 0
M  V30 7362 C 689.037 -3.43466 -0.335399 0
M  V30 7363 C 688.15 -4.27425 0.627017 0
M  V30 7364 C 687.285 -5.31016 -0.139916 0
M  V30 7365 C 686.324 -6.06641 0.815683 0
M  V30 7366 N 685.461 -7.02052 0.0818439 0
M  V30 7367 H 690.301 -2.69913 1.26298 0
M  V30 7368 H 687.838 -1.32732 0.634076 0
M  V30 7369 H 689.796 -4.09744 -0.785226 0
M  V30 7370 H 688.426 -3.01611 -1.15025 0
M  V30 7371 H 687.478 -3.6113 1.19537 0
M  V30 7372 H 688.79 -4.79969 1.35763 0
M  V30 7373 H 687.944 -6.03208 -0.649998 0
M  V30 7374 H 686.683 -4.79257 -0.903543 0
M  V30 7375 H 685.688 -5.33294 1.33708 0
M  V30 7376 H 686.913 -6.60489 1.57897 0
M  V30 7377 H 684.859 -6.52634 -0.663671 0
M  V30 7378 H 684.776 -7.52249 0.752163 0
M  V30 7379 H 686.044 -7.78432 -0.407825 0
M  V30 7380 N 690.273 -0.685099 -1.4193 0
M  V30 7381 C 691.52 -0.211658 -2.01391 0
M  V30 7382 C 691.848 1.18526 -1.54214 0
M  V30 7383 O 691.103 1.81189 -0.739519 0
M  V30 7384 C 691.402 -0.206154 -3.56805 0
M  V30 7385 C 691.068 -1.54915 -4.23453 0
M  V30 7386 C 689.73 -1.91684 -4.41373 0
M  V30 7387 C 692.082 -2.43317 -4.60919 0
M  V30 7388 C 689.41 -3.16461 -4.94034 0
M  V30 7389 C 691.762 -3.67415 -5.14965 0
M  V30 7390 C 690.426 -4.04341 -5.31098 0
M  V30 7391 H 689.696 -0.0774511 -0.736941 0
M  V30 7392 H 692.343 -0.882121 -1.69973 0
M  V30 7393 H 690.648 0.547841 -3.87951 0
M  V30 7394 H 692.345 0.17753 -4.00607 0
M  V30 7395 H 688.935 -1.25314 -4.09871 0
M  V30 7396 H 693.119 -2.16192 -4.46738 0
M  V30 7397 H 688.375 -3.45078 -5.04709 0
M  V30 7398 H 692.549 -4.3611 -5.42938 0
M  V30 7399 H 690.176 -5.01101 -5.71666 0
M  V30 7400 N 691.751 1.51645 -0.429126 0
M  V30 7401 C 692.681 2.30434 0.377148 0
M  V30 7402 C 693.662 1.35493 1.02838 0
M  V30 7403 O 694.847 1.6441 1.03359 0
M  V30 7404 C 691.977 3.14038 1.48315 0
M  V30 7405 C 690.931 4.1719 0.955855 0
M  V30 7406 C 690.257 4.89263 2.15698 0
M  V30 7407 C 691.557 5.223 -0.00402136 0
M  V30 7408 H 693.251 2.98085 -0.280336 0
M  V30 7409 H 690.797 1.43354 -0.136265 0
M  V30 7410 H 692.75 3.67933 2.05435 0
M  V30 7411 H 691.474 2.44193 2.16881 0
M  V30 7412 H 690.133 3.64335 0.406929 0
M  V30 7413 H 689.781 4.15929 2.82864 0
M  V30 7414 H 689.481 5.59009 1.81059 0
M  V30 7415 H 691.005 5.45978 2.73387 0
M  V30 7416 H 692.419 5.71315 0.476607 0
M  V30 7417 H 690.816 5.99525 -0.26258 0
M  V30 7418 H 691.886 4.75638 -0.943236 0
M  V30 7419 N 693.229 0.160201 1.56784 0
M  V30 7420 C 694.457 -0.494165 2.00912 0
M  V30 7421 C 694.872 -1.57548 1.04038 0
M  V30 7422 O 694.229 -1.82457 0.0394581 0
M  V30 7423 C 694.28 -1.08271 3.44905 0
M  V30 7424 O 694.001 -0.0445704 4.38077 0
M  V30 7425 C 695.502 -1.8164 4.04378 0
M  V30 7426 H 692.722 -0.127498 0.658776 0
M  V30 7427 H 695.266 0.258665 2.02858 0
M  V30 7428 H 693.421 -1.78609 3.4377 0
M  V30 7429 H 693.835 -0.477544 5.22322 0
M  V30 7430 H 695.309 -2.18094 5.07089 0
M  V30 7431 H 695.786 -2.70727 3.45838 0
M  V30 7432 H 696.392 -1.15969 4.09184 0
M  V30 7433 N 694.707 -1.5719 -0.113559 0
M  V30 7434 C 695.956 -1.84325 -0.818984 0
M  V30 7435 C 696.269 -0.746685 -1.80787 0
M  V30 7436 O 697.475 -0.904596 -2.55987 0
M  V30 7437 C 695.931 -3.26818 -1.50724 0
M  V30 7438 C 695.539 -4.44498 -0.559065 0
M  V30 7439 C 697.283 -3.63196 -2.19748 0
M  V30 7440 C 695.19 -5.7802 -1.25086 0
M  V30 7441 H 694.12 -0.687507 -0.309596 0
M  V30 7442 H 696.771 -1.8336 -0.0717621 0
M  V30 7443 H 695.153 -3.22269 -2.30128 0
M  V30 7444 H 696.327 -4.60356 0.202146 0
M  V30 7445 H 694.642 -4.16393 0.024495 0
M  V30 7446 H 697.239 -4.60226 -2.72206 0
M  V30 7447 H 697.582 -2.90899 -2.97798 0
M  V30 7448 H 698.115 -3.69553 -1.47226 0
M  V30 7449 H 694.854 -6.53501 -0.511539 0
M  V30 7450 H 694.374 -5.66038 -1.98395 0
M  V30 7451 H 696.053 -6.2196 -1.78253 0
M  V30 7452 N 696.185 0.383891 -1.52853 0
M  V30 7453 C 697.596 0.961591 -1.60032 0
M  V30 7454 C 697.947 1.90819 -0.456333 0
M  V30 7455 O 697.072 2.12288 0.419873 0
M  V30 7456 C 697.667 1.75078 -2.90057 0
M  V30 7457 C 696.226 2.2781 -2.99632 0
M  V30 7458 C 695.373 1.08512 -2.55187 0
M  V30 7459 H 698.324 0.163269 -1.57858 0
M  V30 7460 H 698.345 2.61046 -2.7683 0
M  V30 7461 H 697.857 1.06157 -3.73299 0
M  V30 7462 H 695.958 3.00028 -2.20939 0
M  V30 7463 H 696.071 2.56947 -4.0437 0
M  V30 7464 H 694.435 1.44667 -2.09627 0
M  V30 7465 H 695.218 0.41118 -3.40829 0
M  V30 7466 N 697.663 1.43903 0.642637 0
M  V30 7467 C 699.079 1.27536 0.959519 0
M  V30 7468 C 699.279 0.202751 2.00477 0
M  V30 7469 O 698.335 -0.415256 2.49062 0
M  V30 7470 C 699.648 2.6432 1.43372 0
M  V30 7471 C 701.196 2.71937 1.54981 0
M  V30 7472 C 701.671 4.09164 2.05789 0
M  V30 7473 N 703.162 4.11282 2.13076 0
M  V30 7474 C 703.897 5.14303 2.53534 0
M  V30 7475 N 703.393 6.27693 2.93212 0
M  V30 7476 N 705.186 5.01657 2.53567 0
M  V30 7477 H 697.337 2.12344 -0.0488376 0
M  V30 7478 H 699.6 0.947124 0.0407559 0
M  V30 7479 H 699.306 3.43826 0.740048 0
M  V30 7480 H 699.18 2.90432 2.40685 0
M  V30 7481 H 701.567 1.92757 2.23448 0
M  V30 7482 H 701.648 2.49578 0.560739 0
M  V30 7483 H 701.292 4.88815 1.37921 0
M  V30 7484 H 701.222 4.28893 3.05546 0
M  V30 7485 H 703.713 3.2944 1.85143 0
M  V30 7486 H 704.026 7.02125 3.22863 0
M  V30 7487 H 702.371 6.31149 2.90991 0
M  V30 7488 H 705.562 4.12134 2.21952 0
M  V30 7489 H 705.735 5.82072 2.84774 0
M  V30 7490 N 699.141 -0.881989 1.30609 0
M  V30 7491 C 700.071 -2.00413 1.1982 0
M  V30 7492 C 701.052 -1.69871 0.0881538 0
M  V30 7493 O 702.237 -1.92304 0.2707 0
M  V30 7494 C 699.367 -3.35641 0.89233 0
M  V30 7495 C 698.321 -3.80451 1.96064 0
M  V30 7496 C 697.647 -5.13003 1.5077 0
M  V30 7497 C 698.947 -3.98855 3.37213 0
M  V30 7498 H 700.641 -2.09698 2.13699 0
M  V30 7499 H 698.187 -1.00754 1.02882 0
M  V30 7500 H 700.14 -4.13669 0.803497 0
M  V30 7501 H 698.864 -3.26497 -0.0821381 0
M  V30 7502 H 697.523 -3.04654 2.03916 0
M  V30 7503 H 697.171 -5.0029 0.521417 0
M  V30 7504 H 696.871 -5.43956 2.22229 0
M  V30 7505 H 698.395 -5.93554 1.43271 0
M  V30 7506 H 699.809 -4.67312 3.32103 0
M  V30 7507 H 698.206 -4.41188 4.06784 0
M  V30 7508 H 699.276 -3.02614 3.78883 0
M  V30 7509 N 700.619 -1.13374 -1.09472 0
M  V30 7510 C 701.529 -0.824029 -2.19652 0
M  V30 7511 C 702.545 0.19118 -1.72947 0
M  V30 7512 O 703.721 0.0223464 -2.01388 0
M  V30 7513 C 700.786 -0.294009 -3.45451 0
M  V30 7514 C 699.847 -1.3704 -4.0684 0
M  V30 7515 C 699.08 -0.86558 -5.26634 0
M  V30 7516 O 699.303 0.29702 -5.69626 0
M  V30 7517 O 698.237 -1.63968 -5.79136 0
M  V30 7518 H 702.063 -1.74454 -2.48595 0
M  V30 7519 H 699.648 -0.911155 -1.18399 0
M  V30 7520 H 701.53 -0.00381039 -4.214 0
M  V30 7521 H 700.205 0.598921 -3.18111 0
M  V30 7522 H 699.112 -1.71391 -3.3253 0
M  V30 7523 H 700.445 -2.23746 -4.38405 0
M  V30 7524 N 702.098 1.27442 -0.927168 0
M  V30 7525 C 703.008 2.30599 -0.431448 0
M  V30 7526 C 704.024 1.67028 0.48761 0
M  V30 7527 O 705.2 1.97962 0.370546 0
M  V30 7528 C 702.265 3.45327 0.308292 0
M  V30 7529 C 701.326 4.24418 -0.645615 0
M  V30 7530 C 700.559 5.33667 0.0589164 0
M  V30 7531 O 700.782 5.5589 1.27838 0
M  V30 7532 O 699.716 5.98774 -0.612638 0
M  V30 7533 H 703.542 2.75036 -1.28797 0
M  V30 7534 H 701.127 1.32382 -0.692495 0
M  V30 7535 H 703.009 4.15107 0.725555 0
M  V30 7536 H 701.684 3.02945 1.14043 0
M  V30 7537 H 700.591 3.57174 -1.11255 0
M  V30 7538 H 701.924 4.70512 -1.44496 0
M  V30 7539 N 703.576 0.692616 1.41565 0
M  V30 7540 C 704.506 0.0397325 2.33466 0
M  V30 7541 C 705.487 -0.770334 1.51657 0
M  V30 7542 O 706.672 -0.723903 1.80203 0
M  V30 7543 C 703.802 -0.899495 3.3545 0
M  V30 7544 C 702.756 -0.196738 4.27548 0
M  V30 7545 C 702.082 -1.25012 5.19881 0
M  V30 7546 C 703.382 0.935158 5.1386 0
M  V30 7547 H 705.076 0.807296 2.88311 0
M  V30 7548 H 702.622 0.389665 1.38628 0
M  V30 7549 H 704.575 -1.36545 3.98665 0
M  V30 7550 H 703.299 -1.69869 2.78948 0
M  V30 7551 H 701.958 0.249158 3.65752 0
M  V30 7552 H 701.606 -2.04177 4.59696 0
M  V30 7553 H 701.306 -0.784931 5.82334 0
M  V30 7554 H 702.83 -1.71665 5.85972 0
M  V30 7555 H 704.244 0.549619 5.70659 0
M  V30 7556 H 702.641 1.32726 5.85238 0
M  V30 7557 H 703.711 1.77613 4.512 0
M  V30 7558 N 705.054 -1.51416 0.437162 0
M  V30 7559 C 706.284 -2.06204 -0.127859 0
M  V30 7560 C 706.692 -1.30463 -1.37026 0
M  V30 7561 O 706.035 -0.357516 -1.80187 0
M  V30 7562 C 706.097 -3.55783 -0.515632 0
M  V30 7563 C 705.761 -4.52776 0.619937 0
M  V30 7564 C 706.758 -4.98031 1.49201 0
M  V30 7565 C 704.443 -4.95878 0.800618 0
M  V30 7566 C 706.437 -5.85061 2.52947 0
M  V30 7567 C 704.124 -5.82699 1.84135 0
M  V30 7568 C 705.122 -6.27188 2.70416 0
M  V30 7569 O 704.81 -7.12284 3.72702 0
M  V30 7570 H 704.542 -0.675903 -0.011442 0
M  V30 7571 H 707.096 -1.95977 0.614986 0
M  V30 7572 H 705.326 -3.63793 -1.31118 0
M  V30 7573 H 707.015 -3.93087 -1.01179 0
M  V30 7574 H 707.781 -4.65426 1.36395 0
M  V30 7575 H 703.66 -4.60792 0.138617 0
M  V30 7576 H 707.204 -6.19708 3.20325 0
M  V30 7577 H 703.101 -6.14717 1.9696 0
M  V30 7578 H 703.869 -7.30462 3.69281 0
M  V30 7579 N 706.532 -0.168513 -1.56696 0
M  V30 7580 C 707.48 0.779791 -2.19139 0
M  V30 7581 C 708.474 1.23957 -1.1546 0
M  V30 7582 O 709.68 1.20555 -1.33666 0
M  V30 7583 H 706.055 0.269739 -0.701958 0
M  V30 7584 H 708.026 0.229156 -2.97519 0
M  V30 7585 C 706.775 2.00003 -2.84419 0
M  V30 7586 H 706.098 1.65527 -3.63924 0
M  V30 7587 H 707.538 2.64251 -3.31583 0
M  V30 7588 C 705.997 2.82187 -1.84044 0
M  V30 7589 O 706.527 3.79247 -1.32418 0
M  V30 7590 N 704.733 2.47145 -1.52864 0
M  V30 7591 H 704.28 1.68277 -1.9504 0
M  V30 7592 H 704.238 3.02422 -0.859569 0
M  V30 7593 N 708.01 1.57248 0.105221 0
M  V30 7594 C 709.238 1.89768 0.82437 0
M  V30 7595 C 709.653 0.761192 1.72775 0
M  V30 7596 O 709.01 -0.267342 1.80531 0
M  V30 7597 C 709.061 3.2184 1.64625 0
M  V30 7598 O 708.782 4.31115 0.779217 0
M  V30 7599 C 710.283 3.68155 2.46935 0
M  V30 7600 H 707.503 0.628031 0.236259 0
M  V30 7601 H 710.047 2.04321 0.085485 0
M  V30 7602 H 708.202 3.08915 2.33775 0
M  V30 7603 H 708.616 5.06897 1.34745 0
M  V30 7604 H 710.09 4.6329 3.00111 0
M  V30 7605 H 710.567 2.95492 3.24932 0
M  V30 7606 H 711.173 3.83914 1.83002 0
M  V30 7607 N 709.488 -0.375779 1.53054 0
M  V30 7608 C 710.435 -1.45978 1.78771 0
M  V30 7609 C 711.405 -1.53625 0.631552 0
M  V30 7610 O 712.59 -1.69674 0.872667 0
M  V30 7611 C 709.73 -2.8305 1.97425 0
M  V30 7612 C 708.843 -2.84451 3.25134 0
M  V30 7613 C 707.978 -4.13034 3.34031 0
M  V30 7614 C 707.017 -4.08536 4.55812 0
M  V30 7615 N 706.154 -5.2875 4.61918 0
M  V30 7616 H 710.994 -1.23349 2.71273 0
M  V30 7617 H 708.531 -0.598147 1.3439 0
M  V30 7618 H 710.489 -3.62666 2.06225 0
M  V30 7619 H 709.119 -3.04101 1.0827 0
M  V30 7620 H 708.171 -1.97127 3.25338 0
M  V30 7621 H 709.483 -2.76998 4.14818 0
M  V30 7622 H 708.637 -5.0106 3.42087 0
M  V30 7623 H 707.376 -4.23226 2.42345 0
M  V30 7624 H 706.381 -3.18897 4.47867 0
M  V30 7625 H 707.606 -3.99955 5.48828 0
M  V30 7626 H 705.552 -5.39547 3.73129 0
M  V30 7627 H 705.469 -5.23426 5.45492 0
M  V30 7628 H 706.737 -6.18637 4.74245 0
M  V30 7629 N 710.966 -1.44241 -0.634997 0
M  V30 7630 C 711.898 -1.46793 -1.76024 0
M  V30 7631 C 712.911 -0.361781 -1.58729 0
M  V30 7632 O 714.1 -0.627297 -1.67114 0
M  V30 7633 C 711.2 -1.28248 -3.13697 0
M  V30 7634 C 710.373 -2.52038 -3.57485 0
M  V30 7635 C 709.432 -2.2845 -4.74022 0
M  V30 7636 O 708.458 -3.01915 -4.82531 0
M  V30 7637 N 709.66 -1.31264 -5.65464 0
M  V30 7638 H 712.425 -2.43797 -1.74307 0
M  V30 7639 H 709.986 -1.39631 -0.819438 0
M  V30 7640 H 711.978 -1.10321 -3.89373 0
M  V30 7641 H 710.548 -0.39623 -3.10079 0
M  V30 7642 H 709.768 -2.85268 -2.72059 0
M  V30 7643 H 711.056 -3.34382 -3.83492 0
M  V30 7644 H 710.454 -0.705817 -5.6128 0
M  V30 7645 H 709.011 -1.19316 -6.40786 0
M  V30 7646 N 712.444 0.87505 -1.31075 0
M  V30 7647 C 713.692 1.62447 -1.20231 0
M  V30 7648 C 714.013 1.93506 0.240888 0
M  V30 7649 O 713.283 1.57847 1.16022 0
M  V30 7650 H 711.863 0.602207 -0.441991 0
M  V30 7651 H 714.525 1.04788 -1.64334 0
M  V30 7652 H 713.621 2.57031 -1.77036 0
M  V30 7653 N 713.922 1.13953 1.08869 0
M  V30 7654 C 715.333 0.916649 1.62648 0
M  V30 7655 C 715.684 -0.545589 1.88462 0
M  V30 7656 O 714.809 -1.41351 1.63856 0
M  V30 7657 C 715.404 1.65751 2.95486 0
M  V30 7658 C 713.963 1.48034 3.46068 0
M  V30 7659 C 713.11 1.68305 2.20383 0
M  V30 7660 H 716.061 1.292 0.921572 0
M  V30 7661 H 716.082 1.11794 3.63707 0
M  V30 7662 H 715.594 2.72171 2.76667 0
M  V30 7663 H 713.695 0.439416 3.7 0
M  V30 7664 H 713.808 2.24719 4.23129 0
M  V30 7665 H 712.172 1.10833 2.29321 0
M  V30 7666 H 712.955 2.76057 2.04077 0
M  V30 7667 N 715.4 -1.26948 0.933913 0
M  V30 7668 C 716.628 -1.98186 0.59414 0
M  V30 7669 C 717.043 -1.69614 -0.829257 0
M  V30 7670 O 716.4 -0.960213 -1.55197 0
M  V30 7671 C 716.451 -3.52123 0.818026 0
M  V30 7672 O 716.172 -3.79698 2.18543 0
M  V30 7673 C 717.673 -4.40608 0.48781 0
M  V30 7674 H 714.893 -0.632305 0.224569 0
M  V30 7675 H 717.437 -1.61646 1.25263 0
M  V30 7676 H 715.592 -3.86851 0.206246 0
M  V30 7677 H 716.006 -4.7426 2.24005 0
M  V30 7678 H 717.48 -5.47606 0.695126 0
M  V30 7679 H 717.957 -4.35394 -0.576913 0
M  V30 7680 H 718.563 -4.11411 1.078 0
M  V30 7681 N 716.879 -0.700114 -1.41195 0
M  V30 7682 C 717.827 -0.0263301 -2.32585 0
M  V30 7683 C 718.821 0.763683 -1.51209 0
M  V30 7684 O 720.027 0.668793 -1.67114 0
M  V30 7685 H 716.402 0.0102869 -0.75193 0
M  V30 7686 H 718.373 -0.814087 -2.8708 0
M  V30 7687 C 717.122 0.892793 -3.36042 0
M  V30 7688 H 716.445 0.294306 -3.98715 0
M  V30 7689 H 717.885 1.33247 -4.02518 0
M  V30 7690 C 716.344 2.01109 -2.7029 0
M  V30 7691 O 716.874 3.10035 -2.55423 0
M  V30 7692 N 715.08 1.79015 -2.28915 0
M  V30 7693 H 714.627 0.904275 -2.41207 0
M  V30 7694 H 714.585 2.54022 -1.85257 0
M  V30 7695 N 718.357 1.51182 -0.445186 0
M  V30 7696 C 719.768 1.86693 0.0160999 0
M  V30 7697 C 720.119 1.36183 1.4124 0
M  V30 7698 O 719.244 0.715895 2.04215 0
M  V30 7699 C 719.839 3.38781 0.0359918 0
M  V30 7700 C 718.398 3.73799 0.441715 0
M  V30 7701 C 717.545 2.74947 -0.360511 0
M  V30 7702 H 720.496 1.44294 -0.660674 0
M  V30 7703 H 720.517 3.71026 0.843813 0
M  V30 7704 H 720.029 3.75513 -0.980378 0
M  V30 7705 H 718.13 3.42659 1.4634 0
M  V30 7706 H 718.243 4.78829 0.16106 0
M  V30 7707 H 716.607 2.54047 0.182269 0
M  V30 7708 H 717.39 3.14521 -1.3759 0
M  V30 7709 N 719.835 0.176821 1.56605 0
M  V30 7710 C 720.768 -0.790135 2.14084 0
M  V30 7711 C 721.746 -1.22219 1.07244 0
M  V30 7712 O 722.93 -1.31298 1.35252 0
M  V30 7713 C 720.057 -2.06475 2.68488 0
M  V30 7714 C 719.103 -1.77628 3.87751 0
M  V30 7715 S 719.936 -0.940612 5.27174 0
M  V30 7716 C 721.092 -2.22577 5.84988 0
M  V30 7717 H 721.325 -0.30144 2.95768 0
M  V30 7718 H 718.858 -0.0379279 1.54353 0
M  V30 7719 H 720.816 -2.79683 3.00479 0
M  V30 7720 H 719.477 -2.52457 1.8688 0
M  V30 7721 H 718.67 -2.72215 4.24164 0
M  V30 7722 H 718.272 -1.12512 3.56675 0
M  V30 7723 H 720.564 -3.17992 5.98237 0
M  V30 7724 H 721.507 -1.90624 6.81959 0
M  V30 7725 H 721.915 -2.34588 5.13448 0
M  V30 7726 N 721.313 -1.57302 -0.09688 0
M  V30 7727 C 722.243 -2.0497 -1.11846 0
M  V30 7728 C 723.224 -0.938278 -1.41882 0
M  V30 7729 O 724.409 -1.20943 -1.51942 0
M  V30 7730 C 721.539 -2.47264 -2.43881 0
M  V30 7731 C 720.493 -3.62053 -2.28257 0
M  V30 7732 C 719.819 -3.90318 -3.65453 0
M  V30 7733 C 721.119 -4.93005 -1.72461 0
M  V30 7734 H 722.813 -2.90567 -0.721888 0
M  V30 7735 H 720.359 -1.39786 -0.345803 0
M  V30 7736 H 722.312 -2.7922 -3.15617 0
M  V30 7737 H 721.036 -1.58664 -2.8547 0
M  V30 7738 H 719.695 -3.30341 -1.58967 0
M  V30 7739 H 719.343 -2.98889 -4.04567 0
M  V30 7740 H 719.043 -4.67597 -3.55846 0
M  V30 7741 H 720.567 -4.24747 -4.3866 0
M  V30 7742 H 721.981 -5.23354 -2.34036 0
M  V30 7743 H 720.378 -5.74436 -1.73618 0
M  V30 7744 H 721.448 -4.80053 -0.683898 0
M  V30 7745 N 722.791 0.367657 -1.53252 0
M  V30 7746 C 724.038 1.11052 -1.69333 0
M  V30 7747 C 724.366 1.89363 -0.444064 0
M  V30 7748 O 723.621 1.87094 0.573953 0
M  V30 7749 C 723.92 2.09825 -2.89324 0
M  V30 7750 C 723.586 1.4801 -4.25915 0
M  V30 7751 C 722.248 1.30879 -4.6306 0
M  V30 7752 C 724.6 1.03268 -5.10867 0
M  V30 7753 C 721.928 0.675868 -5.82794 0
M  V30 7754 C 724.28 0.41377 -6.31245 0
M  V30 7755 C 722.944 0.229939 -6.67104 0
M  V30 7756 H 722.214 0.406367 -0.619634 0
M  V30 7757 H 724.861 0.392558 -1.87433 0
M  V30 7758 H 723.166 2.87917 -2.65728 0
M  V30 7759 H 724.863 2.67252 -2.98961 0
M  V30 7760 H 721.453 1.62336 -3.96667 0
M  V30 7761 H 725.637 1.15297 -4.82722 0
M  V30 7762 H 720.893 0.521833 -6.09169 0
M  V30 7763 H 725.067 0.0588768 -6.96375 0
M  V30 7764 H 722.694 -0.262562 -7.59746 0
M  V30 7765 N 724.269 1.44576 0.627338 0
M  V30 7766 C 725.219 1.48168 1.73293 0
M  V30 7767 C 726.203 0.347045 1.57113 0
M  V30 7768 O 727.395 0.592605 1.66785 0
M  V30 7769 C 724.524 1.43236 3.11991 0
M  V30 7770 C 723.61 2.61828 3.33627 0
M  V30 7771 N 724.001 3.87053 3.25612 0
M  V30 7772 C 722.299 2.57104 3.64436 0
M  V30 7773 C 723 4.66093 3.48041 0
M  V30 7774 N 721.976 3.97228 3.71095 0
M  V30 7775 H 725.778 2.42832 1.6556 0
M  V30 7776 H 723.292 1.39592 0.829934 0
M  V30 7777 H 725.289 1.43893 3.91281 0
M  V30 7778 H 723.949 0.496133 3.20887 0
M  V30 7779 H 724.96 4.18966 3.04447 0
M  V30 7780 H 721.637 1.72295 3.8029 0
M  V30 7781 H 723.027 5.75117 3.47404 0
M  V30 7782 N 725.747 -0.868086 1.31537 0
M  V30 7783 C 726.677 -1.99131 1.21939 0
M  V30 7784 C 727.658 -1.69768 0.106166 0
M  V30 7785 O 728.843 -1.92006 0.291081 0
M  V30 7786 C 725.973 -3.34676 0.927879 0
M  V30 7787 C 724.927 -3.7835 2.00088 0
M  V30 7788 C 724.253 -5.11375 1.56203 0
M  V30 7789 C 725.553 -3.95256 3.41424 0
M  V30 7790 H 727.247 -2.07419 2.15911 0
M  V30 7791 H 724.793 -0.996569 1.03945 0
M  V30 7792 H 726.746 -4.12793 0.847327 0
M  V30 7793 H 725.47 -3.26565 -0.0475042 0
M  V30 7794 H 724.129 -3.02474 2.07135 0
M  V30 7795 H 723.777 -4.99709 0.57445 0
M  V30 7796 H 723.477 -5.41568 2.27985 0
M  V30 7797 H 725.001 -5.92001 1.49558 0
M  V30 7798 H 726.415 -4.63764 3.3704 0
M  V30 7799 H 724.812 -4.36849 4.1144 0
M  V30 7800 H 725.882 -2.98579 3.82072 0
M  V30 7801 N 727.225 -1.14528 -1.08264 0
M  V30 7802 C 728.471 -0.91576 -1.80947 0
M  V30 7803 C 728.804 0.55623 -1.86064 0
M  V30 7804 O 728.079 1.41207 -1.33756 0
M  V30 7805 C 728.362 -1.51917 -3.26486 0
M  V30 7806 C 728.215 -3.06111 -3.2957 0
M  V30 7807 C 729.534 -1.19724 -4.23502 0
M  V30 7808 H 726.653 -0.334113 -0.656915 0
M  V30 7809 H 729.295 -1.41547 -1.26746 0
M  V30 7810 H 727.445 -1.0942 -3.72773 0
M  V30 7811 H 729.117 -3.57448 -2.91597 0
M  V30 7812 H 727.36 -3.40483 -2.688 0
M  V30 7813 H 728.031 -3.43438 -4.32151 0
M  V30 7814 H 730.507 -1.56467 -3.85561 0
M  V30 7815 H 729.383 -1.64575 -5.23647 0
M  V30 7816 H 729.644 -0.112771 -4.41956 0
M  V30 7817 N 728.703 1.26451 -0.940633 0
M  V30 7818 C 730.119 1.4608 -0.642859 0
M  V30 7819 C 730.319 1.84765 0.803998 0
M  V30 7820 O 729.375 1.96902 1.58069 0
M  V30 7821 C 730.688 2.54359 -1.60381 0
M  V30 7822 C 732.236 2.6821 -1.61345 0
M  V30 7823 C 732.711 3.79659 -2.56169 0
M  V30 7824 N 734.202 3.87051 -2.54452 0
M  V30 7825 C 734.937 4.72739 -3.24507 0
M  V30 7826 N 734.433 5.6282 -4.03987 0
M  V30 7827 N 736.226 4.66581 -3.13462 0
M  V30 7828 H 728.377 0.996289 -1.87584 0
M  V30 7829 H 730.64 0.498921 -0.80609 0
M  V30 7830 H 730.346 2.32758 -2.6366 0
M  V30 7831 H 730.22 3.52005 -1.35545 0
M  V30 7832 H 732.607 2.89184 -0.587913 0
M  V30 7833 H 732.688 1.7101 -1.90235 0
M  V30 7834 H 732.332 3.59438 -3.58841 0
M  V30 7835 H 732.262 4.76315 -2.2457 0
M  V30 7836 H 734.753 3.22649 -1.96739 0
M  V30 7837 H 735.066 6.25095 -4.54396 0
M  V30 7838 H 733.411 5.62574 -4.08088 0
M  V30 7839 H 736.602 3.9521 -2.50852 0
M  V30 7840 H 736.775 5.33141 -3.68327 0
M  V30 7841 N 730.181 0.707592 1.40822 0
M  V30 7842 C 731.458 0.171172 1.9485 0
M  V30 7843 C 731.838 -1.32143 1.64625 0
M  V30 7844 O 731.186 -2.07372 0.959647 0
M  V30 7845 C 731.396 0.475334 3.45748 0
M  V30 7846 C 732.744 0.409625 4.22619 0
M  V30 7847 O 733.768 0.410934 3.53822 0
M  V30 7848 O 732.627 0.380185 5.45176 0
M  V30 7849 H 729.721 0.022015 0.826707 0
M  V30 7850 H 732.267 0.784577 1.50474 0
M  V30 7851 H 731.039 1.50801 3.61075 0
M  V30 7852 H 730.662 -0.168439 3.97243 0
M  V30 7853 N 731.66 -1.50943 0.453197 0
M  V30 7854 C 732.906 -2.02512 -0.108082 0
M  V30 7855 C 733.239 -1.33574 -1.40967 0
M  V30 7856 O 732.514 -0.455671 -1.89087 0
M  V30 7857 C 732.797 -3.58759 -0.310453 0
M  V30 7858 C 732.65 -4.38293 1.0109 0
M  V30 7859 C 733.969 -4.26816 -1.07313 0
M  V30 7860 H 731.088 -0.73603 -0.0378064 0
M  V30 7861 H 733.73 -1.80433 0.595295 0
M  V30 7862 H 731.88 -3.77702 -0.909582 0
M  V30 7863 H 733.552 -4.30964 1.64523 0
M  V30 7864 H 731.795 -4.02745 1.61179 0
M  V30 7865 H 732.466 -5.45828 0.82315 0
M  V30 7866 H 734.942 -4.1224 -0.565473 0
M  V30 7867 H 733.818 -5.35989 -1.1835 0
M  V30 7868 H 734.079 -3.88757 -2.10525 0
M  V30 7869 N 733.138 -0.185124 -1.56509 0
M  V30 7870 C 734.085 0.739729 -2.18624 0
M  V30 7871 C 735.055 1.217 -1.13042 0
M  V30 7872 O 736.24 1.28268 -1.41251 0
M  V30 7873 C 733.38 1.95787 -2.84186 0
M  V30 7874 C 732.493 1.52289 -4.04267 0
M  V30 7875 C 731.628 2.69576 -4.57714 0
M  V30 7876 C 730.667 2.22636 -5.70175 0
M  V30 7877 N 729.804 3.33065 -6.18071 0
M  V30 7878 H 734.644 0.203269 -2.97306 0
M  V30 7879 H 732.181 0.0885946 -1.46833 0
M  V30 7880 H 734.139 2.67253 -3.20361 0
M  V30 7881 H 732.769 2.4678 -2.08085 0
M  V30 7882 H 731.821 0.704458 -3.7382 0
M  V30 7883 H 733.133 1.13843 -4.85635 0
M  V30 7884 H 732.287 3.4918 -4.96143 0
M  V30 7885 H 731.026 3.1129 -3.75433 0
M  V30 7886 H 730.031 1.41483 -5.31284 0
M  V30 7887 H 731.256 1.81964 -6.54267 0
M  V30 7888 H 729.202 3.74328 -5.38715 0
M  V30 7889 H 729.119 2.98756 -6.94464 0
M  V30 7890 H 730.387 4.12912 -6.61153 0
M  V30 7891 N 734.616 1.57351 0.0885366 0
M  V30 7892 C 735.548 1.99221 1.13329 0
M  V30 7893 C 736.561 0.895705 1.35945 0
M  V30 7894 O 737.75 1.17376 1.34481 0
M  V30 7895 C 734.85 2.3016 2.48756 0
M  V30 7896 C 734.023 3.61444 2.46327 0
M  V30 7897 C 733.082 3.80244 3.63732 0
M  V30 7898 O 732.108 4.52024 3.45924 0
M  V30 7899 N 733.31 3.2132 4.8346 0
M  V30 7900 H 736.075 2.89456 0.776862 0
M  V30 7901 H 733.636 1.59505 0.277428 0
M  V30 7902 H 735.628 2.39925 3.25911 0
M  V30 7903 H 734.198 1.459 2.76464 0
M  V30 7904 H 733.418 3.62588 1.54673 0
M  V30 7905 H 734.706 4.47678 2.41789 0
M  V30 7906 H 734.104 2.63028 5.00832 0
M  V30 7907 H 732.661 3.3656 5.58185 0
M  V30 7908 N 736.094 -0.359525 1.53444 0
M  V30 7909 C 737.342 -1.09935 1.69584 0
M  V30 7910 C 737.663 -1.89656 0.453371 0
M  V30 7911 O 736.933 -1.8852 -0.53263 0
M  V30 7912 H 735.513 -0.408843 0.625185 0
M  V30 7913 H 738.175 -0.40467 1.90653 0
M  V30 7914 H 737.271 -1.78575 2.55964 0
M  V30 7915 N 737.572 -1.44907 -0.619662 0
M  V30 7916 C 738.52 -1.52971 -1.75222 0
M  V30 7917 C 739.514 -0.400531 -1.64597 0
M  V30 7918 O 740.72 -0.575952 -1.70537 0
M  V30 7919 H 737.095 -0.480241 -0.578682 0
M  V30 7920 H 739.066 -2.48269 -1.65545 0
M  V30 7921 C 737.815 -1.50204 -3.13583 0
M  V30 7922 H 737.138 -2.36412 -3.22412 0
M  V30 7923 H 738.578 -1.59905 -3.92691 0
M  V30 7924 C 737.037 -0.22455 -3.36151 0
M  V30 7925 O 737.567 0.700574 -3.95544 0
M  V30 7926 N 735.773 -0.124052 -2.90335 0
M  V30 7927 H 735.32 -0.87774 -2.42185 0
M  V30 7928 H 735.278 0.729914 -3.0581 0
M  V30 7929 N 739.05 0.861098 -1.31996 0
M  V30 7930 C 739.98 1.98482 -1.22993 0
M  V30 7931 C 740.961 1.6971 -0.115168 0
M  V30 7932 O 742.146 1.91849 -0.30126 0
M  V30 7933 C 739.276 3.34179 -0.945615 0
M  V30 7934 C 738.23 3.77284 -2.02091 0
M  V30 7935 C 737.556 5.1054 -1.58912 0
M  V30 7936 C 738.856 3.93439 -3.43515 0
M  V30 7937 H 740.55 2.06271 -2.17008 0
M  V30 7938 H 738.096 0.991043 -1.04472 0
M  V30 7939 H 740.049 4.12338 -0.869206 0
M  V30 7940 H 738.773 3.26586 0.0301849 0
M  V30 7941 H 737.432 3.01371 -2.08737 0
M  V30 7942 H 737.08 4.99397 -0.600942 0
M  V30 7943 H 736.78 5.40352 -2.30854 0
M  V30 7944 H 738.304 5.91199 -1.52696 0
M  V30 7945 H 739.718 4.6197 -3.39495 0
M  V30 7946 H 738.115 4.34661 -4.13751 0
M  V30 7947 H 739.185 2.96548 -3.8365 0
M  V30 7948 N 740.528 1.15101 1.07655 0
M  V30 7949 C 741.939 0.933848 1.61667 0
M  V30 7950 C 742.29 -0.525569 1.8903 0
M  V30 7951 O 741.415 -1.39605 1.65346 0
M  V30 7952 C 742.01 1.68876 2.93711 0
M  V30 7953 C 740.569 1.51697 3.44478 0
M  V30 7954 C 739.716 1.70633 2.18586 0
M  V30 7955 H 742.667 1.30171 0.907816 0
M  V30 7956 H 742.688 1.15645 3.625 0
M  V30 7957 H 742.2 2.7509 2.73764 0
M  V30 7958 H 740.301 0.478635 3.69513 0
M  V30 7959 H 740.414 2.29194 4.20722 0
M  V30 7960 H 738.778 1.13259 2.28132 0
M  V30 7961 H 739.561 2.78206 2.01137 0
M  V30 7962 N 742.006 -1.2595 0.947325 0
M  V30 7963 C 743.417 -1.75389 0.639963 0
M  V30 7964 C 743.768 -1.77081 -0.844788 0
M  V30 7965 O 742.893 -1.3869 -1.66114 0
M  V30 7966 C 743.488 -3.18506 1.15496 0
M  V30 7967 C 742.047 -3.65534 0.897894 0
M  V30 7968 C 741.194 -2.44818 1.30228 0
M  V30 7969 H 744.145 -1.1194 1.12495 0
M  V30 7970 H 744.166 -3.77045 0.511627 0
M  V30 7971 H 743.678 -3.17243 2.23559 0
M  V30 7972 H 741.779 -3.72221 -0.168096 0
M  V30 7973 H 741.892 -4.54039 1.52922 0
M  V30 7974 H 740.256 -2.44291 0.720678 0
M  V30 7975 H 741.039 -2.46251 2.39198 0
M  V30 7976 N 743.484 -0.715051 -1.40445 0
M  V30 7977 C 744.732 -0.253826 -2.005 0
M  V30 7978 C 745.053 1.15681 -1.5698 0
M  V30 7979 O 744.323 1.78414 -0.809027 0
M  V30 7980 H 742.903 -0.0908537 -0.741454 0
M  V30 7981 H 745.565 -0.920561 -1.7179 0
M  V30 7982 H 744.661 -0.286499 -3.10782 0
M  V30 7983 N 744.962 1.50701 -0.461195 0
M  V30 7984 C 746.192 2.06381 0.0950376 0
M  V30 7985 C 746.6 1.32627 1.34933 0
M  V30 7986 O 745.943 0.386137 1.79596 0
M  V30 7987 C 746.005 3.56558 0.458965 0
M  V30 7988 C 745.669 4.51732 -0.691891 0
M  V30 7989 C 746.666 4.95594 -1.57105 0
M  V30 7990 C 744.351 4.94542 -0.879407 0
M  V30 7991 C 746.345 5.80963 -2.62223 0
M  V30 7992 C 744.032 5.79695 -1.93382 0
M  V30 7993 C 745.03 6.22806 -2.80359 0
M  V30 7994 O 744.718 7.06265 -3.83986 0
M  V30 7995 H 744.45 0.676 0.000687488 0
M  V30 7996 H 747.004 1.94974 -0.646087 0
M  V30 7997 H 745.234 3.65832 1.25314 0
M  V30 7998 H 746.923 3.94647 0.949124 0
M  V30 7999 H 747.689 4.63197 -1.43783 0
M  V30 8000 H 743.568 4.60513 -0.211907 0
M  V30 8001 H 747.112 6.14533 -3.30143 0
M  V30 8002 H 743.009 6.11506 -2.06715 0
M  V30 8003 H 743.777 7.24494 -3.80855 0
M  V30 8004 N 746.441 0.193421 1.56409 0
M  V30 8005 C 747.388 -0.728124 2.19014 0
M  V30 8006 C 748.358 -1.21098 1.13686 0
M  V30 8007 O 749.543 -1.27517 1.4193 0
M  V30 8008 C 746.683 -1.94277 2.8522 0
M  V30 8009 C 745.796 -1.50143 4.05069 0
M  V30 8010 C 744.931 -2.67145 4.59137 0
M  V30 8011 C 743.97 -2.19609 5.71348 0
M  V30 8012 N 743.107 -3.29782 6.19829 0
M  V30 8013 H 747.947 -0.187499 2.9741 0
M  V30 8014 H 745.484 -0.0808064 1.46878 0
M  V30 8015 H 747.442 -2.65551 3.21774 0
M  V30 8016 H 746.072 -2.45673 2.09391 0
M  V30 8017 H 745.124 -0.684624 3.74189 0
M  V30 8018 H 746.436 -1.11266 4.86232 0
M  V30 8019 H 745.59 -3.46544 4.97988 0
M  V30 8020 H 744.329 -3.09295 3.77078 0
M  V30 8021 H 743.334 -1.38664 5.32027 0
M  V30 8022 H 744.559 -1.78492 6.55223 0
M  V30 8023 H 742.505 -3.71466 5.40693 0
M  V30 8024 H 742.422 -2.95069 6.96039 0
M  V30 8025 H 743.69 -4.094 6.63334 0
M  V30 8026 N 747.919 -1.57396 -0.0801906 0
M  V30 8027 C 749.168 -1.8602 -0.779702 0
M  V30 8028 C 749.481 -0.784864 -1.79163 0
M  V30 8029 O 750.687 -0.958691 -2.54011 0
M  V30 8030 C 749.143 -3.29942 -1.43758 0
M  V30 8031 C 748.751 -4.45584 -0.464654 0
M  V30 8032 C 750.495 -3.67775 -2.11995 0
M  V30 8033 C 748.402 -5.80544 -1.12797 0
M  V30 8034 H 747.332 -0.69392 -0.294943 0
M  V30 8035 H 749.983 -1.83471 -0.0328527 0
M  V30 8036 H 748.365 -3.27078 -2.2324 0
M  V30 8037 H 749.539 -4.59824 0.299749 0
M  V30 8038 H 747.854 -4.16247 0.112813 0
M  V30 8039 H 750.451 -4.65896 -2.62383 0
M  V30 8040 H 750.794 -2.9715 -2.91561 0
M  V30 8041 H 751.327 -3.72593 -1.39354 0
M  V30 8042 H 748.066 -6.54439 -0.372807 0
M  V30 8043 H 747.586 -5.70119 -1.86344 0
M  V30 8044 H 749.265 -6.25602 -1.6502 0
M  V30 8045 N 749.397 0.351382 -1.53633 0
M  V30 8046 C 750.625 1.11275 -1.74429 0
M  V30 8047 C 751.04 1.82602 -0.479798 0
M  V30 8048 O 750.397 1.74074 0.548125 0
M  V30 8049 C 750.448 2.13223 -2.91921 0
M  V30 8050 O 750.169 1.44798 -4.13479 0
M  V30 8051 C 751.67 3.01797 -3.24706 0
M  V30 8052 H 748.89 0.332153 -0.583023 0
M  V30 8053 H 751.434 0.405974 -2.0043 0
M  V30 8054 H 749.589 2.79477 -2.68274 0
M  V30 8055 H 750.003 2.12839 -4.79374 0
M  V30 8056 H 751.477 3.69282 -4.10286 0
M  V30 8057 H 751.954 3.67387 -2.40673 0
M  V30 8058 H 752.56 2.41141 -3.5033 0
M  V30 8059 N 750.875 1.45233 0.611969 0
M  V30 8060 C 751.805 1.5641 1.73373 0
M  V30 8061 C 752.786 0.415896 1.64937 0
M  V30 8062 O 753.971 0.638478 1.83404 0
M  V30 8063 C 751.101 1.52627 3.11965 0
M  V30 8064 C 750.055 2.66119 3.35208 0
M  V30 8065 C 749.381 2.4739 4.74028 0
M  V30 8066 C 750.681 4.08157 3.25891 0
M  V30 8067 H 752.375 2.50307 1.64277 0
M  V30 8068 H 749.921 1.20467 0.788904 0
M  V30 8069 H 751.874 1.59043 3.90235 0
M  V30 8070 H 750.598 0.552564 3.21892 0
M  V30 8071 H 749.257 2.59123 2.59327 0
M  V30 8072 H 748.905 1.48168 4.80682 0
M  V30 8073 H 748.605 3.23494 4.90536 0
M  V30 8074 H 750.129 2.55653 5.54503 0
M  V30 8075 H 751.543 4.1642 3.9404 0
M  V30 8076 H 749.94 4.84617 3.5393 0
M  V30 8077 H 751.01 4.30374 2.23397 0
M  V30 8078 N 752.353 -0.854086 1.3245 0
M  V30 8079 C 753.602 -1.60318 1.22397 0
M  V30 8080 C 753.915 -1.9444 -0.212664 0
M  V30 8081 O 755.121 -2.67991 -0.435066 0
M  V30 8082 C 753.577 -2.8909 2.1437 0
M  V30 8083 C 753.185 -2.62391 3.63119 0
M  V30 8084 C 754.929 -3.67104 2.13155 0
M  V30 8085 C 752.836 -3.87167 4.47052 0
M  V30 8086 H 751.766 -0.601586 0.454544 0
M  V30 8087 H 754.417 -0.943023 1.57415 0
M  V30 8088 H 752.799 -3.56567 1.72268 0
M  V30 8089 H 753.973 -2.03222 4.13567 0
M  V30 8090 H 752.288 -1.97706 3.66471 0
M  V30 8091 H 754.885 -4.59696 2.731 0
M  V30 8092 H 755.228 -4.00876 1.12268 0
M  V30 8093 H 755.761 -3.06533 2.5354 0
M  V30 8094 H 752.5 -3.58536 5.48755 0
M  V30 8095 H 752.02 -4.45729 4.01355 0
M  V30 8096 H 753.699 -4.549 4.60081 0
M  V30 8097 N 753.831 -1.1567 -1.07043 0
M  V30 8098 C 755.108 -0.843948 -1.76456 0
M  V30 8099 C 755.488 0.659806 -2.00524 0
M  V30 8100 O 754.836 1.60518 -1.62623 0
M  V30 8101 C 755.046 -1.65822 -3.0709 0
M  V30 8102 C 756.394 -1.8664 -3.8138 0
M  V30 8103 O 757.418 -1.62624 -3.1691 0
M  V30 8104 O 756.277 -2.26884 -4.97178 0
M  V30 8105 H 753.371 -0.310677 -0.766426 0
M  V30 8106 H 755.917 -1.26266 -1.1338 0
M  V30 8107 H 754.689 -2.67902 -2.85209 0
M  V30 8108 H 754.312 -1.23605 -3.77899 0
M  V30 8109 N 755.309 1.25446 -0.953992 0
M  V30 8110 C 756.558 1.92441 -0.604101 0
M  V30 8111 C 756.871 1.75543 0.862796 0
M  V30 8112 O 758.077 2.37106 1.32262 0
M  V30 8113 C 756.533 3.44854 -1.02974 0
M  V30 8114 C 756.141 3.70464 -2.51914 0
M  V30 8115 C 757.885 4.1778 -0.752352 0
M  V30 8116 C 755.792 5.1638 -2.88281 0
M  V30 8117 H 754.722 0.720508 -0.222227 0
M  V30 8118 H 757.373 1.42318 -1.15836 0
M  V30 8119 H 755.755 3.93935 -0.403904 0
M  V30 8120 H 756.929 3.32038 -3.19511 0
M  V30 8121 H 755.244 3.10797 -2.77117 0
M  V30 8122 H 757.841 5.25261 -1.00024 0
M  V30 8123 H 758.184 4.15135 0.311212 0
M  V30 8124 H 758.717 3.74605 -1.33851 0
M  V30 8125 H 755.456 5.24135 -3.93653 0
M  V30 8126 H 754.976 5.55855 -2.25357 0
M  V30 8127 H 756.655 5.84497 -2.77439 0
M  V30 8128 N 756.787 0.722489 1.40064 0
M  V30 8129 C 758.035 0.264455 2.00362 0
M  V30 8130 C 758.356 -1.14847 1.57592 0
M  V30 8131 O 757.626 -1.77982 0.818477 0
M  V30 8132 H 756.206 0.0947846 0.740962 0
M  V30 8133 H 758.868 0.929659 1.71299 0
M  V30 8134 H 757.964 0.302977 3.10626 0
M  V30 8135 N 758.265 -1.50454 0.469181 0
M  V30 8136 C 759.195 -2.31353 -0.31592 0
M  V30 8137 C 760.176 -1.38172 -0.992094 0
M  V30 8138 O 761.361 -1.67093 -0.989633 0
M  V30 8139 C 758.491 -3.1786 -1.39937 0
M  V30 8140 C 757.445 -4.19578 -0.844909 0
M  V30 8141 C 756.771 -4.9481 -2.0265 0
M  V30 8142 C 758.071 -5.22106 0.142499 0
M  V30 8143 H 759.765 -2.97237 0.359269 0
M  V30 8144 H 757.311 -1.42942 0.174224 0
M  V30 8145 H 759.264 -3.7325 -1.95607 0
M  V30 8146 H 757.988 -2.49858 -2.1033 0
M  V30 8147 H 756.647 -3.65285 -0.310189 0
M  V30 8148 H 756.295 -4.23282 -2.71737 0
M  V30 8149 H 755.995 -5.63613 -1.66174 0
M  V30 8150 H 757.519 -5.53035 -2.58815 0
M  V30 8151 H 758.933 -5.72378 -0.324966 0
M  V30 8152 H 757.33 -5.98618 0.421441 0
M  V30 8153 H 758.4 -4.7297 1.06901 0
M  V30 8154 N 759.743 -0.201713 -1.56304 0
M  V30 8155 C 760.989 0.435952 -1.98059 0
M  V30 8156 C 761.322 1.60811 -1.08873 0
M  V30 8157 O 760.597 1.9398 -0.142128 0
M  V30 8158 C 760.88 0.889706 -3.48936 0
M  V30 8159 C 760.733 -0.284725 -4.48898 0
M  V30 8160 C 762.052 1.7529 -4.03685 0
M  V30 8161 H 759.171 0.15699 -0.720085 0
M  V30 8162 H 761.813 -0.293965 -1.87712 0
M  V30 8163 H 759.963 1.51166 -3.57884 0
M  V30 8164 H 761.635 -0.922531 -4.51981 0
M  V30 8165 H 759.878 -0.935427 -4.23594 0
M  V30 8166 H 760.549 0.0753865 -5.51949 0
M  V30 8167 H 763.025 1.2283 -3.97558 0
M  V30 8168 H 761.901 2.03933 -5.0961 0
M  V30 8169 H 762.162 2.70939 -3.49348 0
M  V30 8170 N 761.222 1.57436 0.0718424 0
M  V30 8171 C 762.471 1.86431 0.769826 0
M  V30 8172 C 762.784 0.794355 1.78744 0
M  V30 8173 O 763.99 0.972148 2.53499 0
M  V30 8174 C 762.446 3.307 1.42006 0
M  V30 8175 C 762.054 4.45824 0.441017 0
M  V30 8176 C 763.798 3.68894 2.10041 0
M  V30 8177 C 761.705 5.81134 1.09717 0
M  V30 8178 H 760.635 0.695474 0.291259 0
M  V30 8179 H 763.286 1.83485 0.0231224 0
M  V30 8180 H 761.668 3.28257 2.21502 0
M  V30 8181 H 762.842 4.59659 -0.32413 0
M  V30 8182 H 761.157 4.16181 -0.134886 0
M  V30 8183 H 763.754 4.67281 2.59908 0
M  V30 8184 H 764.097 2.98692 2.89981 0
M  V30 8185 H 764.63 3.73326 1.37376 0
M  V30 8186 H 761.369 6.54628 0.338095 0
M  V30 8187 H 760.889 5.711 1.83317 0
M  V30 8188 H 762.568 6.26468 1.617 0
M  V30 8189 N 762.7 -0.34323 1.53817 0
M  V30 8190 C 763.61 -1.44493 1.84821 0
M  V30 8191 C 764.626 -1.57556 0.738381 0
M  V30 8192 O 765.802 -1.73026 1.03072 0
M  V30 8193 C 762.867 -2.79478 2.05166 0
M  V30 8194 C 761.928 -2.75756 3.29025 0
M  V30 8195 C 761.161 -4.04302 3.4839 0
M  V30 8196 O 761.384 -5.01595 2.71586 0
M  V30 8197 O 760.318 -4.08754 4.41819 0
M  V30 8198 H 764.144 -1.21209 2.78464 0
M  V30 8199 H 761.729 -0.535437 1.39476 0
M  V30 8200 H 763.611 -3.59419 2.19991 0
M  V30 8201 H 762.286 -3.02692 1.14713 0
M  V30 8202 H 761.193 -1.94434 3.19603 0
M  V30 8203 H 762.526 -2.57495 4.19472 0
M  V30 8204 N 764.178 -1.45556 -0.604258 0
M  V30 8205 C 765.408 -1.53056 -1.38771 0
M  V30 8206 C 765.816 -0.163092 -1.88496 0
M  V30 8207 O 765.159 0.846157 -1.63052 0
M  V30 8208 C 765.221 -2.45656 -2.62476 0
M  V30 8209 C 764.885 -3.92328 -2.34367 0
M  V30 8210 C 765.882 -4.82137 -1.94525 0
M  V30 8211 C 763.567 -4.37275 -2.47177 0
M  V30 8212 C 765.561 -6.14901 -1.67856 0
M  V30 8213 C 763.248 -5.70079 -2.20122 0
M  V30 8214 C 764.246 -6.58711 -1.80524 0
M  V30 8215 O 763.934 -7.89053 -1.53788 0
M  V30 8216 H 763.666 -0.520721 -0.431075 0
M  V30 8217 H 766.22 -1.91464 -0.743693 0
M  V30 8218 H 764.45 -2.02225 -3.29609 0
M  V30 8219 H 766.139 -2.43802 -3.24523 0
M  V30 8220 H 766.905 -4.48675 -1.84162 0
M  V30 8221 H 762.784 -3.68527 -2.76964 0
M  V30 8222 H 766.328 -6.8404 -1.36874 0
M  V30 8223 H 762.225 -6.03095 -2.30102 0
M  V30 8224 H 762.993 -8.01113 -1.67812 0
M  V30 8225 N 765.656 0.84705 -1.32902 0
M  V30 8226 C 766.586 1.97166 -1.25091 0
M  V30 8227 C 767.567 1.69578 -0.133161 0
M  V30 8228 O 768.752 1.91519 -0.321591 0
M  V30 8229 C 765.882 3.33157 -0.981006 0
M  V30 8230 C 764.836 3.75119 -2.06082 0
M  V30 8231 C 764.162 5.08826 -1.64318 0
M  V30 8232 C 765.462 3.89774 -3.47669 0
M  V30 8233 H 767.156 2.03958 -2.19184 0
M  V30 8234 H 764.702 0.979907 -1.05517 0
M  V30 8235 H 766.655 4.11393 -0.912891 0
M  V30 8236 H 765.379 3.266 -0.00445559 0
M  V30 8237 H 764.038 2.9914 -2.11921 0
M  V30 8238 H 763.686 4.98732 -0.653876 0
M  V30 8239 H 763.386 5.37873 -2.36572 0
M  V30 8240 H 764.91 5.89546 -1.58958 0
M  V30 8241 H 766.324 4.58343 -3.44376 0
M  V30 8242 H 764.721 4.30248 -4.18338 0
M  V30 8243 H 765.791 2.92463 -3.86773 0
M  V30 8244 N 767.134 1.16236 1.06428 0
M  V30 8245 C 768.067 0.81119 2.13295 0
M  V30 8246 C 769.045 -0.216555 1.61151 0
M  V30 8247 O 770.229 -0.100949 1.88229 0
M  V30 8248 C 767.356 0.207901 3.38061 0
M  V30 8249 C 766.402 1.20904 4.09004 0
M  V30 8250 S 767.235 2.75513 4.59187 0
M  V30 8251 C 768.391 2.1663 5.87216 0
M  V30 8252 H 768.624 1.71632 2.42755 0
M  V30 8253 H 766.157 0.985693 1.18842 0
M  V30 8254 H 768.115 -0.133715 4.10282 0
M  V30 8255 H 766.776 -0.67497 3.06762 0
M  V30 8256 H 765.969 0.735326 4.98607 0
M  V30 8257 H 765.571 1.49567 3.42791 0
M  V30 8258 H 767.863 1.53413 6.59902 0
M  V30 8259 H 768.806 3.04437 6.39315 0
M  V30 8260 H 769.214 1.60565 5.41183 0
M  V30 8261 N 768.612 -1.24939 0.960631 0
M  V30 8262 C 769.86 -1.92437 0.617441 0
M  V30 8263 C 770.181 -1.75543 -0.849101 0
M  V30 8264 O 769.451 -1.12269 -1.60538 0
M  V30 8265 H 768.031 -0.712192 0.225371 0
M  V30 8266 H 770.693 -1.5198 1.22017 0
M  V30 8267 H 769.789 -3.00247 0.851933 0
M  V30 8268 N 770.09 -0.729906 -1.39679 0
M  V30 8269 C 771.338 -0.275077 -2.00219 0
M  V30 8270 C 771.659 1.1401 -1.58199 0
M  V30 8271 O 770.929 1.77546 -0.827904 0
M  V30 8272 H 769.509 -0.0987127 -0.740449 0
M  V30 8273 H 772.171 -0.93873 -1.70804 0
M  V30 8274 H 771.267 -0.319446 -3.10461 0
M  V30 8275 N 771.568 1.50203 -0.477153 0
M  V30 8276 C 772.796 2.0677 0.0732489 0
M  V30 8277 C 773.211 1.34033 1.32968 0
M  V30 8278 O 772.568 0.411412 1.77802 0
M  V30 8279 C 772.619 3.59751 0.35518 0
M  V30 8280 O 772.34 4.29747 -0.851425 0
M  V30 8281 C 773.841 4.3296 0.951877 0
M  V30 8282 H 771.061 0.670929 -0.00978923 0
M  V30 8283 H 773.605 1.93293 -0.667676 0
M  V30 8284 H 771.76 3.7301 1.04605 0
M  V30 8285 H 772.174 5.2106 -0.599708 0
M  V30 8286 H 773.648 5.40952 1.09888 0
M  V30 8287 H 774.125 3.93856 1.94356 0
M  V30 8288 H 774.731 4.24246 0.299208 0
M  V30 8289 N 773.046 0.209999 1.56195 0
M  V30 8290 C 774.276 -0.429373 2.02089 0
M  V30 8291 C 774.684 -1.54703 1.0892 0
M  V30 8292 O 774.027 -1.83485 0.0889535 0
M  V30 8293 C 774.089 -1.03266 3.44349 0
M  V30 8294 C 773.753 -0.0518873 4.56971 0
M  V30 8295 C 774.75 0.744249 5.14545 0
M  V30 8296 C 772.435 0.0635185 5.0226 0
M  V30 8297 C 774.429 1.64261 6.15871 0
M  V30 8298 C 772.116 0.965423 6.03426 0
M  V30 8299 C 773.114 1.75352 6.60106 0
M  V30 8300 O 772.802 2.64029 7.59305 0
M  V30 8301 H 772.534 -0.110604 0.66689 0
M  V30 8302 H 775.088 0.320436 2.02885 0
M  V30 8303 H 773.318 -1.83134 3.40586 0
M  V30 8304 H 775.007 -1.57823 3.73961 0
M  V30 8305 H 775.773 0.665476 4.80413 0
M  V30 8306 H 771.652 -0.539762 4.57829 0
M  V30 8307 H 775.196 2.25819 6.60039 0
M  V30 8308 H 771.093 1.04526 6.36981 0
M  V30 8309 H 771.861 2.57974 7.76783 0
M  V30 8310 N 774.524 -1.57472 -0.0634922 0
M  V30 8311 C 775.94 -1.54016 -0.418466 0
M  V30 8312 C 776.14 -0.931376 -1.78683 0
M  V30 8313 O 775.196 -0.537465 -2.46714 0
M  V30 8314 C 776.509 -2.98634 -0.351906 0
M  V30 8315 C 778.057 -3.10012 -0.431494 0
M  V30 8316 C 778.532 -4.56296 -0.394754 0
M  V30 8317 N 780.023 -4.60964 -0.454583 0
M  V30 8318 C 780.758 -5.71643 -0.448501 0
M  V30 8319 N 780.254 -6.91663 -0.396742 0
M  V30 8320 N 782.047 -5.5991 -0.495677 0
M  V30 8321 H 774.198 -1.95409 0.832408 0
M  V30 8322 H 776.461 -0.894769 0.313197 0
M  V30 8323 H 776.167 -3.46766 0.587048 0
M  V30 8324 H 776.041 -3.58955 -1.15893 0
M  V30 8325 H 778.428 -2.61848 -1.36087 0
M  V30 8326 H 778.509 -2.52585 0.404258 0
M  V30 8327 H 778.153 -5.05119 0.530811 0
M  V30 8328 H 778.083 -5.11594 -1.24815 0
M  V30 8329 H 780.574 -3.74598 -0.498496 0
M  V30 8330 H 780.887 -7.71783 -0.396256 0
M  V30 8331 H 779.232 -6.9405 -0.363304 0
M  V30 8332 H 782.423 -4.65046 -0.533864 0
M  V30 8333 H 782.596 -6.46164 -0.487469 0
M  V30 8334 N 776.003 0.335068 -1.53997 0
M  V30 8335 C 777.243 1.0827 -1.7337 0
M  V30 8336 C 777.607 1.85618 -0.490913 0
M  V30 8337 O 778.808 2.62864 -0.561799 0
M  V30 8338 C 777.079 1.99212 -2.96731 0
M  V30 8339 S 778.638 2.81083 -3.36954 0
M  V30 8340 H 775.456 0.365698 -0.609743 0
M  V30 8341 H 778.058 0.360079 -1.92155 0
M  V30 8342 H 776.762 1.41204 -3.85344 0
M  V30 8343 H 776.293 2.75898 -2.80436 0
M  V30 8344 H 778.308 4.01657 -2.91352 0
M  V30 8345 N 777.481 1.45874 0.596531 0
M  V30 8346 C 778.709 1.54013 1.38158 0
M  V30 8347 C 779.124 0.17648 1.87973 0
M  V30 8348 O 778.481 -0.823895 1.62844 0
M  V30 8349 C 778.532 2.53363 2.57855 0
M  V30 8350 O 778.253 3.8443 2.10108 0
M  V30 8351 C 779.754 2.71308 3.50581 0
M  V30 8352 H 776.974 0.521251 0.422538 0
M  V30 8353 H 779.518 1.9116 0.726493 0
M  V30 8354 H 777.673 2.19257 3.19382 0
M  V30 8355 H 778.087 4.38384 2.87958 0
M  V30 8356 H 779.561 3.44776 4.31084 0
M  V30 8357 H 780.038 1.77728 4.01633 0
M  V30 8358 H 780.644 3.06455 2.94899 0
M  V30 8359 N 778.959 -0.83999 1.33349 0
M  V30 8360 C 780.189 -1.62492 1.27593 0
M  V30 8361 C 780.597 -1.88559 -0.155597 0
M  V30 8362 O 779.94 -1.46537 -1.10782 0
M  V30 8363 C 780.002 -2.99984 1.98116 0
M  V30 8364 C 779.666 -2.96892 3.47425 0
M  V30 8365 C 780.663 -2.72688 4.42648 0
M  V30 8366 C 778.348 -3.17063 3.89585 0
M  V30 8367 C 780.342 -2.68681 5.78004 0
M  V30 8368 C 778.029 -3.12682 5.25046 0
M  V30 8369 C 779.027 -2.88522 6.19067 0
M  V30 8370 O 778.715 -2.84042 7.52047 0
M  V30 8371 H 778.447 -0.512358 0.440982 0
M  V30 8372 H 781.001 -1.0545 1.76265 0
M  V30 8373 H 779.231 -3.58875 1.44034 0
M  V30 8374 H 780.92 -3.6084 1.85875 0
M  V30 8375 H 781.686 -2.56856 4.114 0
M  V30 8376 H 777.565 -3.34889 3.16813 0
M  V30 8377 H 781.109 -2.49743 6.51363 0
M  V30 8378 H 777.006 -3.28063 5.55918 0
M  V30 8379 H 777.774 -2.99892 7.61582 0
M  V30 8380 N 780.437 -1.16799 -1.0581 0
M  V30 8381 C 781.665 -0.97687 -1.82387 0
M  V30 8382 C 782.08 0.474917 -1.82729 0
M  V30 8383 O 781.437 1.3297 -1.25001 0
M  V30 8384 C 781.488 -1.50279 -3.28783 0
M  V30 8385 O 781.209 -2.89772 -3.28578 0
M  V30 8386 C 782.71 -1.35538 -4.22071 0
M  V30 8387 H 779.93 -0.345977 -0.574927 0
M  V30 8388 H 782.474 -1.54942 -1.33466 0
M  V30 8389 H 780.629 -0.972414 -3.74997 0
M  V30 8390 H 781.043 -3.13954 -4.20159 0
M  V30 8391 H 782.517 -1.7716 -5.22799 0
M  V30 8392 H 782.994 -0.301598 -4.38163 0
M  V30 8393 H 783.6 -1.87562 -3.81708 0
M  V30 8394 N 781.915 1.24427 -0.967243 0
M  V30 8395 C 783.331 1.44684 -0.6737 0
M  V30 8396 C 783.531 1.86429 0.764625 0
M  V30 8397 O 782.587 2.00211 1.53857 0
M  V30 8398 C 783.9 2.509 -1.6574 0
M  V30 8399 C 785.448 2.64728 -1.66998 0
M  V30 8400 C 785.923 3.7414 -2.64165 0
M  V30 8401 N 787.414 3.81567 -2.62604 0
M  V30 8402 C 788.149 4.6575 -3.34462 0
M  V30 8403 N 787.645 5.54124 -4.15835 0
M  V30 8404 N 789.438 4.59827 -3.23288 0
M  V30 8405 H 781.589 0.956276 -1.89655 0
M  V30 8406 H 783.852 0.48171 -0.816492 0
M  V30 8407 H 783.558 2.27113 -2.68538 0
M  V30 8408 H 783.432 3.4905 -1.42981 0
M  V30 8409 H 785.819 2.87872 -0.649121 0
M  V30 8410 H 785.9 1.66936 -1.93819 0
M  V30 8411 H 785.544 3.51745 -3.66384 0
M  V30 8412 H 785.474 4.71444 -2.34623 0
M  V30 8413 H 787.965 3.18403 -2.03539 0
M  V30 8414 H 788.278 6.15316 -4.67553 0
M  V30 8415 H 786.623 5.53791 -4.19929 0
M  V30 8416 H 789.814 3.898 -2.59179 0
M  V30 8417 H 789.987 5.25208 -3.79553 0
M  V30 8418 N 783.393 0.737304 1.3929 0
M  V30 8419 C 784.34 0.0988364 2.30588 0
M  V30 8420 C 785.31 -0.727206 1.49335 0
M  V30 8421 O 786.495 -0.686694 1.78014 0
M  V30 8422 C 783.635 -0.800734 3.35682 0
M  V30 8423 C 782.748 0.0381731 4.31983 0
M  V30 8424 C 781.883 -0.862884 5.24145 0
M  V30 8425 C 780.922 -0.0193639 6.12097 0
M  V30 8426 N 780.059 -0.87648 6.96608 0
M  V30 8427 H 784.899 0.883031 2.84617 0
M  V30 8428 H 782.436 0.447111 1.4014 0
M  V30 8429 H 784.394 -1.33676 3.95205 0
M  V30 8430 H 783.024 -1.55088 2.83103 0
M  V30 8431 H 782.076 0.691641 3.74059 0
M  V30 8432 H 783.388 0.690294 4.94 0
M  V30 8433 H 782.542 -1.46667 5.88705 0
M  V30 8434 H 781.281 -1.54878 4.62454 0
M  V30 8435 H 780.286 0.597202 5.46547 0
M  V30 8436 H 781.511 0.663348 6.75852 0
M  V30 8437 H 779.457 -1.54762 6.37483 0
M  V30 8438 H 779.374 -0.280892 7.55478 0
M  V30 8439 H 780.642 -1.46575 7.65595 0
M  V30 8440 N 784.871 -1.49948 0.485112 0
M  V30 8441 C 786.287 -1.58984 0.140096 0
M  V30 8442 C 786.487 -1.49194 -1.35438 0
M  V30 8443 O 785.543 -1.35765 -2.12894 0
M  V30 8444 C 786.856 -2.92372 0.702769 0
M  V30 8445 C 788.404 -3.05801 0.66745 0
M  V30 8446 C 788.879 -4.41785 1.20791 0
M  V30 8447 N 790.37 -4.48234 1.16792 0
M  V30 8448 C 791.105 -5.51871 1.55646 0
M  V30 8449 N 790.601 -6.62692 2.02016 0
M  V30 8450 N 792.394 -5.42494 1.47161 0
M  V30 8451 H 784.545 -1.54555 1.45693 0
M  V30 8452 H 786.808 -0.731206 0.603359 0
M  V30 8453 H 786.514 -3.05056 1.75025 0
M  V30 8454 H 786.388 -3.76885 0.154205 0
M  V30 8455 H 788.775 -2.92757 -0.371157 0
M  V30 8456 H 788.856 -2.23011 1.25298 0
M  V30 8457 H 788.5 -4.55579 2.24522 0
M  V30 8458 H 788.43 -5.23188 0.598464 0
M  V30 8459 H 790.921 -3.68718 0.827982 0
M  V30 8460 H 791.234 -7.3785 2.29775 0
M  V30 8461 H 789.579 -6.63775 2.05979 0
M  V30 8462 H 792.77 -4.54806 1.10765 0
M  V30 8463 H 792.943 -6.2314 1.77766 0
M  V30 8464 N 786.349 -0.21828 -1.56081 0
M  V30 8465 C 787.596 0.414307 -1.98216 0
M  V30 8466 C 787.924 1.60005 -1.10584 0
M  V30 8467 O 787.179 1.95124 -0.150043 0
M  V30 8468 C 787.478 0.894782 -3.46018 0
M  V30 8469 C 787.144 -0.180083 -4.5054 0
M  V30 8470 C 785.806 -0.475367 -4.78846 0
M  V30 8471 C 788.158 -0.907191 -5.13244 0
M  V30 8472 C 785.486 -1.50233 -5.67139 0
M  V30 8473 C 787.838 -1.92347 -6.02649 0
M  V30 8474 C 786.502 -2.22571 -6.293 0
M  V30 8475 H 785.772 0.151606 -0.725325 0
M  V30 8476 H 788.419 -0.320113 -1.88806 0
M  V30 8477 H 786.724 1.7079 -3.52616 0
M  V30 8478 H 788.421 1.39403 -3.75989 0
M  V30 8479 H 785.011 0.06022 -4.28558 0
M  V30 8480 H 789.195 -0.692303 -4.91448 0
M  V30 8481 H 784.451 -1.74215 -5.86054 0
M  V30 8482 H 788.625 -2.49197 -6.50288 0
M  V30 8483 H 786.252 -3.0229 -6.97513 0
M  V30 8484 N 787.827 1.57504 0.0551401 0
M  V30 8485 C 789.243 1.54236 0.410292 0
M  V30 8486 C 789.443 0.940839 1.78187 0
M  V30 8487 O 788.499 0.550541 2.46425 0
M  V30 8488 C 789.812 2.98816 0.336064 0
M  V30 8489 C 791.36 3.10236 0.415047 0
M  V30 8490 C 791.835 4.56499 0.37055 0
M  V30 8491 N 793.326 4.61199 0.43013 0
M  V30 8492 C 794.061 5.71873 0.418179 0
M  V30 8493 N 793.557 6.91864 0.360056 0
M  V30 8494 N 795.35 5.60165 0.465977 0
M  V30 8495 H 787.501 1.94965 -0.842759 0
M  V30 8496 H 789.764 0.893096 -0.317937 0
M  V30 8497 H 789.47 3.4645 -0.605429 0
M  V30 8498 H 789.344 3.59564 1.13988 0
M  V30 8499 H 791.731 2.62566 1.34697 0
M  V30 8500 H 791.812 2.52367 -0.417648 0
M  V30 8501 H 791.456 5.0483 -0.557592 0
M  V30 8502 H 791.386 5.12249 1.221 0
M  V30 8503 H 793.877 3.74857 0.478623 0
M  V30 8504 H 794.19 7.71983 0.35532 0
M  V30 8505 H 792.535 6.94233 0.326492 0
M  V30 8506 H 795.726 4.65322 0.509194 0
M  V30 8507 H 795.899 6.46413 0.453194 0
M  V30 8508 N 789.305 -0.326896 1.54172 0
M  V30 8509 C 790.235 -1.40741 1.86317 0
M  V30 8510 C 791.216 -1.54125 0.719684 0
M  V30 8511 O 792.401 -1.6806 0.973117 0
M  V30 8512 C 789.531 -2.77557 2.08757 0
M  V30 8513 C 788.485 -2.78965 3.24596 0
M  V30 8514 C 787.811 -4.18824 3.32401 0
M  V30 8515 C 789.111 -2.4301 4.62324 0
M  V30 8516 H 790.805 -1.14088 2.76811 0
M  V30 8517 H 788.351 -0.547389 1.3319 0
M  V30 8518 H 790.304 -3.53209 2.29829 0
M  V30 8519 H 789.028 -3.0568 1.15009 0
M  V30 8520 H 787.687 -2.05767 3.03406 0
M  V30 8521 H 787.335 -4.44083 2.36218 0
M  V30 8522 H 787.035 -4.20673 4.10253 0
M  V30 8523 H 788.559 -4.96294 3.55703 0
M  V30 8524 H 789.973 -3.08375 4.83299 0
M  V30 8525 H 788.37 -2.56116 5.42701 0
M  V30 8526 H 789.44 -1.38165 4.64799 0
M  V30 8527 N 790.784 -1.46188 -0.588786 0
M  V30 8528 C 792.033 -1.50452 -1.34339 0
M  V30 8529 C 792.346 -0.158096 -1.9496 0
M  V30 8530 O 793.552 -0.0784918 -2.71387 0
M  V30 8531 C 792.008 -2.65074 -2.43441 0
M  V30 8532 C 791.616 -4.06111 -1.8915 0
M  V30 8533 C 793.36 -2.78603 -3.20282 0
M  V30 8534 C 791.267 -5.12084 -2.95845 0
M  V30 8535 H 790.197 -0.559905 -0.504997 0
M  V30 8536 H 792.848 -1.72382 -0.629014 0
M  V30 8537 H 791.23 -2.36462 -3.1765 0
M  V30 8538 H 792.404 -4.44487 -1.21524 0
M  V30 8539 H 790.719 -3.97197 -1.24995 0
M  V30 8540 H 793.316 -3.54944 -3.99898 0
M  V30 8541 H 793.659 -1.85902 -3.72486 0
M  V30 8542 H 794.192 -3.06832 -2.53178 0
M  V30 8543 H 790.931 -6.06556 -2.48535 0
M  V30 8544 H 790.451 -4.78259 -3.61979 0
M  V30 8545 H 792.13 -5.37661 -3.59902 0
M  V30 8546 N 792.262 0.832906 -1.33792 0
M  V30 8547 C 793.492 1.61813 -1.28453 0
M  V30 8548 C 793.9 1.88639 0.145595 0
M  V30 8549 O 793.243 1.47122 1.10004 0
M  V30 8550 C 793.305 2.98929 -1.99704 0
M  V30 8551 C 792.969 2.95045 -3.48995 0
M  V30 8552 C 793.966 2.70337 -4.44088 0
M  V30 8553 C 791.651 3.14993 -3.91261 0
M  V30 8554 C 793.645 2.65612 -5.79421 0
M  V30 8555 C 791.332 3.09893 -5.26697 0
M  V30 8556 C 792.33 2.85235 -6.20588 0
M  V30 8557 O 792.018 2.8005 -7.53543 0
M  V30 8558 H 791.75 0.510013 -0.443693 0
M  V30 8559 H 794.304 1.04514 -1.76822 0
M  V30 8560 H 792.534 3.58106 -1.45935 0
M  V30 8561 H 794.223 3.59849 -1.87786 0
M  V30 8562 H 794.989 2.54671 -4.12756 0
M  V30 8563 H 790.868 3.33204 -3.18584 0
M  V30 8564 H 794.412 2.46285 -6.52679 0
M  V30 8565 H 790.309 3.2511 -5.5765 0
M  V30 8566 H 791.077 2.95849 -7.63162 0
M  V30 8567 N 793.74 1.17359 1.05189 0
M  V30 8568 C 794.688 0.886527 2.15043 0
M  V30 8569 C 795.682 -0.148834 1.68745 0
M  V30 8570 O 796.888 -0.00175123 1.8 0
M  V30 8571 H 793.263 0.269147 0.702185 0
M  V30 8572 H 795.234 1.82016 2.36459 0
M  V30 8573 C 793.983 0.416333 3.45198 0
M  V30 8574 H 793.306 1.20449 3.81225 0
M  V30 8575 H 794.746 0.254362 4.23236 0
M  V30 8576 C 793.205 -0.866016 3.25579 0
M  V30 8577 O 793.735 -1.9328 3.52144 0
M  V30 8578 N 791.941 -0.814179 2.78961 0
M  V30 8579 H 791.488 0.0541618 2.57543 0
M  V30 8580 H 791.446 -1.67264 2.66214 0
M  V30 8581 N 795.218 -1.23913 0.973828 0
M  V30 8582 C 796.443 -1.96735 0.656511 0
M  V30 8583 C 796.868 -1.71682 -0.768571 0
M  V30 8584 O 796.226 -0.984267 -1.52256 0
M  V30 8585 C 796.274 -3.48004 0.944735 0
M  V30 8586 O 795.378 -4.12387 0.0333357 0
M  V30 8587 H 794.719 -0.616119 0.247575 0
M  V30 8588 H 797.249 -1.57525 1.30564 0
M  V30 8589 H 797.259 -3.98424 0.87876 0
M  V30 8590 H 795.934 -3.65567 1.98328 0
M  V30 8591 H 794.511 -3.72585 0.153157 0
M  V30 8592 N 796.696 -0.74468 -1.38897 0
M  V30 8593 C 797.626 -0.126355 -2.33158 0
M  V30 8594 C 798.607 0.713517 -1.54412 0
M  V30 8595 O 799.792 0.656523 -1.82766 0
M  V30 8596 C 796.922 0.774375 -3.38557 0
M  V30 8597 C 795.876 0.0379214 -4.27983 0
M  V30 8598 C 795.202 1.05631 -5.24162 0
M  V30 8599 C 796.502 -1.12523 -5.10035 0
M  V30 8600 H 798.196 -0.913744 -2.85116 0
M  V30 8601 H 795.742 -0.440847 -1.37086 0
M  V30 8602 H 797.695 1.21655 -4.03458 0
M  V30 8603 H 796.419 1.59399 -2.85061 0
M  V30 8604 H 795.078 -0.384733 -3.64576 0
M  V30 8605 H 794.726 1.86975 -4.66958 0
M  V30 8606 H 794.426 0.568261 -5.84846 0
M  V30 8607 H 795.95 1.49799 -5.9194 0
M  V30 8608 H 797.364 -0.761037 -5.68226 0
M  V30 8609 H 795.761 -1.54355 -5.79909 0
M  V30 8610 H 796.831 -1.94237 -4.44297 0
M  V30 8611 N 798.174 1.49689 -0.493057 0
M  V30 8612 C 799.422 2.02027 0.0541642 0
M  V30 8613 C 799.743 1.37554 1.38217 0
M  V30 8614 O 799.013 0.528174 1.88646 0
M  V30 8615 H 797.593 0.746646 0.0230069 0
M  V30 8616 H 800.255 1.83795 -0.648489 0
M  V30 8617 H 799.351 3.11523 0.189652 0
M  V30 8618 N 799.652 0.226554 1.55963 0
M  V30 8619 C 800.9 -0.402991 1.98041 0
M  V30 8620 C 801.221 -1.59938 1.11557 0
M  V30 8621 O 800.491 -1.9494 0.193719 0
M  V30 8622 H 799.071 -0.15188 0.731397 0
M  V30 8623 H 801.733 0.320613 1.92245 0
M  V30 8624 H 800.829 -0.725937 3.0354 0
M  V30 8625 N 801.13 -1.57531 -0.0467866 0
M  V30 8626 C 802.078 -2.06455 -1.0714 0
M  V30 8627 C 803.072 -0.974744 -1.38546 0
M  V30 8628 O 804.278 -1.15974 -1.37659 0
M  V30 8629 H 800.653 -0.658607 -0.362962 0
M  V30 8630 H 802.624 -2.91613 -0.632813 0
M  V30 8631 C 801.373 -2.54481 -2.36927 0
M  V30 8632 H 800.696 -3.37946 -2.13617 0
M  V30 8633 H 802.136 -2.92442 -3.07007 0
M  V30 8634 C 800.595 -1.43836 -3.04652 0
M  V30 8635 O 801.125 -0.794531 -3.93764 0
M  V30 8636 N 799.331 -1.17727 -2.65686 0
M  V30 8637 H 798.878 -1.70265 -1.93307 0
M  V30 8638 H 798.836 -0.439051 -3.11319 0
M  V30 8639 N 802.608 0.318715 -1.54344 0
M  V30 8640 C 803.556 1.41254 -1.84798 0
M  V30 8641 C 804.55 1.53325 -0.720256 0
M  V30 8642 O 805.756 1.55653 -0.903992 0
M  V30 8643 H 802.131 0.471468 -0.585851 0
M  V30 8644 H 804.102 1.12795 -2.7626 0
M  V30 8645 C 802.851 2.77395 -2.09637 0
M  V30 8646 H 802.174 2.68881 -2.95876 0
M  V30 8647 H 803.614 3.52987 -2.34896 0
M  V30 8648 C 802.073 3.24948 -0.889398 0
M  V30 8649 O 802.603 4.01573 -0.101063 0
M  V30 8650 N 800.809 2.82051 -0.699684 0
M  V30 8651 H 800.356 2.19858 -1.3424 0
M  V30 8652 H 800.314 3.1422 0.106368 0
M  V30 8653 N 804.086 1.46499 0.581025 0
M  V30 8654 C 805.502 1.31491 0.904563 0
M  V30 8655 C 805.702 0.287598 1.99437 0
M  V30 8656 O 804.758 -0.309247 2.50599 0
M  V30 8657 C 806.071 2.70163 1.32032 0
M  V30 8658 C 807.619 2.78266 1.43308 0
M  V30 8659 C 808.094 4.17524 1.8825 0
M  V30 8660 N 809.585 4.19949 1.9544 0
M  V30 8661 C 810.32 5.24594 2.31493 0
M  V30 8662 N 809.816 6.39564 2.66326 0
M  V30 8663 N 811.609 5.11961 2.32062 0
M  V30 8664 H 803.76 2.11946 -0.138856 0
M  V30 8665 H 806.023 0.948 0.000548528 0
M  V30 8666 H 805.729 3.46655 0.593554 0
M  V30 8667 H 805.603 3.00379 2.2815 0
M  V30 8668 H 807.99 2.02061 2.15071 0
M  V30 8669 H 808.071 2.51732 0.45438 0
M  V30 8670 H 807.715 4.94225 1.17065 0
M  V30 8671 H 807.645 4.41466 2.87081 0
M  V30 8672 H 810.136 3.36996 1.71004 0
M  V30 8673 H 810.449 7.15187 2.92793 0
M  V30 8674 H 808.794 6.42923 2.6396 0
M  V30 8675 H 811.985 4.21177 2.04272 0
M  V30 8676 H 812.158 5.93626 2.5983 0
M  V30 8677 N 805.565 -0.825799 1.34232 0
M  V30 8678 C 806.981 -1.11848 1.13851 0
M  V30 8679 C 807.181 -2.01405 -0.0619031 0
M  V30 8680 O 806.237 -2.41465 -0.738287 0
M  V30 8681 C 807.55 -1.76797 2.43235 0
M  V30 8682 C 809.098 -1.89304 2.49265 0
M  V30 8683 C 809.573 -2.57669 3.78643 0
M  V30 8684 N 811.064 -2.65171 3.79788 0
M  V30 8685 C 811.799 -3.1879 4.76614 0
M  V30 8686 N 811.295 -3.72995 5.83821 0
M  V30 8687 N 813.088 -3.17164 4.64073 0
M  V30 8688 H 805.239 -0.230049 2.11151 0
M  V30 8689 H 807.502 -0.164609 0.9336 0
M  V30 8690 H 807.208 -1.18455 3.31152 0
M  V30 8691 H 807.082 -2.76693 2.56361 0
M  V30 8692 H 809.469 -2.46796 1.6179 0
M  V30 8693 H 809.55 -0.883191 2.4007 0
M  V30 8694 H 809.194 -2.00833 4.66507 0
M  V30 8695 H 809.124 -3.59152 3.8512 0
M  V30 8696 H 811.615 -2.26746 3.02315 0
M  V30 8697 H 811.928 -4.12151 6.53721 0
M  V30 8698 H 810.273 -3.71246 5.87538 0
M  V30 8699 H 813.464 -2.74082 3.79469 0
M  V30 8700 H 813.637 -3.58647 5.397 0
M  V30 8701 N 807.043 -1.17915 -1.04565 0
M  V30 8702 C 808.268 -0.996749 -1.81878 0
M  V30 8703 C 808.693 0.450169 -1.82634 0
M  V30 8704 O 808.051 1.32268 -1.23995 0
M  V30 8705 C 808.099 -1.55005 -3.25585 0
M  V30 8706 O 807.203 -0.76804 -4.05185 0
M  V30 8707 H 806.544 -0.353456 -0.562108 0
M  V30 8708 H 809.074 -1.56557 -1.31723 0
M  V30 8709 H 809.084 -1.57503 -3.76373 0
M  V30 8710 H 807.759 -2.60327 -3.2435 0
M  V30 8711 H 806.336 -0.81498 -3.63885 0
M  V30 8712 N 808.521 1.23394 -0.980386 0
M  V30 8713 C 809.769 1.91431 -0.647978 0
M  V30 8714 C 810.09 1.76871 0.821066 0
M  V30 8715 O 809.36 1.14808 1.58732 0
M  V30 8716 H 807.94 0.708516 -0.236673 0
M  V30 8717 H 810.602 1.50019 -1.2442 0
M  V30 8718 H 809.698 2.98854 -0.899592 0
M  V30 8719 N 809.999 0.752036 1.385 0
M  V30 8720 C 811.415 0.42946 1.53713 0
M  V30 8721 C 811.615 -1.0576 1.71514 0
M  V30 8722 O 810.671 -1.84366 1.72527 0
M  V30 8723 C 811.984 1.22735 2.74511 0
M  V30 8724 C 813.532 1.21727 2.8836 0
M  V30 8725 C 814.007 1.99809 4.12117 0
M  V30 8726 N 815.498 1.97062 4.19191 0
M  V30 8727 C 816.233 2.54274 5.13938 0
M  V30 8728 N 815.729 3.20193 6.14368 0
M  V30 8729 N 817.522 2.44212 5.06277 0
M  V30 8730 H 809.673 1.71581 1.25195 0
M  V30 8731 H 811.936 0.727293 0.60807 0
M  V30 8732 H 811.642 2.28032 2.67758 0
M  V30 8733 H 811.516 0.843186 3.67655 0
M  V30 8734 H 813.903 0.172367 2.94596 0
M  V30 8735 H 813.984 1.64094 1.96232 0
M  V30 8736 H 813.628 3.0431 4.06642 0
M  V30 8737 H 813.558 1.54837 5.03322 0
M  V30 8738 H 816.049 1.49054 3.47263 0
M  V30 8739 H 816.362 3.61272 6.83156 0
M  V30 8740 H 814.707 3.24287 6.14705 0
M  V30 8741 H 817.898 1.92343 4.26757 0
M  V30 8742 H 818.071 2.89096 5.79937 0
M  V30 8743 N 811.477 -1.49425 0.500989 0
M  V30 8744 C 812.425 -2.30771 -0.291149 0
M  V30 8745 C 813.419 -1.3938 -0.962787 0
M  V30 8746 O 814.625 -1.56431 -0.890477 0
M  V30 8747 H 811 -0.743499 -0.11275 0
M  V30 8748 H 812.971 -2.95501 0.414917 0
M  V30 8749 C 811.72 -3.20725 -1.34279 0
M  V30 8750 H 811.043 -3.90975 -0.83538 0
M  V30 8751 H 812.483 -3.80583 -1.86903 0
M  V30 8752 C 810.942 -2.40334 -2.36095 0
M  V30 8753 O 811.472 -2.10749 -3.41976 0
M  V30 8754 N 809.678 -2.02359 -2.08565 0
M  V30 8755 H 809.225 -2.26619 -1.22482 0
M  V30 8756 H 809.183 -1.48878 -2.76916 0
M  V30 8757 N 812.955 -0.234822 -1.55841 0
M  V30 8758 C 814.183 0.397745 -2.03041 0
M  V30 8759 C 814.598 1.52405 -1.11437 0
M  V30 8760 O 813.955 1.82061 -0.126466 0
M  V30 8761 C 814.006 0.916919 -3.49678 0
M  V30 8762 O 813.727 -0.164493 -4.37791 0
M  V30 8763 C 815.228 1.62139 -4.12584 0
M  V30 8764 H 812.448 0.0959214 -0.664108 0
M  V30 8765 H 814.992 -0.355156 -2.01392 0
M  V30 8766 H 813.147 1.62004 -3.519 0
M  V30 8767 H 813.561 0.227794 -5.24005 0
M  V30 8768 H 815.035 1.93651 -5.16917 0
M  V30 8769 H 815.512 2.53918 -3.58361 0
M  V30 8770 H 816.118 0.963145 -4.14251 0
M  V30 8771 N 814.433 1.57553 0.0384317 0
M  V30 8772 C 815.658 1.93485 0.746872 0
M  V30 8773 C 816.083 0.834069 1.68597 0
M  V30 8774 O 815.441 -0.210902 1.80069 0
M  V30 8775 C 815.489 3.28463 1.4881 0
M  V30 8776 O 814.593 3.20051 2.60079 0
M  V30 8777 H 813.934 0.632675 0.201539 0
M  V30 8778 H 816.464 2.046 -0.00329815 0
M  V30 8779 H 816.474 3.63132 1.86009 0
M  V30 8780 H 815.149 4.08147 0.799297 0
M  V30 8781 H 813.726 2.96998 2.25492 0
M  V30 8782 N 815.911 -0.310526 1.54511 0
M  V30 8783 C 817.136 -1.07046 1.7764 0
M  V30 8784 C 817.561 -1.80488 0.529696 0
M  V30 8785 O 816.919 -1.73702 -0.519361 0
M  V30 8786 C 816.967 -2.03411 2.97752 0
M  V30 8787 O 816.071 -3.11545 2.7021 0
M  V30 8788 H 815.412 -0.307994 0.588248 0
M  V30 8789 H 817.942 -0.350848 2.01569 0
M  V30 8790 H 817.952 -2.46048 3.2546 0
M  V30 8791 H 816.627 -1.49361 3.88155 0
M  V30 8792 H 815.204 -2.7349 2.53491 0
M  V30 8793 N 817.389 -1.46805 -0.573248 0
M  V30 8794 C 818.614 -1.56433 -1.36175 0
M  V30 8795 C 819.039 -0.209336 -1.86932 0
M  V30 8796 O 818.397 0.812146 -1.62092 0
M  V30 8797 C 818.445 -2.58055 -2.51873 0
M  V30 8798 O 817.549 -2.12214 -3.53609 0
M  V30 8799 H 816.89 -0.526068 -0.405153 0
M  V30 8800 H 819.42 -1.92456 -0.694405 0
M  V30 8801 H 819.43 -2.77966 -2.98662 0
M  V30 8802 H 818.105 -3.56448 -2.14284 0
M  V30 8803 H 816.682 -2.02333 -3.13234 0
M  V30 8804 N 818.867 0.818669 -1.34668 0
M  V30 8805 C 820.095 1.60674 -1.30351 0
M  V30 8806 C 820.51 1.88408 0.121546 0
M  V30 8807 O 819.867 1.47849 1.06991 0
M  V30 8808 C 819.918 2.94516 -2.09625 0
M  V30 8809 O 819.639 2.6799 -3.46573 0
M  V30 8810 C 821.14 3.8891 -2.12754 0
M  V30 8811 H 818.36 0.499306 -0.448258 0
M  V30 8812 H 820.904 1.01828 -1.77345 0
M  V30 8813 H 819.059 3.49908 -1.66262 0
M  V30 8814 H 819.473 3.53361 -3.87603 0
M  V30 8815 H 820.947 4.79972 -2.72637 0
M  V30 8816 H 821.424 4.24599 -1.12306 0
M  V30 8817 H 822.03 3.39453 -2.56225 0
M  V30 8818 N 820.346 1.18468 1.03938 0
M  V30 8819 C 821.757 0.984808 1.58614 0
M  V30 8820 C 822.108 -0.465165 1.90606 0
M  V30 8821 O 821.233 -1.34274 1.69704 0
M  V30 8822 C 821.828 1.78135 2.8819 0
M  V30 8823 C 820.387 1.62579 3.39478 0
M  V30 8824 C 819.534 1.77501 2.13046 0
M  V30 8825 H 822.485 1.32993 0.865944 0
M  V30 8826 H 822.506 1.27119 3.58638 0
M  V30 8827 H 822.018 2.83661 2.64874 0
M  V30 8828 H 820.119 0.59595 3.67803 0
M  V30 8829 H 820.232 2.42463 4.13217 0
M  V30 8830 H 818.596 1.2046 2.24414 0
M  V30 8831 H 819.379 2.84464 1.92185 0
M  V30 8832 N 821.824 -1.22873 0.986916 0
M  V30 8833 C 822.756 -2.23889 0.490537 0
M  V30 8834 C 823.769 -1.57523 -0.411144 0
M  V30 8835 O 824.958 -1.7721 -0.214236 0
M  V30 8836 C 822.058 -3.37488 -0.30902 0
M  V30 8837 C 821.231 -4.33438 0.587354 0
M  V30 8838 C 820.29 -5.25958 -0.159467 0
M  V30 8839 O 819.316 -5.67394 0.453115 0
M  V30 8840 N 820.518 -5.62265 -1.44355 0
M  V30 8841 H 823.283 -2.67109 1.35914 0
M  V30 8842 H 820.844 -1.37111 0.860937 0
M  V30 8843 H 822.836 -3.96365 -0.817139 0
M  V30 8844 H 821.406 -2.934 -1.07868 0
M  V30 8845 H 820.626 -3.72969 1.27622 0
M  V30 8846 H 821.914 -4.94495 1.19801 0
M  V30 8847 H 821.312 -5.30562 -1.96266 0
M  V30 8848 H 819.869 -6.23585 -1.89698 0
M  V30 8849 N 823.302 -0.75937 -1.38099 0
M  V30 8850 C 824.232 -0.151077 -2.33011 0
M  V30 8851 C 825.213 0.697099 -1.5516 0
M  V30 8852 O 826.398 0.637101 -1.83452 0
M  V30 8853 C 823.528 0.738423 -3.39359 0
M  V30 8854 C 822.482 -0.0074741 -4.27999 0
M  V30 8855 C 821.808 1.00066 -5.25253 0
M  V30 8856 C 823.108 -1.17926 -5.08813 0
M  V30 8857 H 824.802 -0.943933 -2.84131 0
M  V30 8858 H 822.348 -0.455362 -1.36611 0
M  V30 8859 H 824.301 1.17369 -4.04725 0
M  V30 8860 H 823.025 1.56366 -2.86735 0
M  V30 8861 H 821.684 -0.423379 -3.64147 0
M  V30 8862 H 821.332 1.82012 -4.68914 0
M  V30 8863 H 821.032 0.506199 -5.85416 0
M  V30 8864 H 822.556 1.43512 -5.93495 0
M  V30 8865 H 823.97 -0.821262 -5.67387 0
M  V30 8866 H 822.367 -1.60497 -5.78239 0
M  V30 8867 H 823.437 -1.98938 -4.42212 0
M  V30 8868 N 824.78 1.49157 -0.508906 0
M  V30 8869 C 826.196 1.58741 -0.165372 0
M  V30 8870 C 826.396 1.5133 1.33047 0
M  V30 8871 O 825.452 1.39135 2.10707 0
M  V30 8872 C 826.765 2.91217 -0.749194 0
M  V30 8873 C 828.313 3.047 -0.716015 0
M  V30 8874 C 828.788 4.39807 -1.27804 0
M  V30 8875 N 830.279 4.46319 -1.23908 0
M  V30 8876 C 831.014 5.49325 -1.64406 0
M  V30 8877 N 830.51 6.59395 -2.12534 0
M  V30 8878 N 832.303 5.40084 -1.55773 0
M  V30 8879 H 824.454 1.52217 -1.48134 0
M  V30 8880 H 826.717 0.721514 -0.614915 0
M  V30 8881 H 826.423 3.02233 -1.79856 0
M  V30 8882 H 826.297 3.76592 -0.214144 0
M  V30 8883 H 828.684 2.9331 0.324535 0
M  V30 8884 H 828.765 2.2099 -1.2883 0
M  V30 8885 H 828.409 4.5195 -2.31741 0
M  V30 8886 H 828.339 5.2217 -0.681623 0
M  V30 8887 H 830.83 3.67354 -0.886537 0
M  V30 8888 H 831.143 7.34102 -2.41485 0
M  V30 8889 H 829.488 6.60414 -2.16513 0
M  V30 8890 H 832.679 4.52986 -1.17987 0
M  V30 8891 H 832.852 6.20233 -1.87657 0
M  V30 8892 N 826.258 0.243083 1.55714 0
M  V30 8893 C 827.205 -0.658078 2.21219 0
M  V30 8894 C 828.175 -1.1742 1.17481 0
M  V30 8895 O 829.36 -1.22937 1.45915 0
M  V30 8896 C 826.5 -1.85104 2.91257 0
M  V30 8897 C 825.613 -1.3718 4.09641 0
M  V30 8898 C 824.748 -2.52403 4.67404 0
M  V30 8899 C 823.787 -2.01321 5.78045 0
M  V30 8900 N 822.924 -3.09896 6.30007 0
M  V30 8901 H 827.764 -0.0927854 2.97856 0
M  V30 8902 H 825.301 -0.0340375 1.47061 0
M  V30 8903 H 827.259 -2.55179 3.3006 0
M  V30 8904 H 825.889 -2.38887 2.17101 0
M  V30 8905 H 824.941 -0.565232 3.76177 0
M  V30 8906 H 826.253 -0.957409 4.89525 0
M  V30 8907 H 825.407 -3.30525 5.08761 0
M  V30 8908 H 824.146 -2.97142 3.86728 0
M  V30 8909 H 823.151 -1.21667 5.36169 0
M  V30 8910 H 824.376 -1.57556 6.6057 0
M  V30 8911 H 822.322 -3.54077 5.52237 0
M  V30 8912 H 822.239 -2.72776 7.05074 0
M  V30 8913 H 823.507 -3.8809 6.76023 0
M  V30 8914 N 827.736 -1.57571 -0.0300757 0
M  V30 8915 C 828.961 -1.93879 -0.736601 0
M  V30 8916 C 829.386 -0.842998 -1.68152 0
M  V30 8917 O 828.744 0.20135 -1.80178 0
M  V30 8918 C 828.792 -3.29247 -1.47066 0
M  V30 8919 O 827.896 -3.21426 -2.58378 0
M  V30 8920 H 827.237 -0.633735 -0.198181 0
M  V30 8921 H 829.767 -2.04595 0.0141485 0
M  V30 8922 H 829.777 -3.64113 -1.84081 0
M  V30 8923 H 828.452 -4.08565 -0.77764 0
M  V30 8924 H 827.029 -2.98189 -2.23914 0
M  V30 8925 N 829.214 0.302327 -1.54673 0
M  V30 8926 C 830.164 1.37443 -1.81916 0
M  V30 8927 C 831.148 1.45999 -0.676251 0
M  V30 8928 O 832.34 1.50174 -0.93685 0
M  V30 8929 C 829.469 2.73966 -2.06876 0
M  V30 8930 C 828.555 2.69637 -3.27348 0
M  V30 8931 N 828.946 2.34926 -4.47933 0
M  V30 8932 C 827.244 3.00742 -3.29348 0
M  V30 8933 C 827.945 2.39862 -5.29944 0
M  V30 8934 N 826.921 2.77163 -4.67634 0
M  V30 8935 H 830.723 1.09567 -2.72713 0
M  V30 8936 H 828.237 0.5109 -1.54154 0
M  V30 8937 H 830.234 3.51265 -2.2454 0
M  V30 8938 H 828.894 3.02754 -1.17346 0
M  V30 8939 H 829.905 2.07403 -4.74557 0
M  V30 8940 H 826.582 3.34434 -2.49921 0
M  V30 8941 H 827.972 2.15835 -6.3629 0
M  V30 8942 N 830.692 1.47107 0.565454 0
M  V30 8943 C 831.602 1.61591 1.70075 0
M  V30 8944 C 832.618 0.498931 1.66693 0
M  V30 8945 O 833.794 0.765372 1.8629 0
M  V30 8946 C 830.859 1.61887 3.06583 0
M  V30 8947 C 829.92 2.84949 3.21096 0
M  V30 8948 C 829.153 2.85221 4.51093 0
M  V30 8949 O 829.376 1.94959 5.36048 0
M  V30 8950 O 828.31 3.76982 4.69221 0
M  V30 8951 H 832.136 2.57638 1.60799 0
M  V30 8952 H 829.721 1.30097 0.73451 0
M  V30 8953 H 831.603 1.64809 3.87835 0
M  V30 8954 H 830.278 0.69005 3.16259 0
M  V30 8955 H 829.185 2.87575 2.39273 0
M  V30 8956 H 830.518 3.77098 3.1632 0
M  V30 8957 N 832.17 -0.811516 1.35101 0
M  V30 8958 C 833.395 -1.60499 1.31358 0
M  V30 8959 C 833.82 -1.87793 -0.107383 0
M  V30 8960 O 833.178 -1.46161 -1.07268 0
M  V30 8961 C 833.226 -2.91612 2.12119 0
M  V30 8962 O 832.33 -3.84211 1.49853 0
M  V30 8963 H 831.671 -0.487702 0.450603 0
M  V30 8964 H 834.201 -1.00758 1.7807 0
M  V30 8965 H 834.211 -3.4108 2.23894 0
M  V30 8966 H 832.886 -2.71071 3.15426 0
M  V30 8967 H 831.463 -3.42751 1.46889 0
M  V30 8968 N 833.648 -1.19017 -1.03309 0
M  V30 8969 C 834.895 -0.990214 -1.76638 0
M  V30 8970 C 835.223 0.479435 -1.88498 0
M  V30 8971 O 834.478 1.37223 -1.39529 0
M  V30 8972 C 834.777 -1.59927 -3.19622 0
M  V30 8973 C 834.443 -3.09632 -3.27779 0
M  V30 8974 C 833.105 -3.50491 -3.29712 0
M  V30 8975 C 835.457 -4.05644 -3.27264 0
M  V30 8976 C 832.785 -4.85921 -3.28782 0
M  V30 8977 C 835.137 -5.41 -3.27875 0
M  V30 8978 C 833.801 -5.81295 -3.28104 0
M  V30 8979 H 833.071 -0.362345 -0.646364 0
M  V30 8980 H 835.718 -1.48197 -1.21284 0
M  V30 8981 H 834.023 -1.0297 -3.78027 0
M  V30 8982 H 835.72 -1.41989 -3.7502 0
M  V30 8983 H 832.31 -2.77073 -3.26999 0
M  V30 8984 H 836.494 -3.75124 -3.24955 0
M  V30 8985 H 831.75 -5.16427 -3.27281 0
M  V30 8986 H 835.924 -6.15157 -3.26428 0
M  V30 8987 H 833.551 -6.86211 -3.27138 0
M  V30 8988 N 835.127 1.22348 -0.993418 0
M  V30 8989 C 836.375 1.90733 -0.668246 0
M  V30 8990 C 836.696 1.77732 0.802261 0
M  V30 8991 O 835.966 1.16486 1.57505 0
M  V30 8992 H 834.546 0.705966 -0.244174 0
M  V30 8993 H 837.208 1.48691 -1.26004 0
M  V30 8994 H 836.304 2.97883 -0.931239 0
M  V30 8995 N 836.605 0.766683 1.37694 0
M  V30 8996 C 837.553 0.137269 2.32195 0
M  V30 8997 C 838.547 -0.69067 1.54681 0
M  V30 8998 O 839.753 -0.588299 1.70115 0
M  V30 8999 H 836.128 0.0256003 0.751564 0
M  V30 9000 H 838.099 0.950129 2.82869 0
M  V30 9001 C 836.848 -0.731446 3.39919 0
M  V30 9002 H 836.171 -0.103738 3.99665 0
M  V30 9003 H 837.611 -1.13891 4.08417 0
M  V30 9004 C 836.07 -1.87984 2.79578 0
M  V30 9005 O 836.6 -2.97496 2.69924 0
M  V30 9006 N 834.806 -1.6789 2.37195 0
M  V30 9007 H 834.353 -0.788162 2.45246 0
M  V30 9008 H 834.311 -2.44894 1.97165 0
M  V30 9009 N 838.083 -1.48885 0.516809 0
M  V30 9010 C 839.499 -1.58651 0.173788 0
M  V30 9011 C 839.699 -1.52033 -1.32243 0
M  V30 9012 O 838.755 -1.40251 -2.09967 0
M  V30 9013 C 840.068 -2.90816 0.764628 0
M  V30 9014 C 841.616 -3.04316 0.732164 0
M  V30 9015 C 842.091 -4.39123 1.30135 0
M  V30 9016 N 843.582 -4.45656 1.26273 0
M  V30 9017 C 844.317 -5.48446 1.67317 0
M  V30 9018 N 843.813 -6.58258 2.16028 0
M  V30 9019 N 845.606 -5.39251 1.58635 0
M  V30 9020 H 837.757 -1.5143 1.48939 0
M  V30 9021 H 840.02 -0.718243 0.618733 0
M  V30 9022 H 839.726 -3.01275 1.81456 0
M  V30 9023 H 839.6 -3.76473 0.234113 0
M  V30 9024 H 841.987 -2.93478 -0.308975 0
M  V30 9025 H 842.068 -2.20303 1.3 0
M  V30 9026 H 841.712 -4.50714 2.34135 0
M  V30 9027 H 841.642 -5.21801 0.709305 0
M  V30 9028 H 844.133 -3.66879 0.906006 0
M  V30 9029 H 844.446 -7.32811 2.45374 0
M  V30 9030 H 842.791 -6.59257 2.20013 0
M  V30 9031 H 845.982 -4.52354 1.20387 0
M  V30 9032 H 846.155 -6.19229 1.90944 0
M  V30 9033 N 839.561 -0.251338 -1.55583 0
M  V30 9034 C 840.524 0.63305 -2.20284 0
M  V30 9035 C 841.524 1.09941 -1.17344 0
M  V30 9036 O 842.714 1.00341 -1.42399 0
M  V30 9037 C 839.846 1.8706 -2.84993 0
M  V30 9038 H 841.039 0.0684846 -2.99822 0
M  V30 9039 H 838.592 -0.00181653 -1.563 0
M  V30 9040 H 839.327 2.47629 -2.09405 0
M  V30 9041 H 839.112 1.54436 -3.60405 0
M  V30 9042 H 840.602 2.50004 -3.34496 0
M  V30 9043 N 841.039 1.57585 0.0217189 0
M  V30 9044 C 842.316 1.80779 0.74687 0
M  V30 9045 C 842.696 0.851163 1.9318 0
M  V30 9046 O 842.044 -0.105039 2.28258 0
M  V30 9047 C 842.254 3.28696 1.17302 0
M  V30 9048 C 843.602 3.93871 1.58589 0
M  V30 9049 O 844.626 3.3289 1.2674 0
M  V30 9050 O 843.485 5.01254 2.1773 0
M  V30 9051 H 840.579 0.743666 0.361786 0
M  V30 9052 H 843.125 1.697 -0.00206785 0
M  V30 9053 H 841.897 3.89927 0.327453 0
M  V30 9054 H 841.52 3.44692 1.98174 0
M  V30 9055 N 842.517 -0.29412 1.54831 0
M  V30 9056 C 843.464 -1.36296 1.86258 0
M  V30 9057 C 844.434 -1.50061 0.712097 0
M  V30 9058 O 845.619 -1.64809 0.961381 0
M  V30 9059 C 842.759 -2.72187 2.12151 0
M  V30 9060 C 841.872 -2.66816 3.39755 0
M  V30 9061 C 841.007 -3.94747 3.55455 0
M  V30 9062 C 840.046 -3.838 4.76827 0
M  V30 9063 N 839.183 -5.03521 4.89296 0
M  V30 9064 H 844.023 -1.08796 2.7743 0
M  V30 9065 H 841.56 -0.526069 1.37371 0
M  V30 9066 H 843.518 -3.51225 2.25159 0
M  V30 9067 H 842.148 -2.97934 1.24237 0
M  V30 9068 H 841.2 -1.79605 3.3533 0
M  V30 9069 H 842.512 -2.5462 4.28917 0
M  V30 9070 H 841.666 -4.82223 3.68166 0
M  V30 9071 H 840.405 -4.09785 2.64438 0
M  V30 9072 H 839.41 -2.94708 4.64141 0
M  V30 9073 H 840.635 -3.70301 5.69258 0
M  V30 9074 H 838.581 -5.1901 4.01204 0
M  V30 9075 H 838.498 -4.93775 5.72471 0
M  V30 9076 H 839.766 -5.92629 5.06371 0
M  V30 9077 N 843.995 -1.47404 -0.557645 0
M  V30 9078 C 844.942 -1.59859 -1.66475 0
M  V30 9079 C 845.912 -0.441644 -1.60121 0
M  V30 9080 O 847.097 -0.661641 -1.78961 0
M  V30 9081 C 844.237 -1.61843 -3.04797 0
M  V30 9082 C 843.35 -2.8845 -3.2159 0
M  V30 9083 C 842.485 -2.81773 -4.50308 0
M  V30 9084 C 841.524 -4.03208 -4.60532 0
M  V30 9085 N 840.661 -3.94769 -5.80604 0
M  V30 9086 H 845.501 -2.54415 -1.55168 0
M  V30 9087 H 843.038 -1.26194 -0.755876 0
M  V30 9088 H 844.996 -1.60976 -3.84893 0
M  V30 9089 H 843.626 -0.707997 -3.1494 0
M  V30 9090 H 842.678 -2.99186 -2.34929 0
M  V30 9091 H 843.99 -3.78379 -3.25009 0
M  V30 9092 H 843.144 -2.79153 -5.38663 0
M  V30 9093 H 841.883 -1.89527 -4.49367 0
M  V30 9094 H 840.888 -4.06133 -3.70589 0
M  V30 9095 H 842.113 -4.9658 -4.63233 0
M  V30 9096 H 840.059 -3.05326 -5.80613 0
M  V30 9097 H 839.976 -4.78375 -5.854 0
M  V30 9098 H 841.244 -3.96165 -6.71322 0
M  V30 9099 N 845.473 0.80434 -1.35529 0
M  V30 9100 C 846.383 1.94784 -1.30753 0
M  V30 9101 C 847.399 1.72703 -0.212071 0
M  V30 9102 O 848.575 1.96494 -0.441841 0
M  V30 9103 C 845.64 3.29406 -1.08133 0
M  V30 9104 C 844.701 3.64367 -2.27013 0
M  V30 9105 C 843.934 4.92566 -2.05463 0
M  V30 9106 O 844.157 5.61166 -1.02222 0
M  V30 9107 O 843.091 5.25838 -2.92879 0
M  V30 9108 H 846.917 2.01761 -2.26994 0
M  V30 9109 H 844.502 0.942448 -1.15924 0
M  V30 9110 H 846.384 4.09995 -0.973756 0
M  V30 9111 H 845.059 3.23355 -0.149444 0
M  V30 9112 H 843.966 2.84146 -2.43335 0
M  V30 9113 H 845.299 3.75125 -3.18656 0
M  V30 9114 N 846.951 1.19563 1.02676 0
M  V30 9115 C 847.898 0.935291 2.11 0
M  V30 9116 C 848.868 -0.130685 1.65585 0
M  V30 9117 O 850.053 0.0119062 1.90796 0
M  V30 9118 C 847.193 0.482384 3.41712 0
M  V30 9119 C 846.306 1.61537 4.00662 0
M  V30 9120 C 845.441 1.11378 5.19392 0
M  V30 9121 C 844.48 2.22052 5.70403 0
M  V30 9122 N 843.617 1.73185 6.80405 0
M  V30 9123 H 848.457 1.86275 2.32606 0
M  V30 9124 H 845.994 0.928656 1.14081 0
M  V30 9125 H 847.952 0.20118 4.16715 0
M  V30 9126 H 846.582 -0.408086 3.2021 0
M  V30 9127 H 845.634 2.01173 3.22852 0
M  V30 9128 H 846.946 2.44912 4.34534 0
M  V30 9129 H 846.1 0.787935 6.01562 0
M  V30 9130 H 844.839 0.249789 4.8706 0
M  V30 9131 H 843.844 2.55465 4.86845 0
M  V30 9132 H 845.069 3.08911 6.04774 0
M  V30 9133 H 843.015 0.890973 6.49921 0
M  V30 9134 H 842.932 2.50148 7.13416 0
M  V30 9135 H 844.2 1.4357 7.66164 0
M  V30 9136 N 848.429 -1.21819 0.999893 0
M  V30 9137 C 849.362 -2.22635 0.500887 0
M  V30 9138 C 850.34 -1.56459 -0.442636 0
M  V30 9139 O 851.524 -1.84902 -0.366551 0
M  V30 9140 C 848.651 -3.37598 -0.273046 0
M  V30 9141 C 847.697 -4.22006 0.617511 0
M  V30 9142 S 848.53 -4.93583 2.07693 0
M  V30 9143 C 849.686 -6.1198 1.31269 0
M  V30 9144 H 849.919 -2.64618 1.35516 0
M  V30 9145 H 847.452 -1.31606 0.807419 0
M  V30 9146 H 849.41 -4.04251 -0.713515 0
M  V30 9147 H 848.071 -2.94108 -1.10268 0
M  V30 9148 H 847.264 -5.03995 0.0216543 0
M  V30 9149 H 846.866 -3.6052 0.99504 0
M  V30 9150 H 849.158 -6.74979 0.583933 0
M  V30 9151 H 850.101 -6.75991 2.10811 0
M  V30 9152 H 850.509 -5.5847 0.822901 0
M  V30 9153 N 849.908 -0.773975 -1.37286 0
M  V30 9154 C 851.324 -0.45386 -1.53011 0
M  V30 9155 C 851.524 1.03018 -1.73175 0
M  V30 9156 O 850.58 1.81597 -1.75438 0
M  V30 9157 C 851.893 -1.27087 -2.72524 0
M  V30 9158 C 853.441 -1.26299 -2.86387 0
M  V30 9159 C 853.916 -2.0634 -4.08886 0
M  V30 9160 N 855.407 -2.03706 -4.16003 0
M  V30 9161 C 856.142 -2.62418 -5.09828 0
M  V30 9162 N 855.638 -3.29926 -6.09197 0
M  V30 9163 N 857.431 -2.52236 -5.02328 0
M  V30 9164 H 849.582 -1.73551 -1.22449 0
M  V30 9165 H 851.845 -0.736874 -0.596423 0
M  V30 9166 H 851.551 -2.32263 -2.64096 0
M  V30 9167 H 851.425 -0.90157 -3.66267 0
M  V30 9168 H 853.812 -0.219213 -2.94285 0
M  V30 9169 H 853.893 -1.67195 -1.93596 0
M  V30 9170 H 853.537 -3.10741 -4.01749 0
M  V30 9171 H 853.467 -1.62825 -5.00795 0
M  V30 9172 H 855.958 -1.54559 -3.44848 0
M  V30 9173 H 856.271 -3.72095 -6.77322 0
M  V30 9174 H 854.616 -3.34026 -6.09469 0
M  V30 9175 H 857.807 -1.99108 -4.23643 0
M  V30 9176 H 857.98 -2.98286 -5.75265 0
M  V30 9177 N 851.386 1.48609 -0.524698 0
M  V30 9178 C 852.336 2.26505 0.260696 0
M  V30 9179 C 853.32 1.32378 0.914597 0
M  V30 9180 O 854.512 1.5695 0.818277 0
M  V30 9181 C 851.641 3.17313 1.31024 0
M  V30 9182 C 850.727 4.18911 0.661391 0
M  V30 9183 N 851.118 5.05183 -0.24981 0
M  V30 9184 C 849.416 4.36425 0.91922 0
M  V30 9185 C 850.117 5.78348 -0.623598 0
M  V30 9186 N 849.093 5.43598 0.0140839 0
M  V30 9187 H 852.895 2.90582 -0.440388 0
M  V30 9188 H 850.409 1.5875 -0.342364 0
M  V30 9189 H 852.406 3.71772 1.88656 0
M  V30 9190 H 851.066 2.54791 2.01275 0
M  V30 9191 H 852.077 5.1415 -0.622093 0
M  V30 9192 H 848.754 3.85095 1.6127 0
M  V30 9193 H 850.144 6.57775 -1.37046 0
M  V30 9194 N 852.864 0.259585 1.55447 0
M  V30 9195 C 853.812 -0.6507 2.23313 0
M  V30 9196 C 854.806 -1.17014 1.22491 0
M  V30 9197 O 856.012 -1.12557 1.40467 0
M  V30 9198 H 852.387 -0.228354 0.71649 0
M  V30 9199 H 854.358 -0.0553039 2.98349 0
M  V30 9200 C 853.107 -1.83081 2.95596 0
M  V30 9201 H 852.43 -1.44027 3.72956 0
M  V30 9202 H 853.87 -2.44469 3.46426 0
M  V30 9203 C 852.329 -2.70976 2.00184 0
M  V30 9204 O 852.859 -3.70882 1.54304 0
M  V30 9205 N 851.065 -2.37813 1.67014 0
M  V30 9206 H 850.612 -1.5662 2.04519 0
M  V30 9207 H 850.57 -2.96896 1.03443 0
M  V30 9208 N 854.342 -1.57594 -0.0133615 0
M  V30 9209 C 855.292 -2.04048 -1.01726 0
M  V30 9210 C 856.276 -0.932682 -1.3111 0
M  V30 9211 O 857.468 -1.19652 -1.30432 0
M  V30 9212 C 854.597 -2.53637 -2.31351 0
M  V30 9213 C 853.683 -3.71269 -2.04989 0
M  V30 9214 N 854.074 -4.83436 -1.48739 0
M  V30 9215 C 852.372 -3.78943 -2.35198 0
M  V30 9216 C 853.073 -5.64961 -1.38542 0
M  V30 9217 N 852.049 -5.10554 -1.86643 0
M  V30 9218 H 855.851 -2.88188 -0.576623 0
M  V30 9219 H 853.365 -1.60912 -0.219344 0
M  V30 9220 H 855.362 -2.85186 -3.04096 0
M  V30 9221 H 854.022 -1.7091 -2.76079 0
M  V30 9222 H 855.033 -5.04558 -1.16798 0
M  V30 9223 H 851.71 -3.07047 -2.82893 0
M  V30 9224 H 853.1 -6.65092 -0.954075 0
M  V30 9225 N 855.82 0.285905 -1.54985 0
M  V30 9226 C 857.067 1.0192 -1.74982 0
M  V30 9227 C 857.395 1.86743 -0.543816 0
M  V30 9228 O 856.65 1.89874 0.473972 0
M  V30 9229 C 856.949 1.94193 -3.0004 0
M  V30 9230 C 856.615 1.25225 -4.33162 0
M  V30 9231 C 855.277 1.06149 -4.69346 0
M  V30 9232 C 857.629 0.760427 -5.15623 0
M  V30 9233 C 854.957 0.365991 -5.85557 0
M  V30 9234 C 857.309 0.0785787 -6.32551 0
M  V30 9235 C 855.973 -0.124002 -6.67385 0
M  V30 9236 H 855.243 0.372951 -0.640304 0
M  V30 9237 H 857.89 0.292652 -1.89251 0
M  V30 9238 H 856.195 2.73426 -2.80616 0
M  V30 9239 H 857.892 2.51029 -3.12707 0
M  V30 9240 H 854.482 1.41081 -4.04715 0
M  V30 9241 H 858.666 0.895466 -4.88155 0
M  V30 9242 H 853.922 0.198193 -6.11079 0
M  V30 9243 H 858.096 -0.310339 -6.95708 0
M  V30 9244 H 855.723 -0.664918 -7.57287 0
M  V30 9245 N 857.298 1.47698 0.54982 0
M  V30 9246 C 858.547 1.53961 1.30303 0
M  V30 9247 C 858.86 0.209731 1.94472 0
M  V30 9248 O 860.066 0.150418 2.71083 0
M  V30 9249 C 858.522 2.71436 2.36328 0
M  V30 9250 C 858.13 4.10983 1.78316 0
M  V30 9251 C 859.874 2.86996 3.12783 0
M  V30 9252 C 857.781 5.19747 2.82164 0
M  V30 9253 H 856.711 0.573098 0.489975 0
M  V30 9254 H 859.362 1.73989 0.583089 0
M  V30 9255 H 857.744 2.44801 3.11269 0
M  V30 9256 H 858.918 4.47552 1.09697 0
M  V30 9257 H 857.233 4.00371 1.1442 0
M  V30 9258 H 859.83 3.65422 3.90347 0
M  V30 9259 H 860.173 1.95712 3.67427 0
M  V30 9260 H 860.706 3.13436 2.44954 0
M  V30 9261 H 857.445 6.12932 2.32366 0
M  V30 9262 H 856.965 4.87688 3.49171 0
M  V30 9263 H 858.644 5.47014 3.4552 0
M  V30 9264 N 858.776 -0.797141 1.35954 0
M  V30 9265 C 859.723 -1.90944 1.2965 0
M  V30 9266 C 860.693 -1.65262 0.166628 0
M  V30 9267 O 861.878 -1.87527 0.351883 0
M  V30 9268 C 859.018 -3.27637 1.08389 0
M  V30 9269 C 858.131 -3.65442 2.30382 0
M  V30 9270 C 857.266 -4.91213 2.02195 0
M  V30 9271 C 856.305 -5.21674 3.20191 0
M  V30 9272 N 855.442 -6.38627 2.91719 0
M  V30 9273 H 860.282 -1.95668 2.24762 0
M  V30 9274 H 857.819 -0.95696 1.11717 0
M  V30 9275 H 859.777 -4.06451 0.940912 0
M  V30 9276 H 858.407 -3.22355 0.169351 0
M  V30 9277 H 857.459 -2.81813 2.55511 0
M  V30 9278 H 858.771 -3.83907 3.18461 0
M  V30 9279 H 857.925 -5.77876 1.84783 0
M  V30 9280 H 856.664 -4.74803 1.11416 0
M  V30 9281 H 855.669 -4.33498 3.38171 0
M  V30 9282 H 856.894 -5.40009 4.11786 0
M  V30 9283 H 854.84 -6.23623 2.03543 0
M  V30 9284 H 854.757 -6.57387 3.73334 0
M  V30 9285 H 856.025 -7.28292 2.77868 0
M  V30 9286 N 860.254 -1.20106 -1.0204 0
M  V30 9287 C 861.482 -1.0344 -1.79186 0
M  V30 9288 C 861.897 0.416542 -1.84148 0
M  V30 9289 O 861.254 1.28925 -1.29168 0
M  V30 9290 C 861.305 -1.60663 -3.23836 0
M  V30 9291 O 861.026 -3.00079 -3.19193 0
M  V30 9292 C 862.527 -1.48897 -4.17546 0
M  V30 9293 H 859.747 -0.364093 -0.563629 0
M  V30 9294 H 862.291 -1.5911 -1.28469 0
M  V30 9295 H 860.446 -1.09122 -3.71714 0
M  V30 9296 H 860.86 -3.27162 -4.09958 0
M  V30 9297 H 862.334 -1.93703 -5.16898 0
M  V30 9298 H 862.811 -0.440843 -4.36982 0
M  V30 9299 H 863.417 -1.9961 -3.75547 0
M  V30 9300 N 861.732 1.21287 -1.00634 0
M  V30 9301 C 862.695 2.21927 -0.572821 0
M  V30 9302 C 863.695 1.5691 0.351541 0
M  V30 9303 O 864.885 1.73623 0.141643 0
M  V30 9304 C 862.017 3.40501 0.164932 0
M  V30 9305 H 863.21 2.61795 -1.463 0
M  V30 9306 H 860.763 1.34571 -0.794998 0
M  V30 9307 H 861.498 3.06123 1.07049 0
M  V30 9308 H 861.283 3.88912 -0.498962 0
M  V30 9309 H 862.773 4.15103 0.455945 0
M  V30 9310 N 863.21 0.781244 1.36873 0
M  V30 9311 C 864.142 0.132075 2.28819 0
M  V30 9312 C 865.155 -0.653925 1.49089 0
M  V30 9313 O 866.344 -0.490453 1.7163 0
M  V30 9314 C 863.444 -0.836297 3.28419 0
M  V30 9315 C 862.617 -0.102097 4.37281 0
M  V30 9316 C 861.676 -0.985217 5.16894 0
M  V30 9317 O 860.702 -0.445478 5.67454 0
M  V30 9318 N 861.904 -2.31043 5.3254 0
M  V30 9319 H 864.669 0.921838 2.85171 0
M  V30 9320 H 862.23 0.634427 1.48952 0
M  V30 9321 H 864.222 -1.43074 3.78566 0
M  V30 9322 H 862.792 -1.52698 2.72767 0
M  V30 9323 H 862.012 0.67335 3.88407 0
M  V30 9324 H 863.3 0.404862 5.07187 0
M  V30 9325 H 862.698 -2.77318 4.93063 0
M  V30 9326 H 861.255 -2.85472 5.8596 0
M  V30 9327 N 864.689 -1.48329 0.532571 0
M  V30 9328 C 866.1 -1.86469 0.0927749 0
M  V30 9329 C 866.451 -1.44186 -1.3306 0
M  V30 9330 O 865.576 -0.833741 -1.99694 0
M  V30 9331 C 866.171 -3.38414 0.161588 0
M  V30 9332 C 864.73 -3.75739 -0.223028 0
M  V30 9333 C 863.877 -2.72377 0.520199 0
M  V30 9334 H 866.828 -1.40197 0.743678 0
M  V30 9335 H 866.849 -3.75314 -0.626059 0
M  V30 9336 H 866.361 -3.69159 1.19765 0
M  V30 9337 H 864.462 -3.50608 -1.26113 0
M  V30 9338 H 864.575 -4.78954 0.118385 0
M  V30 9339 H 862.939 -2.54678 -0.0338425 0
M  V30 9340 H 863.722 -3.05965 1.55694 0
M  V30 9341 N 866.167 -0.267825 -1.55308 0
M  V30 9342 C 867.397 0.354073 -2.03543 0
M  V30 9343 C 867.805 1.50554 -1.14586 0
M  V30 9344 O 867.148 1.83028 -0.156991 0
M  V30 9345 C 867.21 0.904148 -3.47945 0
M  V30 9346 C 866.874 -0.11775 -4.56848 0
M  V30 9347 C 867.871 -0.934707 -5.11429 0
M  V30 9348 C 865.556 -0.249885 -5.01678 0
M  V30 9349 C 867.55 -1.87005 -6.0935 0
M  V30 9350 C 865.237 -1.18872 -5.99427 0
M  V30 9351 C 866.235 -1.99731 -6.53144 0
M  V30 9352 O 865.923 -2.92028 -7.48983 0
M  V30 9353 H 865.655 0.0857765 -0.670536 0
M  V30 9354 H 868.209 -0.395515 -2.01556 0
M  V30 9355 H 866.439 1.70368 -3.47148 0
M  V30 9356 H 868.128 1.43835 -3.79561 0
M  V30 9357 H 868.894 -0.84332 -4.77612 0
M  V30 9358 H 864.773 0.369469 -4.59517 0
M  V30 9359 H 868.317 -2.5016 -6.51203 0
M  V30 9360 H 864.214 -1.28095 -6.32663 0
M  V30 9361 H 864.982 -2.86627 -7.66673 0
M  V30 9362 N 867.645 1.57599 0.00500368 0
M  V30 9363 C 869.061 1.55463 0.361015 0
M  V30 9364 C 869.261 0.997051 1.75103 0
M  V30 9365 O 868.317 0.628661 2.44549 0
M  V30 9366 C 869.63 2.99734 0.240828 0
M  V30 9367 C 871.178 3.11399 0.316138 0
M  V30 9368 C 871.653 4.57446 0.22513 0
M  V30 9369 N 873.144 4.62334 0.283186 0
M  V30 9370 C 873.879 5.72914 0.23603 0
M  V30 9371 N 873.375 6.92659 0.139762 0
M  V30 9372 N 875.168 5.61364 0.287529 0
M  V30 9373 H 867.319 1.92185 -0.904359 0
M  V30 9374 H 869.582 0.882529 -0.34619 0
M  V30 9375 H 869.288 3.44348 -0.715343 0
M  V30 9376 H 869.162 3.63009 1.02491 0
M  V30 9377 H 871.549 2.66718 1.26275 0
M  V30 9378 H 871.63 2.50911 -0.497725 0
M  V30 9379 H 871.274 5.02801 -0.717917 0
M  V30 9380 H 871.204 5.15874 1.05742 0
M  V30 9381 H 873.695 3.7619 0.359123 0
M  V30 9382 H 874.008 7.72722 0.10954 0
M  V30 9383 H 872.353 6.9492 0.105462 0
M  V30 9384 H 875.544 4.66707 0.360897 0
M  V30 9385 H 875.717 6.47528 0.247313 0
M  V30 9386 N 869.123 -0.277682 1.55134 0
M  V30 9387 C 870.534 -0.849063 1.66276 0
M  V30 9388 C 870.885 -1.87223 0.5867 0
M  V30 9389 O 870.01 -2.14676 -0.272635 0
M  V30 9390 C 870.605 -1.54681 3.01429 0
M  V30 9391 C 869.164 -2.06628 3.14614 0
M  V30 9392 C 868.311 -0.906748 2.62056 0
M  V30 9393 H 871.262 -0.0541357 1.58608 0
M  V30 9394 H 871.283 -2.41356 2.94156 0
M  V30 9395 H 870.795 -0.80189 3.79725 0
M  V30 9396 H 868.896 -2.84095 2.41082 0
M  V30 9397 H 869.009 -2.2848 4.2111 0
M  V30 9398 H 867.373 -1.29882 2.19095 0
M  V30 9399 H 868.156 -0.175414 3.42852 0
M  V30 9400 N 870.601 -1.47988 -0.541979 0
M  V30 9401 C 871.548 -1.61615 -1.6477 0
M  V30 9402 C 872.518 -0.458602 -1.59644 0
M  V30 9403 O 873.703 -0.680585 -1.78249 0
M  V30 9404 C 870.843 -1.65066 -3.03063 0
M  V30 9405 C 869.956 -2.91845 -3.18513 0
M  V30 9406 C 869.091 -2.86534 -4.47294 0
M  V30 9407 C 868.13 -4.0807 -4.5623 0
M  V30 9408 N 867.267 -4.00905 -5.76385 0
M  V30 9409 H 872.107 -2.56046 -1.52461 0
M  V30 9410 H 869.644 -1.26989 -0.742449 0
M  V30 9411 H 871.602 -1.65049 -3.83164 0
M  V30 9412 H 870.232 -0.74136 -3.14171 0
M  V30 9413 H 869.284 -3.01661 -2.31743 0
M  V30 9414 H 870.596 -3.81804 -3.20978 0
M  V30 9415 H 869.75 -2.84851 -5.35672 0
M  V30 9416 H 868.489 -1.94283 -4.47332 0
M  V30 9417 H 867.494 -4.10041 -3.66261 0
M  V30 9418 H 868.719 -5.01465 -4.5794 0
M  V30 9419 H 866.665 -3.11467 -5.77342 0
M  V30 9420 H 866.582 -4.84557 -5.80293 0
M  V30 9421 H 867.85 -4.03263 -6.67083 0
M  V30 9422 N 872.079 0.78992 -1.36375 0
M  V30 9423 C 873.328 1.54296 -1.29906 0
M  V30 9424 C 873.641 1.95234 0.119651 0
M  V30 9425 O 874.847 2.69762 0.306708 0
M  V30 9426 C 873.303 2.78533 -2.27919 0
M  V30 9427 C 872.911 2.44767 -3.75224 0
M  V30 9428 C 874.655 3.56516 -2.30427 0
M  V30 9429 C 872.562 3.65397 -4.65015 0
M  V30 9430 H 871.492 0.579214 -0.482729 0
M  V30 9431 H 874.143 0.866845 -1.61735 0
M  V30 9432 H 872.525 3.47941 -1.89084 0
M  V30 9433 H 873.699 1.83259 -4.22792 0
M  V30 9434 H 872.014 1.79996 -3.75487 0
M  V30 9435 H 874.611 4.46143 -2.94722 0
M  V30 9436 H 874.954 3.95063 -1.31266 0
M  V30 9437 H 875.487 2.94087 -2.67876 0
M  V30 9438 H 872.226 3.31946 -5.65236 0
M  V30 9439 H 871.746 4.26072 -4.22164 0
M  V30 9440 H 873.425 4.32431 -4.81261 0
M  V30 9441 N 873.557 1.20646 1.01402 0
M  V30 9442 C 874.834 0.927176 1.72229 0
M  V30 9443 C 875.214 -0.563382 2.03443 0
M  V30 9444 O 874.562 -1.52576 1.70096 0
M  V30 9445 C 874.772 1.80285 2.98828 0
M  V30 9446 C 876.12 2.04624 3.72041 0
M  V30 9447 O 877.144 1.77559 3.0879 0
M  V30 9448 O 876.003 2.50347 4.85787 0
M  V30 9449 H 873.097 0.346891 0.75073 0
M  V30 9450 H 875.643 1.31532 1.07227 0
M  V30 9451 H 874.415 2.81204 2.72102 0
M  V30 9452 H 874.038 1.41495 3.71571 0
M  V30 9453 N 875.035 -1.20752 1.01276 0
M  V30 9454 C 876.263 -1.94006 0.718976 0
M  V30 9455 C 876.678 -1.74544 -0.719711 0
M  V30 9456 O 876.035 -1.05697 -1.48776 0
M  V30 9457 C 876.086 -3.46208 1.04031 0
M  V30 9458 O 875.807 -3.65031 2.42248 0
M  V30 9459 C 877.308 -4.36614 0.767032 0
M  V30 9460 H 874.528 -0.616743 0.264327 0
M  V30 9461 H 877.072 -1.53352 1.3529 0
M  V30 9462 H 875.227 -3.84756 0.451852 0
M  V30 9463 H 875.641 -4.59054 2.53712 0
M  V30 9464 H 877.115 -5.42076 1.04198 0
M  V30 9465 H 877.592 -4.38182 -0.298851 0
M  V30 9466 H 878.198 -4.03723 1.33746 0
M  V30 9467 N 876.513 -0.788492 -1.36457 0
M  V30 9468 C 877.759 -0.360995 -1.99561 0
M  V30 9469 C 878.092 1.06433 -1.62437 0
M  V30 9470 O 877.367 1.7352 -0.878705 0
M  V30 9471 C 877.65 -0.523735 -3.56271 0
M  V30 9472 C 877.503 -1.99268 -4.03252 0
M  V30 9473 C 878.822 0.0617908 -4.40057 0
M  V30 9474 H 875.941 -0.13264 -0.724966 0
M  V30 9475 H 878.583 -0.994659 -1.61884 0
M  V30 9476 H 876.733 0.0156979 -3.88497 0
M  V30 9477 H 878.405 -2.59311 -3.81518 0
M  V30 9478 H 876.648 -2.49561 -3.54826 0
M  V30 9479 H 877.319 -2.05752 -5.12221 0
M  V30 9480 H 879.795 -0.398674 -4.14186 0
M  V30 9481 H 878.671 -0.0821089 -5.48839 0
M  V30 9482 H 878.932 1.15381 -4.26778 0
M  V30 9483 N 877.991 1.48044 -0.54043 0
M  V30 9484 C 878.924 2.26667 0.264083 0
M  V30 9485 C 879.902 1.32996 0.935456 0
M  V30 9486 O 881.086 1.62354 0.95778 0
M  V30 9487 C 878.213 3.09541 1.37485 0
M  V30 9488 C 877.259 4.18664 0.813792 0
M  V30 9489 S 878.092 5.34503 -0.326536 0
M  V30 9490 C 879.248 6.20939 0.786452 0
M  V30 9491 H 879.481 2.94554 -0.403129 0
M  V30 9492 H 877.014 1.5091 -0.326415 0
M  V30 9493 H 878.972 3.57863 2.01107 0
M  V30 9494 H 877.633 2.41048 2.01382 0
M  V30 9495 H 876.826 4.76316 1.6474 0
M  V30 9496 H 876.428 3.73136 0.254066 0
M  V30 9497 H 878.72 6.56273 1.68262 0
M  V30 9498 H 879.663 7.07667 0.247673 0
M  V30 9499 H 880.071 5.54236 1.07156 0
M  V30 9500 N 879.47 0.276058 1.55163 0
M  V30 9501 C 880.38 -0.621066 2.2623 0
M  V30 9502 C 881.396 -1.16931 1.28853 0
M  V30 9503 O 882.572 -1.1994 1.61791 0
M  V30 9504 C 879.637 -1.78824 2.97023 0
M  V30 9505 C 878.698 -1.27657 4.09881 0
M  V30 9506 C 877.931 -2.38812 4.77289 0
M  V30 9507 O 878.154 -3.58188 4.43912 0
M  V30 9508 O 877.088 -2.06915 5.65217 0
M  V30 9509 H 880.914 -0.0453346 3.03666 0
M  V30 9510 H 878.499 0.0434275 1.49337 0
M  V30 9511 H 880.381 -2.46877 3.41511 0
M  V30 9512 H 879.056 -2.35104 2.22503 0
M  V30 9513 H 877.963 -0.56248 3.69847 0
M  V30 9514 H 879.296 -0.759509 4.86305 0
M  V30 9515 N 880.948 -1.576 0.00335426 0
M  V30 9516 C 881.858 -2.12067 -1.00322 0
M  V30 9517 C 882.874 -1.06672 -1.37467 0
M  V30 9518 O 884.05 -1.38592 -1.46131 0
M  V30 9519 C 881.115 -2.61593 -2.27531 0
M  V30 9520 C 880.176 -3.81602 -1.96668 0
M  V30 9521 C 879.409 -4.28756 -3.17811 0
M  V30 9522 O 879.632 -3.75222 -4.2961 0
M  V30 9523 O 878.566 -5.20877 -3.01613 0
M  V30 9524 H 882.392 -2.98299 -0.570199 0
M  V30 9525 H 879.977 -1.47835 -0.215682 0
M  V30 9526 H 881.859 -2.93631 -3.02256 0
M  V30 9527 H 880.534 -1.78457 -2.70065 0
M  V30 9528 H 879.441 -3.54531 -1.19408 0
M  V30 9529 H 880.774 -4.65822 -1.58968 0
M  V30 9530 N 882.426 0.269451 -1.5528 0
M  V30 9531 C 883.674 0.998604 -1.75705 0
M  V30 9532 C 883.995 1.86691 -0.563175 0
M  V30 9533 O 883.265 1.91305 0.421811 0
M  V30 9534 H 881.845 0.371698 -0.647958 0
M  V30 9535 H 884.507 0.292826 -1.92688 0
M  V30 9536 H 883.603 1.63348 -2.6594 0
M  V30 9537 N 883.904 1.48273 0.534124 0
M  V30 9538 C 884.851 1.62487 1.6391 0
M  V30 9539 C 885.821 0.467062 1.59398 0
M  V30 9540 O 887.006 0.690029 1.77885 0
M  V30 9541 C 884.146 1.66671 3.02183 0
M  V30 9542 C 883.259 2.9353 3.16961 0
M  V30 9543 C 882.394 2.88902 4.45768 0
M  V30 9544 C 881.433 4.10483 4.54059 0
M  V30 9545 N 880.57 4.03956 5.74251 0
M  V30 9546 H 885.41 2.56851 1.51101 0
M  V30 9547 H 882.947 1.27381 0.735704 0
M  V30 9548 H 884.905 1.67079 3.82283 0
M  V30 9549 H 883.535 0.758011 3.13774 0
M  V30 9550 H 882.587 3.02886 2.3014 0
M  V30 9551 H 883.899 3.83501 3.18949 0
M  V30 9552 H 883.053 2.87688 5.34154 0
M  V30 9553 H 881.792 1.96652 4.46295 0
M  V30 9554 H 880.797 4.11977 3.64081 0
M  V30 9555 H 882.022 5.03887 4.55274 0
M  V30 9556 H 879.968 3.14525 5.75682 0
M  V30 9557 H 879.885 4.87628 5.77715 0
M  V30 9558 H 881.153 4.06795 6.64935 0
M  V30 9559 N 885.382 -0.782676 1.36792 0
M  V30 9560 C 886.329 -1.89558 1.31667 0
M  V30 9561 C 887.299 -1.65076 0.184147 0
M  V30 9562 O 888.484 -1.87143 0.371753 0
M  V30 9563 C 885.624 -3.26469 1.11858 0
M  V30 9564 C 884.737 -3.62978 2.34245 0
M  V30 9565 C 883.872 -4.89041 2.07394 0
M  V30 9566 C 882.911 -5.18249 3.25706 0
M  V30 9567 N 882.048 -6.35497 2.98476 0
M  V30 9568 H 886.888 -1.93274 2.26824 0
M  V30 9569 H 884.425 -0.945057 1.12726 0
M  V30 9570 H 886.383 -4.05431 0.983968 0
M  V30 9571 H 885.013 -3.22158 0.203531 0
M  V30 9572 H 884.065 -2.79087 2.58485 0
M  V30 9573 H 885.377 -3.80507 3.22514 0
M  V30 9574 H 884.531 -5.75883 1.90901 0
M  V30 9575 H 883.27 -4.73594 1.16446 0
M  V30 9576 H 882.275 -4.29887 3.4275 0
M  V30 9577 H 883.5 -5.35611 4.1749 0
M  V30 9578 H 881.446 -6.21429 2.10146 0
M  V30 9579 H 881.363 -6.5339 3.80286 0
M  V30 9580 H 882.631 -7.25304 2.85577 0
M  V30 9581 N 886.86 -1.21182 -1.00761 0
M  V30 9582 C 887.807 -0.968741 -2.09485 0
M  V30 9583 C 888.777 0.104325 -1.65772 0
M  V30 9584 O 889.962 -0.0422587 -1.90753 0
M  V30 9585 C 887.102 -0.536686 -3.40901 0
M  V30 9586 C 886.215 -1.6789 -3.98041 0
M  V30 9587 C 885.35 -1.19627 -5.17555 0
M  V30 9588 C 884.389 -2.31099 -5.66798 0
M  V30 9589 N 883.526 -1.83988 -6.77564 0
M  V30 9590 H 888.366 -1.89952 -2.29613 0
M  V30 9591 H 885.903 -0.946688 -1.12589 0
M  V30 9592 H 887.861 -0.26745 -4.16342 0
M  V30 9593 H 886.491 0.357092 -3.20819 0
M  V30 9594 H 885.543 -2.06284 -3.19611 0
M  V30 9595 H 886.855 -2.51794 -4.30582 0
M  V30 9596 H 886.009 -0.883539 -6.00232 0
M  V30 9597 H 884.748 -0.327244 -4.86601 0
M  V30 9598 H 883.753 -2.63178 -4.82719 0
M  V30 9599 H 884.978 -3.18493 -5.99782 0
M  V30 9600 H 882.924 -0.994257 -6.48422 0
M  V30 9601 H 882.841 -2.61466 -7.09346 0
M  V30 9602 H 884.109 -1.55741 -7.63783 0
M  V30 9603 N 888.338 1.20213 -1.01915 0
M  V30 9604 C 889.754 1.41696 -0.734459 0
M  V30 9605 C 889.954 1.89504 0.684867 0
M  V30 9606 O 889.01 2.06556 1.45227 0
M  V30 9607 C 890.323 2.43644 -1.76233 0
M  V30 9608 C 891.871 2.57406 -1.78076 0
M  V30 9609 C 892.346 3.626 -2.79796 0
M  V30 9610 N 893.837 3.70086 -2.78551 0
M  V30 9611 C 894.572 4.51145 -3.53915 0
M  V30 9612 N 894.068 5.35988 -4.38963 0
M  V30 9613 N 895.861 4.45702 -3.425 0
M  V30 9614 H 888.012 0.874976 -1.93541 0
M  V30 9615 H 890.275 0.446647 -0.836188 0
M  V30 9616 H 889.981 2.15519 -2.77929 0
M  V30 9617 H 889.855 3.42672 -1.57657 0
M  V30 9618 H 892.242 2.8486 -0.770634 0
M  V30 9619 H 892.323 1.58565 -2.00725 0
M  V30 9620 H 891.967 3.35889 -3.80973 0
M  V30 9621 H 891.897 4.61069 -2.54407 0
M  V30 9622 H 894.388 3.09484 -2.1686 0
M  V30 9623 H 894.701 5.94932 -4.9323 0
M  V30 9624 H 893.046 5.35482 -4.4304 0
M  V30 9625 H 896.237 3.78456 -2.75478 0
M  V30 9626 H 896.41 5.08637 -4.01487 0
M  V30 9627 N 889.816 0.795718 1.36037 0
M  V30 9628 C 891.044 0.383153 2.03321 0
M  V30 9629 C 891.459 -1.00246 1.59988 0
M  V30 9630 O 890.816 -1.64406 0.792265 0
M  V30 9631 C 890.867 0.444467 3.58757 0
M  V30 9632 O 890.588 1.77544 4.00512 0
M  V30 9633 C 892.089 0.0233291 4.43294 0
M  V30 9634 H 889.309 0.157061 0.652359 0
M  V30 9635 H 891.853 1.07632 1.73884 0
M  V30 9636 H 890.008 -0.200341 3.86882 0
M  V30 9637 H 890.422 1.73065 4.95125 0
M  V30 9638 H 891.896 0.117361 5.51875 0
M  V30 9639 H 892.373 -1.03007 4.2695 0
M  V30 9640 H 892.979 0.64087 4.20444 0
M  V30 9641 N 891.294 -1.47756 0.548274 0
M  V30 9642 C 892.241 -2.29893 -0.204408 0
M  V30 9643 C 893.211 -1.38509 -0.916761 0
M  V30 9644 O 894.396 -1.67472 -0.91421 0
M  V30 9645 C 891.536 -3.22282 -1.23403 0
M  V30 9646 C 890.649 -4.28753 -0.528654 0
M  V30 9647 C 889.784 -5.08303 -1.54279 0
M  V30 9648 C 888.823 -6.06557 -0.821893 0
M  V30 9649 N 887.96 -6.79098 -1.78243 0
M  V30 9650 H 892.8 -2.93739 0.502163 0
M  V30 9651 H 890.337 -1.44793 0.259471 0
M  V30 9652 H 892.295 -3.74262 -1.84348 0
M  V30 9653 H 890.925 -2.6032 -1.90875 0
M  V30 9654 H 889.977 -3.79899 0.195132 0
M  V30 9655 H 891.289 -4.98787 0.0365066 0
M  V30 9656 H 890.443 -5.64388 -2.22602 0
M  V30 9657 H 889.182 -4.3815 -2.14186 0
M  V30 9658 H 888.187 -5.49659 -0.12469 0
M  V30 9659 H 889.412 -6.78715 -0.228685 0
M  V30 9660 H 887.358 -6.11682 -2.37025 0
M  V30 9661 H 887.275 -7.4527 -1.26919 0
M  V30 9662 H 888.543 -7.39762 -2.45709 0
M  V30 9663 N 892.772 -0.284283 -1.55015 0
M  V30 9664 C 894.049 0.382125 -1.91831 0
M  V30 9665 C 894.429 1.73007 -1.20962 0
M  V30 9666 O 893.777 2.25962 -0.339594 0
M  V30 9667 C 893.987 0.513341 -3.45204 0
M  V30 9668 C 895.335 0.791989 -4.17148 0
M  V30 9669 O 896.359 0.597799 -3.51148 0
M  V30 9670 O 895.218 1.16394 -5.33961 0
M  V30 9671 H 892.312 0.210707 -0.799707 0
M  V30 9672 H 894.858 -0.331111 -1.66438 0
M  V30 9673 H 893.63 -0.434911 -3.88876 0
M  V30 9674 H 893.253 1.27569 -3.76579 0
M  V30 9675 N 894.251 1.57596 -0.0117121 0
M  V30 9676 C 895.161 2.12596 0.991964 0
M  V30 9677 C 896.177 1.07399 1.36899 0
M  V30 9678 O 897.353 1.39365 1.45394 0
M  V30 9679 C 894.418 2.62796 2.2614 0
M  V30 9680 C 893.479 3.8264 1.94642 0
M  V30 9681 C 892.712 4.30435 3.15533 0
M  V30 9682 O 892.935 3.77495 4.27614 0
M  V30 9683 O 891.869 5.22469 2.98847 0
M  V30 9684 H 895.695 2.98597 0.554371 0
M  V30 9685 H 893.28 1.47947 0.207839 0
M  V30 9686 H 895.162 2.9523 3.00695 0
M  V30 9687 H 893.837 1.79886 2.69114 0
M  V30 9688 H 892.744 3.5516 1.17526 0
M  V30 9689 H 894.077 4.66658 1.56496 0
M  V30 9690 N 895.729 -0.261212 1.5542 0
M  V30 9691 C 896.978 -0.989072 1.75785 0
M  V30 9692 C 897.291 -1.8702 0.572961 0
M  V30 9693 O 898.497 -2.63374 0.659289 0
M  V30 9694 C 896.953 -1.80857 3.11157 0
M  V30 9695 C 896.561 -0.975535 4.3725 0
M  V30 9696 C 898.305 -2.53003 3.40866 0
M  V30 9697 C 896.212 -1.7901 5.63657 0
M  V30 9698 H 895.142 -0.373019 0.655266 0
M  V30 9699 H 897.793 -0.244267 1.81867 0
M  V30 9700 H 896.175 -2.59479 2.99144 0
M  V30 9701 H 897.349 -0.232661 4.60212 0
M  V30 9702 H 895.664 -0.368083 4.1477 0
M  V30 9703 H 898.261 -3.14372 4.32521 0
M  V30 9704 H 898.604 -3.23891 2.61535 0
M  V30 9705 H 899.137 -1.81403 3.54031 0
M  V30 9706 H 895.876 -1.12522 6.4577 0
M  V30 9707 H 895.396 -2.50863 5.44819 0
M  V30 9708 H 897.075 -2.36082 6.0239 0
M  V30 9709 N 897.207 -1.48554 -0.526253 0
M  V30 9710 C 898.453 -1.56994 -1.28378 0
M  V30 9711 C 898.786 -0.244701 -1.92652 0
M  V30 9712 O 898.061 0.749636 -1.79473 0
M  V30 9713 C 898.344 -2.71092 -2.37026 0
M  V30 9714 C 898.197 -4.13331 -1.77418 0
M  V30 9715 C 899.516 -2.80934 -3.38769 0
M  V30 9716 H 896.635 -0.571466 -0.465398 0
M  V30 9717 H 899.277 -1.80742 -0.585861 0
M  V30 9718 H 897.427 -2.50973 -2.96555 0
M  V30 9719 H 899.099 -4.44899 -1.21912 0
M  V30 9720 H 897.342 -4.20158 -1.07936 0
M  V30 9721 H 898.013 -4.88994 -2.56104 0
M  V30 9722 H 900.489 -2.9917 -2.892 0
M  V30 9723 H 899.365 -3.62489 -4.12181 0
M  V30 9724 H 899.626 -1.89244 -3.99549 0
M  V30 9725 N 898.685 0.775411 -1.37205 0
M  V30 9726 C 899.962 1.5229 -1.22748 0
M  V30 9727 C 900.342 2.10327 0.180487 0
M  V30 9728 O 899.69 1.95206 1.18772 0
M  V30 9729 C 899.9 2.60671 -2.3206 0
M  V30 9730 C 901.248 3.28173 -2.6942 0
M  V30 9731 O 902.272 2.70963 -2.31208 0
M  V30 9732 O 901.131 4.31598 -3.3524 0
M  V30 9733 H 898.225 0.674326 -0.478762 0
M  V30 9734 H 900.771 0.812691 -1.48975 0
M  V30 9735 H 899.543 2.1588 -3.26361 0
M  V30 9736 H 899.166 3.39296 -2.07277 0
M  V30 9737 N 900.163 1.21714 1.00117 0
M  V30 9738 C 901.412 1.03087 1.73367 0
M  V30 9739 C 901.725 -0.435532 1.90689 0
M  V30 9740 O 902.931 -0.741291 2.61184 0
M  V30 9741 C 901.387 1.79593 3.11888 0
M  V30 9742 C 900.995 3.30428 3.02525 0
M  V30 9743 C 902.739 1.69386 3.89241 0
M  V30 9744 C 900.646 3.99408 4.3615 0
M  V30 9745 H 899.576 0.382117 0.650002 0
M  V30 9746 H 902.227 1.45486 1.11831 0
M  V30 9747 H 900.609 1.29988 3.74058 0
M  V30 9748 H 901.783 3.87364 2.49571 0
M  V30 9749 H 900.098 3.4122 2.38659 0
M  V30 9750 H 902.695 2.18251 4.8813 0
M  V30 9751 H 903.038 0.652773 4.1115 0
M  V30 9752 H 903.571 2.16489 3.33733 0
M  V30 9753 H 900.31 5.03735 4.19442 0
M  V30 9754 H 899.83 3.47261 4.8905 0
M  V30 9755 H 901.509 4.04537 5.04934 0
M  V30 9756 N 901.641 -1.19671 1.02551 0
M  V30 9757 C 902.918 -1.85014 0.634771 0
M  V30 9758 C 903.298 -1.91574 -0.886706 0
M  V30 9759 O 902.646 -1.43022 -1.78205 0
M  V30 9760 C 902.856 -3.24167 1.29292 0
M  V30 9761 C 904.204 -4.00363 1.41402 0
M  V30 9762 O 905.228 -3.33553 1.24983 0
M  V30 9763 O 904.087 -5.2003 1.6802 0
M  V30 9764 H 901.181 -0.797147 0.220196 0
M  V30 9765 H 903.727 -1.27188 1.12345 0
M  V30 9766 H 902.499 -3.14208 2.33215 0
M  V30 9767 H 902.122 -3.89634 0.791895 0
M  V30 9768 N 903.119 -0.802921 -1.35613 0
M  V30 9769 C 904.396 -0.304993 -1.93208 0
M  V30 9770 C 904.776 1.20488 -1.73337 0
M  V30 9771 O 904.124 2.00268 -1.10022 0
M  V30 9772 C 904.334 -0.712383 -3.41652 0
M  V30 9773 C 905.682 -0.699785 -4.18794 0
M  V30 9774 O 906.706 -0.653698 -3.5015 0
M  V30 9775 O 905.565 -0.754842 -5.41262 0
M  V30 9776 H 902.659 -0.0789127 -0.823226 0
M  V30 9777 H 905.205 -0.886372 -1.44712 0
M  V30 9778 H 903.977 -1.75316 -3.49829 0
M  V30 9779 H 903.6 -0.105614 -3.9746 0
M  V30 9780 N 904.597 1.47463 -0.556102 0
M  V30 9781 C 906.008 1.86298 -0.122429 0
M  V30 9782 C 906.359 1.46285 1.30749 0
M  V30 9783 O 905.484 0.865405 1.98342 0
M  V30 9784 C 906.079 3.38115 -0.215407 0
M  V30 9785 C 904.638 3.76046 0.163223 0
M  V30 9786 C 903.785 2.71515 -0.563466 0
M  V30 9787 H 906.736 1.38996 -0.765888 0
M  V30 9788 H 906.757 3.76263 0.566271 0
M  V30 9789 H 906.269 3.67207 -1.25622 0
M  V30 9790 H 904.37 3.5257 1.20519 0
M  V30 9791 H 904.483 4.78705 -0.194568 0
M  V30 9792 H 902.847 2.54699 -0.00667879 0
M  V30 9793 H 903.63 3.03449 -1.60542 0
M  V30 9794 N 906.075 0.2925 1.54862 0
M  V30 9795 C 906.985 -0.597036 2.26876 0
M  V30 9796 C 908.001 -1.15558 1.30086 0
M  V30 9797 O 909.177 -1.18217 1.63054 0
M  V30 9798 C 906.242 -1.75664 2.98903 0
M  V30 9799 C 905.303 -1.23303 4.11212 0
M  V30 9800 C 904.536 -2.33736 4.79795 0
M  V30 9801 O 904.759 -3.53459 4.47686 0
M  V30 9802 O 903.693 -2.00908 5.67379 0
M  V30 9803 H 907.519 -0.0131242 3.03697 0
M  V30 9804 H 905.104 0.0592642 1.49282 0
M  V30 9805 H 906.986 -2.43241 3.4411 0
M  V30 9806 H 905.661 -2.32731 2.24984 0
M  V30 9807 H 904.568 -0.523222 3.70423 0
M  V30 9808 H 905.901 -0.707887 4.87083 0
M  V30 9809 N 907.553 -1.57587 0.0200696 0
M  V30 9810 C 908.781 -1.95718 -0.670964 0
M  V30 9811 C 909.196 -0.896081 -1.6618 0
M  V30 9812 O 908.553 0.123037 -1.82085 0
M  V30 9813 C 908.604 -3.33904 -1.38529 0
M  V30 9814 O 908.325 -4.35943 -0.434167 0
M  V30 9815 C 909.826 -3.86614 -2.16898 0
M  V30 9816 H 907.046 -0.644819 -0.185606 0
M  V30 9817 H 909.59 -2.04354 0.0771495 0
M  V30 9818 H 907.745 -3.26515 -2.08487 0
M  V30 9819 H 908.159 -5.16001 -0.940378 0
M  V30 9820 H 909.633 -4.85673 -2.62346 0
M  V30 9821 H 910.11 -3.20379 -3.00423 0
M  V30 9822 H 910.716 -3.97243 -1.51916 0
M  V30 9823 N 909.032 0.252966 -1.55557 0
M  V30 9824 C 909.979 1.3131 -1.89806 0
M  V30 9825 C 910.949 1.48121 -0.751633 0
M  V30 9826 O 912.134 1.62202 -1.00474 0
M  V30 9827 C 909.274 2.66467 -2.19293 0
M  V30 9828 C 908.387 2.57714 -3.46709 0
M  V30 9829 C 907.522 3.85184 -3.65796 0
M  V30 9830 C 906.561 3.71023 -4.86835 0
M  V30 9831 N 905.698 4.90371 -5.02474 0
M  V30 9832 H 910.538 1.01402 -2.80217 0
M  V30 9833 H 908.075 0.489462 -1.38718 0
M  V30 9834 H 910.033 3.45132 -2.34392 0
M  V30 9835 H 908.663 2.94536 -1.32093 0
M  V30 9836 H 907.715 1.70651 -3.39974 0
M  V30 9837 H 909.027 2.43158 -4.35517 0
M  V30 9838 H 908.181 4.72292 -3.80822 0
M  V30 9839 H 906.92 4.0263 -2.7521 0
M  V30 9840 H 905.925 2.82299 -4.71792 0
M  V30 9841 H 907.15 3.55078 -5.78875 0
M  V30 9842 H 905.096 5.0819 -4.14824 0
M  V30 9843 H 905.013 4.78423 -5.85361 0
M  V30 9844 H 906.281 5.78995 -5.21905 0
M  V30 9845 N 910.51 1.48831 0.518367 0
M  V30 9846 C 911.926 1.35209 0.847979 0
M  V30 9847 C 912.126 0.371927 1.98038 0
M  V30 9848 O 911.182 -0.202681 2.51685 0
M  V30 9849 C 912.495 2.7552 1.20455 0
M  V30 9850 C 914.043 2.84094 1.31377 0
M  V30 9851 C 914.518 4.25132 1.70372 0
M  V30 9852 N 916.009 4.27861 1.77453 0
M  V30 9853 C 916.744 5.3394 2.09035 0
M  V30 9854 N 916.24 6.50285 2.3896 0
M  V30 9855 N 918.033 5.21343 2.10139 0
M  V30 9856 H 910.184 2.11166 -0.228624 0
M  V30 9857 H 912.447 0.94717 -0.0396599 0
M  V30 9858 H 912.153 3.48861 0.445991 0
M  V30 9859 H 912.027 3.09785 2.15204 0
M  V30 9860 H 914.414 2.11001 2.06307 0
M  V30 9861 H 914.495 2.53433 0.347203 0
M  V30 9862 H 914.139 4.98745 0.959975 0
M  V30 9863 H 914.069 4.53245 2.68098 0
M  V30 9864 H 916.56 3.43945 1.56557 0
M  V30 9865 H 916.873 7.26961 2.62196 0
M  V30 9866 H 915.218 6.5354 2.36454 0
M  V30 9867 H 918.409 4.29462 1.86225 0
M  V30 9868 H 918.582 6.04112 2.34419 0
M  V30 9869 N 911.988 -0.768124 1.37614 0
M  V30 9870 C 913.235 -1.5268 1.33022 0
M  V30 9871 C 913.563 -1.94318 -0.0841918 0
M  V30 9872 O 912.818 -1.64623 -1.0582 0
M  V30 9873 C 913.117 -2.80204 2.21856 0
M  V30 9874 C 912.783 -2.57602 3.7007 0
M  V30 9875 C 911.445 -2.51146 4.10462 0
M  V30 9876 C 913.797 -2.37482 4.63952 0
M  V30 9877 C 911.125 -2.22566 5.42846 0
M  V30 9878 C 913.477 -2.10425 5.96577 0
M  V30 9879 C 912.141 -2.02416 6.36069 0
M  V30 9880 H 911.411 -0.558697 0.486763 0
M  V30 9881 H 914.058 -0.88447 1.69851 0
M  V30 9882 H 912.363 -3.49014 1.78034 0
M  V30 9883 H 914.06 -3.38099 2.15615 0
M  V30 9884 H 910.65 -2.63491 3.38039 0
M  V30 9885 H 914.834 -2.41457 4.33604 0
M  V30 9886 H 910.09 -2.14863 5.72402 0
M  V30 9887 H 914.264 -1.93857 6.68874 0
M  V30 9888 H 911.891 -1.80034 7.38574 0
M  V30 9889 N 913.466 -1.22244 -0.994698 0
M  V30 9890 C 914.877 -1.043 -1.5485 0
M  V30 9891 C 915.228 0.394102 -1.92201 0
M  V30 9892 O 914.353 1.27883 -1.74571 0
M  V30 9893 C 914.948 -1.88708 -2.8138 0
M  V30 9894 C 913.507 -1.75067 -3.3321 0
M  V30 9895 C 912.654 -1.85286 -2.06312 0
M  V30 9896 H 915.605 -1.36115 -0.815988 0
M  V30 9897 H 915.626 -1.40342 -3.53673 0
M  V30 9898 H 915.138 -2.93296 -2.54164 0
M  V30 9899 H 913.239 -0.732047 -3.65338 0
M  V30 9900 H 913.352 -2.57632 -4.03934 0
M  V30 9901 H 911.716 -1.28706 -2.19788 0
M  V30 9902 H 912.499 -2.91401 -1.81494 0
M  V30 9903 N 914.944 1.19125 -1.03184 0
M  V30 9904 C 916.174 1.92558 -0.748663 0
M  V30 9905 C 916.582 1.759 0.696837 0
M  V30 9906 O 915.925 1.08019 1.48585 0
M  V30 9907 C 915.987 3.4461 -1.02391 0
M  V30 9908 C 915.651 3.85041 -2.46155 0
M  V30 9909 C 916.648 3.89554 -3.44302 0
M  V30 9910 C 914.333 4.16594 -2.80633 0
M  V30 9911 C 916.327 4.25055 -4.74981 0
M  V30 9912 C 914.014 4.51767 -4.11521 0
M  V30 9913 C 915.012 4.55972 -5.08506 0
M  V30 9914 O 914.7 4.9033 -6.37049 0
M  V30 9915 H 914.432 0.618397 -0.273059 0
M  V30 9916 H 916.986 1.52122 -1.38015 0
M  V30 9917 H 915.216 3.85244 -0.335284 0
M  V30 9918 H 916.905 3.99283 -0.729927 0
M  V30 9919 H 917.671 3.65324 -3.19003 0
M  V30 9920 H 913.55 4.12503 -2.05821 0
M  V30 9921 H 917.094 4.28252 -5.50678 0
M  V30 9922 H 912.991 4.75455 -4.36592 0
M  V30 9923 H 913.759 5.08266 -6.41566 0
M  V30 9924 N 916.422 0.810101 1.35185 0
M  V30 9925 C 917.833 0.452616 1.81131 0
M  V30 9926 C 918.184 -1.02573 1.67252 0
M  V30 9927 O 917.309 -1.79735 1.20516 0
M  V30 9928 C 917.904 0.814775 3.28857 0
M  V30 9929 C 916.463 0.509839 3.72931 0
M  V30 9930 C 915.61 1.03852 2.57119 0
M  V30 9931 H 918.561 1.00143 1.23114 0
M  V30 9932 H 918.582 0.113635 3.8033 0
M  V30 9933 H 918.094 1.89078 3.38926 0
M  V30 9934 H 916.195 -0.557289 3.68409 0
M  V30 9935 H 916.308 1.04493 4.67566 0
M  V30 9936 H 914.672 0.460671 2.50499 0
M  V30 9937 H 915.455 2.12071 2.69964 0
M  V30 9938 N 917.9 -1.47166 0.563914 0
M  V30 9939 C 918.83 -2.32894 -0.168148 0
M  V30 9940 C 919.811 -1.44202 -0.902214 0
M  V30 9941 O 920.996 -1.73048 -0.881365 0
M  V30 9942 C 918.126 -3.26116 -1.19439 0
M  V30 9943 C 917.08 -4.24101 -0.576363 0
M  V30 9944 C 916.406 -5.06696 -1.70772 0
M  V30 9945 C 917.706 -5.20142 0.47425 0
M  V30 9946 H 919.4 -2.9435 0.547573 0
M  V30 9947 H 916.946 -1.41545 0.264778 0
M  V30 9948 H 918.899 -3.84935 -1.71474 0
M  V30 9949 H 917.623 -2.62728 -1.94014 0
M  V30 9950 H 916.282 -3.66519 -0.0772534 0
M  V30 9951 H 915.93 -4.39707 -2.44268 0
M  V30 9952 H 915.63 -5.7304 -1.29994 0
M  V30 9953 H 917.154 -5.68375 -2.2312 0
M  V30 9954 H 918.568 -5.73286 0.0397035 0
M  V30 9955 H 916.965 -5.94726 0.801287 0
M  V30 9956 H 918.035 -4.65214 1.36764 0
M  V30 9957 N 919.378 -0.300708 -1.54705 0
M  V30 9958 C 920.326 0.591264 -2.2496 0
M  V30 9959 C 921.32 1.13725 -1.2555 0
M  V30 9960 O 922.526 1.08793 -1.43402 0
M  V30 9961 H 918.901 0.209278 -0.722293 0
M  V30 9962 H 920.872 -0.0238175 -2.9839 0
M  V30 9963 C 919.621 1.75179 -3.00346 0
M  V30 9964 H 918.944 1.34089 -3.76643 0
M  V30 9965 H 920.384 2.35198 -3.52786 0
M  V30 9966 C 918.843 2.65574 -2.07298 0
M  V30 9967 O 919.373 3.6666 -1.64083 0
M  V30 9968 N 917.579 2.33301 -1.7326 0
M  V30 9969 H 917.126 1.51142 -2.08599 0
M  V30 9970 H 917.084 2.94049 -1.11278 0
M  V30 9971 N 920.856 1.57574 -0.0284266 0
M  V30 9972 C 921.766 2.13637 0.96936 0
M  V30 9973 C 922.782 1.08845 1.35752 0
M  V30 9974 O 923.958 1.40899 1.43908 0
M  V30 9975 C 921.023 2.65179 2.2334 0
M  V30 9976 C 920.084 3.84683 1.90572 0
M  V30 9977 C 919.317 4.33758 3.1095 0
M  V30 9978 O 919.54 3.82009 4.23586 0
M  V30 9979 O 918.474 5.2561 2.93288 0
M  V30 9980 H 922.3 2.99169 0.52267 0
M  V30 9981 H 919.885 1.48159 0.192135 0
M  V30 9982 H 921.767 2.98402 2.97547 0
M  V30 9983 H 920.442 1.82731 2.67191 0
M  V30 9984 H 919.349 3.56386 1.13753 0
M  V30 9985 H 920.682 4.68292 1.51538 0
M  V30 9986 N 922.334 -0.244713 1.55689 0
M  V30 9987 C 923.264 -1.30667 1.93516 0
M  V30 9988 C 924.245 -1.50094 0.800371 0
M  V30 9989 O 925.43 -1.62665 1.06083 0
M  V30 9990 C 922.56 -2.66101 2.23176 0
M  V30 9991 C 921.514 -2.61366 3.38927 0
M  V30 9992 C 920.84 -4.00616 3.54134 0
M  V30 9993 C 922.14 -2.18161 4.74555 0
M  V30 9994 H 923.834 -0.992546 2.82469 0
M  V30 9995 H 921.38 -0.476018 1.35905 0
M  V30 9996 H 923.333 -3.4053 2.48228 0
M  V30 9997 H 922.057 -2.99154 1.31051 0
M  V30 9998 H 920.716 -1.89395 3.13887 0
M  V30 9999 H 920.364 -4.30938 2.59426 0
M  V30 10000 H 920.064 -3.98335 4.31975 0
M  V30 10001 H 921.588 -4.76741 3.8151 0
M  V30 10002 H 923.002 -2.82323 4.98965 0
M  V30 10003 H 921.399 -2.26988 5.55515 0
M  V30 10004 H 922.469 -1.13333 4.7147 0
M  V30 10005 N 923.813 -1.49104 -0.510467 0
M  V30 10006 C 924.743 -1.67981 -1.62187 0
M  V30 10007 C 925.724 -0.528529 -1.6168 0
M  V30 10008 O 926.909 -0.763305 -1.7857 0
M  V30 10009 C 924.039 -1.73755 -3.0071 0
M  V30 10010 C 922.993 -2.88579 -3.1608 0
M  V30 10011 C 922.319 -2.79457 -4.5586 0
M  V30 10012 C 923.619 -4.29638 -2.97 0
M  V30 10013 H 925.313 -2.61029 -1.46643 0
M  V30 10014 H 922.859 -1.25615 -0.704042 0
M  V30 10015 H 924.812 -1.85548 -3.78352 0
M  V30 10016 H 923.536 -0.772996 -3.17321 0
M  V30 10017 H 922.195 -2.76372 -2.40861 0
M  V30 10018 H 921.843 -1.80929 -4.69333 0
M  V30 10019 H 921.543 -3.56518 -4.67086 0
M  V30 10020 H 923.067 -2.93245 -5.35574 0
M  V30 10021 H 924.481 -4.42575 -3.64418 0
M  V30 10022 H 922.878 -5.07847 -3.19704 0
M  V30 10023 H 923.948 -4.44741 -1.93219 0
M  V30 10024 N 925.291 0.760815 -1.38019 0
M  V30 10025 C 926.54 1.51506 -1.3315 0
M  V30 10026 C 926.853 1.95444 0.0782124 0
M  V30 10027 O 928.059 2.70352 0.249418 0
M  V30 10028 C 926.515 2.73636 -2.33776 0
M  V30 10029 C 926.123 2.36753 -3.80332 0
M  V30 10030 C 927.867 3.51548 -2.37937 0
M  V30 10031 C 925.774 3.55451 -4.72661 0
M  V30 10032 H 924.704 0.568844 -0.494907 0
M  V30 10033 H 927.355 0.832343 -1.63537 0
M  V30 10034 H 925.737 3.43852 -1.96422 0
M  V30 10035 H 926.911 1.7425 -4.26584 0
M  V30 10036 H 925.226 1.71991 -3.7922 0
M  V30 10037 H 927.823 4.39791 -3.04119 0
M  V30 10038 H 928.166 3.9219 -1.39617 0
M  V30 10039 H 928.699 2.88339 -2.74054 0
M  V30 10040 H 925.438 3.19882 -5.7215 0
M  V30 10041 H 924.958 4.17022 -4.31107 0
M  V30 10042 H 926.637 4.22125 -4.90326 0
M  V30 10043 N 926.769 1.22769 0.988202 0
M  V30 10044 C 928.015 1.06672 1.73184 0
M  V30 10045 C 928.37 -0.393434 1.88334 0
M  V30 10046 O 927.663 -1.2876 1.41885 0
M  V30 10047 C 927.857 1.71679 3.13466 0
M  V30 10048 C 927.686 3.23864 3.11997 0
M  V30 10049 C 926.456 3.92991 3.17626 0
M  V30 10050 C 928.654 4.20737 2.95778 0
M  V30 10051 N 926.636 5.32224 3.05959 0
M  V30 10052 C 928.007 5.46831 2.92191 0
M  V30 10053 C 930.062 4.1157 2.80205 0
M  V30 10054 C 928.765 6.64811 2.74624 0
M  V30 10055 C 930.791 5.29205 2.64 0
M  V30 10056 C 930.153 6.5422 2.61104 0
M  V30 10057 H 926.252 0.44481 0.64317 0
M  V30 10058 H 928.836 1.55381 1.17323 0
M  V30 10059 H 927.007 1.25513 3.67561 0
M  V30 10060 H 928.739 1.48629 3.76419 0
M  V30 10061 H 925.494 3.4402 3.25495 0
M  V30 10062 H 925.918 6.05197 3.03423 0
M  V30 10063 H 930.56 3.15697 2.81239 0
M  V30 10064 H 928.278 7.60828 2.72336 0
M  V30 10065 H 931.864 5.23947 2.52925 0
M  V30 10066 H 930.744 7.43713 2.48719 0
M  V30 10067 N 928.247 -1.18576 1.03814 0
M  V30 10068 C 929.21 -2.2033 0.63146 0
M  V30 10069 C 930.21 -1.57787 -0.309816 0
M  V30 10070 O 931.4 -1.73938 -0.0955598 0
M  V30 10071 C 928.532 -3.40818 -0.0745963 0
M  V30 10072 H 929.725 -2.57824 1.53189 0
M  V30 10073 H 927.278 -1.32416 0.830398 0
M  V30 10074 H 928.013 -3.08853 -0.988947 0
M  V30 10075 H 927.798 -3.87453 0.6019 0
M  V30 10076 H 929.288 -4.16166 -0.345727 0
M  V30 10077 N 929.725 -0.817259 -1.34754 0
M  V30 10078 C 930.965 -0.408429 -2.00278 0
M  V30 10079 C 931.329 1.00818 -1.634 0
M  V30 10080 O 932.53 1.51959 -2.21725 0
M  V30 10081 C 930.801 -0.598219 -3.52358 0
M  V30 10082 S 932.36 -0.281395 -4.37897 0
M  V30 10083 H 929.178 -0.154587 -0.693991 0
M  V30 10084 H 931.78 -1.06184 -1.6415 0
M  V30 10085 H 930.484 -1.62901 -3.76685 0
M  V30 10086 H 930.015 0.0701299 -3.93337 0
M  V30 10087 H 932.03 0.907024 -4.8784 0
M  V30 10088 N 931.203 1.46865 -0.571711 0
M  V30 10089 C 932.133 2.3298 0.155795 0
M  V30 10090 C 933.114 1.44678 0.894553 0
M  V30 10091 O 934.299 1.73513 0.872176 0
M  V30 10092 C 931.429 3.26745 1.17708 0
M  V30 10093 C 930.383 4.24401 0.553863 0
M  V30 10094 C 929.709 5.07595 1.68083 0
M  V30 10095 C 931.009 5.19884 -0.501827 0
M  V30 10096 H 932.703 2.94056 -0.563176 0
M  V30 10097 H 930.249 1.41402 -0.27228 0
M  V30 10098 H 932.202 3.85838 1.6943 0
M  V30 10099 H 930.926 2.63753 1.92618 0
M  V30 10100 H 929.585 3.66554 0.057815 0
M  V30 10101 H 929.233 4.40996 2.41933 0
M  V30 10102 H 928.933 5.73722 1.26953 0
M  V30 10103 H 930.457 5.6955 2.20103 0
M  V30 10104 H 931.871 5.73257 -0.0701057 0
M  V30 10105 H 930.268 5.94293 -0.832815 0
M  V30 10106 H 931.338 4.64482 -1.39229 0
M  V30 10107 N 932.681 0.308908 1.54543 0
M  V30 10108 C 933.614 -0.605854 2.20011 0
M  V30 10109 C 934.592 -1.1269 1.17216 0
M  V30 10110 O 935.776 -1.19363 1.45893 0
M  V30 10111 C 932.903 -1.82977 2.85021 0
M  V30 10112 C 931.949 -1.44126 4.0141 0
M  V30 10113 S 932.782 -0.490445 5.33249 0
M  V30 10114 C 933.938 -1.72198 6.01746 0
M  V30 10115 H 934.171 -0.0496911 2.97258 0
M  V30 10116 H 931.704 0.0930238 1.5412 0
M  V30 10117 H 933.662 -2.53211 3.23102 0
M  V30 10118 H 932.323 -2.35711 2.07604 0
M  V30 10119 H 931.516 -2.35288 4.45708 0
M  V30 10120 H 931.118 -0.818788 3.64927 0
M  V30 10121 H 933.41 -2.66147 6.23034 0
M  V30 10122 H 934.353 -1.32142 6.95661 0
M  V30 10123 H 934.761 -1.90229 5.31482 0
M  V30 10124 N 934.159 -1.57557 0.0367827 0
M  V30 10125 C 935.106 -2.10679 -0.942499 0
M  V30 10126 C 936.076 -1.01068 -1.31812 0
M  V30 10127 O 937.261 -1.28533 -1.41011 0
M  V30 10128 C 934.401 -2.64467 -2.21701 0
M  V30 10129 C 933.514 -3.88114 -1.89715 0
M  V30 10130 C 932.649 -4.30268 -3.11518 0
M  V30 10131 C 931.688 -5.46652 -2.75387 0
M  V30 10132 N 930.825 -5.83927 -3.89838 0
M  V30 10133 H 935.665 -2.94066 -0.482588 0
M  V30 10134 H 933.202 -1.45344 -0.226597 0
M  V30 10135 H 935.16 -2.93745 -2.96259 0
M  V30 10136 H 933.79 -1.83898 -2.65295 0
M  V30 10137 H 932.842 -3.65516 -1.05366 0
M  V30 10138 H 934.154 -4.72743 -1.5911 0
M  V30 10139 H 933.308 -4.61023 -3.94389 0
M  V30 10140 H 932.047 -3.44421 -3.4529 0
M  V30 10141 H 931.052 -5.15583 -1.90929 0
M  V30 10142 H 932.277 -6.34204 -2.42822 0
M  V30 10143 H 930.223 -5.01035 -4.23438 0
M  V30 10144 H 930.14 -6.63214 -3.62883 0
M  V30 10145 H 931.408 -6.19291 -4.73391 0
M  V30 10146 N 935.637 0.236453 -1.55816 0
M  V30 10147 C 937.053 0.585465 -1.48474 0
M  V30 10148 C 937.253 1.8785 -0.72902 0
M  V30 10149 O 936.309 2.51131 -0.262614 0
M  V30 10150 C 937.622 0.678506 -2.92945 0
M  V30 10151 C 939.17 0.770135 -3.03378 0
M  V30 10152 C 939.645 0.894649 -4.49177 0
M  V30 10153 N 941.136 0.959253 -4.53158 0
M  V30 10154 C 941.871 1.07505 -5.63232 0
M  V30 10155 N 941.367 1.15572 -6.83092 0
M  V30 10156 N 943.16 1.10902 -5.51051 0
M  V30 10157 H 935.311 -0.612241 -2.03385 0
M  V30 10158 H 937.574 -0.212796 -0.923808 0
M  V30 10159 H 937.28 -0.201757 -3.51121 0
M  V30 10160 H 937.154 1.54703 -3.44016 0
M  V30 10161 H 939.541 1.64085 -2.45276 0
M  V30 10162 H 939.622 -0.123753 -2.555 0
M  V30 10163 H 939.266 0.0284537 -5.07892 0
M  V30 10164 H 939.196 1.80373 -4.94745 0
M  V30 10165 H 941.687 0.907827 -3.66834 0
M  V30 10166 H 942 1.24343 -7.62731 0
M  V30 10167 H 940.345 1.12511 -6.85833 0
M  V30 10168 H 943.536 1.04255 -4.56343 0
M  V30 10169 H 943.709 1.19581 -6.36871 0
M  V30 10170 N 937.115 1.49373 0.502552 0
M  V30 10171 C 938.047 1.62045 1.62093 0
M  V30 10172 C 939.06 0.503221 1.54827 0
M  V30 10173 O 940.249 0.775208 1.60788 0
M  V30 10174 C 937.349 1.55971 3.00876 0
M  V30 10175 C 936.522 2.832 3.33341 0
M  V30 10176 C 935.581 2.702 4.51529 0
M  V30 10177 O 934.607 3.44132 4.53389 0
M  V30 10178 N 935.809 1.81642 5.5135 0
M  V30 10179 H 938.574 2.58501 1.51649 0
M  V30 10180 H 936.135 1.46442 0.690396 0
M  V30 10181 H 938.127 1.4493 3.77859 0
M  V30 10182 H 936.697 0.673795 3.05252 0
M  V30 10183 H 935.917 3.08604 2.4527 0
M  V30 10184 H 937.205 3.67551 3.51829 0
M  V30 10185 H 936.603 1.20829 5.52645 0
M  V30 10186 H 935.16 1.76524 6.27441 0
M  V30 10187 N 938.594 -0.753485 1.38421 0
M  V30 10188 C 939.84 -1.51485 1.34834 0
M  V30 10189 C 940.173 -1.94102 -0.0615381 0
M  V30 10190 O 939.448 -1.65439 -1.02274 0
M  V30 10191 C 939.731 -2.76736 2.30411 0
M  V30 10192 C 939.584 -2.40256 3.80259 0
M  V30 10193 C 940.903 -3.7876 2.24119 0
M  V30 10194 H 938.022 -0.549534 0.491102 0
M  V30 10195 H 940.664 -0.863006 1.6927 0
M  V30 10196 H 938.814 -3.32357 2.01175 0
M  V30 10197 H 940.486 -1.90409 4.20169 0
M  V30 10198 H 938.729 -1.72714 3.97935 0
M  V30 10199 H 939.4 -3.29869 4.42595 0
M  V30 10200 H 941.876 -3.32679 2.49928 0
M  V30 10201 H 940.752 -4.64092 2.93104 0
M  V30 10202 H 941.013 -4.24352 1.24006 0
M  V30 10203 N 940.072 -1.23292 -0.981677 0
M  V30 10204 C 941.005 -0.956198 -2.07201 0
M  V30 10205 C 941.983 0.105027 -1.6226 0
M  V30 10206 O 943.167 -0.0289582 -1.88478 0
M  V30 10207 C 940.294 -0.44029 -3.35826 0
M  V30 10208 C 939.34 -1.48792 -3.99704 0
M  V30 10209 S 940.173 -3.06491 -4.39117 0
M  V30 10210 C 941.329 -2.56567 -5.70898 0
M  V30 10211 H 941.562 -1.87947 -2.30355 0
M  V30 10212 H 939.095 -1.06522 -1.1177 0
M  V30 10213 H 941.053 -0.149237 -4.10229 0
M  V30 10214 H 939.714 0.462045 -3.10683 0
M  V30 10215 H 938.907 -1.07706 -4.92357 0
M  V30 10216 H 938.509 -1.72826 -3.31673 0
M  V30 10217 H 940.801 -1.98508 -6.47766 0
M  V30 10218 H 941.744 -3.47755 -6.16824 0
M  V30 10219 H 942.152 -1.97465 -5.28836 0
M  V30 10220 N 941.55 1.18024 -1.04442 0
M  V30 10221 C 942.513 2.19992 -0.643136 0
M  V30 10222 C 943.513 1.57949 0.301444 0
M  V30 10223 O 944.703 1.73986 0.0863341 0
M  V30 10224 C 941.835 3.40853 0.0565208 0
M  V30 10225 H 943.028 2.57008 -1.54554 0
M  V30 10226 H 940.581 1.31974 -0.837408 0
M  V30 10227 H 941.316 3.09373 0.972553 0
M  V30 10228 H 941.101 3.87128 -0.622439 0
M  V30 10229 H 942.591 4.16344 0.323652 0
M  V30 10230 N 943.028 0.824394 1.34319 0
M  V30 10231 C 944.444 0.510336 1.51221 0
M  V30 10232 C 944.644 -0.965201 1.76879 0
M  V30 10233 O 943.7 -1.74961 1.82057 0
M  V30 10234 C 945.013 1.37114 2.6762 0
M  V30 10235 C 946.561 1.36842 2.81502 0
M  V30 10236 C 947.036 2.21374 4.00946 0
M  V30 10237 N 948.527 2.19005 4.08156 0
M  V30 10238 C 949.262 2.81159 4.99737 0
M  V30 10239 N 948.758 3.52309 5.96532 0
M  V30 10240 N 950.551 2.70706 4.9262 0
M  V30 10241 H 942.702 1.77976 1.15924 0
M  V30 10242 H 944.965 0.758503 0.568663 0
M  V30 10243 H 944.671 2.41905 2.55294 0
M  V30 10244 H 944.545 1.03689 3.62669 0
M  V30 10245 H 946.932 0.328284 2.93268 0
M  V30 10246 H 947.013 1.74265 1.87257 0
M  V30 10247 H 946.657 3.25437 3.8994 0
M  V30 10248 H 946.587 1.813 4.94407 0
M  V30 10249 H 949.078 1.67252 3.38874 0
M  V30 10250 H 949.391 3.96977 6.63045 0
M  V30 10251 H 947.736 3.56415 5.96652 0
M  V30 10252 H 950.927 2.14694 4.15962 0
M  V30 10253 H 951.1 3.19431 5.63798 0
M  V30 10254 N 944.506 -1.46559 0.579492 0
M  V30 10255 C 945.753 -2.02399 0.0638418 0
M  V30 10256 C 946.081 -1.45135 -1.29484 0
M  V30 10257 O 945.336 -0.605061 -1.86112 0
M  V30 10258 C 945.635 -3.57357 -0.0552803 0
M  V30 10259 C 945.301 -4.33646 1.23539 0
M  V30 10260 C 943.963 -4.54207 1.589 0
M  V30 10261 C 946.315 -4.77476 2.08965 0
M  V30 10262 C 943.643 -5.1585 2.79492 0
M  V30 10263 C 945.995 -5.4045 3.2878 0
M  V30 10264 C 944.659 -5.5924 3.64427 0
M  V30 10265 H 943.929 -0.740632 0.0233614 0
M  V30 10266 H 946.576 -1.75968 0.755482 0
M  V30 10267 H 944.881 -3.82907 -0.83003 0
M  V30 10268 H 946.578 -3.98237 -0.469964 0
M  V30 10269 H 943.168 -4.17937 0.9501 0
M  V30 10270 H 947.352 -4.61349 1.8295 0
M  V30 10271 H 942.608 -5.28589 3.07252 0
M  V30 10272 H 946.782 -5.73371 3.95245 0
M  V30 10273 H 944.409 -6.06775 4.57961 0
M  V30 10274 N 945.984 -0.3171 -1.54377 0
M  V30 10275 C 946.914 0.544623 -2.2706 0
M  V30 10276 C 947.895 1.12469 -1.27611 0
M  V30 10277 O 949.08 1.15103 -1.56413 0
M  V30 10278 C 946.21 1.70879 -3.02353 0
M  V30 10279 C 945.164 1.25833 -4.09084 0
M  V30 10280 C 944.49 2.50894 -4.72182 0
M  V30 10281 C 945.79 0.377876 -5.20931 0
M  V30 10282 H 947.484 -0.0616372 -2.99337 0
M  V30 10283 H 945.03 -0.0310848 -1.43966 0
M  V30 10284 H 946.983 2.31787 -3.51927 0
M  V30 10285 H 945.707 2.34155 -2.27682 0
M  V30 10286 H 944.366 0.672228 -3.60384 0
M  V30 10287 H 944.014 3.12518 -3.94134 0
M  V30 10288 H 943.714 2.21447 -5.44275 0
M  V30 10289 H 945.238 3.12575 -5.24528 0
M  V30 10290 H 946.652 0.893056 -5.66302 0
M  V30 10291 H 945.049 0.176474 -5.9984 0
M  V30 10292 H 946.119 -0.592943 -4.81261 0
M  V30 10293 N 947.462 1.57535 -0.0451378 0
M  V30 10294 C 948.708 1.93558 0.62505 0
M  V30 10295 C 949.063 0.923159 1.68806 0
M  V30 10296 O 948.356 -0.0585419 1.91511 0
M  V30 10297 C 948.55 3.34065 1.27024 0
M  V30 10298 C 948.379 4.48881 0.271253 0
M  V30 10299 C 947.149 5.05121 -0.13462 0
M  V30 10300 C 949.347 5.12047 -0.480911 0
M  V30 10301 N 947.329 6.03465 -1.1271 0
M  V30 10302 C 948.7 6.0564 -1.32666 0
M  V30 10303 C 950.755 4.94964 -0.539878 0
M  V30 10304 C 949.458 6.83987 -2.22608 0
M  V30 10305 C 951.484 5.73933 -1.4267 0
M  V30 10306 C 950.846 6.67154 -2.26019 0
M  V30 10307 H 946.945 0.755846 0.20055 0
M  V30 10308 H 949.529 1.94354 -0.116059 0
M  V30 10309 H 947.7 3.34058 1.98141 0
M  V30 10310 H 949.432 3.57393 1.89875 0
M  V30 10311 H 946.187 4.72976 0.243112 0
M  V30 10312 H 946.611 6.5733 -1.62006 0
M  V30 10313 H 951.253 4.22704 0.0902834 0
M  V30 10314 H 948.971 7.55543 -2.86672 0
M  V30 10315 H 952.557 5.62744 -1.47682 0
M  V30 10316 H 951.437 7.27194 -2.93528 0
M  V30 10317 N 948.94 -0.228186 1.55939 0
M  V30 10318 C 949.872 -1.30605 1.88348 0
M  V30 10319 C 950.885 -1.43375 0.771198 0
M  V30 10320 O 952.074 -1.44391 1.04945 0
M  V30 10321 C 949.174 -2.68248 2.07115 0
M  V30 10322 C 948.347 -2.77509 3.38094 0
M  V30 10323 C 947.406 -3.96121 3.46373 0
M  V30 10324 O 946.432 -3.8477 4.19453 0
M  V30 10325 N 947.634 -5.10132 2.77031 0
M  V30 10326 H 950.399 -1.03132 2.81396 0
M  V30 10327 H 947.96 -0.418245 1.56404 0
M  V30 10328 H 949.952 -3.45966 2.09976 0
M  V30 10329 H 948.522 -2.88348 1.20723 0
M  V30 10330 H 947.742 -1.8632 3.47388 0
M  V30 10331 H 949.03 -2.80662 4.2439 0
M  V30 10332 H 948.428 -5.22249 2.17424 0
M  V30 10333 H 946.985 -5.85916 2.85561 0
M  V30 10334 N 950.418 -1.49637 -0.494624 0
M  V30 10335 C 951.368 -1.63168 -1.59249 0
M  V30 10336 C 952.352 -0.487089 -1.5335 0
M  V30 10337 O 953.544 -0.74036 -1.60772 0
M  V30 10338 C 950.673 -1.70744 -2.97828 0
M  V30 10339 C 949.759 -2.90802 -3.08699 0
M  V30 10340 N 950.15 -4.14797 -2.89442 0
M  V30 10341 C 948.448 -2.88871 -3.39808 0
M  V30 10342 C 949.149 -4.95535 -3.04663 0
M  V30 10343 N 948.125 -4.29025 -3.33824 0
M  V30 10344 H 951.927 -2.56751 -1.43024 0
M  V30 10345 H 949.441 -1.46497 -0.700885 0
M  V30 10346 H 951.438 -1.78537 -3.76736 0
M  V30 10347 H 950.098 -0.783024 -3.15117 0
M  V30 10348 H 951.109 -4.44675 -2.6549 0
M  V30 10349 H 947.786 -2.05834 -3.63233 0
M  V30 10350 H 949.176 -6.0406 -2.94214 0
M  V30 10351 N 951.896 0.746133 -1.38819 0
M  V30 10352 C 953.144 1.50247 -1.35167 0
M  V30 10353 C 953.465 1.94921 0.0553531 0
M  V30 10354 O 952.735 1.68187 1.00449 0
M  V30 10355 H 951.315 0.557337 -0.497377 0
M  V30 10356 H 953.977 0.886472 -1.73573 0
M  V30 10357 H 953.073 2.38986 -2.00728 0
M  V30 10358 N 953.375 1.23811 0.975125 0
M  V30 10359 C 954.285 1.0408 2.10249 0
M  V30 10360 C 955.301 -0.0162404 1.73992 0
M  V30 10361 O 956.477 0.180346 2.00591 0
M  V30 10362 C 953.542 0.640013 3.40741 0
M  V30 10363 C 952.603 1.7727 3.90991 0
M  V30 10364 C 951.836 1.39094 5.15256 0
M  V30 10365 O 952.059 0.277483 5.69725 0
M  V30 10366 O 950.993 2.21392 5.59704 0
M  V30 10367 H 954.819 1.98575 2.29786 0
M  V30 10368 H 952.404 1.02563 1.08633 0
M  V30 10369 H 954.286 0.427684 4.19224 0
M  V30 10370 H 952.961 -0.27589 3.22522 0
M  V30 10371 H 951.868 2.03971 3.13602 0
M  V30 10372 H 953.201 2.66711 4.13674 0
M  V30 10373 N 954.853 -1.17469 1.05066 0
M  V30 10374 C 955.763 -2.25089 0.661222 0
M  V30 10375 C 956.779 -1.71086 -0.31712 0
M  V30 10376 O 957.955 -2.00685 -0.169534 0
M  V30 10377 C 955.02 -3.46676 0.0406415 0
M  V30 10378 C 954.081 -4.15771 1.06927 0
M  V30 10379 C 953.314 -5.31553 0.478208 0
M  V30 10380 O 953.537 -5.6593 -0.712714 0
M  V30 10381 O 952.471 -5.89574 1.21185 0
M  V30 10382 H 956.297 -2.60685 1.5581 0
M  V30 10383 H 953.882 -1.24744 0.822147 0
M  V30 10384 H 955.764 -4.203 -0.304312 0
M  V30 10385 H 954.439 -3.1288 -0.829909 0
M  V30 10386 H 953.346 -3.44171 1.46619 0
M  V30 10387 H 954.679 -4.53591 1.91092 0
M  V30 10388 N 956.331 -0.831506 -1.3388 0
M  V30 10389 C 957.556 -0.435954 -2.02766 0
M  V30 10390 C 957.981 0.952889 -1.62178 0
M  V30 10391 O 957.339 1.62166 -0.810681 0
M  V30 10392 C 957.387 -0.555907 -3.56289 0
M  V30 10393 O 956.491 0.420826 -4.10247 0
M  V30 10394 H 955.832 -0.178248 -0.639628 0
M  V30 10395 H 958.362 -1.1243 -1.70941 0
M  V30 10396 H 958.372 -0.434831 -4.05676 0
M  V30 10397 H 957.047 -1.56881 -3.85177 0
M  V30 10398 H 955.624 0.257919 -3.72007 0
M  V30 10399 N 957.809 1.4625 -0.587256 0
M  V30 10400 C 958.742 2.27392 0.191837 0
M  V30 10401 C 959.72 1.35905 0.89267 0
M  V30 10402 O 960.904 1.65319 0.905643 0
M  V30 10403 C 958.031 3.13758 1.27567 0
M  V30 10404 C 957.077 4.21041 0.680186 0
M  V30 10405 S 957.91 5.33194 -0.496419 0
M  V30 10406 C 959.066 6.23127 0.588506 0
M  V30 10407 H 959.299 2.93123 -0.496635 0
M  V30 10408 H 956.832 1.49795 -0.37426 0
M  V30 10409 H 958.79 3.6408 1.8962 0
M  V30 10410 H 957.451 2.47332 1.93612 0
M  V30 10411 H 956.644 4.81316 1.49503 0
M  V30 10412 H 956.246 3.73755 0.135227 0
M  V30 10413 H 958.538 6.61294 1.47298 0
M  V30 10414 H 959.481 7.08096 0.0224093 0
M  V30 10415 H 959.889 5.57365 0.894696 0
M  V30 10416 N 959.287 0.325282 1.54207 0
M  V30 10417 C 960.25 -0.527228 2.23054 0
M  V30 10418 C 961.25 -1.04217 1.22456 0
M  V30 10419 O 962.44 -0.934325 1.47024 0
M  V30 10420 C 959.572 -1.7325 2.93594 0
M  V30 10421 H 960.765 0.0746423 2.99807 0
M  V30 10422 H 958.318 0.0763872 1.56113 0
M  V30 10423 H 959.053 -2.37356 2.20981 0
M  V30 10424 H 958.838 -1.37065 3.67363 0
M  V30 10425 H 960.328 -2.3376 3.46043 0
M  V30 10426 N 960.765 -1.57509 0.0534917 0
M  V30 10427 C 961.712 -2.11667 -0.920101 0
M  V30 10428 C 962.682 -1.0246 -1.30733 0
M  V30 10429 O 963.867 -1.30021 -1.39639 0
M  V30 10430 C 961.007 -2.66803 -2.18883 0
M  V30 10431 C 960.12 -3.90104 -1.85588 0
M  V30 10432 C 959.255 -4.33547 -3.06937 0
M  V30 10433 C 958.294 -5.49542 -2.69573 0
M  V30 10434 N 957.431 -5.88029 -3.83623 0
M  V30 10435 H 962.271 -2.94562 -0.451371 0
M  V30 10436 H 959.808 -1.45576 -0.211168 0
M  V30 10437 H 961.766 -2.96871 -2.93127 0
M  V30 10438 H 960.396 -1.86702 -2.63329 0
M  V30 10439 H 959.448 -3.66613 -1.01484 0
M  V30 10440 H 960.76 -4.74404 -1.54087 0
M  V30 10441 H 959.914 -4.6518 -3.89477 0
M  V30 10442 H 958.653 -3.48064 -3.41618 0
M  V30 10443 H 957.658 -5.17579 -1.8545 0
M  V30 10444 H 958.883 -6.36743 -2.36082 0
M  V30 10445 H 956.829 -5.05498 -4.181 0
M  V30 10446 H 956.746 -6.67025 -3.55828 0
M  V30 10447 H 958.014 -6.24277 -4.66796 0
M  V30 10448 N 962.243 0.219913 -1.56058 0
M  V30 10449 C 963.206 1.25606 -1.91718 0
M  V30 10450 C 964.206 1.39721 -0.795912 0
M  V30 10451 O 965.396 1.37958 -1.06364 0
M  V30 10452 C 962.528 2.62961 -2.16943 0
M  V30 10453 H 963.721 0.951909 -2.84392 0
M  V30 10454 H 961.274 0.460398 -1.49365 0
M  V30 10455 H 962.009 2.98472 -1.26826 0
M  V30 10456 H 961.794 2.54093 -2.98629 0
M  V30 10457 H 963.284 3.37727 -2.45622 0
M  V30 10458 N 963.721 1.49897 0.486681 0
M  V30 10459 C 964.651 1.7054 1.59494 0
M  V30 10460 C 965.632 0.554184 1.60819 0
M  V30 10461 O 966.817 0.791617 1.77333 0
M  V30 10462 C 963.947 1.78517 2.97908 0
M  V30 10463 C 962.901 2.93571 3.11449 0
M  V30 10464 C 962.227 2.86674 4.51356 0
M  V30 10465 C 963.527 4.34308 2.90127 0
M  V30 10466 H 965.221 2.63329 1.42472 0
M  V30 10467 H 962.767 1.2672 0.683969 0
M  V30 10468 H 964.72 1.91544 3.75352 0
M  V30 10469 H 963.444 0.823381 3.16051 0
M  V30 10470 H 962.103 2.80169 2.36433 0
M  V30 10471 H 961.751 1.88373 4.66395 0
M  V30 10472 H 961.451 3.63903 4.61355 0
M  V30 10473 H 962.975 3.01728 5.30841 0
M  V30 10474 H 964.389 4.48317 3.57331 0
M  V30 10475 H 962.786 5.12869 3.11585 0
M  V30 10476 H 963.856 4.47759 1.86119 0
M  V30 10477 N 965.199 -0.738761 1.39212 0
M  V30 10478 C 966.445 -1.50046 1.36433 0
M  V30 10479 C 966.778 -1.94157 -0.0409474 0
M  V30 10480 O 966.053 -1.66515 -1.00514 0
M  V30 10481 C 966.336 -2.74277 2.33333 0
M  V30 10482 C 966.189 -2.36209 3.82786 0
M  V30 10483 C 967.508 -3.76361 2.28123 0
M  V30 10484 H 964.627 -0.544294 0.496903 0
M  V30 10485 H 967.269 -0.845005 1.70175 0
M  V30 10486 H 965.419 -3.30204 2.04689 0
M  V30 10487 H 967.091 -1.85942 4.22165 0
M  V30 10488 H 965.334 -1.68483 3.99745 0
M  V30 10489 H 966.005 -3.25156 4.46069 0
M  V30 10490 H 968.481 -3.30009 2.53443 0
M  V30 10491 H 967.357 -4.60957 2.9801 0
M  V30 10492 H 967.618 -4.23013 1.28499 0
M  V30 10493 N 966.677 -1.24326 -0.968545 0
M  V30 10494 C 967.64 -1.03591 -2.04454 0
M  V30 10495 C 968.64 0.0064809 -1.60799 0
M  V30 10496 O 969.83 -0.234404 -1.72616 0
M  V30 10497 C 966.962 -0.56992 -3.36102 0
M  V30 10498 H 968.155 -1.99092 -2.24282 0
M  V30 10499 H 965.708 -1.06537 -1.14366 0
M  V30 10500 H 966.443 0.388325 -3.21967 0
M  V30 10501 H 966.228 -1.32227 -3.69132 0
M  V30 10502 H 967.718 -0.445854 -4.15213 0
M  V30 10503 N 968.156 1.1691 -1.05688 0
M  V30 10504 C 969.396 1.88972 -0.779044 0
M  V30 10505 C 969.76 1.7949 0.681708 0
M  V30 10506 O 970.961 2.46418 1.07386 0
M  V30 10507 C 969.232 3.34737 -1.25242 0
M  V30 10508 S 970.791 4.24718 -1.10272 0
M  V30 10509 H 967.609 0.652349 -0.282776 0
M  V30 10510 H 970.211 1.41162 -1.35254 0
M  V30 10511 H 968.915 3.39175 -2.3106 0
M  V30 10512 H 968.446 3.87593 -0.673417 0
M  V30 10513 H 970.461 4.96191 -0.0299004 0
M  V30 10514 N 969.634 0.838594 1.33437 0
M  V30 10515 C 970.581 0.269609 2.2922 0
M  V30 10516 C 971.551 -0.614429 1.54318 0
M  V30 10517 O 972.736 -0.552756 1.82618 0
M  V30 10518 C 969.876 -0.549527 3.40697 0
M  V30 10519 C 968.989 0.358502 4.3051 0
M  V30 10520 C 968.124 -0.471709 5.29101 0
M  V30 10521 C 967.163 0.434728 6.10554 0
M  V30 10522 N 966.3 -0.357339 7.0119 0
M  V30 10523 H 971.14 1.09172 2.77282 0
M  V30 10524 H 968.677 0.549832 1.36438 0
M  V30 10525 H 970.635 -1.03992 4.04032 0
M  V30 10526 H 969.265 -1.33661 2.93828 0
M  V30 10527 H 968.317 0.967204 3.67899 0
M  V30 10528 H 969.629 1.05483 4.87519 0
M  V30 10529 H 968.783 -1.02594 5.97963 0
M  V30 10530 H 967.522 -1.20147 4.72669 0
M  V30 10531 H 966.527 1.00097 5.40611 0
M  V30 10532 H 967.752 1.16285 6.6907 0
M  V30 10533 H 965.698 -1.07049 6.47207 0
M  V30 10534 H 965.615 0.280277 7.5548 0
M  V30 10535 H 966.883 -0.893814 7.74359 0
M  V30 10536 N 971.112 -1.45937 0.595003 0
M  V30 10537 C 972.361 -2.01529 0.0829531 0
M  V30 10538 C 972.674 -1.47071 -1.28955 0
M  V30 10539 O 973.88 -1.94561 -1.89363 0
M  V30 10540 C 972.336 -3.59767 0.0976597 0
M  V30 10541 C 971.944 -4.23223 1.46924 0
M  V30 10542 C 973.688 -4.22972 -0.359805 0
M  V30 10543 C 971.595 -5.73576 1.44101 0
M  V30 10544 H 970.525 -0.753508 0.0272425 0
M  V30 10545 H 973.176 -1.67541 0.748473 0
M  V30 10546 H 971.558 -3.90888 -0.634268 0
M  V30 10547 H 972.732 -4.03695 2.22187 0
M  V30 10548 H 971.047 -3.72161 1.86775 0
M  V30 10549 H 973.644 -5.33202 -0.39991 0
M  V30 10550 H 973.987 -3.92765 -1.37991 0
M  V30 10551 H 974.52 -3.96523 0.31845 0
M  V30 10552 H 971.259 -6.08462 2.43831 0
M  V30 10553 H 970.779 -5.95332 0.730767 0
M  V30 10554 H 972.458 -6.36531 1.1592 0
M  V30 10555 N 972.59 -0.333456 -1.54032 0
M  V30 10556 C 973.82 0.267425 -2.04862 0
M  V30 10557 C 974.228 1.45559 -1.20869 0
M  V30 10558 O 973.571 1.82197 -0.234478 0
M  V30 10559 C 973.633 0.755759 -3.51466 0
M  V30 10560 C 973.297 -0.311409 -4.55938 0
M  V30 10561 C 974.294 -1.15078 -5.07004 0
M  V30 10562 C 971.979 -0.462439 -5.00167 0
M  V30 10563 C 973.973 -2.12682 -6.0087 0
M  V30 10564 C 971.66 -1.44188 -5.93846 0
M  V30 10565 C 972.658 -2.27253 -6.44085 0
M  V30 10566 O 972.346 -3.23532 -7.35923 0
M  V30 10567 H 972.078 0.0572596 -0.673571 0
M  V30 10568 H 974.632 -0.480646 -1.99697 0
M  V30 10569 H 972.862 1.55491 -3.54062 0
M  V30 10570 H 974.551 1.27607 -3.8532 0
M  V30 10571 H 975.317 -1.04513 -4.73605 0
M  V30 10572 H 971.196 0.17424 -4.60671 0
M  V30 10573 H 974.74 -2.77555 -6.40007 0
M  V30 10574 H 970.637 -1.54813 -6.2666 0
M  V30 10575 H 971.405 -3.18886 -7.53826 0
M  V30 10576 N 974.068 1.57479 -0.061844 0
M  V30 10577 C 975.484 1.56855 0.294753 0
M  V30 10578 C 975.684 1.07042 1.70717 0
M  V30 10579 O 974.74 0.731817 2.41662 0
M  V30 10580 C 976.053 3.00486 0.113484 0
M  V30 10581 C 977.601 3.1246 0.183778 0
M  V30 10582 C 978.076 4.5799 0.0309092 0
M  V30 10583 N 979.567 4.63119 0.0868393 0
M  V30 10584 C 980.302 5.734 -0.00717446 0
M  V30 10585 N 979.798 6.92628 -0.154144 0
M  V30 10586 N 981.591 5.62078 0.0491763 0
M  V30 10587 H 973.742 1.88176 -0.985058 0
M  V30 10588 H 976.005 0.867051 -0.383309 0
M  V30 10589 H 975.711 3.41004 -0.86075 0
M  V30 10590 H 975.585 3.67029 0.870023 0
M  V30 10591 H 977.972 2.71834 1.14849 0
M  V30 10592 H 978.053 2.48574 -0.603697 0
M  V30 10593 H 977.697 4.99303 -0.930526 0
M  V30 10594 H 977.627 5.19895 0.837664 0
M  V30 10595 H 980.118 3.77374 0.199245 0
M  V30 10596 H 980.431 7.72492 -0.218296 0
M  V30 10597 H 978.776 6.94742 -0.189372 0
M  V30 10598 H 981.967 4.67817 0.162626 0
M  V30 10599 H 982.14 6.47994 -0.0275478 0
M  V30 10600 N 975.546 -0.211634 1.56173 0
M  V30 10601 C 976.771 -0.955324 1.84088 0
M  V30 10602 C 977.196 -1.76754 0.643407 0
M  V30 10603 O 976.554 -1.76653 -0.407842 0
M  V30 10604 C 976.602 -1.84063 3.10085 0
M  V30 10605 O 975.706 -2.9373 2.89476 0
M  V30 10606 H 975.047 -0.26996 0.606645 0
M  V30 10607 H 977.577 -0.221947 2.03393 0
M  V30 10608 H 977.587 -2.24852 3.40449 0
M  V30 10609 H 976.262 -1.24373 3.96868 0
M  V30 10610 H 974.839 -2.56816 2.7037 0
M  V30 10611 N 977.024 -1.50153 -0.478725 0
M  V30 10612 C 977.957 -1.63089 -1.59616 0
M  V30 10613 C 978.935 -0.479211 -1.55378 0
M  V30 10614 O 980.119 -0.697715 -1.75112 0
M  V30 10615 C 977.246 -1.60643 -2.9818 0
M  V30 10616 C 976.292 -2.81279 -3.206 0
M  V30 10617 S 977.125 -4.42681 -3.0132 0
M  V30 10618 C 978.281 -4.42915 -4.42241 0
M  V30 10619 H 978.514 -2.57612 -1.48402 0
M  V30 10620 H 976.047 -1.39321 -0.665513 0
M  V30 10621 H 978.005 -1.59917 -3.7807 0
M  V30 10622 H 976.666 -0.673684 -3.0679 0
M  V30 10623 H 975.859 -2.7585 -4.21809 0
M  V30 10624 H 975.461 -2.79533 -2.4847 0
M  V30 10625 H 977.753 -4.16007 -5.34737 0
M  V30 10626 H 978.696 -5.44477 -4.52715 0
M  V30 10627 H 979.104 -3.72715 -4.23962 0
M  V30 10628 N 978.502 0.731368 -1.39602 0
M  V30 10629 C 979.465 1.8271 -1.38383 0
M  V30 10630 C 980.465 1.58338 -0.280309 0
M  V30 10631 O 981.655 1.65671 -0.538402 0
M  V30 10632 C 978.787 3.20556 -1.16002 0
M  V30 10633 H 979.98 1.85193 -2.35889 0
M  V30 10634 H 977.533 0.935396 -1.2522 0
M  V30 10635 H 978.268 3.23732 -0.191927 0
M  V30 10636 H 978.053 3.39643 -1.9592 0
M  V30 10637 H 979.543 4.00612 -1.17899 0
M  V30 10638 N 979.98 1.24838 0.961938 0
M  V30 10639 C 981.21 1.11709 1.73795 0
M  V30 10640 C 981.618 -0.33263 1.86253 0
M  V30 10641 O 980.961 -1.24101 1.35443 0
M  V30 10642 C 981.023 1.68959 3.17322 0
M  V30 10643 C 980.687 3.17895 3.28316 0
M  V30 10644 C 981.684 4.14975 3.13196 0
M  V30 10645 C 979.369 3.57966 3.52372 0
M  V30 10646 C 981.363 5.50107 3.21965 0
M  V30 10647 C 979.05 4.93237 3.60778 0
M  V30 10648 C 980.048 5.89116 3.45588 0
M  V30 10649 O 979.736 7.21927 3.53662 0
M  V30 10650 H 979.468 0.390726 0.551642 0
M  V30 10651 H 982.022 1.65541 1.21594 0
M  V30 10652 H 980.252 1.09567 3.70853 0
M  V30 10653 H 981.941 1.51036 3.76753 0
M  V30 10654 H 982.707 3.85359 2.94489 0
M  V30 10655 H 978.586 2.83837 3.63259 0
M  V30 10656 H 982.13 6.24924 3.10025 0
M  V30 10657 H 978.027 5.22522 3.79 0
M  V30 10658 H 978.795 7.29925 3.7034 0
M  V30 10659 N 981.458 -1.16348 1.06306 0
M  V30 10660 C 982.368 -2.24375 0.685059 0
M  V30 10661 C 983.384 -1.71413 -0.298956 0
M  V30 10662 O 984.56 -2.00854 -0.148239 0
M  V30 10663 C 981.625 -3.46614 0.0774088 0
M  V30 10664 C 980.686 -4.14613 1.11331 0
M  V30 10665 C 979.919 -5.31016 0.534559 0
M  V30 10666 O 980.142 -5.66654 -0.65265 0
M  V30 10667 O 979.076 -5.88256 1.27431 0
M  V30 10668 H 982.902 -2.59018 1.58566 0
M  V30 10669 H 980.487 -1.23865 0.835332 0
M  V30 10670 H 982.369 -4.20599 -0.259716 0
M  V30 10671 H 981.044 -3.13743 -0.796677 0
M  V30 10672 H 979.951 -3.42597 1.50261 0
M  V30 10673 H 981.284 -4.51538 1.95893 0
M  V30 10674 N 982.937 -0.845659 -1.3299 0
M  V30 10675 C 983.9 -0.288905 -2.27372 0
M  V30 10676 C 984.9 0.546263 -1.51237 0
M  V30 10677 O 986.09 0.359072 -1.70459 0
M  V30 10678 C 983.222 0.59224 -3.35716 0
M  V30 10679 H 984.415 -1.12181 -2.78128 0
M  V30 10680 H 981.968 -0.619276 -1.43508 0
M  V30 10681 H 982.703 1.44732 -2.90212 0
M  V30 10682 H 982.488 -0.00543255 -3.921 0
M  V30 10683 H 983.978 0.974848 -4.06062 0
M  V30 10684 N 984.415 1.45619 -0.602734 0
M  V30 10685 C 985.362 2.30493 0.118944 0
M  V30 10686 C 986.332 1.41816 0.864723 0
M  V30 10687 O 987.517 1.7075 0.851424 0
M  V30 10688 C 984.657 3.2664 1.11356 0
M  V30 10689 C 983.77 4.3042 0.369161 0
M  V30 10690 C 982.905 5.13678 1.35307 0
M  V30 10691 C 981.944 6.09189 0.596207 0
M  V30 10692 N 981.081 6.85245 1.52916 0
M  V30 10693 H 985.921 2.91672 -0.610836 0
M  V30 10694 H 983.458 1.43731 -0.313032 0
M  V30 10695 H 985.416 3.80846 1.7033 0
M  V30 10696 H 984.046 2.67225 1.81081 0
M  V30 10697 H 983.098 3.78913 -0.335994 0
M  V30 10698 H 984.41 4.98307 -0.221603 0
M  V30 10699 H 983.564 5.7226 2.01502 0
M  V30 10700 H 982.303 4.45798 1.97777 0
M  V30 10701 H 981.308 5.49743 -0.0793984 0
M  V30 10702 H 982.533 6.79096 -0.0233734 0
M  V30 10703 H 980.479 6.20058 2.14159 0
M  V30 10704 H 980.396 7.49467 0.991713 0
M  V30 10705 H 981.664 7.48371 2.18083 0
M  V30 10706 N 985.893 0.34162 1.53853 0
M  V30 10707 C 986.825 -0.550383 2.22494 0
M  V30 10708 C 987.838 -1.0655 1.23089 0
M  V30 10709 O 989.027 -0.975985 1.49455 0
M  V30 10710 C 986.127 -1.76995 2.89009 0
M  V30 10711 C 985.3 -1.39045 4.14711 0
M  V30 10712 C 984.359 -2.46947 4.64654 0
M  V30 10713 O 983.385 -2.10336 5.28912 0
M  V30 10714 N 984.587 -3.7817 4.40418 0
M  V30 10715 H 987.352 0.037456 2.99677 0
M  V30 10716 H 984.913 0.165654 1.6105 0
M  V30 10717 H 986.905 -2.48608 3.19337 0
M  V30 10718 H 985.475 -2.2652 2.15424 0
M  V30 10719 H 984.695 -0.505161 3.9095 0
M  V30 10720 H 985.983 -1.11284 4.96481 0
M  V30 10721 H 985.381 -4.10704 3.89023 0
M  V30 10722 H 983.938 -4.45959 4.75356 0
M  V30 10723 N 987.371 -1.57444 0.0701946 0
M  V30 10724 C 988.596 -1.98171 -0.61181 0
M  V30 10725 C 989.021 -0.94823 -1.62451 0
M  V30 10726 O 988.379 0.0863553 -1.81094 0
M  V30 10727 C 988.427 -3.37934 -1.2583 0
M  V30 10728 O 987.531 -3.37207 -2.37414 0
M  V30 10729 H 986.872 -0.645056 -0.157477 0
M  V30 10730 H 989.402 -2.04091 0.144235 0
M  V30 10731 H 989.412 -3.75083 -1.60552 0
M  V30 10732 H 988.087 -4.12684 -0.516234 0
M  V30 10733 H 986.664 -3.11826 -2.04497 0
M  V30 10734 N 988.849 0.203349 -1.56283 0
M  V30 10735 C 990.126 0.950415 -1.70958 0
M  V30 10736 C 990.506 2.01708 -0.622647 0
M  V30 10737 O 989.854 2.25523 0.367635 0
M  V30 10738 C 990.064 1.54434 -3.12971 0
M  V30 10739 C 991.412 2.02964 -3.72949 0
M  V30 10740 O 992.436 1.64293 -3.16048 0
M  V30 10741 O 991.295 2.74097 -4.72793 0
M  V30 10742 H 988.389 0.445154 -0.69697 0
M  V30 10743 H 990.935 0.193695 -1.68591 0
M  V30 10744 H 989.707 0.77505 -3.83547 0
M  V30 10745 H 989.33 2.36611 -3.19532 0
M  V30 10746 N 990.327 1.50405 0.470755 0
M  V30 10747 C 991.257 1.72222 1.57676 0
M  V30 10748 C 992.238 0.57121 1.60222 0
M  V30 10749 O 993.423 0.810381 1.76484 0
M  V30 10750 C 990.553 1.81666 2.95998 0
M  V30 10751 C 989.507 2.96857 3.08318 0
M  V30 10752 C 988.833 2.91445 4.4829 0
M  V30 10753 C 990.133 4.37361 2.85504 0
M  V30 10754 H 991.827 2.64825 1.39671 0
M  V30 10755 H 989.373 1.27438 0.67049 0
M  V30 10756 H 991.326 1.95514 3.73299 0
M  V30 10757 H 990.05 0.856856 3.1516 0
M  V30 10758 H 988.709 2.82661 2.33449 0
M  V30 10759 H 988.357 1.93309 4.64371 0
M  V30 10760 H 988.057 3.68776 4.57469 0
M  V30 10761 H 989.581 3.07341 5.27611 0
M  V30 10762 H 990.995 4.52081 3.52555 0
M  V30 10763 H 989.392 5.16145 3.06127 0
M  V30 10764 H 990.462 4.49708 1.81359 0
M  V30 10765 N 991.805 -0.723954 1.39988 0
M  V30 10766 C 993.051 -1.48591 1.38017 0
M  V30 10767 C 993.384 -1.94189 -0.0203522 0
M  V30 10768 O 992.659 -1.67572 -0.987422 0
M  V30 10769 C 992.942 -2.71786 2.36229 0
M  V30 10770 C 992.795 -2.32136 3.8527 0
M  V30 10771 C 994.114 -3.73921 2.32102 0
M  V30 10772 H 991.233 -0.538993 0.502648 0
M  V30 10773 H 993.875 -0.826908 1.71062 0
M  V30 10774 H 992.025 -3.28015 2.0818 0
M  V30 10775 H 993.697 -1.81454 4.24113 0
M  V30 10776 H 991.94 -1.64234 4.01509 0
M  V30 10777 H 992.611 -3.20406 4.49493 0
M  V30 10778 H 995.087 -3.27303 2.56928 0
M  V30 10779 H 993.963 -4.5777 3.02882 0
M  V30 10780 H 994.224 -4.21627 1.32979 0
M  V30 10781 N 993.283 -1.25346 -0.955304 0
M  V30 10782 C 994.56 -1.00829 -1.67609 0
M  V30 10783 C 994.94 0.465675 -2.059 0
M  V30 10784 O 994.288 1.44287 -1.77182 0
M  V30 10785 C 994.498 -1.94337 -2.89886 0
M  V30 10786 C 995.846 -2.22142 -3.61854 0
M  V30 10787 O 996.87 -1.9209 -2.99967 0
M  V30 10788 O 995.729 -2.73239 -4.73289 0
M  V30 10789 H 992.823 -0.382314 -0.733325 0
M  V30 10790 H 995.369 -1.36498 -1.00829 0
M  V30 10791 H 994.141 -2.93867 -2.58376 0
M  V30 10792 H 993.764 -1.59062 -3.64397 0
M  V30 10793 N 994.761 1.15782 -1.06922 0
M  V30 10794 C 996.038 1.8253 -0.703 0
M  V30 10795 C 996.418 1.94733 0.814994 0
M  V30 10796 O 995.766 1.49537 1.72774 0
M  V30 10797 C 995.976 3.19145 -1.41234 0
M  V30 10798 C 997.324 3.94839 -1.56164 0
M  V30 10799 O 998.348 3.28685 -1.37277 0
M  V30 10800 O 997.207 5.13436 -1.87205 0
M  V30 10801 H 994.301 0.788425 -0.24963 0
M  V30 10802 H 996.847 1.22931 -1.16988 0
M  V30 10803 H 995.619 3.05336 -2.44715 0
M  V30 10804 H 995.242 3.86427 -0.935959 0
M  V30 10805 N 996.239 0.8527 1.3254 0
M  V30 10806 C 997.467 0.469044 2.01513 0
M  V30 10807 C 997.882 -0.933701 1.64096 0
M  V30 10808 O 997.239 -1.60898 0.861283 0
M  V30 10809 C 997.29 0.596228 3.56549 0
M  V30 10810 O 997.011 1.94371 3.92621 0
M  V30 10811 C 998.512 0.211324 4.42796 0
M  V30 10812 H 995.732 0.184589 0.645111 0
M  V30 10813 H 998.276 1.1491 1.69163 0
M  V30 10814 H 996.431 -0.0360712 3.87383 0
M  V30 10815 H 996.845 1.93909 4.87339 0
M  V30 10816 H 998.319 0.351324 5.50881 0
M  V30 10817 H 998.796 -0.848055 4.30935 0
M  V30 10818 H 999.402 0.818617 4.17347 0
M  V30 10819 N 997.718 -1.45297 0.610449 0
M  V30 10820 C 998.943 -2.07101 0.111414 0
M  V30 10821 C 999.368 -1.45161 -1.19625 0
M  V30 10822 O 998.726 -0.545368 -1.72903 0
M  V30 10823 C 998.774 -3.60598 -0.0117372 0
M  V30 10824 O 997.878 -3.98512 -1.06122 0
M  V30 10825 H 997.219 -0.659709 0.075364 0
M  V30 10826 H 999.749 -1.86504 0.841269 0
M  V30 10827 H 999.759 -4.07464 -0.209028 0
M  V30 10828 H 998.434 -4.05067 0.943076 0
M  V30 10829 H 997.011 -3.63312 -0.840158 0
M  V30 10830 N 999.196 -0.349774 -1.5367 0
M  V30 10831 C 1000.11 0.512421 -2.28935 0
M  V30 10832 C 1001.12 1.1065 -1.34286 0
M  V30 10833 O 1002.3 1.12084 -1.67329 0
M  V30 10834 C 999.363 1.64449 -3.05217 0
M  V30 10835 C 998.424 1.07956 -4.15505 0
M  V30 10836 C 997.657 2.15768 -4.88139 0
M  V30 10837 O 997.88 3.366 -4.60496 0
M  V30 10838 O 996.814 1.79712 -5.74445 0
M  V30 10839 H 1000.64 -0.0996001 -3.03537 0
M  V30 10840 H 998.225 -0.114629 -1.4896 0
M  V30 10841 H 1000.11 2.30302 -3.52901 0
M  V30 10842 H 998.782 2.24221 -2.33467 0
M  V30 10843 H 997.689 0.385381 -3.7211 0
M  V30 10844 H 999.022 0.526621 -4.89375 0
M  V30 10845 N 1000.67 1.57404 -0.0785433 0
M  V30 10846 C 1001.58 2.16612 0.900902 0
M  V30 10847 C 1002.6 1.13109 1.32221 0
M  V30 10848 O 1003.78 1.45406 1.39352 0
M  V30 10849 C 1000.84 2.7215 2.14791 0
M  V30 10850 C 999.902 3.90551 1.78237 0
M  V30 10851 C 999.135 4.43431 2.96993 0
M  V30 10852 O 999.358 3.95292 4.11218 0
M  V30 10853 O 998.292 5.34674 2.76418 0
M  V30 10854 H 1002.12 3.0068 0.427227 0
M  V30 10855 H 999.703 1.48696 0.144902 0
M  V30 10856 H 1001.58 3.07718 2.87902 0
M  V30 10857 H 1000.26 1.91139 2.61243 0
M  V30 10858 H 999.167 3.59825 1.02357 0
M  V30 10859 H 1000.5 4.72876 1.36562 0
M  V30 10860 N 1002.15 -0.195058 1.56388 0
M  V30 10861 C 1003.08 -1.24444 1.97575 0
M  V30 10862 C 1004.06 -1.47471 0.847717 0
M  V30 10863 O 1005.25 -1.59208 1.11205 0
M  V30 10864 C 1002.38 -2.58866 2.31529 0
M  V30 10865 C 1001.33 -2.50451 3.47071 0
M  V30 10866 C 1000.66 -3.89146 3.667 0
M  V30 10867 C 1001.96 -2.02953 4.81256 0
M  V30 10868 H 1003.65 -0.902178 2.85484 0
M  V30 10869 H 1001.2 -0.43254 1.3735 0
M  V30 10870 H 1003.15 -3.3246 2.58936 0
M  V30 10871 H 1001.87 -2.94833 1.40502 0
M  V30 10872 H 1000.53 -1.79313 3.19754 0
M  V30 10873 H 1000.18 -4.22466 2.73004 0
M  V30 10874 H 999.882 -3.84391 4.44429 0
M  V30 10875 H 1001.41 -4.64363 3.96484 0
M  V30 10876 H 1002.82 -2.66306 5.07695 0
M  V30 10877 H 1001.22 -2.092 5.62455 0
M  V30 10878 H 1002.29 -0.982757 4.74837 0
M  V30 10879 N 1003.63 -1.50653 -0.462772 0
M  V30 10880 C 1004.58 -1.70122 -1.55971 0
M  V30 10881 C 1005.55 -0.542581 -1.56988 0
M  V30 10882 O 1006.73 -0.774114 -1.74391 0
M  V30 10883 C 1003.87 -1.80899 -2.93887 0
M  V30 10884 C 1002.98 -3.08318 -3.02595 0
M  V30 10885 C 1002.12 -3.09841 -4.31477 0
M  V30 10886 C 1001.16 -4.3168 -4.33957 0
M  V30 10887 N 1000.3 -4.30894 -5.54323 0
M  V30 10888 H 1005.14 -2.63768 -1.38674 0
M  V30 10889 H 1002.67 -1.30746 -0.674091 0
M  V30 10890 H 1004.63 -1.85128 -3.73876 0
M  V30 10891 H 1003.26 -0.906854 -3.098 0
M  V30 10892 H 1002.31 -3.13521 -2.15427 0
M  V30 10893 H 1003.62 -3.98282 -3.00288 0
M  V30 10894 H 1002.78 -3.12845 -5.1982 0
M  V30 10895 H 1001.52 -2.17722 -4.36404 0
M  V30 10896 H 1000.52 -4.28879 -3.4401 0
M  V30 10897 H 1001.75 -5.25035 -4.30715 0
M  V30 10898 H 999.694 -3.41633 -5.6002 0
M  V30 10899 H 999.611 -5.14636 -5.53792 0
M  V30 10900 H 1000.88 -4.38056 -6.44769 0
M  V30 10901 N 1005.11 0.71652 -1.4037 0
M  V30 10902 C 1006.04 1.84138 -1.36477 0
M  V30 10903 C 1007.05 1.6054 -0.27033 0
M  V30 10904 O 1008.24 1.70431 -0.530612 0
M  V30 10905 C 1005.34 3.20523 -1.10082 0
M  V30 10906 C 1004.52 3.71326 -2.31162 0
M  V30 10907 C 1003.57 4.86322 -2.00942 0
M  V30 10908 O 1002.6 4.99022 -2.73799 0
M  V30 10909 N 1003.8 5.72051 -0.986812 0
M  V30 10910 H 1006.57 1.87977 -2.3342 0
M  V30 10911 H 1004.13 0.89802 -1.34712 0
M  V30 10912 H 1006.12 3.95049 -0.878526 0
M  V30 10913 H 1004.69 3.11838 -0.21809 0
M  V30 10914 H 1003.91 2.87941 -2.69227 0
M  V30 10915 H 1005.2 4.02003 -3.11883 0
M  V30 10916 H 1004.6 5.64399 -0.383381 0
M  V30 10917 H 1003.15 6.46565 -0.824419 0
M  V30 10918 N 1006.59 1.25851 0.948643 0
M  V30 10919 C 1007.82 1.13546 1.726 0
M  V30 10920 C 1008.22 -0.312857 1.86595 0
M  V30 10921 O 1007.57 -1.22657 1.36751 0
M  V30 10922 C 1007.63 1.72315 3.15512 0
M  V30 10923 C 1007.29 3.2136 3.24926 0
M  V30 10924 C 1008.29 4.18274 3.08777 0
M  V30 10925 C 1005.98 3.61683 3.48555 0
M  V30 10926 C 1007.97 5.53491 3.16112 0
M  V30 10927 C 1005.66 4.97035 3.55526 0
M  V30 10928 C 1006.65 5.92749 3.3932 0
M  V30 10929 O 1006.34 7.25637 3.45985 0
M  V30 10930 H 1006.07 0.396555 0.547467 0
M  V30 10931 H 1008.63 1.66822 1.19832 0
M  V30 10932 H 1006.86 1.13494 3.6967 0
M  V30 10933 H 1008.55 1.55024 3.7513 0
M  V30 10934 H 1009.31 3.88461 2.90385 0
M  V30 10935 H 1005.19 2.87674 3.60229 0
M  V30 10936 H 1008.74 6.28177 3.0338 0
M  V30 10937 H 1004.63 5.26512 3.73437 0
M  V30 10938 H 1005.4 7.33812 3.62577 0
M  V30 10939 N 1008.06 -1.15214 1.07534 0
M  V30 10940 C 1009.29 -1.90463 0.820883 0
M  V30 10941 C 1009.71 -1.77578 -0.620305 0
M  V30 10942 O 1009.07 -1.10976 -1.43366 0
M  V30 10943 C 1009.12 -3.38746 1.23627 0
M  V30 10944 O 1008.22 -4.1062 0.382715 0
M  V30 10945 H 1007.57 -0.59292 0.298901 0
M  V30 10946 H 1010.1 -1.45893 1.43445 0
M  V30 10947 H 1010.11 -3.89543 1.21327 0
M  V30 10948 H 1008.78 -3.47443 2.28596 0
M  V30 10949 H 1007.36 -3.69947 0.468374 0
M  V30 10950 N 1009.54 -0.859717 -1.32086 0
M  V30 10951 C 1010.49 -0.296897 -2.30697 0
M  V30 10952 C 1011.48 0.582473 -1.59071 0
M  V30 10953 O 1012.69 0.469713 -1.73763 0
M  V30 10954 H 1009.07 -0.0773132 -0.748015 0
M  V30 10955 H 1011.04 -1.14273 -2.75652 0
M  V30 10956 C 1009.79 0.495546 -3.44151 0
M  V30 10957 H 1009.11 -0.171829 -3.99431 0
M  V30 10958 H 1010.55 0.854854 -4.15293 0
M  V30 10959 C 1009.01 1.68278 -2.91863 0
M  V30 10960 O 1009.54 2.78194 -2.89777 0
M  V30 10961 N 1007.74 1.51151 -2.48197 0
M  V30 10962 H 1007.29 0.617345 -2.50093 0
M  V30 10963 H 1007.25 2.3073 -2.13567 0
M  V30 10964 N 1011.02 1.44971 -0.618145 0
M  V30 10965 C 1012.3 1.95539 -0.0489895 0
M  V30 10966 C 1012.68 1.5604 1.42179 0
M  V30 10967 O 1012.03 0.82809 2.12967 0
M  V30 10968 C 1012.24 3.48044 -0.258193 0
M  V30 10969 C 1013.58 4.24354 -0.144541 0
M  V30 10970 O 1014.61 3.55699 -0.18887 0
M  V30 10971 O 1013.47 5.46486 -0.038519 0
M  V30 10972 H 1010.56 0.826466 0.0297256 0
M  V30 10973 H 1013.11 1.55086 -0.688944 0
M  V30 10974 H 1011.88 3.69798 -1.27926 0
M  V30 10975 H 1011.5 3.95412 0.416522 0
M  V30 10976 N 1012.5 0.357919 1.53482 0
M  V30 10977 C 1013.75 -0.234163 2.01142 0
M  V30 10978 C 1014.07 -1.49399 1.2454 0
M  V30 10979 O 1013.33 -1.92981 0.325111 0
M  V30 10980 C 1013.63 -0.579617 3.52669 0
M  V30 10981 C 1013.29 0.584988 4.47089 0
M  V30 10982 C 1011.96 0.904558 4.72622 0
M  V30 10983 C 1014.31 1.3656 5.02992 0
M  V30 10984 C 1011.64 2.00685 5.5131 0
M  V30 10985 C 1013.99 2.45824 5.82884 0
M  V30 10986 C 1012.65 2.78325 6.06706 0
M  V30 10987 H 1011.92 -0.0856863 0.736029 0
M  V30 10988 H 1014.57 0.488801 1.85157 0
M  V30 10989 H 1012.87 -1.38349 3.66561 0
M  V30 10990 H 1014.57 -1.04985 3.87013 0
M  V30 10991 H 1011.16 0.32587 4.27359 0
M  V30 10992 H 1015.34 1.13196 4.83219 0
M  V30 10993 H 1010.6 2.26272 5.67988 0
M  V30 10994 H 1014.77 3.06732 6.25211 0
M  V30 10995 H 1012.4 3.63862 6.67464 0
M  V30 10996 N 1013.98 -1.5736 0.0868897 0
M  V30 10997 C 1015.22 -1.9367 -0.577598 0
M  V30 10998 C 1015.55 -0.968844 -1.69229 0
M  V30 10999 O 1014.82 -0.0195061 -1.9589 0
M  V30 11000 H 1013.4 -0.714983 -0.216353 0
M  V30 11001 H 1016.06 -1.94335 0.148294 0
M  V30 11002 H 1015.15 -2.95877 -0.993128 0
M  V30 11003 N 1015.45 0.186762 -1.56489 0
M  V30 11004 C 1016.39 1.25565 -1.91745 0
M  V30 11005 C 1017.4 1.4128 -0.80894 0
M  V30 11006 O 1018.59 1.41558 -1.08737 0
M  V30 11007 C 1015.69 2.62662 -2.14154 0
M  V30 11008 C 1014.86 2.68448 -3.45333 0
M  V30 11009 C 1013.92 3.86798 -3.56754 0
M  V30 11010 O 1012.95 3.73514 -4.29507 0
M  V30 11011 N 1014.15 5.02607 -2.90459 0
M  V30 11012 H 1016.91 0.956351 -2.84032 0
M  V30 11013 H 1014.47 0.376631 -1.57458 0
M  V30 11014 H 1016.47 3.40277 -2.19075 0
M  V30 11015 H 1015.04 2.85046 -1.28326 0
M  V30 11016 H 1014.26 1.77044 -3.52206 0
M  V30 11017 H 1015.54 2.69311 -4.31682 0
M  V30 11018 H 1014.94 5.163 -2.31194 0
M  V30 11019 H 1013.5 5.78139 -3.00996 0
M  V30 11020 N 1016.93 1.50896 0.454776 0
M  V30 11021 C 1017.86 1.73885 1.5584 0
M  V30 11022 C 1018.84 0.588172 1.59607 0
M  V30 11023 O 1020.03 0.829054 1.75614 0
M  V30 11024 C 1017.16 1.84796 2.94054 0
M  V30 11025 C 1016.11 3.00111 3.05152 0
M  V30 11026 C 1015.44 2.96183 4.45174 0
M  V30 11027 C 1016.74 4.40365 2.80849 0
M  V30 11028 H 1018.43 2.66292 1.36854 0
M  V30 11029 H 1015.98 1.28142 0.656936 0
M  V30 11030 H 1017.93 1.99462 3.71204 0
M  V30 11031 H 1016.66 0.890235 3.14233 0
M  V30 11032 H 1015.31 2.85121 2.30438 0
M  V30 11033 H 1014.96 1.98224 4.62295 0
M  V30 11034 H 1014.66 3.73608 4.53532 0
M  V30 11035 H 1016.19 3.1292 5.24322 0
M  V30 11036 H 1017.6 4.55795 3.47741 0
M  V30 11037 H 1016 5.19363 3.00636 0
M  V30 11038 H 1017.07 4.51606 1.76579 0
M  V30 11039 N 1018.41 -0.709066 1.40748 0
M  V30 11040 C 1019.37 -1.80485 1.41272 0
M  V30 11041 C 1020.37 -1.57872 0.305463 0
M  V30 11042 O 1021.56 -1.64793 0.564691 0
M  V30 11043 C 1018.7 -3.1867 1.21087 0
M  V30 11044 H 1019.89 -1.81417 2.38805 0
M  V30 11045 H 1017.44 -0.915356 1.26692 0
M  V30 11046 H 1018.18 -3.23385 0.243406 0
M  V30 11047 H 1017.96 -3.36484 2.01299 0
M  V30 11048 H 1019.45 -3.98685 1.24257 0
M  V30 11049 N 1019.89 -1.26353 -0.941956 0
M  V30 11050 C 1021.14 -1.12017 -1.69056 0
M  V30 11051 C 1021.47 0.335856 -1.91274 0
M  V30 11052 O 1020.74 1.24677 -1.49285 0
M  V30 11053 C 1021.03 -1.88889 -3.06583 0
M  V30 11054 C 1020.88 -3.42394 -2.91696 0
M  V30 11055 C 1022.2 -1.68209 -4.06686 0
M  V30 11056 H 1019.32 -0.408311 -0.613556 0
M  V30 11057 H 1021.96 -1.55339 -1.09407 0
M  V30 11058 H 1020.11 -1.5207 -3.57501 0
M  V30 11059 H 1021.78 -3.88962 -2.48005 0
M  V30 11060 H 1020.02 -3.69459 -2.27338 0
M  V30 11061 H 1020.7 -3.91408 -3.89235 0
M  V30 11062 H 1023.17 -2.00286 -3.64726 0
M  V30 11063 H 1022.05 -2.24412 -5.00929 0
M  V30 11064 H 1022.31 -0.626474 -4.37639 0
M  V30 11065 N 1021.37 1.14642 -1.08144 0
M  V30 11066 C 1022.28 2.23257 -0.720668 0
M  V30 11067 C 1023.29 1.71866 0.271648 0
M  V30 11068 O 1024.47 2.01064 0.116266 0
M  V30 11069 C 1021.53 3.46447 -0.132542 0
M  V30 11070 C 1020.6 4.12789 -1.17913 0
M  V30 11071 C 1019.83 5.30099 -0.618971 0
M  V30 11072 O 1020.05 5.6762 0.562418 0
M  V30 11073 O 1018.99 5.86154 -1.36774 0
M  V30 11074 H 1022.81 2.56463 -1.62667 0
M  V30 11075 H 1020.4 1.22521 -0.854932 0
M  V30 11076 H 1022.28 4.20959 0.19277 0
M  V30 11077 H 1020.95 3.14971 0.746662 0
M  V30 11078 H 1019.86 3.40163 -1.55693 0
M  V30 11079 H 1021.19 4.48365 -2.03051 0
M  V30 11080 N 1022.85 0.866709 1.31628 0
M  V30 11081 C 1023.78 0.335762 2.31073 0
M  V30 11082 C 1024.76 -0.571597 1.60209 0
M  V30 11083 O 1025.94 -0.489306 1.87935 0
M  V30 11084 C 1023.07 -0.466416 3.44154 0
M  V30 11085 C 1022.03 0.347561 4.26586 0
M  V30 11086 C 1021.35 -0.5801 5.31544 0
M  V30 11087 C 1022.65 1.57986 4.97833 0
M  V30 11088 H 1024.35 1.16673 2.75731 0
M  V30 11089 H 1021.89 0.56248 1.3256 0
M  V30 11090 H 1023.84 -0.84836 4.12772 0
M  V30 11091 H 1022.57 -1.33086 2.98254 0
M  V30 11092 H 1021.23 0.71141 3.59631 0
M  V30 11093 H 1020.88 -1.44174 4.81895 0
M  V30 11094 H 1020.58 -0.0393965 5.87587 0
M  V30 11095 H 1022.1 -0.958958 6.03023 0
M  V30 11096 H 1023.51 1.26954 5.59067 0
M  V30 11097 H 1021.91 2.05939 5.63657 0
M  V30 11098 H 1022.98 2.3345 4.25005 0
M  V30 11099 N 1024.32 -1.44642 0.625825 0
M  V30 11100 C 1025.25 -2.33397 -0.0692188 0
M  V30 11101 C 1026.23 -1.47898 -0.840241 0
M  V30 11102 O 1027.42 -1.7663 -0.807176 0
M  V30 11103 C 1024.55 -3.30888 -1.055 0
M  V30 11104 C 1023.5 -4.26164 -0.395968 0
M  V30 11105 C 1022.83 -5.13483 -1.49128 0
M  V30 11106 C 1024.13 -5.17663 0.694433 0
M  V30 11107 H 1025.82 -2.91763 0.671925 0
M  V30 11108 H 1023.37 -1.40294 0.324573 0
M  V30 11109 H 1025.32 -3.91861 -1.54993 0
M  V30 11110 H 1024.05 -2.7072 -1.82696 0
M  V30 11111 H 1022.71 -3.66516 0.0782691 0
M  V30 11112 H 1022.35 -4.49672 -2.25399 0
M  V30 11113 H 1022.05 -5.78038 -1.05573 0
M  V30 11114 H 1023.58 -5.77327 -1.98813 0
M  V30 11115 H 1024.99 -5.72602 0.282818 0
M  V30 11116 H 1023.39 -5.90793 1.05281 0
M  V30 11117 H 1024.46 -4.58994 1.56372 0
M  V30 11118 N 1025.8 -0.366053 -1.5329 0
M  V30 11119 C 1026.71 0.488111 -2.29466 0
M  V30 11120 C 1027.73 1.09219 -1.35452 0
M  V30 11121 O 1028.9 1.10303 -1.68509 0
M  V30 11122 C 1025.97 1.61202 -3.06944 0
M  V30 11123 C 1025.03 1.03543 -4.16626 0
M  V30 11124 C 1024.26 2.10578 -4.904 0
M  V30 11125 O 1024.49 3.31697 -4.6404 0
M  V30 11126 O 1023.42 1.73609 -5.76319 0
M  V30 11127 H 1027.25 -0.131789 -3.03414 0
M  V30 11128 H 1024.83 -0.130421 -1.4883 0
M  V30 11129 H 1026.71 2.26546 -3.55324 0
M  V30 11130 H 1025.39 2.21732 -2.35832 0
M  V30 11131 H 1024.29 0.345892 -3.72498 0
M  V30 11132 H 1025.63 0.474687 -4.89906 0
M  V30 11133 N 1027.28 1.57312 -0.0952337 0
M  V30 11134 C 1028.21 2.11059 0.893678 0
M  V30 11135 C 1029.22 1.04787 1.24594 0
M  V30 11136 O 1030.41 1.32233 1.19903 0
M  V30 11137 C 1027.51 2.57552 2.20272 0
M  V30 11138 C 1026.69 3.87661 2.02578 0
M  V30 11139 C 1025.75 4.2 3.16996 0
M  V30 11140 O 1024.77 4.89219 2.90953 0
M  V30 11141 N 1025.97 3.75414 4.42769 0
M  V30 11142 H 1028.74 2.96532 0.434632 0
M  V30 11143 H 1026.3 1.6165 0.0898661 0
M  V30 11144 H 1028.29 2.76232 2.95766 0
M  V30 11145 H 1026.86 1.7709 2.576 0
M  V30 11146 H 1026.08 3.78128 1.11413 0
M  V30 11147 H 1027.37 4.7278 1.88032 0
M  V30 11148 H 1026.77 3.1954 4.66809 0
M  V30 11149 H 1025.32 3.99249 5.15212 0
M  V30 11150 N 1028.76 -0.17846 1.56586 0
M  V30 11151 C 1029.98 -0.916061 1.86073 0
M  V30 11152 C 1030.41 -1.75349 0.680754 0
M  V30 11153 O 1029.77 -1.77479 -0.37028 0
M  V30 11154 C 1029.81 -1.77445 3.1392 0
M  V30 11155 O 1028.92 -2.87524 2.95641 0
M  V30 11156 H 1028.26 -0.257031 0.612234 0
M  V30 11157 H 1030.79 -0.178755 2.03818 0
M  V30 11158 H 1030.8 -2.1758 3.45142 0
M  V30 11159 H 1029.47 -1.15927 3.99417 0
M  V30 11160 H 1028.05 -2.51023 2.75757 0
M  V30 11161 N 1030.24 -1.51135 -0.446768 0
M  V30 11162 C 1031.48 -1.63336 -1.19698 0
M  V30 11163 C 1031.81 -0.345099 -1.91414 0
M  V30 11164 O 1031.07 0.670365 -1.8386 0
M  V30 11165 C 1031.36 -2.78034 -2.2457 0
M  V30 11166 C 1031.03 -4.17652 -1.69934 0
M  V30 11167 C 1029.69 -4.55636 -1.54756 0
M  V30 11168 C 1032.04 -5.04813 -1.29665 0
M  V30 11169 C 1029.37 -5.78496 -0.977689 0
M  V30 11170 C 1031.72 -6.28244 -0.741112 0
M  V30 11171 C 1030.39 -6.65009 -0.576156 0
M  V30 11172 H 1029.66 -0.597689 -0.438006 0
M  V30 11173 H 1032.31 -1.85141 -0.48939 0
M  V30 11174 H 1030.61 -2.50413 -3.01331 0
M  V30 11175 H 1032.31 -2.84675 -2.8242 0
M  V30 11176 H 1028.9 -3.87699 -1.82722 0
M  V30 11177 H 1033.08 -4.76081 -1.40216 0
M  V30 11178 H 1028.34 -6.05636 -0.837563 0
M  V30 11179 H 1032.51 -6.95129 -0.42053 0
M  V30 11180 H 1030.14 -7.60085 -0.132443 0
M  V30 11181 N 1031.71 0.701592 -1.41122 0
M  V30 11182 C 1033.13 1.01143 -1.23459 0
M  V30 11183 C 1033.33 2.01144 -0.11968 0
M  V30 11184 O 1032.39 2.47132 0.517889 0
M  V30 11185 C 1033.7 1.54179 -2.58165 0
M  V30 11186 C 1035.25 1.66093 -2.65296 0
M  V30 11187 C 1035.72 2.22532 -4.00304 0
M  V30 11188 N 1037.21 2.299 -4.0212 0
M  V30 11189 C 1037.95 2.74584 -5.0338 0
M  V30 11190 N 1037.44 3.18917 -6.15032 0
M  V30 11191 N 1039.24 2.74094 -4.90743 0
M  V30 11192 H 1031.39 0.0390087 -2.12364 0
M  V30 11193 H 1033.65 0.0798848 -0.944628 0
M  V30 11194 H 1033.36 0.881587 -3.40472 0
M  V30 11195 H 1033.23 2.52488 -2.80231 0
M  V30 11196 H 1035.62 2.31227 -1.83352 0
M  V30 11197 H 1035.7 0.663461 -2.47046 0
M  V30 11198 H 1035.34 1.58016 -4.82694 0
M  V30 11199 H 1035.27 3.2302 -4.15891 0
M  V30 11200 H 1037.76 1.98607 -3.21502 0
M  V30 11201 H 1038.08 3.5162 -6.88174 0
M  V30 11202 H 1036.42 3.1684 -6.18577 0
M  V30 11203 H 1039.61 2.38804 -4.02604 0
M  V30 11204 H 1039.79 3.086 -5.69798 0
M  V30 11205 N 1033.19 1.2685 0.935242 0
M  V30 11206 C 1034.12 1.04717 2.0388 0
M  V30 11207 C 1035.14 0.00567507 1.62799 0
M  V30 11208 O 1036.33 0.246408 1.76791 0
M  V30 11209 C 1033.43 0.56496 3.34158 0
M  V30 11210 C 1032.6 1.67704 4.03973 0
M  V30 11211 C 1031.66 1.19186 5.12524 0
M  V30 11212 O 1030.68 1.89008 5.36903 0
M  V30 11213 N 1031.89 0.0434554 5.80484 0
M  V30 11214 H 1034.65 1.99746 2.23431 0
M  V30 11215 H 1032.21 1.18316 1.10512 0
M  V30 11216 H 1034.2 0.224436 4.04077 0
M  V30 11217 H 1032.77 -0.291899 3.11234 0
M  V30 11218 H 1031.99 2.18821 3.27889 0
M  V30 11219 H 1033.28 2.42361 4.47368 0
M  V30 11220 H 1032.68 -0.539502 5.63122 0
M  V30 11221 H 1031.24 -0.237946 6.51366 0
M  V30 11222 N 1034.67 -1.14067 1.0875 0
M  V30 11223 C 1035.95 -1.81389 0.73195 0
M  V30 11224 C 1036.33 -1.96005 -0.78391 0
M  V30 11225 O 1035.68 -1.52267 -1.70373 0
M  V30 11226 C 1035.89 -3.16858 1.46294 0
M  V30 11227 C 1037.23 -3.92305 1.62426 0
M  V30 11228 O 1038.26 -3.26459 1.42488 0
M  V30 11229 O 1037.12 -5.10393 1.9535 0
M  V30 11230 H 1034.21 -0.784354 0.262141 0
M  V30 11231 H 1036.76 -1.21054 1.18929 0
M  V30 11232 H 1035.53 -3.01404 2.49542 0
M  V30 11233 H 1035.15 -3.84889 0.997318 0
M  V30 11234 N 1036.15 -0.873678 -1.31166 0
M  V30 11235 C 1037.06 -0.335726 -2.32185 0
M  V30 11236 C 1038.07 0.556259 -1.64869 0
M  V30 11237 O 1039.25 0.452087 -1.9626 0
M  V30 11238 C 1036.32 0.450822 -3.43756 0
M  V30 11239 C 1035.38 -0.469565 -4.26724 0
M  V30 11240 C 1034.61 0.279538 -5.32967 0
M  V30 11241 O 1034.83 1.50715 -5.50128 0
M  V30 11242 O 1033.77 -0.36452 -6.00795 0
M  V30 11243 H 1037.59 -1.17314 -2.80127 0
M  V30 11244 H 1035.18 -0.637163 -1.35132 0
M  V30 11245 H 1037.06 0.896582 -4.11752 0
M  V30 11246 H 1035.73 1.26472 -2.9797 0
M  V30 11247 H 1034.64 -0.963902 -3.61469 0
M  V30 11248 H 1035.97 -1.24916 -4.76085 0
M  V30 11249 N 1037.63 1.44308 -0.633487 0
M  V30 11250 C 1038.85 2.06384 -0.146063 0
M  V30 11251 C 1039.27 1.47357 1.18031 0
M  V30 11252 O 1038.63 0.597334 1.72448 0
M  V30 11253 C 1038.68 3.61489 -0.0276722 0
M  V30 11254 O 1038.4 4.18318 -1.3016 0
M  V30 11255 C 1039.9 4.40604 0.488168 0
M  V30 11256 H 1037.12 0.666122 -0.0807632 0
M  V30 11257 H 1039.66 1.85139 -0.868557 0
M  V30 11258 H 1037.82 3.81988 0.645273 0
M  V30 11259 H 1038.23 5.11783 -1.14797 0
M  V30 11260 H 1039.71 5.49545 0.520013 0
M  V30 11261 H 1040.18 4.12218 1.51568 0
M  V30 11262 H 1040.79 4.2503 -0.151608 0
M  V30 11263 N 1039.1 0.374177 1.53094 0
M  V30 11264 C 1040.04 -0.511995 2.22382 0
M  V30 11265 C 1041.02 -1.07617 1.2189 0
M  V30 11266 O 1042.2 -1.13068 1.50824 0
M  V30 11267 C 1039.33 -1.70724 2.92525 0
M  V30 11268 C 1038.37 -1.26972 4.07161 0
M  V30 11269 S 1039.21 -0.263835 5.3485 0
M  V30 11270 C 1040.36 -1.46521 6.08508 0
M  V30 11271 H 1040.59 0.0764311 2.97202 0
M  V30 11272 H 1038.13 0.158307 1.53586 0
M  V30 11273 H 1040.09 -2.39279 3.3355 0
M  V30 11274 H 1038.75 -2.26693 2.17414 0
M  V30 11275 H 1037.94 -2.16172 4.55286 0
M  V30 11276 H 1037.54 -0.663273 3.68072 0
M  V30 11277 H 1039.83 -2.39483 6.33762 0
M  V30 11278 H 1040.78 -1.02517 7.0064 0
M  V30 11279 H 1041.18 -1.67516 5.39072 0
M  V30 11280 N 1040.58 -1.57259 0.103575 0
M  V30 11281 C 1041.55 -2.13337 -0.837859 0
M  V30 11282 C 1042.55 -1.06459 -1.20512 0
M  V30 11283 O 1043.74 -1.32307 -1.13316 0
M  V30 11284 C 1040.87 -2.66093 -2.13089 0
M  V30 11285 H 1042.06 -2.97842 -0.350775 0
M  V30 11286 H 1039.61 -1.55621 -0.145511 0
M  V30 11287 H 1040.35 -1.85133 -2.66264 0
M  V30 11288 H 1040.13 -3.44244 -1.87719 0
M  V30 11289 H 1041.62 -3.09443 -2.80419 0
M  V30 11290 N 1042.06 0.170153 -1.56679 0
M  V30 11291 C 1042.99 1.23945 -1.91606 0
M  V30 11292 C 1043.97 1.42725 -0.779004 0
M  V30 11293 O 1045.16 1.57712 -1.03243 0
M  V30 11294 C 1042.28 2.60222 -2.168 0
M  V30 11295 C 1041.33 2.58172 -3.39484 0
M  V30 11296 S 1042.16 2.0714 -4.93815 0
M  V30 11297 C 1043.32 3.45192 -5.22105 0
M  V30 11298 H 1043.55 0.941345 -2.82004 0
M  V30 11299 H 1041.08 0.374771 -1.49783 0
M  V30 11300 H 1043.04 3.38656 -2.31996 0
M  V30 11301 H 1041.7 2.87232 -1.27107 0
M  V30 11302 H 1040.9 3.58435 -3.54317 0
M  V30 11303 H 1040.5 1.87834 -3.2341 0
M  V30 11304 H 1042.79 4.41194 -5.14154 0
M  V30 11305 H 1043.73 3.35233 -6.23718 0
M  V30 11306 H 1044.14 3.41257 -4.49671 0
M  V30 11307 N 1043.54 1.5137 0.438746 0
M  V30 11308 C 1044.49 1.72582 1.53245 0
M  V30 11309 C 1045.46 0.567488 1.56105 0
M  V30 11310 O 1046.64 0.80176 1.73137 0
M  V30 11311 C 1043.78 1.85551 2.90972 0
M  V30 11312 C 1042.89 3.13094 2.97652 0
M  V30 11313 C 1042.03 3.16666 4.26493 0
M  V30 11314 C 1041.07 4.38529 4.27035 0
M  V30 11315 N 1040.2 4.39659 5.47398 0
M  V30 11316 H 1045.04 2.65941 1.3446 0
M  V30 11317 H 1042.58 1.31801 0.653206 0
M  V30 11318 H 1044.54 1.91053 3.70884 0
M  V30 11319 H 1043.17 0.956025 3.08318 0
M  V30 11320 H 1042.22 3.16909 2.10412 0
M  V30 11321 H 1043.53 4.03009 2.93914 0
M  V30 11322 H 1042.69 3.21075 5.14777 0
M  V30 11323 H 1041.43 2.24637 4.32885 0
M  V30 11324 H 1040.43 4.34297 3.37144 0
M  V30 11325 H 1041.66 5.31821 4.22307 0
M  V30 11326 H 1039.6 3.50499 5.54514 0
M  V30 11327 H 1039.52 5.23382 5.45534 0
M  V30 11328 H 1040.79 4.48259 6.37718 0
M  V30 11329 N 1045.02 -0.694098 1.41492 0
M  V30 11330 C 1045.95 -1.82042 1.46229 0
M  V30 11331 C 1046.93 -1.67047 0.320803 0
M  V30 11332 O 1048.11 -1.86758 0.53245 0
M  V30 11333 C 1045.24 -3.2019 1.34519 0
M  V30 11334 C 1044.2 -3.49892 2.46495 0
M  V30 11335 C 1043.52 -4.87411 2.1985 0
M  V30 11336 C 1044.82 -3.4872 3.88834 0
M  V30 11337 H 1046.52 -1.78335 2.40493 0
M  V30 11338 H 1044.06 -0.856566 1.15754 0
M  V30 11339 H 1046.02 -3.98699 1.36445 0
M  V30 11340 H 1044.74 -3.24527 0.367406 0
M  V30 11341 H 1043.4 -2.73734 2.43854 0
M  V30 11342 H 1043.05 -4.88375 1.20411 0
M  V30 11343 H 1042.75 -5.08248 2.94885 0
M  V30 11344 H 1044.27 -5.68228 2.23494 0
M  V30 11345 H 1045.68 -4.1723 3.93182 0
M  V30 11346 H 1044.08 -3.81089 4.63564 0
M  V30 11347 H 1045.15 -2.47665 4.16881 0
M  V30 11348 N 1046.49 -1.27344 -0.928501 0
M  V30 11349 C 1047.42 -1.12517 -2.04602 0
M  V30 11350 C 1048.41 -0.0268563 -1.70079 0
M  V30 11351 O 1049.59 -0.201197 -1.93155 0
M  V30 11352 C 1046.72 -0.770749 -3.3864 0
M  V30 11353 C 1045.67 -1.8222 -3.87272 0
M  V30 11354 C 1045 -1.32178 -5.18105 0
M  V30 11355 C 1046.3 -3.22614 -4.10752 0
M  V30 11356 H 1047.99 -2.06 -2.17265 0
M  V30 11357 H 1045.54 -0.991827 -1.04397 0
M  V30 11358 H 1047.49 -0.653843 -4.16297 0
M  V30 11359 H 1046.22 0.19979 -3.25988 0
M  V30 11360 H 1044.88 -1.928 -3.11807 0
M  V30 11361 H 1044.52 -0.340719 -5.01845 0
M  V30 11362 H 1044.22 -2.02474 -5.51614 0
M  V30 11363 H 1045.75 -1.2178 -5.98333 0
M  V30 11364 H 1047.16 -3.1504 -4.78981 0
M  V30 11365 H 1045.56 -3.90614 -4.55566 0
M  V30 11366 H 1046.63 -3.67727 -3.16077 0
M  V30 11367 N 1047.97 1.13488 -1.09353 0
M  V30 11368 C 1049.2 1.88592 -0.850915 0
M  V30 11369 C 1049.62 1.79087 0.597761 0
M  V30 11370 O 1048.97 1.15695 1.41142 0
M  V30 11371 C 1049.02 3.38219 -1.27633 0
M  V30 11372 O 1048.74 3.47476 -2.66819 0
M  V30 11373 C 1050.25 4.30293 -1.06598 0
M  V30 11374 H 1047.47 0.597069 -0.306185 0
M  V30 11375 H 1050.01 1.43668 -1.45533 0
M  V30 11376 H 1048.16 3.80729 -0.715828 0
M  V30 11377 H 1048.58 4.40485 -2.84733 0
M  V30 11378 H 1050.05 5.33611 -1.41293 0
M  V30 11379 H 1050.53 4.392 -0.0037135 0
M  V30 11380 H 1051.14 3.9355 -1.6124 0
M  V30 11381 N 1049.45 0.880621 1.30701 0
M  V30 11382 C 1050.68 0.51094 2.00182 0
M  V30 11383 C 1051.09 -0.903914 1.66211 0
M  V30 11384 O 1050.43 -1.60529 0.893089 0
M  V30 11385 C 1050.49 0.600775 3.54445 0
M  V30 11386 C 1050.16 1.97915 4.1192 0
M  V30 11387 C 1051.16 2.94802 4.28238 0
M  V30 11388 C 1048.84 2.28336 4.47401 0
M  V30 11389 C 1050.83 4.20245 4.79242 0
M  V30 11390 C 1048.52 3.54026 4.98105 0
M  V30 11391 C 1049.52 4.49796 5.13978 0
M  V30 11392 O 1049.21 5.73256 5.63589 0
M  V30 11393 H 1048.94 0.196477 0.646818 0
M  V30 11394 H 1051.49 1.18659 1.67658 0
M  V30 11395 H 1049.72 -0.131832 3.86475 0
M  V30 11396 H 1051.41 0.242996 4.05172 0
M  V30 11397 H 1052.18 2.7261 4.01134 0
M  V30 11398 H 1048.06 1.54564 4.34317 0
M  V30 11399 H 1051.6 4.95003 4.91546 0
M  V30 11400 H 1047.5 3.76057 5.24644 0
M  V30 11401 H 1048.27 5.75577 5.81939 0
M  V30 11402 N 1050.93 -1.4397 0.641131 0
M  V30 11403 C 1051.84 -2.34526 -0.058742 0
M  V30 11404 C 1052.86 -1.53194 -0.825088 0
M  V30 11405 O 1054.03 -1.85888 -0.775081 0
M  V30 11406 C 1051.1 -3.31313 -1.02139 0
M  V30 11407 C 1050.16 -4.28552 -0.253319 0
M  V30 11408 C 1049.39 -5.20715 -1.17012 0
M  V30 11409 O 1049.61 -5.17028 -2.40911 0
M  V30 11410 O 1048.55 -5.9839 -0.649039 0
M  V30 11411 H 1052.37 -2.95843 0.686329 0
M  V30 11412 H 1049.96 -1.43909 0.401316 0
M  V30 11413 H 1051.84 -3.90862 -1.57496 0
M  V30 11414 H 1050.52 -2.72516 -1.7469 0
M  V30 11415 H 1049.42 -3.72519 0.343531 0
M  V30 11416 H 1050.76 -4.90297 0.432372 0
M  V30 11417 N 1052.41 -0.382291 -1.52893 0
M  V30 11418 C 1053.34 0.447829 -2.29165 0
M  V30 11419 C 1054.32 1.06956 -1.32267 0
M  V30 11420 O 1055.5 1.08365 -1.61154 0
M  V30 11421 C 1052.63 1.57902 -3.09329 0
M  V30 11422 C 1051.59 1.08369 -4.14053 0
M  V30 11423 C 1050.91 2.30641 -4.82399 0
M  V30 11424 C 1052.21 0.156591 -5.22065 0
M  V30 11425 H 1053.91 -0.188541 -2.98806 0
M  V30 11426 H 1051.45 -0.0921179 -1.43705 0
M  V30 11427 H 1053.41 2.16652 -3.61442 0
M  V30 11428 H 1052.13 2.24287 -2.37409 0
M  V30 11429 H 1050.79 0.518772 -3.62911 0
M  V30 11430 H 1050.44 2.9552 -4.07034 0
M  V30 11431 H 1050.14 1.98163 -5.53177 0
M  V30 11432 H 1051.66 2.90047 -5.37313 0
M  V30 11433 H 1053.08 0.652065 -5.6958 0
M  V30 11434 H 1051.47 -0.0780978 -6.00049 0
M  V30 11435 H 1052.54 -0.796529 -4.78313 0
M  V30 11436 N 1053.89 1.57202 -0.111913 0
M  V30 11437 C 1054.83 2.14936 0.840908 0
M  V30 11438 C 1055.8 1.07242 1.2684 0
M  V30 11439 O 1056.99 1.35114 1.34718 0
M  V30 11440 C 1054.13 2.74743 2.0883 0
M  V30 11441 C 1053.24 3.96723 1.70982 0
M  V30 11442 C 1052.38 4.4464 2.90634 0
M  V30 11443 C 1051.41 5.59169 2.48992 0
M  V30 11444 N 1050.55 6.01862 3.61534 0
M  V30 11445 H 1055.39 2.96034 0.341735 0
M  V30 11446 H 1052.93 1.4626 0.156993 0
M  V30 11447 H 1054.89 3.07546 2.81907 0
M  V30 11448 H 1053.52 1.96346 2.56218 0
M  V30 11449 H 1052.57 3.70127 0.878072 0
M  V30 11450 H 1053.88 4.79795 1.36373 0
M  V30 11451 H 1053.03 4.79315 3.71944 0
M  V30 11452 H 1051.77 3.60503 3.28464 0
M  V30 11453 H 1050.78 5.24106 1.66113 0
M  V30 11454 H 1052 6.45067 2.12287 0
M  V30 11455 H 1049.95 5.20667 3.99051 0
M  V30 11456 H 1049.87 6.79772 3.30827 0
M  V30 11457 H 1051.13 6.41172 4.43305 0
M  V30 11458 N 1055.36 -0.161842 1.56767 0
M  V30 11459 C 1056.31 -1.21948 1.98069 0
M  V30 11460 C 1057.31 -1.45303 0.870835 0
M  V30 11461 O 1058.51 -1.45771 1.05598 0
M  V30 11462 H 1054.89 -0.410145 0.630306 0
M  V30 11463 H 1056.86 -0.844336 2.86205 0
M  V30 11464 C 1055.61 -2.549 2.36477 0
M  V30 11465 H 1054.93 -2.37755 3.21423 0
M  V30 11466 H 1056.37 -3.27568 2.69212 0
M  V30 11467 C 1054.83 -3.14353 1.21176 0
M  V30 11468 O 1055.36 -3.98519 0.504499 0
M  V30 11469 N 1053.56 -2.73582 0.979855 0
M  V30 11470 H 1053.11 -2.05239 1.55675 0
M  V30 11471 H 1053.07 -3.13696 0.21025 0
M  V30 11472 N 1056.84 -1.516 -0.430713 0
M  V30 11473 C 1058.09 -1.65801 -1.17821 0
M  V30 11474 C 1058.44 -0.372769 -1.88754 0
M  V30 11475 O 1057.74 0.631767 -1.80885 0
M  V30 11476 C 1057.93 -2.804 -2.21609 0
M  V30 11477 C 1057.76 -4.19944 -1.60863 0
M  V30 11478 C 1056.53 -4.85786 -1.39068 0
M  V30 11479 C 1058.73 -5.02806 -1.08124 0
M  V30 11480 N 1056.71 -6.09425 -0.73989 0
M  V30 11481 C 1058.08 -6.17501 -0.556114 0
M  V30 11482 C 1060.13 -4.88288 -0.973635 0
M  V30 11483 C 1058.84 -7.1927 0.0660558 0
M  V30 11484 C 1060.86 -5.9027 -0.36535 0
M  V30 11485 C 1060.23 -7.04242 0.149205 0
M  V30 11486 H 1056.32 -0.660545 -0.418574 0
M  V30 11487 H 1058.91 -1.88847 -0.473799 0
M  V30 11488 H 1057.08 -2.59006 -2.89431 0
M  V30 11489 H 1058.81 -2.83747 -2.88565 0
M  V30 11490 H 1055.57 -4.4377 -1.65425 0
M  V30 11491 H 1055.99 -6.75622 -0.431745 0
M  V30 11492 H 1060.63 -4.00421 -1.35731 0
M  V30 11493 H 1058.35 -8.06779 0.461848 0
M  V30 11494 H 1061.94 -5.81107 -0.283902 0
M  V30 11495 H 1060.82 -7.81804 0.61249 0
M  V30 11496 N 1058.32 0.686584 -1.41858 0
M  V30 11497 C 1059.54 1.4802 -1.45275 0
M  V30 11498 C 1059.97 1.87997 -0.0621297 0
M  V30 11499 O 1059.33 1.55226 0.936733 0
M  V30 11500 C 1059.38 2.7133 -2.37513 0
M  V30 11501 O 1058.48 3.69159 -1.83836 0
M  V30 11502 H 1057.82 0.445152 -0.492682 0
M  V30 11503 H 1060.35 0.843161 -1.86419 0
M  V30 11504 H 1060.36 3.19537 -2.53693 0
M  V30 11505 H 1059.04 2.41571 -3.3855 0
M  V30 11506 H 1057.61 3.28134 -1.77151 0
M  V30 11507 N 1059.8 1.27835 0.921735 0
M  V30 11508 C 1060.75 1.1092 2.04449 0
M  V30 11509 C 1061.74 0.0306469 1.69372 0
M  V30 11510 O 1062.95 0.188818 1.79007 0
M  V30 11511 H 1059.32 0.341973 0.669745 0
M  V30 11512 H 1061.29 2.06026 2.1586 0
M  V30 11513 C 1060.04 0.779443 3.38851 0
M  V30 11514 H 1059.36 1.60131 3.66331 0
M  V30 11515 H 1060.8 0.700999 4.18165 0
M  V30 11516 C 1059.26 -0.51647 3.32918 0
M  V30 11517 O 1059.79 -1.54914 3.70627 0
M  V30 11518 N 1058 -0.514276 2.86013 0
M  V30 11519 H 1057.55 0.32651 2.55522 0
M  V30 11520 H 1057.5 -1.38141 2.82426 0
M  V30 11521 N 1061.28 -1.12907 1.09954 0
M  V30 11522 C 1062.5 -1.88679 0.861099 0
M  V30 11523 C 1062.93 -1.78853 -0.582499 0
M  V30 11524 O 1062.28 -1.13992 -1.4098 0
M  V30 11525 C 1062.33 -3.36047 1.30785 0
M  V30 11526 O 1061.44 -4.09716 0.469728 0
M  V30 11527 H 1060.78 -0.586447 0.31141 0
M  V30 11528 H 1063.31 -1.42818 1.46507 0
M  V30 11529 H 1063.32 -3.86882 1.29562 0
M  V30 11530 H 1061.99 -3.42516 2.35914 0
M  V30 11531 H 1060.57 -3.6887 0.54674 0
M  V30 11532 N 1062.75 -0.88754 -1.30232 0
M  V30 11533 C 1063.98 -0.522306 -2.00199 0
M  V30 11534 C 1064.4 0.889866 -1.66514 0
M  V30 11535 O 1063.75 1.58558 -0.903639 0
M  V30 11536 C 1063.8 -0.690551 -3.54843 0
M  V30 11537 O 1063.53 -2.04713 -3.8733 0
M  V30 11538 C 1065.03 -0.328649 -4.4208 0
M  V30 11539 H 1062.25 -0.201628 -0.63999 0
M  V30 11540 H 1064.79 -1.19355 -1.66056 0
M  V30 11541 H 1062.95 -0.0666493 -3.87343 0
M  V30 11542 H 1063.36 -2.06762 -4.82027 0
M  V30 11543 H 1064.83 -0.497257 -5.49756 0
M  V30 11544 H 1065.31 0.733502 -4.33032 0
M  V30 11545 H 1065.92 -0.928982 -4.1503 0
M  V30 11546 N 1064.23 1.43628 -0.648757 0
M  V30 11547 C 1065.47 2.03742 -0.163878 0
M  V30 11548 C 1065.84 1.50047 1.19791 0
M  V30 11549 O 1067.04 2.01777 1.77594 0
M  V30 11550 C 1065.31 3.57001 -0.168849 0
M  V30 11551 S 1066.87 4.38094 0.248835 0
M  V30 11552 H 1063.69 0.70757 -0.0697515 0
M  V30 11553 H 1066.29 1.75759 -0.856094 0
M  V30 11554 H 1064.99 3.93583 -1.16277 0
M  V30 11555 H 1064.52 3.8962 0.544048 0
M  V30 11556 H 1066.54 4.73338 1.48882 0
M  V30 11557 N 1065.71 0.390394 1.52688 0
M  V30 11558 C 1066.64 -0.43567 2.294 0
M  V30 11559 C 1067.62 -1.06253 1.32832 0
M  V30 11560 O 1068.81 -1.07509 1.61726 0
M  V30 11561 C 1065.94 -1.56259 3.10162 0
M  V30 11562 C 1064.89 -1.06172 4.14622 0
M  V30 11563 C 1064.22 -2.2808 4.83615 0
M  V30 11564 C 1065.52 -0.128902 5.22141 0
M  V30 11565 H 1067.21 0.204384 2.98702 0
M  V30 11566 H 1064.76 0.0997377 1.43654 0
M  V30 11567 H 1066.71 -2.14732 3.62585 0
M  V30 11568 H 1065.43 -2.23025 2.38595 0
M  V30 11569 H 1064.09 -0.499518 3.63181 0
M  V30 11570 H 1063.74 -2.93358 4.08595 0
M  V30 11571 H 1063.44 -1.95227 5.5422 0
M  V30 11572 H 1064.96 -2.87193 5.38844 0
M  V30 11573 H 1066.38 -0.621849 5.69917 0
M  V30 11574 H 1064.78 0.109919 5.99999 0
M  V30 11575 H 1065.85 0.821884 4.77884 0
M  V30 11576 N 1067.19 -1.57141 0.120249 0
M  V30 11577 C 1068.14 -2.15379 -0.829497 0
M  V30 11578 C 1069.11 -1.07913 -1.2627 0
M  V30 11579 O 1070.29 -1.35827 -1.33999 0
M  V30 11580 C 1067.43 -2.75847 -2.0737 0
M  V30 11581 C 1066.54 -3.97624 -1.68875 0
M  V30 11582 C 1065.68 -4.46175 -2.88272 0
M  V30 11583 C 1064.72 -5.60481 -2.46023 0
M  V30 11584 N 1063.85 -6.0377 -3.58337 0
M  V30 11585 H 1068.69 -2.96211 -0.326031 0
M  V30 11586 H 1066.23 -1.46341 -0.149235 0
M  V30 11587 H 1068.19 -3.09037 -2.80272 0
M  V30 11588 H 1066.82 -1.97703 -2.55174 0
M  V30 11589 H 1065.87 -3.70588 -0.858431 0
M  V30 11590 H 1067.18 -4.80512 -1.33827 0
M  V30 11591 H 1066.34 -4.8128 -3.69397 0
M  V30 11592 H 1065.08 -3.6224 -3.26548 0
M  V30 11593 H 1064.08 -5.24979 -1.63331 0
M  V30 11594 H 1065.31 -6.46184 -2.08863 0
M  V30 11595 H 1063.25 -5.22776 -3.96284 0
M  V30 11596 H 1063.17 -6.81517 -3.27217 0
M  V30 11597 H 1064.44 -6.43514 -4.39898 0
M  V30 11598 N 1068.67 0.153526 -1.5685 0
M  V30 11599 C 1069.6 1.19162 -2.00805 0
M  V30 11600 C 1070.58 1.45172 -0.886518 0
M  V30 11601 O 1071.76 1.56203 -1.15387 0
M  V30 11602 C 1068.89 2.52637 -2.38311 0
M  V30 11603 C 1067.85 2.41161 -3.53589 0
M  V30 11604 C 1067.17 3.79287 -3.76889 0
M  V30 11605 C 1068.47 1.90122 -4.86468 0
M  V30 11606 H 1070.17 0.82617 -2.87776 0
M  V30 11607 H 1067.71 0.395972 -1.38449 0
M  V30 11608 H 1069.67 3.25478 -2.6766 0
M  V30 11609 H 1068.39 2.91005 -1.4827 0
M  V30 11610 H 1067.05 1.70772 -3.24395 0
M  V30 11611 H 1066.7 4.15079 -2.84109 0
M  V30 11612 H 1066.4 3.72472 -4.54465 0
M  V30 11613 H 1067.92 4.53687 -4.08657 0
M  V30 11614 H 1069.33 2.52752 -5.14577 0
M  V30 11615 H 1067.73 1.94214 -5.67804 0
M  V30 11616 H 1068.8 0.856517 -4.77275 0
M  V30 11617 N 1070.14 1.51827 0.422667 0
M  V30 11618 C 1071.11 1.7359 1.49663 0
M  V30 11619 C 1072.11 0.605811 1.48952 0
M  V30 11620 O 1073.3 0.87354 1.50715 0
M  V30 11621 C 1070.43 1.80585 2.8914 0
M  V30 11622 H 1071.62 2.69453 1.31664 0
M  V30 11623 H 1069.18 1.42038 0.652298 0
M  V30 11624 H 1069.91 0.865895 3.12526 0
M  V30 11625 H 1069.7 2.62729 2.9106 0
M  V30 11626 H 1071.19 1.99212 3.67021 0
M  V30 11627 N 1071.62 -0.679052 1.4222 0
M  V30 11628 C 1072.87 -1.44125 1.42674 0
M  V30 11629 C 1073.2 -1.94156 0.041438 0
M  V30 11630 O 1072.48 -1.70628 -0.93361 0
M  V30 11631 C 1072.76 -2.64133 2.44756 0
M  V30 11632 C 1072.61 -2.19761 3.9246 0
M  V30 11633 C 1073.93 -3.66347 2.43881 0
M  V30 11634 H 1071.05 -0.522729 0.519541 0
M  V30 11635 H 1073.69 -0.772067 1.73606 0
M  V30 11636 H 1071.84 -3.21225 2.1851 0
M  V30 11637 H 1073.51 -1.67869 4.29671 0
M  V30 11638 H 1071.76 -1.51377 4.06531 0
M  V30 11639 H 1072.43 -3.05944 4.59459 0
M  V30 11640 H 1074.9 -3.18963 2.67211 0
M  V30 11641 H 1073.78 -4.47902 3.17293 0
M  V30 11642 H 1074.04 -4.17183 1.46325 0
M  V30 11643 N 1073.1 -1.28322 -0.914942 0
M  V30 11644 C 1074.33 -1.1837 -1.70304 0
M  V30 11645 C 1074.75 0.254291 -1.86373 0
M  V30 11646 O 1074.11 1.18398 -1.37301 0
M  V30 11647 C 1074.16 -1.88603 -3.07346 0
M  V30 11648 O 1073.26 -1.19268 -3.94777 0
M  V30 11649 H 1072.6 -0.410978 -0.52153 0
M  V30 11650 H 1075.13 -1.69622 -1.14409 0
M  V30 11651 H 1075.14 -1.96463 -3.57584 0
M  V30 11652 H 1073.82 -2.93201 -2.94967 0
M  V30 11653 H 1072.39 -1.19563 -3.53212 0
M  V30 11654 N 1074.58 1.12322 -1.10551 0
M  V30 11655 C 1075.8 1.8822 -0.871093 0
M  V30 11656 C 1076.23 1.7916 0.573005 0
M  V30 11657 O 1075.59 1.14738 1.40374 0
M  V30 11658 C 1075.63 3.35349 -1.32565 0
M  V30 11659 O 1074.74 4.09461 -0.49145 0
M  V30 11660 H 1074.08 0.584787 -0.314516 0
M  V30 11661 H 1076.61 1.42039 -1.47262 0
M  V30 11662 H 1076.62 3.86189 -1.31612 0
M  V30 11663 H 1075.29 3.4126 -2.37728 0
M  V30 11664 H 1073.87 3.68575 -0.566294 0
M  V30 11665 N 1076.06 0.894434 1.2976 0
M  V30 11666 C 1077.47 0.589778 1.48303 0
M  V30 11667 C 1077.67 -0.870085 1.81746 0
M  V30 11668 O 1076.73 -1.65065 1.91076 0
M  V30 11669 C 1078.04 1.51107 2.59975 0
M  V30 11670 C 1079.59 1.51571 2.73853 0
M  V30 11671 C 1080.06 2.42316 3.88648 0
M  V30 11672 N 1081.56 2.40333 3.95973 0
M  V30 11673 C 1082.29 3.07254 4.84131 0
M  V30 11674 N 1081.79 3.83435 5.77018 0
M  V30 11675 N 1083.58 2.96438 4.77578 0
M  V30 11676 H 1075.73 1.83871 1.06327 0
M  V30 11677 H 1077.99 0.78758 0.527657 0
M  V30 11678 H 1077.7 2.55097 2.42112 0
M  V30 11679 H 1077.57 1.22767 3.56662 0
M  V30 11680 H 1079.96 0.483277 2.91116 0
M  V30 11681 H 1080.04 1.83946 1.77757 0
M  V30 11682 H 1079.69 3.4565 3.72141 0
M  V30 11683 H 1079.62 2.07252 4.84101 0
M  V30 11684 H 1082.11 1.84979 3.29532 0
M  V30 11685 H 1082.42 4.31565 6.4107 0
M  V30 11686 H 1080.76 3.87542 5.7692 0
M  V30 11687 H 1083.96 2.36442 4.03996 0
M  V30 11688 H 1084.13 3.48867 5.46073 0
M  V30 11689 N 1077.53 -1.43282 0.656365 0
M  V30 11690 C 1078.46 -2.33492 -0.0196962 0
M  V30 11691 C 1079.45 -1.49647 -0.80868 0
M  V30 11692 O 1080.63 -1.78303 -0.769529 0
M  V30 11693 C 1077.76 -3.33052 -0.984574 0
M  V30 11694 C 1076.71 -4.26908 -0.305483 0
M  V30 11695 C 1076.04 -5.16531 -1.38202 0
M  V30 11696 C 1077.34 -5.16073 0.804081 0
M  V30 11697 H 1079.03 -2.90272 0.733661 0
M  V30 11698 H 1076.58 -1.39574 0.354259 0
M  V30 11699 H 1078.53 -3.9506 -1.46647 0
M  V30 11700 H 1077.26 -2.74535 -1.76913 0
M  V30 11701 H 1075.92 -3.66268 0.155995 0
M  V30 11702 H 1075.56 -4.54351 -2.1581 0
M  V30 11703 H 1075.26 -5.80148 -0.932878 0
M  V30 11704 H 1076.79 -5.81414 -1.86522 0
M  V30 11705 H 1078.2 -5.71873 0.404212 0
M  V30 11706 H 1076.6 -5.88427 1.17789 0
M  V30 11707 H 1077.67 -4.55574 1.66073 0
M  V30 11708 N 1079.01 -0.398486 -1.52479 0
M  V30 11709 C 1080.43 -0.0488635 -1.59525 0
M  V30 11710 C 1080.63 1.43756 -1.41197 0
M  V30 11711 O 1079.69 2.20317 -1.23357 0
M  V30 11712 C 1081 -0.534262 -2.95916 0
M  V30 11713 C 1082.55 -0.491314 -3.0912 0
M  V30 11714 C 1083.02 -0.953049 -4.47974 0
M  V30 11715 N 1084.51 -0.909434 -4.54184 0
M  V30 11716 C 1085.25 -1.23801 -5.59876 0
M  V30 11717 N 1084.74 -1.63752 -6.73169 0
M  V30 11718 N 1086.54 -1.15867 -5.50028 0
M  V30 11719 H 1078.69 -1.36608 -1.62641 0
M  V30 11720 H 1080.95 -0.560515 -0.764544 0
M  V30 11721 H 1080.66 -1.57277 -3.14574 0
M  V30 11722 H 1080.53 0.0617787 -3.77149 0
M  V30 11723 H 1082.92 0.538123 -2.90152 0
M  V30 11724 H 1083 -1.12327 -2.29818 0
M  V30 11725 H 1082.64 -1.98076 -4.67684 0
M  V30 11726 H 1082.57 -0.298007 -5.25756 0
M  V30 11727 H 1085.06 -0.615569 -3.72853 0
M  V30 11728 H 1085.38 -1.87163 -7.49793 0
M  V30 11729 H 1083.72 -1.67647 -6.74477 0
M  V30 11730 H 1086.91 -0.845502 -4.60401 0
M  V30 11731 H 1087.09 -1.41805 -6.32294 0
M  V30 11732 N 1080.49 1.57075 -0.12858 0
M  V30 11733 C 1081.9 1.82468 0.39526 0
M  V30 11734 C 1082.25 1.0463 1.65973 0
M  V30 11735 O 1081.38 0.285835 2.14504 0
M  V30 11736 C 1081.97 3.30976 0.723889 0
M  V30 11737 C 1080.53 3.57016 1.19232 0
M  V30 11738 C 1079.68 2.76534 0.205907 0
M  V30 11739 H 1082.63 1.54711 -0.353571 0
M  V30 11740 H 1082.65 3.46127 1.58039 0
M  V30 11741 H 1082.16 3.87602 -0.196595 0
M  V30 11742 H 1080.26 3.05758 2.12938 0
M  V30 11743 H 1080.38 4.65558 1.13103 0
M  V30 11744 H 1078.74 2.45038 0.694872 0
M  V30 11745 H 1079.52 3.35923 -0.707842 0
M  V30 11746 N 1081.97 -0.145205 1.5693 0
M  V30 11747 C 1083.22 -0.857516 1.83447 0
M  V30 11748 C 1083.54 -1.81088 0.709739 0
M  V30 11749 O 1082.8 -1.9337 -0.301097 0
M  V30 11750 C 1083.1 -1.66391 3.16305 0
M  V30 11751 C 1082.76 -0.857171 4.42678 0
M  V30 11752 C 1081.43 -0.634611 4.76997 0
M  V30 11753 C 1083.78 -0.293105 5.20375 0
M  V30 11754 C 1081.11 0.162693 5.86474 0
M  V30 11755 C 1083.46 0.491248 6.3069 0
M  V30 11756 C 1082.12 0.724368 6.63558 0
M  V30 11757 H 1081.39 -0.313787 0.671281 0
M  V30 11758 H 1084.04 -0.121074 1.91117 0
M  V30 11759 H 1082.34 -2.47051 3.04094 0
M  V30 11760 H 1084.04 -2.21855 3.34038 0
M  V30 11761 H 1080.63 -1.0407 4.15773 0
M  V30 11762 H 1084.82 -0.452326 4.94234 0
M  V30 11763 H 1080.07 0.352788 6.10381 0
M  V30 11764 H 1084.25 0.935449 6.90089 0
M  V30 11765 H 1081.87 1.34403 7.48224 0
M  V30 11766 N 1083.45 -1.52049 -0.414609 0
M  V30 11767 C 1084.69 -1.66084 -1.16379 0
M  V30 11768 C 1085.03 -0.386932 -1.90306 0
M  V30 11769 O 1084.3 0.614441 -1.8454 0
M  V30 11770 C 1084.58 -2.87927 -2.16264 0
M  V30 11771 C 1084.44 -4.25353 -1.46269 0
M  V30 11772 C 1085.76 -3.05289 -3.16996 0
M  V30 11773 H 1082.88 -0.604414 -0.421726 0
M  V30 11774 H 1085.52 -1.8459 -0.450177 0
M  V30 11775 H 1083.67 -2.7228 -2.77121 0
M  V30 11776 H 1085.34 -4.52717 -0.885743 0
M  V30 11777 H 1083.58 -4.27006 -0.76472 0
M  V30 11778 H 1084.25 -5.06644 -2.19126 0
M  V30 11779 H 1086.73 -3.19798 -2.66212 0
M  V30 11780 H 1085.61 -3.92065 -3.84156 0
M  V30 11781 H 1085.87 -2.1836 -3.84411 0
M  V30 11782 N 1084.93 0.6715 -1.42579 0
M  V30 11783 C 1085.89 1.76676 -1.46008 0
M  V30 11784 C 1086.89 1.57007 -0.347213 0
M  V30 11785 O 1088.08 1.63238 -0.608185 0
M  V30 11786 C 1085.21 3.15348 -1.29494 0
M  V30 11787 H 1086.4 1.75021 -2.43531 0
M  V30 11788 H 1083.96 0.881444 -1.29075 0
M  V30 11789 H 1084.69 3.22626 -0.32906 0
M  V30 11790 H 1084.48 3.31028 -2.10149 0
M  V30 11791 H 1085.97 3.95251 -1.34784 0
M  V30 11792 N 1086.4 1.28806 0.908124 0
M  V30 11793 C 1087.35 1.09849 1.99793 0
M  V30 11794 C 1088.34 0.0204321 1.60887 0
M  V30 11795 O 1089.53 0.241204 1.75349 0
M  V30 11796 C 1086.66 0.768263 3.34593 0
M  V30 11797 C 1085.74 1.88544 3.79884 0
M  V30 11798 N 1086.14 3.12784 3.97492 0
M  V30 11799 C 1084.43 1.77657 4.09089 0
M  V30 11800 C 1085.13 3.85615 4.35518 0
M  V30 11801 N 1084.11 3.13501 4.44092 0
M  V30 11802 H 1087.91 2.04108 2.11464 0
M  V30 11803 H 1085.43 1.19807 1.09636 0
M  V30 11804 H 1087.42 0.613521 4.12361 0
M  V30 11805 H 1086.08 -0.166501 3.24273 0
M  V30 11806 H 1087.09 3.48333 3.83255 0
M  V30 11807 H 1083.77 0.913956 4.07373 0
M  V30 11808 H 1085.16 4.92492 4.57057 0
M  V30 11809 N 1087.88 -1.11734 1.11145 0
M  V30 11810 C 1089.11 -1.87215 0.880811 0
M  V30 11811 C 1089.52 -1.80016 -0.569195 0
M  V30 11812 O 1088.88 -1.17926 -1.39283 0
M  V30 11813 C 1088.93 -3.36146 1.32998 0
M  V30 11814 O 1088.65 -3.43187 2.72313 0
M  V30 11815 C 1090.15 -4.28542 1.1343 0
M  V30 11816 H 1087.37 -0.592123 0.315645 0
M  V30 11817 H 1089.92 -1.41335 1.478 0
M  V30 11818 H 1088.07 -3.79542 0.776308 0
M  V30 11819 H 1088.49 -4.359 2.91705 0
M  V30 11820 H 1089.96 -5.31295 1.49764 0
M  V30 11821 H 1090.44 -4.39138 0.0735859 0
M  V30 11822 H 1091.04 -3.90935 1.67481 0
M  V30 11823 N 1089.36 -0.901303 -1.29284 0
M  V30 11824 C 1090.6 -0.534971 -1.97275 0
M  V30 11825 C 1090.96 0.902226 -1.69481 0
M  V30 11826 O 1092.16 1.37551 -2.3094 0
M  V30 11827 C 1090.44 -0.821095 -3.4784 0
M  V30 11828 S 1091.99 -0.559312 -4.35221 0
M  V30 11829 H 1088.81 -0.198409 -0.682755 0
M  V30 11830 H 1091.41 -1.16408 -1.57065 0
M  V30 11831 H 1090.12 -1.86527 -3.65562 0
M  V30 11832 H 1089.65 -0.18016 -3.92987 0
M  V30 11833 H 1091.66 0.59494 -4.9262 0
M  V30 11834 N 1090.84 1.42931 -0.663954 0
M  V30 11835 C 1092.07 2.06028 -0.189808 0
M  V30 11836 C 1092.48 1.49827 1.14879 0
M  V30 11837 O 1091.84 0.633778 1.71142 0
M  V30 11838 C 1091.89 3.61349 -0.104343 0
M  V30 11839 O 1091.61 4.15463 -1.39004 0
M  V30 11840 C 1093.11 4.4154 0.394599 0
M  V30 11841 H 1090.33 0.664259 -0.0948744 0
M  V30 11842 H 1092.87 1.83255 -0.907632 0
M  V30 11843 H 1091.03 3.83271 0.564103 0
M  V30 11844 H 1091.44 5.09233 -1.25626 0
M  V30 11845 H 1092.92 5.50525 0.403329 0
M  V30 11846 H 1093.39 4.1534 1.4279 0
M  V30 11847 H 1094 4.24612 -0.241729 0
M  V30 11848 N 1092.32 0.406567 1.52266 0
M  V30 11849 C 1093.25 -0.45552 2.24628 0
M  V30 11850 C 1094.26 -1.01234 1.27497 0
M  V30 11851 O 1095.45 -0.911718 1.5346 0
M  V30 11852 C 1092.55 -1.64578 2.96256 0
M  V30 11853 C 1091.72 -1.2133 4.20235 0
M  V30 11854 C 1090.78 -2.27018 4.7471 0
M  V30 11855 O 1089.81 -1.87714 5.37357 0
M  V30 11856 N 1091.01 -3.5915 4.56061 0
M  V30 11857 H 1093.77 0.164525 2.99248 0
M  V30 11858 H 1091.34 0.233812 1.60203 0
M  V30 11859 H 1093.33 -2.3484 3.29594 0
M  V30 11860 H 1091.9 -2.1718 2.24837 0
M  V30 11861 H 1091.12 -0.338892 3.92741 0
M  V30 11862 H 1092.41 -0.901268 5.00754 0
M  V30 11863 H 1091.8 -3.93834 4.06092 0
M  V30 11864 H 1090.36 -4.25397 4.93843 0
M  V30 11865 N 1093.79 -1.57004 0.136909 0
M  V30 11866 C 1094.73 -2.12004 -0.844362 0
M  V30 11867 C 1095.71 -1.04099 -1.24909 0
M  V30 11868 O 1096.89 -1.31866 -1.34698 0
M  V30 11869 C 1094.02 -2.63147 -2.13241 0
M  V30 11870 C 1093.06 -3.83105 -1.87438 0
M  V30 11871 S 1093.9 -5.2461 -1.07447 0
M  V30 11872 C 1095.05 -5.79134 -2.37392 0
M  V30 11873 H 1095.28 -2.94905 -0.376614 0
M  V30 11874 H 1092.82 -1.54207 -0.0771977 0
M  V30 11875 H 1094.78 -2.93264 -2.87239 0
M  V30 11876 H 1093.44 -1.80395 -2.57131 0
M  V30 11877 H 1092.63 -4.17099 -2.82922 0
M  V30 11878 H 1092.23 -3.53696 -1.21553 0
M  V30 11879 H 1094.52 -5.8995 -3.33114 0
M  V30 11880 H 1095.47 -6.76887 -2.07918 0
M  V30 11881 H 1095.87 -5.07311 -2.47579 0
M  V30 11882 N 1095.27 0.136881 -1.57004 0
M  V30 11883 C 1096.2 1.17026 -2.02057 0
M  V30 11884 C 1097.18 1.44223 -0.901866 0
M  V30 11885 O 1098.37 1.54971 -1.17037 0
M  V30 11886 C 1095.5 2.50095 -2.40977 0
M  V30 11887 C 1094.45 2.37398 -3.56127 0
M  V30 11888 C 1093.78 3.75268 -3.80891 0
M  V30 11889 C 1095.08 1.84952 -4.88457 0
M  V30 11890 H 1096.77 0.795601 -2.88636 0
M  V30 11891 H 1094.32 0.381266 -1.38861 0
M  V30 11892 H 1096.27 3.22621 -2.71097 0
M  V30 11893 H 1095 2.89416 -1.51348 0
M  V30 11894 H 1093.65 1.67322 -3.26188 0
M  V30 11895 H 1093.3 4.12043 -2.88496 0
M  V30 11896 H 1093 3.67631 -4.5839 0
M  V30 11897 H 1094.53 4.49327 -4.13446 0
M  V30 11898 H 1095.94 2.4728 -5.17229 0
M  V30 11899 H 1094.34 1.88181 -5.69832 0
M  V30 11900 H 1095.41 0.805848 -4.78157 0
M  V30 11901 N 1096.75 1.52266 0.40654 0
M  V30 11902 C 1097.68 1.78755 1.50229 0
M  V30 11903 C 1098.66 0.638652 1.57655 0
M  V30 11904 O 1099.85 0.884505 1.72888 0
M  V30 11905 C 1096.98 1.94057 2.88026 0
M  V30 11906 C 1095.93 3.09667 2.95449 0
M  V30 11907 C 1095.26 3.10196 4.35526 0
M  V30 11908 C 1096.56 4.49077 2.66697 0
M  V30 11909 H 1098.25 2.70511 1.28313 0
M  V30 11910 H 1095.8 1.30167 0.615836 0
M  V30 11911 H 1097.75 2.11171 3.64671 0
M  V30 11912 H 1096.47 0.989755 3.11242 0
M  V30 11913 H 1095.13 2.92308 2.2125 0
M  V30 11914 H 1094.78 2.12831 4.55754 0
M  V30 11915 H 1094.48 3.87847 4.41416 0
M  V30 11916 H 1096 3.29443 5.14101 0
M  V30 11917 H 1097.42 4.66628 3.33064 0
M  V30 11918 H 1095.82 5.28665 2.8396 0
M  V30 11919 H 1096.89 4.56995 1.62122 0
M  V30 11920 N 1098.23 -0.663929 1.42933 0
M  V30 11921 C 1099.45 -1.45691 1.47611 0
M  V30 11922 C 1099.88 -1.87875 0.0920305 0
M  V30 11923 O 1099.24 -1.56696 -0.91192 0
M  V30 11924 C 1099.28 -2.67517 2.41799 0
M  V30 11925 O 1098.39 -3.66187 1.89686 0
M  V30 11926 H 1097.73 -0.437257 0.499702 0
M  V30 11927 H 1100.26 -0.813397 1.87737 0
M  V30 11928 H 1100.27 -3.1546 2.58745 0
M  V30 11929 H 1098.94 -2.36155 3.4235 0
M  V30 11930 H 1097.52 -3.25274 1.82349 0
M  V30 11931 N 1099.71 -1.29285 -0.901281 0
M  V30 11932 C 1100.98 -1.07847 -1.63182 0
M  V30 11933 C 1101.36 0.377927 -2.07689 0
M  V30 11934 O 1100.71 1.36642 -1.83143 0
M  V30 11935 C 1100.92 -2.06457 -2.81383 0
M  V30 11936 C 1102.27 -2.37289 -3.52107 0
M  V30 11937 O 1103.29 -2.0464 -2.91549 0
M  V30 11938 O 1102.15 -2.93067 -4.61274 0
M  V30 11939 H 1099.25 -0.413073 -0.71645 0
M  V30 11940 H 1101.79 -1.40651 -0.949488 0
M  V30 11941 H 1100.56 -3.04561 -2.4568 0
M  V30 11942 H 1100.19 -1.74374 -3.57323 0
M  V30 11943 N 1101.18 1.11143 -1.11736 0
M  V30 11944 C 1102.12 2.16467 -0.722299 0
M  V30 11945 C 1103.1 1.60118 0.283006 0
M  V30 11946 O 1104.28 1.87651 0.178696 0
M  V30 11947 C 1101.41 3.38632 -0.0679339 0
M  V30 11948 C 1100.45 4.13654 -1.03888 0
M  V30 11949 S 1101.29 4.70187 -2.5629 0
M  V30 11950 C 1102.44 5.95671 -1.92163 0
M  V30 11951 H 1102.67 2.49644 -1.61447 0
M  V30 11952 H 1100.21 1.22816 -0.935708 0
M  V30 11953 H 1102.17 4.09378 0.303253 0
M  V30 11954 H 1100.83 3.03709 0.80124 0
M  V30 11955 H 1100.02 5.01221 -0.528522 0
M  V30 11956 H 1099.62 3.48683 -1.35265 0
M  V30 11957 H 1101.91 6.65681 -1.25994 0
M  V30 11958 H 1102.86 6.51357 -2.77741 0
M  V30 11959 H 1103.26 5.47359 -1.3805 0
M  V30 11960 N 1102.66 0.908147 1.28804 0
M  V30 11961 C 1103.91 0.548635 1.95861 0
M  V30 11962 C 1104.26 -0.896789 1.70222 0
M  V30 11963 O 1103.56 -1.6285 1.00948 0
M  V30 11964 C 1103.75 0.787327 3.4862 0
M  V30 11965 C 1103.58 2.2544 3.8911 0
M  V30 11966 C 1102.35 2.90345 4.13555 0
M  V30 11967 C 1104.55 3.23034 4.00192 0
M  V30 11968 N 1102.53 4.27408 4.40676 0
M  V30 11969 C 1103.9 4.45242 4.31462 0
M  V30 11970 C 1105.96 3.18509 3.82696 0
M  V30 11971 C 1104.66 5.63498 4.47059 0
M  V30 11972 C 1106.68 4.36059 3.99508 0
M  V30 11973 C 1106.05 5.5704 4.31145 0
M  V30 11974 H 1102.15 0.250526 0.740784 0
M  V30 11975 H 1104.73 1.17071 1.55571 0
M  V30 11976 H 1102.9 0.194565 3.87912 0
M  V30 11977 H 1104.63 0.392407 4.02793 0
M  V30 11978 H 1101.39 2.411 4.07637 0
M  V30 11979 H 1101.81 4.98259 4.5833 0
M  V30 11980 H 1106.45 2.26058 3.57292 0
M  V30 11981 H 1104.17 6.56434 4.71296 0
M  V30 11982 H 1107.76 4.34054 3.87413 0
M  V30 11983 H 1106.64 6.46483 4.4388 0
M  V30 11984 N 1104.14 -1.42577 0.671525 0
M  V30 11985 C 1105.07 -2.28124 -0.0589347 0
M  V30 11986 C 1106.05 -1.40878 -0.811915 0
M  V30 11987 O 1107.24 -1.70318 -0.807717 0
M  V30 11988 C 1104.36 -3.20662 -1.09057 0
M  V30 11989 C 1103.41 -4.24291 -0.43355 0
M  V30 11990 S 1104.24 -5.29393 0.806442 0
M  V30 11991 C 1105.4 -6.25498 -0.224204 0
M  V30 11992 H 1105.63 -2.89728 0.666689 0
M  V30 11993 H 1103.16 -1.47359 0.460959 0
M  V30 11994 H 1105.12 -3.74516 -1.68071 0
M  V30 11995 H 1103.78 -2.582 -1.78862 0
M  V30 11996 H 1102.98 -4.89213 -1.21186 0
M  V30 11997 H 1102.58 -3.73908 0.0829136 0
M  V30 11998 H 1104.87 -6.68757 -1.08492 0
M  V30 11999 H 1105.81 -7.07023 0.390469 0
M  V30 12000 H 1106.22 -5.61633 -0.568214 0
M  V30 12001 N 1105.62 -0.414636 -1.52048 0
M  V30 12002 C 1106.87 0.159034 -2.01473 0
M  V30 12003 C 1107.19 1.45176 -1.30188 0
M  V30 12004 O 1106.46 1.91134 -0.429469 0
M  V30 12005 H 1105.04 0.0617604 -0.744443 0
M  V30 12006 H 1107.7 -0.552141 -1.86916 0
M  V30 12007 H 1106.8 0.351217 -3.10118 0
M  V30 12008 N 1107.1 1.56929 -0.145233 0
M  V30 12009 C 1108.51 1.58196 0.211194 0
M  V30 12010 C 1108.71 1.15941 1.64803 0
M  V30 12011 O 1107.77 0.858888 2.37443 0
M  V30 12012 C 1109.08 3.00665 -0.0459569 0
M  V30 12013 C 1110.63 3.12995 0.0178913 0
M  V30 12014 C 1111.1 4.5751 -0.211905 0
M  V30 12015 N 1112.6 4.62928 -0.158772 0
M  V30 12016 C 1113.33 5.72555 -0.311111 0
M  V30 12017 N 1112.83 6.90838 -0.521074 0
M  V30 12018 N 1114.62 5.61549 -0.248838 0
M  V30 12019 H 1106.77 1.8269 -1.08342 0
M  V30 12020 H 1109.03 0.845514 -0.428731 0
M  V30 12021 H 1108.74 3.35962 -1.0403 0
M  V30 12022 H 1108.61 3.71125 0.674246 0
M  V30 12023 H 1111 2.7754 1.00278 0
M  V30 12024 H 1111.08 2.45025 -0.734612 0
M  V30 12025 H 1110.73 4.93669 -1.19389 0
M  V30 12026 H 1110.66 5.23604 0.560901 0
M  V30 12027 H 1113.15 3.779 -0.00107283 0
M  V30 12028 H 1113.46 7.70248 -0.62747 0
M  V30 12029 H 1111.8 6.92761 -0.557374 0
M  V30 12030 H 1115 4.68022 -0.0855821 0
M  V30 12031 H 1115.17 6.46937 -0.370997 0
M  V30 12032 N 1108.58 -0.128553 1.57075 0
M  V30 12033 C 1109.51 -1.15953 2.02675 0
M  V30 12034 C 1110.49 -1.43743 0.909501 0
M  V30 12035 O 1111.67 -1.54348 1.17857 0
M  V30 12036 C 1108.8 -2.48813 2.423 0
M  V30 12037 C 1107.76 -2.35506 3.57381 0
M  V30 12038 C 1107.08 -3.73243 3.82875 0
M  V30 12039 C 1108.38 -1.82359 4.89431 0
M  V30 12040 H 1110.08 -0.780283 2.89054 0
M  V30 12041 H 1107.62 -0.373896 1.39061 0
M  V30 12042 H 1109.57 -3.21179 2.72804 0
M  V30 12043 H 1108.3 -2.88609 1.52881 0
M  V30 12044 H 1106.96 -1.6559 3.27071 0
M  V30 12045 H 1106.61 -4.10507 2.90677 0
M  V30 12046 H 1106.31 -3.65195 4.60333 0
M  V30 12047 H 1107.83 -4.47128 4.15823 0
M  V30 12048 H 1109.24 -2.44533 5.18533 0
M  V30 12049 H 1107.64 -1.85156 5.70822 0
M  V30 12050 H 1108.71 -0.780478 4.78578 0
M  V30 12051 N 1110.05 -1.5248 -0.398459 0
M  V30 12052 C 1111 -1.77211 -1.50662 0
M  V30 12053 C 1112 -0.639638 -1.5686 0
M  V30 12054 O 1113.2 -0.821917 -1.60139 0
M  V30 12055 H 1109.58 -0.56057 -0.501264 0
M  V30 12056 H 1111.55 -2.70028 -1.26993 0
M  V30 12057 C 1110.3 -1.94944 -2.8791 0
M  V30 12058 H 1109.62 -2.8151 -2.83888 0
M  V30 12059 H 1111.06 -2.16243 -3.64712 0
M  V30 12060 C 1109.52 -0.719402 -3.29129 0
M  V30 12061 O 1110.05 0.107671 -4.01556 0
M  V30 12062 N 1108.25 -0.552228 -2.85305 0
M  V30 12063 H 1107.8 -1.22638 -2.26534 0
M  V30 12064 H 1107.76 0.269447 -3.13243 0
M  V30 12065 N 1111.53 0.65634 -1.43283 0
M  V30 12066 C 1112.46 1.78122 -1.42646 0
M  V30 12067 C 1113.44 1.60024 -0.288301 0
M  V30 12068 O 1114.63 1.82249 -0.481407 0
M  V30 12069 C 1111.75 3.1538 -1.23505 0
M  V30 12070 C 1110.8 3.52186 -2.40556 0
M  V30 12071 S 1111.63 3.52515 -4.03105 0
M  V30 12072 C 1112.79 4.92435 -3.8634 0
M  V30 12073 H 1113.02 1.78391 -2.37832 0
M  V30 12074 H 1110.55 0.828699 -1.30276 0
M  V30 12075 H 1112.51 3.94598 -1.13148 0
M  V30 12076 H 1111.17 3.12676 -0.298726 0
M  V30 12077 H 1110.37 4.52002 -2.22959 0
M  V30 12078 H 1109.97 2.80373 -2.47522 0
M  V30 12079 H 1112.26 5.81011 -3.48472 0
M  V30 12080 H 1113.2 5.15082 -4.85897 0
M  V30 12081 H 1113.61 4.65823 -3.18857 0
M  V30 12082 N 1113.01 1.29761 0.894412 0
M  V30 12083 C 1114.43 1.07888 1.17611 0
M  V30 12084 C 1114.63 -0.16644 2.00811 0
M  V30 12085 O 1113.68 -0.86272 2.37304 0
M  V30 12086 C 1114.99 2.33723 1.89193 0
M  V30 12087 C 1116.54 2.39095 2.01997 0
M  V30 12088 C 1117.02 3.64747 2.7699 0
M  V30 12089 N 1118.51 3.65501 2.84541 0
M  V30 12090 C 1119.24 4.59411 3.43117 0
M  V30 12091 N 1118.74 5.63657 4.02818 0
M  V30 12092 N 1120.53 4.46971 3.40842 0
M  V30 12093 H 1112.68 2.0967 0.339421 0
M  V30 12094 H 1114.95 0.923788 0.212882 0
M  V30 12095 H 1114.65 3.24551 1.35496 0
M  V30 12096 H 1114.53 2.41642 2.89636 0
M  V30 12097 H 1116.91 1.48751 2.54867 0
M  V30 12098 H 1116.99 2.35158 1.0067 0
M  V30 12099 H 1116.64 4.55445 2.24794 0
M  V30 12100 H 1116.57 3.65944 3.78672 0
M  V30 12101 H 1119.06 2.90129 2.42144 0
M  V30 12102 H 1119.37 6.31429 4.45552 0
M  V30 12103 H 1117.72 5.67461 4.01265 0
M  V30 12104 H 1120.91 3.64719 2.93424 0
M  V30 12105 H 1121.08 5.20341 3.86198 0
M  V30 12106 N 1114.49 -1.10549 1.12324 0
M  V30 12107 C 1115.43 -2.16858 0.790024 0
M  V30 12108 C 1116.4 -1.64317 -0.242694 0
M  V30 12109 O 1117.59 -1.90438 -0.117531 0
M  V30 12110 C 1114.73 -3.44197 0.249503 0
M  V30 12111 C 1113.84 -4.10696 1.33989 0
M  V30 12112 C 1112.98 -5.25751 0.758932 0
M  V30 12113 C 1112.02 -5.8415 1.82853 0
M  V30 12114 N 1111.15 -6.90585 1.26637 0
M  V30 12115 H 1115.99 -2.44705 1.7007 0
M  V30 12116 H 1113.53 -1.20117 0.849141 0
M  V30 12117 H 1115.49 -4.1712 -0.0819251 0
M  V30 12118 H 1114.12 -3.16705 -0.624332 0
M  V30 12119 H 1113.17 -3.35754 1.78812 0
M  V30 12120 H 1114.48 -4.50144 2.14875 0
M  V30 12121 H 1113.64 -6.05521 0.378104 0
M  V30 12122 H 1112.38 -4.87632 -0.0811405 0
M  V30 12123 H 1111.38 -5.03051 2.21856 0
M  V30 12124 H 1112.61 -6.24333 2.6718 0
M  V30 12125 H 1110.55 -6.54468 0.448105 0
M  V30 12126 H 1110.47 -7.28739 2.01184 0
M  V30 12127 H 1111.74 -7.74138 0.912737 0
M  V30 12128 N 1115.97 -0.914965 -1.28321 0
M  V30 12129 C 1116.91 -0.394477 -2.29231 0
M  V30 12130 C 1117.91 0.514481 -1.61398 0
M  V30 12131 O 1119.11 0.395591 -1.75599 0
M  V30 12132 H 1115.49 -0.108969 -0.744063 0
M  V30 12133 H 1117.46 -1.25862 -2.70557 0
M  V30 12134 C 1116.21 0.349134 -3.45943 0
M  V30 12135 H 1115.53 -0.341087 -3.98342 0
M  V30 12136 H 1116.97 0.677944 -4.18545 0
M  V30 12137 C 1115.43 1.55747 -2.98738 0
M  V30 12138 O 1115.96 2.65654 -3.01315 0
M  V30 12139 N 1114.17 1.40488 -2.54384 0
M  V30 12140 H 1113.71 0.510716 -2.52487 0
M  V30 12141 H 1113.67 2.21464 -2.23161 0
M  V30 12142 N 1117.44 1.42219 -0.679077 0
M  V30 12143 C 1118.67 2.06333 -0.210097 0
M  V30 12144 C 1119.09 1.50703 1.12562 0
M  V30 12145 O 1118.45 0.627241 1.70104 0
M  V30 12146 C 1118.5 3.60243 -0.160322 0
M  V30 12147 O 1117.6 4.03122 0.869872 0
M  V30 12148 H 1116.94 0.655362 -0.106754 0
M  V30 12149 H 1119.47 1.82278 -0.929294 0
M  V30 12150 H 1119.48 4.07997 0.014384 0
M  V30 12151 H 1118.16 4.00106 -1.13526 0
M  V30 12152 H 1116.74 3.66907 0.66586 0
M  V30 12153 N 1118.92 0.422693 1.51826 0
M  V30 12154 C 1120.17 -0.141187 2.02909 0
M  V30 12155 C 1120.52 -1.41649 1.30205 0
M  V30 12156 O 1119.82 -1.87297 0.403769 0
M  V30 12157 C 1120.01 -0.429516 3.5481 0
M  V30 12158 C 1119.84 0.816291 4.42229 0
M  V30 12159 C 1118.61 1.34551 4.87057 0
M  V30 12160 C 1120.81 1.69829 4.85451 0
M  V30 12161 N 1118.79 2.54538 5.58644 0
M  V30 12162 C 1120.16 2.74431 5.55956 0
M  V30 12163 C 1122.21 1.71445 4.67452 0
M  V30 12164 C 1120.92 3.80576 6.10372 0
M  V30 12165 C 1122.94 2.76516 5.22774 0
M  V30 12166 C 1122.31 3.79839 5.93213 0
M  V30 12167 H 1118.4 -0.0128783 0.781894 0
M  V30 12168 H 1120.99 0.580083 1.85858 0
M  V30 12169 H 1119.16 -1.11982 3.71907 0
M  V30 12170 H 1120.89 -0.983467 3.92568 0
M  V30 12171 H 1117.65 0.901554 4.6494 0
M  V30 12172 H 1118.07 3.15342 5.99073 0
M  V30 12173 H 1122.71 0.92899 4.12468 0
M  V30 12174 H 1120.43 4.59969 6.6442 0
M  V30 12175 H 1124.02 2.7869 5.10708 0
M  V30 12176 H 1122.9 4.59806 6.35254 0
M  V30 12177 N 1120.4 -1.5685 0.153553 0
M  V30 12178 C 1121.63 -2.0041 -0.501949 0
M  V30 12179 C 1122.04 -1.03272 -1.58529 0
M  V30 12180 O 1121.38 -0.0227479 -1.83686 0
M  V30 12181 C 1121.44 -3.40402 -1.15613 0
M  V30 12182 C 1121.11 -4.56486 -0.216596 0
M  V30 12183 C 1122.1 -5.16894 0.558267 0
M  V30 12184 C 1119.79 -5.02162 -0.117592 0
M  V30 12185 C 1121.78 -6.21392 1.41951 0
M  V30 12186 C 1119.47 -6.06514 0.747255 0
M  V30 12187 C 1120.47 -6.65999 1.51441 0
M  V30 12188 O 1120.16 -7.6833 2.36483 0
M  V30 12189 H 1119.89 -0.66247 -0.134574 0
M  V30 12190 H 1122.44 -2.03908 0.247086 0
M  V30 12191 H 1120.67 -3.33762 -1.95294 0
M  V30 12192 H 1122.36 -3.68028 -1.71202 0
M  V30 12193 H 1123.13 -4.825 0.491851 0
M  V30 12194 H 1119.01 -4.55586 -0.704462 0
M  V30 12195 H 1122.55 -6.67751 2.01877 0
M  V30 12196 H 1118.45 -6.40335 0.81494 0
M  V30 12197 H 1119.21 -7.85578 2.29803 0
M  V30 12198 N 1121.88 0.120221 -1.57141 0
M  V30 12199 C 1122.82 1.14751 -2.00252 0
M  V30 12200 C 1123.79 1.41217 -0.874462 0
M  V30 12201 O 1124.98 1.53104 -1.13859 0
M  V30 12202 C 1122.12 2.46923 -2.41087 0
M  V30 12203 C 1121.23 2.27403 -3.67303 0
M  V30 12204 C 1120.37 3.52797 -3.97125 0
M  V30 12205 C 1119.41 3.28429 -5.16528 0
M  V30 12206 N 1118.54 4.46022 -5.42226 0
M  V30 12207 H 1123.38 0.772884 -2.87803 0
M  V30 12208 H 1120.92 0.370137 -1.42367 0
M  V30 12209 H 1122.88 3.24025 -2.62799 0
M  V30 12210 H 1121.51 2.82281 -1.5658 0
M  V30 12211 H 1120.56 1.41224 -3.53214 0
M  V30 12212 H 1121.87 2.05373 -4.54558 0
M  V30 12213 H 1121.03 4.38318 -4.19479 0
M  V30 12214 H 1119.77 3.77857 -3.08343 0
M  V30 12215 H 1118.77 2.41299 -4.94019 0
M  V30 12216 H 1120 3.0474 -6.06886 0
M  V30 12217 H 1117.94 4.71205 -4.56401 0
M  V30 12218 H 1117.86 4.27092 -6.23802 0
M  V30 12219 H 1119.13 5.3268 -5.69098 0
M  V30 12220 N 1123.36 1.52689 0.390367 0
M  V30 12221 C 1124.6 1.67914 1.13722 0
M  V30 12222 C 1124.94 0.417159 1.89667 0
M  V30 12223 O 1124.21 -0.585005 1.85494 0
M  V30 12224 C 1124.49 2.91331 2.11656 0
M  V30 12225 C 1124.35 4.27626 1.39484 0
M  V30 12226 C 1125.67 3.10293 3.12099 0
M  V30 12227 H 1122.78 0.611047 0.412057 0
M  V30 12228 H 1125.43 1.85283 0.420753 0
M  V30 12229 H 1123.58 2.76654 2.72754 0
M  V30 12230 H 1125.25 4.54068 0.813607 0
M  V30 12231 H 1123.49 4.28169 0.69669 0
M  V30 12232 H 1124.16 5.10066 2.11038 0
M  V30 12233 H 1126.64 3.23992 2.6109 0
M  V30 12234 H 1125.51 3.98127 3.7787 0
M  V30 12235 H 1125.78 2.24448 3.80888 0
M  V30 12236 N 1124.83 -0.648732 1.43629 0
M  V30 12237 C 1126.08 -1.40446 1.44768 0
M  V30 12238 C 1126.4 -1.95447 0.0773445 0
M  V30 12239 O 1127.6 -2.71479 -0.0337942 0
M  V30 12240 C 1126.06 -2.54194 2.54781 0
M  V30 12241 C 1125.67 -2.05781 3.97942 0
M  V30 12242 C 1127.41 -3.31529 2.65121 0
M  V30 12243 C 1125.32 -3.16767 4.99412 0
M  V30 12244 H 1124.25 -0.527717 0.538545 0
M  V30 12245 H 1126.9 -0.699756 1.69634 0
M  V30 12246 H 1125.28 -3.27156 2.23125 0
M  V30 12247 H 1126.45 -1.398 4.39081 0
M  V30 12248 H 1124.77 -1.41312 3.91688 0
M  V30 12249 H 1127.37 -4.14233 3.38105 0
M  V30 12250 H 1127.71 -3.79855 1.70341 0
M  V30 12251 H 1128.24 -2.65649 2.961 0
M  V30 12252 H 1124.98 -2.73404 5.9576 0
M  V30 12253 H 1124.5 -3.81445 4.62882 0
M  V30 12254 H 1126.18 -3.81827 5.22319 0
M  V30 12255 N 1126.31 -1.30234 -0.887518 0
M  V30 12256 C 1127.24 -1.18969 -2.00919 0
M  V30 12257 C 1128.22 -0.080952 -1.69907 0
M  V30 12258 O 1129.41 -0.262546 -1.92417 0
M  V30 12259 C 1126.54 -0.878094 -3.36016 0
M  V30 12260 C 1125.49 -1.94449 -3.81279 0
M  V30 12261 C 1124.82 -1.48594 -5.13638 0
M  V30 12262 C 1126.12 -3.35519 -4.00281 0
M  V30 12263 H 1127.81 -2.12808 -2.10602 0
M  V30 12264 H 1125.36 -1.02454 -1.01189 0
M  V30 12265 H 1127.31 -0.785954 -4.14006 0
M  V30 12266 H 1126.04 0.0959779 -3.26459 0
M  V30 12267 H 1124.69 -2.02622 -3.05516 0
M  V30 12268 H 1124.34 -0.500204 -5.00507 0
M  V30 12269 H 1124.04 -2.19921 -5.44893 0
M  V30 12270 H 1125.57 -1.40754 -5.94156 0
M  V30 12271 H 1126.98 -3.30119 -4.68716 0
M  V30 12272 H 1125.38 -4.0491 -4.42909 0
M  V30 12273 H 1126.45 -3.77597 -3.04218 0
M  V30 12274 N 1127.79 1.09952 -1.12909 0
M  V30 12275 C 1129.02 1.8633 -0.910821 0
M  V30 12276 C 1129.44 1.80335 0.534874 0
M  V30 12277 O 1128.8 1.1769 1.37908 0
M  V30 12278 C 1128.85 3.32462 -1.39648 0
M  V30 12279 O 1127.95 4.08327 -0.578192 0
M  V30 12280 H 1127.29 0.577984 -0.32685 0
M  V30 12281 H 1129.82 1.38883 -1.50242 0
M  V30 12282 H 1129.83 3.83311 -1.39774 0
M  V30 12283 H 1128.51 3.36141 -2.44913 0
M  V30 12284 H 1127.08 3.67291 -0.644347 0
M  V30 12285 N 1129.27 0.921757 1.27833 0
M  V30 12286 C 1130.52 0.55493 1.93916 0
M  V30 12287 C 1130.83 -0.907191 1.7329 0
M  V30 12288 O 1132.04 -1.38253 2.33663 0
M  V30 12289 C 1130.49 0.941644 3.47363 0
M  V30 12290 C 1130.1 2.42404 3.76755 0
M  V30 12291 C 1131.84 0.645785 4.19559 0
M  V30 12292 C 1129.75 2.75046 5.23549 0
M  V30 12293 H 1128.68 0.203818 0.72593 0
M  V30 12294 H 1131.33 1.12176 1.4522 0
M  V30 12295 H 1129.71 0.303519 3.94835 0
M  V30 12296 H 1130.89 3.10957 3.40062 0
M  V30 12297 H 1129.2 2.69118 3.17749 0
M  V30 12298 H 1131.8 0.866237 5.27637 0
M  V30 12299 H 1132.14 -0.41676 4.14209 0
M  V30 12300 H 1132.68 1.24274 3.7789 0
M  V30 12301 H 1129.42 3.80186 5.33984 0
M  V30 12302 H 1128.94 2.11138 5.6141 0
M  V30 12303 H 1130.61 2.62474 5.91368 0
M  V30 12304 N 1130.75 -1.41857 0.686609 0
M  V30 12305 C 1131.68 -2.33481 0.0298353 0
M  V30 12306 C 1132.66 -1.51329 -0.776756 0
M  V30 12307 O 1133.84 -1.79895 -0.731535 0
M  V30 12308 C 1130.97 -3.35065 -0.913707 0
M  V30 12309 C 1129.93 -4.2746 -0.214861 0
M  V30 12310 C 1129.25 -5.19346 -1.27215 0
M  V30 12311 C 1130.55 -5.14252 0.913367 0
M  V30 12312 H 1132.25 -2.8865 0.795067 0
M  V30 12313 H 1129.79 -1.38792 0.383785 0
M  V30 12314 H 1131.75 -3.98082 -1.38234 0
M  V30 12315 H 1130.47 -2.78226 -1.7105 0
M  V30 12316 H 1129.13 -3.65855 0.233651 0
M  V30 12317 H 1128.78 -4.58827 -2.06124 0
M  V30 12318 H 1128.48 -5.81996 -0.80961 0
M  V30 12319 H 1130 -5.85239 -1.74147 0
M  V30 12320 H 1131.41 -5.70887 0.525424 0
M  V30 12321 H 1129.81 -5.85796 1.30244 0
M  V30 12322 H 1130.88 -4.51949 1.75699 0
M  V30 12323 N 1132.22 -0.430739 -1.51599 0
M  V30 12324 C 1133.47 0.138133 -2.02329 0
M  V30 12325 C 1133.8 1.42934 -1.31466 0
M  V30 12326 O 1133.08 1.89743 -0.427551 0
M  V30 12327 C 1133.36 0.363677 -3.58259 0
M  V30 12328 C 1133.21 -0.94572 -4.39746 0
M  V30 12329 C 1134.53 1.13637 -4.25176 0
M  V30 12330 H 1131.65 0.0487287 -0.735387 0
M  V30 12331 H 1134.29 -0.568444 -1.81297 0
M  V30 12332 H 1132.44 0.965552 -3.7631 0
M  V30 12333 H 1134.12 -1.58107 -4.33359 0
M  V30 12334 H 1132.36 -1.55183 -4.05094 0
M  V30 12335 H 1133.03 -0.742031 -5.4699 0
M  V30 12336 H 1135.51 0.626608 -4.11355 0
M  V30 12337 H 1134.38 1.26294 -5.34173 0
M  V30 12338 H 1134.64 2.16273 -3.85588 0
M  V30 12339 N 1133.7 1.56767 -0.161869 0
M  V30 12340 C 1135.11 1.83265 0.356466 0
M  V30 12341 C 1135.46 1.08127 1.63716 0
M  V30 12342 O 1134.59 0.33127 2.13849 0
M  V30 12343 C 1135.18 3.32437 0.653521 0
M  V30 12344 C 1133.74 3.59465 1.11633 0
M  V30 12345 C 1132.89 2.76909 0.147204 0
M  V30 12346 H 1135.84 1.53926 -0.386308 0
M  V30 12347 H 1135.86 3.49401 1.50662 0
M  V30 12348 H 1135.37 3.87098 -0.278766 0
M  V30 12349 H 1133.48 3.10206 2.06404 0
M  V30 12350 H 1133.59 4.67853 1.03202 0
M  V30 12351 H 1131.95 2.46457 0.642739 0
M  V30 12352 H 1132.74 3.34346 -0.778938 0
M  V30 12353 N 1135.18 -0.111886 1.57202 0
M  V30 12354 C 1136.59 -0.668261 1.74331 0
M  V30 12355 C 1136.94 -1.79959 0.781609 0
M  V30 12356 O 1136.07 -2.16356 -0.043833 0
M  V30 12357 C 1136.66 -1.219 3.1611 0
M  V30 12358 C 1135.22 -1.7216 3.34721 0
M  V30 12359 C 1134.37 -0.624223 2.70183 0
M  V30 12360 H 1137.32 0.114081 1.58289 0
M  V30 12361 H 1137.34 -2.08858 3.18054 0
M  V30 12362 H 1136.85 -0.395381 3.86081 0
M  V30 12363 H 1134.95 -2.56976 2.69803 0
M  V30 12364 H 1135.07 -1.82615 4.42932 0
M  V30 12365 H 1133.43 -1.05958 2.31614 0
M  V30 12366 H 1134.21 0.188537 3.42782 0
M  V30 12367 N 1136.66 -1.52894 -0.382264 0
M  V30 12368 C 1137.62 -1.77497 -1.45008 0
M  V30 12369 C 1138.62 -0.64509 -1.47293 0
M  V30 12370 O 1139.81 -0.913192 -1.48346 0
M  V30 12371 C 1136.94 -1.88188 -2.8425 0
M  V30 12372 H 1138.14 -2.72849 -1.24473 0
M  V30 12373 H 1135.69 -1.43717 -0.61441 0
M  V30 12374 H 1136.42 -0.948451 -3.10121 0
M  V30 12375 H 1136.21 -2.70353 -2.83992 0
M  V30 12376 H 1137.7 -2.08873 -3.6161 0
M  V30 12377 N 1138.14 0.641106 -1.43971 0
M  V30 12378 C 1139.39 1.39676 -1.45511 0
M  V30 12379 C 1139.7 1.95403 -0.0877084 0
M  V30 12380 O 1140.91 2.71493 0.0193965 0
M  V30 12381 C 1139.36 2.52839 -2.56126 0
M  V30 12382 C 1138.97 2.03668 -3.99028 0
M  V30 12383 C 1140.71 3.30118 -2.66875 0
M  V30 12384 C 1138.62 3.14114 -5.01085 0
M  V30 12385 H 1137.55 0.524854 -0.541336 0
M  V30 12386 H 1140.2 0.69075 -1.70003 0
M  V30 12387 H 1138.58 3.25968 -2.24857 0
M  V30 12388 H 1139.76 1.3747 -4.39817 0
M  V30 12389 H 1138.07 1.39233 -3.92432 0
M  V30 12390 H 1140.67 4.12434 -3.40297 0
M  V30 12391 H 1141.01 3.78946 -1.72353 0
M  V30 12392 H 1141.55 2.64075 -2.97505 0
M  V30 12393 H 1138.28 2.70241 -5.97202 0
M  V30 12394 H 1137.8 3.78985 -4.64898 0
M  V30 12395 H 1139.48 3.79051 -5.24337 0
M  V30 12396 N 1139.62 1.30703 0.880598 0
M  V30 12397 C 1140.55 1.20033 2.00286 0
M  V30 12398 C 1141.53 0.0899614 1.69862 0
M  V30 12399 O 1142.71 0.272747 1.92275 0
M  V30 12400 C 1139.84 0.895902 3.35546 0
M  V30 12401 C 1138.8 1.96468 3.80242 0
M  V30 12402 C 1138.12 1.51316 5.12843 0
M  V30 12403 C 1139.42 3.37637 3.98496 0
M  V30 12404 H 1141.12 2.13922 2.0947 0
M  V30 12405 H 1138.66 1.02989 1.00644 0
M  V30 12406 H 1140.61 0.807899 4.13583 0
M  V30 12407 H 1139.34 -0.0786636 3.26505 0
M  V30 12408 H 1138 2.0424 3.04437 0
M  V30 12409 H 1137.65 0.52674 5.00234 0
M  V30 12410 H 1137.35 2.22807 5.43719 0
M  V30 12411 H 1138.87 1.43903 5.93401 0
M  V30 12412 H 1140.28 3.326 4.66959 0
M  V30 12413 H 1138.68 4.07253 4.40755 0
M  V30 12414 H 1139.75 3.79205 3.02211 0
M  V30 12415 N 1141.09 -1.09351 1.1349 0
M  V30 12416 C 1142.02 -2.18037 0.835588 0
M  V30 12417 C 1143 -1.68856 -0.205373 0
M  V30 12418 O 1144.19 -1.94094 -0.0641357 0
M  V30 12419 C 1141.32 -3.45987 0.301661 0
M  V30 12420 C 1140.27 -4.08507 1.27696 0
M  V30 12421 C 1139.6 -5.31292 0.602758 0
M  V30 12422 C 1140.9 -4.50916 2.63575 0
M  V30 12423 H 1142.59 -2.43332 1.74441 0
M  V30 12424 H 1140.14 -1.1695 0.840166 0
M  V30 12425 H 1142.09 -4.21324 0.079928 0
M  V30 12426 H 1140.82 -3.20217 -0.642552 0
M  V30 12427 H 1139.48 -3.3519 1.4847 0
M  V30 12428 H 1139.12 -5.01802 -0.346953 0
M  V30 12429 H 1138.82 -5.74075 1.25345 0
M  V30 12430 H 1140.35 -6.09351 0.390325 0
M  V30 12431 H 1141.76 -5.17474 2.46765 0
M  V30 12432 H 1140.16 -5.04586 3.24827 0
M  V30 12433 H 1141.23 -3.63279 3.2118 0
M  V30 12434 N 1142.57 -0.928524 -1.27343 0
M  V30 12435 C 1143.5 -0.445627 -2.29208 0
M  V30 12436 C 1144.48 0.494508 -1.62753 0
M  V30 12437 O 1145.67 0.399082 -1.90055 0
M  V30 12438 C 1142.8 0.301684 -3.45987 0
M  V30 12439 C 1141.75 -0.550695 -4.24442 0
M  V30 12440 C 1141.08 0.325833 -5.33706 0
M  V30 12441 C 1142.38 -1.81559 -4.89728 0
M  V30 12442 H 1144.07 -1.29696 -2.69851 0
M  V30 12443 H 1141.62 -0.625085 -1.29725 0
M  V30 12444 H 1143.57 0.650455 -4.1635 0
M  V30 12445 H 1142.29 1.18705 -3.04264 0
M  V30 12446 H 1140.95 -0.882185 -3.55827 0
M  V30 12447 H 1140.6 1.21018 -4.88225 0
M  V30 12448 H 1140.3 -0.240994 -5.87106 0
M  V30 12449 H 1141.83 0.670156 -6.06911 0
M  V30 12450 H 1143.24 -1.53483 -5.52373 0
M  V30 12451 H 1141.64 -2.32598 -5.53189 0
M  V30 12452 H 1142.71 -2.53461 -4.13383 0
M  V30 12453 N 1144.05 1.41491 -0.694123 0
M  V30 12454 C 1144.96 2.34583 -0.0283414 0
M  V30 12455 C 1145.98 1.5615 0.767662 0
M  V30 12456 O 1147.15 1.88637 0.705556 0
M  V30 12457 C 1144.22 3.34876 0.897726 0
M  V30 12458 C 1143.28 4.29197 0.0940905 0
M  V30 12459 C 1142.51 5.24699 0.976051 0
M  V30 12460 O 1142.73 5.25613 2.21556 0
M  V30 12461 O 1141.67 6.00387 0.426503 0
M  V30 12462 H 1145.49 2.93092 -0.795656 0
M  V30 12463 H 1143.08 1.4232 -0.45445 0
M  V30 12464 H 1144.96 3.96438 1.4288 0
M  V30 12465 H 1143.64 2.78812 1.64456 0
M  V30 12466 H 1142.54 3.70988 -0.481552 0
M  V30 12467 H 1143.88 4.88355 -0.614045 0
M  V30 12468 N 1145.53 0.438773 1.51369 0
M  V30 12469 C 1146.76 -0.125665 2.06217 0
M  V30 12470 C 1147.17 -1.36887 1.30609 0
M  V30 12471 O 1146.51 -1.80149 0.359433 0
M  V30 12472 C 1146.57 -0.511846 3.55838 0
M  V30 12473 C 1146.23 0.624755 4.52709 0
M  V30 12474 C 1147.23 1.49731 4.97872 0
M  V30 12475 C 1144.92 0.805895 4.95793 0
M  V30 12476 C 1146.91 2.53569 5.84792 0
M  V30 12477 C 1144.6 1.84755 5.82502 0
M  V30 12478 C 1145.6 2.71083 6.269 0
M  V30 12479 O 1145.28 3.7346 7.11887 0
M  V30 12480 H 1145.02 -0.0107227 0.675915 0
M  V30 12481 H 1147.57 0.617071 1.95912 0
M  V30 12482 H 1145.8 -1.30731 3.63932 0
M  V30 12483 H 1147.49 -1.0076 3.93195 0
M  V30 12484 H 1148.25 1.36891 4.65281 0
M  V30 12485 H 1144.13 0.14352 4.60777 0
M  V30 12486 H 1147.68 3.20984 6.19367 0
M  V30 12487 H 1143.57 1.97614 6.14507 0
M  V30 12488 H 1144.34 3.70058 7.30068 0
M  V30 12489 N 1147.01 -1.56678 0.170181 0
M  V30 12490 C 1147.95 -2.17909 -0.760556 0
M  V30 12491 C 1148.92 -1.11875 -1.22773 0
M  V30 12492 O 1150.11 -1.40021 -1.2961 0
M  V30 12493 C 1147.25 -2.82305 -1.9849 0
M  V30 12494 C 1146.36 -4.02796 -1.5614 0
M  V30 12495 C 1145.5 -4.55121 -2.73932 0
M  V30 12496 C 1144.53 -5.68025 -2.28067 0
M  V30 12497 N 1143.67 -6.14865 -3.38947 0
M  V30 12498 H 1148.51 -2.97098 -0.231629 0
M  V30 12499 H 1146.05 -1.46742 -0.102602 0
M  V30 12500 H 1148.01 -3.17797 -2.70298 0
M  V30 12501 H 1146.64 -2.05721 -2.48755 0
M  V30 12502 H 1145.69 -3.73131 -0.740097 0
M  V30 12503 H 1147 -4.84526 -1.18472 0
M  V30 12504 H 1146.15 -4.92789 -3.53898 0
M  V30 12505 H 1144.89 -3.72445 -3.14858 0
M  V30 12506 H 1143.9 -5.2991 -1.46546 0
M  V30 12507 H 1145.12 -6.52501 -1.88199 0
M  V30 12508 H 1143.07 -5.35119 -3.79452 0
M  V30 12509 H 1142.99 -6.91582 -3.05369 0
M  V30 12510 H 1144.25 -6.57183 -4.19203 0
M  V30 12511 N 1148.48 0.103547 -1.57259 0
M  V30 12512 C 1149.71 0.82235 -1.89855 0
M  V30 12513 C 1150.13 1.72694 -0.76303 0
M  V30 12514 O 1149.48 1.8056 0.265421 0
M  V30 12515 C 1149.53 1.64282 -3.22015 0
M  V30 12516 O 1149.26 0.774628 -4.31197 0
M  V30 12517 C 1150.76 2.46543 -3.68418 0
M  V30 12518 H 1147.98 0.235591 -0.628282 0
M  V30 12519 H 1150.52 0.0833106 -2.0433 0
M  V30 12520 H 1148.68 2.33446 -3.09163 0
M  V30 12521 H 1149.09 1.34205 -5.0704 0
M  V30 12522 H 1150.56 2.99618 -4.63609 0
M  V30 12523 H 1151.04 3.24618 -2.95838 0
M  V30 12524 H 1151.65 1.82594 -3.84109 0
M  V30 12525 N 1149.96 1.53094 0.37415 0
M  V30 12526 C 1150.91 1.78927 1.45787 0
M  V30 12527 C 1151.88 0.633187 1.53558 0
M  V30 12528 O 1153.06 0.874472 1.69581 0
M  V30 12529 C 1150.2 1.97726 2.8284 0
M  V30 12530 C 1149.32 3.25436 2.84104 0
M  V30 12531 C 1148.45 3.3447 4.12678 0
M  V30 12532 C 1147.49 4.56246 4.08051 0
M  V30 12533 N 1146.63 4.6248 5.28258 0
M  V30 12534 H 1151.47 2.71404 1.2306 0
M  V30 12535 H 1149 1.34453 0.596716 0
M  V30 12536 H 1150.96 2.06611 3.62447 0
M  V30 12537 H 1149.59 1.08593 3.03986 0
M  V30 12538 H 1148.64 3.25548 1.96781 0
M  V30 12539 H 1149.96 4.15112 2.76556 0
M  V30 12540 H 1149.11 3.4262 5.00696 0
M  V30 12541 H 1147.85 2.42795 4.22968 0
M  V30 12542 H 1146.85 4.48206 3.1842 0
M  V30 12543 H 1148.08 5.49254 3.99371 0
M  V30 12544 H 1146.03 3.73703 5.3915 0
M  V30 12545 H 1145.94 5.46049 5.22845 0
M  V30 12546 H 1147.21 4.74903 6.18132 0
M  V30 12547 N 1151.44 -0.633461 1.44309 0
M  V30 12548 C 1152.4 -1.72743 1.50641 0
M  V30 12549 C 1153.4 -1.56031 0.388718 0
M  V30 12550 O 1154.59 -1.61568 0.651251 0
M  V30 12551 C 1151.72 -3.11804 1.37809 0
M  V30 12552 H 1152.92 -1.68503 2.48086 0
M  V30 12553 H 1150.47 -0.846912 1.31366 0
M  V30 12554 H 1151.21 -3.2164 0.414483 0
M  V30 12555 H 1150.99 -3.2534 2.18852 0
M  V30 12556 H 1152.48 -3.91538 1.45216 0
M  V30 12557 N 1152.92 -1.31168 -0.873655 0
M  V30 12558 C 1153.83 -1.20458 -2.01313 0
M  V30 12559 C 1154.84 -0.122074 -1.73571 0
M  V30 12560 O 1156.02 -0.339176 -1.98523 0
M  V30 12561 C 1153.09 -0.90876 -3.34578 0
M  V30 12562 C 1152.15 -2.07779 -3.75668 0
M  V30 12563 C 1151.38 -1.79599 -5.02573 0
M  V30 12564 O 1151.6 -0.729338 -5.65718 0
M  V30 12565 O 1150.54 -2.65169 -5.40341 0
M  V30 12566 H 1154.36 -2.16207 -2.13279 0
M  V30 12567 H 1151.95 -1.10871 -1.00139 0
M  V30 12568 H 1153.83 -0.759469 -4.145 0
M  V30 12569 H 1152.5 0.0187249 -3.23695 0
M  V30 12570 H 1151.41 -2.28247 -2.96402 0
M  V30 12571 H 1152.74 -2.9874 -3.91172 0
M  V30 12572 N 1154.4 1.08748 -1.14068 0
M  V30 12573 C 1155.33 2.14886 -0.768052 0
M  V30 12574 C 1156.31 1.60682 0.248979 0
M  V30 12575 O 1157.49 1.87988 0.138852 0
M  V30 12576 C 1154.62 3.38412 -0.139747 0
M  V30 12577 C 1153.66 4.11357 -1.12639 0
M  V30 12578 S 1154.5 4.64645 -2.66206 0
M  V30 12579 C 1155.65 5.91461 -2.04755 0
M  V30 12580 H 1155.89 2.46163 -1.66706 0
M  V30 12581 H 1153.42 1.20804 -0.961549 0
M  V30 12582 H 1155.38 4.09929 0.21635 0
M  V30 12583 H 1154.04 3.0534 0.736638 0
M  V30 12584 H 1153.23 4.99987 -0.634719 0
M  V30 12585 H 1152.83 3.45735 -1.4263 0
M  V30 12586 H 1155.13 6.62859 -1.40086 0
M  V30 12587 H 1156.07 6.45319 -2.91494 0
M  V30 12588 H 1156.48 5.44308 -1.49629 0
M  V30 12589 N 1155.87 0.935264 1.26849 0
M  V30 12590 C 1157.1 0.595704 1.98661 0
M  V30 12591 C 1157.52 -0.821001 1.69237 0
M  V30 12592 O 1156.88 -1.55211 0.936982 0
M  V30 12593 C 1156.93 0.837275 3.50745 0
M  V30 12594 O 1156.03 -0.0934914 4.12294 0
M  V30 12595 H 1155.38 0.228512 0.623441 0
M  V30 12596 H 1157.91 1.25658 1.61466 0
M  V30 12597 H 1157.92 0.755827 4.00938 0
M  V30 12598 H 1156.59 1.86993 3.71492 0
M  V30 12599 H 1155.17 0.0385124 3.7288 0
M  V30 12600 N 1157.35 -1.41121 0.701616 0
M  V30 12601 C 1158.3 -2.27994 0.0168361 0
M  V30 12602 C 1159.29 -1.42523 -0.746733 0
M  V30 12603 O 1160.48 -1.6574 -0.621232 0
M  V30 12604 C 1157.61 -3.30898 -0.914417 0
M  V30 12605 C 1156.69 -4.23846 -0.146776 0
M  V30 12606 N 1157.08 -4.9839 0.862624 0
M  V30 12607 C 1155.38 -4.44366 -0.38138 0
M  V30 12608 C 1156.08 -5.66463 1.32266 0
M  V30 12609 N 1155.06 -5.39731 0.647433 0
M  V30 12610 H 1158.86 -2.83065 0.790675 0
M  V30 12611 H 1156.38 -1.53405 0.532977 0
M  V30 12612 H 1158.37 -3.91964 -1.4202 0
M  V30 12613 H 1157.03 -2.77387 -1.68779 0
M  V30 12614 H 1158.04 -5.02761 1.24305 0
M  V30 12615 H 1154.72 -4.01856 -1.13216 0
M  V30 12616 H 1156.11 -6.36213 2.16061 0
M  V30 12617 N 1158.83 -0.446794 -1.51134 0
M  V30 12618 C 1160.08 0.118047 -2.01354 0
M  V30 12619 C 1160.39 1.42953 -1.33505 0
M  V30 12620 O 1161.6 2.07788 -1.74747 0
M  V30 12621 C 1160.05 0.260912 -3.58953 0
M  V30 12622 C 1159.66 -1.0407 -4.35745 0
M  V30 12623 C 1161.41 0.779014 -4.17291 0
M  V30 12624 C 1159.31 -0.862958 -5.8507 0
M  V30 12625 H 1158.24 0.0478915 -0.752478 0
M  V30 12626 H 1160.89 -0.577997 -1.74159 0
M  V30 12627 H 1159.28 1.02018 -3.82633 0
M  V30 12628 H 1160.45 -1.80903 -4.23805 0
M  V30 12629 H 1158.77 -1.48805 -3.88904 0
M  V30 12630 H 1161.36 0.928636 -5.26574 0
M  V30 12631 H 1161.71 1.76399 -3.7708 0
M  V30 12632 H 1162.24 0.0778022 -3.97724 0
M  V30 12633 H 1158.98 -1.82059 -6.2971 0
M  V30 12634 H 1158.5 -0.134588 -5.99649 0
M  V30 12635 H 1160.18 -0.51989 -6.44908 0
M  V30 12636 N 1160.31 1.56586 -0.178487 0
M  V30 12637 C 1161.72 1.83633 0.337009 0
M  V30 12638 C 1162.07 1.09857 1.6256 0
M  V30 12639 O 1161.2 0.353933 2.13486 0
M  V30 12640 C 1161.79 3.33112 0.618225 0
M  V30 12641 C 1160.35 3.60629 1.07814 0
M  V30 12642 C 1159.5 2.7705 0.117825 0
M  V30 12643 H 1162.45 1.53508 -0.402612 0
M  V30 12644 H 1162.47 3.5098 1.46947 0
M  V30 12645 H 1161.98 3.8678 -0.319808 0
M  V30 12646 H 1160.08 3.12378 2.03103 0
M  V30 12647 H 1160.19 4.68921 0.982339 0
M  V30 12648 H 1158.56 2.47125 0.616563 0
M  V30 12649 H 1159.34 3.33501 -0.814356 0
M  V30 12650 N 1161.79 -0.095206 1.57312 0
M  V30 12651 C 1162.72 -1.14173 1.98739 0
M  V30 12652 C 1163.73 -1.36323 0.889934 0
M  V30 12653 O 1164.92 -1.34977 1.16805 0
M  V30 12654 C 1162.02 -2.49729 2.29104 0
M  V30 12655 C 1161.19 -2.47857 3.60396 0
M  V30 12656 C 1160.25 -3.65341 3.78699 0
M  V30 12657 O 1159.28 -3.47837 4.50553 0
M  V30 12658 N 1160.48 -4.84818 3.19268 0
M  V30 12659 H 1163.25 -0.789126 2.89124 0
M  V30 12660 H 1160.81 -0.284187 1.59386 0
M  V30 12661 H 1162.8 -3.26925 2.38541 0
M  V30 12662 H 1161.37 -2.7708 1.44726 0
M  V30 12663 H 1160.59 -1.56208 3.61929 0
M  V30 12664 H 1161.88 -2.43685 4.46649 0
M  V30 12665 H 1161.27 -5.01943 2.60902 0
M  V30 12666 H 1159.83 -5.59607 3.34191 0
M  V30 12667 N 1163.26 -1.53291 -0.366026 0
M  V30 12668 C 1164.49 -1.73665 -1.13381 0
M  V30 12669 C 1164.91 -0.464284 -1.8228 0
M  V30 12670 O 1164.27 0.581645 -1.71717 0
M  V30 12671 C 1164.32 -2.90225 -2.14013 0
M  V30 12672 O 1163.42 -2.58803 -3.21084 0
M  V30 12673 H 1162.77 -0.576762 -0.329 0
M  V30 12674 H 1165.3 -2.00174 -0.423287 0
M  V30 12675 H 1165.31 -3.16378 -2.57622 0
M  V30 12676 H 1163.98 -3.82518 -1.63257 0
M  V30 12677 H 1162.56 -2.43466 -2.82451 0
M  V30 12678 N 1164.74 0.6258 -1.44643 0
M  V30 12679 C 1165.67 1.75086 -1.47911 0
M  V30 12680 C 1166.69 1.58496 -0.37188 0
M  V30 12681 O 1167.88 1.66712 -0.637925 0
M  V30 12682 C 1164.98 3.12874 -1.30243 0
M  V30 12683 C 1164.15 3.55873 -2.54309 0
M  V30 12684 C 1163.21 4.72558 -2.31464 0
M  V30 12685 O 1162.23 4.80599 -3.04981 0
M  V30 12686 N 1163.44 5.64617 -1.34862 0
M  V30 12687 H 1166.2 1.72751 -2.44902 0
M  V30 12688 H 1163.76 0.810531 -1.4015 0
M  V30 12689 H 1165.75 3.88663 -1.12798 0
M  V30 12690 H 1164.32 3.0982 -0.415966 0
M  V30 12691 H 1163.54 2.70237 -2.86994 0
M  V30 12692 H 1164.83 3.81355 -3.36817 0
M  V30 12693 H 1164.23 5.60819 -0.741542 0
M  V30 12694 H 1162.79 6.40013 -1.23394 0
M  V30 12695 N 1166.22 1.31629 0.866686 0
M  V30 12696 C 1167.5 1.12136 1.60265 0
M  V30 12697 C 1167.88 -0.322729 2.08618 0
M  V30 12698 O 1167.23 -1.31738 1.86701 0
M  V30 12699 C 1167.44 2.13845 2.7581 0
M  V30 12700 C 1168.78 2.46541 3.45692 0
M  V30 12701 O 1169.81 2.12298 2.86021 0
M  V30 12702 O 1168.67 3.05194 4.53342 0
M  V30 12703 H 1165.76 0.431923 0.705246 0
M  V30 12704 H 1168.31 1.43119 0.911863 0
M  V30 12705 H 1167.08 3.10967 2.37518 0
M  V30 12706 H 1166.7 1.83786 3.52574 0
M  V30 12707 N 1167.7 -1.08142 1.14644 0
M  V30 12708 C 1168.66 -2.13308 0.83859 0
M  V30 12709 C 1169.66 -1.60022 -0.158012 0
M  V30 12710 O 1170.85 -1.74057 0.0706621 0
M  V30 12711 C 1167.98 -3.39978 0.250591 0
M  V30 12712 H 1169.18 -2.42049 1.77066 0
M  V30 12713 H 1166.73 -1.23899 0.952828 0
M  V30 12714 H 1167.47 -3.16873 -0.690064 0
M  V30 12715 H 1167.25 -3.79952 0.968456 0
M  V30 12716 H 1168.74 -4.17567 0.0525115 0
M  V30 12717 N 1169.18 -0.941978 -1.26351 0
M  V30 12718 C 1170.13 -0.423053 -2.24041 0
M  V30 12719 C 1171.11 0.480668 -1.53553 0
M  V30 12720 O 1172.3 0.315783 -1.7416 0
M  V30 12721 C 1169.43 0.309814 -3.41899 0
M  V30 12722 C 1168.52 -0.611245 -4.19672 0
M  V30 12723 N 1168.91 -1.73738 -4.75025 0
M  V30 12724 C 1167.21 -0.416985 -4.44046 0
M  V30 12725 C 1167.91 -2.31141 -5.33806 0
M  V30 12726 N 1166.88 -1.59934 -5.1954 0
M  V30 12727 H 1170.69 -1.28268 -2.64433 0
M  V30 12728 H 1168.2 -0.797941 -1.41445 0
M  V30 12729 H 1170.2 0.698618 -4.11005 0
M  V30 12730 H 1168.86 1.1662 -3.03035 0
M  V30 12731 H 1169.87 -2.1195 -4.72544 0
M  V30 12732 H 1166.55 0.397561 -4.15603 0
M  V30 12733 H 1167.94 -3.26029 -5.87499 0
M  V30 12734 N 1170.66 1.40747 -0.709091 0
M  V30 12735 C 1171.59 2.29196 -0.0130359 0
M  V30 12736 C 1172.6 1.45491 0.730487 0
M  V30 12737 O 1173.79 1.6885 0.578944 0
M  V30 12738 C 1170.89 3.23632 1.00577 0
M  V30 12739 C 1170.06 4.3616 0.329105 0
M  V30 12740 C 1169.12 5.11079 1.25239 0
M  V30 12741 O 1168.15 5.64374 0.739641 0
M  V30 12742 N 1169.35 5.1982 2.58394 0
M  V30 12743 H 1172.11 2.89574 -0.772462 0
M  V30 12744 H 1169.68 1.52046 -0.556197 0
M  V30 12745 H 1171.67 3.70622 1.62546 0
M  V30 12746 H 1170.24 2.64467 1.66661 0
M  V30 12747 H 1169.46 3.9138 -0.470683 0
M  V30 12748 H 1170.75 5.08605 -0.140856 0
M  V30 12749 H 1170.14 4.77992 3.02556 0
M  V30 12750 H 1168.7 5.7034 3.15524 0
M  V30 12751 N 1172.13 0.454803 1.50895 0
M  V30 12752 C 1173.07 -0.393395 2.24784 0
M  V30 12753 C 1174.04 -1.01005 1.27424 0
M  V30 12754 O 1175.23 -1.04914 1.56605 0
M  V30 12755 C 1172.36 -1.54978 3.01164 0
M  V30 12756 C 1171.4 -1.0521 4.1332 0
M  V30 12757 S 1172.23 0.0200486 5.35496 0
M  V30 12758 C 1173.39 -1.14059 6.1542 0
M  V30 12759 H 1173.62 0.233864 2.96379 0
M  V30 12760 H 1171.16 0.239498 1.52531 0
M  V30 12761 H 1173.11 -2.21262 3.45765 0
M  V30 12762 H 1171.78 -2.1485 2.29125 0
M  V30 12763 H 1170.97 -1.91734 4.66105 0
M  V30 12764 H 1170.57 -0.467234 3.7107 0
M  V30 12765 H 1172.86 -2.05552 6.45565 0
M  V30 12766 H 1173.81 -0.652339 7.05089 0
M  V30 12767 H 1174.21 -1.38705 5.47194 0
M  V30 12768 N 1173.61 -1.56489 0.186789 0
M  V30 12769 C 1174.84 -2.01722 -0.459993 0
M  V30 12770 C 1175.25 -1.06697 -1.5576 0
M  V30 12771 O 1174.61 -0.0704212 -1.82364 0
M  V30 12772 C 1174.66 -3.46693 -1.02401 0
M  V30 12773 O 1174.38 -4.3809 0.0297916 0
M  V30 12774 C 1175.88 -4.07403 -1.7475 0
M  V30 12775 H 1173.1 -0.660845 -0.116298 0
M  V30 12776 H 1175.65 -2.02389 0.293059 0
M  V30 12777 H 1173.8 -3.46752 -1.72749 0
M  V30 12778 H 1174.22 -5.23057 -0.388821 0
M  V30 12779 H 1175.69 -5.10718 -2.09455 0
M  V30 12780 H 1176.17 -3.50383 -2.64818 0
M  V30 12781 H 1176.77 -4.11093 -1.09007 0
M  V30 12782 N 1175.09 0.086862 -1.5736 0
M  V30 12783 C 1176.02 1.13614 -1.97907 0
M  V30 12784 C 1177 1.38395 -0.853564 0
M  V30 12785 O 1178.18 1.52018 -1.11457 0
M  V30 12786 C 1175.31 2.48364 -2.30289 0
M  V30 12787 C 1174.36 2.39814 -3.52692 0
M  V30 12788 S 1175.19 1.80673 -5.04101 0
M  V30 12789 C 1176.35 3.17031 -5.39669 0
M  V30 12790 H 1176.58 0.790538 -2.86597 0
M  V30 12791 H 1174.11 0.294847 -1.51559 0
M  V30 12792 H 1176.07 3.25883 -2.49621 0
M  V30 12793 H 1174.73 2.80091 -1.42154 0
M  V30 12794 H 1173.92 3.3915 -3.72818 0
M  V30 12795 H 1173.53 1.70427 -3.32912 0
M  V30 12796 H 1175.82 4.13319 -5.36818 0
M  V30 12797 H 1176.76 3.017 -6.40611 0
M  V30 12798 H 1177.17 3.16942 -4.67128 0
M  V30 12799 N 1176.57 1.53483 0.357892 0
M  V30 12800 C 1177.84 1.60649 1.11585 0
M  V30 12801 C 1178.22 0.418789 2.06904 0
M  V30 12802 O 1177.57 -0.590279 2.20744 0
M  V30 12803 C 1177.78 2.96046 1.84818 0
M  V30 12804 C 1179.13 3.50895 2.39076 0
M  V30 12805 O 1180.15 2.98126 1.94934 0
M  V30 12806 O 1179.01 4.43163 3.19794 0
M  V30 12807 H 1176.11 0.649202 0.512315 0
M  V30 12808 H 1178.65 1.65826 0.360537 0
M  V30 12809 H 1177.43 3.73929 1.15296 0
M  V30 12810 H 1177.05 2.94395 2.6724 0
M  V30 12811 N 1178.05 -0.61812 1.44973 0
M  V30 12812 C 1179.32 -1.37705 1.38913 0
M  V30 12813 C 1179.7 -2.1103 0.054385 0
M  V30 12814 O 1179.05 -2.07197 -0.963409 0
M  V30 12815 C 1179.26 -2.33265 2.59593 0
M  V30 12816 C 1180.61 -2.96197 3.04224 0
M  V30 12817 O 1181.63 -2.43589 2.59891 0
M  V30 12818 O 1180.49 -3.91666 3.8113 0
M  V30 12819 H 1177.59 -0.61694 0.55074 0
M  V30 12820 H 1180.13 -0.642088 1.57084 0
M  V30 12821 H 1178.9 -1.78271 3.48332 0
M  V30 12822 H 1178.53 -3.14158 2.43702 0
M  V30 12823 N 1179.52 -1.32087 -0.859693 0
M  V30 12824 C 1180.75 -1.25486 -1.6513 0
M  V30 12825 C 1181.17 0.175015 -1.87284 0
M  V30 12826 O 1180.53 1.12468 -1.42199 0
M  V30 12827 C 1180.58 -2.01469 -2.9907 0
M  V30 12828 O 1179.68 -1.35904 -3.89363 0
M  V30 12829 H 1179.02 -0.432728 -0.503629 0
M  V30 12830 H 1181.55 -1.74322 -1.07112 0
M  V30 12831 H 1181.56 -2.11452 -3.4893 0
M  V30 12832 H 1180.24 -3.05448 -2.82266 0
M  V30 12833 H 1178.82 -1.34437 -3.47823 0
M  V30 12834 N 1181 1.07532 -1.15215 0
M  V30 12835 C 1181.91 2.18222 -0.861192 0
M  V30 12836 C 1182.93 1.73246 0.161798 0
M  V30 12837 O 1184.1 2.01397 -0.0118386 0
M  V30 12838 C 1181.17 3.44902 -0.352601 0
M  V30 12839 C 1180.23 4.04455 -1.43926 0
M  V30 12840 C 1179.46 5.25089 -0.954841 0
M  V30 12841 O 1179.69 5.70048 0.200294 0
M  V30 12842 O 1178.62 5.76269 -1.73774 0
M  V30 12843 H 1182.45 2.45599 -1.78648 0
M  V30 12844 H 1180.03 1.16835 -0.93112 0
M  V30 12845 H 1181.91 4.21333 -0.0753347 0
M  V30 12846 H 1180.59 3.19082 0.544841 0
M  V30 12847 H 1179.49 3.29573 -1.7701 0
M  V30 12848 H 1180.83 4.34544 -2.31155 0
M  V30 12849 N 1182.48 0.948665 1.2585 0
M  V30 12850 C 1183.43 0.455115 2.28104 0
M  V30 12851 C 1184.42 -0.471508 1.62706 0
M  V30 12852 O 1185.63 -0.348895 1.76586 0
M  V30 12853 H 1182 0.128659 0.740912 0
M  V30 12854 H 1183.97 1.32991 2.67125 0
M  V30 12855 C 1182.72 -0.25729 3.46747 0
M  V30 12856 H 1182.05 0.44658 3.97298 0
M  V30 12857 H 1183.49 -0.566736 4.20195 0
M  V30 12858 C 1181.95 -1.47772 3.02762 0
M  V30 12859 O 1182.48 -2.57571 3.08253 0
M  V30 12860 N 1180.68 -1.33694 2.5802 0
M  V30 12861 H 1180.23 -0.443595 2.53752 0
M  V30 12862 H 1180.19 -2.1547 2.28954 0
M  V30 12863 N 1183.96 -1.40369 0.716545 0
M  V30 12864 C 1184.91 -2.32539 0.053472 0
M  V30 12865 C 1185.9 -1.5209 -0.745984 0
M  V30 12866 O 1187.11 -1.67883 -0.649245 0
M  V30 12867 H 1183.48 -0.751998 -0.00151088 0
M  V30 12868 H 1185.45 -2.86111 0.847535 0
M  V30 12869 C 1184.2 -3.37061 -0.853515 0
M  V30 12870 H 1183.52 -3.99032 -0.247754 0
M  V30 12871 H 1184.96 -4.04046 -1.28541 0
M  V30 12872 C 1183.42 -2.72619 -1.97941 0
M  V30 12873 O 1183.95 -2.59024 -3.07033 0
M  V30 12874 N 1182.16 -2.30988 -1.76332 0
M  V30 12875 H 1181.71 -2.42246 -0.876063 0
M  V30 12876 H 1181.66 -1.88209 -2.51843 0
M  V30 12877 N 1185.44 -0.462799 -1.50652 0
M  V30 12878 C 1186.68 0.0950445 -2.02277 0
M  V30 12879 C 1187.01 1.40465 -1.34536 0
M  V30 12880 O 1186.27 1.90283 -0.457279 0
M  V30 12881 C 1186.57 0.335294 -3.55824 0
M  V30 12882 C 1186.23 -0.891589 -4.41997 0
M  V30 12883 C 1184.89 -1.22799 -4.65268 0
M  V30 12884 C 1187.25 -1.70885 -4.9239 0
M  V30 12885 C 1184.57 -2.38186 -5.36175 0
M  V30 12886 C 1186.93 -2.85394 -5.64564 0
M  V30 12887 C 1185.59 -3.19458 -5.86091 0
M  V30 12888 H 1184.86 0.0347793 -0.740183 0
M  V30 12889 H 1187.51 -0.61519 -1.8135 0
M  V30 12890 H 1185.81 1.12769 -3.7522 0
M  V30 12891 H 1187.51 0.780752 -3.93326 0
M  V30 12892 H 1184.1 -0.619495 -4.24099 0
M  V30 12893 H 1188.28 -1.46215 -4.74273 0
M  V30 12894 H 1183.54 -2.64862 -5.51052 0
M  V30 12895 H 1187.71 -3.49073 -6.02595 0
M  V30 12896 H 1185.34 -4.08978 -6.40813 0
M  V30 12897 N 1186.91 1.56388 -0.195085 0
M  V30 12898 C 1187.85 2.16316 0.757643 0
M  V30 12899 C 1188.86 1.12498 1.17678 0
M  V30 12900 O 1190.05 1.39591 1.11251 0
M  V30 12901 C 1187.15 2.7104 2.03447 0
M  V30 12902 C 1186.32 3.99759 1.77514 0
M  V30 12903 C 1185.38 4.3931 2.89644 0
M  V30 12904 O 1184.41 5.06732 2.59252 0
M  V30 12905 N 1185.61 4.02813 4.17998 0
M  V30 12906 H 1188.37 2.98696 0.24517 0
M  V30 12907 H 1185.93 1.61895 -0.0131194 0
M  V30 12908 H 1187.93 2.94483 2.776 0
M  V30 12909 H 1186.5 1.93114 2.45817 0
M  V30 12910 H 1185.72 3.84448 0.8714 0
M  V30 12911 H 1187 4.83782 1.57585 0
M  V30 12912 H 1186.4 3.4858 4.45543 0
M  V30 12913 H 1184.96 4.31206 4.88779 0
M  V30 12914 N 1188.39 -0.0785156 1.57404 0
M  V30 12915 C 1189.34 -1.11278 2.04255 0
M  V30 12916 C 1190.33 -1.40482 0.946633 0
M  V30 12917 O 1191.54 -1.39968 1.13177 0
M  V30 12918 H 1187.92 -0.376157 0.65116 0
M  V30 12919 H 1189.89 -0.691437 2.90279 0
M  V30 12920 C 1188.64 -2.42006 2.49656 0
M  V30 12921 H 1187.96 -2.20383 3.33574 0
M  V30 12922 H 1189.4 -3.12837 2.86197 0
M  V30 12923 C 1187.86 -3.07488 1.37669 0
M  V30 12924 O 1188.39 -3.95285 0.715036 0
M  V30 12925 N 1186.59 -2.68004 1.1235 0
M  V30 12926 H 1186.14 -1.96698 1.66336 0
M  V30 12927 H 1186.1 -3.12141 0.376238 0
M  V30 12928 N 1189.87 -1.5367 -0.349747 0
M  V30 12929 C 1191.12 -1.69835 -1.08807 0
M  V30 12930 C 1191.43 -0.46497 -1.89993 0
M  V30 12931 O 1192.64 -0.507452 -2.66716 0
M  V30 12932 C 1191.09 -3.00294 -1.98372 0
M  V30 12933 C 1190.7 -4.30949 -1.22422 0
M  V30 12934 C 1192.45 -3.25826 -2.72099 0
M  V30 12935 C 1190.35 -5.52486 -2.1098 0
M  V30 12936 H 1189.28 -0.63284 -0.409915 0
M  V30 12937 H 1191.93 -1.80171 -0.347968 0
M  V30 12938 H 1190.32 -2.838 -2.76176 0
M  V30 12939 H 1191.49 -4.58126 -0.495707 0
M  V30 12940 H 1189.81 -4.11983 -0.604896 0
M  V30 12941 H 1192.4 -4.13817 -3.38615 0
M  V30 12942 H 1192.75 -2.42566 -3.3833 0
M  V30 12943 H 1193.28 -3.43067 -2.0137 0
M  V30 12944 H 1190.02 -6.38271 -1.49301 0
M  V30 12945 H 1189.54 -5.29566 -2.81638 0
M  V30 12946 H 1191.22 -5.87889 -2.70176 0
M  V30 12947 N 1191.35 0.610423 -1.45298 0
M  V30 12948 C 1192.58 1.39621 -1.52688 0
M  V30 12949 C 1192.99 1.88133 -0.158535 0
M  V30 12950 O 1192.35 1.62051 0.839396 0
M  V30 12951 C 1192.4 2.60261 -2.50891 0
M  V30 12952 O 1192.12 2.13766 -3.82408 0
M  V30 12953 C 1193.62 3.53154 -2.6795 0
M  V30 12954 H 1190.84 0.427493 -0.517195 0
M  V30 12955 H 1193.39 0.744701 -1.90459 0
M  V30 12956 H 1191.54 3.2146 -2.162 0
M  V30 12957 H 1191.95 2.92128 -4.35616 0
M  V30 12958 H 1193.43 4.34355 -3.40647 0
M  V30 12959 H 1193.91 4.03311 -1.73888 0
M  V30 12960 H 1194.51 2.9781 -3.03627 0
M  V30 12961 N 1192.83 1.32541 0.852676 0
M  V30 12962 C 1193.74 1.23646 1.99371 0
M  V30 12963 C 1194.75 0.149673 1.73355 0
M  V30 12964 O 1195.93 0.370716 1.97959 0
M  V30 12965 C 1192.99 0.961873 3.3309 0
M  V30 12966 C 1192.05 2.1373 3.72315 0
M  V30 12967 C 1191.29 1.87572 4.99652 0
M  V30 12968 O 1191.51 0.819247 5.64486 0
M  V30 12969 O 1190.44 2.73732 5.36054 0
M  V30 12970 H 1194.27 2.19573 2.09813 0
M  V30 12971 H 1191.86 1.12451 0.983627 0
M  V30 12972 H 1193.74 0.825316 4.13239 0
M  V30 12973 H 1192.41 0.0327745 3.23683 0
M  V30 12974 H 1191.32 2.32933 2.92733 0
M  V30 12975 H 1192.65 3.04925 3.86369 0
M  V30 12976 N 1194.3 -1.0692 1.15784 0
M  V30 12977 C 1195.21 -2.17762 0.872753 0
M  V30 12978 C 1196.23 -1.73329 -0.152608 0
M  V30 12979 O 1197.41 -2.01387 0.022519 0
M  V30 12980 C 1194.47 -3.4471 0.370887 0
M  V30 12981 C 1193.53 -4.03686 1.46069 0
M  V30 12982 C 1192.77 -5.24575 0.982675 0
M  V30 12983 O 1192.99 -5.70146 -0.17006 0
M  V30 12984 O 1191.92 -5.7534 1.76828 0
M  V30 12985 H 1195.75 -2.44648 1.79948 0
M  V30 12986 H 1193.33 -1.1634 0.937303 0
M  V30 12987 H 1195.22 -4.21287 0.0976779 0
M  V30 12988 H 1193.89 -3.19366 -0.527912 0
M  V30 12989 H 1192.8 -3.28629 1.78756 0
M  V30 12990 H 1194.13 -4.33312 2.33456 0
M  V30 12991 N 1195.78 -0.955326 -1.25345 0
M  V30 12992 C 1197.03 -0.606149 -1.92377 0
M  V30 12993 C 1197.34 0.860927 -1.75634 0
M  V30 12994 O 1198.55 1.3201 -2.37246 0
M  V30 12995 C 1197.01 -1.03341 -3.44744 0
M  V30 12996 C 1196.61 -2.52308 -3.70196 0
M  V30 12997 C 1198.36 -0.756797 -4.17699 0
M  V30 12998 C 1196.27 -2.88831 -5.16072 0
M  V30 12999 H 1195.2 -0.222994 -0.720271 0
M  V30 13000 H 1197.85 -1.15987 -1.42194 0
M  V30 13001 H 1196.23 -0.408096 -3.93892 0
M  V30 13002 H 1197.4 -3.19864 -3.31698 0
M  V30 13003 H 1195.72 -2.77448 -3.10502 0
M  V30 13004 H 1198.31 -1.00583 -5.25154 0
M  V30 13005 H 1198.66 0.306794 -4.15168 0
M  V30 13006 H 1199.19 -1.34249 -3.74462 0
M  V30 13007 H 1195.93 -3.9421 -5.23716 0
M  V30 13008 H 1195.45 -2.25948 -5.55614 0
M  V30 13009 H 1197.13 -2.78061 -5.84201 0
M  V30 13010 N 1197.26 1.39987 -0.723979 0
M  V30 13011 C 1198.67 1.83606 -0.338461 0
M  V30 13012 C 1199.02 1.6051 1.12831 0
M  V30 13013 O 1198.15 1.09041 1.8692 0
M  V30 13014 C 1198.74 3.33308 -0.607533 0
M  V30 13015 C 1197.3 3.75389 -0.275632 0
M  V30 13016 C 1196.45 2.6311 -0.875699 0
M  V30 13017 H 1199.4 1.29135 -0.922483 0
M  V30 13018 H 1199.42 3.80297 0.124424 0
M  V30 13019 H 1198.93 3.50087 -1.67514 0
M  V30 13020 H 1197.03 3.64203 0.786579 0
M  V30 13021 H 1197.15 4.73185 -0.750492 0
M  V30 13022 H 1195.51 2.5289 -0.303122 0
M  V30 13023 H 1196.29 2.82698 -1.94774 0
M  V30 13024 N 1198.74 0.470782 1.50404 0
M  V30 13025 C 1199.67 -0.369532 2.25188 0
M  V30 13026 C 1200.65 -0.996478 1.28488 0
M  V30 13027 O 1201.83 -1.03247 1.57709 0
M  V30 13028 C 1198.96 -1.51775 3.02791 0
M  V30 13029 C 1198.01 -1.00821 4.14412 0
M  V30 13030 S 1198.84 0.076844 5.35445 0
M  V30 13031 C 1200 -1.07525 6.16595 0
M  V30 13032 H 1200.23 0.265286 2.96114 0
M  V30 13033 H 1197.76 0.255662 1.52269 0
M  V30 13034 H 1199.72 -2.17582 3.48092 0
M  V30 13035 H 1198.38 -2.12408 2.31391 0
M  V30 13036 H 1197.57 -1.8678 4.68112 0
M  V30 13037 H 1197.18 -0.427851 3.71545 0
M  V30 13038 H 1199.47 -1.98693 6.47709 0
M  V30 13039 H 1200.41 -0.577518 7.05741 0
M  V30 13040 H 1200.82 -1.32894 5.48634 0
M  V30 13041 N 1200.22 -1.56282 0.203376 0
M  V30 13042 C 1201.13 -2.23086 -0.725922 0
M  V30 13043 C 1202.14 -1.23258 -1.22814 0
M  V30 13044 O 1203.32 -1.5602 -1.27357 0
M  V30 13045 C 1200.38 -2.88358 -1.92485 0
M  V30 13046 C 1199.45 -4.03479 -1.46639 0
M  V30 13047 C 1198.68 -4.65629 -2.60816 0
M  V30 13048 O 1198.9 -4.2672 -3.78506 0
M  V30 13049 O 1197.84 -5.54949 -2.33056 0
M  V30 13050 H 1201.66 -3.03124 -0.18694 0
M  V30 13051 H 1199.25 -1.49377 -0.0262829 0
M  V30 13052 H 1201.13 -3.29623 -2.62539 0
M  V30 13053 H 1199.8 -2.11294 -2.45228 0
M  V30 13054 H 1198.71 -3.66821 -0.734396 0
M  V30 13055 H 1200.04 -4.82232 -0.985535 0
M  V30 13056 N 1201.7 0.070167 -1.57444 0
M  V30 13057 C 1202.94 0.770153 -1.87607 0
M  V30 13058 C 1203.27 1.77143 -0.795875 0
M  V30 13059 O 1202.55 1.93533 0.193674 0
M  V30 13060 C 1202.83 1.47668 -3.2843 0
M  V30 13061 C 1202.69 0.491712 -4.47104 0
M  V30 13062 C 1204 2.42118 -3.67514 0
M  V30 13063 H 1201.12 0.278519 -0.682346 0
M  V30 13064 H 1203.77 0.0333184 -1.89971 0
M  V30 13065 H 1201.92 2.10476 -3.26546 0
M  V30 13066 H 1203.59 -0.131283 -4.61113 0
M  V30 13067 H 1201.83 -0.192817 -4.33371 0
M  V30 13068 H 1202.5 1.02372 -5.42424 0
M  V30 13069 H 1204.98 1.89387 -3.70502 0
M  V30 13070 H 1203.85 2.88556 -4.66933 0
M  V30 13071 H 1204.11 3.26995 -2.97534 0
M  V30 13072 N 1203.17 1.53854 0.341593 0
M  V30 13073 C 1204.42 1.71194 1.08162 0
M  V30 13074 C 1204.75 0.47614 1.88582 0
M  V30 13075 O 1204 -0.542115 1.88041 0
M  V30 13076 C 1204.3 2.92844 2.04884 0
M  V30 13077 C 1203.97 4.28366 1.40759 0
M  V30 13078 C 1202.63 4.65214 1.23 0
M  V30 13079 C 1204.98 5.12546 0.945819 0
M  V30 13080 C 1202.31 5.83857 0.576852 0
M  V30 13081 C 1204.66 6.31857 0.306568 0
M  V30 13082 C 1203.33 6.67398 0.116677 0
M  V30 13083 H 1202.6 0.626442 0.395792 0
M  V30 13084 H 1205.24 1.88073 0.360688 0
M  V30 13085 H 1203.55 2.70576 2.83365 0
M  V30 13086 H 1205.25 3.03454 2.62139 0
M  V30 13087 H 1201.84 3.99366 1.5558 0
M  V30 13088 H 1206.02 4.84609 1.07087 0
M  V30 13089 H 1201.28 6.09967 0.418363 0
M  V30 13090 H 1205.45 6.96375 -0.0593285 0
M  V30 13091 H 1203.08 7.59191 -0.391477 0
M  V30 13092 N 1204.65 -0.602709 1.4562 0
M  V30 13093 C 1205.6 -1.71312 1.54664 0
M  V30 13094 C 1206.57 -1.61403 0.392197 0
M  V30 13095 O 1207.75 -1.80911 0.606297 0
M  V30 13096 C 1204.89 -3.09629 1.52393 0
M  V30 13097 C 1204.01 -3.30308 2.78425 0
M  V30 13098 C 1203.14 -4.5876 2.67793 0
M  V30 13099 C 1202.18 -4.72713 3.88855 0
M  V30 13100 N 1201.32 -5.92469 3.76729 0
M  V30 13101 H 1206.16 -1.62918 2.49523 0
M  V30 13102 H 1203.69 -0.794324 1.2381 0
M  V30 13103 H 1205.65 -3.89661 1.49064 0
M  V30 13104 H 1204.28 -3.16968 0.610816 0
M  V30 13105 H 1203.33 -2.44018 2.9182 0
M  V30 13106 H 1204.65 -3.36491 3.68205 0
M  V30 13107 H 1203.8 -5.46993 2.62457 0
M  V30 13108 H 1202.54 -4.54983 1.75619 0
M  V30 13109 H 1201.54 -3.82903 3.94545 0
M  V30 13110 H 1202.77 -4.78284 4.82101 0
M  V30 13111 H 1200.72 -5.89728 2.87328 0
M  V30 13112 H 1200.63 -5.99833 4.60148 0
M  V30 13113 H 1201.9 -6.83187 3.75334 0
M  V30 13114 N 1206.13 -1.32992 -0.845635 0
M  V30 13115 C 1207.04 -1.24701 -1.98713 0
M  V30 13116 C 1208.06 -0.158864 -1.73273 0
M  V30 13117 O 1209.23 -0.381209 -1.97759 0
M  V30 13118 C 1206.3 -0.979524 -3.32575 0
M  V30 13119 C 1205.36 -2.15701 -3.71176 0
M  V30 13120 C 1204.59 -1.90219 -4.98651 0
M  V30 13121 O 1204.81 -0.849171 -5.64044 0
M  V30 13122 O 1203.75 -2.76571 -5.34595 0
M  V30 13123 H 1207.57 -2.20683 -2.08645 0
M  V30 13124 H 1205.16 -1.12971 -0.97765 0
M  V30 13125 H 1207.04 -0.847219 -4.12796 0
M  V30 13126 H 1205.72 -0.0499398 -3.23661 0
M  V30 13127 H 1204.62 -2.34483 -2.91494 0
M  V30 13128 H 1205.96 -3.0697 -3.84747 0
M  V30 13129 N 1207.61 1.06304 -1.1635 0
M  V30 13130 C 1208.85 1.79366 -0.94634 0
M  V30 13131 C 1209.19 1.86981 0.524569 0
M  V30 13132 O 1208.46 1.36134 1.38917 0
M  V30 13133 C 1208.74 3.23861 -1.57436 0
M  V30 13134 C 1208.6 3.24327 -3.1166 0
M  V30 13135 C 1209.92 4.21409 -1.26895 0
M  V30 13136 H 1207.04 0.65115 -0.345215 0
M  V30 13137 H 1209.68 1.24325 -1.43678 0
M  V30 13138 H 1207.83 3.70862 -1.15731 0
M  V30 13139 H 1209.5 2.85488 -3.62346 0
M  V30 13140 H 1207.74 2.62983 -3.44997 0
M  V30 13141 H 1208.41 4.2626 -3.50723 0
M  V30 13142 H 1210.89 3.8285 -1.62989 0
M  V30 13143 H 1209.77 5.20778 -1.73439 0
M  V30 13144 H 1210.03 4.41701 -0.187768 0
M  V30 13145 N 1209.09 0.96196 1.24836 0
M  V30 13146 C 1210.5 0.667561 1.44968 0
M  V30 13147 C 1210.7 -0.772521 1.86103 0
M  V30 13148 O 1209.76 -1.54704 1.99557 0
M  V30 13149 C 1211.07 1.64675 2.516 0
M  V30 13150 C 1212.62 1.65874 2.65433 0
M  V30 13151 C 1213.09 2.62576 3.75257 0
M  V30 13152 N 1214.58 2.60984 3.82677 0
M  V30 13153 C 1215.32 3.32484 4.67163 0
M  V30 13154 N 1214.82 4.13482 5.55882 0
M  V30 13155 N 1216.61 3.21336 4.61193 0
M  V30 13156 H 1208.76 1.89248 0.964307 0
M  V30 13157 H 1211.02 0.814443 0.485167 0
M  V30 13158 H 1210.73 2.67572 2.2825 0
M  V30 13159 H 1210.6 1.415 3.49653 0
M  V30 13160 H 1212.99 0.636912 2.88145 0
M  V30 13161 H 1213.07 1.9311 1.67756 0
M  V30 13162 H 1212.71 3.6489 3.53295 0
M  V30 13163 H 1212.64 2.32622 4.72435 0
M  V30 13164 H 1215.14 2.02187 3.19263 0
M  V30 13165 H 1215.45 4.6494 6.17293 0
M  V30 13166 H 1213.79 4.17578 5.55566 0
M  V30 13167 H 1216.98 2.57524 3.90895 0
M  V30 13168 H 1217.16 3.77323 5.26812 0
M  V30 13169 N 1210.56 -1.39601 0.731392 0
M  V30 13170 C 1211.81 -1.99821 0.274661 0
M  V30 13171 C 1212.13 -1.58693 -1.1435 0
M  V30 13172 O 1213.33 -2.11724 -1.69957 0
M  V30 13173 C 1211.79 -3.57199 0.440124 0
M  V30 13174 C 1211.4 -4.07292 1.86594 0
M  V30 13175 C 1213.14 -4.24476 0.0449851 0
M  V30 13176 C 1211.05 -5.57229 1.98115 0
M  V30 13177 H 1209.98 -0.747481 0.0989383 0
M  V30 13178 H 1212.63 -1.59645 0.904755 0
M  V30 13179 H 1211.01 -3.95153 -0.25881 0
M  V30 13180 H 1212.18 -3.80679 2.59654 0
M  V30 13181 H 1210.5 -3.52665 2.21397 0
M  V30 13182 H 1213.1 -5.34587 0.110126 0
M  V30 13183 H 1213.44 -4.04129 -0.999269 0
M  V30 13184 H 1213.97 -3.91683 0.694942 0
M  V30 13185 H 1210.71 -5.82452 3.00716 0
M  V30 13186 H 1210.23 -5.85656 1.29487 0
M  V30 13187 H 1211.91 -6.22584 1.76063 0
M  V30 13188 N 1212.04 -0.478751 -1.50152 0
M  V30 13189 C 1212.97 0.301182 -2.31549 0
M  V30 13190 C 1213.95 0.983276 -1.38801 0
M  V30 13191 O 1215.14 0.978973 -1.67719 0
M  V30 13192 C 1212.27 1.3791 -3.18745 0
M  V30 13193 C 1211.22 0.818175 -4.20107 0
M  V30 13194 C 1210.55 1.99496 -4.9609 0
M  V30 13195 C 1211.85 -0.17574 -5.22004 0
M  V30 13196 H 1213.54 -0.378188 -2.97002 0
M  V30 13197 H 1211.09 -0.183323 -1.42828 0
M  V30 13198 H 1213.04 1.93227 -3.74488 0
M  V30 13199 H 1211.77 2.08735 -2.51192 0
M  V30 13200 H 1210.42 0.286924 -3.65475 0
M  V30 13201 H 1210.07 2.69036 -4.25004 0
M  V30 13202 H 1209.77 1.62582 -5.6466 0
M  V30 13203 H 1211.3 2.55288 -5.54671 0
M  V30 13204 H 1212.71 0.288513 -5.72574 0
M  V30 13205 H 1211.11 -0.459549 -5.98338 0
M  V30 13206 H 1212.18 -1.09911 -4.72279 0
M  V30 13207 N 1213.52 1.56172 -0.211661 0
M  V30 13208 C 1214.8 1.8984 0.471195 0
M  V30 13209 C 1215.18 1.1276 1.78461 0
M  V30 13210 O 1214.53 0.233817 2.27301 0
M  V30 13211 C 1214.74 3.42434 0.673814 0
M  V30 13212 C 1216.08 4.13 0.985719 0
M  V30 13213 O 1217.11 3.47977 0.760953 0
M  V30 13214 O 1215.97 5.2795 1.41176 0
M  V30 13215 H 1213.06 0.789008 0.247782 0
M  V30 13216 H 1215.61 1.67802 -0.25311 0
M  V30 13217 H 1214.38 3.90481 -0.253034 0
M  V30 13218 H 1214 3.70218 1.44997 0
M  V30 13219 N 1215 -0.0618163 1.57479 0
M  V30 13220 C 1216.22 -0.775513 1.92355 0
M  V30 13221 C 1216.65 -1.69816 0.808949 0
M  V30 13222 O 1216.01 -1.79736 -0.23761 0
M  V30 13223 C 1216.05 -1.5367 3.26218 0
M  V30 13224 O 1215.16 -2.64802 3.16155 0
M  V30 13225 H 1214.5 -0.210909 0.629614 0
M  V30 13226 H 1217.03 -0.0270752 2.04582 0
M  V30 13227 H 1217.04 -1.91379 3.6033 0
M  V30 13228 H 1215.71 -0.859798 4.06916 0
M  V30 13229 H 1214.29 -2.29876 2.93618 0
M  V30 13230 N 1216.48 -1.54033 -0.333429 0
M  V30 13231 C 1217.42 -1.83441 -1.43011 0
M  V30 13232 C 1218.42 -0.705592 -1.54006 0
M  V30 13233 O 1219.62 -0.889098 -1.56509 0
M  V30 13234 H 1216 -0.581326 -0.477037 0
M  V30 13235 H 1217.97 -2.75172 -1.15426 0
M  V30 13236 C 1216.72 -2.0698 -2.79382 0
M  V30 13237 H 1216.04 -2.93297 -2.71692 0
M  V30 13238 H 1217.48 -2.31517 -3.55212 0
M  V30 13239 C 1215.94 -0.85835 -3.25782 0
M  V30 13240 O 1216.47 -0.062739 -4.01651 0
M  V30 13241 N 1214.68 -0.672738 -2.82706 0
M  V30 13242 H 1214.22 -1.32136 -2.21128 0
M  V30 13243 H 1214.18 0.136347 -3.14104 0
M  V30 13244 N 1217.95 0.594978 -1.45938 0
M  V30 13245 C 1218.86 1.73296 -1.58132 0
M  V30 13246 C 1219.88 1.67665 -0.465245 0
M  V30 13247 O 1221.06 1.87794 -0.727684 0
M  V30 13248 C 1218.12 3.09783 -1.55677 0
M  V30 13249 C 1217.18 3.26772 -2.78422 0
M  V30 13250 C 1216.42 4.56748 -2.76075 0
M  V30 13251 O 1216.64 5.39867 -1.84119 0
M  V30 13252 O 1215.57 4.76721 -3.67452 0
M  V30 13253 H 1219.4 1.65957 -2.54346 0
M  V30 13254 H 1216.98 0.760572 -1.28591 0
M  V30 13255 H 1218.87 3.91077 -1.56961 0
M  V30 13256 H 1217.54 3.17585 -0.626191 0
M  V30 13257 H 1216.45 2.45018 -2.82696 0
M  V30 13258 H 1217.78 3.23853 -3.70648 0
M  V30 13259 N 1219.43 1.33438 0.838571 0
M  V30 13260 C 1220.68 1.24665 1.59069 0
M  V30 13261 C 1221 -0.187433 1.94097 0
M  V30 13262 O 1220.27 -1.11625 1.60987 0
M  V30 13263 H 1218.85 0.45843 0.589789 0
M  V30 13264 H 1221.51 1.67161 1.00216 0
M  V30 13265 H 1220.61 1.84057 2.52051 0
M  V30 13266 N 1220.91 -1.05686 1.16912 0
M  V30 13267 C 1221.86 -2.13312 0.88129 0
M  V30 13268 C 1222.83 -1.65199 -0.172783 0
M  V30 13269 O 1224.01 -1.90765 -0.0366542 0
M  V30 13270 C 1221.15 -3.42829 0.395264 0
M  V30 13271 C 1220.27 -4.04643 1.51288 0
M  V30 13272 C 1219.4 -5.22059 0.981238 0
M  V30 13273 C 1218.44 -5.75869 2.07464 0
M  V30 13274 N 1217.58 -6.84592 1.55813 0
M  V30 13275 H 1222.42 -2.37271 1.80295 0
M  V30 13276 H 1219.95 -1.16407 0.899322 0
M  V30 13277 H 1221.91 -4.17092 0.0950633 0
M  V30 13278 H 1220.54 -3.19068 -0.489445 0
M  V30 13279 H 1219.59 -3.27867 1.92891 0
M  V30 13280 H 1220.91 -4.40626 2.33774 0
M  V30 13281 H 1220.06 -6.03372 0.634586 0
M  V30 13282 H 1218.8 -4.87538 0.125754 0
M  V30 13283 H 1217.8 -4.93188 2.42992 0
M  V30 13284 H 1219.03 -6.12439 2.93419 0
M  V30 13285 H 1216.97 -6.51978 0.725283 0
M  V30 13286 H 1216.89 -7.19551 2.31911 0
M  V30 13287 H 1218.16 -7.6957 1.24025 0
M  V30 13288 N 1222.39 -0.968567 -1.24324 0
M  V30 13289 C 1223.34 -0.491346 -2.27351 0
M  V30 13290 C 1224.33 0.445563 -1.63435 0
M  V30 13291 O 1225.54 0.320758 -1.77119 0
M  V30 13292 H 1221.91 -0.14043 -0.738772 0
M  V30 13293 H 1223.88 -1.37224 -2.64976 0
M  V30 13294 C 1222.63 0.202093 -3.47112 0
M  V30 13295 H 1221.95 -0.50973 -3.96537 0
M  V30 13296 H 1223.39 0.499815 -4.21044 0
M  V30 13297 C 1221.85 1.42937 -3.05075 0
M  V30 13298 O 1222.38 2.52635 -3.12312 0
M  V30 13299 N 1220.59 1.29572 -2.60114 0
M  V30 13300 H 1220.14 0.403169 -2.54425 0
M  V30 13301 H 1220.09 2.118 -2.32353 0
M  V30 13302 N 1223.87 1.39211 -0.738786 0
M  V30 13303 C 1224.78 2.34374 -0.102958 0
M  V30 13304 C 1225.79 1.58514 0.717596 0
M  V30 13305 O 1226.97 1.90786 0.645186 0
M  V30 13306 C 1224.03 3.37562 0.790733 0
M  V30 13307 C 1223.09 4.29279 -0.0425028 0
M  V30 13308 C 1222.33 5.27539 0.808628 0
M  V30 13309 O 1222.55 5.32396 2.04722 0
M  V30 13310 O 1221.48 6.0144 0.235279 0
M  V30 13311 H 1225.31 2.90412 -0.888498 0
M  V30 13312 H 1222.9 1.40803 -0.499498 0
M  V30 13313 H 1224.78 4.00783 1.30196 0
M  V30 13314 H 1223.45 2.83903 1.55502 0
M  V30 13315 H 1222.36 3.69268 -0.599335 0
M  V30 13316 H 1223.69 4.86154 -0.7691 0
M  V30 13317 N 1225.34 0.486708 1.49896 0
M  V30 13318 C 1226.28 -0.345627 2.25567 0
M  V30 13319 C 1227.26 -0.982794 1.29537 0
M  V30 13320 O 1228.44 -1.01569 1.58796 0
M  V30 13321 C 1225.57 -1.48555 3.04383 0
M  V30 13322 C 1224.61 -0.964196 4.15458 0
M  V30 13323 S 1225.45 0.133631 5.35333 0
M  V30 13324 C 1226.6 -1.00979 6.17701 0
M  V30 13325 H 1226.83 0.296677 2.95816 0
M  V30 13326 H 1224.37 0.271798 1.51989 0
M  V30 13327 H 1226.33 -2.13878 3.50381 0
M  V30 13328 H 1224.99 -2.09942 2.33631 0
M  V30 13329 H 1224.18 -1.81804 4.70067 0
M  V30 13330 H 1223.78 -0.388419 3.71978 0
M  V30 13331 H 1226.07 -1.91812 6.4978 0
M  V30 13332 H 1227.02 -0.502633 7.06314 0
M  V30 13333 H 1227.42 -1.27067 5.50013 0
M  V30 13334 N 1226.82 -1.56058 0.219941 0
M  V30 13335 C 1227.73 -2.23844 -0.70222 0
M  V30 13336 C 1228.75 -1.24554 -1.215 0
M  V30 13337 O 1229.93 -1.57362 -1.25695 0
M  V30 13338 C 1226.99 -2.90384 -1.89416 0
M  V30 13339 C 1226.05 -4.05012 -1.42351 0
M  V30 13340 C 1225.28 -4.68369 -2.55863 0
M  V30 13341 O 1225.51 -4.3071 -3.73958 0
M  V30 13342 O 1224.44 -5.5739 -2.27157 0
M  V30 13343 H 1228.27 -3.03305 -0.15478 0
M  V30 13344 H 1225.85 -1.49396 -0.010438 0
M  V30 13345 H 1227.73 -3.32389 -2.59028 0
M  V30 13346 H 1226.41 -2.13883 -2.42973 0
M  V30 13347 H 1225.32 -3.67579 -0.695448 0
M  V30 13348 H 1226.65 -4.83251 -0.934332 0
M  V30 13349 N 1228.3 0.053464 -1.57509 0
M  V30 13350 C 1229.55 0.748016 -1.87317 0
M  V30 13351 C 1229.86 1.77805 -0.815161 0
M  V30 13352 O 1231.07 2.52347 -1.00167 0
M  V30 13353 C 1229.53 1.38137 -3.32334 0
M  V30 13354 C 1229.13 0.388958 -4.46308 0
M  V30 13355 C 1230.88 2.05722 -3.7132 0
M  V30 13356 C 1228.78 1.02927 -5.82374 0
M  V30 13357 H 1227.71 0.283123 -0.698826 0
M  V30 13358 H 1230.37 0.00170723 -1.835 0
M  V30 13359 H 1228.75 2.17656 -3.3082 0
M  V30 13360 H 1229.92 -0.377752 -4.59249 0
M  V30 13361 H 1228.24 -0.183447 -4.15996 0
M  V30 13362 H 1230.83 2.54437 -4.70283 0
M  V30 13363 H 1231.18 2.86475 -3.02056 0
M  V30 13364 H 1231.71 1.3301 -3.74904 0
M  V30 13365 H 1228.45 0.261674 -6.54977 0
M  V30 13366 H 1227.97 1.7664 -5.732 0
M  V30 13367 H 1229.65 1.54378 -6.28312 0
M  V30 13368 N 1229.78 1.54207 0.325255 0
M  V30 13369 C 1230.71 1.79812 1.42128 0
M  V30 13370 C 1231.72 0.68003 1.47917 0
M  V30 13371 O 1232.91 0.957107 1.50671 0
M  V30 13372 C 1230.01 1.89935 2.80674 0
M  V30 13373 C 1229.19 3.20078 2.98108 0
M  V30 13374 C 1228.25 3.20924 4.17006 0
M  V30 13375 O 1227.27 3.94571 4.10247 0
M  V30 13376 N 1228.47 2.44588 5.26457 0
M  V30 13377 H 1231.24 2.74396 1.20527 0
M  V30 13378 H 1228.8 1.53483 0.515233 0
M  V30 13379 H 1230.79 1.8793 3.58419 0
M  V30 13380 H 1229.36 1.02455 2.95333 0
M  V30 13381 H 1228.58 3.35057 2.07679 0
M  V30 13382 H 1229.87 4.06008 3.06651 0
M  V30 13383 H 1229.27 1.8434 5.34823 0
M  V30 13384 H 1227.82 2.48363 6.02627 0
M  V30 13385 N 1231.26 -0.58723 1.46251 0
M  V30 13386 C 1232.19 -1.71113 1.50982 0
M  V30 13387 C 1233.17 -1.58466 0.364322 0
M  V30 13388 O 1234.35 -1.79745 0.567812 0
M  V30 13389 C 1231.48 -3.09128 1.38411 0
M  V30 13390 C 1230.53 -3.40308 2.57085 0
M  V30 13391 S 1231.36 -3.32881 4.19464 0
M  V30 13392 C 1232.51 -4.73441 4.09395 0
M  V30 13393 H 1232.75 -1.66841 2.46072 0
M  V30 13394 H 1230.28 -0.765598 1.34082 0
M  V30 13395 H 1232.24 -3.88751 1.31846 0
M  V30 13396 H 1230.9 -3.10895 0.447567 0
M  V30 13397 H 1230.09 -4.40849 2.4427 0
M  V30 13398 H 1229.69 -2.68244 2.60617 0
M  V30 13399 H 1231.99 -5.63723 3.75796 0
M  V30 13400 H 1232.93 -4.91313 5.09919 0
M  V30 13401 H 1233.34 -4.50079 3.40719 0
M  V30 13402 N 1232.74 -1.33881 -0.831482 0
M  V30 13403 C 1233.68 -1.24748 -1.94182 0
M  V30 13404 C 1234.65 -0.124516 -1.65633 0
M  V30 13405 O 1235.84 -0.304045 -1.88362 0
M  V30 13406 C 1232.98 -1.00016 -3.30289 0
M  V30 13407 C 1232.09 -2.21007 -3.71187 0
M  V30 13408 C 1231.23 -1.89629 -4.962 0
M  V30 13409 C 1230.26 -3.06811 -5.29654 0
M  V30 13410 N 1229.4 -2.75372 -6.45844 0
M  V30 13411 H 1234.24 -2.19709 -2.01325 0
M  V30 13412 H 1231.78 -1.09245 -0.985081 0
M  V30 13413 H 1233.74 -0.837167 -4.08714 0
M  V30 13414 H 1232.37 -0.0872582 -3.22682 0
M  V30 13415 H 1231.42 -2.48256 -2.88224 0
M  V30 13416 H 1232.73 -3.08587 -3.91887 0
M  V30 13417 H 1231.88 -1.70016 -5.82391 0
M  V30 13418 H 1230.62 -0.992964 -4.77485 0
M  V30 13419 H 1229.63 -3.27029 -4.41964 0
M  V30 13420 H 1230.85 -3.97909 -5.50314 0
M  V30 13421 H 1228.8 -1.87607 -6.28601 0
M  V30 13422 H 1228.72 -3.56483 -6.66675 0
M  V30 13423 H 1229.98 -2.59244 -7.35128 0
M  V30 13424 N 1234.21 1.05064 -1.1747 0
M  V30 13425 C 1235.44 1.82299 -0.98903 0
M  V30 13426 C 1235.86 1.82441 0.457907 0
M  V30 13427 O 1235.22 1.23433 1.32793 0
M  V30 13428 C 1235.27 3.26239 -1.53624 0
M  V30 13429 O 1234.37 4.05507 -0.750857 0
M  V30 13430 H 1233.71 0.563601 -0.35107 0
M  V30 13431 H 1236.24 1.32386 -1.55997 0
M  V30 13432 H 1236.25 3.77038 -1.55906 0
M  V30 13433 H 1234.93 3.25451 -2.58949 0
M  V30 13434 H 1233.51 3.64227 -0.799548 0
M  V30 13435 N 1235.69 0.975146 1.23809 0
M  V30 13436 C 1236.64 0.510761 2.25077 0
M  V30 13437 C 1237.61 -0.447605 1.59955 0
M  V30 13438 O 1238.79 -0.356318 1.87443 0
M  V30 13439 C 1235.93 -0.185755 3.446 0
M  V30 13440 C 1235.05 0.812254 4.24295 0
M  V30 13441 C 1234.18 0.0910835 5.31122 0
M  V30 13442 C 1233.22 1.07866 6.02521 0
M  V30 13443 N 1232.36 0.386995 7.01033 0
M  V30 13444 H 1237.2 1.37913 2.64166 0
M  V30 13445 H 1234.73 0.691184 1.2985 0
M  V30 13446 H 1236.69 -0.606341 4.1277 0
M  V30 13447 H 1235.32 -1.01803 3.06327 0
M  V30 13448 H 1234.37 1.35125 3.55592 0
M  V30 13449 H 1235.69 1.56502 4.73612 0
M  V30 13450 H 1234.84 -0.387129 6.05464 0
M  V30 13451 H 1233.58 -0.694324 4.82732 0
M  V30 13452 H 1232.58 1.56767 5.26976 0
M  V30 13453 H 1233.81 1.86464 6.52999 0
M  V30 13454 H 1231.76 -0.3793 6.54903 0
M  V30 13455 H 1231.67 1.0785 7.48268 0
M  V30 13456 H 1232.94 -0.0690036 7.79469 0
M  V30 13457 N 1237.17 -1.38817 0.746158 0
M  V30 13458 C 1238.12 -2.30521 0.113517 0
M  V30 13459 C 1239.09 -1.49795 -0.717682 0
M  V30 13460 O 1240.27 -1.78448 -0.675345 0
M  V30 13461 C 1237.41 -3.36185 -0.779343 0
M  V30 13462 C 1236.52 -4.3195 0.0656784 0
M  V30 13463 C 1235.66 -5.24684 -0.829492 0
M  V30 13464 C 1234.7 -6.12097 0.0196112 0
M  V30 13465 N 1233.84 -6.97152 -0.832107 0
M  V30 13466 H 1238.68 -2.84048 0.901136 0
M  V30 13467 H 1236.21 -1.39853 0.456025 0
M  V30 13468 H 1238.17 -3.96048 -1.31156 0
M  V30 13469 H 1236.8 -2.84085 -1.53282 0
M  V30 13470 H 1235.85 -3.73611 0.715445 0
M  V30 13471 H 1237.16 -4.93551 0.721735 0
M  V30 13472 H 1236.32 -5.89627 -1.42915 0
M  V30 13473 H 1235.06 -4.63431 -1.5193 0
M  V30 13474 H 1234.06 -5.46156 0.631991 0
M  V30 13475 H 1235.29 -6.75416 0.706369 0
M  V30 13476 H 1233.23 -6.38456 -1.507 0
M  V30 13477 H 1233.15 -7.55642 -0.232782 0
M  V30 13478 H 1234.42 -7.66513 -1.41697 0
M  V30 13479 N 1238.65 -0.49465 -1.49636 0
M  V30 13480 C 1239.58 0.276606 -2.31856 0
M  V30 13481 C 1240.56 0.968499 -1.39836 0
M  V30 13482 O 1241.74 0.96113 -1.68748 0
M  V30 13483 C 1238.87 1.34522 -3.20189 0
M  V30 13484 C 1237.83 0.773571 -4.20951 0
M  V30 13485 C 1237.15 1.94223 -4.98178 0
M  V30 13486 C 1238.45 -0.231096 -5.21788 0
M  V30 13487 H 1240.15 -0.409668 -2.96584 0
M  V30 13488 H 1237.69 -0.198461 -1.42626 0
M  V30 13489 H 1239.65 1.89244 -3.76517 0
M  V30 13490 H 1238.37 2.06059 -2.53392 0
M  V30 13491 H 1237.03 0.248144 -3.65759 0
M  V30 13492 H 1236.68 2.64514 -4.27834 0
M  V30 13493 H 1236.38 1.56584 -5.66353 0
M  V30 13494 H 1237.9 2.49391 -5.57348 0
M  V30 13495 H 1239.32 0.227768 -5.72847 0
M  V30 13496 H 1237.71 -0.522984 -5.97817 0
M  V30 13497 H 1238.78 -1.14914 -4.71087 0
M  V30 13498 N 1240.13 1.55939 -0.228214 0
M  V30 13499 C 1241.54 1.84612 0.278417 0
M  V30 13500 C 1241.89 1.14973 1.58983 0
M  V30 13501 O 1241.01 0.421673 2.12252 0
M  V30 13502 C 1241.61 3.3491 0.511935 0
M  V30 13503 C 1240.17 3.63876 0.962861 0
M  V30 13504 C 1239.31 2.77284 0.0296246 0
M  V30 13505 H 1242.26 1.52149 -0.451245 0
M  V30 13506 H 1242.29 3.55477 1.35707 0
M  V30 13507 H 1241.8 3.85567 -0.442697 0
M  V30 13508 H 1239.9 3.18682 1.93062 0
M  V30 13509 H 1240.01 4.71809 0.832659 0
M  V30 13510 H 1238.38 2.48961 0.53763 0
M  V30 13511 H 1239.16 3.30742 -0.920044 0
M  V30 13512 N 1241.6 -0.0451101 1.57535 0
M  V30 13513 C 1242.85 -0.738072 1.87711 0
M  V30 13514 C 1243.17 -1.7737 0.824579 0
M  V30 13515 O 1244.37 -2.51812 1.01503 0
M  V30 13516 C 1242.83 -1.36373 3.33062 0
M  V30 13517 C 1242.44 -0.365283 4.46508 0
M  V30 13518 C 1244.18 -2.0375 3.72406 0
M  V30 13519 C 1242.09 -0.998371 5.82912 0
M  V30 13520 H 1241.02 -0.279413 0.700317 0
M  V30 13521 H 1243.67 0.00802425 1.83498 0
M  V30 13522 H 1242.05 -2.15899 3.31969 0
M  V30 13523 H 1243.22 0.402102 4.59042 0
M  V30 13524 H 1241.54 0.205505 4.15893 0
M  V30 13525 H 1244.14 -2.51939 4.71625 0
M  V30 13526 H 1244.48 -2.84869 3.03571 0
M  V30 13527 H 1245.01 -1.3102 3.75604 0
M  V30 13528 H 1241.75 -0.226935 6.55107 0
M  V30 13529 H 1241.27 -1.73598 5.74129 0
M  V30 13530 H 1242.95 -1.51044 6.29122 0
M  V30 13531 N 1243.08 -1.54377 -0.317073 0
M  V30 13532 C 1244.31 -1.76865 -1.07362 0
M  V30 13533 C 1244.73 -0.520354 -1.81488 0
M  V30 13534 O 1244.08 0.509213 -1.75252 0
M  V30 13535 C 1244.13 -2.96598 -2.06668 0
M  V30 13536 O 1243.85 -4.16602 -1.35552 0
M  V30 13537 C 1245.36 -3.31348 -2.94489 0
M  V30 13538 H 1242.58 -0.590277 -0.319083 0
M  V30 13539 H 1245.12 -2.01284 -0.361227 0
M  V30 13540 H 1243.27 -2.74433 -2.73432 0
M  V30 13541 H 1243.69 -4.83996 -2.02108 0
M  V30 13542 H 1245.16 -4.1841 -3.60051 0
M  V30 13543 H 1245.64 -2.48797 -3.61935 0
M  V30 13544 H 1246.25 -3.55614 -2.33278 0
M  V30 13545 N 1244.56 0.579466 -1.4656 0
M  V30 13546 C 1245.98 0.903163 -1.31587 0
M  V30 13547 C 1246.18 1.99406 -0.28972 0
M  V30 13548 O 1245.23 2.50632 0.30658 0
M  V30 13549 C 1246.55 1.31745 -2.70303 0
M  V30 13550 C 1248.09 1.43012 -2.78418 0
M  V30 13551 C 1248.57 1.87805 -4.17724 0
M  V30 13552 N 1250.06 1.94993 -4.20157 0
M  V30 13553 C 1250.79 2.30934 -5.2484 0
M  V30 13554 N 1250.29 2.65645 -6.39847 0
M  V30 13555 N 1252.08 2.31517 -5.12207 0
M  V30 13556 H 1244.23 -0.141111 -2.11931 0
M  V30 13557 H 1246.5 -0.000460304 -0.948 0
M  V30 13558 H 1246.2 0.589864 -3.46718 0
M  V30 13559 H 1246.08 2.2783 -3.00622 0
M  V30 13560 H 1248.46 2.14856 -2.02289 0
M  V30 13561 H 1248.55 0.451701 -2.5178 0
M  V30 13562 H 1248.19 1.16539 -4.94349 0
M  V30 13563 H 1248.12 2.86611 -4.41771 0
M  V30 13564 H 1250.61 1.70645 -3.37178 0
M  V30 13565 H 1250.92 2.92032 -7.15498 0
M  V30 13566 H 1249.27 2.63276 -6.43204 0
M  V30 13567 H 1252.46 2.03824 -4.21394 0
M  V30 13568 H 1252.63 2.59199 -5.93902 0
M  V30 13569 N 1246.04 1.3432 0.824371 0
M  V30 13570 C 1246.99 1.25776 1.93517 0
M  V30 13571 C 1247.96 0.133298 1.65564 0
M  V30 13572 O 1249.14 0.31403 1.88198 0
M  V30 13573 C 1246.28 1.01766 3.29754 0
M  V30 13574 C 1245.39 2.22973 3.7001 0
M  V30 13575 C 1244.53 1.92258 4.95187 0
M  V30 13576 C 1243.57 3.09616 5.2802 0
M  V30 13577 N 1242.7 2.78793 6.44375 0
M  V30 13578 H 1247.54 2.20774 2.00157 0
M  V30 13579 H 1245.08 1.09766 0.979274 0
M  V30 13580 H 1247.04 0.858831 4.08265 0
M  V30 13581 H 1245.67 0.10437 3.22631 0
M  V30 13582 H 1244.72 2.49781 2.86903 0
M  V30 13583 H 1246.03 3.10661 3.90245 0
M  V30 13584 H 1245.19 1.73102 5.81481 0
M  V30 13585 H 1243.93 1.01827 4.76951 0
M  V30 13586 H 1242.93 3.29368 4.40223 0
M  V30 13587 H 1244.16 4.00822 5.48196 0
M  V30 13588 H 1242.1 1.90938 6.27598 0
M  V30 13589 H 1242.02 3.60014 6.64775 0
M  V30 13590 H 1243.29 2.63139 7.33743 0
M  V30 13591 N 1247.52 -1.0444 1.18026 0
M  V30 13592 C 1248.76 -1.77575 0.973314 0
M  V30 13593 C 1249.09 -1.88032 -0.4974 0
M  V30 13594 O 1248.35 -1.38214 -1.38548 0
M  V30 13595 C 1248.65 -3.21134 1.56869 0
M  V30 13596 C 1248.31 -3.30718 3.0649 0
M  V30 13597 C 1246.97 -3.33041 3.47328 0
M  V30 13598 C 1249.33 -3.3112 4.02503 0
M  V30 13599 C 1246.65 -3.33404 4.82762 0
M  V30 13600 C 1249.01 -3.33023 5.37846 0
M  V30 13601 C 1247.67 -3.33636 5.78138 0
M  V30 13602 H 1246.94 -0.649793 0.356161 0
M  V30 13603 H 1249.59 -1.22693 1.47033 0
M  V30 13604 H 1247.89 -3.78992 0.993584 0
M  V30 13605 H 1249.59 -3.76358 1.38404 0
M  V30 13606 H 1246.18 -3.29628 2.7394 0
M  V30 13607 H 1250.36 -3.2852 3.72006 0
M  V30 13608 H 1245.62 -3.32194 5.13281 0
M  V30 13609 H 1249.79 -3.32283 6.12014 0
M  V30 13610 H 1247.42 -3.33671 6.83058 0
M  V30 13611 N 1248.99 -0.981699 -1.2329 0
M  V30 13612 C 1250.22 -0.668399 -1.95489 0
M  V30 13613 C 1250.63 0.768976 -1.72868 0
M  V30 13614 O 1249.98 1.52925 -1.01783 0
M  V30 13615 C 1250.04 -0.880535 -3.4855 0
M  V30 13616 C 1249.7 -2.30023 -3.9489 0
M  V30 13617 C 1250.7 -3.27899 -4.03458 0
M  V30 13618 C 1248.38 -2.63167 -4.27842 0
M  V30 13619 C 1250.38 -4.56999 -4.44332 0
M  V30 13620 C 1248.06 -3.92489 -4.68397 0
M  V30 13621 C 1249.06 -4.89216 -4.76609 0
M  V30 13622 O 1248.75 -6.16229 -5.16253 0
M  V30 13623 H 1248.48 -0.247255 -0.629159 0
M  V30 13624 H 1251.04 -1.31606 -1.57699 0
M  V30 13625 H 1249.27 -0.175698 -3.86301 0
M  V30 13626 H 1250.96 -0.564198 -4.0196 0
M  V30 13627 H 1251.72 -3.03624 -3.78203 0
M  V30 13628 H 1247.6 -1.88588 -4.20661 0
M  V30 13629 H 1251.14 -5.32498 -4.50656 0
M  V30 13630 H 1247.04 -4.16558 -4.93102 0
M  V30 13631 H 1247.81 -6.20001 -5.34361 0
M  V30 13632 N 1250.47 1.3842 -0.753509 0
M  V30 13633 C 1251.44 2.28808 -0.134022 0
M  V30 13634 C 1252.44 1.47184 0.647583 0
M  V30 13635 O 1253.63 1.67631 0.473861 0
M  V30 13636 C 1250.76 3.30926 0.81858 0
M  V30 13637 H 1251.95 2.85097 -0.930586 0
M  V30 13638 H 1249.5 1.47378 -0.520514 0
M  V30 13639 H 1250.24 2.79728 1.64082 0
M  V30 13640 H 1250.02 3.91234 0.260526 0
M  V30 13641 H 1251.51 3.98515 1.24802 0
M  V30 13642 N 1251.95 0.502579 1.49372 0
M  V30 13643 C 1253.2 -0.041381 2.02458 0
M  V30 13644 C 1253.53 -1.36848 1.38213 0
M  V30 13645 O 1252.78 -1.89003 0.507568 0
M  V30 13646 C 1253.08 -0.240835 3.56588 0
M  V30 13647 C 1252.75 1.00846 4.39478 0
M  V30 13648 C 1251.41 1.35091 4.61848 0
M  V30 13649 C 1253.76 1.8388 4.87686 0
M  V30 13650 C 1251.09 2.52318 5.29672 0
M  V30 13651 C 1253.44 3.00262 5.56799 0
M  V30 13652 C 1252.1 3.34885 5.77415 0
M  V30 13653 H 1251.37 -0.0151424 0.740845 0
M  V30 13654 H 1254.02 0.663056 1.79655 0
M  V30 13655 H 1252.33 -1.02781 3.78078 0
M  V30 13656 H 1254.02 -0.676194 3.95258 0
M  V30 13657 H 1250.61 0.731719 4.22308 0
M  V30 13658 H 1254.8 1.58738 4.7023 0
M  V30 13659 H 1250.05 2.79379 5.43836 0
M  V30 13660 H 1254.23 3.64927 5.93128 0
M  V30 13661 H 1251.85 4.25824 6.29744 0
M  V30 13662 N 1253.43 -1.55816 0.23648 0
M  V30 13663 C 1254.66 -2.02789 -0.39501 0
M  V30 13664 C 1255.07 -1.1153 -1.52832 0
M  V30 13665 O 1254.41 -0.120084 -1.83307 0
M  V30 13666 C 1254.47 -3.46052 -0.974066 0
M  V30 13667 C 1254.14 -4.56993 0.0256825 0
M  V30 13668 C 1255.13 -5.13208 0.831477 0
M  V30 13669 C 1252.82 -5.0208 0.148759 0
M  V30 13670 C 1254.81 -6.12994 1.74691 0
M  V30 13671 C 1252.5 -6.017 1.0677 0
M  V30 13672 C 1253.5 -6.57035 1.86531 0
M  V30 13673 O 1253.18 -7.54714 2.76878 0
M  V30 13674 H 1252.92 -0.668672 -0.0992687 0
M  V30 13675 H 1255.47 -2.02312 0.354826 0
M  V30 13676 H 1253.7 -3.43645 -1.77327 0
M  V30 13677 H 1255.39 -3.76586 -1.51453 0
M  V30 13678 H 1256.16 -4.79214 0.746922 0
M  V30 13679 H 1252.03 -4.58679 -0.461976 0
M  V30 13680 H 1255.58 -6.56111 2.36989 0
M  V30 13681 H 1251.48 -6.35115 1.15322 0
M  V30 13682 H 1252.24 -7.72292 2.71122 0
M  V30 13683 N 1254.91 0.036755 -1.57557 0
M  V30 13684 C 1255.86 1.04744 -2.02516 0
M  V30 13685 C 1256.84 1.3248 -0.913116 0
M  V30 13686 O 1258.03 1.32194 -1.17702 0
M  V30 13687 C 1255.16 2.3509 -2.50175 0
M  V30 13688 C 1254.25 2.10478 -3.68185 0
M  V30 13689 N 1254.64 1.55899 -4.81175 0
M  V30 13690 C 1252.94 2.40797 -3.7541 0
M  V30 13691 C 1253.64 1.46913 -5.62842 0
M  V30 13692 N 1252.61 1.94202 -5.07727 0
M  V30 13693 H 1256.42 0.619342 -2.873 0
M  V30 13694 H 1253.93 0.243208 -1.60569 0
M  V30 13695 H 1255.93 3.08297 -2.8064 0
M  V30 13696 H 1254.59 2.78586 -1.66793 0
M  V30 13697 H 1255.6 1.24275 -5.02769 0
M  V30 13698 H 1252.27 2.8742 -3.02813 0
M  V30 13699 H 1253.66 1.0527 -6.63602 0
M  V30 13700 N 1256.39 1.54543 0.308881 0
M  V30 13701 C 1257.35 1.84214 1.36374 0
M  V30 13702 C 1258.35 0.71463 1.44047 0
M  V30 13703 O 1259.54 0.98293 1.4382 0
M  V30 13704 C 1256.67 2.01535 2.74948 0
M  V30 13705 H 1257.86 2.78477 1.11314 0
M  V30 13706 H 1255.42 1.46485 0.545141 0
M  V30 13707 H 1256.15 1.09533 3.05242 0
M  V30 13708 H 1255.94 2.83595 2.7077 0
M  V30 13709 H 1257.43 2.25888 3.51233 0
M  V30 13710 N 1257.86 -0.571685 1.46866 0
M  V30 13711 C 1259.27 -1.15383 1.46778 0
M  V30 13712 C 1259.63 -1.95023 0.214576 0
M  V30 13713 O 1258.75 -2.05386 -0.681574 0
M  V30 13714 C 1259.35 -2.09915 2.65935 0
M  V30 13715 C 1257.9 -2.6343 2.68852 0
M  V30 13716 C 1257.05 -1.39517 2.39646 0
M  V30 13717 H 1260 -0.359036 1.54585 0
M  V30 13718 H 1260.02 -2.9356 2.42081 0
M  V30 13719 H 1259.54 -1.51923 3.57129 0
M  V30 13720 H 1257.64 -3.2526 1.8176 0
M  V30 13721 H 1257.75 -3.05412 3.69134 0
M  V30 13722 H 1256.11 -1.69702 1.8993 0
M  V30 13723 H 1256.9 -0.833399 3.33031 0
M  V30 13724 N 1259.34 -1.34755 -0.817236 0
M  V30 13725 C 1260.59 -1.26771 -1.56882 0
M  V30 13726 C 1260.9 0.158962 -1.94953 0
M  V30 13727 O 1262.11 0.360996 -2.69089 0
M  V30 13728 C 1260.57 -2.22261 -2.83069 0
M  V30 13729 C 1260.17 -3.70216 -2.52277 0
M  V30 13730 C 1261.92 -2.23197 -3.61086 0
M  V30 13731 C 1259.82 -4.57559 -3.74691 0
M  V30 13732 H 1258.75 -0.470961 -0.588822 0
M  V30 13733 H 1261.41 -1.59955 -0.899254 0
M  V30 13734 H 1259.79 -1.82036 -3.5168 0
M  V30 13735 H 1260.96 -4.19014 -1.9174 0
M  V30 13736 H 1259.28 -3.71784 -1.87525 0
M  V30 13737 H 1261.87 -2.85673 -4.5199 0
M  V30 13738 H 1262.22 -1.2328 -3.97628 0
M  V30 13739 H 1262.75 -2.61897 -2.99424 0
M  V30 13740 H 1259.49 -5.58434 -3.43267 0
M  V30 13741 H 1259.01 -4.13494 -4.34491 0
M  V30 13742 H 1260.69 -4.72451 -4.42039 0
M  V30 13743 N 1260.82 1.03812 -1.18578 0
M  V30 13744 C 1262.07 1.77319 -0.984173 0
M  V30 13745 C 1262.4 1.88052 0.484789 0
M  V30 13746 O 1261.67 1.3905 1.35998 0
M  V30 13747 C 1261.96 3.20448 -1.6427 0
M  V30 13748 C 1261.81 3.17643 -3.1847 0
M  V30 13749 C 1263.13 4.18623 -1.35805 0
M  V30 13750 H 1260.25 0.643681 -0.358949 0
M  V30 13751 H 1262.89 1.21249 -1.46283 0
M  V30 13752 H 1261.04 3.68324 -1.23572 0
M  V30 13753 H 1262.71 2.77738 -3.6832 0
M  V30 13754 H 1260.95 2.55606 -3.50497 0
M  V30 13755 H 1261.63 4.18724 -3.59686 0
M  V30 13756 H 1264.1 3.79306 -1.71073 0
M  V30 13757 H 1262.98 5.16982 -1.84446 0
M  V30 13758 H 1263.24 4.41203 -0.281418 0
M  V30 13759 N 1262.3 0.988223 1.22768 0
M  V30 13760 C 1263.24 0.534605 2.24523 0
M  V30 13761 C 1264.21 -0.430615 1.60421 0
M  V30 13762 O 1265.4 -0.336417 1.87811 0
M  V30 13763 C 1262.54 -0.149195 3.44777 0
M  V30 13764 C 1261.65 0.85721 4.2341 0
M  V30 13765 C 1260.79 0.147411 5.30995 0
M  V30 13766 C 1259.83 1.1425 6.01343 0
M  V30 13767 N 1258.96 0.461327 7.00583 0
M  V30 13768 H 1263.8 1.40708 2.62689 0
M  V30 13769 H 1261.34 0.704918 1.2911 0
M  V30 13770 H 1263.3 -0.562527 4.1339 0
M  V30 13771 H 1261.93 -0.985485 3.07389 0
M  V30 13772 H 1260.98 1.38889 3.54138 0
M  V30 13773 H 1262.29 1.61517 4.71926 0
M  V30 13774 H 1261.45 -0.32289 6.0584 0
M  V30 13775 H 1260.19 -0.643085 4.83442 0
M  V30 13776 H 1259.19 1.62348 5.25284 0
M  V30 13777 H 1260.42 1.93379 6.50985 0
M  V30 13778 H 1258.36 -0.309818 6.55268 0
M  V30 13779 H 1258.28 1.15781 7.47082 0
M  V30 13780 H 1259.55 0.0136734 7.79499 0
M  V30 13781 N 1263.78 -1.38018 0.760839 0
M  V30 13782 C 1265.02 -1.99952 0.320241 0
M  V30 13783 C 1265.35 -1.60397 -1.10014 0
M  V30 13784 O 1264.61 -0.836407 -1.76926 0
M  V30 13785 C 1264.9 -3.55168 0.398778 0
M  V30 13786 C 1264.57 -4.14457 1.77585 0
M  V30 13787 C 1263.23 -4.30363 2.15269 0
M  V30 13788 C 1265.58 -4.47089 2.67883 0
M  V30 13789 C 1262.91 -4.762 3.4271 0
M  V30 13790 C 1265.26 -4.94345 3.94722 0
M  V30 13791 C 1263.93 -5.08458 4.32466 0
M  V30 13792 H 1263.2 -0.731675 0.117185 0
M  V30 13793 H 1265.85 -1.64955 0.972736 0
M  V30 13794 H 1264.15 -3.90346 -0.337273 0
M  V30 13795 H 1265.85 -4.00981 0.0393393 0
M  V30 13796 H 1262.44 -4.02496 1.47292 0
M  V30 13797 H 1266.62 -4.34395 2.40031 0
M  V30 13798 H 1261.88 -4.85312 3.71863 0
M  V30 13799 H 1266.05 -5.18563 4.64828 0
M  V30 13800 H 1263.68 -5.43735 5.31278 0
M  V30 13801 N 1265.25 -0.510493 -1.49103 0
M  V30 13802 C 1266.5 0.0226445 -2.03387 0
M  V30 13803 C 1266.85 1.33817 -1.38242 0
M  V30 13804 O 1266.15 1.84625 -0.512282 0
M  V30 13805 C 1266.34 0.221921 -3.5671 0
M  V30 13806 C 1266.17 -1.07273 -4.36718 0
M  V30 13807 C 1264.94 -1.62719 -4.78383 0
M  V30 13808 C 1267.14 -1.97844 -4.74723 0
M  V30 13809 N 1265.12 -2.86676 -5.42854 0
M  V30 13810 C 1266.49 -3.06378 -5.3901 0
M  V30 13811 C 1268.55 -1.98407 -4.56661 0
M  V30 13812 C 1267.25 -4.15515 -5.87145 0
M  V30 13813 C 1269.28 -3.06525 -5.05763 0
M  V30 13814 C 1268.64 -4.13778 -5.70059 0
M  V30 13815 H 1264.74 -0.0327303 -0.781315 0
M  V30 13816 H 1267.32 -0.687457 -1.8216 0
M  V30 13817 H 1265.49 0.901088 -3.77803 0
M  V30 13818 H 1267.22 0.752916 -3.97635 0
M  V30 13819 H 1263.98 -1.17109 -4.58893 0
M  V30 13820 H 1264.4 -3.49733 -5.79669 0
M  V30 13821 H 1269.04 -1.16789 -4.0635 0
M  V30 13822 H 1266.76 -4.97925 -6.36472 0
M  V30 13823 H 1270.35 -3.07992 -4.93591 0
M  V30 13824 H 1269.23 -4.96061 -6.07366 0
M  V30 13825 N 1266.73 1.55688 -0.24474 0
M  V30 13826 C 1267.98 1.98891 0.380603 0
M  V30 13827 C 1268.31 1.13283 1.58105 0
M  V30 13828 O 1267.56 0.183141 1.94841 0
M  V30 13829 C 1267.86 3.47487 0.835923 0
M  V30 13830 C 1267.53 4.5017 -0.256528 0
M  V30 13831 C 1266.19 4.7797 -0.556573 0
M  V30 13832 C 1268.54 5.1163 -0.994174 0
M  V30 13833 C 1265.87 5.64508 -1.59838 0
M  V30 13834 C 1268.22 5.99297 -2.02548 0
M  V30 13835 C 1266.88 6.25432 -2.3322 0
M  V30 13836 H 1266.15 0.727794 0.139273 0
M  V30 13837 H 1268.8 1.88235 -0.352113 0
M  V30 13838 H 1267.11 3.55464 1.64781 0
M  V30 13839 H 1268.8 3.78301 1.33001 0
M  V30 13840 H 1265.39 4.28598 -0.0125284 0
M  V30 13841 H 1269.58 4.90202 -0.775617 0
M  V30 13842 H 1264.83 5.83012 -1.84138 0
M  V30 13843 H 1269.01 6.45964 -2.60198 0
M  V30 13844 H 1266.63 6.92282 -3.14085 0
M  V30 13845 N 1268.21 -0.0283989 1.57574 0
M  V30 13846 C 1269.16 -1.04723 2.07692 0
M  V30 13847 C 1270.15 -1.37399 0.990847 0
M  V30 13848 O 1271.36 -1.36297 1.17572 0
M  V30 13849 H 1267.73 -0.355251 0.662798 0
M  V30 13850 H 1269.7 -0.598737 2.92331 0
M  V30 13851 C 1268.45 -2.33941 2.57229 0
M  V30 13852 H 1267.78 -2.09659 3.40416 0
M  V30 13853 H 1269.22 -3.03574 2.96005 0
M  V30 13854 C 1267.67 -3.02953 1.47381 0
M  V30 13855 O 1268.2 -3.9281 0.840431 0
M  V30 13856 N 1266.41 -2.64294 1.20819 0
M  V30 13857 H 1265.96 -1.91307 1.72509 0
M  V30 13858 H 1265.92 -3.10786 0.475353 0
M  V30 13859 N 1269.69 -1.54705 -0.300681 0
M  V30 13860 C 1270.92 -1.77993 -1.0548 0
M  V30 13861 C 1271.33 -0.539574 -1.80926 0
M  V30 13862 O 1270.69 0.490597 -1.75782 0
M  V30 13863 C 1270.74 -2.98774 -2.0351 0
M  V30 13864 O 1270.46 -4.18016 -1.31126 0
M  V30 13865 C 1271.96 -3.34452 -2.90958 0
M  V30 13866 H 1269.18 -0.593628 -0.312805 0
M  V30 13867 H 1271.72 -2.01656 -0.339858 0
M  V30 13868 H 1269.88 -2.77318 -2.70506 0
M  V30 13869 H 1270.29 -4.86113 -1.96963 0
M  V30 13870 H 1271.77 -4.22206 -3.55593 0
M  V30 13871 H 1272.24 -2.52622 -3.59275 0
M  V30 13872 H 1272.85 -3.58069 -2.29493 0
M  V30 13873 N 1271.17 0.563888 -1.47167 0
M  V30 13874 C 1272.1 1.68137 -1.62025 0
M  V30 13875 C 1273.08 1.63481 -0.469899 0
M  V30 13876 O 1274.26 1.81206 -0.698432 0
M  V30 13877 C 1271.39 3.06779 -1.62801 0
M  V30 13878 C 1270.35 3.26278 -2.76996 0
M  V30 13879 C 1269.67 4.65638 -2.62841 0
M  V30 13880 C 1270.97 3.12295 -4.18651 0
M  V30 13881 H 1272.67 1.55958 -2.55573 0
M  V30 13882 H 1270.21 0.74887 -1.22996 0
M  V30 13883 H 1272.17 3.84795 -1.71787 0
M  V30 13884 H 1270.89 3.19901 -0.658097 0
M  V30 13885 H 1269.55 2.50668 -2.67509 0
M  V30 13886 H 1269.2 4.75551 -1.63892 0
M  V30 13887 H 1268.9 4.79635 -3.39447 0
M  V30 13888 H 1270.42 5.45798 -2.73746 0
M  V30 13889 H 1271.83 3.80136 -4.2915 0
M  V30 13890 H 1270.23 3.37805 -4.95992 0
M  V30 13891 H 1271.3 2.09126 -4.37486 0
M  V30 13892 N 1272.64 1.35187 0.810078 0
M  V30 13893 C 1273.61 1.27698 1.90331 0
M  V30 13894 C 1274.61 0.189216 1.59683 0
M  V30 13895 O 1275.8 0.442689 1.68481 0
M  V30 13896 C 1272.93 0.974631 3.26671 0
M  V30 13897 H 1274.12 2.24902 1.98392 0
M  V30 13898 H 1271.68 1.1966 1.00554 0
M  V30 13899 H 1272.41 0.0063068 3.24299 0
M  V30 13900 H 1272.2 1.76158 3.50301 0
M  V30 13901 H 1273.69 0.947743 4.06703 0
M  V30 13902 N 1274.12 -1.03182 1.19127 0
M  V30 13903 C 1275.35 -1.79904 1.01578 0
M  V30 13904 C 1275.76 -1.84044 -0.438697 0
M  V30 13905 O 1275.1 -1.28117 -1.3165 0
M  V30 13906 C 1275.17 -3.26473 1.50519 0
M  V30 13907 C 1274.83 -3.45975 2.98581 0
M  V30 13908 C 1275.83 -3.36436 3.96367 0
M  V30 13909 C 1273.51 -3.72284 3.37209 0
M  V30 13910 C 1275.51 -3.52925 5.30775 0
M  V30 13911 C 1273.19 -3.8842 4.71777 0
M  V30 13912 C 1274.19 -3.78742 5.68369 0
M  V30 13913 O 1273.88 -3.94405 7.005 0
M  V30 13914 H 1273.61 -0.573103 0.35851 0
M  V30 13915 H 1276.16 -1.30871 1.5831 0
M  V30 13916 H 1274.39 -3.76517 0.881593 0
M  V30 13917 H 1276.08 -3.84781 1.29223 0
M  V30 13918 H 1276.85 -3.16064 3.6787 0
M  V30 13919 H 1272.73 -3.78911 2.62579 0
M  V30 13920 H 1276.27 -3.45288 6.06153 0
M  V30 13921 H 1272.17 -4.08288 4.99971 0
M  V30 13922 H 1272.94 -4.11514 7.0753 0
M  V30 13923 N 1275.6 -0.99472 -1.22242 0
M  V30 13924 C 1276.53 -0.566499 -2.26524 0
M  V30 13925 C 1277.51 0.407541 -1.65146 0
M  V30 13926 O 1278.7 0.297777 -1.91903 0
M  V30 13927 C 1275.83 0.11786 -3.471 0
M  V30 13928 C 1274.78 -0.774908 -4.20927 0
M  V30 13929 C 1274.11 0.0424687 -5.34683 0
M  V30 13930 C 1275.41 -2.07263 -4.79416 0
M  V30 13931 H 1277.1 -1.43818 -2.62596 0
M  V30 13932 H 1274.65 -0.692971 -1.2623 0
M  V30 13933 H 1276.6 0.428842 -4.19212 0
M  V30 13934 H 1275.32 1.0241 -3.10129 0
M  V30 13935 H 1273.98 -1.06956 -3.50651 0
M  V30 13936 H 1273.63 0.949677 -4.93954 0
M  V30 13937 H 1273.33 -0.551867 -5.85003 0
M  V30 13938 H 1274.85 0.347504 -6.0961 0
M  V30 13939 H 1276.27 -1.82548 -5.4346 0
M  V30 13940 H 1274.67 -2.61594 -5.40082 0
M  V30 13941 H 1275.74 -2.75017 -3.99366 0
M  V30 13942 N 1277.08 1.37613 -0.768148 0
M  V30 13943 C 1278.33 1.99384 -0.330187 0
M  V30 13944 C 1278.65 1.61283 1.09604 0
M  V30 13945 O 1277.92 0.876551 1.75195 0
M  V30 13946 H 1276.5 0.737445 -0.119095 0
M  V30 13947 H 1279.16 1.6815 -0.985476 0
M  V30 13948 H 1278.26 3.09462 -0.40494 0
M  V30 13949 N 1278.56 0.518393 1.4883 0
M  V30 13950 C 1279.8 -0.0199053 2.0249 0
M  V30 13951 C 1280.13 -1.35375 1.39657 0
M  V30 13952 O 1279.39 -1.88454 0.527586 0
M  V30 13953 C 1279.69 -0.203001 3.56823 0
M  V30 13954 C 1279.35 1.05502 4.38384 0
M  V30 13955 C 1278.01 1.39982 4.60389 0
M  V30 13956 C 1280.37 1.89042 4.85708 0
M  V30 13957 C 1277.69 2.57922 5.26966 0
M  V30 13958 C 1280.05 3.06151 5.53583 0
M  V30 13959 C 1278.71 3.40991 5.73831 0
M  V30 13960 H 1277.98 -0.00728388 0.740964 0
M  V30 13961 H 1280.63 0.682073 1.78941 0
M  V30 13962 H 1278.93 -0.987653 3.79147 0
M  V30 13963 H 1280.63 -0.634234 3.95953 0
M  V30 13964 H 1277.22 0.77647 4.21508 0
M  V30 13965 H 1281.4 1.63716 4.6852 0
M  V30 13966 H 1276.66 2.85132 5.40842 0
M  V30 13967 H 1280.83 3.71198 5.89224 0
M  V30 13968 H 1278.46 4.32479 6.25193 0
M  V30 13969 N 1280.03 -1.55556 0.252993 0
M  V30 13970 C 1280.96 -2.24613 -0.638047 0
M  V30 13971 C 1281.95 -1.22852 -1.1765 0
M  V30 13972 O 1283.13 -1.51519 -1.21472 0
M  V30 13973 C 1280.26 -2.95029 -1.83236 0
M  V30 13974 C 1279.21 -4.03531 -1.42641 0
M  V30 13975 C 1278.54 -4.61404 -2.70204 0
M  V30 13976 C 1279.84 -5.18923 -0.592958 0
M  V30 13977 H 1281.53 -2.99335 -0.0621918 0
M  V30 13978 H 1279.08 -1.43972 -0.0284722 0
M  V30 13979 H 1281.03 -3.42042 -2.46141 0
M  V30 13980 H 1279.76 -2.17805 -2.43369 0
M  V30 13981 H 1278.42 -3.57296 -0.820672 0
M  V30 13982 H 1278.06 -3.80874 -3.28548 0
M  V30 13983 H 1277.76 -5.34652 -2.43764 0
M  V30 13984 H 1279.29 -5.11154 -3.33997 0
M  V30 13985 H 1280.7 -5.62124 -1.12646 0
M  V30 13986 H 1279.1 -5.98598 -0.424358 0
M  V30 13987 H 1280.17 -4.83301 0.393434 0
M  V30 13988 N 1281.51 0.0200419 -1.57587 0
M  V30 13989 C 1282.45 1.05118 -2.02547 0
M  V30 13990 C 1283.42 1.3465 -0.911494 0
M  V30 13991 O 1284.61 1.47154 -1.17805 0
M  V30 13992 C 1281.73 2.38373 -2.40615 0
M  V30 13993 C 1280.78 2.24639 -3.62546 0
M  V30 13994 S 1281.61 1.59129 -5.1131 0
M  V30 13995 C 1282.77 2.93856 -5.5263 0
M  V30 13996 H 1283 0.668271 -2.89692 0
M  V30 13997 H 1280.54 0.230301 -1.52673 0
M  V30 13998 H 1282.49 3.15002 -2.63218 0
M  V30 13999 H 1281.15 2.7381 -1.53906 0
M  V30 14000 H 1280.35 3.23032 -3.86867 0
M  V30 14001 H 1279.95 1.56153 -3.39841 0
M  V30 14002 H 1282.24 3.90179 -5.53865 0
M  V30 14003 H 1283.18 2.74258 -6.52831 0
M  V30 14004 H 1283.59 2.96844 -4.8015 0
M  V30 14005 N 1282.99 1.54862 0.292472 0
M  V30 14006 C 1283.92 1.89406 1.36556 0
M  V30 14007 C 1284.9 0.753838 1.52484 0
M  V30 14008 O 1286.09 1.01031 1.6585 0
M  V30 14009 C 1283.22 2.14888 2.72838 0
M  V30 14010 C 1282.17 3.3073 2.71665 0
M  V30 14011 C 1281.5 3.41648 4.11316 0
M  V30 14012 C 1282.8 4.67622 2.32651 0
M  V30 14013 H 1284.49 2.79284 1.07894 0
M  V30 14014 H 1282.04 1.34377 0.517585 0
M  V30 14015 H 1283.99 2.3764 3.48002 0
M  V30 14016 H 1282.71 1.2179 3.03042 0
M  V30 14017 H 1281.37 3.07915 1.98958 0
M  V30 14018 H 1281.02 2.46051 4.38711 0
M  V30 14019 H 1280.72 4.19522 4.11431 0
M  V30 14020 H 1282.24 3.6667 4.88248 0
M  V30 14021 H 1283.66 4.90048 2.97533 0
M  V30 14022 H 1282.06 5.48272 2.43963 0
M  V30 14023 H 1283.13 4.67762 1.27777 0
M  V30 14024 N 1284.47 -0.556076 1.47464 0
M  V30 14025 C 1285.7 -1.33664 1.57536 0
M  V30 14026 C 1286.11 -1.87858 0.224977 0
M  V30 14027 O 1285.45 -1.65746 -0.792091 0
M  V30 14028 C 1285.51 -2.54257 2.54152 0
M  V30 14029 C 1285.18 -2.21342 3.99821 0
M  V30 14030 C 1286.17 -1.78568 4.88272 0
M  V30 14031 C 1283.86 -2.32666 4.45165 0
M  V30 14032 C 1285.85 -1.47549 6.20087 0
M  V30 14033 C 1283.54 -2.0126 5.77008 0
M  V30 14034 C 1284.54 -1.58769 6.6429 0
M  V30 14035 O 1284.22 -1.27762 7.93683 0
M  V30 14036 H 1283.96 -0.413721 0.534613 0
M  V30 14037 H 1286.51 -0.680342 1.93805 0
M  V30 14038 H 1284.74 -3.22782 2.12952 0
M  V30 14039 H 1286.43 -3.16332 2.5434 0
M  V30 14040 H 1287.2 -1.69311 4.54487 0
M  V30 14041 H 1283.07 -2.64698 3.77433 0
M  V30 14042 H 1286.62 -1.1431 6.88171 0
M  V30 14043 H 1282.52 -2.10149 6.10334 0
M  V30 14044 H 1283.28 -1.41383 8.06197 0
M  V30 14045 N 1285.95 -1.35615 -0.802897 0
M  V30 14046 C 1287.18 -1.32217 -1.59142 0
M  V30 14047 C 1287.59 0.0995496 -1.88537 0
M  V30 14048 O 1286.95 1.05258 -1.49087 0
M  V30 14049 C 1287 -2.13048 -2.92049 0
M  V30 14050 O 1286.72 -3.49677 -2.63927 0
M  V30 14051 C 1288.22 -2.17278 -3.864 0
M  V30 14052 H 1285.44 -0.454054 -0.49404 0
M  V30 14053 H 1287.98 -1.78521 -0.997516 0
M  V30 14054 H 1286.14 -1.70334 -3.47944 0
M  V30 14055 H 1286.55 -3.917 -3.48814 0
M  V30 14056 H 1288.03 -2.7822 -4.76758 0
M  V30 14057 H 1288.5 -1.17253 -4.23259 0
M  V30 14058 H 1289.11 -2.6017 -3.3644 0
M  V30 14059 N 1287.43 1.02549 -1.19673 0
M  V30 14060 C 1288.67 1.76004 -1.00144 0
M  V30 14061 C 1289 1.888 0.467423 0
M  V30 14062 O 1288.26 1.404 1.36331 0
M  V30 14063 C 1288.55 3.18597 -1.61959 0
M  V30 14064 C 1288.22 3.258 -3.11713 0
M  V30 14065 C 1286.88 3.27473 -3.52583 0
M  V30 14066 C 1289.23 3.24675 -4.0772 0
M  V30 14067 C 1286.56 3.25681 -4.88005 0
M  V30 14068 C 1288.91 3.24424 -5.43076 0
M  V30 14069 C 1287.58 3.24396 -5.83372 0
M  V30 14070 H 1286.85 0.644044 -0.366453 0
M  V30 14071 H 1289.5 1.20338 -1.48966 0
M  V30 14072 H 1287.8 3.77364 -1.05375 0
M  V30 14073 H 1289.5 3.74109 -1.44374 0
M  V30 14074 H 1286.09 3.25228 -2.7915 0
M  V30 14075 H 1290.27 3.2256 -3.77185 0
M  V30 14076 H 1285.53 3.23986 -5.18501 0
M  V30 14077 H 1289.7 3.22504 -6.17223 0
M  V30 14078 H 1287.33 3.22762 -6.8828 0
M  V30 14079 N 1288.9 1.00119 1.21713 0
M  V30 14080 C 1290.15 0.682733 1.90962 0
M  V30 14081 C 1290.48 -0.784131 1.77665 0
M  V30 14082 O 1289.76 -1.56799 1.15084 0
M  V30 14083 C 1290.04 1.09975 3.42896 0
M  V30 14084 C 1289.89 2.62578 3.65202 0
M  V30 14085 C 1291.21 0.659247 4.35134 0
M  V30 14086 H 1288.33 0.249501 0.693483 0
M  V30 14087 H 1290.97 1.24619 1.43423 0
M  V30 14088 H 1289.12 0.620334 3.83515 0
M  V30 14089 H 1290.8 3.18254 3.33934 0
M  V30 14090 H 1289.04 3.04268 3.09198 0
M  V30 14091 H 1289.71 2.86809 4.7164 0
M  V30 14092 H 1292.19 1.07116 4.02076 0
M  V30 14093 H 1291.06 0.979241 5.40095 0
M  V30 14094 H 1291.32 -0.439777 4.39907 0
M  V30 14095 N 1290.38 -1.37203 0.775435 0
M  V30 14096 C 1291.63 -1.99897 0.341936 0
M  V30 14097 C 1291.96 -1.61414 -1.07978 0
M  V30 14098 O 1291.24 -0.862108 -1.7435 0
M  V30 14099 C 1291.52 -3.56755 0.489715 0
M  V30 14100 C 1291.37 -4.05135 1.95411 0
M  V30 14101 C 1292.69 -4.39978 -0.103779 0
M  V30 14102 H 1289.81 -0.726199 0.125717 0
M  V30 14103 H 1292.45 -1.62826 0.979167 0
M  V30 14104 H 1290.6 -3.88464 -0.0527684 0
M  V30 14105 H 1292.27 -3.83975 2.55658 0
M  V30 14106 H 1290.52 -3.57192 2.46164 0
M  V30 14107 H 1291.19 -5.14161 2.00855 0
M  V30 14108 H 1293.66 -4.14547 0.359134 0
M  V30 14109 H 1292.54 -5.48892 0.0297337 0
M  V30 14110 H 1292.8 -4.25658 -1.19448 0
M  V30 14111 N 1291.86 -0.526279 -1.48553 0
M  V30 14112 C 1292.79 0.227364 -2.3239 0
M  V30 14113 C 1293.77 0.93862 -1.41859 0
M  V30 14114 O 1294.96 0.925119 -1.70749 0
M  V30 14115 C 1292.09 1.277 -3.22971 0
M  V30 14116 C 1291.04 0.684107 -4.22497 0
M  V30 14117 C 1290.37 1.83612 -5.02186 0
M  V30 14118 C 1291.67 -0.341723 -5.21181 0
M  V30 14119 H 1293.36 -0.472486 -2.95648 0
M  V30 14120 H 1290.91 -0.228669 -1.42173 0
M  V30 14121 H 1292.86 1.81215 -3.80446 0
M  V30 14122 H 1291.58 2.00638 -2.57705 0
M  V30 14123 H 1290.24 0.170505 -3.66203 0
M  V30 14124 H 1289.89 2.55379 -4.33348 0
M  V30 14125 H 1289.59 1.44536 -5.69547 0
M  V30 14126 H 1291.11 2.37513 -5.62512 0
M  V30 14127 H 1292.53 0.106207 -5.73202 0
M  V30 14128 H 1290.92 -0.649673 -5.96573 0
M  V30 14129 H 1291.99 -1.2488 -4.68543 0
M  V30 14130 N 1293.34 1.5542 -0.261239 0
M  V30 14131 C 1294.58 1.99579 0.36002 0
M  V30 14132 C 1294.92 1.14933 1.56538 0
M  V30 14133 O 1294.19 0.216082 1.93296 0
M  V30 14134 C 1294.47 3.52078 0.755842 0
M  V30 14135 C 1294.33 4.47484 -0.455896 0
M  V30 14136 C 1295.65 4.10083 1.5975 0
M  V30 14137 H 1292.77 0.725554 0.129385 0
M  V30 14138 H 1295.41 1.86453 -0.365415 0
M  V30 14139 H 1293.56 3.63394 1.37393 0
M  V30 14140 H 1295.23 4.4813 -1.09441 0
M  V30 14141 H 1293.47 4.19714 -1.09646 0
M  V30 14142 H 1294.14 5.51834 -0.13539 0
M  V30 14143 H 1296.62 4.01957 1.07562 0
M  V30 14144 H 1295.5 5.17024 1.84329 0
M  V30 14145 H 1295.76 3.59438 2.57404 0
M  V30 14146 N 1294.82 -0.0116844 1.57596 0
M  V30 14147 C 1295.75 -1.03477 2.04512 0
M  V30 14148 C 1296.76 -1.31414 0.960945 0
M  V30 14149 O 1297.95 -1.28596 1.23796 0
M  V30 14150 C 1295.05 -2.37234 2.42019 0
M  V30 14151 C 1294.22 -2.28405 3.73028 0
M  V30 14152 C 1293.28 -3.44753 3.97532 0
M  V30 14153 O 1292.31 -3.23465 4.68358 0
M  V30 14154 N 1293.51 -4.67212 3.44518 0
M  V30 14155 H 1296.27 -0.634758 2.92901 0
M  V30 14156 H 1293.84 -0.1993 1.60669 0
M  V30 14157 H 1295.83 -3.13821 2.55535 0
M  V30 14158 H 1294.4 -2.69018 1.5921 0
M  V30 14159 H 1293.62 -1.36804 3.697 0
M  V30 14160 H 1294.91 -2.19666 4.58938 0
M  V30 14161 H 1294.3 -4.87407 2.87142 0
M  V30 14162 H 1292.86 -5.41105 3.63384 0
M  V30 14163 N 1296.29 -1.55015 -0.284256 0
M  V30 14164 C 1297.23 -1.82031 -1.37623 0
M  V30 14165 C 1298.2 -0.672564 -1.48038 0
M  V30 14166 O 1299.39 -0.914349 -1.64839 0
M  V30 14167 C 1296.52 -1.97193 -2.75377 0
M  V30 14168 C 1295.56 -3.19699 -2.82303 0
M  V30 14169 S 1296.39 -4.77348 -2.42691 0
M  V30 14170 C 1297.55 -4.95468 -3.82442 0
M  V30 14171 H 1297.78 -2.74366 -1.14502 0
M  V30 14172 H 1295.32 -1.46642 -0.483283 0
M  V30 14173 H 1297.27 -2.06614 -3.54713 0
M  V30 14174 H 1295.94 -1.05766 -2.95757 0
M  V30 14175 H 1295.13 -3.27161 -3.83382 0
M  V30 14176 H 1294.73 -3.08811 -2.10978 0
M  V30 14177 H 1297.02 -4.80519 -4.77606 0
M  V30 14178 H 1297.97 -5.97538 -3.7994 0
M  V30 14179 H 1298.37 -4.23516 -3.73222 0
M  V30 14180 N 1297.77 0.548248 -1.47757 0
M  V30 14181 C 1298.68 1.68178 -1.63565 0
M  V30 14182 C 1299.7 1.661 -0.518351 0
M  V30 14183 O 1300.87 1.85384 -0.787061 0
M  V30 14184 C 1297.94 3.04673 -1.65454 0
M  V30 14185 C 1297 3.17749 -2.88677 0
M  V30 14186 C 1296.23 4.47733 -2.90466 0
M  V30 14187 O 1296.46 5.33736 -2.01201 0
M  V30 14188 O 1295.39 4.64789 -3.82433 0
M  V30 14189 H 1299.22 1.57781 -2.59497 0
M  V30 14190 H 1296.8 0.719277 -1.30946 0
M  V30 14191 H 1298.68 3.85885 -1.69324 0
M  V30 14192 H 1297.36 3.15433 -0.726912 0
M  V30 14193 H 1296.26 2.359 -2.90348 0
M  V30 14194 H 1297.6 3.11897 -3.80763 0
M  V30 14195 N 1299.25 1.36039 0.795694 0
M  V30 14196 C 1300.18 1.25713 1.91648 0
M  V30 14197 C 1301.19 0.177993 1.61824 0
M  V30 14198 O 1302.38 0.432186 1.73189 0
M  V30 14199 C 1299.48 0.915546 3.26299 0
M  V30 14200 C 1298.66 2.09528 3.83949 0
M  V30 14201 C 1297.72 1.72775 4.97026 0
M  V30 14202 O 1296.74 2.44786 5.13876 0
M  V30 14203 N 1297.94 0.65775 5.76762 0
M  V30 14204 H 1300.71 2.22277 2.01029 0
M  V30 14205 H 1298.27 1.2935 0.973657 0
M  V30 14206 H 1300.26 0.650958 3.9943 0
M  V30 14207 H 1298.83 0.0392343 3.12575 0
M  V30 14208 H 1298.05 2.52304 3.0288 0
M  V30 14209 H 1299.34 2.88361 4.19196 0
M  V30 14210 H 1298.74 0.0596875 5.65669 0
M  V30 14211 H 1297.29 0.45297 6.50224 0
M  V30 14212 N 1300.73 -1.01913 1.20215 0
M  V30 14213 C 1301.66 -2.12282 0.97256 0
M  V30 14214 C 1302.64 -1.6982 -0.0975709 0
M  V30 14215 O 1303.82 -1.94109 0.0594307 0
M  V30 14216 C 1300.95 -3.43369 0.521085 0
M  V30 14217 C 1299.91 -3.99559 1.53417 0
M  V30 14218 C 1299.23 -5.26383 0.93942 0
M  V30 14219 C 1300.53 -4.33241 2.91718 0
M  V30 14220 H 1302.23 -2.31746 1.89563 0
M  V30 14221 H 1299.77 -1.1137 0.912841 0
M  V30 14222 H 1301.73 -4.19963 0.347713 0
M  V30 14223 H 1300.45 -3.23655 -0.437605 0
M  V30 14224 H 1299.11 -3.25069 1.69486 0
M  V30 14225 H 1298.76 -5.02993 -0.0271236 0
M  V30 14226 H 1298.46 -5.64942 1.616 0
M  V30 14227 H 1299.98 -6.05635 0.777059 0
M  V30 14228 H 1301.4 -5.00734 2.79175 0
M  V30 14229 H 1299.79 -4.82907 3.56259 0
M  V30 14230 H 1300.86 -3.42118 3.43633 0
M  V30 14231 N 1302.21 -1.00763 -1.2118 0
M  V30 14232 C 1303.62 -0.724746 -1.72059 0
M  V30 14233 C 1303.97 0.757413 -1.80991 0
M  V30 14234 O 1303.09 1.59152 -1.46627 0
M  V30 14235 C 1303.69 -1.30893 -3.12494 0
M  V30 14236 C 1302.25 -1.07511 -3.60719 0
M  V30 14237 C 1301.39 -1.42014 -2.38175 0
M  V30 14238 H 1304.35 -1.17821 -1.0632 0
M  V30 14239 H 1304.37 -0.694919 -3.741 0
M  V30 14240 H 1303.88 -2.38767 -3.05961 0
M  V30 14241 H 1301.98 -0.0136518 -3.72597 0
M  V30 14242 H 1302.09 -1.74885 -4.4604 0
M  V30 14243 H 1300.46 -0.838972 -2.40486 0
M  V30 14244 H 1301.24 -2.50924 -2.34291 0
M  V30 14245 N 1303.68 1.3679 -0.7827 0
M  V30 14246 C 1304.91 2.04206 -0.362571 0
M  V30 14247 C 1305.33 1.58637 1.01074 0
M  V30 14248 O 1304.69 0.751692 1.64983 0
M  V30 14249 C 1304.74 3.58062 -0.4271 0
M  V30 14250 O 1303.84 4.08463 0.56845 0
M  V30 14251 H 1303.19 0.645638 -0.155073 0
M  V30 14252 H 1305.72 1.74883 -1.06194 0
M  V30 14253 H 1305.73 4.0698 -0.288298 0
M  V30 14254 H 1304.4 3.90582 -1.42893 0
M  V30 14255 H 1302.98 3.70835 0.391863 0
M  V30 14256 N 1305.16 0.53415 1.48272 0
M  V30 14257 C 1306.41 0.00157492 2.028 0
M  V30 14258 C 1306.74 -1.33538 1.41001 0
M  V30 14259 O 1306.02 -1.86347 0.557245 0
M  V30 14260 C 1306.3 -0.116016 3.59913 0
M  V30 14261 C 1306.15 1.2464 4.32186 0
M  V30 14262 C 1307.47 -0.840775 4.31994 0
M  V30 14263 H 1304.59 0.00204634 0.736997 0
M  V30 14264 H 1307.23 0.691985 1.76951 0
M  V30 14265 H 1305.38 -0.704027 3.82068 0
M  V30 14266 H 1307.05 1.87584 4.21438 0
M  V30 14267 H 1305.3 1.8272 3.93441 0
M  V30 14268 H 1305.97 1.11708 5.40579 0
M  V30 14269 H 1308.44 -0.341746 4.14694 0
M  V30 14270 H 1307.32 -0.89196 5.41604 0
M  V30 14271 H 1307.58 -1.89197 3.99571 0
M  V30 14272 N 1306.64 -1.55279 0.269478 0
M  V30 14273 C 1307.57 -2.19684 -0.653573 0
M  V30 14274 C 1308.59 -1.17985 -1.12176 0
M  V30 14275 O 1309.77 -1.44739 -1.04464 0
M  V30 14276 C 1306.87 -2.80438 -1.90284 0
M  V30 14277 C 1306.05 -4.07774 -1.58239 0
M  V30 14278 C 1305.11 -4.52629 -2.68354 0
M  V30 14279 O 1304.13 -5.18524 -2.3478 0
M  V30 14280 N 1305.33 -4.22297 -3.98303 0
M  V30 14281 H 1308.1 -2.99525 -0.102379 0
M  V30 14282 H 1305.66 -1.61648 0.0903465 0
M  V30 14283 H 1307.65 -3.07392 -2.63234 0
M  V30 14284 H 1306.22 -2.04622 -2.36323 0
M  V30 14285 H 1305.44 -3.88168 -0.686983 0
M  V30 14286 H 1306.73 -4.90749 -1.34323 0
M  V30 14287 H 1306.13 -3.69441 -4.28404 0
M  V30 14288 H 1304.69 -4.54035 -4.67649 0
M  V30 14289 N 1308.12 0.00332656 -1.576 0
M  V30 14290 C 1309.03 1.01221 -2.1164 0
M  V30 14291 C 1310.04 1.37918 -1.06088 0
M  V30 14292 O 1311.22 1.46717 -1.37971 0
M  V30 14293 C 1308.29 2.28638 -2.60626 0
M  V30 14294 C 1307.35 1.98284 -3.80765 0
M  V30 14295 C 1306.58 3.19626 -4.27405 0
M  V30 14296 O 1306.8 4.31196 -3.73398 0
M  V30 14297 O 1305.74 3.03819 -5.19594 0
M  V30 14298 H 1309.56 0.582839 -2.98055 0
M  V30 14299 H 1307.15 0.221947 -1.47742 0
M  V30 14300 H 1309.03 3.03498 -2.92347 0
M  V30 14301 H 1307.7 2.70819 -1.7731 0
M  V30 14302 H 1306.61 1.2091 -3.54022 0
M  V30 14303 H 1307.94 1.60942 -4.65144 0
M  V30 14304 N 1309.6 1.55164 0.276031 0
M  V30 14305 C 1310.84 1.76811 1.00545 0
M  V30 14306 C 1311.2 0.560749 1.84047 0
M  V30 14307 O 1310.49 -0.446608 1.86322 0
M  V30 14308 C 1310.68 3.0127 1.92279 0
M  V30 14309 C 1310.51 4.33996 1.17804 0
M  V30 14310 C 1309.28 4.97311 0.894963 0
M  V30 14311 C 1311.48 5.11132 0.56998 0
M  V30 14312 N 1309.46 6.13777 0.123106 0
M  V30 14313 C 1310.83 6.19963 -0.0678612 0
M  V30 14314 C 1312.89 4.95605 0.47752 0
M  V30 14315 C 1311.59 7.14957 -0.789246 0
M  V30 14316 C 1313.62 5.90952 -0.230266 0
M  V30 14317 C 1312.98 6.99169 -0.856857 0
M  V30 14318 H 1309.08 0.6993 0.350006 0
M  V30 14319 H 1311.66 1.92655 0.281432 0
M  V30 14320 H 1309.83 2.86807 2.61909 0
M  V30 14321 H 1311.57 3.11335 2.58559 0
M  V30 14322 H 1308.32 4.58159 1.19947 0
M  V30 14323 H 1308.75 6.76538 -0.250065 0
M  V30 14324 H 1313.39 4.12043 0.947639 0
M  V30 14325 H 1311.11 7.98041 -1.27106 0
M  V30 14326 H 1314.69 5.81015 -0.302083 0
M  V30 14327 H 1313.57 7.71678 -1.39581 0
M  V30 14328 N 1311.07 -0.540404 1.48045 0
M  V30 14329 C 1312.32 -1.2932 1.54787 0
M  V30 14330 C 1312.64 -1.94335 0.222109 0
M  V30 14331 O 1313.84 -2.70982 0.167675 0
M  V30 14332 C 1312.3 -2.34594 2.72935 0
M  V30 14333 C 1311.91 -1.75696 4.1211 0
M  V30 14334 C 1313.65 -3.10949 2.88982 0
M  V30 14335 C 1311.56 -2.78849 5.21534 0
M  V30 14336 H 1310.49 -0.486315 0.576206 0
M  V30 14337 H 1313.14 -0.571998 1.74357 0
M  V30 14338 H 1311.52 -3.09704 2.46778 0
M  V30 14339 H 1312.69 -1.06845 4.48242 0
M  V30 14340 H 1311.01 -1.11869 4.01091 0
M  V30 14341 H 1313.61 -3.88012 3.679 0
M  V30 14342 H 1313.95 -3.66173 1.98048 0
M  V30 14343 H 1314.48 -2.42953 3.1499 0
M  V30 14344 H 1311.22 -2.28459 6.144 0
M  V30 14345 H 1310.74 -3.46059 4.89901 0
M  V30 14346 H 1312.42 -3.4203 5.49203 0
M  V30 14347 N 1312.55 -1.36459 -0.788468 0
M  V30 14348 C 1313.8 -1.30935 -1.54867 0
M  V30 14349 C 1314.13 0.110916 -1.93883 0
M  V30 14350 O 1313.41 1.06452 -1.62783 0
M  V30 14351 C 1313.69 -2.23294 -2.8251 0
M  V30 14352 C 1313.54 -3.74022 -2.49856 0
M  V30 14353 C 1314.86 -2.14407 -3.84341 0
M  V30 14354 H 1311.98 -0.476958 -0.561854 0
M  V30 14355 H 1314.62 -1.67018 -0.905805 0
M  V30 14356 H 1312.77 -1.92652 -3.37369 0
M  V30 14357 H 1314.44 -4.15187 -2.01041 0
M  V30 14358 H 1312.69 -3.93411 -1.82785 0
M  V30 14359 H 1313.36 -4.34057 -3.41026 0
M  V30 14360 H 1315.83 -2.41381 -3.38932 0
M  V30 14361 H 1314.71 -2.81199 -4.71401 0
M  V30 14362 H 1314.97 -1.13166 -4.27371 0
M  V30 14363 N 1314.03 1.01274 -1.20754 0
M  V30 14364 C 1315.28 1.74342 -1.01428 0
M  V30 14365 C 1315.59 1.90265 0.453708 0
M  V30 14366 O 1316.8 2.60465 0.76618 0
M  V30 14367 C 1315.25 3.13588 -1.76609 0
M  V30 14368 C 1314.86 3.05664 -3.27526 0
M  V30 14369 C 1316.61 3.9084 -1.65664 0
M  V30 14370 C 1314.51 4.39942 -3.95228 0
M  V30 14371 H 1313.44 0.653619 -0.375897 0
M  V30 14372 H 1316.09 1.13214 -1.44412 0
M  V30 14373 H 1314.48 3.75281 -1.26413 0
M  V30 14374 H 1315.65 2.53256 -3.84965 0
M  V30 14375 H 1313.97 2.41904 -3.38927 0
M  V30 14376 H 1316.56 4.9019 -2.13583 0
M  V30 14377 H 1316.91 4.11754 -0.61351 0
M  V30 14378 H 1317.44 3.35783 -2.13294 0
M  V30 14379 H 1314.18 4.24229 -4.9971 0
M  V30 14380 H 1313.7 4.92342 -3.42578 0
M  V30 14381 H 1315.38 5.08771 -3.99701 0
M  V30 14382 N 1315.51 1.01404 1.20644 0
M  V30 14383 C 1316.47 0.586941 2.21557 0
M  V30 14384 C 1317.47 -0.341543 1.57131 0
M  V30 14385 O 1318.66 -0.130585 1.7371 0
M  V30 14386 C 1315.79 -0.143248 3.40599 0
M  V30 14387 H 1316.99 1.47964 2.60858 0
M  V30 14388 H 1314.54 0.803551 1.34063 0
M  V30 14389 H 1315.28 -1.05097 3.06798 0
M  V30 14390 H 1315.06 0.523716 3.88587 0
M  V30 14391 H 1316.55 -0.429504 4.15385 0
M  V30 14392 N 1316.99 -1.36373 0.789944 0
M  V30 14393 C 1318.22 -2.03187 0.373987 0
M  V30 14394 C 1318.63 -1.59697 -1.01457 0
M  V30 14395 O 1317.97 -0.782151 -1.66217 0
M  V30 14396 C 1318.03 -3.57703 0.358985 0
M  V30 14397 C 1317.69 -4.24396 1.69521 0
M  V30 14398 C 1318.69 -4.47247 2.65077 0
M  V30 14399 C 1316.38 -4.61858 1.97465 0
M  V30 14400 C 1318.37 -5.06642 3.86772 0
M  V30 14401 C 1316.06 -5.2097 3.19426 0
M  V30 14402 C 1317.06 -5.43302 4.13899 0
M  V30 14403 O 1316.74 -6.01173 5.3371 0
M  V30 14404 H 1316.48 -0.658654 0.152153 0
M  V30 14405 H 1319.03 -1.7532 1.07014 0
M  V30 14406 H 1317.26 -3.84691 -0.39366 0
M  V30 14407 H 1318.95 -4.05887 -0.0323762 0
M  V30 14408 H 1319.71 -4.18701 2.44775 0
M  V30 14409 H 1315.59 -4.438 1.2475 0
M  V30 14410 H 1319.14 -5.23989 4.60523 0
M  V30 14411 H 1315.03 -5.48943 3.39606 0
M  V30 14412 H 1315.8 -6.19638 5.34781 0
M  V30 14413 N 1318.47 -0.542005 -1.47987 0
M  V30 14414 C 1319.71 -0.010246 -2.01697 0
M  V30 14415 C 1320.03 1.34173 -1.42327 0
M  V30 14416 O 1321.23 1.96254 -1.87607 0
M  V30 14417 C 1319.69 0.0321032 -3.59886 0
M  V30 14418 C 1319.3 -1.31571 -4.28244 0
M  V30 14419 C 1321.04 0.512056 -4.214 0
M  V30 14420 C 1318.95 -1.23329 -5.78398 0
M  V30 14421 H 1317.88 -6.02097e-05 -0.754 0
M  V30 14422 H 1320.53 -0.687586 -1.70131 0
M  V30 14423 H 1318.91 0.774774 -3.88347 0
M  V30 14424 H 1320.09 -2.07489 -4.11442 0
M  V30 14425 H 1318.4 -1.73237 -3.78653 0
M  V30 14426 H 1321 0.591875 -5.31414 0
M  V30 14427 H 1321.34 1.52061 -3.87535 0
M  V30 14428 H 1321.87 -0.175293 -3.97414 0
M  V30 14429 H 1318.61 -2.21737 -6.16857 0
M  V30 14430 H 1318.13 -0.51567 -5.97579 0
M  V30 14431 H 1319.81 -0.928975 -6.40296 0
M  V30 14432 N 1319.94 1.55134 -0.277709 0
M  V30 14433 C 1321.19 1.99654 0.33833 0
M  V30 14434 C 1321.52 1.16612 1.55666 0
M  V30 14435 O 1320.77 0.224428 1.94409 0
M  V30 14436 C 1321.07 3.49182 0.762028 0
M  V30 14437 C 1320.74 4.49524 -0.351958 0
M  V30 14438 C 1319.4 4.76682 -0.657833 0
M  V30 14439 C 1321.75 5.09406 -1.10247 0
M  V30 14440 C 1319.08 5.6099 -1.71776 0
M  V30 14441 C 1321.43 5.94866 -2.15214 0
M  V30 14442 C 1320.1 6.20344 -2.46434 0
M  V30 14443 H 1319.37 0.730584 0.123804 0
M  V30 14444 H 1322.01 1.87446 -0.391961 0
M  V30 14445 H 1320.32 3.58879 1.57204 0
M  V30 14446 H 1322.02 3.81037 1.24947 0
M  V30 14447 H 1318.61 4.28475 -0.103438 0
M  V30 14448 H 1322.79 4.88446 -0.879422 0
M  V30 14449 H 1318.05 5.78975 -1.96463 0
M  V30 14450 H 1322.22 6.403 -2.73842 0
M  V30 14451 H 1319.85 6.85464 -3.28699 0
M  V30 14452 N 1321.42 0.00503138 1.57599 0
M  V30 14453 C 1322.65 -0.689609 1.95069 0
M  V30 14454 C 1323.06 -1.67028 0.880183 0
M  V30 14455 O 1322.42 -1.81959 -0.140406 0
M  V30 14456 C 1322.47 -1.41709 3.32567 0
M  V30 14457 O 1322.19 -0.475746 4.35509 0
M  V30 14458 C 1323.69 -2.20578 3.84526 0
M  V30 14459 H 1320.91 -0.19175 0.643019 0
M  V30 14460 H 1323.46 0.057646 2.04419 0
M  V30 14461 H 1321.61 -2.11593 3.2451 0
M  V30 14462 H 1322.03 -0.989573 5.1508 0
M  V30 14463 H 1323.5 -2.66969 4.83148 0
M  V30 14464 H 1323.98 -3.03467 3.17497 0
M  V30 14465 H 1324.58 -1.557 3.95775 0
M  V30 14466 N 1322.9 -1.55308 -0.267798 0
M  V30 14467 C 1324.13 -1.79929 -1.01533 0
M  V30 14468 C 1324.54 -0.57545 -1.80237 0
M  V30 14469 O 1323.88 0.465072 -1.77715 0
M  V30 14470 C 1323.94 -2.97568 -2.01726 0
M  V30 14471 C 1323.61 -4.34407 -1.41912 0
M  V30 14472 C 1324.6 -5.13197 -0.832151 0
M  V30 14473 C 1322.29 -4.81074 -1.44476 0
M  V30 14474 C 1324.28 -6.3679 -0.278781 0
M  V30 14475 C 1321.97 -6.04621 -0.887535 0
M  V30 14476 C 1322.97 -6.82316 -0.305548 0
M  V30 14477 O 1322.66 -8.03532 0.243133 0
M  V30 14478 H 1322.39 -0.603082 -0.305398 0
M  V30 14479 H 1324.94 -2.03162 -0.302378 0
M  V30 14480 H 1323.17 -2.7004 -2.76795 0
M  V30 14481 H 1324.86 -3.09466 -2.62651 0
M  V30 14482 H 1325.63 -4.78273 -0.805 0
M  V30 14483 H 1321.51 -4.20604 -1.88714 0
M  V30 14484 H 1325.05 -6.97378 0.176117 0
M  V30 14485 H 1320.95 -6.39026 -0.911943 0
M  V30 14486 H 1321.71 -8.18392 0.132991 0
M  V30 14487 N 1324.38 0.532545 -1.4833 0
M  V30 14488 C 1325.34 1.61955 -1.62183 0
M  V30 14489 C 1326.34 1.52982 -0.495281 0
M  V30 14490 O 1327.53 1.56698 -0.761005 0
M  V30 14491 C 1324.66 3.0157 -1.58961 0
M  V30 14492 H 1325.86 1.51013 -2.59105 0
M  V30 14493 H 1323.41 0.754405 -1.36888 0
M  V30 14494 H 1324.14 3.18021 -0.635069 0
M  V30 14495 H 1323.93 3.09491 -2.40744 0
M  V30 14496 H 1325.42 3.80604 -1.71843 0
M  V30 14497 N 1325.86 1.36875 0.78122 0
M  V30 14498 C 1327.1 1.30886 1.53466 0
M  V30 14499 C 1327.42 -0.107218 1.95306 0
M  V30 14500 O 1328.62 -0.289525 2.69952 0
M  V30 14501 C 1327.08 2.29688 2.77076 0
M  V30 14502 C 1326.69 3.76775 2.42373 0
M  V30 14503 C 1328.43 2.32692 3.55042 0
M  V30 14504 C 1326.34 4.67332 3.62428 0
M  V30 14505 H 1325.27 0.486408 0.576128 0
M  V30 14506 H 1327.92 1.62283 0.856529 0
M  V30 14507 H 1326.3 1.91296 3.4673 0
M  V30 14508 H 1327.48 4.2395 1.80563 0
M  V30 14509 H 1325.79 3.76625 1.77602 0
M  V30 14510 H 1328.39 2.97556 4.44257 0
M  V30 14511 H 1328.73 1.33779 3.94219 0
M  V30 14512 H 1329.26 2.69743 2.92375 0
M  V30 14513 H 1326 5.67339 3.2834 0
M  V30 14514 H 1325.52 4.24868 4.23376 0
M  V30 14515 H 1327.2 4.84005 4.29358 0
M  V30 14516 N 1327.33 -1.00632 1.21289 0
M  V30 14517 C 1328.24 -2.12829 0.986957 0
M  V30 14518 C 1329.26 -1.73895 -0.0605152 0
M  V30 14519 O 1330.44 -2.00985 0.129238 0
M  V30 14520 C 1327.5 -3.4226 0.553089 0
M  V30 14521 C 1326.56 -3.95376 1.67262 0
M  V30 14522 C 1325.79 -5.18629 1.25936 0
M  V30 14523 O 1326.02 -5.70246 0.132402 0
M  V30 14524 O 1324.95 -5.65157 2.07077 0
M  V30 14525 H 1328.78 -2.34765 1.92663 0
M  V30 14526 H 1326.36 -1.11208 0.997654 0
M  V30 14527 H 1328.24 -4.20177 0.320856 0
M  V30 14528 H 1326.92 -3.21716 -0.357881 0
M  V30 14529 H 1325.83 -3.18692 1.95924 0
M  V30 14530 H 1327.16 -4.20328 2.56097 0
M  V30 14531 N 1328.81 -1.02043 -1.20104 0
M  V30 14532 C 1329.76 -0.593945 -2.23027 0
M  V30 14533 C 1330.73 0.387931 -1.61506 0
M  V30 14534 O 1331.91 0.286504 -1.88637 0
M  V30 14535 C 1329.05 0.0577309 -3.45052 0
M  V30 14536 C 1328.17 -0.969169 -4.20988 0
M  V30 14537 C 1327.3 -0.288143 -5.30418 0
M  V30 14538 C 1326.34 -1.30154 -5.98102 0
M  V30 14539 N 1325.48 -0.646912 -6.99113 0
M  V30 14540 H 1330.32 -1.47623 -2.58866 0
M  V30 14541 H 1327.85 -0.738901 -1.27195 0
M  V30 14542 H 1329.81 0.452726 -4.14736 0
M  V30 14543 H 1328.44 0.90364 -3.09894 0
M  V30 14544 H 1327.49 -1.48229 -3.50332 0
M  V30 14545 H 1328.81 -1.73972 -4.67477 0
M  V30 14546 H 1327.96 0.162149 -6.06483 0
M  V30 14547 H 1326.7 0.514683 -4.84977 0
M  V30 14548 H 1325.7 -1.76218 -5.20795 0
M  V30 14549 H 1326.93 -2.10571 -6.45629 0
M  V30 14550 H 1324.88 0.135976 -6.55859 0
M  V30 14551 H 1324.79 -1.35548 -7.43749 0
M  V30 14552 H 1326.06 -0.220339 -7.79189 0
M  V30 14553 N 1330.29 1.35952 -0.797165 0
M  V30 14554 C 1331.54 1.99327 -0.373695 0
M  V30 14555 C 1331.87 1.63111 1.05396 0
M  V30 14556 O 1331.14 0.889736 1.72956 0
M  V30 14557 C 1331.43 3.5593 -0.54641 0
M  V30 14558 C 1331.28 4.01975 -2.01832 0
M  V30 14559 C 1332.6 4.40087 0.0337694 0
M  V30 14560 H 1329.72 0.724107 -0.137254 0
M  V30 14561 H 1332.36 1.61248 -1.00495 0
M  V30 14562 H 1330.51 3.88499 -0.00903959 0
M  V30 14563 H 1332.18 3.79859 -2.61735 0
M  V30 14564 H 1330.43 3.5323 -2.51815 0
M  V30 14565 H 1331.1 5.109 -2.09009 0
M  V30 14566 H 1333.57 4.13923 -0.425039 0
M  V30 14567 H 1332.45 5.48775 -0.117054 0
M  V30 14568 H 1332.71 4.27504 1.12661 0
M  V30 14569 N 1331.77 0.549846 1.47697 0
M  V30 14570 C 1333.18 0.209085 1.58225 0
M  V30 14571 C 1333.38 -1.28823 1.54941 0
M  V30 14572 O 1332.44 -2.0679 1.44893 0
M  V30 14573 C 1333.75 0.829219 2.89041 0
M  V30 14574 C 1335.3 0.79977 3.0261 0
M  V30 14575 C 1335.78 1.39884 4.36115 0
M  V30 14576 N 1337.27 1.36169 4.42733 0
M  V30 14577 C 1338 1.79492 5.44583 0
M  V30 14578 N 1337.5 2.30637 6.53283 0
M  V30 14579 N 1339.29 1.70608 5.35583 0
M  V30 14580 H 1331.44 1.52275 1.48074 0
M  V30 14581 H 1333.71 0.634579 0.704283 0
M  V30 14582 H 1333.41 1.88122 2.97158 0
M  V30 14583 H 1333.29 0.317916 3.75858 0
M  V30 14584 H 1335.67 -0.243525 2.94093 0
M  V30 14585 H 1335.75 1.34875 2.17353 0
M  V30 14586 H 1335.4 2.44116 4.45387 0
M  V30 14587 H 1335.33 0.825362 5.20092 0
M  V30 14588 H 1337.82 0.987505 3.64769 0
M  V30 14589 H 1338.13 2.61637 7.27163 0
M  V30 14590 H 1336.48 2.34643 6.54192 0
M  V30 14591 H 1339.67 1.30434 4.4956 0
M  V30 14592 H 1339.84 2.0469 6.14822 0
M  V30 14593 N 1333.25 -1.54984 0.285932 0
M  V30 14594 C 1334.16 -2.26621 -0.606648 0
M  V30 14595 C 1335.17 -1.29595 -1.16108 0
M  V30 14596 O 1336.35 -1.62551 -1.18908 0
M  V30 14597 C 1333.41 -2.98156 -1.76929 0
M  V30 14598 C 1332.47 -4.10685 -1.25045 0
M  V30 14599 C 1331.71 -4.788 -2.35768 0
M  V30 14600 O 1331.93 -4.46183 -3.55354 0
M  V30 14601 O 1330.86 -5.66523 -2.03312 0
M  V30 14602 H 1334.69 -3.03689 -0.0259981 0
M  V30 14603 H 1332.28 -1.49306 0.0529355 0
M  V30 14604 H 1334.16 -3.43076 -2.44697 0
M  V30 14605 H 1332.83 -2.23996 -2.33683 0
M  V30 14606 H 1331.74 -3.70198 -0.538919 0
M  V30 14607 H 1333.07 -4.86778 -0.728528 0
M  V30 14608 N 1334.72 -0.0133892 -1.57594 0
M  V30 14609 C 1335.97 0.667896 -1.90321 0
M  V30 14610 C 1336.29 1.74187 -0.88984 0
M  V30 14611 O 1337.49 2.47871 -1.10779 0
M  V30 14612 C 1335.95 1.23917 -3.37894 0
M  V30 14613 C 1335.56 0.199313 -4.47556 0
M  V30 14614 C 1337.3 1.89788 -3.79712 0
M  V30 14615 C 1335.21 0.781339 -5.86216 0
M  V30 14616 H 1334.14 0.253229 -0.710205 0
M  V30 14617 H 1336.79 -0.0761229 -1.83342 0
M  V30 14618 H 1335.17 2.03429 -3.39754 0
M  V30 14619 H 1336.34 -0.572196 -4.57234 0
M  V30 14620 H 1334.66 -0.359719 -4.14843 0
M  V30 14621 H 1337.26 2.34262 -4.80651 0
M  V30 14622 H 1337.6 2.73406 -3.13934 0
M  V30 14623 H 1338.13 1.16989 -3.80208 0
M  V30 14624 H 1334.87 -0.0163598 -6.55498 0
M  V30 14625 H 1334.39 1.5217 -5.80176 0
M  V30 14626 H 1336.07 1.2759 -6.34295 0
M  V30 14627 N 1336.2 1.55448 0.259558 0
M  V30 14628 C 1337.45 1.76686 0.98935 0
M  V30 14629 C 1337.78 0.575434 1.85793 0
M  V30 14630 O 1337.03 -0.441676 1.90651 0
M  V30 14631 C 1337.33 3.03292 1.89073 0
M  V30 14632 C 1337 4.35225 1.17855 0
M  V30 14633 C 1335.66 4.7108 0.981675 0
M  V30 14634 C 1338.01 5.16839 0.6728 0
M  V30 14635 C 1335.34 5.86094 0.266551 0
M  V30 14636 C 1337.69 6.32593 -0.0287965 0
M  V30 14637 C 1336.36 6.67078 -0.23726 0
M  V30 14638 H 1335.63 0.646542 0.362029 0
M  V30 14639 H 1338.27 1.8972 0.260488 0
M  V30 14640 H 1336.58 2.85217 2.68624 0
M  V30 14641 H 1338.27 3.16923 2.45685 0
M  V30 14642 H 1334.86 4.07051 1.34192 0
M  V30 14643 H 1339.05 4.89604 0.812481 0
M  V30 14644 H 1334.3 6.11327 0.0944447 0
M  V30 14645 H 1338.48 6.95081 -0.428378 0
M  V30 14646 H 1336.11 7.56049 -0.793358 0
M  V30 14647 N 1337.68 -0.524672 1.4861 0
M  V30 14648 C 1338.61 -1.64555 1.58104 0
M  V30 14649 C 1339.59 -1.56778 0.431205 0
M  V30 14650 O 1340.78 -1.77175 0.643537 0
M  V30 14651 C 1337.9 -3.02979 1.51398 0
M  V30 14652 C 1336.95 -3.29098 2.71287 0
M  V30 14653 S 1337.78 -3.14791 4.33206 0
M  V30 14654 C 1338.94 -4.55652 4.29107 0
M  V30 14655 H 1339.17 -1.56254 2.52927 0
M  V30 14656 H 1336.7 -0.708041 1.37208 0
M  V30 14657 H 1338.66 -3.82809 1.48215 0
M  V30 14658 H 1337.32 -3.08717 0.579026 0
M  V30 14659 H 1336.52 -4.30092 2.62749 0
M  V30 14660 H 1336.12 -2.56949 2.7176 0
M  V30 14661 H 1338.41 -5.47277 3.99367 0
M  V30 14662 H 1339.35 -4.69244 5.30298 0
M  V30 14663 H 1339.76 -4.35223 3.59501 0
M  V30 14664 N 1339.16 -1.37287 -0.77395 0
M  V30 14665 C 1340.38 -1.35734 -1.56815 0
M  V30 14666 C 1340.81 0.0555546 -1.88018 0
M  V30 14667 O 1340.17 1.03197 -1.49064 0
M  V30 14668 C 1340.21 -2.2008 -2.85652 0
M  V30 14669 O 1339.32 -1.60391 -3.79932 0
M  V30 14670 H 1338.66 -0.463881 -0.47509 0
M  V30 14671 H 1341.19 -1.80781 -0.958087 0
M  V30 14672 H 1341.2 -2.33215 -3.34776 0
M  V30 14673 H 1339.87 -3.22781 -2.6227 0
M  V30 14674 H 1338.45 -1.56285 -3.3857 0
M  V30 14675 N 1340.64 0.999871 -1.21821 0
M  V30 14676 C 1341.55 2.12303 -0.99823 0
M  V30 14677 C 1342.56 1.73924 0.0512923 0
M  V30 14678 O 1343.74 2.00914 -0.139895 0
M  V30 14679 C 1340.8 3.41962 -0.571232 0
M  V30 14680 C 1339.86 3.94483 -1.69356 0
M  V30 14681 C 1339.1 5.17954 -1.28685 0
M  V30 14682 O 1339.32 5.70168 -0.162641 0
M  V30 14683 O 1338.25 5.64051 -2.10071 0
M  V30 14684 H 1342.08 2.3374 -1.93905 0
M  V30 14685 H 1339.67 1.10677 -1.00354 0
M  V30 14686 H 1341.55 4.20001 -0.343134 0
M  V30 14687 H 1340.22 3.21901 0.340814 0
M  V30 14688 H 1339.13 3.17648 -1.97612 0
M  V30 14689 H 1340.46 4.18964 -2.58322 0
M  V30 14690 N 1342.11 1.02678 1.19562 0
M  V30 14691 C 1343.08 0.610407 2.20922 0
M  V30 14692 C 1344.08 -0.324858 1.57484 0
M  V30 14693 O 1345.27 -0.112153 1.73839 0
M  V30 14694 C 1342.4 -0.107115 3.40732 0
M  V30 14695 H 1343.59 1.50722 2.59274 0
M  V30 14696 H 1341.15 0.817725 1.33203 0
M  V30 14697 H 1341.88 -1.01837 3.07896 0
M  V30 14698 H 1341.67 0.564901 3.88009 0
M  V30 14699 H 1343.16 -0.385423 4.15818 0
M  V30 14700 N 1343.59 -1.35528 0.804364 0
M  V30 14701 C 1344.84 -1.98439 0.382934 0
M  V30 14702 C 1345.16 -1.64132 -1.05289 0
M  V30 14703 O 1344.43 -0.922693 -1.7281 0
M  V30 14704 H 1343.01 -0.734028 0.138605 0
M  V30 14705 H 1345.67 -1.65478 1.02971 0
M  V30 14706 H 1344.77 -3.08279 0.486846 0
M  V30 14707 N 1345.07 -0.557671 -1.47404 0
M  V30 14708 C 1346.02 0.189765 -2.30019 0
M  V30 14709 C 1346.99 0.907923 -1.3909 0
M  V30 14710 O 1348.17 0.903528 -1.68051 0
M  V30 14711 C 1345.31 1.21348 -3.23061 0
M  V30 14712 C 1344.43 0.501343 -4.29081 0
M  V30 14713 C 1343.56 1.51039 -5.09275 0
M  V30 14714 C 1342.6 0.783254 -6.07068 0
M  V30 14715 N 1341.74 1.73916 -6.80219 0
M  V30 14716 H 1346.58 -0.520856 -2.93413 0
M  V30 14717 H 1344.11 -0.268686 -1.44625 0
M  V30 14718 H 1346.07 1.81961 -3.75428 0
M  V30 14719 H 1344.7 1.89213 -2.61531 0
M  V30 14720 H 1343.75 -0.219317 -3.79767 0
M  V30 14721 H 1345.07 -0.0682656 -4.98753 0
M  V30 14722 H 1344.22 2.19004 -5.65793 0
M  V30 14723 H 1342.96 2.11392 -4.39505 0
M  V30 14724 H 1341.96 0.0896883 -5.49727 0
M  V30 14725 H 1343.19 0.185464 -6.78847 0
M  V30 14726 H 1341.14 2.33125 -6.13179 0
M  V30 14727 H 1341.05 1.22171 -7.46063 0
M  V30 14728 H 1342.32 2.40993 -7.41311 0
M  V30 14729 N 1346.55 1.54831 -0.294147 0
M  V30 14730 C 1347.8 2.00298 0.317605 0
M  V30 14731 C 1348.13 1.18228 1.54064 0
M  V30 14732 O 1347.4 0.257034 1.92794 0
M  V30 14733 C 1347.69 3.53602 0.680991 0
M  V30 14734 C 1347.54 4.46416 -0.550711 0
M  V30 14735 C 1348.86 4.13379 1.51016 0
M  V30 14736 H 1345.98 0.728135 0.113965 0
M  V30 14737 H 1348.62 1.85636 -0.404883 0
M  V30 14738 H 1346.77 3.66227 1.29654 0
M  V30 14739 H 1348.44 4.45707 -1.18922 0
M  V30 14740 H 1346.68 4.17294 -1.18524 0
M  V30 14741 H 1347.36 5.51423 -0.252412 0
M  V30 14742 H 1349.83 4.04148 0.99012 0
M  V30 14743 H 1348.71 5.20818 1.73321 0
M  V30 14744 H 1348.97 3.64817 2.49722 0
M  V30 14745 N 1348.03 0.0217466 1.57585 0
M  V30 14746 C 1348.98 -0.980624 2.10918 0
M  V30 14747 C 1349.97 -1.34178 1.03406 0
M  V30 14748 O 1351.18 -1.32487 1.21849 0
M  V30 14749 H 1347.55 -0.333984 0.673764 0
M  V30 14750 H 1349.52 -0.505431 2.94088 0
M  V30 14751 C 1348.27 -2.25639 2.64542 0
M  V30 14752 H 1347.59 -1.98722 3.46914 0
M  V30 14753 H 1349.03 -2.94003 3.05513 0
M  V30 14754 C 1347.49 -2.98111 1.56945 0
M  V30 14755 O 1348.02 -3.89937 0.964975 0
M  V30 14756 N 1346.23 -2.60316 1.29166 0
M  V30 14757 H 1345.78 -1.85722 1.78508 0
M  V30 14758 H 1345.73 -3.09116 0.573987 0
M  V30 14759 N 1349.51 -1.55583 -0.251311 0
M  V30 14760 C 1350.44 -1.86388 -1.33387 0
M  V30 14761 C 1351.45 -0.749829 -1.44504 0
M  V30 14762 O 1352.64 -1.0279 -1.45933 0
M  V30 14763 C 1349.74 -2.0311 -2.71293 0
M  V30 14764 C 1348.91 -3.33937 -2.82498 0
M  V30 14765 C 1347.97 -3.40455 -4.01219 0
M  V30 14766 O 1347 -4.13695 -3.90954 0
M  V30 14767 N 1348.2 -2.69427 -5.14188 0
M  V30 14768 H 1350.96 -2.79834 -1.07298 0
M  V30 14769 H 1348.53 -1.55766 -0.441418 0
M  V30 14770 H 1350.52 -2.04817 -3.49045 0
M  V30 14771 H 1349.09 -1.16429 -2.90109 0
M  V30 14772 H 1348.31 -3.44584 -1.91456 0
M  V30 14773 H 1349.6 -4.20176 -2.86931 0
M  V30 14774 H 1348.99 -2.09647 -5.25419 0
M  V30 14775 H 1347.55 -2.76832 -5.90091 0
M  V30 14776 N 1350.98 0.516783 -1.48886 0
M  V30 14777 C 1351.93 1.62003 -1.64389 0
M  V30 14778 C 1352.9 1.58842 -0.485633 0
M  V30 14779 O 1354.09 1.77068 -0.710742 0
M  V30 14780 C 1351.23 3.00218 -1.70186 0
M  V30 14781 C 1350.34 3.13513 -2.97209 0
M  V30 14782 C 1349.47 4.42366 -2.94084 0
M  V30 14783 C 1348.51 4.49238 -4.15754 0
M  V30 14784 N 1347.65 5.69497 -4.10631 0
M  V30 14785 H 1352.49 1.48093 -2.58597 0
M  V30 14786 H 1350.03 0.720788 -1.2823 0
M  V30 14787 H 1351.98 3.80307 -1.71529 0
M  V30 14788 H 1350.61 3.12868 -0.794578 0
M  V30 14789 H 1349.67 2.26589 -3.05551 0
M  V30 14790 H 1350.98 3.14451 -3.87197 0
M  V30 14791 H 1350.13 5.3076 -2.93902 0
M  V30 14792 H 1348.87 4.43969 -2.01847 0
M  V30 14793 H 1347.88 3.59248 -4.16198 0
M  V30 14794 H 1349.1 4.49363 -5.09166 0
M  V30 14795 H 1347.05 5.71973 -3.21222 0
M  V30 14796 H 1346.96 5.71985 -4.94337 0
M  V30 14797 H 1348.23 6.60142 -4.14527 0
M  V30 14798 N 1352.46 1.37696 0.766659 0
M  V30 14799 C 1353.71 1.32507 1.52069 0
M  V30 14800 C 1354.02 -0.0864967 1.95409 0
M  V30 14801 O 1355.23 -0.260877 2.70244 0
M  V30 14802 C 1353.69 2.32614 2.74625 0
M  V30 14803 C 1353.29 3.79325 2.38363 0
M  V30 14804 C 1355.04 2.36445 3.52554 0
M  V30 14805 C 1352.94 4.7115 3.57451 0
M  V30 14806 H 1351.87 0.492491 0.570937 0
M  V30 14807 H 1354.53 1.63183 0.839268 0
M  V30 14808 H 1352.91 1.94963 3.44682 0
M  V30 14809 H 1354.08 4.25841 1.76056 0
M  V30 14810 H 1352.4 3.78488 1.73597 0
M  V30 14811 H 1354.99 3.02252 4.41076 0
M  V30 14812 H 1355.34 1.37953 3.92778 0
M  V30 14813 H 1355.87 2.72829 2.89498 0
M  V30 14814 H 1352.61 5.70789 3.22304 0
M  V30 14815 H 1352.13 4.29335 4.18846 0
M  V30 14816 H 1353.81 4.88532 4.242 0
M  V30 14817 N 1353.94 -0.993397 1.22349 0
M  V30 14818 C 1354.89 -2.0834 0.993123 0
M  V30 14819 C 1355.86 -1.65883 -0.0849717 0
M  V30 14820 O 1357.04 -1.90691 0.0645176 0
M  V30 14821 C 1354.18 -3.40252 0.576434 0
M  V30 14822 C 1353.29 -3.96055 1.72524 0
M  V30 14823 C 1352.43 -5.16123 1.25659 0
M  V30 14824 C 1351.47 -5.64062 2.37698 0
M  V30 14825 N 1350.61 -6.7537 1.91883 0
M  V30 14826 H 1355.45 -2.27381 1.92619 0
M  V30 14827 H 1352.98 -1.11476 0.959763 0
M  V30 14828 H 1354.94 -4.16001 0.316021 0
M  V30 14829 H 1353.57 -3.21214 -0.319626 0
M  V30 14830 H 1352.62 -3.17182 2.1 0
M  V30 14831 H 1353.93 -4.27614 2.56802 0
M  V30 14832 H 1353.09 -5.9916 0.953528 0
M  V30 14833 H 1351.83 -4.86186 0.384011 0
M  V30 14834 H 1350.83 -4.79614 2.68794 0
M  V30 14835 H 1352.06 -5.96025 3.25471 0
M  V30 14836 H 1350 -6.47217 1.06986 0
M  V30 14837 H 1349.92 -7.06246 2.69727 0
M  V30 14838 H 1351.19 -7.61914 1.64644 0
M  V30 14839 N 1355.42 -1.03311 -1.19015 0
M  V30 14840 C 1356.66 -0.733124 -1.89085 0
M  V30 14841 C 1357 0.73675 -1.79682 0
M  V30 14842 O 1356.27 1.53692 -1.19201 0
M  V30 14843 C 1356.55 -1.19028 -3.39859 0
M  V30 14844 C 1356.41 -2.72169 -3.58112 0
M  V30 14845 C 1357.73 -0.774383 -4.33234 0
M  V30 14846 H 1354.85 -0.2678 -0.686624 0
M  V30 14847 H 1357.49 -1.28378 -1.40068 0
M  V30 14848 H 1355.64 -0.721799 -3.81736 0
M  V30 14849 H 1357.31 -3.26996 -3.25379 0
M  V30 14850 H 1355.55 -3.12358 -3.01023 0
M  V30 14851 H 1356.22 -2.99213 -4.6387 0
M  V30 14852 H 1358.7 -1.17739 -3.99095 0
M  V30 14853 H 1357.58 -1.12209 -5.37308 0
M  V30 14854 H 1357.84 0.322989 -4.40919 0
M  V30 14855 N 1356.9 1.35099 -0.81154 0
M  V30 14856 C 1358.14 1.99348 -0.403961 0
M  V30 14857 C 1358.5 1.63209 1.01885 0
M  V30 14858 O 1357.79 0.887707 1.69795 0
M  V30 14859 C 1357.98 3.53444 -0.530322 0
M  V30 14860 C 1357.81 4.04552 -1.96387 0
M  V30 14861 C 1356.58 4.33677 -2.5933 0
M  V30 14862 C 1358.78 4.2274 -2.92909 0
M  V30 14863 N 1356.76 4.70747 -3.94043 0
M  V30 14864 C 1358.13 4.62862 -4.12503 0
M  V30 14865 C 1360.19 4.0496 -2.89675 0
M  V30 14866 C 1358.89 4.87064 -5.29303 0
M  V30 14867 C 1360.92 4.30321 -4.05682 0
M  V30 14868 C 1360.28 4.7072 -5.24025 0
M  V30 14869 H 1356.38 0.757119 -0.195692 0
M  V30 14870 H 1358.96 1.63715 -1.05383 0
M  V30 14871 H 1357.13 3.88297 0.089583 0
M  V30 14872 H 1358.87 4.04584 -0.0968489 0
M  V30 14873 H 1355.62 4.24174 -2.1065 0
M  V30 14874 H 1356.04 4.93534 -4.63414 0
M  V30 14875 H 1360.69 3.72864 -1.99329 0
M  V30 14876 H 1358.4 5.18031 -6.20217 0
M  V30 14877 H 1361.99 4.18112 -4.04566 0
M  V30 14878 H 1360.87 4.89961 -6.12298 0
M  V30 14879 N 1358.37 0.56548 1.47106 0
M  V30 14880 C 1359.62 0.0445255 2.02451 0
M  V30 14881 C 1359.95 -1.30863 1.43893 0
M  V30 14882 O 1359.2 -1.8668 0.587274 0
M  V30 14883 C 1359.5 -0.0893776 3.57288 0
M  V30 14884 C 1359.17 1.19395 4.34805 0
M  V30 14885 C 1357.83 1.54558 4.55703 0
M  V30 14886 C 1360.18 2.04399 4.79448 0
M  V30 14887 C 1357.51 2.74557 5.18494 0
M  V30 14888 C 1359.86 3.23608 5.43563 0
M  V30 14889 C 1358.53 3.59074 5.62692 0
M  V30 14890 H 1357.8 0.016293 0.740821 0
M  V30 14891 H 1360.44 0.738657 1.76681 0
M  V30 14892 H 1358.75 -0.86653 3.82097 0
M  V30 14893 H 1360.45 -0.507943 3.9777 0
M  V30 14894 H 1357.04 0.910176 4.18824 0
M  V30 14895 H 1361.22 1.78539 4.63074 0
M  V30 14896 H 1356.48 3.02194 5.31497 0
M  V30 14897 H 1360.65 3.89755 5.77117 0
M  V30 14898 H 1358.28 4.5215 6.11117 0
M  V30 14899 N 1359.85 -1.54672 0.302354 0
M  V30 14900 C 1361.08 -2.05041 -0.311891 0
M  V30 14901 C 1361.5 -1.17814 -1.46634 0
M  V30 14902 O 1360.86 -0.182517 -1.80379 0
M  V30 14903 C 1360.91 -3.52831 -0.744489 0
M  V30 14904 O 1360.01 -3.68621 -1.84913 0
M  V30 14905 H 1359.35 -0.661255 -0.0603102 0
M  V30 14906 H 1361.88 -1.99711 0.444593 0
M  V30 14907 H 1361.89 -3.94708 -1.03293 0
M  V30 14908 H 1360.57 -4.1578 0.0999976 0
M  V30 14909 H 1359.15 -3.38649 -1.56113 0
M  V30 14910 N 1361.33 -0.0301034 -1.57571 0
M  V30 14911 C 1362.61 0.68703 -1.83137 0
M  V30 14912 C 1362.99 1.90277 -0.914216 0
M  V30 14913 O 1362.34 2.2848 0.0299358 0
M  V30 14914 C 1362.55 1.06431 -3.32375 0
M  V30 14915 C 1363.89 1.45554 -3.98873 0
M  V30 14916 O 1364.92 1.15727 -3.36877 0
M  V30 14917 O 1363.78 2.01133 -5.08142 0
M  V30 14918 H 1360.87 0.337141 -0.755159 0
M  V30 14919 H 1363.42 -0.0578604 -1.69601 0
M  V30 14920 H 1362.19 0.199077 -3.90793 0
M  V30 14921 H 1361.81 1.86734 -3.51022 0
M  V30 14922 N 1362.81 1.55714 0.243056 0
M  V30 14923 C 1364.04 1.81522 0.986577 0
M  V30 14924 C 1364.45 0.604051 1.79298 0
M  V30 14925 O 1363.79 -0.43674 1.78433 0
M  V30 14926 C 1363.85 3.0074 1.96967 0
M  V30 14927 C 1363.52 4.3661 1.34983 0
M  V30 14928 C 1364.51 5.14456 0.7504 0
M  V30 14929 C 1362.2 4.83311 1.36805 0
M  V30 14930 C 1364.19 6.37153 0.177438 0
M  V30 14931 C 1361.88 6.05956 0.791233 0
M  V30 14932 C 1362.88 6.82716 0.196959 0
M  V30 14933 O 1362.56 8.03044 -0.370938 0
M  V30 14934 H 1362.3 0.607864 0.295765 0
M  V30 14935 H 1364.85 2.03617 0.270018 0
M  V30 14936 H 1363.08 2.74409 2.72464 0
M  V30 14937 H 1364.77 3.13606 2.57694 0
M  V30 14938 H 1365.54 4.79493 0.728809 0
M  V30 14939 H 1361.41 4.23553 1.81999 0
M  V30 14940 H 1364.96 6.97009 -0.287042 0
M  V30 14941 H 1360.86 6.40396 0.810164 0
M  V30 14942 H 1361.62 8.18077 -0.263173 0
M  V30 14943 N 1364.29 -0.50888 1.49158 0
M  V30 14944 C 1365.53 -1.2635 1.58247 0
M  V30 14945 C 1365.86 -1.92677 0.265654 0
M  V30 14946 O 1365.12 -1.80931 -0.745818 0
M  V30 14947 C 1365.42 -2.35875 2.6851 0
M  V30 14948 C 1365.08 -1.87059 4.10268 0
M  V30 14949 C 1363.74 -1.73464 4.48847 0
M  V30 14950 C 1366.1 -1.50429 4.9902 0
M  V30 14951 C 1363.42 -1.21606 5.73959 0
M  V30 14952 C 1365.78 -1.00026 6.24642 0
M  V30 14953 C 1364.44 -0.850646 6.62058 0
M  V30 14954 H 1363.71 -0.462346 0.579066 0
M  V30 14955 H 1366.36 -0.565528 1.82959 0
M  V30 14956 H 1364.66 -3.11428 2.37739 0
M  V30 14957 H 1366.36 -2.9395 2.72753 0
M  V30 14958 H 1362.95 -1.98597 3.79812 0
M  V30 14959 H 1367.13 -1.59782 4.69876 0
M  V30 14960 H 1362.39 -1.08728 6.01655 0
M  V30 14961 H 1366.56 -0.707608 6.92796 0
M  V30 14962 H 1364.19 -0.446627 7.58887 0
M  V30 14963 N 1365.76 -1.381 -0.759346 0
M  V30 14964 C 1366.71 -1.34972 -1.89434 0
M  V30 14965 C 1367.71 -0.236499 -1.67741 0
M  V30 14966 O 1368.91 -0.405218 -1.7538 0
M  V30 14967 H 1365.29 -0.420922 -0.62316 0
M  V30 14968 H 1367.26 -2.3076 -1.89189 0
M  V30 14969 C 1366.01 -1.18594 -3.2685 0
M  V30 14970 H 1365.33 -2.03514 -3.44125 0
M  V30 14971 H 1366.77 -1.20458 -4.06529 0
M  V30 14972 C 1365.23 0.107562 -3.36728 0
M  V30 14973 O 1365.76 1.08668 -3.86722 0
M  V30 14974 N 1363.97 0.162455 -2.90146 0
M  V30 14975 H 1363.51 -0.634985 -2.49651 0
M  V30 14976 H 1363.47 1.02751 -2.97136 0
M  V30 14977 N 1367.24 0.986894 -1.22875 0
M  V30 14978 C 1368.49 1.72152 -1.05103 0
M  V30 14979 C 1368.8 1.91185 0.413248 0
M  V30 14980 O 1370.01 2.62031 0.710759 0
M  V30 14981 C 1368.47 3.09771 -1.8322 0
M  V30 14982 C 1368.07 2.98648 -3.33936 0
M  V30 14983 C 1369.82 3.87238 -1.73917 0
M  V30 14984 C 1367.73 4.31459 -4.04471 0
M  V30 14985 H 1366.66 0.645498 -0.389677 0
M  V30 14986 H 1369.31 1.10125 -1.46781 0
M  V30 14987 H 1367.69 3.72515 -1.34345 0
M  V30 14988 H 1368.86 2.45033 -3.9025 0
M  V30 14989 H 1367.18 2.34661 -3.43982 0
M  V30 14990 H 1369.77 4.85549 -2.23933 0
M  V30 14991 H 1370.12 4.1036 -0.700711 0
M  V30 14992 H 1370.65 3.31183 -2.20369 0
M  V30 14993 H 1367.39 4.13534 -5.08596 0
M  V30 14994 H 1366.91 4.84964 -3.52944 0
M  V30 14995 H 1368.59 5.00179 -4.10403 0
M  V30 14996 N 1368.72 1.0394 1.18466 0
M  V30 14997 C 1369.95 0.761926 1.92897 0
M  V30 14998 C 1370.37 -0.674618 1.75586 0
M  V30 14999 O 1369.73 -1.46711 1.06515 0
M  V30 15000 C 1369.78 1.13152 3.42387 0
M  V30 15001 O 1368.88 0.256266 4.11603 0
M  V30 15002 H 1368.22 0.280527 0.601831 0
M  V30 15003 H 1370.75 1.3889 1.50235 0
M  V30 15004 H 1370.76 1.0929 3.9309 0
M  V30 15005 H 1369.44 2.17804 3.54308 0
M  V30 15006 H 1368.01 0.354392 3.71212 0
M  V30 15007 N 1370.2 -1.34667 0.818693 0
M  V30 15008 C 1371.48 -1.92838 0.327521 0
M  V30 15009 C 1371.86 -1.74732 -1.18457 0
M  V30 15010 O 1371.2 -1.12352 -1.98971 0
M  V30 15011 C 1371.41 -3.40797 0.752207 0
M  V30 15012 C 1372.76 -4.17948 0.748613 0
M  V30 15013 O 1373.79 -3.49364 0.694517 0
M  V30 15014 O 1372.64 -5.40344 0.817958 0
M  V30 15015 H 1369.74 -0.822249 0.0885148 0
M  V30 15016 H 1372.28 -1.43668 0.9032 0
M  V30 15017 H 1371.06 -3.47759 1.79387 0
M  V30 15018 H 1370.68 -3.97309 0.151992 0
M  V30 15019 N 1371.68 -0.573274 -1.46804 0
M  V30 15020 C 1372.9 -0.0605984 -2.06811 0
M  V30 15021 C 1373.32 1.24024 -1.4235 0
M  V30 15022 O 1372.68 1.7477 -0.525515 0
M  V30 15023 C 1372.73 0.121828 -3.61295 0
M  V30 15024 O 1372.45 -1.12751 -4.23342 0
M  V30 15025 C 1373.95 0.669941 -4.38208 0
M  V30 15026 H 1371.17 -0.0531498 -0.668892 0
M  V30 15027 H 1373.71 -0.791259 -1.88572 0
M  V30 15028 H 1371.87 0.802674 -3.78993 0
M  V30 15029 H 1372.28 -0.935361 -5.16092 0
M  V30 15030 H 1373.76 0.746806 -5.46925 0
M  V30 15031 H 1374.23 1.68483 -4.05598 0
M  V30 15032 H 1374.84 0.0242721 -4.25293 0
M  V30 15033 N 1373.15 1.5451 -0.310553 0
M  V30 15034 C 1374.4 1.99505 0.296731 0
M  V30 15035 C 1374.72 1.20257 1.54265 0
M  V30 15036 O 1375.92 1.55566 2.22512 0
M  V30 15037 C 1374.38 3.55208 0.579251 0
M  V30 15038 C 1373.99 4.43276 -0.648874 0
M  V30 15039 C 1375.73 4.08705 1.1472 0
M  V30 15040 C 1373.64 5.90428 -0.338978 0
M  V30 15041 H 1372.57 0.745232 0.114652 0
M  V30 15042 H 1375.22 1.78611 -0.420749 0
M  V30 15043 H 1373.6 3.72039 1.35658 0
M  V30 15044 H 1374.77 4.3822 -1.42478 0
M  V30 15045 H 1373.09 4.00601 -1.13613 0
M  V30 15046 H 1375.69 5.16223 1.39346 0
M  V30 15047 H 1376.03 3.59889 2.09249 0
M  V30 15048 H 1376.56 3.95454 0.431363 0
M  V30 15049 H 1373.3 6.43411 -1.25309 0
M  V30 15050 H 1372.82 5.98468 0.399475 0
M  V30 15051 H 1374.5 6.46976 0.0559696 0
M  V30 15052 N 1374.63 0.0384594 1.57553 0
M  V30 15053 C 1375.6 -0.925358 2.0969 0
M  V30 15054 C 1376.6 -1.24811 1.01385 0
M  V30 15055 O 1377.79 -1.1869 1.27508 0
M  V30 15056 C 1374.92 -2.2391 2.57055 0
M  V30 15057 H 1376.11 -0.473633 2.96136 0
M  V30 15058 H 1373.66 -0.209736 1.54886 0
M  V30 15059 H 1374.4 -2.73691 1.73964 0
M  V30 15060 H 1374.18 -2.01793 3.36188 0
M  V30 15061 H 1375.67 -2.92974 2.97583 0
M  V30 15062 N 1376.11 -1.55841 -0.234795 0
M  V30 15063 C 1377.36 -1.77438 -0.959094 0
M  V30 15064 C 1377.67 -0.604621 -1.86021 0
M  V30 15065 O 1378.88 -0.703897 -2.62217 0
M  V30 15066 C 1377.34 -3.14182 -1.7555 0
M  V30 15067 C 1376.94 -4.38843 -0.90118 0
M  V30 15068 C 1378.69 -3.45112 -2.47181 0
M  V30 15069 C 1376.59 -5.66614 -1.69417 0
M  V30 15070 H 1375.52 -0.661503 -0.361843 0
M  V30 15071 H 1378.18 -1.82255 -0.213364 0
M  V30 15072 H 1376.56 -3.03505 -2.54364 0
M  V30 15073 H 1377.73 -4.60541 -0.154515 0
M  V30 15074 H 1376.05 -4.15335 -0.297631 0
M  V30 15075 H 1378.64 -4.37794 -3.06986 0
M  V30 15076 H 1378.99 -2.66995 -3.19405 0
M  V30 15077 H 1379.52 -3.57059 -1.75368 0
M  V30 15078 H 1376.26 -6.47587 -1.01545 0
M  V30 15079 H 1375.78 -5.48998 -2.4158 0
M  V30 15080 H 1377.46 -6.06311 -2.25824 0
M  V30 15081 N 1377.59 0.500963 -1.49426 0
M  V30 15082 C 1378.84 1.25171 -1.58162 0
M  V30 15083 C 1379.15 1.93678 -0.273556 0
M  V30 15084 O 1380.36 2.70442 -0.239462 0
M  V30 15085 C 1378.81 2.27276 -2.79059 0
M  V30 15086 C 1378.42 1.64708 -4.16624 0
M  V30 15087 C 1380.17 3.03178 -2.97125 0
M  V30 15088 C 1378.07 2.64923 -5.28743 0
M  V30 15089 H 1377 0.470867 -0.588897 0
M  V30 15090 H 1379.65 0.525569 -1.75812 0
M  V30 15091 H 1378.04 3.03052 -2.54903 0
M  V30 15092 H 1379.21 0.949231 -4.50917 0
M  V30 15093 H 1377.52 1.01195 -4.03916 0
M  V30 15094 H 1380.12 3.78122 -3.78058 0
M  V30 15095 H 1380.46 3.60793 -2.07687 0
M  V30 15096 H 1381 2.34517 -3.2132 0
M  V30 15097 H 1377.74 2.12089 -6.20241 0
M  V30 15098 H 1377.26 3.32948 -4.98904 0
M  V30 15099 H 1378.94 3.27349 -5.58079 0
M  V30 15100 N 1379.07 1.38501 0.752011 0
M  V30 15101 C 1380.29 1.38212 1.54636 0
M  V30 15102 C 1380.72 -0.0256356 1.88083 0
M  V30 15103 O 1380.08 -1.00812 1.50687 0
M  V30 15104 C 1380.12 2.24597 2.82114 0
M  V30 15105 O 1379.23 1.66415 3.77332 0
M  V30 15106 H 1378.57 0.47138 0.46765 0
M  V30 15107 H 1381.1 1.82283 0.929205 0
M  V30 15108 H 1381.11 2.38511 3.31023 0
M  V30 15109 H 1379.78 3.26913 2.57101 0
M  V30 15110 H 1378.36 1.61651 3.36041 0
M  V30 15111 N 1380.55 -0.980364 1.23396 0
M  V30 15112 C 1381.79 -1.72166 1.06607 0
M  V30 15113 C 1382.12 -1.90405 -0.397029 0
M  V30 15114 O 1381.38 -1.45363 -1.31027 0
M  V30 15115 C 1381.67 -3.12367 1.73671 0
M  V30 15116 C 1381.34 -3.14007 3.2359 0
M  V30 15117 C 1380 -3.14162 3.64494 0
M  V30 15118 C 1382.35 -3.09319 4.19489 0
M  V30 15119 C 1379.68 -3.07345 4.99756 0
M  V30 15120 C 1382.03 -3.04044 5.54743 0
M  V30 15121 C 1380.7 -3.02521 5.9501 0
M  V30 15122 H 1379.97 -0.63 0.390104 0
M  V30 15123 H 1382.62 -1.14727 1.5333 0
M  V30 15124 H 1380.92 -3.73193 1.19308 0
M  V30 15125 H 1382.62 -3.68493 1.58159 0
M  V30 15126 H 1379.21 -3.14644 2.91028 0
M  V30 15127 H 1383.39 -3.08339 3.88897 0
M  V30 15128 H 1378.65 -3.04519 5.30168 0
M  V30 15129 H 1382.82 -2.99374 6.28767 0
M  V30 15130 H 1380.45 -2.96994 6.99785 0
M  V30 15131 N 1382.02 -1.04567 -1.17913 0
M  V30 15132 C 1383.27 -0.752023 -1.88018 0
M  V30 15133 C 1383.6 0.720567 -1.8066 0
M  V30 15134 O 1382.85 1.54207 -1.20493 0
M  V30 15135 C 1383.15 -1.1699 -3.3771 0
M  V30 15136 C 1382.82 -2.64363 -3.65271 0
M  V30 15137 C 1381.48 -3.04622 -3.72503 0
M  V30 15138 C 1383.83 -3.59626 -3.77251 0
M  V30 15139 C 1381.16 -4.39023 -3.89199 0
M  V30 15140 C 1383.51 -4.93752 -3.95465 0
M  V30 15141 C 1382.18 -5.33675 -4.00933 0
M  V30 15142 H 1381.45 -0.275185 -0.688008 0
M  V30 15143 H 1384.09 -1.31161 -1.39532 0
M  V30 15144 H 1382.4 -0.529202 -3.8821 0
M  V30 15145 H 1384.1 -0.919981 -3.90304 0
M  V30 15146 H 1380.69 -2.32182 -3.60263 0
M  V30 15147 H 1384.87 -3.29665 -3.70992 0
M  V30 15148 H 1380.13 -4.69466 -3.91679 0
M  V30 15149 H 1384.3 -5.67467 -4.03676 0
M  V30 15150 H 1381.93 -6.37825 -4.13623 0
M  V30 15151 N 1383.5 1.34231 -0.825823 0
M  V30 15152 C 1384.75 1.97454 -0.411661 0
M  V30 15153 C 1385.06 1.66193 1.03147 0
M  V30 15154 O 1386.27 2.22929 1.54968 0
M  V30 15155 C 1384.73 3.53318 -0.685145 0
M  V30 15156 C 1384.33 3.9347 -2.14208 0
M  V30 15157 C 1386.08 4.23158 -0.337291 0
M  V30 15158 C 1383.98 5.42258 -2.3603 0
M  V30 15159 H 1382.91 0.738889 -0.150196 0
M  V30 15160 H 1385.57 1.53033 -1.01258 0
M  V30 15161 H 1383.95 3.95998 -0.0140178 0
M  V30 15162 H 1385.12 3.61888 -2.85261 0
M  V30 15163 H 1383.44 3.36575 -2.45165 0
M  V30 15164 H 1386.03 5.32558 -0.47813 0
M  V30 15165 H 1386.38 4.10053 0.718499 0
M  V30 15166 H 1386.91 3.85965 -0.963113 0
M  V30 15167 H 1383.65 5.60352 -3.40126 0
M  V30 15168 H 1383.17 5.75345 -1.69524 0
M  V30 15169 H 1384.85 6.08976 -2.18533 0
M  V30 15170 N 1384.98 0.581051 1.46498 0
M  V30 15171 C 1386.23 0.0658652 2.01993 0
M  V30 15172 C 1386.55 -1.29807 1.45516 0
M  V30 15173 O 1385.82 -1.85177 0.639233 0
M  V30 15174 H 1384.4 0.0213584 0.746695 0
M  V30 15175 H 1387.06 0.756456 1.79621 0
M  V30 15176 H 1386.16 -0.00438128 3.121 0
M  V30 15177 N 1386.46 -1.54343 0.318742 0
M  V30 15178 C 1387.7 -2.0048 -0.285276 0
M  V30 15179 C 1388.03 -1.20698 -1.5252 0
M  V30 15180 O 1387.29 -0.275893 -1.93746 0
M  V30 15181 C 1387.59 -3.51079 -0.669181 0
M  V30 15182 C 1387.25 -4.48433 0.471017 0
M  V30 15183 C 1385.91 -4.74771 0.783985 0
M  V30 15184 C 1388.27 -5.06304 1.23715 0
M  V30 15185 C 1385.59 -5.56239 1.86589 0
M  V30 15186 C 1387.95 -5.88951 2.30911 0
M  V30 15187 C 1386.61 -6.13592 2.62794 0
M  V30 15188 H 1385.88 -0.73361 -0.10439 0
M  V30 15189 H 1388.53 -1.86341 0.441521 0
M  V30 15190 H 1386.83 -3.62921 -1.47633 0
M  V30 15191 H 1388.53 -3.84216 -1.148 0
M  V30 15192 H 1385.12 -4.2805 0.217004 0
M  V30 15193 H 1389.3 -4.85943 1.00862 0
M  V30 15194 H 1384.56 -5.73563 2.11744 0
M  V30 15195 H 1388.73 -6.32814 2.90722 0
M  V30 15196 H 1386.36 -6.76508 3.46757 0
M  V30 15197 N 1387.94 -0.0468143 -1.5753 0
M  V30 15198 C 1389.18 0.626699 -1.92138 0
M  V30 15199 C 1389.5 1.7164 -0.925463 0
M  V30 15200 O 1388.77 1.95876 0.0303531 0
M  V30 15201 H 1387.35 0.234479 -0.709245 0
M  V30 15202 H 1390.02 -0.0987892 -1.94649 0
M  V30 15203 H 1389.11 1.06811 -2.93254 0
M  V30 15204 N 1389.41 1.55964 0.226527 0
M  V30 15205 C 1390.34 1.95028 1.284 0
M  V30 15206 C 1391.33 0.817833 1.49149 0
M  V30 15207 O 1392.51 1.07975 1.61416 0
M  V30 15208 C 1389.64 2.26266 2.63478 0
M  V30 15209 C 1388.59 3.41954 2.57393 0
M  V30 15210 C 1387.92 3.58786 3.96456 0
M  V30 15211 C 1389.22 4.77069 2.12608 0
M  V30 15212 H 1390.91 2.83608 0.959513 0
M  V30 15213 H 1388.46 1.36451 0.460125 0
M  V30 15214 H 1390.41 2.52186 3.3761 0
M  V30 15215 H 1389.14 1.34533 2.97604 0
M  V30 15216 H 1387.8 3.16076 1.85719 0
M  V30 15217 H 1387.44 2.64437 4.27881 0
M  V30 15218 H 1387.14 4.36595 3.93267 0
M  V30 15219 H 1388.67 3.87048 4.72256 0
M  V30 15220 H 1390.08 5.02226 2.76481 0
M  V30 15221 H 1388.48 5.58126 2.2049 0
M  V30 15222 H 1389.55 4.7276 1.07823 0
M  V30 15223 N 1390.89 -0.493031 1.4969 0
M  V30 15224 C 1392.31 -0.824908 1.36629 0
M  V30 15225 C 1392.51 -1.97378 0.405487 0
M  V30 15226 O 1391.56 -2.51993 -0.159933 0
M  V30 15227 C 1392.88 -1.15761 2.77524 0
M  V30 15228 C 1394.43 -1.26536 2.86282 0
M  V30 15229 C 1394.9 -1.63131 4.27963 0
M  V30 15230 N 1396.39 -1.70165 4.30811 0
M  V30 15231 C 1397.13 -1.99942 5.37411 0
M  V30 15232 N 1396.62 -2.27888 6.54247 0
M  V30 15233 N 1398.42 -2.0126 5.24834 0
M  V30 15234 H 1390.57 0.264433 2.10748 0
M  V30 15235 H 1392.83 0.0557306 0.94636 0
M  V30 15236 H 1392.54 -0.386714 3.49567 0
M  V30 15237 H 1392.41 -2.09915 3.13393 0
M  V30 15238 H 1394.8 -2.02696 2.14472 0
M  V30 15239 H 1394.88 -0.304137 2.53986 0
M  V30 15240 H 1394.52 -0.875184 5.00303 0
M  V30 15241 H 1394.45 -2.60367 4.5773 0
M  V30 15242 H 1396.94 -1.50696 3.46553 0
M  V30 15243 H 1397.26 -2.4982 7.31307 0
M  V30 15244 H 1395.6 -2.25327 6.57459 0
M  V30 15245 H 1398.79 -1.78909 4.32561 0
M  V30 15246 H 1398.96 -2.24131 6.08004 0
M  V30 15247 N 1392.37 -1.38898 -0.744656 0
M  V30 15248 C 1393.62 -1.35595 -1.50401 0
M  V30 15249 C 1393.95 0.0511979 -1.94433 0
M  V30 15250 O 1393.2 1.03011 -1.66395 0
M  V30 15251 C 1393.5 -2.2658 -2.76398 0
M  V30 15252 C 1393.17 -3.74389 -2.51283 0
M  V30 15253 C 1391.83 -4.14666 -2.44143 0
M  V30 15254 C 1394.18 -4.67916 -2.29573 0
M  V30 15255 C 1391.51 -5.46545 -2.1332 0
M  V30 15256 C 1393.86 -6.00063 -2.00269 0
M  V30 15257 C 1392.52 -6.39413 -1.91591 0
M  V30 15258 H 1391.79 -0.496176 -0.550355 0
M  V30 15259 H 1394.44 -1.71328 -0.855514 0
M  V30 15260 H 1392.75 -1.83933 -3.45942 0
M  V30 15261 H 1394.44 -2.21323 -3.34391 0
M  V30 15262 H 1391.03 -3.42463 -2.57715 0
M  V30 15263 H 1395.22 -4.37639 -2.34063 0
M  V30 15264 H 1390.47 -5.75966 -2.05117 0
M  V30 15265 H 1394.65 -6.72068 -1.82476 0
M  V30 15266 H 1392.27 -7.41524 -1.67472 0
M  V30 15267 N 1393.85 0.973806 -1.23914 0
M  V30 15268 C 1395.1 1.71259 -1.07307 0
M  V30 15269 C 1395.42 1.91064 0.389831 0
M  V30 15270 O 1394.69 1.48401 1.27883 0
M  V30 15271 H 1393.27 0.634588 -0.39409 0
M  V30 15272 H 1395.93 1.17184 -1.55737 0
M  V30 15273 H 1395.03 2.69953 -1.56626 0
M  V30 15274 N 1395.33 1.05191 1.17357 0
M  V30 15275 C 1396.29 0.65713 2.19578 0
M  V30 15276 C 1397.29 -0.29138 1.58138 0
M  V30 15277 O 1398.48 -0.075254 1.74037 0
M  V30 15278 C 1395.61 -0.0348162 3.40882 0
M  V30 15279 H 1396.8 1.56188 2.56018 0
M  V30 15280 H 1394.36 0.845795 1.31438 0
M  V30 15281 H 1395.09 -0.952835 3.09986 0
M  V30 15282 H 1394.88 0.647076 3.86724 0
M  V30 15283 H 1396.37 -0.297135 4.16542 0
M  V30 15284 N 1396.8 -1.33791 0.83293 0
M  V30 15285 C 1397.75 -2.29332 0.25989 0
M  V30 15286 C 1398.72 -1.54056 -0.620965 0
M  V30 15287 O 1399.91 -1.82382 -0.560492 0
M  V30 15288 C 1397.05 -3.40461 -0.563964 0
M  V30 15289 C 1396.16 -4.30658 0.34025 0
M  V30 15290 C 1395.29 -5.28897 -0.494134 0
M  V30 15291 C 1394.33 -6.10733 0.408842 0
M  V30 15292 N 1393.47 -7.01032 -0.38706 0
M  V30 15293 H 1398.31 -2.77743 1.07996 0
M  V30 15294 H 1395.85 -1.3667 0.544043 0
M  V30 15295 H 1397.81 -4.03587 -1.05704 0
M  V30 15296 H 1396.44 -2.93258 -1.34905 0
M  V30 15297 H 1395.49 -3.68305 0.9516 0
M  V30 15298 H 1396.8 -4.87962 1.03415 0
M  V30 15299 H 1395.95 -5.97522 -1.05128 0
M  V30 15300 H 1394.69 -4.72155 -1.2215 0
M  V30 15301 H 1393.7 -5.41031 0.978046 0
M  V30 15302 H 1394.92 -6.69557 1.13448 0
M  V30 15303 H 1392.87 -6.46747 -1.09792 0
M  V30 15304 H 1392.79 -7.55592 0.248249 0
M  V30 15305 H 1394.05 -7.73973 -0.926631 0
M  V30 15306 N 1398.28 -0.588812 -1.46187 0
M  V30 15307 C 1399.53 -0.0851986 -2.03221 0
M  V30 15308 C 1399.88 1.26301 -1.45141 0
M  V30 15309 O 1399.18 1.8165 -0.609427 0
M  V30 15310 C 1399.37 0.0325249 -3.57385 0
M  V30 15311 C 1399.2 -1.30272 -4.30418 0
M  V30 15312 C 1397.97 -1.87848 -4.69085 0
M  V30 15313 C 1400.17 -2.2273 -4.63569 0
M  V30 15314 N 1398.15 -3.15048 -5.26894 0
M  V30 15315 C 1399.52 -3.34519 -5.22012 0
M  V30 15316 C 1401.58 -2.22334 -4.45502 0
M  V30 15317 C 1400.28 -4.46054 -5.64294 0
M  V30 15318 C 1402.3 -3.32904 -4.88804 0
M  V30 15319 C 1401.67 -4.43414 -5.47324 0
M  V30 15320 H 1397.77 -0.0741 -0.778481 0
M  V30 15321 H 1400.35 -0.783049 -1.78259 0
M  V30 15322 H 1398.52 0.699556 -3.82048 0
M  V30 15323 H 1400.25 0.54108 -4.01067 0
M  V30 15324 H 1397.01 -1.4127 -4.5204 0
M  V30 15325 H 1397.43 -3.79969 -5.60315 0
M  V30 15326 H 1402.07 -1.38165 -3.99588 0
M  V30 15327 H 1399.79 -5.30963 -6.09183 0
M  V30 15328 H 1403.38 -3.33723 -4.76571 0
M  V30 15329 H 1402.26 -5.27559 -5.80216 0
M  V30 15330 N 1399.76 1.54172 -0.326923 0
M  V30 15331 C 1400.71 2.25931 0.552996 0
M  V30 15332 C 1401.7 1.27463 1.11578 0
M  V30 15333 O 1402.91 1.45228 1.06343 0
M  V30 15334 H 1399.28 0.725741 0.196988 0
M  V30 15335 H 1401.25 2.98307 -0.0744603 0
M  V30 15336 C 1400 3.03276 1.70056 0
M  V30 15337 H 1399.33 3.78865 1.27676 0
M  V30 15338 H 1400.77 3.56727 2.29177 0
M  V30 15339 C 1399.23 2.11775 2.62017 0
M  V30 15340 O 1399.76 1.70282 3.63822 0
M  V30 15341 N 1397.96 1.77195 2.30327 0
M  V30 15342 H 1397.51 2.11135 1.4758 0
M  V30 15343 H 1397.47 1.16253 2.92117 0
M  V30 15344 N 1401.24 0.0551678 1.57503 0
M  V30 15345 C 1402.49 -0.61772 1.92848 0
M  V30 15346 C 1402.81 -1.70614 0.933862 0
M  V30 15347 O 1402.07 -1.95628 -0.0532073 0
M  V30 15348 C 1402.37 -1.24895 3.34867 0
M  V30 15349 C 1402.03 -0.288325 4.49977 0
M  V30 15350 C 1400.7 -0.0240016 4.81194 0
M  V30 15351 C 1403.05 0.369804 5.19886 0
M  V30 15352 C 1400.38 0.905818 5.79665 0
M  V30 15353 C 1402.73 1.28784 6.19352 0
M  V30 15354 C 1401.39 1.5608 6.48996 0
M  V30 15355 H 1400.66 -0.22604 0.705682 0
M  V30 15356 H 1403.31 0.1225 1.91108 0
M  V30 15357 H 1401.61 -2.06452 3.32993 0
M  V30 15358 H 1403.31 -1.77659 3.59497 0
M  V30 15359 H 1399.9 -0.504524 4.2562 0
M  V30 15360 H 1404.08 0.178689 4.95978 0
M  V30 15361 H 1399.34 1.12472 6.00966 0
M  V30 15362 H 1403.51 1.80385 6.72632 0
M  V30 15363 H 1401.14 2.28292 7.25112 0
M  V30 15364 N 1402.72 -1.56081 -0.218252 0
M  V30 15365 C 1403.68 -1.91851 -1.25402 0
M  V30 15366 C 1404.68 -0.797399 -1.39636 0
M  V30 15367 O 1405.87 -1.06511 -1.37844 0
M  V30 15368 C 1403 -2.17223 -2.6273 0
M  V30 15369 H 1404.19 -2.84493 -0.948882 0
M  V30 15370 H 1401.75 -1.49414 -0.458809 0
M  V30 15371 H 1402.48 -1.27144 -2.98337 0
M  V30 15372 H 1402.27 -2.98899 -2.53775 0
M  V30 15373 H 1403.76 -2.45981 -3.37466 0
M  V30 15374 N 1404.2 0.485086 -1.49949 0
M  V30 15375 C 1405.14 1.60559 -1.68296 0
M  V30 15376 C 1406.14 1.60264 -0.548802 0
M  V30 15377 O 1407.34 1.64581 -0.728905 0
M  V30 15378 H 1403.72 0.532529 -0.530958 0
M  V30 15379 H 1405.69 1.42242 -2.62316 0
M  V30 15380 C 1404.44 2.98596 -1.78145 0
M  V30 15381 H 1403.76 2.99536 -2.64799 0
M  V30 15382 H 1405.2 3.76492 -1.95012 0
M  V30 15383 C 1403.66 3.32708 -0.529828 0
M  V30 15384 O 1404.19 4.00281 0.337347 0
M  V30 15385 N 1402.4 2.87998 -0.388012 0
M  V30 15386 H 1401.94 2.33182 -1.0947 0
M  V30 15387 H 1401.9 3.11187 0.448307 0
M  V30 15388 N 1405.67 1.39291 0.737279 0
M  V30 15389 C 1406.64 1.37607 1.83294 0
M  V30 15390 C 1407.64 0.273594 1.58455 0
M  V30 15391 O 1408.83 0.531375 1.65898 0
M  V30 15392 C 1405.96 1.14642 3.21045 0
M  V30 15393 H 1407.15 2.35102 1.86191 0
M  V30 15394 H 1404.7 1.24822 0.940696 0
M  V30 15395 H 1405.44 0.178202 3.2381 0
M  V30 15396 H 1405.22 1.94479 3.40471 0
M  V30 15397 H 1406.71 1.162 4.01108 0
M  V30 15398 N 1407.15 -0.967221 1.24429 0
M  V30 15399 C 1408.38 -1.74267 1.10972 0
M  V30 15400 C 1408.79 -1.8611 -0.340522 0
M  V30 15401 O 1408.13 -1.34915 -1.24674 0
M  V30 15402 C 1408.19 -3.18035 1.67613 0
M  V30 15403 C 1407.86 -3.29661 3.16501 0
M  V30 15404 C 1408.86 -3.14952 4.13644 0
M  V30 15405 C 1406.54 -3.53886 3.56469 0
M  V30 15406 C 1408.53 -3.24294 5.48737 0
M  V30 15407 C 1406.22 -3.62866 4.91703 0
M  V30 15408 C 1407.22 -3.48082 5.87646 0
M  V30 15409 O 1406.91 -3.56719 7.20421 0
M  V30 15410 H 1406.64 -0.553293 0.388384 0
M  V30 15411 H 1409.19 -1.22295 1.65025 0
M  V30 15412 H 1407.42 -3.71314 1.07994 0
M  V30 15413 H 1409.11 -3.7739 1.49438 0
M  V30 15414 H 1409.88 -2.9612 3.84107 0
M  V30 15415 H 1405.76 -3.64459 2.82295 0
M  V30 15416 H 1409.3 -3.12672 6.23604 0
M  V30 15417 H 1405.2 -3.81212 5.20911 0
M  V30 15418 H 1405.97 -3.73431 7.28349 0
M  V30 15419 N 1408.63 -1.05812 -1.16797 0
M  V30 15420 C 1409.91 -0.685551 -1.83193 0
M  V30 15421 C 1410.29 0.833539 -1.93947 0
M  V30 15422 O 1409.63 1.74193 -1.47882 0
M  V30 15423 C 1409.84 -1.38183 -3.20479 0
M  V30 15424 C 1411.19 -1.52389 -3.96311 0
M  V30 15425 O 1412.22 -1.34134 -3.2998 0
M  V30 15426 O 1411.08 -1.82297 -5.15199 0
M  V30 15427 H 1408.17 -0.242095 -0.790771 0
M  V30 15428 H 1410.72 -1.15809 -1.24041 0
M  V30 15429 H 1409.49 -2.41791 -3.07657 0
M  V30 15430 H 1409.11 -0.899043 -3.87302 0
M  V30 15431 N 1410.11 1.33347 -0.840014 0
M  V30 15432 C 1411.06 2.31113 -0.262617 0
M  V30 15433 C 1412.05 1.58189 0.606023 0
M  V30 15434 O 1413.26 1.73047 0.495457 0
M  V30 15435 H 1409.63 0.74908 -0.0662003 0
M  V30 15436 H 1411.6 2.77318 -1.10169 0
M  V30 15437 C 1410.35 3.43377 0.54658 0
M  V30 15438 H 1409.67 3.99642 -0.112514 0
M  V30 15439 H 1411.11 4.13978 0.91641 0
M  V30 15440 C 1409.57 2.89333 1.72592 0
M  V30 15441 O 1410.1 2.85615 2.82466 0
M  V30 15442 N 1408.31 2.45926 1.54819 0
M  V30 15443 H 1407.86 2.49149 0.654404 0
M  V30 15444 H 1407.81 2.10119 2.33875 0
M  V30 15445 N 1411.59 0.596556 1.45873 0
M  V30 15446 C 1412.54 -0.14991 2.27507 0
M  V30 15447 C 1413.52 -0.848942 1.36681 0
M  V30 15448 O 1414.71 -0.740752 1.60754 0
M  V30 15449 C 1411.84 -1.15391 3.23326 0
M  V30 15450 C 1410.93 -0.456283 4.21638 0
M  V30 15451 N 1411.32 0.495911 5.03363 0
M  V30 15452 C 1409.62 -0.705263 4.40389 0
M  V30 15453 C 1410.32 0.904941 5.74618 0
M  V30 15454 N 1409.29 0.251069 5.4302 0
M  V30 15455 H 1413.09 0.581593 2.88088 0
M  V30 15456 H 1410.61 0.419386 1.56891 0
M  V30 15457 H 1412.61 -1.70299 3.80531 0
M  V30 15458 H 1411.27 -1.88609 2.64305 0
M  V30 15459 H 1412.28 0.872126 5.10504 0
M  V30 15460 H 1408.95 -1.42296 3.92502 0
M  V30 15461 H 1410.34 1.68965 6.50308 0
M  V30 15462 N 1413.06 -1.53996 0.335095 0
M  V30 15463 C 1414.31 -2.01069 -0.264388 0
M  V30 15464 C 1414.64 -1.22271 -1.50876 0
M  V30 15465 O 1413.92 -0.30806 -1.92045 0
M  V30 15466 C 1414.2 -3.55283 -0.587 0
M  V30 15467 C 1414.05 -4.44799 0.668877 0
M  V30 15468 C 1415.37 -4.17238 -1.40003 0
M  V30 15469 H 1412.49 -0.730901 -0.0946202 0
M  V30 15470 H 1415.13 -1.84497 0.453958 0
M  V30 15471 H 1413.28 -3.69536 -1.19899 0
M  V30 15472 H 1414.96 -4.42398 1.30698 0
M  V30 15473 H 1413.2 -4.14005 1.29547 0
M  V30 15474 H 1413.87 -5.5056 0.398523 0
M  V30 15475 H 1416.35 -4.06631 -0.88262 0
M  V30 15476 H 1415.22 -5.2523 -1.59451 0
M  V30 15477 H 1415.48 -3.71309 -2.39962 0
M  V30 15478 N 1414.54 -0.0635198 -1.57472 0
M  V30 15479 C 1415.79 0.607484 -1.93173 0
M  V30 15480 C 1416.12 1.70117 -0.942897 0
M  V30 15481 O 1415.37 1.95653 0.042832 0
M  V30 15482 C 1415.67 1.23117 -3.35525 0
M  V30 15483 C 1415.34 0.264457 -4.50124 0
M  V30 15484 C 1414 -0.00151762 -4.812 0
M  V30 15485 C 1416.35 -0.39737 -5.19683 0
M  V30 15486 C 1413.68 -0.936547 -5.79177 0
M  V30 15487 C 1416.03 -1.32067 -6.18661 0
M  V30 15488 C 1414.69 -1.59519 -6.48159 0
M  V30 15489 H 1413.96 0.222294 -0.706871 0
M  V30 15490 H 1416.61 -0.132633 -1.9104 0
M  V30 15491 H 1414.92 2.04684 -3.34084 0
M  V30 15492 H 1416.61 1.7575 -3.60434 0
M  V30 15493 H 1413.2 0.481945 -4.25882 0
M  V30 15494 H 1417.39 -0.20499 -4.95876 0
M  V30 15495 H 1412.64 -1.15658 -6.00361 0
M  V30 15496 H 1416.82 -1.83949 -6.71666 0
M  V30 15497 H 1414.44 -2.32134 -7.23891 0
M  V30 15498 N 1416.02 1.56195 0.209972 0
M  V30 15499 C 1417.27 1.80011 0.93402 0
M  V30 15500 C 1417.6 0.635109 1.83521 0
M  V30 15501 O 1416.87 -0.365099 1.91043 0
M  V30 15502 C 1417.16 3.13989 1.76304 0
M  V30 15503 C 1417.01 4.40956 0.887567 0
M  V30 15504 C 1418.33 3.44514 2.73857 0
M  V30 15505 H 1415.45 0.654859 0.338125 0
M  V30 15506 H 1418.09 1.88921 0.20221 0
M  V30 15507 H 1416.24 3.06524 2.38695 0
M  V30 15508 H 1417.91 4.60452 0.279507 0
M  V30 15509 H 1416.15 4.33368 0.193533 0
M  V30 15510 H 1416.83 5.31164 1.50228 0
M  V30 15511 H 1419.3 3.52182 2.216 0
M  V30 15512 H 1418.18 4.39407 3.28957 0
M  V30 15513 H 1418.44 2.6726 3.52171 0
M  V30 15514 N 1417.5 -0.477127 1.50204 0
M  V30 15515 C 1418.46 -1.55824 1.68082 0
M  V30 15516 C 1419.46 -1.51039 0.551719 0
M  V30 15517 O 1420.65 -1.53766 0.818638 0
M  V30 15518 C 1417.78 -2.95462 1.70044 0
M  V30 15519 H 1418.98 -1.41292 2.64531 0
M  V30 15520 H 1416.53 -0.70308 1.39594 0
M  V30 15521 H 1417.26 -3.15445 0.752663 0
M  V30 15522 H 1417.05 -3.00343 2.52065 0
M  V30 15523 H 1418.54 -3.73964 1.85851 0
M  V30 15524 N 1418.98 -1.3968 -0.729882 0
M  V30 15525 C 1420.22 -1.36911 -1.4866 0
M  V30 15526 C 1420.55 0.0326011 -1.94973 0
M  V30 15527 O 1419.82 0.984789 -1.69348 0
M  V30 15528 H 1418.4 -0.503848 -0.551495 0
M  V30 15529 H 1421.06 -1.74596 -0.866155 0
M  V30 15530 H 1420.15 -2.03504 -2.36628 0
M  V30 15531 N 1420.45 0.960609 -1.2494 0
M  V30 15532 C 1421.87 1.23057 -1.01633 0
M  V30 15533 C 1422.07 1.99676 0.270527 0
M  V30 15534 O 1421.13 2.32503 0.984823 0
M  V30 15535 C 1422.44 2.01078 -2.2358 0
M  V30 15536 C 1423.99 2.14144 -2.28279 0
M  V30 15537 C 1424.46 2.95563 -3.49867 0
M  V30 15538 N 1425.95 3.03143 -3.50227 0
M  V30 15539 C 1426.69 3.66518 -4.40967 0
M  V30 15540 N 1426.18 4.31553 -5.41972 0
M  V30 15541 N 1427.98 3.636 -4.28663 0
M  V30 15542 H 1420.13 0.447876 -2.07624 0
M  V30 15543 H 1422.39 0.260581 -0.911483 0
M  V30 15544 H 1422.1 1.52172 -3.17075 0
M  V30 15545 H 1421.97 3.01797 -2.2627 0
M  V30 15546 H 1424.36 2.6225 -1.35311 0
M  V30 15547 H 1424.44 1.1275 -2.29611 0
M  V30 15548 H 1424.08 2.48149 -4.43153 0
M  V30 15549 H 1424.01 3.9717 -3.45779 0
M  V30 15550 H 1426.5 2.56888 -2.77159 0
M  V30 15551 H 1426.82 4.7775 -6.07433 0
M  V30 15552 H 1425.16 4.302 -5.45851 0
M  V30 15553 H 1428.35 3.11973 -3.48985 0
M  V30 15554 H 1428.53 4.12706 -4.99578 0
M  V30 15555 N 1421.93 1.0643 1.16234 0
M  V30 15556 C 1422.86 0.697605 2.22836 0
M  V30 15557 C 1423.84 -0.310563 1.67241 0
M  V30 15558 O 1425.03 -0.185385 1.93313 0
M  V30 15559 C 1422.16 0.0847097 3.47197 0
M  V30 15560 C 1421.11 1.019 4.15693 0
M  V30 15561 C 1420.44 0.269339 5.34021 0
M  V30 15562 C 1421.74 2.34861 4.66516 0
M  V30 15563 H 1423.43 1.58883 2.53765 0
M  V30 15564 H 1420.98 0.765388 1.21975 0
M  V30 15565 H 1422.93 -0.1837 4.20999 0
M  V30 15566 H 1421.66 -0.84154 3.15572 0
M  V30 15567 H 1420.31 1.27218 3.43818 0
M  V30 15568 H 1419.96 -0.660072 4.9865 0
M  V30 15569 H 1419.66 0.892001 5.8079 0
M  V30 15570 H 1421.19 0.00850775 6.10599 0
M  V30 15571 H 1422.6 2.13922 5.31893 0
M  V30 15572 H 1421 2.92637 5.23912 0
M  V30 15573 H 1422.07 2.97834 3.82653 0
M  V30 15574 N 1423.41 -1.329 0.847073 0
M  V30 15575 C 1424.66 -1.96774 0.443022 0
M  V30 15576 C 1424.97 -1.67813 -1.0049 0
M  V30 15577 O 1426.18 -2.25366 -1.51402 0
M  V30 15578 C 1424.63 -3.52184 0.741268 0
M  V30 15579 C 1424.24 -3.90013 2.20441 0
M  V30 15580 C 1425.99 -4.22568 0.404569 0
M  V30 15581 C 1423.89 -5.38434 2.44627 0
M  V30 15582 H 1422.82 -0.736406 0.161932 0
M  V30 15583 H 1425.47 -1.51402 1.0368 0
M  V30 15584 H 1423.86 -3.95925 0.0770158 0
M  V30 15585 H 1425.03 -3.57304 2.90982 0
M  V30 15586 H 1423.35 -3.32633 2.50489 0
M  V30 15587 H 1425.94 -5.3173 0.562795 0
M  V30 15588 H 1426.29 -4.11144 -0.653172 0
M  V30 15589 H 1426.82 -3.84384 1.0244 0
M  V30 15590 H 1423.56 -5.5487 3.48997 0
M  V30 15591 H 1423.08 -5.72575 1.78656 0
M  V30 15592 H 1424.76 -6.05423 2.28194 0
M  V30 15593 N 1424.89 -0.604284 -1.45555 0
M  V30 15594 C 1426.12 -0.104301 -2.06337 0
M  V30 15595 C 1426.53 1.21523 -1.45013 0
M  V30 15596 O 1425.87 1.75039 -0.557422 0
M  V30 15597 C 1425.93 0.113202 -3.59322 0
M  V30 15598 C 1425.6 -1.12402 -4.42961 0
M  V30 15599 C 1426.59 -2.04136 -4.78147 0
M  V30 15600 C 1424.28 -1.35192 -4.83765 0
M  V30 15601 C 1426.27 -3.16991 -5.52988 0
M  V30 15602 C 1423.96 -2.48348 -5.5836 0
M  V30 15603 C 1424.96 -3.39076 -5.92888 0
M  V30 15604 O 1424.64 -4.50264 -6.65971 0
M  V30 15605 H 1424.38 -0.0644639 -0.672919 0
M  V30 15606 H 1426.93 -0.830982 -1.8784 0
M  V30 15607 H 1425.16 0.894739 -3.76206 0
M  V30 15608 H 1426.85 0.564372 -4.01957 0
M  V30 15609 H 1427.62 -1.87753 -4.47184 0
M  V30 15610 H 1423.49 -0.654731 -4.56327 0
M  V30 15611 H 1427.04 -3.87831 -5.79856 0
M  V30 15612 H 1422.94 -2.64686 -5.88737 0
M  V30 15613 H 1423.7 -4.48904 -6.84418 0
M  V30 15614 N 1426.37 1.53816 -0.343257 0
M  V30 15615 C 1427.61 2.0282 0.253695 0
M  V30 15616 C 1427.97 1.22564 1.47791 0
M  V30 15617 O 1429.17 1.61464 2.14902 0
M  V30 15618 C 1427.44 3.5298 0.560361 0
M  V30 15619 S 1429 4.23889 1.13416 0
M  V30 15620 H 1425.82 0.706976 0.0755344 0
M  V30 15621 H 1428.42 1.89492 -0.480951 0
M  V30 15622 H 1427.13 4.09002 -0.338451 0
M  V30 15623 H 1426.66 3.70426 1.32468 0
M  V30 15624 H 1428.67 4.33192 2.4199 0
M  V30 15625 N 1427.84 0.0718701 1.57436 0
M  V30 15626 C 1428.77 -0.89288 2.15754 0
M  V30 15627 C 1429.76 -1.31036 1.0846 0
M  V30 15628 O 1430.94 -1.38139 1.36496 0
M  V30 15629 C 1428.07 -2.16044 2.71923 0
M  V30 15630 C 1427.02 -1.88236 3.84384 0
M  V30 15631 C 1426.35 -3.21624 4.27156 0
M  V30 15632 C 1427.65 -1.18758 5.0862 0
M  V30 15633 H 1429.34 -0.407061 2.9662 0
M  V30 15634 H 1426.89 -0.194354 1.42682 0
M  V30 15635 H 1428.84 -2.83952 3.11366 0
M  V30 15636 H 1427.57 -2.66868 1.88279 0
M  V30 15637 H 1426.23 -1.22734 3.45445 0
M  V30 15638 H 1425.87 -3.70289 3.40433 0
M  V30 15639 H 1425.57 -3.03809 5.02965 0
M  V30 15640 H 1427.1 -3.90729 4.69215 0
M  V30 15641 H 1428.51 -1.76735 5.45378 0
M  V30 15642 H 1426.91 -1.11201 5.89707 0
M  V30 15643 H 1427.98 -0.166682 4.84613 0
M  V30 15644 N 1429.32 -1.56304 -0.201686 0
M  V30 15645 C 1430.27 -1.94901 -1.26949 0
M  V30 15646 C 1431.26 -0.833574 -1.47472 0
M  V30 15647 O 1432.47 -1.01854 -1.48411 0
M  V30 15648 H 1428.85 -0.619663 -0.426053 0
M  V30 15649 H 1430.82 -2.83964 -0.9169 0
M  V30 15650 C 1429.57 -2.29913 -2.60835 0
M  V30 15651 H 1428.89 -3.15268 -2.45858 0
M  V30 15652 H 1430.33 -2.60789 -3.34313 0
M  V30 15653 C 1428.79 -1.13136 -3.17335 0
M  V30 15654 O 1429.32 -0.402915 -3.99674 0
M  V30 15655 N 1427.52 -0.909912 -2.75987 0
M  V30 15656 H 1427.07 -1.50402 -2.09134 0
M  V30 15657 H 1427.03 -0.130348 -3.1413 0
M  V30 15658 N 1430.8 0.469154 -1.50455 0
M  V30 15659 C 1432.05 1.21788 -1.60781 0
M  V30 15660 C 1432.36 1.93054 -0.314576 0
M  V30 15661 O 1433.57 2.69873 -0.296773 0
M  V30 15662 C 1432.02 2.21305 -2.83817 0
M  V30 15663 C 1431.63 1.55833 -4.20024 0
M  V30 15664 C 1433.38 2.96808 -3.03489 0
M  V30 15665 C 1431.28 2.53648 -5.34244 0
M  V30 15666 H 1430.21 0.45827 -0.598752 0
M  V30 15667 H 1432.86 0.488159 -1.76888 0
M  V30 15668 H 1431.25 2.97577 -2.61273 0
M  V30 15669 H 1432.42 0.853371 -4.52829 0
M  V30 15670 H 1430.74 0.926046 -4.05972 0
M  V30 15671 H 1433.33 3.70017 -3.85994 0
M  V30 15672 H 1433.68 3.56307 -2.15293 0
M  V30 15673 H 1434.21 2.27648 -3.26223 0
M  V30 15674 H 1430.95 1.98885 -6.246 0
M  V30 15675 H 1430.47 3.22291 -5.05854 0
M  V30 15676 H 1432.15 3.15438 -5.64897 0
M  V30 15677 N 1432.28 1.40065 0.722464 0
M  V30 15678 C 1433.53 1.37277 1.47776 0
M  V30 15679 C 1433.84 -0.0242852 1.95585 0
M  V30 15680 O 1435.05 -0.174769 2.70937 0
M  V30 15681 C 1433.5 2.41233 2.67085 0
M  V30 15682 C 1433.11 3.86716 2.26174 0
M  V30 15683 C 1434.85 2.47541 3.44853 0
M  V30 15684 C 1432.76 4.82284 3.42281 0
M  V30 15685 H 1431.69 0.510405 0.55498 0
M  V30 15686 H 1434.34 1.6577 0.786928 0
M  V30 15687 H 1432.72 2.0583 3.38305 0
M  V30 15688 H 1433.9 4.31227 1.6242 0
M  V30 15689 H 1432.21 3.83819 1.61468 0
M  V30 15690 H 1434.81 3.16131 4.31237 0
M  V30 15691 H 1435.15 1.50379 3.8819 0
M  V30 15692 H 1435.69 2.81901 2.80672 0
M  V30 15693 H 1432.43 5.80754 3.03982 0
M  V30 15694 H 1431.95 4.42443 4.04975 0
M  V30 15695 H 1433.62 5.0178 4.08443 0
M  V30 15696 N 1433.76 -0.95397 1.25448 0
M  V30 15697 C 1435 -1.69866 1.10235 0
M  V30 15698 C 1435.33 -1.91204 -0.356552 0
M  V30 15699 O 1434.59 -1.4811 -1.27914 0
M  V30 15700 C 1434.89 -3.08613 1.80258 0
M  V30 15701 C 1434.55 -3.07072 3.30178 0
M  V30 15702 C 1433.21 -3.0636 3.71076 0
M  V30 15703 C 1435.57 -3.00351 4.25956 0
M  V30 15704 C 1432.89 -2.96675 5.06163 0
M  V30 15705 C 1435.25 -2.92209 5.61067 0
M  V30 15706 C 1433.91 -2.89832 6.01293 0
M  V30 15707 H 1433.18 -0.621583 0.40338 0
M  V30 15708 H 1435.83 -1.11448 1.55729 0
M  V30 15709 H 1434.13 -3.70578 1.27197 0
M  V30 15710 H 1435.83 -3.65055 1.6594 0
M  V30 15711 H 1432.42 -3.084 2.97637 0
M  V30 15712 H 1436.6 -3.0002 3.9535 0
M  V30 15713 H 1431.86 -2.93204 5.36508 0
M  V30 15714 H 1436.03 -2.8597 6.34976 0
M  V30 15715 H 1433.66 -2.82084 7.05927 0
M  V30 15716 N 1435.24 -1.07045 -1.15668 0
M  V30 15717 C 1436.48 -0.802736 -1.8689 0
M  V30 15718 C 1436.84 0.663897 -1.80583 0
M  V30 15719 O 1436.13 1.48076 -1.2159 0
M  V30 15720 C 1436.32 -1.24127 -3.35153 0
M  V30 15721 C 1436.15 -2.749 -3.55894 0
M  V30 15722 C 1434.92 -3.42466 -3.71544 0
M  V30 15723 C 1437.12 -3.73102 -3.53977 0
M  V30 15724 N 1435.1 -4.81912 -3.80308 0
M  V30 15725 C 1436.47 -4.98371 -3.68817 0
M  V30 15726 C 1438.53 -3.66304 -3.37233 0
M  V30 15727 C 1437.23 -6.17651 -3.68645 0
M  V30 15728 C 1439.26 -4.85045 -3.38357 0
M  V30 15729 C 1438.62 -6.09146 -3.53725 0
M  V30 15730 H 1434.72 -0.346254 -0.701165 0
M  V30 15731 H 1437.3 -1.36609 -1.3873 0
M  V30 15732 H 1435.47 -0.705653 -3.81936 0
M  V30 15733 H 1437.21 -0.92143 -3.94071 0
M  V30 15734 H 1433.96 -2.92871 -3.72187 0
M  V30 15735 H 1434.38 -5.54475 -3.88441 0
M  V30 15736 H 1439.03 -2.71306 -3.24273 0
M  V30 15737 H 1436.74 -7.12975 -3.80384 0
M  V30 15738 H 1440.33 -4.81458 -3.26634 0
M  V30 15739 H 1439.21 -6.99487 -3.54524 0
M  V30 15740 N 1436.71 1.32449 -0.85411 0
M  V30 15741 C 1437.94 2.01171 -0.470505 0
M  V30 15742 C 1438.35 1.64356 0.937218 0
M  V30 15743 O 1437.69 0.860565 1.62296 0
M  V30 15744 C 1437.76 3.55583 -0.529241 0
M  V30 15745 C 1437.42 4.15824 -1.89576 0
M  V30 15746 C 1438.42 4.34091 -2.86114 0
M  V30 15747 C 1436.1 4.51911 -2.19276 0
M  V30 15748 C 1438.1 4.87612 -4.10504 0
M  V30 15749 C 1435.78 5.05137 -3.43919 0
M  V30 15750 C 1436.78 5.22936 -4.39349 0
M  V30 15751 O 1436.47 5.75024 -5.61785 0
M  V30 15752 H 1436.2 0.650645 -0.183405 0
M  V30 15753 H 1438.76 1.70015 -1.15257 0
M  V30 15754 H 1436.99 3.86131 0.209671 0
M  V30 15755 H 1438.67 4.05579 -0.161315 0
M  V30 15756 H 1439.44 4.06545 -2.64473 0
M  V30 15757 H 1435.32 4.37343 -1.45782 0
M  V30 15758 H 1438.86 5.0142 -4.84999 0
M  V30 15759 H 1434.76 5.32114 -3.6541 0
M  V30 15760 H 1435.53 5.93418 -5.63736 0
M  V30 15761 N 1438.19 0.611994 1.45232 0
M  V30 15762 C 1439.44 0.109073 2.02506 0
M  V30 15763 C 1439.77 -1.25876 1.47881 0
M  V30 15764 O 1439.05 -1.83131 0.65524 0
M  V30 15765 C 1439.33 0.0749288 3.60022 0
M  V30 15766 C 1439.18 1.47374 4.24972 0
M  V30 15767 C 1440.5 -0.610602 4.35844 0
M  V30 15768 H 1437.62 0.0411101 0.735853 0
M  V30 15769 H 1440.26 0.78481 1.73034 0
M  V30 15770 H 1438.41 -0.500511 3.85262 0
M  V30 15771 H 1440.08 2.0966 4.10902 0
M  V30 15772 H 1438.33 2.03319 3.83202 0
M  V30 15773 H 1439 1.40206 5.33897 0
M  V30 15774 H 1441.47 -0.121445 4.15923 0
M  V30 15775 H 1440.35 -0.603614 5.45571 0
M  V30 15776 H 1440.61 -1.6775 4.09038 0
M  V30 15777 N 1439.67 -1.53632 0.351409 0
M  V30 15778 C 1441.09 -1.596 -0.000214515 0
M  V30 15779 C 1441.29 -1.36709 -1.4803 0
M  V30 15780 O 1440.34 -1.16524 -2.24006 0
M  V30 15781 C 1441.65 -2.97419 0.443013 0
M  V30 15782 C 1443.2 -3.10485 0.396025 0
M  V30 15783 C 1443.68 -4.50693 0.814843 0
M  V30 15784 N 1445.17 -4.56766 0.76934 0
M  V30 15785 C 1445.9 -5.63418 1.06526 0
M  V30 15786 N 1445.4 -6.77887 1.42974 0
M  V30 15787 N 1447.19 -5.53331 0.988986 0
M  V30 15788 H 1439.34 -1.66765 1.31542 0
M  V30 15789 H 1441.61 -0.781418 0.53674 0
M  V30 15790 H 1441.31 -3.19262 1.47529 0
M  V30 15791 H 1441.19 -3.76781 -0.177725 0
M  V30 15792 H 1443.57 -2.8836 -0.627092 0
M  V30 15793 H 1443.65 -2.33163 1.05207 0
M  V30 15794 H 1443.3 -4.73554 1.83601 0
M  V30 15795 H 1443.23 -5.26424 0.136193 0
M  V30 15796 H 1445.72 -3.74569 0.500623 0
M  V30 15797 H 1446.03 -7.55194 1.64018 0
M  V30 15798 H 1444.38 -6.79314 1.46827 0
M  V30 15799 H 1447.57 -4.62783 0.703526 0
M  V30 15800 H 1447.74 -6.36355 1.22295 0
M  V30 15801 N 1441.15 -0.0802183 -1.57396 0
M  V30 15802 C 1442.08 0.881426 -2.16225 0
M  V30 15803 C 1443.06 1.30459 -1.09154 0
M  V30 15804 O 1444.24 1.37413 -1.37227 0
M  V30 15805 C 1441.37 2.14599 -2.73065 0
M  V30 15806 C 1440.33 1.86195 -3.85377 0
M  V30 15807 C 1439.65 3.19354 -4.28856 0
M  V30 15808 C 1440.95 1.16059 -5.09242 0
M  V30 15809 H 1442.65 0.391325 -2.96832 0
M  V30 15810 H 1440.19 0.186785 -1.42783 0
M  V30 15811 H 1442.15 2.82297 -3.12868 0
M  V30 15812 H 1440.87 2.65866 -1.89691 0
M  V30 15813 H 1439.53 1.209 -3.46091 0
M  V30 15814 H 1439.18 3.68479 -3.42392 0
M  V30 15815 H 1438.88 3.01137 -5.04569 0
M  V30 15816 H 1440.4 3.88235 -4.71281 0
M  V30 15817 H 1441.82 1.7384 -5.46308 0
M  V30 15818 H 1440.21 1.08072 -5.90288 0
M  V30 15819 H 1441.28 0.14098 -4.84695 0
M  V30 15820 N 1442.63 1.56409 0.193394 0
M  V30 15821 C 1443.56 1.97707 1.24234 0
M  V30 15822 C 1444.54 0.849286 1.47381 0
M  V30 15823 O 1445.72 1.11374 1.59089 0
M  V30 15824 C 1442.85 2.31804 2.5862 0
M  V30 15825 C 1441.81 3.47337 2.50082 0
M  V30 15826 C 1441.13 3.67114 3.88756 0
M  V30 15827 C 1442.43 4.81472 2.02441 0
M  V30 15828 H 1444.13 2.8558 0.89914 0
M  V30 15829 H 1441.67 1.37396 0.431078 0
M  V30 15830 H 1443.62 2.5929 3.32185 0
M  V30 15831 H 1442.35 1.40816 2.94684 0
M  V30 15832 H 1441.01 3.19944 1.78973 0
M  V30 15833 H 1440.66 2.73454 4.22175 0
M  V30 15834 H 1440.36 4.44838 3.83918 0
M  V30 15835 H 1441.88 3.96978 4.6394 0
M  V30 15836 H 1443.29 5.07978 2.65766 0
M  V30 15837 H 1441.69 5.62677 2.08601 0
M  V30 15838 H 1442.76 4.74941 0.977704 0
M  V30 15839 N 1444.1 -0.461169 1.50702 0
M  V30 15840 C 1445.38 -1.22225 1.52711 0
M  V30 15841 C 1445.76 -2.09268 0.27749 0
M  V30 15842 O 1445.11 -2.16232 -0.738642 0
M  V30 15843 C 1445.32 -2.04472 2.82829 0
M  V30 15844 C 1446.67 -2.62326 3.33872 0
M  V30 15845 O 1447.69 -2.14706 2.84218 0
M  V30 15846 O 1446.55 -3.49116 4.20453 0
M  V30 15847 H 1443.64 -0.555168 0.612958 0
M  V30 15848 H 1446.19 -0.47218 1.62999 0
M  V30 15849 H 1444.96 -1.40392 3.65247 0
M  V30 15850 H 1444.58 -2.86593 2.75591 0
M  V30 15851 N 1445.58 -1.40446 -0.715026 0
M  V30 15852 C 1446.83 -1.38754 -1.47491 0
M  V30 15853 C 1447.16 0.0099443 -1.94497 0
M  V30 15854 O 1446.41 0.99458 -1.68543 0
M  V30 15855 C 1446.71 -2.32392 -2.7153 0
M  V30 15856 C 1446.38 -3.79635 -2.43286 0
M  V30 15857 C 1445.04 -4.19751 -2.35293 0
M  V30 15858 C 1447.39 -4.72681 -2.19596 0
M  V30 15859 C 1444.72 -5.50947 -2.01679 0
M  V30 15860 C 1447.07 -6.04176 -1.87495 0
M  V30 15861 C 1445.73 -6.43333 -1.77985 0
M  V30 15862 H 1445 -0.507738 -0.539706 0
M  V30 15863 H 1447.65 -1.73104 -0.81898 0
M  V30 15864 H 1445.96 -1.91229 -3.41963 0
M  V30 15865 H 1447.65 -2.28366 -3.29621 0
M  V30 15866 H 1444.24 -3.47852 -2.50393 0
M  V30 15867 H 1448.43 -4.42506 -2.24727 0
M  V30 15868 H 1443.68 -5.80187 -1.92854 0
M  V30 15869 H 1447.86 -6.75788 -1.68179 0
M  V30 15870 H 1445.48 -7.44909 -1.51706 0
M  V30 15871 N 1447.06 0.947303 -1.25952 0
M  V30 15872 C 1447.99 2.0625 -1.09467 0
M  V30 15873 C 1448.97 1.701 -0.00160498 0
M  V30 15874 O 1450.16 1.93432 -0.172501 0
M  V30 15875 C 1447.29 3.39746 -0.720392 0
M  V30 15876 C 1446.24 3.89935 -1.76451 0
M  V30 15877 C 1445.57 5.2001 -1.24472 0
M  V30 15878 C 1446.87 4.15496 -3.16481 0
M  V30 15879 H 1448.56 2.203 -2.02752 0
M  V30 15880 H 1446.11 1.05858 -0.97622 0
M  V30 15881 H 1448.06 4.17221 -0.591972 0
M  V30 15882 H 1446.78 3.25656 0.248161 0
M  V30 15883 H 1445.44 3.14635 -1.8815 0
M  V30 15884 H 1445.09 5.02295 -0.266182 0
M  V30 15885 H 1444.79 5.54559 -1.94263 0
M  V30 15886 H 1446.31 6.00075 -1.12884 0
M  V30 15887 H 1447.73 4.83605 -3.07894 0
M  V30 15888 H 1446.12 4.61315 -3.83808 0
M  V30 15889 H 1447.19 3.21501 -3.62995 0
M  V30 15890 N 1448.54 1.07657 1.15099 0
M  V30 15891 C 1449.5 0.703558 2.18135 0
M  V30 15892 C 1450.5 -0.257771 1.5872 0
M  V30 15893 O 1451.69 -0.0383211 1.74158 0
M  V30 15894 C 1448.82 0.0374978 3.40879 0
M  V30 15895 H 1450.02 1.61583 2.52648 0
M  V30 15896 H 1447.57 0.873484 1.29615 0
M  V30 15897 H 1448.3 -0.886868 3.11938 0
M  V30 15898 H 1448.09 0.728961 3.85264 0
M  V30 15899 H 1449.58 -0.208714 4.17078 0
M  V30 15900 N 1450.02 -1.31994 0.861122 0
M  V30 15901 C 1451.26 -1.97317 0.468371 0
M  V30 15902 C 1451.6 -1.67954 -0.974941 0
M  V30 15903 O 1450.87 -0.971243 -1.68514 0
M  V30 15904 C 1451.15 -3.52918 0.715607 0
M  V30 15905 C 1451.01 -3.91888 2.20781 0
M  V30 15906 C 1452.33 -4.39747 0.17624 0
M  V30 15907 H 1449.44 -0.716733 0.171646 0
M  V30 15908 H 1452.09 -1.56269 1.08074 0
M  V30 15909 H 1450.24 -3.88013 0.194387 0
M  V30 15910 H 1451.91 -3.66938 2.7956 0
M  V30 15911 H 1450.15 -3.40813 2.68382 0
M  V30 15912 H 1450.82 -5.00346 2.33147 0
M  V30 15913 H 1453.3 -4.11424 0.622043 0
M  V30 15914 H 1452.17 -5.47592 0.378748 0
M  V30 15915 H 1452.44 -4.32393 -0.921358 0
M  V30 15916 N 1451.49 -0.619688 -1.44906 0
M  V30 15917 C 1452.44 0.104373 -2.32366 0
M  V30 15918 C 1453.44 0.847423 -1.4668 0
M  V30 15919 O 1454.64 0.761618 -1.63093 0
M  V30 15920 H 1451.02 0.0525126 -0.750164 0
M  V30 15921 H 1452.99 -0.651525 -2.912 0
M  V30 15922 C 1451.74 1.08017 -3.30496 0
M  V30 15923 H 1451.06 0.517831 -3.96432 0
M  V30 15924 H 1452.5 1.5565 -3.94397 0
M  V30 15925 C 1450.96 2.15975 -2.58566 0
M  V30 15926 O 1451.49 3.23895 -2.37603 0
M  V30 15927 N 1449.7 1.91593 -2.18496 0
M  V30 15928 H 1449.24 1.03835 -2.35746 0
M  V30 15929 H 1449.2 2.64028 -1.70694 0
M  V30 15930 N 1452.97 1.53444 -0.359552 0
M  V30 15931 C 1453.9 2.23121 0.524379 0
M  V30 15932 C 1454.92 1.24324 1.05106 0
M  V30 15933 O 1456.11 1.50584 0.958476 0
M  V30 15934 C 1453.21 2.91055 1.7361 0
M  V30 15935 C 1452.38 4.16306 1.34195 0
M  V30 15936 C 1451.44 4.67504 2.41508 0
M  V30 15937 O 1450.46 5.3133 2.04149 0
M  V30 15938 N 1451.67 4.44801 3.73005 0
M  V30 15939 H 1454.43 2.99612 -0.072427 0
M  V30 15940 H 1451.99 1.60846 -0.184438 0
M  V30 15941 H 1453.98 3.22216 2.44865 0
M  V30 15942 H 1452.55 2.18052 2.23991 0
M  V30 15943 H 1451.77 3.91513 0.459501 0
M  V30 15944 H 1453.06 4.97746 1.05483 0
M  V30 15945 H 1452.46 3.9379 4.06136 0
M  V30 15946 H 1451.02 4.80528 4.40382 0
M  V30 15947 N 1454.45 0.0885642 1.57351 0
M  V30 15948 C 1455.38 -0.902617 2.10679 0
M  V30 15949 C 1456.4 -1.25037 1.04257 0
M  V30 15950 O 1457.58 -1.20462 1.31723 0
M  V30 15951 C 1454.68 -2.21362 2.56616 0
M  V30 15952 C 1453.86 -2.04219 3.86799 0
M  V30 15953 C 1452.92 -3.18774 4.18652 0
M  V30 15954 O 1451.94 -2.93024 4.87981 0
M  V30 15955 N 1453.14 -4.44357 3.73534 0
M  V30 15956 H 1455.91 -0.447199 2.96345 0
M  V30 15957 H 1453.47 -0.0967178 1.61611 0
M  V30 15958 H 1455.46 -2.96935 2.74976 0
M  V30 15959 H 1454.03 -2.58349 1.75996 0
M  V30 15960 H 1453.25 -1.13015 3.77652 0
M  V30 15961 H 1454.54 -1.90035 4.71979 0
M  V30 15962 H 1453.94 -4.68159 3.17558 0
M  V30 15963 H 1452.5 -5.169 3.97061 0
M  V30 15964 N 1455.93 -1.56509 -0.185096 0
M  V30 15965 C 1456.89 -1.94468 -1.21305 0
M  V30 15966 C 1457.89 -0.826838 -1.37913 0
M  V30 15967 O 1459.08 -1.09411 -1.35554 0
M  V30 15968 C 1456.21 -2.22747 -2.58063 0
M  V30 15969 H 1457.41 -2.86442 -0.888323 0
M  V30 15970 H 1454.96 -1.50354 -0.427012 0
M  V30 15971 H 1455.69 -1.33443 -2.95573 0
M  V30 15972 H 1455.48 -3.04215 -2.47378 0
M  V30 15973 H 1456.97 -2.53084 -3.32172 0
M  V30 15974 N 1457.41 0.45317 -1.50944 0
M  V30 15975 C 1458.65 1.20151 -1.62506 0
M  V30 15976 C 1458.98 1.92085 -0.335927 0
M  V30 15977 O 1458.25 1.84889 0.64751 0
M  V30 15978 H 1456.83 0.446502 -0.59887 0
M  V30 15979 H 1459.49 0.521103 -1.87804 0
M  V30 15980 H 1458.58 1.93972 -2.44502 0
M  V30 15981 N 1458.88 1.40823 0.707568 0
M  V30 15982 C 1460.3 1.35249 1.28704 0
M  V30 15983 C 1460.65 0.0298026 1.96177 0
M  V30 15984 O 1459.77 -0.872126 1.98048 0
M  V30 15985 C 1460.37 2.44965 2.34046 0
M  V30 15986 C 1458.93 2.42826 2.87598 0
M  V30 15987 C 1458.07 2.25429 1.61483 0
M  V30 15988 H 1461.02 1.50513 0.503141 0
M  V30 15989 H 1461.04 2.13334 3.1507 0
M  V30 15990 H 1460.56 3.41219 1.84908 0
M  V30 15991 H 1458.66 1.50294 3.40944 0
M  V30 15992 H 1458.77 3.38704 3.38845 0
M  V30 15993 H 1457.13 1.73089 1.86848 0
M  V30 15994 H 1457.92 3.23693 1.14359 0
M  V30 15995 N 1460.36 -0.94061 1.26453 0
M  V30 15996 C 1461.59 -1.71874 1.14643 0
M  V30 15997 C 1462 -1.86791 -0.300969 0
M  V30 15998 O 1461.34 -1.37529 -1.21784 0
M  V30 15999 C 1461.41 -3.14408 1.74321 0
M  V30 16000 C 1461.07 -3.22873 3.23422 0
M  V30 16001 C 1462.07 -3.06107 4.20231 0
M  V30 16002 C 1459.75 -3.46245 3.63895 0
M  V30 16003 C 1461.75 -3.12581 5.55492 0
M  V30 16004 C 1459.43 -3.52354 4.99289 0
M  V30 16005 C 1460.43 -3.35539 5.94897 0
M  V30 16006 O 1460.12 -3.41357 7.27826 0
M  V30 16007 H 1459.85 -0.544931 0.400033 0
M  V30 16008 H 1462.4 -1.18767 1.67581 0
M  V30 16009 H 1460.63 -3.6894 1.15846 0
M  V30 16010 H 1462.32 -3.74135 1.57409 0
M  V30 16011 H 1463.09 -2.87906 3.90302 0
M  V30 16012 H 1458.97 -3.58389 2.89962 0
M  V30 16013 H 1462.51 -2.99374 6.30096 0
M  V30 16014 H 1458.41 -3.70077 5.2888 0
M  V30 16015 H 1459.18 -3.57897 7.36106 0
M  V30 16016 N 1461.84 -1.08266 -1.14527 0
M  V30 16017 C 1463.09 -0.812661 -1.85805 0
M  V30 16018 C 1463.42 0.659878 -1.82645 0
M  V30 16019 O 1462.69 1.48498 -1.25612 0
M  V30 16020 C 1462.98 -1.33335 -3.34505 0
M  V30 16021 C 1462.83 -2.87113 -3.46246 0
M  V30 16022 C 1464.15 -0.957435 -4.29559 0
M  V30 16023 H 1461.27 -0.296681 -0.674648 0
M  V30 16024 H 1463.91 -1.34203 -1.34497 0
M  V30 16025 H 1462.06 -0.883056 -3.78331 0
M  V30 16026 H 1463.73 -3.40502 -3.11217 0
M  V30 16027 H 1461.98 -3.24845 -2.87504 0
M  V30 16028 H 1462.65 -3.18618 -4.50762 0
M  V30 16029 H 1465.12 -1.3456 -3.93742 0
M  V30 16030 H 1464 -1.34897 -5.32066 0
M  V30 16031 H 1464.26 0.135689 -4.41892 0
M  V30 16032 N 1463.32 1.31536 -0.86811 0
M  V30 16033 C 1464.25 2.2663 -0.2672 0
M  V30 16034 C 1465.23 1.51023 0.602574 0
M  V30 16035 O 1466.41 1.80101 0.556408 0
M  V30 16036 C 1463.54 3.32943 0.62183 0
M  V30 16037 C 1462.59 4.26135 -0.176348 0
M  V30 16038 S 1463.42 5.12467 -1.55363 0
M  V30 16039 C 1464.58 6.22296 -0.670673 0
M  V30 16040 H 1464.81 2.7725 -1.07331 0
M  V30 16041 H 1462.34 1.39273 -0.666521 0
M  V30 16042 H 1464.3 3.94667 1.12908 0
M  V30 16043 H 1462.96 2.81081 1.40187 0
M  V30 16044 H 1462.15 5.015 0.501358 0
M  V30 16045 H 1461.76 3.68898 -0.61563 0
M  V30 16046 H 1464.05 6.77395 0.119508 0
M  V30 16047 H 1464.99 6.94215 -1.39539 0
M  V30 16048 H 1465.4 5.63994 -0.239048 0
M  V30 16049 N 1464.8 0.627364 1.44575 0
M  V30 16050 C 1465.73 -0.129056 2.27835 0
M  V30 16051 C 1466.71 -0.854852 1.38315 0
M  V30 16052 O 1467.89 -0.859709 1.67754 0
M  V30 16053 C 1465.02 -1.18866 3.17157 0
M  V30 16054 C 1464.07 -0.563816 4.22757 0
M  V30 16055 S 1464.9 0.643269 5.31622 0
M  V30 16056 C 1466.05 -0.416443 6.24513 0
M  V30 16057 H 1466.29 0.577281 2.91641 0
M  V30 16058 H 1463.82 0.415427 1.48706 0
M  V30 16059 H 1465.78 -1.79508 3.69171 0
M  V30 16060 H 1464.44 -1.86717 2.52578 0
M  V30 16061 H 1463.63 -1.36173 4.85256 0
M  V30 16062 H 1463.23 -0.0321045 3.73986 0
M  V30 16063 H 1465.53 -1.29006 6.65104 0
M  V30 16064 H 1466.47 0.172871 7.07889 0
M  V30 16065 H 1466.88 -0.740651 5.5962 0
M  V30 16066 N 1466.28 -1.53251 0.367684 0
M  V30 16067 C 1467.52 -2.00469 -0.222481 0
M  V30 16068 C 1467.84 -1.259 -1.49695 0
M  V30 16069 O 1469.04 -1.63717 -2.16585 0
M  V30 16070 C 1467.5 -3.57113 -0.447018 0
M  V30 16071 C 1467.11 -4.40562 0.812946 0
M  V30 16072 C 1468.85 -4.12681 -0.994725 0
M  V30 16073 C 1466.76 -5.88763 0.557877 0
M  V30 16074 H 1465.69 -0.748974 -0.0869144 0
M  V30 16075 H 1468.34 -1.76927 0.48675 0
M  V30 16076 H 1466.72 -3.76818 -1.21756 0
M  V30 16077 H 1467.9 -4.3263 1.58644 0
M  V30 16078 H 1466.21 -3.96108 1.28403 0
M  V30 16079 H 1468.81 -5.2104 -1.20091 0
M  V30 16080 H 1469.15 -3.67408 -1.95748 0
M  V30 16081 H 1469.68 -3.96783 -0.284295 0
M  V30 16082 H 1466.42 -6.38317 1.49102 0
M  V30 16083 H 1465.94 -5.99539 -0.177082 0
M  V30 16084 H 1467.62 -6.46738 0.18419 0
M  V30 16085 N 1467.75 -0.0969077 -1.57302 0
M  V30 16086 C 1469 0.565254 -1.94034 0
M  V30 16087 C 1469.32 1.68609 -0.9796 0
M  V30 16088 O 1468.59 1.95874 -0.0319788 0
M  V30 16089 H 1467.17 0.211796 -0.716346 0
M  V30 16090 H 1469.83 -0.160665 -1.94237 0
M  V30 16091 H 1468.93 0.974268 -2.96504 0
M  V30 16092 N 1469.23 1.56605 0.176793 0
M  V30 16093 C 1470.18 1.95985 1.21896 0
M  V30 16094 C 1471.15 0.822983 1.44278 0
M  V30 16095 O 1472.33 1.08266 1.57109 0
M  V30 16096 C 1469.47 2.32029 2.55454 0
M  V30 16097 C 1468.59 3.58867 2.40497 0
M  V30 16098 C 1467.72 3.84148 3.66884 0
M  V30 16099 C 1466.76 5.04352 3.46837 0
M  V30 16100 N 1465.9 5.25794 4.6528 0
M  V30 16101 H 1470.74 2.84829 0.876137 0
M  V30 16102 H 1468.27 1.4094 0.421221 0
M  V30 16103 H 1470.23 2.50947 3.33289 0
M  V30 16104 H 1468.86 1.46301 2.87743 0
M  V30 16105 H 1467.91 3.47893 1.53866 0
M  V30 16106 H 1469.23 4.46859 2.21627 0
M  V30 16107 H 1468.38 4.03404 4.53155 0
M  V30 16108 H 1467.12 2.9452 3.88727 0
M  V30 16109 H 1466.12 4.84999 2.58952 0
M  V30 16110 H 1467.35 5.95505 3.26421 0
M  V30 16111 H 1465.3 4.39117 4.87352 0
M  V30 16112 H 1465.21 6.07999 4.49303 0
M  V30 16113 H 1466.48 5.49524 5.5285 0
M  V30 16114 N 1470.71 -0.445159 1.51182 0
M  V30 16115 C 1471.64 -1.55943 1.66604 0
M  V30 16116 C 1472.62 -1.54272 0.513703 0
M  V30 16117 O 1473.8 -1.73514 0.736548 0
M  V30 16118 C 1470.93 -2.94528 1.67245 0
M  V30 16119 C 1469.98 -3.14255 2.88351 0
M  V30 16120 S 1470.81 -2.91385 4.49283 0
M  V30 16121 C 1471.97 -4.32265 4.52656 0
M  V30 16122 H 1472.2 -1.42627 2.60854 0
M  V30 16123 H 1469.73 -0.634314 1.40769 0
M  V30 16124 H 1471.69 -3.74414 1.68299 0
M  V30 16125 H 1470.35 -3.05214 0.741856 0
M  V30 16126 H 1469.54 -4.1556 2.85177 0
M  V30 16127 H 1469.15 -2.42182 2.84998 0
M  V30 16128 H 1471.44 -5.25338 4.27816 0
M  V30 16129 H 1472.38 -4.40474 5.54426 0
M  V30 16130 H 1472.79 -4.15555 3.82066 0
M  V30 16131 N 1472.19 -1.41197 -0.700089 0
M  V30 16132 C 1473.43 -1.40519 -1.46227 0
M  V30 16133 C 1473.77 -0.0126108 -1.94196 0
M  V30 16134 O 1473.04 0.958837 -1.69223 0
M  V30 16135 C 1473.32 -2.40808 -2.67738 0
M  V30 16136 C 1473.18 -3.89154 -2.25563 0
M  V30 16137 C 1474.5 -2.38415 -3.69927 0
M  V30 16138 H 1471.62 -0.511724 -0.530384 0
M  V30 16139 H 1474.26 -1.72441 -0.797754 0
M  V30 16140 H 1472.41 -2.13717 -3.24434 0
M  V30 16141 H 1474.08 -4.27132 -1.74229 0
M  V30 16142 H 1472.32 -4.04239 -1.57395 0
M  V30 16143 H 1472.99 -4.54866 -3.12731 0
M  V30 16144 H 1475.47 -2.62447 -3.22895 0
M  V30 16145 H 1474.35 -3.10609 -4.52563 0
M  V30 16146 H 1474.61 -1.40116 -4.19309 0
M  V30 16147 N 1473.67 0.933891 -1.2695 0
M  V30 16148 C 1474.63 2.0152 -1.0919 0
M  V30 16149 C 1475.63 1.60755 -0.037865 0
M  V30 16150 O 1476.82 1.71904 -0.281917 0
M  V30 16151 C 1473.95 3.34403 -0.66239 0
M  V30 16152 H 1475.14 2.18706 -2.05201 0
M  V30 16153 H 1472.7 1.11385 -1.0965 0
M  V30 16154 H 1473.43 3.22915 0.299388 0
M  V30 16155 H 1473.22 3.65345 -1.42356 0
M  V30 16156 H 1474.71 4.13826 -0.560187 0
M  V30 16157 N 1475.14 1.08871 1.13951 0
M  V30 16158 C 1476.09 0.71755 2.21255 0
M  V30 16159 C 1477.09 -0.278901 1.67088 0
M  V30 16160 O 1478.29 -0.140964 1.79447 0
M  V30 16161 H 1474.67 0.214032 0.720898 0
M  V30 16162 H 1476.64 1.63182 2.49828 0
M  V30 16163 C 1475.39 0.148098 3.47384 0
M  V30 16164 H 1474.71 0.906028 3.89398 0
M  V30 16165 H 1476.15 -0.0737451 4.23936 0
M  V30 16166 C 1474.61 -1.11524 3.17906 0
M  V30 16167 O 1475.14 -2.19937 3.3614 0
M  V30 16168 N 1473.34 -1.0275 2.71829 0
M  V30 16169 H 1472.89 -0.145193 2.5719 0
M  V30 16170 H 1472.85 -1.87353 2.5248 0
M  V30 16171 N 1476.62 -1.31073 0.875073 0
M  V30 16172 C 1477.55 -2.26485 0.279215 0
M  V30 16173 C 1478.53 -1.5134 -0.594556 0
M  V30 16174 O 1479.72 -1.80393 -0.546849 0
M  V30 16175 C 1476.84 -3.33268 -0.604165 0
M  V30 16176 C 1475.89 -4.26036 0.198944 0
M  V30 16177 S 1476.72 -5.11636 1.58079 0
M  V30 16178 C 1477.88 -6.21932 0.703665 0
M  V30 16179 H 1478.11 -2.76677 1.088 0
M  V30 16180 H 1475.64 -1.38917 0.673898 0
M  V30 16181 H 1477.6 -3.9526 -1.10813 0
M  V30 16182 H 1476.26 -2.8182 -1.38694 0
M  V30 16183 H 1475.46 -5.01759 -0.474755 0
M  V30 16184 H 1475.06 -3.68567 0.635185 0
M  V30 16185 H 1477.35 -6.77448 -0.0835828 0
M  V30 16186 H 1478.29 -6.93465 1.43219 0
M  V30 16187 H 1478.7 -5.63859 0.268954 0
M  V30 16188 N 1478.1 -0.635022 -1.4424 0
M  V30 16189 C 1479.35 -0.141067 -2.02008 0
M  V30 16190 C 1479.68 1.23849 -1.49973 0
M  V30 16191 O 1478.93 1.83666 -0.675673 0
M  V30 16192 C 1479.23 -0.081191 -3.57308 0
M  V30 16193 C 1478.9 -1.40004 -4.28614 0
M  V30 16194 C 1477.56 -1.76125 -4.4781 0
M  V30 16195 C 1479.91 -2.27041 -4.6915 0
M  V30 16196 C 1477.24 -2.98982 -5.04804 0
M  V30 16197 C 1479.59 -3.49173 -5.27504 0
M  V30 16198 C 1478.25 -3.85512 -5.44919 0
M  V30 16199 H 1477.52 -0.05162 -0.7392 0
M  V30 16200 H 1480.17 -0.822112 -1.72955 0
M  V30 16201 H 1478.48 0.68324 -3.85797 0
M  V30 16202 H 1480.17 0.317584 -3.9974 0
M  V30 16203 H 1476.76 -1.10897 -4.14005 0
M  V30 16204 H 1480.95 -2.0043 -4.54028 0
M  V30 16205 H 1476.2 -3.27208 -5.16473 0
M  V30 16206 H 1480.38 -4.16847 -5.57864 0
M  V30 16207 H 1478 -4.80793 -5.88848 0
M  V30 16208 N 1479.58 1.53054 -0.375806 0
M  V30 16209 C 1480.81 2.05521 0.210828 0
M  V30 16210 C 1481.22 1.24837 1.4217 0
M  V30 16211 O 1480.56 0.284634 1.81481 0
M  V30 16212 C 1480.62 3.53417 0.658548 0
M  V30 16213 C 1480.29 4.54906 -0.437025 0
M  V30 16214 C 1481.28 5.03638 -1.29016 0
M  V30 16215 C 1478.97 4.98701 -0.600194 0
M  V30 16216 C 1480.96 5.94777 -2.29171 0
M  V30 16217 C 1478.65 5.89644 -1.6051 0
M  V30 16218 C 1479.65 6.37573 -2.44929 0
M  V30 16219 O 1479.33 7.26721 -3.43703 0
M  V30 16220 H 1479.07 0.674893 0.0386627 0
M  V30 16221 H 1481.62 1.98296 -0.535534 0
M  V30 16222 H 1479.85 3.58215 1.45667 0
M  V30 16223 H 1481.54 3.88692 1.16933 0
M  V30 16224 H 1482.31 4.70543 -1.17534 0
M  V30 16225 H 1478.18 4.60976 0.0471346 0
M  V30 16226 H 1481.73 6.3211 -2.95099 0
M  V30 16227 H 1477.63 6.22153 -1.72035 0
M  V30 16228 H 1478.39 7.44746 -3.39553 0
M  V30 16229 N 1481.06 0.105248 1.57248 0
M  V30 16230 C 1482.31 -0.555797 1.93891 0
M  V30 16231 C 1482.62 -1.68703 0.989883 0
M  V30 16232 O 1483.82 -2.40991 1.25043 0
M  V30 16233 C 1482.28 -1.04006 3.44544 0
M  V30 16234 C 1481.89 0.0619641 4.47957 0
M  V30 16235 C 1483.63 -1.67327 3.90131 0
M  V30 16236 C 1481.54 -0.438229 5.89774 0
M  V30 16237 H 1480.47 -0.211391 0.723761 0
M  V30 16238 H 1483.12 0.182887 1.82586 0
M  V30 16239 H 1481.5 -1.83275 3.51036 0
M  V30 16240 H 1482.68 0.837803 4.5312 0
M  V30 16241 H 1480.99 0.600973 4.1204 0
M  V30 16242 H 1483.59 -2.0584 4.93492 0
M  V30 16243 H 1483.93 -2.54638 3.29341 0
M  V30 16244 H 1484.46 -0.946231 3.86382 0
M  V30 16245 H 1481.2 0.398506 6.54288 0
M  V30 16246 H 1480.72 -1.18085 5.88061 0
M  V30 16247 H 1482.4 -0.903922 6.40655 0
M  V30 16248 N 1482.53 -1.56697 -0.168486 0
M  V30 16249 C 1483.78 -1.82424 -0.885965 0
M  V30 16250 C 1484.11 -0.683543 -1.81773 0
M  V30 16251 O 1483.39 0.314319 -1.91943 0
M  V30 16252 C 1483.67 -3.18553 -1.67917 0
M  V30 16253 C 1483.52 -4.43154 -0.770343 0
M  V30 16254 C 1484.84 -3.51654 -2.64627 0
M  V30 16255 H 1481.96 -0.663594 -0.320644 0
M  V30 16256 H 1484.6 -1.89391 -0.15205 0
M  V30 16257 H 1482.75 -3.12745 -2.30484 0
M  V30 16258 H 1484.43 -4.61032 -0.157328 0
M  V30 16259 H 1482.67 -4.33729 -0.0785653 0
M  V30 16260 H 1483.34 -5.34961 -1.36092 0
M  V30 16261 H 1485.82 -3.57934 -2.12185 0
M  V30 16262 H 1484.69 -4.47975 -3.17191 0
M  V30 16263 H 1484.95 -2.76503 -3.44961 0
M  V30 16264 N 1484.01 0.437135 -1.51416 0
M  V30 16265 C 1485.26 1.18831 -1.64338 0
M  V30 16266 C 1485.59 1.9086 -0.358638 0
M  V30 16267 O 1484.87 1.83607 0.641769 0
M  V30 16268 C 1485.15 2.20515 -2.84685 0
M  V30 16269 C 1485 1.52568 -4.23135 0
M  V30 16270 C 1486.32 3.21494 -3.00549 0
M  V30 16271 H 1483.44 0.430652 -0.598087 0
M  V30 16272 H 1486.08 0.47753 -1.83901 0
M  V30 16273 H 1484.23 2.81132 -2.68136 0
M  V30 16274 H 1485.9 0.952851 -4.51352 0
M  V30 16275 H 1484.15 0.828025 -4.25824 0
M  V30 16276 H 1484.82 2.26623 -5.03335 0
M  V30 16277 H 1487.29 2.7093 -3.1581 0
M  V30 16278 H 1486.17 3.89934 -3.86319 0
M  V30 16279 H 1486.43 3.8761 -2.12629 0
M  V30 16280 N 1485.49 1.41566 0.692592 0
M  V30 16281 C 1486.74 1.40381 1.44831 0
M  V30 16282 C 1487.05 0.0172068 1.95592 0
M  V30 16283 O 1488.26 -0.11726 2.71247 0
M  V30 16284 C 1486.71 2.46844 2.61908 0
M  V30 16285 C 1486.32 3.91426 2.17921 0
M  V30 16286 C 1488.07 2.548 3.39525 0
M  V30 16287 C 1485.97 4.89436 3.31974 0
M  V30 16288 H 1484.9 0.522062 0.544028 0
M  V30 16289 H 1487.55 1.67402 0.751589 0
M  V30 16290 H 1485.94 2.12959 3.33863 0
M  V30 16291 H 1487.11 4.34575 1.53236 0
M  V30 16292 H 1485.43 3.87158 1.5329 0
M  V30 16293 H 1488.02 3.25207 4.24434 0
M  V30 16294 H 1488.37 1.58579 3.84913 0
M  V30 16295 H 1488.9 2.87791 2.74629 0
M  V30 16296 H 1485.64 5.87071 2.91595 0
M  V30 16297 H 1485.16 4.50933 3.95499 0
M  V30 16298 H 1486.84 5.10331 3.97708 0
M  V30 16299 N 1486.97 -0.927146 1.27443 0
M  V30 16300 C 1487.9 -2.02847 1.04538 0
M  V30 16301 C 1488.88 -1.62564 -0.0343819 0
M  V30 16302 O 1490.06 -1.88174 0.110875 0
M  V30 16303 C 1487.19 -3.33594 0.58588 0
M  V30 16304 C 1486.24 -3.92857 1.66029 0
M  V30 16305 S 1487.07 -4.25376 3.25292 0
M  V30 16306 C 1488.23 -5.59203 2.81145 0
M  V30 16307 H 1488.46 -2.21965 1.97784 0
M  V30 16308 H 1485.99 -1.07033 1.11281 0
M  V30 16309 H 1487.95 -4.09192 0.32745 0
M  V30 16310 H 1486.61 -3.12398 -0.326534 0
M  V30 16311 H 1485.8 -4.87209 1.2901 0
M  V30 16312 H 1485.41 -3.23846 1.87082 0
M  V30 16313 H 1487.7 -6.38523 2.26482 0
M  V30 16314 H 1488.64 -6.01122 3.74243 0
M  V30 16315 H 1489.05 -5.19751 2.2027 0
M  V30 16316 N 1488.45 -1.09474 -1.13372 0
M  V30 16317 C 1489.41 -0.738173 -2.16988 0
M  V30 16318 C 1490.41 0.232488 -1.5911 0
M  V30 16319 O 1491.6 0.0106093 -1.74197 0
M  V30 16320 C 1488.73 -0.091724 -3.40777 0
M  V30 16321 H 1489.92 -1.65582 -2.50045 0
M  V30 16322 H 1487.48 -0.893994 -1.28209 0
M  V30 16323 H 1488.21 0.837129 -3.13309 0
M  V30 16324 H 1488 -0.790161 -3.84056 0
M  V30 16325 H 1489.49 0.142334 -4.17357 0
M  V30 16326 N 1489.92 1.30607 -0.882012 0
M  V30 16327 C 1490.85 2.30666 -0.362706 0
M  V30 16328 C 1491.84 1.60865 0.552861 0
M  V30 16329 O 1493.02 1.88493 0.467339 0
M  V30 16330 C 1490.15 3.44675 0.42622 0
M  V30 16331 C 1489.1 4.26152 -0.397322 0
M  V30 16332 C 1488.43 5.32185 0.518027 0
M  V30 16333 C 1489.73 4.95955 -1.63785 0
M  V30 16334 H 1491.42 2.74351 -1.19883 0
M  V30 16335 H 1488.97 1.31895 -0.577912 0
M  V30 16336 H 1490.92 4.13734 0.80013 0
M  V30 16337 H 1489.65 2.99787 1.29597 0
M  V30 16338 H 1488.31 3.58776 -0.753332 0
M  V30 16339 H 1487.95 4.83545 1.3854 0
M  V30 16340 H 1487.65 5.87593 -0.0291802 0
M  V30 16341 H 1489.18 6.04101 0.888518 0
M  V30 16342 H 1490.59 5.57547 -1.3347 0
M  V30 16343 H 1488.99 5.61215 -2.12504 0
M  V30 16344 H 1490.06 4.22252 -2.38394 0
M  V30 16345 N 1491.4 0.642663 1.43901 0
M  V30 16346 C 1492.65 0.152003 2.0223 0
M  V30 16347 C 1492.98 -1.22711 1.50518 0
M  V30 16348 O 1492.26 -1.817 0.693937 0
M  V30 16349 C 1492.54 0.151278 3.59782 0
M  V30 16350 C 1492.39 1.56356 4.2175 0
M  V30 16351 C 1493.71 -0.518016 4.37041 0
M  V30 16352 H 1490.83 0.0567094 0.734815 0
M  V30 16353 H 1493.47 0.821337 1.7133 0
M  V30 16354 H 1491.62 -0.418679 3.86237 0
M  V30 16355 H 1493.29 2.18329 4.06362 0
M  V30 16356 H 1491.54 2.11401 3.78803 0
M  V30 16357 H 1492.21 1.51499 5.30803 0
M  V30 16358 H 1494.68 -0.0331947 4.16087 0
M  V30 16359 H 1493.56 -0.487754 5.46729 0
M  V30 16360 H 1493.82 -1.59036 4.12504 0
M  V30 16361 N 1492.88 -1.52852 0.383918 0
M  V30 16362 C 1493.81 -2.29213 -0.44539 0
M  V30 16363 C 1494.79 -1.3238 -1.06815 0
M  V30 16364 O 1495.98 -1.61269 -1.08194 0
M  V30 16365 C 1493.11 -3.09497 -1.57573 0
M  V30 16366 C 1492.06 -4.14168 -1.07928 0
M  V30 16367 C 1491.39 -4.82644 -2.30128 0
M  V30 16368 C 1492.69 -5.22082 -0.151035 0
M  V30 16369 H 1494.38 -2.98786 0.19172 0
M  V30 16370 H 1491.93 -1.43695 0.0936471 0
M  V30 16371 H 1493.88 -3.61672 -2.16267 0
M  V30 16372 H 1492.6 -2.37647 -2.24034 0
M  V30 16373 H 1491.26 -3.62966 -0.514909 0
M  V30 16374 H 1490.91 -4.07348 -2.95087 0
M  V30 16375 H 1490.61 -5.53388 -1.97574 0
M  V30 16376 H 1492.14 -5.37621 -2.89475 0
M  V30 16377 H 1493.55 -5.69649 -0.646003 0
M  V30 16378 H 1491.95 -6.00041 0.0844833 0
M  V30 16379 H 1493.02 -4.78228 0.801618 0
M  V30 16380 N 1494.36 -0.113586 -1.5719 0
M  V30 16381 C 1495.29 0.835363 -2.18046 0
M  V30 16382 C 1496.27 1.28114 -1.11897 0
M  V30 16383 O 1497.46 1.34472 -1.40111 0
M  V30 16384 C 1494.59 2.08759 -2.77556 0
M  V30 16385 C 1493.54 1.77979 -3.8924 0
M  V30 16386 C 1492.87 3.10185 -4.35533 0
M  V30 16387 C 1494.17 1.05231 -5.11589 0
M  V30 16388 H 1495.86 0.328275 -2.97595 0
M  V30 16389 H 1493.41 0.156456 -1.43148 0
M  V30 16390 H 1495.36 2.75597 -3.18785 0
M  V30 16391 H 1494.08 2.61783 -1.95288 0
M  V30 16392 H 1492.74 1.13532 -3.48577 0
M  V30 16393 H 1492.39 3.61133 -3.50131 0
M  V30 16394 H 1492.09 2.90367 -5.10843 0
M  V30 16395 H 1493.61 3.78151 -4.7941 0
M  V30 16396 H 1495.03 1.62213 -5.49872 0
M  V30 16397 H 1493.42 0.955269 -5.92448 0
M  V30 16398 H 1494.49 0.038137 -4.84885 0
M  V30 16399 N 1495.84 1.56784 0.160173 0
M  V30 16400 C 1497.06 1.87129 0.894283 0
M  V30 16401 C 1497.49 0.701172 1.74543 0
M  V30 16402 O 1496.85 -0.349542 1.77899 0
M  V30 16403 C 1496.89 3.15969 1.73769 0
M  V30 16404 O 1496 2.98977 2.84054 0
M  V30 16405 H 1495.34 0.615192 0.249869 0
M  V30 16406 H 1497.87 2.04012 0.154956 0
M  V30 16407 H 1497.88 3.47657 2.13538 0
M  V30 16408 H 1496.55 4.00742 1.11258 0
M  V30 16409 H 1495.13 2.78668 2.47788 0
M  V30 16410 N 1497.32 -0.429099 1.51646 0
M  V30 16411 C 1498.56 -1.17784 1.64722 0
M  V30 16412 C 1498.89 -1.90998 0.367415 0
M  V30 16413 O 1498.15 -1.8463 -0.648862 0
M  V30 16414 C 1498.44 -2.2131 2.80636 0
M  V30 16415 C 1498.11 -1.65048 4.19607 0
M  V30 16416 C 1496.77 -1.49428 4.57411 0
M  V30 16417 C 1499.12 -1.23765 5.06292 0
M  V30 16418 C 1496.45 -0.910109 5.79598 0
M  V30 16419 C 1498.8 -0.667743 6.29066 0
M  V30 16420 C 1497.47 -0.498507 6.65636 0
M  V30 16421 H 1496.74 -0.431001 0.60276 0
M  V30 16422 H 1499.39 -0.46775 1.857 0
M  V30 16423 H 1497.69 -2.98388 2.53913 0
M  V30 16424 H 1499.39 -2.79079 2.87951 0
M  V30 16425 H 1495.98 -1.78185 3.89805 0
M  V30 16426 H 1500.16 -1.3465 4.77685 0
M  V30 16427 H 1495.42 -0.766825 6.06572 0
M  V30 16428 H 1499.59 -0.339377 6.95573 0
M  V30 16429 H 1497.22 -0.0437292 7.60187 0
M  V30 16430 N 1498.79 -1.41931 -0.685074 0
M  V30 16431 C 1500.04 -1.41571 -1.44229 0
M  V30 16432 C 1500.36 -0.0294445 -1.94978 0
M  V30 16433 O 1499.63 0.930414 -1.72395 0
M  V30 16434 H 1498.21 -0.521138 -0.535186 0
M  V30 16435 H 1500.87 -1.77263 -0.81017 0
M  V30 16436 H 1499.97 -2.10929 -2.30034 0
M  V30 16437 N 1500.27 0.920374 -1.27933 0
M  V30 16438 C 1501.52 1.67131 -1.1487 0
M  V30 16439 C 1501.85 1.91816 0.303343 0
M  V30 16440 O 1501.13 1.51379 1.22125 0
M  V30 16441 C 1501.41 3.03332 -1.94066 0
M  V30 16442 C 1501.26 2.85842 -3.47296 0
M  V30 16443 C 1502.58 4.03773 -1.75087 0
M  V30 16444 H 1499.7 0.606537 -0.418666 0
M  V30 16445 H 1502.34 1.06755 -1.57173 0
M  V30 16446 H 1500.49 3.54869 -1.58116 0
M  V30 16447 H 1502.16 2.41367 -3.93115 0
M  V30 16448 H 1500.41 2.21035 -3.73264 0
M  V30 16449 H 1501.08 3.82535 -3.97958 0
M  V30 16450 H 1503.55 3.61274 -2.06447 0
M  V30 16451 H 1502.43 4.97048 -2.32882 0
M  V30 16452 H 1502.69 4.36512 -0.700665 0
M  V30 16453 N 1501.75 1.10074 1.1279 0
M  V30 16454 C 1503.16 0.859181 1.65756 0
M  V30 16455 C 1503.51 -0.611193 1.86437 0
M  V30 16456 O 1502.64 -1.46997 1.58811 0
M  V30 16457 C 1503.23 1.55312 3.01104 0
M  V30 16458 C 1501.79 1.35836 3.51035 0
M  V30 16459 C 1500.94 1.60491 2.26137 0
M  V30 16460 H 1503.89 1.25897 0.966211 0
M  V30 16461 H 1503.91 0.990001 3.67395 0
M  V30 16462 H 1503.42 2.62325 2.8602 0
M  V30 16463 H 1501.52 0.309694 3.71311 0
M  V30 16464 H 1501.64 2.09777 4.30732 0
M  V30 16465 H 1500 1.02742 2.33058 0
M  V30 16466 H 1500.78 2.68748 2.1361 0
M  V30 16467 N 1503.23 -1.30138 0.888926 0
M  V30 16468 C 1504.64 -1.48552 0.583486 0
M  V30 16469 C 1504.84 -1.81376 -0.877781 0
M  V30 16470 O 1503.9 -1.90374 -1.65873 0
M  V30 16471 C 1505.21 -2.60613 1.50004 0
M  V30 16472 C 1506.76 -2.74493 1.50409 0
M  V30 16473 C 1507.24 -3.89672 2.40666 0
M  V30 16474 N 1508.73 -3.96988 2.38652 0
M  V30 16475 C 1509.46 -4.85429 3.05199 0
M  V30 16476 N 1508.96 -5.78638 3.80985 0
M  V30 16477 N 1510.75 -4.78831 2.9441 0
M  V30 16478 H 1502.9 -1.07105 1.83418 0
M  V30 16479 H 1505.16 -0.530991 0.785336 0
M  V30 16480 H 1504.87 -2.43191 2.54069 0
M  V30 16481 H 1504.74 -3.5718 1.21254 0
M  V30 16482 H 1507.13 -2.91318 0.470933 0
M  V30 16483 H 1507.21 -1.78535 1.83191 0
M  V30 16484 H 1506.86 -3.73603 3.44069 0
M  V30 16485 H 1506.79 -4.84975 2.05198 0
M  V30 16486 H 1509.28 -3.30313 1.83581 0
M  V30 16487 H 1509.59 -6.42894 4.28844 0
M  V30 16488 H 1507.94 -5.78558 3.85092 0
M  V30 16489 H 1511.13 -4.04995 2.34727 0
M  V30 16490 H 1511.3 -5.47547 3.46549 0
M  V30 16491 N 1504.71 -0.650285 -1.43559 0
M  V30 16492 C 1505.65 0.043098 -2.3076 0
M  V30 16493 C 1506.62 0.81763 -1.44582 0
M  V30 16494 O 1507.81 0.794825 -1.73457 0
M  V30 16495 C 1504.95 1.00557 -3.30125 0
M  V30 16496 C 1504.06 0.227448 -4.31401 0
M  V30 16497 C 1503.2 1.18345 -5.17849 0
M  V30 16498 C 1502.23 0.395596 -6.1082 0
M  V30 16499 N 1501.37 1.30304 -6.89902 0
M  V30 16500 H 1506.21 -0.706402 -2.89506 0
M  V30 16501 H 1503.75 -0.360118 -1.42624 0
M  V30 16502 H 1505.71 1.57717 -3.8624 0
M  V30 16503 H 1504.34 1.72198 -2.73034 0
M  V30 16504 H 1503.39 -0.460391 -3.77604 0
M  V30 16505 H 1504.7 -0.385316 -4.9731 0
M  V30 16506 H 1503.85 1.82578 -5.78576 0
M  V30 16507 H 1502.59 1.83013 -4.52059 0
M  V30 16508 H 1501.6 -0.260099 -5.49184 0
M  V30 16509 H 1502.82 -0.246633 -6.78652 0
M  V30 16510 H 1500.77 1.93657 -6.26764 0
M  V30 16511 H 1500.69 0.744768 -7.52323 0
M  V30 16512 H 1501.95 1.93361 -7.55137 0
M  V30 16513 N 1506.18 1.52647 -0.392018 0
M  V30 16514 C 1507.15 2.25135 0.429754 0
M  V30 16515 C 1508.15 1.26871 0.987946 0
M  V30 16516 O 1509.34 1.50947 0.86952 0
M  V30 16517 C 1506.47 3.00849 1.60321 0
M  V30 16518 H 1507.66 2.99199 -0.204918 0
M  V30 16519 H 1505.21 1.55634 -0.144188 0
M  V30 16520 H 1505.95 2.31092 2.27524 0
M  V30 16521 H 1505.73 3.72975 1.20964 0
M  V30 16522 H 1507.22 3.55879 2.18494 0
M  V30 16523 N 1507.66 0.121921 1.57128 0
M  V30 16524 C 1508.91 -0.535201 1.9447 0
M  V30 16525 C 1509.22 -1.67644 1.00772 0
M  V30 16526 O 1510.43 -2.39651 1.27592 0
M  V30 16527 C 1508.89 -1.00346 3.45628 0
M  V30 16528 C 1508.49 0.109473 4.47866 0
M  V30 16529 C 1510.24 -1.63179 3.91884 0
M  V30 16530 C 1508.15 -0.375651 5.90206 0
M  V30 16531 H 1507.08 -0.203702 0.725962 0
M  V30 16532 H 1509.73 0.202243 1.82382 0
M  V30 16533 H 1508.11 -1.79541 3.5296 0
M  V30 16534 H 1509.28 0.885815 4.52206 0
M  V30 16535 H 1507.6 0.644642 4.1138 0
M  V30 16536 H 1510.19 -2.00594 4.95647 0
M  V30 16537 H 1510.54 -2.5113 3.32023 0
M  V30 16538 H 1511.07 -0.905197 3.87364 0
M  V30 16539 H 1507.81 0.46788 6.53828 0
M  V30 16540 H 1507.33 -1.11841 5.89281 0
M  V30 16541 H 1509.01 -0.835921 6.41577 0
M  V30 16542 N 1509.14 -1.56867 -0.151857 0
M  V30 16543 C 1510.07 -2.00932 -1.18949 0
M  V30 16544 C 1511.05 -0.888062 -1.45077 0
M  V30 16545 O 1512.24 -1.15553 -1.56081 0
M  V30 16546 C 1509.37 -2.3858 -2.52383 0
M  V30 16547 C 1508.32 -3.53845 -2.40785 0
M  V30 16548 C 1507.65 -3.77292 -3.78886 0
M  V30 16549 C 1508.95 -4.8667 -1.89605 0
M  V30 16550 H 1510.64 -2.87863 -0.823107 0
M  V30 16551 H 1508.19 -1.38491 -0.394499 0
M  V30 16552 H 1510.14 -2.68006 -3.25193 0
M  V30 16553 H 1508.86 -1.48579 -2.90847 0
M  V30 16554 H 1507.52 -3.24577 -1.70427 0
M  V30 16555 H 1507.17 -2.84551 -4.14777 0
M  V30 16556 H 1506.87 -4.54861 -3.71989 0
M  V30 16557 H 1508.39 -4.09139 -4.53252 0
M  V30 16558 H 1509.81 -5.14846 -2.52204 0
M  V30 16559 H 1508.21 -5.6801 -1.93609 0
M  V30 16560 H 1509.28 -4.77366 -0.851438 0
M  V30 16561 N 1510.62 0.421051 -1.51871 0
M  V30 16562 C 1511.85 1.18938 -1.6893 0
M  V30 16563 C 1512.26 1.85069 -0.393198 0
M  V30 16564 O 1511.6 1.72204 0.639648 0
M  V30 16565 C 1511.66 2.30343 -2.76012 0
M  V30 16566 C 1511.33 1.84446 -4.18125 0
M  V30 16567 C 1512.32 1.33882 -5.02366 0
M  V30 16568 C 1510.01 1.91642 -4.64305 0
M  V30 16569 C 1512 0.911212 -6.30853 0
M  V30 16570 C 1509.69 1.48492 -5.92784 0
M  V30 16571 C 1510.69 0.98316 -6.75887 0
M  V30 16572 O 1510.37 0.557853 -8.01962 0
M  V30 16573 H 1510.11 0.363908 -0.56969 0
M  V30 16574 H 1512.66 0.503089 -1.99144 0
M  V30 16575 H 1510.89 3.02298 -2.41148 0
M  V30 16576 H 1512.58 2.92148 -2.81787 0
M  V30 16577 H 1513.35 1.27704 -4.67885 0
M  V30 16578 H 1509.22 2.29641 -3.99732 0
M  V30 16579 H 1512.77 0.518877 -6.95668 0
M  V30 16580 H 1508.67 1.54345 -6.26776 0
M  V30 16581 H 1509.43 0.682238 -8.15652 0
M  V30 16582 N 1512.1 1.42293 0.677538 0
M  V30 16583 C 1513.51 1.37948 1.25806 0
M  V30 16584 C 1513.86 0.071408 1.9607 0
M  V30 16585 O 1512.98 -0.829921 1.99853 0
M  V30 16586 C 1513.58 2.49875 2.28797 0
M  V30 16587 C 1512.14 2.48872 2.82382 0
M  V30 16588 C 1511.28 2.28804 1.56665 0
M  V30 16589 H 1514.24 1.51546 0.471102 0
M  V30 16590 H 1514.26 2.19969 3.10474 0
M  V30 16591 H 1513.77 3.45065 1.77629 0
M  V30 16592 H 1511.87 1.57492 3.37679 0
M  V30 16593 H 1511.98 3.45816 3.31585 0
M  V30 16594 H 1510.35 1.77014 1.83135 0
M  V30 16595 H 1511.13 3.26046 1.07467 0
M  V30 16596 N 1513.57 -0.913576 1.28419 0
M  V30 16597 C 1514.52 -2.00257 1.09001 0
M  V30 16598 C 1515.51 -1.60894 0.0136118 0
M  V30 16599 O 1516.7 -1.75449 0.233769 0
M  V30 16600 C 1513.83 -3.34916 0.754073 0
M  V30 16601 C 1512.92 -3.8068 1.86932 0
M  V30 16602 N 1513.31 -3.98814 3.11096 0
M  V30 16603 C 1511.6 -4.09839 1.75921 0
M  V30 16604 C 1512.31 -4.37149 3.83765 0
M  V30 16605 N 1511.28 -4.45417 3.11616 0
M  V30 16606 H 1515.08 -2.12327 2.0321 0
M  V30 16607 H 1512.6 -1.10143 1.19341 0
M  V30 16608 H 1514.59 -4.12617 0.596035 0
M  V30 16609 H 1513.25 -3.24199 -0.180246 0
M  V30 16610 H 1514.27 -3.84729 3.46705 0
M  V30 16611 H 1510.94 -4.07757 0.896679 0
M  V30 16612 H 1512.33 -4.5914 4.9055 0
M  V30 16613 N 1515.05 -1.1067 -1.12204 0
M  V30 16614 C 1515.96 -0.770221 -2.21596 0
M  V30 16615 C 1516.98 0.233297 -1.72429 0
M  V30 16616 O 1518.15 0.0714493 -2.01273 0
M  V30 16617 C 1515.22 -0.209682 -3.46065 0
M  V30 16618 C 1514.28 -1.27079 -4.1006 0
M  V30 16619 C 1513.51 -0.736899 -5.28588 0
M  V30 16620 O 1513.74 0.435838 -5.68732 0
M  V30 16621 O 1512.67 -1.49797 -5.82962 0
M  V30 16622 H 1516.5 -1.6834 -2.52776 0
M  V30 16623 H 1514.08 -0.882012 -1.20586 0
M  V30 16624 H 1515.96 0.0989516 -4.21284 0
M  V30 16625 H 1514.64 0.676316 -3.16556 0
M  V30 16626 H 1513.55 -1.63231 -3.3661 0
M  V30 16627 H 1514.88 -2.12989 -4.4373 0
M  V30 16628 N 1516.53 1.29665 -0.895815 0
M  V30 16629 C 1517.49 2.26103 -0.3755 0
M  V30 16630 C 1518.49 1.53212 0.488126 0
M  V30 16631 O 1519.68 1.71706 0.293733 0
M  V30 16632 C 1516.82 3.37732 0.46364 0
M  V30 16633 H 1518.01 2.73643 -1.22718 0
M  V30 16634 H 1515.56 1.4104 -0.673613 0
M  V30 16635 H 1516.3 2.95526 1.33546 0
M  V30 16636 H 1516.08 3.91793 -0.155123 0
M  V30 16637 H 1517.57 4.09488 0.819112 0
M  V30 16638 N 1518.01 0.657889 1.43212 0
M  V30 16639 C 1519.42 0.252443 1.84985 0
M  V30 16640 C 1519.77 -1.20196 1.55072 0
M  V30 16641 O 1518.9 -1.91803 1.00202 0
M  V30 16642 C 1519.49 0.451388 3.3578 0
M  V30 16643 C 1518.05 0.100219 3.76267 0
M  V30 16644 C 1517.2 0.752009 2.66908 0
M  V30 16645 H 1520.15 0.861239 1.33298 0
M  V30 16646 H 1520.17 -0.30169 3.79302 0
M  V30 16647 H 1519.68 1.51001 3.5752 0
M  V30 16648 H 1517.78 -0.955618 3.60137 0
M  V30 16649 H 1517.89 0.528942 4.76171 0
M  V30 16650 H 1516.26 0.184823 2.54029 0
M  V30 16651 H 1517.04 1.81375 2.91476 0
M  V30 16652 N 1519.49 -1.52437 0.400108 0
M  V30 16653 C 1520.71 -2.0661 -0.180861 0
M  V30 16654 C 1521.14 -1.269 -1.38845 0
M  V30 16655 O 1520.49 -0.296862 -1.78853 0
M  V30 16656 C 1520.54 -3.56851 -0.518595 0
M  V30 16657 O 1519.65 -3.79634 -1.61095 0
M  V30 16658 H 1518.99 -0.663752 -0.0181348 0
M  V30 16659 H 1521.52 -1.96479 0.570702 0
M  V30 16660 H 1521.53 -4.00478 -0.779817 0
M  V30 16661 H 1520.2 -4.14302 0.364216 0
M  V30 16662 H 1518.78 -3.47892 -1.3426 0
M  V30 16663 N 1520.96 -0.130252 -1.57061 0
M  V30 16664 C 1522.21 0.519478 -1.96654 0
M  V30 16665 C 1522.57 1.63568 -1.01308 0
M  V30 16666 O 1521.86 1.91547 -0.0450944 0
M  V30 16667 C 1522.05 1.08776 -3.40445 0
M  V30 16668 C 1521.88 0.0281442 -4.49691 0
M  V30 16669 C 1520.65 -0.407544 -5.03654 0
M  V30 16670 C 1522.85 -0.757073 -5.08697 0
M  V30 16671 N 1520.83 -1.45175 -5.96488 0
M  V30 16672 C 1522.2 -1.65219 -5.97581 0
M  V30 16673 C 1524.26 -0.806718 -4.91321 0
M  V30 16674 C 1522.96 -2.59266 -6.7095 0
M  V30 16675 C 1524.99 -1.73494 -5.65379 0
M  V30 16676 C 1524.35 -2.61761 -6.53957 0
M  V30 16677 H 1520.45 0.159387 -0.765585 0
M  V30 16678 H 1523.03 -0.220978 -1.93442 0
M  V30 16679 H 1521.2 1.79788 -3.44283 0
M  V30 16680 H 1522.93 1.70273 -3.67137 0
M  V30 16681 H 1519.69 -0.0129839 -4.73598 0
M  V30 16682 H 1520.11 -1.97311 -6.47609 0
M  V30 16683 H 1524.76 -0.138406 -4.22573 0
M  V30 16684 H 1522.47 -3.27105 -7.38937 0
M  V30 16685 H 1526.06 -1.77894 -5.53936 0
M  V30 16686 H 1524.94 -3.32418 -7.10259 0
M  V30 16687 N 1522.44 1.56945 0.143535 0
M  V30 16688 C 1523.67 1.87701 0.870401 0
M  V30 16689 C 1524.09 0.718833 1.7458 0
M  V30 16690 O 1523.44 -0.311286 1.79826 0
M  V30 16691 C 1523.49 3.1773 1.72424 0
M  V30 16692 O 1523.22 4.29086 0.884115 0
M  V30 16693 C 1524.72 3.62024 2.55839 0
M  V30 16694 H 1521.94 0.622083 0.251504 0
M  V30 16695 H 1524.48 2.04052 0.135285 0
M  V30 16696 H 1522.64 3.03122 2.41238 0
M  V30 16697 H 1523.05 5.0346 1.47065 0
M  V30 16698 H 1524.52 4.55834 3.11319 0
M  V30 16699 H 1525 2.87481 3.32041 0
M  V30 16700 H 1525.61 3.79338 1.9231 0
M  V30 16701 N 1523.92 -0.412991 1.52093 0
M  V30 16702 C 1524.85 -1.50986 1.78117 0
M  V30 16703 C 1525.83 -1.57925 0.631963 0
M  V30 16704 O 1527.02 -1.73261 0.877168 0
M  V30 16705 C 1524.15 -2.88846 1.92835 0
M  V30 16706 C 1523.1 -2.96759 3.08412 0
M  V30 16707 C 1522.43 -4.36837 3.08347 0
M  V30 16708 C 1523.73 -2.68599 4.47942 0
M  V30 16709 H 1525.42 -1.29459 2.69964 0
M  V30 16710 H 1522.97 -0.621348 1.29905 0
M  V30 16711 H 1524.92 -3.65563 2.09623 0
M  V30 16712 H 1523.64 -3.11658 0.976553 0
M  V30 16713 H 1522.3 -2.22487 2.91368 0
M  V30 16714 H 1521.95 -4.56652 2.10897 0
M  V30 16715 H 1521.65 -4.43056 3.85973 0
M  V30 16716 H 1523.18 -5.15493 3.2726 0
M  V30 16717 H 1524.59 -3.35039 4.65212 0
M  V30 16718 H 1522.99 -2.86199 5.27456 0
M  V30 16719 H 1524.06 -1.64058 4.56304 0
M  V30 16720 N 1525.4 -1.4265 -0.669982 0
M  V30 16721 C 1526.36 -1.46196 -1.7652 0
M  V30 16722 C 1527.36 -0.348884 -1.5697 0
M  V30 16723 O 1528.55 -0.609921 -1.63174 0
M  V30 16724 C 1525.68 -1.29829 -3.1521 0
M  V30 16725 H 1526.88 -2.43718 -1.74762 0
M  V30 16726 H 1524.43 -1.29168 -0.88007 0
M  V30 16727 H 1525.17 -0.332493 -3.22591 0
M  V30 16728 H 1524.95 -2.10501 -3.30804 0
M  V30 16729 H 1526.44 -1.35205 -3.95107 0
M  V30 16730 N 1526.88 0.906753 -1.28902 0
M  V30 16731 C 1527.82 2.01004 -1.13429 0
M  V30 16732 C 1528.79 1.66074 -0.0295031 0
M  V30 16733 O 1529.98 1.89793 -0.195727 0
M  V30 16734 C 1527.12 3.35473 -0.809457 0
M  V30 16735 C 1526.23 3.83229 -1.99398 0
M  V30 16736 C 1525.37 5.06241 -1.60915 0
M  V30 16737 C 1524.41 5.46348 -2.7599 0
M  V30 16738 N 1523.54 6.60548 -2.37952 0
M  V30 16739 H 1528.38 2.13571 -2.07825 0
M  V30 16740 H 1525.92 1.046 -1.03428 0
M  V30 16741 H 1527.88 4.12836 -0.601845 0
M  V30 16742 H 1526.51 3.22652 0.0975896 0
M  V30 16743 H 1525.56 3.01962 -2.31351 0
M  V30 16744 H 1526.87 4.08908 -2.85649 0
M  V30 16745 H 1526.03 5.91168 -1.36401 0
M  V30 16746 H 1524.77 4.82385 -0.718021 0
M  V30 16747 H 1523.77 4.59959 -3.01195 0
M  V30 16748 H 1525 5.72188 -3.65757 0
M  V30 16749 H 1522.94 6.38309 -1.51318 0
M  V30 16750 H 1522.86 6.85987 -3.17738 0
M  V30 16751 H 1524.13 7.48762 -2.1674 0
M  V30 16752 N 1528.36 1.11264 1.11616 0
M  V30 16753 C 1529.63 0.772174 1.79713 0
M  V30 16754 C 1530.01 -0.740055 1.97703 0
M  V30 16755 O 1529.36 -1.66939 1.56024 0
M  V30 16756 C 1529.57 1.53316 3.13521 0
M  V30 16757 C 1530.92 1.71124 3.88589 0
M  V30 16758 O 1531.94 1.49725 3.23204 0
M  V30 16759 O 1530.8 2.0667 5.05915 0
M  V30 16760 H 1527.9 0.279548 0.77832 0
M  V30 16761 H 1530.44 1.21596 1.18375 0
M  V30 16762 H 1529.21 2.56194 2.95771 0
M  V30 16763 H 1528.84 1.08281 3.82572 0
M  V30 16764 N 1529.83 -1.29188 0.902679 0
M  V30 16765 C 1531.08 -1.94718 0.526082 0
M  V30 16766 C 1531.4 -1.71924 -0.932816 0
M  V30 16767 O 1532.6 -2.31585 -1.41707 0
M  V30 16768 C 1531.06 -3.48723 0.889974 0
M  V30 16769 C 1530.67 -3.80312 2.36784 0
M  V30 16770 C 1532.41 -4.20472 0.58343 0
M  V30 16771 C 1530.32 -5.27574 2.67244 0
M  V30 16772 H 1529.25 -0.728875 0.193019 0
M  V30 16773 H 1531.9 -1.46869 1.10008 0
M  V30 16774 H 1530.28 -3.95242 0.244872 0
M  V30 16775 H 1531.45 -3.44641 3.05875 0
M  V30 16776 H 1529.77 -3.21709 2.64371 0
M  V30 16777 H 1532.37 -5.28864 0.787813 0
M  V30 16778 H 1532.71 -4.13544 -0.478204 0
M  V30 16779 H 1533.24 -3.79693 1.1865 0
M  V30 16780 H 1529.98 -5.39569 3.72217 0
M  V30 16781 H 1529.5 -5.64482 2.0278 0
M  V30 16782 H 1531.18 -5.95199 2.53666 0
M  V30 16783 N 1531.31 -0.665475 -1.42861 0
M  V30 16784 C 1532.56 -0.184156 -2.01962 0
M  V30 16785 C 1532.89 1.20301 -1.52451 0
M  V30 16786 O 1532.17 1.80573 -0.722756 0
M  V30 16787 C 1532.45 -0.208497 -3.59496 0
M  V30 16788 C 1532.3 -1.63045 -4.19209 0
M  V30 16789 C 1533.62 0.448421 -4.3781 0
M  V30 16790 H 1530.74 -0.0683924 -0.73382 0
M  V30 16791 H 1533.38 -0.84849 -1.70002 0
M  V30 16792 H 1531.53 0.357179 -3.86855 0
M  V30 16793 H 1533.2 -2.24766 -4.02837 0
M  V30 16794 H 1531.45 -2.17401 -3.75392 0
M  V30 16795 H 1532.12 -1.59924 -5.28326 0
M  V30 16796 H 1534.59 -0.0330053 -4.16087 0
M  V30 16797 H 1533.47 0.400713 -5.47435 0
M  V30 16798 H 1533.73 1.52454 -4.14982 0
M  V30 16799 N 1532.79 1.52222 -0.408187 0
M  V30 16800 C 1534.04 2.01803 0.167905 0
M  V30 16801 C 1534.36 1.29385 1.45223 0
M  V30 16802 O 1533.62 0.388383 1.91807 0
M  V30 16803 C 1533.92 3.54384 0.463353 0
M  V30 16804 C 1533.58 4.44924 -0.731665 0
M  V30 16805 C 1532.25 4.69392 -1.05946 0
M  V30 16806 C 1534.6 4.9823 -1.53023 0
M  V30 16807 C 1531.93 5.44414 -2.18702 0
M  V30 16808 C 1534.28 5.74486 -2.64855 0
M  V30 16809 C 1532.94 5.97227 -2.98121 0
M  V30 16810 H 1532.21 0.738448 0.0614409 0
M  V30 16811 H 1534.86 1.83449 -0.549412 0
M  V30 16812 H 1533.16 3.70911 1.26223 0
M  V30 16813 H 1534.86 3.90256 0.922042 0
M  V30 16814 H 1531.45 4.26057 -0.4662 0
M  V30 16815 H 1535.64 4.79236 -1.29022 0
M  V30 16816 H 1530.89 5.60242 -2.44824 0
M  V30 16817 H 1535.07 6.14788 -3.27122 0
M  V30 16818 H 1532.69 6.5514 -3.8561 0
M  V30 16819 N 1534.27 0.138579 1.5699 0
M  V30 16820 C 1535.22 -0.815878 2.12902 0
M  V30 16821 C 1536.2 -1.21511 1.0547 0
M  V30 16822 O 1537.39 -1.18294 1.31665 0
M  V30 16823 C 1534.52 -2.0583 2.74752 0
M  V30 16824 C 1533.61 -1.68255 3.89296 0
M  V30 16825 N 1534 -1.01456 4.9552 0
M  V30 16826 C 1532.3 -1.97583 3.99846 0
M  V30 16827 C 1533 -0.834498 5.75683 0
M  V30 16828 N 1531.97 -1.36571 5.26165 0
M  V30 16829 H 1535.78 -0.296204 2.92404 0
M  V30 16830 H 1533.29 -0.0632473 1.62277 0
M  V30 16831 H 1535.29 -2.75197 3.13165 0
M  V30 16832 H 1533.95 -2.58323 1.96721 0
M  V30 16833 H 1534.96 -0.67628 5.13466 0
M  V30 16834 H 1531.64 -2.51985 3.32881 0
M  V30 16835 H 1533.03 -0.308664 6.71191 0
M  V30 16836 N 1535.75 -1.57019 -0.13521 0
M  V30 16837 C 1537.16 -1.73319 -0.694067 0
M  V30 16838 C 1537.51 -0.754808 -1.811 0
M  V30 16839 O 1536.63 0.0759463 -2.16267 0
M  V30 16840 C 1537.23 -3.14266 -1.26579 0
M  V30 16841 C 1535.79 -3.32128 -1.7711 0
M  V30 16842 C 1534.93 -2.69226 -0.664263 0
M  V30 16843 H 1537.88 -1.58441 0.0905702 0
M  V30 16844 H 1537.91 -3.14919 -2.13557 0
M  V30 16845 H 1537.42 -3.85451 -0.452652 0
M  V30 16846 H 1535.52 -2.65959 -2.60953 0
M  V30 16847 H 1535.63 -4.40172 -1.8917 0
M  V30 16848 H 1534 -2.30016 -1.09384 0
M  V30 16849 H 1534.78 -3.43024 0.13763 0
M  V30 16850 N 1537.22 0.404919 -1.52309 0
M  V30 16851 C 1538.45 1.17139 -1.70182 0
M  V30 16852 C 1538.86 1.84642 -0.412805 0
M  V30 16853 O 1538.21 1.72873 0.621347 0
M  V30 16854 C 1538.27 2.27402 -2.78439 0
M  V30 16855 C 1537.93 1.8 -4.20058 0
M  V30 16856 C 1538.93 1.28546 -5.03758 0
M  V30 16857 C 1536.61 1.86706 -4.66311 0
M  V30 16858 C 1538.61 0.84425 -6.31784 0
M  V30 16859 C 1536.29 1.42197 -5.94326 0
M  V30 16860 C 1537.29 0.911418 -6.76892 0
M  V30 16861 O 1536.98 0.472762 -8.02509 0
M  V30 16862 H 1536.71 0.357845 -0.573518 0
M  V30 16863 H 1539.27 0.481939 -1.99666 0
M  V30 16864 H 1537.5 2.99724 -2.44341 0
M  V30 16865 H 1539.19 2.89143 -2.8487 0
M  V30 16866 H 1539.95 1.22734 -4.69213 0
M  V30 16867 H 1535.83 2.25389 -4.02145 0
M  V30 16868 H 1539.37 0.445063 -6.96179 0
M  V30 16869 H 1535.27 1.47689 -6.28377 0
M  V30 16870 H 1536.04 0.595689 -8.16329 0
M  V30 16871 N 1538.7 1.43003 0.662408 0
M  V30 16872 C 1539.95 1.45344 1.42291 0
M  V30 16873 C 1540.3 0.0731138 1.92261 0
M  V30 16874 O 1539.6 -0.90677 1.68785 0
M  V30 16875 C 1539.79 2.4231 2.62718 0
M  V30 16876 C 1539.62 3.89634 2.24533 0
M  V30 16877 C 1538.39 4.58074 2.13299 0
M  V30 16878 C 1540.59 4.79721 1.85397 0
M  V30 16879 N 1538.57 5.90366 1.68348 0
M  V30 16880 C 1539.94 6.01216 1.51459 0
M  V30 16881 C 1542 4.67064 1.72498 0
M  V30 16882 C 1540.7 7.11459 1.05916 0
M  V30 16883 C 1542.72 5.77302 1.2836 0
M  V30 16884 C 1542.09 6.97916 0.953542 0
M  V30 16885 H 1538.19 0.58699 0.516688 0
M  V30 16886 H 1540.77 1.79119 0.763191 0
M  V30 16887 H 1538.94 2.10576 3.26362 0
M  V30 16888 H 1540.67 2.35148 3.29374 0
M  V30 16889 H 1537.43 4.12453 2.32764 0
M  V30 16890 H 1537.85 6.60566 1.48261 0
M  V30 16891 H 1542.49 3.7428 1.96659 0
M  V30 16892 H 1540.21 8.0408 0.805035 0
M  V30 16893 H 1543.8 5.69524 1.18883 0
M  V30 16894 H 1542.68 7.81767 0.617203 0
M  V30 16895 N 1540.18 -0.899904 1.29381 0
M  V30 16896 C 1541.11 -2.00584 1.08817 0
M  V30 16897 C 1542.09 -1.626 0.000108013 0
M  V30 16898 O 1543.28 -1.87896 0.150764 0
M  V30 16899 C 1540.4 -3.32276 0.656508 0
M  V30 16900 C 1539.45 -3.89247 1.74325 0
M  V30 16901 S 1540.28 -4.18381 3.34242 0
M  V30 16902 C 1541.44 -5.53114 2.92943 0
M  V30 16903 H 1541.67 -2.1772 2.02448 0
M  V30 16904 H 1539.2 -1.04648 1.13526 0
M  V30 16905 H 1541.16 -4.08405 0.414172 0
M  V30 16906 H 1539.82 -3.1302 -0.260196 0
M  V30 16907 H 1539.02 -4.84363 1.39315 0
M  V30 16908 H 1538.62 -3.19805 1.9391 0
M  V30 16909 H 1540.91 -6.33576 2.39976 0
M  V30 16910 H 1541.85 -5.93048 3.8691 0
M  V30 16911 H 1542.26 -5.14962 2.31245 0
M  V30 16912 N 1541.66 -1.11854 -1.11024 0
M  V30 16913 C 1542.91 -0.864814 -1.82219 0
M  V30 16914 C 1543.22 0.611349 -1.85801 0
M  V30 16915 O 1544.43 0.981475 -2.53139 0
M  V30 16916 C 1542.88 -1.49745 -3.27268 0
M  V30 16917 C 1542.49 -3.00796 -3.32003 0
M  V30 16918 C 1544.23 -1.32374 -4.03333 0
M  V30 16919 C 1542.14 -3.57023 -4.71475 0
M  V30 16920 H 1541.07 -0.319877 -0.682784 0
M  V30 16921 H 1543.72 -1.34431 -1.24903 0
M  V30 16922 H 1542.1 -0.94562 -3.84544 0
M  V30 16923 H 1543.28 -3.6242 -2.84585 0
M  V30 16924 H 1541.59 -3.17493 -2.6942 0
M  V30 16925 H 1544.19 -1.7181 -5.06345 0
M  V30 16926 H 1544.53 -0.26676 -4.15444 0
M  V30 16927 H 1545.07 -1.84444 -3.52456 0
M  V30 16928 H 1541.81 -4.62453 -4.64562 0
M  V30 16929 H 1541.33 -3.00172 -5.19285 0
M  V30 16930 H 1543 -3.5572 -5.40437 0
M  V30 16931 N 1543.14 1.28707 -0.909517 0
M  V30 16932 C 1544.38 1.95154 -0.540481 0
M  V30 16933 C 1544.71 1.7163 0.91506 0
M  V30 16934 O 1543.97 1.02786 1.66534 0
M  V30 16935 C 1544.27 3.48536 -0.791037 0
M  V30 16936 C 1543.93 3.92153 -2.22546 0
M  V30 16937 C 1542.59 4.03772 -2.61766 0
M  V30 16938 C 1544.95 4.14547 -3.15912 0
M  V30 16939 C 1542.27 4.35162 -3.93511 0
M  V30 16940 C 1544.63 4.47414 -4.47218 0
M  V30 16941 C 1543.29 4.57244 -4.86296 0
M  V30 16942 H 1542.56 0.714119 -0.197776 0
M  V30 16943 H 1545.21 1.53122 -1.15004 0
M  V30 16944 H 1543.51 3.91676 -0.0986412 0
M  V30 16945 H 1545.21 3.98059 -0.48474 0
M  V30 16946 H 1541.8 3.83633 -1.91113 0
M  V30 16947 H 1545.98 4.05027 -2.86822 0
M  V30 16948 H 1541.24 4.40977 -4.23496 0
M  V30 16949 H 1545.41 4.6369 -5.19581 0
M  V30 16950 H 1543.04 4.81321 -5.88416 0
M  V30 16951 N 1544.61 0.673042 1.42506 0
M  V30 16952 C 1545.86 0.194192 2.01165 0
M  V30 16953 C 1546.18 -1.2029 1.53477 0
M  V30 16954 O 1545.45 -1.80737 0.755704 0
M  V30 16955 H 1544.03 0.0688022 0.743825 0
M  V30 16956 H 1546.7 0.869157 1.74447 0
M  V30 16957 H 1545.79 0.194111 3.11496 0
M  V30 16958 N 1546.09 -1.52004 0.416254 0
M  V30 16959 C 1547 -2.30947 -0.412403 0
M  V30 16960 C 1548.02 -1.38969 -1.04707 0
M  V30 16961 O 1549.19 -1.72044 -1.04703 0
M  V30 16962 C 1546.26 -3.12078 -1.51024 0
M  V30 16963 C 1545.32 -4.19805 -0.897892 0
M  V30 16964 C 1544.55 -4.97059 -1.94341 0
M  V30 16965 O 1544.78 -4.74695 -3.16261 0
M  V30 16966 O 1543.71 -5.81715 -1.54567 0
M  V30 16967 H 1547.54 -3.02817 0.231473 0
M  V30 16968 H 1545.12 -1.4832 0.179283 0
M  V30 16969 H 1547 -3.6258 -2.14741 0
M  V30 16970 H 1545.68 -2.42995 -2.13858 0
M  V30 16971 H 1544.59 -3.73433 -0.223236 0
M  V30 16972 H 1545.92 -4.91201 -0.31336 0
M  V30 16973 N 1547.57 -0.146903 -1.56914 0
M  V30 16974 C 1548.82 0.504981 -1.96412 0
M  V30 16975 C 1549.15 1.64522 -1.0318 0
M  V30 16976 O 1548.42 1.94359 -0.0741728 0
M  V30 16977 C 1548.71 1.01125 -3.45609 0
M  V30 16978 C 1548.56 -0.127493 -4.49619 0
M  V30 16979 C 1549.88 1.89306 -3.97305 0
M  V30 16980 H 1547 0.182088 -0.714152 0
M  V30 16981 H 1549.64 -0.22811 -1.88626 0
M  V30 16982 H 1547.79 1.63595 -3.52376 0
M  V30 16983 H 1549.46 -0.763829 -4.54932 0
M  V30 16984 H 1547.71 -0.786649 -4.26608 0
M  V30 16985 H 1548.38 0.268453 -5.51347 0
M  V30 16986 H 1550.85 1.36664 -3.93017 0
M  V30 16987 H 1549.73 2.21638 -5.02163 0
M  V30 16988 H 1549.99 2.82996 -3.39655 0
M  V30 16989 N 1549.05 1.57088 0.126881 0
M  V30 16990 C 1550.28 1.8834 0.849211 0
M  V30 16991 C 1550.69 0.735386 1.74324 0
M  V30 16992 O 1550.03 -0.30318 1.81181 0
M  V30 16993 C 1550.09 3.14522 1.74116 0
M  V30 16994 C 1549.76 4.4542 1.02225 0
M  V30 16995 C 1550.75 5.18605 0.366722 0
M  V30 16996 C 1548.44 4.92128 1.00577 0
M  V30 16997 C 1550.43 6.36714 -0.295675 0
M  V30 16998 C 1548.12 6.10156 0.33957 0
M  V30 16999 C 1549.12 6.82296 -0.310005 0
M  V30 17000 O 1548.8 7.9808 -0.965594 0
M  V30 17001 H 1548.54 0.628129 0.24986 0
M  V30 17002 H 1551.09 2.05059 0.118236 0
M  V30 17003 H 1549.32 2.93864 2.51358 0
M  V30 17004 H 1551.01 3.31857 2.33722 0
M  V30 17005 H 1551.78 4.83578 0.371126 0
M  V30 17006 H 1547.65 4.35887 1.5008 0
M  V30 17007 H 1551.2 6.9296 -0.803275 0
M  V30 17008 H 1547.1 6.44641 0.332902 0
M  V30 17009 H 1547.86 8.13871 -0.869277 0
M  V30 17010 N 1550.53 -0.396836 1.52522 0
M  V30 17011 C 1551.49 -1.46695 1.76106 0
M  V30 17012 C 1552.49 -1.47902 0.631005 0
M  V30 17013 O 1553.68 -1.4921 0.898995 0
M  V30 17014 C 1550.81 -2.86033 1.85467 0
M  V30 17015 H 1552 -1.27071 2.71649 0
M  V30 17016 H 1549.56 -0.628096 1.43125 0
M  V30 17017 H 1550.29 -3.11012 0.918816 0
M  V30 17018 H 1550.08 -2.86559 2.67631 0
M  V30 17019 H 1551.57 -3.63587 2.05412 0
M  V30 17020 N 1552.01 -1.43353 -0.654814 0
M  V30 17021 C 1553.24 -1.48107 -1.44041 0
M  V30 17022 C 1553.64 -0.0970423 -1.88951 0
M  V30 17023 O 1552.99 0.902686 -1.59991 0
M  V30 17024 C 1553.05 -2.36322 -2.7091 0
M  V30 17025 C 1552.71 -3.83887 -2.4795 0
M  V30 17026 C 1553.71 -4.75036 -2.11274 0
M  V30 17027 C 1551.39 -4.28359 -2.62324 0
M  V30 17028 C 1553.39 -6.08651 -1.89267 0
M  V30 17029 C 1551.08 -5.62028 -2.39933 0
M  V30 17030 C 1552.07 -6.51992 -2.0346 0
M  V30 17031 O 1551.76 -7.83189 -1.813 0
M  V30 17032 H 1551.49 -0.50532 -0.449029 0
M  V30 17033 H 1554.05 -1.88745 -0.810226 0
M  V30 17034 H 1552.28 -1.90569 -3.36482 0
M  V30 17035 H 1553.97 -2.32298 -3.32855 0
M  V30 17036 H 1554.73 -4.41957 -1.99747 0
M  V30 17037 H 1550.61 -3.58611 -2.89688 0
M  V30 17038 H 1554.16 -6.78833 -1.60723 0
M  V30 17039 H 1550.05 -5.94675 -2.51062 0
M  V30 17040 H 1550.82 -7.94751 -1.95738 0
M  V30 17041 N 1553.48 0.89303 -1.29857 0
M  V30 17042 C 1554.39 2.03079 -1.17457 0
M  V30 17043 C 1555.41 1.73733 -0.0962941 0
M  V30 17044 O 1556.59 1.99005 -0.309667 0
M  V30 17045 C 1553.65 3.3589 -0.858991 0
M  V30 17046 C 1552.71 3.78711 -2.0218 0
M  V30 17047 C 1551.94 5.05184 -1.72118 0
M  V30 17048 O 1552.17 5.66738 -0.645276 0
M  V30 17049 O 1551.1 5.44218 -2.57119 0
M  V30 17050 H 1554.93 2.16465 -2.13017 0
M  V30 17051 H 1552.51 1.01774 -1.09373 0
M  V30 17052 H 1554.39 4.15582 -0.697852 0
M  V30 17053 H 1553.07 3.23631 0.0667756 0
M  V30 17054 H 1551.98 2.99758 -2.23822 0
M  V30 17055 H 1553.31 3.95563 -2.929 0
M  V30 17056 N 1554.96 1.12442 1.10429 0
M  V30 17057 C 1556.21 0.874466 1.81758 0
M  V30 17058 C 1556.52 -0.601487 1.86122 0
M  V30 17059 O 1557.73 -0.968037 2.53656 0
M  V30 17060 C 1556.19 1.51478 3.2647 0
M  V30 17061 C 1555.79 3.02552 3.30403 0
M  V30 17062 C 1557.54 1.34511 4.02625 0
M  V30 17063 C 1555.44 3.59518 4.69575 0
M  V30 17064 H 1554.37 0.323494 0.681078 0
M  V30 17065 H 1557.03 1.35091 1.24188 0
M  V30 17066 H 1555.41 0.966 3.84037 0
M  V30 17067 H 1556.58 3.63924 2.82659 0
M  V30 17068 H 1554.9 3.18917 2.67733 0
M  V30 17069 H 1557.49 1.74492 5.05427 0
M  V30 17070 H 1557.84 0.288788 4.15297 0
M  V30 17071 H 1558.37 1.86311 3.51473 0
M  V30 17072 H 1555.11 4.6491 4.62103 0
M  V30 17073 H 1554.63 3.02922 5.17686 0
M  V30 17074 H 1556.31 3.58581 5.38543 0
M  V30 17075 N 1556.44 -1.28223 0.91633 0
M  V30 17076 C 1557.72 -1.89878 0.469661 0
M  V30 17077 C 1558.1 -1.83037 -1.05169 0
M  V30 17078 O 1557.44 -1.26801 -1.90088 0
M  V30 17079 C 1557.65 -3.34279 1.00293 0
M  V30 17080 C 1559 -4.11244 1.05657 0
M  V30 17081 O 1560.03 -3.43249 0.951753 0
M  V30 17082 O 1558.89 -5.32788 1.21652 0
M  V30 17083 H 1555.98 -0.813418 0.149263 0
M  V30 17084 H 1558.53 -1.36572 1.00728 0
M  V30 17085 H 1557.3 -3.33494 2.04688 0
M  V30 17086 H 1556.92 -3.95087 0.446287 0
M  V30 17087 N 1557.92 -0.68059 -1.42147 0
M  V30 17088 C 1559.16 -0.205567 -2.01755 0
M  V30 17089 C 1559.5 1.18677 -1.53718 0
M  V30 17090 O 1558.77 1.79796 -0.741867 0
M  V30 17091 C 1559.05 -0.246615 -3.59255 0
M  V30 17092 C 1558.91 -1.67483 -4.17456 0
M  V30 17093 C 1560.23 0.40196 -4.38261 0
M  V30 17094 H 1557.35 -0.0761717 -0.733053 0
M  V30 17095 H 1559.99 -0.866473 -1.69092 0
M  V30 17096 H 1558.14 0.316127 -3.87212 0
M  V30 17097 H 1559.81 -2.29026 -4.00431 0
M  V30 17098 H 1558.05 -2.2137 -3.73065 0
M  V30 17099 H 1558.72 -1.65519 -5.266 0
M  V30 17100 H 1561.2 -0.077135 -4.16028 0
M  V30 17101 H 1560.08 0.342627 -5.4783 0
M  V30 17102 H 1560.34 1.48044 -4.16576 0
M  V30 17103 N 1559.4 1.51781 -0.424309 0
M  V30 17104 C 1560.64 2.03879 0.145828 0
M  V30 17105 C 1561 1.30226 1.41086 0
M  V30 17106 O 1562.2 1.72629 2.06041 0
M  V30 17107 C 1560.47 3.55454 0.372466 0
M  V30 17108 S 1562.03 4.29305 0.907876 0
M  V30 17109 H 1558.85 0.709986 0.0379529 0
M  V30 17110 H 1561.45 1.86676 -0.58072 0
M  V30 17111 H 1560.15 4.06633 -0.554778 0
M  V30 17112 H 1559.69 3.76928 1.12646 0
M  V30 17113 H 1561.7 4.4541 2.18687 0
M  V30 17114 N 1560.87 0.155222 1.56834 0
M  V30 17115 C 1561.84 -0.767266 2.15976 0
M  V30 17116 C 1562.84 -1.16946 1.10364 0
M  V30 17117 O 1564.03 -1.08905 1.35961 0
M  V30 17118 C 1561.16 -2.04226 2.72956 0
M  V30 17119 H 1562.35 -0.252662 2.98834 0
M  V30 17120 H 1559.9 -0.0942677 1.56015 0
M  V30 17121 H 1560.64 -2.60033 1.93787 0
M  V30 17122 H 1560.42 -1.76299 3.5023 0
M  V30 17123 H 1561.91 -2.70093 3.18495 0
M  V30 17124 N 1562.35 -1.57153 -0.118549 0
M  V30 17125 C 1563.3 -2.01357 -1.1644 0
M  V30 17126 C 1564.29 -0.910574 -1.42846 0
M  V30 17127 O 1565.5 -1.09578 -1.42803 0
M  V30 17128 H 1561.87 -0.641376 -0.392607 0
M  V30 17129 H 1563.85 -2.88425 -0.765087 0
M  V30 17130 C 1562.59 -2.43416 -2.48282 0
M  V30 17131 H 1561.92 -3.27857 -2.288 0
M  V30 17132 H 1563.36 -2.78143 -3.20019 0
M  V30 17133 C 1561.82 -1.29799 -3.10892 0
M  V30 17134 O 1562.35 -0.614207 -3.96977 0
M  V30 17135 N 1560.55 -1.05493 -2.70776 0
M  V30 17136 H 1560.1 -1.61276 -2.00868 0
M  V30 17137 H 1560.06 -0.296678 -3.12997 0
M  V30 17138 N 1563.83 0.388742 -1.5273 0
M  V30 17139 C 1565.11 1.14799 -1.58368 0
M  V30 17140 C 1565.49 2.07706 -0.377018 0
M  V30 17141 O 1564.83 2.1951 0.634634 0
M  V30 17142 C 1565.04 1.90745 -2.92262 0
M  V30 17143 C 1566.39 2.46098 -3.46007 0
M  V30 17144 O 1567.42 2.00901 -2.94138 0
M  V30 17145 O 1566.28 3.28658 -4.3663 0
M  V30 17146 H 1563.37 0.52529 -0.638748 0
M  V30 17147 H 1565.92 0.393874 -1.65066 0
M  V30 17148 H 1564.69 1.22806 -3.7153 0
M  V30 17149 H 1564.31 2.73118 -2.88951 0
M  V30 17150 N 1565.31 1.43698 0.647203 0
M  V30 17151 C 1566.53 1.49301 1.43958 0
M  V30 17152 C 1566.96 0.11395 1.87755 0
M  V30 17153 O 1566.32 -0.893571 1.5775 0
M  V30 17154 C 1566.36 2.44905 2.64677 0
M  V30 17155 O 1565.47 1.93947 3.63948 0
M  V30 17156 H 1564.81 0.504771 0.431396 0
M  V30 17157 H 1567.34 1.88673 0.791432 0
M  V30 17158 H 1567.35 2.62409 3.12419 0
M  V30 17159 H 1566.02 3.45083 2.32143 0
M  V30 17160 H 1564.6 1.86133 3.23124 0
M  V30 17161 N 1566.79 -0.886131 1.30328 0
M  V30 17162 C 1568.03 -1.64026 1.19261 0
M  V30 17163 C 1568.37 -1.92553 -0.252379 0
M  V30 17164 O 1567.64 -1.54564 -1.18069 0
M  V30 17165 C 1567.92 -2.9808 2.0204 0
M  V30 17166 C 1567.78 -2.76534 3.54752 0
M  V30 17167 C 1569.1 -3.98989 1.85731 0
M  V30 17168 H 1566.21 -0.595224 0.4346 0
M  V30 17169 H 1568.86 -1.0255 1.59949 0
M  V30 17170 H 1567.01 -3.50552 1.67469 0
M  V30 17171 H 1568.68 -2.3086 3.99376 0
M  V30 17172 H 1566.92 -2.1106 3.78993 0
M  V30 17173 H 1567.59 -3.71849 4.07961 0
M  V30 17174 H 1570.07 -3.55673 2.15953 0
M  V30 17175 H 1568.94 -4.90699 2.45979 0
M  V30 17176 H 1569.21 -4.34501 0.816152 0
M  V30 17177 N 1568.26 -1.13026 -1.09832 0
M  V30 17178 C 1569.51 -0.884093 -1.81292 0
M  V30 17179 C 1569.83 0.591608 -1.86439 0
M  V30 17180 O 1571.03 0.954571 -2.54166 0
M  V30 17181 C 1569.49 -1.53207 -3.25662 0
M  V30 17182 C 1569.1 -3.043 -3.28794 0
M  V30 17183 C 1570.84 -1.36644 -4.01906 0
M  V30 17184 C 1568.75 -3.62003 -4.67662 0
M  V30 17185 H 1567.68 -0.327101 -0.679353 0
M  V30 17186 H 1570.33 -1.35748 -1.2347 0
M  V30 17187 H 1568.71 -0.986353 -3.83519 0
M  V30 17188 H 1569.88 -3.65418 -2.80725 0
M  V30 17189 H 1568.2 -3.20332 -2.66038 0
M  V30 17190 H 1570.8 -1.7717 -5.04495 0
M  V30 17191 H 1571.14 -0.310809 -4.15138 0
M  V30 17192 H 1571.67 -1.88172 -3.5048 0
M  V30 17193 H 1568.41 -4.67354 -4.59631 0
M  V30 17194 H 1567.93 -3.05663 -5.16072 0
M  V30 17195 H 1569.61 -3.61432 -5.36634 0
M  V30 17196 N 1569.74 1.27735 -0.923117 0
M  V30 17197 C 1571.15 1.76579 -0.606376 0
M  V30 17198 C 1571.5 1.75437 0.878428 0
M  V30 17199 O 1570.63 1.35495 1.68731 0
M  V30 17200 C 1571.22 3.20652 -1.09396 0
M  V30 17201 C 1569.78 3.67181 -0.827974 0
M  V30 17202 C 1568.93 2.47259 -1.25532 0
M  V30 17203 H 1571.88 1.14067 -1.10338 0
M  V30 17204 H 1571.9 3.77952 -0.439581 0
M  V30 17205 H 1571.41 3.21451 -2.17465 0
M  V30 17206 H 1569.52 3.71832 0.239098 0
M  V30 17207 H 1569.63 4.56875 -1.44229 0
M  V30 17208 H 1567.99 2.45622 -0.673928 0
M  V30 17209 H 1568.78 2.50771 -2.34455 0
M  V30 17210 N 1571.22 0.688118 1.41784 0
M  V30 17211 C 1572.15 -0.02099 2.2919 0
M  V30 17212 C 1573.17 -0.752005 1.44391 0
M  V30 17213 O 1574.35 -0.603947 1.67972 0
M  V30 17214 C 1571.45 -1.0537 3.22103 0
M  V30 17215 C 1570.63 -0.393817 4.35624 0
M  V30 17216 C 1569.69 -1.32812 5.09163 0
M  V30 17217 O 1568.71 -0.823341 5.63214 0
M  V30 17218 N 1569.91 -2.66083 5.15927 0
M  V30 17219 H 1572.68 0.729389 2.90689 0
M  V30 17220 H 1570.24 0.533564 1.52855 0
M  V30 17221 H 1572.23 -1.6803 3.68169 0
M  V30 17222 H 1570.8 -1.70568 2.61964 0
M  V30 17223 H 1570.02 0.41253 3.92035 0
M  V30 17224 H 1571.31 0.065338 5.08758 0
M  V30 17225 H 1570.71 -3.09619 4.73448 0
M  V30 17226 H 1569.27 -3.23956 5.65593 0
M  V30 17227 N 1572.7 -1.51554 0.432352 0
M  V30 17228 C 1573.95 -2.01232 -0.137255 0
M  V30 17229 C 1574.26 -1.32135 -1.44221 0
M  V30 17230 O 1575.47 -1.72756 -2.09446 0
M  V30 17231 C 1573.92 -3.58688 -0.295152 0
M  V30 17232 C 1573.53 -4.36718 0.999072 0
M  V30 17233 C 1575.27 -4.16528 -0.818798 0
M  V30 17234 C 1573.18 -5.85867 0.80709 0
M  V30 17235 H 1572.11 -0.751986 -0.0550696 0
M  V30 17236 H 1574.76 -1.74703 0.561352 0
M  V30 17237 H 1573.14 -3.81643 -1.05664 0
M  V30 17238 H 1574.32 -4.25512 1.76851 0
M  V30 17239 H 1572.63 -3.90306 1.45087 0
M  V30 17240 H 1575.23 -5.25664 -0.978841 0
M  V30 17241 H 1575.57 -3.75379 -1.79989 0
M  V30 17242 H 1576.11 -3.97632 -0.11575 0
M  V30 17243 H 1572.85 -6.31419 1.76041 0
M  V30 17244 H 1572.37 -5.9975 0.0773617 0
M  V30 17245 H 1574.04 -6.45375 0.458328 0
M  V30 17246 N 1574.18 -0.163538 -1.56749 0
M  V30 17247 C 1575.42 0.485954 -1.98539 0
M  V30 17248 C 1575.78 1.60942 -1.04698 0
M  V30 17249 O 1576.98 2.32092 -1.35598 0
M  V30 17250 C 1575.25 0.963784 -3.4416 0
M  V30 17251 S 1576.81 1.61555 -4.07977 0
M  V30 17252 H 1573.63 0.15658 -0.693544 0
M  V30 17253 H 1576.23 -0.259161 -1.93775 0
M  V30 17254 H 1574.94 0.135594 -4.10176 0
M  V30 17255 H 1574.47 1.74313 -3.52674 0
M  V30 17256 H 1576.48 2.90344 -4.02387 0
M  V30 17257 N 1575.65 1.57214 0.110213 0
M  V30 17258 C 1576.9 1.84946 0.814827 0
M  V30 17259 C 1577.22 0.750029 1.79999 0
M  V30 17260 O 1576.49 -0.225164 1.94602 0
M  V30 17261 H 1575.07 0.682385 0.303907 0
M  V30 17262 H 1577.74 1.94666 0.0954415 0
M  V30 17263 H 1576.83 2.81167 1.35469 0
M  V30 17264 N 1577.13 -0.380637 1.52934 0
M  V30 17265 C 1578.54 -0.958182 1.60237 0
M  V30 17266 C 1578.89 -1.90722 0.460393 0
M  V30 17267 O 1578.02 -2.12376 -0.415354 0
M  V30 17268 C 1578.61 -1.7446 2.90429 0
M  V30 17269 C 1577.17 -2.27172 3.00116 0
M  V30 17270 C 1576.32 -1.07969 2.55417 0
M  V30 17271 H 1579.27 -0.159908 1.57892 0
M  V30 17272 H 1579.29 -2.60456 2.77385 0
M  V30 17273 H 1578.8 -1.05362 3.73524 0
M  V30 17274 H 1576.91 -2.99557 2.21577 0
M  V30 17275 H 1577.02 -2.56086 4.04916 0
M  V30 17276 H 1575.38 -1.4422 2.09935 0
M  V30 17277 H 1576.17 -0.403925 3.40915 0
M  V30 17278 N 1578.61 -1.44039 -0.639573 0
M  V30 17279 C 1579.86 -1.46088 -1.39652 0
M  V30 17280 C 1580.18 -0.0914602 -1.94785 0
M  V30 17281 O 1579.45 0.875097 -1.75268 0
M  V30 17282 H 1578.03 -0.537901 -0.518335 0
M  V30 17283 H 1580.69 -1.79751 -0.753365 0
M  V30 17284 H 1579.79 -2.1814 -2.23207 0
M  V30 17285 N 1580.09 0.879207 -1.30796 0
M  V30 17286 C 1581.32 1.66449 -1.22891 0
M  V30 17287 C 1581.73 1.87658 0.207306 0
M  V30 17288 O 1581.09 1.42818 1.13619 0
M  V30 17289 C 1581.14 3.03765 -1.95982 0
M  V30 17290 O 1580.86 2.8351 -3.33997 0
M  V30 17291 C 1582.36 3.98204 -1.94804 0
M  V30 17292 H 1579.58 0.51922 -0.425031 0
M  V30 17293 H 1582.13 1.09807 -1.72519 0
M  V30 17294 H 1580.28 3.57124 -1.50138 0
M  V30 17295 H 1580.69 3.70663 -3.71092 0
M  V30 17296 H 1582.17 4.91901 -2.50474 0
M  V30 17297 H 1582.65 4.29277 -0.928336 0
M  V30 17298 H 1583.25 3.50781 -2.40485 0
M  V30 17299 N 1581.57 1.13606 1.09231 0
M  V30 17300 C 1582.81 0.910333 1.81891 0
M  V30 17301 C 1583.17 -0.557482 1.84146 0
M  V30 17302 O 1582.46 -1.40735 1.30016 0
M  V30 17303 C 1582.66 1.43456 3.27345 0
M  V30 17304 C 1582.48 2.95182 3.39261 0
M  V30 17305 C 1581.25 3.63546 3.50945 0
M  V30 17306 C 1583.45 3.93105 3.31621 0
M  V30 17307 N 1581.43 5.03265 3.51564 0
M  V30 17308 C 1582.81 5.19026 3.39133 0
M  V30 17309 C 1584.86 3.85343 3.15302 0
M  V30 17310 C 1583.56 6.38094 3.32007 0
M  V30 17311 C 1585.59 5.03947 3.09502 0
M  V30 17312 C 1584.95 6.28733 3.17608 0
M  V30 17313 H 1581.05 0.386545 0.679785 0
M  V30 17314 H 1583.63 1.44465 1.30529 0
M  V30 17315 H 1581.81 0.927132 3.77172 0
M  V30 17316 H 1583.54 1.14962 3.88028 0
M  V30 17317 H 1580.29 3.14072 3.54479 0
M  V30 17318 H 1580.72 5.76179 3.55453 0
M  V30 17319 H 1585.36 2.8975 3.07904 0
M  V30 17320 H 1583.08 7.3394 3.38168 0
M  V30 17321 H 1586.66 4.99683 2.98008 0
M  V30 17322 H 1585.54 7.18967 3.13139 0
M  V30 17323 N 1583.05 -1.27244 0.929878 0
M  V30 17324 C 1583.98 -2.29161 0.448066 0
M  V30 17325 C 1584.96 -1.62806 -0.492776 0
M  V30 17326 O 1586.14 -1.90098 -0.39706 0
M  V30 17327 C 1583.27 -3.46019 -0.298002 0
M  V30 17328 C 1582.23 -4.24384 0.555211 0
M  V30 17329 C 1581.55 -5.33741 -0.320153 0
M  V30 17330 C 1582.85 -4.89535 1.8208 0
M  V30 17331 H 1584.55 -2.69712 1.29983 0
M  V30 17332 H 1582.09 -1.29659 0.626466 0
M  V30 17333 H 1584.04 -4.16419 -0.646024 0
M  V30 17334 H 1582.77 -3.0439 -1.18381 0
M  V30 17335 H 1581.43 -3.55733 0.885971 0
M  V30 17336 H 1581.08 -4.88354 -1.20498 0
M  V30 17337 H 1580.78 -5.8708 0.247241 0
M  V30 17338 H 1582.3 -6.06982 -0.663697 0
M  V30 17339 H 1583.71 -5.52209 1.54071 0
M  V30 17340 H 1582.11 -5.52941 2.33186 0
M  V30 17341 H 1583.18 -4.13113 2.53901 0
M  V30 17342 N 1584.52 -0.695628 -1.41417 0
M  V30 17343 C 1585.75 -0.235654 -2.05554 0
M  V30 17344 C 1586.17 1.11513 -1.52349 0
M  V30 17345 O 1585.52 1.69688 -0.671743 0
M  V30 17346 C 1585.57 -0.184809 -3.61027 0
M  V30 17347 O 1585.3 -1.48224 -4.12264 0
M  V30 17348 C 1586.8 0.296147 -4.4231 0
M  V30 17349 H 1584.02 -0.109648 -0.661981 0
M  V30 17350 H 1586.56 -0.948227 -1.81187 0
M  V30 17351 H 1584.72 0.478588 -3.84432 0
M  V30 17352 H 1585.13 -1.36939 -5.06308 0
M  V30 17353 H 1586.6 0.280597 -5.51286 0
M  V30 17354 H 1587.08 1.33503 -4.18418 0
M  V30 17355 H 1587.69 -0.336253 -4.23969 0
M  V30 17356 N 1586 1.51322 -0.440383 0
M  V30 17357 C 1587.41 1.86687 0.0220272 0
M  V30 17358 C 1587.76 1.35734 1.41671 0
M  V30 17359 O 1586.89 0.709408 2.04442 0
M  V30 17360 C 1587.48 3.38768 0.0467477 0
M  V30 17361 C 1586.04 3.73657 0.45358 0
M  V30 17362 C 1585.19 2.7506 -0.351779 0
M  V30 17363 H 1588.14 1.44503 -0.65609 0
M  V30 17364 H 1588.16 3.70756 0.855589 0
M  V30 17365 H 1587.67 3.75823 -0.968451 0
M  V30 17366 H 1585.77 3.42193 1.47427 0
M  V30 17367 H 1585.89 4.78776 0.176262 0
M  V30 17368 H 1584.25 2.53988 0.190334 0
M  V30 17369 H 1585.03 3.14957 -1.36591 0
M  V30 17370 N 1587.48 0.171848 1.5666 0
M  V30 17371 C 1588.73 -0.472968 1.96899 0
M  V30 17372 C 1589.05 -1.63217 1.05785 0
M  V30 17373 O 1588.31 -1.95483 0.0920511 0
M  V30 17374 C 1588.61 -0.99711 3.43209 0
M  V30 17375 C 1588.27 0.0462519 4.50876 0
M  V30 17376 C 1586.94 0.333002 4.80046 0
M  V30 17377 C 1589.29 0.754424 5.15711 0
M  V30 17378 C 1586.62 1.3333 5.71349 0
M  V30 17379 C 1588.97 1.74371 6.08093 0
M  V30 17380 C 1587.63 2.03791 6.3563 0
M  V30 17381 H 1586.9 -0.173071 0.720505 0
M  V30 17382 H 1589.55 0.263921 1.89673 0
M  V30 17383 H 1587.85 -1.81183 3.4739 0
M  V30 17384 H 1589.55 -1.50503 3.71685 0
M  V30 17385 H 1586.14 -0.187419 4.2819 0
M  V30 17386 H 1590.33 0.546102 4.93286 0
M  V30 17387 H 1585.58 1.56741 5.90967 0
M  V30 17388 H 1589.76 2.29782 6.57399 0
M  V30 17389 H 1587.38 2.8145 7.0618 0
M  V30 17390 N 1588.96 -1.5727 -0.101874 0
M  V30 17391 C 1589.89 -2.04614 -1.12496 0
M  V30 17392 C 1590.87 -0.933768 -1.42179 0
M  V30 17393 O 1592.05 -1.2046 -1.52325 0
M  V30 17394 C 1589.18 -2.46488 -2.44665 0
M  V30 17395 C 1588.14 -3.61327 -2.29406 0
M  V30 17396 C 1587.46 -3.89155 -3.66691 0
M  V30 17397 C 1588.76 -4.92455 -1.74026 0
M  V30 17398 H 1590.46 -2.90336 -0.731109 0
M  V30 17399 H 1588 -1.39676 -0.350239 0
M  V30 17400 H 1589.96 -2.78216 -3.16502 0
M  V30 17401 H 1588.68 -1.57757 -2.85972 0
M  V30 17402 H 1587.34 -3.29835 -1.60015 0
M  V30 17403 H 1586.99 -2.97603 -4.05514 0
M  V30 17404 H 1586.69 -4.66465 -3.57329 0
M  V30 17405 H 1588.21 -4.23352 -4.40006 0
M  V30 17406 H 1589.63 -5.22609 -2.35697 0
M  V30 17407 H 1588.02 -5.73882 -1.75441 0
M  V30 17408 H 1589.09 -4.79833 -0.699136 0
M  V30 17409 N 1590.44 0.372521 -1.53134 0
M  V30 17410 C 1591.37 1.4759 -1.75357 0
M  V30 17411 C 1592.38 1.49938 -0.634223 0
M  V30 17412 O 1593.57 1.53543 -0.910322 0
M  V30 17413 C 1590.67 2.86382 -1.81214 0
M  V30 17414 C 1589.84 3.0781 -3.1076 0
M  V30 17415 C 1588.9 4.26677 -3.07949 0
M  V30 17416 O 1587.93 4.22186 -3.81769 0
M  V30 17417 N 1589.13 5.33729 -2.28283 0
M  V30 17418 H 1591.89 1.28908 -2.7056 0
M  V30 17419 H 1589.46 0.562186 -1.51826 0
M  V30 17420 H 1591.45 3.64029 -1.7682 0
M  V30 17421 H 1590.02 2.98344 -0.933249 0
M  V30 17422 H 1589.24 2.17884 -3.28512 0
M  V30 17423 H 1590.53 3.18991 -3.96386 0
M  V30 17424 H 1589.92 5.40238 -1.67806 0
M  V30 17425 H 1588.48 6.09979 -2.29714 0
M  V30 17426 N 1591.91 1.44376 0.631925 0
M  V30 17427 C 1592.88 1.50825 1.72582 0
M  V30 17428 C 1593.88 0.390379 1.55989 0
M  V30 17429 O 1595.07 0.65297 1.61499 0
M  V30 17430 C 1592.2 1.38141 3.11657 0
M  V30 17431 H 1593.39 2.48265 1.68239 0
M  V30 17432 H 1590.94 1.31456 0.845514 0
M  V30 17433 H 1591.68 0.417905 3.21596 0
M  V30 17434 H 1591.46 2.19198 3.25107 0
M  V30 17435 H 1592.95 1.45633 3.91383 0
M  V30 17436 N 1593.39 -0.872258 1.31261 0
M  V30 17437 C 1594.64 -1.62752 1.20994 0
M  V30 17438 C 1594.97 -1.9281 -0.231942 0
M  V30 17439 O 1594.25 -1.55808 -1.16423 0
M  V30 17440 C 1594.53 -2.95921 2.0519 0
M  V30 17441 C 1594.38 -2.72756 3.57665 0
M  V30 17442 C 1595.7 -3.96996 1.89953 0
M  V30 17443 H 1592.82 -0.590581 0.440889 0
M  V30 17444 H 1595.46 -1.00848 1.61027 0
M  V30 17445 H 1593.61 -3.48756 1.71177 0
M  V30 17446 H 1595.28 -2.26611 4.01803 0
M  V30 17447 H 1593.53 -2.07029 3.81211 0
M  V30 17448 H 1594.2 -3.67502 4.11882 0
M  V30 17449 H 1596.67 -3.53363 2.19713 0
M  V30 17450 H 1595.55 -4.88063 2.51169 0
M  V30 17451 H 1595.81 -4.33611 0.862191 0
M  V30 17452 N 1594.87 -1.14184 -1.08627 0
M  V30 17453 C 1596.1 -0.930752 -1.84447 0
M  V30 17454 C 1596.51 0.524072 -1.81797 0
M  V30 17455 O 1595.85 1.37483 -1.21836 0
M  V30 17456 C 1595.91 -1.35125 -3.33139 0
M  V30 17457 C 1595.58 -2.82117 -3.59526 0
M  V30 17458 C 1596.57 -3.80242 -3.54559 0
M  V30 17459 C 1594.26 -3.19475 -3.87609 0
M  V30 17460 C 1596.25 -5.13734 -3.77301 0
M  V30 17461 C 1593.94 -4.53144 -4.10005 0
M  V30 17462 C 1594.94 -5.50082 -4.04844 0
M  V30 17463 O 1594.63 -6.81339 -4.26653 0
M  V30 17464 H 1594.36 -0.331385 -0.589203 0
M  V30 17465 H 1596.91 -1.52033 -1.38113 0
M  V30 17466 H 1595.14 -0.704995 -3.80219 0
M  V30 17467 H 1596.83 -1.11133 -3.9039 0
M  V30 17468 H 1597.6 -3.52726 -3.32881 0
M  V30 17469 H 1593.48 -2.44617 -3.90747 0
M  V30 17470 H 1597.02 -5.89386 -3.73188 0
M  V30 17471 H 1592.92 -4.80381 -4.31166 0
M  V30 17472 H 1593.68 -6.87563 -4.44071 0
M  V30 17473 N 1596.35 1.26749 -0.936613 0
M  V30 17474 C 1597.28 2.2892 -0.460213 0
M  V30 17475 C 1598.26 1.63065 0.484135 0
M  V30 17476 O 1599.44 1.90305 0.386973 0
M  V30 17477 C 1596.57 3.46172 0.279648 0
M  V30 17478 C 1595.53 4.24083 -0.57771 0
M  V30 17479 C 1594.85 5.33903 0.291843 0
M  V30 17480 C 1596.15 4.88562 -1.84673 0
M  V30 17481 H 1597.85 2.69019 -1.31412 0
M  V30 17482 H 1595.39 1.29325 -0.633333 0
M  V30 17483 H 1597.35 4.16755 0.623931 0
M  V30 17484 H 1596.07 3.05014 1.16765 0
M  V30 17485 H 1594.73 3.55258 -0.904824 0
M  V30 17486 H 1594.38 4.88986 1.17906 0
M  V30 17487 H 1594.08 5.8694 -0.278372 0
M  V30 17488 H 1595.6 6.07326 0.631498 0
M  V30 17489 H 1597.02 5.51384 -1.56997 0
M  V30 17490 H 1595.41 5.51697 -2.36115 0
M  V30 17491 H 1596.48 4.11761 -2.56088 0
M  V30 17492 N 1597.83 0.703118 1.41046 0
M  V30 17493 C 1599.07 0.237287 2.01105 0
M  V30 17494 C 1599.4 -1.16552 1.55711 0
M  V30 17495 O 1598.66 -1.80233 0.762533 0
M  V30 17496 C 1598.96 0.251575 3.56513 0
M  V30 17497 C 1598.62 1.60295 4.21446 0
M  V30 17498 C 1597.28 1.9729 4.38897 0
M  V30 17499 C 1599.64 2.49167 4.57783 0
M  V30 17500 C 1596.96 3.22726 4.89964 0
M  V30 17501 C 1599.32 3.73943 5.10244 0
M  V30 17502 C 1597.98 4.11072 5.25905 0
M  V30 17503 H 1597.25 0.0868294 0.735895 0
M  V30 17504 H 1599.9 0.903695 1.68836 0
M  V30 17505 H 1598.2 -0.498393 3.88617 0
M  V30 17506 H 1599.9 -0.126501 4.008 0
M  V30 17507 H 1596.49 1.30523 4.08242 0
M  V30 17508 H 1600.67 2.21864 4.43948 0
M  V30 17509 H 1595.93 3.51477 5.00274 0
M  V30 17510 H 1600.1 4.42988 5.3734 0
M  V30 17511 H 1597.73 5.0834 5.65239 0
M  V30 17512 N 1599.3 -1.51086 0.448402 0
M  V30 17513 C 1600.55 -2.02476 -0.114511 0
M  V30 17514 C 1600.88 -1.33126 -1.4139 0
M  V30 17515 O 1600.16 -0.449665 -1.89231 0
M  V30 17516 C 1600.44 -3.58659 -0.321842 0
M  V30 17517 C 1600.29 -4.38612 0.996975 0
M  V30 17518 C 1601.61 -4.26473 -1.08667 0
M  V30 17519 H 1598.73 -0.735906 -0.0401431 0
M  V30 17520 H 1601.37 -1.80622 0.589563 0
M  V30 17521 H 1599.52 -3.77411 -0.92157 0
M  V30 17522 H 1601.2 -4.31484 1.63154 0
M  V30 17523 H 1599.44 -4.03255 1.599 0
M  V30 17524 H 1600.11 -5.46087 0.805817 0
M  V30 17525 H 1602.59 -4.12058 -0.578559 0
M  V30 17526 H 1601.46 -5.35611 -1.20051 0
M  V30 17527 H 1601.72 -3.88086 -2.11758 0
M  V30 17528 N 1600.78 -0.180154 -1.56567 0
M  V30 17529 C 1601.71 0.77825 -2.15583 0
M  V30 17530 C 1602.73 1.18746 -1.1137 0
M  V30 17531 O 1603.92 1.12578 -1.38523 0
M  V30 17532 C 1601.02 2.06024 -2.69086 0
M  V30 17533 C 1600.19 1.8132 -3.98047 0
M  V30 17534 C 1599.25 2.93823 -4.36526 0
M  V30 17535 O 1598.27 2.64075 -5.04235 0
M  V30 17536 N 1599.48 4.21823 -3.98806 0
M  V30 17537 H 1602.24 0.273661 -2.98448 0
M  V30 17538 H 1599.8 0.00232952 -1.619 0
M  V30 17539 H 1601.79 2.80398 -2.9182 0
M  V30 17540 H 1600.36 2.47648 -1.9076 0
M  V30 17541 H 1599.58 0.908046 -3.83599 0
M  V30 17542 H 1600.87 1.62194 -4.82256 0
M  V30 17543 H 1600.27 4.48849 -3.44313 0
M  V30 17544 H 1598.83 4.92871 -4.26522 0
M  V30 17545 N 1602.26 1.57322 0.0935319 0
M  V30 17546 C 1603.49 1.90099 0.80907 0
M  V30 17547 C 1603.9 0.772198 1.72724 0
M  V30 17548 O 1603.24 -0.26468 1.81783 0
M  V30 17549 C 1603.3 3.18144 1.67405 0
M  V30 17550 C 1602.97 4.47488 0.927539 0
M  V30 17551 C 1603.96 5.19266 0.256635 0
M  V30 17552 C 1601.65 4.9415 0.901156 0
M  V30 17553 C 1603.64 6.35943 -0.430665 0
M  V30 17554 C 1601.33 6.10739 0.21007 0
M  V30 17555 C 1602.33 6.81485 -0.454661 0
M  V30 17556 O 1602.02 7.95852 -1.13466 0
M  V30 17557 H 1601.75 0.633287 0.236481 0
M  V30 17558 H 1604.3 2.05264 0.0747132 0
M  V30 17559 H 1602.53 2.99129 2.45068 0
M  V30 17560 H 1604.22 3.3674 2.2663 0
M  V30 17561 H 1604.99 4.84256 0.268468 0
M  V30 17562 H 1600.87 4.38972 1.408 0
M  V30 17563 H 1604.41 6.911 -0.950082 0
M  V30 17564 H 1600.31 6.45202 0.196089 0
M  V30 17565 H 1601.08 8.11844 -1.04172 0
M  V30 17566 N 1603.74 -0.364395 1.53329 0
M  V30 17567 C 1604.99 -1.10423 1.68789 0
M  V30 17568 C 1605.3 -1.90428 0.446819 0
M  V30 17569 O 1606.51 -2.67188 0.481978 0
M  V30 17570 C 1604.96 -2.01228 2.98388 0
M  V30 17571 C 1604.57 -1.26529 4.29761 0
M  V30 17572 C 1606.31 -2.75196 3.23214 0
M  V30 17573 C 1604.22 -2.16243 5.50448 0
M  V30 17574 H 1603.15 -0.415935 0.628899 0
M  V30 17575 H 1605.8 -0.365145 1.7983 0
M  V30 17576 H 1604.18 -2.78872 2.81152 0
M  V30 17577 H 1605.36 -0.5394 4.57632 0
M  V30 17578 H 1603.67 -0.644181 4.11387 0
M  V30 17579 H 1606.27 -3.42548 4.10567 0
M  V30 17580 H 1606.61 -3.40629 2.39327 0
M  V30 17581 H 1607.15 -2.04635 3.4113 0
M  V30 17582 H 1603.89 -1.55385 6.36817 0
M  V30 17583 H 1603.41 -2.86678 5.26855 0
M  V30 17584 H 1605.08 -2.75774 5.85284 0
M  V30 17585 N 1605.22 -1.44709 -0.62426 0
M  V30 17586 C 1606.47 -1.47131 -1.37968 0
M  V30 17587 C 1606.78 -0.110507 -1.95288 0
M  V30 17588 O 1607.98 -0.0122892 -2.71497 0
M  V30 17589 C 1606.44 -2.59059 -2.49833 0
M  V30 17590 C 1606.05 -4.01378 -1.98997 0
M  V30 17591 C 1607.79 -2.70709 -3.26981 0
M  V30 17592 C 1605.7 -5.04717 -3.08244 0
M  V30 17593 H 1604.63 -0.547424 -0.5185 0
M  V30 17594 H 1607.28 -1.70797 -0.670863 0
M  V30 17595 H 1605.66 -2.28646 -3.23322 0
M  V30 17596 H 1606.84 -4.41391 -1.32327 0
M  V30 17597 H 1605.15 -3.9403 -1.34644 0
M  V30 17598 H 1607.75 -3.45087 -4.08435 0
M  V30 17599 H 1608.09 -1.76763 -3.76909 0
M  V30 17600 H 1608.62 -3.00566 -2.60585 0
M  V30 17601 H 1605.36 -6.00315 -2.63253 0
M  V30 17602 H 1604.88 -4.6929 -3.73534 0
M  V30 17603 H 1606.56 -5.28725 -3.72906 0
M  V30 17604 N 1606.69 0.865285 -1.31722 0
M  V30 17605 C 1607.63 1.97629 -1.14097 0
M  V30 17606 C 1608.61 1.62543 -0.0432185 0
M  V30 17607 O 1609.79 1.8743 -0.200528 0
M  V30 17608 C 1606.92 3.30419 -0.744374 0
M  V30 17609 C 1605.96 3.84488 -1.84584 0
M  V30 17610 S 1606.8 4.09372 -3.45217 0
M  V30 17611 C 1607.95 5.45153 -3.07505 0
M  V30 17612 H 1608.18 2.12276 -2.08149 0
M  V30 17613 H 1605.72 1.01601 -1.1626 0
M  V30 17614 H 1607.68 4.07164 -0.522308 0
M  V30 17615 H 1606.34 3.136 0.177113 0
M  V30 17616 H 1605.53 4.80499 -1.52108 0
M  V30 17617 H 1605.13 3.14551 -2.02321 0
M  V30 17618 H 1607.42 6.2699 -2.56689 0
M  V30 17619 H 1608.37 5.82582 -4.02497 0
M  V30 17620 H 1608.77 5.0865 -2.44817 0
M  V30 17621 N 1608.17 1.14759 1.0802 0
M  V30 17622 C 1609.42 0.919609 1.80751 0
M  V30 17623 C 1609.75 -0.552268 1.86182 0
M  V30 17624 O 1609.03 -1.40922 1.34057 0
M  V30 17625 C 1609.31 1.52611 3.26162 0
M  V30 17626 C 1609.16 3.06811 3.28918 0
M  V30 17627 C 1610.48 1.20625 4.23246 0
M  V30 17628 H 1607.6 0.33551 0.656203 0
M  V30 17629 H 1610.24 1.41816 1.26444 0
M  V30 17630 H 1608.39 1.10213 3.72539 0
M  V30 17631 H 1610.06 3.58068 2.90835 0
M  V30 17632 H 1608.31 3.41055 2.68075 0
M  V30 17633 H 1608.98 3.44357 4.31419 0
M  V30 17634 H 1611.45 1.57287 3.85227 0
M  V30 17635 H 1610.33 1.65689 5.23296 0
M  V30 17636 H 1610.59 0.122177 4.41931 0
M  V30 17637 N 1609.65 -1.26251 0.943322 0
M  V30 17638 C 1610.6 -2.28295 0.445441 0
M  V30 17639 C 1611.59 -1.62504 -0.478401 0
M  V30 17640 O 1612.8 -1.76437 -0.356378 0
M  V30 17641 H 1609.17 -0.741451 0.125517 0
M  V30 17642 H 1611.14 -2.67687 1.31858 0
M  V30 17643 C 1609.89 -3.46635 -0.271987 0
M  V30 17644 H 1609.22 -3.97484 0.429734 0
M  V30 17645 H 1610.66 -4.19951 -0.584544 0
M  V30 17646 C 1609.12 -3.02133 -1.49054 0
M  V30 17647 O 1609.65 -3.07158 -2.58876 0
M  V30 17648 N 1607.85 -2.57451 -1.34787 0
M  V30 17649 H 1607.4 -2.53562 -0.454347 0
M  V30 17650 H 1607.36 -2.28039 -2.16438 0
M  V30 17651 N 1611.13 -0.710588 -1.40671 0
M  V30 17652 C 1612.06 -0.0694601 -2.33397 0
M  V30 17653 C 1613.04 0.750959 -1.52626 0
M  V30 17654 O 1614.23 0.700896 -1.81111 0
M  V30 17655 C 1611.36 0.856704 -3.36568 0
M  V30 17656 C 1610.31 0.142276 -4.27763 0
M  V30 17657 C 1609.64 1.18382 -5.21431 0
M  V30 17658 C 1610.94 -1.00052 -5.12627 0
M  V30 17659 H 1612.63 -0.843945 -2.87259 0
M  V30 17660 H 1610.18 -0.407287 -1.3812 0
M  V30 17661 H 1612.13 1.31457 -4.00371 0
M  V30 17662 H 1610.85 1.66303 -2.81089 0
M  V30 17663 H 1609.51 -0.295714 -3.65405 0
M  V30 17664 H 1609.16 1.98306 -4.62259 0
M  V30 17665 H 1608.86 0.71071 -5.83286 0
M  V30 17666 H 1610.38 1.64189 -5.88111 0
M  V30 17667 H 1611.8 -0.622246 -5.69913 0
M  V30 17668 H 1610.19 -1.40168 -5.83501 0
M  V30 17669 H 1611.26 -1.83345 -4.48902 0
M  V30 17670 N 1612.61 1.50847 -0.456408 0
M  V30 17671 C 1613.54 2.31077 0.335523 0
M  V30 17672 C 1614.52 1.37326 1.00377 0
M  V30 17673 O 1615.7 1.66247 1.00376 0
M  V30 17674 C 1612.83 3.16662 1.42627 0
M  V30 17675 C 1611.79 4.18846 0.88045 0
M  V30 17676 C 1611.11 4.93074 2.06838 0
M  V30 17677 C 1612.41 5.22208 -0.0982288 0
M  V30 17678 H 1614.11 2.97531 -0.334056 0
M  V30 17679 H 1611.65 1.43085 -0.162099 0
M  V30 17680 H 1613.61 3.71578 1.98765 0
M  V30 17681 H 1612.33 2.48066 2.12441 0
M  V30 17682 H 1610.99 3.65009 0.341147 0
M  V30 17683 H 1610.64 4.20963 2.75316 0
M  V30 17684 H 1610.34 5.62184 1.70947 0
M  V30 17685 H 1611.86 5.5082 2.63494 0
M  V30 17686 H 1613.28 5.72082 0.373481 0
M  V30 17687 H 1611.67 5.98954 -0.370674 0
M  V30 17688 H 1612.74 4.73859 -1.02887 0
M  V30 17689 N 1614.09 0.188454 1.56469 0
M  V30 17690 C 1615.33 -0.452238 1.96565 0
M  V30 17691 C 1615.65 -1.63219 1.07792 0
M  V30 17692 O 1616.85 -2.34024 1.37641 0
M  V30 17693 C 1615.31 -0.855966 3.49573 0
M  V30 17694 C 1614.92 0.299329 4.46999 0
M  V30 17695 C 1616.66 -1.46411 3.98452 0
M  V30 17696 C 1614.57 -0.124987 5.91268 0
M  V30 17697 H 1613.5 -0.172729 0.733949 0
M  V30 17698 H 1616.15 0.279415 1.8136 0
M  V30 17699 H 1614.53 -1.64409 3.60258 0
M  V30 17700 H 1615.71 1.07681 4.48042 0
M  V30 17701 H 1614.02 0.818542 4.08275 0
M  V30 17702 H 1616.62 -1.79392 5.03709 0
M  V30 17703 H 1616.96 -2.36822 3.42376 0
M  V30 17704 H 1617.49 -0.740088 3.90855 0
M  V30 17705 H 1614.23 0.744769 6.51255 0
M  V30 17706 H 1613.75 -0.86747 5.93494 0
M  V30 17707 H 1615.43 -0.563054 6.44545 0
M  V30 17708 N 1615.56 -1.5737 -0.0851874 0
M  V30 17709 C 1616.53 -2.01789 -1.08692 0
M  V30 17710 C 1617.53 -0.912872 -1.32376 0
M  V30 17711 O 1618.72 -1.1781 -1.28322 0
M  V30 17712 C 1615.85 -2.38708 -2.43375 0
M  V30 17713 H 1617.04 -2.91511 -0.704359 0
M  V30 17714 H 1614.59 -1.52765 -0.330528 0
M  V30 17715 H 1615.33 -1.5197 -2.86488 0
M  V30 17716 H 1615.11 -3.19331 -2.2753 0
M  V30 17717 H 1616.6 -2.73697 -3.15404 0
M  V30 17718 N 1617.04 0.356258 -1.53521 0
M  V30 17719 C 1618.29 1.0979 -1.70154 0
M  V30 17720 C 1618.62 1.89028 -0.458124 0
M  V30 17721 O 1617.87 1.87516 0.560033 0
M  V30 17722 C 1618.17 2.07669 -2.90875 0
M  V30 17723 C 1617.84 1.4484 -4.27004 0
M  V30 17724 C 1616.5 1.27434 -4.64019 0
M  V30 17725 C 1618.85 0.994684 -5.1162 0
M  V30 17726 C 1616.18 0.632539 -5.8328 0
M  V30 17727 C 1618.53 0.366847 -6.31535 0
M  V30 17728 C 1617.19 0.180356 -6.67256 0
M  V30 17729 H 1616.46 0.401751 -0.622637 0
M  V30 17730 H 1619.11 0.378618 -1.8772 0
M  V30 17731 H 1617.42 2.85934 -2.6786 0
M  V30 17732 H 1619.11 2.65023 -3.00939 0
M  V30 17733 H 1615.7 1.59384 -3.97863 0
M  V30 17734 H 1619.89 1.11706 -4.83565 0
M  V30 17735 H 1615.14 0.476548 -6.0954 0
M  V30 17736 H 1619.32 0.00712378 -6.964 0
M  V30 17737 H 1616.94 -0.319016 -7.5953 0
M  V30 17738 N 1618.52 1.45038 0.616577 0
M  V30 17739 C 1619.77 1.48585 1.37582 0
M  V30 17740 C 1620.09 0.124065 1.94104 0
M  V30 17741 O 1619.35 -0.876112 1.74994 0
M  V30 17742 C 1619.65 2.50545 2.54876 0
M  V30 17743 C 1619.31 3.95493 2.16555 0
M  V30 17744 C 1617.98 4.34963 2.05818 0
M  V30 17745 C 1620.33 4.86685 1.86512 0
M  V30 17746 C 1617.66 5.63531 1.63246 0
M  V30 17747 C 1620.01 6.15657 1.4543 0
M  V30 17748 C 1618.67 6.54066 1.33244 0
M  V30 17749 H 1617.94 0.543711 0.503447 0
M  V30 17750 H 1620.59 1.78334 0.697787 0
M  V30 17751 H 1618.89 2.14332 3.27977 0
M  V30 17752 H 1620.59 2.50531 3.13106 0
M  V30 17753 H 1617.18 3.64275 2.25836 0
M  V30 17754 H 1621.37 4.56936 1.9371 0
M  V30 17755 H 1616.62 5.92094 1.52427 0
M  V30 17756 H 1620.8 6.85768 1.21226 0
M  V30 17757 H 1618.42 7.5359 1.0003 0
M  V30 17758 N 1620 -0.858287 1.32179 0
M  V30 17759 C 1620.95 -1.98796 1.2076 0
M  V30 17760 C 1621.94 -1.69021 0.11322 0
M  V30 17761 O 1623.15 -1.77873 0.275903 0
M  V30 17762 H 1619.52 -0.652269 0.374232 0
M  V30 17763 H 1621.49 -2.05555 2.1631 0
M  V30 17764 C 1620.24 -3.34646 0.943787 0
M  V30 17765 H 1619.56 -3.58084 1.77808 0
M  V30 17766 H 1621 -4.14248 0.904121 0
M  V30 17767 C 1619.46 -3.35041 -0.353477 0
M  V30 17768 O 1619.99 -3.77742 -1.36652 0
M  V30 17769 N 1618.2 -2.88181 -0.374164 0
M  V30 17770 H 1617.75 -2.53626 0.45075 0
M  V30 17771 H 1617.7 -2.88828 -1.24201 0
M  V30 17772 N 1621.48 -1.1533 -1.07409 0
M  V30 17773 C 1622.42 -0.845328 -2.16696 0
M  V30 17774 C 1623.42 0.181009 -1.6843 0
M  V30 17775 O 1624.62 0.0361013 -1.79964 0
M  V30 17776 H 1621 -0.255698 -0.707193 0
M  V30 17777 H 1622.97 -1.7747 -2.39889 0
M  V30 17778 C 1621.72 -0.350381 -3.4593 0
M  V30 17779 H 1621.04 -1.13152 -3.83454 0
M  V30 17780 H 1622.48 -0.173547 -4.23645 0
M  V30 17781 C 1620.94 0.927991 -3.23867 0
M  V30 17782 O 1621.47 1.99965 -3.48392 0
M  V30 17783 N 1619.68 0.867266 -2.77357 0
M  V30 17784 H 1619.22 -0.00500352 -2.576 0
M  V30 17785 H 1619.18 1.72314 -2.62974 0
M  V30 17786 N 1622.95 1.25748 -0.950004 0
M  V30 17787 C 1624.2 1.93622 -0.603186 0
M  V30 17788 C 1624.53 1.74271 0.856925 0
M  V30 17789 O 1623.81 1.08502 1.61423 0
M  V30 17790 C 1624.09 3.4715 -0.957024 0
M  V30 17791 C 1623.94 3.75747 -2.47253 0
M  V30 17792 C 1625.26 4.37488 -0.478754 0
M  V30 17793 H 1622.38 0.703206 -0.220612 0
M  V30 17794 H 1625.02 1.48453 -1.18582 0
M  V30 17795 H 1623.17 3.85753 -0.46122 0
M  V30 17796 H 1624.85 3.46808 -3.04174 0
M  V30 17797 H 1623.09 3.21516 -2.91222 0
M  V30 17798 H 1623.76 4.83097 -2.67061 0
M  V30 17799 H 1626.24 4.06162 -0.903987 0
M  V30 17800 H 1625.11 5.43682 -0.755073 0
M  V30 17801 H 1625.37 4.37712 0.621303 0
M  V30 17802 N 1624.43 0.718038 1.40292 0
M  V30 17803 C 1625.66 0.267937 2.04855 0
M  V30 17804 C 1626.07 -1.09615 1.54211 0
M  V30 17805 O 1625.41 -1.70055 0.694754 0
M  V30 17806 C 1625.47 0.172691 3.59085 0
M  V30 17807 C 1625.14 1.47246 4.32629 0
M  V30 17808 C 1626.14 2.41487 4.60413 0
M  V30 17809 C 1623.82 1.73207 4.71492 0
M  V30 17810 C 1625.81 3.59932 5.26049 0
M  V30 17811 C 1623.5 2.91933 5.3686 0
M  V30 17812 C 1624.5 3.85118 5.64068 0
M  V30 17813 O 1624.19 5.01762 6.28085 0
M  V30 17814 H 1623.92 0.117734 0.665669 0
M  V30 17815 H 1626.47 0.977621 1.80643 0
M  V30 17816 H 1624.7 -0.592957 3.82127 0
M  V30 17817 H 1626.39 -0.243171 4.05171 0
M  V30 17818 H 1627.16 2.22695 4.3085 0
M  V30 17819 H 1623.04 1.01528 4.49681 0
M  V30 17820 H 1626.58 4.32683 5.47203 0
M  V30 17821 H 1622.48 3.10633 5.65842 0
M  V30 17822 H 1623.25 5.01872 6.46581 0
M  V30 17823 N 1625.91 -1.50602 0.464402 0
M  V30 17824 C 1626.84 -2.31252 -0.323263 0
M  V30 17825 C 1627.82 -1.37856 -0.996476 0
M  V30 17826 O 1629.01 -1.66777 -0.994933 0
M  V30 17827 C 1626.14 -3.17414 -1.40945 0
M  V30 17828 C 1625.09 -4.19307 -0.858226 0
M  V30 17829 C 1624.42 -4.94164 -2.0422 0
M  V30 17830 C 1625.72 -5.22148 0.125921 0
M  V30 17831 H 1627.41 -2.97349 0.34983 0
M  V30 17832 H 1624.96 -1.42997 0.169685 0
M  V30 17833 H 1626.91 -3.72627 -1.96791 0
M  V30 17834 H 1625.63 -2.49189 -2.11122 0
M  V30 17835 H 1624.29 -3.65185 -0.321785 0
M  V30 17836 H 1623.94 -4.22417 -2.7308 0
M  V30 17837 H 1623.64 -5.63083 -1.67963 0
M  V30 17838 H 1625.16 -5.5221 -2.60569 0
M  V30 17839 H 1626.58 -5.72272 -0.343136 0
M  V30 17840 H 1624.98 -5.98749 0.402433 0
M  V30 17841 H 1626.05 -4.73307 1.05399 0
M  V30 17842 N 1627.39 -0.19675 -1.56367 0
M  V30 17843 C 1628.32 0.75534 -2.16396 0
M  V30 17844 C 1629.33 1.17558 -1.12623 0
M  V30 17845 O 1630.52 1.11102 -1.39709 0
M  V30 17846 C 1627.62 2.03159 -2.71256 0
M  V30 17847 C 1626.8 1.77088 -3.99948 0
M  V30 17848 C 1625.85 2.89176 -4.39618 0
M  V30 17849 O 1624.88 2.58712 -5.07007 0
M  V30 17850 N 1626.08 4.17569 -4.03257 0
M  V30 17851 H 1628.85 0.241991 -2.98721 0
M  V30 17852 H 1626.41 -0.0148423 -1.61893 0
M  V30 17853 H 1628.4 2.77287 -2.94778 0
M  V30 17854 H 1626.97 2.45611 -1.93375 0
M  V30 17855 H 1626.19 0.867309 -3.84541 0
M  V30 17856 H 1627.48 1.5707 -4.83949 0
M  V30 17857 H 1626.88 4.45171 -3.49054 0
M  V30 17858 H 1625.43 4.88319 -4.31726 0
M  V30 17859 N 1628.87 1.57413 0.0768405 0
M  V30 17860 C 1630.11 1.87279 0.778099 0
M  V30 17861 C 1630.45 0.788359 1.77478 0
M  V30 17862 O 1629.72 -0.201876 1.9345 0
M  V30 17863 C 1630 3.27801 1.49059 0
M  V30 17864 C 1629.86 4.46892 0.510661 0
M  V30 17865 C 1631.18 3.66485 2.43674 0
M  V30 17866 H 1628.29 0.681159 0.281409 0
M  V30 17867 H 1630.94 1.89955 0.0413711 0
M  V30 17868 H 1629.09 3.2565 2.11859 0
M  V30 17869 H 1630.76 4.61165 -0.111734 0
M  V30 17870 H 1629 4.33449 -0.174445 0
M  V30 17871 H 1629.67 5.41985 1.04671 0
M  V30 17872 H 1632.15 3.69696 1.90955 0
M  V30 17873 H 1631.02 4.65706 2.90533 0
M  V30 17874 H 1631.29 2.96145 3.28254 0
M  V30 17875 N 1630.34 -0.348112 1.53707 0
M  V30 17876 C 1631.29 -1.42729 1.81375 0
M  V30 17877 C 1632.26 -1.52461 0.659159 0
M  V30 17878 O 1633.45 -1.68072 0.903129 0
M  V30 17879 C 1630.59 -2.79443 2.02498 0
M  V30 17880 C 1629.7 -2.7854 3.30211 0
M  V30 17881 C 1628.83 -4.06942 3.41426 0
M  V30 17882 C 1627.87 -4.00248 4.63106 0
M  V30 17883 N 1627.01 -5.20332 4.7138 0
M  V30 17884 H 1631.85 -1.18436 2.73454 0
M  V30 17885 H 1629.39 -0.573809 1.35447 0
M  V30 17886 H 1631.35 -3.58888 2.12733 0
M  V30 17887 H 1629.98 -3.02099 1.13737 0
M  V30 17888 H 1629.03 -1.91227 3.28841 0
M  V30 17889 H 1630.34 -2.69471 4.19746 0
M  V30 17890 H 1629.49 -4.94808 3.51069 0
M  V30 17891 H 1628.23 -4.18786 2.49939 0
M  V30 17892 H 1627.24 -3.10767 4.53546 0
M  V30 17893 H 1628.46 -3.89991 5.55953 0
M  V30 17894 H 1626.41 -5.32729 3.828 0
M  V30 17895 H 1626.33 -5.13502 5.54844 0
M  V30 17896 H 1627.59 -6.09982 4.85326 0
M  V30 17897 N 1631.82 -1.45363 -0.608876 0
M  V30 17898 C 1632.79 -1.53551 -1.70161 0
M  V30 17899 C 1633.79 -0.415146 -1.55349 0
M  V30 17900 O 1634.98 -0.67858 -1.6044 0
M  V30 17901 C 1632.11 -1.43081 -3.0942 0
M  V30 17902 H 1633.3 -2.5091 -1.64268 0
M  V30 17903 H 1630.85 -1.32785 -0.824493 0
M  V30 17904 H 1631.59 -0.469016 -3.20891 0
M  V30 17905 H 1631.37 -2.24343 -3.21579 0
M  V30 17906 H 1632.86 -1.51841 -3.89017 0
M  V30 17907 N 1633.3 0.851265 -1.32632 0
M  V30 17908 C 1634.55 1.60057 -1.22738 0
M  V30 17909 C 1634.86 1.94485 0.208525 0
M  V30 17910 O 1636.07 2.68083 0.429361 0
M  V30 17911 C 1634.52 2.88634 -2.14985 0
M  V30 17912 C 1634.13 2.61617 -3.63676 0
M  V30 17913 C 1635.88 3.6665 -2.13935 0
M  V30 17914 C 1633.78 3.86215 -4.47875 0
M  V30 17915 H 1632.71 0.600617 -0.455824 0
M  V30 17916 H 1635.36 0.939671 -1.57615 0
M  V30 17917 H 1633.75 3.56199 -1.73027 0
M  V30 17918 H 1634.92 2.02342 -4.13998 0
M  V30 17919 H 1633.24 1.96926 -3.66891 0
M  V30 17920 H 1635.83 4.59114 -2.74078 0
M  V30 17921 H 1636.18 4.00636 -1.13121 0
M  V30 17922 H 1636.71 3.05993 -2.54192 0
M  V30 17923 H 1633.45 3.57367 -5.49517 0
M  V30 17924 H 1632.97 4.44874 -4.02302 0
M  V30 17925 H 1634.65 4.5392 -4.61049 0
M  V30 17926 N 1634.78 1.15898 1.06796 0
M  V30 17927 C 1636 0.961859 1.83747 0
M  V30 17928 C 1636.43 -0.48494 1.81741 0
M  V30 17929 O 1635.79 -1.3461 1.21449 0
M  V30 17930 C 1635.83 1.48764 3.28484 0
M  V30 17931 O 1634.94 0.690576 4.06577 0
M  V30 17932 H 1634.28 0.342664 0.568751 0
M  V30 17933 H 1636.81 1.54015 1.34687 0
M  V30 17934 H 1636.82 1.50291 3.79311 0
M  V30 17935 H 1635.49 2.54089 3.29259 0
M  V30 17936 H 1634.07 0.74539 3.65374 0
M  V30 17937 N 1636.26 -1.25243 0.956659 0
M  V30 17938 C 1637.2 -2.2781 0.46963 0
M  V30 17939 C 1638.2 -1.63003 -0.461138 0
M  V30 17940 O 1639.4 -1.76805 -0.337644 0
M  V30 17941 H 1635.78 -0.740078 0.133374 0
M  V30 17942 H 1637.75 -2.66273 1.34689 0
M  V30 17943 C 1636.5 -3.46904 -0.235206 0
M  V30 17944 H 1635.82 -3.97006 0.471869 0
M  V30 17945 H 1637.26 -4.20548 -0.539969 0
M  V30 17946 C 1635.72 -3.03697 -1.45841 0
M  V30 17947 O 1636.25 -3.09887 -2.55603 0
M  V30 17948 N 1634.46 -2.58866 -1.32049 0
M  V30 17949 H 1634 -2.54029 -0.427428 0
M  V30 17950 H 1633.96 -2.30322 -2.14008 0
M  V30 17951 N 1637.73 -0.725468 -1.3991 0
M  V30 17952 C 1638.98 -0.266188 -1.99936 0
M  V30 17953 C 1639.3 1.15022 -1.58207 0
M  V30 17954 O 1640.5 1.70853 -2.11001 0
M  V30 17955 C 1638.96 -0.424978 -3.57382 0
M  V30 17956 C 1638.57 -1.84866 -4.08079 0
M  V30 17957 C 1640.31 -0.0269907 -4.24491 0
M  V30 17958 C 1638.22 -1.95751 -5.58064 0
M  V30 17959 H 1637.15 -0.0957688 -0.747893 0
M  V30 17960 H 1639.8 -0.89798 -1.60027 0
M  V30 17961 H 1638.18 0.275558 -3.9504 0
M  V30 17962 H 1639.35 -2.58037 -3.81776 0
M  V30 17963 H 1637.67 -2.199 -3.536 0
M  V30 17964 H 1640.27 -0.0874638 -5.34628 0
M  V30 17965 H 1640.61 1.01639 -4.03702 0
M  V30 17966 H 1641.14 -0.678332 -3.91974 0
M  V30 17967 H 1637.88 -2.98244 -5.83721 0
M  V30 17968 H 1637.4 -1.27004 -5.862 0
M  V30 17969 H 1639.08 -1.73422 -6.23325 0
M  V30 17970 N 1639.21 1.50354 -0.472382 0
M  V30 17971 C 1640.46 2.02633 0.0822846 0
M  V30 17972 C 1640.79 1.35358 1.39254 0
M  V30 17973 O 1640.07 0.479714 1.88491 0
M  V30 17974 C 1640.35 3.59126 0.264742 0
M  V30 17975 C 1640.2 4.3697 -1.06663 0
M  V30 17976 C 1641.52 4.28148 1.01869 0
M  V30 17977 H 1638.64 0.736451 0.0284304 0
M  V30 17978 H 1641.28 1.79661 -0.618224 0
M  V30 17979 H 1639.43 3.7883 0.86141 0
M  V30 17980 H 1641.1 4.28834 -1.69997 0
M  V30 17981 H 1639.35 4.0066 -1.66295 0
M  V30 17982 H 1640.02 5.44736 -0.892592 0
M  V30 17983 H 1642.49 4.12926 0.512931 0
M  V30 17984 H 1641.37 5.37453 1.11515 0
M  V30 17985 H 1641.63 3.91406 2.05557 0
M  V30 17986 N 1640.69 0.205039 1.56261 0
M  V30 17987 C 1641.94 -0.42506 1.98909 0
M  V30 17988 C 1642.29 -1.58548 1.08997 0
M  V30 17989 O 1641.59 -1.91114 0.136433 0
M  V30 17990 C 1641.78 -0.924086 3.45247 0
M  V30 17991 C 1641.61 0.186441 4.49313 0
M  V30 17992 C 1640.38 0.647379 5.01136 0
M  V30 17993 C 1642.58 0.998917 5.04506 0
M  V30 17994 N 1640.56 1.73469 5.88882 0
M  V30 17995 C 1641.93 1.93542 5.89017 0
M  V30 17996 C 1643.98 1.04022 4.86913 0
M  V30 17997 C 1642.69 2.90982 6.57816 0
M  V30 17998 C 1644.71 2.00272 5.56458 0
M  V30 17999 C 1644.08 2.92664 6.40724 0
M  V30 18000 H 1640.17 -0.122679 0.772317 0
M  V30 18001 H 1642.76 0.31302 1.92167 0
M  V30 18002 H 1640.93 -1.63158 3.52469 0
M  V30 18003 H 1642.66 -1.52562 3.74842 0
M  V30 18004 H 1639.42 0.238929 4.72997 0
M  V30 18005 H 1639.84 2.27985 6.37457 0
M  V30 18006 H 1644.48 0.339864 4.21432 0
M  V30 18007 H 1642.2 3.61988 7.22489 0
M  V30 18008 H 1645.79 2.0412 5.44818 0
M  V30 18009 H 1644.67 3.65927 6.9359 0
M  V30 18010 N 1642.17 -1.57451 -0.0684915 0
M  V30 18011 C 1643.12 -2.03916 -1.08105 0
M  V30 18012 C 1644.09 -0.920418 -1.38266 0
M  V30 18013 O 1645.27 -1.18831 -1.49277 0
M  V30 18014 C 1642.41 -2.49075 -2.38863 0
M  V30 18015 C 1641.52 -3.74581 -2.15204 0
M  V30 18016 C 1640.66 -4.08509 -3.39549 0
M  V30 18017 C 1639.7 -5.27046 -3.11269 0
M  V30 18018 N 1638.84 -5.56597 -4.27954 0
M  V30 18019 H 1643.68 -2.90188 -0.677843 0
M  V30 18020 H 1641.21 -1.43507 -0.32313 0
M  V30 18021 H 1643.17 -2.7331 -3.1521 0
M  V30 18022 H 1641.8 -1.65776 -2.76981 0
M  V30 18023 H 1640.85 -3.57666 -1.29535 0
M  V30 18024 H 1642.16 -4.61065 -1.90317 0
M  V30 18025 H 1641.32 -4.33663 -4.24289 0
M  V30 18026 H 1640.06 -3.20599 -3.67515 0
M  V30 18027 H 1639.06 -5.01686 -2.24926 0
M  V30 18028 H 1640.29 -6.16577 -2.84622 0
M  V30 18029 H 1638.23 -4.71646 -4.55945 0
M  V30 18030 H 1638.15 -6.37506 -4.06352 0
M  V30 18031 H 1639.42 -5.86303 -5.13681 0
M  V30 18032 N 1643.65 0.339955 -1.5389 0
M  V30 18033 C 1644.88 1.09816 -1.74997 0
M  V30 18034 C 1645.29 1.82725 -0.490746 0
M  V30 18035 O 1644.63 1.75352 0.547467 0
M  V30 18036 C 1644.69 2.15388 -2.87834 0
M  V30 18037 C 1644.35 1.62022 -4.27315 0
M  V30 18038 C 1645.35 1.07064 -5.08757 0
M  V30 18039 C 1643.04 1.6676 -4.7381 0
M  V30 18040 C 1645.03 0.575529 -6.34796 0
M  V30 18041 C 1642.72 1.16861 -5.99822 0
M  V30 18042 C 1643.72 0.623505 -6.80148 0
M  V30 18043 O 1643.4 0.131966 -8.03792 0
M  V30 18044 H 1643.14 0.333199 -0.588179 0
M  V30 18045 H 1645.69 0.39682 -2.0153 0
M  V30 18046 H 1643.92 2.89091 -2.56834 0
M  V30 18047 H 1645.61 2.76801 -2.96877 0
M  V30 18048 H 1646.37 1.02723 -4.73997 0
M  V30 18049 H 1642.25 2.08129 -4.11343 0
M  V30 18050 H 1645.8 0.149389 -6.9744 0
M  V30 18051 H 1641.69 1.20904 -6.34076 0
M  V30 18052 H 1642.46 0.24892 -8.18121 0
M  V30 18053 N 1645.13 1.45684 0.601159 0
M  V30 18054 C 1646.06 1.50861 1.7255 0
M  V30 18055 C 1647.07 0.398728 1.57842 0
M  V30 18056 O 1648.26 0.66613 1.65605 0
M  V30 18057 C 1645.36 1.35535 3.10618 0
M  V30 18058 C 1644.53 2.60313 3.51505 0
M  V30 18059 C 1643.59 2.39451 4.68561 0
M  V30 18060 O 1642.62 3.13094 4.75353 0
M  V30 18061 N 1643.82 1.44426 5.62247 0
M  V30 18062 H 1646.58 2.47799 1.6857 0
M  V30 18063 H 1644.15 1.41505 0.786626 0
M  V30 18064 H 1646.14 1.19379 3.86692 0
M  V30 18065 H 1644.71 0.468492 3.09069 0
M  V30 18066 H 1643.93 2.9154 2.65327 0
M  V30 18067 H 1645.22 3.43242 3.75583 0
M  V30 18068 H 1644.61 0.836624 5.59479 0
M  V30 18069 H 1643.17 1.34239 6.37827 0
M  V30 18070 N 1646.6 -0.84422 1.33082 0
M  V30 18071 C 1648.02 -1.13406 1.12299 0
M  V30 18072 C 1648.22 -2.013 -0.0896529 0
M  V30 18073 O 1647.28 -2.40425 -0.771493 0
M  V30 18074 C 1648.59 -1.80132 2.40776 0
M  V30 18075 C 1650.14 -1.92721 2.46632 0
M  V30 18076 C 1650.61 -2.62863 3.75056 0
M  V30 18077 N 1652.1 -2.70379 3.76097 0
M  V30 18078 C 1652.84 -3.25328 4.72175 0
M  V30 18079 N 1652.33 -3.81005 5.78625 0
M  V30 18080 N 1654.13 -3.23529 4.59658 0
M  V30 18081 H 1646.28 -0.259126 2.10813 0
M  V30 18082 H 1648.54 -0.177459 0.931242 0
M  V30 18083 H 1648.25 -1.23007 3.29488 0
M  V30 18084 H 1648.12 -2.802 2.52523 0
M  V30 18085 H 1650.51 -2.49002 1.58373 0
M  V30 18086 H 1650.59 -0.916191 2.3883 0
M  V30 18087 H 1650.23 -2.07242 4.63695 0
M  V30 18088 H 1650.16 -3.64425 3.80134 0
M  V30 18089 H 1652.65 -2.30891 2.99162 0
M  V30 18090 H 1652.97 -4.21121 6.47979 0
M  V30 18091 H 1651.31 -3.79308 5.82366 0
M  V30 18092 H 1654.5 -2.79286 3.75656 0
M  V30 18093 H 1654.68 -3.66051 5.34706 0
M  V30 18094 N 1648.08 -1.16463 -1.0618 0
M  V30 18095 C 1649.31 -0.969667 -1.82431 0
M  V30 18096 C 1649.72 0.485393 -1.82868 0
M  V30 18097 O 1649.06 1.34868 -1.24725 0
M  V30 18098 C 1649.12 -1.42161 -3.30198 0
M  V30 18099 C 1648.79 -2.89679 -3.53461 0
M  V30 18100 C 1649.79 -3.87677 -3.46414 0
M  V30 18101 C 1647.47 -3.27625 -3.80745 0
M  V30 18102 C 1649.46 -5.21622 -3.66319 0
M  V30 18103 C 1647.15 -4.61739 -4.003 0
M  V30 18104 C 1648.15 -5.58546 -3.93084 0
M  V30 18105 O 1647.84 -6.90235 -4.12105 0
M  V30 18106 H 1647.57 -0.343808 -0.582041 0
M  V30 18107 H 1650.12 -1.54928 -1.34857 0
M  V30 18108 H 1648.35 -0.785486 -3.78638 0
M  V30 18109 H 1650.04 -1.19389 -3.87945 0
M  V30 18110 H 1650.81 -3.59707 -3.25324 0
M  V30 18111 H 1646.69 -2.52851 -3.85471 0
M  V30 18112 H 1650.23 -5.9717 -3.60602 0
M  V30 18113 H 1646.13 -4.89418 -4.2088 0
M  V30 18114 H 1646.9 -6.96828 -4.29387 0
M  V30 18115 N 1649.56 1.24734 -0.963288 0
M  V30 18116 C 1650.51 2.2329 -0.461019 0
M  V30 18117 C 1651.49 1.54346 0.454536 0
M  V30 18118 O 1652.69 1.74671 0.286177 0
M  V30 18119 C 1649.81 3.42376 0.251738 0
M  V30 18120 C 1648.9 4.18574 -0.682388 0
M  V30 18121 N 1649.29 4.72008 -1.81775 0
M  V30 18122 C 1647.59 4.43275 -0.492294 0
M  V30 18123 C 1648.29 5.29806 -2.40168 0
M  V30 18124 N 1647.27 5.16751 -1.68729 0
M  V30 18125 H 1651.07 2.62217 -1.32738 0
M  V30 18126 H 1648.58 1.4007 -0.821834 0
M  V30 18127 H 1650.58 4.12131 0.628756 0
M  V30 18128 H 1649.24 3.0497 1.11459 0
M  V30 18129 H 1650.25 4.68878 -2.1994 0
M  V30 18130 H 1646.93 4.16218 0.326963 0
M  V30 18131 H 1648.32 5.8188 -3.35954 0
M  V30 18132 N 1651.04 0.732878 1.39523 0
M  V30 18133 C 1652.28 0.279891 2.00556 0
M  V30 18134 C 1652.61 -1.13223 1.58148 0
M  V30 18135 O 1651.87 -1.78575 0.800591 0
M  V30 18136 C 1652.17 0.32714 3.559 0
M  V30 18137 C 1651.83 1.69198 4.17951 0
M  V30 18138 C 1650.49 2.06555 4.34613 0
M  V30 18139 C 1652.85 2.58821 4.52395 0
M  V30 18140 C 1650.17 3.33047 4.83008 0
M  V30 18141 C 1652.53 3.84682 5.02197 0
M  V30 18142 C 1651.19 4.22134 5.17068 0
M  V30 18143 H 1650.46 0.102419 0.733888 0
M  V30 18144 H 1653.11 0.939304 1.66881 0
M  V30 18145 H 1651.41 -0.415849 3.89587 0
M  V30 18146 H 1653.11 -0.0414564 4.00979 0
M  V30 18147 H 1649.7 1.39153 4.05382 0
M  V30 18148 H 1653.88 2.31231 4.39142 0
M  V30 18149 H 1649.14 3.6201 4.92706 0
M  V30 18150 H 1653.31 4.54286 5.27823 0
M  V30 18151 H 1650.94 5.20215 5.54329 0
M  V30 18152 N 1652.52 -1.50101 0.480349 0
M  V30 18153 C 1653.76 -2.01567 -0.073165 0
M  V30 18154 C 1654.08 -1.36657 -1.39944 0
M  V30 18155 O 1655.28 -1.79332 -2.03844 0
M  V30 18156 C 1653.74 -3.59445 -0.180889 0
M  V30 18157 C 1653.35 -4.33318 1.1375 0
M  V30 18158 C 1655.09 -4.18923 -0.685868 0
M  V30 18159 C 1653 -5.83003 0.99307 0
M  V30 18160 H 1651.93 -0.753358 -0.0311179 0
M  V30 18161 H 1654.58 -1.72829 0.616648 0
M  V30 18162 H 1652.96 -3.84811 -0.934693 0
M  V30 18163 H 1654.14 -4.1967 1.90299 0
M  V30 18164 H 1652.45 -3.85492 1.57431 0
M  V30 18165 H 1655.05 -5.28512 -0.811109 0
M  V30 18166 H 1655.39 -3.80916 -1.67955 0
M  V30 18167 H 1655.92 -3.97799 0.0108117 0
M  V30 18168 H 1652.66 -6.25499 1.9604 0
M  V30 18169 H 1652.18 -5.992 0.268128 0
M  V30 18170 H 1653.86 -6.4359 0.663417 0
M  V30 18171 N 1653.99 -0.213323 -1.5615 0
M  V30 18172 C 1654.93 0.739954 -2.1587 0
M  V30 18173 C 1655.9 1.19683 -1.10067 0
M  V30 18174 O 1657.09 1.28106 -1.38279 0
M  V30 18175 C 1654.22 2.00152 -2.73234 0
M  V30 18176 C 1653.26 1.68529 -3.91791 0
M  V30 18177 S 1654.09 0.817317 -5.29226 0
M  V30 18178 C 1655.25 2.08863 -5.90023 0
M  V30 18179 H 1655.48 0.232328 -2.96391 0
M  V30 18180 H 1653.02 0.00189263 -1.544 0
M  V30 18181 H 1654.97 2.72594 -3.06925 0
M  V30 18182 H 1653.64 2.48027 -1.92722 0
M  V30 18183 H 1652.83 2.62241 -4.30402 0
M  V30 18184 H 1652.43 1.04157 -3.59204 0
M  V30 18185 H 1654.72 3.03943 -6.05495 0
M  V30 18186 H 1655.67 1.74656 -6.86222 0
M  V30 18187 H 1656.07 2.22541 -5.18783 0
M  V30 18188 N 1655.47 1.57485 0.0601405 0
M  V30 18189 C 1656.44 2.03493 1.05467 0
M  V30 18190 C 1657.44 0.933816 1.30907 0
M  V30 18191 O 1658.63 1.19837 1.26431 0
M  V30 18192 C 1655.76 2.42549 2.39547 0
M  V30 18193 H 1656.95 2.92595 0.657893 0
M  V30 18194 H 1654.5 1.53272 0.306183 0
M  V30 18195 H 1655.24 1.56509 2.84034 0
M  V30 18196 H 1655.02 3.22911 2.22421 0
M  V30 18197 H 1656.51 2.7868 3.1101 0
M  V30 18198 N 1656.95 -0.331789 1.54068 0
M  V30 18199 C 1658.18 -1.08886 1.75577 0
M  V30 18200 C 1658.59 -1.82462 0.50043 0
M  V30 18201 O 1657.93 -1.7564 -0.53816 0
M  V30 18202 C 1657.99 -2.13858 2.88972 0
M  V30 18203 C 1657.66 -1.59754 4.28168 0
M  V30 18204 C 1658.65 -1.04365 5.09317 0
M  V30 18205 C 1656.34 -1.64245 4.74688 0
M  V30 18206 C 1658.33 -0.541856 6.35093 0
M  V30 18207 C 1656.02 -1.13679 6.00433 0
M  V30 18208 C 1657.02 -0.587426 6.80469 0
M  V30 18209 O 1656.71 -0.0893367 8.0385 0
M  V30 18210 H 1656.44 -0.330075 0.589938 0
M  V30 18211 H 1658.99 -0.386127 2.01738 0
M  V30 18212 H 1657.22 -2.87724 2.58363 0
M  V30 18213 H 1658.91 -2.75223 2.98341 0
M  V30 18214 H 1659.68 -1.00208 4.74535 0
M  V30 18215 H 1655.56 -2.05945 4.12441 0
M  V30 18216 H 1659.1 -0.1124 6.97509 0
M  V30 18217 H 1655 -1.1754 6.34708 0
M  V30 18218 H 1655.77 -0.205529 8.18242 0
M  V30 18219 N 1658.43 -1.46001 -0.593424 0
M  V30 18220 C 1659.38 -1.52172 -1.69787 0
M  V30 18221 C 1660.36 -0.383619 -1.5626 0
M  V30 18222 O 1661.55 -0.63137 -1.65356 0
M  V30 18223 C 1658.68 -1.50479 -3.08563 0
M  V30 18224 C 1657.77 -2.69543 -3.27425 0
M  V30 18225 N 1658.16 -3.94547 -3.1649 0
M  V30 18226 C 1656.46 -2.6554 -3.58336 0
M  V30 18227 C 1657.16 -4.74089 -3.37068 0
M  V30 18228 N 1656.14 -4.0578 -3.61723 0
M  V30 18229 H 1659.94 -2.4663 -1.59847 0
M  V30 18230 H 1657.45 -1.41491 -0.797129 0
M  V30 18231 H 1659.45 -1.52986 -3.87816 0
M  V30 18232 H 1658.11 -0.57089 -3.19642 0
M  V30 18233 H 1659.12 -4.25957 -2.94586 0
M  V30 18234 H 1655.8 -1.81124 -3.76165 0
M  V30 18235 H 1657.19 -5.83069 -3.33887 0
M  V30 18236 N 1659.91 0.83715 -1.33527 0
M  V30 18237 C 1660.82 1.97915 -1.25964 0
M  V30 18238 C 1661.83 1.73169 -0.169894 0
M  V30 18239 O 1663.01 1.97513 -0.393793 0
M  V30 18240 C 1660.07 3.31945 -1.00068 0
M  V30 18241 C 1659.13 3.69795 -2.1806 0
M  V30 18242 C 1658.37 4.97429 -1.9339 0
M  V30 18243 O 1658.59 5.63492 -0.885069 0
M  V30 18244 O 1657.52 5.32823 -2.79969 0
M  V30 18245 H 1661.35 2.07236 -2.22007 0
M  V30 18246 H 1658.94 0.970437 -1.13591 0
M  V30 18247 H 1660.82 4.12248 -0.873487 0
M  V30 18248 H 1659.49 3.23623 -0.0705475 0
M  V30 18249 H 1658.4 2.89995 -2.36334 0
M  V30 18250 H 1659.73 3.82784 -3.09414 0
M  V30 18251 N 1661.38 1.17024 1.05561 0
M  V30 18252 C 1662.33 0.88356 2.13218 0
M  V30 18253 C 1663.3 -0.171025 1.65217 0
M  V30 18254 O 1664.49 -0.0346242 1.90769 0
M  V30 18255 C 1661.63 0.398912 3.42787 0
M  V30 18256 C 1660.74 1.51718 4.04482 0
M  V30 18257 C 1659.87 0.986793 5.21954 0
M  V30 18258 C 1658.91 2.08077 5.75648 0
M  V30 18259 N 1658.05 1.56542 6.84426 0
M  V30 18260 H 1662.89 1.80548 2.37079 0
M  V30 18261 H 1660.43 0.90056 1.16311 0
M  V30 18262 H 1662.39 0.0995018 4.17081 0
M  V30 18263 H 1661.02 -0.48605 3.1912 0
M  V30 18264 H 1660.07 1.9324 3.27662 0
M  V30 18265 H 1661.38 2.34243 4.40377 0
M  V30 18266 H 1660.53 0.641006 6.03304 0
M  V30 18267 H 1659.27 0.130942 4.87524 0
M  V30 18268 H 1658.28 2.43517 4.9293 0
M  V30 18269 H 1659.5 2.94071 6.12127 0
M  V30 18270 H 1657.45 0.732221 6.51901 0
M  V30 18271 H 1657.37 2.32677 7.19303 0
M  V30 18272 H 1658.63 1.24844 7.69438 0
M  V30 18273 N 1662.86 -1.24221 0.969889 0
M  V30 18274 C 1664.27 -1.74206 0.671494 0
M  V30 18275 C 1664.62 -1.78576 -0.81271 0
M  V30 18276 O 1663.75 -1.41664 -1.63586 0
M  V30 18277 C 1664.34 -3.16371 1.21222 0
M  V30 18278 C 1662.9 -3.63855 0.96368 0
M  V30 18279 C 1662.05 -2.42429 1.34623 0
M  V30 18280 H 1665 -1.09893 1.14496 0
M  V30 18281 H 1665.02 -3.7606 0.579552 0
M  V30 18282 H 1664.53 -3.13159 2.29245 0
M  V30 18283 H 1662.64 -3.72463 -0.100931 0
M  V30 18284 H 1662.75 -4.51207 1.61087 0
M  V30 18285 H 1661.11 -2.42952 0.764624 0
M  V30 18286 H 1661.9 -2.41896 2.436 0
M  V30 18287 N 1664.34 -0.740267 -1.39132 0
M  V30 18288 C 1665.59 -0.290953 -2.00702 0
M  V30 18289 C 1665.92 1.12051 -1.58613 0
M  V30 18290 O 1665.19 1.76488 -0.817457 0
M  V30 18291 C 1665.48 -0.398765 -3.57885 0
M  V30 18292 C 1665.33 -1.85038 -4.09977 0
M  V30 18293 C 1666.65 0.215717 -4.39571 0
M  V30 18294 H 1663.77 -0.107194 -0.729163 0
M  V30 18295 H 1666.41 -0.937411 -1.65265 0
M  V30 18296 H 1664.56 0.151613 -3.88204 0
M  V30 18297 H 1666.23 -2.45804 -3.90357 0
M  V30 18298 H 1664.48 -2.36994 -3.63341 0
M  V30 18299 H 1665.15 -1.87705 -5.19106 0
M  V30 18300 H 1667.62 -0.253518 -4.15327 0
M  V30 18301 H 1666.5 0.109966 -5.4879 0
M  V30 18302 H 1666.76 1.30242 -4.2248 0
M  V30 18303 N 1665.82 1.49844 -0.488302 0
M  V30 18304 C 1666.75 2.31737 0.286432 0
M  V30 18305 C 1667.73 1.39424 0.974418 0
M  V30 18306 O 1668.91 1.68339 0.968274 0
M  V30 18307 C 1666.04 3.19616 1.35878 0
M  V30 18308 C 1665 4.20619 0.791409 0
M  V30 18309 C 1664.32 4.9735 1.96333 0
M  V30 18310 C 1665.62 5.21882 -0.208975 0
M  V30 18311 H 1667.32 2.96755 -0.397092 0
M  V30 18312 H 1664.86 1.42709 -0.192413 0
M  V30 18313 H 1666.82 3.75711 1.90838 0
M  V30 18314 H 1665.54 2.52516 2.07131 0
M  V30 18315 H 1664.2 3.65651 0.263647 0
M  V30 18316 H 1663.85 4.26708 2.66325 0
M  V30 18317 H 1663.55 5.65684 1.58983 0
M  V30 18318 H 1665.07 5.56286 2.51751 0
M  V30 18319 H 1666.49 5.72746 0.252049 0
M  V30 18320 H 1664.88 5.98033 -0.497638 0
M  V30 18321 H 1665.95 4.7157 -1.12916 0
M  V30 18322 N 1667.3 0.221601 1.56034 0
M  V30 18323 C 1668.71 -0.28624 1.84493 0
M  V30 18324 C 1669.06 -1.59469 1.14298 0
M  V30 18325 O 1668.18 -2.12429 0.412672 0
M  V30 18326 C 1668.78 -0.526128 3.3469 0
M  V30 18327 C 1667.34 -0.978278 3.63465 0
M  V30 18328 C 1666.48 -0.0413786 2.77269 0
M  V30 18329 H 1669.44 0.444792 1.52339 0
M  V30 18330 H 1669.46 -1.37212 3.54899 0
M  V30 18331 H 1668.97 0.426348 3.85751 0
M  V30 18332 H 1667.07 -1.94411 3.1786 0
M  V30 18333 H 1667.18 -0.852651 4.71452 0
M  V30 18334 H 1665.55 -0.548179 2.48731 0
M  V30 18335 H 1666.33 0.906016 3.31129 0
M  V30 18336 N 1668.77 -1.57515 -0.0517878 0
M  V30 18337 C 1670.19 -1.76755 -0.601218 0
M  V30 18338 C 1670.54 -0.849744 -1.76844 0
M  V30 18339 O 1669.66 -0.0387987 -2.16365 0
M  V30 18340 C 1670.26 -3.20534 -1.09743 0
M  V30 18341 C 1668.82 -3.41049 -1.59256 0
M  V30 18342 C 1667.96 -2.72369 -0.520618 0
M  V30 18343 H 1670.91 -1.57739 0.174429 0
M  V30 18344 H 1670.93 -3.25796 -1.96563 0
M  V30 18345 H 1670.45 -3.87309 -0.247696 0
M  V30 18346 H 1668.55 -2.79417 -2.46489 0
M  V30 18347 H 1668.66 -4.49581 -1.65572 0
M  V30 18348 H 1667.02 -2.3549 -0.97038 0
M  V30 18349 H 1667.81 -3.41812 0.319266 0
M  V30 18350 N 1670.25 0.323614 -1.54242 0
M  V30 18351 C 1671.66 0.898051 -1.63682 0
M  V30 18352 C 1672.02 1.88882 -0.530861 0
M  V30 18353 O 1671.14 2.13772 0.336245 0
M  V30 18354 C 1671.74 1.63561 -2.96704 0
M  V30 18355 C 1670.29 2.15877 -3.08341 0
M  V30 18356 C 1669.44 0.984145 -2.59249 0
M  V30 18357 H 1672.39 0.101198 -1.58377 0
M  V30 18358 H 1672.41 2.49982 -2.86861 0
M  V30 18359 H 1671.93 0.914265 -3.77177 0
M  V30 18360 H 1670.03 2.91127 -2.32542 0
M  V30 18361 H 1670.14 2.40881 -4.14141 0
M  V30 18362 H 1668.5 1.3633 -2.15143 0
M  V30 18363 H 1669.29 0.277118 -3.4218 0
M  V30 18364 N 1671.73 1.46313 0.585673 0
M  V30 18365 C 1672.66 1.59511 1.70524 0
M  V30 18366 C 1673.64 0.445578 1.6416 0
M  V30 18367 O 1674.83 0.671455 1.82223 0
M  V30 18368 C 1671.96 1.58229 3.09162 0
M  V30 18369 C 1670.91 2.72122 3.30354 0
M  V30 18370 C 1670.24 2.559 4.69489 0
M  V30 18371 C 1671.54 4.13969 3.18476 0
M  V30 18372 H 1673.23 2.53229 1.59735 0
M  V30 18373 H 1670.78 1.2187 0.767046 0
M  V30 18374 H 1672.73 1.66056 3.87303 0
M  V30 18375 H 1671.45 0.610535 3.20843 0
M  V30 18376 H 1670.11 2.63759 2.54611 0
M  V30 18377 H 1669.76 1.56814 4.77931 0
M  V30 18378 H 1669.46 3.32289 4.84621 0
M  V30 18379 H 1670.99 2.65613 5.49802 0
M  V30 18380 H 1672.4 4.23459 3.86465 0
M  V30 18381 H 1670.8 4.90922 3.45131 0
M  V30 18382 H 1671.87 4.34334 2.15598 0
M  V30 18383 N 1673.21 -0.830057 1.33969 0
M  V30 18384 C 1674.46 -1.58084 1.25269 0
M  V30 18385 C 1674.77 -1.94792 -0.177557 0
M  V30 18386 O 1675.98 -2.68733 -0.386657 0
M  V30 18387 C 1674.43 -2.85177 2.1955 0
M  V30 18388 C 1674.04 -2.55798 3.67792 0
M  V30 18389 C 1675.79 -3.632 2.19741 0
M  V30 18390 C 1673.69 -3.79041 4.53963 0
M  V30 18391 H 1672.62 -0.593289 0.465321 0
M  V30 18392 H 1675.27 -0.914476 1.5909 0
M  V30 18393 H 1673.66 -3.53401 1.78672 0
M  V30 18394 H 1674.83 -1.9573 4.17165 0
M  V30 18395 H 1673.14 -1.91064 3.69978 0
M  V30 18396 H 1675.74 -4.54695 2.81347 0
M  V30 18397 H 1676.08 -3.98786 1.1948 0
M  V30 18398 H 1676.62 -3.0191 2.59028 0
M  V30 18399 H 1673.36 -3.4858 5.55133 0
M  V30 18400 H 1672.88 -4.38417 4.09329 0
M  V30 18401 H 1674.56 -4.46527 4.68212 0
M  V30 18402 N 1674.69 -1.17582 -1.04939 0
M  V30 18403 C 1675.94 -0.960189 -1.77379 0
M  V30 18404 C 1676.25 0.512001 -1.8878 0
M  V30 18405 O 1677.46 0.845912 -2.57986 0
M  V30 18406 C 1675.91 -1.66882 -3.18871 0
M  V30 18407 C 1675.52 -3.17972 -3.15591 0
M  V30 18408 C 1677.26 -1.53567 -3.95749 0
M  V30 18409 C 1675.17 -3.81513 -4.51887 0
M  V30 18410 H 1674.1 -0.35562 -0.664869 0
M  V30 18411 H 1676.75 -1.40863 -1.17601 0
M  V30 18412 H 1675.13 -1.14813 -3.78991 0
M  V30 18413 H 1676.31 -3.76995 -2.64974 0
M  V30 18414 H 1674.62 -3.31328 -2.52212 0
M  V30 18415 H 1677.22 -1.98408 -4.96526 0
M  V30 18416 H 1677.56 -0.486603 -4.13446 0
M  V30 18417 H 1678.1 -2.02868 -3.42183 0
M  V30 18418 H 1674.83 -4.86428 -4.39395 0
M  V30 18419 H 1674.35 -3.27276 -5.02643 0
M  V30 18420 H 1676.03 -3.83867 -5.20822 0
M  V30 18421 N 1676.17 1.23705 -0.976463 0
M  V30 18422 C 1677.1 2.2734 -0.532809 0
M  V30 18423 C 1678.08 1.64523 0.432012 0
M  V30 18424 O 1679.26 1.9144 0.326233 0
M  V30 18425 C 1676.39 3.46887 0.169374 0
M  V30 18426 C 1675.35 4.22031 -0.712336 0
M  V30 18427 C 1674.67 5.34561 0.121838 0
M  V30 18428 C 1675.97 4.8244 -2.00123 0
M  V30 18429 H 1677.67 2.64702 -1.39904 0
M  V30 18430 H 1675.21 1.27244 -0.674156 0
M  V30 18431 H 1677.16 4.18529 0.491028 0
M  V30 18432 H 1675.89 3.08574 1.07002 0
M  V30 18433 H 1674.55 3.522 -1.01739 0
M  V30 18434 H 1674.2 4.92489 1.0229 0
M  V30 18435 H 1673.9 5.85758 -0.464962 0
M  V30 18436 H 1675.42 6.09027 0.437963 0
M  V30 18437 H 1676.83 5.46111 -1.7446 0
M  V30 18438 H 1675.23 5.43906 -2.53548 0
M  V30 18439 H 1676.3 4.03405 -2.69059 0
M  V30 18440 N 1677.64 0.747635 1.38738 0
M  V30 18441 C 1678.87 0.310484 2.05063 0
M  V30 18442 C 1679.29 -1.05078 1.56013 0
M  V30 18443 O 1678.65 -1.66842 0.709461 0
M  V30 18444 C 1678.7 0.335837 3.59033 0
M  V30 18445 O 1677.8 -0.672218 4.06884 0
M  V30 18446 H 1677.14 0.138591 0.649375 0
M  V30 18447 H 1679.67 1.01709 1.77529 0
M  V30 18448 H 1679.68 0.184631 4.07582 0
M  V30 18449 H 1678.36 1.32906 3.94092 0
M  V30 18450 H 1676.94 -0.486112 3.69718 0
M  V30 18451 N 1679.12 -1.49583 0.496242 0
M  V30 18452 C 1680.07 -2.25966 -0.303873 0
M  V30 18453 C 1681.06 -1.30609 -0.939693 0
M  V30 18454 O 1682.25 -1.5536 -0.848079 0
M  V30 18455 C 1679.38 -3.14755 -1.37055 0
M  V30 18456 C 1678.46 -4.17573 -0.741214 0
M  V30 18457 N 1678.85 -5.05567 0.153357 0
M  V30 18458 C 1677.15 -4.34591 -1.00234 0
M  V30 18459 C 1677.85 -5.79432 0.513115 0
M  V30 18460 N 1676.83 -5.43472 -0.117819 0
M  V30 18461 H 1680.63 -2.91369 0.384854 0
M  V30 18462 H 1678.14 -1.59375 0.312007 0
M  V30 18463 H 1680.14 -3.68104 -1.95717 0
M  V30 18464 H 1678.8 -2.50903 -2.06101 0
M  V30 18465 H 1679.81 -5.15244 0.523862 0
M  V30 18466 H 1676.49 -3.81947 -1.6859 0
M  V30 18467 H 1677.88 -6.60271 1.24468 0
M  V30 18468 N 1680.6 -0.229873 -1.55915 0
M  V30 18469 C 1681.85 0.399963 -1.97695 0
M  V30 18470 C 1682.16 1.60303 -1.12081 0
M  V30 18471 O 1683.37 2.30292 -1.43797 0
M  V30 18472 C 1681.82 0.762982 -3.51719 0
M  V30 18473 C 1681.43 -0.417738 -4.46048 0
M  V30 18474 C 1683.18 1.35796 -4.02194 0
M  V30 18475 C 1681.08 -0.0318216 -5.91391 0
M  V30 18476 H 1680.01 0.153209 -0.73827 0
M  V30 18477 H 1682.66 -0.327401 -1.80556 0
M  V30 18478 H 1681.05 1.548 -3.6449 0
M  V30 18479 H 1682.22 -1.19523 -4.45029 0
M  V30 18480 H 1680.53 -0.926501 -4.05962 0
M  V30 18481 H 1683.13 1.65974 -5.08288 0
M  V30 18482 H 1683.47 2.27661 -3.48534 0
M  V30 18483 H 1684.01 0.6362 -3.9268 0
M  V30 18484 H 1680.75 -0.917176 -6.49052 0
M  V30 18485 H 1680.27 0.709811 -5.95585 0
M  V30 18486 H 1681.95 0.391966 -6.45812 0
M  V30 18487 N 1682.08 1.5754 0.0434337 0
M  V30 18488 C 1683.32 1.88887 0.7382 0
M  V30 18489 C 1683.66 0.825827 1.75766 0
M  V30 18490 O 1682.93 -0.160797 1.93834 0
M  V30 18491 C 1683.21 3.30889 1.42072 0
M  V30 18492 C 1683.07 4.47874 0.415754 0
M  V30 18493 C 1684.39 3.71571 2.35846 0
M  V30 18494 H 1681.51 0.686975 0.266897 0
M  V30 18495 H 1684.15 1.9 0.00106957 0
M  V30 18496 H 1682.3 3.30071 2.04903 0
M  V30 18497 H 1683.97 4.60824 -0.209529 0
M  V30 18498 H 1682.21 4.32982 -0.266346 0
M  V30 18499 H 1682.88 5.44084 0.931509 0
M  V30 18500 H 1685.36 3.73663 1.83071 0
M  V30 18501 H 1684.24 4.71763 2.80589 0
M  V30 18502 H 1684.5 3.03041 3.21898 0
M  V30 18503 N 1683.56 -0.31543 1.54411 0
M  V30 18504 C 1684.78 -1.0761 1.77299 0
M  V30 18505 C 1685.21 -1.80655 0.523963 0
M  V30 18506 O 1684.56 -1.73536 -0.524874 0
M  V30 18507 C 1684.61 -2.04355 2.97105 0
M  V30 18508 O 1683.72 -3.12401 2.69219 0
M  V30 18509 H 1683.06 -0.30986 0.587267 0
M  V30 18510 H 1685.59 -0.357246 2.01457 0
M  V30 18511 H 1685.6 -2.47081 3.24677 0
M  V30 18512 H 1684.27 -1.50592 3.87679 0
M  V30 18513 H 1682.85 -2.74294 2.52621 0
M  V30 18514 N 1685.03 -1.46622 -0.577906 0
M  V30 18515 C 1685.96 -1.60413 -1.69676 0
M  V30 18516 C 1686.95 -0.454277 -1.63922 0
M  V30 18517 O 1688.13 -0.68111 -1.81864 0
M  V30 18518 C 1685.26 -1.59866 -3.08318 0
M  V30 18519 C 1684.21 -2.7387 -3.28906 0
M  V30 18520 C 1683.54 -2.58386 -4.68125 0
M  V30 18521 C 1684.84 -4.15652 -3.16276 0
M  V30 18522 H 1686.53 -2.54073 -1.5839 0
M  V30 18523 H 1684.08 -1.22275 -0.760572 0
M  V30 18524 H 1686.03 -1.68108 -3.86417 0
M  V30 18525 H 1684.76 -0.627541 -3.20514 0
M  V30 18526 H 1683.42 -2.65105 -2.53209 0
M  V30 18527 H 1683.06 -1.59347 -4.77093 0
M  V30 18528 H 1682.76 -3.34855 -4.82852 0
M  V30 18529 H 1684.29 -2.68525 -5.48385 0
M  V30 18530 H 1685.7 -4.25503 -3.84214 0
M  V30 18531 H 1684.1 -4.92746 -3.42523 0
M  V30 18532 H 1685.17 -4.35471 -2.13291 0
M  V30 18533 N 1686.51 0.822941 -1.34408 0
M  V30 18534 C 1687.76 1.57916 -1.26763 0
M  V30 18535 C 1688.09 1.93821 0.162408 0
M  V30 18536 O 1687.34 1.60226 1.12366 0
M  V30 18537 C 1687.64 2.88915 -2.10388 0
M  V30 18538 C 1687.31 2.72302 -3.59392 0
M  V30 18539 C 1685.97 2.67479 -4.00011 0
M  V30 18540 C 1688.32 2.5598 -4.54008 0
M  V30 18541 C 1685.65 2.44255 -5.33438 0
M  V30 18542 C 1688 2.34288 -5.87615 0
M  V30 18543 C 1686.67 2.27877 -6.27398 0
M  V30 18544 H 1685.94 0.577854 -0.46386 0
M  V30 18545 H 1688.58 0.95218 -1.6615 0
M  V30 18546 H 1686.89 3.55903 -1.63829 0
M  V30 18547 H 1688.58 3.46511 -2.01819 0
M  V30 18548 H 1685.17 2.76896 -3.27149 0
M  V30 18549 H 1689.36 2.5873 -4.23524 0
M  V30 18550 H 1684.61 2.37749 -5.63281 0
M  V30 18551 H 1688.79 2.20646 -6.60521 0
M  V30 18552 H 1686.42 2.09643 -7.30722 0
M  V30 18553 N 1687.99 1.18137 1.04314 0
M  V30 18554 C 1689.23 0.986144 1.79038 0
M  V30 18555 C 1689.59 -0.476023 1.86005 0
M  V30 18556 O 1690.8 -0.790612 2.5691 0
M  V30 18557 C 1689.07 1.62008 3.18572 0
M  V30 18558 S 1690.63 1.57227 4.09665 0
M  V30 18559 H 1687.44 0.354181 0.616503 0
M  V30 18560 H 1690.05 1.50237 1.25096 0
M  V30 18561 H 1688.75 2.67655 3.11109 0
M  V30 18562 H 1688.28 1.10403 3.77591 0
M  V30 18563 H 1690.3 0.586418 4.92723 0
M  V30 18564 N 1689.47 -1.23186 0.98301 0
M  V30 18565 C 1690.71 -1.93403 0.661406 0
M  V30 18566 C 1691.07 -1.7496 -0.790755 0
M  V30 18567 O 1692.27 -2.3935 -1.22331 0
M  V30 18568 C 1690.54 -3.41803 1.04428 0
M  V30 18569 S 1692.1 -4.30694 0.839548 0
M  V30 18570 H 1688.92 -0.668498 0.24214 0
M  V30 18571 H 1691.52 -1.49209 1.2632 0
M  V30 18572 H 1690.23 -3.52737 2.09773 0
M  V30 18573 H 1689.76 -3.91 0.433882 0
M  V30 18574 H 1691.77 -4.95436 -0.275175 0
M  V30 18575 N 1690.95 -0.754982 -1.38339 0
M  V30 18576 C 1692.2 -0.308537 -1.99326 0
M  V30 18577 C 1692.51 1.1164 -1.60611 0
M  V30 18578 O 1693.71 1.66339 -2.14578 0
M  V30 18579 C 1692.17 -0.500688 -3.564 0
M  V30 18580 C 1691.78 -1.9348 -4.04066 0
M  V30 18581 C 1693.52 -0.117026 -4.24339 0
M  V30 18582 C 1691.43 -2.07544 -5.53786 0
M  V30 18583 H 1690.36 -0.111611 -0.745694 0
M  V30 18584 H 1693.01 -0.931722 -1.58086 0
M  V30 18585 H 1691.39 0.191702 -3.95536 0
M  V30 18586 H 1692.57 -2.66077 -3.76217 0
M  V30 18587 H 1690.88 -2.27351 -3.48856 0
M  V30 18588 H 1693.48 -0.200847 -5.34323 0
M  V30 18589 H 1693.82 0.930531 -4.05767 0
M  V30 18590 H 1694.35 -0.761323 -3.90447 0
M  V30 18591 H 1691.09 -3.10559 -5.77264 0
M  V30 18592 H 1690.61 -1.39409 -5.83374 0
M  V30 18593 H 1692.29 -1.86605 -6.19506 0
M  V30 18594 N 1692.42 1.49318 -0.504168 0
M  V30 18595 C 1693.66 2.04366 0.0375509 0
M  V30 18596 C 1694.03 1.37521 1.33985 0
M  V30 18597 O 1695.23 1.83308 1.966 0
M  V30 18598 C 1693.5 3.56928 0.183524 0
M  V30 18599 S 1695.06 4.33514 0.679034 0
M  V30 18600 H 1691.88 0.711 0.000264717 0
M  V30 18601 H 1694.48 1.83335 -0.678857 0
M  V30 18602 H 1693.18 4.03121 -0.769546 0
M  V30 18603 H 1692.71 3.82369 0.925078 0
M  V30 18604 H 1694.73 4.56376 1.9477 0
M  V30 18605 N 1693.9 0.238138 1.5579 0
M  V30 18606 C 1694.85 -0.665098 2.21009 0
M  V30 18607 C 1695.82 -1.17793 1.17107 0
M  V30 18608 O 1697 -1.234 1.45523 0
M  V30 18609 C 1694.14 -1.86028 2.90667 0
M  V30 18610 C 1693.26 -1.3848 4.09203 0
M  V30 18611 C 1692.39 -2.53885 4.666 0
M  V30 18612 C 1691.43 -2.03155 5.77403 0
M  V30 18613 N 1690.57 -3.11895 6.2902 0
M  V30 18614 H 1695.41 -0.102242 2.97825 0
M  V30 18615 H 1692.95 -0.0387064 1.47049 0
M  V30 18616 H 1694.9 -2.56226 3.29248 0
M  V30 18617 H 1693.53 -2.39575 2.16341 0
M  V30 18618 H 1692.59 -0.577172 3.75996 0
M  V30 18619 H 1693.9 -0.972946 4.89219 0
M  V30 18620 H 1693.05 -3.32139 5.07709 0
M  V30 18621 H 1691.79 -2.98368 3.85782 0
M  V30 18622 H 1690.8 -1.23369 5.3578 0
M  V30 18623 H 1692.02 -1.59653 6.60067 0
M  V30 18624 H 1689.97 -3.55828 5.5111 0
M  V30 18625 H 1689.88 -2.75013 7.04204 0
M  V30 18626 H 1691.15 -3.90234 6.74787 0
M  V30 18627 N 1695.38 -1.57561 -0.0350783 0
M  V30 18628 C 1696.8 -1.54746 -0.390618 0
M  V30 18629 C 1697 -0.963454 -1.76974 0
M  V30 18630 O 1696.05 -0.581878 -2.45704 0
M  V30 18631 C 1697.37 -2.9922 -0.297984 0
M  V30 18632 C 1698.91 -3.10739 -0.375506 0
M  V30 18633 C 1699.39 -4.56933 -0.312387 0
M  V30 18634 N 1700.88 -4.61709 -0.371364 0
M  V30 18635 C 1701.61 -5.72359 -0.34532 0
M  V30 18636 N 1701.11 -6.92266 -0.271921 0
M  V30 18637 N 1702.9 -5.60713 -0.394605 0
M  V30 18638 H 1695.05 -1.93876 0.867519 0
M  V30 18639 H 1697.32 -0.888974 0.329285 0
M  V30 18640 H 1697.02 -3.45651 0.649499 0
M  V30 18641 H 1696.9 -3.60987 -1.094 0
M  V30 18642 H 1699.28 -2.6426 -1.31342 0
M  V30 18643 H 1699.37 -2.51815 0.449752 0
M  V30 18644 H 1699.01 -5.04079 0.621834 0
M  V30 18645 H 1698.94 -5.13762 -1.15567 0
M  V30 18646 H 1701.43 -3.75436 -0.430848 0
M  V30 18647 H 1701.74 -7.72373 -0.256983 0
M  V30 18648 H 1700.09 -6.94592 -0.238058 0
M  V30 18649 H 1703.28 -4.65933 -0.449896 0
M  V30 18650 H 1703.45 -6.46938 -0.37084 0
M  V30 18651 N 1696.86 0.307236 -1.54576 0
M  V30 18652 C 1698.27 0.652539 -1.45651 0
M  V30 18653 C 1698.47 1.90978 -0.64263 0
M  V30 18654 O 1697.53 2.52067 -0.147863 0
M  V30 18655 C 1698.84 0.811341 -2.89547 0
M  V30 18656 C 1700.39 0.90763 -2.99551 0
M  V30 18657 C 1700.87 1.09848 -4.44632 0
M  V30 18658 N 1702.36 1.16483 -4.48315 0
M  V30 18659 C 1703.09 1.33068 -5.57746 0
M  V30 18660 N 1702.59 1.46591 -6.77114 0
M  V30 18661 N 1704.38 1.35906 -5.45423 0
M  V30 18662 H 1696.53 -0.518891 -2.05964 0
M  V30 18663 H 1698.8 -0.170463 -0.932548 0
M  V30 18664 H 1698.5 -0.0414879 -3.51676 0
M  V30 18665 H 1698.38 1.70224 -3.36606 0
M  V30 18666 H 1700.76 1.75095 -2.37541 0
M  V30 18667 H 1700.84 -0.00715386 -2.55799 0
M  V30 18668 H 1700.49 0.259948 -5.07234 0
M  V30 18669 H 1700.42 2.02739 -4.86009 0
M  V30 18670 H 1702.91 1.07411 -3.62314 0
M  V30 18671 H 1703.22 1.58983 -7.5627 0
M  V30 18672 H 1701.57 1.43658 -6.79991 0
M  V30 18673 H 1704.76 1.24949 -4.51116 0
M  V30 18674 H 1704.93 1.48489 -6.30758 0
M  V30 18675 N 1698.34 1.46926 0.570122 0
M  V30 18676 C 1699.28 1.58442 1.67824 0
M  V30 18677 C 1700.25 0.428053 1.6049 0
M  V30 18678 O 1701.44 0.646445 1.79515 0
M  V30 18679 C 1698.58 1.59253 3.06158 0
M  V30 18680 C 1697.69 2.85714 3.24024 0
M  V30 18681 C 1696.83 2.77945 4.52681 0
M  V30 18682 C 1695.87 3.99289 4.63934 0
M  V30 18683 N 1695 3.89833 5.83931 0
M  V30 18684 H 1699.84 2.5309 1.5732 0
M  V30 18685 H 1697.38 1.25549 0.766548 0
M  V30 18686 H 1699.34 1.57707 3.86244 0
M  V30 18687 H 1697.97 0.68127 3.15529 0
M  V30 18688 H 1697.02 2.97184 2.37458 0
M  V30 18689 H 1698.33 3.7561 3.28206 0
M  V30 18690 H 1697.49 2.74576 5.41011 0
M  V30 18691 H 1696.22 1.85711 4.50958 0
M  V30 18692 H 1695.23 4.02976 3.74019 0
M  V30 18693 H 1696.45 4.92635 4.67427 0
M  V30 18694 H 1694.4 3.00393 5.83181 0
M  V30 18695 H 1694.32 4.73395 5.89434 0
M  V30 18696 H 1695.59 3.90459 6.74657 0
M  V30 18697 N 1699.82 -0.815801 1.34842 0
M  V30 18698 C 1700.76 -1.92713 1.27006 0
M  V30 18699 C 1701.73 -1.65476 0.143838 0
M  V30 18700 O 1702.92 -1.87994 0.326007 0
M  V30 18701 C 1700.06 -3.29099 1.03863 0
M  V30 18702 C 1699.17 -3.68583 2.25324 0
M  V30 18703 C 1698.31 -4.93953 1.95407 0
M  V30 18704 C 1697.34 -5.26037 3.12971 0
M  V30 18705 N 1696.48 -6.42586 2.82891 0
M  V30 18706 H 1701.32 -1.98747 2.22044 0
M  V30 18707 H 1698.86 -0.972265 1.10388 0
M  V30 18708 H 1700.82 -4.07709 0.884809 0
M  V30 18709 H 1699.45 -3.22558 0.124911 0
M  V30 18710 H 1698.5 -2.85307 2.51603 0
M  V30 18711 H 1699.81 -3.88259 3.1314 0
M  V30 18712 H 1698.96 -5.80367 1.76801 0
M  V30 18713 H 1697.7 -4.76293 1.04862 0
M  V30 18714 H 1696.71 -4.38117 3.32165 0
M  V30 18715 H 1697.93 -5.45632 4.04305 0
M  V30 18716 H 1695.88 -6.26369 1.9493 0
M  V30 18717 H 1695.8 -6.62469 3.64239 0
M  V30 18718 H 1697.06 -7.32052 2.67805 0
M  V30 18719 N 1701.29 -1.18689 -1.03686 0
M  V30 18720 C 1702.57 -0.89414 -1.73967 0
M  V30 18721 C 1702.95 0.602104 -2.02331 0
M  V30 18722 O 1702.3 1.55794 -1.67154 0
M  V30 18723 C 1702.51 -1.74549 -3.02214 0
M  V30 18724 C 1703.86 -1.97487 -3.75878 0
M  V30 18725 O 1704.88 -1.71634 -3.12122 0
M  V30 18726 O 1703.74 -2.41031 -4.90476 0
M  V30 18727 H 1700.83 -0.332501 -0.757213 0
M  V30 18728 H 1703.38 -1.29461 -1.09717 0
M  V30 18729 H 1702.15 -2.75961 -2.77419 0
M  V30 18730 H 1701.77 -1.34378 -3.74204 0
M  V30 18731 N 1702.77 1.22662 -0.989529 0
M  V30 18732 C 1703.72 2.24466 -0.536994 0
M  V30 18733 C 1704.69 1.60467 0.428907 0
M  V30 18734 O 1705.87 1.87846 0.334418 0
M  V30 18735 C 1703.01 3.44793 0.145526 0
M  V30 18736 C 1702.13 4.23318 -0.861716 0
M  V30 18737 C 1701.26 5.30979 -0.153062 0
M  V30 18738 C 1700.3 6.01221 -1.1489 0
M  V30 18739 N 1699.44 7.00533 -0.468782 0
M  V30 18740 H 1704.28 2.62539 -1.40987 0
M  V30 18741 H 1701.81 1.29035 -0.706291 0
M  V30 18742 H 1703.77 4.1345 0.558128 0
M  V30 18743 H 1702.4 3.07494 0.982213 0
M  V30 18744 H 1701.45 3.5399 -1.39266 0
M  V30 18745 H 1702.77 4.71753 -1.62019 0
M  V30 18746 H 1701.92 6.05874 0.316443 0
M  V30 18747 H 1700.66 4.8351 0.63794 0
M  V30 18748 H 1699.66 5.25111 -1.62907 0
M  V30 18749 H 1700.89 6.50779 -1.94072 0
M  V30 18750 H 1698.84 6.55301 0.302844 0
M  V30 18751 H 1698.75 7.46958 -1.16576 0
M  V30 18752 H 1700.02 7.79497 -0.0219686 0
M  V30 18753 N 1704.25 0.762308 1.37937 0
M  V30 18754 C 1705.48 0.333458 2.04195 0
M  V30 18755 C 1705.89 -1.04118 1.57496 0
M  V30 18756 O 1705.25 -1.66289 0.751938 0
M  V30 18757 C 1705.3 0.35685 3.59734 0
M  V30 18758 O 1705.02 1.67725 4.04722 0
M  V30 18759 C 1706.52 -0.0847776 4.43219 0
M  V30 18760 H 1703.74 0.141107 0.655995 0
M  V30 18761 H 1706.29 1.03359 1.76457 0
M  V30 18762 H 1704.44 -0.294625 3.86278 0
M  V30 18763 H 1704.86 1.60939 4.99198 0
M  V30 18764 H 1706.33 -0.017252 5.51997 0
M  V30 18765 H 1706.81 -1.13387 4.24311 0
M  V30 18766 H 1707.41 0.538151 4.21882 0
M  V30 18767 N 1705.73 -1.49049 0.51208 0
M  V30 18768 C 1706.95 -2.07382 -0.0271044 0
M  V30 18769 C 1707.38 -1.3685 -1.29049 0
M  V30 18770 O 1706.74 -0.428713 -1.76158 0
M  V30 18771 C 1706.78 -3.59715 -0.252462 0
M  V30 18772 O 1705.89 -3.90538 -1.32491 0
M  V30 18773 H 1705.23 -0.663269 0.0311507 0
M  V30 18774 H 1707.76 -1.91705 0.714873 0
M  V30 18775 H 1707.77 -4.05159 -0.480603 0
M  V30 18776 H 1706.44 -4.10459 0.670531 0
M  V30 18777 H 1705.02 -3.56892 -1.08085 0
M  V30 18778 N 1707.21 -0.246397 -1.55662 0
M  V30 18779 C 1708.48 0.42879 -1.90842 0
M  V30 18780 C 1708.86 1.75905 -1.16707 0
M  V30 18781 O 1708.21 2.26723 -0.284391 0
M  V30 18782 C 1708.42 0.597368 -3.4385 0
M  V30 18783 C 1709.77 0.893477 -4.15093 0
M  V30 18784 O 1710.79 0.683251 -3.49586 0
M  V30 18785 O 1709.65 1.2938 -5.30964 0
M  V30 18786 H 1706.75 0.230145 -0.794331 0
M  V30 18787 H 1709.29 -0.290426 -1.67196 0
M  V30 18788 H 1708.06 -0.339952 -3.8982 0
M  V30 18789 H 1707.69 1.36714 -3.73356 0
M  V30 18790 N 1708.68 1.57577 0.026722 0
M  V30 18791 C 1709.93 1.89005 0.715645 0
M  V30 18792 C 1710.25 0.844388 1.7577 0
M  V30 18793 O 1709.52 -0.121693 1.95522 0
M  V30 18794 H 1708.1 0.697535 0.267308 0
M  V30 18795 H 1710.76 1.94898 -0.00788096 0
M  V30 18796 H 1709.86 2.87952 1.20374 0
M  V30 18797 N 1710.16 -0.299034 1.54737 0
M  V30 18798 C 1711.57 -0.871897 1.6509 0
M  V30 18799 C 1711.92 -1.88013 0.560843 0
M  V30 18800 O 1711.05 -2.1428 -0.302194 0
M  V30 18801 C 1711.64 -1.5882 2.99269 0
M  V30 18802 C 1710.2 -2.10944 3.11736 0
M  V30 18803 C 1709.35 -0.942776 2.60782 0
M  V30 18804 H 1712.3 -0.0759883 1.58518 0
M  V30 18805 H 1712.32 -2.45387 2.90802 0
M  V30 18806 H 1711.83 -0.854144 3.78584 0
M  V30 18807 H 1709.93 -2.87391 2.37144 0
M  V30 18808 H 1710.05 -2.34262 4.17921 0
M  V30 18809 H 1708.41 -1.3289 2.17284 0
M  V30 18810 H 1709.19 -0.222646 3.42577 0
M  V30 18811 N 1711.64 -1.47227 -0.562322 0
M  V30 18812 C 1712.59 -1.59329 -1.66981 0
M  V30 18813 C 1713.56 -0.436558 -1.6026 0
M  V30 18814 O 1714.74 -0.655956 -1.7917 0
M  V30 18815 C 1711.88 -1.60874 -3.05309 0
M  V30 18816 C 1710.99 -2.87428 -3.22505 0
M  V30 18817 C 1710.13 -2.80342 -4.512 0
M  V30 18818 C 1709.17 -4.01744 -4.6181 0
M  V30 18819 N 1708.31 -3.92924 -5.81855 0
M  V30 18820 H 1713.15 -2.53921 -1.55975 0
M  V30 18821 H 1710.68 -1.25953 -0.759879 0
M  V30 18822 H 1712.64 -1.59753 -3.85402 0
M  V30 18823 H 1711.27 -0.697994 -3.15163 0
M  V30 18824 H 1710.32 -2.98439 -2.35878 0
M  V30 18825 H 1711.63 -3.77345 -3.26209 0
M  V30 18826 H 1710.79 -2.77442 -5.39547 0
M  V30 18827 H 1709.53 -1.881 -4.49966 0
M  V30 18828 H 1708.53 -4.04954 -3.71877 0
M  V30 18829 H 1709.76 -4.95107 -4.64807 0
M  V30 18830 H 1707.7 -3.03481 -5.8158 0
M  V30 18831 H 1707.62 -4.76514 -5.86916 0
M  V30 18832 H 1708.89 -3.94031 -6.72577 0
M  V30 18833 N 1713.12 0.808639 -1.35273 0
M  V30 18834 C 1714.05 1.93502 -1.30687 0
M  V30 18835 C 1715.03 1.69127 -0.181675 0
M  V30 18836 O 1716.21 1.90519 -0.376312 0
M  V30 18837 C 1713.34 3.30211 -1.07602 0
M  V30 18838 C 1712.3 3.69063 -2.16741 0
M  V30 18839 C 1711.62 5.03911 -1.78824 0
M  V30 18840 C 1712.92 3.79656 -3.5869 0
M  V30 18841 H 1714.62 1.97597 -2.24935 0
M  V30 18842 H 1712.16 0.949284 -1.0828 0
M  V30 18843 H 1714.12 4.0861 -1.03034 0
M  V30 18844 H 1712.84 3.26453 -0.0979944 0
M  V30 18845 H 1711.5 2.92948 -2.20402 0
M  V30 18846 H 1711.15 4.96655 -0.796449 0
M  V30 18847 H 1710.85 5.30877 -2.51881 0
M  V30 18848 H 1712.37 5.84752 -1.75777 0
M  V30 18849 H 1713.79 4.48292 -3.57362 0
M  V30 18850 H 1712.18 4.1809 -4.30489 0
M  V30 18851 H 1713.25 2.81265 -3.94991 0
M  V30 18852 N 1714.6 1.19237 1.03055 0
M  V30 18853 C 1715.84 0.993971 1.76427 0
M  V30 18854 C 1716.17 -0.475422 1.886 0
M  V30 18855 O 1715.43 -1.36925 1.39821 0
M  V30 18856 C 1715.73 1.60607 3.19281 0
M  V30 18857 C 1715.39 3.10329 3.27119 0
M  V30 18858 C 1714.05 3.51192 3.28965 0
M  V30 18859 C 1716.41 4.0634 3.264 0
M  V30 18860 C 1713.73 4.8662 3.27747 0
M  V30 18861 C 1716.09 5.41696 3.26723 0
M  V30 18862 C 1714.75 5.81992 3.26866 0
M  V30 18863 H 1714.02 0.36372 0.645592 0
M  V30 18864 H 1716.67 1.48455 1.20969 0
M  V30 18865 H 1714.97 1.03775 3.77807 0
M  V30 18866 H 1716.67 1.42786 3.74717 0
M  V30 18867 H 1713.26 2.77769 3.26409 0
M  V30 18868 H 1717.44 3.75814 3.24156 0
M  V30 18869 H 1712.7 5.17123 3.26181 0
M  V30 18870 H 1716.87 6.1585 3.25118 0
M  V30 18871 H 1714.5 6.86905 3.25676 0
M  V30 18872 N 1716.07 -1.22136 0.99602 0
M  V30 18873 C 1717 -2.26463 0.568909 0
M  V30 18874 C 1717.99 -1.65189 -0.405783 0
M  V30 18875 O 1719.17 -1.91935 -0.295735 0
M  V30 18876 C 1716.3 -3.47112 -0.114166 0
M  V30 18877 C 1715.25 -4.20844 0.779387 0
M  V30 18878 C 1714.58 -5.34687 -0.0367787 0
M  V30 18879 C 1715.88 -4.79195 2.07773 0
M  V30 18880 H 1717.57 -2.62443 1.44097 0
M  V30 18881 H 1715.12 -1.26156 0.694314 0
M  V30 18882 H 1717.07 -4.19258 -0.424381 0
M  V30 18883 H 1715.8 -3.10238 -1.02079 0
M  V30 18884 H 1714.46 -3.50537 1.07329 0
M  V30 18885 H 1714.1 -4.94054 -0.94442 0
M  V30 18886 H 1713.8 -5.84944 0.558092 0
M  V30 18887 H 1715.33 -6.09647 -0.341016 0
M  V30 18888 H 1716.74 -5.43266 1.83126 0
M  V30 18889 H 1715.14 -5.39803 2.62169 0
M  V30 18890 H 1716.21 -3.99073 2.75442 0
M  V30 18891 N 1717.55 -0.769612 -1.37531 0
M  V30 18892 C 1718.78 -0.344282 -2.04015 0
M  V30 18893 C 1719.2 1.03281 -1.58046 0
M  V30 18894 O 1718.55 1.65888 -0.760746 0
M  V30 18895 C 1718.6 -0.375922 -3.5954 0
M  V30 18896 O 1718.32 -1.69869 -4.03827 0
M  V30 18897 C 1719.83 0.0612715 -4.43258 0
M  V30 18898 H 1717.05 -0.144584 -0.655238 0
M  V30 18899 H 1719.59 -1.04294 -1.75906 0
M  V30 18900 H 1717.74 0.274136 -3.86429 0
M  V30 18901 H 1718.16 -1.63584 -4.98338 0
M  V30 18902 H 1719.63 -0.012022 -5.51999 0
M  V30 18903 H 1720.11 1.11136 -4.24906 0
M  V30 18904 H 1720.72 -0.560517 -4.2159 0
M  V30 18905 N 1719.03 1.48775 -0.519977 0
M  V30 18906 C 1719.94 2.33239 0.252329 0
M  V30 18907 C 1720.96 1.45852 0.948849 0
M  V30 18908 O 1722.13 1.78848 0.92603 0
M  V30 18909 C 1719.2 3.2174 1.29166 0
M  V30 18910 C 1718.26 4.24993 0.606564 0
M  V30 18911 C 1717.49 5.09266 1.59638 0
M  V30 18912 O 1717.71 4.95353 2.82809 0
M  V30 18913 O 1716.65 5.90981 1.14127 0
M  V30 18914 H 1720.47 3.00503 -0.439527 0
M  V30 18915 H 1718.06 1.46733 -0.281032 0
M  V30 18916 H 1719.94 3.76512 1.89254 0
M  V30 18917 H 1718.62 2.5715 1.96611 0
M  V30 18918 H 1717.52 3.74084 -0.0345447 0
M  V30 18919 H 1718.86 4.92193 -0.0257627 0
M  V30 18920 N 1720.51 0.254649 1.55529 0
M  V30 18921 C 1721.42 -0.652184 2.25352 0
M  V30 18922 C 1722.43 -1.18695 1.2723 0
M  V30 18923 O 1723.61 -1.22158 1.60123 0
M  V30 18924 C 1720.68 -1.829 2.94531 0
M  V30 18925 C 1719.74 -1.33294 4.08082 0
M  V30 18926 C 1718.97 -2.45367 4.73952 0
M  V30 18927 O 1719.19 -3.64271 4.38933 0
M  V30 18928 O 1718.13 -2.14684 5.62311 0
M  V30 18929 H 1721.95 -0.0871786 3.03575 0
M  V30 18930 H 1719.54 0.0228432 1.49383 0
M  V30 18931 H 1721.42 -2.5156 3.38076 0
M  V30 18932 H 1720.09 -2.38148 2.19242 0
M  V30 18933 H 1719 -0.613396 3.69037 0
M  V30 18934 H 1720.33 -0.826454 4.85212 0
M  V30 18935 N 1721.99 -1.57589 -0.0183649 0
M  V30 18936 C 1723.26 -1.80938 -0.743021 0
M  V30 18937 C 1723.64 -0.855272 -1.92998 0
M  V30 18938 O 1722.99 0.100181 -2.2828 0
M  V30 18939 C 1723.2 -3.28945 -1.16602 0
M  V30 18940 C 1724.55 -3.94208 -1.5775 0
M  V30 18941 O 1725.57 -3.33159 -1.26031 0
M  V30 18942 O 1724.43 -5.01716 -2.16663 0
M  V30 18943 H 1721.53 -0.744435 -0.360203 0
M  V30 18944 H 1724.07 -1.69699 0.00567963 0
M  V30 18945 H 1722.84 -3.89996 -0.319154 0
M  V30 18946 H 1722.47 -3.45113 -1.9744 0
M  V30 18947 N 1723.46 0.290824 -1.54893 0
M  V30 18948 C 1724.4 1.38087 -1.82933 0
M  V30 18949 C 1725.41 1.46365 -0.712811 0
M  V30 18950 O 1726.6 1.48501 -0.990432 0
M  V30 18951 C 1723.7 2.76374 -1.9614 0
M  V30 18952 C 1722.87 2.90905 -3.26639 0
M  V30 18953 C 1721.93 4.09754 -3.30134 0
M  V30 18954 O 1720.96 4.01356 -4.03611 0
M  V30 18955 N 1722.16 5.20878 -2.56254 0
M  V30 18956 H 1724.92 1.14385 -2.77013 0
M  V30 18957 H 1722.48 0.480916 -1.54592 0
M  V30 18958 H 1724.48 3.54144 -1.95868 0
M  V30 18959 H 1723.05 2.92978 -1.09008 0
M  V30 18960 H 1722.27 2.00164 -3.396 0
M  V30 18961 H 1723.55 2.97531 -4.12738 0
M  V30 18962 H 1722.95 5.30584 -1.96207 0
M  V30 18963 H 1721.51 5.96945 -2.61725 0
M  V30 18964 N 1724.94 1.47523 0.554506 0
M  V30 18965 C 1725.89 1.60213 1.66134 0
M  V30 18966 C 1726.86 0.445051 1.60027 0
M  V30 18967 O 1728.04 0.665449 1.7882 0
M  V30 18968 C 1725.18 1.62491 3.04452 0
M  V30 18969 C 1724.3 2.89134 3.20976 0
M  V30 18970 C 1723.43 2.82731 4.49707 0
M  V30 18971 C 1722.47 4.04187 4.59673 0
M  V30 18972 N 1721.61 3.96004 5.79763 0
M  V30 18973 H 1726.45 2.54744 1.54626 0
M  V30 18974 H 1723.99 1.26355 0.753189 0
M  V30 18975 H 1725.94 1.61795 3.84549 0
M  V30 18976 H 1724.57 0.714698 3.14789 0
M  V30 18977 H 1723.63 2.99685 2.34292 0
M  V30 18978 H 1724.94 3.79069 3.24203 0
M  V30 18979 H 1724.09 2.80299 5.38068 0
M  V30 18980 H 1722.83 1.90483 4.48963 0
M  V30 18981 H 1721.84 4.06921 3.69724 0
M  V30 18982 H 1723.06 4.97565 4.62175 0
M  V30 18983 H 1721.01 3.06561 5.79962 0
M  V30 18984 H 1720.92 4.7962 5.8438 0
M  V30 18985 H 1722.19 3.97593 6.70478 0
M  V30 18986 N 1726.42 -0.801453 1.357 0
M  V30 18987 C 1727.37 -1.91355 1.29043 0
M  V30 18988 C 1728.34 -1.65314 0.161381 0
M  V30 18989 O 1729.52 -1.87638 0.345928 0
M  V30 18990 C 1726.66 -3.27979 1.07348 0
M  V30 18991 C 1725.78 -3.66172 2.29221 0
M  V30 18992 C 1724.91 -4.91853 2.00635 0
M  V30 18993 C 1723.95 -5.22688 3.18533 0
M  V30 18994 N 1723.09 -6.3955 2.8969 0
M  V30 18995 H 1727.93 -1.96381 2.24139 0
M  V30 18996 H 1725.46 -0.960502 1.11413 0
M  V30 18997 H 1727.42 -4.06748 0.928002 0
M  V30 18998 H 1726.05 -3.22408 0.159115 0
M  V30 18999 H 1725.1 -2.82623 2.54615 0
M  V30 19000 H 1726.42 -3.84916 3.1724 0
M  V30 19001 H 1725.57 -5.78459 1.82947 0
M  V30 19002 H 1724.31 -4.75154 1.09908 0
M  V30 19003 H 1723.31 -4.34569 3.36793 0
M  V30 19004 H 1724.54 -5.41313 4.10069 0
M  V30 19005 H 1722.48 -6.24266 2.01562 0
M  V30 19006 H 1722.4 -6.58569 3.71245 0
M  V30 19007 H 1723.67 -7.29171 2.75555 0
M  V30 19008 N 1727.9 -1.19782 -1.02421 0
M  V30 19009 C 1728.83 -0.963553 -2.12692 0
M  V30 19010 C 1729.81 0.104769 -1.69777 0
M  V30 19011 O 1730.99 -0.0512017 -1.94132 0
M  V30 19012 C 1728.12 -0.506525 -3.43586 0
M  V30 19013 C 1727.08 -1.51722 -4.00206 0
M  V30 19014 C 1726.4 -0.917097 -5.26776 0
M  V30 19015 C 1727.7 -2.89879 -4.34474 0
M  V30 19016 H 1729.4 -1.88579 -2.32547 0
M  V30 19017 H 1726.94 -0.908111 -1.11756 0
M  V30 19018 H 1728.9 -0.329907 -4.20107 0
M  V30 19019 H 1727.62 0.451322 -3.23467 0
M  V30 19020 H 1726.28 -1.68106 -3.25785 0
M  V30 19021 H 1725.93 0.0484457 -5.02977 0
M  V30 19022 H 1725.63 -1.59204 -5.65622 0
M  V30 19023 H 1727.15 -0.751379 -6.05959 0
M  V30 19024 H 1728.57 -2.7705 -5.01913 0
M  V30 19025 H 1726.96 -3.54209 -4.84413 0
M  V30 19026 H 1728.03 -3.42179 -3.43571 0
M  V30 19027 N 1729.38 1.21606 -1.00248 0
M  V30 19028 C 1730.33 2.21711 -0.531824 0
M  V30 19029 C 1731.31 1.55714 0.405201 0
M  V30 19030 O 1732.5 1.75493 0.230462 0
M  V30 19031 C 1729.63 3.43003 0.142686 0
M  V30 19032 C 1728.72 4.16191 -0.815209 0
M  V30 19033 N 1729.11 4.65986 -1.967 0
M  V30 19034 C 1727.41 4.41484 -0.633069 0
M  V30 19035 C 1728.11 5.21897 -2.56901 0
M  V30 19036 N 1727.08 5.11121 -1.85084 0
M  V30 19037 H 1730.89 2.57862 -1.41013 0
M  V30 19038 H 1728.4 1.37385 -0.86598 0
M  V30 19039 H 1730.4 4.13923 0.497322 0
M  V30 19040 H 1729.06 3.08362 1.01701 0
M  V30 19041 H 1730.07 4.61644 -2.34746 0
M  V30 19042 H 1726.75 4.17047 0.194381 0
M  V30 19043 H 1728.14 5.70898 -3.54296 0
M  V30 19044 N 1730.86 0.776895 1.37121 0
M  V30 19045 C 1732.13 0.268067 1.93754 0
M  V30 19046 C 1732.51 -1.23774 1.71007 0
M  V30 19047 O 1731.86 -2.02331 1.0618 0
M  V30 19048 C 1732.07 0.647054 3.42949 0
M  V30 19049 C 1733.42 0.619737 4.20053 0
M  V30 19050 O 1734.44 0.586757 3.51334 0
M  V30 19051 O 1733.3 0.651412 5.42604 0
M  V30 19052 H 1730.4 0.0631883 0.824582 0
M  V30 19053 H 1732.94 0.858594 1.46377 0
M  V30 19054 H 1731.71 1.68608 3.5311 0
M  V30 19055 H 1731.34 0.0297448 3.97589 0
M  V30 19056 N 1732.33 -1.48497 0.527859 0
M  V30 19057 C 1733.58 -2.02499 -0.00701157 0
M  V30 19058 C 1733.91 -1.40516 -1.34483 0
M  V30 19059 O 1733.16 -0.539575 -1.88115 0
M  V30 19060 C 1733.46 -3.56945 -0.180276 0
M  V30 19061 C 1733.13 -4.37703 1.08291 0
M  V30 19062 C 1731.79 -4.59489 1.42911 0
M  V30 19063 C 1734.14 -4.84495 1.92131 0
M  V30 19064 C 1731.47 -5.25313 2.61272 0
M  V30 19065 C 1733.82 -5.51623 3.09669 0
M  V30 19066 C 1732.49 -5.71648 3.44637 0
M  V30 19067 H 1731.76 -0.740996 -0.00256572 0
M  V30 19068 H 1734.4 -1.78503 0.693453 0
M  V30 19069 H 1732.71 -3.79768 -0.963491 0
M  V30 19070 H 1734.41 -3.96348 -0.609009 0
M  V30 19071 H 1731 -4.21005 0.803293 0
M  V30 19072 H 1735.18 -4.67468 1.66696 0
M  V30 19073 H 1730.44 -5.39015 2.8857 0
M  V30 19074 H 1734.61 -5.86849 3.74942 0
M  V30 19075 H 1732.24 -6.22426 4.36451 0
M  V30 19076 N 1733.81 -0.262893 -1.55392 0
M  V30 19077 C 1734.72 0.640223 -2.25695 0
M  V30 19078 C 1735.74 1.18019 -1.27857 0
M  V30 19079 O 1736.91 1.21308 -1.60768 0
M  V30 19080 C 1733.98 1.81336 -2.95497 0
M  V30 19081 C 1733.04 1.31128 -4.08784 0
M  V30 19082 C 1732.27 2.4285 -4.75247 0
M  V30 19083 O 1732.5 3.61939 -4.40859 0
M  V30 19084 O 1731.43 2.11699 -5.63442 0
M  V30 19085 H 1735.26 0.0710781 -3.03617 0
M  V30 19086 H 1732.84 -0.030765 -1.49368 0
M  V30 19087 H 1734.72 2.49764 -3.39406 0
M  V30 19088 H 1733.4 2.36982 -2.20502 0
M  V30 19089 H 1732.3 0.593816 -3.69357 0
M  V30 19090 H 1733.64 0.800711 -4.85643 0
M  V30 19091 N 1735.29 1.57597 0.0100073 0
M  V30 19092 C 1736.2 2.11209 1.02117 0
M  V30 19093 C 1737.22 1.05503 1.38366 0
M  V30 19094 O 1738.39 1.37348 1.47301 0
M  V30 19095 C 1735.46 2.59654 2.2974 0
M  V30 19096 C 1734.52 3.79921 1.99896 0
M  V30 19097 C 1733.75 4.26046 3.21435 0
M  V30 19098 O 1733.97 3.71566 4.32775 0
M  V30 19099 O 1732.91 5.18301 3.06018 0
M  V30 19100 H 1736.73 2.97805 0.595469 0
M  V30 19101 H 1734.32 1.47647 0.228208 0
M  V30 19102 H 1736.2 2.91058 3.04735 0
M  V30 19103 H 1734.88 1.76161 2.71568 0
M  V30 19104 H 1733.78 3.53506 1.22409 0
M  V30 19105 H 1735.12 4.64457 1.62912 0
M  V30 19106 N 1736.77 -0.282606 1.55045 0
M  V30 19107 C 1737.7 -1.37115 1.83663 0
M  V30 19108 C 1738.71 -1.45985 0.720563 0
M  V30 19109 O 1739.9 -1.47974 0.998294 0
M  V30 19110 C 1737 -2.7533 1.97603 0
M  V30 19111 C 1736.17 -2.89168 3.28177 0
M  V30 19112 C 1735.23 -4.07997 3.32302 0
M  V30 19113 O 1734.26 -3.9921 4.05734 0
M  V30 19114 N 1735.46 -5.19512 2.59013 0
M  V30 19115 H 1738.23 -1.12914 2.77616 0
M  V30 19116 H 1735.79 -0.472711 1.54845 0
M  V30 19117 H 1737.78 -3.531 1.97743 0
M  V30 19118 H 1736.35 -2.92396 1.1056 0
M  V30 19119 H 1735.57 -1.9836 3.40657 0
M  V30 19120 H 1736.86 -2.95338 4.1431 0
M  V30 19121 H 1736.26 -5.29536 1.99018 0
M  V30 19122 H 1734.81 -5.95549 2.64887 0
M  V30 19123 N 1738.25 -1.47815 -0.546675 0
M  V30 19124 C 1739.49 -1.56566 -1.31402 0
M  V30 19125 C 1739.85 -0.227101 -1.90652 0
M  V30 19126 O 1741.05 -0.189506 -2.68131 0
M  V30 19127 C 1739.32 -2.6603 -2.38669 0
M  V30 19128 S 1740.88 -2.94436 -3.25351 0
M  V30 19129 H 1737.7 -0.552748 -0.447203 0
M  V30 19130 H 1740.3 -1.85251 -0.624688 0
M  V30 19131 H 1739 -3.6187 -1.93593 0
M  V30 19132 H 1738.54 -2.39193 -3.1233 0
M  V30 19133 H 1740.55 -2.32455 -4.38382 0
M  V30 19134 N 1739.72 0.794246 -1.36123 0
M  V30 19135 C 1740.97 1.55421 -1.30277 0
M  V30 19136 C 1741.3 1.93834 0.119134 0
M  V30 19137 O 1740.58 1.6233 1.07141 0
M  V30 19138 C 1740.86 2.83454 -2.22094 0
M  V30 19139 C 1740.71 2.51439 -3.72959 0
M  V30 19140 C 1742.03 3.85246 -2.12776 0
M  V30 19141 H 1739.15 0.563871 -0.474572 0
M  V30 19142 H 1741.79 0.912877 -1.66633 0
M  V30 19143 H 1739.94 3.38182 -1.9122 0
M  V30 19144 H 1741.62 2.02799 -4.14331 0
M  V30 19145 H 1739.86 1.84451 -3.92632 0
M  V30 19146 H 1740.53 3.42863 -4.32608 0
M  V30 19147 H 1743.01 3.39952 -2.39942 0
M  V30 19148 H 1741.88 4.72588 -2.79198 0
M  V30 19149 H 1742.14 4.27847 -1.11353 0
M  V30 19150 N 1741.2 1.20323 1.01785 0
M  V30 19151 C 1742.11 0.966603 2.13761 0
M  V30 19152 C 1743.13 -0.0771059 1.73829 0
M  V30 19153 O 1744.3 0.110054 2.01099 0
M  V30 19154 C 1741.37 0.520405 3.42772 0
M  V30 19155 C 1740.43 1.63482 3.96954 0
M  V30 19156 C 1739.66 1.20981 5.19807 0
M  V30 19157 O 1739.89 0.0779814 5.70347 0
M  V30 19158 O 1738.82 2.01674 5.67108 0
M  V30 19159 H 1742.65 1.90414 2.36593 0
M  V30 19160 H 1740.23 0.986997 1.12155 0
M  V30 19161 H 1742.11 0.280747 4.20464 0
M  V30 19162 H 1740.79 -0.388563 3.21359 0
M  V30 19163 H 1739.69 1.92874 3.20547 0
M  V30 19164 H 1741.03 2.52074 4.22752 0
M  V30 19165 N 1742.68 -1.21073 1.00892 0
M  V30 19166 C 1743.61 -2.22257 0.517418 0
M  V30 19167 C 1744.59 -1.56784 -0.430997 0
M  V30 19168 O 1745.77 -1.85169 -0.3528 0
M  V30 19169 C 1742.9 -3.37791 -0.24795 0
M  V30 19170 C 1741.95 -4.21535 0.648856 0
M  V30 19171 S 1742.78 -4.92026 2.11355 0
M  V30 19172 C 1743.94 -6.10987 1.35813 0
M  V30 19173 H 1744.17 -2.63604 1.37479 0
M  V30 19174 H 1741.7 -1.31002 0.817177 0
M  V30 19175 H 1743.66 -4.04771 -0.683454 0
M  V30 19176 H 1742.32 -2.9492 -1.08079 0
M  V30 19177 H 1741.51 -5.03965 0.0591083 0
M  V30 19178 H 1741.12 -3.59771 1.0218 0
M  V30 19179 H 1743.41 -6.74526 0.634079 0
M  V30 19180 H 1744.35 -6.74406 2.15829 0
M  V30 19181 H 1744.76 -5.57843 0.864381 0
M  V30 19182 N 1744.16 -0.784156 -1.36707 0
M  V30 19183 C 1745.39 -0.365371 -2.03344 0
M  V30 19184 C 1745.8 1.02133 -1.59266 0
M  V30 19185 O 1745.14 1.66547 -0.775098 0
M  V30 19186 C 1745.2 -0.343819 -3.57852 0
M  V30 19187 C 1744.87 -1.6772 -4.25111 0
M  V30 19188 C 1745.86 -2.63179 -4.48367 0
M  V30 19189 C 1743.55 -1.95505 -4.62691 0
M  V30 19190 C 1745.54 -3.84621 -5.08277 0
M  V30 19191 C 1743.23 -3.17215 -5.2232 0
M  V30 19192 C 1744.23 -4.11592 -5.45052 0
M  V30 19193 O 1743.91 -5.31157 -6.0343 0
M  V30 19194 H 1743.65 -0.14936 -0.659293 0
M  V30 19195 H 1746.2 -1.06269 -1.75772 0
M  V30 19196 H 1744.43 0.409964 -3.84521 0
M  V30 19197 H 1746.12 0.0495818 -4.0587 0
M  V30 19198 H 1746.89 -2.42998 -4.19735 0
M  V30 19199 H 1742.76 -1.22867 -4.44325 0
M  V30 19200 H 1746.31 -4.58298 -5.25936 0
M  V30 19201 H 1742.21 -3.37276 -5.50377 0
M  V30 19202 H 1742.97 -5.32149 -6.219 0
M  V30 19203 N 1745.64 1.48215 -0.535727 0
M  V30 19204 C 1746.88 2.025 -0.00372753 0
M  V30 19205 C 1747.21 1.41227 1.33735 0
M  V30 19206 O 1746.47 0.549544 1.87826 0
M  V30 19207 C 1746.77 3.57036 0.161344 0
M  V30 19208 C 1746.43 4.37122 -1.10611 0
M  V30 19209 C 1745.09 4.58724 -1.45346 0
M  V30 19210 C 1747.45 4.83469 -1.94698 0
M  V30 19211 C 1744.77 5.2392 -2.64055 0
M  V30 19212 C 1747.13 5.49973 -3.1259 0
M  V30 19213 C 1745.79 5.69812 -3.47664 0
M  V30 19214 H 1745.06 0.740999 -0.001364 0
M  V30 19215 H 1747.71 1.78133 -0.70291 0
M  V30 19216 H 1746.01 3.80274 0.943337 0
M  V30 19217 H 1747.71 3.96666 0.587981 0
M  V30 19218 H 1744.3 4.20573 -0.825608 0
M  V30 19219 H 1748.48 4.66577 -1.69173 0
M  V30 19220 H 1743.74 5.37477 -2.91424 0
M  V30 19221 H 1747.91 5.84852 -3.78049 0
M  V30 19222 H 1745.54 6.20103 -4.39746 0
M  V30 19223 N 1747.11 0.27113 1.5525 0
M  V30 19224 C 1748.06 -0.634087 2.2379 0
M  V30 19225 C 1749.06 -1.16101 1.23357 0
M  V30 19226 O 1750.26 -1.1151 1.413 0
M  V30 19227 H 1746.64 -0.223023 0.718168 0
M  V30 19228 H 1748.61 -0.0331304 2.98382 0
M  V30 19229 C 1747.36 -1.80879 2.96948 0
M  V30 19230 H 1746.68 -1.41252 3.74016 0
M  V30 19231 H 1748.12 -2.41888 3.48233 0
M  V30 19232 C 1746.58 -2.69481 2.02192 0
M  V30 19233 O 1747.11 -3.69725 1.57056 0
M  V30 19234 N 1745.32 -2.36565 1.68776 0
M  V30 19235 H 1744.86 -1.55096 2.05677 0
M  V30 19236 H 1744.82 -2.96119 1.05646 0
M  V30 19237 N 1748.59 -1.576 -0.00164943 0
M  V30 19238 C 1749.5 -2.11748 -1.00995 0
M  V30 19239 C 1750.52 -1.06235 -1.37805 0
M  V30 19240 O 1751.69 -1.38127 -1.4657 0
M  V30 19241 C 1748.76 -2.60869 -2.2836 0
M  V30 19242 C 1747.82 -3.80976 -1.97879 0
M  V30 19243 C 1747.05 -4.27745 -3.19171 0
M  V30 19244 O 1747.28 -3.73856 -4.30799 0
M  V30 19245 O 1746.21 -5.19917 -3.03265 0
M  V30 19246 H 1750.04 -2.98117 -0.579667 0
M  V30 19247 H 1747.62 -1.47766 -0.220375 0
M  V30 19248 H 1749.5 -2.9267 -3.03187 0
M  V30 19249 H 1748.18 -1.77598 -2.7063 0
M  V30 19250 H 1747.09 -3.54151 -1.20533 0
M  V30 19251 H 1748.42 -4.65315 -1.60447 0
M  V30 19252 N 1750.07 0.274379 -1.55193 0
M  V30 19253 C 1751.02 1.33913 -1.87978 0
M  V30 19254 C 1751.99 1.49142 -0.731149 0
M  V30 19255 O 1753.17 1.63572 -0.98229 0
M  V30 19256 C 1750.31 2.69464 -2.156 0
M  V30 19257 C 1749.43 2.62468 -3.43125 0
M  V30 19258 C 1748.56 3.90188 -3.60453 0
M  V30 19259 C 1747.6 3.77697 -4.81675 0
M  V30 19260 N 1746.74 4.97249 -4.95669 0
M  V30 19261 H 1751.58 1.05254 -2.78793 0
M  V30 19262 H 1749.11 0.508532 -1.3803 0
M  V30 19263 H 1751.07 3.48329 -2.29614 0
M  V30 19264 H 1749.7 2.96328 -1.28021 0
M  V30 19265 H 1748.75 1.7532 -3.3759 0
M  V30 19266 H 1750.07 2.49137 -4.32125 0
M  V30 19267 H 1749.22 4.77495 -3.74277 0
M  V30 19268 H 1747.96 4.06384 -2.69635 0
M  V30 19269 H 1746.96 2.88774 -4.67857 0
M  V30 19270 H 1748.19 3.63022 -5.73927 0
M  V30 19271 H 1746.13 5.13858 -4.07781 0
M  V30 19272 H 1746.05 4.86444 -5.78712 0
M  V30 19273 H 1747.32 5.86132 -5.13877 0
M  V30 19274 N 1751.55 1.48103 0.538828 0
M  V30 19275 C 1752.83 1.46155 1.29992 0
M  V30 19276 C 1753.21 0.16841 2.10427 0
M  V30 19277 O 1752.55 -0.849967 2.12103 0
M  V30 19278 C 1752.76 2.71826 2.18888 0
M  V30 19279 C 1754.11 3.19794 2.79315 0
M  V30 19280 O 1755.14 2.72681 2.2918 0
M  V30 19281 O 1753.99 4.0175 3.70485 0
M  V30 19282 H 1751.09 0.583293 0.586258 0
M  V30 19283 H 1753.63 1.60326 0.556212 0
M  V30 19284 H 1752.41 3.57462 1.59176 0
M  V30 19285 H 1752.03 2.60332 3.00521 0
M  V30 19286 N 1753.03 -0.787016 1.36542 0
M  V30 19287 C 1754.3 -1.53325 1.21452 0
M  V30 19288 C 1754.68 -2.10166 -0.198313 0
M  V30 19289 O 1754.03 -1.94192 -1.20422 0
M  V30 19290 C 1754.24 -2.62629 2.29841 0
M  V30 19291 C 1755.59 -3.30446 2.66628 0
M  V30 19292 O 1756.61 -2.72914 2.28903 0
M  V30 19293 O 1755.47 -4.34424 3.31569 0
M  V30 19294 H 1752.57 -0.678361 0.473028 0
M  V30 19295 H 1755.11 -0.825292 1.4828 0
M  V30 19296 H 1753.88 -2.18639 3.24519 0
M  V30 19297 H 1753.51 -3.41042 2.04393 0
M  V30 19298 N 1754.5 -1.20861 -1.01145 0
M  V30 19299 C 1755.45 -0.962085 -2.09792 0
M  V30 19300 C 1756.42 0.109588 -1.65738 0
M  V30 19301 O 1757.61 -0.0362022 -1.90766 0
M  V30 19302 C 1754.75 -0.52586 -3.4107 0
M  V30 19303 C 1753.86 -1.66626 -3.98572 0
M  V30 19304 C 1752.99 -1.17983 -5.17932 0
M  V30 19305 C 1752.03 -2.29298 -5.67529 0
M  V30 19306 N 1751.17 -1.81836 -6.78145 0
M  V30 19307 H 1756.01 -1.89222 -2.30215 0
M  V30 19308 H 1753.55 -0.943108 -1.12889 0
M  V30 19309 H 1755.51 -0.25423 -4.16425 0
M  V30 19310 H 1754.14 0.367275 -3.20704 0
M  V30 19311 H 1753.19 -2.05268 -3.20264 0
M  V30 19312 H 1754.5 -2.50426 -4.3138 0
M  V30 19313 H 1753.65 -0.864477 -6.0051 0
M  V30 19314 H 1752.39 -0.311793 -4.86702 0
M  V30 19315 H 1751.4 -2.61644 -4.83552 0
M  V30 19316 H 1752.62 -3.16587 -6.00791 0
M  V30 19317 H 1750.57 -0.973665 -6.48734 0
M  V30 19318 H 1750.49 -2.59213 -7.10172 0
M  V30 19319 H 1751.75 -1.53315 -7.64274 0
M  V30 19320 N 1755.98 1.20536 -1.01532 0
M  V30 19321 C 1757.23 1.89871 -0.70393 0
M  V30 19322 C 1757.56 1.78768 0.76631 0
M  V30 19323 O 1756.81 1.1653 1.57224 0
M  V30 19324 C 1757.11 3.40578 -1.08358 0
M  V30 19325 C 1756.78 3.71881 -2.54981 0
M  V30 19326 C 1755.44 3.80135 -2.95044 0
M  V30 19327 C 1757.79 3.86282 -3.49909 0
M  V30 19328 C 1755.12 4.00246 -4.28976 0
M  V30 19329 C 1757.47 4.07902 -4.83527 0
M  V30 19330 C 1756.14 4.14385 -5.23298 0
M  V30 19331 H 1755.41 0.694788 -0.257586 0
M  V30 19332 H 1758.05 1.42825 -1.27567 0
M  V30 19333 H 1756.36 3.89431 -0.430234 0
M  V30 19334 H 1758.05 3.92519 -0.820353 0
M  V30 19335 H 1754.64 3.66055 -2.22938 0
M  V30 19336 H 1758.83 3.79261 -3.20117 0
M  V30 19337 H 1754.08 4.03499 -4.59345 0
M  V30 19338 H 1758.26 4.17987 -5.5701 0
M  V30 19339 H 1755.89 4.29721 -6.27092 0
M  V30 19340 N 1757.46 0.791395 1.36289 0
M  V30 19341 C 1758.41 0.164218 2.27408 0
M  V30 19342 C 1759.39 -0.653018 1.47053 0
M  V30 19343 O 1760.59 -0.512767 1.6941 0
M  V30 19344 C 1757.72 -0.698551 3.36118 0
M  V30 19345 C 1756.8 0.127583 4.23908 0
M  V30 19346 N 1757.19 1.18307 4.91769 0
M  V30 19347 C 1755.49 -0.0932621 4.45902 0
M  V30 19348 C 1756.19 1.68616 5.56726 0
M  V30 19349 N 1755.17 0.995058 5.34415 0
M  V30 19350 H 1758.97 0.972045 2.7736 0
M  V30 19351 H 1756.48 0.63105 1.49638 0
M  V30 19352 H 1758.48 -1.16379 4.00327 0
M  V30 19353 H 1757.14 -1.5049 2.8772 0
M  V30 19354 H 1758.15 1.56553 4.93672 0
M  V30 19355 H 1754.83 -0.869962 4.08336 0
M  V30 19356 H 1756.22 2.56745 6.20912 0
M  V30 19357 N 1758.94 -1.47929 0.54358 0
M  V30 19358 C 1760.16 -2.07393 0.0168905 0
M  V30 19359 C 1760.59 -1.39557 -1.26117 0
M  V30 19360 O 1759.95 -0.465983 -1.75209 0
M  V30 19361 C 1760 -3.6017 -0.176105 0
M  V30 19362 O 1759.1 -3.9326 -1.24178 0
M  V30 19363 H 1758.44 -0.662459 0.0452126 0
M  V30 19364 H 1760.97 -1.90145 0.755376 0
M  V30 19365 H 1760.98 -4.06088 -0.394555 0
M  V30 19366 H 1759.66 -4.08944 0.757445 0
M  V30 19367 H 1758.23 -3.59105 -1.0049 0
M  V30 19368 N 1760.42 -0.27936 -1.55104 0
M  V30 19369 C 1761.67 0.335541 -1.99295 0
M  V30 19370 C 1761.99 1.56059 -1.16921 0
M  V30 19371 O 1761.26 1.9417 -0.259773 0
M  V30 19372 H 1759.84 0.126968 -0.736131 0
M  V30 19373 H 1762.5 -0.385679 -1.91046 0
M  V30 19374 H 1761.59 0.622493 -3.05829 0
M  V30 19375 N 1761.9 1.57599 -0.0067085 0
M  V30 19376 C 1763.12 1.95545 0.69115 0
M  V30 19377 C 1763.55 0.882014 1.66139 0
M  V30 19378 O 1762.9 -0.159242 1.80599 0
M  V30 19379 C 1762.95 3.3259 1.39342 0
M  V30 19380 O 1762.06 3.27368 2.50806 0
M  V30 19381 H 1761.4 0.638188 0.183336 0
M  V30 19382 H 1763.93 2.04506 -0.0618957 0
M  V30 19383 H 1763.94 3.6831 1.75532 0
M  V30 19384 H 1762.61 4.10269 0.682072 0
M  V30 19385 H 1761.19 3.03334 2.16894 0
M  V30 19386 N 1763.37 -0.266145 1.55336 0
M  V30 19387 C 1764.28 -1.35103 1.91793 0
M  V30 19388 C 1765.3 -1.5368 0.815985 0
M  V30 19389 O 1766.48 -1.67675 1.11567 0
M  V30 19390 C 1763.54 -2.68905 2.1884 0
M  V30 19391 C 1762.6 -2.59015 3.42359 0
M  V30 19392 C 1761.83 -3.86437 3.68106 0
M  V30 19393 O 1762.06 -4.87436 2.96247 0
M  V30 19394 O 1760.99 -3.86227 4.61641 0
M  V30 19395 H 1764.82 -1.07181 2.84158 0
M  V30 19396 H 1762.4 -0.465262 1.41971 0
M  V30 19397 H 1764.28 -3.48008 2.3763 0
M  V30 19398 H 1762.96 -2.96599 1.29656 0
M  V30 19399 H 1761.87 -1.78264 3.28896 0
M  V30 19400 H 1763.2 -2.3627 4.31784 0
M  V30 19401 N 1764.85 -1.48386 -0.530967 0
M  V30 19402 C 1765.76 -1.65516 -1.66257 0
M  V30 19403 C 1766.78 -0.5377 -1.65483 0
M  V30 19404 O 1767.95 -0.808642 -1.84453 0
M  V30 19405 C 1765.02 -1.68999 -3.02722 0
M  V30 19406 C 1764.08 -2.92365 -3.14358 0
M  V30 19407 C 1763.31 -2.95672 -4.44313 0
M  V30 19408 O 1763.54 -2.07417 -5.31352 0
M  V30 19409 O 1762.47 -3.87831 -4.60294 0
M  V30 19410 H 1766.3 -2.61321 -1.54742 0
M  V30 19411 H 1763.88 -1.31776 -0.703946 0
M  V30 19412 H 1765.76 -1.73816 -3.83883 0
M  V30 19413 H 1764.44 -0.763675 -3.14563 0
M  V30 19414 H 1763.34 -2.93081 -2.32496 0
M  V30 19415 H 1764.68 -3.84378 -3.07433 0
M  V30 19416 N 1766.33 0.779763 -1.36958 0
M  V30 19417 C 1767.75 1.07919 -1.17582 0
M  V30 19418 C 1767.95 2.01499 -0.00649229 0
M  V30 19419 O 1767 2.43832 0.655905 0
M  V30 19420 C 1768.31 1.68439 -2.49096 0
M  V30 19421 C 1769.86 1.80735 -2.55546 0
M  V30 19422 C 1770.34 2.44669 -3.87171 0
M  V30 19423 N 1771.83 2.52127 -3.88569 0
M  V30 19424 C 1772.56 3.02429 -4.87159 0
M  V30 19425 N 1772.06 3.52964 -5.96144 0
M  V30 19426 N 1773.85 3.0123 -4.7457 0
M  V30 19427 H 1766 0.158249 -2.1181 0
M  V30 19428 H 1768.27 0.132826 -0.938649 0
M  V30 19429 H 1767.97 1.07147 -3.34981 0
M  V30 19430 H 1767.85 2.67832 -2.65604 0
M  V30 19431 H 1770.23 2.41162 -1.70073 0
M  V30 19432 H 1770.31 0.801199 -2.42929 0
M  V30 19433 H 1769.96 1.84883 -4.73055 0
M  V30 19434 H 1769.89 3.45874 -3.97088 0
M  V30 19435 H 1772.38 2.16355 -3.09837 0
M  V30 19436 H 1772.69 3.89725 -6.67334 0
M  V30 19437 H 1771.04 3.5109 -5.998 0
M  V30 19438 H 1774.23 2.61045 -3.88553 0
M  V30 19439 H 1774.4 3.40122 -5.51562 0
M  V30 19440 N 1767.81 1.21396 1.00503 0
M  V30 19441 C 1769.06 1.02536 1.73693 0
M  V30 19442 C 1769.37 -0.441584 1.9055 0
M  V30 19443 O 1770.58 -0.749579 2.60947 0
M  V30 19444 C 1769.03 1.78602 3.12457 0
M  V30 19445 C 1768.64 3.29466 3.03573 0
M  V30 19446 C 1770.38 1.68149 3.89777 0
M  V30 19447 C 1768.29 3.98021 4.37416 0
M  V30 19448 H 1767.22 0.380052 0.651212 0
M  V30 19449 H 1769.87 1.4513 1.12292 0
M  V30 19450 H 1768.25 1.288 3.74468 0
M  V30 19451 H 1769.43 3.8657 2.50799 0
M  V30 19452 H 1767.74 3.4046 2.39741 0
M  V30 19453 H 1770.34 2.167 4.8882 0
M  V30 19454 H 1770.68 0.639716 4.11355 0
M  V30 19455 H 1771.22 2.15428 3.34418 0
M  V30 19456 H 1767.95 5.02401 4.21039 0
M  V30 19457 H 1767.47 3.45706 4.9015 0
M  V30 19458 H 1769.15 4.02932 5.06216 0
M  V30 19459 N 1769.29 -1.19996 1.0217 0
M  V30 19460 C 1770.7 -1.4154 0.737473 0
M  V30 19461 C 1770.9 -1.89649 -0.680832 0
M  V30 19462 O 1769.96 -2.06865 -1.44787 0
M  V30 19463 C 1771.27 -2.43269 1.76751 0
M  V30 19464 C 1772.82 -2.57027 1.78623 0
M  V30 19465 C 1773.29 -3.62003 2.80567 0
M  V30 19466 N 1774.78 -3.69492 2.79339 0
M  V30 19467 C 1775.52 -4.50391 3.54874 0
M  V30 19468 N 1775.02 -5.35053 4.40103 0
M  V30 19469 N 1776.81 -4.44972 3.43448 0
M  V30 19470 H 1768.96 -0.870855 1.93726 0
M  V30 19471 H 1771.22 -0.444866 0.837137 0
M  V30 19472 H 1770.93 -2.14927 2.78387 0
M  V30 19473 H 1770.8 -3.42336 1.58386 0
M  V30 19474 H 1773.19 -2.84695 0.776695 0
M  V30 19475 H 1773.27 -1.58138 2.01062 0
M  V30 19476 H 1772.91 -3.35078 3.81687 0
M  V30 19477 H 1772.84 -4.60526 2.55388 0
M  V30 19478 H 1775.34 -3.09021 2.17518 0
M  V30 19479 H 1775.65 -5.93881 4.94495 0
M  V30 19480 H 1773.99 -5.34538 4.44178 0
M  V30 19481 H 1777.18 -3.77869 2.76283 0
M  V30 19482 H 1777.36 -5.07782 4.02569 0
M  V30 19483 N 1770.76 -0.798611 -1.35867 0
M  V30 19484 C 1772.01 -0.375816 -1.99287 0
M  V30 19485 C 1772.34 1.05223 -1.63223 0
M  V30 19486 O 1771.62 1.72862 -0.891576 0
M  V30 19487 C 1771.9 -0.550197 -3.55872 0
M  V30 19488 C 1771.75 -2.0226 -4.0176 0
M  V30 19489 C 1773.07 0.0290862 -4.4009 0
M  V30 19490 H 1770.19 -0.138024 -0.72396 0
M  V30 19491 H 1772.83 -1.00666 -1.61141 0
M  V30 19492 H 1770.98 -0.0131739 -3.88498 0
M  V30 19493 H 1772.66 -2.62139 -3.7958 0
M  V30 19494 H 1770.9 -2.52191 -3.52962 0
M  V30 19495 H 1771.57 -2.09553 -5.10678 0
M  V30 19496 H 1774.05 -0.429444 -4.13878 0
M  V30 19497 H 1772.92 -0.122894 -5.48762 0
M  V30 19498 H 1773.18 1.12206 -4.27624 0
M  V30 19499 N 1772.24 1.47639 -0.551417 0
M  V30 19500 C 1773.47 2.06878 -0.0298904 0
M  V30 19501 C 1773.88 1.40493 1.26123 0
M  V30 19502 O 1773.24 0.499513 1.75531 0
M  V30 19503 C 1773.29 3.61074 0.175449 0
M  V30 19504 O 1773.01 4.2497 -1.06454 0
M  V30 19505 C 1774.51 4.37166 0.734919 0
M  V30 19506 H 1771.73 0.669607 -0.0432142 0
M  V30 19507 H 1774.28 1.89726 -0.763178 0
M  V30 19508 H 1772.43 3.7776 0.858848 0
M  V30 19509 H 1772.85 5.17424 -0.858644 0
M  V30 19510 H 1774.32 5.45756 0.827915 0
M  V30 19511 H 1774.8 4.03052 1.74486 0
M  V30 19512 H 1775.4 4.2521 0.0874045 0
M  V30 19513 N 1773.72 0.287581 1.54954 0
M  V30 19514 C 1774.97 -0.32561 1.99865 0
M  V30 19515 C 1775.3 -1.54921 1.176 0
M  V30 19516 O 1774.55 -1.94262 0.236802 0
M  V30 19517 C 1774.85 -0.739779 3.4966 0
M  V30 19518 C 1774.52 0.380573 4.49291 0
M  V30 19519 C 1773.18 0.688172 4.76254 0
M  V30 19520 C 1775.53 1.13489 5.08694 0
M  V30 19521 C 1772.86 1.75344 5.59885 0
M  V30 19522 C 1775.21 2.18998 5.93484 0
M  V30 19523 C 1773.87 2.50379 6.18762 0
M  V30 19524 H 1773.14 -0.119149 0.731358 0
M  V30 19525 H 1775.79 0.403889 1.87192 0
M  V30 19526 H 1774.1 -1.54915 3.59873 0
M  V30 19527 H 1775.79 -1.22518 3.81825 0
M  V30 19528 H 1772.38 0.130718 4.28401 0
M  V30 19529 H 1776.57 0.910505 4.87877 0
M  V30 19530 H 1771.82 2.00145 5.77713 0
M  V30 19531 H 1776 2.77913 6.38543 0
M  V30 19532 H 1773.62 3.33057 6.83357 0
M  V30 19533 N 1775.2 -1.57593 0.0150662 0
M  V30 19534 C 1776.11 -2.12807 -0.987437 0
M  V30 19535 C 1777.12 -1.07691 -1.3667 0
M  V30 19536 O 1778.3 -1.39674 -1.45097 0
M  V30 19537 C 1775.37 -2.63276 -2.2558 0
M  V30 19538 C 1774.43 -3.83053 -1.93827 0
M  V30 19539 C 1773.66 -4.31106 -3.14616 0
M  V30 19540 O 1773.88 -3.78405 -4.26809 0
M  V30 19541 O 1772.82 -5.23104 -2.97734 0
M  V30 19542 H 1776.64 -2.98715 -0.548015 0
M  V30 19543 H 1774.23 -1.47991 -0.20469 0
M  V30 19544 H 1776.11 -2.95869 -3.00066 0
M  V30 19545 H 1774.78 -1.80459 -2.68731 0
M  V30 19546 H 1773.69 -3.55409 -1.1677 0
M  V30 19547 H 1775.02 -4.6699 -1.55502 0
M  V30 19548 N 1776.68 0.257904 -1.55475 0
M  V30 19549 C 1778.09 0.605871 -1.47653 0
M  V30 19550 C 1778.29 1.88837 -0.703063 0
M  V30 19551 O 1777.35 2.51469 -0.227981 0
M  V30 19552 C 1778.66 0.718813 -2.91982 0
M  V30 19553 C 1780.21 0.81187 -3.02287 0
M  V30 19554 C 1780.68 0.956465 -4.47901 0
M  V30 19555 N 1782.18 1.02161 -4.51793 0
M  V30 19556 C 1782.91 1.15256 -5.61697 0
M  V30 19557 N 1782.41 1.24975 -6.81435 0
M  V30 19558 N 1784.2 1.18485 -5.4947 0
M  V30 19559 H 1776.35 -0.584154 -2.04209 0
M  V30 19560 H 1778.61 -0.200045 -0.926653 0
M  V30 19561 H 1778.32 -0.15335 -3.51366 0
M  V30 19562 H 1778.19 1.59429 -3.41851 0
M  V30 19563 H 1780.58 1.67449 -2.42991 0
M  V30 19564 H 1780.66 -0.0885307 -2.55647 0
M  V30 19565 H 1780.31 0.0984438 -5.07805 0
M  V30 19566 H 1780.24 1.87174 -4.92213 0
M  V30 19567 H 1782.73 0.958295 -3.65548 0
M  V30 19568 H 1783.04 1.34843 -7.60945 0
M  V30 19569 H 1781.38 1.21952 -6.84217 0
M  V30 19570 H 1784.58 1.10534 -4.54863 0
M  V30 19571 H 1784.75 1.28346 -6.35162 0
M  V30 19572 N 1778.15 1.48666 0.52309 0
M  V30 19573 C 1779.4 1.57267 1.28043 0
M  V30 19574 C 1779.73 0.248801 1.926 0
M  V30 19575 O 1779.01 -0.745814 1.79633 0
M  V30 19576 C 1779.29 2.71595 2.36449 0
M  V30 19577 C 1779.14 4.13708 1.76538 0
M  V30 19578 C 1780.46 2.81654 3.3817 0
M  V30 19579 H 1777.58 0.572455 0.464181 0
M  V30 19580 H 1780.22 1.80866 0.582013 0
M  V30 19581 H 1778.37 2.51604 2.9602 0
M  V30 19582 H 1780.05 4.45158 1.20964 0
M  V30 19583 H 1778.29 4.20386 1.07041 0
M  V30 19584 H 1778.96 4.89538 2.55062 0
M  V30 19585 H 1781.44 2.99784 2.88563 0
M  V30 19586 H 1780.31 3.63366 4.11408 0
M  V30 19587 H 1780.57 1.90093 3.99145 0
M  V30 19588 N 1779.63 -0.772489 1.37369 0
M  V30 19589 C 1780.54 -1.91679 1.35263 0
M  V30 19590 C 1781.56 -1.72161 0.252321 0
M  V30 19591 O 1782.73 -1.95409 0.487581 0
M  V30 19592 C 1779.8 -3.26792 1.15792 0
M  V30 19593 C 1778.86 -3.5897 2.35455 0
M  V30 19594 C 1778.09 -4.87636 2.16903 0
M  V30 19595 O 1778.32 -5.58627 1.15291 0
M  V30 19596 O 1777.25 -5.18859 3.05072 0
M  V30 19597 H 1781.08 -1.96408 2.31641 0
M  V30 19598 H 1778.66 -0.915136 1.18092 0
M  V30 19599 H 1780.54 -4.07611 1.06918 0
M  V30 19600 H 1779.22 -3.22918 0.224872 0
M  V30 19601 H 1778.13 -2.78389 2.49901 0
M  V30 19602 H 1779.46 -3.67586 3.27325 0
M  V30 19603 N 1781.11 -1.21927 -0.998575 0
M  V30 19604 C 1782.04 -0.942076 -2.08944 0
M  V30 19605 C 1783.06 0.0771683 -1.62617 0
M  V30 19606 O 1784.24 -0.156133 -1.77816 0
M  V30 19607 C 1781.34 -0.394201 -3.366 0
M  V30 19608 C 1780.52 -1.46931 -4.11983 0
M  V30 19609 C 1779.58 -0.929531 -5.17925 0
M  V30 19610 O 1778.6 -1.61444 -5.45824 0
M  V30 19611 N 1779.8 0.251965 -5.79953 0
M  V30 19612 H 1782.57 -1.88119 -2.33306 0
M  V30 19613 H 1780.13 -1.12539 -1.16389 0
M  V30 19614 H 1782.12 -0.0185416 -4.04696 0
M  V30 19615 H 1780.69 0.449884 -3.09346 0
M  V30 19616 H 1779.91 -2.01854 -3.38598 0
M  V30 19617 H 1781.2 -2.19284 -4.59121 0
M  V30 19618 H 1780.6 0.825333 -5.59647 0
M  V30 19619 H 1779.16 0.569068 -6.49311 0
M  V30 19620 N 1782.59 1.19452 -1.02805 0
M  V30 19621 C 1783.52 2.21405 -0.552712 0
M  V30 19622 C 1784.5 1.5745 0.405999 0
M  V30 19623 O 1785.68 1.85707 0.323296 0
M  V30 19624 C 1782.81 3.38143 0.194179 0
M  V30 19625 C 1781.86 4.2045 -0.715836 0
M  V30 19626 S 1782.69 4.88601 -2.19156 0
M  V30 19627 C 1783.85 6.08749 -1.45516 0
M  V30 19628 H 1784.08 2.61383 -1.41655 0
M  V30 19629 H 1781.61 1.29686 -0.837915 0
M  V30 19630 H 1783.57 4.05807 0.618972 0
M  V30 19631 H 1782.23 2.96602 1.03374 0
M  V30 19632 H 1781.42 5.03808 -0.139277 0
M  V30 19633 H 1781.03 3.581 -1.07891 0
M  V30 19634 H 1783.32 6.73432 -0.74131 0
M  V30 19635 H 1784.26 6.70887 -2.26531 0
M  V30 19636 H 1784.67 5.56397 -0.95302 0
M  V30 19637 N 1784.07 0.805805 1.35442 0
M  V30 19638 C 1785.31 0.391434 2.00617 0
M  V30 19639 C 1785.67 -1.022 1.6254 0
M  V30 19640 O 1786.87 -1.53834 2.20428 0
M  V30 19641 C 1785.14 0.568324 3.52852 0
M  V30 19642 S 1786.7 0.24426 4.3812 0
M  V30 19643 H 1783.52 0.148698 0.695277 0
M  V30 19644 H 1786.12 1.04788 1.65044 0
M  V30 19645 H 1784.83 1.59702 3.78052 0
M  V30 19646 H 1784.36 -0.103475 3.93264 0
M  V30 19647 H 1786.37 -0.948351 4.87053 0
M  V30 19648 N 1785.54 -1.47344 0.559239 0
M  V30 19649 C 1786.79 -2.01672 0.0337843 0
M  V30 19650 C 1787.11 -1.43883 -1.32503 0
M  V30 19651 O 1788.31 -1.89885 -1.94051 0
M  V30 19652 C 1786.77 -3.59899 0.00989925 0
M  V30 19653 C 1786.38 -4.2668 1.3656 0
M  V30 19654 C 1788.12 -4.21969 -0.462842 0
M  V30 19655 C 1786.03 -5.76919 1.30071 0
M  V30 19656 H 1784.96 -0.753948 0.00885972 0
M  V30 19657 H 1787.61 -1.69317 0.707394 0
M  V30 19658 H 1785.99 -3.89225 -0.729399 0
M  V30 19659 H 1787.16 -4.08993 2.12277 0
M  V30 19660 H 1785.48 -3.76605 1.77644 0
M  V30 19661 H 1788.08 -5.32069 -0.529816 0
M  V30 19662 H 1788.42 -3.89283 -1.47528 0
M  V30 19663 H 1788.95 -3.97182 0.221661 0
M  V30 19664 H 1785.69 -6.14227 2.28921 0
M  V30 19665 H 1785.21 -5.96937 0.585375 0
M  V30 19666 H 1786.89 -6.39168 1.00364 0
M  V30 19667 N 1787.02 -0.295795 -1.54799 0
M  V30 19668 C 1787.95 0.616191 -2.20762 0
M  V30 19669 C 1788.97 1.10157 -1.19872 0
M  V30 19670 O 1790.16 1.01992 -1.46492 0
M  V30 19671 C 1787.26 1.85497 -2.83627 0
M  V30 19672 C 1786.43 1.51295 -4.10401 0
M  V30 19673 C 1785.49 2.60633 -4.57118 0
M  V30 19674 O 1784.51 2.25945 -5.22434 0
M  V30 19675 N 1785.72 3.91078 -4.28997 0
M  V30 19676 H 1788.48 0.0515252 -2.99656 0
M  V30 19677 H 1786.04 -0.11777 -1.61471 0
M  V30 19678 H 1788.03 2.57979 -3.11816 0
M  V30 19679 H 1786.6 2.32816 -2.08604 0
M  V30 19680 H 1785.82 0.621 -3.89278 0
M  V30 19681 H 1787.11 1.25974 -4.92958 0
M  V30 19682 H 1786.51 4.22072 -3.76659 0
M  V30 19683 H 1785.07 4.59875 -4.61907 0
M  V30 19684 N 1788.5 1.57583 -0.0234236 0
M  V30 19685 C 1789.75 1.90742 0.655764 0
M  V30 19686 C 1790.06 0.900914 1.73617 0
M  V30 19687 O 1791.27 1.12355 2.47161 0
M  V30 19688 C 1789.73 3.38676 1.21763 0
M  V30 19689 C 1789.33 4.47674 0.170811 0
M  V30 19690 C 1791.08 3.80912 1.87366 0
M  V30 19691 C 1788.98 5.86702 0.743996 0
M  V30 19692 H 1787.91 0.711803 0.248701 0
M  V30 19693 H 1790.57 1.8329 -0.0877955 0
M  V30 19694 H 1788.95 3.41042 2.01262 0
M  V30 19695 H 1790.12 4.5686 -0.601298 0
M  V30 19696 H 1788.44 4.14606 -0.386127 0
M  V30 19697 H 1791.03 4.82133 2.31197 0
M  V30 19698 H 1791.38 3.15669 2.71402 0
M  V30 19699 H 1791.91 3.80945 1.14566 0
M  V30 19700 H 1788.65 6.55474 -0.0580976 0
M  V30 19701 H 1788.17 5.81133 1.48472 0
M  V30 19702 H 1789.85 6.35094 1.23549 0
M  V30 19703 N 1789.98 -0.249655 1.5561 0
M  V30 19704 C 1790.93 -1.30906 1.90085 0
M  V30 19705 C 1791.9 -1.4796 0.754784 0
M  V30 19706 O 1793.08 -1.61988 1.00819 0
M  V30 19707 C 1790.22 -2.66 2.19859 0
M  V30 19708 C 1789.33 -2.56976 3.47257 0
M  V30 19709 C 1788.47 -3.84404 3.66615 0
M  V30 19710 C 1787.51 -3.69986 4.87623 0
M  V30 19711 N 1786.65 -4.89301 5.03517 0
M  V30 19712 H 1791.49 -1.00805 2.80432 0
M  V30 19713 H 1789.02 -0.486509 1.38822 0
M  V30 19714 H 1790.98 -3.44632 2.35126 0
M  V30 19715 H 1789.61 -2.94254 1.32719 0
M  V30 19716 H 1788.66 -1.69927 3.40337 0
M  V30 19717 H 1789.97 -2.42231 4.36034 0
M  V30 19718 H 1789.13 -4.7148 3.81826 0
M  V30 19719 H 1787.87 -4.02043 2.76066 0
M  V30 19720 H 1786.87 -2.81294 4.72391 0
M  V30 19721 H 1788.1 -3.53845 5.7963 0
M  V30 19722 H 1786.04 -5.07306 4.15905 0
M  V30 19723 H 1785.96 -4.77176 5.86378 0
M  V30 19724 H 1787.23 -5.77883 5.23137 0
M  V30 19725 N 1791.46 -1.48941 -0.515198 0
M  V30 19726 C 1792.37 -1.67271 -1.64492 0
M  V30 19727 C 1793.38 -0.555222 -1.64904 0
M  V30 19728 O 1794.56 -0.828161 -1.83585 0
M  V30 19729 C 1791.62 -1.722 -3.00912 0
M  V30 19730 C 1790.69 -2.95683 -3.11239 0
M  V30 19731 C 1789.92 -3.00368 -4.41152 0
M  V30 19732 O 1790.14 -2.13041 -5.29122 0
M  V30 19733 O 1789.08 -3.92691 -4.56155 0
M  V30 19734 H 1792.9 -2.62947 -1.51962 0
M  V30 19735 H 1790.49 -1.32515 -0.68993 0
M  V30 19736 H 1792.37 -1.77877 -3.82018 0
M  V30 19737 H 1791.04 -0.796995 -3.13735 0
M  V30 19738 H 1789.95 -2.95531 -2.29374 0
M  V30 19739 H 1791.28 -3.87617 -3.03338 0
M  V30 19740 N 1792.94 0.765193 -1.37777 0
M  V30 19741 C 1794.18 1.52623 -1.33545 0
M  V30 19742 C 1794.51 1.94043 0.077992 0
M  V30 19743 O 1793.79 1.64566 1.03673 0
M  V30 19744 C 1794.07 2.78679 -2.28057 0
M  V30 19745 C 1793.93 2.43471 -3.78209 0
M  V30 19746 C 1795.24 3.80646 -2.20899 0
M  V30 19747 H 1792.36 0.553678 -0.486425 0
M  V30 19748 H 1795.01 0.877326 -1.68532 0
M  V30 19749 H 1793.16 3.3405 -1.9835 0
M  V30 19750 H 1794.83 1.93965 -4.1854 0
M  V30 19751 H 1793.07 1.76081 -3.96457 0
M  V30 19752 H 1793.74 3.33609 -4.39783 0
M  V30 19753 H 1796.22 3.34786 -2.47099 0
M  V30 19754 H 1795.09 4.6656 -2.89159 0
M  V30 19755 H 1795.35 4.25389 -1.20403 0
M  V30 19756 N 1794.41 1.22455 0.992094 0
M  V30 19757 C 1795.66 1.04752 1.72833 0
M  V30 19758 C 1795.98 -0.418152 1.90464 0
M  V30 19759 O 1795.25 -1.30072 1.46486 0
M  V30 19760 H 1793.83 0.384626 0.640368 0
M  V30 19761 H 1796.49 1.5398 1.19483 0
M  V30 19762 H 1795.59 1.52601 2.72249 0
M  V30 19763 N 1795.89 -1.18905 1.03437 0
M  V30 19764 C 1797.17 -1.84537 0.648503 0
M  V30 19765 C 1797.55 -1.92228 -0.872445 0
M  V30 19766 O 1796.9 -1.44342 -1.77137 0
M  V30 19767 C 1797.11 -3.23198 1.31698 0
M  V30 19768 C 1798.45 -3.99301 1.44374 0
M  V30 19769 O 1799.48 -3.32615 1.27458 0
M  V30 19770 O 1798.34 -5.18767 1.7188 0
M  V30 19771 H 1795.43 -0.795488 0.226114 0
M  V30 19772 H 1797.98 -1.2635 1.13287 0
M  V30 19773 H 1796.75 -3.12466 2.35543 0
M  V30 19774 H 1796.37 -3.89035 0.820829 0
M  V30 19775 N 1797.37 -0.812977 -1.35013 0
M  V30 19776 C 1798.79 -0.497497 -1.51648 0
M  V30 19777 C 1798.99 0.980162 -1.76054 0
M  V30 19778 O 1798.04 1.76498 -1.80567 0
M  V30 19779 C 1799.35 -1.3484 -2.68772 0
M  V30 19780 C 1800.9 -1.3445 -2.82652 0
M  V30 19781 C 1801.38 -2.17966 -4.02808 0
M  V30 19782 N 1802.87 -2.15537 -4.09998 0
M  V30 19783 C 1803.6 -2.76912 -5.02103 0
M  V30 19784 N 1803.1 -3.47239 -5.99497 0
M  V30 19785 N 1804.89 -2.66519 -4.94898 0
M  V30 19786 H 1797.04 -1.76987 -1.17429 0
M  V30 19787 H 1799.31 -0.753654 -0.575073 0
M  V30 19788 H 1799.01 -2.39732 -2.57336 0
M  V30 19789 H 1798.89 -1.0061 -3.63535 0
M  V30 19790 H 1801.27 -0.303409 -2.93536 0
M  V30 19791 H 1801.35 -1.72671 -1.88728 0
M  V30 19792 H 1801 -3.2212 -3.92685 0
M  V30 19793 H 1800.93 -1.77102 -4.95926 0
M  V30 19794 H 1803.42 -1.64373 -3.40279 0
M  V30 19795 H 1803.73 -3.91341 -6.66387 0
M  V30 19796 H 1802.08 -3.51344 -5.99652 0
M  V30 19797 H 1805.27 -2.1116 -4.17767 0
M  V30 19798 H 1805.44 -3.14639 -5.66486 0
M  V30 19799 N 1798.85 1.47045 -0.567045 0
M  V30 19800 C 1800.09 2.02746 -0.046749 0
M  V30 19801 C 1800.43 1.4394 1.30364 0
M  V30 19802 O 1799.7 0.598616 1.85059 0
M  V30 19803 C 1799.98 3.60082 0.0358156 0
M  V30 19804 C 1799.84 4.29302 -1.34237 0
M  V30 19805 C 1801.16 4.3376 0.744338 0
M  V30 19806 H 1798.28 0.736769 -0.0184627 0
M  V30 19807 H 1800.92 1.75365 -0.73123 0
M  V30 19808 H 1799.07 3.83541 0.618745 0
M  V30 19809 H 1800.74 4.17155 -1.96926 0
M  V30 19810 H 1798.98 3.89273 -1.91439 0
M  V30 19811 H 1799.65 5.37956 -1.23722 0
M  V30 19812 H 1802.13 4.15353 0.249287 0
M  V30 19813 H 1801.01 5.43457 0.771095 0
M  V30 19814 H 1801.27 4.03686 1.80249 0
M  V30 19815 N 1800.33 0.304 1.5464 0
M  V30 19816 C 1801.27 -0.586475 2.25085 0
M  V30 19817 C 1802.27 -1.13458 1.25792 0
M  V30 19818 O 1803.47 -1.08487 1.43633 0
M  V30 19819 H 1799.85 -0.20774 0.722737 0
M  V30 19820 H 1801.82 0.0301682 2.98385 0
M  V30 19821 C 1800.57 -1.74539 3.00718 0
M  V30 19822 H 1799.89 -1.33287 3.76928 0
M  V30 19823 H 1801.33 -2.34447 3.53285 0
M  V30 19824 C 1799.79 -2.65132 2.07862 0
M  V30 19825 O 1800.32 -3.6631 1.64863 0
M  V30 19826 N 1798.53 -2.32932 1.73756 0
M  V30 19827 H 1798.07 -1.50698 2.08921 0
M  V30 19828 H 1798.03 -2.93811 1.11904 0
M  V30 19829 N 1801.8 -1.57568 0.0317802 0
M  V30 19830 C 1803.03 -1.95927 -0.655449 0
M  V30 19831 C 1803.44 -0.907011 -1.66042 0
M  V30 19832 O 1802.78 0.119389 -1.83312 0
M  V30 19833 C 1802.85 -3.30441 -1.41595 0
M  V30 19834 C 1802.51 -4.53444 -0.569009 0
M  V30 19835 C 1803.51 -5.19663 0.156812 0
M  V30 19836 C 1801.19 -4.99749 -0.505629 0
M  V30 19837 C 1803.19 -6.3051 0.934657 0
M  V30 19838 C 1800.87 -6.10477 0.275919 0
M  V30 19839 C 1801.87 -6.75717 0.994766 0
M  V30 19840 O 1801.56 -7.84319 1.7635 0
M  V30 19841 H 1801.29 -0.650077 -0.185408 0
M  V30 19842 H 1803.85 -2.05209 0.0886364 0
M  V30 19843 H 1802.08 -3.17658 -2.20523 0
M  V30 19844 H 1803.76 -3.53684 -1.99154 0
M  V30 19845 H 1804.53 -4.84858 0.117196 0
M  V30 19846 H 1800.41 -4.48772 -1.05472 0
M  V30 19847 H 1803.95 -6.81365 1.49626 0
M  V30 19848 H 1799.85 -6.4472 0.317242 0
M  V30 19849 H 1800.62 -8.00999 1.68355 0
M  V30 19850 N 1803.28 0.241399 -1.5574 0
M  V30 19851 C 1804.53 0.966607 -1.7703 0
M  V30 19852 C 1804.84 1.86275 -0.59673 0
M  V30 19853 O 1806.05 2.62513 -0.692775 0
M  V30 19854 C 1804.51 1.7688 -3.13435 0
M  V30 19855 C 1804.11 0.919775 -4.38457 0
M  V30 19856 C 1805.86 2.48641 -3.44061 0
M  V30 19857 C 1803.77 1.71817 -5.65891 0
M  V30 19858 H 1802.7 0.364644 -0.659963 0
M  V30 19859 H 1805.35 0.221088 -1.82163 0
M  V30 19860 H 1803.73 2.55648 -3.02424 0
M  V30 19861 H 1804.9 0.174036 -4.60471 0
M  V30 19862 H 1803.22 0.315234 -4.15205 0
M  V30 19863 H 1805.81 3.08839 -4.36489 0
M  V30 19864 H 1806.16 3.20534 -2.65638 0
M  V30 19865 H 1806.69 1.7688 -3.56312 0
M  V30 19866 H 1803.43 1.04289 -6.47151 0
M  V30 19867 H 1802.95 2.43905 -5.47969 0
M  V30 19868 H 1804.63 2.28392 -6.05348 0
M  V30 19869 N 1804.76 1.49212 0.507292 0
M  V30 19870 C 1805.71 1.65417 1.60953 0
M  V30 19871 C 1806.68 0.495737 1.5853 0
M  V30 19872 O 1807.86 0.722002 1.76612 0
M  V30 19873 C 1805 1.72095 2.99128 0
M  V30 19874 C 1804.12 2.99199 3.11615 0
M  V30 19875 C 1803.25 2.96895 4.40485 0
M  V30 19876 C 1802.29 4.18607 4.46581 0
M  V30 19877 N 1801.43 4.14248 5.66871 0
M  V30 19878 H 1806.27 2.59535 1.46444 0
M  V30 19879 H 1803.8 1.28687 0.712609 0
M  V30 19880 H 1805.76 1.73947 3.79207 0
M  V30 19881 H 1804.39 0.814484 3.12356 0
M  V30 19882 H 1803.44 3.06988 2.24639 0
M  V30 19883 H 1804.76 3.89192 3.11979 0
M  V30 19884 H 1803.91 2.97275 5.28878 0
M  V30 19885 H 1802.65 2.0467 4.42675 0
M  V30 19886 H 1801.65 4.18477 3.56591 0
M  V30 19887 H 1802.88 5.12017 4.46112 0
M  V30 19888 H 1800.82 3.24857 5.69916 0
M  V30 19889 H 1800.74 4.97969 5.68826 0
M  V30 19890 H 1802.01 4.18722 6.57489 0
M  V30 19891 N 1806.24 -0.757876 1.38181 0
M  V30 19892 C 1807.65 -1.06035 1.19284 0
M  V30 19893 C 1807.85 -2.01463 0.0385482 0
M  V30 19894 O 1806.91 -2.44845 -0.61703 0
M  V30 19895 C 1808.22 -1.64455 2.51744 0
M  V30 19896 C 1809.77 -1.76646 2.58389 0
M  V30 19897 C 1810.25 -2.38478 3.91014 0
M  V30 19898 N 1811.74 -2.45914 3.92531 0
M  V30 19899 C 1812.47 -2.94641 4.91909 0
M  V30 19900 N 1811.97 -3.43435 6.01684 0
M  V30 19901 N 1813.76 -2.93642 4.79303 0
M  V30 19902 H 1805.91 -0.124532 2.12035 0
M  V30 19903 H 1808.18 -0.117876 0.940643 0
M  V30 19904 H 1807.88 -1.01804 3.36644 0
M  V30 19905 H 1807.76 -2.63573 2.69832 0
M  V30 19906 H 1810.14 -2.38426 1.73888 0
M  V30 19907 H 1810.22 -0.762449 2.44173 0
M  V30 19908 H 1809.87 -1.77334 4.75936 0
M  V30 19909 H 1809.8 -3.39513 4.0254 0
M  V30 19910 H 1812.29 -2.11398 3.1324 0
M  V30 19911 H 1812.6 -3.79059 6.73449 0
M  V30 19912 H 1810.95 -3.41504 6.0531 0
M  V30 19913 H 1814.14 -2.5483 3.92657 0
M  V30 19914 H 1814.31 -3.31304 5.56903 0
M  V30 19915 N 1807.72 -1.22979 -0.985586 0
M  V30 19916 C 1808.94 -1.08615 -1.76685 0
M  V30 19917 C 1809.37 0.35859 -1.8465 0
M  V30 19918 O 1808.72 1.25924 -1.30433 0
M  V30 19919 C 1808.77 -1.71039 -3.17456 0
M  V30 19920 O 1807.88 -0.969018 -4.00854 0
M  V30 19921 H 1807.22 -0.38103 -0.543794 0
M  V30 19922 H 1809.75 -1.62927 -1.23757 0
M  V30 19923 H 1809.76 -1.76064 -3.68056 0
M  V30 19924 H 1808.43 -2.76168 -3.10973 0
M  V30 19925 H 1807.01 -0.995318 -3.59371 0
M  V30 19926 N 1809.19 1.18355 -1.04066 0
M  V30 19927 C 1810.12 2.24196 -0.652568 0
M  V30 19928 C 1811.11 1.66581 0.344195 0
M  V30 19929 O 1812.29 1.929 0.224296 0
M  V30 19930 C 1809.42 3.47297 -0.0147409 0
M  V30 19931 C 1808.37 4.17661 -0.935044 0
M  V30 19932 C 1807.7 5.34455 -0.161692 0
M  V30 19933 C 1809 4.71153 -2.25415 0
M  V30 19934 H 1810.69 2.56914 -1.53738 0
M  V30 19935 H 1808.24 1.23492 -0.740658 0
M  V30 19936 H 1810.19 4.20544 0.268484 0
M  V30 19937 H 1808.92 3.13812 0.904949 0
M  V30 19938 H 1807.58 3.46312 -1.20265 0
M  V30 19939 H 1807.22 4.97219 0.760404 0
M  V30 19940 H 1806.92 5.82469 -0.774805 0
M  V30 19941 H 1808.45 6.10493 0.114515 0
M  V30 19942 H 1809.86 5.36095 -2.03163 0
M  V30 19943 H 1808.26 5.29701 -2.82022 0
M  V30 19944 H 1809.33 3.88576 -2.90064 0
M  V30 19945 N 1810.67 0.820125 1.3458 0
M  V30 19946 C 1811.6 0.197556 2.28347 0
M  V30 19947 C 1812.62 -0.610956 1.50901 0
M  V30 19948 O 1813.81 -0.441096 1.72964 0
M  V30 19949 C 1810.91 -0.741893 3.3068 0
M  V30 19950 C 1810.08 0.0231854 4.37394 0
M  V30 19951 C 1809.14 -0.83677 5.19504 0
M  V30 19952 O 1808.16 -0.282772 5.68497 0
M  V30 19953 N 1809.37 -2.15696 5.38939 0
M  V30 19954 H 1812.13 1.00314 2.82413 0
M  V30 19955 H 1809.69 0.676827 1.47074 0
M  V30 19956 H 1811.68 -1.32173 3.82508 0
M  V30 19957 H 1810.25 -1.44823 2.77029 0
M  V30 19958 H 1809.47 0.784316 3.86319 0
M  V30 19959 H 1810.76 0.549958 5.05819 0
M  V30 19960 H 1810.16 -2.63083 5.00803 0
M  V30 19961 H 1808.72 -2.68572 5.93896 0
M  V30 19962 N 1812.15 -1.46743 0.574835 0
M  V30 19963 C 1813.38 -2.07311 0.0608779 0
M  V30 19964 C 1813.8 -1.422 -1.23129 0
M  V30 19965 O 1813.16 -0.503042 -1.74181 0
M  V30 19966 C 1813.21 -3.60462 -0.0996676 0
M  V30 19967 O 1812.31 -3.95806 -1.15808 0
M  V30 19968 H 1811.65 -0.661351 0.0592542 0
M  V30 19969 H 1814.18 -1.885 0.795538 0
M  V30 19970 H 1814.19 -4.06833 -0.308329 0
M  V30 19971 H 1812.87 -4.07246 0.844018 0
M  V30 19972 H 1811.44 -3.61155 -0.928504 0
M  V30 19973 N 1813.63 -0.312197 -1.54477 0
M  V30 19974 C 1814.56 0.551829 -2.26886 0
M  V30 19975 C 1815.54 1.12874 -1.27254 0
M  V30 19976 O 1816.72 1.15599 -1.56046 0
M  V30 19977 C 1813.85 1.71839 -3.01809 0
M  V30 19978 C 1812.81 1.27131 -4.08683 0
M  V30 19979 C 1812.13 2.52392 -4.71384 0
M  V30 19980 C 1813.43 0.394413 -5.20809 0
M  V30 19981 H 1815.13 -0.0521331 -2.99355 0
M  V30 19982 H 1812.67 -0.0265138 -1.43976 0
M  V30 19983 H 1814.63 2.32903 -3.5119 0
M  V30 19984 H 1813.35 2.34876 -2.26938 0
M  V30 19985 H 1812.01 0.683666 -3.60169 0
M  V30 19986 H 1811.66 3.13768 -3.93139 0
M  V30 19987 H 1811.36 2.23174 -5.43569 0
M  V30 19988 H 1812.88 3.14239 -5.23533 0
M  V30 19989 H 1814.3 0.911031 -5.66015 0
M  V30 19990 H 1812.69 0.195517 -5.99781 0
M  V30 19991 H 1813.76 -0.577661 -4.81447 0
M  V30 19992 N 1815.11 1.57549 -0.040136 0
M  V30 19993 C 1816.38 1.83571 0.675355 0
M  V30 19994 C 1816.76 0.926313 1.89691 0
M  V30 19995 O 1816.11 -0.0153869 2.28495 0
M  V30 19996 C 1816.32 3.33046 1.04313 0
M  V30 19997 C 1817.67 3.99791 1.43011 0
M  V30 19998 O 1818.69 3.37607 1.13579 0
M  V30 19999 O 1817.55 5.09412 1.97893 0
M  V30 20000 H 1814.65 0.75729 0.332325 0
M  V30 20001 H 1817.19 1.69561 -0.0686584 0
M  V30 20002 H 1815.96 3.90912 0.174189 0
M  V30 20003 H 1815.59 3.52203 1.84495 0
M  V30 20004 N 1816.58 -0.233136 1.55866 0
M  V30 20005 C 1817.81 -0.980602 1.82754 0
M  V30 20006 C 1818.23 -1.77624 0.618988 0
M  V30 20007 O 1817.59 -1.76074 -0.432148 0
M  V30 20008 C 1817.64 -1.88319 3.07519 0
M  V30 20009 O 1816.74 -2.97692 2.85401 0
M  V30 20010 H 1816.09 -0.278295 0.602867 0
M  V30 20011 H 1818.62 -0.249956 2.03067 0
M  V30 20012 H 1818.63 -2.29523 3.37318 0
M  V30 20013 H 1817.3 -1.29831 3.95116 0
M  V30 20014 H 1815.88 -2.60517 2.66805 0
M  V30 20015 N 1818.06 -1.49479 -0.499372 0
M  V30 20016 C 1819 -1.6239 -1.61748 0
M  V30 20017 C 1820.01 -0.506515 -1.5472 0
M  V30 20018 O 1821.2 -0.778629 -1.60623 0
M  V30 20019 C 1818.3 -1.56611 -3.00543 0
M  V30 20020 C 1817.47 -2.83909 -3.32738 0
M  V30 20021 C 1816.53 -2.7116 -4.50953 0
M  V30 20022 O 1815.56 -3.45097 -4.52656 0
M  V30 20023 N 1816.76 -1.82815 -5.50962 0
M  V30 20024 H 1819.52 -2.58823 -1.51099 0
M  V30 20025 H 1817.08 -1.46588 -0.687277 0
M  V30 20026 H 1819.08 -1.45734 -3.7755 0
M  V30 20027 H 1817.65 -0.68029 -3.05108 0
M  V30 20028 H 1816.87 -3.09125 -2.44613 0
M  V30 20029 H 1818.15 -3.68299 -3.51046 0
M  V30 20030 H 1817.55 -1.22005 -5.52387 0
M  V30 20031 H 1816.11 -1.77859 -6.27064 0
M  V30 20032 N 1819.54 0.750537 -1.38581 0
M  V30 20033 C 1820.79 1.50512 -1.34272 0
M  V30 20034 C 1821.1 1.95496 0.0636858 0
M  V30 20035 O 1822.31 2.7053 0.22932 0
M  V30 20036 C 1820.77 2.71891 -2.35803 0
M  V30 20037 C 1820.37 2.3392 -3.8208 0
M  V30 20038 C 1822.12 3.4977 -2.40543 0
M  V30 20039 C 1820.02 3.51928 -4.7529 0
M  V30 20040 H 1818.95 0.56515 -0.49912 0
M  V30 20041 H 1821.61 0.820167 -1.64151 0
M  V30 20042 H 1819.99 3.42383 -1.98972 0
M  V30 20043 H 1821.16 1.71075 -4.27867 0
M  V30 20044 H 1819.48 1.69168 -3.80488 0
M  V30 20045 H 1822.07 4.37519 -3.07379 0
M  V30 20046 H 1822.42 3.91141 -1.42527 0
M  V30 20047 H 1822.95 2.86294 -2.76189 0
M  V30 20048 H 1819.69 3.15621 -5.74512 0
M  V30 20049 H 1819.21 4.13807 -4.34194 0
M  V30 20050 H 1820.89 4.1847 -4.93449 0
M  V30 20051 N 1821.02 1.235 0.979051 0
M  V30 20052 C 1822.27 1.0658 1.71713 0
M  V30 20053 C 1822.59 -0.397927 1.90897 0
M  V30 20054 O 1821.86 -1.28511 1.47857 0
M  V30 20055 H 1820.44 0.391397 0.636253 0
M  V30 20056 H 1823.1 1.55239 1.17843 0
M  V30 20057 H 1822.2 1.5548 2.70615 0
M  V30 20058 N 1822.5 -1.17802 1.04693 0
M  V30 20059 C 1823.45 -2.19584 0.613744 0
M  V30 20060 C 1824.43 -1.57111 -0.34713 0
M  V30 20061 O 1825.62 -1.76228 -0.16517 0
M  V30 20062 C 1822.75 -3.43297 -0.0152847 0
M  V30 20063 C 1821.84 -4.12879 0.969114 0
M  V30 20064 N 1822.23 -4.58364 2.13859 0
M  V30 20065 C 1820.53 -4.3883 0.796487 0
M  V30 20066 C 1821.23 -5.12003 2.76094 0
M  V30 20067 N 1820.2 -5.039 2.03926 0
M  V30 20068 H 1824.01 -2.5245 1.50486 0
M  V30 20069 H 1821.52 -1.34076 0.916373 0
M  V30 20070 H 1823.52 -4.15484 -0.343354 0
M  V30 20071 H 1822.18 -3.11924 -0.901858 0
M  V30 20072 H 1823.19 -4.52613 2.51718 0
M  V30 20073 H 1819.87 -4.17481 -0.0394627 0
M  V30 20074 H 1821.26 -5.57355 3.7524 0
M  V30 20075 N 1823.98 -0.827251 -1.34143 0
M  V30 20076 C 1824.91 -0.267015 -2.31968 0
M  V30 20077 C 1825.89 0.618906 -1.58441 0
M  V30 20078 O 1827.07 0.544882 -1.86399 0
M  V30 20079 C 1824.2 0.568379 -3.42617 0
M  V30 20080 C 1823.16 -0.220767 -4.2743 0
M  V30 20081 C 1822.48 0.737643 -5.29587 0
M  V30 20082 C 1823.78 -1.43137 -5.02304 0
M  V30 20083 H 1825.48 -1.08436 -2.79073 0
M  V30 20084 H 1823.02 -0.522879 -1.34171 0
M  V30 20085 H 1824.97 0.970525 -4.10072 0
M  V30 20086 H 1823.7 1.41882 -2.94172 0
M  V30 20087 H 1822.36 -0.604333 -3.61585 0
M  V30 20088 H 1822.01 1.58416 -4.77403 0
M  V30 20089 H 1821.71 0.213815 -5.87211 0
M  V30 20090 H 1823.23 1.13755 -5.9991 0
M  V30 20091 H 1824.64 -1.10301 -5.62589 0
M  V30 20092 H 1823.04 -1.89115 -5.69522 0
M  V30 20093 H 1824.11 -2.2073 -4.31748 0
M  V30 20094 N 1825.45 1.46436 -0.582609 0
M  V30 20095 C 1826.39 2.28423 0.188509 0
M  V30 20096 C 1827.4 1.38506 0.855565 0
M  V30 20097 O 1828.59 1.63107 0.725145 0
M  V30 20098 C 1825.69 3.13537 1.28639 0
M  V30 20099 C 1824.86 4.31578 0.711275 0
M  V30 20100 C 1823.92 4.9809 1.69685 0
M  V30 20101 O 1822.95 5.55686 1.23294 0
M  V30 20102 N 1824.15 4.95091 3.03093 0
M  V30 20103 H 1826.91 2.95244 -0.514896 0
M  V30 20104 H 1824.47 1.56347 -0.420374 0
M  V30 20105 H 1826.47 3.54897 1.94499 0
M  V30 20106 H 1825.04 2.48792 1.89266 0
M  V30 20107 H 1824.26 3.94002 -0.124784 0
M  V30 20108 H 1825.54 5.07874 0.306822 0
M  V30 20109 H 1824.94 4.49542 3.43407 0
M  V30 20110 H 1823.5 5.40393 3.64443 0
M  V30 20111 N 1826.93 0.320385 1.54309 0
M  V30 20112 C 1828.21 -0.337248 1.92671 0
M  V30 20113 C 1828.59 -1.70137 1.24967 0
M  V30 20114 O 1827.94 -2.25108 0.39224 0
M  V30 20115 C 1828.15 -0.432633 3.46308 0
M  V30 20116 C 1829.49 -0.694413 4.18883 0
M  V30 20117 O 1830.52 -0.515681 3.52447 0
M  V30 20118 O 1829.38 -1.039 5.36532 0
M  V30 20119 H 1826.47 -0.191985 0.804407 0
M  V30 20120 H 1829.02 0.369866 1.6562 0
M  V30 20121 H 1827.79 0.525553 3.87755 0
M  V30 20122 H 1827.41 -1.18745 3.79454 0
M  V30 20123 N 1828.41 -1.57525 0.0484906 0
M  V30 20124 C 1829.34 -2.14405 -0.924811 0
M  V30 20125 C 1830.32 -1.06503 -1.32631 0
M  V30 20126 O 1831.51 -1.3443 -1.4015 0
M  V30 20127 C 1828.64 -2.68686 -2.20057 0
M  V30 20128 C 1827.59 -3.81547 -1.93922 0
M  V30 20129 C 1826.92 -4.22334 -3.27929 0
M  V30 20130 C 1828.22 -5.06801 -1.26295 0
M  V30 20131 H 1829.91 -2.95983 -0.45105 0
M  V30 20132 H 1827.46 -1.42378 -0.215514 0
M  V30 20133 H 1829.41 -3.07117 -2.88543 0
M  V30 20134 H 1828.13 -1.84296 -2.69634 0
M  V30 20135 H 1826.79 -3.43585 -1.27848 0
M  V30 20136 H 1826.44 -3.34899 -3.75302 0
M  V30 20137 H 1826.14 -4.984 -3.11242 0
M  V30 20138 H 1827.66 -4.63363 -3.97652 0
M  V30 20139 H 1829.08 -5.42695 -1.84812 0
M  V30 20140 H 1827.47 -5.87991 -1.19943 0
M  V30 20141 H 1828.54 -4.84313 -0.238605 0
M  V30 20142 N 1829.89 0.224867 -1.55988 0
M  V30 20143 C 1831.11 0.970897 -1.83271 0
M  V30 20144 C 1831.54 1.77293 -0.628399 0
M  V30 20145 O 1830.9 1.76301 0.422804 0
M  V30 20146 C 1830.94 1.86686 -3.08514 0
M  V30 20147 O 1830.05 2.96174 -2.86975 0
M  V30 20148 H 1829.39 0.275093 -0.604334 0
M  V30 20149 H 1831.92 0.239183 -2.03197 0
M  V30 20150 H 1831.93 2.27731 -3.3853 0
M  V30 20151 H 1830.6 1.27733 -3.95799 0
M  V30 20152 H 1829.18 2.59099 -2.68183 0
M  V30 20153 N 1831.37 1.49742 0.491438 0
M  V30 20154 C 1832.33 1.66587 1.57421 0
M  V30 20155 C 1833.33 0.537281 1.51558 0
M  V30 20156 O 1834.52 0.803928 1.5454 0
M  V30 20157 C 1831.65 1.67217 2.97071 0
M  V30 20158 H 1832.84 2.63171 1.4381 0
M  V30 20159 H 1830.4 1.38917 0.716368 0
M  V30 20160 H 1831.13 0.722529 3.16149 0
M  V30 20161 H 1830.92 2.49187 3.02734 0
M  V30 20162 H 1832.41 1.82274 3.75721 0
M  V30 20163 N 1832.84 -0.743177 1.38977 0
M  V30 20164 C 1833.77 -1.87047 1.3977 0
M  V30 20165 C 1834.76 -1.68068 0.262161 0
M  V30 20166 O 1835.94 -1.88507 0.466782 0
M  V30 20167 C 1833.07 -3.24701 1.23234 0
M  V30 20168 C 1832.02 -3.58302 2.34102 0
M  V30 20169 C 1831.35 -4.94805 2.02663 0
M  V30 20170 C 1832.65 -3.62111 3.76395 0
M  V30 20171 H 1834.34 -1.8664 2.34107 0
M  V30 20172 H 1831.89 -0.896541 1.12686 0
M  V30 20173 H 1833.84 -4.03228 1.22412 0
M  V30 20174 H 1832.57 -3.25614 0.253638 0
M  V30 20175 H 1831.23 -2.82099 2.34128 0
M  V30 20176 H 1830.87 -4.92289 1.0325 0
M  V30 20177 H 1830.57 -5.18254 2.76922 0
M  V30 20178 H 1832.1 -5.75699 2.03477 0
M  V30 20179 H 1833.51 -4.30731 3.78343 0
M  V30 20180 H 1831.91 -3.97075 4.49946 0
M  V30 20181 H 1832.98 -2.62099 4.07961 0
M  V30 20182 N 1834.32 -1.24018 -0.972487 0
M  V30 20183 C 1835.55 -1.10392 -1.74989 0
M  V30 20184 C 1835.97 0.34396 -1.8564 0
M  V30 20185 O 1835.32 1.23757 -1.34128 0
M  V30 20186 C 1835.37 -1.73247 -3.17282 0
M  V30 20187 O 1835.09 -3.12374 -3.07171 0
M  V30 20188 C 1836.6 -1.65168 -4.11381 0
M  V30 20189 H 1833.82 -0.38593 -0.548907 0
M  V30 20190 H 1836.36 -1.64028 -1.22127 0
M  V30 20191 H 1834.51 -1.23625 -3.67145 0
M  V30 20192 H 1834.93 -3.42997 -3.96804 0
M  V30 20193 H 1836.4 -2.13837 -5.08898 0
M  V30 20194 H 1836.88 -0.61198 -4.34915 0
M  V30 20195 H 1837.49 -2.14194 -3.67425 0
M  V30 20196 N 1835.8 1.17245 -1.05316 0
M  V30 20197 C 1837.05 1.87813 -0.765112 0
M  V30 20198 C 1837.38 1.80907 0.706147 0
M  V30 20199 O 1836.65 1.21793 1.51647 0
M  V30 20200 C 1836.94 3.3779 -1.24779 0
M  V30 20201 C 1836.79 3.53441 -2.78208 0
M  V30 20202 C 1838.11 4.31857 -0.847805 0
M  V30 20203 H 1835.23 0.681979 -0.279415 0
M  V30 20204 H 1837.87 1.37869 -1.30737 0
M  V30 20205 H 1836.02 3.80456 -0.786487 0
M  V30 20206 H 1837.69 3.19782 -3.32472 0
M  V30 20207 H 1835.94 2.95678 -3.17423 0
M  V30 20208 H 1836.61 4.58725 -3.07043 0
M  V30 20209 H 1839.08 3.97039 -1.24496 0
M  V30 20210 H 1837.96 5.35326 -1.21313 0
M  V30 20211 H 1838.22 4.41403 0.248104 0
M  V30 20212 N 1837.28 0.834353 1.33702 0
M  V30 20213 C 1838.56 0.350003 1.92443 0
M  V30 20214 C 1838.94 -1.1641 1.76102 0
M  V30 20215 O 1838.28 -1.97646 1.14666 0
M  V30 20216 C 1838.49 0.791928 3.39896 0
M  V30 20217 C 1839.84 0.797338 4.17046 0
M  V30 20218 O 1840.87 0.735242 3.48529 0
M  V30 20219 O 1839.72 0.880963 5.39353 0
M  V30 20220 H 1836.82 0.0981048 0.82116 0
M  V30 20221 H 1839.36 0.919905 1.42604 0
M  V30 20222 H 1838.14 1.83433 3.45641 0
M  V30 20223 H 1837.76 0.198349 3.97105 0
M  V30 20224 N 1838.76 -1.46125 0.590367 0
M  V30 20225 C 1839.98 -2.06726 0.0847301 0
M  V30 20226 C 1840.4 -1.43788 -1.22354 0
M  V30 20227 O 1839.76 -0.545876 -1.74145 0
M  V30 20228 C 1839.81 -3.61412 -0.079655 0
M  V30 20229 O 1839.53 -4.21998 1.17684 0
M  V30 20230 C 1841.03 -4.38961 -0.618754 0
M  V30 20231 H 1838.25 -0.668226 0.0609525 0
M  V30 20232 H 1840.79 -1.87636 0.813212 0
M  V30 20233 H 1838.95 -3.79904 -0.758389 0
M  V30 20234 H 1839.36 -5.14966 0.995528 0
M  V30 20235 H 1840.84 -5.47759 -0.682926 0
M  V30 20236 H 1841.31 -4.07537 -1.63739 0
M  V30 20237 H 1841.92 -4.25292 0.0253632 0
M  V30 20238 N 1840.23 -0.328564 -1.54137 0
M  V30 20239 C 1841.16 0.527734 -2.27458 0
M  V30 20240 C 1842.15 1.11518 -1.28444 0
M  V30 20241 O 1843.33 1.13938 -1.57264 0
M  V30 20242 C 1840.46 1.68628 -3.03615 0
M  V30 20243 C 1839.41 1.22789 -4.10008 0
M  V30 20244 C 1838.74 2.47378 -4.74034 0
M  V30 20245 C 1840.04 0.339152 -5.21198 0
M  V30 20246 H 1841.73 -0.0838808 -2.99282 0
M  V30 20247 H 1839.28 -0.0417829 -1.43939 0
M  V30 20248 H 1841.23 2.29165 -3.5364 0
M  V30 20249 H 1839.96 2.32456 -2.29416 0
M  V30 20250 H 1838.62 0.645427 -3.60874 0
M  V30 20251 H 1838.26 3.09581 -3.96445 0
M  V30 20252 H 1837.96 2.17396 -5.45905 0
M  V30 20253 H 1839.49 3.08668 -5.26836 0
M  V30 20254 H 1840.9 0.850947 -5.6695 0
M  V30 20255 H 1839.3 0.131892 -5.99955 0
M  V30 20256 H 1840.37 -0.628692 -4.80807 0
M  V30 20257 N 1841.71 1.57497 -0.0568439 0
M  V30 20258 C 1842.66 2.11862 0.915593 0
M  V30 20259 C 1843.63 1.02738 1.30515 0
M  V30 20260 O 1844.81 1.30318 1.39362 0
M  V30 20261 C 1841.95 2.67269 2.18315 0
M  V30 20262 C 1841.07 3.90498 1.84757 0
M  V30 20263 C 1840.2 4.342 3.06013 0
M  V30 20264 C 1839.24 5.50115 2.68403 0
M  V30 20265 N 1838.38 5.88844 3.8237 0
M  V30 20266 H 1843.22 2.94657 0.445101 0
M  V30 20267 H 1840.76 1.45621 0.20807 0
M  V30 20268 H 1842.71 2.97494 2.92494 0
M  V30 20269 H 1841.34 1.87262 2.62931 0
M  V30 20270 H 1840.4 3.66828 1.00703 0
M  V30 20271 H 1841.71 4.7473 1.53077 0
M  V30 20272 H 1840.86 4.66008 3.88486 0
M  V30 20273 H 1839.6 3.4879 3.40876 0
M  V30 20274 H 1838.61 5.17973 1.84348 0
M  V30 20275 H 1839.83 6.37244 2.34726 0
M  V30 20276 H 1837.78 5.06387 4.17024 0
M  V30 20277 H 1837.69 6.67781 3.54407 0
M  V30 20278 H 1838.96 6.25269 4.65466 0
M  V30 20279 N 1843.19 -0.216591 1.56105 0
M  V30 20280 C 1844.42 -0.957013 1.83436 0
M  V30 20281 C 1844.83 -1.77743 0.636612 0
M  V30 20282 O 1844.19 -1.78178 -0.394833 0
M  V30 20283 C 1844.24 -1.87058 3.09341 0
M  V30 20284 O 1843.96 -1.08331 4.24495 0
M  V30 20285 C 1845.46 -2.72448 3.49695 0
M  V30 20286 H 1842.68 -0.280249 0.609673 0
M  V30 20287 H 1845.23 -0.230324 2.03199 0
M  V30 20288 H 1843.38 -2.55116 2.91539 0
M  V30 20289 H 1843.8 -1.70391 4.96052 0
M  V30 20290 H 1845.27 -3.32244 4.40815 0
M  V30 20291 H 1845.75 -3.4509 2.71679 0
M  V30 20292 H 1846.35 -2.09796 3.69954 0
M  V30 20293 N 1844.67 -1.5 -0.48349 0
M  V30 20294 C 1845.6 -1.70879 -1.5913 0
M  V30 20295 C 1846.58 -0.557606 -1.60701 0
M  V30 20296 O 1847.76 -0.79539 -1.77164 0
M  V30 20297 C 1844.89 -1.7915 -2.97527 0
M  V30 20298 C 1843.85 -2.94233 -3.10823 0
M  V30 20299 C 1843.17 -2.87634 -4.50745 0
M  V30 20300 C 1844.47 -4.34925 -2.89202 0
M  V30 20301 H 1846.17 -2.63632 -1.41911 0
M  V30 20302 H 1843.71 -1.26865 -0.68127 0
M  V30 20303 H 1845.67 -1.92342 -3.74943 0
M  V30 20304 H 1844.39 -0.830106 -3.15875 0
M  V30 20305 H 1843.05 -2.80672 -2.35837 0
M  V30 20306 H 1842.7 -1.89365 -4.65993 0
M  V30 20307 H 1842.4 -3.64885 -4.60579 0
M  V30 20308 H 1843.92 -3.02857 -5.30198 0
M  V30 20309 H 1845.34 -4.49076 -3.56376 0
M  V30 20310 H 1843.73 -5.13531 -3.10492 0
M  V30 20311 H 1844.8 -4.48154 -1.85165 0
M  V30 20312 N 1846.15 0.735796 -1.39369 0
M  V30 20313 C 1847.37 1.52504 -1.39822 0
M  V30 20314 C 1847.79 1.88799 0.00747346 0
M  V30 20315 O 1847.15 1.54044 0.978611 0
M  V30 20316 C 1847.2 2.8131 -2.27039 0
M  V30 20317 O 1846.92 2.46557 -3.62134 0
M  V30 20318 C 1848.42 3.75343 -2.35866 0
M  V30 20319 H 1845.64 0.471306 -0.47761 0
M  V30 20320 H 1848.18 0.909257 -1.83174 0
M  V30 20321 H 1846.34 3.39222 -1.87102 0
M  V30 20322 H 1846.75 3.29294 -4.08247 0
M  V30 20323 H 1848.23 4.6262 -3.01142 0
M  V30 20324 H 1848.7 4.17036 -1.37758 0
M  V30 20325 H 1849.31 3.2335 -2.7627 0
M  V30 20326 N 1847.63 1.24532 0.965897 0
M  V30 20327 C 1848.59 1.04026 2.04233 0
M  V30 20328 C 1849.59 -0.00305855 1.608 0
M  V30 20329 O 1850.78 0.238077 1.72565 0
M  V30 20330 C 1847.91 0.577072 3.3598 0
M  V30 20331 H 1849.1 1.99569 2.23858 0
M  V30 20332 H 1846.66 1.0678 1.14139 0
M  V30 20333 H 1847.39 -0.381471 3.22049 0
M  V30 20334 H 1847.18 1.33012 3.6885 0
M  V30 20335 H 1848.67 0.45469 4.15117 0
M  V30 20336 N 1849.1 -1.16685 1.05936 0
M  V30 20337 C 1850.04 -2.20516 0.624931 0
M  V30 20338 C 1851.05 -1.59719 -0.315206 0
M  V30 20339 O 1852.24 -1.7818 -0.106761 0
M  V30 20340 C 1849.34 -3.38739 -0.10452 0
M  V30 20341 C 1848.51 -4.29097 0.848197 0
M  V30 20342 C 1847.57 -5.25961 0.158648 0
M  V30 20343 O 1846.6 -5.63619 0.795149 0
M  V30 20344 N 1847.8 -5.69961 -1.10115 0
M  V30 20345 H 1850.56 -2.58408 1.51807 0
M  V30 20346 H 1848.12 -1.31658 0.942216 0
M  V30 20347 H 1850.12 -4.00578 -0.576133 0
M  V30 20348 H 1848.69 -2.99382 -0.899414 0
M  V30 20349 H 1847.91 -3.64576 1.49927 0
M  V30 20350 H 1849.19 -4.86352 1.49463 0
M  V30 20351 H 1848.59 -5.41452 -1.63847 0
M  V30 20352 H 1847.15 -6.33908 -1.51669 0
M  V30 20353 N 1850.58 -0.841432 -1.33258 0
M  V30 20354 C 1851.53 -0.274487 -2.29162 0
M  V30 20355 C 1852.5 0.611143 -1.54448 0
M  V30 20356 O 1853.68 0.548868 -1.82735 0
M  V30 20357 C 1850.82 0.542275 -3.40813 0
M  V30 20358 C 1849.94 -0.367664 -4.30433 0
M  V30 20359 C 1849.07 0.460447 -5.29201 0
M  V30 20360 C 1848.11 -0.447722 -6.1046 0
M  V30 20361 N 1847.25 0.342415 -7.01265 0
M  V30 20362 H 1852.09 -1.09762 -2.77049 0
M  V30 20363 H 1849.62 -0.552735 -1.3632 0
M  V30 20364 H 1851.58 1.03132 -4.04252 0
M  V30 20365 H 1850.21 1.33035 -2.94111 0
M  V30 20366 H 1849.26 -0.975032 -3.67692 0
M  V30 20367 H 1850.58 -1.0652 -4.87293 0
M  V30 20368 H 1849.73 1.01321 -5.9818 0
M  V30 20369 H 1848.47 1.19141 -4.72924 0
M  V30 20370 H 1847.47 -1.01248 -5.40397 0
M  V30 20371 H 1848.7 -1.17709 -6.68821 0
M  V30 20372 H 1846.65 1.05671 -6.47433 0
M  V30 20373 H 1846.56 -0.296356 -7.55419 0
M  V30 20374 H 1847.83 0.877331 -7.74547 0
M  V30 20375 N 1852.06 1.4581 -0.598108 0
M  V30 20376 C 1853.02 2.28905 0.11623 0
M  V30 20377 C 1854.02 1.39246 0.804187 0
M  V30 20378 O 1855.21 1.61466 0.653793 0
M  V30 20379 C 1852.34 3.20029 1.17449 0
M  V30 20380 H 1853.54 2.93543 -0.614217 0
M  V30 20381 H 1851.09 1.52175 -0.356735 0
M  V30 20382 H 1851.83 2.60171 1.93601 0
M  V30 20383 H 1851.61 3.86061 0.685508 0
M  V30 20384 H 1853.1 3.82533 1.67505 0
M  V30 20385 N 1853.54 0.336733 1.53961 0
M  V30 20386 C 1854.76 -0.26614 2.05685 0
M  V30 20387 C 1855.19 -1.43973 1.21051 0
M  V30 20388 O 1854.55 -1.79928 0.222652 0
M  V30 20389 C 1854.59 -0.66571 3.54402 0
M  V30 20390 O 1853.7 -1.76656 3.72648 0
M  V30 20391 H 1853.04 -0.0455655 0.662435 0
M  V30 20392 H 1855.57 0.488969 1.98671 0
M  V30 20393 H 1855.58 -0.944748 3.96911 0
M  V30 20394 H 1854.25 0.192589 4.15454 0
M  V30 20395 H 1852.83 -1.48531 3.42042 0
M  V30 20396 N 1855.02 -1.57465 0.0651956 0
M  V30 20397 C 1855.93 -2.15841 -0.919235 0
M  V30 20398 C 1856.94 -1.11984 -1.33175 0
M  V30 20399 O 1858.12 -1.44219 -1.4058 0
M  V30 20400 C 1855.18 -2.7032 -2.1709 0
M  V30 20401 C 1854.24 -3.89026 -1.81542 0
M  V30 20402 C 1853.48 -4.40897 -3.00742 0
M  V30 20403 O 1853.7 -3.91792 -4.14555 0
M  V30 20404 O 1852.63 -5.32312 -2.80941 0
M  V30 20405 H 1856.46 -3.00307 -0.452704 0
M  V30 20406 H 1854.04 -1.48567 -0.157504 0
M  V30 20407 H 1855.93 -3.05266 -2.90501 0
M  V30 20408 H 1854.6 -1.88917 -2.62854 0
M  V30 20409 H 1853.51 -3.58944 -1.05404 0
M  V30 20410 H 1854.84 -4.71701 -1.40567 0
M  V30 20411 N 1856.49 0.20831 -1.56217 0
M  V30 20412 C 1857.46 1.24178 -1.92646 0
M  V30 20413 C 1858.46 1.39125 -0.806274 0
M  V30 20414 O 1859.65 1.37163 -1.07386 0
M  V30 20415 C 1856.78 2.61342 -2.18891 0
M  V30 20416 H 1857.97 0.930748 -2.85091 0
M  V30 20417 H 1855.52 0.449285 -1.49703 0
M  V30 20418 H 1856.26 2.97521 -1.29041 0
M  V30 20419 H 1856.04 2.51866 -3.00509 0
M  V30 20420 H 1857.53 3.35892 -2.48125 0
M  V30 20421 N 1857.97 1.50255 0.475528 0
M  V30 20422 C 1859.2 1.65044 1.25599 0
M  V30 20423 C 1859.62 0.331736 1.85152 0
M  V30 20424 O 1858.98 -0.703863 1.67079 0
M  V30 20425 C 1859.03 2.7405 2.34369 0
M  V30 20426 O 1858.13 2.34994 3.38897 0
M  V30 20427 H 1857.47 0.551557 0.369704 0
M  V30 20428 H 1860 1.96603 0.566422 0
M  V30 20429 H 1860.01 2.96993 2.79749 0
M  V30 20430 H 1858.69 3.6976 1.90395 0
M  V30 20431 H 1857.26 2.22481 2.9926 0
M  V30 20432 N 1859.45 -0.728395 1.39758 0
M  V30 20433 C 1860.4 -1.84245 1.39005 0
M  V30 20434 C 1861.37 -1.64226 0.248783 0
M  V30 20435 O 1862.55 -1.8554 0.444904 0
M  V30 20436 C 1859.69 -3.21828 1.24583 0
M  V30 20437 C 1858.8 -3.53507 2.48308 0
M  V30 20438 C 1857.94 -4.80526 2.26425 0
M  V30 20439 C 1856.98 -5.05069 3.45792 0
M  V30 20440 N 1856.12 -6.23295 3.23184 0
M  V30 20441 H 1860.96 -1.84224 2.34234 0
M  V30 20442 H 1858.49 -0.900094 1.16347 0
M  V30 20443 H 1860.45 -4.01257 1.14231 0
M  V30 20444 H 1859.08 -3.21111 0.329793 0
M  V30 20445 H 1858.13 -2.68729 2.69238 0
M  V30 20446 H 1859.44 -3.67558 3.37198 0
M  V30 20447 H 1858.6 -5.67949 2.13353 0
M  V30 20448 H 1857.34 -4.6866 1.3494 0
M  V30 20449 H 1856.34 -4.16106 3.59355 0
M  V30 20450 H 1857.57 -5.18815 4.38186 0
M  V30 20451 H 1855.51 -6.12704 2.3437 0
M  V30 20452 H 1855.43 -6.37964 4.05633 0
M  V30 20453 H 1856.7 -7.13539 3.13819 0
M  V30 20454 N 1860.93 -1.25042 -0.959279 0
M  V30 20455 C 1862.17 -1.09677 -1.70584 0
M  V30 20456 C 1862.51 0.362184 -1.90793 0
M  V30 20457 O 1861.78 1.26722 -1.47552 0
M  V30 20458 C 1862.06 -1.84646 -3.09157 0
M  V30 20459 C 1861.92 -3.38342 -2.96387 0
M  V30 20460 C 1863.24 -1.62588 -4.08966 0
M  V30 20461 H 1860.36 -0.399817 -0.619125 0
M  V30 20462 H 1863 -1.53816 -1.11537 0
M  V30 20463 H 1861.15 -1.47129 -3.59563 0
M  V30 20464 H 1862.82 -3.85507 -2.53342 0
M  V30 20465 H 1861.06 -3.66291 -2.32408 0
M  V30 20466 H 1861.73 -3.86007 -3.94592 0
M  V30 20467 H 1864.21 -1.9524 -3.67451 0
M  V30 20468 H 1863.09 -2.17488 -5.03975 0
M  V30 20469 H 1863.35 -0.566103 -4.38461 0
M  V30 20470 N 1862.41 1.16121 -1.06553 0
M  V30 20471 C 1863.36 2.1858 -0.6486 0
M  V30 20472 C 1864.34 1.57643 0.322091 0
M  V30 20473 O 1865.53 1.76468 0.137113 0
M  V30 20474 C 1862.66 3.43277 -0.0393328 0
M  V30 20475 C 1861.75 4.11285 -1.03468 0
M  V30 20476 N 1862.14 4.54904 -2.21124 0
M  V30 20477 C 1860.44 4.37508 -0.8662 0
M  V30 20478 C 1861.14 5.07546 -2.84205 0
M  V30 20479 N 1860.11 5.00592 -2.11917 0
M  V30 20480 H 1863.92 2.50024 -1.54483 0
M  V30 20481 H 1861.43 1.32601 -0.937587 0
M  V30 20482 H 1863.43 4.15977 0.277211 0
M  V30 20483 H 1862.09 3.13319 0.852119 0
M  V30 20484 H 1863.1 4.48551 -2.58887 0
M  V30 20485 H 1859.77 4.17491 -0.0269599 0
M  V30 20486 H 1861.16 5.51315 -3.8406 0
M  V30 20487 N 1863.88 0.848487 1.3281 0
M  V30 20488 C 1864.83 0.277328 2.30941 0
M  V30 20489 C 1865.83 -0.595938 1.58572 0
M  V30 20490 O 1867.03 -0.484428 1.73359 0
M  V30 20491 H 1863.41 0.0709686 0.748644 0
M  V30 20492 H 1865.38 1.11932 2.76611 0
M  V30 20493 C 1864.13 -0.524705 3.43718 0
M  V30 20494 H 1863.45 0.137959 3.99562 0
M  V30 20495 H 1864.89 -0.890032 4.14553 0
M  V30 20496 C 1863.35 -1.70746 2.90426 0
M  V30 20497 O 1863.88 -2.80641 2.87408 0
M  V30 20498 N 1862.09 -1.5325 2.46907 0
M  V30 20499 H 1861.63 -0.638526 2.49561 0
M  V30 20500 H 1861.59 -2.32532 2.11603 0
M  V30 20501 N 1865.36 -1.4549 0.605832 0
M  V30 20502 C 1866.27 -2.34313 -0.115915 0
M  V30 20503 C 1867.29 -1.51136 -0.862199 0
M  V30 20504 O 1868.46 -1.83943 -0.820181 0
M  V30 20505 C 1865.53 -3.28724 -1.10188 0
M  V30 20506 C 1864.59 -4.27807 -0.357749 0
M  V30 20507 C 1863.82 -5.17707 -1.29675 0
M  V30 20508 O 1864.05 -5.10999 -2.53448 0
M  V30 20509 O 1862.98 -5.9663 -0.794767 0
M  V30 20510 H 1866.81 -2.97429 0.613981 0
M  V30 20511 H 1864.39 -1.44845 0.366103 0
M  V30 20512 H 1866.27 -3.86905 -1.6698 0
M  V30 20513 H 1864.95 -2.68175 -1.81284 0
M  V30 20514 H 1863.86 -3.73246 0.252588 0
M  V30 20515 H 1865.19 -4.91206 0.312682 0
M  V30 20516 N 1866.84 -0.344893 -1.5378 0
M  V30 20517 C 1868.09 0.252216 -2.00117 0
M  V30 20518 C 1868.4 1.51548 -1.23663 0
M  V30 20519 O 1869.61 2.18991 -1.60484 0
M  V30 20520 C 1868.06 0.499983 -3.5641 0
M  V30 20521 C 1867.67 -0.747455 -4.41721 0
M  V30 20522 C 1869.42 1.05588 -4.11159 0
M  V30 20523 C 1867.32 -0.470414 -5.89526 0
M  V30 20524 H 1866.25 0.0980234 -0.747601 0
M  V30 20525 H 1868.9 -0.460431 -1.7763 0
M  V30 20526 H 1867.29 1.27337 -3.74969 0
M  V30 20527 H 1868.46 -1.52204 -4.34937 0
M  V30 20528 H 1866.78 -1.22508 -3.97971 0
M  V30 20529 H 1869.37 1.27813 -5.19199 0
M  V30 20530 H 1869.72 2.01181 -3.64461 0
M  V30 20531 H 1870.25 0.343167 -3.96317 0
M  V30 20532 H 1866.99 -1.3961 -6.4046 0
M  V30 20533 H 1866.51 0.266065 -5.9921 0
M  V30 20534 H 1868.19 -0.0881607 -6.4694 0
M  V30 20535 N 1868.32 1.57428 -0.0735454 0
M  V30 20536 C 1869.55 1.97883 0.604148 0
M  V30 20537 C 1869.96 0.951968 1.63043 0
M  V30 20538 O 1869.32 -0.0611641 1.82397 0
M  V30 20539 C 1869.37 3.38414 1.27116 0
M  V30 20540 O 1869.09 4.37166 0.285951 0
M  V30 20541 C 1870.59 3.93753 2.03651 0
M  V30 20542 H 1867.81 0.650747 0.163613 0
M  V30 20543 H 1870.36 2.03975 -0.146466 0
M  V30 20544 H 1868.51 3.33403 1.97285 0
M  V30 20545 H 1868.92 5.18896 0.764698 0
M  V30 20546 H 1870.4 4.94298 2.45711 0
M  V30 20547 H 1870.88 3.30391 2.89376 0
M  V30 20548 H 1871.48 4.0217 1.38345 0
M  V30 20549 N 1869.8 -0.200022 1.56326 0
M  V30 20550 C 1871.21 -0.550653 1.498 0
M  V30 20551 C 1871.41 -1.86097 0.772664 0
M  V30 20552 O 1870.47 -2.50449 0.321155 0
M  V30 20553 C 1871.78 -0.60995 2.94449 0
M  V30 20554 C 1873.33 -0.699119 3.05092 0
M  V30 20555 C 1873.8 -0.78957 4.51143 0
M  V30 20556 N 1875.3 -0.853228 4.55274 0
M  V30 20557 C 1876.03 -0.943298 5.65588 0
M  V30 20558 N 1875.53 -0.995976 6.85603 0
M  V30 20559 N 1877.32 -0.980106 5.53489 0
M  V30 20560 H 1869.47 0.659543 2.019 0
M  V30 20561 H 1871.73 0.234299 0.91859 0
M  V30 20562 H 1871.44 0.283651 3.50554 0
M  V30 20563 H 1871.31 -1.46632 3.47533 0
M  V30 20564 H 1873.7 -1.58315 2.49039 0
M  V30 20565 H 1873.78 0.183351 2.55142 0
M  V30 20566 H 1873.43 0.0900924 5.0782 0
M  V30 20567 H 1873.36 -1.68777 4.9882 0
M  V30 20568 H 1875.85 -0.821964 3.68853 0
M  V30 20569 H 1876.16 -1.06508 7.65425 0
M  V30 20570 H 1874.5 -0.964738 6.88272 0
M  V30 20571 H 1877.7 -0.935755 4.58652 0
M  V30 20572 H 1877.87 -1.04684 6.39488 0
M  V30 20573 N 1871.27 -1.50505 -0.467553 0
M  V30 20574 C 1872.18 -1.72419 -1.59087 0
M  V30 20575 C 1873.2 -0.607403 -1.63054 0
M  V30 20576 O 1874.38 -0.886148 -1.80857 0
M  V30 20577 C 1871.44 -1.81686 -2.95281 0
M  V30 20578 C 1870.5 -3.05435 -3.01675 0
M  V30 20579 C 1869.74 -3.1425 -4.31373 0
M  V30 20580 O 1869.96 -2.29766 -5.22076 0
M  V30 20581 O 1868.89 -4.07005 -4.43431 0
M  V30 20582 H 1872.72 -2.67649 -1.43519 0
M  V30 20583 H 1870.3 -1.34643 -0.647422 0
M  V30 20584 H 1872.19 -1.89941 -3.76165 0
M  V30 20585 H 1870.86 -0.896404 -3.11041 0
M  V30 20586 H 1869.77 -3.02678 -2.19856 0
M  V30 20587 H 1871.1 -3.97071 -2.90853 0
M  V30 20588 N 1872.75 0.720973 -1.40142 0
M  V30 20589 C 1873.68 1.84799 -1.42729 0
M  V30 20590 C 1874.66 1.67629 -0.288866 0
M  V30 20591 O 1875.85 1.8774 -0.496713 0
M  V30 20592 C 1872.98 3.22699 -1.28385 0
M  V30 20593 C 1871.93 3.54532 -2.39773 0
M  V30 20594 C 1871.26 4.91518 -2.10509 0
M  V30 20595 C 1872.56 3.56077 -3.82108 0
M  V30 20596 H 1874.25 1.82892 -2.37046 0
M  V30 20597 H 1871.8 0.8785 -1.14098 0
M  V30 20598 H 1873.75 4.0123 -1.28812 0
M  V30 20599 H 1872.48 3.25169 -0.305408 0
M  V30 20600 H 1871.13 2.78338 -2.38586 0
M  V30 20601 H 1870.78 4.90584 -1.11069 0
M  V30 20602 H 1870.48 5.13783 -2.85132 0
M  V30 20603 H 1872.01 5.72389 -2.1261 0
M  V30 20604 H 1873.42 4.24657 -3.85148 0
M  V30 20605 H 1871.82 3.89866 -4.56207 0
M  V30 20606 H 1872.89 2.55576 -4.12079 0
M  V30 20607 N 1874.23 1.25549 0.952634 0
M  V30 20608 C 1875.46 1.13262 1.73743 0
M  V30 20609 C 1875.88 -0.309507 1.85536 0
M  V30 20610 O 1875.24 -1.22422 1.33726 0
M  V30 20611 C 1875.29 1.79395 3.12809 0
M  V30 20612 O 1874.39 1.07496 3.98144 0
M  V30 20613 H 1873.73 0.395314 0.5335 0
M  V30 20614 H 1876.26 1.66151 1.19394 0
M  V30 20615 H 1876.27 1.85761 3.63259 0
M  V30 20616 H 1874.95 2.84316 3.03542 0
M  V30 20617 H 1873.52 1.09025 3.56606 0
M  V30 20618 N 1875.71 -1.15554 1.07168 0
M  V30 20619 C 1876.96 -1.85639 0.788727 0
M  V30 20620 C 1877.27 -1.83114 -0.687656 0
M  V30 20621 O 1878.48 -2.48864 -1.08531 0
M  V30 20622 C 1876.93 -3.3318 1.36084 0
M  V30 20623 C 1876.54 -3.44157 2.8681 0
M  V30 20624 C 1878.28 -4.08462 1.15582 0
M  V30 20625 C 1876.19 -4.85835 3.37222 0
M  V30 20626 H 1875.12 -0.695427 0.29137 0
M  V30 20627 H 1877.77 -1.30354 1.29151 0
M  V30 20628 H 1876.15 -3.88125 0.785802 0
M  V30 20629 H 1877.33 -2.99328 3.50342 0
M  V30 20630 H 1875.64 -2.82318 3.06081 0
M  V30 20631 H 1878.24 -5.13017 1.50725 0
M  V30 20632 H 1878.58 -4.16192 0.0947449 0
M  V30 20633 H 1879.12 -3.59781 1.69712 0
M  V30 20634 H 1875.86 -4.83287 4.42847 0
M  V30 20635 H 1875.38 -5.31253 2.78443 0
M  V30 20636 H 1877.05 -5.54684 3.33068 0
M  V30 20637 N 1877.19 -0.855519 -1.32358 0
M  V30 20638 C 1878.41 -0.472456 -2.01947 0
M  V30 20639 C 1878.84 0.923482 -1.6387 0
M  V30 20640 O 1878.2 1.60677 -0.839799 0
M  V30 20641 C 1878.24 -0.620081 -3.55229 0
M  V30 20642 O 1877.35 0.34676 -4.1094 0
M  V30 20643 H 1876.69 -0.189756 -0.636309 0
M  V30 20644 H 1879.22 -1.15495 -1.68885 0
M  V30 20645 H 1879.23 -0.507933 -4.04826 0
M  V30 20646 H 1877.9 -1.63802 -3.82285 0
M  V30 20647 H 1876.48 0.190778 -3.72412 0
M  V30 20648 N 1878.67 1.45167 -0.61354 0
M  V30 20649 C 1879.61 2.30575 0.101811 0
M  V30 20650 C 1880.58 1.42455 0.85416 0
M  V30 20651 O 1881.77 1.71378 0.838711 0
M  V30 20652 C 1878.91 3.27459 1.08926 0
M  V30 20653 C 1878.02 4.30682 0.337164 0
M  V30 20654 C 1877.16 5.1467 1.31486 0
M  V30 20655 C 1876.19 6.09616 0.550918 0
M  V30 20656 N 1875.33 6.86363 1.4782 0
M  V30 20657 H 1880.17 2.9121 -0.632495 0
M  V30 20658 H 1877.71 1.43494 -0.323705 0
M  V30 20659 H 1879.67 3.82101 1.67495 0
M  V30 20660 H 1878.3 2.68564 1.79091 0
M  V30 20661 H 1877.35 3.78653 -0.364144 0
M  V30 20662 H 1878.66 4.98129 -0.258629 0
M  V30 20663 H 1877.81 5.73742 1.97243 0
M  V30 20664 H 1876.55 4.47255 1.94458 0
M  V30 20665 H 1875.56 5.49668 -0.120251 0
M  V30 20666 H 1876.78 6.7906 -0.07384 0
M  V30 20667 H 1874.73 6.21632 2.09545 0
M  V30 20668 H 1874.65 7.50183 0.935989 0
M  V30 20669 H 1875.91 7.49972 2.12516 0
M  V30 20670 N 1880.14 0.353044 1.53595 0
M  V30 20671 C 1881.09 -0.515504 2.22096 0
M  V30 20672 C 1882.08 -1.05861 1.2117 0
M  V30 20673 O 1883.27 -0.990737 1.46674 0
M  V30 20674 C 1880.4 -1.66112 3.00436 0
M  V30 20675 C 1879.48 -1.1315 4.08727 0
M  V30 20676 N 1879.88 -0.323846 5.04762 0
M  V30 20677 C 1878.17 -1.4075 4.23209 0
M  V30 20678 C 1878.87 -0.0353104 5.81689 0
M  V30 20679 N 1877.85 -0.629542 5.39942 0
M  V30 20680 H 1881.65 0.108512 2.937 0
M  V30 20681 H 1879.17 0.1604 1.61606 0
M  V30 20682 H 1881.16 -2.29541 3.48018 0
M  V30 20683 H 1879.82 -2.28832 2.3036 0
M  V30 20684 H 1880.83 0.0358889 5.17888 0
M  V30 20685 H 1877.51 -2.0384 3.64357 0
M  V30 20686 H 1878.9 0.616806 6.69063 0
M  V30 20687 N 1881.62 -1.57387 0.0818932 0
M  V30 20688 C 1882.55 -2.16318 -0.879124 0
M  V30 20689 C 1883.53 -1.09293 -1.30342 0
M  V30 20690 O 1884.72 -1.37373 -1.37267 0
M  V30 20691 C 1881.85 -2.73293 -2.14308 0
M  V30 20692 C 1880.8 -3.85575 -1.85785 0
M  V30 20693 C 1880.13 -4.29195 -3.18897 0
M  V30 20694 C 1881.43 -5.09365 -1.15517 0
M  V30 20695 H 1883.12 -2.96873 -0.388166 0
M  V30 20696 H 1880.67 -1.42803 -0.185265 0
M  V30 20697 H 1882.62 -3.13168 -2.81964 0
M  V30 20698 H 1881.34 -1.89974 -2.65664 0
M  V30 20699 H 1880 -3.46219 -1.20532 0
M  V30 20700 H 1879.65 -3.42784 -3.68114 0
M  V30 20701 H 1879.35 -5.04889 -3.006 0
M  V30 20702 H 1880.88 -4.71694 -3.87734 0
M  V30 20703 H 1882.29 -5.46493 -1.73259 0
M  V30 20704 H 1880.69 -5.90403 -1.07444 0
M  V30 20705 H 1881.76 -4.8471 -0.135822 0
M  V30 20706 N 1883.1 0.191729 -1.56429 0
M  V30 20707 C 1884.06 1.22128 -1.93952 0
M  V30 20708 C 1885.06 1.38262 -0.820984 0
M  V30 20709 O 1886.25 1.36017 -1.08835 0
M  V30 20710 C 1883.38 2.59005 -2.21651 0
M  V30 20711 H 1884.58 0.900458 -2.86063 0
M  V30 20712 H 1882.13 0.433382 -1.50172 0
M  V30 20713 H 1882.87 2.96136 -1.32189 0
M  V30 20714 H 1882.65 2.48665 -3.03164 0
M  V30 20715 H 1884.14 3.33242 -2.51674 0
M  V30 20716 N 1884.58 1.50751 0.459565 0
M  V30 20717 C 1885.51 1.66621 1.57385 0
M  V30 20718 C 1886.52 0.547358 1.53323 0
M  V30 20719 O 1887.71 0.820941 1.58502 0
M  V30 20720 C 1884.81 1.64524 2.96285 0
M  V30 20721 C 1883.98 2.92631 3.25093 0
M  V30 20722 C 1883.04 2.83021 4.43605 0
M  V30 20723 O 1882.07 3.56977 4.43347 0
M  V30 20724 N 1883.27 1.97358 5.45921 0
M  V30 20725 H 1886.04 2.62738 1.44184 0
M  V30 20726 H 1883.6 1.48359 0.64817 0
M  V30 20727 H 1885.59 1.55693 3.73553 0
M  V30 20728 H 1884.16 0.760945 3.03197 0
M  V30 20729 H 1883.38 3.15502 2.36331 0
M  V30 20730 H 1884.67 3.77477 3.41157 0
M  V30 20731 H 1884.07 1.36608 5.48958 0
M  V30 20732 H 1882.62 1.94422 6.22128 0
M  V30 20733 N 1886.06 -0.713531 1.40522 0
M  V30 20734 C 1887 -1.84894 1.41127 0
M  V30 20735 C 1888 -1.66873 0.291521 0
M  V30 20736 O 1889.2 -1.73952 0.46266 0
M  V30 20737 H 1885.58 -0.608985 0.441182 0
M  V30 20738 H 1887.55 -1.815 2.36855 0
M  V30 20739 C 1886.3 -3.22774 1.29276 0
M  V30 20740 H 1885.62 -3.37248 2.14718 0
M  V30 20741 H 1887.06 -4.02349 1.33759 0
M  V30 20742 C 1885.52 -3.369 0.00320525 0
M  V30 20743 O 1886.05 -3.90086 -0.958942 0
M  V30 20744 N 1884.26 -2.90523 -0.0669733 0
M  V30 20745 H 1883.8 -2.47428 0.716722 0
M  V30 20746 H 1883.76 -3.00353 -0.929262 0
M  V30 20747 N 1887.53 -1.26053 -0.945962 0
M  V30 20748 C 1888.46 -1.09687 -2.06134 0
M  V30 20749 C 1889.44 -0.00341513 -1.701 0
M  V30 20750 O 1890.63 -0.174559 -1.93414 0
M  V30 20751 C 1887.76 -0.724007 -3.3967 0
M  V30 20752 C 1886.71 -1.76866 -3.89747 0
M  V30 20753 C 1886.04 -1.25025 -5.19878 0
M  V30 20754 C 1887.34 -3.16923 -4.15159 0
M  V30 20755 H 1889.03 -2.02986 -2.20084 0
M  V30 20756 H 1886.58 -0.977346 -1.05754 0
M  V30 20757 H 1888.53 -0.596411 -4.17158 0
M  V30 20758 H 1887.26 0.244695 -3.25682 0
M  V30 20759 H 1885.92 -1.88485 -3.14435 0
M  V30 20760 H 1885.56 -0.271527 -5.02267 0
M  V30 20761 H 1885.26 -1.94853 -5.54352 0
M  V30 20762 H 1886.79 -1.13523 -5.99954 0
M  V30 20763 H 1888.2 -3.08409 -4.83277 0
M  V30 20764 H 1886.6 -3.84299 -4.60906 0
M  V30 20765 H 1887.67 -3.63337 -3.21114 0
M  V30 20766 N 1889.01 1.14984 -1.07779 0
M  V30 20767 C 1890.26 1.85219 -0.798561 0
M  V30 20768 C 1890.57 1.83476 0.677935 0
M  V30 20769 O 1891.78 2.49436 1.0721 0
M  V30 20770 C 1890.24 3.32454 -1.37849 0
M  V30 20771 C 1889.84 3.42631 -2.88631 0
M  V30 20772 C 1891.59 4.07843 -1.17747 0
M  V30 20773 C 1889.49 4.8404 -3.39794 0
M  V30 20774 H 1888.42 0.693872 -0.295054 0
M  V30 20775 H 1891.08 1.29668 -1.2984 0
M  V30 20776 H 1889.46 3.87703 -0.806374 0
M  V30 20777 H 1890.63 2.97466 -3.51925 0
M  V30 20778 H 1888.95 2.80691 -3.07573 0
M  V30 20779 H 1891.54 5.1221 -1.53444 0
M  V30 20780 H 1891.89 4.16136 -0.116815 0
M  V30 20781 H 1892.42 3.58876 -1.71618 0
M  V30 20782 H 1889.16 4.80932 -4.45404 0
M  V30 20783 H 1888.68 5.29769 -2.81256 0
M  V30 20784 H 1890.36 5.5291 -3.36005 0
M  V30 20785 N 1890.49 0.862526 1.31902 0
M  V30 20786 C 1891.77 0.390745 1.91657 0
M  V30 20787 C 1892.15 -1.12648 1.78532 0
M  V30 20788 O 1891.49 -1.95169 1.18833 0
M  V30 20789 C 1891.7 0.863847 3.3814 0
M  V30 20790 C 1893.05 0.885621 4.15261 0
M  V30 20791 O 1894.08 0.809005 3.46891 0
M  V30 20792 O 1892.94 0.995169 5.37363 0
M  V30 20793 H 1890.03 0.115501 0.818895 0
M  V30 20794 H 1892.58 0.949947 1.4062 0
M  V30 20795 H 1891.35 1.90723 3.41673 0
M  V30 20796 H 1890.97 0.282536 3.96595 0
M  V30 20797 N 1891.97 -1.4484 0.62123 0
M  V30 20798 C 1893.25 -1.95528 0.0531511 0
M  V30 20799 C 1893.63 -1.56342 -1.41846 0
M  V30 20800 O 1892.97 -0.832621 -2.1279 0
M  V30 20801 C 1893.18 -3.47988 0.2656 0
M  V30 20802 C 1894.53 -4.24322 0.153573 0
M  V30 20803 O 1895.56 -3.55658 0.19644 0
M  V30 20804 O 1894.41 -5.46477 0.05015 0
M  V30 20805 H 1891.51 -0.826527 -0.0279665 0
M  V30 20806 H 1894.05 -1.54939 0.692243 0
M  V30 20807 H 1892.83 -3.69525 1.28713 0
M  V30 20808 H 1892.45 -3.955 -0.408105 0
M  V30 20809 N 1893.45 -0.361184 -1.53405 0
M  V30 20810 C 1894.69 0.229427 -2.00794 0
M  V30 20811 C 1895.02 1.49642 -1.25029 0
M  V30 20812 O 1894.29 1.9252 -0.362333 0
M  V30 20813 H 1892.87 0.0877687 -0.741826 0
M  V30 20814 H 1895.53 -0.486406 -1.88733 0
M  V30 20815 H 1894.62 0.459504 -3.08699 0
M  V30 20816 N 1894.92 1.57341 -0.0902386 0
M  V30 20817 C 1896.34 1.8145 0.439638 0
M  V30 20818 C 1896.69 1.00551 1.68475 0
M  V30 20819 O 1895.81 0.233442 2.15137 0
M  V30 20820 C 1896.41 3.29113 0.804384 0
M  V30 20821 C 1894.97 3.54003 1.27903 0
M  V30 20822 C 1894.11 2.7595 0.27328 0
M  V30 20823 H 1897.06 1.55527 -0.315738 0
M  V30 20824 H 1897.08 3.4217 1.66432 0
M  V30 20825 H 1896.6 3.87966 -0.102017 0
M  V30 20826 H 1894.7 3.00475 2.20331 0
M  V30 20827 H 1894.81 4.62662 1.24422 0
M  V30 20828 H 1893.17 2.43271 0.754419 0
M  V30 20829 H 1893.96 3.3755 -0.625715 0
M  V30 20830 N 1896.4 -0.183431 1.56529 0
M  V30 20831 C 1897.65 -0.903332 1.8157 0
M  V30 20832 C 1897.98 -1.82417 0.666167 0
M  V30 20833 O 1897.26 -1.91635 -0.332621 0
M  V30 20834 C 1897.54 -1.70949 3.16936 0
M  V30 20835 C 1897.39 -0.812595 4.42399 0
M  V30 20836 C 1898.71 -2.6797 3.49113 0
M  V30 20837 H 1895.83 -0.326961 0.660504 0
M  V30 20838 H 1898.47 -0.170115 1.89237 0
M  V30 20839 H 1896.62 -2.33458 3.10531 0
M  V30 20840 H 1898.29 -0.201313 4.60861 0
M  V30 20841 H 1896.54 -0.119949 4.33634 0
M  V30 20842 H 1897.21 -1.4119 5.33638 0
M  V30 20843 H 1899.68 -2.15591 3.55893 0
M  V30 20844 H 1898.56 -3.21451 4.44927 0
M  V30 20845 H 1898.82 -3.47584 2.73199 0
M  V30 20846 N 1897.88 -1.50992 -0.451564 0
M  V30 20847 C 1899.3 -1.38852 -0.786916 0
M  V30 20848 C 1899.5 -0.459764 -1.96185 0
M  V30 20849 O 1898.55 0.0903799 -2.52338 0
M  V30 20850 C 1899.87 -2.80611 -1.08064 0
M  V30 20851 C 1901.41 -2.89663 -1.18593 0
M  V30 20852 C 1901.89 -4.32299 -1.51267 0
M  V30 20853 N 1903.38 -4.3534 -1.5822 0
M  V30 20854 C 1904.11 -5.42721 -1.85046 0
M  V30 20855 N 1903.61 -6.60282 -2.09759 0
M  V30 20856 N 1905.4 -5.30185 -1.8671 0
M  V30 20857 H 1897.55 -2.09938 0.32245 0
M  V30 20858 H 1899.82 -0.944464 0.0818072 0
M  V30 20859 H 1899.52 -3.50501 -0.290167 0
M  V30 20860 H 1899.4 -3.19063 -2.01193 0
M  V30 20861 H 1901.78 -2.1998 -1.96705 0
M  V30 20862 H 1901.87 -2.54728 -0.23398 0
M  V30 20863 H 1901.51 -5.02526 -0.736882 0
M  V30 20864 H 1901.44 -4.64736 -2.47645 0
M  V30 20865 H 1903.93 -3.50577 -1.41082 0
M  V30 20866 H 1904.24 -7.37918 -2.29557 0
M  V30 20867 H 1902.59 -6.63423 -2.07111 0
M  V30 20868 H 1905.78 -4.3733 -1.66912 0
M  V30 20869 H 1905.95 -6.13954 -2.07279 0
M  V30 20870 N 1899.36 0.706069 -1.40899 0
M  V30 20871 C 1900.77 1.2856 -1.35386 0
M  V30 20872 C 1901.12 1.96174 -0.0318902 0
M  V30 20873 O 1900.25 1.9814 0.870018 0
M  V30 20874 C 1900.84 2.33785 -2.45214 0
M  V30 20875 C 1899.4 2.87339 -2.43132 0
M  V30 20876 C 1898.55 1.61243 -2.25601 0
M  V30 20877 H 1901.5 0.501539 -1.50567 0
M  V30 20878 H 1901.52 3.14843 -2.13669 0
M  V30 20879 H 1901.03 1.84545 -3.41416 0
M  V30 20880 H 1899.13 3.40784 -1.50656 0
M  V30 20881 H 1899.24 3.38485 -3.39065 0
M  V30 20882 H 1897.61 1.86664 -1.73288 0
M  V30 20883 H 1898.39 1.14014 -3.23814 0
M  V30 20884 N 1900.84 1.26553 0.939264 0
M  V30 20885 C 1902.06 1.15098 1.72532 0
M  V30 20886 C 1902.49 -0.289811 1.85854 0
M  V30 20887 O 1901.84 -1.20997 1.35017 0
M  V30 20888 C 1901.89 1.82703 3.10889 0
M  V30 20889 O 1901 1.11712 3.96981 0
M  V30 20890 H 1900.34 0.40095 0.529278 0
M  V30 20891 H 1902.87 1.67408 1.17625 0
M  V30 20892 H 1902.88 1.89603 3.61268 0
M  V30 20893 H 1901.55 2.87519 3.00509 0
M  V30 20894 H 1900.13 1.12801 3.5543 0
M  V30 20895 N 1902.31 -1.14411 1.08387 0
M  V30 20896 C 1903.56 -1.85719 0.814638 0
M  V30 20897 C 1903.89 -1.82715 -0.657934 0
M  V30 20898 O 1903.17 -1.2577 -1.48365 0
M  V30 20899 C 1903.45 -3.34363 1.33691 0
M  V30 20900 C 1903.3 -3.4594 2.87481 0
M  V30 20901 C 1904.62 -4.29457 0.962006 0
M  V30 20902 H 1901.74 -0.674332 0.297399 0
M  V30 20903 H 1904.38 -1.34354 1.34346 0
M  V30 20904 H 1902.53 -3.78237 0.887082 0
M  V30 20905 H 1904.21 -3.10854 3.40833 0
M  V30 20906 H 1902.45 -2.87158 3.25151 0
M  V30 20907 H 1903.12 -4.50423 3.19097 0
M  V30 20908 H 1905.6 -3.93599 1.34979 0
M  V30 20909 H 1904.47 -5.31922 1.35464 0
M  V30 20910 H 1904.73 -4.41906 -0.130987 0
M  V30 20911 N 1903.79 -0.869509 -1.31443 0
M  V30 20912 C 1905.04 -0.490248 -1.97403 0
M  V30 20913 C 1905.39 0.946928 -1.67484 0
M  V30 20914 O 1904.69 1.65775 -0.960689 0
M  V30 20915 C 1904.88 -0.683486 -3.50804 0
M  V30 20916 C 1904.71 -2.13789 -3.95631 0
M  V30 20917 C 1903.48 -2.7794 -4.21992 0
M  V30 20918 C 1905.68 -3.11011 -4.09605 0
M  V30 20919 N 1903.66 -4.14137 -4.5317 0
M  V30 20920 C 1905.03 -4.32237 -4.4449 0
M  V30 20921 C 1907.09 -3.07008 -3.91983 0
M  V30 20922 C 1905.79 -5.49978 -4.63591 0
M  V30 20923 C 1907.81 -4.24007 -4.12277 0
M  V30 20924 C 1907.18 -5.43995 -4.47492 0
M  V30 20925 H 1903.28 -0.228424 -0.747895 0
M  V30 20926 H 1905.86 -1.12401 -1.58978 0
M  V30 20927 H 1904.03 -0.0793199 -3.88319 0
M  V30 20928 H 1905.76 -0.272657 -4.0378 0
M  V30 20929 H 1902.52 -2.28892 -4.14615 0
M  V30 20930 H 1902.94 -4.84433 -4.7292 0
M  V30 20931 H 1907.58 -2.15351 -3.63846 0
M  V30 20932 H 1905.3 -6.42153 -4.90576 0
M  V30 20933 H 1908.89 -4.22361 -4.00128 0
M  V30 20934 H 1907.77 -6.3302 -4.62877 0
M  V30 20935 N 1905.27 1.44508 -0.628902 0
M  V30 20936 C 1906.22 2.3067 0.0773497 0
M  V30 20937 C 1907.19 1.43353 0.839003 0
M  V30 20938 O 1908.37 1.72258 0.820487 0
M  V30 20939 C 1905.51 3.28596 1.05447 0
M  V30 20940 C 1904.63 4.31016 0.291465 0
M  V30 20941 C 1903.76 5.16035 1.2602 0
M  V30 20942 C 1902.8 6.10166 0.486229 0
M  V30 20943 N 1901.94 6.87892 1.40532 0
M  V30 20944 H 1906.78 2.90523 -0.663346 0
M  V30 20945 H 1904.31 1.43143 -0.338906 0
M  V30 20946 H 1906.27 3.83856 1.63433 0
M  V30 20947 H 1904.9 2.70448 1.76232 0
M  V30 20948 H 1903.95 3.78246 -0.404285 0
M  V30 20949 H 1905.27 4.97827 -0.311447 0
M  V30 20950 H 1904.42 5.75802 1.91147 0
M  V30 20951 H 1903.16 4.49293 1.89704 0
M  V30 20952 H 1902.16 5.4951 -0.178543 0
M  V30 20953 H 1903.39 6.78943 -0.145859 0
M  V30 20954 H 1901.33 6.2382 2.0294 0
M  V30 20955 H 1901.25 7.51134 0.856369 0
M  V30 20956 H 1902.52 7.52183 2.04549 0
M  V30 20957 N 1906.75 0.369315 1.53212 0
M  V30 20958 C 1907.7 -0.475399 2.25851 0
M  V30 20959 C 1908.67 -1.07444 1.26669 0
M  V30 20960 O 1909.85 -1.10623 1.55458 0
M  V30 20961 C 1906.99 -1.60725 3.05388 0
M  V30 20962 C 1906.1 -1.03302 4.19467 0
M  V30 20963 C 1905.24 -2.13427 4.86438 0
M  V30 20964 C 1904.28 -1.53489 5.92543 0
M  V30 20965 N 1903.42 -2.57463 6.5319 0
M  V30 20966 H 1908.26 0.150534 2.9762 0
M  V30 20967 H 1905.79 0.0860577 1.46848 0
M  V30 20968 H 1907.75 -2.274 3.49779 0
M  V30 20969 H 1906.38 -2.20378 2.35867 0
M  V30 20970 H 1905.43 -0.256437 3.79535 0
M  V30 20971 H 1906.74 -0.55483 4.95705 0
M  V30 20972 H 1905.9 -2.87915 5.34032 0
M  V30 20973 H 1904.64 -2.64599 4.09681 0
M  V30 20974 H 1903.64 -0.775176 5.44308 0
M  V30 20975 H 1904.87 -1.03137 6.71222 0
M  V30 20976 H 1902.81 -3.07841 5.79284 0
M  V30 20977 H 1902.73 -2.14342 7.24978 0
M  V30 20978 H 1904 -3.31642 7.05432 0
M  V30 20979 N 1908.23 -1.57291 0.0985816 0
M  V30 20980 C 1909.18 -2.10757 -0.869797 0
M  V30 20981 C 1910.16 -1.02343 -1.24156 0
M  V30 20982 O 1911.35 -1.28612 -1.21606 0
M  V30 20983 C 1908.48 -2.69425 -2.12756 0
M  V30 20984 C 1907.57 -3.84888 -1.78107 0
M  V30 20985 N 1907.96 -4.92778 -1.14034 0
M  V30 20986 C 1906.26 -3.94688 -2.07695 0
M  V30 20987 C 1906.96 -5.73373 -0.980736 0
M  V30 20988 N 1905.93 -5.22519 -1.49917 0
M  V30 20989 H 1909.74 -2.91555 -0.370523 0
M  V30 20990 H 1907.25 -1.62063 -0.104525 0
M  V30 20991 H 1909.25 -3.0606 -2.83077 0
M  V30 20992 H 1907.91 -1.90083 -2.63246 0
M  V30 20993 H 1908.92 -5.11578 -0.806735 0
M  V30 20994 H 1905.6 -3.2636 -2.60375 0
M  V30 20995 H 1906.99 -6.70188 -0.479379 0
M  V30 20996 N 1909.71 0.175127 -1.56624 0
M  V30 20997 C 1910.95 0.890605 -1.81418 0
M  V30 20998 C 1911.27 1.82946 -0.674958 0
M  V30 20999 O 1910.54 1.93504 0.305439 0
M  V30 21000 H 1909.12 0.331864 -0.669235 0
M  V30 21001 H 1911.79 0.175855 -1.94105 0
M  V30 21002 H 1910.88 1.46979 -2.75325 0
M  V30 21003 N 1911.18 1.5123 0.44355 0
M  V30 21004 C 1912.43 1.63833 1.19527 0
M  V30 21005 C 1912.76 0.350544 1.9101 0
M  V30 21006 O 1912.04 -0.649546 1.83333 0
M  V30 21007 C 1912.32 2.83747 2.21719 0
M  V30 21008 C 1912.17 4.22484 1.5436 0
M  V30 21009 C 1913.49 2.99184 3.22765 0
M  V30 21010 H 1910.61 0.596256 0.433184 0
M  V30 21011 H 1913.25 1.83697 0.485321 0
M  V30 21012 H 1911.4 2.66942 2.82267 0
M  V30 21013 H 1913.08 4.50944 0.971976 0
M  V30 21014 H 1911.32 4.25469 0.846069 0
M  V30 21015 H 1911.99 5.0237 2.28754 0
M  V30 21016 H 1914.47 3.14659 2.72266 0
M  V30 21017 H 1913.34 3.84663 3.91569 0
M  V30 21018 H 1913.6 2.10984 3.88508 0
M  V30 21019 N 1912.66 -0.698586 1.41271 0
M  V30 21020 C 1913.91 -1.46077 1.40674 0
M  V30 21021 C 1914.24 -1.94194 0.0146774 0
M  V30 21022 O 1913.52 -1.69325 -0.957036 0
M  V30 21023 C 1913.8 -2.67481 2.41093 0
M  V30 21024 C 1913.65 -2.25149 3.89394 0
M  V30 21025 C 1914.97 -3.69673 2.38809 0
M  V30 21026 H 1912.09 -0.529839 0.512288 0
M  V30 21027 H 1914.73 -0.795918 1.72526 0
M  V30 21028 H 1912.88 -3.24206 2.14062 0
M  V30 21029 H 1914.55 -1.73775 4.27317 0
M  V30 21030 H 1912.8 -1.56965 4.04406 0
M  V30 21031 H 1913.47 -3.12247 4.55199 0
M  V30 21032 H 1915.94 -3.22615 2.6279 0
M  V30 21033 H 1914.82 -4.52232 3.1109 0
M  V30 21034 H 1915.08 -4.1916 1.40562 0
M  V30 21035 N 1914.14 -1.27049 -0.93254 0
M  V30 21036 C 1915.09 -1.09183 -2.05382 0
M  V30 21037 C 1916.08 -0.0162863 -1.69392 0
M  V30 21038 O 1917.29 -0.173635 -1.79161 0
M  V30 21039 H 1913.66 -0.336282 -0.67262 0
M  V30 21040 H 1915.63 -2.04189 -2.17599 0
M  V30 21041 C 1914.38 -0.750687 -3.395 0
M  V30 21042 H 1913.71 -1.57019 -3.67675 0
M  V30 21043 H 1915.15 -0.665521 -4.18744 0
M  V30 21044 C 1913.6 0.544676 -3.32468 0
M  V30 21045 O 1914.13 1.58051 -3.69301 0
M  V30 21046 N 1912.34 0.538506 -2.85567 0
M  V30 21047 H 1911.89 -0.304834 -2.5579 0
M  V30 21048 H 1911.85 1.4053 -2.81245 0
M  V30 21049 N 1915.62 1.13835 -1.08993 0
M  V30 21050 C 1916.85 1.88861 -0.844923 0
M  V30 21051 C 1917.26 1.78897 0.603444 0
M  V30 21052 O 1916.62 1.15246 1.41508 0
M  V30 21053 C 1916.67 3.38622 -1.26559 0
M  V30 21054 O 1916.39 3.48321 -2.65714 0
M  V30 21055 C 1917.89 4.30629 -1.05232 0
M  V30 21056 H 1915.11 0.598038 -0.304288 0
M  V30 21057 H 1917.65 1.44129 -1.45076 0
M  V30 21058 H 1915.81 3.80954 -0.703737 0
M  V30 21059 H 1916.22 4.41387 -2.83333 0
M  V30 21060 H 1917.7 5.34057 -1.39598 0
M  V30 21061 H 1918.17 4.39199 0.0102308 0
M  V30 21062 H 1918.78 3.9406 -1.5999 0
M  V30 21063 N 1917.1 0.876467 1.3098 0
M  V30 21064 C 1918.03 0.352925 2.30817 0
M  V30 21065 C 1919.01 -0.559675 1.60629 0
M  V30 21066 O 1920.19 -0.475326 1.88293 0
M  V30 21067 C 1917.32 -0.440827 3.44491 0
M  V30 21068 C 1916.28 0.379253 4.26316 0
M  V30 21069 C 1915.6 -0.540582 5.3196 0
M  V30 21070 C 1916.9 1.61682 4.96645 0
M  V30 21071 H 1918.6 1.18719 2.74857 0
M  V30 21072 H 1916.14 0.572316 1.32138 0
M  V30 21073 H 1918.09 -0.817661 4.13391 0
M  V30 21074 H 1916.82 -1.30866 2.99235 0
M  V30 21075 H 1915.48 0.738117 3.59092 0
M  V30 21076 H 1915.13 -1.40588 4.82953 0
M  V30 21077 H 1914.83 0.00427133 5.876 0
M  V30 21078 H 1916.35 -0.914118 6.03719 0
M  V30 21079 H 1917.76 1.31105 5.58108 0
M  V30 21080 H 1916.16 2.10123 5.62111 0
M  V30 21081 H 1917.23 2.36602 4.23258 0
M  V30 21082 N 1918.57 -1.44173 0.636557 0
M  V30 21083 C 1919.8 -2.06866 0.148751 0
M  V30 21084 C 1920.22 -1.47295 -1.16987 0
M  V30 21085 O 1919.58 -0.576466 -1.71891 0
M  V30 21086 C 1919.63 -3.60561 0.0533064 0
M  V30 21087 O 1918.73 -4.00361 -0.989163 0
M  V30 21088 H 1918.07 -0.658243 0.087251 0
M  V30 21089 H 1920.6 -1.84956 0.874772 0
M  V30 21090 H 1920.61 -4.07775 -0.135499 0
M  V30 21091 H 1919.29 -4.033 1.01599 0
M  V30 21092 H 1917.87 -3.64769 -0.77449 0
M  V30 21093 N 1920.05 -0.377435 -1.53014 0
M  V30 21094 C 1921.28 0.211512 -2.06319 0
M  V30 21095 C 1921.7 1.40713 -1.24825 0
M  V30 21096 O 1921.06 1.79274 -0.270279 0
M  V30 21097 C 1921.11 0.571512 -3.56042 0
M  V30 21098 O 1920.21 1.66713 -3.77201 0
M  V30 21099 H 1919.55 0.0279862 -0.66341 0
M  V30 21100 H 1922.08 -0.541471 -1.97305 0
M  V30 21101 H 1922.09 0.839182 -3.99277 0
M  V30 21102 H 1920.77 -0.302672 -4.14797 0
M  V30 21103 H 1919.34 1.3941 -3.4586 0
M  V30 21104 N 1921.53 1.57237 -0.106922 0
M  V30 21105 C 1922.76 1.99545 0.565392 0
M  V30 21106 C 1923.18 0.985887 1.60193 0
M  V30 21107 O 1922.54 -0.0440657 1.81246 0
M  V30 21108 C 1922.59 3.40779 1.17908 0
M  V30 21109 O 1921.69 3.42656 2.29479 0
M  V30 21110 H 1921.03 0.648556 0.142379 0
M  V30 21111 H 1923.56 2.03699 -0.191829 0
M  V30 21112 H 1923.57 3.78728 1.51754 0
M  V30 21113 H 1922.25 4.13776 0.419776 0
M  V30 21114 H 1920.82 3.16514 1.97164 0
M  V30 21115 N 1923.01 -0.166818 1.56715 0
M  V30 21116 C 1923.94 -1.2086 1.99787 0
M  V30 21117 C 1924.92 -1.45918 0.874178 0
M  V30 21118 O 1926.1 -1.57176 1.14058 0
M  V30 21119 C 1923.23 -2.54648 2.3616 0
M  V30 21120 C 1922.19 -2.44151 3.51532 0
M  V30 21121 C 1921.51 -3.82469 3.7366 0
M  V30 21122 C 1922.81 -1.9424 4.84838 0
M  V30 21123 H 1924.51 -0.850538 2.87065 0
M  V30 21124 H 1922.05 -0.407696 1.38108 0
M  V30 21125 H 1924.01 -3.27736 2.64891 0
M  V30 21126 H 1922.73 -2.92251 1.45797 0
M  V30 21127 H 1921.39 -1.73516 3.22936 0
M  V30 21128 H 1921.04 -4.17473 2.8058 0
M  V30 21129 H 1920.74 -3.76312 4.5129 0
M  V30 21130 H 1922.26 -4.57136 4.04796 0
M  V30 21131 H 1923.68 -2.57105 5.12416 0
M  V30 21132 H 1922.07 -1.99021 5.66137 0
M  V30 21133 H 1923.14 -0.89695 4.76532 0
M  V30 21134 N 1924.49 -1.51463 -0.435524 0
M  V30 21135 C 1925.9 -1.56678 -1.01533 0
M  V30 21136 C 1926.25 -0.391337 -1.92258 0
M  V30 21137 O 1925.37 0.491647 -2.10741 0
M  V30 21138 C 1925.97 -2.83951 -1.84817 0
M  V30 21139 C 1924.53 -2.91731 -2.37844 0
M  V30 21140 C 1923.67 -2.51359 -1.17106 0
M  V30 21141 H 1926.63 -1.57213 -0.216726 0
M  V30 21142 H 1926.65 -2.67815 -2.70287 0
M  V30 21143 H 1926.16 -3.69483 -1.1876 0
M  V30 21144 H 1924.26 -2.10633 -3.07351 0
M  V30 21145 H 1924.37 -3.95421 -2.70517 0
M  V30 21146 H 1922.74 -2.04599 -1.51695 0
M  V30 21147 H 1923.52 -3.39238 -0.526566 0
M  V30 21148 N 1925.96 0.691085 -1.4164 0
M  V30 21149 C 1926.9 1.81646 -1.39776 0
M  V30 21150 C 1927.91 1.60026 -0.299243 0
M  V30 21151 O 1929.1 1.69446 -0.561266 0
M  V30 21152 C 1926.2 3.18486 -1.15845 0
M  V30 21153 C 1925.37 3.67096 -2.37822 0
M  V30 21154 C 1924.43 4.82618 -2.09681 0
M  V30 21155 O 1923.46 4.94002 -2.82756 0
M  V30 21156 N 1924.66 5.70178 -1.08983 0
M  V30 21157 H 1927.42 1.83736 -2.36773 0
M  V30 21158 H 1924.98 0.873576 -1.36309 0
M  V30 21159 H 1926.98 3.934 -0.949639 0
M  V30 21160 H 1925.55 3.11394 -0.274301 0
M  V30 21161 H 1924.77 2.83038 -2.74377 0
M  V30 21162 H 1926.05 3.96312 -3.19083 0
M  V30 21163 H 1925.45 5.63616 -0.48512 0
M  V30 21164 H 1924.01 6.44973 -0.940906 0
M  V30 21165 N 1927.44 1.27542 0.925789 0
M  V30 21166 C 1928.69 1.13767 1.67038 0
M  V30 21167 C 1929.01 -0.316603 1.92413 0
M  V30 21168 O 1928.28 -1.22124 1.53175 0
M  V30 21169 H 1926.86 0.41803 0.61908 0
M  V30 21170 H 1929.52 1.60097 1.11153 0
M  V30 21171 H 1928.62 1.66818 2.63777 0
M  V30 21172 N 1928.92 -1.13255 1.09595 0
M  V30 21173 C 1930.2 -1.8084 0.74541 0
M  V30 21174 C 1930.58 -1.96582 -0.769323 0
M  V30 21175 O 1929.93 -1.53529 -1.69237 0
M  V30 21176 C 1930.14 -3.15762 1.48645 0
M  V30 21177 C 1931.48 -3.91087 1.65337 0
M  V30 21178 O 1932.51 -3.25391 1.4491 0
M  V30 21179 O 1931.37 -5.08927 1.99137 0
M  V30 21180 H 1928.46 -0.782384 0.267963 0
M  V30 21181 H 1931.01 -1.20167 1.19825 0
M  V30 21182 H 1929.78 -2.99541 2.51775 0
M  V30 21183 H 1929.4 -3.84137 1.02589 0
M  V30 21184 N 1930.4 -0.883401 -1.30514 0
M  V30 21185 C 1931.33 -0.36516 -2.30627 0
M  V30 21186 C 1932.31 0.551149 -1.60923 0
M  V30 21187 O 1933.49 0.465333 -1.88543 0
M  V30 21188 C 1930.62 0.422552 -3.4472 0
M  V30 21189 C 1929.58 -0.401856 -4.26109 0
M  V30 21190 C 1928.9 0.512363 -5.3224 0
M  V30 21191 C 1930.2 -1.64313 -4.95781 0
M  V30 21192 H 1931.9 -1.20175 -2.74223 0
M  V30 21193 H 1929.44 -0.579315 -1.31833 0
M  V30 21194 H 1931.4 0.795726 -4.13819 0
M  V30 21195 H 1930.12 1.29278 -2.99925 0
M  V30 21196 H 1928.78 -0.75715 -3.58696 0
M  V30 21197 H 1928.43 1.38025 -4.83692 0
M  V30 21198 H 1928.13 -0.0354331 -5.87589 0
M  V30 21199 H 1929.65 0.882088 -6.04195 0
M  V30 21200 H 1931.07 -1.34063 -5.57405 0
M  V30 21201 H 1929.46 -2.13101 -5.60989 0
M  V30 21202 H 1930.53 -2.38843 -4.21998 0
M  V30 21203 N 1931.88 1.43833 -0.644194 0
M  V30 21204 C 1932.79 2.34538 0.0537504 0
M  V30 21205 C 1933.8 1.53369 0.821825 0
M  V30 21206 O 1934.98 1.86053 0.771123 0
M  V30 21207 C 1932.04 3.3153 1.01434 0
M  V30 21208 C 1931.1 4.28605 0.244198 0
M  V30 21209 C 1930.34 5.20963 1.15903 0
M  V30 21210 O 1930.56 5.1754 2.3981 0
M  V30 21211 O 1929.49 5.98527 0.636302 0
M  V30 21212 H 1933.32 2.95696 -0.692624 0
M  V30 21213 H 1930.91 1.43823 -0.404377 0
M  V30 21214 H 1932.79 3.91196 1.56663 0
M  V30 21215 H 1931.46 2.72887 1.7411 0
M  V30 21216 H 1930.37 3.72445 -0.351459 0
M  V30 21217 H 1931.7 4.90204 -0.442806 0
M  V30 21218 N 1933.35 0.385544 1.52811 0
M  V30 21219 C 1934.58 -0.200568 2.06428 0
M  V30 21220 C 1935 -1.40049 1.2557 0
M  V30 21221 O 1934.36 -1.79128 0.279782 0
M  V30 21222 C 1934.41 -0.552623 3.5634 0
M  V30 21223 O 1933.51 -1.64711 3.7808 0
M  V30 21224 H 1932.86 -0.0244676 0.663549 0
M  V30 21225 H 1935.39 0.551927 1.97015 0
M  V30 21226 H 1935.4 -0.817996 3.99716 0
M  V30 21227 H 1934.07 0.324665 4.14631 0
M  V30 21228 H 1932.65 -1.37574 3.46595 0
M  V30 21229 N 1934.83 -1.57178 0.115259 0
M  V30 21230 C 1935.78 -2.16368 -0.853683 0
M  V30 21231 C 1936.77 -1.11189 -1.27802 0
M  V30 21232 O 1937.98 -1.29499 -1.2502 0
M  V30 21233 H 1934.36 -0.692403 -0.293397 0
M  V30 21234 H 1936.33 -2.9657 -0.329954 0
M  V30 21235 C 1935.08 -2.7747 -2.09537 0
M  V30 21236 H 1934.4 -3.581 -1.77777 0
M  V30 21237 H 1935.84 -3.22428 -2.75347 0
M  V30 21238 C 1934.3 -1.74366 -2.88268 0
M  V30 21239 O 1934.83 -1.19476 -3.83521 0
M  V30 21240 N 1933.03 -1.44392 -2.52189 0
M  V30 21241 H 1932.58 -1.89219 -1.74797 0
M  V30 21242 H 1932.54 -0.756482 -3.05163 0
M  V30 21243 N 1936.31 0.158505 -1.56801 0
M  V30 21244 C 1937.26 1.21526 -1.98328 0
M  V30 21245 C 1938.25 1.45117 -0.873926 0
M  V30 21246 O 1939.46 1.45545 -1.05908 0
M  V30 21247 H 1935.83 0.408803 -0.631177 0
M  V30 21248 H 1937.81 0.838242 -2.86384 0
M  V30 21249 C 1936.55 2.54396 -2.37019 0
M  V30 21250 H 1935.88 2.3707 -3.21928 0
M  V30 21251 H 1937.32 3.26994 -2.69909 0
M  V30 21252 C 1935.78 3.14095 -1.21845 0
M  V30 21253 O 1936.31 3.98411 -0.51298 0
M  V30 21254 N 1934.51 2.73373 -0.985675 0
M  V30 21255 H 1934.06 2.04907 -1.56112 0
M  V30 21256 H 1934.02 3.13651 -0.216926 0
M  V30 21257 N 1937.79 1.51692 0.427485 0
M  V30 21258 C 1939.2 1.57214 1.007 0
M  V30 21259 C 1939.55 0.401527 1.92047 0
M  V30 21260 O 1938.68 -0.480464 2.10999 0
M  V30 21261 C 1939.27 2.84927 1.83309 0
M  V30 21262 C 1937.83 2.92989 2.36294 0
M  V30 21263 C 1936.98 2.51977 1.15772 0
M  V30 21264 H 1939.93 1.57326 0.208386 0
M  V30 21265 H 1939.95 2.69245 2.68863 0
M  V30 21266 H 1939.46 3.70108 1.16799 0
M  V30 21267 H 1937.56 2.1226 3.06229 0
M  V30 21268 H 1937.68 3.9685 2.68416 0
M  V30 21269 H 1936.04 2.054 1.50608 0
M  V30 21270 H 1936.82 3.39512 0.508568 0
M  V30 21271 N 1939.27 -0.683564 1.42004 0
M  V30 21272 C 1940.51 -1.44363 1.42005 0
M  V30 21273 C 1940.84 -1.94471 0.0333832 0
M  V30 21274 O 1940.1 -1.70716 -0.95679 0
M  V30 21275 C 1940.4 -2.66286 2.38383 0
M  V30 21276 C 1940.06 -2.34769 3.8496 0
M  V30 21277 C 1938.72 -2.25884 4.24888 0
M  V30 21278 C 1941.08 -2.09012 4.77455 0
M  V30 21279 C 1938.4 -1.89356 5.55303 0
M  V30 21280 C 1940.76 -1.73991 6.08202 0
M  V30 21281 C 1939.42 -1.6361 6.47138 0
M  V30 21282 H 1938.69 -0.528262 0.519634 0
M  V30 21283 H 1941.34 -0.780217 1.74885 0
M  V30 21284 H 1939.64 -3.37618 1.98799 0
M  V30 21285 H 1941.34 -3.24452 2.35652 0
M  V30 21286 H 1937.93 -2.42583 3.53343 0
M  V30 21287 H 1942.11 -2.14814 4.47402 0
M  V30 21288 H 1937.37 -1.79882 5.84339 0
M  V30 21289 H 1941.54 -1.53084 6.79366 0
M  V30 21290 H 1939.17 -1.35075 7.48103 0
M  V30 21291 N 1940.75 -1.28031 -0.919012 0
M  V30 21292 C 1941.7 -1.08151 -2.00717 0
M  V30 21293 C 1942.68 -0.00679124 -1.60899 0
M  V30 21294 O 1943.87 -0.226329 -1.75547 0
M  V30 21295 C 1941 -0.739868 -3.35233 0
M  V30 21296 C 1940.09 -1.85317 -3.81469 0
M  V30 21297 N 1940.48 -3.09403 -4.00129 0
M  V30 21298 C 1938.78 -1.74182 -4.10581 0
M  V30 21299 C 1939.48 -3.81909 -4.38772 0
M  V30 21300 N 1938.45 -3.09725 -4.46734 0
M  V30 21301 H 1942.25 -2.02308 -2.13187 0
M  V30 21302 H 1939.77 -1.18873 -1.10648 0
M  V30 21303 H 1941.77 -0.578538 -4.12866 0
M  V30 21304 H 1940.43 0.193987 -3.2412 0
M  V30 21305 H 1941.44 -3.45071 -3.86195 0
M  V30 21306 H 1938.11 -0.879386 -4.08134 0
M  V30 21307 H 1939.5 -4.886 -4.61216 0
M  V30 21308 N 1942.22 1.12672 -1.10194 0
M  V30 21309 C 1943.46 1.85769 -0.852599 0
M  V30 21310 C 1943.83 1.82027 0.610749 0
M  V30 21311 O 1945.03 2.50442 0.976339 0
M  V30 21312 C 1943.3 3.29565 -1.38281 0
M  V30 21313 S 1944.86 4.20064 -1.26853 0
M  V30 21314 H 1941.68 0.64075 -0.308157 0
M  V30 21315 H 1944.28 1.35746 -1.40689 0
M  V30 21316 H 1942.98 3.29846 -2.44192 0
M  V30 21317 H 1942.51 3.84652 -0.824994 0
M  V30 21318 H 1944.53 4.95691 -0.224588 0
M  V30 21319 N 1943.7 0.89031 1.30043 0
M  V30 21320 C 1944.65 0.35066 2.29942 0
M  V30 21321 C 1945.64 -0.545188 1.60387 0
M  V30 21322 O 1946.85 -0.42903 1.74812 0
M  V30 21323 H 1943.22 0.0947502 0.746007 0
M  V30 21324 H 1945.2 1.20676 2.7291 0
M  V30 21325 C 1943.94 -0.415088 3.45213 0
M  V30 21326 H 1943.27 0.265007 3.98921 0
M  V30 21327 H 1944.71 -0.757694 4.17175 0
M  V30 21328 C 1943.17 -1.6142 2.95711 0
M  V30 21329 O 1943.7 -2.71355 2.96191 0
M  V30 21330 N 1941.9 -1.45317 2.51657 0
M  V30 21331 H 1941.45 -0.558807 2.51466 0
M  V30 21332 H 1941.41 -2.25683 2.18894 0
M  V30 21333 N 1945.18 -1.43489 0.651812 0
M  V30 21334 C 1946.43 -2.01049 0.161972 0
M  V30 21335 C 1946.74 -1.52018 -1.23085 0
M  V30 21336 O 1947.95 -2.01842 -1.81583 0
M  V30 21337 C 1946.4 -3.59107 0.238761 0
M  V30 21338 C 1946.01 -4.17131 1.63419 0
M  V30 21339 C 1947.76 -4.24059 -0.193548 0
M  V30 21340 C 1945.66 -5.67479 1.66498 0
M  V30 21341 H 1944.59 -0.751858 0.0567901 0
M  V30 21342 H 1947.24 -1.64475 0.813641 0
M  V30 21343 H 1945.63 -3.93075 -0.48039 0
M  V30 21344 H 1946.8 -3.94665 2.37858 0
M  V30 21345 H 1945.11 -3.64546 2.01235 0
M  V30 21346 H 1947.71 -5.34361 -0.190368 0
M  V30 21347 H 1948.05 -3.97877 -1.22472 0
M  V30 21348 H 1948.59 -3.94968 0.473805 0
M  V30 21349 H 1945.33 -5.98426 2.6752 0
M  V30 21350 H 1944.85 -5.92006 0.963819 0
M  V30 21351 H 1946.53 -6.31492 1.40809 0
M  V30 21352 N 1946.66 -0.393643 -1.52605 0
M  V30 21353 C 1947.59 0.430786 -2.29492 0
M  V30 21354 C 1948.57 1.0597 -1.33058 0
M  V30 21355 O 1949.75 1.07165 -1.61955 0
M  V30 21356 C 1946.88 1.55599 -3.10494 0
M  V30 21357 C 1945.84 1.05289 -4.14847 0
M  V30 21358 C 1945.16 2.2705 -4.841 0
M  V30 21359 C 1946.46 0.117789 -5.22167 0
M  V30 21360 H 1948.16 -0.210741 -2.98657 0
M  V30 21361 H 1945.7 -0.102795 -1.43633 0
M  V30 21362 H 1947.66 2.1396 -3.63042 0
M  V30 21363 H 1946.38 2.22517 -2.39069 0
M  V30 21364 H 1945.04 0.491788 -3.63286 0
M  V30 21365 H 1944.69 2.92487 -4.09219 0
M  V30 21366 H 1944.39 1.94047 -5.54635 0
M  V30 21367 H 1945.91 2.86045 -5.39454 0
M  V30 21368 H 1947.33 0.609718 -5.70049 0
M  V30 21369 H 1945.72 -0.122689 -5.99975 0
M  V30 21370 H 1946.79 -0.832053 -4.77708 0
M  V30 21371 N 1948.14 1.57115 -0.123593 0
M  V30 21372 C 1949.07 2.11281 0.862306 0
M  V30 21373 C 1950.05 1.03036 1.25787 0
M  V30 21374 O 1951.23 1.3072 1.35811 0
M  V30 21375 C 1948.36 2.61329 2.15464 0
M  V30 21376 C 1947.4 3.81502 1.90679 0
M  V30 21377 S 1948.24 5.2368 1.11891 0
M  V30 21378 C 1949.39 5.771 2.42294 0
M  V30 21379 H 1949.63 2.94575 0.401603 0
M  V30 21380 H 1947.16 1.54136 0.0902687 0
M  V30 21381 H 1949.12 2.90818 2.89715 0
M  V30 21382 H 1947.78 1.78208 2.58651 0
M  V30 21383 H 1946.97 4.14685 2.86448 0
M  V30 21384 H 1946.57 3.52653 1.24547 0
M  V30 21385 H 1948.86 5.87105 3.38104 0
M  V30 21386 H 1949.81 6.751 2.13649 0
M  V30 21387 H 1950.22 5.05194 2.51871 0
M  V30 21388 N 1949.61 -0.150187 1.56883 0
M  V30 21389 C 1950.56 -1.18552 1.98025 0
M  V30 21390 C 1951.53 -1.42861 0.847353 0
M  V30 21391 O 1952.72 -1.55249 1.10917 0
M  V30 21392 C 1949.86 -2.51479 2.36331 0
M  V30 21393 C 1948.97 -2.34371 3.62897 0
M  V30 21394 C 1948.1 -3.60311 3.9032 0
M  V30 21395 C 1947.14 -3.38226 5.10166 0
M  V30 21396 N 1946.28 -4.56289 5.33615 0
M  V30 21397 H 1951.12 -0.827667 2.86276 0
M  V30 21398 H 1948.66 -0.397238 1.41635 0
M  V30 21399 H 1950.61 -3.28981 2.56568 0
M  V30 21400 H 1949.24 -2.85218 1.51164 0
M  V30 21401 H 1948.3 -1.47939 3.50454 0
M  V30 21402 H 1949.61 -2.1401 4.50556 0
M  V30 21403 H 1948.76 -4.46243 4.11038 0
M  V30 21404 H 1947.5 -3.83672 3.01076 0
M  V30 21405 H 1946.51 -2.50682 4.89324 0
M  V30 21406 H 1947.73 -3.16266 6.0096 0
M  V30 21407 H 1945.68 -4.79829 4.47325 0
M  V30 21408 H 1945.59 -4.38919 6.15537 0
M  V30 21409 H 1946.86 -5.43443 5.58829 0
M  V30 21410 N 1951.09 -1.51916 -0.419434 0
M  V30 21411 C 1952.37 -1.56023 -1.17967 0
M  V30 21412 C 1952.75 -0.335094 -2.08423 0
M  V30 21413 O 1952.1 0.678731 -2.18187 0
M  V30 21414 C 1952.31 -2.8836 -1.96595 0
M  V30 21415 C 1953.66 -3.40979 -2.53019 0
M  V30 21416 O 1954.68 -2.90031 -2.06786 0
M  V30 21417 O 1953.54 -4.2992 -3.37388 0
M  V30 21418 H 1950.63 -0.628035 -0.538053 0
M  V30 21419 H 1953.18 -1.64239 -0.42705 0
M  V30 21420 H 1951.95 -3.6898 -1.30267 0
M  V30 21421 H 1951.57 -2.83389 -2.78884 0
M  V30 21422 N 1952.57 0.676023 -1.42365 0
M  V30 21423 C 1953.85 1.43189 -1.33252 0
M  V30 21424 C 1954.23 2.11078 0.0306765 0
M  V30 21425 O 1953.58 2.03148 1.0461 0
M  V30 21426 C 1953.79 2.43534 -2.49984 0
M  V30 21427 C 1955.13 3.08213 -2.92044 0
M  V30 21428 O 1956.16 2.53861 -2.49866 0
M  V30 21429 O 1955.02 4.06702 -3.65042 0
M  V30 21430 H 1952.11 0.638626 -0.525438 0
M  V30 21431 H 1954.66 0.704851 -1.5437 0
M  V30 21432 H 1953.43 1.92159 -3.40867 0
M  V30 21433 H 1953.05 3.23721 -2.30847 0
M  V30 21434 N 1954.05 1.28517 0.912209 0
M  V30 21435 C 1955 1.12575 2.01483 0
M  V30 21436 C 1955.97 0.0224628 1.66085 0
M  V30 21437 O 1957.15 0.18768 1.89875 0
M  V30 21438 C 1954.29 0.795229 3.35813 0
M  V30 21439 C 1953.4 1.97772 3.84071 0
M  V30 21440 C 1952.54 1.58768 5.06918 0
M  V30 21441 C 1951.58 2.73672 5.47513 0
M  V30 21442 N 1950.71 2.3515 6.6155 0
M  V30 21443 H 1955.55 2.06918 2.1445 0
M  V30 21444 H 1953.09 1.02983 1.05037 0
M  V30 21445 H 1955.05 0.584339 4.13088 0
M  V30 21446 H 1953.68 -0.111266 3.22608 0
M  V30 21447 H 1952.73 2.30069 3.0294 0
M  V30 21448 H 1954.04 2.83913 4.10115 0
M  V30 21449 H 1953.2 1.33894 5.91741 0
M  V30 21450 H 1951.94 0.697566 4.82686 0
M  V30 21451 H 1950.94 2.99242 4.61231 0
M  V30 21452 H 1952.17 3.63328 5.73733 0
M  V30 21453 H 1950.11 1.4861 6.38945 0
M  V30 21454 H 1950.03 3.14827 6.87328 0
M  V30 21455 H 1951.3 2.13564 7.49674 0
M  V30 21456 N 1955.53 -1.12086 1.1079 0
M  V30 21457 C 1956.8 -1.80039 0.764549 0
M  V30 21458 C 1957.18 -1.97387 -0.748429 0
M  V30 21459 O 1956.53 -1.55315 -1.67599 0
M  V30 21460 C 1956.74 -3.14168 1.51985 0
M  V30 21461 C 1958.09 -3.89311 1.69476 0
M  V30 21462 O 1959.11 -3.23836 1.48354 0
M  V30 21463 O 1957.97 -5.06786 2.04524 0
M  V30 21464 H 1955.07 -0.779498 0.276246 0
M  V30 21465 H 1957.61 -1.18889 1.21093 0
M  V30 21466 H 1956.38 -2.96854 2.54938 0
M  V30 21467 H 1956.01 -3.83027 1.06658 0
M  V30 21468 N 1957 -0.897194 -1.29569 0
M  V30 21469 C 1958.42 -0.570676 -1.77764 0
M  V30 21470 C 1958.77 0.913595 -1.73631 0
M  V30 21471 O 1957.89 1.71426 -1.32068 0
M  V30 21472 C 1958.49 -1.02914 -3.22791 0
M  V30 21473 C 1957.05 -0.753828 -3.68774 0
M  V30 21474 C 1956.19 -1.20525 -2.49738 0
M  V30 21475 H 1959.14 -1.08018 -1.16266 0
M  V30 21476 H 1959.16 -0.363343 -3.78761 0
M  V30 21477 H 1958.68 -2.10944 -3.25767 0
M  V30 21478 H 1956.78 0.313965 -3.71275 0
M  V30 21479 H 1956.89 -1.34995 -4.59688 0
M  V30 21480 H 1955.25 -0.624304 -2.4693 0
M  V30 21481 H 1956.04 -2.29355 -2.55443 0
M  V30 21482 N 1958.48 1.43142 -0.659413 0
M  V30 21483 C 1959.41 2.29102 0.0671619 0
M  V30 21484 C 1960.43 1.42846 0.780943 0
M  V30 21485 O 1961.62 1.66722 0.637666 0
M  V30 21486 C 1958.72 3.19915 1.11838 0
M  V30 21487 C 1957.89 4.34742 0.481505 0
M  V30 21488 C 1956.95 5.06384 1.43043 0
M  V30 21489 O 1955.97 5.61441 0.936648 0
M  V30 21490 N 1957.18 5.10461 2.76423 0
M  V30 21491 H 1959.94 2.92099 -0.670674 0
M  V30 21492 H 1957.5 1.53899 -0.50266 0
M  V30 21493 H 1959.49 3.64708 1.75413 0
M  V30 21494 H 1958.06 2.58474 1.75812 0
M  V30 21495 H 1957.28 3.92787 -0.333461 0
M  V30 21496 H 1958.57 5.08786 0.0371775 0
M  V30 21497 H 1957.97 4.67114 3.19095 0
M  V30 21498 H 1956.53 5.58952 3.35285 0
M  V30 21499 N 1959.96 0.40173 1.52394 0
M  V30 21500 C 1961.2 -0.176078 2.0364 0
M  V30 21501 C 1961.56 -1.43004 1.28117 0
M  V30 21502 O 1962.77 -2.08581 1.69551 0
M  V30 21503 C 1961.04 -0.425192 3.54862 0
M  V30 21504 S 1962.6 -0.971506 4.2791 0
M  V30 21505 H 1959.41 -0.0484885 0.709345 0
M  V30 21506 H 1962.02 0.552944 1.87517 0
M  V30 21507 H 1960.72 0.494352 4.07412 0
M  V30 21508 H 1960.25 -1.18229 3.75214 0
M  V30 21509 H 1962.27 -2.25275 4.42115 0
M  V30 21510 N 1961.44 -1.57047 0.131923 0
M  V30 21511 C 1962.39 -2.17261 -0.830686 0
M  V30 21512 C 1963.38 -1.12538 -1.26616 0
M  V30 21513 O 1964.59 -1.30818 -1.23639 0
M  V30 21514 H 1960.96 -0.695476 -0.286037 0
M  V30 21515 H 1962.93 -2.96903 -0.29848 0
M  V30 21516 C 1961.68 -2.79677 -2.06582 0
M  V30 21517 H 1961 -3.59965 -1.73969 0
M  V30 21518 H 1962.44 -3.2533 -2.71912 0
M  V30 21519 C 1960.9 -1.77413 -2.86402 0
M  V30 21520 O 1961.43 -1.23537 -3.82232 0
M  V30 21521 N 1959.64 -1.47059 -2.50643 0
M  V30 21522 H 1959.19 -1.91062 -1.7278 0
M  V30 21523 H 1959.14 -0.788806 -3.04344 0
M  V30 21524 N 1962.92 0.141865 -1.5696 0
M  V30 21525 C 1964.17 0.852066 -1.82819 0
M  V30 21526 C 1964.48 1.82103 -0.713987 0
M  V30 21527 O 1965.68 2.57575 -0.858321 0
M  V30 21528 C 1964.14 1.56589 -3.24049 0
M  V30 21529 C 1963.75 0.639071 -4.43418 0
M  V30 21530 C 1965.49 2.26257 -3.59177 0
M  V30 21531 C 1963.4 1.35481 -5.75673 0
M  V30 21532 H 1962.33 0.321934 -0.681817 0
M  V30 21533 H 1964.98 0.104791 -1.83201 0
M  V30 21534 H 1963.36 2.35898 -3.1807 0
M  V30 21535 H 1964.54 -0.119159 -4.60646 0
M  V30 21536 H 1962.85 0.0505413 -4.16369 0
M  V30 21537 H 1965.45 2.80455 -4.55246 0
M  V30 21538 H 1965.79 3.02992 -2.85485 0
M  V30 21539 H 1966.32 1.53861 -3.6684 0
M  V30 21540 H 1963.06 0.629214 -6.52473 0
M  V30 21541 H 1962.58 2.08562 -5.62372 0
M  V30 21542 H 1964.26 1.89432 -6.18647 0
M  V30 21543 N 1964.39 1.52136 0.411372 0
M  V30 21544 C 1965.64 1.66085 1.15853 0
M  V30 21545 C 1965.97 0.38968 1.90556 0
M  V30 21546 O 1965.22 -0.62727 1.85375 0
M  V30 21547 C 1965.52 2.832 2.1802 0
M  V30 21548 C 1965.19 4.21504 1.6014 0
M  V30 21549 C 1963.85 4.59124 1.4408 0
M  V30 21550 C 1966.2 5.07702 1.17848 0
M  V30 21551 C 1963.53 5.80621 0.842405 0
M  V30 21552 C 1965.88 6.29802 0.594283 0
M  V30 21553 C 1964.55 6.66172 0.420791 0
M  V30 21554 H 1963.82 0.607749 0.423937 0
M  V30 21555 H 1966.46 1.86233 0.446046 0
M  V30 21556 H 1964.77 2.57378 2.95405 0
M  V30 21557 H 1966.47 2.91189 2.75699 0
M  V30 21558 H 1963.06 3.91858 1.73623 0
M  V30 21559 H 1967.24 4.79224 1.29066 0
M  V30 21560 H 1962.5 6.07426 0.695983 0
M  V30 21561 H 1966.67 6.95921 0.258177 0
M  V30 21562 H 1964.3 7.60187 -0.044991 0
M  V30 21563 N 1965.87 -0.668464 1.42721 0
M  V30 21564 C 1967.12 -1.42567 1.43245 0
M  V30 21565 C 1967.44 -1.9493 0.0521972 0
M  V30 21566 O 1966.71 -1.73469 -0.910231 0
M  V30 21567 H 1965.29 -0.529068 0.527349 0
M  V30 21568 H 1967.95 -0.789428 1.78197 0
M  V30 21569 H 1967.05 -2.27556 2.13599 0
M  V30 21570 N 1967.35 -1.28999 -0.905381 0
M  V30 21571 C 1968.28 -1.09447 -2.0138 0
M  V30 21572 C 1969.3 -0.0436697 -1.62741 0
M  V30 21573 O 1970.49 -0.287603 -1.76168 0
M  V30 21574 C 1967.59 -0.642796 -3.32748 0
M  V30 21575 C 1966.76 -1.77086 -3.99949 0
M  V30 21576 C 1965.82 -1.31115 -5.09603 0
M  V30 21577 O 1964.84 -2.01488 -5.32345 0
M  V30 21578 N 1966.05 -0.178924 -5.80224 0
M  V30 21579 H 1968.81 -2.04906 -2.18709 0
M  V30 21580 H 1966.37 -1.20863 -1.07721 0
M  V30 21581 H 1968.36 -0.318684 -4.03443 0
M  V30 21582 H 1966.93 0.21918 -3.11831 0
M  V30 21583 H 1966.15 -2.26414 -3.22692 0
M  V30 21584 H 1967.44 -2.52736 -4.4159 0
M  V30 21585 H 1966.84 0.407926 -5.64227 0
M  V30 21586 H 1965.4 0.085857 -6.51743 0
M  V30 21587 N 1968.83 1.11497 -1.11383 0
M  V30 21588 C 1970.11 1.79631 -0.774086 0
M  V30 21589 C 1970.49 1.97781 0.737951 0
M  V30 21590 O 1969.83 1.56202 1.66773 0
M  V30 21591 C 1970.04 3.13357 -1.53649 0
M  V30 21592 C 1971.39 3.88407 -1.71538 0
M  V30 21593 O 1972.42 3.23045 -1.50069 0
M  V30 21594 O 1971.28 5.05694 -2.07209 0
M  V30 21595 H 1968.37 0.778022 -0.280376 0
M  V30 21596 H 1970.92 1.18245 -1.21722 0
M  V30 21597 H 1969.69 2.95498 -2.56509 0
M  V30 21598 H 1969.31 3.82456 -1.08688 0
M  V30 21599 N 1970.31 0.904053 1.29092 0
M  V30 21600 C 1971.24 0.401805 2.30017 0
M  V30 21601 C 1972.22 -0.525477 1.6178 0
M  V30 21602 O 1973.4 -0.435279 1.89259 0
M  V30 21603 C 1970.53 -0.367656 3.45348 0
M  V30 21604 C 1969.49 0.469596 4.25416 0
M  V30 21605 C 1968.81 -0.427624 5.32987 0
M  V30 21606 C 1970.11 1.7218 4.93104 0
M  V30 21607 H 1971.81 1.24523 2.72276 0
M  V30 21608 H 1969.35 0.600215 1.30895 0
M  V30 21609 H 1971.31 -0.729791 4.15033 0
M  V30 21610 H 1970.03 -1.2449 3.01944 0
M  V30 21611 H 1968.69 0.814119 3.57446 0
M  V30 21612 H 1968.34 -1.30313 4.85827 0
M  V30 21613 H 1968.04 0.128909 5.87459 0
M  V30 21614 H 1969.56 -0.785855 6.05522 0
M  V30 21615 H 1970.98 1.42914 5.55201 0
M  V30 21616 H 1969.37 2.21999 5.57527 0
M  V30 21617 H 1970.44 2.45526 4.18145 0
M  V30 21618 N 1971.79 -1.4279 0.666995 0
M  V30 21619 C 1973.2 -1.84821 0.264217 0
M  V30 21620 C 1973.55 -1.55834 -1.19206 0
M  V30 21621 O 1972.67 -1.01422 -1.91161 0
M  V30 21622 C 1973.27 -3.35485 0.47276 0
M  V30 21623 C 1971.83 -3.76195 0.124176 0
M  V30 21624 C 1970.97 -2.66424 0.768989 0
M  V30 21625 H 1973.92 -1.32747 0.869709 0
M  V30 21626 H 1973.95 -3.79487 -0.277532 0
M  V30 21627 H 1973.46 -3.56551 1.53274 0
M  V30 21628 H 1971.56 -3.60738 -0.932667 0
M  V30 21629 H 1971.67 -4.75825 0.559251 0
M  V30 21630 H 1970.04 -2.53906 0.200994 0
M  V30 21631 H 1970.82 -2.90315 1.83227 0
M  V30 21632 N 1973.26 -0.409806 -1.52179 0
M  V30 21633 C 1974.23 0.40345 -2.25621 0
M  V30 21634 C 1975.23 0.973072 -1.28015 0
M  V30 21635 O 1976.42 0.851845 -1.51951 0
M  V30 21636 C 1973.55 1.568 -3.02699 0
M  V30 21637 H 1974.74 -0.239822 -2.9894 0
M  V30 21638 H 1972.29 -0.162341 -1.55455 0
M  V30 21639 H 1973.03 2.24811 -2.33731 0
M  V30 21640 H 1972.81 1.16603 -3.74361 0
M  V30 21641 H 1974.3 2.14326 -3.58405 0
M  V30 21642 N 1974.74 1.56975 -0.14025 0
M  V30 21643 C 1975.99 1.96196 0.513302 0
M  V30 21644 C 1976.32 1.02482 1.64958 0
M  V30 21645 O 1975.6 0.0659332 1.94388 0
M  V30 21646 C 1975.88 3.45178 1.02589 0
M  V30 21647 C 1975.73 4.49669 -0.108432 0
M  V30 21648 C 1977.05 3.96499 1.90989 0
M  V30 21649 H 1974.17 0.713374 0.185114 0
M  V30 21650 H 1976.81 1.88721 -0.220112 0
M  V30 21651 H 1974.96 3.51679 1.65088 0
M  V30 21652 H 1976.63 4.55252 -0.744538 0
M  V30 21653 H 1974.88 4.26937 -0.768558 0
M  V30 21654 H 1975.55 5.51228 0.291822 0
M  V30 21655 H 1978.02 3.92434 1.38329 0
M  V30 21656 H 1976.9 5.01219 2.23765 0
M  V30 21657 H 1977.16 3.38452 2.84433 0
M  V30 21658 N 1976.22 -0.133539 1.57033 0
M  V30 21659 C 1977.63 -0.692222 1.73393 0
M  V30 21660 C 1977.98 -1.81019 0.756735 0
M  V30 21661 O 1977.11 -2.16275 -0.0736448 0
M  V30 21662 C 1977.7 -1.26245 3.144 0
M  V30 21663 C 1976.26 -1.76756 3.32316 0
M  V30 21664 C 1975.41 -0.661397 2.69297 0
M  V30 21665 H 1978.36 0.0922563 1.58432 0
M  V30 21666 H 1978.38 -2.13221 3.15146 0
M  V30 21667 H 1977.89 -0.44855 3.85499 0
M  V30 21668 H 1975.99 -2.6067 2.66236 0
M  V30 21669 H 1976.11 -1.88702 4.40373 0
M  V30 21670 H 1974.47 -1.0914 2.30132 0
M  V30 21671 H 1975.25 0.141281 3.43009 0
M  V30 21672 N 1977.7 -1.52352 -0.403298 0
M  V30 21673 C 1978.63 -1.72347 -1.51093 0
M  V30 21674 C 1979.64 -0.603886 -1.51186 0
M  V30 21675 O 1980.83 -0.879203 -1.55346 0
M  V30 21676 C 1977.93 -1.75407 -2.89975 0
M  V30 21677 C 1977.1 -3.04495 -3.14009 0
M  V30 21678 C 1976.16 -2.9929 -4.32795 0
M  V30 21679 O 1975.19 -3.73185 -4.29792 0
M  V30 21680 N 1976.39 -2.17484 -5.3822 0
M  V30 21681 H 1979.16 -2.67908 -1.34333 0
M  V30 21682 H 1976.72 -1.50662 -0.592661 0
M  V30 21683 H 1978.71 -1.6945 -3.67517 0
M  V30 21684 H 1977.28 -0.87295 -3.00164 0
M  V30 21685 H 1976.5 -3.24056 -2.24458 0
M  V30 21686 H 1977.79 -3.89879 -3.26913 0
M  V30 21687 H 1977.19 -1.56888 -5.4351 0
M  V30 21688 H 1975.74 -2.17378 -6.14484 0
M  V30 21689 N 1979.18 0.660885 -1.43074 0
M  V30 21690 C 1980.59 0.97566 -1.26305 0
M  V30 21691 C 1980.79 2.00719 -0.17724 0
M  V30 21692 O 1979.85 2.48514 0.446896 0
M  V30 21693 C 1981.16 1.46722 -2.62475 0
M  V30 21694 C 1982.71 1.58427 -2.69944 0
M  V30 21695 C 1983.18 2.10976 -4.06514 0
M  V30 21696 N 1984.67 2.18289 -4.08539 0
M  V30 21697 C 1985.41 2.60054 -5.11038 0
M  V30 21698 N 1984.91 3.01171 -6.23913 0
M  V30 21699 N 1986.7 2.59926 -4.98392 0
M  V30 21700 H 1978.85 -0.02183 -2.12389 0
M  V30 21701 H 1981.11 0.0527972 -0.946529 0
M  V30 21702 H 1980.82 0.783712 -3.42857 0
M  V30 21703 H 1980.69 2.44359 -2.87348 0
M  V30 21704 H 1983.08 2.25881 -1.899 0
M  V30 21705 H 1983.16 0.592433 -2.48845 0
M  V30 21706 H 1982.8 1.44126 -4.87022 0
M  V30 21707 H 1982.73 3.10976 -4.24972 0
M  V30 21708 H 1985.23 1.89317 -3.27059 0
M  V30 21709 H 1985.54 3.31766 -6.97962 0
M  V30 21710 H 1983.88 2.98994 -6.27398 0
M  V30 21711 H 1987.07 2.27175 -4.09279 0
M  V30 21712 H 1987.25 2.92154 -5.78403 0
M  V30 21713 N 1980.65 1.29477 0.898527 0
M  V30 21714 C 1981.6 1.14706 2.00278 0
M  V30 21715 C 1982.57 0.040077 1.66052 0
M  V30 21716 O 1983.76 0.207808 1.89665 0
M  V30 21717 C 1980.9 0.830802 3.3495 0
M  V30 21718 C 1980.01 2.01834 3.81952 0
M  V30 21719 C 1979.14 1.64135 5.05206 0
M  V30 21720 C 1978.18 2.79464 5.44579 0
M  V30 21721 N 1977.32 2.42153 6.59019 0
M  V30 21722 H 1982.16 2.09181 2.12244 0
M  V30 21723 H 1979.7 1.04092 1.03939 0
M  V30 21724 H 1981.66 0.628119 4.12445 0
M  V30 21725 H 1980.29 -0.0770431 3.22708 0
M  V30 21726 H 1979.34 2.33269 3.00483 0
M  V30 21727 H 1980.65 2.88247 4.07081 0
M  V30 21728 H 1979.8 1.40163 5.90288 0
M  V30 21729 H 1978.54 0.748722 4.81918 0
M  V30 21730 H 1977.55 3.04117 4.58031 0
M  V30 21731 H 1978.77 3.69393 5.69847 0
M  V30 21732 H 1976.72 1.55379 6.37333 0
M  V30 21733 H 1976.64 3.221 6.8395 0
M  V30 21734 H 1977.9 2.21503 7.47366 0
M  V30 21735 N 1982.13 -1.10905 1.11972 0
M  V30 21736 C 1983.04 -2.20682 0.796029 0
M  V30 21737 C 1984.06 -1.72689 -0.213158 0
M  V30 21738 O 1985.23 -2.01343 -0.047955 0
M  V30 21739 C 1982.3 -3.45797 0.250055 0
M  V30 21740 C 1981.36 -4.08549 1.31855 0
M  V30 21741 C 1980.59 -5.27692 0.798538 0
M  V30 21742 O 1980.82 -5.69202 -0.369435 0
M  V30 21743 O 1979.75 -5.81174 1.5659 0
M  V30 21744 H 1983.58 -2.50794 1.71278 0
M  V30 21745 H 1981.16 -1.19548 0.896024 0
M  V30 21746 H 1983.04 -4.21371 -0.0497791 0
M  V30 21747 H 1981.72 -3.17324 -0.639327 0
M  V30 21748 H 1980.63 -3.34682 1.67148 0
M  V30 21749 H 1981.96 -4.41215 2.18153 0
M  V30 21750 N 1983.61 -0.910886 -1.2861 0
M  V30 21751 C 1984.86 -0.542557 -1.95096 0
M  V30 21752 C 1985.19 0.913233 -1.71727 0
M  V30 21753 O 1984.44 1.66424 -1.02963 0
M  V30 21754 C 1984.74 -0.794745 -3.48452 0
M  V30 21755 C 1984.41 -2.22964 -3.91916 0
M  V30 21756 C 1983.07 -2.62195 -4.03494 0
M  V30 21757 C 1985.42 -3.16353 -4.1421 0
M  V30 21758 C 1982.75 -3.93974 -4.34743 0
M  V30 21759 C 1985.1 -4.47694 -4.46938 0
M  V30 21760 C 1983.76 -4.86783 -4.56726 0
M  V30 21761 H 1983.03 -0.198536 -0.713908 0
M  V30 21762 H 1985.68 -1.15167 -1.53 0
M  V30 21763 H 1983.99 -0.102809 -3.91665 0
M  V30 21764 H 1985.68 -0.488975 -3.98008 0
M  V30 21765 H 1982.27 -1.91521 -3.83429 0
M  V30 21766 H 1986.46 -2.87253 -4.04721 0
M  V30 21767 H 1981.71 -4.23965 -4.40526 0
M  V30 21768 H 1985.89 -5.20074 -4.63137 0
M  V30 21769 H 1983.51 -5.88928 -4.80695 0
M  V30 21770 N 1985.09 1.42434 -0.674558 0
M  V30 21771 C 1986.04 2.32595 0.0155851 0
M  V30 21772 C 1987.03 1.49809 0.790806 0
M  V30 21773 O 1988.24 1.65882 0.698798 0
M  V30 21774 H 1984.61 0.751622 0.0238347 0
M  V30 21775 H 1986.58 2.88501 -0.762224 0
M  V30 21776 C 1985.33 3.34379 0.953202 0
M  V30 21777 H 1984.65 3.9812 0.366105 0
M  V30 21778 H 1986.09 4.00052 1.40479 0
M  V30 21779 C 1984.55 2.66623 2.05946 0
M  V30 21780 O 1985.08 2.49795 3.14588 0
M  V30 21781 N 1983.29 2.25652 1.83111 0
M  V30 21782 H 1982.84 2.39538 0.947593 0
M  V30 21783 H 1982.79 1.80649 2.57319 0
M  V30 21784 N 1986.57 0.417871 1.51959 0
M  V30 21785 C 1987.81 -0.155052 2.01906 0
M  V30 21786 C 1988.14 -1.44397 1.30307 0
M  V30 21787 O 1987.4 -1.91556 0.400588 0
M  V30 21788 C 1987.7 -0.440779 3.54672 0
M  V30 21789 C 1987.36 0.759981 4.44449 0
M  V30 21790 C 1986.02 1.08932 4.68708 0
M  V30 21791 C 1988.38 1.56193 4.97246 0
M  V30 21792 C 1985.7 2.22164 5.4301 0
M  V30 21793 C 1988.06 2.68508 5.72788 0
M  V30 21794 C 1986.72 3.01918 5.95316 0
M  V30 21795 H 1985.99 -0.0567377 0.738825 0
M  V30 21796 H 1988.64 0.561082 1.83096 0
M  V30 21797 H 1986.94 -1.23858 3.71707 0
M  V30 21798 H 1988.64 -0.897174 3.90835 0
M  V30 21799 H 1985.23 0.49332 4.25751 0
M  V30 21800 H 1989.41 1.32071 4.78405 0
M  V30 21801 H 1984.67 2.48387 5.58672 0
M  V30 21802 H 1988.84 3.3103 6.12692 0
M  V30 21803 H 1986.47 3.89774 6.52672 0
M  V30 21804 N 1988.04 -1.56898 0.148573 0
M  V30 21805 C 1989.46 -1.82957 -0.371991 0
M  V30 21806 C 1989.81 -1.06735 -1.64627 0
M  V30 21807 O 1988.93 -0.313128 -2.14123 0
M  V30 21808 C 1989.53 -3.31871 -0.681682 0
M  V30 21809 C 1988.09 -3.58506 -1.14676 0
M  V30 21810 C 1987.23 -2.76774 -0.170675 0
M  V30 21811 H 1990.18 -1.54248 0.373244 0
M  V30 21812 H 1990.2 -3.48112 -1.53618 0
M  V30 21813 H 1989.72 -3.8732 0.245938 0
M  V30 21814 H 1987.82 -3.08445 -2.09027 0
M  V30 21815 H 1987.93 -4.66961 -1.07165 0
M  V30 21816 H 1986.29 -2.45903 -0.663611 0
M  V30 21817 H 1987.08 -3.34995 0.750563 0
M  V30 21818 N 1989.52 0.125209 -1.57102 0
M  V30 21819 C 1990.43 1.17286 -2.03177 0
M  V30 21820 C 1991.45 1.4571 -0.951035 0
M  V30 21821 O 1992.62 1.56949 -1.2621 0
M  V30 21822 C 1989.69 2.4811 -2.42161 0
M  V30 21823 C 1988.75 2.2714 -3.64288 0
M  V30 21824 C 1987.98 3.51726 -4.01404 0
M  V30 21825 O 1988.21 4.58785 -3.38929 0
M  V30 21826 O 1987.14 3.43096 -4.94539 0
M  V30 21827 H 1990.97 0.811619 -2.92654 0
M  V30 21828 H 1988.55 0.335551 -1.45583 0
M  V30 21829 H 1990.43 3.252 -2.67998 0
M  V30 21830 H 1989.11 2.83721 -1.55833 0
M  V30 21831 H 1988.02 1.47929 -3.4361 0
M  V30 21832 H 1989.35 1.96435 -4.51303 0
M  V30 21833 N 1991 1.52564 0.395213 0
M  V30 21834 C 1991.96 1.76262 1.46508 0
M  V30 21835 C 1992.96 0.632579 1.47835 0
M  V30 21836 O 1994.15 0.900582 1.49115 0
M  V30 21837 C 1991.29 1.85771 2.85835 0
M  V30 21838 H 1992.48 2.71784 1.26782 0
M  V30 21839 H 1990.03 1.43191 0.626572 0
M  V30 21840 H 1990.77 0.922125 3.10914 0
M  V30 21841 H 1990.55 2.67936 2.86274 0
M  V30 21842 H 1992.04 2.05799 3.63368 0
M  V30 21843 N 1992.48 -0.653289 1.43422 0
M  V30 21844 C 1993.73 -1.41039 1.44749 0
M  V30 21845 C 1994.05 -1.94864 0.0728692 0
M  V30 21846 O 1993.32 -1.74425 -0.891782 0
M  V30 21847 H 1991.9 -0.523445 0.53293 0
M  V30 21848 H 1994.56 -0.770483 1.79024 0
M  V30 21849 H 1993.66 -2.25278 2.16001 0
M  V30 21850 N 1993.96 -1.29952 -0.891648 0
M  V30 21851 C 1995.18 -1.21422 -1.68141 0
M  V30 21852 C 1995.61 0.220633 -1.86802 0
M  V30 21853 O 1994.96 1.15902 -1.39414 0
M  V30 21854 C 1995.01 -1.94116 -3.03894 0
M  V30 21855 O 1994.12 -1.26369 -3.92562 0
M  V30 21856 H 1993.46 -0.420318 -0.514032 0
M  V30 21857 H 1995.99 -1.71658 -1.11331 0
M  V30 21858 H 1996 -2.02881 -3.53982 0
M  V30 21859 H 1994.67 -2.98474 -2.89631 0
M  V30 21860 H 1993.25 -1.25915 -3.50998 0
M  V30 21861 N 1995.44 1.1031 -1.12559 0
M  V30 21862 C 1996.66 1.86618 -0.9049 0
M  V30 21863 C 1997.09 1.80164 0.540597 0
M  V30 21864 O 1996.44 1.17252 1.38281 0
M  V30 21865 C 1996.49 3.32903 -1.38592 0
M  V30 21866 O 1995.6 4.08508 -0.565225 0
M  V30 21867 H 1994.94 0.579019 -0.325013 0
M  V30 21868 H 1997.47 1.39359 -1.498 0
M  V30 21869 H 1997.48 3.83753 -1.38556 0
M  V30 21870 H 1996.15 3.36917 -2.43844 0
M  V30 21871 H 1994.73 3.67494 -0.632682 0
M  V30 21872 N 1996.91 0.917694 1.28125 0
M  V30 21873 C 1998.14 0.56827 1.99463 0
M  V30 21874 C 1998.56 -0.844246 1.6809 0
M  V30 21875 O 1997.92 -1.56487 0.915504 0
M  V30 21876 C 1997.97 0.788859 3.51866 0
M  V30 21877 O 1997.07 -0.150301 4.12126 0
M  V30 21878 H 1996.41 0.219899 0.626531 0
M  V30 21879 H 1998.94 1.23421 1.63182 0
M  V30 21880 H 1998.95 0.700502 4.01942 0
M  V30 21881 H 1997.63 1.81855 3.74034 0
M  V30 21882 H 1996.21 -0.012878 3.72898 0
M  V30 21883 N 1998.39 -1.42074 0.682102 0
M  V30 21884 C 1999.64 -2.01037 0.206997 0
M  V30 21885 C 1999.96 -1.5424 -1.19311 0
M  V30 21886 O 1999.23 -0.767197 -1.80252 0
M  V30 21887 H 1997.81 -0.743372 0.073537 0
M  V30 21888 H 2000.47 -1.7389 0.880247 0
M  V30 21889 H 1999.57 -3.11366 0.213942 0
M  V30 21890 N 1999.87 -0.425924 -1.51735 0
M  V30 21891 C 2000.83 0.379497 -2.26036 0
M  V30 21892 C 2001.83 0.95944 -1.2904 0
M  V30 21893 O 2003.02 0.83568 -1.52846 0
M  V30 21894 C 2000.15 1.5358 -3.04345 0
M  V30 21895 H 2001.35 -0.271515 -2.98668 0
M  V30 21896 H 1998.9 -0.17882 -1.55274 0
M  V30 21897 H 1999.64 2.2232 -2.36103 0
M  V30 21898 H 1999.42 1.12626 -3.75577 0
M  V30 21899 H 2000.91 2.10513 -3.60658 0
M  V30 21900 N 2001.35 1.56817 -0.156891 0
M  V30 21901 C 2002.28 2.20266 0.774915 0
M  V30 21902 C 2003.26 1.15387 1.24979 0
M  V30 21903 O 2004.44 1.43766 1.30557 0
M  V30 21904 C 2001.57 2.83207 2.01025 0
M  V30 21905 C 2000.53 3.94 1.67177 0
M  V30 21906 C 1999.85 4.43921 2.98057 0
M  V30 21907 C 2001.15 5.14297 0.91083 0
M  V30 21908 H 2002.85 2.98387 0.246082 0
M  V30 21909 H 2000.39 1.43525 0.116921 0
M  V30 21910 H 2002.35 3.26264 2.66701 0
M  V30 21911 H 2001.07 2.02433 2.56298 0
M  V30 21912 H 1999.73 3.51576 1.03876 0
M  V30 21913 H 1999.38 3.59957 3.5134 0
M  V30 21914 H 1999.08 5.18657 2.76169 0
M  V30 21915 H 2000.6 4.89656 3.64787 0
M  V30 21916 H 2002.02 5.54137 1.46988 0
M  V30 21917 H 2000.41 5.94857 0.791526 0
M  V30 21918 H 2001.48 4.84806 -0.0955943 0
M  V30 21919 N 2002.83 -0.116876 1.57166 0
M  V30 21920 C 2004.07 -0.824288 1.84964 0
M  V30 21921 C 2004.4 -1.79779 0.742287 0
M  V30 21922 O 2003.66 -1.93881 -0.26617 0
M  V30 21923 C 2003.95 -1.60659 3.19255 0
M  V30 21924 C 2003.62 -0.777185 4.44152 0
M  V30 21925 C 2002.28 -0.548471 4.78064 0
M  V30 21926 C 2004.63 -0.199197 5.20819 0
M  V30 21927 C 2001.96 0.26845 5.86086 0
M  V30 21928 C 2004.31 0.604927 6.29701 0
M  V30 21929 C 2002.98 0.843937 6.62143 0
M  V30 21930 H 2002.25 -0.301628 0.676832 0
M  V30 21931 H 2004.9 -0.0865824 1.91304 0
M  V30 21932 H 2003.2 -2.41526 3.08501 0
M  V30 21933 H 2004.9 -2.15794 3.37985 0
M  V30 21934 H 2001.49 -0.965541 4.17583 0
M  V30 21935 H 2005.67 -0.363107 4.9497 0
M  V30 21936 H 2000.93 0.462826 6.09646 0
M  V30 21937 H 2005.1 1.05977 6.88289 0
M  V30 21938 H 2002.73 1.47877 7.45679 0
M  V30 21939 N 2004.3 -1.52772 -0.387116 0
M  V30 21940 C 2005.71 -1.59829 -0.964966 0
M  V30 21941 C 2006.07 -0.452304 -1.90915 0
M  V30 21942 O 2005.19 0.424353 -2.12199 0
M  V30 21943 C 2005.79 -2.89687 -1.7569 0
M  V30 21944 C 2004.34 -2.99151 -2.28442 0
M  V30 21945 C 2003.49 -2.54957 -1.0905 0
M  V30 21946 H 2006.44 -1.57823 -0.1666 0
M  V30 21947 H 2006.46 -2.76279 -2.6163 0
M  V30 21948 H 2005.98 -3.73074 -1.06945 0
M  V30 21949 H 2004.08 -2.20305 -3.00494 0
M  V30 21950 H 2004.19 -4.03827 -2.578 0
M  V30 21951 H 2002.55 -2.09321 -1.45109 0
M  V30 21952 H 2003.34 -3.40741 -0.418373 0
M  V30 21953 N 2005.78 0.645673 -1.43767 0
M  V30 21954 C 2007.01 1.43799 -1.49454 0
M  V30 21955 C 2007.43 1.87742 -0.115948 0
M  V30 21956 O 2006.79 1.57845 0.891891 0
M  V30 21957 C 2006.84 2.64416 -2.45186 0
M  V30 21958 O 2005.94 3.63742 -1.94334 0
M  V30 21959 H 2005.28 0.430858 -0.50523 0
M  V30 21960 H 2007.81 0.789424 -1.88757 0
M  V30 21961 H 2007.82 3.12139 -2.62741 0
M  V30 21962 H 2006.5 2.31776 -3.4533 0
M  V30 21963 H 2005.07 3.22926 -1.86476 0
M  V30 21964 N 2007.26 1.30423 0.884744 0
M  V30 21965 C 2008.22 1.16804 1.97204 0
M  V30 21966 C 2009.22 0.0992103 1.60494 0
M  V30 21967 O 2010.41 0.34734 1.70702 0
M  V30 21968 C 2007.54 0.789574 3.3163 0
M  V30 21969 H 2008.74 2.13401 2.10713 0
M  V30 21970 H 2006.29 1.13823 1.07117 0
M  V30 21971 H 2007.03 -0.175888 3.23823 0
M  V30 21972 H 2006.81 1.562 3.59644 0
M  V30 21973 H 2008.3 0.717768 4.11385 0
M  V30 21974 N 2008.74 -1.09711 1.13142 0
M  V30 21975 C 2009.98 -1.82097 0.892675 0
M  V30 21976 C 2010.32 -1.85341 -0.579846 0
M  V30 21977 O 2009.59 -1.3195 -1.42897 0
M  V30 21978 C 2009.87 -3.28392 1.47752 0
M  V30 21979 C 2009.73 -3.33436 3.01895 0
M  V30 21980 C 2011.05 -4.24991 1.14329 0
M  V30 21981 H 2008.17 -0.661111 0.325732 0
M  V30 21982 H 2010.81 -1.28535 1.39924 0
M  V30 21983 H 2008.96 -3.74134 1.04671 0
M  V30 21984 H 2010.63 -2.96119 3.53711 0
M  V30 21985 H 2008.87 -2.73109 3.37037 0
M  V30 21986 H 2009.54 -4.36484 3.37914 0
M  V30 21987 H 2012.02 -3.8752 1.51551 0
M  V30 21988 H 2010.9 -5.25698 1.57902 0
M  V30 21989 H 2011.16 -4.42064 0.0565583 0
M  V30 21990 N 2010.22 -0.924476 -1.27637 0
M  V30 21991 C 2011.44 -0.57884 -1.99159 0
M  V30 21992 C 2011.87 0.83532 -1.68535 0
M  V30 21993 O 2011.22 1.55999 -0.92379 0
M  V30 21994 C 2011.27 -0.807508 -3.51442 0
M  V30 21995 O 2010.38 0.128443 -4.122 0
M  V30 21996 H 2009.72 -0.223218 -0.625356 0
M  V30 21997 H 2012.25 -1.24285 -1.62525 0
M  V30 21998 H 2012.26 -0.721808 -4.01564 0
M  V30 21999 H 2010.93 -1.83836 -3.73064 0
M  V30 22000 H 2009.51 -0.00689785 -3.72899 0
M  V30 22001 N 2011.69 1.41711 -0.689627 0
M  V30 22002 C 2013.11 1.84377 -0.293587 0
M  V30 22003 C 2013.46 1.57711 1.16712 0
M  V30 22004 O 2012.58 1.0445 1.89523 0
M  V30 22005 C 2013.18 3.34691 -0.526073 0
M  V30 22006 C 2011.74 3.7595 -0.184009 0
M  V30 22007 C 2010.88 2.65167 -0.811277 0
M  V30 22008 H 2013.83 1.31347 -0.890718 0
M  V30 22009 H 2013.85 3.7988 0.217124 0
M  V30 22010 H 2013.37 3.54068 -1.58927 0
M  V30 22011 H 2011.47 3.62176 0.875158 0
M  V30 22012 H 2011.58 4.74875 -0.63488 0
M  V30 22013 H 2009.94 2.53554 -0.241363 0
M  V30 22014 H 2010.73 2.87363 -1.87822 0
M  V30 22015 N 2013.17 0.433965 1.51507 0
M  V30 22016 C 2014.58 -0.0299408 1.86676 0
M  V30 22017 C 2014.93 -1.42245 1.35132 0
M  V30 22018 O 2014.06 -2.0474 0.700735 0
M  V30 22019 C 2014.65 -0.0611079 3.38745 0
M  V30 22020 C 2013.21 -0.469416 3.73461 0
M  V30 22021 C 2012.36 0.340116 2.75206 0
M  V30 22022 H 2015.31 0.649958 1.4478 0
M  V30 22023 H 2015.33 -0.871298 3.7039 0
M  V30 22024 H 2014.84 0.952511 3.7623 0
M  V30 22025 H 2012.95 -1.48876 3.41565 0
M  V30 22026 H 2013.06 -0.196556 4.78697 0
M  V30 22027 H 2011.42 -0.201099 2.53905 0
M  V30 22028 H 2012.21 1.35255 3.15533 0
M  V30 22029 N 2014.65 -1.56732 0.165206 0
M  V30 22030 C 2015.56 -2.2125 -0.780107 0
M  V30 22031 C 2016.58 -1.20227 -1.25784 0
M  V30 22032 O 2017.75 -1.52868 -1.31124 0
M  V30 22033 C 2014.82 -2.83579 -1.99459 0
M  V30 22034 C 2013.88 -3.99784 -1.56434 0
M  V30 22035 C 2013.11 -4.5913 -2.72094 0
M  V30 22036 O 2013.33 -4.17363 -3.88799 0
M  V30 22037 O 2012.27 -5.49101 -2.46519 0
M  V30 22038 H 2016.09 -3.02578 -0.260803 0
M  V30 22039 H 2013.68 -1.49268 -0.0627015 0
M  V30 22040 H 2015.56 -3.23123 -2.70499 0
M  V30 22041 H 2014.24 -2.05251 -2.50307 0
M  V30 22042 H 2013.14 -3.64921 -0.823629 0
M  V30 22043 H 2014.48 -4.79686 -1.10284 0
M  V30 22044 N 2016.13 0.10854 -1.57226 0
M  V30 22045 C 2017.06 1.13362 -2.04135 0
M  V30 22046 C 2018.04 1.42573 -0.927733 0
M  V30 22047 O 2019.22 1.52835 -1.19813 0
M  V30 22048 C 2016.35 2.45708 -2.45449 0
M  V30 22049 C 2015.31 2.30935 -3.60351 0
M  V30 22050 C 2014.63 3.68337 -3.87597 0
M  V30 22051 C 2015.93 1.76112 -4.91713 0
M  V30 22052 H 2017.63 0.74341 -2.90024 0
M  V30 22053 H 2015.17 0.356157 -1.39526 0
M  V30 22054 H 2017.13 3.17679 -2.76872 0
M  V30 22055 H 2015.85 2.86639 -1.56544 0
M  V30 22056 H 2014.51 1.61411 -3.29153 0
M  V30 22057 H 2014.16 4.06772 -2.95881 0
M  V30 22058 H 2013.86 3.59303 -4.64946 0
M  V30 22059 H 2015.38 4.41797 -4.21483 0
M  V30 22060 H 2016.8 2.3791 -5.21605 0
M  V30 22061 H 2015.19 1.77872 -5.73133 0
M  V30 22062 H 2016.26 0.71947 -4.79533 0
M  V30 22063 N 2017.61 1.52975 0.379009 0
M  V30 22064 C 2019.02 1.42448 0.719772 0
M  V30 22065 C 2019.22 0.552842 1.93768 0
M  V30 22066 O 2018.28 0.0301168 2.52482 0
M  V30 22067 C 2019.59 2.85448 0.945527 0
M  V30 22068 C 2021.14 2.94991 1.04638 0
M  V30 22069 C 2021.61 4.39024 1.30469 0
M  V30 22070 N 2023.11 4.42393 1.37269 0
M  V30 22071 C 2023.84 5.50931 1.58941 0
M  V30 22072 N 2023.34 6.69538 1.78017 0
M  V30 22073 N 2025.13 5.38489 1.61202 0
M  V30 22074 H 2017.28 2.08161 -0.422247 0
M  V30 22075 H 2019.54 0.939485 -0.126776 0
M  V30 22076 H 2019.25 3.51486 0.122608 0
M  V30 22077 H 2019.12 3.28299 1.85741 0
M  V30 22078 H 2021.51 2.29115 1.85985 0
M  V30 22079 H 2021.59 2.55554 0.11218 0
M  V30 22080 H 2021.24 5.0547 0.496281 0
M  V30 22081 H 2021.17 4.76022 2.2519 0
M  V30 22082 H 2023.66 3.56909 1.24195 0
M  V30 22083 H 2023.97 7.4803 1.94089 0
M  V30 22084 H 2022.31 6.72549 1.75222 0
M  V30 22085 H 2025.51 4.44796 1.45856 0
M  V30 22086 H 2025.68 6.23144 1.77751 0
M  V30 22087 N 2019.08 -0.63804 1.44107 0
M  V30 22088 C 2020.02 -1.76333 1.46421 0
M  V30 22089 C 2021.03 -1.58805 0.358429 0
M  V30 22090 O 2022.22 -1.67246 0.623768 0
M  V30 22091 C 2019.32 -3.13967 1.27586 0
M  V30 22092 C 2018.49 -3.58016 2.51283 0
M  V30 22093 C 2017.55 -4.74503 2.27449 0
M  V30 22094 O 2016.58 -4.83167 3.00895 0
M  V30 22095 N 2017.78 -5.6574 1.3007 0
M  V30 22096 H 2020.54 -1.74822 2.43429 0
M  V30 22097 H 2018.1 -0.822384 1.39458 0
M  V30 22098 H 2020.1 -3.89605 1.09499 0
M  V30 22099 H 2018.67 -3.10162 0.389684 0
M  V30 22100 H 2017.89 -2.7266 2.84693 0
M  V30 22101 H 2019.17 -3.84197 3.33572 0
M  V30 22102 H 2018.57 -5.61427 0.693968 0
M  V30 22103 H 2017.13 -6.41037 1.17964 0
M  V30 22104 N 2020.56 -1.3089 -0.877815 0
M  V30 22105 C 2021.98 -1.09377 -1.16228 0
M  V30 22106 C 2022.18 0.140854 -2.01007 0
M  V30 22107 O 2021.23 0.83243 -2.38384 0
M  V30 22108 C 2022.55 -2.36114 -1.86201 0
M  V30 22109 C 2024.1 -2.41648 -1.98936 0
M  V30 22110 C 2024.57 -3.68245 -2.72322 0
M  V30 22111 N 2026.06 -3.69094 -2.79863 0
M  V30 22112 C 2026.8 -4.63743 -3.37239 0
M  V30 22113 N 2026.29 -5.68741 -3.95607 0
M  V30 22114 N 2028.09 -4.51275 -3.35122 0
M  V30 22115 H 2020.24 -2.10086 -0.312693 0
M  V30 22116 H 2022.5 -0.926425 -0.201101 0
M  V30 22117 H 2022.21 -3.26251 -1.31352 0
M  V30 22118 H 2022.08 -2.45311 -2.86535 0
M  V30 22119 H 2024.47 -1.51985 -2.52952 0
M  V30 22120 H 2024.55 -2.36421 -0.976675 0
M  V30 22121 H 2024.19 -4.58271 -2.18976 0
M  V30 22122 H 2024.12 -3.70736 -3.73982 0
M  V30 22123 H 2026.61 -2.93189 -2.3843 0
M  V30 22124 H 2026.93 -6.37052 -4.37475 0
M  V30 22125 H 2025.27 -5.72525 -3.94006 0
M  V30 22126 H 2028.46 -3.68426 -2.88755 0
M  V30 22127 H 2028.63 -5.25217 -3.7954 0
M  V30 22128 N 2022.04 1.0911 -1.13723 0
M  V30 22129 C 2022.97 2.17859 -0.840227 0
M  V30 22130 C 2023.95 1.68899 0.201778 0
M  V30 22131 O 2025.14 1.94107 0.0600046 0
M  V30 22132 C 2022.27 3.45922 -0.309024 0
M  V30 22133 C 2021.22 4.08234 -1.28565 0
M  V30 22134 C 2020.55 5.31162 -0.614064 0
M  V30 22135 C 2021.85 4.50354 -2.64534 0
M  V30 22136 H 2023.54 2.4296 -1.74959 0
M  V30 22137 H 2021.09 1.16771 -0.842653 0
M  V30 22138 H 2023.04 4.21306 -0.088895 0
M  V30 22139 H 2021.76 3.20353 0.635735 0
M  V30 22140 H 2020.42 3.34873 -1.49183 0
M  V30 22141 H 2020.07 5.01875 0.336272 0
M  V30 22142 H 2019.77 5.73807 -1.26566 0
M  V30 22143 H 2021.29 6.09267 -0.403293 0
M  V30 22144 H 2022.71 5.16948 -2.47866 0
M  V30 22145 H 2021.11 5.03894 -3.259 0
M  V30 22146 H 2022.18 3.62594 -3.21952 0
M  V30 22147 N 2023.52 0.931232 1.27145 0
M  V30 22148 C 2024.47 0.404044 2.24391 0
M  V30 22149 C 2025.45 -0.493669 1.5314 0
M  V30 22150 O 2026.64 -0.330537 1.73886 0
M  V30 22151 C 2023.77 -0.338789 3.41624 0
M  V30 22152 C 2022.86 0.575643 4.20175 0
M  V30 22153 N 2023.25 1.69704 4.76481 0
M  V30 22154 C 2021.55 0.379324 4.44384 0
M  V30 22155 C 2022.25 2.26607 5.35747 0
M  V30 22156 N 2021.23 1.55523 5.20878 0
M  V30 22157 H 2025.03 1.26021 2.6551 0
M  V30 22158 H 2022.54 0.785921 1.42116 0
M  V30 22159 H 2024.54 -0.733438 4.10398 0
M  V30 22160 H 2023.2 -1.19185 3.02035 0
M  V30 22161 H 2024.21 2.07936 4.74324 0
M  V30 22162 H 2020.89 -0.432782 4.15251 0
M  V30 22163 H 2022.28 3.21036 5.90242 0
M  V30 22164 N 2025 -1.41343 0.697132 0
M  V30 22165 C 2026.25 -2.00806 0.228308 0
M  V30 22166 C 2026.57 -1.55497 -1.17668 0
M  V30 22167 O 2025.84 -0.786272 -1.79428 0
M  V30 22168 H 2024.42 -0.74255 0.0814173 0
M  V30 22169 H 2027.08 -1.72946 0.898641 0
M  V30 22170 H 2026.17 -3.11121 0.246954 0
M  V30 22171 N 2026.48 -0.441993 -1.51275 0
M  V30 22172 C 2027.72 0.123093 -2.02426 0
M  V30 22173 C 2028.05 1.41953 -1.32525 0
M  V30 22174 O 2027.33 1.8942 -0.44164 0
M  V30 22175 C 2027.61 0.337043 -3.58519 0
M  V30 22176 C 2027.47 -0.978373 -4.39031 0
M  V30 22177 C 2028.78 1.10474 -4.26009 0
M  V30 22178 H 2025.9 0.0432623 -0.735729 0
M  V30 22179 H 2028.55 -0.581901 -1.8087 0
M  V30 22180 H 2026.7 0.93756 -3.77017 0
M  V30 22181 H 2028.37 -1.61323 -4.32172 0
M  V30 22182 H 2026.61 -1.58189 -4.03929 0
M  V30 22183 H 2027.28 -0.78266 -5.46423 0
M  V30 22184 H 2029.76 0.596021 -4.11809 0
M  V30 22185 H 2028.63 1.22321 -5.35097 0
M  V30 22186 H 2028.89 2.13401 -3.87185 0
M  V30 22187 N 2027.95 1.56642 -0.173515 0
M  V30 22188 C 2028.86 2.2166 0.768363 0
M  V30 22189 C 2029.88 1.20892 1.25144 0
M  V30 22190 O 2031.06 1.53561 1.30311 0
M  V30 22191 C 2028.12 2.84632 1.97953 0
M  V30 22192 C 2027.18 4.00608 1.54312 0
M  V30 22193 C 2026.41 4.60567 2.69655 0
M  V30 22194 O 2026.64 4.19419 3.8658 0
M  V30 22195 O 2025.57 5.50401 2.43604 0
M  V30 22196 H 2029.4 3.02712 0.244753 0
M  V30 22197 H 2026.98 1.493 0.0547846 0
M  V30 22198 H 2028.86 3.24553 2.68782 0
M  V30 22199 H 2027.54 2.06575 2.49215 0
M  V30 22200 H 2026.45 3.65352 0.804264 0
M  V30 22201 H 2027.78 4.80264 1.07738 0
M  V30 22202 N 2029.43 -0.1002 1.57281 0
M  V30 22203 C 2030.36 -1.12278 2.04734 0
M  V30 22204 C 2031.34 -1.42079 0.935281 0
M  V30 22205 O 2032.53 -1.52197 1.20622 0
M  V30 22206 C 2029.66 -2.44402 2.46748 0
M  V30 22207 C 2028.61 -2.29021 3.61571 0
M  V30 22208 C 2027.94 -3.66276 3.89545 0
M  V30 22209 C 2029.24 -1.73501 4.9264 0
M  V30 22210 H 2030.93 -0.728019 2.90414 0
M  V30 22211 H 2028.48 -0.348753 1.39713 0
M  V30 22212 H 2030.43 -3.16206 2.78553 0
M  V30 22213 H 2029.15 -2.85804 1.58061 0
M  V30 22214 H 2027.81 -1.59664 3.30005 0
M  V30 22215 H 2027.46 -4.05197 2.98034 0
M  V30 22216 H 2027.16 -3.56833 4.66845 0
M  V30 22217 H 2028.69 -4.39555 4.2382 0
M  V30 22218 H 2030.1 -2.35141 5.22859 0
M  V30 22219 H 2028.5 -1.7483 5.74068 0
M  V30 22220 H 2029.57 -0.69403 4.79908 0
M  V30 22221 N 2030.91 -1.53174 -0.370891 0
M  V30 22222 C 2031.84 -1.82213 -1.46017 0
M  V30 22223 C 2032.82 -0.675274 -1.56122 0
M  V30 22224 O 2034.01 -0.924614 -1.70776 0
M  V30 22225 C 2031.14 -2.00727 -2.83419 0
M  V30 22226 C 2030.09 -3.16478 -2.88141 0
M  V30 22227 C 2029.42 -3.20276 -4.28167 0
M  V30 22228 C 2030.72 -4.55179 -2.56143 0
M  V30 22229 H 2032.41 -2.73432 -1.21965 0
M  V30 22230 H 2029.96 -1.31569 -0.585288 0
M  V30 22231 H 2031.91 -2.19625 -3.59643 0
M  V30 22232 H 2030.63 -1.06213 -3.08847 0
M  V30 22233 H 2029.29 -2.97392 -2.14367 0
M  V30 22234 H 2028.94 -2.2341 -4.50663 0
M  V30 22235 H 2028.64 -3.98044 -4.32244 0
M  V30 22236 H 2030.16 -3.41352 -5.06272 0
M  V30 22237 H 2031.58 -4.74274 -3.22082 0
M  V30 22238 H 2029.97 -5.35148 -2.71544 0
M  V30 22239 H 2031.04 -4.60654 -1.51412 0
M  V30 22240 N 2032.39 0.630389 -1.44443 0
M  V30 22241 C 2033.33 1.74232 -1.51367 0
M  V30 22242 C 2034.3 1.62122 -0.361324 0
M  V30 22243 O 2035.49 1.82035 -0.571662 0
M  V30 22244 C 2032.63 3.12481 -1.46457 0
M  V30 22245 C 2031.74 3.35561 -2.72071 0
M  V30 22246 C 2030.88 4.63787 -2.58989 0
M  V30 22247 C 2029.92 4.80048 -3.79764 0
M  V30 22248 N 2029.05 5.99551 -3.65354 0
M  V30 22249 H 2033.89 1.6765 -2.46368 0
M  V30 22250 H 2031.43 0.817807 -1.22272 0
M  V30 22251 H 2033.39 3.92435 -1.41601 0
M  V30 22252 H 2032.02 3.18076 -0.550216 0
M  V30 22253 H 2031.07 2.49543 -2.8711 0
M  V30 22254 H 2032.38 3.43456 -3.61717 0
M  V30 22255 H 2031.54 5.51902 -2.51971 0
M  V30 22256 H 2030.28 4.58251 -1.66905 0
M  V30 22257 H 2029.28 3.90362 -3.87166 0
M  V30 22258 H 2030.51 4.87397 -4.72886 0
M  V30 22259 H 2028.45 5.95104 -2.76021 0
M  V30 22260 H 2028.37 6.08505 -4.48617 0
M  V30 22261 H 2029.64 6.90226 -3.62228 0
M  V30 22262 N 2033.87 1.31354 0.870861 0
M  V30 22263 C 2035.11 1.20348 1.61862 0
M  V30 22264 C 2035.43 -0.237373 1.94154 0
M  V30 22265 O 2036.63 -0.469111 2.67417 0
M  V30 22266 C 2035.09 2.10677 2.91793 0
M  V30 22267 C 2034.7 3.59752 2.66987 0
M  V30 22268 C 2036.44 2.08469 3.69785 0
M  V30 22269 C 2034.35 4.42092 3.92821 0
M  V30 22270 H 2033.28 0.446857 0.607317 0
M  V30 22271 H 2035.93 1.56203 0.962965 0
M  V30 22272 H 2034.31 1.6772 3.58728 0
M  V30 22273 H 2035.49 4.10949 2.08465 0
M  V30 22274 H 2033.8 3.63927 2.02351 0
M  V30 22275 H 2036.4 2.67232 4.63132 0
M  V30 22276 H 2036.74 1.07161 4.02271 0
M  V30 22277 H 2037.27 2.49621 3.09732 0
M  V30 22278 H 2034.01 5.44151 3.65486 0
M  V30 22279 H 2033.53 3.95654 4.50797 0
M  V30 22280 H 2035.21 4.54259 4.60714 0
M  V30 22281 N 2035.34 -1.08505 1.143 0
M  V30 22282 C 2036.59 -1.80872 0.910589 0
M  V30 22283 C 2036.92 -1.86177 -0.562883 0
M  V30 22284 O 2036.17 -1.33282 -1.43299 0
M  V30 22285 C 2036.47 -3.26425 1.45538 0
M  V30 22286 C 2036.14 -3.41239 2.94732 0
M  V30 22287 C 2034.8 -3.44989 3.35464 0
M  V30 22288 C 2037.15 -3.45 3.90672 0
M  V30 22289 C 2034.48 -3.5009 4.70801 0
M  V30 22290 C 2036.83 -3.51637 5.25865 0
M  V30 22291 C 2035.5 -3.53659 5.66111 0
M  V30 22292 H 2034.77 -0.661856 0.333208 0
M  V30 22293 H 2037.41 -1.27762 1.4265 0
M  V30 22294 H 2035.72 -3.82237 0.860376 0
M  V30 22295 H 2037.42 -3.8097 1.25151 0
M  V30 22296 H 2034.01 -3.39011 2.6224 0
M  V30 22297 H 2038.19 -3.41334 3.60284 0
M  V30 22298 H 2033.45 -3.49949 5.01344 0
M  V30 22299 H 2037.62 -3.53492 6.00013 0
M  V30 22300 H 2035.25 -3.57365 6.70965 0
M  V30 22301 N 2036.82 -0.937962 -1.26649 0
M  V30 22302 C 2037.77 -0.435759 -2.28482 0
M  V30 22303 C 2038.76 0.485286 -1.623 0
M  V30 22304 O 2039.97 0.363854 -1.76284 0
M  V30 22305 H 2036.34 -0.122373 -0.741976 0
M  V30 22306 H 2038.32 -1.30722 -2.68243 0
M  V30 22307 C 2037.06 0.286679 -3.46516 0
M  V30 22308 H 2036.39 -0.412881 -3.97662 0
M  V30 22309 H 2037.83 0.602341 -4.197 0
M  V30 22310 C 2036.29 1.50334 -3.01499 0
M  V30 22311 O 2036.82 2.60176 -3.06058 0
M  V30 22312 N 2035.02 1.35877 -2.56877 0
M  V30 22313 H 2034.57 0.465092 -2.53367 0
M  V30 22314 H 2034.53 2.17403 -2.27119 0
M  V30 22315 N 2038.3 1.40971 -0.704618 0
M  V30 22316 C 2039.25 2.30756 -0.0450323 0
M  V30 22317 C 2040.22 1.47598 0.761835 0
M  V30 22318 O 2041.4 1.76365 0.728023 0
M  V30 22319 C 2038.54 3.33723 0.878802 0
M  V30 22320 C 2037.65 4.31955 0.0625832 0
M  V30 22321 C 2036.79 5.2199 0.984889 0
M  V30 22322 C 2035.83 6.11885 0.16211 0
M  V30 22323 N 2034.97 6.94374 1.0387 0
M  V30 22324 H 2039.81 2.86598 -0.816414 0
M  V30 22325 H 2037.34 1.41145 -0.414306 0
M  V30 22326 H 2039.3 3.9198 1.42856 0
M  V30 22327 H 2037.93 2.79409 1.61648 0
M  V30 22328 H 2036.98 3.75571 -0.604216 0
M  V30 22329 H 2038.29 4.95476 -0.574897 0
M  V30 22330 H 2037.45 5.85125 1.60356 0
M  V30 22331 H 2036.19 4.58717 1.65621 0
M  V30 22332 H 2035.19 5.47791 -0.469576 0
M  V30 22333 H 2036.42 6.77216 -0.505547 0
M  V30 22334 H 2034.36 6.337 1.69588 0
M  V30 22335 H 2034.28 7.54617 0.457006 0
M  V30 22336 H 2035.55 7.61969 1.6439 0
M  V30 22337 N 2039.78 0.45001 1.51039 0
M  V30 22338 C 2040.73 -0.369268 2.2965 0
M  V30 22339 C 2041.72 -1.00952 1.36034 0
M  V30 22340 O 2042.93 -0.943032 1.5332 0
M  V30 22341 H 2039.3 -0.137907 0.739247 0
M  V30 22342 H 2041.27 0.314433 2.96739 0
M  V30 22343 C 2040.02 -1.45082 3.15985 0
M  V30 22344 H 2039.34 -0.967533 3.87916 0
M  V30 22345 H 2040.78 -1.99707 3.74023 0
M  V30 22346 C 2039.24 -2.44112 2.32187 0
M  V30 22347 O 2039.77 -3.48929 1.99027 0
M  V30 22348 N 2037.98 -2.1531 1.95167 0
M  V30 22349 H 2037.53 -1.30099 2.22333 0
M  V30 22350 H 2037.48 -2.81807 1.39398 0
M  V30 22351 N 2041.26 -1.56548 0.18182 0
M  V30 22352 C 2042.19 -2.15665 -0.775955 0
M  V30 22353 C 2043.2 -1.11496 -1.18627 0
M  V30 22354 O 2044.39 -1.38642 -1.1243 0
M  V30 22355 C 2041.49 -2.69305 -2.05738 0
M  V30 22356 C 2040.66 -3.9824 -1.80897 0
M  V30 22357 C 2039.72 -4.36838 -2.93358 0
M  V30 22358 O 2038.75 -5.04516 -2.63539 0
M  V30 22359 N 2039.95 -3.99254 -4.21398 0
M  V30 22360 H 2042.72 -2.98477 -0.270484 0
M  V30 22361 H 2040.28 -1.619 -0.000606634 0
M  V30 22362 H 2042.27 -2.92119 -2.80087 0
M  V30 22363 H 2040.84 -1.91023 -2.47445 0
M  V30 22364 H 2040.06 -3.83695 -0.903963 0
M  V30 22365 H 2041.35 -4.82428 -1.6168 0
M  V30 22366 H 2040.74 -3.44791 -4.48482 0
M  V30 22367 H 2039.3 -4.27047 -4.92417 0
M  V30 22368 N 2042.73 0.0918577 -1.57332 0
M  V30 22369 C 2043.68 1.11121 -2.02289 0
M  V30 22370 C 2044.65 1.39617 -0.899791 0
M  V30 22371 O 2045.84 1.51025 -1.16602 0
M  V30 22372 C 2042.98 2.42534 -2.45502 0
M  V30 22373 C 2042.09 2.20741 -3.71345 0
M  V30 22374 C 2041.22 3.45576 -4.03424 0
M  V30 22375 C 2040.26 3.19059 -5.22368 0
M  V30 22376 N 2039.4 4.36169 -5.50182 0
M  V30 22377 H 2044.24 0.720847 -2.8915 0
M  V30 22378 H 2041.78 0.344398 -1.43012 0
M  V30 22379 H 2043.74 3.19232 -2.68601 0
M  V30 22380 H 2042.37 2.79411 -1.61646 0
M  V30 22381 H 2041.42 1.3483 -3.55704 0
M  V30 22382 H 2042.73 1.97141 -4.58189 0
M  V30 22383 H 2041.88 4.3068 -4.27317 0
M  V30 22384 H 2040.62 3.72234 -3.15108 0
M  V30 22385 H 2039.63 2.32349 -4.98291 0
M  V30 22386 H 2040.85 2.93744 -6.12284 0
M  V30 22387 H 2038.8 4.62896 -4.64826 0
M  V30 22388 H 2038.72 4.15771 -6.31404 0
M  V30 22389 H 2039.98 5.22328 -5.78613 0
M  V30 22390 N 2044.21 1.53368 0.362763 0
M  V30 22391 C 2045.14 1.82984 1.45048 0
M  V30 22392 C 2046.12 0.683544 1.55762 0
M  V30 22393 O 2047.31 0.933658 1.70283 0
M  V30 22394 C 2044.44 2.02227 2.8235 0
M  V30 22395 C 2043.39 3.18002 2.86459 0
M  V30 22396 C 2042.72 3.22543 4.26463 0
M  V30 22397 C 2044.02 4.56531 2.53726 0
M  V30 22398 H 2045.71 2.74075 1.20513 0
M  V30 22399 H 2043.26 1.31877 0.578302 0
M  V30 22400 H 2045.21 2.21529 3.58473 0
M  V30 22401 H 2043.94 1.07849 3.08279 0
M  V30 22402 H 2042.59 2.98525 2.12787 0
M  V30 22403 H 2042.24 2.25797 4.49472 0
M  V30 22404 H 2041.94 4.00331 4.30127 0
M  V30 22405 H 2043.47 3.44032 5.04455 0
M  V30 22406 H 2044.88 4.75975 3.19563 0
M  V30 22407 H 2043.28 5.36581 2.68703 0
M  V30 22408 H 2044.35 4.61451 1.48967 0
M  V30 22409 N 2045.69 -0.62272 1.44776 0
M  V30 22410 C 2046.94 -1.37937 1.47708 0
M  V30 22411 C 2047.26 -1.94665 0.114186 0
M  V30 22412 O 2046.53 -1.76277 -0.854583 0
M  V30 22413 H 2045.11 -0.512023 0.543914 0
M  V30 22414 H 2047.77 -0.732336 1.80618 0
M  V30 22415 H 2046.87 -2.20646 2.2073 0
M  V30 22416 N 2047.17 -1.31814 -0.863883 0
M  V30 22417 C 2048.39 -1.24961 -1.65528 0
M  V30 22418 C 2048.82 0.18096 -1.87228 0
M  V30 22419 O 2048.18 1.12919 -1.41842 0
M  V30 22420 C 2048.22 -2.00518 -2.99708 0
M  V30 22421 O 2047.33 -1.34668 -3.89793 0
M  V30 22422 H 2046.67 -0.431127 -0.505001 0
M  V30 22423 H 2049.2 -1.73981 -1.07665 0
M  V30 22424 H 2049.21 -2.10344 -3.49599 0
M  V30 22425 H 2047.88 -3.0455 -2.83235 0
M  V30 22426 H 2046.46 -1.33332 -3.48249 0
M  V30 22427 N 2048.65 1.07897 -1.14873 0
M  V30 22428 C 2049.87 1.84657 -0.944281 0
M  V30 22429 C 2050.3 1.8127 0.50226 0
M  V30 22430 O 2049.65 1.20159 1.35763 0
M  V30 22431 C 2049.7 3.29889 -1.45622 0
M  V30 22432 O 2048.81 4.07217 -0.651748 0
M  V30 22433 H 2048.15 0.571994 -0.337222 0
M  V30 22434 H 2050.68 1.36151 -1.52723 0
M  V30 22435 H 2050.69 3.80727 -1.46665 0
M  V30 22436 H 2049.36 3.31668 -2.50936 0
M  V30 22437 H 2047.94 3.66069 -0.710491 0
M  V30 22438 N 2050.12 0.944665 1.2615 0
M  V30 22439 C 2051.35 0.610451 1.98213 0
M  V30 22440 C 2051.77 -0.808401 1.69843 0
M  V30 22441 O 2051.13 -1.5451 0.948491 0
M  V30 22442 C 2051.18 0.863318 3.50113 0
M  V30 22443 O 2050.28 -0.062849 4.12352 0
M  V30 22444 H 2049.63 0.233139 0.621725 0
M  V30 22445 H 2052.16 1.26855 1.60527 0
M  V30 22446 H 2052.17 0.785602 4.00365 0
M  V30 22447 H 2050.84 1.89748 3.70092 0
M  V30 22448 H 2049.42 0.066222 3.72841 0
M  V30 22449 N 2051.6 -1.40596 0.712085 0
M  V30 22450 C 2052.83 -2.05265 0.259627 0
M  V30 22451 C 2053.25 -1.5364 -1.09728 0
M  V30 22452 O 2052.6 -0.691501 -1.68892 0
M  V30 22453 C 2052.65 -3.60787 0.22693 0
M  V30 22454 O 2052.37 -4.10506 1.53025 0
M  V30 22455 C 2053.88 -4.42625 -0.244507 0
M  V30 22456 H 2051.1 -0.660656 0.117366 0
M  V30 22457 H 2053.64 -1.80069 0.969308 0
M  V30 22458 H 2051.79 -3.84965 -0.43369 0
M  V30 22459 H 2052.21 -5.04676 1.42838 0
M  V30 22460 H 2053.68 -5.51576 -0.216241 0
M  V30 22461 H 2054.16 -4.19948 -1.2861 0
M  V30 22462 H 2054.77 -4.23547 0.385709 0
M  V30 22463 N 2053.08 -0.458013 -1.50798 0
M  V30 22464 C 2054.31 0.10185 -2.0715 0
M  V30 22465 C 2054.73 1.33899 -1.32109 0
M  V30 22466 O 2054.09 1.77589 -0.364928 0
M  V30 22467 C 2054.14 0.381979 -3.58571 0
M  V30 22468 O 2053.24 1.46484 -3.85508 0
M  V30 22469 H 2052.58 -0.00721903 -0.663961 0
M  V30 22470 H 2055.11 -0.645297 -1.94157 0
M  V30 22471 H 2055.12 0.626354 -4.03163 0
M  V30 22472 H 2053.8 -0.522121 -4.1261 0
M  V30 22473 H 2052.37 1.20881 -3.52764 0
M  V30 22474 N 2054.56 1.56449 -0.190119 0
M  V30 22475 C 2055.81 1.96613 0.450146 0
M  V30 22476 C 2056.12 1.07965 1.63104 0
M  V30 22477 O 2057.33 1.3789 2.33877 0
M  V30 22478 C 2055.78 3.49664 0.852245 0
M  V30 22479 C 2055.39 4.46967 -0.304086 0
M  V30 22480 C 2057.14 3.98608 1.45987 0
M  V30 22481 C 2055.04 5.91281 0.118694 0
M  V30 22482 H 2053.97 0.734132 0.171947 0
M  V30 22483 H 2056.62 1.8133 -0.281345 0
M  V30 22484 H 2055.01 3.60432 1.64026 0
M  V30 22485 H 2056.18 4.47927 -1.08158 0
M  V30 22486 H 2054.49 4.08188 -0.822886 0
M  V30 22487 H 2057.09 5.039 1.78856 0
M  V30 22488 H 2057.43 3.42627 2.36458 0
M  V30 22489 H 2057.97 3.90933 0.735928 0
M  V30 22490 H 2054.71 6.51176 -0.751699 0
M  V30 22491 H 2054.23 5.93586 0.861154 0
M  V30 22492 H 2055.91 6.44605 0.556195 0
M  V30 22493 N 2056.04 -0.0835127 1.57379 0
M  V30 22494 C 2057.45 -0.636708 1.75508 0
M  V30 22495 C 2057.8 -1.7852 0.813942 0
M  V30 22496 O 2056.92 -2.16399 -0.00480143 0
M  V30 22497 C 2057.52 -1.16179 3.18258 0
M  V30 22498 C 2056.08 -1.66095 3.37771 0
M  V30 22499 C 2055.23 -0.575388 2.71265 0
M  V30 22500 H 2058.18 0.142613 1.58058 0
M  V30 22501 H 2058.2 -2.03087 3.2177 0
M  V30 22502 H 2057.71 -0.325679 3.86731 0
M  V30 22503 H 2055.81 -2.52068 2.74395 0
M  V30 22504 H 2055.92 -1.74596 4.46154 0
M  V30 22505 H 2054.29 -1.01763 2.33487 0
M  V30 22506 H 2055.07 0.250335 3.42386 0
M  V30 22507 N 2057.52 -1.53558 -0.354624 0
M  V30 22508 C 2058.47 -1.77149 -1.43535 0
M  V30 22509 C 2059.45 -0.626333 -1.48209 0
M  V30 22510 O 2060.64 -0.885366 -1.53265 0
M  V30 22511 C 2057.77 -1.97463 -2.80826 0
M  V30 22512 C 2056.86 -3.18012 -2.80587 0
M  V30 22513 N 2057.25 -4.39705 -2.49986 0
M  V30 22514 C 2055.55 -3.18957 -3.11741 0
M  V30 22515 C 2056.25 -5.21502 -2.57702 0
M  V30 22516 N 2055.22 -4.57963 -2.92867 0
M  V30 22517 H 2059.02 -2.68839 -1.18755 0
M  V30 22518 H 2056.54 -1.52332 -0.562901 0
M  V30 22519 H 2058.54 -2.12494 -3.58681 0
M  V30 22520 H 2057.2 -1.07008 -3.06561 0
M  V30 22521 H 2058.21 -4.67248 -2.23382 0
M  V30 22522 H 2054.88 -2.38432 -3.42719 0
M  V30 22523 H 2056.27 -6.28602 -2.37296 0
M  V30 22524 N 2058.99 0.615033 -1.45104 0
M  V30 22525 C 2059.92 1.73703 -1.56043 0
M  V30 22526 C 2060.9 1.65025 -0.412413 0
M  V30 22527 O 2062.09 1.83539 -0.634606 0
M  V30 22528 C 2059.22 3.12287 -1.51968 0
M  V30 22529 C 2058.17 3.35769 -2.65411 0
M  V30 22530 C 2057.5 4.74549 -2.46389 0
M  V30 22531 C 2058.8 3.26752 -4.07469 0
M  V30 22532 H 2060.49 1.64805 -2.4996 0
M  V30 22533 H 2058.04 0.791445 -1.203 0
M  V30 22534 H 2059.99 3.9057 -1.58219 0
M  V30 22535 H 2058.72 3.22008 -0.545769 0
M  V30 22536 H 2057.38 2.59874 -2.58575 0
M  V30 22537 H 2057.02 4.80994 -1.47153 0
M  V30 22538 H 2056.72 4.91217 -3.22458 0
M  V30 22539 H 2058.25 5.55041 -2.54482 0
M  V30 22540 H 2059.66 3.94918 -4.15587 0
M  V30 22541 H 2058.06 3.54952 -4.83869 0
M  V30 22542 H 2059.13 2.24305 -4.29902 0
M  V30 22543 N 2060.47 1.3227 0.85688 0
M  V30 22544 C 2061.7 1.25837 1.64863 0
M  V30 22545 C 2062.12 -0.171028 1.87321 0
M  V30 22546 O 2061.48 -1.12165 1.42438 0
M  V30 22547 C 2061.53 2.02105 2.9864 0
M  V30 22548 O 2060.63 1.36733 3.89073 0
M  V30 22549 H 2059.97 0.433799 0.502707 0
M  V30 22550 H 2062.5 1.7455 1.0674 0
M  V30 22551 H 2062.51 2.12195 3.48479 0
M  V30 22552 H 2061.19 3.06048 2.81616 0
M  V30 22553 H 2059.76 1.35177 3.47537 0
M  V30 22554 N 2061.95 -1.07287 1.15444 0
M  V30 22555 C 2063.17 -1.84153 0.954061 0
M  V30 22556 C 2063.6 -1.81534 -0.492639 0
M  V30 22557 O 2062.96 -1.20877 -1.35124 0
M  V30 22558 C 2063.01 -3.29112 1.4737 0
M  V30 22559 O 2062.11 -4.06866 0.673335 0
M  V30 22560 H 2061.45 -0.570198 0.34025 0
M  V30 22561 H 2063.98 -1.35339 1.53442 0
M  V30 22562 H 2063.99 -3.79944 1.48682 0
M  V30 22563 H 2062.67 -3.30333 2.52691 0
M  V30 22564 H 2061.24 -3.65687 0.729894 0
M  V30 22565 N 2063.43 -0.951342 -1.25647 0
M  V30 22566 C 2064.84 -0.645559 -1.75184 0
M  V30 22567 C 2065.19 0.83913 -1.7735 0
M  V30 22568 O 2064.31 1.65671 -1.3922 0
M  V30 22569 C 2064.91 -1.16512 -3.18136 0
M  V30 22570 C 2063.47 -0.90956 -3.65245 0
M  V30 22571 C 2062.62 -1.31009 -2.44401 0
M  V30 22572 H 2065.57 -1.12852 -1.1158 0
M  V30 22573 H 2065.59 -0.523662 -3.76879 0
M  V30 22574 H 2065.1 -2.24571 -3.16527 0
M  V30 22575 H 2063.2 0.156212 -3.72272 0
M  V30 22576 H 2063.31 -1.54371 -4.53549 0
M  V30 22577 H 2061.68 -0.728474 -2.4406 0
M  V30 22578 H 2062.46 -2.39983 -2.45486 0
M  V30 22579 N 2064.91 1.40216 -0.719531 0
M  V30 22580 C 2066.32 1.83713 -0.33263 0
M  V30 22581 C 2066.67 1.60151 1.1334 0
M  V30 22582 O 2065.79 1.08447 1.87265 0
M  V30 22583 C 2066.39 3.335 -0.596947 0
M  V30 22584 C 2064.95 3.75475 -0.263712 0
M  V30 22585 C 2064.09 2.63387 -0.867341 0
M  V30 22586 H 2067.04 1.29428 -0.918378 0
M  V30 22587 H 2067.07 3.80255 0.136497 0
M  V30 22588 H 2066.58 3.50617 -1.66402 0
M  V30 22589 H 2064.68 3.63951 0.798139 0
M  V30 22590 H 2064.79 4.73421 -0.735465 0
M  V30 22591 H 2063.16 2.52985 -0.295091 0
M  V30 22592 H 2063.94 2.83315 -1.93876 0
M  V30 22593 N 2066.38 0.466004 1.50553 0
M  V30 22594 C 2067.61 -0.0885768 2.0671 0
M  V30 22595 C 2068.03 -1.33958 1.33044 0
M  V30 22596 O 2067.38 -1.78102 0.398219 0
M  V30 22597 C 2067.43 -0.381842 3.59478 0
M  V30 22598 O 2067.16 0.81954 4.30366 0
M  V30 22599 C 2068.66 -0.98395 4.32242 0
M  V30 22600 H 2065.88 0.00481473 0.670983 0
M  V30 22601 H 2068.42 0.653327 1.93783 0
M  V30 22602 H 2066.58 -1.07367 3.72224 0
M  V30 22603 H 2066.99 0.56106 5.21491 0
M  V30 22604 H 2068.46 -1.13895 5.40122 0
M  V30 22605 H 2068.94 -1.97271 3.92404 0
M  V30 22606 H 2069.55 -0.330654 4.24013 0
M  V30 22607 N 2067.86 -1.56346 0.198413 0
M  V30 22608 C 2068.81 -2.19245 -0.721128 0
M  V30 22609 C 2069.78 -1.14072 -1.20735 0
M  V30 22610 O 2070.96 -1.42336 -1.27063 0
M  V30 22611 C 2068.1 -2.85839 -1.93365 0
M  V30 22612 C 2067.22 -4.05546 -1.48849 0
M  V30 22613 C 2066.35 -4.59988 -2.65678 0
M  V30 22614 C 2065.39 -5.72046 -2.17784 0
M  V30 22615 N 2064.53 -6.20879 -3.27802 0
M  V30 22616 H 2069.37 -2.97468 -0.178003 0
M  V30 22617 H 2066.9 -1.46903 -0.076117 0
M  V30 22618 H 2068.86 -3.2262 -2.64522 0
M  V30 22619 H 2067.49 -2.10174 -2.45004 0
M  V30 22620 H 2066.54 -3.74405 -0.672674 0
M  V30 22621 H 2067.86 -4.86584 -1.09713 0
M  V30 22622 H 2067.01 -4.99092 -3.44952 0
M  V30 22623 H 2065.75 -3.78064 -3.08089 0
M  V30 22624 H 2064.75 -5.32467 -1.36964 0
M  V30 22625 H 2065.98 -6.5579 -1.76399 0
M  V30 22626 H 2063.93 -5.41876 -3.69738 0
M  V30 22627 H 2063.84 -6.96977 -2.92845 0
M  V30 22628 H 2065.11 -6.64637 -4.07281 0
M  V30 22629 N 2069.34 0.0751653 -1.57421 0
M  V30 22630 C 2070.59 0.774958 -1.87085 0
M  V30 22631 C 2070.92 1.77747 -0.789691 0
M  V30 22632 O 2070.17 1.94519 0.214672 0
M  V30 22633 C 2070.47 1.52138 -3.23402 0
M  V30 22634 C 2070.14 0.659153 -4.46056 0
M  V30 22635 C 2068.8 0.421528 -4.7935 0
M  V30 22636 C 2071.15 0.0610407 -5.21164 0
M  V30 22637 C 2068.48 -0.423745 -5.85168 0
M  V30 22638 C 2070.83 -0.771668 -6.27876 0
M  V30 22639 C 2069.49 -1.0192 -6.59673 0
M  V30 22640 H 2068.76 0.283577 -0.684591 0
M  V30 22641 H 2071.41 0.0358311 -1.91466 0
M  V30 22642 H 2069.72 2.33261 -3.14796 0
M  V30 22643 H 2071.41 2.06757 -3.43588 0
M  V30 22644 H 2068 0.854487 -4.19996 0
M  V30 22645 H 2072.19 0.231747 -4.95759 0
M  V30 22646 H 2067.44 -0.6243 -6.08204 0
M  V30 22647 H 2071.62 -1.24188 -6.85237 0
M  V30 22648 H 2069.24 -1.67595 -7.41496 0
M  V30 22649 N 2070.82 1.53744 0.346476 0
M  V30 22650 C 2072.07 1.70849 1.08705 0
M  V30 22651 C 2072.39 0.470151 1.88732 0
M  V30 22652 O 2071.65 -0.548082 1.87868 0
M  V30 22653 C 2071.95 2.92192 2.05812 0
M  V30 22654 C 2071.61 4.27917 1.42119 0
M  V30 22655 C 2070.28 4.64821 1.24477 0
M  V30 22656 C 2072.63 5.12243 0.962087 0
M  V30 22657 C 2069.96 5.83671 0.595386 0
M  V30 22658 C 2072.31 6.31756 0.326627 0
M  V30 22659 C 2070.97 6.67358 0.137866 0
M  V30 22660 H 2070.24 0.625182 0.397779 0
M  V30 22661 H 2072.89 1.87957 0.366657 0
M  V30 22662 H 2071.19 2.69675 2.84223 0
M  V30 22663 H 2072.89 3.0262 2.63101 0
M  V30 22664 H 2069.48 3.9887 1.56847 0
M  V30 22665 H 2073.66 4.84267 1.08625 0
M  V30 22666 H 2068.92 6.09831 0.437727 0
M  V30 22667 H 2073.09 6.9639 -0.0372189 0
M  V30 22668 H 2070.72 7.59312 -0.367372 0
M  V30 22669 N 2072.3 -0.607329 1.45428 0
M  V30 22670 C 2073.54 -1.36835 1.49679 0
M  V30 22671 C 2073.88 -1.93708 0.138148 0
M  V30 22672 O 2073.15 -1.75069 -0.847414 0
M  V30 22673 C 2073.43 -2.51607 2.57616 0
M  V30 22674 C 2073.29 -1.99929 4.02925 0
M  V30 22675 C 2074.61 -3.53738 2.61835 0
M  V30 22676 H 2071.72 -0.496187 0.544947 0
M  V30 22677 H 2074.37 -0.684587 1.77238 0
M  V30 22678 H 2072.52 -3.09936 2.34247 0
M  V30 22679 H 2074.19 -1.46247 4.37504 0
M  V30 22680 H 2072.43 -1.30929 4.1357 0
M  V30 22681 H 2073.1 -2.82666 4.74135 0
M  V30 22682 H 2075.58 -3.0525 2.82775 0
M  V30 22683 H 2074.45 -4.31533 3.39221 0
M  V30 22684 H 2074.72 -4.09372 1.66935 0
M  V30 22685 N 2073.77 -1.32722 -0.849853 0
M  V30 22686 C 2075 -1.2671 -1.64193 0
M  V30 22687 C 2075.42 0.161092 -1.87409 0
M  V30 22688 O 2074.78 1.11408 -1.43031 0
M  V30 22689 C 2074.83 -2.03686 -2.97564 0
M  V30 22690 O 2073.93 -1.38794 -3.88343 0
M  V30 22691 H 2073.28 -0.436459 -0.5004 0
M  V30 22692 H 2075.81 -1.75113 -1.05813 0
M  V30 22693 H 2075.82 -2.1404 -3.47349 0
M  V30 22694 H 2074.49 -3.07537 -2.79989 0
M  V30 22695 H 2073.07 -1.37018 -3.46815 0
M  V30 22696 N 2075.25 1.06673 -1.16011 0
M  V30 22697 C 2076.48 1.83106 -0.963322 0
M  V30 22698 C 2076.9 1.82372 0.488451 0
M  V30 22699 O 2076.25 1.24012 1.33893 0
M  V30 22700 C 2076.3 3.29888 -1.47838 0
M  V30 22701 O 2076.02 3.30717 -2.87328 0
M  V30 22702 C 2077.53 4.23065 -1.32405 0
M  V30 22703 H 2074.75 0.577476 -0.341705 0
M  V30 22704 H 2077.29 1.34611 -1.53948 0
M  V30 22705 H 2075.44 3.75708 -0.944585 0
M  V30 22706 H 2075.86 4.22475 -3.1083 0
M  V30 22707 H 2077.33 5.24098 -1.73279 0
M  V30 22708 H 2077.81 4.38375 -0.269104 0
M  V30 22709 H 2078.42 3.83088 -1.84726 0
M  V30 22710 N 2076.73 0.957992 1.25141 0
M  V30 22711 C 2078.14 0.65484 1.74839 0
M  V30 22712 C 2078.49 -0.829713 1.77793 0
M  V30 22713 O 2077.62 -1.6493 1.40096 0
M  V30 22714 C 2078.21 1.18197 3.17513 0
M  V30 22715 C 2076.77 0.928917 3.64758 0
M  V30 22716 C 2075.92 1.32303 2.43703 0
M  V30 22717 H 2078.87 1.13442 1.1098 0
M  V30 22718 H 2078.89 0.543641 3.76596 0
M  V30 22719 H 2078.4 2.26246 3.15332 0
M  V30 22720 H 2076.5 -0.136467 3.7235 0
M  V30 22721 H 2076.62 1.56774 4.52724 0
M  V30 22722 H 2074.98 0.741407 2.4367 0
M  V30 22723 H 2075.76 2.41281 2.4421 0
M  V30 22724 N 2078.21 -1.39832 0.726957 0
M  V30 22725 C 2079.43 -2.05501 0.280008 0
M  V30 22726 C 2079.86 -1.54436 -1.07383 0
M  V30 22727 O 2079.22 -0.684615 -1.67877 0
M  V30 22728 C 2079.26 -3.59492 0.282502 0
M  V30 22729 O 2078.37 -4.05842 -0.732546 0
M  V30 22730 H 2077.71 -0.651361 0.128936 0
M  V30 22731 H 2080.24 -1.79019 0.990626 0
M  V30 22732 H 2080.25 -4.07811 0.124104 0
M  V30 22733 H 2078.92 -3.96022 1.27041 0
M  V30 22734 H 2077.5 -3.68956 -0.540943 0
M  V30 22735 N 2079.69 -0.473982 -1.50304 0
M  V30 22736 C 2080.62 0.355019 -2.26434 0
M  V30 22737 C 2081.63 0.954546 -1.3188 0
M  V30 22738 O 2082.82 0.842462 -1.57368 0
M  V30 22739 C 2079.92 1.51219 -3.03292 0
M  V30 22740 C 2079.09 1.02492 -4.25222 0
M  V30 22741 C 2078.15 2.05649 -4.8435 0
M  V30 22742 O 2077.18 1.63594 -5.45184 0
M  V30 22743 N 2078.38 3.38481 -4.71605 0
M  V30 22744 H 2081.15 -0.297646 -2.98218 0
M  V30 22745 H 2078.71 -0.304934 -1.59002 0
M  V30 22746 H 2080.7 2.19927 -3.39726 0
M  V30 22747 H 2079.27 2.0695 -2.34287 0
M  V30 22748 H 2078.49 0.16363 -3.9386 0
M  V30 22749 H 2079.78 0.677339 -5.04271 0
M  V30 22750 H 2079.17 3.75356 -4.23231 0
M  V30 22751 H 2077.73 4.02979 -5.123 0
M  V30 22752 N 2081.16 1.56239 -0.206702 0
M  V30 22753 C 2082.58 1.84211 0.303832 0
M  V30 22754 C 2082.93 1.12771 1.60552 0
M  V30 22755 O 2082.05 0.392383 2.12813 0
M  V30 22756 C 2082.65 3.34173 0.558041 0
M  V30 22757 C 2081.21 3.62515 1.01292 0
M  V30 22758 C 2080.35 2.77217 0.0678344 0
M  V30 22759 H 2083.3 1.52757 -0.430235 0
M  V30 22760 H 2083.32 3.53573 1.40593 0
M  V30 22761 H 2082.84 3.8614 -0.38952 0
M  V30 22762 H 2080.94 3.15991 1.97435 0
M  V30 22763 H 2081.05 4.70617 0.8976 0
M  V30 22764 H 2079.41 2.48197 0.571888 0
M  V30 22765 H 2080.2 3.31978 -0.874377 0
M  V30 22766 N 2082.64 -0.0668159 1.57458 0
M  V30 22767 C 2083.87 -0.781616 1.92108 0
M  V30 22768 C 2084.29 -1.70072 0.803553 0
M  V30 22769 O 2083.65 -1.7966 -0.243316 0
M  V30 22770 C 2083.7 -1.54705 3.25728 0
M  V30 22771 O 2082.8 -2.65804 3.15312 0
M  V30 22772 H 2082.14 -0.212907 0.628941 0
M  V30 22773 H 2084.67 -0.0335704 2.04572 0
M  V30 22774 H 2084.68 -1.92522 3.59721 0
M  V30 22775 H 2083.36 -0.872713 4.06641 0
M  V30 22776 H 2081.94 -2.30807 2.92886 0
M  V30 22777 N 2084.12 -1.53926 -0.338317 0
M  V30 22778 C 2085.36 -1.73141 -1.08635 0
M  V30 22779 C 2085.73 -0.486994 -1.85721 0
M  V30 22780 O 2086.93 -0.556249 -2.62982 0
M  V30 22781 C 2085.2 -2.9631 -1.99838 0
M  V30 22782 S 2086.76 -3.3636 -2.81793 0
M  V30 22783 H 2083.57 -0.608969 -0.366984 0
M  V30 22784 H 2086.18 -1.92079 -0.364135 0
M  V30 22785 H 2084.88 -3.85045 -1.42017 0
M  V30 22786 H 2084.41 -2.79853 -2.76489 0
M  V30 22787 H 2086.43 -2.90504 -4.02271 0
M  V30 22788 N 2085.6 0.599608 -1.45748 0
M  V30 22789 C 2086.55 1.70982 -1.55028 0
M  V30 22790 C 2087.52 1.61319 -0.395631 0
M  V30 22791 O 2088.7 1.80781 -0.610146 0
M  V30 22792 C 2085.84 3.09304 -1.53052 0
M  V30 22793 C 2084.95 3.29715 -2.79127 0
M  V30 22794 C 2084.09 4.58189 -2.68769 0
M  V30 22795 C 2083.13 4.71885 -3.89861 0
M  V30 22796 N 2082.27 5.91666 -3.77989 0
M  V30 22797 H 2087.11 1.62387 -2.49869 0
M  V30 22798 H 2084.64 0.791687 -1.23979 0
M  V30 22799 H 2086.6 3.89343 -1.49893 0
M  V30 22800 H 2085.23 3.16838 -0.617561 0
M  V30 22801 H 2084.28 2.43397 -2.92339 0
M  V30 22802 H 2085.59 3.35707 -3.68921 0
M  V30 22803 H 2084.75 5.46433 -2.63621 0
M  V30 22804 H 2083.49 4.54608 -1.76587 0
M  V30 22805 H 2082.49 3.82062 -3.95359 0
M  V30 22806 H 2083.72 4.77257 -4.83118 0
M  V30 22807 H 2081.66 5.89115 -2.88582 0
M  V30 22808 H 2081.58 5.98853 -4.61423 0
M  V30 22809 H 2082.85 6.82387 -3.76787 0
M  V30 22810 N 2087.08 1.33171 0.842803 0
M  V30 22811 C 2088.3 1.27579 1.63519 0
M  V30 22812 C 2088.73 -0.151151 1.87492 0
M  V30 22813 O 2088.09 -1.10648 1.4362 0
M  V30 22814 C 2088.13 2.05261 2.9648 0
M  V30 22815 O 2087.24 1.40852 3.87601 0
M  V30 22816 H 2086.58 0.439106 0.498078 0
M  V30 22817 H 2089.11 1.75672 1.04883 0
M  V30 22818 H 2089.12 2.15879 3.46209 0
M  V30 22819 H 2087.79 3.09018 2.78354 0
M  V30 22820 H 2086.37 1.38855 3.46083 0
M  V30 22821 N 2088.56 -1.06056 1.16576 0
M  V30 22822 C 2089.51 -2.11853 0.842761 0
M  V30 22823 C 2090.49 -1.59903 -0.178851 0
M  V30 22824 O 2091.68 -1.76986 0.0223245 0
M  V30 22825 C 2088.81 -3.41529 0.348238 0
M  V30 22826 C 2087.9 -4.00299 1.40077 0
M  V30 22827 N 2088.29 -4.33148 2.61183 0
M  V30 22828 C 2086.59 -4.27932 1.25659 0
M  V30 22829 C 2087.29 -4.79896 3.28747 0
M  V30 22830 N 2086.26 -4.79479 2.56126 0
M  V30 22831 H 2090.06 -2.351 1.76366 0
M  V30 22832 H 2087.58 -1.23621 1.05317 0
M  V30 22833 H 2089.58 -4.16784 0.0984337 0
M  V30 22834 H 2088.24 -3.19719 -0.566566 0
M  V30 22835 H 2089.25 -4.23421 2.9822 0
M  V30 22836 H 2085.92 -4.15553 0.402732 0
M  V30 22837 H 2087.31 -5.14497 4.32137 0
M  V30 22838 N 2090.03 -0.964615 -1.24631 0
M  V30 22839 C 2090.96 -0.511091 -2.27838 0
M  V30 22840 C 2091.94 0.447692 -1.64103 0
M  V30 22841 O 2093.13 0.344485 -1.9112 0
M  V30 22842 C 2090.26 0.202467 -3.46709 0
M  V30 22843 C 2089.21 -0.672032 -4.22691 0
M  V30 22844 C 2088.54 0.172842 -5.34421 0
M  V30 22845 C 2089.84 -1.9551 -4.84327 0
M  V30 22846 H 2091.53 -1.37371 -2.66025 0
M  V30 22847 H 2089.08 -0.661983 -1.27882 0
M  V30 22848 H 2091.03 0.530942 -4.18042 0
M  V30 22849 H 2089.76 1.09942 -3.07539 0
M  V30 22850 H 2088.42 -0.983734 -3.53155 0
M  V30 22851 H 2088.06 1.06985 -4.91491 0
M  V30 22852 H 2087.76 -0.409046 -5.86175 0
M  V30 22853 H 2089.29 0.496057 -6.08582 0
M  V30 22854 H 2090.7 -1.69241 -5.4775 0
M  V30 22855 H 2089.1 -2.48346 -5.46301 0
M  V30 22856 H 2090.17 -2.65197 -4.05954 0
M  V30 22857 N 2091.51 1.39445 -0.734362 0
M  V30 22858 C 2092.42 2.34405 -0.0955161 0
M  V30 22859 C 2093.44 1.58285 0.722625 0
M  V30 22860 O 2094.61 1.9058 0.65124 0
M  V30 22861 C 2091.68 3.3731 0.801447 0
M  V30 22862 C 2090.74 4.2929 -0.0288733 0
M  V30 22863 C 2089.97 5.27279 0.825373 0
M  V30 22864 O 2090.2 5.31743 2.06411 0
M  V30 22865 O 2089.13 6.01362 0.254373 0
M  V30 22866 H 2092.96 2.90693 -0.879273 0
M  V30 22867 H 2090.54 1.4096 -0.495025 0
M  V30 22868 H 2092.42 4.00368 1.31468 0
M  V30 22869 H 2091.1 2.83408 1.56403 0
M  V30 22870 H 2090 3.69456 -0.587608 0
M  V30 22871 H 2091.34 4.86396 -0.753661 0
M  V30 22872 N 2092.99 0.481946 1.5005 0
M  V30 22873 C 2094.22 -0.0666474 2.06793 0
M  V30 22874 C 2094.63 -1.3254 1.34457 0
M  V30 22875 O 2093.99 -1.7767 0.417087 0
M  V30 22876 C 2094.04 -0.343693 3.59862 0
M  V30 22877 O 2093.76 0.86514 4.29473 0
M  V30 22878 C 2095.26 -0.93805 4.33261 0
M  V30 22879 H 2092.48 0.0119311 0.670894 0
M  V30 22880 H 2095.03 0.673843 1.93079 0
M  V30 22881 H 2093.18 -1.03413 3.73342 0
M  V30 22882 H 2093.6 0.616339 5.20866 0
M  V30 22883 H 2095.07 -1.0816 5.413 0
M  V30 22884 H 2095.55 -1.93098 3.94474 0
M  V30 22885 H 2096.15 -0.285663 4.2434 0
M  V30 22886 N 2094.47 -1.56127 0.214985 0
M  V30 22887 C 2095.72 -1.97737 -0.417663 0
M  V30 22888 C 2096.04 -1.10368 -1.6076 0
M  V30 22889 O 2095.31 -0.179261 -1.95078 0
M  V30 22890 H 2093.89 -0.730251 -0.157298 0
M  V30 22891 H 2096.55 -1.92477 0.306351 0
M  V30 22892 H 2095.64 -3.02994 -0.748421 0
M  V30 22893 N 2095.95 0.0584645 -1.57492 0
M  V30 22894 C 2097.17 0.767637 -1.92133 0
M  V30 22895 C 2097.59 1.70438 -0.812178 0
M  V30 22896 O 2096.95 1.81246 0.213598 0
M  V30 22897 C 2097 1.54992 -3.26588 0
M  V30 22898 O 2096.72 0.650813 -4.33239 0
M  V30 22899 C 2098.22 2.3589 -3.75328 0
M  V30 22900 H 2095.44 0.2175 -0.634772 0
M  V30 22901 H 2097.98 0.0247547 -2.04485 0
M  V30 22902 H 2096.14 2.24495 -3.15722 0
M  V30 22903 H 2096.55 1.19628 -5.10675 0
M  V30 22904 H 2098.03 2.86216 -4.72 0
M  V30 22905 H 2098.5 3.16011 -3.05014 0
M  V30 22906 H 2099.11 1.71518 -3.89181 0
M  V30 22907 N 2097.42 1.54103 0.330149 0
M  V30 22908 C 2098.37 1.83029 1.40603 0
M  V30 22909 C 2099.34 0.676907 1.51681 0
M  V30 22910 O 2100.53 0.922683 1.67007 0
M  V30 22911 C 2097.67 2.05745 2.77061 0
M  V30 22912 C 2096.78 3.3344 2.74667 0
M  V30 22913 C 2095.91 3.46152 4.02929 0
M  V30 22914 C 2094.95 4.67746 3.94817 0
M  V30 22915 N 2094.09 4.7742 5.14796 0
M  V30 22916 H 2098.93 2.74817 1.15236 0
M  V30 22917 H 2096.47 1.36107 0.557963 0
M  V30 22918 H 2098.42 2.16907 3.56381 0
M  V30 22919 H 2097.05 1.17255 3.00751 0
M  V30 22920 H 2096.11 3.3105 1.87376 0
M  V30 22921 H 2097.42 4.22863 2.64554 0
M  V30 22922 H 2096.57 3.5682 4.90678 0
M  V30 22923 H 2095.31 2.5481 4.15841 0
M  V30 22924 H 2094.32 4.57142 3.05453 0
M  V30 22925 H 2095.54 5.60467 3.83476 0
M  V30 22926 H 2093.49 3.88991 5.28225 0
M  V30 22927 H 2093.4 5.60799 5.06991 0
M  V30 22928 H 2094.67 4.92412 6.04277 0
M  V30 22929 N 2098.9 -0.59187 1.46064 0
M  V30 22930 C 2100.18 -1.35177 1.41374 0
M  V30 22931 C 2100.56 -2.10898 0.09244 0
M  V30 22932 O 2099.91 -2.08901 -0.925879 0
M  V30 22933 C 2100.12 -2.28545 2.63758 0
M  V30 22934 C 2101.47 -2.90662 3.09517 0
M  V30 22935 O 2102.49 -2.38861 2.64242 0
M  V30 22936 O 2101.35 -3.84728 3.88133 0
M  V30 22937 H 2098.44 -0.606905 0.561778 0
M  V30 22938 H 2100.99 -0.61365 1.58216 0
M  V30 22939 H 2099.76 -1.71959 3.51491 0
M  V30 22940 H 2099.38 -3.09711 2.49328 0
M  V30 22941 N 2100.38 -1.33616 -0.835729 0
M  V30 22942 C 2101.31 -1.19968 -1.95296 0
M  V30 22943 C 2102.33 -0.129874 -1.62281 0
M  V30 22944 O 2103.51 -0.380581 -1.74396 0
M  V30 22945 C 2100.61 -0.818275 -3.28873 0
M  V30 22946 C 2099.79 -1.98038 -3.9 0
M  V30 22947 C 2098.85 -1.57944 -5.01936 0
M  V30 22948 O 2097.87 -2.29423 -5.20916 0
M  V30 22949 N 2099.07 -0.486237 -5.7846 0
M  V30 22950 H 2101.84 -2.16212 -2.0754 0
M  V30 22951 H 2099.4 -1.26403 -1.01163 0
M  V30 22952 H 2101.39 -0.532092 -4.01187 0
M  V30 22953 H 2099.96 0.053577 -3.12554 0
M  V30 22954 H 2099.18 -2.43201 -3.10237 0
M  V30 22955 H 2100.47 -2.75789 -4.27572 0
M  V30 22956 H 2099.87 0.108268 -5.65596 0
M  V30 22957 H 2098.43 -0.259739 -6.51282 0
M  V30 22958 N 2101.86 1.05436 -1.17136 0
M  V30 22959 C 2102.77 2.16633 -0.900413 0
M  V30 22960 C 2103.78 1.7351 0.130523 0
M  V30 22961 O 2104.96 2.01342 -0.0481629 0
M  V30 22962 C 2102.03 3.4421 -0.414754 0
M  V30 22963 C 2101.09 4.01793 -1.51198 0
M  V30 22964 C 2100.32 5.23281 -1.0494 0
M  V30 22965 O 2100.54 5.70317 0.0974405 0
M  V30 22966 O 2099.48 5.73041 -1.8414 0
M  V30 22967 H 2103.3 2.42336 -1.83049 0
M  V30 22968 H 2100.89 1.15137 -0.952042 0
M  V30 22969 H 2102.77 4.21128 -0.151319 0
M  V30 22970 H 2101.44 3.20013 0.487199 0
M  V30 22971 H 2100.35 3.26326 -1.82926 0
M  V30 22972 H 2101.68 4.30304 -2.38955 0
M  V30 22973 N 2103.34 0.971211 1.24118 0
M  V30 22974 C 2104.56 0.652748 1.96333 0
M  V30 22975 C 2104.98 -0.778509 1.72002 0
M  V30 22976 O 2104.34 -1.52276 1.00589 0
M  V30 22977 C 2104.39 0.922262 3.49538 0
M  V30 22978 O 2104.11 2.29726 3.73039 0
M  V30 22979 C 2105.61 0.618475 4.38964 0
M  V30 22980 H 2102.83 0.243252 0.625355 0
M  V30 22981 H 2105.37 1.3001 1.57853 0
M  V30 22982 H 2103.53 0.321067 3.86067 0
M  V30 22983 H 2103.94 2.37994 4.67396 0
M  V30 22984 H 2105.42 0.857482 5.45299 0
M  V30 22985 H 2105.89 -0.447327 4.36916 0
M  V30 22986 H 2106.5 1.19973 4.08028 0
M  V30 22987 N 2104.81 -1.39054 0.741747 0
M  V30 22988 C 2106.06 -2.00671 0.293089 0
M  V30 22989 C 2106.39 -1.58733 -1.11882 0
M  V30 22990 O 2105.67 -0.819335 -1.76401 0
M  V30 22991 C 2105.95 -3.57843 0.402573 0
M  V30 22992 C 2105.8 -4.0978 1.85474 0
M  V30 22993 C 2107.12 -4.39594 -0.211039 0
M  V30 22994 H 2104.24 -0.729048 0.10797 0
M  V30 22995 H 2106.88 -1.65165 0.939169 0
M  V30 22996 H 2105.03 -3.8822 -0.147482 0
M  V30 22997 H 2106.71 -3.90095 2.46219 0
M  V30 22998 H 2104.95 -3.63088 2.3738 0
M  V30 22999 H 2105.62 -5.18906 1.88257 0
M  V30 23000 H 2108.1 -4.153 0.257937 0
M  V30 23001 H 2106.97 -5.48801 -0.104126 0
M  V30 23002 H 2107.23 -4.22618 -1.29792 0
M  V30 23003 N 2106.29 -0.489897 -1.49792 0
M  V30 23004 C 2107.53 0.0570502 -2.0432 0
M  V30 23005 C 2107.9 1.35291 -1.36237 0
M  V30 23006 O 2109.1 1.9834 -1.81424 0
M  V30 23007 C 2107.37 0.217574 -3.56737 0
M  V30 23008 S 2108.93 0.72037 -4.32847 0
M  V30 23009 H 2105.75 0.00704922 -0.710965 0
M  V30 23010 H 2108.35 -0.661331 -1.83975 0
M  V30 23011 H 2107.05 -0.731044 -4.03836 0
M  V30 23012 H 2106.58 0.961522 -3.81469 0
M  V30 23013 H 2108.6 1.99116 -4.54497 0
M  V30 23014 N 2107.77 1.56011 -0.223262 0
M  V30 23015 C 2109 2.03189 0.415817 0
M  V30 23016 C 2109.42 1.102 1.52439 0
M  V30 23017 O 2108.78 0.0904999 1.81074 0
M  V30 23018 C 2108.83 3.48586 0.923053 0
M  V30 23019 O 2107.93 3.58734 2.03429 0
M  V30 23020 H 2107.27 0.65733 0.0938783 0
M  V30 23021 H 2109.8 2.01715 -0.342399 0
M  V30 23022 H 2109.81 3.88941 1.23243 0
M  V30 23023 H 2108.49 4.1575 0.11169 0
M  V30 23024 H 2107.06 3.30267 1.73142 0
M  V30 23025 N 2109.25 -0.0501116 1.5752 0
M  V30 23026 C 2110.2 -1.05718 2.05164 0
M  V30 23027 C 2111.17 -1.37182 0.936492 0
M  V30 23028 O 2112.35 -1.4788 1.20565 0
M  V30 23029 C 2109.49 -2.3594 2.51846 0
M  V30 23030 C 2108.6 -2.10818 3.77067 0
M  V30 23031 C 2107.74 -3.34759 4.12444 0
M  V30 23032 C 2106.78 -3.05097 5.30643 0
M  V30 23033 N 2105.91 -4.21429 5.61553 0
M  V30 23034 H 2110.75 -0.643931 2.9096 0
M  V30 23035 H 2108.29 -0.30636 1.43874 0
M  V30 23036 H 2110.25 -3.11999 2.7697 0
M  V30 23037 H 2108.88 -2.75027 1.68997 0
M  V30 23038 H 2107.93 -1.25352 3.59153 0
M  V30 23039 H 2109.24 -1.84923 4.63255 0
M  V30 23040 H 2108.4 -4.19199 4.38585 0
M  V30 23041 H 2107.14 -3.63748 3.24867 0
M  V30 23042 H 2106.14 -2.19056 5.04276 0
M  V30 23043 H 2107.37 -2.77407 6.19856 0
M  V30 23044 H 2105.31 -4.5041 4.76935 0
M  V30 23045 H 2105.23 -3.98884 6.42205 0
M  V30 23046 H 2106.5 -5.06804 5.92258 0
M  V30 23047 N 2110.73 -1.54276 -0.321972 0
M  V30 23048 C 2111.69 -1.83051 -1.37931 0
M  V30 23049 C 2112.69 -0.702392 -1.44648 0
M  V30 23050 O 2113.88 -0.970701 -1.44648 0
M  V30 23051 C 2111.01 -1.99197 -2.76647 0
M  V30 23052 H 2112.2 -2.77523 -1.1367 0
M  V30 23053 H 2109.76 -1.46018 -0.55754 0
M  V30 23054 H 2110.49 -1.06942 -3.0616 0
M  V30 23055 H 2110.28 -2.81289 -2.73164 0
M  V30 23056 H 2111.77 -2.22902 -3.53135 0
M  V30 23057 N 2112.2 0.584116 -1.46376 0
M  V30 23058 C 2113.43 1.36845 -1.55181 0
M  V30 23059 C 2113.85 1.87817 -0.192443 0
M  V30 23060 O 2113.2 1.63538 0.81003 0
M  V30 23061 C 2113.26 2.55694 -2.55545 0
M  V30 23062 O 2112.98 2.06834 -3.86201 0
M  V30 23063 C 2114.48 3.48263 -2.74277 0
M  V30 23064 H 2111.7 0.418095 -0.524822 0
M  V30 23065 H 2114.24 0.710227 -1.91771 0
M  V30 23066 H 2112.4 3.17508 -2.21963 0
M  V30 23067 H 2112.81 2.84224 -4.40814 0
M  V30 23068 H 2114.28 4.2814 -3.48426 0
M  V30 23069 H 2114.76 4.00109 -1.81134 0
M  V30 23070 H 2115.37 2.92285 -3.08949 0
M  V30 23071 N 2113.68 1.34058 0.828631 0
M  V30 23072 C 2114.59 1.27222 1.97109 0
M  V30 23073 C 2115.61 0.180917 1.73057 0
M  V30 23074 O 2116.79 0.406362 1.97258 0
M  V30 23075 C 2113.85 1.0218 3.31301 0
M  V30 23076 C 2112.91 2.2041 3.68399 0
M  V30 23077 C 2112.14 1.96553 4.96188 0
M  V30 23078 O 2112.37 0.920931 5.62917 0
M  V30 23079 O 2111.3 2.83356 5.3103 0
M  V30 23080 H 2115.13 2.23322 2.05818 0
M  V30 23081 H 2112.71 1.14206 0.963184 0
M  V30 23082 H 2114.59 0.899718 4.11683 0
M  V30 23083 H 2113.27 0.0911525 3.23572 0
M  V30 23084 H 2112.18 2.38176 2.88484 0
M  V30 23085 H 2113.51 3.11845 3.80807 0
M  V30 23086 N 2115.16 -1.04814 1.17694 0
M  V30 23087 C 2116.41 -1.77532 0.96576 0
M  V30 23088 C 2116.73 -1.88306 -0.506545 0
M  V30 23089 O 2116 -1.40259 -1.36763 0
M  V30 23090 H 2114.58 -0.657613 0.354336 0
M  V30 23091 H 2117.24 -1.26536 1.48239 0
M  V30 23092 H 2116.34 -2.79071 1.39735 0
M  V30 23093 N 2116.64 -0.977779 -1.23601 0
M  V30 23094 C 2117.92 -0.561714 -1.87361 0
M  V30 23095 C 2118.3 0.961166 -1.87949 0
M  V30 23096 O 2117.64 1.83678 -1.35922 0
M  V30 23097 C 2117.85 -1.16478 -3.28989 0
M  V30 23098 C 2119.2 -1.2559 -4.05601 0
M  V30 23099 O 2120.23 -1.11804 -3.38199 0
M  V30 23100 O 2119.09 -1.47493 -5.2622 0
M  V30 23101 H 2116.18 -0.18876 -0.80517 0
M  V30 23102 H 2118.73 -1.07269 -1.31497 0
M  V30 23103 H 2117.5 -2.20711 -3.23114 0
M  V30 23104 H 2117.12 -0.638457 -3.9244 0
M  V30 23105 N 2118.12 1.38658 -0.749111 0
M  V30 23106 C 2119.07 2.3235 -0.10773 0
M  V30 23107 C 2120.06 1.5379 0.710284 0
M  V30 23108 O 2121.27 1.69353 0.609885 0
M  V30 23109 H 2117.64 0.751829 -0.0160406 0
M  V30 23110 H 2119.61 2.84055 -0.91408 0
M  V30 23111 C 2118.36 3.38962 0.774615 0
M  V30 23112 H 2117.68 3.99501 0.154555 0
M  V30 23113 H 2119.12 4.06936 1.19076 0
M  V30 23114 C 2117.58 2.77165 1.91524 0
M  V30 23115 O 2118.11 2.66119 3.00904 0
M  V30 23116 N 2116.32 2.35041 1.70892 0
M  V30 23117 H 2115.87 2.44224 0.819286 0
M  V30 23118 H 2115.82 1.94035 2.47382 0
M  V30 23119 N 2119.6 0.497834 1.49531 0
M  V30 23120 C 2120.82 -0.0447105 2.06852 0
M  V30 23121 C 2121.24 -1.31106 1.35855 0
M  V30 23122 O 2120.6 -1.77218 0.435907 0
M  V30 23123 C 2120.65 -0.305505 3.60207 0
M  V30 23124 O 2120.37 0.910643 4.28531 0
M  V30 23125 C 2121.87 -0.892044 4.34232 0
M  V30 23126 H 2119.09 0.0190462 0.67073 0
M  V30 23127 H 2121.63 0.694284 1.92354 0
M  V30 23128 H 2119.79 -0.994475 3.74418 0
M  V30 23129 H 2120.2 0.67155 5.20183 0
M  V30 23130 H 2121.68 -1.02413 5.42416 0
M  V30 23131 H 2122.15 -1.88903 3.965 0
M  V30 23132 H 2122.76 -0.24064 4.24619 0
M  V30 23133 N 2121.07 -1.5589 0.231532 0
M  V30 23134 C 2121.98 -2.24359 -0.685566 0
M  V30 23135 C 2123 -1.25454 -1.20571 0
M  V30 23136 O 2124.18 -1.58292 -1.24522 0
M  V30 23137 C 2121.24 -2.91783 -1.87252 0
M  V30 23138 C 2120.3 -4.06059 -1.39337 0
M  V30 23139 C 2119.53 -4.70258 -2.52375 0
M  V30 23140 O 2119.76 -4.33477 -3.70747 0
M  V30 23141 O 2118.69 -5.59063 -2.23008 0
M  V30 23142 H 2122.52 -3.03412 -0.132235 0
M  V30 23143 H 2120.1 -1.494 0.000664697 0
M  V30 23144 H 2121.98 -3.34305 -2.56551 0
M  V30 23145 H 2120.66 -2.15683 -2.41377 0
M  V30 23146 H 2119.57 -3.68086 -0.668112 0
M  V30 23147 H 2120.9 -4.83932 -0.898393 0
M  V30 23148 N 2122.55 0.0417572 -1.57545 0
M  V30 23149 C 2123.8 0.7351 -1.88686 0
M  V30 23150 C 2124.13 1.76032 -0.827216 0
M  V30 23151 O 2123.38 1.94931 0.173363 0
M  V30 23152 C 2123.68 1.45244 -3.26556 0
M  V30 23153 C 2123.35 0.56439 -4.47354 0
M  V30 23154 C 2122.01 0.319756 -4.80136 0
M  V30 23155 C 2124.36 -0.0495197 -5.21176 0
M  V30 23156 C 2121.69 -0.547773 -5.84137 0
M  V30 23157 C 2124.04 -0.904676 -6.26098 0
M  V30 23158 C 2122.7 -1.15889 -6.57363 0
M  V30 23159 H 2121.97 0.268992 -0.690452 0
M  V30 23160 H 2124.62 -0.00478987 -1.91499 0
M  V30 23161 H 2122.93 2.26532 -3.19673 0
M  V30 23162 H 2124.62 1.99422 -3.47896 0
M  V30 23163 H 2121.21 0.765207 -4.21714 0
M  V30 23164 H 2125.4 0.126537 -4.96139 0
M  V30 23165 H 2120.65 -0.753169 -6.06743 0
M  V30 23166 H 2124.83 -1.38695 -6.82449 0
M  V30 23167 H 2122.45 -1.83286 -7.37774 0
M  V30 23168 N 2124.03 1.54445 0.313786 0
M  V30 23169 C 2125.28 1.72775 1.04849 0
M  V30 23170 C 2125.6 0.509507 1.88226 0
M  V30 23171 O 2124.87 -0.476396 1.90019 0
M  V30 23172 H 2123.45 0.637053 0.390092 0
M  V30 23173 H 2126.11 1.91771 0.347859 0
M  V30 23174 H 2125.21 2.61155 1.70893 0
M  V30 23175 N 2125.51 -0.576345 1.46683 0
M  V30 23176 C 2126.47 -1.66698 1.57303 0
M  V30 23177 C 2127.47 -1.54385 0.449647 0
M  V30 23178 O 2128.66 -1.58888 0.71415 0
M  V30 23179 C 2125.79 -3.06156 1.49938 0
M  V30 23180 H 2126.99 -1.58638 2.54507 0
M  V30 23181 H 2124.54 -0.79471 1.34588 0
M  V30 23182 H 2125.27 -3.19766 0.540379 0
M  V30 23183 H 2125.06 -3.16502 2.3145 0
M  V30 23184 H 2126.55 -3.85538 1.60469 0
M  V30 23185 N 2126.99 -1.34495 -0.82151 0
M  V30 23186 C 2128.23 -1.26931 -1.57781 0
M  V30 23187 C 2128.56 0.160345 -1.93838 0
M  V30 23188 O 2127.82 1.12196 -1.60345 0
M  V30 23189 C 2128.11 -2.10695 -2.88691 0
M  V30 23190 C 2127.78 -3.59682 -2.71919 0
M  V30 23191 C 2126.44 -4.00295 -2.67053 0
M  V30 23192 C 2128.79 -4.5428 -2.55497 0
M  V30 23193 C 2126.12 -5.33698 -2.43687 0
M  V30 23194 C 2128.47 -5.87864 -2.33663 0
M  V30 23195 C 2127.14 -6.2764 -2.27209 0
M  V30 23196 H 2126.41 -0.464474 -0.57736 0
M  V30 23197 H 2129.06 -1.66251 -0.950411 0
M  V30 23198 H 2127.36 -1.64208 -3.55729 0
M  V30 23199 H 2129.06 -2.02188 -3.46296 0
M  V30 23200 H 2125.65 -3.27444 -2.76547 0
M  V30 23201 H 2129.83 -4.23799 -2.58279 0
M  V30 23202 H 2125.09 -5.63534 -2.37149 0
M  V30 23203 H 2129.26 -6.60756 -2.19943 0
M  V30 23204 H 2126.89 -7.30944 -2.08865 0
M  V30 23205 N 2128.46 1.04188 -1.18248 0
M  V30 23206 C 2129.71 1.7763 -0.978539 0
M  V30 23207 C 2130.04 1.87897 0.490757 0
M  V30 23208 O 2129.32 1.38617 1.36439 0
M  V30 23209 C 2129.6 3.20968 -1.63252 0
M  V30 23210 C 2129.45 3.18653 -3.1746 0
M  V30 23211 C 2130.77 4.19052 -1.34475 0
M  V30 23212 H 2127.89 0.644817 -0.356903 0
M  V30 23213 H 2130.53 1.21713 -1.45897 0
M  V30 23214 H 2128.68 3.68714 -1.22402 0
M  V30 23215 H 2130.36 2.78906 -3.67436 0
M  V30 23216 H 2128.6 2.56717 -3.49684 0
M  V30 23217 H 2129.27 4.19864 -3.58354 0
M  V30 23218 H 2131.75 3.79848 -1.69868 0
M  V30 23219 H 2130.62 5.17565 -1.82804 0
M  V30 23220 H 2130.88 4.41291 -0.267408 0
M  V30 23221 N 2129.94 0.98432 1.23081 0
M  V30 23222 C 2131.19 0.654086 1.91223 0
M  V30 23223 C 2131.51 -0.815416 1.77133 0
M  V30 23224 O 2130.78 -1.58365 1.15315 0
M  V30 23225 H 2129.36 0.238934 0.707757 0
M  V30 23226 H 2132.02 1.24898 1.49621 0
M  V30 23227 H 2131.12 0.909129 2.98565 0
M  V30 23228 N 2131.42 -1.38259 0.756453 0
M  V30 23229 C 2132.37 -2.27752 0.10629 0
M  V30 23230 C 2133.35 -1.45343 -0.690231 0
M  V30 23231 O 2134.55 -1.6805 -0.555715 0
M  V30 23232 C 2131.68 -3.34231 -0.783865 0
M  V30 23233 C 2130.76 -4.24095 0.0196592 0
M  V30 23234 N 2131.15 -4.94621 1.05753 0
M  V30 23235 C 2129.45 -4.45521 -0.206711 0
M  V30 23236 C 2130.15 -5.60837 1.54393 0
M  V30 23237 N 2129.13 -5.36774 0.85873 0
M  V30 23238 H 2132.93 -2.79744 0.901144 0
M  V30 23239 H 2130.44 -1.51195 0.592764 0
M  V30 23240 H 2132.44 -3.97235 -1.26529 0
M  V30 23241 H 2131.1 -2.83797 -1.57764 0
M  V30 23242 H 2132.11 -4.97496 1.43938 0
M  V30 23243 H 2128.79 -4.05989 -0.973599 0
M  V30 23244 H 2130.18 -6.27245 2.4086 0
M  V30 23245 N 2132.9 -0.505757 -1.49264 0
M  V30 23246 C 2134.31 -0.162021 -1.58775 0
M  V30 23247 C 2134.51 1.33366 -1.51048 0
M  V30 23248 O 2133.57 2.11001 -1.3869 0
M  V30 23249 C 2134.88 -0.743046 -2.91375 0
M  V30 23250 C 2136.43 -0.709582 -3.04851 0
M  V30 23251 C 2136.91 -1.26875 -4.40076 0
M  V30 23252 N 2138.4 -1.22966 -4.4658 0
M  V30 23253 C 2139.13 -1.63246 -5.49671 0
M  V30 23254 N 2138.63 -2.11141 -6.59842 0
M  V30 23255 N 2140.42 -1.54633 -5.40412 0
M  V30 23256 H 2132.57 -1.47812 -1.5253 0
M  V30 23257 H 2134.84 -0.613391 -0.722811 0
M  V30 23258 H 2134.54 -1.79218 -3.02612 0
M  V30 23259 H 2134.42 -0.206195 -3.76636 0
M  V30 23260 H 2136.8 0.330725 -2.93241 0
M  V30 23261 H 2136.88 -1.28363 -2.21261 0
M  V30 23262 H 2136.53 -2.30787 -4.52438 0
M  V30 23263 H 2136.46 -0.670599 -5.22313 0
M  V30 23264 H 2138.95 -0.878781 -3.6754 0
M  V30 23265 H 2139.26 -2.39934 -7.3461 0
M  V30 23266 H 2137.61 -2.15119 -6.6087 0
M  V30 23267 H 2140.8 -1.1703 -4.53235 0
M  V30 23268 H 2140.97 -1.86347 -6.20628 0
M  V30 23269 N 2134.38 1.55765 -0.239796 0
M  V30 23270 C 2135.65 1.90659 0.436876 0
M  V30 23271 C 2136.03 1.1596 1.76398 0
M  V30 23272 O 2135.38 0.274778 2.26842 0
M  V30 23273 C 2135.59 3.43593 0.611939 0
M  V30 23274 C 2136.94 4.1471 0.911065 0
M  V30 23275 O 2137.96 3.49293 0.698064 0
M  V30 23276 O 2136.82 5.30411 1.3163 0
M  V30 23277 H 2133.92 0.793348 0.233511 0
M  V30 23278 H 2136.46 1.67318 -0.283335 0
M  V30 23279 H 2135.23 3.89961 -0.323424 0
M  V30 23280 H 2134.86 3.72773 1.38296 0
M  V30 23281 N 2135.85 -0.0334016 1.57565 0
M  V30 23282 C 2137.08 -0.740692 1.93723 0
M  V30 23283 C 2137.5 -1.6833 0.839447 0
M  V30 23284 O 2136.86 -1.80136 -0.205152 0
M  V30 23285 C 2136.91 -1.47761 3.28936 0
M  V30 23286 O 2136.01 -2.59056 3.2088 0
M  V30 23287 H 2135.36 -0.199518 0.633315 0
M  V30 23288 H 2137.89 0.00982998 2.04598 0
M  V30 23289 H 2137.9 -1.84849 3.63724 0
M  V30 23290 H 2136.57 -0.786263 4.084 0
M  V30 23291 H 2135.15 -2.24543 2.97716 0
M  V30 23292 N 2137.33 -1.54609 -0.305591 0
M  V30 23293 C 2138.27 -1.80117 -1.40119 0
M  V30 23294 C 2139.24 -0.652099 -1.48951 0
M  V30 23295 O 2140.43 -0.891546 -1.66083 0
M  V30 23296 C 2137.55 -1.93379 -2.78069 0
M  V30 23297 C 2136.6 -3.15778 -2.86682 0
M  V30 23298 S 2137.43 -4.73958 -2.49247 0
M  V30 23299 C 2138.59 -4.90151 -3.89234 0
M  V30 23300 H 2138.82 -2.72762 -1.18272 0
M  V30 23301 H 2136.36 -1.45962 -0.503446 0
M  V30 23302 H 2138.31 -2.01706 -3.57526 0
M  V30 23303 H 2136.97 -1.0168 -2.97187 0
M  V30 23304 H 2136.17 -3.21846 -3.87854 0
M  V30 23305 H 2135.77 -3.05874 -2.15214 0
M  V30 23306 H 2138.06 -4.73892 -4.84183 0
M  V30 23307 H 2139 -5.92245 -3.88138 0
M  V30 23308 H 2139.41 -4.18332 -3.79023 0
M  V30 23309 N 2138.81 0.568558 -1.46987 0
M  V30 23310 C 2140.09 1.3291 -1.43507 0
M  V30 23311 C 2140.47 2.10724 -0.12598 0
M  V30 23312 O 2139.82 2.10348 0.892528 0
M  V30 23313 C 2140.03 2.2432 -2.6736 0
M  V30 23314 C 2141.37 2.85701 -3.14102 0
M  V30 23315 O 2142.4 2.34627 -2.68009 0
M  V30 23316 O 2141.26 3.78504 -3.94204 0
M  V30 23317 H 2138.35 0.597891 -0.571363 0
M  V30 23318 H 2140.9 0.588401 -1.59173 0
M  V30 23319 H 2139.67 1.66345 -3.54182 0
M  V30 23320 H 2139.29 3.05705 -2.54224 0
M  V30 23321 N 2140.29 1.34929 0.814366 0
M  V30 23322 C 2141.22 1.29866 1.94055 0
M  V30 23323 C 2142.2 0.174504 1.69203 0
M  V30 23324 O 2143.38 0.368232 1.90677 0
M  V30 23325 C 2140.51 1.06201 3.30664 0
M  V30 23326 C 2139.47 2.15174 3.69978 0
M  V30 23327 C 2138.79 1.76686 5.04664 0
M  V30 23328 C 2140.09 3.57077 3.81174 0
M  V30 23329 H 2141.79 2.24095 1.98549 0
M  V30 23330 H 2139.33 1.07877 0.953865 0
M  V30 23331 H 2141.29 1.01301 4.09043 0
M  V30 23332 H 2140.01 0.0841549 3.26492 0
M  V30 23333 H 2138.67 2.19158 2.9388 0
M  V30 23334 H 2138.32 0.775388 4.96988 0
M  V30 23335 H 2138.02 2.49628 5.3194 0
M  V30 23336 H 2139.54 1.73297 5.85492 0
M  V30 23337 H 2140.96 3.55458 4.49803 0
M  V30 23338 H 2139.35 4.28713 4.19911 0
M  V30 23339 H 2140.42 3.93795 2.82937 0
M  V30 23340 N 2141.77 -1.0356 1.18799 0
M  V30 23341 C 2142.7 -2.11742 0.877379 0
M  V30 23342 C 2143.71 -1.62303 -0.127137 0
M  V30 23343 O 2144.9 -1.78212 0.10138 0
M  V30 23344 C 2142 -3.37653 0.290508 0
M  V30 23345 C 2141.17 -4.16306 1.34193 0
M  V30 23346 C 2140.23 -5.20538 0.769826 0
M  V30 23347 O 2139.26 -5.50531 1.44584 0
M  V30 23348 N 2140.46 -5.78904 -0.430185 0
M  V30 23349 H 2143.23 -2.3898 1.80855 0
M  V30 23350 H 2140.79 -1.19795 1.08907 0
M  V30 23351 H 2142.78 -4.04561 -0.105914 0
M  V30 23352 H 2141.35 -3.07816 -0.544797 0
M  V30 23353 H 2140.57 -3.44645 1.91347 0
M  V30 23354 H 2141.86 -4.65647 2.05062 0
M  V30 23355 H 2141.25 -5.56844 -0.997037 0
M  V30 23356 H 2139.81 -6.47254 -0.768466 0
M  V30 23357 N 2143.25 -0.990834 -1.22557 0
M  V30 23358 C 2144.66 -0.701213 -1.43371 0
M  V30 23359 C 2144.86 0.728876 -1.87855 0
M  V30 23360 O 2143.92 1.50004 -2.03113 0
M  V30 23361 C 2145.23 -1.70503 -2.47688 0
M  V30 23362 C 2146.78 -1.72024 -2.61489 0
M  V30 23363 C 2147.25 -2.71263 -3.69026 0
M  V30 23364 N 2148.74 -2.69845 -3.76481 0
M  V30 23365 C 2149.48 -3.43297 -4.59276 0
M  V30 23366 N 2148.98 -4.26343 -5.4608 0
M  V30 23367 N 2150.77 -3.32013 -4.53568 0
M  V30 23368 H 2142.92 -1.91447 -0.919875 0
M  V30 23369 H 2145.18 -0.825544 -0.466027 0
M  V30 23370 H 2144.89 -2.72827 -2.21942 0
M  V30 23371 H 2144.76 -1.49623 -3.46256 0
M  V30 23372 H 2147.15 -0.70399 -2.8658 0
M  V30 23373 H 2147.23 -1.96973 -1.63203 0
M  V30 23374 H 2146.87 -3.73036 -3.44683 0
M  V30 23375 H 2146.8 -2.43585 -4.66877 0
M  V30 23376 H 2149.3 -2.09583 -3.14457 0
M  V30 23377 H 2149.61 -4.79221 -6.06273 0
M  V30 23378 H 2147.95 -4.30431 -5.45669 0
M  V30 23379 H 2151.14 -2.66577 -3.84778 0
M  V30 23380 H 2151.32 -3.89516 -5.17862 0
M  V30 23381 N 2144.72 1.37856 -0.763775 0
M  V30 23382 C 2145.97 1.99883 -0.324496 0
M  V30 23383 C 2146.3 1.60631 1.09672 0
M  V30 23384 O 2145.55 0.840171 1.76747 0
M  V30 23385 C 2145.85 3.55083 -0.406337 0
M  V30 23386 C 2145.52 4.14078 -1.78466 0
M  V30 23387 C 2144.18 4.29904 -2.16185 0
M  V30 23388 C 2146.53 4.46517 -2.68834 0
M  V30 23389 C 2143.86 4.7547 -3.43723 0
M  V30 23390 C 2146.21 4.93504 -3.95774 0
M  V30 23391 C 2144.88 5.07536 -4.33547 0
M  V30 23392 H 2144.15 0.731424 -0.118741 0
M  V30 23393 H 2146.79 1.64747 -0.976245 0
M  V30 23394 H 2145.1 3.90417 0.328964 0
M  V30 23395 H 2146.8 4.00971 -0.0478734 0
M  V30 23396 H 2143.39 4.02182 -1.48149 0
M  V30 23397 H 2147.57 4.33883 -2.40955 0
M  V30 23398 H 2142.83 4.8452 -3.72895 0
M  V30 23399 H 2147 5.17572 -4.65931 0
M  V30 23400 H 2144.63 5.42603 -5.32434 0
M  V30 23401 N 2146.2 0.513665 1.48994 0
M  V30 23402 C 2147.15 -0.257967 2.29354 0
M  V30 23403 C 2148.12 -0.948815 1.36333 0
M  V30 23404 O 2149.3 -0.953018 1.65294 0
M  V30 23405 C 2146.44 -1.30885 3.19317 0
M  V30 23406 C 2145.56 -0.628503 4.27404 0
M  V30 23407 C 2144.69 -1.66091 5.04566 0
M  V30 23408 C 2143.73 -0.963129 6.04475 0
M  V30 23409 N 2142.87 -1.94033 6.74756 0
M  V30 23410 H 2147.71 0.433522 2.9483 0
M  V30 23411 H 2145.24 0.225633 1.45359 0
M  V30 23412 H 2147.2 -1.93026 3.69861 0
M  V30 23413 H 2145.83 -1.96894 2.55798 0
M  V30 23414 H 2144.88 0.10648 3.80251 0
M  V30 23415 H 2146.2 -0.0798289 4.98736 0
M  V30 23416 H 2145.35 -2.35704 5.59043 0
M  V30 23417 H 2144.09 -2.24346 4.33036 0
M  V30 23418 H 2143.09 -0.252846 5.49218 0
M  V30 23419 H 2144.32 -0.386911 6.77997 0
M  V30 23420 H 2142.27 -2.51226 6.05988 0
M  V30 23421 H 2142.18 -1.44265 7.42107 0
M  V30 23422 H 2143.45 -2.62894 7.3383 0
M  V30 23423 N 2147.68 -1.55636 0.248053 0
M  V30 23424 C 2148.59 -2.25074 -0.661731 0
M  V30 23425 C 2149.61 -1.26725 -1.19234 0
M  V30 23426 O 2150.78 -1.59603 -1.22836 0
M  V30 23427 C 2147.85 -2.93753 -1.84147 0
M  V30 23428 C 2146.91 -4.07514 -1.35022 0
M  V30 23429 C 2146.14 -4.72908 -2.47374 0
M  V30 23430 O 2146.36 -4.37385 -3.66129 0
M  V30 23431 O 2145.3 -5.61396 -2.17066 0
M  V30 23432 H 2149.12 -3.03535 -0.100047 0
M  V30 23433 H 2146.71 -1.49391 0.0165105 0
M  V30 23434 H 2148.59 -3.37007 -2.52991 0
M  V30 23435 H 2147.27 -2.18231 -2.39075 0
M  V30 23436 H 2146.17 -3.68774 -0.629034 0
M  V30 23437 H 2147.51 -4.84857 -0.847015 0
M  V30 23438 N 2149.16 0.0250451 -1.5758 0
M  V30 23439 C 2150.39 0.72671 -1.93718 0
M  V30 23440 C 2150.8 1.68677 -0.848148 0
M  V30 23441 O 2150.16 1.81658 0.175105 0
M  V30 23442 C 2150.21 1.4803 -3.29802 0
M  V30 23443 O 2149.93 0.55877 -4.34522 0
M  V30 23444 C 2151.43 2.27876 -3.80247 0
M  V30 23445 H 2148.65 0.203986 -0.639242 0
M  V30 23446 H 2151.19 -0.0186251 -2.04492 0
M  V30 23447 H 2149.35 2.17748 -3.20413 0
M  V30 23448 H 2149.76 1.08769 -5.13098 0
M  V30 23449 H 2151.24 2.7614 -4.77965 0
M  V30 23450 H 2151.71 3.09471 -3.11648 0
M  V30 23451 H 2152.32 1.63224 -3.92731 0
M  V30 23452 N 2150.64 1.54769 0.297388 0
M  V30 23453 C 2151.86 1.78543 1.05533 0
M  V30 23454 C 2152.29 0.54501 1.80031 0
M  V30 23455 O 2151.64 -0.504585 1.74137 0
M  V30 23456 C 2151.69 2.99469 2.00874 0
M  V30 23457 O 2150.8 2.72847 3.09238 0
M  V30 23458 H 2150.14 0.590843 0.302985 0
M  V30 23459 H 2152.67 2.0186 0.333711 0
M  V30 23460 H 2152.68 3.27538 2.43275 0
M  V30 23461 H 2151.35 3.8941 1.46058 0
M  V30 23462 H 2149.93 2.55805 2.71327 0
M  V30 23463 N 2152.11 -0.560755 1.47286 0
M  V30 23464 C 2153.06 -1.68914 1.59908 0
M  V30 23465 C 2154.06 -1.62849 0.466545 0
M  V30 23466 O 2155.26 -1.68077 0.644218 0
M  V30 23467 H 2151.64 -0.558856 0.503174 0
M  V30 23468 H 2153.61 -1.55405 2.54739 0
M  V30 23469 C 2152.36 -3.07274 1.62721 0
M  V30 23470 H 2151.68 -3.12622 2.49214 0
M  V30 23471 H 2153.12 -3.85927 1.75603 0
M  V30 23472 C 2151.58 -3.34973 0.359852 0
M  V30 23473 O 2152.11 -3.98046 -0.540583 0
M  V30 23474 N 2150.31 -2.89599 0.24097 0
M  V30 23475 H 2149.86 -2.3845 0.974638 0
M  V30 23476 H 2149.82 -3.08503 -0.606066 0
M  V30 23477 N 2153.59 -1.35359 -0.807199 0
M  V30 23478 C 2154.54 -1.2823 -1.919 0
M  V30 23479 C 2155.51 -0.154371 -1.65381 0
M  V30 23480 O 2156.69 -0.337971 -1.87783 0
M  V30 23481 C 2153.83 -1.05957 -3.28431 0
M  V30 23482 C 2152.95 -2.27666 -3.6714 0
M  V30 23483 C 2152.08 -1.98548 -4.92699 0
M  V30 23484 C 2151.12 -3.16315 -5.24034 0
M  V30 23485 N 2150.26 -2.86976 -6.40772 0
M  V30 23486 H 2155.1 -2.23305 -1.97329 0
M  V30 23487 H 2152.63 -1.11004 -0.965216 0
M  V30 23488 H 2154.59 -0.910752 -4.07138 0
M  V30 23489 H 2153.22 -0.145447 -3.22472 0
M  V30 23490 H 2152.27 -2.53414 -2.83699 0
M  V30 23491 H 2153.59 -3.15606 -3.86257 0
M  V30 23492 H 2152.74 -1.80493 -5.7923 0
M  V30 23493 H 2151.48 -1.07893 -4.75616 0
M  V30 23494 H 2150.48 -3.34948 -4.35993 0
M  V30 23495 H 2151.71 -4.07771 -5.43047 0
M  V30 23496 H 2149.66 -1.98914 -6.25115 0
M  V30 23497 H 2149.57 -3.6845 -6.60137 0
M  V30 23498 H 2150.84 -2.72461 -7.30332 0
M  V30 23499 N 2155.07 1.02928 -1.19346 0
M  V30 23500 C 2156.32 1.75724 -0.990157 0
M  V30 23501 C 2156.63 1.89622 0.479885 0
M  V30 23502 O 2157.84 2.59384 0.802002 0
M  V30 23503 C 2156.29 3.15992 -1.7227 0
M  V30 23504 C 2155.9 3.10149 -3.23283 0
M  V30 23505 C 2157.65 3.93086 -1.60262 0
M  V30 23506 C 2155.55 4.45347 -3.89128 0
M  V30 23507 H 2154.48 0.658737 -0.366854 0
M  V30 23508 H 2157.13 1.15193 -1.42838 0
M  V30 23509 H 2155.52 3.76987 -1.21229 0
M  V30 23510 H 2156.69 2.58537 -3.81438 0
M  V30 23511 H 2155 2.46552 -3.35561 0
M  V30 23512 H 2157.6 4.93087 -2.06807 0
M  V30 23513 H 2157.94 4.12561 -0.556708 0
M  V30 23514 H 2158.48 3.38691 -2.08647 0
M  V30 23515 H 2155.22 4.31076 -4.93816 0
M  V30 23516 H 2154.74 4.97016 -3.35761 0
M  V30 23517 H 2156.42 5.14231 -3.92652 0
M  V30 23518 N 2156.55 0.997319 1.2203 0
M  V30 23519 C 2157.49 0.551276 2.2412 0
M  V30 23520 C 2158.46 -0.418681 1.60737 0
M  V30 23521 O 2159.65 -0.322451 1.88056 0
M  V30 23522 C 2156.79 -0.123569 3.44879 0
M  V30 23523 C 2155.9 0.888653 4.22761 0
M  V30 23524 C 2155.04 0.186868 5.30871 0
M  V30 23525 C 2154.08 1.18716 6.00477 0
M  V30 23526 N 2153.21 0.513378 7.00221 0
M  V30 23527 H 2158.05 1.42656 2.61636 0
M  V30 23528 H 2155.59 0.714493 1.28582 0
M  V30 23529 H 2157.55 -0.53179 4.13797 0
M  V30 23530 H 2156.18 -0.962614 3.08113 0
M  V30 23531 H 2155.23 1.41517 3.53096 0
M  V30 23532 H 2156.54 1.65019 4.70712 0
M  V30 23533 H 2155.7 -0.277858 6.06063 0
M  V30 23534 H 2154.44 -0.60714 4.83906 0
M  V30 23535 H 2153.44 1.66247 5.24063 0
M  V30 23536 H 2154.67 1.98212 6.4953 0
M  V30 23537 H 2152.61 -0.261113 6.5548 0
M  V30 23538 H 2152.53 1.21329 7.462 0
M  V30 23539 H 2153.8 0.0716018 7.79467 0
M  V30 23540 N 2158.03 -1.37449 0.771075 0
M  V30 23541 C 2159.28 -1.98953 0.331779 0
M  V30 23542 C 2159.59 -1.61903 -1.09758 0
M  V30 23543 O 2160.79 -2.16505 -1.63823 0
M  V30 23544 C 2159.25 -3.55792 0.542247 0
M  V30 23545 C 2158.86 -4.01781 1.98183 0
M  V30 23546 C 2160.6 -4.24173 0.16654 0
M  V30 23547 C 2158.51 -5.51327 2.13993 0
M  V30 23548 H 2157.44 -0.74434 0.120306 0
M  V30 23549 H 2160.09 -1.56988 0.950108 0
M  V30 23550 H 2158.47 -3.95733 -0.145529 0
M  V30 23551 H 2159.65 -3.73086 2.7045 0
M  V30 23552 H 2157.96 -3.46179 2.31406 0
M  V30 23553 H 2160.56 -5.34052 0.263191 0
M  V30 23554 H 2160.9 -4.06825 -0.883113 0
M  V30 23555 H 2161.43 -3.89532 0.806838 0
M  V30 23556 H 2158.17 -5.736 3.17275 0
M  V30 23557 H 2157.69 -5.81707 1.46208 0
M  V30 23558 H 2159.37 -6.17286 1.93822 0
M  V30 23559 N 2159.5 -0.52156 -1.4872 0
M  V30 23560 C 2160.43 0.234741 -2.32317 0
M  V30 23561 C 2161.42 0.943119 -1.4156 0
M  V30 23562 O 2162.6 0.930536 -1.70454 0
M  V30 23563 C 2159.73 1.28724 -3.22564 0
M  V30 23564 C 2158.68 0.697518 -4.22278 0
M  V30 23565 C 2158.01 1.85205 -5.016 0
M  V30 23566 C 2159.31 -0.325174 -5.21287 0
M  V30 23567 H 2161 -0.463097 -2.95797 0
M  V30 23568 H 2158.55 -0.224154 -1.42245 0
M  V30 23569 H 2160.5 1.82422 -3.79869 0
M  V30 23570 H 2159.23 2.01455 -2.57067 0
M  V30 23571 H 2157.89 0.182131 -3.66147 0
M  V30 23572 H 2157.53 2.56754 -4.32535 0
M  V30 23573 H 2157.23 1.46343 -5.69085 0
M  V30 23574 H 2158.76 2.39297 -5.61755 0
M  V30 23575 H 2160.17 0.124406 -5.73165 0
M  V30 23576 H 2158.57 -0.630729 -5.96776 0
M  V30 23577 H 2159.64 -1.23392 -4.68938 0
M  V30 23578 N 2160.98 1.55502 -0.256304 0
M  V30 23579 C 2162.21 2.04025 0.372624 0
M  V30 23580 C 2162.63 1.13408 1.50067 0
M  V30 23581 O 2161.99 0.128888 1.80841 0
M  V30 23582 C 2162.04 3.50465 0.848906 0
M  V30 23583 O 2161.14 3.62969 1.95774 0
M  V30 23584 H 2160.48 0.659174 0.0799143 0
M  V30 23585 H 2163.01 2.00943 -0.385109 0
M  V30 23586 H 2163.02 3.91468 1.14965 0
M  V30 23587 H 2161.7 4.15893 0.0234786 0
M  V30 23588 H 2160.28 3.33865 1.66098 0
M  V30 23589 N 2162.46 -0.0166879 1.57591 0
M  V30 23590 C 2163.41 -1.03177 2.08464 0
M  V30 23591 C 2164.4 -1.36659 1.00103 0
M  V30 23592 O 2165.61 -1.35419 1.18582 0
M  V30 23593 H 2161.98 -0.350315 0.66542 0
M  V30 23594 H 2163.95 -0.576996 2.92768 0
M  V30 23595 C 2162.7 -2.32023 2.58961 0
M  V30 23596 H 2162.03 -2.07123 3.41965 0
M  V30 23597 H 2163.47 -3.01365 2.98253 0
M  V30 23598 C 2161.93 -3.01849 1.49629 0
M  V30 23599 O 2162.46 -3.92175 0.8696 0
M  V30 23600 N 2160.66 -2.63388 1.2278 0
M  V30 23601 H 2160.21 -1.9002 1.73926 0
M  V30 23602 H 2160.17 -3.10424 0.498436 0
M  V30 23603 N 2163.94 -1.54924 -0.289176 0
M  V30 23604 C 2164.89 -1.87462 -1.37698 0
M  V30 23605 C 2165.88 -0.749411 -1.51922 0
M  V30 23606 O 2167.09 -0.933558 -1.53898 0
M  V30 23607 H 2163.46 -0.59475 -0.460192 0
M  V30 23608 H 2165.43 -2.78365 -1.07498 0
M  V30 23609 C 2164.18 -2.14897 -2.7334 0
M  V30 23610 H 2163.5 -3.00958 -2.63181 0
M  V30 23611 H 2164.94 -2.41596 -3.48436 0
M  V30 23612 C 2163.4 -0.951304 -3.2319 0
M  V30 23613 O 2163.93 -0.177749 -4.01307 0
M  V30 23614 N 2162.14 -0.753431 -2.80663 0
M  V30 23615 H 2161.69 -1.38415 -2.17253 0
M  V30 23616 H 2161.64 0.0463293 -3.14366 0
M  V30 23617 N 2165.42 0.552936 -1.47582 0
M  V30 23618 C 2166.36 1.68064 -1.60802 0
M  V30 23619 C 2167.36 1.62599 -0.475175 0
M  V30 23620 O 2168.56 1.67733 -0.653122 0
M  V30 23621 H 2164.94 0.556179 -0.506131 0
M  V30 23622 H 2166.91 1.54051 -2.5556 0
M  V30 23623 C 2165.66 3.06407 -1.64348 0
M  V30 23624 H 2164.98 3.11295 -2.50869 0
M  V30 23625 H 2166.42 3.8499 -1.77647 0
M  V30 23626 C 2164.88 3.34777 -0.377611 0
M  V30 23627 O 2165.41 3.98327 0.519466 0
M  V30 23628 N 2163.62 2.89467 -0.256324 0
M  V30 23629 H 2163.16 2.3793 -0.98727 0
M  V30 23630 H 2163.12 3.0882 0.589696 0
M  V30 23631 N 2166.89 1.35785 0.800009 0
M  V30 23632 C 2168.12 1.32556 1.5886 0
M  V30 23633 C 2168.54 -0.0955366 1.88558 0
M  V30 23634 O 2167.89 -1.0494 1.49311 0
M  V30 23635 C 2167.95 2.13669 2.91595 0
M  V30 23636 O 2167.67 3.50238 2.63182 0
M  V30 23637 C 2169.17 2.181 3.85937 0
M  V30 23638 H 2166.39 0.455105 0.493073 0
M  V30 23639 H 2168.93 1.78733 0.993714 0
M  V30 23640 H 2167.09 1.71074 3.47581 0
M  V30 23641 H 2167.5 3.92442 3.47979 0
M  V30 23642 H 2168.97 2.79234 4.76164 0
M  V30 23643 H 2169.45 1.18154 4.23009 0
M  V30 23644 H 2170.06 2.60885 3.35886 0
M  V30 23645 N 2168.37 -1.02294 1.19891 0
M  V30 23646 C 2169.6 -1.79941 1.03131 0
M  V30 23647 C 2170.02 -1.8346 -0.415201 0
M  V30 23648 O 2169.38 -1.26499 -1.29876 0
M  V30 23649 C 2169.43 -3.22565 1.61196 0
M  V30 23650 O 2168.53 -4.03644 0.845295 0
M  V30 23651 H 2167.87 -0.555254 0.364128 0
M  V30 23652 H 2170.4 -1.28709 1.59045 0
M  V30 23653 H 2170.41 -3.73296 1.64663 0
M  V30 23654 H 2169.09 -3.19318 2.66474 0
M  V30 23655 H 2167.67 -3.62262 0.884338 0
M  V30 23656 N 2169.85 -1.00378 -1.21499 0
M  V30 23657 C 2170.76 -0.572425 -2.27509 0
M  V30 23658 C 2171.78 0.383982 -1.6971 0
M  V30 23659 O 2172.95 0.248119 -1.99866 0
M  V30 23660 C 2170.02 0.0953686 -3.46569 0
M  V30 23661 C 2169.08 -0.905366 -4.19645 0
M  V30 23662 C 2168.31 -0.269345 -5.3302 0
M  V30 23663 O 2168.53 0.934144 -5.62699 0
M  V30 23664 O 2167.47 -0.979662 -5.93874 0
M  V30 23665 H 2171.29 -1.45465 -2.66596 0
M  V30 23666 H 2168.88 -0.772585 -1.27873 0
M  V30 23667 H 2170.76 0.468934 -4.18783 0
M  V30 23668 H 2169.44 0.951993 -3.09385 0
M  V30 23669 H 2168.34 -1.33007 -3.49657 0
M  V30 23670 H 2169.68 -1.73154 -4.60737 0
M  V30 23671 N 2171.33 1.37038 -0.778354 0
M  V30 23672 C 2172.28 2.3207 -0.156991 0
M  V30 23673 C 2173.27 1.55262 0.677503 0
M  V30 23674 O 2174.48 1.70608 0.573826 0
M  V30 23675 H 2170.85 0.75132 -0.0319844 0
M  V30 23676 H 2172.82 2.82052 -0.974127 0
M  V30 23677 C 2171.57 3.40528 0.702542 0
M  V30 23678 H 2170.89 3.99739 0.0697802 0
M  V30 23679 H 2172.33 4.0937 1.10417 0
M  V30 23680 C 2170.79 2.81165 1.85602 0
M  V30 23681 O 2171.32 2.72442 2.95192 0
M  V30 23682 N 2169.53 2.38613 1.65868 0
M  V30 23683 H 2169.08 2.45907 0.767299 0
M  V30 23684 H 2169.03 1.99239 2.4321 0
M  V30 23685 N 2172.81 0.529439 1.48441 0
M  V30 23686 C 2174.04 -0.000824174 2.069 0
M  V30 23687 C 2174.45 -1.28195 1.38605 0
M  V30 23688 O 2173.81 -1.76253 0.4734 0
M  V30 23689 C 2173.86 -0.229032 3.60774 0
M  V30 23690 O 2173.58 1.00134 4.26503 0
M  V30 23691 C 2175.08 -0.799736 4.36027 0
M  V30 23692 H 2172.3 0.0332691 0.670175 0
M  V30 23693 H 2174.84 0.734929 1.90838 0
M  V30 23694 H 2173 -0.914832 3.76443 0
M  V30 23695 H 2173.41 0.781737 5.18642 0
M  V30 23696 H 2174.89 -0.908842 5.44467 0
M  V30 23697 H 2175.36 -1.8045 4.00418 0
M  V30 23698 H 2175.97 -0.150518 4.25034 0
M  V30 23699 N 2174.29 -1.55364 0.264547 0
M  V30 23700 C 2175.22 -2.25081 -0.621337 0
M  V30 23701 C 2176.2 -1.23722 -1.16734 0
M  V30 23702 O 2177.38 -1.52418 -1.20343 0
M  V30 23703 C 2174.51 -2.96382 -1.81038 0
M  V30 23704 C 2173.47 -4.0458 -1.39638 0
M  V30 23705 C 2172.79 -4.63399 -2.66768 0
M  V30 23706 C 2174.09 -5.1935 -0.554378 0
M  V30 23707 H 2175.79 -2.99373 -0.0399448 0
M  V30 23708 H 2173.33 -1.43989 -0.0177721 0
M  V30 23709 H 2175.28 -3.43862 -2.43592 0
M  V30 23710 H 2174.01 -2.19608 -2.41744 0
M  V30 23711 H 2172.67 -3.57896 -0.794097 0
M  V30 23712 H 2172.32 -3.83305 -3.25709 0
M  V30 23713 H 2172.02 -5.36449 -2.39784 0
M  V30 23714 H 2173.54 -5.13622 -3.30189 0
M  V30 23715 H 2174.95 -5.62946 -1.08465 0
M  V30 23716 H 2173.35 -5.98897 -0.379861 0
M  V30 23717 H 2174.42 -4.82996 0.42934 0
M  V30 23718 N 2175.76 0.00833021 -1.57598 0
M  V30 23719 C 2176.71 1.00242 -2.07895 0
M  V30 23720 C 2177.68 1.34651 -0.972534 0
M  V30 23721 O 2178.87 1.44632 -1.24444 0
M  V30 23722 C 2176.01 2.2918 -2.58013 0
M  V30 23723 C 2175.12 2.00747 -3.82524 0
M  V30 23724 C 2174.25 3.23706 -4.21175 0
M  V30 23725 C 2173.29 2.90921 -5.38546 0
M  V30 23726 N 2172.43 4.06392 -5.72529 0
M  V30 23727 H 2177.27 0.566561 -2.92565 0
M  V30 23728 H 2174.81 0.268106 -1.44636 0
M  V30 23729 H 2176.76 3.04546 -2.85145 0
M  V30 23730 H 2175.39 2.7045 -1.76229 0
M  V30 23731 H 2174.45 1.15786 -3.6235 0
M  V30 23732 H 2175.76 1.72576 -4.67995 0
M  V30 23733 H 2174.91 4.07424 -4.49545 0
M  V30 23734 H 2173.65 3.55007 -3.34397 0
M  V30 23735 H 2172.66 2.05609 -5.09907 0
M  V30 23736 H 2173.88 2.60875 -6.26993 0
M  V30 23737 H 2171.83 4.37606 -4.88709 0
M  V30 23738 H 2171.74 3.81717 -6.52555 0
M  V30 23739 H 2173.01 4.90923 -6.05487 0
M  V30 23740 N 2177.24 1.55075 0.280956 0
M  V30 23741 C 2178.66 1.46737 0.627723 0
M  V30 23742 C 2178.86 0.674952 1.8986 0
M  V30 23743 O 2177.91 0.190625 2.51779 0
M  V30 23744 C 2179.23 2.90883 0.762079 0
M  V30 23745 C 2180.77 3.01049 0.856656 0
M  V30 23746 C 2181.25 4.46432 1.02285 0
M  V30 23747 N 2182.74 4.50227 1.08857 0
M  V30 23748 C 2183.48 5.59924 1.23582 0
M  V30 23749 N 2182.97 6.79504 1.35077 0
M  V30 23750 N 2184.76 5.47651 1.26629 0
M  V30 23751 H 2176.92 2.05054 -0.553775 0
M  V30 23752 H 2179.18 0.929521 -0.186267 0
M  V30 23753 H 2178.88 3.51554 -0.101172 0
M  V30 23754 H 2178.76 3.39447 1.64486 0
M  V30 23755 H 2181.15 2.40479 1.71038 0
M  V30 23756 H 2181.23 2.5575 -0.05057 0
M  V30 23757 H 2180.87 5.07602 0.173817 0
M  V30 23758 H 2180.8 4.8938 1.94461 0
M  V30 23759 H 2183.29 3.64085 1.01245 0
M  V30 23760 H 2183.6 7.58859 1.46124 0
M  V30 23761 H 2181.95 6.82331 1.32096 0
M  V30 23762 H 2185.14 4.53172 1.17274 0
M  V30 23763 H 2185.31 6.33187 1.37761 0
M  V30 23764 N 2178.72 -0.545102 1.47873 0
M  V30 23765 C 2179.97 -1.30364 1.55348 0
M  V30 23766 C 2180.3 -1.92948 0.220182 0
M  V30 23767 O 2179.57 -1.78506 -0.772398 0
M  V30 23768 C 2179.86 -2.40454 2.68055 0
M  V30 23769 C 2179.71 -1.8266 4.11042 0
M  V30 23770 C 2181.03 -3.42314 2.76603 0
M  V30 23771 H 2178.15 -0.472628 0.565502 0
M  V30 23772 H 2180.79 -0.608798 1.79982 0
M  V30 23773 H 2178.94 -2.99722 2.47182 0
M  V30 23774 H 2180.61 -1.2756 4.43313 0
M  V30 23775 H 2178.85 -1.1327 4.18751 0
M  V30 23776 H 2179.53 -2.62302 4.85697 0
M  V30 23777 H 2182 -2.92981 2.95468 0
M  V30 23778 H 2180.88 -4.16757 3.57218 0
M  V30 23779 H 2181.14 -4.01923 1.84147 0
M  V30 23780 N 2180.2 -1.36208 -0.792797 0
M  V30 23781 C 2181.42 -1.3356 -1.58671 0
M  V30 23782 C 2181.85 0.0814602 -1.87924 0
M  V30 23783 O 2181.21 1.05241 -1.47628 0
M  V30 23784 C 2181.25 -2.16123 -2.88658 0
M  V30 23785 O 2180.36 -1.5514 -3.82106 0
M  V30 23786 H 2179.7 -0.45729 -0.481438 0
M  V30 23787 H 2182.23 -1.79444 -0.982909 0
M  V30 23788 H 2182.24 -2.28579 -3.37958 0
M  V30 23789 H 2180.91 -3.19136 -2.66693 0
M  V30 23790 H 2179.49 -1.51604 -3.40691 0
M  V30 23791 N 2181.68 1.01656 -1.20431 0
M  V30 23792 C 2182.9 1.79392 -1.04084 0
M  V30 23793 C 2183.33 1.83678 0.405466 0
M  V30 23794 O 2182.68 1.27186 1.29203 0
M  V30 23795 C 2182.73 3.21706 -1.62904 0
M  V30 23796 O 2181.84 4.0319 -0.866689 0
M  V30 23797 H 2181.18 0.553315 -0.367068 0
M  V30 23798 H 2183.71 1.27864 -1.59725 0
M  V30 23799 H 2183.72 3.72418 -1.6664 0
M  V30 23800 H 2182.39 3.17901 -2.68164 0
M  V30 23801 H 2180.97 3.61788 -0.903537 0
M  V30 23802 N 2183.15 1.01021 1.20965 0
M  V30 23803 C 2184.08 0.5953 2.25784 0
M  V30 23804 C 2185.06 -0.386477 1.65651 0
M  V30 23805 O 2186.25 -0.273315 1.92267 0
M  V30 23806 C 2183.38 -0.0736489 3.47222 0
M  V30 23807 C 2182.33 0.828449 4.19906 0
M  V30 23808 C 2181.66 0.0256242 5.34694 0
M  V30 23809 C 2182.96 2.13351 4.76737 0
M  V30 23810 H 2184.65 1.4715 2.60744 0
M  V30 23811 H 2182.2 0.70899 1.25337 0
M  V30 23812 H 2184.15 -0.375423 4.19724 0
M  V30 23813 H 2182.88 -0.984519 3.11408 0
M  V30 23814 H 2181.54 1.11413 3.4926 0
M  V30 23815 H 2181.18 -0.886697 4.95123 0
M  V30 23816 H 2180.88 0.626319 5.84253 0
M  V30 23817 H 2182.41 -0.269844 6.10003 0
M  V30 23818 H 2183.82 1.89453 5.41092 0
M  V30 23819 H 2182.22 2.68451 5.36707 0
M  V30 23820 H 2183.29 2.80081 3.95832 0
M  V30 23821 N 2184.63 -1.36623 0.78561 0
M  V30 23822 C 2185.59 -2.28433 0.187388 0
M  V30 23823 C 2186.59 -1.48655 -0.613055 0
M  V30 23824 O 2187.78 -1.68691 -0.434608 0
M  V30 23825 C 2184.92 -3.32746 -0.741121 0
M  V30 23826 H 2186.11 -2.82847 0.996872 0
M  V30 23827 H 2183.66 -1.46123 0.554769 0
M  V30 23828 H 2184.4 -2.83481 -1.57509 0
M  V30 23829 H 2184.18 -3.91735 -0.169144 0
M  V30 23830 H 2185.67 -4.01319 -1.15467 0
M  V30 23831 N 2186.11 -0.537304 -1.48158 0
M  V30 23832 C 2187.36 -0.00587084 -2.02099 0
M  V30 23833 C 2187.68 1.3407 -1.41599 0
M  V30 23834 O 2186.95 1.86993 -0.583977 0
M  V30 23835 H 2185.53 0.000818022 -0.747 0
M  V30 23836 H 2188.19 -0.702798 -1.81788 0
M  V30 23837 H 2187.29 0.0970321 -3.11949 0
M  V30 23838 N 2187.59 1.55221 -0.272782 0
M  V30 23839 C 2188.84 1.99545 0.344667 0
M  V30 23840 C 2189.16 1.16117 1.56036 0
M  V30 23841 O 2188.42 0.218255 1.94479 0
M  V30 23842 C 2188.72 3.48938 0.773111 0
M  V30 23843 C 2188.38 4.49634 -0.337684 0
M  V30 23844 C 2187.05 4.76889 -0.642695 0
M  V30 23845 C 2189.4 5.09754 -1.0863 0
M  V30 23846 C 2186.73 5.61533 -1.69994 0
M  V30 23847 C 2189.08 5.95546 -2.13325 0
M  V30 23848 C 2187.74 6.21123 -2.44463 0
M  V30 23849 H 2187.01 0.730188 0.126123 0
M  V30 23850 H 2189.66 1.87569 -0.386008 0
M  V30 23851 H 2187.96 3.58378 1.58342 0
M  V30 23852 H 2189.66 3.80639 1.26156 0
M  V30 23853 H 2186.25 4.28506 -0.0898333 0
M  V30 23854 H 2190.43 4.88723 -0.863909 0
M  V30 23855 H 2185.69 5.79596 -1.94623 0
M  V30 23856 H 2189.86 6.41166 -2.71807 0
M  V30 23857 H 2187.49 6.86504 -3.26521 0
M  V30 23858 N 2189.07 2.77022e-05 1.576 0
M  V30 23859 C 2190.29 -0.695799 1.94849 0
M  V30 23860 C 2190.71 -1.67306 0.874875 0
M  V30 23861 O 2190.07 -1.81914 -0.146183 0
M  V30 23862 C 2190.12 -1.42764 3.32115 0
M  V30 23863 O 2189.84 -0.48957 4.35356 0
M  V30 23864 C 2191.34 -2.21797 3.83824 0
M  V30 23865 H 2188.56 -0.193791 0.642407 0
M  V30 23866 H 2191.1 0.0511556 2.04436 0
M  V30 23867 H 2189.26 -2.12623 3.23837 0
M  V30 23868 H 2189.67 -1.00592 5.14764 0
M  V30 23869 H 2191.15 -2.68501 4.82298 0
M  V30 23870 H 2191.62 -3.04473 3.16532 0
M  V30 23871 H 2192.23 -1.56955 3.95279 0
M  V30 23872 N 2190.54 -1.55222 -0.272728 0
M  V30 23873 C 2191.82 -1.66557 -1.02559 0
M  V30 23874 C 2192.2 -0.532225 -2.04281 0
M  V30 23875 O 2191.55 0.467678 -2.23663 0
M  V30 23876 C 2191.76 -3.05785 -1.68215 0
M  V30 23877 C 2193.11 -3.63543 -2.19367 0
M  V30 23878 O 2194.13 -3.0842 -1.78201 0
M  V30 23879 O 2192.99 -4.60121 -2.94875 0
M  V30 23880 H 2190.08 -0.67646 -0.475743 0
M  V30 23881 H 2192.63 -1.67561 -0.268564 0
M  V30 23882 H 2191.4 -3.79716 -0.945046 0
M  V30 23883 H 2191.03 -3.08681 -2.50603 0
M  V30 23884 N 2192.02 0.537252 -1.4816 0
M  V30 23885 C 2193.26 1.30403 -1.57399 0
M  V30 23886 C 2193.63 1.90504 -0.239236 0
M  V30 23887 O 2194.83 2.68005 -0.206575 0
M  V30 23888 C 2193.1 2.3697 -2.67545 0
M  V30 23889 S 2194.66 3.23469 -2.96501 0
M  V30 23890 H 2191.48 0.443674 -0.555584 0
M  V30 23891 H 2194.08 0.61288 -1.85645 0
M  V30 23892 H 2192.78 1.91285 -3.63096 0
M  V30 23893 H 2192.31 3.10801 -2.41177 0
M  V30 23894 H 2194.33 4.36893 -2.35242 0
M  V30 23895 N 2193.5 1.36626 0.785562 0
M  V30 23896 C 2194.45 1.27793 1.8882 0
M  V30 23897 C 2195.43 0.168607 1.60014 0
M  V30 23898 O 2196.63 0.401767 1.7238 0
M  V30 23899 C 2193.76 1.07333 3.2609 0
M  V30 23900 C 2192.84 2.22749 3.60893 0
M  V30 23901 N 2193.23 3.48083 3.66976 0
M  V30 23902 C 2191.53 2.14599 3.90977 0
M  V30 23903 C 2192.23 4.24108 3.98129 0
M  V30 23904 N 2191.21 3.53091 4.13313 0
M  V30 23905 H 2195.01 2.22727 1.91755 0
M  V30 23906 H 2192.52 1.29401 0.981288 0
M  V30 23907 H 2194.52 0.990913 4.04952 0
M  V30 23908 H 2193.18 0.133034 3.24427 0
M  V30 23909 H 2194.19 3.82169 3.49525 0
M  V30 23910 H 2190.87 1.28547 3.97218 0
M  V30 23911 H 2192.26 5.32516 4.09727 0
M  V30 23912 N 2194.98 -1.01016 1.20969 0
M  V30 23913 C 2196.39 -1.27051 0.965927 0
M  V30 23914 C 2196.59 -1.98424 -0.35075 0
M  V30 23915 O 2195.65 -2.28346 -1.07769 0
M  V30 23916 C 2196.96 -2.09922 2.15298 0
M  V30 23917 C 2198.51 -2.23167 2.19467 0
M  V30 23918 C 2198.99 -3.09418 3.37675 0
M  V30 23919 N 2200.48 -3.17006 3.3773 0
M  V30 23920 C 2201.21 -3.83986 4.25843 0
M  V30 23921 N 2200.71 -4.53037 5.24146 0
M  V30 23922 N 2202.5 -3.80574 4.13666 0
M  V30 23923 H 2194.65 -0.531158 2.05651 0
M  V30 23924 H 2196.92 -0.29709 0.900245 0
M  V30 23925 H 2196.62 -1.64823 3.10687 0
M  V30 23926 H 2196.5 -3.10668 2.13928 0
M  V30 23927 H 2198.88 -2.67488 1.24636 0
M  V30 23928 H 2198.96 -1.21908 2.24882 0
M  V30 23929 H 2198.61 -2.65801 4.32796 0
M  V30 23930 H 2198.54 -4.10778 3.29498 0
M  V30 23931 H 2201.03 -2.67845 2.66585 0
M  V30 23932 H 2201.34 -5.01834 5.87693 0
M  V30 23933 H 2199.69 -4.51841 5.28076 0
M  V30 23934 H 2202.88 -3.25779 3.36133 0
M  V30 23935 H 2203.05 -4.32497 4.82546 0
M  V30 23936 N 2196.46 -1.01661 -1.20428 0
M  V30 23937 C 2197.68 -0.725166 -1.93776 0
M  V30 23938 C 2198.1 0.714135 -1.74773 0
M  V30 23939 O 2197.46 1.48438 -1.06171 0
M  V30 23940 C 2197.51 -1.05136 -3.45874 0
M  V30 23941 O 2197.23 -2.43412 -3.64255 0
M  V30 23942 C 2198.73 -0.780967 -4.36367 0
M  V30 23943 H 2195.95 -0.266294 -0.615896 0
M  V30 23944 H 2198.49 -1.35779 -1.52919 0
M  V30 23945 H 2196.65 -0.464133 -3.8461 0
M  V30 23946 H 2197.06 -2.55177 -4.58241 0
M  V30 23947 H 2198.54 -1.05928 -5.41741 0
M  V30 23948 H 2199.01 0.28486 -4.38275 0
M  V30 23949 H 2199.62 -1.35034 -4.03294 0
M  V30 23950 N 2197.93 1.36205 -0.792844 0
M  V30 23951 C 2199.16 2.03931 -0.377737 0
M  V30 23952 C 2199.58 1.59384 0.998919 0
M  V30 23953 O 2198.94 0.763932 1.64419 0
M  V30 23954 C 2198.99 3.57734 -0.453698 0
M  V30 23955 O 2198.09 4.08875 0.538079 0
M  V30 23956 H 2197.44 0.644468 -0.159867 0
M  V30 23957 H 2199.97 1.74089 -1.07491 0
M  V30 23958 H 2199.98 4.06755 -0.318535 0
M  V30 23959 H 2198.65 3.8951 -1.45791 0
M  V30 23960 H 2197.23 3.71116 0.364294 0
M  V30 23961 N 2199.41 0.545154 1.47871 0
M  V30 23962 C 2200.66 0.0145388 2.01695 0
M  V30 23963 C 2200.97 -1.3387 1.42612 0
M  V30 23964 O 2202.18 -1.95854 1.88025 0
M  V30 23965 C 2200.64 -0.0244435 3.59892 0
M  V30 23966 C 2200.24 1.32482 4.27963 0
M  V30 23967 C 2201.99 -0.503086 4.21508 0
M  V30 23968 C 2199.9 1.2456 5.78134 0
M  V30 23969 H 2198.83 0.00166498 0.753998 0
M  V30 23970 H 2201.48 0.691205 1.69984 0
M  V30 23971 H 2199.86 -0.766507 3.88511 0
M  V30 23972 H 2201.03 2.08365 4.11 0
M  V30 23973 H 2199.35 1.74042 3.78283 0
M  V30 23974 H 2201.94 -0.580563 5.31539 0
M  V30 23975 H 2202.29 -1.51236 3.87858 0
M  V30 23976 H 2202.82 0.183751 3.97375 0
M  V30 23977 H 2199.56 2.2305 6.16384 0
M  V30 23978 H 2199.08 0.528387 5.97468 0
M  V30 23979 H 2200.76 0.9426 6.40097 0
M  V30 23980 N 2200.89 -1.55074 0.28101 0
M  V30 23981 C 2202.3 -1.85451 -0.215596 0
M  V30 23982 C 2202.65 -1.20303 -1.54989 0
M  V30 23983 O 2201.78 -0.493472 -2.10698 0
M  V30 23984 C 2202.37 -3.36455 -0.397967 0
M  V30 23985 C 2200.93 -3.66935 -0.838802 0
M  V30 23986 C 2200.08 -2.77225 0.0645067 0
M  V30 23987 H 2203.03 -1.5053 0.502627 0
M  V30 23988 H 2203.05 -3.59878 -1.23563 0
M  V30 23989 H 2202.56 -3.83842 0.573309 0
M  V30 23990 H 2200.66 -3.25051 -1.82134 0
M  V30 23991 H 2200.78 -4.74363 -0.67204 0
M  V30 23992 H 2199.14 -2.50642 -0.452819 0
M  V30 23993 H 2199.92 -3.27428 1.03177 0
M  V30 23994 N 2202.37 -0.00838561 -1.57598 0
M  V30 23995 C 2203.62 0.675698 -1.91212 0
M  V30 23996 C 2203.95 1.72956 -0.883169 0
M  V30 23997 O 2203.22 1.94258 0.0969819 0
M  V30 23998 C 2203.51 1.31117 -3.35381 0
M  V30 23999 C 2203.36 0.268278 -4.48999 0
M  V30 24000 C 2204.68 2.23502 -3.79124 0
M  V30 24001 H 2201.8 0.244167 -0.695379 0
M  V30 24002 H 2204.44 -0.0613989 -1.89901 0
M  V30 24003 H 2202.59 1.93941 -3.36629 0
M  V30 24004 H 2204.26 -0.360925 -4.59886 0
M  V30 24005 H 2202.5 -0.408557 -4.31872 0
M  V30 24006 H 2203.18 0.752122 -5.46852 0
M  V30 24007 H 2205.65 1.70686 -3.7948 0
M  V30 24008 H 2204.53 2.64927 -4.80734 0
M  V30 24009 H 2204.79 3.11761 -3.13461 0
M  V30 24010 N 2203.85 1.55365 0.264492 0
M  V30 24011 C 2204.8 1.85216 1.32962 0
M  V30 24012 C 2205.78 0.711678 1.44305 0
M  V30 24013 O 2206.97 0.973218 1.47843 0
M  V30 24014 C 2204.1 2.135 2.68836 0
M  V30 24015 C 2203.19 3.3383 2.61569 0
M  V30 24016 N 2203.58 4.53532 2.23925 0
M  V30 24017 C 2201.88 3.36589 2.92615 0
M  V30 24018 C 2202.58 5.3564 2.26858 0
M  V30 24019 N 2201.55 4.74259 2.65669 0
M  V30 24020 H 2205.36 2.75305 1.02879 0
M  V30 24021 H 2202.87 1.55355 0.473129 0
M  V30 24022 H 2204.87 2.33045 3.45681 0
M  V30 24023 H 2203.53 1.24699 2.998 0
M  V30 24024 H 2204.54 4.79477 1.9576 0
M  V30 24025 H 2201.22 2.58008 3.28235 0
M  V30 24026 H 2202.61 6.41368 2.00243 0
M  V30 24027 N 2205.33 -0.529387 1.48443 0
M  V30 24028 C 2206.55 -1.31468 1.60409 0
M  V30 24029 C 2206.98 -1.86227 0.264771 0
M  V30 24030 O 2206.33 -1.64433 -0.763639 0
M  V30 24031 C 2206.38 -2.44096 2.65423 0
M  V30 24032 O 2205.49 -3.47149 2.22624 0
M  V30 24033 H 2204.83 -0.389348 0.53787 0
M  V30 24034 H 2207.36 -0.636931 1.94433 0
M  V30 24035 H 2207.37 -2.90274 2.86715 0
M  V30 24036 H 2206.04 -2.03601 3.62656 0
M  V30 24037 H 2204.62 -3.07086 2.11548 0
M  V30 24038 N 2206.8 -1.37041 -0.778305 0
M  V30 24039 C 2207.75 -1.32272 -1.89137 0
M  V30 24040 C 2208.72 -0.189416 -1.65016 0
M  V30 24041 O 2209.91 -0.377726 -1.87024 0
M  V30 24042 C 2207.05 -1.129 -3.2611 0
M  V30 24043 C 2206.16 -2.35403 -3.62229 0
M  V30 24044 C 2205.29 -2.08954 -4.88376 0
M  V30 24045 C 2204.33 -3.27359 -5.17206 0
M  V30 24046 N 2203.47 -3.00504 -6.34541 0
M  V30 24047 H 2208.31 -2.2744 -1.92548 0
M  V30 24048 H 2205.85 -1.13027 -0.941453 0
M  V30 24049 H 2207.8 -0.996907 -4.05114 0
M  V30 24050 H 2206.43 -0.213815 -3.22091 0
M  V30 24051 H 2205.49 -2.59375 -2.7826 0
M  V30 24052 H 2206.8 -3.23728 -3.79476 0
M  V30 24053 H 2205.95 -1.92739 -5.75271 0
M  V30 24054 H 2204.69 -1.17957 -4.7322 0
M  V30 24055 H 2203.7 -3.4412 -4.2879 0
M  V30 24056 H 2204.92 -4.19198 -5.34275 0
M  V30 24057 H 2202.87 -2.12129 -6.20755 0
M  V30 24058 H 2202.78 -3.8237 -6.52173 0
M  V30 24059 H 2204.05 -2.87891 -7.24389 0
M  V30 24060 N 2208.28 1.00373 -1.21503 0
M  V30 24061 C 2209.21 2.09341 -0.933211 0
M  V30 24062 C 2210.23 1.62583 0.084061 0
M  V30 24063 O 2211.42 1.7788 -0.148594 0
M  V30 24064 C 2208.52 3.36764 -0.379928 0
M  V30 24065 C 2207.69 4.12602 -1.45184 0
M  V30 24066 C 2206.75 5.18314 -0.907567 0
M  V30 24067 O 2205.77 5.46504 -1.59129 0
M  V30 24068 N 2206.98 5.79841 0.276547 0
M  V30 24069 H 2209.74 2.34101 -1.87128 0
M  V30 24070 H 2207.3 1.16866 -1.12045 0
M  V30 24071 H 2209.29 4.047 -0.00138601 0
M  V30 24072 H 2207.86 3.09152 0.462994 0
M  V30 24073 H 2207.08 3.39451 -2.00417 0
M  V30 24074 H 2208.37 4.60046 -2.17336 0
M  V30 24075 H 2207.77 5.59292 0.849049 0
M  V30 24076 H 2206.33 6.49064 0.596588 0
M  V30 24077 N 2209.76 1.02298 1.19887 0
M  V30 24078 C 2210.72 0.60339 2.21115 0
M  V30 24079 C 2211.72 -0.329856 1.5738 0
M  V30 24080 O 2212.91 -0.117672 1.73802 0
M  V30 24081 C 2210.04 -0.117932 3.40696 0
M  V30 24082 H 2211.24 1.49898 2.59751 0
M  V30 24083 H 2208.79 0.813491 1.33462 0
M  V30 24084 H 2209.53 -1.02814 3.07571 0
M  V30 24085 H 2209.31 0.552579 3.88187 0
M  V30 24086 H 2210.8 -0.398623 4.15693 0
M  V30 24087 N 2211.24 -1.35782 0.800057 0
M  V30 24088 C 2212.15 -2.33683 0.207245 0
M  V30 24089 C 2213.16 -1.61552 -0.646282 0
M  V30 24090 O 2214.34 -1.9347 -0.55957 0
M  V30 24091 C 2211.4 -3.40749 -0.639599 0
M  V30 24092 C 2210.47 -4.28664 0.23366 0
M  V30 24093 C 2209.7 -5.30617 -0.572861 0
M  V30 24094 O 2209.92 -5.40986 -1.80806 0
M  V30 24095 O 2208.86 -6.01891 0.0328343 0
M  V30 24096 H 2212.68 -2.86167 1.01697 0
M  V30 24097 H 2210.27 -1.38438 0.561715 0
M  V30 24098 H 2212.15 -4.06184 -1.12216 0
M  V30 24099 H 2210.82 -2.90547 -1.42703 0
M  V30 24100 H 2209.73 -3.66232 0.763212 0
M  V30 24101 H 2211.06 -4.82246 0.984869 0
M  V30 24102 N 2212.72 -0.552988 -1.4758 0
M  V30 24103 C 2213.66 0.197067 -2.29957 0
M  V30 24104 C 2214.63 0.912335 -1.38801 0
M  V30 24105 O 2215.82 0.908859 -1.67763 0
M  V30 24106 C 2212.96 1.22373 -3.22674 0
M  V30 24107 C 2212.07 0.514963 -4.2892 0
M  V30 24108 C 2211.21 1.52655 -5.08792 0
M  V30 24109 C 2210.24 0.802524 -6.06816 0
M  V30 24110 N 2209.38 1.76074 -6.79663 0
M  V30 24111 H 2214.22 -0.511538 -2.93577 0
M  V30 24112 H 2211.76 -0.264093 -1.4471 0
M  V30 24113 H 2213.72 1.83152 -3.74848 0
M  V30 24114 H 2212.35 1.90042 -2.60929 0
M  V30 24115 H 2211.4 -0.207259 -3.79835 0
M  V30 24116 H 2212.71 -0.0524302 -4.98772 0
M  V30 24117 H 2211.86 2.20799 -5.65095 0
M  V30 24118 H 2210.6 2.12786 -4.38832 0
M  V30 24119 H 2209.61 0.107141 -5.49696 0
M  V30 24120 H 2210.83 0.207016 -6.78784 0
M  V30 24121 H 2208.78 2.35071 -6.12436 0
M  V30 24122 H 2208.7 1.24539 -7.45672 0
M  V30 24123 H 2209.96 2.43346 -7.40542 0
M  V30 24124 N 2214.19 1.54923 -0.28923 0
M  V30 24125 C 2215.44 1.99078 0.324196 0
M  V30 24126 C 2215.76 1.1812 1.55907 0
M  V30 24127 O 2216.96 1.52485 2.24635 0
M  V30 24128 C 2215.42 3.54376 0.628147 0
M  V30 24129 C 2215.03 4.44128 -0.587725 0
M  V30 24130 C 2216.77 4.07085 1.20342 0
M  V30 24131 C 2214.68 5.90839 -0.257578 0
M  V30 24132 H 2213.61 0.743581 0.124911 0
M  V30 24133 H 2216.26 1.79174 -0.396095 0
M  V30 24134 H 2214.64 3.70134 1.40772 0
M  V30 24135 H 2215.81 4.40142 -1.36426 0
M  V30 24136 H 2214.13 4.02129 -1.08081 0
M  V30 24137 H 2216.73 5.14254 1.46447 0
M  V30 24138 H 2217.07 3.56972 2.14189 0
M  V30 24139 H 2217.6 3.94822 0.48582 0
M  V30 24140 H 2214.34 6.45077 -1.1643 0
M  V30 24141 H 2213.86 5.97861 0.481912 0
M  V30 24142 H 2215.54 6.46837 0.145124 0
M  V30 24143 N 2215.67 0.0167433 1.57591 0
M  V30 24144 C 2216.9 -0.678685 1.95981 0
M  V30 24145 C 2217.32 -1.65574 0.892575 0
M  V30 24146 O 2216.68 -1.80697 -0.14774 0
M  V30 24147 C 2216.73 -1.37221 3.33471 0
M  V30 24148 O 2215.83 -2.48717 3.28959 0
M  V30 24149 H 2215.17 -0.179269 0.639342 0
M  V30 24150 H 2217.7 0.0749162 2.04463 0
M  V30 24151 H 2217.71 -1.73184 3.6942 0
M  V30 24152 H 2216.39 -0.655935 4.10695 0
M  V30 24153 H 2214.96 -2.14958 3.04709 0
M  V30 24154 N 2217.15 -1.55503 -0.256249 0
M  V30 24155 C 2218.57 -1.47717 -0.604299 0
M  V30 24156 C 2218.77 -0.705072 -1.88762 0
M  V30 24157 O 2217.82 -0.230657 -2.51444 0
M  V30 24158 C 2219.14 -2.92058 -0.715705 0
M  V30 24159 C 2220.68 -3.02374 -0.808653 0
M  V30 24160 C 2221.16 -4.48003 -0.951698 0
M  V30 24161 N 2222.65 -4.51902 -1.0168 0
M  V30 24162 C 2223.38 -5.61819 -1.14658 0
M  V30 24163 N 2222.88 -6.81567 -1.24249 0
M  V30 24164 N 2224.67 -5.49596 -1.17901 0
M  V30 24165 H 2216.82 -2.04147 0.586327 0
M  V30 24166 H 2219.09 -0.92644 0.201031 0
M  V30 24167 H 2218.79 -3.51349 0.157089 0
M  V30 24168 H 2218.67 -3.42021 -1.59065 0
M  V30 24169 H 2221.05 -2.43169 -1.6719 0
M  V30 24170 H 2221.14 -2.55637 0.0912512 0
M  V30 24171 H 2220.78 -5.07815 -0.0930398 0
M  V30 24172 H 2220.71 -4.92412 -1.8665 0
M  V30 24173 H 2223.2 -3.65649 -0.954404 0
M  V30 24174 H 2223.51 -7.61088 -1.34033 0
M  V30 24175 H 2221.86 -6.84346 -1.21224 0
M  V30 24176 H 2225.05 -4.5498 -1.10049 0
M  V30 24177 H 2225.22 -6.35299 -1.2767 0
M  V30 24178 N 2218.63 0.521507 -1.48721 0
M  V30 24179 C 2220.04 0.850831 -1.3503 0
M  V30 24180 C 2220.24 1.98116 -0.367746 0
M  V30 24181 O 2219.3 2.51642 0.207993 0
M  V30 24182 C 2220.61 1.21036 -2.75265 0
M  V30 24183 C 2222.16 1.31976 -2.83816 0
M  V30 24184 C 2222.64 1.71269 -4.24772 0
M  V30 24185 N 2224.13 1.78356 -4.27485 0
M  V30 24186 C 2224.86 2.10161 -5.33498 0
M  V30 24187 N 2224.36 2.40332 -6.49779 0
M  V30 24188 N 2226.15 2.11239 -5.20898 0
M  V30 24189 H 2218.3 -0.224167 -2.11214 0
M  V30 24190 H 2220.57 -0.0376605 -0.947252 0
M  V30 24191 H 2220.27 0.453354 -3.48766 0
M  V30 24192 H 2220.15 2.15858 -3.0933 0
M  V30 24193 H 2222.53 2.06752 -2.10565 0
M  V30 24194 H 2222.61 0.352552 -2.53359 0
M  V30 24195 H 2222.26 0.9705 -4.98542 0
M  V30 24196 H 2222.19 2.69054 -4.52678 0
M  V30 24197 H 2224.68 1.57282 -3.43614 0
M  V30 24198 H 2224.99 2.6373 -7.26406 0
M  V30 24199 H 2223.34 2.37833 -6.53039 0
M  V30 24200 H 2226.53 1.87131 -4.29068 0
M  V30 24201 H 2226.7 2.35694 -6.03616 0
M  V30 24202 N 2220.11 1.37452 0.771027 0
M  V30 24203 C 2221.52 1.29241 1.34735 0
M  V30 24204 C 2221.87 -0.0596564 1.96109 0
M  V30 24205 O 2220.99 -0.9615 1.93866 0
M  V30 24206 C 2221.59 2.34042 2.44969 0
M  V30 24207 C 2220.15 2.29463 2.98368 0
M  V30 24208 C 2219.29 2.17834 1.71592 0
M  V30 24209 H 2222.25 1.48063 0.57123 0
M  V30 24210 H 2222.27 1.98749 3.24467 0
M  V30 24211 H 2221.78 3.32436 2.0027 0
M  V30 24212 H 2219.88 1.34595 3.4744 0
M  V30 24213 H 2219.99 3.22906 3.53933 0
M  V30 24214 H 2218.36 1.64392 1.94544 0
M  V30 24215 H 2219.14 3.18143 1.28995 0
M  V30 24216 N 2221.58 -0.997276 1.22033 0
M  V30 24217 C 2222.81 -1.77713 1.06924 0
M  V30 24218 C 2223.23 -1.843 -0.376193 0
M  V30 24219 O 2222.59 -1.29226 -1.27163 0
M  V30 24220 C 2222.64 -3.19073 1.68002 0
M  V30 24221 O 2221.74 -4.0176 0.930723 0
M  V30 24222 H 2221.09 -0.547405 0.375824 0
M  V30 24223 H 2223.62 -1.25306 1.61739 0
M  V30 24224 H 2223.63 -3.6972 1.72544 0
M  V30 24225 H 2222.3 -3.13594 2.73188 0
M  V30 24226 H 2220.88 -3.60305 0.96098 0
M  V30 24227 N 2223.06 -1.02932 -1.19343 0
M  V30 24228 C 2224.29 -0.745678 -1.92995 0
M  V30 24229 C 2224.71 0.695558 -1.7552 0
M  V30 24230 O 2224.06 1.47304 -1.0774 0
M  V30 24231 C 2224.11 -1.08798 -3.44739 0
M  V30 24232 O 2223.83 -2.47262 -3.61653 0
M  V30 24233 C 2225.34 -0.827206 -4.35514 0
M  V30 24234 H 2222.56 -0.272812 -0.613037 0
M  V30 24235 H 2225.1 -1.37393 -1.51471 0
M  V30 24236 H 2223.25 -0.504899 -3.84096 0
M  V30 24237 H 2223.67 -2.60023 -4.55509 0
M  V30 24238 H 2225.14 -1.11668 -5.40587 0
M  V30 24239 H 2225.62 0.238359 -4.38553 0
M  V30 24240 H 2226.23 -1.39304 -4.01839 0
M  V30 24241 N 2224.54 1.35356 -0.807246 0
M  V30 24242 C 2225.45 2.3357 -0.219635 0
M  V30 24243 C 2226.47 1.61893 0.637705 0
M  V30 24244 O 2227.64 1.93764 0.549302 0
M  V30 24245 C 2224.71 3.41084 0.62152 0
M  V30 24246 C 2223.77 4.28534 -0.25639 0
M  V30 24247 C 2223 5.30913 0.544713 0
M  V30 24248 O 2223.22 5.41937 1.77935 0
M  V30 24249 O 2222.16 6.01865 -0.0647536 0
M  V30 24250 H 2225.98 2.85624 -1.03213 0
M  V30 24251 H 2223.57 1.38138 -0.569049 0
M  V30 24252 H 2225.45 4.06774 1.1006 0
M  V30 24253 H 2224.13 2.913 1.4116 0
M  V30 24254 H 2223.03 3.65822 -0.782623 0
M  V30 24255 H 2224.37 4.81717 -1.01043 0
M  V30 24256 N 2226.02 0.560807 1.47284 0
M  V30 24257 C 2227.3 -0.0277455 1.9558 0
M  V30 24258 C 2227.68 -1.4819 1.50343 0
M  V30 24259 O 2227.02 -2.16051 0.74392 0
M  V30 24260 C 2227.23 0.121479 3.48789 0
M  V30 24261 C 2228.58 -0.0220166 4.24594 0
M  V30 24262 O 2229.61 0.0492065 3.56166 0
M  V30 24263 O 2228.46 -0.175862 5.46217 0
M  V30 24264 H 2225.56 -0.0621197 0.824664 0
M  V30 24265 H 2228.1 0.627584 1.57669 0
M  V30 24266 H 2226.88 1.13323 3.74531 0
M  V30 24267 H 2226.5 -0.571296 3.93474 0
M  V30 24268 N 2227.5 -1.54768 0.297442 0
M  V30 24269 C 2228.72 -2.04479 -0.315587 0
M  V30 24270 C 2229.14 -1.17489 -1.4779 0
M  V30 24271 O 2228.5 -0.199742 -1.81404 0
M  V30 24272 C 2228.55 -3.5309 -0.775238 0
M  V30 24273 O 2228.27 -4.36772 0.340808 0
M  V30 24274 C 2229.77 -4.18784 -1.45379 0
M  V30 24275 H 2226.99 -0.667435 -0.0690769 0
M  V30 24276 H 2229.53 -1.99797 0.436038 0
M  V30 24277 H 2227.69 -3.58143 -1.47689 0
M  V30 24278 H 2228.1 -5.24497 -0.0164113 0
M  V30 24279 H 2229.58 -5.24302 -1.7266 0
M  V30 24280 H 2230.05 -3.68303 -2.39268 0
M  V30 24281 H 2230.66 -4.17796 -0.795401 0
M  V30 24282 N 2228.97 -0.0251005 -1.5758 0
M  V30 24283 C 2229.92 0.967164 -2.0647 0
M  V30 24284 C 2230.91 1.28795 -0.964399 0
M  V30 24285 O 2232.1 1.27473 -1.22799 0
M  V30 24286 C 2229.23 2.25092 -2.59207 0
M  V30 24287 C 2228.32 1.95868 -3.7616 0
M  V30 24288 N 2228.71 1.36897 -4.86922 0
M  V30 24289 C 2227 2.2588 -3.8457 0
M  V30 24290 C 2227.71 1.24714 -5.68174 0
M  V30 24291 N 2226.68 1.74129 -5.14956 0
M  V30 24292 H 2230.48 0.506125 -2.89509 0
M  V30 24293 H 2228 0.180011 -1.61399 0
M  V30 24294 H 2229.99 2.97046 -2.92522 0
M  V30 24295 H 2228.65 2.71826 -1.77597 0
M  V30 24296 H 2229.67 1.0445 -5.07258 0
M  V30 24297 H 2226.34 2.75316 -3.13859 0
M  V30 24298 H 2227.73 0.791488 -6.67222 0
M  V30 24299 N 2230.45 1.55637 0.247999 0
M  V30 24300 C 2231.36 1.93356 1.32855 0
M  V30 24301 C 2232.38 0.833865 1.52718 0
M  V30 24302 O 2233.55 1.13516 1.66361 0
M  V30 24303 C 2230.62 2.21963 2.66333 0
M  V30 24304 C 2229.68 3.45358 2.55002 0
M  V30 24305 C 2228.91 3.72591 3.82115 0
M  V30 24306 O 2229.14 3.01915 4.83946 0
M  V30 24307 O 2228.07 4.66117 3.80813 0
M  V30 24308 H 2231.9 2.8539 1.03857 0
M  V30 24309 H 2229.48 1.42504 0.448661 0
M  V30 24310 H 2231.36 2.41676 3.45211 0
M  V30 24311 H 2230.04 1.33108 2.95066 0
M  V30 24312 H 2228.95 3.30954 1.74414 0
M  V30 24313 H 2230.28 4.34512 2.31215 0
M  V30 24314 N 2231.93 -0.513613 1.48996 0
M  V30 24315 C 2233.18 -1.27039 1.58079 0
M  V30 24316 C 2233.51 -1.92437 0.261059 0
M  V30 24317 O 2232.79 -1.80104 -0.734361 0
M  V30 24318 C 2233.07 -2.34714 2.73096 0
M  V30 24319 C 2232.92 -1.739 4.14824 0
M  V30 24320 C 2234.24 -3.3637 2.83802 0
M  V30 24321 H 2231.36 -0.460526 0.575399 0
M  V30 24322 H 2234 -0.570484 1.81233 0
M  V30 24323 H 2232.15 -2.94412 2.53484 0
M  V30 24324 H 2233.82 -1.18128 4.45919 0
M  V30 24325 H 2232.07 -1.04362 4.21059 0
M  V30 24326 H 2232.74 -2.5194 4.91152 0
M  V30 24327 H 2235.21 -2.86648 3.01616 0
M  V30 24328 H 2234.09 -4.09086 3.65978 0
M  V30 24329 H 2234.35 -3.97927 1.92631 0
M  V30 24330 N 2233.41 -1.37859 -0.763727 0
M  V30 24331 C 2234.69 -1.24037 -1.51242 0
M  V30 24332 C 2235.07 0.162612 -2.10473 0
M  V30 24333 O 2234.41 1.17109 -1.96208 0
M  V30 24334 C 2234.62 -2.34266 -2.5869 0
M  V30 24335 C 2235.97 -2.72199 -3.25873 0
M  V30 24336 O 2237 -2.33502 -2.68989 0
M  V30 24337 O 2235.86 -3.38894 -4.28734 0
M  V30 24338 H 2232.95 -0.484474 -0.670234 0
M  V30 24339 H 2235.5 -1.4966 -0.800005 0
M  V30 24340 H 2234.27 -3.28184 -2.13099 0
M  V30 24341 H 2233.89 -2.10152 -3.37523 0
M  V30 24342 N 2234.89 0.990791 -1.22561 0
M  V30 24343 C 2236.11 1.77144 -1.07865 0
M  V30 24344 C 2236.54 1.84497 0.366414 0
M  V30 24345 O 2235.9 1.29898 1.26476 0
M  V30 24346 C 2235.94 3.18178 -1.69691 0
M  V30 24347 O 2235.05 4.01261 -0.952017 0
M  V30 24348 H 2234.39 0.545404 -0.378722 0
M  V30 24349 H 2236.92 1.24447 -1.62401 0
M  V30 24350 H 2236.93 3.68799 -1.74502 0
M  V30 24351 H 2235.6 3.12141 -2.74847 0
M  V30 24352 H 2234.18 3.5979 -0.980075 0
M  V30 24353 N 2236.37 1.03564 1.18795 0
M  V30 24354 C 2237.31 0.622298 2.22252 0
M  V30 24355 C 2238.28 -0.367332 1.61987 0
M  V30 24356 O 2239.47 -0.262459 1.88986 0
M  V30 24357 C 2236.61 -0.0137855 3.45097 0
M  V30 24358 C 2235.72 1.0227 4.1972 0
M  V30 24359 C 2234.86 0.355666 5.30008 0
M  V30 24360 C 2233.89 1.3776 5.96396 0
M  V30 24361 N 2233.03 0.735888 6.98233 0
M  V30 24362 H 2237.87 1.50907 2.56965 0
M  V30 24363 H 2235.41 0.755039 1.26244 0
M  V30 24364 H 2237.37 -0.399875 4.15279 0
M  V30 24365 H 2236 -0.864103 3.11019 0
M  V30 24366 H 2235.05 1.52679 3.48415 0
M  V30 24367 H 2236.36 1.79911 4.65224 0
M  V30 24368 H 2235.51 -0.0849028 6.06641 0
M  V30 24369 H 2234.25 -0.452882 4.85593 0
M  V30 24370 H 2233.26 1.82836 5.18509 0
M  V30 24371 H 2234.48 2.18776 6.42895 0
M  V30 24372 H 2232.43 -0.0524444 6.55979 0
M  V30 24373 H 2232.35 1.45008 7.41963 0
M  V30 24374 H 2233.61 0.319547 7.78845 0
M  V30 24375 N 2237.84 -1.34926 0.814413 0
M  V30 24376 C 2238.81 -2.27984 0.235799 0
M  V30 24377 C 2239.81 -1.49922 -0.581385 0
M  V30 24378 O 2241 -1.69575 -0.398728 0
M  V30 24379 C 2238.13 -3.34244 -0.670374 0
M  V30 24380 H 2239.32 -2.80669 1.05664 0
M  V30 24381 H 2236.87 -1.44914 0.585639 0
M  V30 24382 H 2237.61 -2.86758 -1.51461 0
M  V30 24383 H 2237.39 -3.92006 -0.0860133 0
M  V30 24384 H 2238.88 -4.03678 -1.06928 0
M  V30 24385 N 2239.32 -0.56861 -1.46985 0
M  V30 24386 C 2240.28 0.162326 -2.28624 0
M  V30 24387 C 2241.28 0.832078 -1.37598 0
M  V30 24388 O 2242.47 0.686192 -1.60116 0
M  V30 24389 C 2239.61 1.23873 -3.17598 0
M  V30 24390 H 2240.8 -0.554951 -2.94721 0
M  V30 24391 H 2238.35 -0.326003 -1.52862 0
M  V30 24392 H 2239.09 1.98804 -2.56218 0
M  V30 24393 H 2238.87 0.763151 -3.84602 0
M  V30 24394 H 2240.36 1.75178 -3.79081 0
M  V30 24395 N 2240.8 1.54608 -0.305646 0
M  V30 24396 C 2241.73 2.2665 0.561442 0
M  V30 24397 C 2242.71 1.26774 1.13412 0
M  V30 24398 O 2243.9 1.55555 1.1626 0
M  V30 24399 C 2241.03 3.01078 1.73116 0
M  V30 24400 C 2239.98 4.0814 1.28863 0
M  V30 24401 C 2239.31 4.70309 2.54388 0
M  V30 24402 C 2240.61 5.20637 0.416487 0
M  V30 24403 H 2242.3 2.99374 -0.0394428 0
M  V30 24404 H 2239.85 1.43986 -0.0204103 0
M  V30 24405 H 2241.8 3.50199 2.34389 0
M  V30 24406 H 2240.52 2.2594 2.35836 0
M  V30 24407 H 2239.18 3.59876 0.698928 0
M  V30 24408 H 2238.83 3.91806 3.15432 0
M  V30 24409 H 2238.53 5.42618 2.25476 0
M  V30 24410 H 2240.05 5.22196 3.16455 0
M  V30 24411 H 2241.47 5.65624 0.935017 0
M  V30 24412 H 2239.86 5.99693 0.220941 0
M  V30 24413 H 2240.93 4.81687 -0.557246 0
M  V30 24414 N 2242.28 0.033457 1.57564 0
M  V30 24415 C 2243.53 -0.643605 1.91156 0
M  V30 24416 C 2243.84 -1.7304 0.91195 0
M  V30 24417 O 2245.05 -2.4644 1.13927 0
M  V30 24418 C 2243.5 -1.19604 3.39445 0
M  V30 24419 C 2243.11 -0.142303 4.47774 0
M  V30 24420 C 2244.85 -1.84937 3.82098 0
M  V30 24421 C 2242.76 -0.706624 5.87163 0
M  V30 24422 H 2241.69 -0.244164 0.713372 0
M  V30 24423 H 2244.34 0.0994645 1.8323 0
M  V30 24424 H 2242.72 -1.99086 3.42317 0
M  V30 24425 H 2243.9 0.630376 4.56468 0
M  V30 24426 H 2242.21 0.412519 4.14352 0
M  V30 24427 H 2244.81 -2.28122 4.83595 0
M  V30 24428 H 2245.15 -2.69386 3.17391 0
M  V30 24429 H 2245.69 -1.12138 3.81667 0
M  V30 24430 H 2242.42 0.099833 6.55424 0
M  V30 24431 H 2241.94 -1.44769 5.82067 0
M  V30 24432 H 2243.62 -1.19503 6.35868 0
M  V30 24433 N 2243.76 -1.55766 -0.239741 0
M  V30 24434 C 2245.17 -1.68299 -0.808234 0
M  V30 24435 C 2245.52 -0.632214 -1.85735 0
M  V30 24436 O 2244.64 0.220166 -2.15277 0
M  V30 24437 C 2245.24 -3.05114 -1.47279 0
M  V30 24438 C 2243.8 -3.19562 -1.98889 0
M  V30 24439 C 2242.94 -2.64191 -0.842528 0
M  V30 24440 H 2245.89 -1.58693 -0.0154143 0
M  V30 24441 H 2245.92 -2.99958 -2.34106 0
M  V30 24442 H 2245.43 -3.81569 -0.708986 0
M  V30 24443 H 2243.53 -2.47943 -2.78128 0
M  V30 24444 H 2243.64 -4.2656 -2.18136 0
M  V30 24445 H 2242.01 -2.22199 -1.24497 0
M  V30 24446 H 2242.79 -3.43178 -0.0916949 0
M  V30 24447 N 2245.23 0.505704 -1.49266 0
M  V30 24448 C 2246.51 1.26704 -1.49015 0
M  V30 24449 C 2246.89 2.1 -0.215242 0
M  V30 24450 O 2246.24 2.13944 0.802509 0
M  V30 24451 C 2246.45 2.12778 -2.76634 0
M  V30 24452 C 2247.8 2.72122 -3.25937 0
M  V30 24453 O 2248.82 2.23049 -2.77719 0
M  V30 24454 O 2247.68 3.61444 -4.09903 0
M  V30 24455 H 2244.77 0.57312 -0.596207 0
M  V30 24456 H 2247.32 0.520361 -1.61525 0
M  V30 24457 H 2246.09 1.51174 -3.60919 0
M  V30 24458 H 2245.71 2.94648 -2.66961 0
M  V30 24459 N 2246.71 1.38262 0.756405 0
M  V30 24460 C 2247.96 1.35519 1.51677 0
M  V30 24461 C 2248.31 -0.0554113 1.9232 0
M  V30 24462 O 2247.61 -1.01743 1.62354 0
M  V30 24463 C 2247.8 2.24229 2.78309 0
M  V30 24464 C 2247.63 3.73774 2.50046 0
M  V30 24465 C 2246.4 4.42811 2.43406 0
M  V30 24466 C 2248.6 4.66273 2.17011 0
M  V30 24467 N 2246.58 5.77809 2.07388 0
M  V30 24468 C 2247.95 5.89762 1.91261 0
M  V30 24469 C 2250.01 4.54505 2.03297 0
M  V30 24470 C 2248.71 7.028 1.5318 0
M  V30 24471 C 2250.73 5.67444 1.66617 0
M  V30 24472 C 2250.1 6.89993 1.41737 0
M  V30 24473 H 2246.2 0.551184 0.554725 0
M  V30 24474 H 2248.78 1.73624 0.881076 0
M  V30 24475 H 2246.95 1.88317 3.39693 0
M  V30 24476 H 2248.68 2.12633 3.44339 0
M  V30 24477 H 2245.44 3.95993 2.59782 0
M  V30 24478 H 2245.86 6.49194 1.92032 0
M  V30 24479 H 2250.5 3.60315 2.21209 0
M  V30 24480 H 2248.22 7.96911 1.34008 0
M  V30 24481 H 2251.81 5.60316 1.56642 0
M  V30 24482 H 2250.69 7.75902 1.13777 0
M  V30 24483 N 2248.19 -0.984277 1.23084 0
M  V30 24484 C 2249.12 -2.09409 1.03296 0
M  V30 24485 C 2250.1 -1.7003 -0.0488931 0
M  V30 24486 O 2251.29 -1.93859 0.115001 0
M  V30 24487 C 2248.42 -3.41735 0.619215 0
M  V30 24488 C 2247.37 -3.95001 1.64798 0
M  V30 24489 C 2246.7 -5.23476 1.08979 0
M  V30 24490 C 2248 -4.24708 3.04007 0
M  V30 24491 H 2249.69 -2.26222 1.96123 0
M  V30 24492 H 2247.24 -1.0871 0.944363 0
M  V30 24493 H 2249.19 -4.18795 0.467851 0
M  V30 24494 H 2247.91 -3.24776 -0.344729 0
M  V30 24495 H 2246.57 -3.20082 1.78726 0
M  V30 24496 H 2246.22 -5.02864 0.116948 0
M  V30 24497 H 2245.92 -5.60082 1.77714 0
M  V30 24498 H 2247.44 -6.03161 0.950199 0
M  V30 24499 H 2248.86 -4.92532 2.93402 0
M  V30 24500 H 2247.26 -4.72506 3.69944 0
M  V30 24501 H 2248.33 -3.32135 3.5329 0
M  V30 24502 N 2249.67 -1.04192 -1.18244 0
M  V30 24503 C 2250.6 -0.592127 -2.21419 0
M  V30 24504 C 2251.61 0.338881 -1.59234 0
M  V30 24505 O 2252.8 0.1332 -1.78002 0
M  V30 24506 C 2249.9 0.154794 -3.38546 0
M  V30 24507 C 2249.08 -0.784403 -4.30309 0
M  V30 24508 C 2248.13 -0.0805508 -5.26138 0
M  V30 24509 O 2247.16 -0.711391 -5.64737 0
M  V30 24510 N 2248.36 1.18564 -5.68263 0
M  V30 24511 H 2251.13 -1.47954 -2.60633 0
M  V30 24512 H 2248.69 -0.922568 -1.33042 0
M  V30 24513 H 2250.68 0.635535 -3.99679 0
M  V30 24514 H 2249.25 0.943758 -2.98013 0
M  V30 24515 H 2248.47 -1.44498 -3.66762 0
M  V30 24516 H 2249.76 -1.42227 -4.88517 0
M  V30 24517 H 2249.16 1.71867 -5.3896 0
M  V30 24518 H 2247.71 1.61063 -6.31587 0
M  V30 24519 N 2251.15 1.34492 -0.821557 0
M  V30 24520 C 2252.42 1.92768 -0.331624 0
M  V30 24521 C 2252.8 1.74983 1.18085 0
M  V30 24522 O 2252.15 1.12775 1.98731 0
M  V30 24523 C 2252.36 3.40637 -0.759458 0
M  V30 24524 C 2253.71 4.17788 -0.757507 0
M  V30 24525 O 2254.73 3.49215 -0.701951 0
M  V30 24526 O 2253.59 5.40169 -0.829456 0
M  V30 24527 H 2250.69 0.822059 -0.0902646 0
M  V30 24528 H 2253.23 1.43475 -0.906256 0
M  V30 24529 H 2252 3.47376 -1.80126 0
M  V30 24530 H 2251.63 3.97276 -0.160447 0
M  V30 24531 N 2252.62 0.576397 1.46681 0
M  V30 24532 C 2254.04 0.23759 1.57822 0
M  V30 24533 C 2254.24 -1.26008 1.5724 0
M  V30 24534 O 2253.3 -2.04143 1.48599 0
M  V30 24535 C 2254.61 0.881218 2.87498 0
M  V30 24536 C 2256.16 0.854222 3.01118 0
M  V30 24537 C 2256.63 1.47727 4.33521 0
M  V30 24538 N 2258.12 1.44133 4.40204 0
M  V30 24539 C 2258.86 1.89286 5.41256 0
M  V30 24540 N 2258.35 2.42383 6.49017 0
M  V30 24541 N 2260.15 1.8024 5.32419 0
M  V30 24542 H 2252.3 1.54921 1.45304 0
M  V30 24543 H 2254.56 0.647179 0.692722 0
M  V30 24544 H 2254.27 1.93452 2.93716 0
M  V30 24545 H 2254.14 0.385658 3.75223 0
M  V30 24546 H 2256.53 -0.190439 2.94485 0
M  V30 24547 H 2256.61 1.38774 2.14885 0
M  V30 24548 H 2256.25 2.5211 4.40911 0
M  V30 24549 H 2256.18 0.919038 5.18518 0
M  V30 24550 H 2258.67 1.05314 3.62929 0
M  V30 24551 H 2258.99 2.7471 7.22325 0
M  V30 24552 H 2257.33 2.46405 6.49854 0
M  V30 24553 H 2260.52 1.38521 4.47135 0
M  V30 24554 H 2260.7 2.15746 6.1103 0
M  V30 24555 N 2254.1 -1.54444 0.313841 0
M  V30 24556 C 2255.51 -1.85867 -0.176211 0
M  V30 24557 C 2255.86 -1.23563 -1.52402 0
M  V30 24558 O 2254.99 -0.538053 -2.09604 0
M  V30 24559 C 2255.58 -3.37223 -0.32651 0
M  V30 24560 C 2254.14 -3.68631 -0.760781 0
M  V30 24561 C 2253.29 -2.77026 0.123296 0
M  V30 24562 H 2256.24 -1.4943 0.534444 0
M  V30 24563 H 2256.26 -3.62418 -1.15902 0
M  V30 24564 H 2255.77 -3.8254 0.654598 0
M  V30 24565 H 2253.88 -3.28841 -1.75198 0
M  V30 24566 H 2253.99 -4.75682 -0.571269 0
M  V30 24567 H 2252.35 -2.51547 -0.399552 0
M  V30 24568 H 2253.14 -3.25166 1.10099 0
M  V30 24569 N 2255.58 -0.0418125 -1.57545 0
M  V30 24570 C 2256.81 0.64742 -1.97036 0
M  V30 24571 C 2257.23 1.64133 -0.918803 0
M  V30 24572 O 2256.59 1.80909 0.118974 0
M  V30 24573 C 2256.64 1.31899 -3.35612 0
M  V30 24574 O 2255.74 2.43452 -3.32874 0
M  V30 24575 H 2255.08 0.169075 -0.642113 0
M  V30 24576 H 2257.61 -0.107435 -2.04318 0
M  V30 24577 H 2257.62 1.67284 -3.72129 0
M  V30 24578 H 2256.3 0.590514 -4.11686 0
M  V30 24579 H 2254.87 2.10083 -3.0809 0
M  V30 24580 N 2257.06 1.55891 0.231477 0
M  V30 24581 C 2258.01 1.92443 1.30646 0
M  V30 24582 C 2259 0.80528 1.49036 0
M  V30 24583 O 2260.21 0.990034 1.50327 0
M  V30 24584 H 2256.58 0.61142 0.437801 0
M  V30 24585 H 2258.55 2.82162 0.970923 0
M  V30 24586 C 2257.3 2.24894 2.65176 0
M  V30 24587 H 2256.62 3.10519 2.51829 0
M  V30 24588 H 2258.06 2.54361 3.39229 0
M  V30 24589 C 2256.52 1.0706 3.19437 0
M  V30 24590 O 2257.05 0.326569 4.0037 0
M  V30 24591 N 2255.26 0.857079 2.77673 0
M  V30 24592 H 2254.81 1.46383 2.11966 0
M  V30 24593 H 2254.76 0.0703775 3.14321 0
M  V30 24594 N 2258.54 -0.497781 1.49532 0
M  V30 24595 C 2259.95 -0.829242 1.36366 0
M  V30 24596 C 2260.15 -1.97506 0.399218 0
M  V30 24597 O 2259.21 -2.51941 -0.167933 0
M  V30 24598 C 2260.52 -1.16642 2.77155 0
M  V30 24599 C 2262.07 -1.27444 2.85879 0
M  V30 24600 C 2262.54 -1.64489 4.27443 0
M  V30 24601 N 2264.04 -1.71532 4.30268 0
M  V30 24602 C 2264.77 -2.01647 5.36774 0
M  V30 24603 N 2264.27 -2.29964 6.5352 0
M  V30 24604 N 2266.06 -2.02925 5.24193 0
M  V30 24605 H 2258.21 0.257741 2.1083 0
M  V30 24606 H 2260.47 0.0527257 0.946533 0
M  V30 24607 H 2260.18 -0.397811 3.49443 0
M  V30 24608 H 2260.05 -2.10909 3.12725 0
M  V30 24609 H 2262.44 -2.03376 2.13827 0
M  V30 24610 H 2262.52 -0.3122 2.53888 0
M  V30 24611 H 2262.17 -0.891063 5.00022 0
M  V30 24612 H 2262.1 -2.61819 4.56901 0
M  V30 24613 H 2264.59 -1.51796 3.46073 0
M  V30 24614 H 2264.9 -2.5214 7.3051 0
M  V30 24615 H 2263.24 -2.27414 6.56741 0
M  V30 24616 H 2266.44 -1.80281 4.31991 0
M  V30 24617 H 2266.61 -2.26061 6.0729 0
M  V30 24618 N 2260.01 -1.38661 -0.749062 0
M  V30 24619 C 2260.92 -1.38497 -1.89356 0
M  V30 24620 C 2261.94 -0.281506 -1.71708 0
M  V30 24621 O 2263.12 -0.520678 -1.94553 0
M  V30 24622 C 2260.18 -1.21322 -3.2478 0
M  V30 24623 C 2259.24 -2.41514 -3.54922 0
M  V30 24624 C 2258.48 -2.25148 -4.83884 0
M  V30 24625 O 2258.7 -1.24756 -5.5659 0
M  V30 24626 O 2257.63 -3.13835 -5.13606 0
M  V30 24627 H 2261.46 -2.34942 -1.92448 0
M  V30 24628 H 2259.04 -1.19628 -0.89496 0
M  V30 24629 H 2260.93 -1.13821 -4.05737 0
M  V30 24630 H 2259.6 -0.279649 -3.2249 0
M  V30 24631 H 2258.51 -2.5459 -2.74107 0
M  V30 24632 H 2259.84 -3.33516 -3.61977 0
M  V30 24633 N 2261.49 0.977736 -1.23605 0
M  V30 24634 C 2262.43 2.06894 -0.962808 0
M  V30 24635 C 2263.4 1.62293 0.0998458 0
M  V30 24636 O 2264.59 1.88468 -0.0349752 0
M  V30 24637 C 2261.72 3.35684 -0.451009 0
M  V30 24638 C 2260.76 3.99227 -1.50068 0
M  V30 24639 S 2261.59 4.38136 -3.07891 0
M  V30 24640 C 2262.75 5.70076 -2.58388 0
M  V30 24641 H 2262.98 2.29753 -1.88681 0
M  V30 24642 H 2260.52 1.11429 -1.06878 0
M  V30 24643 H 2262.47 4.10179 -0.162333 0
M  V30 24644 H 2261.14 3.10829 0.452124 0
M  V30 24645 H 2260.33 4.92011 -1.09277 0
M  V30 24646 H 2259.93 3.3112 -1.73884 0
M  V30 24647 H 2262.22 6.47129 -2.00574 0
M  V30 24648 H 2263.17 6.15711 -3.49722 0
M  V30 24649 H 2263.57 5.28203 -1.99152 0
M  V30 24650 N 2262.97 1.04818 1.1769 0
M  V30 24651 C 2264.38 0.782728 1.695 0
M  V30 24652 C 2264.73 -0.695545 1.83457 0
M  V30 24653 O 2263.86 -1.54084 1.51945 0
M  V30 24654 C 2264.45 1.41424 3.07871 0
M  V30 24655 C 2263.01 1.19693 3.56862 0
M  V30 24656 C 2262.16 1.50016 2.33218 0
M  V30 24657 H 2265.11 1.21362 1.0226 0
M  V30 24658 H 2265.13 0.821494 3.71526 0
M  V30 24659 H 2264.64 2.49014 2.97681 0
M  V30 24660 H 2262.74 0.140109 3.72336 0
M  V30 24661 H 2262.86 1.89924 4.39847 0
M  V30 24662 H 2261.22 0.920113 2.375 0
M  V30 24663 H 2262 2.58731 2.25639 0
M  V30 24664 N 2264.45 -1.34055 0.828678 0
M  V30 24665 C 2265.67 -2.02858 0.431673 0
M  V30 24666 C 2266.1 -1.61976 -0.95631 0
M  V30 24667 O 2265.46 -0.807256 -1.62336 0
M  V30 24668 C 2265.51 -3.56406 0.548385 0
M  V30 24669 O 2264.61 -4.10158 -0.429484 0
M  V30 24670 H 2263.95 -0.640003 0.176897 0
M  V30 24671 H 2266.48 -1.71177 1.12069 0
M  V30 24672 H 2266.49 -4.05767 0.426267 0
M  V30 24673 H 2265.17 -3.85507 1.56067 0
M  V30 24674 H 2263.74 -3.71952 -0.265771 0
M  V30 24675 N 2265.93 -0.584167 -1.46374 0
M  V30 24676 C 2266.84 0.150686 -2.34116 0
M  V30 24677 C 2267.85 0.884541 -1.4984 0
M  V30 24678 O 2269.03 0.847397 -1.82705 0
M  V30 24679 C 2266.09 1.15056 -3.27052 0
M  V30 24680 C 2265.16 0.421218 -4.27229 0
M  V30 24681 C 2264.39 1.37346 -5.15725 0
M  V30 24682 O 2264.61 2.61006 -5.07181 0
M  V30 24683 O 2263.55 0.88325 -5.95384 0
M  V30 24684 H 2267.37 -0.56976 -2.98308 0
M  V30 24685 H 2264.96 -0.34456 -1.45372 0
M  V30 24686 H 2266.84 1.72705 -3.84384 0
M  V30 24687 H 2265.51 1.85245 -2.65454 0
M  V30 24688 H 2264.42 -0.197151 -3.7358 0
M  V30 24689 H 2265.75 -0.239727 -4.91616 0
M  V30 24690 N 2267.41 1.54275 -0.322027 0
M  V30 24691 C 2268.32 2.27975 0.553591 0
M  V30 24692 C 2269.33 1.3227 1.13052 0
M  V30 24693 O 2270.51 1.65282 1.15081 0
M  V30 24694 C 2267.57 3.02204 1.69922 0
M  V30 24695 C 2266.63 4.13492 1.15426 0
M  V30 24696 C 2265.87 4.84172 2.24529 0
M  V30 24697 O 2266.09 4.54356 3.44844 0
M  V30 24698 O 2265.02 5.71114 1.90034 0
M  V30 24699 H 2268.85 3.03667 -0.0448878 0
M  V30 24700 H 2266.43 1.49142 -0.087768 0
M  V30 24701 H 2268.32 3.48694 2.36624 0
M  V30 24702 H 2266.99 2.29389 2.28391 0
M  V30 24703 H 2265.9 3.71355 0.452371 0
M  V30 24704 H 2267.23 4.88346 0.614719 0
M  V30 24705 N 2268.88 0.0501669 1.5752 0
M  V30 24706 C 2270.13 -0.622608 1.92271 0
M  V30 24707 C 2270.45 -1.71442 0.929113 0
M  V30 24708 O 2269.72 -1.95883 -0.0261842 0
M  V30 24709 H 2268.3 -0.232968 0.709743 0
M  V30 24710 H 2270.96 0.102932 1.94628 0
M  V30 24711 H 2270.06 -1.06186 2.93481 0
M  V30 24712 N 2270.36 -1.56011 -0.223207 0
M  V30 24713 C 2271.59 -1.83029 -0.96478 0
M  V30 24714 C 2272 -0.629072 -1.78012 0
M  V30 24715 O 2271.36 0.402382 -1.78009 0
M  V30 24716 C 2271.41 -3.08545 -1.88368 0
M  V30 24717 O 2271.13 -4.24032 -1.1013 0
M  V30 24718 C 2272.63 -3.48537 -2.73928 0
M  V30 24719 H 2269.85 -0.60848 -0.282831 0
M  V30 24720 H 2272.4 -2.03099 -0.238936 0
M  V30 24721 H 2270.55 -2.90455 -2.56349 0
M  V30 24722 H 2270.97 -4.95325 -1.72492 0
M  V30 24723 H 2272.44 -4.39403 -3.3411 0
M  V30 24724 H 2272.92 -2.70213 -3.46239 0
M  V30 24725 H 2273.52 -3.69061 -2.11362 0
M  V30 24726 N 2271.84 0.489844 -1.49794 0
M  V30 24727 C 2272.77 1.59853 -1.70203 0
M  V30 24728 C 2273.75 1.60936 -0.550789 0
M  V30 24729 O 2274.94 1.775 -0.787872 0
M  V30 24730 C 2272.07 2.98284 -1.77888 0
M  V30 24731 C 2271.02 3.12068 -2.92912 0
M  V30 24732 C 2270.35 4.5196 -2.8572 0
M  V30 24733 C 2271.65 2.91043 -4.33695 0
M  V30 24734 H 2273.34 1.43027 -2.63028 0
M  V30 24735 H 2270.89 0.686642 -1.26575 0
M  V30 24736 H 2272.84 3.75755 -1.90751 0
M  V30 24737 H 2271.56 3.16224 -0.816708 0
M  V30 24738 H 2270.22 2.37024 -2.79669 0
M  V30 24739 H 2269.87 4.66792 -1.87388 0
M  V30 24740 H 2269.57 4.62122 -3.62929 0
M  V30 24741 H 2271.09 5.31477 -3.00607 0
M  V30 24742 H 2272.51 3.58276 -4.47561 0
M  V30 24743 H 2270.9 3.12666 -5.12211 0
M  V30 24744 H 2271.97 1.87063 -4.47365 0
M  V30 24745 N 2273.32 1.39056 0.741698 0
M  V30 24746 C 2274.27 1.37374 1.877 0
M  V30 24747 C 2275.26 0.257841 1.67426 0
M  V30 24748 O 2276.47 0.427519 1.74849 0
M  V30 24749 H 2272.84 0.428823 0.61775 0
M  V30 24750 H 2274.81 2.3315 1.86235 0
M  V30 24751 C 2273.56 1.22747 3.25313 0
M  V30 24752 H 2272.88 2.07879 3.41506 0
M  V30 24753 H 2274.32 1.25626 4.04962 0
M  V30 24754 C 2272.78 -0.0646724 3.36838 0
M  V30 24755 O 2273.31 -1.03734 3.88075 0
M  V30 24756 N 2271.52 -0.125493 2.90329 0
M  V30 24757 H 2271.07 0.666726 2.48822 0
M  V30 24758 H 2271.02 -0.989587 2.9842 0
M  V30 24759 N 2274.8 -0.971167 1.24121 0
M  V30 24760 C 2276.04 -1.7103 1.07671 0
M  V30 24761 C 2276.36 -1.91146 -0.385764 0
M  V30 24762 O 2275.63 -1.48673 -1.27567 0
M  V30 24763 H 2274.21 -0.633748 0.39544 0
M  V30 24764 H 2276.88 -1.16852 1.55986 0
M  V30 24765 H 2275.97 -2.69619 1.572 0
M  V30 24766 N 2276.27 -1.05441 -1.17133 0
M  V30 24767 C 2277.2 -0.678688 -2.23419 0
M  V30 24768 C 2278.19 0.324731 -1.66972 0
M  V30 24769 O 2279.37 0.201768 -1.93149 0
M  V30 24770 C 2276.5 -0.055271 -3.47256 0
M  V30 24771 C 2275.45 -0.983723 -4.16542 0
M  V30 24772 C 2274.78 -0.224055 -5.3423 0
M  V30 24773 C 2276.08 -2.30898 -4.68491 0
M  V30 24774 H 2277.77 -1.56726 -2.55103 0
M  V30 24775 H 2275.32 -0.755019 -1.22619 0
M  V30 24776 H 2277.27 0.219386 -4.20829 0
M  V30 24777 H 2276 0.868264 -3.14847 0
M  V30 24778 H 2274.66 -1.24299 -3.44885 0
M  V30 24779 H 2274.3 0.702325 -4.98073 0
M  V30 24780 H 2274 -0.842729 -5.81525 0
M  V30 24781 H 2275.53 0.0432598 -6.10585 0
M  V30 24782 H 2276.94 -2.09405 -5.33688 0
M  V30 24783 H 2275.34 -2.88185 -5.26374 0
M  V30 24784 H 2276.41 -2.94579 -3.85164 0
M  V30 24785 N 2277.75 1.33613 -0.835776 0
M  V30 24786 C 2278.98 2.02093 -0.443379 0
M  V30 24787 C 2279.4 1.62895 0.954493 0
M  V30 24788 O 2278.75 0.840752 1.6198 0
M  V30 24789 C 2278.8 3.57279 -0.550838 0
M  V30 24790 O 2278.52 3.95061 -1.89363 0
M  V30 24791 C 2280.03 4.43029 -0.154997 0
M  V30 24792 H 2277.25 0.647406 -0.17637 0
M  V30 24793 H 2279.79 1.7061 -1.12749 0
M  V30 24794 H 2277.94 3.87306 0.0853316 0
M  V30 24795 H 2278.36 4.89766 -1.87696 0
M  V30 24796 H 2279.83 5.51283 -0.281241 0
M  V30 24797 H 2280.31 4.29821 0.902788 0
M  V30 24798 H 2280.92 4.18355 -0.765477 0
M  V30 24799 N 2279.23 0.591922 1.46062 0
M  V30 24800 C 2280.46 0.0850678 2.07225 0
M  V30 24801 C 2280.88 -1.21461 1.43628 0
M  V30 24802 O 2280.24 -1.73583 0.523336 0
M  V30 24803 C 2280.29 -0.0575933 3.60554 0
M  V30 24804 O 2279.39 -1.11181 3.9713 0
M  V30 24805 H 2278.73 0.0669684 0.660614 0
M  V30 24806 H 2281.26 0.817483 1.87559 0
M  V30 24807 H 2281.27 -0.260829 4.07165 0
M  V30 24808 H 2279.95 0.891488 4.06233 0
M  V30 24809 H 2278.52 -0.886292 3.62214 0
M  V30 24810 N 2280.71 -1.54102 0.330204 0
M  V30 24811 C 2282.12 -1.86043 -0.156487 0
M  V30 24812 C 2282.47 -1.25173 -1.51083 0
M  V30 24813 O 2281.6 -0.560254 -2.09022 0
M  V30 24814 C 2282.19 -3.3755 -0.290725 0
M  V30 24815 C 2280.75 -3.69418 -0.72164 0
M  V30 24816 C 2279.9 -2.76879 0.152671 0
M  V30 24817 H 2282.85 -1.48855 0.550263 0
M  V30 24818 H 2282.87 -3.63627 -1.12051 0
M  V30 24819 H 2282.38 -3.81824 0.695135 0
M  V30 24820 H 2280.48 -3.30681 -1.71701 0
M  V30 24821 H 2280.59 -4.76261 -0.520785 0
M  V30 24822 H 2278.96 -2.51956 -0.37285 0
M  V30 24823 H 2279.74 -3.2398 1.13542 0
M  V30 24824 N 2282.19 -0.0585199 -1.57491 0
M  V30 24825 C 2283.43 0.613615 -1.92979 0
M  V30 24826 C 2283.76 1.70415 -0.937491 0
M  V30 24827 O 2283.02 1.95639 0.0490436 0
M  V30 24828 C 2283.32 1.24182 -3.35132 0
M  V30 24829 C 2282.98 0.278747 -4.50038 0
M  V30 24830 C 2281.64 0.0137601 -4.81198 0
M  V30 24831 C 2284 -0.380868 -5.19807 0
M  V30 24832 C 2281.32 -0.918153 -5.79471 0
M  V30 24833 C 2283.68 -1.30102 -6.19077 0
M  V30 24834 C 2282.34 -1.57461 -6.48662 0
M  V30 24835 H 2281.61 0.224537 -0.706161 0
M  V30 24836 H 2284.26 -0.126567 -1.91081 0
M  V30 24837 H 2282.56 2.05743 -3.33432 0
M  V30 24838 H 2284.26 1.76894 -3.59874 0
M  V30 24839 H 2280.85 0.495464 -4.25727 0
M  V30 24840 H 2285.03 -0.189245 -4.95939 0
M  V30 24841 H 2280.29 -1.13751 -6.00725 0
M  V30 24842 H 2284.46 -1.81816 -6.72247 0
M  V30 24843 H 2282.09 -2.29834 -7.24624 0
M  V30 24844 N 2283.66 1.56128 0.21493 0
M  V30 24845 C 2284.61 1.92954 1.26639 0
M  V30 24846 C 2285.58 0.787555 1.46242 0
M  V30 24847 O 2286.77 1.04402 1.59702 0
M  V30 24848 C 2283.91 2.2573 2.61036 0
M  V30 24849 C 2283.02 3.52895 2.49177 0
M  V30 24850 C 2282.15 3.75087 3.76143 0
M  V30 24851 C 2281.19 4.95744 3.59033 0
M  V30 24852 N 2280.33 5.14291 4.77963 0
M  V30 24853 H 2285.17 2.82608 0.945334 0
M  V30 24854 H 2282.71 1.39871 0.455465 0
M  V30 24855 H 2284.67 2.42745 3.39309 0
M  V30 24856 H 2283.3 1.39241 2.91225 0
M  V30 24857 H 2282.35 3.44037 1.62304 0
M  V30 24858 H 2283.66 4.41322 2.32458 0
M  V30 24859 H 2282.81 3.92234 4.62858 0
M  V30 24860 H 2281.55 2.84954 3.95794 0
M  V30 24861 H 2280.56 4.7854 2.70701 0
M  V30 24862 H 2281.78 5.87368 3.40846 0
M  V30 24863 H 2279.73 4.27102 4.97916 0
M  V30 24864 H 2279.65 5.96862 4.63996 0
M  V30 24865 H 2280.91 5.35879 5.66086 0
M  V30 24866 N 2285.14 -0.481893 1.50052 0
M  V30 24867 C 2286.55 -1.06303 1.53482 0
M  V30 24868 C 2286.9 -1.9337 0.332031 0
M  V30 24869 O 2286.03 -2.0913 -0.556219 0
M  V30 24870 C 2286.62 -1.93461 2.78133 0
M  V30 24871 C 2285.18 -2.46702 2.8428 0
M  V30 24872 C 2284.33 -1.2478 2.47639 0
M  V30 24873 H 2287.28 -0.264968 1.56472 0
M  V30 24874 H 2287.3 -2.78395 2.59377 0
M  V30 24875 H 2286.81 -1.30065 3.65656 0
M  V30 24876 H 2284.92 -3.13682 2.01082 0
M  V30 24877 H 2285.03 -2.82548 3.86915 0
M  V30 24878 H 2283.39 -1.57915 1.99837 0
M  V30 24879 H 2284.18 -0.630634 3.37458 0
M  V30 24880 N 2286.62 -1.39448 -0.734313 0
M  V30 24881 C 2287.58 -1.37997 -1.83001 0
M  V30 24882 C 2288.58 -0.276966 -1.58397 0
M  V30 24883 O 2289.77 -0.534904 -1.65784 0
M  V30 24884 C 2286.91 -1.15325 -3.208 0
M  V30 24885 H 2288.1 -2.35498 -1.8569 0
M  V30 24886 H 2285.65 -1.25022 -0.938037 0
M  V30 24887 H 2286.39 -0.185093 -3.23771 0
M  V30 24888 H 2286.17 -1.95203 -3.40056 0
M  V30 24889 H 2287.66 -1.17053 -4.0086 0
M  V30 24890 N 2288.1 0.964571 -1.24635 0
M  V30 24891 C 2289.03 2.05861 -0.984698 0
M  V30 24892 C 2290.01 1.6239 0.0826268 0
M  V30 24893 O 2291.19 1.8842 -0.0549627 0
M  V30 24894 C 2288.32 3.35187 -0.486587 0
M  V30 24895 C 2287.37 3.97613 -1.54293 0
M  V30 24896 S 2288.2 4.34846 -3.12521 0
M  V30 24897 C 2289.36 5.67303 -2.6442 0
M  V30 24898 H 2289.59 2.27739 -1.91108 0
M  V30 24899 H 2287.12 1.10289 -1.08054 0
M  V30 24900 H 2289.08 4.09984 -0.205829 0
M  V30 24901 H 2287.74 3.11291 0.419131 0
M  V30 24902 H 2286.93 4.90824 -1.14489 0
M  V30 24903 H 2286.54 3.29257 -1.77386 0
M  V30 24904 H 2288.83 6.44965 -2.07427 0
M  V30 24905 H 2289.77 6.11967 -3.56233 0
M  V30 24906 H 2290.18 5.26061 -2.04743 0
M  V30 24907 N 2289.58 1.0606 1.16572 0
M  V30 24908 C 2290.85 0.689448 1.83046 0
M  V30 24909 C 2291.23 -0.829409 1.94124 0
M  V30 24910 O 2290.58 -1.73878 1.48252 0
M  V30 24911 C 2290.79 1.38864 3.20184 0
M  V30 24912 C 2292.14 1.53232 3.95986 0
M  V30 24913 O 2293.16 1.34836 3.29693 0
M  V30 24914 O 2292.02 1.83393 5.1481 0
M  V30 24915 H 2289.12 0.243778 0.790254 0
M  V30 24916 H 2291.66 1.16073 1.23795 0
M  V30 24917 H 2290.43 2.42445 3.07142 0
M  V30 24918 H 2290.06 0.907284 3.8711 0
M  V30 24919 N 2291.06 -1.33168 0.84285 0
M  V30 24920 C 2292.28 -2.01855 0.454091 0
M  V30 24921 C 2292.7 -1.63399 -0.945841 0
M  V30 24922 O 2292.06 -0.84933 -1.61532 0
M  V30 24923 C 2292.11 -3.56981 0.569777 0
M  V30 24924 O 2291.83 -3.94051 1.91455 0
M  V30 24925 C 2293.33 -4.42941 0.17849 0
M  V30 24926 H 2290.55 -0.646462 0.179801 0
M  V30 24927 H 2293.09 -1.7001 1.13653 0
M  V30 24928 H 2291.25 -3.87346 -0.0647906 0
M  V30 24929 H 2291.66 -4.88764 1.9029 0
M  V30 24930 H 2293.14 -5.51126 0.310473 0
M  V30 24931 H 2293.61 -4.30294 -0.879981 0
M  V30 24932 H 2294.22 -4.17943 0.787653 0
M  V30 24933 N 2292.53 -0.599659 -1.45746 0
M  V30 24934 C 2293.48 0.136386 -2.322 0
M  V30 24935 C 2294.48 0.867557 -1.45498 0
M  V30 24936 O 2295.68 0.784022 -1.62028 0
M  V30 24937 H 2292.06 0.0628457 -0.749369 0
M  V30 24938 H 2294.03 -0.611333 -2.92071 0
M  V30 24939 C 2292.78 1.12561 -3.28976 0
M  V30 24940 H 2292.1 0.572414 -3.95681 0
M  V30 24941 H 2293.54 1.6107 -3.92215 0
M  V30 24942 C 2292 2.19518 -2.55565 0
M  V30 24943 O 2292.53 3.27139 -2.33116 0
M  V30 24944 N 2290.73 1.94586 -2.15835 0
M  V30 24945 H 2290.28 1.07074 -2.34292 0
M  V30 24946 H 2290.24 2.66356 -1.67039 0
M  V30 24947 N 2294.01 1.53925 -0.338371 0
M  V30 24948 C 2295.24 2.04946 0.260883 0
M  V30 24949 C 2295.65 1.21333 1.45172 0
M  V30 24950 O 2294.99 0.240294 1.82122 0
M  V30 24951 C 2295.05 3.51706 0.744535 0
M  V30 24952 C 2294.72 4.55836 -0.325963 0
M  V30 24953 C 2295.72 5.06634 -1.16696 0
M  V30 24954 C 2293.4 5.00017 -0.478405 0
M  V30 24955 C 2295.39 6.00188 -2.14599 0
M  V30 24956 C 2293.08 5.93383 -1.46083 0
M  V30 24957 C 2294.08 6.43356 -2.29308 0
M  V30 24958 O 2293.77 7.34886 -3.2588 0
M  V30 24959 H 2293.5 0.67375 0.0551089 0
M  V30 24960 H 2296.05 1.99543 -0.487019 0
M  V30 24961 H 2294.28 3.54556 1.54359 0
M  V30 24962 H 2295.97 3.85725 1.26377 0
M  V30 24963 H 2296.74 4.73269 -1.06025 0
M  V30 24964 H 2292.62 4.60724 0.159532 0
M  V30 24965 H 2296.16 6.39118 -2.79596 0
M  V30 24966 H 2292.06 6.26163 -1.56813 0
M  V30 24967 H 2292.83 7.52804 -3.21291 0
M  V30 24968 N 2295.49 0.0668712 1.57458 0
M  V30 24969 C 2296.72 -0.611643 1.97339 0
M  V30 24970 C 2297.13 -1.6398 0.943773 0
M  V30 24971 O 2296.47 -1.83532 -0.0785261 0
M  V30 24972 C 2296.53 -1.34199 3.33513 0
M  V30 24973 C 2296.2 -0.467861 4.54599 0
M  V30 24974 C 2297.19 0.27253 5.19185 0
M  V30 24975 C 2294.88 -0.394182 5.00751 0
M  V30 24976 C 2296.87 1.07487 6.28272 0
M  V30 24977 C 2294.56 0.411836 6.09711 0
M  V30 24978 C 2295.56 1.14504 6.73333 0
M  V30 24979 O 2295.25 1.93777 7.80196 0
M  V30 24980 H 2294.98 -0.170882 0.654045 0
M  V30 24981 H 2297.53 0.134325 2.0496 0
M  V30 24982 H 2295.76 -2.13392 3.22491 0
M  V30 24983 H 2297.45 -1.91226 3.58033 0
M  V30 24984 H 2298.22 0.225171 4.84477 0
M  V30 24985 H 2294.1 -0.95449 4.51011 0
M  V30 24986 H 2297.64 1.64767 6.77863 0
M  V30 24987 H 2293.54 0.460777 6.43853 0
M  V30 24988 H 2294.3 1.86156 7.9705 0
M  V30 24989 N 2296.97 -1.56239 -0.206647 0
M  V30 24990 C 2298.2 -1.83775 -0.943942 0
M  V30 24991 C 2298.61 -0.645734 -1.7784 0
M  V30 24992 O 2297.95 0.394976 -1.79404 0
M  V30 24993 C 2298.01 -3.05255 -1.89894 0
M  V30 24994 C 2297.67 -4.39642 -1.24757 0
M  V30 24995 C 2298.67 -5.16067 -0.630125 0
M  V30 24996 C 2296.36 -4.86373 -1.25487 0
M  V30 24997 C 2298.35 -6.37394 -0.0286826 0
M  V30 24998 C 2296.04 -6.07638 -0.649592 0
M  V30 24999 C 2297.04 -6.8299 -0.0375645 0
M  V30 25000 O 2296.72 -8.01959 0.558261 0
M  V30 25001 H 2296.46 -0.614602 -0.281497 0
M  V30 25002 H 2299.01 -2.04192 -0.222422 0
M  V30 25003 H 2297.24 -2.80693 -2.65985 0
M  V30 25004 H 2298.93 -3.19535 -2.50305 0
M  V30 25005 H 2299.69 -4.81063 -0.616701 0
M  V30 25006 H 2295.57 -4.27686 -1.72064 0
M  V30 25007 H 2299.12 -6.96149 0.44964 0
M  V30 25008 H 2295.01 -6.42112 -0.660479 0
M  V30 25009 H 2295.78 -8.1724 0.454035 0
M  V30 25010 N 2298.45 0.473929 -1.50305 0
M  V30 25011 C 2299.67 1.25424 -1.65178 0
M  V30 25012 C 2300.1 1.85116 -0.333706 0
M  V30 25013 O 2299.45 1.67154 0.702085 0
M  V30 25014 C 2299.5 2.34077 -2.74299 0
M  V30 25015 O 2298.61 3.38647 -2.35355 0
M  V30 25016 H 2297.95 0.369117 -0.55195 0
M  V30 25017 H 2300.48 0.56433 -1.96663 0
M  V30 25018 H 2300.49 2.79432 -2.9729 0
M  V30 25019 H 2299.16 1.90001 -3.69963 0
M  V30 25020 H 2297.74 2.99023 -2.228 0
M  V30 25021 N 2299.92 1.39835 0.726907 0
M  V30 25022 C 2300.89 1.38966 1.82267 0
M  V30 25023 C 2301.89 0.285362 1.58248 0
M  V30 25024 O 2303.08 0.543689 1.65498 0
M  V30 25025 C 2300.21 1.17025 3.20184 0
M  V30 25026 H 2301.4 2.36479 1.84439 0
M  V30 25027 H 2298.95 1.25518 0.931393 0
M  V30 25028 H 2299.69 0.202261 3.23669 0
M  V30 25029 H 2299.47 1.97003 3.39016 0
M  V30 25030 H 2300.96 1.19177 4.00233 0
M  V30 25031 N 2301.4 -0.957948 1.25144 0
M  V30 25032 C 2302.65 -1.70467 1.09858 0
M  V30 25033 C 2302.98 -1.90831 -0.360153 0
M  V30 25034 O 2302.26 -1.47687 -1.26565 0
M  V30 25035 C 2302.54 -3.0896 1.84975 0
M  V30 25036 C 2302.39 -2.96026 3.38657 0
M  V30 25037 C 2303.71 -4.08793 1.63024 0
M  V30 25038 H 2300.83 -0.618699 0.400476 0
M  V30 25039 H 2303.47 -1.11373 1.53935 0
M  V30 25040 H 2301.62 -3.59406 1.47511 0
M  V30 25041 H 2303.29 -2.52931 3.85777 0
M  V30 25042 H 2301.54 -2.32018 3.66538 0
M  V30 25043 H 2302.21 -3.94181 3.86427 0
M  V30 25044 H 2304.68 -3.67243 1.95631 0
M  V30 25045 H 2303.56 -5.03743 2.18024 0
M  V30 25046 H 2303.82 -4.384 0.570769 0
M  V30 25047 N 2302.88 -1.06677 -1.16008 0
M  V30 25048 C 2303.79 -0.692218 -2.24155 0
M  V30 25049 C 2304.81 0.293483 -1.71507 0
M  V30 25050 O 2305.98 0.141826 -2.009 0
M  V30 25051 C 2303.05 -0.0884741 -3.46587 0
M  V30 25052 C 2302.11 -1.12654 -4.14255 0
M  V30 25053 C 2301.34 -0.551509 -5.30843 0
M  V30 25054 O 2301.56 0.634556 -5.66859 0
M  V30 25055 O 2300.5 -1.29308 -5.87846 0
M  V30 25056 H 2304.32 -1.59392 -2.58511 0
M  V30 25057 H 2301.91 -0.839282 -1.23598 0
M  V30 25058 H 2303.79 0.246287 -4.2068 0
M  V30 25059 H 2302.47 0.786657 -3.13996 0
M  V30 25060 H 2301.37 -1.51354 -3.42115 0
M  V30 25061 H 2302.71 -1.97333 -4.50911 0
M  V30 25062 N 2304.36 1.32719 -0.8499 0
M  V30 25063 C 2305.77 1.50218 -0.539128 0
M  V30 25064 C 2305.97 1.7869 0.931239 0
M  V30 25065 O 2305.03 1.85366 1.71452 0
M  V30 25066 C 2306.34 2.64952 -1.42201 0
M  V30 25067 C 2307.89 2.78837 -1.42194 0
M  V30 25068 C 2308.37 3.96644 -2.28992 0
M  V30 25069 N 2309.86 4.03898 -2.26761 0
M  V30 25070 C 2310.59 4.94276 -2.90653 0
M  V30 25071 N 2310.09 5.89693 -3.63639 0
M  V30 25072 N 2311.88 4.8736 -2.80066 0
M  V30 25073 H 2304.03 1.12503 -1.80158 0
M  V30 25074 H 2306.29 0.554071 -0.769226 0
M  V30 25075 H 2306 2.50627 -2.46737 0
M  V30 25076 H 2305.87 3.60622 -1.10597 0
M  V30 25077 H 2308.26 2.92588 -0.384242 0
M  V30 25078 H 2308.34 1.83895 -1.7781 0
M  V30 25079 H 2307.99 3.83652 -3.32826 0
M  V30 25080 H 2307.92 4.90853 -1.9071 0
M  V30 25081 H 2310.41 3.35617 -1.73694 0
M  V30 25082 H 2310.72 6.55342 -4.09569 0
M  V30 25083 H 2309.07 5.89735 -3.67747 0
M  V30 25084 H 2312.26 4.11785 -2.226 0
M  V30 25085 H 2312.43 5.57593 -3.30142 0
M  V30 25086 N 2305.84 0.60738 1.45426 0
M  V30 25087 C 2306.78 -0.12407 2.32269 0
M  V30 25088 C 2307.78 -0.859829 1.45957 0
M  V30 25089 O 2308.98 -0.775418 1.62442 0
M  V30 25090 H 2305.36 -0.0588707 0.749692 0
M  V30 25091 H 2307.33 0.626813 2.91742 0
M  V30 25092 C 2306.08 -1.10815 3.29569 0
M  V30 25093 H 2305.4 -0.551422 3.95979 0
M  V30 25094 H 2306.84 -1.58988 3.93063 0
M  V30 25095 C 2305.3 -2.1816 2.56725 0
M  V30 25096 O 2305.83 -3.25898 2.34848 0
M  V30 25097 N 2304.04 -1.93438 2.16864 0
M  V30 25098 H 2303.58 -1.0583 2.34857 0
M  V30 25099 H 2303.54 -2.65466 1.68449 0
M  V30 25100 N 2307.31 -1.53743 0.34653 0
M  V30 25101 C 2308.26 -2.26617 -0.52418 0
M  V30 25102 C 2309.26 -1.28873 -1.09946 0
M  V30 25103 O 2310.46 -1.4657 -1.04485 0
M  V30 25104 H 2306.84 -0.728191 -0.18773 0
M  V30 25105 H 2308.81 -2.98188 0.112442 0
M  V30 25106 C 2307.56 -3.05417 -1.6618 0
M  V30 25107 H 2306.88 -3.8046 -1.22841 0
M  V30 25108 H 2308.32 -3.59616 -2.24615 0
M  V30 25109 C 2306.78 -2.15095 -2.59299 0
M  V30 25110 O 2307.31 -1.74902 -3.61624 0
M  V30 25111 N 2305.52 -1.80114 -2.28051 0
M  V30 25112 H 2305.06 -2.12997 -1.44879 0
M  V30 25113 H 2305.02 -1.19964 -2.90613 0
M  V30 25114 N 2308.79 -0.0752207 -1.5742 0
M  V30 25115 C 2309.72 0.888286 -2.15944 0
M  V30 25116 C 2310.7 1.30804 -1.08739 0
M  V30 25117 O 2311.89 1.37848 -1.3679 0
M  V30 25118 C 2309.02 2.15465 -2.72382 0
M  V30 25119 C 2307.97 1.87418 -3.84784 0
M  V30 25120 C 2307.3 3.20714 -4.2784 0
M  V30 25121 C 2308.6 1.17675 -5.08871 0
M  V30 25122 H 2310.29 0.400747 -2.96706 0
M  V30 25123 H 2307.84 0.191317 -1.42723 0
M  V30 25124 H 2309.79 2.83289 -3.1197 0
M  V30 25125 H 2308.52 2.66467 -1.88846 0
M  V30 25126 H 2307.17 1.21998 -3.45705 0
M  V30 25127 H 2306.82 3.69564 -3.41221 0
M  V30 25128 H 2306.52 3.02738 -5.03611 0
M  V30 25129 H 2308.05 3.8973 -4.70046 0
M  V30 25130 H 2309.46 1.75574 -5.45753 0
M  V30 25131 H 2307.86 1.09946 -5.89942 0
M  V30 25132 H 2308.93 0.156368 -4.84648 0
M  V30 25133 N 2310.27 1.56347 0.198358 0
M  V30 25134 C 2311.2 1.89341 1.27378 0
M  V30 25135 C 2312.18 0.753159 1.44105 0
M  V30 25136 O 2313.37 1.00384 1.59547 0
M  V30 25137 C 2310.49 2.12075 2.64087 0
M  V30 25138 C 2309.54 3.34777 2.64247 0
M  V30 25139 S 2310.37 4.90002 2.16005 0
M  V30 25140 C 2311.53 5.158 3.54544 0
M  V30 25141 H 2311.76 2.80261 0.992008 0
M  V30 25142 H 2309.29 1.49083 0.4017 0
M  V30 25143 H 2311.25 2.25856 3.42782 0
M  V30 25144 H 2309.91 1.21911 2.89476 0
M  V30 25145 H 2309.11 3.478 3.64761 0
M  V30 25146 H 2308.71 3.19973 1.93631 0
M  V30 25147 H 2311 5.0612 4.50387 0
M  V30 25148 H 2311.94 6.17576 3.46418 0
M  V30 25149 H 2312.35 4.43448 3.49305 0
M  V30 25150 N 2311.75 -0.465951 1.50554 0
M  V30 25151 C 2313.16 -0.80013 1.38094 0
M  V30 25152 C 2313.36 -1.96614 0.441023 0
M  V30 25153 O 2312.42 -2.5224 -0.114454 0
M  V30 25154 C 2313.73 -1.10737 2.79567 0
M  V30 25155 C 2315.28 -1.21352 2.88518 0
M  V30 25156 C 2315.76 -1.55385 4.30836 0
M  V30 25157 N 2317.25 -1.62367 4.3381 0
M  V30 25158 C 2317.98 -1.90216 5.4093 0
M  V30 25159 N 2317.48 -2.1605 6.58251 0
M  V30 25160 N 2319.27 -1.91761 5.28379 0
M  V30 25161 H 2311.42 0.302403 2.10236 0
M  V30 25162 H 2313.69 0.0727912 0.945201 0
M  V30 25163 H 2313.39 -0.323599 3.50208 0
M  V30 25164 H 2313.27 -2.04228 3.17129 0
M  V30 25165 H 2315.65 -1.98795 2.18093 0
M  V30 25166 H 2315.73 -0.258276 2.54493 0
M  V30 25167 H 2315.38 -0.784801 5.018 0
M  V30 25168 H 2315.31 -2.52068 4.62352 0
M  V30 25169 H 2317.8 -1.44421 3.49215 0
M  V30 25170 H 2318.11 -2.36588 7.35694 0
M  V30 25171 H 2316.46 -2.13432 6.61417 0
M  V30 25172 H 2319.65 -1.71078 4.35718 0
M  V30 25173 H 2319.82 -2.13128 6.11948 0
M  V30 25174 N 2313.23 -1.40218 -0.719481 0
M  V30 25175 C 2314.16 -1.42925 -1.84647 0
M  V30 25176 C 2315.14 -0.290649 -1.67598 0
M  V30 25177 O 2316.32 -0.49871 -1.87687 0
M  V30 25178 C 2313.45 -1.28728 -3.22562 0
M  V30 25179 C 2312.41 -2.4015 -3.54277 0
M  V30 25180 C 2311.73 -2.11032 -4.91294 0
M  V30 25181 C 2313.03 -3.82487 -3.5567 0
M  V30 25182 H 2314.73 -2.37241 -1.8264 0
M  V30 25183 H 2312.27 -1.14192 -0.877285 0
M  V30 25184 H 2314.23 -1.29239 -4.01093 0
M  V30 25185 H 2312.95 -0.308868 -3.25136 0
M  V30 25186 H 2311.61 -2.38882 -2.78084 0
M  V30 25187 H 2311.26 -1.11591 -4.90466 0
M  V30 25188 H 2310.96 -2.85679 -5.1348 0
M  V30 25189 H 2312.48 -2.13219 -5.72163 0
M  V30 25190 H 2313.89 -3.856 -4.24247 0
M  V30 25191 H 2312.29 -4.56621 -3.8938 0
M  V30 25192 H 2313.36 -4.12351 -2.55137 0
M  V30 25193 N 2314.7 0.951297 -1.25651 0
M  V30 25194 C 2315.93 1.73622 -1.13446 0
M  V30 25195 C 2316.35 1.85569 0.307532 0
M  V30 25196 O 2315.71 1.33856 1.22279 0
M  V30 25197 C 2315.76 3.12618 -1.79728 0
M  V30 25198 O 2314.86 3.98029 -1.07919 0
M  V30 25199 H 2314.21 0.533079 -0.395882 0
M  V30 25200 H 2316.74 1.19217 -1.66278 0
M  V30 25201 H 2316.75 3.63061 -1.86147 0
M  V30 25202 H 2315.42 3.03239 -2.84638 0
M  V30 25203 H 2314 3.5649 -1.09404 0
M  V30 25204 N 2316.18 1.07291 1.1544 0
M  V30 25205 C 2317.11 0.650624 2.19772 0
M  V30 25206 C 2318.13 -0.296544 1.60076 0
M  V30 25207 O 2319.32 -0.0859592 1.78293 0
M  V30 25208 C 2316.42 -0.0649803 3.38838 0
M  V30 25209 C 2315.59 0.898216 4.28078 0
M  V30 25210 C 2314.65 0.220019 5.2574 0
M  V30 25211 O 2313.67 0.860871 5.62652 0
M  V30 25212 N 2314.88 -1.03455 5.71207 0
M  V30 25213 H 2317.64 1.54812 2.56619 0
M  V30 25214 H 2315.2 0.957517 1.3055 0
M  V30 25215 H 2317.19 -0.529344 4.01223 0
M  V30 25216 H 2315.76 -0.864414 3.00411 0
M  V30 25217 H 2314.98 1.54171 3.62801 0
M  V30 25218 H 2316.27 1.55129 4.84574 0
M  V30 25219 H 2315.67 -1.57517 5.43328 0
M  V30 25220 H 2314.23 -1.44261 6.35635 0
M  V30 25221 N 2317.66 -1.32267 0.856927 0
M  V30 25222 C 2318.89 -2.01897 0.474605 0
M  V30 25223 C 2319.31 -1.63968 -0.921738 0
M  V30 25224 O 2318.67 -0.841509 -1.60587 0
M  V30 25225 C 2318.72 -3.55162 0.623861 0
M  V30 25226 O 2317.82 -4.10976 -0.342387 0
M  V30 25227 H 2317.16 -0.636106 0.190433 0
M  V30 25228 H 2319.69 -1.68762 1.15675 0
M  V30 25229 H 2319.7 -4.04772 0.51224 0
M  V30 25230 H 2318.38 -3.8211 1.64209 0
M  V30 25231 H 2316.95 -3.72432 -0.186814 0
M  V30 25232 N 2319.14 -0.615084 -1.45102 0
M  V30 25233 C 2320.39 -0.110753 -2.01396 0
M  V30 25234 C 2320.7 1.26914 -1.48836 0
M  V30 25235 O 2321.91 1.86661 -1.97155 0
M  V30 25236 C 2320.36 -0.147293 -3.59598 0
M  V30 25237 C 2319.97 -1.5275 -4.21155 0
M  V30 25238 C 2321.71 0.301406 -4.23429 0
M  V30 25239 C 2319.62 -1.52002 -5.71533 0
M  V30 25240 H 2318.55 -0.0376373 -0.75306 0
M  V30 25241 H 2321.2 -0.77152 -1.66493 0
M  V30 25242 H 2319.58 0.58027 -3.91725 0
M  V30 25243 H 2320.76 -2.27737 -4.0059 0
M  V30 25244 H 2319.07 -1.91892 -3.69549 0
M  V30 25245 H 2321.67 0.326298 -5.33703 0
M  V30 25246 H 2322.01 1.32558 -3.94631 0
M  V30 25247 H 2322.55 -0.373134 -3.96046 0
M  V30 25248 H 2319.29 -2.52204 -6.0504 0
M  V30 25249 H 2318.81 -0.812845 -5.94267 0
M  V30 25250 H 2320.48 -1.24693 -6.34871 0
M  V30 25251 N 2320.62 1.53557 -0.354678 0
M  V30 25252 C 2322.03 1.86268 0.126869 0
M  V30 25253 C 2322.38 1.27561 1.49073 0
M  V30 25254 O 2321.5 0.593437 2.08104 0
M  V30 25255 C 2322.1 3.3797 0.236987 0
M  V30 25256 C 2320.66 3.70519 0.662777 0
M  V30 25257 C 2319.81 2.76601 -0.196701 0
M  V30 25258 H 2322.76 1.47961 -0.573875 0
M  V30 25259 H 2322.78 3.65364 1.06252 0
M  V30 25260 H 2322.29 3.8067 -0.755792 0
M  V30 25261 H 2320.39 3.3337 1.66418 0
M  V30 25262 H 2320.5 4.77029 0.44495 0
M  V30 25263 H 2318.87 2.52517 0.332719 0
M  V30 25264 H 2319.65 3.22133 -1.18682 0
M  V30 25265 N 2322.1 0.083568 1.57378 0
M  V30 25266 C 2323.34 -0.582836 1.93931 0
M  V30 25267 C 2323.67 -1.68902 0.964484 0
M  V30 25268 O 2322.93 -1.95692 -0.017913 0
M  V30 25269 C 2323.22 -1.18834 3.37066 0
M  V30 25270 C 2322.89 -0.207114 4.50424 0
M  V30 25271 C 2321.55 0.0627961 4.81159 0
M  V30 25272 C 2323.9 0.463517 5.19135 0
M  V30 25273 C 2321.23 1.01023 5.77937 0
M  V30 25274 C 2323.58 1.39934 6.16929 0
M  V30 25275 C 2322.25 1.6776 6.46075 0
M  V30 25276 H 2321.52 -0.213275 0.709644 0
M  V30 25277 H 2324.17 0.15695 1.90856 0
M  V30 25278 H 2322.47 -2.00413 3.36663 0
M  V30 25279 H 2324.17 -1.71146 3.62643 0
M  V30 25280 H 2320.76 -0.427672 4.26461 0
M  V30 25281 H 2324.94 0.268121 4.95575 0
M  V30 25282 H 2320.2 1.23294 5.98839 0
M  V30 25283 H 2324.37 1.92488 6.69269 0
M  V30 25284 H 2322 2.41333 7.20876 0
M  V30 25285 N 2323.57 -1.5645 -0.190064 0
M  V30 25286 C 2324.8 -1.85034 -0.92574 0
M  V30 25287 C 2325.22 -0.666689 -1.76637 0
M  V30 25288 O 2324.57 0.364534 -1.78822 0
M  V30 25289 C 2324.62 -3.12471 -1.8178 0
M  V30 25290 O 2324.35 -4.26272 -1.01111 0
M  V30 25291 C 2325.85 -3.54269 -2.66474 0
M  V30 25292 H 2323.07 -0.614342 -0.269861 0
M  V30 25293 H 2325.61 -2.0356 -0.195802 0
M  V30 25294 H 2323.77 -2.95827 -2.50131 0
M  V30 25295 H 2324.18 -4.98872 -1.61947 0
M  V30 25296 H 2325.65 -4.46391 -3.24714 0
M  V30 25297 H 2326.13 -2.77497 -3.40429 0
M  V30 25298 H 2326.74 -3.73461 -2.03487 0
M  V30 25299 N 2325.05 0.45796 -1.50799 0
M  V30 25300 C 2326.46 1.03847 -1.55154 0
M  V30 25301 C 2326.81 1.92817 -0.362753 0
M  V30 25302 O 2325.94 2.09988 0.522878 0
M  V30 25303 C 2326.53 1.89012 -2.81176 0
M  V30 25304 C 2325.09 2.42149 -2.88168 0
M  V30 25305 C 2324.24 1.20825 -2.49593 0
M  V30 25306 H 2327.19 0.240041 -1.56874 0
M  V30 25307 H 2327.21 2.74233 -2.63774 0
M  V30 25308 H 2326.72 1.24232 -3.67679 0
M  V30 25309 H 2324.82 3.10444 -2.06047 0
M  V30 25310 H 2324.94 2.76357 -3.91361 0
M  V30 25311 H 2323.3 1.54716 -2.02324 0
M  V30 25312 H 2324.08 0.576868 -3.38419 0
M  V30 25313 N 2326.53 1.40598 0.712035 0
M  V30 25314 C 2327.78 1.39274 1.47413 0
M  V30 25315 C 2328.11 -0.00385377 1.942 0
M  V30 25316 O 2327.38 -0.97315 1.68404 0
M  V30 25317 C 2327.67 2.3853 2.6977 0
M  V30 25318 C 2327.52 3.87228 2.28855 0
M  V30 25319 C 2328.84 2.3527 3.71935 0
M  V30 25320 H 2325.96 0.507209 0.534704 0
M  V30 25321 H 2328.6 1.71758 0.812345 0
M  V30 25322 H 2326.75 2.10959 3.26234 0
M  V30 25323 H 2328.42 4.2564 1.77844 0
M  V30 25324 H 2326.66 4.0289 1.60817 0
M  V30 25325 H 2327.34 4.52199 3.16576 0
M  V30 25326 H 2329.81 2.597 3.25108 0
M  V30 25327 H 2328.69 3.06761 4.5518 0
M  V30 25328 H 2328.95 1.36556 4.20482 0
M  V30 25329 N 2328.01 -0.94462 1.26153 0
M  V30 25330 C 2329.42 -1.5052 1.10456 0
M  V30 25331 C 2329.77 -1.93633 -0.316316 0
M  V30 25332 O 2328.89 -1.79583 -1.20743 0
M  V30 25333 C 2329.49 -2.73546 1.99896 0
M  V30 25334 C 2328.05 -3.25883 1.88354 0
M  V30 25335 C 2327.2 -1.98676 1.9345 0
M  V30 25336 H 2330.15 -0.760465 1.39293 0
M  V30 25337 H 2330.17 -3.47729 1.54483 0
M  V30 25338 H 2329.68 -2.42136 3.03301 0
M  V30 25339 H 2327.78 -3.62091 0.8787 0
M  V30 25340 H 2327.89 -3.93222 2.73703 0
M  V30 25341 H 2326.26 -2.14422 1.3746 0
M  V30 25342 H 2327.04 -1.69602 2.98479 0
M  V30 25343 N 2329.49 -1.07901 -1.1487 0
M  V30 25344 C 2330.9 -0.827392 -1.67365 0
M  V30 25345 C 2331.25 0.64666 -1.85237 0
M  V30 25346 O 2330.37 1.50001 -1.55976 0
M  V30 25347 C 2330.97 -1.49537 -3.04013 0
M  V30 25348 C 2329.53 -1.29112 -3.53563 0
M  V30 25349 C 2328.67 -1.56147 -2.29158 0
M  V30 25350 H 2331.62 -1.2403 -0.990061 0
M  V30 25351 H 2331.65 -0.919708 -3.69218 0
M  V30 25352 H 2331.16 -2.56819 -2.90974 0
M  V30 25353 H 2329.26 -0.238778 -3.71834 0
M  V30 25354 H 2329.37 -2.01519 -4.34657 0
M  V30 25355 H 2327.74 -0.982758 -2.34976 0
M  V30 25356 H 2328.52 -2.64623 -2.187 0
M  V30 25357 N 2330.96 1.31811 -0.863929 0
M  V30 25358 C 2332.38 1.49638 -0.55503 0
M  V30 25359 C 2332.58 1.79668 0.912234 0
M  V30 25360 O 2331.64 1.87174 1.69476 0
M  V30 25361 C 2332.95 2.63429 -1.45003 0
M  V30 25362 C 2334.5 2.77313 -1.45143 0
M  V30 25363 C 2334.97 3.94193 -2.33186 0
M  V30 25364 N 2336.46 4.0147 -2.31032 0
M  V30 25365 C 2337.2 4.91165 -2.95879 0
M  V30 25366 N 2336.69 5.85803 -3.69873 0
M  V30 25367 N 2338.49 4.84362 -2.85219 0
M  V30 25368 H 2330.64 1.10586 -1.81341 0
M  V30 25369 H 2332.9 0.545881 -0.77506 0
M  V30 25370 H 2332.61 2.47996 -2.49381 0
M  V30 25371 H 2332.48 3.59429 -1.14416 0
M  V30 25372 H 2334.87 2.92164 -0.415253 0
M  V30 25373 H 2334.95 1.81998 -1.79751 0
M  V30 25374 H 2334.59 3.80101 -3.36877 0
M  V30 25375 H 2334.52 4.88803 -1.95906 0
M  V30 25376 H 2337.01 3.33756 -1.77244 0
M  V30 25377 H 2337.33 6.50961 -4.16497 0
M  V30 25378 H 2335.67 5.85801 -3.73981 0
M  V30 25379 H 2338.86 4.09401 -2.26955 0
M  V30 25380 H 2339.04 5.5406 -3.36037 0
M  V30 25381 N 2332.44 0.62277 1.44773 0
M  V30 25382 C 2333.69 0.12369 2.01721 0
M  V30 25383 C 2334.01 -1.25587 1.49174 0
M  V30 25384 O 2333.28 -1.83271 0.692006 0
M  V30 25385 H 2331.86 0.0427356 0.745777 0
M  V30 25386 H 2334.52 0.80759 1.77381 0
M  V30 25387 H 2333.62 0.0850082 3.11984 0
M  V30 25388 N 2333.92 -1.53367 0.362817 0
M  V30 25389 C 2334.83 -2.29362 -0.492953 0
M  V30 25390 C 2335.85 -1.35221 -1.09505 0
M  V30 25391 O 2337.02 -1.68275 -1.10659 0
M  V30 25392 C 2334.09 -3.06603 -1.6185 0
M  V30 25393 C 2333.15 -4.16407 -1.04422 0
M  V30 25394 C 2332.38 -4.89955 -2.11613 0
M  V30 25395 O 2332.6 -4.63339 -3.32676 0
M  V30 25396 O 2331.54 -5.75951 -1.74825 0
M  V30 25397 H 2335.36 -3.03441 0.125384 0
M  V30 25398 H 2332.95 -1.48857 0.12728 0
M  V30 25399 H 2334.83 -3.54845 -2.27295 0
M  V30 25400 H 2333.51 -2.35363 -2.22229 0
M  V30 25401 H 2332.41 -3.72424 -0.353754 0
M  V30 25402 H 2333.75 -4.89804 -0.485027 0
M  V30 25403 N 2335.4 -0.091913 -1.57332 0
M  V30 25404 C 2336.81 0.437707 -1.81497 0
M  V30 25405 C 2337.16 1.68368 -1.0073 0
M  V30 25406 O 2336.29 2.15112 -0.235732 0
M  V30 25407 C 2336.88 0.800881 -3.29198 0
M  V30 25408 C 2335.44 1.27526 -3.54138 0
M  V30 25409 C 2334.59 0.270344 -2.75979 0
M  V30 25410 H 2337.54 -0.317393 -1.55494 0
M  V30 25411 H 2337.56 1.66068 -3.42347 0
M  V30 25412 H 2337.07 -0.106146 -3.87955 0
M  V30 25413 H 2335.17 2.20011 -3.00709 0
M  V30 25414 H 2335.28 1.23929 -4.62794 0
M  V30 25415 H 2333.65 0.75183 -2.43351 0
M  V30 25416 H 2334.43 -0.629307 -3.37483 0
M  V30 25417 N 2336.88 1.56548 0.181765 0
M  V30 25418 C 2338.12 1.81666 0.901399 0
M  V30 25419 C 2338.46 0.668107 1.82346 0
M  V30 25420 O 2337.73 -0.330581 1.9167 0
M  V30 25421 C 2338.01 3.17118 1.70612 0
M  V30 25422 C 2337.87 4.42485 0.807886 0
M  V30 25423 C 2339.19 3.49398 2.67599 0
M  V30 25424 H 2336.3 0.660851 0.326258 0
M  V30 25425 H 2338.95 1.89255 0.168101 0
M  V30 25426 H 2337.1 3.10779 2.33128 0
M  V30 25427 H 2338.77 4.60882 0.196409 0
M  V30 25428 H 2337.01 4.33647 0.115334 0
M  V30 25429 H 2337.68 5.33788 1.40623 0
M  V30 25430 H 2340.16 3.56122 2.15212 0
M  V30 25431 H 2339.03 4.45269 3.20977 0
M  V30 25432 H 2339.3 2.73569 3.47293 0
M  V30 25433 N 2338.35 -0.449957 1.5104 0
M  V30 25434 C 2339.58 -1.22317 1.66871 0
M  V30 25435 C 2340 -1.85321 0.360759 0
M  V30 25436 O 2339.35 -1.70167 -0.659501 0
M  V30 25437 C 2339.41 -2.31648 2.77528 0
M  V30 25438 O 2339.13 -1.71223 4.03255 0
M  V30 25439 C 2340.63 -3.22155 3.04518 0
M  V30 25440 H 2337.85 -0.369145 0.560333 0
M  V30 25441 H 2340.39 -0.534684 1.97386 0
M  V30 25442 H 2338.55 -2.96234 2.49648 0
M  V30 25443 H 2338.96 -2.43381 4.64614 0
M  V30 25444 H 2340.43 -3.95031 3.85557 0
M  V30 25445 H 2340.91 -3.82176 2.16422 0
M  V30 25446 H 2341.52 -2.63282 3.3401 0
M  V30 25447 N 2339.83 -1.40974 -0.704569 0
M  V30 25448 C 2341.08 -1.40054 -1.46672 0
M  V30 25449 C 2341.41 -0.00644516 -1.94199 0
M  V30 25450 O 2340.69 0.964205 -1.68918 0
M  V30 25451 C 2340.97 -2.39957 -2.68501 0
M  V30 25452 C 2340.82 -3.88436 -2.26798 0
M  V30 25453 C 2342.14 -2.3724 -3.70682 0
M  V30 25454 H 2339.26 -0.510038 -0.532006 0
M  V30 25455 H 2341.9 -1.72187 -0.803225 0
M  V30 25456 H 2340.05 -2.12686 -3.25111 0
M  V30 25457 H 2341.72 -4.26577 -1.75585 0
M  V30 25458 H 2339.97 -4.03737 -1.58678 0
M  V30 25459 H 2340.64 -4.53871 -3.14173 0
M  V30 25460 H 2343.11 -2.6142 -3.23726 0
M  V30 25461 H 2341.99 -3.0917 -4.53547 0
M  V30 25462 H 2342.25 -1.38784 -4.19752 0
M  V30 25463 N 2341.31 0.937917 -1.26653 0
M  V30 25464 C 2342.54 1.71629 -1.15009 0
M  V30 25465 C 2342.95 1.86854 0.296993 0
M  V30 25466 O 2342.29 1.37788 1.21491 0
M  V30 25467 C 2342.35 3.14036 -1.7499 0
M  V30 25468 C 2342.02 3.22184 -3.24108 0
M  V30 25469 C 2343.01 3.05212 -4.20882 0
M  V30 25470 C 2340.7 3.4547 -3.64631 0
M  V30 25471 C 2342.69 3.11398 -5.56156 0
M  V30 25472 C 2340.38 3.51291 -5.00038 0
M  V30 25473 C 2341.38 3.34272 -5.9561 0
M  V30 25474 O 2341.07 3.39808 -7.28551 0
M  V30 25475 H 2340.8 0.544078 -0.401192 0
M  V30 25476 H 2343.35 1.1841 -1.67834 0
M  V30 25477 H 2341.58 3.68693 -1.1663 0
M  V30 25478 H 2343.27 3.73799 -1.58205 0
M  V30 25479 H 2344.04 2.87074 -3.90914 0
M  V30 25480 H 2339.92 3.57772 -2.90724 0
M  V30 25481 H 2343.46 2.98032 -6.30732 0
M  V30 25482 H 2339.36 3.6895 -5.29666 0
M  V30 25483 H 2340.13 3.5633 -7.36866 0
M  V30 25484 N 2342.79 1.08509 1.14296 0
M  V30 25485 C 2344.2 0.812926 1.37345 0
M  V30 25486 C 2344.4 -0.577291 1.93053 0
M  V30 25487 O 2343.46 -1.3339 2.14391 0
M  V30 25488 C 2344.77 1.89646 2.33356 0
M  V30 25489 C 2346.32 1.92259 2.46993 0
M  V30 25490 C 2346.8 2.9973 3.46303 0
M  V30 25491 N 2348.29 2.98908 3.53847 0
M  V30 25492 C 2349.02 3.78708 4.30544 0
M  V30 25493 N 2348.52 4.68389 5.10474 0
M  V30 25494 N 2350.31 3.67006 4.2575 0
M  V30 25495 H 2342.46 1.98152 0.764832 0
M  V30 25496 H 2344.73 0.859966 0.398951 0
M  V30 25497 H 2344.43 2.89601 1.9956 0
M  V30 25498 H 2344.31 1.76665 3.33271 0
M  V30 25499 H 2346.69 0.929495 2.80079 0
M  V30 25500 H 2346.77 2.09319 1.47035 0
M  V30 25501 H 2346.42 3.99247 3.1395 0
M  V30 25502 H 2346.35 2.79915 4.46044 0
M  V30 25503 H 2348.84 2.33909 2.96808 0
M  V30 25504 H 2349.15 5.25883 5.66275 0
M  V30 25505 H 2347.5 4.72431 5.09739 0
M  V30 25506 H 2350.69 2.96311 3.62378 0
M  V30 25507 H 2350.86 4.29436 4.85272 0
M  V30 25508 N 2344.27 -1.31351 0.870907 0
M  V30 25509 C 2345.2 -2.30965 0.343137 0
M  V30 25510 C 2346.18 -1.6039 -0.566479 0
M  V30 25511 O 2347.36 -1.8809 -0.483303 0
M  V30 25512 C 2344.49 -3.44301 -0.455426 0
M  V30 25513 C 2343.45 -4.26473 0.361178 0
M  V30 25514 C 2342.77 -5.31726 -0.563127 0
M  V30 25515 C 2344.07 -4.97326 1.59575 0
M  V30 25516 H 2345.77 -2.75357 1.17553 0
M  V30 25517 H 2343.31 -1.3238 0.566709 0
M  V30 25518 H 2345.27 -4.13041 -0.835178 0
M  V30 25519 H 2343.99 -2.98678 -1.32134 0
M  V30 25520 H 2342.65 -3.59402 0.722888 0
M  V30 25521 H 2342.3 -4.82353 -1.42634 0
M  V30 25522 H 2342 -5.87596 -0.0206376 0
M  V30 25523 H 2343.52 -6.03326 -0.939702 0
M  V30 25524 H 2344.93 -5.58659 1.28738 0
M  V30 25525 H 2343.33 -5.62996 2.07738 0
M  V30 25526 H 2344.4 -4.24258 2.34805 0
M  V30 25527 N 2345.74 -0.630439 -1.44441 0
M  V30 25528 C 2346.65 0.0761281 -2.34476 0
M  V30 25529 C 2347.67 0.836423 -1.52578 0
M  V30 25530 O 2348.85 0.788842 -1.85309 0
M  V30 25531 C 2345.91 1.04593 -3.30547 0
M  V30 25532 C 2344.97 0.285085 -4.28352 0
M  V30 25533 C 2344.21 1.20869 -5.19833 0
M  V30 25534 O 2344.43 2.44738 -5.15228 0
M  V30 25535 O 2343.36 0.693386 -5.97893 0
M  V30 25536 H 2347.19 -0.664376 -2.96344 0
M  V30 25537 H 2344.77 -0.390635 -1.44203 0
M  V30 25538 H 2346.66 1.60389 -3.89684 0
M  V30 25539 H 2345.33 1.76706 -2.71213 0
M  V30 25540 H 2344.24 -0.315903 -3.72764 0
M  V30 25541 H 2345.57 -0.39601 -4.90604 0
M  V30 25542 N 2347.22 1.53172 -0.370945 0
M  V30 25543 C 2348.13 2.29621 0.480783 0
M  V30 25544 C 2349.15 1.358 1.08786 0
M  V30 25545 O 2350.32 1.6886 1.09765 0
M  V30 25546 C 2347.39 3.07457 1.60222 0
M  V30 25547 C 2346.45 4.16955 1.02212 0
M  V30 25548 C 2345.68 4.9107 2.09012 0
M  V30 25549 O 2345.91 4.65097 3.30214 0
M  V30 25550 O 2344.84 5.7687 1.71768 0
M  V30 25551 H 2348.67 3.0337 -0.141474 0
M  V30 25552 H 2346.25 1.48787 -0.135172 0
M  V30 25553 H 2348.13 3.56045 2.2541 0
M  V30 25554 H 2346.81 2.36539 2.20978 0
M  V30 25555 H 2345.72 3.72606 0.333998 0
M  V30 25556 H 2347.05 4.90055 0.459044 0
M  V30 25557 N 2348.7 0.100255 1.57281 0
M  V30 25558 C 2349.93 -0.573846 1.99303 0
M  V30 25559 C 2350.35 -1.6061 0.979087 0
M  V30 25560 O 2349.71 -1.81226 -0.0517485 0
M  V30 25561 C 2349.76 -1.19352 3.40276 0
M  V30 25562 O 2348.86 -2.30929 3.4168 0
M  V30 25563 H 2348.2 -0.145127 0.647946 0
M  V30 25564 H 2350.73 0.183192 2.03778 0
M  V30 25565 H 2350.74 -1.53358 3.78081 0
M  V30 25566 H 2349.42 -0.437313 4.13594 0
M  V30 25567 H 2347.99 -1.98504 3.15675 0
M  V30 25568 N 2350.18 -1.56643 -0.17346 0
M  V30 25569 C 2351.4 -1.86364 -0.910116 0
M  V30 25570 C 2351.83 -0.686349 -1.75131 0
M  V30 25571 O 2351.19 0.364612 -1.77596 0
M  V30 25572 C 2351.24 -3.14485 -1.76442 0
M  V30 25573 O 2350.34 -2.96558 -2.86579 0
M  V30 25574 H 2349.68 -0.613052 -0.255076 0
M  V30 25575 H 2352.21 -2.03874 -0.172247 0
M  V30 25576 H 2352.22 -3.45835 -2.16477 0
M  V30 25577 H 2350.9 -3.99785 -1.14651 0
M  V30 25578 H 2349.47 -2.76557 -2.50141 0
M  V30 25579 N 2351.66 0.44194 -1.51277 0
M  V30 25580 C 2353.07 1.02196 -1.56246 0
M  V30 25581 C 2353.42 1.92422 -0.383183 0
M  V30 25582 O 2352.54 2.10531 0.500576 0
M  V30 25583 C 2353.14 1.86019 -2.83165 0
M  V30 25584 C 2351.7 2.39079 -2.9072 0
M  V30 25585 C 2350.85 1.18171 -2.5086 0
M  V30 25586 H 2353.8 0.223389 -1.5712 0
M  V30 25587 H 2353.82 2.7142 -2.66667 0
M  V30 25588 H 2353.33 1.20325 -3.68976 0
M  V30 25589 H 2351.43 3.08241 -2.09328 0
M  V30 25590 H 2351.54 2.72191 -3.9427 0
M  V30 25591 H 2349.91 1.52561 -2.03954 0
M  V30 25592 H 2350.69 0.540942 -3.39011 0
M  V30 25593 N 2353.14 1.41345 0.697083 0
M  V30 25594 C 2354.08 1.43276 1.83234 0
M  V30 25595 C 2355.08 0.310976 1.66521 0
M  V30 25596 O 2356.28 0.48293 1.73401 0
M  V30 25597 H 2352.66 0.448259 0.603794 0
M  V30 25598 H 2354.63 2.38957 1.78723 0
M  V30 25599 C 2353.38 1.33034 3.21243 0
M  V30 25600 H 2352.7 2.18639 3.34719 0
M  V30 25601 H 2354.14 1.38446 4.0076 0
M  V30 25602 C 2352.6 0.0425227 3.36873 0
M  V30 25603 O 2353.13 -0.913352 3.91179 0
M  V30 25604 N 2351.34 -0.0330635 2.90581 0
M  V30 25605 H 2350.88 0.745549 2.46575 0
M  V30 25606 H 2350.84 -0.894146 3.01417 0
M  V30 25607 N 2354.61 -0.931187 1.27148 0
M  V30 25608 C 2355.86 -1.673 1.12667 0
M  V30 25609 C 2356.18 -1.92836 -0.327685 0
M  V30 25610 O 2357.38 -2.64937 -0.593345 0
M  V30 25611 C 2355.84 -3.01303 1.96836 0
M  V30 25612 C 2355.45 -2.83478 3.46906 0
M  V30 25613 C 2357.19 -3.79107 1.90992 0
M  V30 25614 C 2355.1 -4.13016 4.23287 0
M  V30 25615 H 2354.03 -0.627501 0.418041 0
M  V30 25616 H 2356.68 -1.03478 1.5154 0
M  V30 25617 H 2355.06 -3.66162 1.50803 0
M  V30 25618 H 2356.23 -2.27408 4.00777 0
M  V30 25619 H 2354.55 -2.19107 3.54092 0
M  V30 25620 H 2357.15 -4.75094 2.45337 0
M  V30 25621 H 2357.49 -4.06832 0.88279 0
M  V30 25622 H 2358.02 -3.2104 2.34901 0
M  V30 25623 H 2354.76 -3.90471 5.2651 0
M  V30 25624 H 2354.28 -4.68763 3.74194 0
M  V30 25625 H 2355.96 -4.81403 4.32273 0
M  V30 25626 N 2356.09 -1.09114 -1.13719 0
M  V30 25627 C 2357.02 -0.749423 -2.21147 0
M  V30 25628 C 2358 0.271446 -1.6792 0
M  V30 25629 O 2359.19 0.140217 -1.93693 0
M  V30 25630 C 2356.32 -0.16572 -3.46904 0
M  V30 25631 C 2355.27 -1.11574 -4.13201 0
M  V30 25632 C 2354.6 -0.393903 -5.33247 0
M  V30 25633 C 2355.9 -2.45686 -4.60908 0
M  V30 25634 H 2357.59 -1.64763 -2.49987 0
M  V30 25635 H 2355.14 -0.793647 -1.20155 0
M  V30 25636 H 2357.09 0.0853919 -4.21313 0
M  V30 25637 H 2355.81 0.767658 -3.1745 0
M  V30 25638 H 2354.47 -1.35208 -3.40756 0
M  V30 25639 H 2354.12 0.543511 -5.00055 0
M  V30 25640 H 2353.82 -1.02731 -5.7855 0
M  V30 25641 H 2355.35 -0.151015 -6.10413 0
M  V30 25642 H 2356.76 -2.26278 -5.26755 0
M  V30 25643 H 2355.16 -3.04785 -5.16939 0
M  V30 25644 H 2356.23 -3.06684 -3.75597 0
M  V30 25645 N 2357.57 1.30887 -0.877861 0
M  V30 25646 C 2358.52 2.30266 -0.328702 0
M  V30 25647 C 2359.51 1.5986 0.560468 0
M  V30 25648 O 2360.72 1.74395 0.445691 0
M  V30 25649 H 2357.09 0.746877 -0.0876274 0
M  V30 25650 H 2359.06 2.74049 -1.18066 0
M  V30 25651 C 2357.81 3.44802 0.44801 0
M  V30 25652 H 2357.14 3.99155 -0.226929 0
M  V30 25653 H 2358.58 4.16433 0.797468 0
M  V30 25654 C 2357.03 2.94158 1.64234 0
M  V30 25655 O 2357.56 2.93588 2.74169 0
M  V30 25656 N 2355.77 2.50259 1.47712 0
M  V30 25657 H 2355.32 2.50921 0.582777 0
M  V30 25658 H 2355.28 2.16731 2.27761 0
M  V30 25659 N 2359.05 0.638091 1.44105 0
M  V30 25660 C 2360 -0.074774 2.3248 0
M  V30 25661 C 2360.99 -0.828676 1.47748 0
M  V30 25662 O 2362.2 -0.740788 1.6405 0
M  V30 25663 H 2358.57 -0.0429554 0.750772 0
M  V30 25664 H 2360.54 0.688555 2.90347 0
M  V30 25665 C 2359.29 -1.03799 3.31845 0
M  V30 25666 H 2358.61 -0.467305 3.9706 0
M  V30 25667 H 2360.05 -1.50615 3.96347 0
M  V30 25668 C 2358.51 -2.12665 2.61295 0
M  V30 25669 O 2359.04 -3.20843 2.41708 0
M  V30 25670 N 2357.25 -1.88795 2.20918 0
M  V30 25671 H 2356.8 -1.00825 2.37049 0
M  V30 25672 H 2356.75 -2.61833 1.74042 0
M  V30 25673 N 2360.53 -1.52973 0.379063 0
M  V30 25674 C 2361.75 -2.06341 -0.209317 0
M  V30 25675 C 2362.18 -1.24975 -1.4058 0
M  V30 25676 O 2361.53 -0.272186 -1.79245 0
M  V30 25677 C 2361.58 -3.56103 -0.567723 0
M  V30 25678 O 2360.69 -3.77378 -1.66312 0
M  V30 25679 H 2360.03 -0.663439 -0.0272802 0
M  V30 25680 H 2362.56 -1.97247 0.54357 0
M  V30 25681 H 2362.57 -3.99366 -0.834933 0
M  V30 25682 H 2361.24 -4.14765 0.307086 0
M  V30 25683 H 2359.82 -3.46008 -1.39042 0
M  V30 25684 N 2362 -0.108595 -1.57225 0
M  V30 25685 C 2362.94 0.882427 -2.10448 0
M  V30 25686 C 2363.91 1.26764 -1.01831 0
M  V30 25687 O 2365.1 1.37052 -1.29418 0
M  V30 25688 C 2362.23 2.17948 -2.59261 0
M  V30 25689 C 2361.27 1.94311 -3.79665 0
M  V30 25690 S 2362.1 1.16883 -5.22588 0
M  V30 25691 C 2363.26 2.47789 -5.74762 0
M  V30 25692 H 2363.49 0.429693 -2.94178 0
M  V30 25693 H 2361.03 0.104973 -1.54043 0
M  V30 25694 H 2362.98 2.92477 -2.88041 0
M  V30 25695 H 2361.65 2.6034 -1.75732 0
M  V30 25696 H 2360.84 2.90392 -4.11933 0
M  V30 25697 H 2360.44 1.27906 -3.51448 0
M  V30 25698 H 2362.73 3.43691 -5.83852 0
M  V30 25699 H 2363.68 2.20081 -6.7303 0
M  V30 25700 H 2364.08 2.5668 -5.02768 0
M  V30 25701 N 2363.48 1.56732 0.16515 0
M  V30 25702 C 2364.71 1.86844 0.90022 0
M  V30 25703 C 2365.13 0.695627 1.74765 0
M  V30 25704 O 2364.49 -0.355188 1.77787 0
M  V30 25705 C 2364.54 3.15416 1.74771 0
M  V30 25706 O 2363.64 2.98073 2.85002 0
M  V30 25707 H 2362.98 0.614396 0.251821 0
M  V30 25708 H 2365.51 2.03962 0.161433 0
M  V30 25709 H 2365.52 3.46978 2.1464 0
M  V30 25710 H 2364.2 4.00387 1.12529 0
M  V30 25711 H 2362.77 2.7788 2.48671 0
M  V30 25712 N 2364.96 -0.433911 1.51509 0
M  V30 25713 C 2366.18 -1.21 1.68445 0
M  V30 25714 C 2366.61 -1.84166 0.382669 0
M  V30 25715 O 2365.97 -1.68957 -0.65752 0
M  V30 25716 C 2366.02 -2.26722 2.80409 0
M  V30 25717 O 2365.12 -3.32288 2.44251 0
M  V30 25718 H 2364.46 -0.354353 0.561543 0
M  V30 25719 H 2366.99 -0.511989 1.9809 0
M  V30 25720 H 2367 -2.71452 3.04594 0
M  V30 25721 H 2365.68 -1.80126 3.7487 0
M  V30 25722 H 2364.25 -2.93011 2.30649 0
M  V30 25723 N 2366.44 -1.41713 -0.689577 0
M  V30 25724 C 2367.68 -1.42602 -1.45039 0
M  V30 25725 C 2368.04 -0.0364102 -1.92366 0
M  V30 25726 O 2367.33 0.938815 -1.67023 0
M  V30 25727 C 2367.53 -2.37252 -2.67294 0
M  V30 25728 C 2367.36 -3.85278 -2.31928 0
M  V30 25729 C 2366.13 -4.5392 -2.22002 0
M  V30 25730 C 2368.32 -4.76096 -1.94518 0
M  V30 25731 N 2366.31 -5.87046 -1.79584 0
M  V30 25732 C 2367.68 -5.98216 -1.62905 0
M  V30 25733 C 2369.73 -4.63687 -1.8138 0
M  V30 25734 C 2368.43 -7.09308 -1.19474 0
M  V30 25735 C 2370.46 -5.74747 -1.39354 0
M  V30 25736 C 2369.82 -6.95969 -1.08656 0
M  V30 25737 H 2365.92 -0.577023 -0.527796 0
M  V30 25738 H 2368.51 -1.7763 -0.797234 0
M  V30 25739 H 2366.68 -2.0431 -3.30321 0
M  V30 25740 H 2368.41 -2.2882 -3.33802 0
M  V30 25741 H 2365.16 -4.07936 -2.40593 0
M  V30 25742 H 2365.59 -6.57617 -1.6084 0
M  V30 25743 H 2370.23 -3.70458 -2.03766 0
M  V30 25744 H 2367.95 -8.02397 -0.958336 0
M  V30 25745 H 2371.53 -5.67152 -1.2973 0
M  V30 25746 H 2370.41 -7.80447 -0.766279 0
M  V30 25747 N 2367.92 0.924431 -1.2764 0
M  V30 25748 C 2369.14 1.71177 -1.17104 0
M  V30 25749 C 2369.57 1.8618 0.268101 0
M  V30 25750 O 2368.92 1.3642 1.19413 0
M  V30 25751 C 2368.97 3.08736 -1.86319 0
M  V30 25752 O 2368.08 3.9565 -1.16338 0
M  V30 25753 H 2367.42 0.524562 -0.4071 0
M  V30 25754 H 2369.95 1.15663 -1.68769 0
M  V30 25755 H 2369.96 3.59031 -1.93806 0
M  V30 25756 H 2368.63 2.97133 -2.91006 0
M  V30 25757 H 2367.21 3.54089 -1.16941 0
M  V30 25758 N 2369.39 1.09715 1.13139 0
M  V30 25759 C 2370.33 0.697094 2.18342 0
M  V30 25760 C 2371.34 -0.262523 1.60669 0
M  V30 25761 O 2372.53 -0.0481213 1.78435 0
M  V30 25762 C 2369.63 0.00690685 3.38899 0
M  V30 25763 C 2368.8 0.988816 4.26077 0
M  V30 25764 C 2367.86 0.331486 5.25155 0
M  V30 25765 O 2366.89 0.980025 5.607 0
M  V30 25766 N 2368.09 -0.913161 5.73273 0
M  V30 25767 H 2370.85 1.60221 2.53277 0
M  V30 25768 H 2368.41 0.984993 1.28489 0
M  V30 25769 H 2370.41 -0.44412 4.02256 0
M  V30 25770 H 2368.98 -0.800498 3.02177 0
M  V30 25771 H 2368.2 1.61832 3.5945 0
M  V30 25772 H 2369.48 1.65373 4.81175 0
M  V30 25773 H 2368.88 -1.45956 5.46547 0
M  V30 25774 H 2367.44 -1.30746 6.38552 0
M  V30 25775 N 2370.87 -1.30419 0.88479 0
M  V30 25776 C 2371.8 -2.30588 0.367614 0
M  V30 25777 C 2372.78 -1.60982 -0.549436 0
M  V30 25778 O 2373.97 -1.88592 -0.463327 0
M  V30 25779 C 2371.1 -3.44765 -0.418883 0
M  V30 25780 C 2370.05 -4.26066 0.406391 0
M  V30 25781 C 2369.38 -5.32294 -0.506699 0
M  V30 25782 C 2370.68 -4.95606 1.64841 0
M  V30 25783 H 2372.37 -2.74095 1.20467 0
M  V30 25784 H 2369.92 -1.31771 0.580718 0
M  V30 25785 H 2371.87 -4.13903 -0.791322 0
M  V30 25786 H 2370.6 -3.00062 -1.28958 0
M  V30 25787 H 2369.25 -3.58615 0.760967 0
M  V30 25788 H 2368.9 -4.83839 -1.3751 0
M  V30 25789 H 2368.6 -5.87585 0.041686 0
M  V30 25790 H 2370.13 -6.04288 -0.875658 0
M  V30 25791 H 2371.54 -5.57262 1.34656 0
M  V30 25792 H 2369.94 -5.60761 2.13698 0
M  V30 25793 H 2371.01 -4.21743 2.39292 0
M  V30 25794 N 2372.35 -0.645724 -1.43764 0
M  V30 25795 C 2373.6 -0.155767 -2.01499 0
M  V30 25796 C 2373.92 1.23197 -1.51154 0
M  V30 25797 O 2373.19 1.82146 -0.721076 0
M  V30 25798 H 2371.77 -0.0545948 -0.745002 0
M  V30 25799 H 2374.43 -0.835708 -1.76074 0
M  V30 25800 H 2373.53 -0.134631 -3.11809 0
M  V30 25801 N 2373.83 1.5277 -0.38717 0
M  V30 25802 C 2374.76 2.29307 0.440511 0
M  V30 25803 C 2375.74 1.32607 1.06533 0
M  V30 25804 O 2376.92 1.61499 1.0785 0
M  V30 25805 C 2374.05 3.09831 1.56914 0
M  V30 25806 C 2373.01 4.14397 1.07047 0
M  V30 25807 C 2372.33 4.83133 2.291 0
M  V30 25808 C 2373.63 5.22113 0.139923 0
M  V30 25809 H 2375.33 2.98744 -0.198079 0
M  V30 25810 H 2372.87 1.43675 -0.0967052 0
M  V30 25811 H 2374.83 3.62131 2.15497 0
M  V30 25812 H 2373.55 2.38123 2.23528 0
M  V30 25813 H 2372.21 3.63075 0.507183 0
M  V30 25814 H 2371.86 4.07975 2.94219 0
M  V30 25815 H 2371.56 5.53807 1.96396 0
M  V30 25816 H 2373.08 5.38236 2.8833 0
M  V30 25817 H 2374.5 5.69785 0.633878 0
M  V30 25818 H 2372.89 6.00021 -0.097254 0
M  V30 25819 H 2373.96 4.78056 -0.811795 0
M  V30 25820 N 2375.31 0.116931 1.57166 0
M  V30 25821 C 2376.55 -0.54468 1.97009 0
M  V30 25822 C 2376.91 -1.63979 0.998742 0
M  V30 25823 O 2378.11 -2.36015 1.28648 0
M  V30 25824 C 2376.38 -1.06553 3.41147 0
M  V30 25825 S 2377.94 -1.73596 4.03001 0
M  V30 25826 H 2374.76 -0.1771 0.68859 0
M  V30 25827 H 2377.36 0.201521 1.94459 0
M  V30 25828 H 2376.07 -0.257302 4.09593 0
M  V30 25829 H 2375.6 -1.84706 3.47343 0
M  V30 25830 H 2377.61 -3.02161 3.9359 0
M  V30 25831 N 2376.78 -1.56818 -0.156836 0
M  V30 25832 C 2377.75 -1.96624 -1.17777 0
M  V30 25833 C 2378.75 -0.851579 -1.36399 0
M  V30 25834 O 2379.94 -1.11838 -1.33559 0
M  V30 25835 C 2377.07 -2.27365 -2.54004 0
M  V30 25836 H 2378.26 -2.87997 -0.836513 0
M  V30 25837 H 2375.82 -1.511 -0.399823 0
M  V30 25838 H 2376.55 -1.38753 -2.93118 0
M  V30 25839 H 2376.34 -3.08627 -2.4185 0
M  V30 25840 H 2377.83 -2.59034 -3.27553 0
M  V30 25841 N 2378.26 0.425871 -1.51737 0
M  V30 25842 C 2379.21 1.51773 -1.73878 0
M  V30 25843 C 2380.18 1.55617 -0.580729 0
M  V30 25844 O 2381.36 1.7245 -0.816441 0
M  V30 25845 C 2378.5 2.89385 -1.88017 0
M  V30 25846 C 2377.62 2.94981 -3.15611 0
M  V30 25847 C 2376.75 4.23787 -3.20278 0
M  V30 25848 C 2375.79 4.23294 -4.42141 0
M  V30 25849 N 2374.93 5.43643 -4.44293 0
M  V30 25850 H 2379.77 1.32196 -2.67073 0
M  V30 25851 H 2377.31 0.641985 -1.32352 0
M  V30 25852 H 2379.26 3.69247 -1.94197 0
M  V30 25853 H 2377.89 3.07495 -0.982185 0
M  V30 25854 H 2376.95 2.07712 -3.18685 0
M  V30 25855 H 2378.26 2.90479 -4.05491 0
M  V30 25856 H 2377.41 5.12031 -3.25437 0
M  V30 25857 H 2376.15 4.30961 -2.28307 0
M  V30 25858 H 2375.16 3.33442 -4.37146 0
M  V30 25859 H 2376.38 4.17774 -5.35389 0
M  V30 25860 H 2374.33 5.51517 -3.55198 0
M  V30 25861 H 2374.24 5.41068 -5.27997 0
M  V30 25862 H 2375.51 6.33887 -4.5366 0
M  V30 25863 N 2379.74 1.42077 0.682052 0
M  V30 25864 C 2380.99 1.41454 1.43784 0
M  V30 25865 C 2381.3 0.0317418 1.95574 0
M  V30 25866 O 2382.51 -0.0970985 2.71326 0
M  V30 25867 C 2380.96 2.48784 2.60067 0
M  V30 25868 C 2380.57 3.93035 2.15006 0
M  V30 25869 C 2382.32 2.57317 3.37622 0
M  V30 25870 C 2380.22 4.91889 3.28328 0
M  V30 25871 H 2379.15 0.526091 0.540134 0
M  V30 25872 H 2381.8 1.67956 0.739128 0
M  V30 25873 H 2380.19 2.15435 3.32271 0
M  V30 25874 H 2381.36 4.35702 1.50002 0
M  V30 25875 H 2379.68 3.88286 1.50409 0
M  V30 25876 H 2382.27 3.28352 4.22006 0
M  V30 25877 H 2382.62 1.61435 3.83724 0
M  V30 25878 H 2383.15 2.89824 2.72483 0
M  V30 25879 H 2379.89 5.89222 2.87224 0
M  V30 25880 H 2379.41 4.5386 3.92137 0
M  V30 25881 H 2381.09 5.13272 3.93904 0
M  V30 25882 N 2381.22 -0.917649 1.28129 0
M  V30 25883 C 2382.13 -2.05284 1.1356 0
M  V30 25884 C 2383.15 -1.73885 0.063122 0
M  V30 25885 O 2384.32 -1.9956 0.271634 0
M  V30 25886 C 2381.39 -3.37468 0.794735 0
M  V30 25887 C 2380.45 -3.825 1.94916 0
M  V30 25888 C 2379.68 -5.08377 1.62446 0
M  V30 25889 O 2379.9 -5.67867 0.537005 0
M  V30 25890 O 2378.84 -5.49026 2.46686 0
M  V30 25891 H 2382.66 -2.20491 2.08848 0
M  V30 25892 H 2380.25 -1.03843 1.07411 0
M  V30 25893 H 2382.13 -4.16838 0.618417 0
M  V30 25894 H 2380.81 -3.23445 -0.128524 0
M  V30 25895 H 2379.71 -3.03974 2.1806 0
M  V30 25896 H 2381.05 -4.01081 2.85298 0
M  V30 25897 N 2382.7 -1.10314 -1.12555 0
M  V30 25898 C 2383.94 -0.844792 -1.84037 0
M  V30 25899 C 2384.27 0.629636 -1.84027 0
M  V30 25900 O 2383.53 1.4801 -1.28029 0
M  V30 25901 C 2383.83 -1.33675 -3.3146 0
M  V30 25902 C 2383.49 -2.82238 -3.51643 0
M  V30 25903 C 2382.15 -3.22808 -3.56859 0
M  V30 25904 C 2384.51 -3.7798 -3.5886 0
M  V30 25905 C 2381.83 -4.57874 -3.66836 0
M  V30 25906 C 2384.19 -5.12847 -3.70366 0
M  V30 25907 C 2382.85 -5.52993 -3.73838 0
M  V30 25908 H 2382.12 -0.309131 -0.673438 0
M  V30 25909 H 2384.77 -1.37952 -1.32822 0
M  V30 25910 H 2383.07 -0.722017 -3.8509 0
M  V30 25911 H 2384.77 -1.11335 -3.85234 0
M  V30 25912 H 2381.36 -2.49848 -3.48244 0
M  V30 25913 H 2385.54 -3.47744 -3.54101 0
M  V30 25914 H 2380.8 -4.88402 -3.67795 0
M  V30 25915 H 2384.97 -5.8688 -3.74893 0
M  V30 25916 H 2382.6 -6.57646 -3.81321 0
M  V30 25917 N 2384.18 1.29948 -0.891694 0
M  V30 25918 C 2385.11 2.3039 -0.379838 0
M  V30 25919 C 2386.09 1.61271 0.540891 0
M  V30 25920 O 2387.27 1.88835 0.453319 0
M  V30 25921 C 2384.4 3.44982 0.400593 0
M  V30 25922 C 2383.36 4.25845 -0.42898 0
M  V30 25923 C 2382.68 5.32555 0.478463 0
M  V30 25924 C 2383.98 4.94724 -1.67467 0
M  V30 25925 H 2385.68 2.73452 -1.21919 0
M  V30 25926 H 2383.22 1.31461 -0.587698 0
M  V30 25927 H 2385.17 4.14317 0.769361 0
M  V30 25928 H 2383.9 3.00742 1.27365 0
M  V30 25929 H 2382.56 3.58207 -0.779974 0
M  V30 25930 H 2382.21 4.84561 1.34943 0
M  V30 25931 H 2381.91 5.87555 -0.0728465 0
M  V30 25932 H 2383.43 6.04744 0.843599 0
M  V30 25933 H 2384.84 5.5654 -1.3761 0
M  V30 25934 H 2383.24 5.5962 -2.16668 0
M  V30 25935 H 2384.31 4.20468 -2.41525 0
M  V30 25936 N 2385.65 0.653339 1.4342 0
M  V30 25937 C 2386.88 0.172883 2.06678 0
M  V30 25938 C 2387.3 -1.1526 1.4865 0
M  V30 25939 O 2386.66 -1.71207 0.596487 0
M  V30 25940 C 2386.71 0.0953818 3.60474 0
M  V30 25941 O 2385.81 -0.942372 4.01489 0
M  V30 25942 H 2385.15 0.0949271 0.657179 0
M  V30 25943 H 2387.68 0.896297 1.83923 0
M  V30 25944 H 2387.69 -0.0879011 4.07905 0
M  V30 25945 H 2386.37 1.06298 4.02086 0
M  V30 25946 H 2384.95 -0.731867 3.65648 0
M  V30 25947 N 2387.13 -1.52563 0.395266 0
M  V30 25948 C 2388.08 -2.26625 -0.436996 0
M  V30 25949 C 2389.05 -1.28474 -1.05278 0
M  V30 25950 O 2390.23 -1.57313 -1.07968 0
M  V30 25951 C 2387.37 -3.08072 -1.55518 0
M  V30 25952 C 2386.49 -4.2116 -0.961671 0
M  V30 25953 C 2385.62 -4.89991 -2.0514 0
M  V30 25954 C 2384.66 -5.95063 -1.4341 0
M  V30 25955 N 2383.8 -6.57466 -2.46339 0
M  V30 25956 H 2388.64 -2.97321 0.201028 0
M  V30 25957 H 2386.17 -1.46681 0.11097 0
M  V30 25958 H 2388.13 -3.53588 -2.2143 0
M  V30 25959 H 2386.76 -2.39573 -2.16343 0
M  V30 25960 H 2385.81 -3.79915 -0.191981 0
M  V30 25961 H 2387.13 -4.96575 -0.470614 0
M  V30 25962 H 2386.28 -5.38841 -2.7881 0
M  V30 25963 H 2385.02 -4.14113 -2.57607 0
M  V30 25964 H 2384.02 -5.45545 -0.682678 0
M  V30 25965 H 2385.25 -6.72876 -0.917298 0
M  V30 25966 H 2383.2 -5.84426 -2.97964 0
M  V30 25967 H 2383.11 -7.28512 -2.02006 0
M  V30 25968 H 2384.38 -7.10959 -3.1962 0
M  V30 25969 N 2388.61 -0.125265 -1.57101 0
M  V30 25970 C 2389.52 0.836161 -2.19193 0
M  V30 25971 C 2390.54 1.28802 -1.16987 0
M  V30 25972 O 2391.71 1.34972 -1.49481 0
M  V30 25973 C 2388.78 2.06612 -2.78411 0
M  V30 25974 C 2387.84 1.66558 -3.95673 0
M  V30 25975 C 2387.07 2.8369 -4.52057 0
M  V30 25976 O 2387.29 3.99295 -4.07333 0
M  V30 25977 O 2386.23 2.60414 -5.42649 0
M  V30 25978 H 2390.05 0.337723 -3.01816 0
M  V30 25979 H 2387.64 0.100669 -1.4906 0
M  V30 25980 H 2389.52 2.78635 -3.16134 0
M  V30 25981 H 2388.2 2.5545 -1.98814 0
M  V30 25982 H 2387.1 0.916232 -3.62706 0
M  V30 25983 H 2388.44 1.22456 -4.76724 0
M  V30 25984 N 2390.09 1.56899 0.148518 0
M  V30 25985 C 2391 2.01414 1.2029 0
M  V30 25986 C 2392.01 0.929299 1.47105 0
M  V30 25987 O 2393.19 1.23866 1.58805 0
M  V30 25988 C 2390.25 2.38452 2.51678 0
M  V30 25989 C 2389.32 3.60876 2.32523 0
M  V30 25990 C 2388.55 3.96138 3.57646 0
M  V30 25991 O 2388.77 3.32081 4.63765 0
M  V30 25992 O 2387.71 4.89391 3.50399 0
M  V30 25993 H 2391.53 2.91417 0.854974 0
M  V30 25994 H 2389.12 1.45069 0.357126 0
M  V30 25995 H 2391 2.63141 3.29143 0
M  V30 25996 H 2389.67 1.51604 2.86003 0
M  V30 25997 H 2388.58 3.41376 1.53013 0
M  V30 25998 H 2389.91 4.48337 2.03113 0
M  V30 25999 N 2391.57 -0.417818 1.51961 0
M  V30 26000 C 2392.5 -1.52913 1.6939 0
M  V30 26001 C 2393.48 -1.5332 0.541446 0
M  V30 26002 O 2394.66 -1.72158 0.767726 0
M  V30 26003 C 2391.79 -2.91464 1.7253 0
M  V30 26004 C 2390.83 -3.09003 2.93972 0
M  V30 26005 S 2391.67 -2.83234 4.54466 0
M  V30 26006 C 2392.82 -4.2403 4.6038 0
M  V30 26007 H 2393.06 -1.37899 2.63384 0
M  V30 26008 H 2390.59 -0.60882 1.4189 0
M  V30 26009 H 2392.55 -3.71317 1.75025 0
M  V30 26010 H 2391.21 -3.03826 0.796787 0
M  V30 26011 H 2390.4 -4.10348 2.92627 0
M  V30 26012 H 2390 -2.37002 2.8932 0
M  V30 26013 H 2392.29 -5.17536 4.37222 0
M  V30 26014 H 2393.24 -4.30402 5.62281 0
M  V30 26015 H 2393.65 -4.08596 3.89499 0
M  V30 26016 N 2393.04 -1.42436 -0.674508 0
M  V30 26017 C 2394.29 -1.42639 -1.43173 0
M  V30 26018 C 2394.61 -0.0439335 -1.94951 0
M  V30 26019 O 2393.88 0.917577 -1.73082 0
M  V30 26020 H 2392.46 -0.525101 -0.531298 0
M  V30 26021 H 2395.12 -1.7786 -0.796975 0
M  V30 26022 H 2394.22 -2.12633 -2.2846 0
M  V30 26023 N 2394.52 0.910841 -1.28614 0
M  V30 26024 C 2395.77 1.65699 -1.15708 0
M  V30 26025 C 2396.09 1.92769 0.294126 0
M  V30 26026 O 2395.36 1.5459 1.20328 0
M  V30 26027 H 2393.94 0.614159 -0.425227 0
M  V30 26028 H 2396.6 1.09277 -1.61383 0
M  V30 26029 H 2395.7 2.61812 -1.69885 0
M  V30 26030 N 2396 1.10909 1.11969 0
M  V30 26031 C 2397.25 0.852852 1.83224 0
M  V30 26032 C 2397.57 -0.623309 1.8477 0
M  V30 26033 O 2396.84 -1.45267 1.31432 0
M  V30 26034 H 2395.42 0.312519 0.678484 0
M  V30 26035 H 2398.08 1.40036 1.35558 0
M  V30 26036 H 2397.18 1.2201 2.87263 0
M  V30 26037 N 2397.48 -1.29474 0.898573 0
M  V30 26038 C 2398.41 -2.30185 0.392051 0
M  V30 26039 C 2399.39 -1.61556 -0.532331 0
M  V30 26040 O 2400.57 -1.89073 -0.443298 0
M  V30 26041 C 2397.7 -3.4519 -0.382293 0
M  V30 26042 C 2396.66 -4.25611 0.451558 0
M  V30 26043 C 2395.98 -5.32801 -0.450214 0
M  V30 26044 C 2397.28 -4.93829 1.70088 0
M  V30 26045 H 2398.98 -2.72802 1.23367 0
M  V30 26046 H 2396.52 -1.31148 0.594661 0
M  V30 26047 H 2398.48 -4.14719 -0.747378 0
M  V30 26048 H 2397.2 -3.01413 -1.25769 0
M  V30 26049 H 2395.86 -3.57788 0.79896 0
M  V30 26050 H 2395.51 -4.8527 -1.32371 0
M  V30 26051 H 2395.21 -5.87508 0.104005 0
M  V30 26052 H 2396.73 -6.05183 -0.811516 0
M  V30 26053 H 2398.15 -5.55802 1.40559 0
M  V30 26054 H 2396.54 -5.58463 2.19633 0
M  V30 26055 H 2397.61 -4.19182 2.43752 0
M  V30 26056 N 2398.96 -0.660936 -1.43071 0
M  V30 26057 C 2400.37 -0.3292 -1.56168 0
M  V30 26058 C 2400.57 1.16626 -1.64319 0
M  V30 26059 O 2399.63 1.95132 -1.60249 0
M  V30 26060 C 2400.94 -1.04734 -2.81871 0
M  V30 26061 C 2402.49 -1.02833 -2.95625 0
M  V30 26062 C 2402.96 -1.72752 -4.24171 0
M  V30 26063 N 2404.46 -1.69553 -4.31052 0
M  V30 26064 C 2405.19 -2.20521 -5.293 0
M  V30 26065 N 2404.69 -2.7981 -6.33781 0
M  V30 26066 N 2406.48 -2.10975 -5.21005 0
M  V30 26067 H 2398.63 -1.63129 -1.36024 0
M  V30 26068 H 2400.89 -0.686466 -0.653811 0
M  V30 26069 H 2400.6 -2.10247 -2.81938 0
M  V30 26070 H 2400.47 -0.603768 -3.72337 0
M  V30 26071 H 2402.86 0.0184224 -2.95094 0
M  V30 26072 H 2402.94 -1.51066 -2.06428 0
M  V30 26073 H 2402.59 -2.77388 -4.25463 0
M  V30 26074 H 2402.52 -1.21979 -5.12278 0
M  V30 26075 H 2405.01 -1.26295 -3.56171 0
M  V30 26076 H 2405.32 -3.16357 -7.0508 0
M  V30 26077 H 2403.66 -2.83874 -6.34382 0
M  V30 26078 H 2406.86 -1.64355 -4.38298 0
M  V30 26079 H 2407.03 -2.51004 -5.97412 0
M  V30 26080 N 2400.43 1.52351 -0.403352 0
M  V30 26081 C 2401.85 1.59509 -0.0539561 0
M  V30 26082 C 2402.05 1.41655 1.43304 0
M  V30 26083 O 2401.11 1.24059 2.19922 0
M  V30 26084 C 2402.42 2.95744 -0.543706 0
M  V30 26085 C 2403.97 3.08961 -0.50118 0
M  V30 26086 C 2404.44 4.47668 -0.967345 0
M  V30 26087 N 2405.93 4.53892 -0.923929 0
M  V30 26088 C 2406.67 5.59478 -1.25588 0
M  V30 26089 N 2406.16 6.72643 -1.65901 0
M  V30 26090 N 2407.96 5.49656 -1.17623 0
M  V30 26091 H 2400.11 1.62204 -1.37126 0
M  V30 26092 H 2402.37 0.76275 -0.562953 0
M  V30 26093 H 2402.08 3.14071 -1.5828 0
M  V30 26094 H 2401.95 3.77167 0.0497379 0
M  V30 26095 H 2404.34 2.90322 0.528858 0
M  V30 26096 H 2404.42 2.29458 -1.1306 0
M  V30 26097 H 2404.06 4.67049 -1.99568 0
M  V30 26098 H 2403.99 5.25658 -0.31479 0
M  V30 26099 H 2406.48 3.72654 -0.627469 0
M  V30 26100 H 2406.8 7.49192 -1.89556 0
M  V30 26101 H 2405.14 6.73939 -1.69799 0
M  V30 26102 H 2408.33 4.60129 -0.860196 0
M  V30 26103 H 2408.51 6.31838 -1.43823 0
M  V30 26104 N 2401.91 0.133594 1.57033 0
M  V30 26105 C 2402.88 -0.796957 2.14898 0
M  V30 26106 C 2403.88 -1.18456 1.08742 0
M  V30 26107 O 2405.07 -1.10768 1.34447 0
M  V30 26108 C 2402.2 -2.07968 2.70115 0
M  V30 26109 H 2403.39 -0.29382 2.98457 0
M  V30 26110 H 2400.94 -0.115759 1.55871 0
M  V30 26111 H 2401.68 -2.62679 1.90185 0
M  V30 26112 H 2401.46 -1.81109 3.47767 0
M  V30 26113 H 2402.95 -2.74457 3.14743 0
M  V30 26114 N 2403.39 -1.56975 -0.140195 0
M  V30 26115 C 2404.64 -1.83992 -0.852917 0
M  V30 26116 C 2404.97 -0.716218 -1.8051 0
M  V30 26117 O 2404.24 0.279647 -1.92479 0
M  V30 26118 C 2404.53 -3.2153 -1.62144 0
M  V30 26119 C 2404.38 -4.44472 -0.690285 0
M  V30 26120 C 2405.7 -3.5637 -2.58241 0
M  V30 26121 H 2402.82 -0.669269 -0.308622 0
M  V30 26122 H 2405.46 -1.89634 -0.117865 0
M  V30 26123 H 2403.61 -3.16851 -2.24806 0
M  V30 26124 H 2405.28 -4.6124 -0.0741453 0
M  V30 26125 H 2403.53 -4.338 -0.000320181 0
M  V30 26126 H 2404.2 -5.37328 -1.26421 0
M  V30 26127 H 2406.67 -3.61703 -2.05694 0
M  V30 26128 H 2405.55 -4.53623 -3.09059 0
M  V30 26129 H 2405.81 -2.8268 -3.39918 0
M  V30 26130 N 2404.87 0.409753 -1.5218 0
M  V30 26131 C 2405.82 1.49921 -1.75478 0
M  V30 26132 C 2406.79 1.54993 -0.597202 0
M  V30 26133 O 2407.97 1.71574 -0.834685 0
M  V30 26134 C 2405.11 2.87375 -1.91076 0
M  V30 26135 C 2404.22 2.91617 -3.18722 0
M  V30 26136 C 2403.36 4.20366 -3.24755 0
M  V30 26137 C 2402.4 4.18581 -4.46606 0
M  V30 26138 N 2401.53 5.389 -4.50034 0
M  V30 26139 H 2406.37 1.29356 -2.6846 0
M  V30 26140 H 2403.91 0.627911 -1.33025 0
M  V30 26141 H 2405.87 3.67167 -1.98102 0
M  V30 26142 H 2404.5 3.06436 -1.01474 0
M  V30 26143 H 2403.55 2.0432 -3.2087 0
M  V30 26144 H 2404.86 2.86162 -4.08549 0
M  V30 26145 H 2404.02 5.0855 -3.3085 0
M  V30 26146 H 2402.76 4.28515 -2.32865 0
M  V30 26147 H 2401.76 3.28787 -4.40658 0
M  V30 26148 H 2402.99 4.12072 -5.3979 0
M  V30 26149 H 2400.93 5.47718 -3.61027 0
M  V30 26150 H 2400.85 5.35438 -5.33706 0
M  V30 26151 H 2402.12 6.2904 -4.60358 0
M  V30 26152 N 2406.35 1.42792 0.666944 0
M  V30 26153 C 2407.59 1.43893 1.42908 0
M  V30 26154 C 2407.93 0.0579313 1.94114 0
M  V30 26155 O 2407.2 -0.91908 1.71415 0
M  V30 26156 C 2407.48 2.46991 2.62044 0
M  V30 26157 C 2407.34 3.94313 2.16419 0
M  V30 26158 C 2408.66 2.46984 3.64262 0
M  V30 26159 H 2405.77 0.523963 0.518297 0
M  V30 26160 H 2408.42 1.74256 0.75729 0
M  V30 26161 H 2406.57 2.21231 3.19357 0
M  V30 26162 H 2408.24 4.31082 1.64213 0
M  V30 26163 H 2406.48 4.07802 1.47918 0
M  V30 26164 H 2407.15 4.62041 3.02029 0
M  V30 26165 H 2409.63 2.69911 3.16681 0
M  V30 26166 H 2408.5 3.21087 4.45191 0
M  V30 26167 H 2408.77 1.49864 4.15924 0
M  V30 26168 N 2407.82 -0.904008 1.29095 0
M  V30 26169 C 2408.76 -2.01264 1.09661 0
M  V30 26170 C 2409.77 -1.62737 0.0454015 0
M  V30 26171 O 2410.96 -1.76137 0.289477 0
M  V30 26172 C 2408.06 -3.3268 0.646337 0
M  V30 26173 C 2407.23 -3.9976 1.77512 0
M  V30 26174 C 2406.29 -5.09463 1.31658 0
M  V30 26175 O 2405.32 -5.3213 2.02054 0
M  V30 26176 N 2406.52 -5.80205 0.185099 0
M  V30 26177 H 2409.28 -2.18491 2.05139 0
M  V30 26178 H 2406.84 -1.07592 1.20977 0
M  V30 26179 H 2408.84 -4.03409 0.322977 0
M  V30 26180 H 2407.41 -3.11854 -0.215861 0
M  V30 26181 H 2406.63 -3.22451 2.26758 0
M  V30 26182 H 2407.91 -4.41321 2.53206 0
M  V30 26183 H 2407.31 -5.6427 -0.401922 0
M  V30 26184 H 2405.87 -6.51752 -0.0789213 0
M  V30 26185 N 2409.3 -1.11501 -1.11379 0
M  V30 26186 C 2410.54 -0.874221 -1.84761 0
M  V30 26187 C 2410.91 0.589464 -1.82727 0
M  V30 26188 O 2412.11 0.947044 -2.51564 0
M  V30 26189 C 2410.38 -1.42118 -3.27929 0
M  V30 26190 S 2411.94 -1.31747 -4.18555 0
M  V30 26191 H 2408.76 -0.315614 -0.63711 0
M  V30 26192 H 2411.36 -1.42263 -1.34095 0
M  V30 26193 H 2410.06 -2.48025 -3.26974 0
M  V30 26194 H 2409.59 -0.869829 -3.83663 0
M  V30 26195 H 2411.61 -0.282422 -4.95396 0
M  V30 26196 N 2410.78 1.28995 -0.905426 0
M  V30 26197 C 2412.01 1.99459 -0.549881 0
M  V30 26198 C 2412.42 1.67726 0.866804 0
M  V30 26199 O 2411.78 0.925432 1.57296 0
M  V30 26200 C 2411.83 3.53856 -0.739449 0
M  V30 26201 O 2411.55 3.84468 -2.10038 0
M  V30 26202 C 2413.05 4.41584 -0.389619 0
M  V30 26203 H 2410.27 0.637147 -0.21044 0
M  V30 26204 H 2412.82 1.64394 -1.21635 0
M  V30 26205 H 2410.97 3.87214 -0.120091 0
M  V30 26206 H 2411.39 4.79128 -2.13393 0
M  V30 26207 H 2412.86 5.49017 -0.573068 0
M  V30 26208 H 2413.34 4.34003 0.67368 0
M  V30 26209 H 2413.94 4.13709 -0.986162 0
M  V30 26210 N 2412.26 0.668514 1.42719 0
M  V30 26211 C 2413.51 0.197111 2.02443 0
M  V30 26212 C 2413.86 -1.18106 1.51884 0
M  V30 26213 O 2413.15 -1.78013 0.708649 0
M  V30 26214 C 2413.35 0.164562 3.57021 0
M  V30 26215 C 2413.18 1.53804 4.22581 0
M  V30 26216 C 2411.95 2.13425 4.58015 0
M  V30 26217 C 2414.14 2.47949 4.50584 0
M  V30 26218 N 2412.13 3.43619 5.08723 0
M  V30 26219 C 2413.5 3.62791 5.02775 0
M  V30 26220 C 2415.55 2.46558 4.32566 0
M  V30 26221 C 2414.26 4.76487 5.38844 0
M  V30 26222 C 2416.28 3.59346 4.69706 0
M  V30 26223 C 2415.64 4.72915 5.22044 0
M  V30 26224 H 2411.74 0.116907 0.773212 0
M  V30 26225 H 2414.33 0.880138 1.73671 0
M  V30 26226 H 2412.5 -0.487857 3.85324 0
M  V30 26227 H 2414.23 -0.319137 4.0344 0
M  V30 26228 H 2410.98 1.65977 4.43563 0
M  V30 26229 H 2411.41 4.10283 5.38514 0
M  V30 26230 H 2416.05 1.59985 3.91363 0
M  V30 26231 H 2413.77 5.63741 5.78983 0
M  V30 26232 H 2417.35 3.5949 4.57447 0
M  V30 26233 H 2416.23 5.58746 5.50248 0
M  V30 26234 N 2413.74 -1.52135 0.411426 0
M  V30 26235 C 2414.96 -2.06739 -0.165502 0
M  V30 26236 C 2415.39 -1.27929 -1.37898 0
M  V30 26237 O 2414.75 -0.310146 -1.78628 0
M  V30 26238 C 2414.79 -3.57227 -0.492061 0
M  V30 26239 O 2413.9 -3.80821 -1.5827 0
M  V30 26240 H 2413.24 -0.663869 -0.0132016 0
M  V30 26241 H 2415.77 -1.9605 0.585287 0
M  V30 26242 H 2415.78 -4.01047 -0.750033 0
M  V30 26243 H 2414.45 -4.1402 0.394995 0
M  V30 26244 H 2413.03 -3.4888 -1.31671 0
M  V30 26245 N 2415.22 -0.14192 -1.5696 0
M  V30 26246 C 2416.13 0.812866 -2.20067 0
M  V30 26247 C 2417.14 1.27554 -1.18346 0
M  V30 26248 O 2418.32 1.33379 -1.50904 0
M  V30 26249 C 2415.38 2.03647 -2.80586 0
M  V30 26250 C 2414.44 1.62352 -3.97417 0
M  V30 26251 C 2413.68 2.78879 -4.55041 0
M  V30 26252 O 2413.9 3.94952 -4.11545 0
M  V30 26253 O 2412.83 2.54644 -5.45381 0
M  V30 26254 H 2416.66 0.305693 -3.02158 0
M  V30 26255 H 2414.24 0.0848537 -1.49159 0
M  V30 26256 H 2416.13 2.75266 -3.19071 0
M  V30 26257 H 2414.8 2.53327 -2.01512 0
M  V30 26258 H 2413.71 0.877711 -3.63658 0
M  V30 26259 H 2415.04 1.17393 -4.77996 0
M  V30 26260 N 2416.69 1.57047 0.131868 0
M  V30 26261 C 2417.64 1.95818 1.16787 0
M  V30 26262 C 2418.63 0.831417 1.37754 0
M  V30 26263 O 2419.82 1.09501 1.39063 0
M  V30 26264 C 2416.95 2.35516 2.49774 0
M  V30 26265 C 2416.03 3.54797 2.32336 0
M  V30 26266 N 2416.43 4.70878 1.84682 0
M  V30 26267 C 2414.72 3.60178 2.63036 0
M  V30 26268 C 2415.42 5.52939 1.80646 0
M  V30 26269 N 2414.4 4.95068 2.24519 0
M  V30 26270 H 2418.2 2.83034 0.791768 0
M  V30 26271 H 2415.72 1.58806 0.339763 0
M  V30 26272 H 2417.71 2.61503 3.24687 0
M  V30 26273 H 2416.37 1.49659 2.88153 0
M  V30 26274 H 2417.38 4.94343 1.5442 0
M  V30 26275 H 2414.06 2.84897 3.05188 0
M  V30 26276 H 2415.45 6.56031 1.45166 0
M  V30 26277 N 2418.17 -0.401677 1.52395 0
M  V30 26278 C 2419.45 -1.16138 1.57389 0
M  V30 26279 C 2419.83 -2.08018 0.359395 0
M  V30 26280 O 2419.18 -2.18964 -0.653221 0
M  V30 26281 C 2419.39 -1.93216 2.90635 0
M  V30 26282 C 2420.73 -2.49022 3.43909 0
M  V30 26283 O 2421.76 -2.03388 2.92424 0
M  V30 26284 O 2420.62 -3.32348 4.33828 0
M  V30 26285 H 2417.71 -0.530687 0.634272 0
M  V30 26286 H 2420.26 -0.407854 1.64726 0
M  V30 26287 H 2419.03 -1.25952 3.70475 0
M  V30 26288 H 2418.65 -2.75557 2.86625 0
M  V30 26289 N 2419.65 -1.43144 -0.659362 0
M  V30 26290 C 2420.9 -1.43723 -1.41515 0
M  V30 26291 C 2421.21 -0.062852 -1.95499 0
M  V30 26292 O 2422.42 0.0539206 -2.71446 0
M  V30 26293 C 2420.87 -2.5289 -2.56076 0
M  V30 26294 C 2420.48 -3.96406 -2.08726 0
M  V30 26295 C 2422.23 -2.62655 -3.33485 0
M  V30 26296 C 2420.13 -4.9705 -3.20461 0
M  V30 26297 H 2419.06 -0.534618 -0.531696 0
M  V30 26298 H 2421.71 -1.6911 -0.712314 0
M  V30 26299 H 2420.1 -2.20693 -3.28801 0
M  V30 26300 H 2421.27 -4.38033 -1.43052 0
M  V30 26301 H 2419.58 -3.9063 -1.44212 0
M  V30 26302 H 2422.18 -3.35025 -4.16729 0
M  V30 26303 H 2422.52 -1.6752 -3.81107 0
M  V30 26304 H 2423.06 -2.94123 -2.67837 0
M  V30 26305 H 2419.8 -5.93717 -2.77814 0
M  V30 26306 H 2419.32 -4.60041 -3.84866 0
M  V30 26307 H 2421 -5.19474 -3.85689 0
M  V30 26308 N 2421.13 0.897149 -1.29572 0
M  V30 26309 C 2422.06 2.01796 -1.17476 0
M  V30 26310 C 2423.04 1.69963 -0.0683529 0
M  V30 26311 O 2424.22 1.92606 -0.248273 0
M  V30 26312 C 2421.35 3.36658 -0.853158 0
M  V30 26313 C 2420.31 3.8271 -1.91617 0
M  V30 26314 C 2419.63 5.14726 -1.44782 0
M  V30 26315 C 2420.93 4.02757 -3.32542 0
M  V30 26316 H 2422.63 2.12174 -2.11241 0
M  V30 26317 H 2420.17 1.01946 -1.01701 0
M  V30 26318 H 2422.13 4.14577 -0.755238 0
M  V30 26319 H 2420.85 3.26379 0.120179 0
M  V30 26320 H 2419.51 3.07009 -2.00352 0
M  V30 26321 H 2419.16 5.00864 -0.463083 0
M  V30 26322 H 2418.86 5.46509 -2.15875 0
M  V30 26323 H 2420.38 5.95183 -1.36345 0
M  V30 26324 H 2421.8 4.71151 -3.26634 0
M  V30 26325 H 2420.19 4.45898 -4.01615 0
M  V30 26326 H 2421.26 3.07009 -3.75331 0
M  V30 26327 N 2422.61 1.1209 1.10786 0
M  V30 26328 C 2423.55 0.785445 2.17024 0
M  V30 26329 C 2424.52 -0.246162 1.64266 0
M  V30 26330 O 2425.71 -0.121551 1.90412 0
M  V30 26331 C 2422.85 0.242237 3.44249 0
M  V30 26332 C 2421.96 1.33122 4.10977 0
M  V30 26333 C 2421.1 0.747833 5.2591 0
M  V30 26334 C 2420.13 1.81619 5.84535 0
M  V30 26335 N 2419.27 1.25179 6.90851 0
M  V30 26336 H 2424.11 1.69553 2.45063 0
M  V30 26337 H 2421.65 0.846603 1.20296 0
M  V30 26338 H 2423.61 -0.0907293 4.17101 0
M  V30 26339 H 2422.24 -0.631016 3.16572 0
M  V30 26340 H 2421.29 1.78103 3.3613 0
M  V30 26341 H 2422.6 2.13925 4.50597 0
M  V30 26342 H 2421.75 0.365322 6.05599 0
M  V30 26343 H 2420.49 -0.0914331 4.87614 0
M  V30 26344 H 2419.5 2.20794 5.03518 0
M  V30 26345 H 2420.72 2.65861 6.24896 0
M  V30 26346 H 2418.67 0.434289 6.54561 0
M  V30 26347 H 2418.59 1.99645 7.29162 0
M  V30 26348 H 2419.85 0.896395 7.74329 0
M  V30 26349 N 2424.08 -1.28513 0.912254 0
M  V30 26350 C 2425.31 -1.99702 0.559809 0
M  V30 26351 C 2425.73 -1.6773 -0.851364 0
M  V30 26352 O 2425.09 -0.908862 -1.56874 0
M  V30 26353 C 2425.14 -3.52197 0.773936 0
M  V30 26354 O 2424.24 -4.12059 -0.16777 0
M  V30 26355 H 2423.58 -0.627457 0.217241 0
M  V30 26356 H 2426.11 -1.63704 1.22728 0
M  V30 26357 H 2426.12 -4.02235 0.683457 0
M  V30 26358 H 2424.8 -3.74802 1.80268 0
M  V30 26359 H 2423.38 -3.72889 -0.0286853 0
M  V30 26360 N 2425.56 -0.676073 -1.42362 0
M  V30 26361 C 2426.81 -0.198473 -2.01123 0
M  V30 26362 C 2427.13 1.19963 -1.53733 0
M  V30 26363 O 2426.4 1.80576 -0.759549 0
M  V30 26364 H 2424.98 -0.0703852 -0.743677 0
M  V30 26365 H 2427.64 -0.872867 -1.74261 0
M  V30 26366 H 2426.74 -0.200741 -3.11454 0
M  V30 26367 N 2427.04 1.51915 -0.419488 0
M  V30 26368 C 2427.99 2.24127 0.418457 0
M  V30 26369 C 2428.97 1.25658 1.00493 0
M  V30 26370 O 2430.17 1.50843 0.926031 0
M  V30 26371 C 2427.3 3.07374 1.52893 0
M  V30 26372 C 2426.38 4.1326 0.952724 0
M  V30 26373 N 2426.77 5.05693 0.104086 0
M  V30 26374 C 2425.07 4.28928 1.22217 0
M  V30 26375 C 2425.77 5.81293 -0.217622 0
M  V30 26376 N 2424.75 5.42169 0.394198 0
M  V30 26377 H 2428.55 2.9295 -0.2361 0
M  V30 26378 H 2426.06 1.60756 -0.230509 0
M  V30 26379 H 2428.06 3.57669 2.14193 0
M  V30 26380 H 2426.72 2.40091 2.18601 0
M  V30 26381 H 2427.73 5.17242 -0.261015 0
M  V30 26382 H 2424.41 3.72874 1.87806 0
M  V30 26383 H 2425.8 6.65749 -0.907109 0
M  V30 26384 N 2428.52 0.150242 1.56882 0
M  V30 26385 C 2429.45 -0.784245 2.19936 0
M  V30 26386 C 2430.43 -1.25467 1.14856 0
M  V30 26387 O 2431.61 -1.31165 1.43211 0
M  V30 26388 C 2428.74 -2.02224 2.82352 0
M  V30 26389 C 2427.7 -1.68846 3.93287 0
M  V30 26390 C 2427.02 -2.99936 4.42654 0
M  V30 26391 C 2428.32 -0.932623 5.13906 0
M  V30 26392 H 2430.02 -0.258729 2.9828 0
M  V30 26393 H 2427.56 -0.123004 1.43474 0
M  V30 26394 H 2429.52 -2.68082 3.25131 0
M  V30 26395 H 2428.24 -2.57154 2.01345 0
M  V30 26396 H 2426.9 -1.05365 3.51132 0
M  V30 26397 H 2426.55 -3.52863 3.58464 0
M  V30 26398 H 2426.25 -2.78365 5.17481 0
M  V30 26399 H 2427.77 -3.66859 4.88105 0
M  V30 26400 H 2429.19 -1.49336 5.53509 0
M  V30 26401 H 2427.58 -0.816735 5.94516 0
M  V30 26402 H 2428.65 0.0750421 4.84842 0
M  V30 26403 N 2430 -1.57115 -0.123538 0
M  V30 26404 C 2431.23 -1.8852 -0.8452 0
M  V30 26405 C 2431.63 -0.739095 -1.74167 0
M  V30 26406 O 2430.98 0.299323 -1.81245 0
M  V30 26407 C 2431.04 -3.14891 -1.73446 0
M  V30 26408 C 2430.7 -4.45637 -1.01277 0
M  V30 26409 C 2431.7 -5.18682 -0.355683 0
M  V30 26410 C 2429.39 -4.92341 -0.995293 0
M  V30 26411 C 2431.38 -6.36649 0.309226 0
M  V30 26412 C 2429.07 -6.10227 -0.326583 0
M  V30 26413 C 2430.06 -6.82229 0.324526 0
M  V30 26414 O 2429.75 -7.97873 0.982578 0
M  V30 26415 H 2429.48 -0.628659 -0.248523 0
M  V30 26416 H 2432.04 -2.05084 -0.113871 0
M  V30 26417 H 2430.27 -2.94398 -2.50732 0
M  V30 26418 H 2431.96 -3.32354 -2.33015 0
M  V30 26419 H 2432.72 -4.83656 -0.360833 0
M  V30 26420 H 2428.6 -4.36205 -1.49151 0
M  V30 26421 H 2432.15 -6.92787 0.818022 0
M  V30 26422 H 2428.04 -6.4471 -0.319181 0
M  V30 26423 H 2428.81 -8.13684 0.886597 0
M  V30 26424 N 2431.47 0.393589 -1.52606 0
M  V30 26425 C 2432.72 1.13624 -1.66651 0
M  V30 26426 C 2433.04 1.91246 -0.410397 0
M  V30 26427 O 2434.24 2.68059 -0.430901 0
M  V30 26428 C 2432.7 2.06886 -2.94493 0
M  V30 26429 C 2432.31 1.34707 -4.27268 0
M  V30 26430 C 2434.05 2.81314 -3.17904 0
M  V30 26431 C 2431.96 2.26708 -5.46221 0
M  V30 26432 H 2430.89 0.427861 -0.620847 0
M  V30 26433 H 2433.54 0.399396 -1.79101 0
M  V30 26434 H 2431.92 2.84186 -2.75779 0
M  V30 26435 H 2433.09 0.626634 -4.56519 0
M  V30 26436 H 2431.41 0.722571 -4.10083 0
M  V30 26437 H 2434.01 3.50321 -4.03955 0
M  V30 26438 H 2434.35 3.45135 -2.32783 0
M  V30 26439 H 2434.88 2.11107 -3.37162 0
M  V30 26440 H 2431.62 1.67509 -6.33736 0
M  V30 26441 H 2431.14 2.9668 -5.21288 0
M  V30 26442 H 2432.82 2.86893 -5.79915 0
M  V30 26443 N 2432.95 1.43492 0.651762 0
M  V30 26444 C 2434.2 1.44472 1.40751 0
M  V30 26445 C 2434.51 0.0732189 1.95463 0
M  V30 26446 O 2435.72 -0.0395244 2.71471 0
M  V30 26447 C 2434.18 2.54244 2.54731 0
M  V30 26448 C 2433.78 3.97507 2.06621 0
M  V30 26449 C 2435.53 2.6442 3.32088 0
M  V30 26450 C 2433.44 4.98743 3.1782 0
M  V30 26451 H 2432.37 0.53743 0.528853 0
M  V30 26452 H 2435.02 1.69486 0.703335 0
M  V30 26453 H 2433.4 2.22434 3.27626 0
M  V30 26454 H 2434.57 4.38785 1.40727 0
M  V30 26455 H 2432.89 3.91389 1.42139 0
M  V30 26456 H 2435.48 3.3723 4.14946 0
M  V30 26457 H 2435.83 1.69538 3.80214 0
M  V30 26458 H 2436.36 2.95539 2.66274 0
M  V30 26459 H 2433.1 5.95182 2.74661 0
M  V30 26460 H 2432.62 4.62076 3.82421 0
M  V30 26461 H 2434.3 5.21512 3.82928 0
M  V30 26462 N 2434.43 -0.890264 1.30046 0
M  V30 26463 C 2435.38 -1.99543 1.15979 0
M  V30 26464 C 2436.35 -1.66023 0.0506494 0
M  V30 26465 O 2437.53 -1.89529 0.219881 0
M  V30 26466 C 2434.67 -3.34414 0.852113 0
M  V30 26467 C 2433.79 -3.80659 2.04262 0
M  V30 26468 C 2432.92 -5.04151 1.67349 0
M  V30 26469 C 2431.96 -5.42789 2.82925 0
M  V30 26470 N 2431.1 -6.57464 2.46345 0
M  V30 26471 H 2435.94 -2.10907 2.10528 0
M  V30 26472 H 2433.47 -1.03274 1.04751 0
M  V30 26473 H 2435.43 -4.12036 0.654369 0
M  V30 26474 H 2434.06 -3.22751 -0.0564935 0
M  V30 26475 H 2433.11 -2.98991 2.35177 0
M  V30 26476 H 2434.43 -4.05237 2.90834 0
M  V30 26477 H 2433.58 -5.89383 1.43918 0
M  V30 26478 H 2432.32 -4.81432 0.779393 0
M  V30 26479 H 2431.32 -4.56086 3.07028 0
M  V30 26480 H 2432.55 -5.67484 3.73014 0
M  V30 26481 H 2430.49 -6.36331 1.59434 0
M  V30 26482 H 2430.41 -6.81885 3.26448 0
M  V30 26483 H 2431.68 -7.45941 2.26257 0
M  V30 26484 N 2435.91 -1.12676 -1.1019 0
M  V30 26485 C 2437.13 -0.906886 -1.86522 0
M  V30 26486 C 2437.56 0.538679 -1.80222 0
M  V30 26487 O 2436.92 1.38156 -1.17399 0
M  V30 26488 C 2436.96 -1.38946 -3.32756 0
M  V30 26489 O 2436.07 -0.569572 -4.08448 0
M  V30 26490 H 2435.41 -0.325629 -0.578672 0
M  V30 26491 H 2437.94 -1.49948 -1.392 0
M  V30 26492 H 2437.95 -1.38965 -3.83605 0
M  V30 26493 H 2436.62 -2.44203 -3.36657 0
M  V30 26494 H 2435.2 -0.636593 -3.67426 0
M  V30 26495 N 2437.39 1.28028 -0.919057 0
M  V30 26496 C 2438.63 1.94747 -0.554969 0
M  V30 26497 C 2438.96 1.72305 0.90228 0
M  V30 26498 O 2438.22 1.04021 1.65766 0
M  V30 26499 C 2438.52 3.47939 -0.816917 0
M  V30 26500 C 2438.18 3.90488 -2.25455 0
M  V30 26501 C 2436.84 4.01816 -2.64759 0
M  V30 26502 C 2439.2 4.12188 -3.18984 0
M  V30 26503 C 2436.52 4.32225 -3.96734 0
M  V30 26504 C 2438.88 4.44078 -4.5053 0
M  V30 26505 C 2437.54 4.53618 -4.89681 0
M  V30 26506 H 2436.81 0.712629 -0.203077 0
M  V30 26507 H 2439.46 1.52263 -1.16139 0
M  V30 26508 H 2437.76 3.91592 -0.127746 0
M  V30 26509 H 2439.46 3.97688 -0.514308 0
M  V30 26510 H 2436.05 3.82202 -1.93958 0
M  V30 26511 H 2440.23 4.02884 -2.89824 0
M  V30 26512 H 2435.49 4.37818 -4.26762 0
M  V30 26513 H 2439.66 4.59816 -5.23013 0
M  V30 26514 H 2437.29 4.76935 -5.91977 0
M  V30 26515 N 2438.86 0.683613 1.42002 0
M  V30 26516 C 2439.79 0.024907 2.33487 0
M  V30 26517 C 2440.78 -0.779948 1.51165 0
M  V30 26518 O 2441.96 -0.735331 1.7974 0
M  V30 26519 C 2439.09 -0.920777 3.34872 0
M  V30 26520 C 2438.04 -0.223883 4.27414 0
M  V30 26521 C 2437.37 -1.28311 5.19076 0
M  V30 26522 C 2438.67 0.90251 5.14443 0
M  V30 26523 H 2440.36 0.788972 2.88818 0
M  V30 26524 H 2437.91 0.380854 1.38872 0
M  V30 26525 H 2439.86 -1.39074 3.97789 0
M  V30 26526 H 2438.59 -1.71637 2.77864 0
M  V30 26527 H 2437.25 0.225928 3.65903 0
M  V30 26528 H 2436.89 -2.07092 4.58391 0
M  V30 26529 H 2436.59 -0.821893 5.81824 0
M  V30 26530 H 2438.12 -1.75382 5.8487 0
M  V30 26531 H 2439.53 0.513372 5.70997 0
M  V30 26532 H 2437.93 1.29007 5.86069 0
M  V30 26533 H 2439 1.74745 4.52319 0
M  V30 26534 N 2440.34 -1.5169 0.427538 0
M  V30 26535 C 2441.75 -1.86662 -0.0378539 0
M  V30 26536 C 2442.11 -1.34528 -1.42817 0
M  V30 26537 O 2441.23 -0.69205 -2.05036 0
M  V30 26538 C 2441.83 -3.38716 -0.0754671 0
M  V30 26539 C 2440.38 -3.73259 -0.485243 0
M  V30 26540 C 2439.53 -2.75348 0.328447 0
M  V30 26541 H 2442.48 -1.45054 0.643815 0
M  V30 26542 H 2442.5 -3.70017 -0.886991 0
M  V30 26543 H 2442.02 -3.7663 0.936554 0
M  V30 26544 H 2440.12 -3.40931 -1.50323 0
M  V30 26545 H 2440.23 -4.78609 -0.216846 0
M  V30 26546 H 2438.59 -2.53817 -0.211861 0
M  V30 26547 H 2439.38 -3.16103 1.33916 0
M  V30 26548 N 2441.82 -0.15856 -1.568 0
M  V30 26549 C 2442.73 0.789479 -2.20917 0
M  V30 26550 C 2443.75 1.26292 -1.19693 0
M  V30 26551 O 2444.92 1.3177 -1.52311 0
M  V30 26552 C 2441.99 2.0066 -2.82731 0
M  V30 26553 C 2441.05 1.58127 -3.99117 0
M  V30 26554 C 2440.28 2.74037 -4.57973 0
M  V30 26555 O 2440.51 3.90565 -4.15711 0
M  V30 26556 O 2439.44 2.48845 -5.48051 0
M  V30 26557 H 2443.27 0.273628 -3.02465 0
M  V30 26558 H 2440.85 0.0690286 -1.4924 0
M  V30 26559 H 2442.73 2.71866 -3.21973 0
M  V30 26560 H 2441.41 2.51175 -2.04188 0
M  V30 26561 H 2440.31 0.83909 -3.64568 0
M  V30 26562 H 2441.65 1.12316 -4.79214 0
M  V30 26563 N 2443.3 1.57178 0.115204 0
M  V30 26564 C 2444.55 1.85326 0.823537 0
M  V30 26565 C 2444.88 0.744845 1.79348 0
M  V30 26566 O 2444.15 -0.24899 1.929 0
M  V30 26567 C 2444.44 3.24068 1.57008 0
M  V30 26568 C 2444.29 4.45514 0.619486 0
M  V30 26569 C 2445.61 3.60433 2.52539 0
M  V30 26570 H 2442.73 0.674094 0.297936 0
M  V30 26571 H 2445.37 1.89798 0.0876805 0
M  V30 26572 H 2443.52 3.20387 2.19737 0
M  V30 26573 H 2445.19 4.613 0.000756553 0
M  V30 26574 H 2443.43 4.33746 -0.0686937 0
M  V30 26575 H 2444.11 5.39272 1.17856 0
M  V30 26576 H 2446.58 3.6493 1.99914 0
M  V30 26577 H 2445.46 4.58482 3.01803 0
M  V30 26578 H 2445.72 2.88052 3.35378 0
M  V30 26579 N 2444.78 -0.38549 1.52813 0
M  V30 26580 C 2446.02 -1.13185 1.68277 0
M  V30 26581 C 2446.36 -1.89532 0.423212 0
M  V30 26582 O 2445.63 -1.8568 -0.57908 0
M  V30 26583 C 2445.91 -2.10725 2.92005 0
M  V30 26584 C 2445.77 -1.38118 4.28069 0
M  V30 26585 C 2447.09 -3.11107 3.11288 0
M  V30 26586 H 2444.21 -0.410104 0.612359 0
M  V30 26587 H 2446.85 -0.414836 1.85416 0
M  V30 26588 H 2445 -2.7187 2.77523 0
M  V30 26589 H 2446.67 -0.799107 4.54326 0
M  V30 26590 H 2444.91 -0.683017 4.28389 0
M  V30 26591 H 2445.58 -2.09408 5.10737 0
M  V30 26592 H 2448.06 -2.60055 3.24824 0
M  V30 26593 H 2446.94 -3.76598 3.99331 0
M  V30 26594 H 2447.2 -3.80169 2.25663 0
M  V30 26595 N 2446.26 -1.43835 -0.644143 0
M  V30 26596 C 2447.2 -1.49978 -1.77791 0
M  V30 26597 C 2448.2 -0.372565 -1.65252 0
M  V30 26598 O 2449.4 -0.546954 -1.71489 0
M  V30 26599 H 2445.78 -0.47036 -0.586741 0
M  V30 26600 H 2447.75 -2.45426 -1.69731 0
M  V30 26601 C 2446.5 -1.44865 -3.16084 0
M  V30 26602 H 2445.82 -2.30911 -3.26374 0
M  V30 26603 H 2447.26 -1.53224 -3.95346 0
M  V30 26604 C 2445.72 -0.167522 -3.36483 0
M  V30 26605 O 2446.25 0.76754 -3.94299 0
M  V30 26606 N 2444.46 -0.0748066 -2.90504 0
M  V30 26607 H 2444 -0.83655 -2.43638 0
M  V30 26608 H 2443.96 0.781661 -3.04528 0
M  V30 26609 N 2447.73 0.883355 -1.30517 0
M  V30 26610 C 2448.96 1.66839 -1.22362 0
M  V30 26611 C 2449.38 1.87592 0.213263 0
M  V30 26612 O 2448.73 1.42456 1.14072 0
M  V30 26613 C 2448.78 3.04386 -1.95017 0
M  V30 26614 O 2448.51 2.84569 -3.33095 0
M  V30 26615 C 2450.01 3.9882 -1.93539 0
M  V30 26616 H 2447.23 0.520567 -0.42338 0
M  V30 26617 H 2449.77 1.10354 -1.72169 0
M  V30 26618 H 2447.93 3.57598 -1.49004 0
M  V30 26619 H 2448.34 3.71839 -3.69913 0
M  V30 26620 H 2449.81 4.92694 -2.48911 0
M  V30 26621 H 2450.29 4.29569 -0.914702 0
M  V30 26622 H 2450.9 3.51542 -2.3937 0
M  V30 26623 N 2449.21 1.13259 1.09591 0
M  V30 26624 C 2450.46 0.904553 1.8218 0
M  V30 26625 C 2450.81 -0.563326 1.83968 0
M  V30 26626 O 2450.11 -1.41147 1.29569 0
M  V30 26627 C 2450.3 1.42416 3.27799 0
M  V30 26628 C 2450.13 2.94103 3.40196 0
M  V30 26629 C 2448.9 3.6243 3.52098 0
M  V30 26630 C 2451.1 3.9205 3.32868 0
M  V30 26631 N 2449.08 5.02146 3.53161 0
M  V30 26632 C 2450.45 5.17947 3.4078 0
M  V30 26633 C 2452.5 3.8434 3.16524 0
M  V30 26634 C 2451.21 6.37037 3.34031 0
M  V30 26635 C 2453.23 5.02962 3.11101 0
M  V30 26636 C 2452.6 6.27721 3.19602 0
M  V30 26637 H 2448.69 0.384385 0.681008 0
M  V30 26638 H 2451.28 1.4405 1.30987 0
M  V30 26639 H 2449.45 0.915152 3.77465 0
M  V30 26640 H 2451.18 1.13729 3.88391 0
M  V30 26641 H 2447.94 3.12945 3.55474 0
M  V30 26642 H 2448.36 5.75047 3.57281 0
M  V30 26643 H 2453 2.88771 3.08822 0
M  V30 26644 H 2450.72 7.32863 3.40497 0
M  V30 26645 H 2454.31 4.98734 2.99593 0
M  V30 26646 H 2453.19 7.17969 3.1542 0
M  V30 26647 N 2450.69 -1.27539 0.925834 0
M  V30 26648 C 2451.91 -1.99097 0.580959 0
M  V30 26649 C 2452.34 -1.68624 -0.833526 0
M  V30 26650 O 2451.7 -0.925449 -1.55901 0
M  V30 26651 C 2451.75 -3.51356 0.811248 0
M  V30 26652 O 2450.85 -4.12213 -0.124056 0
M  V30 26653 H 2450.19 -0.625118 0.223884 0
M  V30 26654 H 2452.72 -1.62393 1.24458 0
M  V30 26655 H 2452.73 -4.01487 0.726081 0
M  V30 26656 H 2451.41 -3.72869 1.84233 0
M  V30 26657 H 2449.98 -3.72898 0.0108661 0
M  V30 26658 N 2452.17 -0.691135 -1.41637 0
M  V30 26659 C 2453.39 -0.227619 -2.06147 0
M  V30 26660 C 2453.82 1.11278 -1.51654 0
M  V30 26661 O 2453.18 1.69565 -0.64167 0
M  V30 26662 C 2453.22 -0.190922 -3.60094 0
M  V30 26663 O 2452.33 0.835593 -4.03846 0
M  V30 26664 H 2451.67 -0.112318 -0.654432 0
M  V30 26665 H 2454.2 -0.944746 -1.81482 0
M  V30 26666 H 2454.21 -0.0202787 -4.07995 0
M  V30 26667 H 2452.88 -1.16922 -3.99127 0
M  V30 26668 H 2451.46 0.634665 -3.67459 0
M  V30 26669 N 2453.65 1.51461 -0.435577 0
M  V30 26670 C 2454.89 2.01261 0.132972 0
M  V30 26671 C 2455.21 1.32442 1.43939 0
M  V30 26672 O 2456.41 1.73201 2.09078 0
M  V30 26673 C 2454.87 3.5875 0.287518 0
M  V30 26674 C 2454.48 4.36504 -1.00836 0
M  V30 26675 C 2456.22 4.16702 0.809931 0
M  V30 26676 C 2454.13 5.85694 -0.819557 0
M  V30 26677 H 2453.06 0.752102 0.053469 0
M  V30 26678 H 2455.71 1.74583 -0.565069 0
M  V30 26679 H 2454.09 3.81867 1.04852 0
M  V30 26680 H 2455.27 4.25135 -1.77756 0
M  V30 26681 H 2453.58 3.89996 -1.45918 0
M  V30 26682 H 2456.18 5.25871 0.96765 0
M  V30 26683 H 2456.52 3.75762 1.7919 0
M  V30 26684 H 2457.05 3.97655 0.107287 0
M  V30 26685 H 2453.79 6.31043 -1.77385 0
M  V30 26686 H 2453.31 5.99732 -0.0901262 0
M  V30 26687 H 2454.99 6.45276 -0.472062 0
M  V30 26688 N 2455.12 0.166873 1.56714 0
M  V30 26689 C 2456.35 -0.484905 2.00829 0
M  V30 26690 C 2456.76 -1.57646 1.04615 0
M  V30 26691 O 2456.11 -1.8366 0.0383524 0
M  V30 26692 C 2456.17 -1.12717 3.41372 0
M  V30 26693 C 2455.83 -0.177806 4.56654 0
M  V30 26694 C 2456.83 0.602161 5.16401 0
M  V30 26695 C 2454.51 -0.0749256 5.02244 0
M  V30 26696 C 2456.51 1.47225 6.20164 0
M  V30 26697 C 2454.19 0.798756 6.05857 0
M  V30 26698 C 2455.19 1.57093 6.64688 0
M  V30 26699 O 2454.88 2.43002 7.66293 0
M  V30 26700 H 2454.61 -0.128941 0.663589 0
M  V30 26701 H 2457.17 0.264401 2.03691 0
M  V30 26702 H 2455.4 -1.92451 3.35409 0
M  V30 26703 H 2457.09 -1.6807 3.69469 0
M  V30 26704 H 2457.85 0.532825 4.82064 0
M  V30 26705 H 2453.73 -0.665732 4.56168 0
M  V30 26706 H 2457.27 2.07543 6.66012 0
M  V30 26707 H 2453.17 0.869311 6.3962 0
M  V30 26708 H 2453.94 2.36469 7.83597 0
M  V30 26709 N 2456.6 -1.57237 -0.106866 0
M  V30 26710 C 2457.55 -2.01219 -1.13046 0
M  V30 26711 C 2458.52 -0.886428 -1.40469 0
M  V30 26712 O 2459.7 -1.15156 -1.52131 0
M  V30 26713 C 2456.84 -2.43176 -2.44866 0
M  V30 26714 C 2455.96 -3.69222 -2.24275 0
M  V30 26715 C 2455.09 -4.00108 -3.4941 0
M  V30 26716 C 2454.13 -5.19299 -3.24029 0
M  V30 26717 N 2453.27 -5.45995 -4.414 0
M  V30 26718 H 2458.11 -2.88449 -0.748406 0
M  V30 26719 H 2455.65 -1.42676 -0.358029 0
M  V30 26720 H 2457.6 -2.65543 -3.21781 0
M  V30 26721 H 2456.23 -1.58972 -2.80941 0
M  V30 26722 H 2455.29 -3.54401 -1.38218 0
M  V30 26723 H 2456.6 -4.56287 -2.01504 0
M  V30 26724 H 2455.75 -4.23188 -4.34738 0
M  V30 26725 H 2454.49 -3.11542 -3.75224 0
M  V30 26726 H 2453.5 -4.96051 -2.37093 0
M  V30 26727 H 2454.72 -6.09453 -2.99573 0
M  V30 26728 H 2452.67 -4.60388 -4.67311 0
M  V30 26729 H 2452.58 -6.27407 -4.21777 0
M  V30 26730 H 2453.85 -5.73603 -5.27826 0
M  V30 26731 N 2458.08 0.377381 -1.53015 0
M  V30 26732 C 2458.99 1.48571 -1.81559 0
M  V30 26733 C 2460.01 1.59161 -0.70313 0
M  V30 26734 O 2461.18 1.75278 -0.991951 0
M  V30 26735 C 2458.25 2.83975 -1.98895 0
M  V30 26736 C 2457.31 2.83011 -3.22806 0
M  V30 26737 C 2456.54 4.11956 -3.39305 0
M  V30 26738 O 2456.76 5.07515 -2.60354 0
M  V30 26739 O 2455.7 4.18487 -4.32611 0
M  V30 26740 H 2459.52 1.27377 -2.75697 0
M  V30 26741 H 2457.11 0.566349 -1.38249 0
M  V30 26742 H 2458.99 3.64226 -2.11937 0
M  V30 26743 H 2457.67 3.05171 -1.07947 0
M  V30 26744 H 2456.57 2.015 -3.15196 0
M  V30 26745 H 2457.91 2.66768 -4.13637 0
M  V30 26746 N 2459.56 1.44175 0.636506 0
M  V30 26747 C 2460.84 1.3715 1.3946 0
M  V30 26748 C 2461.22 0.0275441 2.11082 0
M  V30 26749 O 2460.56 -0.98968 2.05955 0
M  V30 26750 C 2460.77 2.56605 2.36548 0
M  V30 26751 C 2462.12 3.00433 3.00042 0
M  V30 26752 O 2463.15 2.56772 2.46874 0
M  V30 26753 O 2462 3.76118 3.96481 0
M  V30 26754 H 2459.1 0.54285 0.623893 0
M  V30 26755 H 2461.64 1.56255 0.662012 0
M  V30 26756 H 2460.42 3.46037 1.82686 0
M  V30 26757 H 2460.04 2.39687 3.17232 0
M  V30 26758 N 2461.04 -0.876421 1.30983 0
M  V30 26759 C 2462.26 -1.66188 1.23245 0
M  V30 26760 C 2462.68 -1.87702 -0.203312 0
M  V30 26761 O 2462.04 -1.43059 -1.13315 0
M  V30 26762 C 2462.09 -3.03347 1.96628 0
M  V30 26763 O 2461.81 -2.82798 3.34599 0
M  V30 26764 C 2463.31 -3.97788 1.95651 0
M  V30 26765 H 2460.53 -0.518315 0.426135 0
M  V30 26766 H 2463.07 -1.09439 1.72752 0
M  V30 26767 H 2461.23 -3.56803 1.50898 0
M  V30 26768 H 2461.64 -3.69872 3.7188 0
M  V30 26769 H 2463.12 -4.91367 2.5152 0
M  V30 26770 H 2463.59 -4.29078 0.937471 0
M  V30 26771 H 2464.2 -3.50268 2.41231 0
M  V30 26772 N 2462.51 -1.13839 -1.08989 0
M  V30 26773 C 2463.76 -0.904251 -1.81524 0
M  V30 26774 C 2464.09 0.568033 -1.85707 0
M  V30 26775 O 2463.37 1.42054 -1.32857 0
M  V30 26776 C 2463.65 -1.4984 -3.27444 0
M  V30 26777 C 2463.5 -3.04012 -3.31507 0
M  V30 26778 C 2464.82 -1.17033 -4.24254 0
M  V30 26779 H 2461.94 -0.329935 -0.659024 0
M  V30 26780 H 2464.58 -1.40739 -1.27642 0
M  V30 26781 H 2462.73 -1.07051 -3.7346 0
M  V30 26782 H 2464.41 -3.55589 -2.93861 0
M  V30 26783 H 2462.65 -3.38769 -2.70957 0
M  V30 26784 H 2463.32 -3.40687 -4.34323 0
M  V30 26785 H 2465.8 -1.54016 -3.86547 0
M  V30 26786 H 2464.67 -1.61246 -5.24682 0
M  V30 26787 H 2464.93 -0.0847051 -4.42019 0
M  V30 26788 N 2463.99 1.27046 -0.932584 0
M  V30 26789 C 2464.92 2.29065 -0.452942 0
M  V30 26790 C 2465.9 1.6291 0.48931 0
M  V30 26791 O 2467.09 1.90182 0.393013 0
M  V30 26792 C 2464.22 3.46082 0.290637 0
M  V30 26793 C 2463.17 4.24264 -0.564242 0
M  V30 26794 C 2462.5 5.33808 0.308793 0
M  V30 26795 C 2463.8 4.89146 -1.83121 0
M  V30 26796 H 2465.49 2.69435 -1.30557 0
M  V30 26797 H 2463.04 1.29525 -0.629224 0
M  V30 26798 H 2464.99 4.16555 0.63716 0
M  V30 26799 H 2463.72 3.04642 1.17733 0
M  V30 26800 H 2462.37 3.55544 -0.89354 0
M  V30 26801 H 2462.02 4.88609 1.19458 0
M  V30 26802 H 2461.72 5.87026 -0.259736 0
M  V30 26803 H 2463.25 6.07122 0.650777 0
M  V30 26804 H 2464.66 5.5188 -1.55246 0
M  V30 26805 H 2463.06 5.52444 -2.34363 0
M  V30 26806 H 2464.13 4.12572 -2.5478 0
M  V30 26807 N 2465.47 0.698636 1.41269 0
M  V30 26808 C 2466.42 0.0120236 2.27997 0
M  V30 26809 C 2467.4 -0.74974 1.42365 0
M  V30 26810 O 2468.6 -0.624729 1.65608 0
M  V30 26811 C 2465.73 -0.9214 3.30704 0
M  V30 26812 C 2464.81 -0.155722 4.23814 0
M  V30 26813 N 2465.2 0.852103 4.98571 0
M  V30 26814 C 2463.5 -0.390758 4.44285 0
M  V30 26815 C 2464.2 1.3107 5.66741 0
M  V30 26816 N 2463.18 0.636039 5.39866 0
M  V30 26817 H 2466.98 0.784699 2.83231 0
M  V30 26818 H 2464.49 0.529738 1.53517 0
M  V30 26819 H 2466.49 -1.42847 3.91664 0
M  V30 26820 H 2465.15 -1.69364 2.77031 0
M  V30 26821 H 2466.16 1.23244 5.03022 0
M  V30 26822 H 2462.84 -1.14064 4.01616 0
M  V30 26823 H 2464.23 2.14718 6.36668 0
M  V30 26824 N 2466.95 -1.51228 0.443603 0
M  V30 26825 C 2467.88 -2.30784 -0.355102 0
M  V30 26826 C 2468.86 -1.3647 -1.01538 0
M  V30 26827 O 2470.04 -1.65391 -1.01782 0
M  V30 26828 C 2467.17 -3.15442 -1.45306 0
M  V30 26829 C 2466.13 -4.18085 -0.915929 0
M  V30 26830 C 2465.45 -4.91303 -2.11011 0
M  V30 26831 C 2466.75 -5.22272 0.053952 0
M  V30 26832 H 2468.45 -2.97803 0.308819 0
M  V30 26833 H 2465.99 -1.43217 0.149963 0
M  V30 26834 H 2467.95 -3.6988 -2.01908 0
M  V30 26835 H 2466.67 -2.46255 -2.14536 0
M  V30 26836 H 2465.33 -3.64707 -0.372081 0
M  V30 26837 H 2464.98 -4.18614 -2.78875 0
M  V30 26838 H 2464.68 -5.60715 -1.75707 0
M  V30 26839 H 2466.2 -5.48567 -2.68155 0
M  V30 26840 H 2467.62 -5.71745 -0.421969 0
M  V30 26841 H 2466.01 -5.99247 0.319881 0
M  V30 26842 H 2467.08 -4.74714 0.988663 0
M  V30 26843 N 2468.43 -0.175182 -1.56623 0
M  V30 26844 C 2469.67 0.471186 -1.98895 0
M  V30 26845 C 2470.03 1.60159 -1.05891 0
M  V30 26846 O 2471.23 2.31078 -1.37319 0
M  V30 26847 C 2469.5 0.938181 -3.44867 0
M  V30 26848 S 2471.06 1.58519 -4.09166 0
M  V30 26849 H 2467.88 0.151422 -0.694689 0
M  V30 26850 H 2470.48 -0.273554 -1.93577 0
M  V30 26851 H 2469.19 0.105108 -4.10265 0
M  V30 26852 H 2468.72 1.71687 -3.53959 0
M  V30 26853 H 2470.73 2.87345 -4.04533 0
M  V30 26854 N 2469.91 1.57292 0.0985263 0
M  V30 26855 C 2470.84 2.04853 1.1206 0
M  V30 26856 C 2471.82 0.936792 1.4198 0
M  V30 26857 O 2473 1.20784 1.52069 0
M  V30 26858 C 2470.13 2.47008 2.4414 0
M  V30 26859 C 2469.09 3.61814 2.28636 0
M  V30 26860 C 2468.41 3.89935 3.65862 0
M  V30 26861 C 2469.71 4.92825 1.72977 0
M  V30 26862 H 2471.41 2.90491 0.724928 0
M  V30 26863 H 2468.95 1.3975 0.347266 0
M  V30 26864 H 2470.9 2.78889 3.15909 0
M  V30 26865 H 2469.63 1.58365 2.85636 0
M  V30 26866 H 2468.29 3.30174 1.59312 0
M  V30 26867 H 2467.94 2.98465 4.0488 0
M  V30 26868 H 2467.64 4.67224 3.56336 0
M  V30 26869 H 2469.16 4.24288 4.39104 0
M  V30 26870 H 2470.57 5.23109 2.34584 0
M  V30 26871 H 2468.97 5.74254 1.74219 0
M  V30 26872 H 2470.04 4.79981 0.688922 0
M  V30 26873 N 2471.38 -0.369261 1.53213 0
M  V30 26874 C 2472.8 -0.710687 1.42903 0
M  V30 26875 C 2473 -1.93412 0.565169 0
M  V30 26876 O 2472.06 -2.52458 0.0461928 0
M  V30 26877 C 2473.37 -0.927332 2.86044 0
M  V30 26878 C 2474.92 -1.02757 2.95652 0
M  V30 26879 C 2475.39 -1.27671 4.39845 0
M  V30 26880 N 2476.88 -1.3445 4.43258 0
M  V30 26881 C 2477.62 -1.5543 5.51932 0
M  V30 26882 N 2477.11 -1.73751 6.70658 0
M  V30 26883 N 2478.91 -1.57769 5.39505 0
M  V30 26884 H 2471.06 0.435493 2.07888 0
M  V30 26885 H 2473.32 0.132755 0.938659 0
M  V30 26886 H 2473.03 -0.100225 3.51557 0
M  V30 26887 H 2472.9 -1.83647 3.29475 0
M  V30 26888 H 2475.29 -1.84523 2.30294 0
M  V30 26889 H 2475.37 -0.0959054 2.5562 0
M  V30 26890 H 2475.01 -0.464086 5.05775 0
M  V30 26891 H 2474.94 -2.22154 4.77446 0
M  V30 26892 H 2477.43 -1.2192 3.57693 0
M  V30 26893 H 2477.75 -1.89322 7.49251 0
M  V30 26894 H 2476.09 -1.70936 6.73651 0
M  V30 26895 H 2479.28 -1.43021 4.45716 0
M  V30 26896 H 2479.46 -1.73779 6.24263 0
M  V30 26897 N 2472.86 -1.4451 -0.628851 0
M  V30 26898 C 2473.77 -1.54047 -1.76937 0
M  V30 26899 C 2474.79 -0.426016 -1.68704 0
M  V30 26900 O 2475.96 -0.683689 -1.8944 0
M  V30 26901 C 2473.03 -1.4841 -3.13329 0
M  V30 26902 C 2472.09 -2.70725 -3.33176 0
M  V30 26903 C 2471.32 -2.65348 -4.63062 0
M  V30 26904 O 2471.55 -1.71478 -5.44014 0
M  V30 26905 O 2470.48 -3.56234 -4.85161 0
M  V30 26906 H 2474.31 -2.50406 -1.71844 0
M  V30 26907 H 2471.89 -1.26782 -0.790355 0
M  V30 26908 H 2473.77 -1.47798 -3.94631 0
M  V30 26909 H 2472.45 -0.551955 -3.18959 0
M  V30 26910 H 2471.35 -2.76905 -2.51544 0
M  V30 26911 H 2472.69 -3.62994 -3.32409 0
M  V30 26912 N 2474.34 0.869463 -1.31446 0
M  V30 26913 C 2475.59 1.61734 -1.2052 0
M  V30 26914 C 2475.9 1.94179 0.235307 0
M  V30 26915 O 2477.11 2.67466 0.466265 0
M  V30 26916 C 2475.56 2.91569 -2.10987 0
M  V30 26917 C 2475.17 2.66604 -3.60036 0
M  V30 26918 C 2476.92 3.69563 -2.08862 0
M  V30 26919 C 2474.82 3.9235 -4.4251 0
M  V30 26920 H 2473.75 0.606842 -0.447503 0
M  V30 26921 H 2476.4 0.961302 -1.56305 0
M  V30 26922 H 2474.79 3.5855 -1.68101 0
M  V30 26923 H 2475.96 2.08028 -4.1117 0
M  V30 26924 H 2474.27 2.01963 -3.64143 0
M  V30 26925 H 2476.87 4.62847 -2.67725 0
M  V30 26926 H 2477.21 4.02157 -1.07589 0
M  V30 26927 H 2477.75 3.09466 -2.49951 0
M  V30 26928 H 2474.49 3.64906 -5.4454 0
M  V30 26929 H 2474.01 4.50376 -3.96133 0
M  V30 26930 H 2475.69 4.6023 -4.54749 0
M  V30 26931 N 2475.82 1.14415 1.08383 0
M  V30 26932 C 2476.75 0.789073 2.15189 0
M  V30 26933 C 2477.76 -0.194141 1.61638 0
M  V30 26934 O 2478.95 0.0276024 1.78479 0
M  V30 26935 C 2476.05 0.150639 3.38565 0
M  V30 26936 C 2475.22 1.16864 4.21499 0
M  V30 26937 C 2474.28 0.553924 5.23276 0
M  V30 26938 O 2473.31 1.21695 5.56039 0
M  V30 26939 N 2474.51 -0.669194 5.7663 0
M  V30 26940 H 2477.28 1.70819 2.46254 0
M  V30 26941 H 2474.84 1.0386 1.24196 0
M  V30 26942 H 2476.83 -0.27311 4.03777 0
M  V30 26943 H 2475.4 -0.671614 3.053 0
M  V30 26944 H 2474.62 1.76932 3.52262 0
M  V30 26945 H 2475.91 1.85632 4.73728 0
M  V30 26946 H 2475.31 -1.22644 5.52245 0
M  V30 26947 H 2473.86 -1.03545 6.43523 0
M  V30 26948 N 2477.3 -1.26549 0.939309 0
M  V30 26949 C 2478.23 -2.25598 0.404743 0
M  V30 26950 C 2479.24 -1.55839 -0.470955 0
M  V30 26951 O 2480.43 -1.76263 -0.281703 0
M  V30 26952 C 2477.53 -3.36063 -0.437581 0
M  V30 26953 C 2476.7 -4.35364 0.421525 0
M  V30 26954 C 2475.76 -5.24967 -0.360058 0
M  V30 26955 O 2474.79 -5.68709 0.236267 0
M  V30 26956 N 2475.99 -5.56347 -1.65706 0
M  V30 26957 H 2478.75 -2.72101 1.25622 0
M  V30 26958 H 2476.32 -1.40297 0.807988 0
M  V30 26959 H 2478.31 -3.92958 -0.967797 0
M  V30 26960 H 2476.88 -2.8907 -1.18986 0
M  V30 26961 H 2476.1 -3.77568 1.13297 0
M  V30 26962 H 2477.39 -4.98706 1.00844 0
M  V30 26963 H 2476.78 -5.22686 -2.16369 0
M  V30 26964 H 2475.34 -6.15892 -2.13356 0
M  V30 26965 N 2478.77 -0.706118 -1.40896 0
M  V30 26966 C 2479.71 -0.00819805 -2.29199 0
M  V30 26967 C 2480.72 0.733556 -1.45337 0
M  V30 26968 O 2481.91 0.582507 -1.68728 0
M  V30 26969 C 2479.01 1.0126 -3.23419 0
M  V30 26970 C 2478.18 0.338311 -4.3609 0
M  V30 26971 C 2477.24 1.26317 -5.10813 0
M  V30 26972 O 2476.27 0.751552 -5.64217 0
M  V30 26973 N 2477.47 2.59491 -5.19273 0
M  V30 26974 H 2480.23 -0.766348 -2.89736 0
M  V30 26975 H 2477.79 -0.552987 -1.52163 0
M  V30 26976 H 2479.79 1.63328 -3.70278 0
M  V30 26977 H 2478.36 1.67219 -2.64115 0
M  V30 26978 H 2477.58 -0.462421 -3.91478 0
M  V30 26979 H 2478.86 -0.130121 -5.08634 0
M  V30 26980 H 2478.26 3.03564 -4.77352 0
M  V30 26981 H 2476.82 3.16727 -5.69673 0
M  V30 26982 N 2480.25 1.50991 -0.451617 0
M  V30 26983 C 2481.67 1.59256 -0.104675 0
M  V30 26984 C 2481.87 1.46142 1.38725 0
M  V30 26985 O 2480.92 1.30993 2.15863 0
M  V30 26986 C 2482.24 2.93864 -0.63752 0
M  V30 26987 C 2483.78 3.07211 -0.59922 0
M  V30 26988 C 2484.26 4.44364 -1.10928 0
M  V30 26989 N 2485.75 4.50723 -1.06786 0
M  V30 26990 C 2486.49 5.55199 -1.43324 0
M  V30 26991 N 2485.98 6.67025 -1.87216 0
M  V30 26992 N 2487.77 5.45635 -1.3505 0
M  V30 26993 H 2479.93 1.57759 -1.42217 0
M  V30 26994 H 2482.19 0.744454 -0.586934 0
M  V30 26995 H 2481.89 3.08876 -1.68192 0
M  V30 26996 H 2481.77 3.77135 -0.0702802 0
M  V30 26997 H 2484.16 2.91858 0.436226 0
M  V30 26998 H 2484.24 2.25745 -1.20303 0
M  V30 26999 H 2483.88 4.60464 -2.14326 0
M  V30 27000 H 2483.81 5.24391 -0.481865 0
M  V30 27001 H 2486.3 3.70469 -0.745708 0
M  V30 27002 H 2486.61 7.42782 -2.13295 0
M  V30 27003 H 2484.96 6.68195 -1.91154 0
M  V30 27004 H 2488.15 4.57159 -1.00615 0
M  V30 27005 H 2488.32 6.26942 -1.63852 0
M  V30 27006 N 2481.73 0.183486 1.56528 0
M  V30 27007 C 2482.69 -0.728185 2.17325 0
M  V30 27008 C 2483.69 -1.14937 1.12455 0
M  V30 27009 O 2484.88 -1.06434 1.37903 0
M  V30 27010 C 2482.01 -1.99269 2.76595 0
M  V30 27011 H 2483.21 -0.19872 2.99241 0
M  V30 27012 H 2480.76 -0.0661116 1.5616 0
M  V30 27013 H 2481.5 -2.56495 1.98446 0
M  V30 27014 H 2481.28 -1.69953 3.53353 0
M  V30 27015 H 2482.77 -2.64305 3.23315 0
M  V30 27016 N 2483.21 -1.57342 -0.0901833 0
M  V30 27017 C 2484.17 -2.01443 -1.09332 0
M  V30 27018 C 2485.17 -0.908664 -1.32665 0
M  V30 27019 O 2486.36 -1.17402 -1.28695 0
M  V30 27020 C 2483.49 -2.37934 -2.44132 0
M  V30 27021 H 2484.69 -2.91286 -0.713611 0
M  V30 27022 H 2482.24 -1.52659 -0.335377 0
M  V30 27023 H 2482.97 -1.5106 -2.86969 0
M  V30 27024 H 2482.76 -3.18607 -2.28543 0
M  V30 27025 H 2484.25 -2.72694 -3.16272 0
M  V30 27026 N 2484.69 0.36113 -1.53407 0
M  V30 27027 C 2485.62 1.46282 -1.76449 0
M  V30 27028 C 2486.63 1.49463 -0.645348 0
M  V30 27029 O 2487.82 1.52862 -0.921708 0
M  V30 27030 C 2484.92 2.85028 -1.83337 0
M  V30 27031 C 2484.09 3.05492 -3.13039 0
M  V30 27032 C 2483.15 4.24377 -3.11112 0
M  V30 27033 O 2482.18 4.19338 -3.84896 0
M  V30 27034 N 2483.38 5.32018 -2.32243 0
M  V30 27035 H 2486.15 1.26894 -2.71511 0
M  V30 27036 H 2483.71 0.550888 -1.52239 0
M  V30 27037 H 2485.7 3.62705 -1.7952 0
M  V30 27038 H 2484.27 2.97642 -0.955395 0
M  V30 27039 H 2483.49 2.15436 -3.30122 0
M  V30 27040 H 2484.78 3.16037 -3.98746 0
M  V30 27041 H 2484.17 5.38976 -1.71816 0
M  V30 27042 H 2482.73 6.08255 -2.34241 0
M  V30 27043 N 2486.16 1.44842 0.621179 0
M  V30 27044 C 2487.11 1.52473 1.73265 0
M  V30 27045 C 2488.08 0.37164 1.61889 0
M  V30 27046 O 2489.27 0.583242 1.81667 0
M  V30 27047 C 2486.41 1.48443 3.11542 0
M  V30 27048 C 2485.52 2.74202 3.33822 0
M  V30 27049 C 2484.65 2.61937 4.62128 0
M  V30 27050 C 2483.69 3.82812 4.7762 0
M  V30 27051 N 2482.83 3.69164 5.97212 0
M  V30 27052 H 2487.67 2.47431 1.66078 0
M  V30 27053 H 2485.21 1.2279 0.810005 0
M  V30 27054 H 2487.17 1.44097 3.91525 0
M  V30 27055 H 2485.8 0.570458 3.17719 0
M  V30 27056 H 2484.85 2.88694 2.4771 0
M  V30 27057 H 2486.16 3.63896 3.41146 0
M  V30 27058 H 2485.31 2.5548 5.50286 0
M  V30 27059 H 2484.05 1.69819 4.57179 0
M  V30 27060 H 2483.06 3.89644 3.87889 0
M  V30 27061 H 2484.28 4.75979 4.84376 0
M  V30 27062 H 2482.23 2.79805 5.93334 0
M  V30 27063 H 2482.15 4.52483 6.05636 0
M  V30 27064 H 2483.41 3.66615 6.87905 0
M  V30 27065 N 2487.64 -0.862479 1.31905 0
M  V30 27066 C 2488.57 -1.9861 1.22785 0
M  V30 27067 C 2489.55 -1.69722 0.113391 0
M  V30 27068 O 2490.74 -1.9188 0.299252 0
M  V30 27069 C 2487.87 -3.34278 0.942117 0
M  V30 27070 C 2486.82 -3.77495 2.01696 0
M  V30 27071 C 2486.15 -5.10706 1.58378 0
M  V30 27072 C 2487.45 -3.93799 3.43103 0
M  V30 27073 H 2489.14 -2.06498 2.16792 0
M  V30 27074 H 2486.69 -0.992136 1.04368 0
M  V30 27075 H 2488.64 -4.12429 0.86489 0
M  V30 27076 H 2487.37 -3.26583 -0.0336029 0
M  V30 27077 H 2486.02 -3.01589 2.08421 0
M  V30 27078 H 2485.67 -4.9946 0.595715 0
M  V30 27079 H 2485.37 -5.40593 2.30289 0
M  V30 27080 H 2486.9 -5.91359 1.52077 0
M  V30 27081 H 2488.31 -4.62325 3.39011 0
M  V30 27082 H 2486.71 -4.35094 4.13296 0
M  V30 27083 H 2487.78 -2.9695 3.83339 0
M  V30 27084 N 2489.12 -1.14988 -1.07775 0
M  V30 27085 C 2490.35 -0.945805 -1.84017 0
M  V30 27086 C 2490.76 0.505831 -1.81898 0
M  V30 27087 O 2490.12 1.3507 -1.22729 0
M  V30 27088 C 2490.17 -1.44683 -3.31284 0
M  V30 27089 O 2489.89 -2.8416 -3.33444 0
M  V30 27090 C 2491.39 -1.28362 -4.24309 0
M  V30 27091 H 2488.61 -0.336179 -0.580711 0
M  V30 27092 H 2491.16 -1.52657 -1.36074 0
M  V30 27093 H 2489.31 -0.908691 -3.76592 0
M  V30 27094 H 2489.73 -3.06785 -4.25422 0
M  V30 27095 H 2491.2 -1.6827 -5.25727 0
M  V30 27096 H 2491.68 -0.227261 -4.38612 0
M  V30 27097 H 2492.28 -1.81063 -3.84833 0
M  V30 27098 N 2490.6 1.26049 -0.946007 0
M  V30 27099 C 2491.85 1.93526 -0.596153 0
M  V30 27100 C 2492.17 1.74181 0.865528 0
M  V30 27101 O 2491.43 1.07513 1.63522 0
M  V30 27102 C 2491.73 3.46127 -0.890536 0
M  V30 27103 C 2491.39 3.85618 -2.33687 0
M  V30 27104 C 2490.06 3.9611 -2.73223 0
M  V30 27105 C 2492.41 4.05329 -3.27655 0
M  V30 27106 C 2489.74 4.23713 -4.05813 0
M  V30 27107 C 2492.09 4.34422 -4.59849 0
M  V30 27108 C 2490.75 4.43129 -4.99193 0
M  V30 27109 H 2490.02 0.708161 -0.218148 0
M  V30 27110 H 2492.67 1.49765 -1.19342 0
M  V30 27111 H 2490.97 3.91233 -0.21078 0
M  V30 27112 H 2492.67 3.96508 -0.598548 0
M  V30 27113 H 2489.26 3.78002 -2.02022 0
M  V30 27114 H 2493.44 3.96646 -2.98305 0
M  V30 27115 H 2488.7 4.28667 -4.35952 0
M  V30 27116 H 2492.87 4.48619 -5.32648 0
M  V30 27117 H 2490.5 4.64271 -6.0196 0
M  V30 27118 N 2492.08 0.71358 1.4052 0
M  V30 27119 C 2493.04 0.068475 2.29098 0
M  V30 27120 C 2494.04 -0.689446 1.4527 0
M  V30 27121 O 2495.23 -0.521648 1.66206 0
M  V30 27122 C 2492.36 -0.912966 3.28447 0
M  V30 27123 H 2493.55 0.848601 2.87643 0
M  V30 27124 H 2491.11 0.478116 1.48808 0
M  V30 27125 H 2491.84 -1.72022 2.74916 0
M  V30 27126 H 2491.63 -0.372403 3.90328 0
M  V30 27127 H 2493.12 -1.36158 3.9478 0
M  V30 27128 N 2493.55 -1.50749 0.459618 0
M  V30 27129 C 2494.8 -2.02256 -0.0993139 0
M  V30 27130 C 2495.13 -1.34239 -1.40748 0
M  V30 27131 O 2494.38 -0.453261 -1.90379 0
M  V30 27132 C 2494.68 -3.55752 -0.342803 0
M  V30 27133 C 2494.35 -4.42184 0.882257 0
M  V30 27134 C 2493.01 -4.65526 1.21816 0
M  V30 27135 C 2495.36 -4.92749 1.69846 0
M  V30 27136 C 2492.69 -5.36677 2.37054 0
M  V30 27137 C 2495.04 -5.65166 2.84202 0
M  V30 27138 C 2493.71 -5.86764 3.1822 0
M  V30 27139 H 2492.98 -0.740108 -0.0363415 0
M  V30 27140 H 2495.62 -1.81479 0.611361 0
M  V30 27141 H 2493.93 -3.74982 -1.13561 0
M  V30 27142 H 2495.63 -3.9316 -0.789052 0
M  V30 27143 H 2492.22 -4.24229 0.610542 0
M  V30 27144 H 2496.4 -4.74581 1.45213 0
M  V30 27145 H 2491.66 -5.51609 2.63699 0
M  V30 27146 H 2495.83 -6.03331 3.478 0
M  V30 27147 H 2493.46 -6.41675 4.07624 0
M  V30 27148 N 2495.03 -0.191784 -1.56429 0
M  V30 27149 C 2495.98 0.747135 -2.20274 0
M  V30 27150 C 2496.97 1.22227 -1.1729 0
M  V30 27151 O 2498.18 1.18555 -1.35443 0
M  V30 27152 H 2494.56 0.259277 -0.705889 0
M  V30 27153 H 2496.53 0.184911 -2.97827 0
M  V30 27154 C 2495.28 1.95754 -2.8736 0
M  V30 27155 H 2494.6 1.601 -3.66344 0
M  V30 27156 H 2496.04 2.59294 -3.35474 0
M  V30 27157 C 2494.5 2.7942 -1.88218 0
M  V30 27158 O 2495.03 3.77237 -1.3804 0
M  V30 27159 N 2493.23 2.44846 -1.56521 0
M  V30 27160 H 2492.78 1.6536 -1.97519 0
M  V30 27161 H 2492.74 3.01111 -0.904422 0
M  V30 27162 N 2496.51 1.57387 0.0818378 0
M  V30 27163 C 2497.44 1.99702 1.1248 0
M  V30 27164 C 2498.46 0.901484 1.35562 0
M  V30 27165 O 2499.64 1.17948 1.3398 0
M  V30 27166 C 2496.74 2.31217 2.47774 0
M  V30 27167 C 2495.92 3.62489 2.44786 0
M  V30 27168 C 2494.98 3.81789 3.6211 0
M  V30 27169 O 2494 4.53492 3.43997 0
M  V30 27170 N 2495.2 3.23375 4.82088 0
M  V30 27171 H 2497.97 2.89784 0.764534 0
M  V30 27172 H 2495.53 1.59622 0.270636 0
M  V30 27173 H 2497.52 2.4131 3.24887 0
M  V30 27174 H 2496.09 1.47075 2.7584 0
M  V30 27175 H 2495.31 3.63243 1.53128 0
M  V30 27176 H 2496.6 4.48703 2.39881 0
M  V30 27177 H 2496 2.65157 4.99708 0
M  V30 27178 H 2494.56 3.38933 5.56747 0
M  V30 27179 N 2497.99 -0.35299 1.53596 0
M  V30 27180 C 2498.92 -1.45591 1.75723 0
M  V30 27181 C 2499.9 -1.50886 0.605987 0
M  V30 27182 O 2501.08 -1.68746 0.840053 0
M  V30 27183 C 2498.21 -2.83884 1.84737 0
M  V30 27184 C 2497.26 -2.96256 3.06813 0
M  V30 27185 S 2498.09 -2.63703 4.6607 0
M  V30 27186 C 2499.25 -4.04122 4.7795 0
M  V30 27187 H 2499.48 -1.26603 2.68996 0
M  V30 27188 H 2497.01 -0.548092 1.44344 0
M  V30 27189 H 2498.97 -3.6356 1.90616 0
M  V30 27190 H 2497.63 -3.00173 0.924933 0
M  V30 27191 H 2496.82 -3.97568 3.09768 0
M  V30 27192 H 2496.43 -2.24518 2.99112 0
M  V30 27193 H 2498.72 -4.98526 4.58779 0
M  V30 27194 H 2499.66 -4.06167 5.8003 0
M  V30 27195 H 2500.07 -3.91708 4.06479 0
M  V30 27196 N 2499.47 -1.45169 -0.613489 0
M  V30 27197 C 2500.41 -1.5339 -1.72454 0
M  V30 27198 C 2501.38 -0.38022 -1.6169 0
M  V30 27199 O 2502.57 -0.592868 -1.81355 0
M  V30 27200 C 2499.71 -1.50094 -3.10751 0
M  V30 27201 C 2498.82 -2.75968 -3.32363 0
M  V30 27202 C 2497.96 -2.64384 -4.60732 0
M  V30 27203 C 2497 -3.8534 -4.75583 0
M  V30 27204 N 2496.13 -3.72326 -5.95246 0
M  V30 27205 H 2500.97 -2.48308 -1.64764 0
M  V30 27206 H 2498.51 -1.23218 -0.803481 0
M  V30 27207 H 2500.47 -1.46171 -3.90755 0
M  V30 27208 H 2499.1 -0.587299 -3.17412 0
M  V30 27209 H 2498.15 -2.90003 -2.46175 0
M  V30 27210 H 2499.46 -3.65701 -3.39212 0
M  V30 27211 H 2498.62 -2.58394 -5.48924 0
M  V30 27212 H 2497.36 -1.72241 -4.56272 0
M  V30 27213 H 2496.36 -3.91695 -3.85817 0
M  V30 27214 H 2497.59 -4.78541 -4.81845 0
M  V30 27215 H 2495.53 -2.82948 -5.91842 0
M  V30 27216 H 2495.45 -4.55688 -6.03228 0
M  V30 27217 H 2496.72 -3.70258 -6.85951 0
M  V30 27218 N 2500.95 0.855472 -1.32361 0
M  V30 27219 C 2502.36 1.42553 -1.20563 0
M  V30 27220 C 2502.71 1.95352 0.182175 0
M  V30 27221 O 2501.83 1.87474 1.08085 0
M  V30 27222 C 2502.43 2.59125 -2.18265 0
M  V30 27223 C 2500.99 3.12133 -2.10356 0
M  V30 27224 C 2500.13 1.84878 -2.06677 0
M  V30 27225 H 2503.08 0.662702 -1.44201 0
M  V30 27226 H 2503.11 3.36261 -1.7807 0
M  V30 27227 H 2502.62 2.20667 -3.19261 0
M  V30 27228 H 2500.72 3.55177 -1.12605 0
M  V30 27229 H 2500.83 3.73433 -3.00141 0
M  V30 27230 H 2499.2 2.04444 -1.51904 0
M  V30 27231 H 2499.98 1.48638 -3.09454 0
M  V30 27232 N 2502.42 1.15558 1.07164 0
M  V30 27233 C 2503.37 0.854092 2.14415 0
M  V30 27234 C 2504.34 -0.193777 1.64966 0
M  V30 27235 O 2505.53 -0.0609108 1.90703 0
M  V30 27236 C 2502.67 0.351635 3.43304 0
M  V30 27237 C 2501.78 1.4613 4.06534 0
M  V30 27238 C 2500.91 0.914769 5.23264 0
M  V30 27239 C 2499.95 2.00124 5.78461 0
M  V30 27240 N 2499.09 1.47095 6.86518 0
M  V30 27241 H 2503.93 1.77263 2.39545 0
M  V30 27242 H 2501.47 0.884446 1.17541 0
M  V30 27243 H 2503.42 0.0420143 4.17179 0
M  V30 27244 H 2502.05 -0.529981 3.1842 0
M  V30 27245 H 2501.11 1.88706 3.30294 0
M  V30 27246 H 2502.42 2.28152 4.43563 0
M  V30 27247 H 2501.57 0.557804 6.0413 0
M  V30 27248 H 2500.31 0.063744 4.87658 0
M  V30 27249 H 2499.32 2.36701 4.96239 0
M  V30 27250 H 2500.54 2.85607 6.16121 0
M  V30 27251 H 2498.49 0.642313 6.52848 0
M  V30 27252 H 2498.4 2.22742 7.22442 0
M  V30 27253 H 2499.67 1.14229 7.71085 0
M  V30 27254 N 2503.9 -1.25546 0.952678 0
M  V30 27255 C 2505.13 -1.9782 0.623059 0
M  V30 27256 C 2505.55 -1.70354 -0.79757 0
M  V30 27257 O 2504.91 -0.95831 -1.53903 0
M  V30 27258 C 2504.96 -3.49556 0.885593 0
M  V30 27259 O 2504.06 -4.12384 -0.0365917 0
M  V30 27260 H 2503.4 -0.620228 0.237093 0
M  V30 27261 H 2505.93 -1.59716 1.27874 0
M  V30 27262 H 2505.94 -3.99857 0.811079 0
M  V30 27263 H 2504.62 -3.68877 1.92101 0
M  V30 27264 H 2503.19 -3.72791 0.089961 0
M  V30 27265 N 2505.38 -0.721022 -1.40139 0
M  V30 27266 C 2506.63 -0.259839 -2.00019 0
M  V30 27267 C 2506.94 1.15524 -1.57841 0
M  V30 27268 O 2508.15 1.71522 -2.10458 0
M  V30 27269 C 2506.6 -0.413629 -3.57515 0
M  V30 27270 C 2506.21 -1.83569 -4.08664 0
M  V30 27271 C 2507.96 -0.0135133 -4.24498 0
M  V30 27272 C 2505.86 -1.93978 -5.58683 0
M  V30 27273 H 2504.79 -0.0933938 -0.748194 0
M  V30 27274 H 2507.44 -0.892894 -1.60311 0
M  V30 27275 H 2505.83 0.288099 -3.94951 0
M  V30 27276 H 2507 -2.56824 -3.82594 0
M  V30 27277 H 2505.31 -2.18776 -3.54297 0
M  V30 27278 H 2507.91 -0.0704894 -5.34654 0
M  V30 27279 H 2508.25 1.0292 -4.03377 0
M  V30 27280 H 2508.79 -0.665884 -3.92187 0
M  V30 27281 H 2505.53 -2.9639 -5.84665 0
M  V30 27282 H 2505.05 -1.25142 -5.866 0
M  V30 27283 H 2506.73 -1.71442 -6.23872 0
M  V30 27284 N 2506.86 1.50503 -0.467606 0
M  V30 27285 C 2508.27 1.86696 -0.0116494 0
M  V30 27286 C 2508.62 1.38267 1.392 0
M  V30 27287 O 2507.74 0.746168 2.03129 0
M  V30 27288 C 2508.34 3.38797 -0.014364 0
M  V30 27289 C 2506.9 3.74414 0.386109 0
M  V30 27290 C 2506.05 2.7438 -0.401335 0
M  V30 27291 H 2509 1.43296 -0.682047 0
M  V30 27292 H 2509.02 3.72239 0.788576 0
M  V30 27293 H 2508.53 3.74015 -1.03608 0
M  V30 27294 H 2506.63 3.44796 1.41231 0
M  V30 27295 H 2506.74 4.79016 0.0898754 0
M  V30 27296 H 2505.11 2.5429 0.144491 0
M  V30 27297 H 2505.89 3.12442 -1.4225 0
M  V30 27298 N 2508.34 0.200077 1.56325 0
M  V30 27299 C 2509.57 -0.442197 2.01812 0
M  V30 27300 C 2509.97 -1.55392 1.07935 0
M  V30 27301 O 2509.32 -1.83537 0.0773008 0
M  V30 27302 C 2509.38 -1.05451 3.43686 0
M  V30 27303 C 2509.04 -0.080903 4.56928 0
M  V30 27304 C 2510.04 0.711562 5.15008 0
M  V30 27305 C 2507.72 0.0316246 5.0229 0
M  V30 27306 C 2509.72 1.60347 6.16902 0
M  V30 27307 C 2507.41 0.927087 6.04027 0
M  V30 27308 C 2508.4 1.71157 6.61207 0
M  V30 27309 O 2508.09 2.59202 7.60966 0
M  V30 27310 H 2507.82 -0.114836 0.666175 0
M  V30 27311 H 2510.38 0.307547 2.03084 0
M  V30 27312 H 2508.61 -1.85293 3.39416 0
M  V30 27313 H 2510.3 -1.60195 3.72951 0
M  V30 27314 H 2511.06 0.634958 4.80826 0
M  V30 27315 H 2506.94 -0.568822 4.57477 0
M  V30 27316 H 2510.49 2.21623 6.6146 0
M  V30 27317 H 2506.38 1.00479 6.37632 0
M  V30 27318 H 2507.15 2.53037 7.78405 0
M  V30 27319 N 2509.81 -1.57429 -0.0734901 0
M  V30 27320 C 2511.04 -1.91775 -0.789753 0
M  V30 27321 C 2511.46 -0.796336 -1.70412 0
M  V30 27322 O 2510.82 0.250929 -1.79555 0
M  V30 27323 C 2510.87 -3.25069 -1.56084 0
M  V30 27324 O 2509.97 -3.14183 -2.67138 0
M  V30 27325 H 2509.31 -0.628033 -0.215571 0
M  V30 27326 H 2511.84 -2.04556 -0.0422421 0
M  V30 27327 H 2511.85 -3.58902 -1.94045 0
M  V30 27328 H 2510.53 -4.06267 -0.889943 0
M  V30 27329 H 2509.11 -2.91905 -2.32047 0
M  V30 27330 N 2511.29 0.344839 -1.53781 0
M  V30 27331 C 2512.7 0.920523 -1.62429 0
M  V30 27332 C 2513.05 1.89595 -0.504781 0
M  V30 27333 O 2512.18 2.13288 0.365673 0
M  V30 27334 C 2512.77 1.67634 -2.94422 0
M  V30 27335 C 2511.33 2.20106 -3.05336 0
M  V30 27336 C 2510.48 1.01978 -2.57868 0
M  V30 27337 H 2513.43 0.123014 -1.58223 0
M  V30 27338 H 2513.45 2.53912 -2.83389 0
M  V30 27339 H 2512.96 0.966158 -3.75882 0
M  V30 27340 H 2511.06 2.94304 -2.28508 0
M  V30 27341 H 2511.18 2.46566 -4.10782 0
M  V30 27342 H 2509.54 1.39281 -2.13243 0
M  V30 27343 H 2510.32 0.324248 -3.41765 0
M  V30 27344 N 2512.77 1.45492 0.605781 0
M  V30 27345 C 2514.19 1.29938 0.926728 0
M  V30 27346 C 2514.39 0.253741 1.99896 0
M  V30 27347 O 2513.44 -0.351693 2.50039 0
M  V30 27348 C 2514.75 2.67885 1.36594 0
M  V30 27349 C 2516.3 2.75796 1.48006 0
M  V30 27350 C 2516.78 4.14272 1.95302 0
M  V30 27351 N 2518.27 4.16575 2.02533 0
M  V30 27352 C 2519 5.20593 2.40354 0
M  V30 27353 N 2518.5 6.34957 2.77132 0
M  V30 27354 N 2520.29 5.07952 2.40709 0
M  V30 27355 H 2512.44 2.12151 -0.102899 0
M  V30 27356 H 2514.71 0.947854 0.0166223 0
M  V30 27357 H 2514.41 3.45599 0.652246 0
M  V30 27358 H 2514.29 2.96467 2.3321 0
M  V30 27359 H 2516.67 1.98385 2.18466 0
M  V30 27360 H 2516.75 2.50925 0.496997 0
M  V30 27361 H 2516.4 4.92169 1.25428 0
M  V30 27362 H 2516.33 4.36535 2.94525 0
M  V30 27363 H 2518.82 3.34048 1.76693 0
M  V30 27364 H 2519.13 7.10119 3.04878 0
M  V30 27365 H 2517.48 6.38355 2.74823 0
M  V30 27366 H 2520.67 4.17653 2.11384 0
M  V30 27367 H 2520.84 5.89135 2.69858 0
M  V30 27368 N 2514.25 -0.848441 1.32813 0
M  V30 27369 C 2515.5 -1.60306 1.23727 0
M  V30 27370 C 2515.82 -1.93476 -0.199366 0
M  V30 27371 O 2515.08 -1.58052 -1.15404 0
M  V30 27372 C 2515.38 -2.92877 2.04836 0
M  V30 27373 C 2515.04 -2.79111 3.5413 0
M  V30 27374 C 2513.71 -2.75063 3.94834 0
M  V30 27375 C 2516.06 -2.64598 4.49041 0
M  V30 27376 C 2513.39 -2.5439 5.2868 0
M  V30 27377 C 2515.74 -2.45459 5.83037 0
M  V30 27378 C 2514.4 -2.39808 6.22935 0
M  V30 27379 H 2513.67 -0.586601 0.452748 0
M  V30 27380 H 2516.32 -0.983714 1.64303 0
M  V30 27381 H 2514.62 -3.58965 1.57008 0
M  V30 27382 H 2516.32 -3.50299 1.9517 0
M  V30 27383 H 2512.91 -2.83088 3.21806 0
M  V30 27384 H 2517.09 -2.66765 4.18509 0
M  V30 27385 H 2512.35 -2.48455 5.58641 0
M  V30 27386 H 2516.52 -2.33211 6.5619 0
M  V30 27387 H 2514.15 -2.23549 7.26588 0
M  V30 27388 N 2515.73 -1.16125 -1.06549 0
M  V30 27389 C 2516.66 -0.888548 -2.15933 0
M  V30 27390 C 2517.64 0.164105 -1.69307 0
M  V30 27391 O 2518.82 0.0167515 -1.94193 0
M  V30 27392 C 2515.95 -0.386003 -3.45148 0
M  V30 27393 C 2514.91 -1.37627 -4.05269 0
M  V30 27394 C 2514.23 -0.73223 -5.29663 0
M  V30 27395 C 2515.53 -2.745 -4.4435 0
M  V30 27396 H 2517.23 -1.80327 -2.39003 0
M  V30 27397 H 2514.77 -0.868455 -1.14865 0
M  V30 27398 H 2516.73 -0.182721 -4.21004 0
M  V30 27399 H 2515.45 0.564218 -3.2169 0
M  V30 27400 H 2514.11 -1.56605 -3.31467 0
M  V30 27401 H 2513.76 0.224394 -5.02499 0
M  V30 27402 H 2513.46 -1.39317 -5.70846 0
M  V30 27403 H 2514.98 -0.538909 -6.08217 0
M  V30 27404 H 2516.39 -2.5932 -5.11299 0
M  V30 27405 H 2514.79 -3.37044 -4.96509 0
M  V30 27406 H 2515.86 -3.29949 -3.55333 0
M  V30 27407 N 2517.2 1.25039 -0.959323 0
M  V30 27408 C 2518.11 2.29425 -0.490034 0
M  V30 27409 C 2519.13 1.68216 0.444915 0
M  V30 27410 O 2520.31 1.98841 0.320011 0
M  V30 27411 C 2517.37 3.46 0.220248 0
M  V30 27412 C 2516.43 4.22636 -0.753492 0
M  V30 27413 C 2515.67 5.33644 -0.0770118 0
M  V30 27414 O 2515.89 5.58965 1.13639 0
M  V30 27415 O 2514.82 5.9702 -0.764929 0
M  V30 27416 H 2518.65 2.71667 -1.3576 0
M  V30 27417 H 2516.23 1.30575 -0.725984 0
M  V30 27418 H 2518.12 4.1682 0.619604 0
M  V30 27419 H 2516.79 3.05751 1.06291 0
M  V30 27420 H 2515.7 3.54225 -1.20315 0
M  V30 27421 H 2517.03 4.6668 -1.56431 0
M  V30 27422 N 2518.68 0.728444 1.39755 0
M  V30 27423 C 2519.93 0.273927 2.00941 0
M  V30 27424 C 2520.26 -1.13392 1.57658 0
M  V30 27425 O 2519.54 -1.77174 0.802465 0
M  V30 27426 C 2519.82 0.368409 3.5821 0
M  V30 27427 C 2519.67 1.81555 4.11531 0
M  V30 27428 C 2520.99 -0.252977 4.39372 0
M  V30 27429 H 2518.11 0.101009 0.730045 0
M  V30 27430 H 2520.75 0.923366 1.66054 0
M  V30 27431 H 2518.9 -0.18452 3.88062 0
M  V30 27432 H 2520.57 2.42485 3.92426 0
M  V30 27433 H 2518.82 2.33905 3.65337 0
M  V30 27434 H 2519.49 1.83297 5.20679 0
M  V30 27435 H 2521.96 0.218297 4.15527 0
M  V30 27436 H 2520.84 -0.156489 5.48677 0
M  V30 27437 H 2521.1 -1.33819 4.21361 0
M  V30 27438 N 2520.16 -1.50253 0.475581 0
M  V30 27439 C 2521.41 -2.0235 -0.0778563 0
M  V30 27440 C 2521.74 -1.35725 -1.39317 0
M  V30 27441 O 2520.99 -0.473428 -1.89887 0
M  V30 27442 C 2521.29 -3.56096 -0.305052 0
M  V30 27443 C 2520.96 -4.41224 0.929107 0
M  V30 27444 C 2519.62 -4.64207 1.26747 0
M  V30 27445 C 2521.97 -4.9092 1.75062 0
M  V30 27446 C 2519.3 -5.34133 2.42733 0
M  V30 27447 C 2521.65 -5.6212 2.9018 0
M  V30 27448 C 2520.31 -5.83356 3.24426 0
M  V30 27449 H 2519.58 -0.740452 -0.0284897 0
M  V30 27450 H 2522.23 -1.8082 0.630575 0
M  V30 27451 H 2520.54 -3.76165 -1.09577 0
M  V30 27452 H 2522.23 -3.93975 -0.747308 0
M  V30 27453 H 2518.82 -4.23558 0.655502 0
M  V30 27454 H 2523.01 -4.73014 1.50239 0
M  V30 27455 H 2518.26 -5.48782 2.69534 0
M  V30 27456 H 2522.44 -5.99608 3.5418 0
M  V30 27457 H 2520.06 -6.37315 4.14407 0
M  V30 27458 N 2521.64 -0.208365 -1.56217 0
M  V30 27459 C 2522.57 0.702077 -2.22695 0
M  V30 27460 C 2523.55 1.21118 -1.19434 0
M  V30 27461 O 2524.73 1.2576 -1.4798 0
M  V30 27462 C 2521.86 1.91605 -2.89663 0
M  V30 27463 C 2520.82 1.54133 -3.99283 0
M  V30 27464 C 2520.14 2.833 -4.53481 0
M  V30 27465 C 2521.44 0.741248 -5.17013 0
M  V30 27466 H 2523.14 0.147846 -2.99035 0
M  V30 27467 H 2520.68 0.0696698 -1.43831 0
M  V30 27468 H 2522.64 2.5583 -3.34857 0
M  V30 27469 H 2521.36 2.49504 -2.1075 0
M  V30 27470 H 2520.02 0.922606 -3.54801 0
M  V30 27471 H 2519.67 3.39316 -3.71314 0
M  V30 27472 H 2519.37 2.58967 -5.27456 0
M  V30 27473 H 2520.89 3.48491 -5.01385 0
M  V30 27474 H 2522.31 1.2869 -5.5867 0
M  V30 27475 H 2520.7 0.595522 -5.97138 0
M  V30 27476 H 2521.77 -0.254936 -4.84229 0
M  V30 27477 N 2523.12 1.57465 0.0651402 0
M  V30 27478 C 2524.05 2.07184 1.0769 0
M  V30 27479 C 2525.03 0.966697 1.39961 0
M  V30 27480 O 2526.21 1.23982 1.49472 0
M  V30 27481 C 2523.34 2.52131 2.38845 0
M  V30 27482 C 2522.3 3.66582 2.2091 0
M  V30 27483 C 2521.62 3.97608 3.57508 0
M  V30 27484 C 2522.92 4.96383 1.62485 0
M  V30 27485 H 2524.62 2.91964 0.663148 0
M  V30 27486 H 2522.16 1.40455 0.317544 0
M  V30 27487 H 2524.12 2.85528 3.09923 0
M  V30 27488 H 2522.84 1.64389 2.82213 0
M  V30 27489 H 2521.5 3.33479 1.52273 0
M  V30 27490 H 2521.15 3.06986 3.98458 0
M  V30 27491 H 2520.85 4.74678 3.46345 0
M  V30 27492 H 2522.37 4.33506 4.30006 0
M  V30 27493 H 2523.78 5.27967 2.23435 0
M  V30 27494 H 2522.18 5.7782 1.61999 0
M  V30 27495 H 2523.25 4.81334 0.586956 0
M  V30 27496 N 2524.59 -0.336679 1.53962 0
M  V30 27497 C 2525.82 -1.09443 1.75231 0
M  V30 27498 C 2526.23 -1.8262 0.494634 0
M  V30 27499 O 2525.58 -1.75469 -0.543734 0
M  V30 27500 C 2525.64 -2.14775 2.88292 0
M  V30 27501 C 2525.3 -1.61113 4.27658 0
M  V30 27502 C 2526.3 -1.05981 5.08983 0
M  V30 27503 C 2523.98 -1.65752 4.74164 0
M  V30 27504 C 2525.98 -0.562017 6.34917 0
M  V30 27505 C 2523.66 -1.15585 6.0007 0
M  V30 27506 C 2524.66 -0.609028 6.80279 0
M  V30 27507 O 2524.35 -0.114858 8.03818 0
M  V30 27508 H 2524.08 -0.331946 0.588887 0
M  V30 27509 H 2526.64 -0.39253 2.01614 0
M  V30 27510 H 2524.87 -2.88543 2.57448 0
M  V30 27511 H 2526.56 -2.76168 2.97466 0
M  V30 27512 H 2527.32 -1.01714 4.74214 0
M  V30 27513 H 2523.2 -2.07253 4.11785 0
M  V30 27514 H 2526.74 -0.134545 6.9747 0
M  V30 27515 H 2522.64 -1.19555 6.34332 0
M  V30 27516 H 2523.41 -0.231507 8.18173 0
M  V30 27517 N 2526.07 -1.45812 -0.598057 0
M  V30 27518 C 2527.31 -1.51872 -1.368 0
M  V30 27519 C 2527.68 -0.160257 -1.9133 0
M  V30 27520 O 2528.88 -0.0955774 -2.6863 0
M  V30 27521 C 2527.15 -2.57517 -2.4783 0
M  V30 27522 S 2528.71 -2.82872 -3.35453 0
M  V30 27523 H 2525.53 -0.536763 -0.466268 0
M  V30 27524 H 2528.13 -1.82952 -0.68912 0
M  V30 27525 H 2526.83 -3.54875 -2.06135 0
M  V30 27526 H 2526.36 -2.28119 -3.20508 0
M  V30 27527 H 2528.38 -2.16975 -4.46247 0
M  V30 27528 N 2527.55 0.841385 -1.33261 0
M  V30 27529 C 2528.5 1.93943 -1.19876 0
M  V30 27530 C 2529.48 1.60574 -0.102297 0
M  V30 27531 O 2530.68 1.73894 -0.330144 0
M  V30 27532 C 2527.81 3.30249 -0.937575 0
M  V30 27533 C 2526.89 3.69795 -2.07636 0
M  V30 27534 N 2527.28 3.81056 -3.32611 0
M  V30 27535 C 2525.58 3.99516 -1.98249 0
M  V30 27536 C 2526.28 4.15326 -4.07283 0
M  V30 27537 N 2525.26 4.2756 -3.35699 0
M  V30 27538 H 2529.06 2.00801 -2.14607 0
M  V30 27539 H 2526.57 1.03396 -1.25232 0
M  V30 27540 H 2528.57 4.08704 -0.822617 0
M  V30 27541 H 2527.23 3.247 0.0012309 0
M  V30 27542 H 2528.24 3.65028 -3.67389 0
M  V30 27543 H 2524.92 4.02193 -1.12012 0
M  V30 27544 H 2526.31 4.31397 -5.15118 0
M  V30 27545 N 2529.03 1.16688 1.05932 0
M  V30 27546 C 2530.25 0.975487 1.83027 0
M  V30 27547 C 2530.68 -0.47142 1.82097 0
M  V30 27548 O 2530.04 -1.33704 1.22446 0
M  V30 27549 C 2530.09 1.51201 3.27369 0
M  V30 27550 O 2529.19 0.720772 4.06053 0
M  V30 27551 H 2528.53 0.346882 0.566188 0
M  V30 27552 H 2531.06 1.55011 1.33539 0
M  V30 27553 H 2531.07 1.53106 3.78183 0
M  V30 27554 H 2529.75 2.56529 3.27362 0
M  V30 27555 H 2528.32 0.772522 3.6481 0
M  V30 27556 N 2530.51 -1.24529 0.96594 0
M  V30 27557 C 2531.47 -2.23689 0.499586 0
M  V30 27558 C 2532.47 -1.5567 -0.402913 0
M  V30 27559 O 2533.66 -1.73064 -0.198619 0
M  V30 27560 C 2530.79 -3.39775 -0.276732 0
M  V30 27561 H 2531.99 -2.66461 1.37618 0
M  V30 27562 H 2529.54 -1.37111 0.750348 0
M  V30 27563 H 2530.27 -3.0244 -1.1705 0
M  V30 27564 H 2530.06 -3.90342 0.370895 0
M  V30 27565 H 2531.55 -4.13381 -0.592103 0
M  V30 27566 N 2531.99 -0.735845 -1.39367 0
M  V30 27567 C 2533.23 -0.283597 -2.001 0
M  V30 27568 C 2533.55 1.13335 -1.58682 0
M  V30 27569 O 2532.82 1.77192 -0.835454 0
M  V30 27570 H 2531.4 -0.101864 -0.740022 0
M  V30 27571 H 2534.07 -0.945992 -1.70402 0
M  V30 27572 H 2533.16 -0.332658 -3.10322 0
M  V30 27573 N 2533.46 1.49999 -0.483543 0
M  V30 27574 C 2534.4 2.26655 0.340594 0
M  V30 27575 C 2535.41 1.32485 0.946129 0
M  V30 27576 O 2536.6 1.57902 0.832425 0
M  V30 27577 C 2533.7 3.04249 1.49285 0
M  V30 27578 C 2532.87 4.25866 0.997829 0
M  V30 27579 C 2531.93 4.8565 2.02561 0
M  V30 27580 O 2530.96 5.46215 1.60119 0
M  V30 27581 N 2532.16 4.7375 3.35471 0
M  V30 27582 H 2534.92 2.98023 -0.316629 0
M  V30 27583 H 2532.48 1.58805 -0.315052 0
M  V30 27584 H 2534.48 3.4112 2.1776 0
M  V30 27585 H 2533.05 2.356 2.05454 0
M  V30 27586 H 2532.27 3.93956 0.138548 0
M  V30 27587 H 2533.55 5.04692 0.645217 0
M  V30 27588 H 2532.95 4.25612 3.72654 0
M  V30 27589 H 2531.51 5.14855 3.99709 0
M  V30 27590 N 2534.94 0.216646 1.56104 0
M  V30 27591 C 2536.19 -0.410266 1.99219 0
M  V30 27592 C 2536.54 -1.57733 1.10172 0
M  V30 27593 O 2535.84 -1.91007 0.150631 0
M  V30 27594 C 2536.03 -0.898403 3.45924 0
M  V30 27595 C 2535.86 0.219827 4.49162 0
M  V30 27596 C 2534.63 0.684604 5.00641 0
M  V30 27597 C 2536.83 1.03638 5.0375 0
M  V30 27598 N 2534.81 1.7784 5.87576 0
M  V30 27599 C 2536.18 1.97914 5.87563 0
M  V30 27600 C 2538.23 1.07637 4.86126 0
M  V30 27601 C 2536.94 2.95863 6.55635 0
M  V30 27602 C 2538.96 2.04401 5.54954 0
M  V30 27603 C 2538.33 2.97418 6.38531 0
M  V30 27604 H 2534.42 -0.116936 0.773208 0
M  V30 27605 H 2537.01 0.327292 1.91929 0
M  V30 27606 H 2535.18 -1.60534 3.53671 0
M  V30 27607 H 2536.91 -1.49772 3.75966 0
M  V30 27608 H 2533.67 0.274073 4.72806 0
M  V30 27609 H 2534.09 2.32716 6.35746 0
M  V30 27610 H 2538.73 0.371174 4.21168 0
M  V30 27611 H 2536.45 3.67347 7.19779 0
M  V30 27612 H 2540.04 2.08164 5.43286 0
M  V30 27613 H 2538.92 3.71072 6.90851 0
M  V30 27614 N 2536.42 -1.57498 -0.0567885 0
M  V30 27615 C 2537.67 -1.87976 -0.753071 0
M  V30 27616 C 2537.99 -0.810381 -1.76814 0
M  V30 27617 O 2537.25 0.191956 -1.94756 0
M  V30 27618 C 2537.55 -3.25156 -1.48353 0
M  V30 27619 C 2537.21 -4.46795 -0.607051 0
M  V30 27620 C 2535.88 -4.79809 -0.365557 0
M  V30 27621 C 2538.23 -5.212 -0.000214364 0
M  V30 27622 C 2535.56 -5.84633 0.492008 0
M  V30 27623 C 2537.91 -6.26932 0.844892 0
M  V30 27624 C 2536.57 -6.58439 1.09611 0
M  V30 27625 H 2535.84 -0.687854 -0.275568 0
M  V30 27626 H 2538.49 -1.91495 -0.0134837 0
M  V30 27627 H 2536.79 -3.17497 -2.29572 0
M  V30 27628 H 2538.49 -3.45977 -2.02733 0
M  V30 27629 H 2535.08 -4.20964 -0.805413 0
M  V30 27630 H 2539.27 -4.95995 -0.173874 0
M  V30 27631 H 2534.52 -6.07434 0.695237 0
M  V30 27632 H 2538.7 -6.83741 1.32177 0
M  V30 27633 H 2536.32 -7.39489 1.76237 0
M  V30 27634 N 2537.9 0.328509 -1.54138 0
M  V30 27635 C 2538.86 1.38706 -1.82465 0
M  V30 27636 C 2539.86 1.44945 -0.696254 0
M  V30 27637 O 2541.05 1.45058 -0.964561 0
M  V30 27638 C 2538.18 2.77488 -1.98023 0
M  V30 27639 H 2539.38 1.14846 -2.77039 0
M  V30 27640 H 2536.93 0.563725 -1.4578 0
M  V30 27641 H 2537.66 3.06611 -1.05643 0
M  V30 27642 H 2537.45 2.74354 -2.80129 0
M  V30 27643 H 2538.94 3.54077 -2.21403 0
M  V30 27644 N 2539.38 1.46127 0.590316 0
M  V30 27645 C 2540.62 1.51266 1.35079 0
M  V30 27646 C 2540.95 0.160745 1.93534 0
M  V30 27647 O 2540.23 -0.826925 1.76046 0
M  V30 27648 C 2540.51 2.60535 2.48584 0
M  V30 27649 C 2540.37 4.05231 1.95213 0
M  V30 27650 C 2541.68 2.65946 3.50658 0
M  V30 27651 H 2538.8 0.550701 0.489794 0
M  V30 27652 H 2541.45 1.78025 0.663856 0
M  V30 27653 H 2539.6 2.37848 3.07181 0
M  V30 27654 H 2541.27 4.39181 1.41131 0
M  V30 27655 H 2539.51 4.1507 1.26093 0
M  V30 27656 H 2540.18 4.77402 2.77113 0
M  V30 27657 H 2542.66 2.86319 3.01929 0
M  V30 27658 H 2541.53 3.44234 4.27545 0
M  V30 27659 H 2541.79 1.71701 4.07396 0
M  V30 27660 N 2540.85 -0.834306 1.33705 0
M  V30 27661 C 2541.76 -1.97646 1.26385 0
M  V30 27662 C 2542.78 -1.73132 0.173579 0
M  V30 27663 O 2543.96 -1.97428 0.397996 0
M  V30 27664 C 2541.02 -3.31731 1.00774 0
M  V30 27665 C 2540.08 -3.6933 2.18847 0
M  V30 27666 C 2539.31 -4.97017 1.94448 0
M  V30 27667 O 2539.54 -5.63302 0.89706 0
M  V30 27668 O 2538.47 -5.32226 2.81103 0
M  V30 27669 H 2542.3 -2.06763 2.22447 0
M  V30 27670 H 2539.88 -0.968017 1.13797 0
M  V30 27671 H 2541.76 -4.12061 0.882259 0
M  V30 27672 H 2540.44 -3.23607 0.0774352 0
M  V30 27673 H 2539.35 -2.89491 2.36951 0
M  V30 27674 H 2540.68 -3.82125 3.10228 0
M  V30 27675 N 2542.33 -1.17248 -1.05312 0
M  V30 27676 C 2543.24 -0.902718 -2.16537 0
M  V30 27677 C 2544.26 0.128676 -1.73524 0
M  V30 27678 O 2545.43 -0.0503055 -2.01337 0
M  V30 27679 C 2542.5 -0.418417 -3.44166 0
M  V30 27680 C 2541.56 -1.51625 -4.01632 0
M  V30 27681 C 2540.79 -1.05497 -5.23169 0
M  V30 27682 O 2541.02 0.0913713 -5.70327 0
M  V30 27683 O 2539.95 -1.8475 -5.72845 0
M  V30 27684 H 2543.78 -1.83306 -2.42141 0
M  V30 27685 H 2541.36 -0.953267 -1.15036 0
M  V30 27686 H 2543.24 -0.1558 -4.21112 0
M  V30 27687 H 2541.92 0.483794 -3.20064 0
M  V30 27688 H 2540.82 -1.83273 -3.26131 0
M  V30 27689 H 2542.16 -2.39413 -4.30049 0
M  V30 27690 N 2543.81 1.24015 -0.972531 0
M  V30 27691 C 2545.05 1.93957 -0.644985 0
M  V30 27692 C 2545.41 1.74283 0.80556 0
M  V30 27693 O 2546.62 2.38305 1.24356 0
M  V30 27694 C 2544.89 3.42676 -1.01527 0
M  V30 27695 S 2546.45 4.3139 -0.803003 0
M  V30 27696 H 2543.26 0.670527 -0.236464 0
M  V30 27697 H 2545.87 1.50275 -1.25051 0
M  V30 27698 H 2544.57 3.54503 -2.06775 0
M  V30 27699 H 2544.1 3.91354 -0.400717 0
M  V30 27700 H 2546.12 4.95185 0.317169 0
M  V30 27701 N 2545.29 0.743226 1.38974 0
M  V30 27702 C 2546.22 0.0572566 2.28128 0
M  V30 27703 C 2547.2 -0.739156 1.44828 0
M  V30 27704 O 2548.38 -0.719978 1.74208 0
M  V30 27705 C 2545.51 -0.925944 3.25797 0
M  V30 27706 C 2544.56 -0.217024 4.25947 0
M  V30 27707 S 2545.39 1.07486 5.24602 0
M  V30 27708 C 2546.55 0.0944645 6.25829 0
M  V30 27709 H 2546.78 0.813296 2.85959 0
M  V30 27710 H 2544.31 0.535366 1.44821 0
M  V30 27711 H 2546.27 -1.4879 3.82586 0
M  V30 27712 H 2544.93 -1.65488 2.66969 0
M  V30 27713 H 2544.12 -0.961285 4.94748 0
M  V30 27714 H 2543.73 0.273125 3.73001 0
M  V30 27715 H 2546.02 -0.743121 6.73412 0
M  V30 27716 H 2546.96 0.749837 7.04119 0
M  V30 27717 H 2547.37 -0.281607 5.63797 0
M  V30 27718 N 2546.77 -1.4974 0.491491 0
M  V30 27719 C 2547.99 -2.06831 -0.0534788 0
M  V30 27720 C 2548.41 -1.35298 -1.31681 0
M  V30 27721 O 2547.77 -0.428391 -1.77401 0
M  V30 27722 C 2547.82 -3.60074 -0.320772 0
M  V30 27723 O 2547.54 -4.28913 0.892469 0
M  V30 27724 C 2549.04 -4.3385 -0.910443 0
M  V30 27725 H 2546.26 -0.670804 0.0162027 0
M  V30 27726 H 2548.8 -1.92646 0.686124 0
M  V30 27727 H 2546.96 -3.73993 -1.01034 0
M  V30 27728 H 2547.37 -5.20463 0.649493 0
M  V30 27729 H 2548.85 -5.41977 -1.04711 0
M  V30 27730 H 2549.32 -3.95696 -1.90582 0
M  V30 27731 H 2549.93 -4.24513 -0.258638 0
M  V30 27732 N 2548.24 -0.224922 -1.55987 0
M  V30 27733 C 2549.49 0.405064 -1.97999 0
M  V30 27734 C 2549.81 1.60054 -1.1139 0
M  V30 27735 O 2549.08 1.9496 -0.191679 0
M  V30 27736 H 2547.66 0.152645 -0.731238 0
M  V30 27737 H 2550.33 -0.318601 -1.92278 0
M  V30 27738 H 2549.42 0.729113 -3.03464 0
M  V30 27739 N 2549.72 1.57526 0.0484352 0
M  V30 27740 C 2550.63 2.08656 1.07237 0
M  V30 27741 C 2551.65 1.02097 1.40898 0
M  V30 27742 O 2552.82 1.33715 1.50606 0
M  V30 27743 C 2549.89 2.53975 2.36004 0
M  V30 27744 C 2548.95 3.74933 2.09101 0
M  V30 27745 C 2548.18 4.18081 3.31729 0
M  V30 27746 O 2548.41 3.60903 4.41708 0
M  V30 27747 O 2547.34 5.10685 3.18567 0
M  V30 27748 H 2551.17 2.96264 0.667913 0
M  V30 27749 H 2548.75 1.47046 0.264144 0
M  V30 27750 H 2550.63 2.8354 3.11742 0
M  V30 27751 H 2549.31 1.69486 2.75783 0
M  V30 27752 H 2548.22 3.50416 1.30993 0
M  V30 27753 H 2549.55 4.60346 1.7419 0
M  V30 27754 N 2551.2 -0.32033 1.5431 0
M  V30 27755 C 2552.45 -1.05789 1.7267 0
M  V30 27756 C 2552.78 -1.87907 0.502117 0
M  V30 27757 O 2552.03 -1.88772 -0.516116 0
M  V30 27758 C 2552.33 -2.00823 2.95643 0
M  V30 27759 C 2552 -1.34835 4.30268 0
M  V30 27760 C 2550.66 -1.16569 4.66867 0
M  V30 27761 C 2553.01 -0.875005 5.13803 0
M  V30 27762 C 2550.34 -0.496233 5.84598 0
M  V30 27763 C 2552.69 -0.219351 6.3222 0
M  V30 27764 C 2551.35 -0.0245742 6.67495 0
M  V30 27765 H 2550.62 -0.38711 0.631844 0
M  V30 27766 H 2553.27 -0.334702 1.88552 0
M  V30 27767 H 2551.58 -2.79604 2.74461 0
M  V30 27768 H 2553.27 -2.57927 3.07042 0
M  V30 27769 H 2549.86 -1.50054 4.01474 0
M  V30 27770 H 2554.05 -1.0039 4.86041 0
M  V30 27771 H 2549.3 -0.334156 6.10486 0
M  V30 27772 H 2553.48 0.155413 6.96227 0
M  V30 27773 H 2551.1 0.496198 7.58579 0
M  V30 27774 N 2552.68 -1.46438 -0.582558 0
M  V30 27775 C 2554.09 -1.31396 -0.905939 0
M  V30 27776 C 2554.29 -0.285511 -1.99467 0
M  V30 27777 O 2553.35 0.311869 -2.50567 0
M  V30 27778 C 2554.66 -2.70024 -1.32315 0
M  V30 27779 C 2556.21 -2.78116 -1.43599 0
M  V30 27780 C 2556.69 -4.17326 -1.88687 0
M  V30 27781 N 2558.18 -4.19744 -1.9588 0
M  V30 27782 C 2558.91 -5.24351 -2.32042 0
M  V30 27783 N 2558.41 -6.39285 -2.66995 0
M  V30 27784 N 2560.2 -5.11718 -2.32597 0
M  V30 27785 H 2552.35 -2.1196 0.136638 0
M  V30 27786 H 2554.62 -0.947999 -0.0015407 0
M  V30 27787 H 2554.32 -3.46593 -0.597181 0
M  V30 27788 H 2554.2 -3.0014 -2.28464 0
M  V30 27789 H 2556.58 -2.01835 -2.15282 0
M  V30 27790 H 2556.66 -2.51684 -0.457014 0
M  V30 27791 H 2556.31 -4.94102 -1.17582 0
M  V30 27792 H 2556.24 -4.41165 -2.87543 0
M  V30 27793 H 2558.73 -3.36817 -1.71356 0
M  V30 27794 H 2559.04 -7.1488 -2.93542 0
M  V30 27795 H 2557.39 -6.42646 -2.64633 0
M  V30 27796 H 2560.58 -4.20963 -2.04713 0
M  V30 27797 H 2560.75 -5.93354 -2.60452 0
M  V30 27798 N 2554.16 0.827204 -1.34146 0
M  V30 27799 C 2555.1 1.93782 -1.25367 0
M  V30 27800 C 2556.07 1.65592 -0.129803 0
M  V30 27801 O 2557.26 1.88264 -0.310057 0
M  V30 27802 C 2554.4 3.29968 -1.0107 0
M  V30 27803 C 2553.51 3.7048 -2.22191 0
M  V30 27804 C 2552.65 4.95592 -1.91212 0
M  V30 27805 C 2551.69 5.28672 -3.085 0
M  V30 27806 N 2550.82 6.44962 -2.77432 0
M  V30 27807 H 2555.66 2.00623 -2.20351 0
M  V30 27808 H 2553.2 0.981589 -1.09559 0
M  V30 27809 H 2555.16 4.08445 -0.850211 0
M  V30 27810 H 2553.79 3.22653 -0.0975593 0
M  V30 27811 H 2552.84 2.8743 -2.49175 0
M  V30 27812 H 2554.15 3.909 -3.09837 0
M  V30 27813 H 2553.31 5.81845 -1.71875 0
M  V30 27814 H 2552.04 4.77165 -1.0082 0
M  V30 27815 H 2551.05 4.40918 -3.28438 0
M  V30 27816 H 2552.27 5.4904 -3.99664 0
M  V30 27817 H 2550.22 6.27999 -1.89612 0
M  V30 27818 H 2550.14 6.65534 -3.5861 0
M  V30 27819 H 2551.41 7.34296 -2.61589 0
M  V30 27820 N 2555.63 1.17805 1.04688 0
M  V30 27821 C 2556.86 0.99282 1.81181 0
M  V30 27822 C 2557.27 -0.462066 1.83471 0
M  V30 27823 O 2556.62 -1.33269 1.26432 0
M  V30 27824 C 2556.68 1.46355 3.2836 0
M  V30 27825 C 2556.34 2.94157 3.49744 0
M  V30 27826 C 2557.34 3.92057 3.41449 0
M  V30 27827 C 2555.02 3.32447 3.76542 0
M  V30 27828 C 2557.02 5.26244 3.59647 0
M  V30 27829 C 2554.7 4.66799 3.94388 0
M  V30 27830 C 2555.7 5.63506 3.8594 0
M  V30 27831 O 2555.39 6.95427 4.03282 0
M  V30 27832 H 2555.12 0.351192 0.577616 0
M  V30 27833 H 2557.68 1.56633 1.32873 0
M  V30 27834 H 2555.91 0.83364 3.77607 0
M  V30 27835 H 2557.6 1.24319 3.86393 0
M  V30 27836 H 2558.36 3.63821 3.20717 0
M  V30 27837 H 2554.24 2.57739 3.82219 0
M  V30 27838 H 2557.78 6.01713 3.52969 0
M  V30 27839 H 2553.68 4.94738 4.14613 0
M  V30 27840 H 2554.45 7.0224 4.20478 0
M  V30 27841 N 2557.11 -1.23497 0.979094 0
M  V30 27842 C 2558.06 -2.26926 0.510644 0
M  V30 27843 C 2559.05 -1.63808 -0.431662 0
M  V30 27844 O 2560.26 -1.77385 -0.305699 0
M  V30 27845 H 2556.64 -0.737552 0.146701 0
M  V30 27846 H 2558.61 -2.638 1.3947 0
M  V30 27847 C 2557.36 -3.47271 -0.172597 0
M  V30 27848 H 2556.68 -3.9609 0.543401 0
M  V30 27849 H 2558.12 -4.21453 -0.464027 0
M  V30 27850 C 2556.58 -3.06278 -1.4034 0
M  V30 27851 O 2557.11 -3.14447 -2.49972 0
M  V30 27852 N 2555.31 -2.61206 -1.27358 0
M  V30 27853 H 2554.86 -2.54759 -0.381539 0
M  V30 27854 H 2554.82 -2.34144 -2.09818 0
M  V30 27855 N 2558.59 -0.750586 -1.38578 0
M  V30 27856 C 2559.54 -0.110203 -2.32339 0
M  V30 27857 C 2560.53 0.708647 -1.53865 0
M  V30 27858 O 2561.74 0.608082 -1.69418 0
M  V30 27859 H 2558.11 -0.0168407 -0.751811 0
M  V30 27860 H 2560.09 -0.917102 -2.83957 0
M  V30 27861 C 2558.83 0.771007 -3.39044 0
M  V30 27862 H 2558.16 0.150304 -3.99517 0
M  V30 27863 H 2559.6 1.18642 -4.07063 0
M  V30 27864 C 2558.06 1.91229 -2.77368 0
M  V30 27865 O 2558.59 3.00621 -2.66439 0
M  V30 27866 N 2556.79 1.70642 -2.35222 0
M  V30 27867 H 2556.34 0.816687 -2.44311 0
M  V30 27868 H 2556.3 2.47175 -1.94298 0
M  V30 27869 N 2560.07 1.49477 -0.499425 0
M  V30 27870 C 2561.02 2.3074 0.293564 0
M  V30 27871 C 2562.01 1.39279 0.964245 0
M  V30 27872 O 2563.22 1.56337 0.892114 0
M  V30 27873 H 2559.59 0.743381 0.113528 0
M  V30 27874 H 2561.56 2.95545 -0.411824 0
M  V30 27875 C 2560.31 3.20584 1.34615 0
M  V30 27876 H 2559.64 3.90887 0.839472 0
M  V30 27877 H 2561.08 3.80387 1.87302 0
M  V30 27878 C 2559.53 2.40087 2.36347 0
M  V30 27879 O 2560.06 2.10391 3.42197 0
M  V30 27880 N 2558.27 2.0214 2.08777 0
M  V30 27881 H 2557.82 2.2649 1.22719 0
M  V30 27882 H 2557.78 1.48588 2.77072 0
M  V30 27883 N 2561.55 0.233191 1.55865 0
M  V30 27884 C 2562.5 -0.688471 2.22177 0
M  V30 27885 C 2563.49 -1.19074 1.20489 0
M  V30 27886 O 2564.7 -1.14922 1.38538 0
M  V30 27887 H 2561.07 -0.24047 0.712515 0
M  V30 27888 H 2563.04 -0.105883 2.98212 0
M  V30 27889 C 2561.79 -1.88066 2.92449 0
M  V30 27890 H 2561.11 -1.5033 3.7046 0
M  V30 27891 H 2562.55 -2.50308 3.42231 0
M  V30 27892 C 2561.01 -2.74332 1.9556 0
M  V30 27893 O 2561.54 -3.73445 1.47993 0
M  V30 27894 N 2559.75 -2.4061 1.62957 0
M  V30 27895 H 2559.3 -1.60065 2.01834 0
M  V30 27896 H 2559.25 -2.98607 0.983939 0
M  V30 27897 N 2563.03 -1.57549 -0.0400806 0
M  V30 27898 C 2564.27 -1.88392 -0.731644 0
M  V30 27899 C 2564.59 -0.829456 -1.7648 0
M  V30 27900 O 2563.86 0.138265 -1.95411 0
M  V30 27901 H 2562.44 -0.695244 -0.273213 0
M  V30 27902 H 2565.11 -1.94898 -0.00864299 0
M  V30 27903 H 2564.2 -2.86921 -1.22811 0
M  V30 27904 N 2564.5 0.312142 -1.54478 0
M  V30 27905 C 2565.78 1.06764 -1.63893 0
M  V30 27906 C 2566.16 2.05569 -0.480064 0
M  V30 27907 O 2565.51 2.224 0.524448 0
M  V30 27908 C 2565.72 1.75943 -3.01405 0
M  V30 27909 C 2567.07 2.28548 -3.57842 0
M  V30 27910 O 2568.09 1.85992 -3.03785 0
M  V30 27911 O 2566.95 3.06489 -4.52467 0
M  V30 27912 H 2564.04 0.492804 -0.664133 0
M  V30 27913 H 2566.59 0.31112 -1.66824 0
M  V30 27914 H 2565.36 1.04138 -3.77188 0
M  V30 27915 H 2564.98 2.58378 -3.02203 0
M  V30 27916 N 2565.98 1.46745 0.574784 0
M  V30 27917 C 2566.89 1.60508 1.71098 0
M  V30 27918 C 2567.91 0.488336 1.67007 0
M  V30 27919 O 2569.08 0.753528 1.86772 0
M  V30 27920 C 2566.15 1.59937 3.07605 0
M  V30 27921 C 2565.21 2.82904 3.22899 0
M  V30 27922 C 2564.44 2.82351 4.52895 0
M  V30 27923 O 2564.67 1.91551 5.37275 0
M  V30 27924 O 2563.6 3.73995 4.71605 0
M  V30 27925 H 2567.43 2.56612 1.62432 0
M  V30 27926 H 2565.01 1.29628 0.742756 0
M  V30 27927 H 2566.89 1.62343 3.88874 0
M  V30 27928 H 2565.57 0.669954 3.16691 0
M  V30 27929 H 2564.47 2.8605 2.41094 0
M  V30 27930 H 2565.81 3.75081 3.18708 0
M  V30 27931 N 2567.46 -0.820078 1.34583 0
M  V30 27932 C 2568.71 -1.57149 1.2644 0
M  V30 27933 C 2569.02 -1.94919 -0.163076 0
M  V30 27934 O 2570.23 -2.69013 -0.366675 0
M  V30 27935 C 2568.68 -2.83537 2.21663 0
M  V30 27936 C 2568.29 -2.53058 3.69683 0
M  V30 27937 C 2570.04 -3.61557 2.22434 0
M  V30 27938 C 2567.94 -3.75656 4.56767 0
M  V30 27939 H 2566.87 -0.589815 0.469718 0
M  V30 27940 H 2569.52 -0.902628 1.59765 0
M  V30 27941 H 2567.91 -3.52064 1.81293 0
M  V30 27942 H 2569.08 -1.92624 4.18608 0
M  V30 27943 H 2567.39 -1.88309 3.71387 0
M  V30 27944 H 2569.99 -4.52592 2.84718 0
M  V30 27945 H 2570.33 -3.97887 1.22441 0
M  V30 27946 H 2570.87 -2.99977 2.61264 0
M  V30 27947 H 2567.61 -3.44445 5.57708 0
M  V30 27948 H 2567.13 -4.35363 4.12576 0
M  V30 27949 H 2568.81 -4.43036 4.71517 0
M  V30 27950 N 2568.94 -1.18359 -1.04062 0
M  V30 27951 C 2570.19 -0.973344 -1.7666 0
M  V30 27952 C 2570.5 0.497958 -1.89155 0
M  V30 27953 O 2571.71 0.826716 -2.58607 0
M  V30 27954 C 2570.16 -1.69247 -3.17622 0
M  V30 27955 C 2569.77 -3.20308 -3.1322 0
M  V30 27956 C 2571.51 -1.56504 -3.94597 0
M  V30 27957 C 2569.42 -3.8486 -4.49039 0
M  V30 27958 H 2568.35 -0.360552 -0.662207 0
M  V30 27959 H 2571 -1.41733 -1.16551 0
M  V30 27960 H 2569.38 -1.17626 -3.78127 0
M  V30 27961 H 2570.56 -3.78954 -2.62165 0
M  V30 27962 H 2568.87 -3.33193 -2.49743 0
M  V30 27963 H 2571.47 -2.02093 -4.95038 0
M  V30 27964 H 2571.81 -0.517315 -4.13073 0
M  V30 27965 H 2572.35 -2.05405 -3.40666 0
M  V30 27966 H 2569.08 -4.8968 -4.35768 0
M  V30 27967 H 2568.6 -3.31003 -5.00197 0
M  V30 27968 H 2570.28 -3.87727 -5.17955 0
M  V30 27969 N 2570.42 1.22976 -0.98563 0
M  V30 27970 C 2571.83 1.73337 -0.693624 0
M  V30 27971 C 2572.18 1.79597 0.789903 0
M  V30 27972 O 2571.3 1.43736 1.61769 0
M  V30 27973 C 2571.9 3.14802 -1.25241 0
M  V30 27974 C 2570.46 3.62598 -1.00994 0
M  V30 27975 C 2569.6 2.40695 -1.37699 0
M  V30 27976 H 2572.55 1.08426 -1.15886 0
M  V30 27977 H 2572.58 3.75292 -0.627395 0
M  V30 27978 H 2572.09 3.10214 -2.33214 0
M  V30 27979 H 2570.19 3.72562 0.053491 0
M  V30 27980 H 2570.3 4.49119 -1.6682 0
M  V30 27981 H 2568.67 2.41958 -0.795501 0
M  V30 27982 H 2569.45 2.38774 -2.46661 0
M  V30 27983 N 2571.89 0.757924 1.38178 0
M  V30 27984 C 2573.12 0.326973 2.043 0
M  V30 27985 C 2573.54 -1.04617 1.57165 0
M  V30 27986 O 2572.89 -1.66527 0.746655 0
M  V30 27987 C 2572.94 0.345427 3.59846 0
M  V30 27988 O 2572.67 1.66439 4.05253 0
M  V30 27989 C 2574.17 -0.0988491 4.4319 0
M  V30 27990 H 2571.39 0.139023 0.65644 0
M  V30 27991 H 2573.93 1.02799 1.76784 0
M  V30 27992 H 2572.09 -0.306888 3.86183 0
M  V30 27993 H 2572.5 1.59354 4.99707 0
M  V30 27994 H 2573.97 -0.0347775 5.51989 0
M  V30 27995 H 2574.45 -1.14734 4.23949 0
M  V30 27996 H 2575.06 0.524754 4.2205 0
M  V30 27997 N 2573.37 -1.4921 0.507345 0
M  V30 27998 C 2574.32 -2.30892 -0.281323 0
M  V30 27999 C 2575.31 -1.39789 -0.956845 0
M  V30 28000 O 2576.52 -1.56808 -0.883811 0
M  V30 28001 H 2572.9 -0.743973 -0.109584 0
M  V30 28002 H 2574.87 -2.95322 0.427492 0
M  V30 28003 C 2573.62 -3.21293 -1.32913 0
M  V30 28004 H 2572.94 -3.91327 -0.81873 0
M  V30 28005 H 2574.38 -3.81375 -1.85282 0
M  V30 28006 C 2572.84 -2.41337 -2.3507 0
M  V30 28007 O 2573.37 -2.12203 -3.41076 0
M  V30 28008 N 2571.57 -2.03245 -2.07702 0
M  V30 28009 H 2571.12 -2.27138 -1.21516 0
M  V30 28010 H 2571.08 -1.50056 -2.7628 0
M  V30 28011 N 2574.85 -0.241454 -1.55739 0
M  V30 28012 C 2576.08 0.389098 -2.03208 0
M  V30 28013 C 2576.49 1.51929 -1.12084 0
M  V30 28014 O 2575.85 1.82006 -0.134215 0
M  V30 28015 C 2575.9 0.902026 -3.50065 0
M  V30 28016 O 2575.62 -0.183127 -4.37717 0
M  V30 28017 C 2577.12 1.60382 -4.13271 0
M  V30 28018 H 2574.34 0.0930936 -0.664511 0
M  V30 28019 H 2576.89 -0.363726 -2.01239 0
M  V30 28020 H 2575.04 1.60505 -3.52586 0
M  V30 28021 H 2575.46 0.205487 -5.24097 0
M  V30 28022 H 2576.93 1.91449 -5.17737 0
M  V30 28023 H 2577.41 2.5239 -3.59438 0
M  V30 28024 H 2578.01 0.945503 -4.14657 0
M  V30 28025 N 2576.33 1.57568 0.0317248 0
M  V30 28026 C 2577.26 2.09422 1.03271 0
M  V30 28027 C 2578.24 0.996168 1.37879 0
M  V30 28028 O 2579.42 1.27125 1.46809 0
M  V30 28029 C 2576.55 2.57141 2.33443 0
M  V30 28030 C 2575.51 3.71186 2.13085 0
M  V30 28031 C 2574.83 4.05102 3.48994 0
M  V30 28032 C 2576.13 4.99718 1.51919 0
M  V30 28033 H 2577.83 2.93304 0.601069 0
M  V30 28034 H 2575.37 1.41097 0.28768 0
M  V30 28035 H 2577.33 2.92037 3.03796 0
M  V30 28036 H 2576.05 1.70338 2.78662 0
M  V30 28037 H 2574.71 3.36634 1.45165 0
M  V30 28038 H 2574.36 3.15369 3.91857 0
M  V30 28039 H 2574.06 4.81917 3.36198 0
M  V30 28040 H 2575.58 4.4253 4.20714 0
M  V30 28041 H 2577 5.32588 2.12186 0
M  V30 28042 H 2575.39 5.81127 1.49706 0
M  V30 28043 H 2576.46 4.82471 0.484726 0
M  V30 28044 N 2577.81 -0.303946 1.54641 0
M  V30 28045 C 2578.72 -1.3974 1.88441 0
M  V30 28046 C 2579.73 -1.55625 0.778266 0
M  V30 28047 O 2580.91 -1.70345 1.07445 0
M  V30 28048 C 2577.97 -2.74162 2.12217 0
M  V30 28049 C 2577.03 -2.67287 3.35941 0
M  V30 28050 C 2576.27 -3.95298 3.58573 0
M  V30 28051 O 2576.49 -4.94515 2.84272 0
M  V30 28052 O 2575.42 -3.9737 4.52085 0
M  V30 28053 H 2579.25 -1.14078 2.8146 0
M  V30 28054 H 2576.84 -0.499744 1.40794 0
M  V30 28055 H 2578.72 -3.53699 2.29073 0
M  V30 28056 H 2577.39 -2.99673 1.22384 0
M  V30 28057 H 2576.3 -1.86232 3.24451 0
M  V30 28058 H 2577.63 -2.46729 4.25894 0
M  V30 28059 N 2579.28 -1.47047 -0.566994 0
M  V30 28060 C 2580.19 -1.61413 -1.70244 0
M  V30 28061 C 2581.21 -0.497186 -1.66745 0
M  V30 28062 O 2582.39 -0.763422 -1.8637 0
M  V30 28063 C 2579.45 -1.61566 -3.06753 0
M  V30 28064 C 2578.51 -2.84613 -3.21394 0
M  V30 28065 C 2577.75 -2.84749 -4.51391 0
M  V30 28066 O 2577.97 -1.94398 -5.36252 0
M  V30 28067 O 2576.9 -3.76491 -4.69615 0
M  V30 28068 H 2580.73 -2.5747 -1.61069 0
M  V30 28069 H 2578.31 -1.3002 -0.735871 0
M  V30 28070 H 2580.2 -1.64403 -3.88007 0
M  V30 28071 H 2578.87 -0.686739 -3.16331 0
M  V30 28072 H 2577.78 -2.87324 -2.39574 0
M  V30 28073 H 2579.11 -3.76766 -3.16714 0
M  V30 28074 N 2580.76 0.812929 -1.35016 0
M  V30 28075 C 2582.01 1.56476 -1.27272 0
M  V30 28076 C 2582.32 1.95003 0.152737 0
M  V30 28077 O 2583.53 2.69203 0.352404 0
M  V30 28078 C 2581.99 2.82358 -2.23164 0
M  V30 28079 C 2581.59 2.51094 -3.7102 0
M  V30 28080 C 2583.34 3.60372 -2.24349 0
M  V30 28081 C 2581.25 3.73229 -4.58753 0
M  V30 28082 H 2580.18 0.587315 -0.472839 0
M  V30 28083 H 2582.83 0.894143 -1.60241 0
M  V30 28084 H 2581.21 3.51097 -1.83157 0
M  V30 28085 H 2582.38 1.90401 -4.19624 0
M  V30 28086 H 2580.7 1.86337 -3.72381 0
M  V30 28087 H 2583.29 4.51076 -2.87115 0
M  V30 28088 H 2583.64 3.97232 -1.24549 0
M  V30 28089 H 2584.17 2.98587 -2.62851 0
M  V30 28090 H 2580.91 3.41482 -5.59527 0
M  V30 28091 H 2580.43 4.33169 -4.14879 0
M  V30 28092 H 2582.11 4.40529 -4.7386 0
M  V30 28093 N 2582.24 1.18909 1.03433 0
M  V30 28094 C 2583.17 0.865247 2.1116 0
M  V30 28095 C 2584.15 -0.175444 1.61651 0
M  V30 28096 O 2585.34 -0.0529798 1.88426 0
M  V30 28097 C 2582.46 0.293927 3.37422 0
M  V30 28098 C 2581.51 1.31281 4.05793 0
M  V30 28099 S 2582.34 2.87118 4.52022 0
M  V30 28100 C 2583.5 2.31514 5.81508 0
M  V30 28101 H 2583.73 1.77758 2.38305 0
M  V30 28102 H 2581.26 1.01564 1.16293 0
M  V30 28103 H 2583.22 -0.029185 4.1049 0
M  V30 28104 H 2581.88 -0.596628 3.08382 0
M  V30 28105 H 2581.08 0.862067 4.96573 0
M  V30 28106 H 2580.68 1.58248 3.38871 0
M  V30 28107 H 2582.97 1.70169 6.55781 0
M  V30 28108 H 2583.91 3.2062 6.31355 0
M  V30 28109 H 2584.32 1.74296 5.36918 0
M  V30 28110 N 2583.72 -1.22452 0.992137 0
M  V30 28111 C 2584.65 -2.26643 0.561716 0
M  V30 28112 C 2585.63 -1.65059 -0.411026 0
M  V30 28113 O 2586.81 -1.9184 -0.301827 0
M  V30 28114 C 2583.94 -3.47074 -0.125186 0
M  V30 28115 C 2582.9 -4.21089 0.766022 0
M  V30 28116 C 2582.22 -5.34673 -0.0537544 0
M  V30 28117 C 2583.52 -4.79852 2.0625 0
M  V30 28118 H 2585.22 -2.62899 1.43263 0
M  V30 28119 H 2582.76 -1.26376 0.690305 0
M  V30 28120 H 2584.72 -4.19121 -0.43769 0
M  V30 28121 H 2583.44 -3.09912 -1.03064 0
M  V30 28122 H 2582.1 -3.50876 1.06216 0
M  V30 28123 H 2581.75 -4.93752 -0.960101 0
M  V30 28124 H 2581.45 -5.85118 0.539517 0
M  V30 28125 H 2582.97 -6.09536 -0.36037 0
M  V30 28126 H 2584.39 -5.43845 1.814 0
M  V30 28127 H 2582.78 -5.40633 2.60453 0
M  V30 28128 H 2583.85 -3.99946 2.74174 0
M  V30 28129 N 2585.2 -0.765242 -1.37774 0
M  V30 28130 C 2586.16 -0.153456 -2.28686 0
M  V30 28131 C 2587.16 0.635055 -1.47728 0
M  V30 28132 O 2588.35 0.459602 -1.68028 0
M  V30 28133 C 2585.48 0.790436 -3.3161 0
M  V30 28134 H 2586.67 -0.954773 -2.84296 0
M  V30 28135 H 2584.23 -0.533016 -1.46931 0
M  V30 28136 H 2584.96 1.617 -2.81111 0
M  V30 28137 H 2584.75 0.227279 -3.91441 0
M  V30 28138 H 2586.24 1.21412 -3.99561 0
M  V30 28139 N 2586.67 1.48939 -0.515251 0
M  V30 28140 C 2587.92 2.02486 0.0241794 0
M  V30 28141 C 2588.25 1.39371 1.35669 0
M  V30 28142 O 2587.5 0.523607 1.88565 0
M  V30 28143 C 2587.8 3.56779 0.210532 0
M  V30 28144 C 2587.47 4.38605 -1.04576 0
M  V30 28145 C 2586.13 4.60684 -1.3901 0
M  V30 28146 C 2588.48 4.86106 -1.88017 0
M  V30 28147 C 2585.81 5.27509 -2.56809 0
M  V30 28148 C 2588.16 5.54228 -3.04982 0
M  V30 28149 C 2586.83 5.74549 -3.39779 0
M  V30 28150 H 2586.1 0.740947 0.00884786 0
M  V30 28151 H 2588.74 1.79085 -0.678294 0
M  V30 28152 H 2587.05 3.78938 0.995653 0
M  V30 28153 H 2588.75 3.95818 0.64259 0
M  V30 28154 H 2585.34 4.21671 -0.767571 0
M  V30 28155 H 2589.52 4.68864 -1.62727 0
M  V30 28156 H 2584.78 5.41442 -2.8399 0
M  V30 28157 H 2588.95 5.90007 -3.69953 0
M  V30 28158 H 2586.58 6.26104 -4.31159 0
M  V30 28159 N 2588.15 0.249709 1.55609 0
M  V30 28160 C 2589.38 -0.381269 2.03865 0
M  V30 28161 C 2589.8 -1.50546 1.12771 0
M  V30 28162 O 2589.16 -1.80894 0.121221 0
M  V30 28163 C 2589.21 -0.863754 3.50102 0
M  V30 28164 O 2588.31 -1.97311 3.62135 0
M  V30 28165 H 2587.65 -0.0827079 0.658829 0
M  V30 28166 H 2590.18 0.376587 2.01104 0
M  V30 28167 H 2590.19 -1.16623 3.90977 0
M  V30 28168 H 2588.87 -0.0411085 4.1588 0
M  V30 28169 H 2587.45 -1.67512 3.33158 0
M  V30 28170 N 2589.63 -1.57583 -0.0233682 0
M  V30 28171 C 2590.58 -2.03398 -1.0302 0
M  V30 28172 C 2591.57 -0.924338 -1.317 0
M  V30 28173 O 2592.76 -1.18821 -1.31189 0
M  V30 28174 C 2589.89 -2.52163 -2.32957 0
M  V30 28175 C 2588.97 -3.69959 -2.07342 0
M  V30 28176 N 2589.36 -4.82482 -1.51805 0
M  V30 28177 C 2587.66 -3.77442 -2.37599 0
M  V30 28178 C 2588.36 -5.6407 -1.42126 0
M  V30 28179 N 2587.34 -5.09358 -1.89882 0
M  V30 28180 H 2591.14 -2.87816 -0.594911 0
M  V30 28181 H 2588.65 -1.60769 -0.229557 0
M  V30 28182 H 2590.65 -2.83249 -3.05901 0
M  V30 28183 H 2589.31 -1.69154 -2.77159 0
M  V30 28184 H 2590.32 -5.03806 -1.19999 0
M  V30 28185 H 2587 -3.05244 -2.84837 0
M  V30 28186 H 2588.39 -6.64473 -0.996288 0
M  V30 28187 N 2591.11 0.29574 -1.548 0
M  V30 28188 C 2592.36 1.02785 -1.75518 0
M  V30 28189 C 2592.71 1.84745 -0.537299 0
M  V30 28190 O 2592 1.85739 0.470266 0
M  V30 28191 C 2592.2 1.96094 -2.98801 0
M  V30 28192 C 2592.03 1.23314 -4.32462 0
M  V30 28193 C 2590.8 0.958133 -4.96133 0
M  V30 28194 C 2592.99 0.634934 -5.10366 0
M  V30 28195 N 2590.98 0.20115 -6.1357 0
M  V30 28196 C 2592.35 0.0109847 -6.19999 0
M  V30 28197 C 2594.4 0.540507 -4.94958 0
M  V30 28198 C 2593.11 -0.698262 -7.15903 0
M  V30 28199 C 2595.13 -0.155096 -5.91197 0
M  V30 28200 C 2594.49 -0.767875 -7.00202 0
M  V30 28201 H 2590.59 0.35887 -0.694792 0
M  V30 28202 H 2593.18 0.305909 -1.92282 0
M  V30 28203 H 2591.35 2.65535 -2.83453 0
M  V30 28204 H 2593.08 2.62497 -3.08022 0
M  V30 28205 H 2589.83 1.25763 -4.56597 0
M  V30 28206 H 2590.26 -0.164009 -6.76801 0
M  V30 28207 H 2594.9 0.999962 -4.10805 0
M  V30 28208 H 2592.62 -1.16947 -7.99593 0
M  V30 28209 H 2596.2 -0.228172 -5.81352 0
M  V30 28210 H 2595.08 -1.29757 -7.7339 0
M  V30 28211 N 2592.59 1.47346 0.559187 0
M  V30 28212 C 2593.82 1.57481 1.34191 0
M  V30 28213 C 2594.23 0.224294 1.87463 0
M  V30 28214 O 2593.59 -0.782156 1.6489 0
M  V30 28215 C 2593.64 2.59848 2.51319 0
M  V30 28216 O 2593.36 3.89656 2.00249 0
M  V30 28217 C 2594.86 2.80148 3.43558 0
M  V30 28218 H 2592.08 0.531843 0.409126 0
M  V30 28219 H 2594.62 1.92949 0.677575 0
M  V30 28220 H 2592.78 2.2732 3.13695 0
M  V30 28221 H 2593.19 4.45575 2.76701 0
M  V30 28222 H 2594.67 3.55642 4.22164 0
M  V30 28223 H 2595.14 1.87899 3.96977 0
M  V30 28224 H 2595.75 3.13865 2.86999 0
M  V30 28225 N 2594.07 -0.805758 1.35445 0
M  V30 28226 C 2595.3 -1.5919 1.3169 0
M  V30 28227 C 2595.7 -1.88894 -0.107526 0
M  V30 28228 O 2595.05 -1.4931 -1.07014 0
M  V30 28229 C 2595.11 -2.94841 2.05692 0
M  V30 28230 C 2594.77 -2.87948 3.54873 0
M  V30 28231 C 2595.77 -2.61327 4.49449 0
M  V30 28232 C 2593.45 -3.07039 3.97533 0
M  V30 28233 C 2595.45 -2.53874 5.84659 0
M  V30 28234 C 2593.14 -2.9921 5.32838 0
M  V30 28235 C 2594.13 -2.72663 6.26214 0
M  V30 28236 O 2593.82 -2.64798 7.59037 0
M  V30 28237 H 2593.55 -0.500962 0.453887 0
M  V30 28238 H 2596.11 -1.00927 1.78894 0
M  V30 28239 H 2594.34 -3.5509 1.53126 0
M  V30 28240 H 2596.03 -3.55989 1.95004 0
M  V30 28241 H 2596.79 -2.46296 4.17808 0
M  V30 28242 H 2592.67 -3.26712 3.25238 0
M  V30 28243 H 2596.22 -2.33074 6.57512 0
M  V30 28244 H 2592.11 -3.13799 5.64093 0
M  V30 28245 H 2592.88 -2.804 7.68972 0
M  V30 28246 N 2595.54 -1.19456 -1.02801 0
M  V30 28247 C 2596.45 -0.948445 -2.14573 0
M  V30 28248 C 2597.47 0.0918405 -1.73757 0
M  V30 28249 O 2598.65 -0.0930008 -2.01185 0
M  V30 28250 C 2595.71 -0.491326 -3.43201 0
M  V30 28251 C 2594.77 -1.6011 -3.98325 0
M  V30 28252 C 2594 -1.1657 -5.20814 0
M  V30 28253 O 2594.23 -0.029624 -5.70392 0
M  V30 28254 O 2593.16 -1.96859 -5.68797 0
M  V30 28255 H 2596.99 -1.88401 -2.38199 0
M  V30 28256 H 2594.57 -0.977453 -1.12988 0
M  V30 28257 H 2596.45 -0.245089 -4.20687 0
M  V30 28258 H 2595.13 0.415794 -3.21018 0
M  V30 28259 H 2594.04 -1.9015 -3.22171 0
M  V30 28260 H 2595.37 -2.48481 -4.24874 0
M  V30 28261 N 2597.02 1.21924 -0.998617 0
M  V30 28262 C 2598.25 1.94548 -0.695311 0
M  V30 28263 C 2598.66 1.73913 0.745049 0
M  V30 28264 O 2598 1.03883 1.51506 0
M  V30 28265 C 2598.06 3.47301 -0.928546 0
M  V30 28266 C 2597.73 3.91679 -2.3545 0
M  V30 28267 C 2598.73 3.98895 -3.33435 0
M  V30 28268 C 2596.41 4.2417 -2.69045 0
M  V30 28269 C 2598.4 4.37984 -4.63086 0
M  V30 28270 C 2596.09 4.62937 -3.98915 0
M  V30 28271 C 2597.09 4.69813 -4.95746 0
M  V30 28272 O 2596.78 5.077 -6.23294 0
M  V30 28273 H 2596.51 0.625687 -0.255913 0
M  V30 28274 H 2599.06 1.55868 -1.3377 0
M  V30 28275 H 2597.29 3.86021 -0.228985 0
M  V30 28276 H 2598.98 4.01143 -0.619609 0
M  V30 28277 H 2599.75 3.73977 -3.08814 0
M  V30 28278 H 2595.63 4.18019 -1.94375 0
M  V30 28279 H 2599.17 4.43266 -5.38666 0
M  V30 28280 H 2595.07 4.87307 -4.23323 0
M  V30 28281 H 2595.84 5.25755 -6.27315 0
M  V30 28282 N 2598.5 0.772537 1.37367 0
M  V30 28283 C 2599.73 0.348623 2.03942 0
M  V30 28284 C 2600.14 -1.02944 1.58265 0
M  V30 28285 O 2599.5 -1.65726 0.764275 0
M  V30 28286 C 2599.55 0.383574 3.59459 0
M  V30 28287 O 2599.27 1.70728 4.03465 0
M  V30 28288 C 2600.77 -0.0518373 4.4327 0
M  V30 28289 H 2597.99 0.145978 0.654929 0
M  V30 28290 H 2600.54 1.04668 1.75684 0
M  V30 28291 H 2598.69 -0.26591 3.86486 0
M  V30 28292 H 2599.11 1.64645 4.97988 0
M  V30 28293 H 2600.58 0.0237703 5.51995 0
M  V30 28294 H 2601.06 -1.10231 4.25142 0
M  V30 28295 H 2601.66 0.569489 4.2147 0
M  V30 28296 N 2599.98 -1.48664 0.523142 0
M  V30 28297 C 2601.39 -1.58576 0.180539 0
M  V30 28298 C 2601.59 -1.52595 -1.31595 0
M  V30 28299 O 2600.65 -1.41143 -2.09368 0
M  V30 28300 C 2601.96 -2.90488 0.777 0
M  V30 28301 C 2603.51 -3.04002 0.745111 0
M  V30 28302 C 2603.99 -4.38565 1.32003 0
M  V30 28303 N 2605.48 -4.45114 1.28169 0
M  V30 28304 C 2606.21 -5.47728 1.6965 0
M  V30 28305 N 2605.71 -6.57333 2.18828 0
M  V30 28306 N 2607.5 -5.38571 1.60929 0
M  V30 28307 H 2599.65 -1.50794 1.49582 0
M  V30 28308 H 2601.91 -0.715603 0.621785 0
M  V30 28309 H 2601.62 -3.005 1.82737 0
M  V30 28310 H 2601.49 -3.7637 0.250136 0
M  V30 28311 H 2603.88 -2.93607 -0.29648 0
M  V30 28312 H 2603.96 -2.19748 1.30937 0
M  V30 28313 H 2603.61 -4.49714 2.36051 0
M  V30 28314 H 2603.54 -5.21494 0.73151 0
M  V30 28315 H 2606.03 -3.6649 0.921615 0
M  V30 28316 H 2606.34 -7.31759 2.48491 0
M  V30 28317 H 2604.69 -6.58314 2.22817 0
M  V30 28318 H 2607.88 -4.51838 1.22312 0
M  V30 28319 H 2608.05 -6.18411 1.93578 0
M  V30 28320 N 2601.46 -0.257958 -1.55475 0
M  V30 28321 C 2602.7 0.362974 -1.98814 0
M  V30 28322 C 2603.02 1.57655 -1.1476 0
M  V30 28323 O 2602.29 1.9451 -0.23299 0
M  V30 28324 H 2600.87 0.1371 -0.734311 0
M  V30 28325 H 2603.54 -0.359314 -1.91559 0
M  V30 28326 H 2602.63 0.66458 -3.04942 0
M  V30 28327 N 2602.93 1.57593 0.0150108 0
M  V30 28328 C 2603.84 2.10884 1.02787 0
M  V30 28329 C 2604.86 1.05063 1.387 0
M  V30 28330 O 2606.04 1.36879 1.47736 0
M  V30 28331 C 2603.1 2.58923 2.30564 0
M  V30 28332 C 2602.16 3.79284 2.01102 0
M  V30 28333 C 2601.4 4.25023 3.22786 0
M  V30 28334 O 2601.62 3.70191 4.33953 0
M  V30 28335 O 2600.55 5.17327 3.07662 0
M  V30 28336 H 2604.38 2.97615 0.604921 0
M  V30 28337 H 2601.96 1.47574 0.232894 0
M  V30 28338 H 2603.85 2.90089 3.05657 0
M  V30 28339 H 2602.52 1.75297 2.72126 0
M  V30 28340 H 2601.43 3.53116 1.23531 0
M  V30 28341 H 2602.76 4.63938 1.64386 0
M  V30 28342 N 2604.41 -0.287527 1.54955 0
M  V30 28343 C 2605.34 -1.35951 1.89841 0
M  V30 28344 C 2606.32 -1.52242 0.758702 0
M  V30 28345 O 2607.51 -1.65527 1.0156 0
M  V30 28346 C 2604.64 -2.72151 2.15758 0
M  V30 28347 C 2603.59 -2.70608 3.31595 0
M  V30 28348 C 2602.92 -4.10223 3.42959 0
M  V30 28349 C 2604.22 -2.31157 4.68363 0
M  V30 28350 H 2605.91 -1.07002 2.79627 0
M  V30 28351 H 2603.46 -0.513292 1.34541 0
M  V30 28352 H 2605.41 -3.47242 2.38749 0
M  V30 28353 H 2604.14 -3.02652 1.22757 0
M  V30 28354 H 2602.79 -1.97974 3.08548 0
M  V30 28355 H 2602.44 -4.37924 2.47451 0
M  V30 28356 H 2602.14 -4.10089 4.20833 0
M  V30 28357 H 2603.67 -4.87074 3.68227 0
M  V30 28358 H 2605.08 -2.95967 4.90995 0
M  V30 28359 H 2603.48 -2.42212 5.49048 0
M  V30 28360 H 2604.55 -1.26283 4.68167 0
M  V30 28361 N 2605.89 -1.47641 -0.551365 0
M  V30 28362 C 2606.82 -1.63448 -1.66755 0
M  V30 28363 C 2607.8 -0.48377 -1.63076 0
M  V30 28364 O 2608.99 -0.713802 -1.80606 0
M  V30 28365 C 2606.12 -1.65401 -3.05384 0
M  V30 28366 C 2605.07 -2.79758 -3.23913 0
M  V30 28367 C 2604.4 -2.66787 -4.63388 0
M  V30 28368 C 2605.7 -4.21289 -3.08727 0
M  V30 28369 H 2607.39 -2.56888 -1.53781 0
M  V30 28370 H 2604.94 -1.23627 -0.738394 0
M  V30 28371 H 2606.89 -1.7505 -3.83322 0
M  V30 28372 H 2605.61 -0.685251 -3.1933 0
M  V30 28373 H 2604.27 -2.69629 -2.48386 0
M  V30 28374 H 2603.92 -1.67926 -4.74141 0
M  V30 28375 H 2603.62 -3.4351 -4.76734 0
M  V30 28376 H 2605.14 -2.78373 -5.43453 0
M  V30 28377 H 2606.56 -4.32364 -3.76476 0
M  V30 28378 H 2604.96 -4.98844 -3.33579 0
M  V30 28379 H 2606.03 -4.39247 -2.05402 0
M  V30 28380 N 2607.37 0.798563 -1.3587 0
M  V30 28381 C 2608.61 1.55834 -1.29783 0
M  V30 28382 C 2608.95 1.93795 0.125287 0
M  V30 28383 O 2608.22 1.61989 1.07656 0
M  V30 28384 C 2608.51 2.84158 -2.21193 0
M  V30 28385 C 2608.36 2.52622 -3.72159 0
M  V30 28386 C 2609.68 3.8592 -2.11551 0
M  V30 28387 H 2606.8 0.565375 -0.472779 0
M  V30 28388 H 2609.44 0.918163 -1.66342 0
M  V30 28389 H 2607.59 3.38788 -1.90145 0
M  V30 28390 H 2609.26 2.04113 -4.13685 0
M  V30 28391 H 2607.5 1.85697 -3.92045 0
M  V30 28392 H 2608.17 3.44234 -4.31517 0
M  V30 28393 H 2610.65 3.40712 -2.38861 0
M  V30 28394 H 2609.53 4.73473 -2.77696 0
M  V30 28395 H 2609.79 4.28198 -1.09994 0
M  V30 28396 N 2608.85 1.19999 1.02166 0
M  V30 28397 C 2609.78 0.968077 2.12486 0
M  V30 28398 C 2610.76 -0.101155 1.69799 0
M  V30 28399 O 2611.94 0.0553334 1.94121 0
M  V30 28400 C 2609.07 0.513836 3.43478 0
M  V30 28401 C 2608.03 1.52573 3.99882 0
M  V30 28402 C 2607.35 0.928307 5.2658 0
M  V30 28403 C 2608.65 2.90803 4.33856 0
M  V30 28404 H 2610.35 1.89074 2.32146 0
M  V30 28405 H 2607.89 0.910488 1.11562 0
M  V30 28406 H 2609.85 0.338847 4.20035 0
M  V30 28407 H 2608.57 -0.444436 3.23562 0
M  V30 28408 H 2607.23 1.68799 3.25426 0
M  V30 28409 H 2606.88 -0.0377405 5.02986 0
M  V30 28410 H 2606.58 1.60407 5.65282 0
M  V30 28411 H 2608.1 0.764274 6.05798 0
M  V30 28412 H 2609.51 2.78118 5.01322 0
M  V30 28413 H 2607.91 3.55239 4.83658 0
M  V30 28414 H 2608.98 3.4291 3.42842 0
M  V30 28415 N 2610.32 -1.21392 1.00507 0
M  V30 28416 C 2611.6 -1.86063 0.60331 0
M  V30 28417 C 2611.98 -1.90043 -0.919062 0
M  V30 28418 O 2611.33 -1.3998 -1.80604 0
M  V30 28419 C 2611.54 -3.26313 1.23777 0
M  V30 28420 C 2612.89 -4.02703 1.34594 0
M  V30 28421 O 2613.91 -3.35624 1.1931 0
M  V30 28422 O 2612.77 -5.22804 1.59179 0
M  V30 28423 H 2609.86 -0.800766 0.206648 0
M  V30 28424 H 2612.41 -1.29075 1.10172 0
M  V30 28425 H 2611.18 -3.18117 2.27853 0
M  V30 28426 H 2610.81 -3.90921 0.725716 0
M  V30 28427 N 2611.8 -0.779811 -1.36955 0
M  V30 28428 C 2612.73 -0.185692 -2.3276 0
M  V30 28429 C 2613.71 0.673961 -1.56179 0
M  V30 28430 O 2614.9 0.609765 -1.84379 0
M  V30 28431 C 2612.03 0.687904 -3.40419 0
M  V30 28432 C 2610.98 -0.0710854 -4.27941 0
M  V30 28433 C 2610.31 0.92248 -5.26682 0
M  V30 28434 C 2611.61 -1.25476 -5.07004 0
M  V30 28435 H 2613.3 -0.986058 -2.82696 0
M  V30 28436 H 2610.85 -0.475616 -1.35919 0
M  V30 28437 H 2612.8 1.1134 -4.06425 0
M  V30 28438 H 2611.53 1.52088 -2.89028 0
M  V30 28439 H 2610.18 -0.477454 -3.63478 0
M  V30 28440 H 2609.83 1.75022 -4.71568 0
M  V30 28441 H 2609.53 0.419134 -5.86103 0
M  V30 28442 H 2611.06 1.34675 -5.95563 0
M  V30 28443 H 2612.47 -0.9055 -5.66104 0
M  V30 28444 H 2610.87 -1.69074 -5.7579 0
M  V30 28445 H 2611.94 -2.05489 -4.39207 0
M  V30 28446 N 2613.28 1.48384 -0.531019 0
M  V30 28447 C 2614.21 2.27624 0.268313 0
M  V30 28448 C 2615.23 1.35428 0.903501 0
M  V30 28449 O 2616.41 1.6047 0.781768 0
M  V30 28450 C 2613.51 3.08844 1.3953 0
M  V30 28451 C 2612.69 4.28825 0.861837 0
M  V30 28452 C 2611.75 4.91848 1.87008 0
M  V30 28453 O 2610.77 5.51032 1.4266 0
M  V30 28454 N 2611.97 4.84183 3.20229 0
M  V30 28455 H 2614.74 2.96865 -0.411283 0
M  V30 28456 H 2612.3 1.57722 -0.365415 0
M  V30 28457 H 2614.29 3.47875 2.06797 0
M  V30 28458 H 2612.86 2.42017 1.97854 0
M  V30 28459 H 2612.08 3.94198 0.0131433 0
M  V30 28460 H 2613.37 5.0649 0.484326 0
M  V30 28461 H 2612.77 4.37252 3.58925 0
M  V30 28462 H 2611.33 5.27311 3.83127 0
M  V30 28463 N 2614.76 0.2662 1.55336 0
M  V30 28464 C 2616.01 -0.352425 1.99003 0
M  V30 28465 C 2616.33 -1.57045 1.15594 0
M  V30 28466 O 2615.6 -1.94383 0.243302 0
M  V30 28467 H 2614.18 -0.133204 0.735028 0
M  V30 28468 H 2616.84 0.369468 1.91366 0
M  V30 28469 H 2615.94 -0.648399 3.0529 0
M  V30 28470 N 2616.24 -1.57599 -0.0066531 0
M  V30 28471 C 2617.48 -1.90559 -0.693914 0
M  V30 28472 C 2617.82 -0.866625 -1.73791 0
M  V30 28473 O 2617.09 0.115514 -1.94157 0
M  V30 28474 C 2617.37 -3.34115 -1.34311 0
M  V30 28475 C 2617.23 -4.48723 -0.31111 0
M  V30 28476 C 2618.55 -3.76974 -2.27109 0
M  V30 28477 H 2615.66 -0.693017 -0.250791 0
M  V30 28478 H 2618.31 -1.89951 0.0432754 0
M  V30 28479 H 2616.46 -3.34763 -1.97144 0
M  V30 28480 H 2618.13 -4.60209 0.317025 0
M  V30 28481 H 2616.37 -4.32242 0.367329 0
M  V30 28482 H 2617.04 -5.46109 -0.80427 0
M  V30 28483 H 2619.52 -3.77834 -1.743 0
M  V30 28484 H 2618.39 -4.78184 -2.69502 0
M  V30 28485 H 2618.66 -3.10472 -3.14738 0
M  V30 28486 N 2617.72 0.279305 -1.55105 0
M  V30 28487 C 2618.96 1.00974 -1.75068 0
M  V30 28488 C 2619.28 1.87044 -0.551309 0
M  V30 28489 O 2618.55 1.91033 0.43395 0
M  V30 28490 H 2617.13 0.375805 -0.645585 0
M  V30 28491 H 2619.8 0.305055 -1.92498 0
M  V30 28492 H 2618.89 1.65033 -2.64897 0
M  V30 28493 N 2619.19 1.47931 0.543528 0
M  V30 28494 C 2620.1 1.64101 1.67654 0
M  V30 28495 C 2621.12 0.523651 1.65933 0
M  V30 28496 O 2622.3 0.792975 1.85132 0
M  V30 28497 C 2619.36 1.66426 3.04144 0
M  V30 28498 C 2618.42 2.8969 3.16825 0
M  V30 28499 C 2617.65 2.91894 4.46804 0
M  V30 28500 O 2617.88 2.02904 5.33091 0
M  V30 28501 O 2616.81 3.83915 4.63566 0
M  V30 28502 H 2620.64 2.59999 1.56952 0
M  V30 28503 H 2618.22 1.31175 0.715093 0
M  V30 28504 H 2620.1 1.70555 3.85343 0
M  V30 28505 H 2618.78 0.736978 3.15199 0
M  V30 28506 H 2617.69 2.91099 2.34972 0
M  V30 28507 H 2619.02 3.81757 3.1068 0
M  V30 28508 N 2620.67 -0.791347 1.36292 0
M  V30 28509 C 2621.62 -1.9253 1.30518 0
M  V30 28510 C 2622.61 -1.68247 0.197315 0
M  V30 28511 O 2623.82 -1.76277 0.364207 0
M  V30 28512 H 2620.19 -0.632808 0.406274 0
M  V30 28513 H 2622.17 -1.94519 2.26285 0
M  V30 28514 C 2620.91 -3.29527 1.10939 0
M  V30 28515 H 2620.24 -3.48778 1.95433 0
M  V30 28516 H 2621.68 -4.09228 1.10945 0
M  V30 28517 C 2620.14 -3.36386 -0.186063 0
M  V30 28518 O 2620.67 -3.84083 -1.17657 0
M  V30 28519 N 2618.87 -2.89688 -0.230078 0
M  V30 28520 H 2618.42 -2.51064 0.57659 0
M  V30 28521 H 2618.38 -2.94659 -1.09653 0
M  V30 28522 N 2622.15 -1.2054 -1.01528 0
M  V30 28523 C 2623.08 -0.979333 -2.1197 0
M  V30 28524 C 2624.06 0.0921489 -1.6985 0
M  V30 28525 O 2625.25 -0.0656273 -1.94089 0
M  V30 28526 C 2622.38 -0.532044 -3.432 0
M  V30 28527 C 2621.33 -1.54692 -3.99067 0
M  V30 28528 C 2620.66 -0.95622 -5.2608 0
M  V30 28529 C 2621.96 -2.931 -4.32308 0
M  V30 28530 H 2623.65 -1.90302 -2.3114 0
M  V30 28531 H 2621.2 -0.916392 -1.11078 0
M  V30 28532 H 2623.15 -0.361118 -4.1985 0
M  V30 28533 H 2621.87 0.427271 -3.23793 0
M  V30 28534 H 2620.53 -1.70523 -3.24527 0
M  V30 28535 H 2620.18 0.0110654 -5.02999 0
M  V30 28536 H 2619.88 -1.63403 -5.64423 0
M  V30 28537 H 2621.4 -0.79639 -6.05384 0
M  V30 28538 H 2622.82 -2.80772 -4.9984 0
M  V30 28539 H 2621.21 -3.57799 -4.81767 0
M  V30 28540 H 2622.28 -3.44723 -3.41019 0
M  V30 28541 N 2623.63 1.20858 -1.01149 0
M  V30 28542 C 2624.86 1.94081 -0.716945 0
M  V30 28543 C 2625.27 1.74469 0.721537 0
M  V30 28544 O 2624.63 1.05541 1.48887 0
M  V30 28545 C 2624.68 3.46317 -1.03668 0
M  V30 28546 O 2624.4 3.65284 -2.41866 0
M  V30 28547 C 2625.9 4.36694 -0.762462 0
M  V30 28548 H 2623.12 0.61702 -0.263681 0
M  V30 28549 H 2625.66 1.53494 -1.35129 0
M  V30 28550 H 2623.82 3.84803 -0.447824 0
M  V30 28551 H 2624.23 4.59319 -2.53232 0
M  V30 28552 H 2625.71 5.42185 -1.0363 0
M  V30 28553 H 2626.18 4.38151 0.303437 0
M  V30 28554 H 2626.79 4.03863 -1.33323 0
M  V30 28555 N 2625.11 0.787064 1.3654 0
M  V30 28556 C 2626.38 0.282458 1.9355 0
M  V30 28557 C 2626.76 -1.225 1.71922 0
M  V30 28558 O 2626.11 -2.01537 1.07681 0
M  V30 28559 C 2626.32 0.672522 3.42459 0
M  V30 28560 C 2627.67 0.650936 4.19581 0
M  V30 28561 O 2628.69 0.612851 3.50888 0
M  V30 28562 O 2627.55 0.691718 5.42105 0
M  V30 28563 H 2624.65 0.0693144 0.82409 0
M  V30 28564 H 2627.19 0.869449 1.45735 0
M  V30 28565 H 2625.96 1.71228 3.51848 0
M  V30 28566 H 2625.59 0.059291 3.97556 0
M  V30 28567 N 2626.58 -1.48101 0.53888 0
M  V30 28568 C 2627.99 -1.86428 0.100711 0
M  V30 28569 C 2628.35 -1.44751 -1.32445 0
M  V30 28570 O 2627.47 -0.842234 -1.99337 0
M  V30 28571 C 2628.07 -3.38343 0.175992 0
M  V30 28572 C 2626.62 -3.7583 -0.207032 0
M  V30 28573 C 2625.77 -2.72153 0.531789 0
M  V30 28574 H 2628.72 -1.39879 0.749639 0
M  V30 28575 H 2628.74 -3.75577 -0.610078 0
M  V30 28576 H 2628.26 -3.68645 1.21335 0
M  V30 28577 H 2626.36 -3.51142 -1.24619 0
M  V30 28578 H 2626.47 -4.78899 0.138772 0
M  V30 28579 H 2624.83 -2.5469 -0.0230014 0
M  V30 28580 H 2625.62 -3.05299 1.56995 0
M  V30 28581 N 2628.06 -0.274434 -1.55192 0
M  V30 28582 C 2629.29 0.348788 -2.04446 0
M  V30 28583 C 2629.71 1.48733 -1.15152 0
M  V30 28584 O 2629.07 1.80679 -0.149984 0
M  V30 28585 C 2629.12 0.807947 -3.51432 0
M  V30 28586 O 2628.22 1.91525 -3.65229 0
M  V30 28587 H 2627.56 0.072216 -0.660061 0
M  V30 28588 H 2630.09 -0.408533 -2.0048 0
M  V30 28589 H 2630.1 1.10388 -3.92783 0
M  V30 28590 H 2628.78 -0.0250596 -4.15892 0
M  V30 28591 H 2627.35 1.6219 -3.35781 0
M  V30 28592 N 2629.54 1.576 -0.00170483 0
M  V30 28593 C 2630.79 1.90924 0.683798 0
M  V30 28594 C 2631.12 0.875829 1.73329 0
M  V30 28595 O 2630.39 -0.105216 1.94215 0
M  V30 28596 C 2630.68 3.34822 1.32537 0
M  V30 28597 C 2630.53 4.48881 0.287309 0
M  V30 28598 C 2631.85 3.78173 2.25107 0
M  V30 28599 H 2628.97 0.694337 0.247112 0
M  V30 28600 H 2631.61 1.89925 -0.0533483 0
M  V30 28601 H 2629.76 3.35804 1.95366 0
M  V30 28602 H 2631.43 4.60035 -0.341427 0
M  V30 28603 H 2629.67 4.32041 -0.390246 0
M  V30 28604 H 2630.35 5.46528 0.775297 0
M  V30 28605 H 2632.82 3.78753 1.72294 0
M  V30 28606 H 2631.7 4.79606 2.66963 0
M  V30 28607 H 2631.96 3.12136 3.13087 0
M  V30 28608 N 2631.02 -0.271076 1.55251 0
M  V30 28609 C 2632.27 -1.00021 1.75153 0
M  V30 28610 C 2632.58 -1.8738 0.561074 0
M  V30 28611 O 2633.79 -2.63787 0.642552 0
M  V30 28612 C 2632.24 -1.82829 3.10002 0
M  V30 28613 C 2631.85 -1.00328 4.36621 0
M  V30 28614 C 2633.59 -2.55162 3.39253 0
M  V30 28615 C 2631.5 -1.82585 5.62509 0
M  V30 28616 H 2630.43 -0.377172 0.652884 0
M  V30 28617 H 2633.08 -0.255811 1.81708 0
M  V30 28618 H 2631.46 -2.61373 2.9749 0
M  V30 28619 H 2632.64 -0.261879 4.60055 0
M  V30 28620 H 2630.95 -0.394413 4.14528 0
M  V30 28621 H 2633.55 -3.17113 4.30516 0
M  V30 28622 H 2633.89 -3.25545 2.59473 0
M  V30 28623 H 2634.43 -1.83647 3.52872 0
M  V30 28624 H 2631.16 -1.1662 6.45043 0
M  V30 28625 H 2630.68 -2.54318 5.43215 0
M  V30 28626 H 2632.36 -2.39903 6.00879 0
M  V30 28627 N 2632.5 -1.48217 -0.535675 0
M  V30 28628 C 2633.44 -1.62315 -1.6408 0
M  V30 28629 C 2634.41 -0.465394 -1.59447 0
M  V30 28630 O 2635.6 -0.688167 -1.77958 0
M  V30 28631 C 2632.74 -1.66355 -3.02358 0
M  V30 28632 C 2631.85 -2.93198 -3.17268 0
M  V30 28633 C 2630.99 -2.88435 -4.4607 0
M  V30 28634 C 2630.03 -4.10008 -4.54489 0
M  V30 28635 N 2629.16 -4.03355 -5.74673 0
M  V30 28636 H 2634 -2.56693 -1.5137 0
M  V30 28637 H 2631.54 -1.27303 -0.737037 0
M  V30 28638 H 2633.5 -1.66679 -3.82458 0
M  V30 28639 H 2632.13 -0.754727 -3.13853 0
M  V30 28640 H 2631.18 -3.02645 -2.30457 0
M  V30 28641 H 2632.49 -3.83167 -3.1935 0
M  V30 28642 H 2631.65 -2.87128 -5.34455 0
M  V30 28643 H 2630.38 -1.96185 -4.465 0
M  V30 28644 H 2629.39 -4.11596 -3.64512 0
M  V30 28645 H 2630.61 -5.0341 -4.55801 0
M  V30 28646 H 2628.56 -3.13922 -5.76011 0
M  V30 28647 H 2628.48 -4.87023 -5.78225 0
M  V30 28648 H 2629.75 -4.06099 -6.6536 0
M  V30 28649 N 2633.97 0.784108 -1.3671 0
M  V30 28650 C 2634.94 1.87857 -1.3131 0
M  V30 28651 C 2635.94 1.59292 -0.219682 0
M  V30 28652 O 2637.13 1.67605 -0.47479 0
M  V30 28653 C 2634.26 3.24749 -1.03685 0
M  V30 28654 H 2635.45 1.9406 -2.2865 0
M  V30 28655 H 2633.01 0.982499 -1.21559 0
M  V30 28656 H 2633.74 3.24228 -0.0682506 0
M  V30 28657 H 2633.53 3.46872 -1.82817 0
M  V30 28658 H 2635.02 4.04819 -1.02526 0
M  V30 28659 N 2635.45 1.21076 1.00888 0
M  V30 28660 C 2636.36 0.982462 2.13037 0
M  V30 28661 C 2637.38 -0.0641856 1.73882 0
M  V30 28662 O 2638.55 0.124996 2.01012 0
M  V30 28663 C 2635.62 0.545864 3.42376 0
M  V30 28664 C 2634.68 1.66427 3.95728 0
M  V30 28665 C 2633.91 1.24841 5.18893 0
M  V30 28666 O 2634.14 0.120365 5.70273 0
M  V30 28667 O 2633.07 2.05883 5.65593 0
M  V30 28668 H 2636.9 1.92167 2.35171 0
M  V30 28669 H 2634.48 0.995305 1.11418 0
M  V30 28670 H 2636.36 0.311986 4.20244 0
M  V30 28671 H 2635.04 -0.364671 3.21639 0
M  V30 28672 H 2633.95 1.95251 3.19105 0
M  V30 28673 H 2635.28 2.55209 4.20867 0
M  V30 28674 N 2636.93 -1.2032 1.01789 0
M  V30 28675 C 2637.84 -2.26826 0.598938 0
M  V30 28676 C 2638.86 -1.70147 -0.36415 0
M  V30 28677 O 2640.03 -2.00142 -0.224777 0
M  V30 28678 C 2637.1 -3.46657 -0.054916 0
M  V30 28679 C 2636.16 -4.18559 0.954279 0
M  V30 28680 C 2635.39 -5.32669 0.331533 0
M  V30 28681 O 2635.61 -5.63751 -0.868411 0
M  V30 28682 O 2634.55 -5.9269 1.0489 0
M  V30 28683 H 2638.37 -2.6488 1.48567 0
M  V30 28684 H 2635.96 -1.26963 0.787456 0
M  V30 28685 H 2637.84 -4.19301 -0.420028 0
M  V30 28686 H 2636.52 -3.10474 -0.915822 0
M  V30 28687 H 2635.42 -3.48081 1.37078 0
M  V30 28688 H 2636.76 -4.58685 1.78519 0
M  V30 28689 N 2638.41 -0.794293 -1.3612 0
M  V30 28690 C 2639.36 -0.194141 -2.29982 0
M  V30 28691 C 2640.33 0.664807 -1.52215 0
M  V30 28692 O 2641.51 0.612466 -1.80703 0
M  V30 28693 C 2638.65 0.661184 -3.38707 0
M  V30 28694 C 2637.76 -0.216842 -4.31455 0
M  V30 28695 C 2636.9 0.645319 -5.27266 0
M  V30 28696 C 2635.94 -0.233863 -6.11653 0
M  V30 28697 N 2635.07 0.587559 -6.99637 0
M  V30 28698 H 2639.91 -1.00001 -2.8072 0
M  V30 28699 H 2637.45 -0.504701 -1.38171 0
M  V30 28700 H 2639.41 1.17212 -4.00396 0
M  V30 28701 H 2638.04 1.43244 -2.89277 0
M  V30 28702 H 2637.09 -0.845789 -3.70878 0
M  V30 28703 H 2638.4 -0.89406 -4.90722 0
M  V30 28704 H 2637.56 1.22188 -5.94269 0
M  V30 28705 H 2636.3 1.35615 -4.68466 0
M  V30 28706 H 2635.3 -0.822785 -5.43609 0
M  V30 28707 H 2636.53 -0.942365 -6.7253 0
M  V30 28708 H 2634.47 1.28259 -6.43339 0
M  V30 28709 H 2634.39 -0.0318731 -7.55993 0
M  V30 28710 H 2635.66 1.14779 -7.71003 0
M  V30 28711 N 2639.89 1.47813 -0.546727 0
M  V30 28712 C 2641.3 1.58268 -0.205745 0
M  V30 28713 C 2641.5 1.54669 1.2915 0
M  V30 28714 O 2640.56 1.44456 2.07096 0
M  V30 28715 C 2641.87 2.89215 -0.823116 0
M  V30 28716 C 2643.42 3.02778 -0.793381 0
M  V30 28717 C 2643.89 4.3641 -1.38963 0
M  V30 28718 N 2645.39 4.43019 -1.35234 0
M  V30 28719 C 2646.12 5.4496 -1.78342 0
M  V30 28720 N 2645.62 6.53768 -2.29257 0
M  V30 28721 N 2647.41 5.35942 -1.69477 0
M  V30 28722 H 2639.56 1.48396 -1.51962 0
M  V30 28723 H 2641.82 0.70562 -0.633091 0
M  V30 28724 H 2641.53 2.97554 -1.87495 0
M  V30 28725 H 2641.4 3.75924 -0.309981 0
M  V30 28726 H 2643.79 2.94041 0.249732 0
M  V30 28727 H 2643.87 2.17637 -1.34416 0
M  V30 28728 H 2643.52 4.45901 -2.43176 0
M  V30 28729 H 2643.45 5.20265 -0.814383 0
M  V30 28730 H 2645.94 3.64977 -0.979804 0
M  V30 28731 H 2646.25 7.27714 -2.60102 0
M  V30 28732 H 2644.59 6.54686 -2.33262 0
M  V30 28733 H 2647.79 4.49835 -1.29485 0
M  V30 28734 H 2647.96 6.15253 -2.03392 0
M  V30 28735 N 2641.36 0.28266 1.55044 0
M  V30 28736 C 2642.59 -0.337941 2.04628 0
M  V30 28737 C 2643.01 -1.48121 1.15939 0
M  V30 28738 O 2642.37 -1.80596 0.159564 0
M  V30 28739 C 2642.42 -0.789298 3.51856 0
M  V30 28740 O 2641.52 -1.89585 3.66239 0
M  V30 28741 H 2640.87 -0.0687145 0.660435 0
M  V30 28742 H 2643.4 0.41916 2.0026 0
M  V30 28743 H 2643.41 -1.08304 3.93363 0
M  V30 28744 H 2642.08 0.047115 4.15873 0
M  V30 28745 H 2640.66 -1.60407 3.36636 0
M  V30 28746 N 2642.84 -1.57597 0.0100627 0
M  V30 28747 C 2644.08 -1.92861 -0.67705 0
M  V30 28748 C 2644.45 -0.885222 -1.70376 0
M  V30 28749 O 2645.65 -1.12343 -2.44197 0
M  V30 28750 C 2643.92 -3.33134 -1.29446 0
M  V30 28751 S 2645.48 -3.90299 -2.0053 0
M  V30 28752 H 2642.3 -0.674992 -0.223397 0
M  V30 28753 H 2644.9 -1.95378 0.0691633 0
M  V30 28754 H 2643.6 -4.06904 -0.534521 0
M  V30 28755 H 2643.13 -3.34016 -2.07839 0
M  V30 28756 H 2645.15 -3.72189 -3.28161 0
M  V30 28757 N 2644.32 0.262839 -1.55393 0
M  V30 28758 C 2645.6 1.01496 -1.67206 0
M  V30 28759 C 2645.98 2.03938 -0.545222 0
M  V30 28760 O 2645.33 2.23956 0.453427 0
M  V30 28761 C 2645.54 1.66265 -3.0685 0
M  V30 28762 C 2646.88 2.17048 -3.64932 0
M  V30 28763 O 2647.91 1.76234 -3.09548 0
M  V30 28764 O 2646.77 2.91939 -4.61989 0
M  V30 28765 H 2643.86 0.471426 -0.679475 0
M  V30 28766 H 2646.41 0.257889 -1.67729 0
M  V30 28767 H 2645.18 0.920848 -3.8031 0
M  V30 28768 H 2644.8 2.48633 -3.1027 0
M  V30 28769 N 2645.8 1.48499 0.527807 0
M  V30 28770 C 2646.73 1.57756 1.64889 0
M  V30 28771 C 2647.71 0.427895 1.56869 0
M  V30 28772 O 2648.89 0.639796 1.7731 0
M  V30 28773 C 2646.02 1.50758 3.03298 0
M  V30 28774 C 2645.07 2.70592 3.2967 0
M  V30 28775 S 2645.9 4.3254 3.15704 0
M  V30 28776 C 2647.06 4.28144 4.56556 0
M  V30 28777 H 2647.29 2.52597 1.56787 0
M  V30 28778 H 2644.82 1.37059 0.710935 0
M  V30 28779 H 2646.78 1.47407 3.83121 0
M  V30 28780 H 2645.44 0.572508 3.08838 0
M  V30 28781 H 2644.63 2.6184 4.30646 0
M  V30 28782 H 2644.24 2.71217 2.57522 0
M  V30 28783 H 2646.53 3.98211 5.48119 0
M  V30 28784 H 2647.47 5.29306 4.70362 0
M  V30 28785 H 2647.88 3.58582 4.35981 0
M  V30 28786 N 2647.28 -0.776847 1.37123 0
M  V30 28787 C 2648.52 -1.53749 1.32246 0
M  V30 28788 C 2648.86 -1.9397 -0.0944404 0
M  V30 28789 O 2648.13 -1.63682 -1.05065 0
M  V30 28790 C 2648.41 -2.80603 2.25686 0
M  V30 28791 C 2648.27 -2.46669 3.76131 0
M  V30 28792 C 2649.59 -3.82505 2.17664 0
M  V30 28793 H 2646.71 -0.557782 0.481714 0
M  V30 28794 H 2649.35 -0.891583 1.67782 0
M  V30 28795 H 2647.5 -3.3572 1.95511 0
M  V30 28796 H 2649.17 -1.97506 4.1688 0
M  V30 28797 H 2647.41 -1.79436 3.9495 0
M  V30 28798 H 2648.08 -3.37326 4.36939 0
M  V30 28799 H 2650.56 -3.36869 2.44251 0
M  V30 28800 H 2649.44 -4.68995 2.85193 0
M  V30 28801 H 2649.7 -4.26394 1.16793 0
M  V30 28802 N 2648.76 -1.2161 -1.00244 0
M  V30 28803 C 2650 -1.03488 -1.74059 0
M  V30 28804 C 2650.33 0.431274 -1.89658 0
M  V30 28805 O 2649.59 1.33625 -1.42979 0
M  V30 28806 C 2649.88 -1.68015 -3.15446 0
M  V30 28807 C 2649.55 -3.17879 -3.19787 0
M  V30 28808 C 2648.21 -3.58774 -3.20679 0
M  V30 28809 C 2650.56 -4.13847 -3.16828 0
M  V30 28810 C 2647.89 -4.94136 -3.16301 0
M  V30 28811 C 2650.24 -5.49174 -3.13991 0
M  V30 28812 C 2648.91 -5.89462 -3.13194 0
M  V30 28813 H 2648.18 -0.378689 -0.636927 0
M  V30 28814 H 2650.83 -1.51238 -1.17471 0
M  V30 28815 H 2649.13 -1.12564 -3.75282 0
M  V30 28816 H 2650.83 -1.51493 -3.71283 0
M  V30 28817 H 2647.42 -2.85311 -3.19837 0
M  V30 28818 H 2651.6 -3.83278 -3.15297 0
M  V30 28819 H 2646.86 -5.24595 -3.14023 0
M  V30 28820 H 2651.03 -6.2327 -3.10656 0
M  V30 28821 H 2648.66 -6.94319 -3.09556 0
M  V30 28822 N 2650.23 1.19778 -1.02425 0
M  V30 28823 C 2651.48 1.88969 -0.716603 0
M  V30 28824 C 2651.8 1.79718 0.756737 0
M  V30 28825 O 2651.07 1.20459 1.54488 0
M  V30 28826 H 2649.65 0.699519 -0.262074 0
M  V30 28827 H 2652.31 1.45434 -1.2975 0
M  V30 28828 H 2651.41 2.95415 -1.0068 0
M  V30 28829 N 2651.71 0.801501 1.35697 0
M  V30 28830 C 2653.12 0.441105 1.81414 0
M  V30 28831 C 2653.47 -1.03633 1.66597 0
M  V30 28832 O 2652.6 -1.80497 1.19372 0
M  V30 28833 C 2653.19 0.793877 3.29368 0
M  V30 28834 C 2651.75 0.486149 3.73247 0
M  V30 28835 C 2650.9 1.02217 2.57773 0
M  V30 28836 H 2653.85 0.993593 1.23747 0
M  V30 28837 H 2653.87 0.0894827 3.80395 0
M  V30 28838 H 2653.38 1.86923 3.4012 0
M  V30 28839 H 2651.48 -0.580671 3.68048 0
M  V30 28840 H 2651.6 1.01522 4.6822 0
M  V30 28841 H 2649.96 0.444756 2.50787 0
M  V30 28842 H 2650.74 2.10353 2.71305 0
M  V30 28843 N 2653.19 -1.47521 0.554558 0
M  V30 28844 C 2654.15 -2.28459 -0.184134 0
M  V30 28845 C 2655.15 -1.36797 -0.84517 0
M  V30 28846 O 2656.34 -1.59454 -0.701439 0
M  V30 28847 C 2653.47 -3.16401 -1.26898 0
M  V30 28848 H 2654.67 -2.95237 0.526803 0
M  V30 28849 H 2652.22 -1.53167 0.311402 0
M  V30 28850 H 2652.96 -2.54309 -2.01239 0
M  V30 28851 H 2652.74 -3.83856 -0.799816 0
M  V30 28852 H 2654.23 -3.77392 -1.78788 0
M  V30 28853 N 2654.67 -0.290879 -1.54892 0
M  V30 28854 C 2655.62 0.605537 -2.2458 0
M  V30 28855 C 2656.61 1.1452 -1.24826 0
M  V30 28856 O 2657.82 1.09701 -1.42708 0
M  V30 28857 H 2654.19 0.21386 -0.720949 0
M  V30 28858 H 2656.16 -0.00486975 -2.984 0
M  V30 28859 C 2654.91 1.77083 -2.99227 0
M  V30 28860 H 2654.23 1.36477 -3.75784 0
M  V30 28861 H 2655.67 2.37434 -3.51285 0
M  V30 28862 C 2654.13 2.66884 -2.05607 0
M  V30 28863 O 2654.66 3.67695 -1.61751 0
M  V30 28864 N 2652.87 2.34396 -1.71775 0
M  V30 28865 H 2652.42 1.52464 -2.07636 0
M  V30 28866 H 2652.37 2.94749 -1.09409 0
M  V30 28867 N 2656.15 1.57589 -0.0184203 0
M  V30 28868 C 2657.08 2.12601 0.965559 0
M  V30 28869 C 2658.06 1.03953 1.3464 0
M  V30 28870 O 2659.24 1.31731 1.4269 0
M  V30 28871 C 2656.37 2.64438 2.25145 0
M  V30 28872 C 2655.33 3.77777 2.01168 0
M  V30 28873 C 2654.65 4.15999 3.35929 0
M  V30 28874 C 2655.95 5.04298 1.35944 0
M  V30 28875 H 2657.65 2.95068 0.507452 0
M  V30 28876 H 2655.19 1.41941 0.242646 0
M  V30 28877 H 2657.14 3.01554 2.94352 0
M  V30 28878 H 2655.87 1.79117 2.73102 0
M  V30 28879 H 2654.53 3.41082 1.34382 0
M  V30 28880 H 2654.18 3.27676 3.81625 0
M  V30 28881 H 2653.88 4.92369 3.20696 0
M  V30 28882 H 2655.4 4.5569 4.06422 0
M  V30 28883 H 2656.81 5.39069 1.95135 0
M  V30 28884 H 2655.21 5.85595 1.31142 0
M  V30 28885 H 2656.28 4.83769 0.330986 0
M  V30 28886 N 2657.62 -0.254594 1.5553 0
M  V30 28887 C 2658.87 -0.981762 1.76652 0
M  V30 28888 C 2659.19 -1.86144 0.580996 0
M  V30 28889 O 2658.46 -1.91699 -0.403503 0
M  V30 28890 H 2657.04 -0.365487 0.651482 0
M  V30 28891 H 2659.7 -0.274392 1.92959 0
M  V30 28892 H 2658.8 -1.60798 2.67489 0
M  V30 28893 N 2659.1 -1.48777 -0.519925 0
M  V30 28894 C 2660.01 -1.66747 -1.65023 0
M  V30 28895 C 2661.03 -0.549983 -1.65079 0
M  V30 28896 O 2662.2 -0.822328 -1.83847 0
M  V30 28897 C 2659.27 -1.71244 -3.01457 0
M  V30 28898 C 2658.33 -2.94693 -3.12177 0
M  V30 28899 C 2657.56 -2.98965 -4.42103 0
M  V30 28900 O 2657.79 -2.1136 -5.29795 0
M  V30 28901 O 2656.72 -3.91241 -4.57399 0
M  V30 28902 H 2660.55 -2.62464 -1.52796 0
M  V30 28903 H 2658.13 -1.32296 -0.694134 0
M  V30 28904 H 2660.01 -1.76664 -3.82581 0
M  V30 28905 H 2658.69 -0.78703 -3.13987 0
M  V30 28906 H 2657.59 -2.94801 -2.30311 0
M  V30 28907 H 2658.93 -3.86652 -3.04568 0
M  V30 28908 N 2660.58 0.769564 -1.37534 0
M  V30 28909 C 2661.86 1.51766 -1.23395 0
M  V30 28910 C 2662.24 2.10402 0.171533 0
M  V30 28911 O 2661.58 1.9571 1.1794 0
M  V30 28912 C 2661.79 2.59681 -2.33167 0
M  V30 28913 C 2663.14 3.27024 -2.70815 0
M  V30 28914 O 2664.17 2.69977 -2.3236 0
M  V30 28915 O 2663.03 4.30167 -3.37074 0
M  V30 28916 H 2660.12 0.672282 -0.481628 0
M  V30 28917 H 2662.67 0.806342 -1.49319 0
M  V30 28918 H 2661.44 2.14488 -3.27277 0
M  V30 28919 H 2661.06 3.38411 -2.08719 0
M  V30 28920 N 2662.06 1.22139 0.995977 0
M  V30 28921 C 2663.02 0.990145 2.06709 0
M  V30 28922 C 2664.02 -0.0422696 1.60744 0
M  V30 28923 O 2665.21 0.195925 1.73095 0
M  V30 28924 C 2662.34 0.494969 3.37288 0
M  V30 28925 H 2663.54 1.94051 2.28658 0
M  V30 28926 H 2661.09 1.03965 1.16709 0
M  V30 28927 H 2661.82 -0.459891 3.21023 0
M  V30 28928 H 2661.61 1.23978 3.71984 0
M  V30 28929 H 2663.1 0.353326 4.16103 0
M  V30 28930 N 2663.54 -1.19233 1.03059 0
M  V30 28931 C 2664.79 -1.88285 0.723293 0
M  V30 28932 C 2665.1 -1.80596 -0.751301 0
M  V30 28933 O 2666.3 -2.44914 -1.17172 0
M  V30 28934 C 2664.76 -3.37738 1.24344 0
M  V30 28935 C 2664.37 -3.53981 2.74594 0
M  V30 28936 C 2666.11 -4.12256 1.01221 0
M  V30 28937 C 2664.02 -4.97336 3.20017 0
M  V30 28938 H 2662.95 -0.705196 0.266861 0
M  V30 28939 H 2665.6 -1.34793 1.24511 0
M  V30 28940 H 2663.98 -3.90637 0.649526 0
M  V30 28941 H 2665.16 -3.11402 3.39655 0
M  V30 28942 H 2663.47 -2.92854 2.96016 0
M  V30 28943 H 2666.07 -5.17976 1.32684 0
M  V30 28944 H 2666.41 -4.16269 -0.0509279 0
M  V30 28945 H 2666.94 -3.65499 1.57021 0
M  V30 28946 H 2663.68 -4.98485 4.25667 0
M  V30 28947 H 2663.2 -5.4067 2.59685 0
M  V30 28948 H 2664.88 -5.65998 3.13457 0
M  V30 28949 N 2665.01 -0.808686 -1.3527 0
M  V30 28950 C 2665.96 -0.218523 -2.29763 0
M  V30 28951 C 2666.93 0.648625 -1.52912 0
M  V30 28952 O 2668.12 0.593265 -1.81342 0
M  V30 28953 C 2665.26 0.625222 -3.39389 0
M  V30 28954 C 2664.37 -0.262592 -4.31201 0
M  V30 28955 C 2663.5 0.589359 -5.2792 0
M  V30 28956 C 2662.54 -0.298724 -6.11371 0
M  V30 28957 N 2661.68 0.51332 -7.00221 0
M  V30 28958 H 2666.52 -1.02973 -2.79644 0
M  V30 28959 H 2664.06 -0.519328 -1.37628 0
M  V30 28960 H 2666.02 1.12959 -4.01617 0
M  V30 28961 H 2664.65 1.40168 -2.9078 0
M  V30 28962 H 2663.7 -0.885078 -3.6996 0
M  V30 28963 H 2665.01 -0.946057 -4.89746 0
M  V30 28964 H 2664.16 1.15878 -5.95531 0
M  V30 28965 H 2662.9 1.30638 -4.69878 0
M  V30 28966 H 2661.91 -0.880396 -5.42705 0
M  V30 28967 H 2663.13 -1.01364 -6.71492 0
M  V30 28968 H 2661.08 1.21428 -6.44664 0
M  V30 28969 H 2661 -0.112055 -7.55917 0
M  V30 28970 H 2662.26 1.06595 -7.72177 0
M  V30 28971 N 2666.49 1.47225 -0.562374 0
M  V30 28972 C 2667.44 2.31778 0.195435 0
M  V30 28973 C 2668.43 1.43243 0.904305 0
M  V30 28974 O 2669.64 1.5998 0.825003 0
M  V30 28975 H 2666.02 0.747527 0.0818963 0
M  V30 28976 H 2667.99 2.93532 -0.536804 0
M  V30 28977 C 2666.74 3.26005 1.20897 0
M  V30 28978 H 2666.06 3.94096 0.672928 0
M  V30 28979 H 2667.5 3.87989 1.71 0
M  V30 28980 C 2665.96 2.49895 2.25951 0
M  V30 28981 O 2666.49 2.24715 3.32965 0
M  V30 28982 N 2664.69 2.10813 2.00015 0
M  V30 28983 H 2664.24 2.31491 1.13002 0
M  V30 28984 H 2664.2 1.60206 2.70521 0
M  V30 28985 N 2667.97 0.299089 1.54736 0
M  V30 28986 C 2669.22 -0.310748 2.00101 0
M  V30 28987 C 2669.55 -1.54042 1.18748 0
M  V30 28988 O 2668.8 -1.94081 0.251232 0
M  V30 28989 C 2669.1 -0.713773 3.502 0
M  V30 28990 C 2668.77 0.413952 4.48996 0
M  V30 28991 C 2667.43 0.723546 4.75729 0
M  V30 28992 C 2669.78 1.17266 5.07837 0
M  V30 28993 C 2667.11 1.795 5.58566 0
M  V30 28994 C 2669.46 2.23402 5.9184 0
M  V30 28995 C 2668.12 2.5497 6.16885 0
M  V30 28996 H 2667.39 -0.113711 0.732223 0
M  V30 28997 H 2670.04 0.417789 1.86887 0
M  V30 28998 H 2668.35 -1.52237 3.61014 0
M  V30 28999 H 2670.04 -1.19677 3.82725 0
M  V30 29000 H 2666.63 0.162551 4.28292 0
M  V30 29001 H 2670.82 0.946737 4.87186 0
M  V30 29002 H 2666.07 2.04433 5.76209 0
M  V30 29003 H 2670.25 2.82651 6.3646 0
M  V30 29004 H 2667.87 3.38126 6.80863 0
M  V30 29005 N 2669.45 -1.57577 0.0267774 0
M  V30 29006 C 2670.86 -1.5616 -0.329593 0
M  V30 29007 C 2671.06 -1.03216 -1.73057 0
M  V30 29008 O 2670.12 -0.677847 -2.43231 0
M  V30 29009 C 2671.43 -3.00159 -0.180337 0
M  V30 29010 C 2672.98 -3.11974 -0.253279 0
M  V30 29011 C 2673.46 -4.57807 -0.13284 0
M  V30 29012 N 2674.95 -4.62811 -0.189898 0
M  V30 29013 C 2675.68 -5.73273 -0.120454 0
M  V30 29014 N 2675.18 -6.928 -5.85384e-05 0
M  V30 29015 N 2676.97 -5.6183 -0.174271 0
M  V30 29016 H 2669.12 -1.90322 0.94293 0
M  V30 29017 H 2671.39 -0.875368 0.363916 0
M  V30 29018 H 2671.09 -3.42836 0.784636 0
M  V30 29019 H 2670.97 -3.65002 -0.951501 0
M  V30 29020 H 2673.35 -2.6921 -1.20871 0
M  V30 29021 H 2673.43 -2.49856 0.54822 0
M  V30 29022 H 2673.08 -5.01251 0.819161 0
M  V30 29023 H 2673.01 -5.17902 -0.953173 0
M  V30 29024 H 2675.5 -3.76837 -0.283191 0
M  V30 29025 H 2675.81 -7.72786 0.0463024 0
M  V30 29026 H 2674.16 -6.94991 0.0346911 0
M  V30 29027 H 2677.35 -4.6734 -0.266712 0
M  V30 29028 H 2677.52 -6.47895 -0.116688 0
M  V30 29029 N 2670.93 0.246342 -1.55663 0
M  V30 29030 C 2671.89 1.28839 -1.8956 0
M  V30 29031 C 2672.89 1.4105 -0.772107 0
M  V30 29032 O 2674.08 1.39741 -1.0401 0
M  V30 29033 C 2671.21 2.66602 -2.12453 0
M  V30 29034 H 2672.4 0.999992 -2.82737 0
M  V30 29035 H 2669.96 0.485658 -1.48563 0
M  V30 29036 H 2670.69 3.0058 -1.21747 0
M  V30 29037 H 2670.48 2.5912 -2.94278 0
M  V30 29038 H 2671.97 3.41843 -2.3986 0
M  V30 29039 N 2672.4 1.4905 0.512027 0
M  V30 29040 C 2673.35 1.64905 1.61477 0
M  V30 29041 C 2674.32 0.490701 1.58686 0
M  V30 29042 O 2675.51 0.716391 1.7684 0
M  V30 29043 C 2672.65 1.71144 2.99673 0
M  V30 29044 C 2671.76 2.98209 3.12563 0
M  V30 29045 C 2670.89 2.95495 4.41425 0
M  V30 29046 C 2669.93 4.17187 4.47908 0
M  V30 29047 N 2669.07 4.12447 5.68183 0
M  V30 29048 H 2673.91 2.59069 1.47267 0
M  V30 29049 H 2671.45 1.2846 0.716691 0
M  V30 29050 H 2673.41 1.72742 3.79758 0
M  V30 29051 H 2672.04 0.804563 3.12613 0
M  V30 29052 H 2671.09 3.06273 2.25613 0
M  V30 29053 H 2672.4 3.88199 3.13214 0
M  V30 29054 H 2671.55 2.95595 5.29819 0
M  V30 29055 H 2670.29 2.03264 4.43323 0
M  V30 29056 H 2669.3 4.17343 3.57918 0
M  V30 29057 H 2670.52 5.10598 4.47735 0
M  V30 29058 H 2668.47 3.23046 5.70944 0
M  V30 29059 H 2668.39 4.96161 5.70404 0
M  V30 29060 H 2669.65 4.16633 6.58815 0
M  V30 29061 N 2673.88 -0.762259 1.3794 0
M  V30 29062 C 2674.83 -1.86624 1.30979 0
M  V30 29063 C 2675.82 -1.59705 0.195743 0
M  V30 29064 O 2677.01 -1.71673 0.430968 0
M  V30 29065 C 2674.14 -3.24221 1.12852 0
M  V30 29066 C 2673.22 -3.5706 2.28843 0
M  V30 29067 N 2673.61 -3.61015 3.54262 0
M  V30 29068 C 2671.91 -3.87278 2.21205 0
M  V30 29069 C 2672.61 -3.90874 4.30805 0
M  V30 29070 N 2671.59 -4.0726 3.60056 0
M  V30 29071 H 2675.39 -1.87947 2.25949 0
M  V30 29072 H 2672.91 -0.959183 1.31047 0
M  V30 29073 H 2674.9 -4.03212 1.0595 0
M  V30 29074 H 2673.56 -3.24155 0.188081 0
M  V30 29075 H 2674.57 -3.42988 3.88046 0
M  V30 29076 H 2671.25 -3.94979 1.35271 0
M  V30 29077 H 2672.64 -4.0063 5.39393 0
M  V30 29078 N 2675.36 -1.22666 -0.989486 0
M  V30 29079 C 2676.31 -0.967042 -2.06476 0
M  V30 29080 C 2677.29 0.0836091 -1.60683 0
M  V30 29081 O 2678.49 -0.127353 -1.76541 0
M  V30 29082 C 2675.62 -0.550373 -3.3886 0
M  V30 29083 C 2674.7 -1.63594 -3.91277 0
M  V30 29084 N 2675.09 -2.86436 -4.16879 0
M  V30 29085 C 2673.39 -1.50841 -4.19718 0
M  V30 29086 C 2674.09 -3.56656 -4.59534 0
M  V30 29087 N 2673.07 -2.84139 -4.63429 0
M  V30 29088 H 2676.87 -1.90012 -2.24216 0
M  V30 29089 H 2674.38 -1.1247 -1.17151 0
M  V30 29090 H 2676.38 -0.345685 -4.15464 0
M  V30 29091 H 2675.04 0.375765 -3.22518 0
M  V30 29092 H 2676.05 -3.2283 -4.0497 0
M  V30 29093 H 2672.73 -0.648716 -4.12429 0
M  V30 29094 H 2674.12 -4.61918 -4.87936 0
M  V30 29095 N 2676.84 1.18685 -1.0369 0
M  V30 29096 C 2678.08 1.90265 -0.746891 0
M  V30 29097 C 2678.44 1.78309 0.712043 0
M  V30 29098 O 2679.64 2.44561 1.11549 0
M  V30 29099 C 2677.92 3.36813 -1.19549 0
M  V30 29100 S 2679.47 4.26527 -1.03054 0
M  V30 29101 H 2676.29 0.65705 -0.271674 0
M  V30 29102 H 2678.89 1.43435 -1.32841 0
M  V30 29103 H 2677.6 3.43044 -2.25276 0
M  V30 29104 H 2677.13 3.8868 -0.607601 0
M  V30 29105 H 2679.14 4.9617 0.054236 0
M  V30 29106 N 2678.32 0.815849 1.34839 0
M  V30 29107 C 2679.27 0.220929 2.31548 0
M  V30 29108 C 2680.26 -0.634429 1.57071 0
M  V30 29109 O 2681.47 -0.526559 1.72126 0
M  V30 29110 H 2677.84 0.0526914 0.750152 0
M  V30 29111 H 2679.81 1.05154 2.79258 0
M  V30 29112 C 2678.56 -0.608367 3.42336 0
M  V30 29113 H 2677.88 0.0404824 3.9978 0
M  V30 29114 H 2679.32 -0.990858 4.1226 0
M  V30 29115 C 2677.78 -1.77777 2.86176 0
M  V30 29116 O 2678.31 -2.87566 2.80479 0
M  V30 29117 N 2676.52 -1.59225 2.43096 0
M  V30 29118 H 2676.07 -0.699193 2.4793 0
M  V30 29119 H 2676.02 -2.37623 2.0587 0
M  V30 29120 N 2679.8 -1.46924 0.570174 0
M  V30 29121 C 2681.02 -2.07329 0.0542956 0
M  V30 29122 C 2681.45 -1.41809 -1.2358 0
M  V30 29123 O 2680.8 -0.49751 -1.7434 0
M  V30 29124 C 2680.85 -3.60429 -0.111112 0
M  V30 29125 O 2679.96 -3.95436 -1.17064 0
M  V30 29126 H 2679.3 -0.661536 0.0571541 0
M  V30 29127 H 2681.83 -1.88752 0.789549 0
M  V30 29128 H 2681.84 -4.06733 -0.321244 0
M  V30 29129 H 2680.51 -4.07512 0.831084 0
M  V30 29130 H 2679.09 -3.60859 -0.939966 0
M  V30 29131 N 2681.27 -0.307291 -1.54575 0
M  V30 29132 C 2682.51 0.300927 -2.02173 0
M  V30 29133 C 2682.88 1.50609 -1.19084 0
M  V30 29134 O 2684.08 2.18609 -1.56409 0
M  V30 29135 C 2682.35 0.642529 -3.51577 0
M  V30 29136 S 2683.91 1.23271 -4.21129 0
M  V30 29137 H 2680.73 0.0920017 -0.705022 0
M  V30 29138 H 2683.33 -0.436627 -1.90562 0
M  V30 29139 H 2682.03 -0.242973 -4.0968 0
M  V30 29140 H 2681.56 1.41071 -3.67236 0
M  V30 29141 H 2683.58 2.52027 -4.27431 0
M  V30 29142 N 2682.75 1.57561 -0.0351337 0
M  V30 29143 C 2683.99 1.93914 0.646282 0
M  V30 29144 C 2684.36 0.912215 1.68946 0
M  V30 29145 O 2685.56 1.16214 2.42379 0
M  V30 29146 C 2683.83 3.35151 1.2413 0
M  V30 29147 S 2685.39 3.9344 1.94295 0
M  V30 29148 H 2682.2 0.678461 0.21263 0
M  V30 29149 H 2684.81 1.95243 -0.100237 0
M  V30 29150 H 2683.51 4.07703 0.469718 0
M  V30 29151 H 2683.04 3.3728 2.02499 0
M  V30 29152 H 2685.06 3.77363 3.22198 0
M  V30 29153 N 2684.23 -0.238084 1.55791 0
M  V30 29154 C 2685.65 -0.587019 1.48412 0
M  V30 29155 C 2685.85 -1.87926 0.727053 0
M  V30 29156 O 2684.9 -2.51158 0.259986 0
M  V30 29157 C 2686.21 -0.681572 2.92874 0
M  V30 29158 C 2687.76 -0.773309 3.03297 0
M  V30 29159 C 2688.24 -0.899349 4.49083 0
M  V30 29160 N 2689.73 -0.963995 4.53058 0
M  V30 29161 C 2690.46 -1.08094 5.63119 0
M  V30 29162 N 2689.96 -1.16287 6.82971 0
M  V30 29163 N 2691.75 -1.11479 5.50935 0
M  V30 29164 H 2683.9 0.610112 2.03449 0
M  V30 29165 H 2686.17 0.211829 0.92403 0
M  V30 29166 H 2685.87 0.198082 3.51142 0
M  V30 29167 H 2685.75 -1.55063 3.43854 0
M  V30 29168 H 2688.13 -1.64341 2.45104 0
M  V30 29169 H 2688.21 0.121079 2.55513 0
M  V30 29170 H 2687.86 -0.0337693 5.07889 0
M  V30 29171 H 2687.79 -1.80891 4.94556 0
M  V30 29172 H 2690.28 -0.911666 3.66738 0
M  V30 29173 H 2690.59 -1.25142 7.626 0
M  V30 29174 H 2688.94 -1.13229 6.85714 0
M  V30 29175 H 2692.13 -1.04732 4.56233 0
M  V30 29176 H 2692.3 -1.20247 6.36745 0
M  V30 29177 N 2685.71 -1.4932 -0.504115 0
M  V30 29178 C 2686.65 -1.65759 -1.606 0
M  V30 29179 C 2687.62 -0.49911 -1.58424 0
M  V30 29180 O 2688.81 -0.725759 -1.76458 0
M  V30 29181 C 2685.95 -1.72731 -2.98761 0
M  V30 29182 C 2685.06 -2.99862 -3.10977 0
M  V30 29183 C 2684.2 -2.97832 -4.39852 0
M  V30 29184 C 2683.24 -4.19556 -4.4569 0
M  V30 29185 N 2682.37 -4.15454 -5.65988 0
M  V30 29186 H 2687.21 -2.59846 -1.45891 0
M  V30 29187 H 2684.75 -1.28838 -0.709868 0
M  V30 29188 H 2686.71 -1.74754 -3.78836 0
M  V30 29189 H 2685.34 -0.82113 -3.12182 0
M  V30 29190 H 2684.39 -3.07465 -2.23985 0
M  V30 29191 H 2685.7 -3.89855 -3.1115 0
M  V30 29192 H 2684.86 -2.984 -5.28244 0
M  V30 29193 H 2683.6 -2.05612 -4.42239 0
M  V30 29194 H 2682.6 -4.19235 -3.55699 0
M  V30 29195 H 2683.83 -5.12965 -4.45021 0
M  V30 29196 H 2681.77 -3.26069 -5.69223 0
M  V30 29197 H 2681.69 -4.99179 -5.67765 0
M  V30 29198 H 2682.96 -4.20121 -6.56597 0
M  V30 29199 N 2687.19 0.754933 -1.38342 0
M  V30 29200 C 2688.12 1.88225 -1.3818 0
M  V30 29201 C 2689.1 1.68284 -0.247902 0
M  V30 29202 O 2690.28 1.88896 -0.450784 0
M  V30 29203 C 2687.41 3.25734 -1.20477 0
M  V30 29204 C 2686.37 3.60274 -2.31056 0
M  V30 29205 C 2685.69 4.96505 -1.9846 0
M  V30 29206 C 2686.99 3.65289 -3.73312 0
M  V30 29207 H 2688.69 1.88618 -2.32516 0
M  V30 29208 H 2686.23 0.906062 -1.11922 0
M  V30 29209 H 2688.18 4.04252 -1.18989 0
M  V30 29210 H 2686.91 3.25817 -0.226023 0
M  V30 29211 H 2685.57 2.84074 -2.31728 0
M  V30 29212 H 2685.22 4.93147 -0.990728 0
M  V30 29213 H 2684.92 5.20584 -2.72519 0
M  V30 29214 H 2686.44 5.77404 -1.98588 0
M  V30 29215 H 2687.85 4.33923 -3.74678 0
M  V30 29216 H 2686.25 4.00875 -4.46564 0
M  V30 29217 H 2687.32 2.65549 -4.05724 0
M  V30 29218 N 2688.66 1.23189 0.982967 0
M  V30 29219 C 2689.61 1.01079 2.07489 0
M  V30 29220 C 2690.58 -0.0708758 1.65949 0
M  V30 29221 O 2691.77 0.0807157 1.90629 0
M  V30 29222 C 2688.91 0.60532 3.3975 0
M  V30 29223 C 2688.02 1.75883 3.94575 0
M  V30 29224 C 2687.15 1.30039 5.15037 0
M  V30 29225 C 2686.19 2.42481 5.62022 0
M  V30 29226 N 2685.33 1.97614 6.73716 0
M  V30 29227 H 2690.17 1.94544 2.25736 0
M  V30 29228 H 2687.71 0.969199 1.10657 0
M  V30 29229 H 2689.66 0.351352 4.15718 0
M  V30 29230 H 2688.29 -0.292325 3.21474 0
M  V30 29231 H 2687.35 2.12687 3.15386 0
M  V30 29232 H 2688.66 2.60426 4.25417 0
M  V30 29233 H 2687.81 1.0044 5.98328 0
M  V30 29234 H 2686.55 0.425301 4.85842 0
M  V30 29235 H 2685.56 2.72858 4.77314 0
M  V30 29236 H 2686.78 3.30523 5.93238 0
M  V30 29237 H 2684.73 1.12481 6.46285 0
M  V30 29238 H 2684.64 2.75717 7.03929 0
M  V30 29239 H 2685.91 1.71111 7.60487 0
M  V30 29240 N 2690.14 -1.18133 1.04318 0
M  V30 29241 C 2691.07 -2.24057 0.657338 0
M  V30 29242 C 2692.05 -1.66654 -0.340649 0
M  V30 29243 O 2693.24 -1.92948 -0.22019 0
M  V30 29244 C 2690.37 -3.47293 0.0221325 0
M  V30 29245 C 2689.32 -4.17461 0.943931 0
M  V30 29246 C 2688.65 -5.3442 0.173067 0
M  V30 29247 C 2689.95 -4.70673 2.26417 0
M  V30 29248 H 2691.64 -2.56586 1.54285 0
M  V30 29249 H 2689.19 -1.23334 0.743284 0
M  V30 29250 H 2691.14 -4.206 -0.259533 0
M  V30 29251 H 2689.86 -3.14004 -0.898268 0
M  V30 29252 H 2688.52 -3.46055 1.21002 0
M  V30 29253 H 2688.17 -4.9738 -0.74982 0
M  V30 29254 H 2687.87 -5.82303 0.7872 0
M  V30 29255 H 2689.4 -6.10516 -0.101521 0
M  V30 29256 H 2690.81 -5.35661 2.04303 0
M  V30 29257 H 2689.21 -5.291 2.83149 0
M  V30 29258 H 2690.28 -3.87957 2.9089 0
M  V30 29259 N 2691.62 -0.822988 -1.34405 0
M  V30 29260 C 2693.03 -0.469911 -1.8069 0
M  V30 29261 C 2693.38 1.0097 -1.68225 0
M  V30 29262 O 2692.51 1.78575 -1.22229 0
M  V30 29263 C 2693.1 -0.846176 -3.28063 0
M  V30 29264 C 2691.66 -0.545468 -3.72427 0
M  V30 29265 C 2690.81 -1.06305 -2.56114 0
M  V30 29266 H 2693.76 -1.01315 -1.22151 0
M  V30 29267 H 2693.78 -0.149989 -3.80204 0
M  V30 29268 H 2693.29 -1.9231 -3.37103 0
M  V30 29269 H 2691.39 0.522044 -3.68925 0
M  V30 29270 H 2691.51 -1.08958 -4.66546 0
M  V30 29271 H 2689.87 -0.484598 -2.50047 0
M  V30 29272 H 2690.65 -2.14642 -2.67925 0
M  V30 29273 N 2693.1 1.4662 -0.577957 0
M  V30 29274 C 2694.38 1.95599 0.00491849 0
M  V30 29275 C 2694.76 1.52062 1.46425 0
M  V30 29276 O 2694.1 0.769083 2.15168 0
M  V30 29277 C 2694.31 3.48623 -0.162176 0
M  V30 29278 C 2695.66 4.24591 -0.027537 0
M  V30 29279 O 2696.69 3.56084 -0.0907693 0
M  V30 29280 O 2695.54 5.46385 0.112104 0
M  V30 29281 H 2692.64 0.825332 0.0524912 0
M  V30 29282 H 2695.18 1.56926 -0.645942 0
M  V30 29283 H 2693.96 3.73183 -1.17686 0
M  V30 29284 H 2693.58 3.94114 0.525337 0
M  V30 29285 N 2694.58 0.315484 1.5441 0
M  V30 29286 C 2695.51 -0.546999 2.27003 0
M  V30 29287 C 2696.49 -1.12603 1.27494 0
M  V30 29288 O 2697.67 -1.15267 1.56292 0
M  V30 29289 C 2694.8 -1.71196 3.02174 0
M  V30 29290 C 2693.76 -1.26261 4.08952 0
M  V30 29291 C 2693.08 -2.51388 4.7192 0
M  V30 29292 C 2694.38 -0.383327 5.20891 0
M  V30 29293 H 2696.08 0.0585043 2.99343 0
M  V30 29294 H 2693.62 0.0295781 1.4397 0
M  V30 29295 H 2695.58 -2.32155 3.51685 0
M  V30 29296 H 2694.3 -2.34393 2.27437 0
M  V30 29297 H 2692.96 -0.675999 3.60313 0
M  V30 29298 H 2692.61 -3.12931 3.93806 0
M  V30 29299 H 2692.31 -2.22017 5.44043 0
M  V30 29300 H 2693.83 -3.13124 5.242 0
M  V30 29301 H 2695.24 -0.898983 5.66208 0
M  V30 29302 H 2693.64 -0.182752 5.99822 0
M  V30 29303 H 2694.71 0.587906 4.81323 0
M  V30 29304 N 2696.05 -1.5754 0.0434891 0
M  V30 29305 C 2697 -2.11078 -0.933522 0
M  V30 29306 C 2697.97 -1.01628 -1.31381 0
M  V30 29307 O 2699.16 -1.29132 -1.40462 0
M  V30 29308 C 2696.3 -2.65408 -2.20573 0
M  V30 29309 C 2695.41 -3.88918 -1.88061 0
M  V30 29310 C 2694.54 -4.3159 -3.09683 0
M  V30 29311 C 2693.58 -5.47819 -2.73057 0
M  V30 29312 N 2692.72 -5.85581 -3.87349 0
M  V30 29313 H 2697.56 -2.94269 -0.470066 0
M  V30 29314 H 2695.1 -1.45439 -0.220408 0
M  V30 29315 H 2697.06 -2.95004 -2.95006 0
M  V30 29316 H 2695.69 -1.85026 -2.64509 0
M  V30 29317 H 2694.74 -3.65961 -1.0381 0
M  V30 29318 H 2696.05 -4.73416 -1.57096 0
M  V30 29319 H 2695.2 -4.62697 -3.92423 0
M  V30 29320 H 2693.94 -3.45888 -3.43821 0
M  V30 29321 H 2692.95 -5.16391 -1.88733 0
M  V30 29322 H 2694.17 -6.35232 -2.4012 0
M  V30 29323 H 2692.12 -5.02833 -4.21302 0
M  V30 29324 H 2692.04 -6.64752 -3.60056 0
M  V30 29325 H 2693.3 -6.213 -4.70751 0
M  V30 29326 N 2697.53 0.229818 -1.55915 0
M  V30 29327 C 2698.95 0.57914 -1.48722 0
M  V30 29328 C 2699.15 1.87538 -0.737009 0
M  V30 29329 O 2698.2 2.51017 -0.273302 0
M  V30 29330 C 2699.52 0.66603 -2.93231 0
M  V30 29331 C 2701.07 0.757214 -3.03703 0
M  V30 29332 C 2701.54 0.875521 -4.49554 0
M  V30 29333 N 2703.03 0.939955 -4.53563 0
M  V30 29334 C 2703.77 1.05106 -5.63685 0
M  V30 29335 N 2703.26 1.12663 -6.83578 0
M  V30 29336 N 2705.06 1.08555 -5.51518 0
M  V30 29337 H 2697.21 -0.620893 -2.03122 0
M  V30 29338 H 2699.47 -0.216727 -0.922894 0
M  V30 29339 H 2699.18 -0.216701 -3.51032 0
M  V30 29340 H 2699.05 1.53237 -3.44671 0
M  V30 29341 H 2701.44 1.63039 -2.45972 0
M  V30 29342 H 2701.52 -0.134628 -2.55445 0
M  V30 29343 H 2701.16 0.00683423 -5.079 0
M  V30 29344 H 2701.09 1.78266 -4.95509 0
M  V30 29345 H 2703.58 0.892204 -3.67217 0
M  V30 29346 H 2703.9 1.21096 -7.63253 0
M  V30 29347 H 2702.24 1.09591 -6.86305 0
M  V30 29348 H 2705.43 1.02311 -4.56782 0
M  V30 29349 H 2705.6 1.16869 -6.37374 0
M  V30 29350 N 2699.01 1.49585 0.49619 0
M  V30 29351 C 2699.96 1.67101 1.61802 0
M  V30 29352 C 2700.95 0.536905 1.60666 0
M  V30 29353 O 2702.16 0.716683 1.65117 0
M  V30 29354 H 2698.53 0.526996 0.536451 0
M  V30 29355 H 2700.5 2.61255 1.44182 0
M  V30 29356 C 2699.25 1.75926 2.99909 0
M  V30 29357 H 2698.58 2.62571 3.01491 0
M  V30 29358 H 2700.02 1.92215 3.77928 0
M  V30 29359 C 2698.48 0.505146 3.33091 0
M  V30 29360 O 2699.01 -0.367015 4.0002 0
M  V30 29361 N 2697.21 0.36665 2.88278 0
M  V30 29362 H 2696.76 1.07739 2.33987 0
M  V30 29363 H 2696.72 -0.471366 3.10846 0
M  V30 29364 N 2700.49 -0.747586 1.3874 0
M  V30 29365 C 2701.77 -1.49784 1.25794 0
M  V30 29366 C 2702.15 -2.10648 -0.138038 0
M  V30 29367 O 2701.49 -1.97562 -1.14811 0
M  V30 29368 C 2701.7 -2.55938 2.37269 0
M  V30 29369 C 2703.05 -3.22674 2.75983 0
M  V30 29370 O 2704.08 -2.66246 2.36625 0
M  V30 29371 O 2702.93 -4.2475 3.43875 0
M  V30 29372 H 2700.03 -0.664535 0.492263 0
M  V30 29373 H 2702.57 -0.782484 1.50583 0
M  V30 29374 H 2701.35 -2.09255 3.30648 0
M  V30 29375 H 2700.97 -3.35048 2.14077 0
M  V30 29376 N 2701.97 -1.23709 -0.97642 0
M  V30 29377 C 2703.2 -1.09676 -1.75085 0
M  V30 29378 C 2703.6 0.354311 -1.85853 0
M  V30 29379 O 2702.95 1.25671 -1.33987 0
M  V30 29380 C 2703.01 -1.6525 -3.19269 0
M  V30 29381 C 2702.67 -3.14048 -3.31999 0
M  V30 29382 C 2703.67 -4.11298 -3.1801 0
M  V30 29383 C 2701.36 -3.53835 -3.56519 0
M  V30 29384 C 2703.35 -5.46318 -3.28353 0
M  V30 29385 C 2701.04 -4.88999 -3.66501 0
M  V30 29386 C 2702.03 -5.85049 -3.52429 0
M  V30 29387 O 2701.72 -7.17757 -3.6205 0
M  V30 29388 H 2701.45 -0.384272 -0.556158 0
M  V30 29389 H 2704.01 -1.64113 -1.23515 0
M  V30 29390 H 2702.24 -1.05238 -3.72105 0
M  V30 29391 H 2703.93 -1.46636 -3.78487 0
M  V30 29392 H 2704.69 -3.81901 -2.98959 0
M  V30 29393 H 2700.57 -2.79585 -3.66542 0
M  V30 29394 H 2704.12 -6.21269 -3.17286 0
M  V30 29395 H 2700.01 -5.1807 -3.85063 0
M  V30 29396 H 2700.78 -7.2556 -3.7882 0
M  V30 29397 N 2703.44 1.17579 -1.04943 0
M  V30 29398 C 2704.67 1.91702 -0.778328 0
M  V30 29399 C 2705.09 1.76676 0.665666 0
M  V30 29400 O 2704.44 1.10224 1.45454 0
M  V30 29401 C 2704.5 3.42843 -1.14634 0
M  V30 29402 O 2704.22 3.57404 -2.53365 0
M  V30 29403 C 2705.72 4.34047 -0.901007 0
M  V30 29404 H 2702.94 0.608318 -0.283178 0
M  V30 29405 H 2705.48 1.49117 -1.39944 0
M  V30 29406 H 2703.64 3.83183 -0.57002 0
M  V30 29407 H 2704.05 4.5103 -2.67717 0
M  V30 29408 H 2705.52 5.38614 -1.20827 0
M  V30 29409 H 2706 4.38894 0.163889 0
M  V30 29410 H 2706.61 3.99417 -1.46104 0
M  V30 29411 N 2704.92 0.830104 1.33967 0
M  V30 29412 C 2706.33 0.479487 1.80438 0
M  V30 29413 C 2706.68 -1.00076 1.68758 0
M  V30 29414 O 2705.81 -1.77924 1.23174 0
M  V30 29415 C 2706.4 0.863562 3.2761 0
M  V30 29416 C 2704.96 0.565211 3.72132 0
M  V30 29417 C 2704.11 1.07662 2.55547 0
M  V30 29418 H 2707.06 1.01962 1.21612 0
M  V30 29419 H 2707.08 0.17015 3.80119 0
M  V30 29420 H 2706.59 1.94095 3.36079 0
M  V30 29421 H 2704.7 -0.502472 3.69196 0
M  V30 29422 H 2704.81 1.1143 4.65961 0
M  V30 29423 H 2703.17 0.497851 2.49787 0
M  V30 29424 H 2703.96 2.1606 2.66783 0
M  V30 29425 N 2706.4 -1.46311 0.585725 0
M  V30 29426 C 2707.68 -1.95599 0.00545469 0
M  V30 29427 C 2708.06 -1.52837 -1.45617 0
M  V30 29428 O 2707.41 -0.780484 -2.14757 0
M  V30 29429 C 2707.62 -3.48532 0.180662 0
M  V30 29430 C 2708.96 -4.2457 0.0500537 0
M  V30 29431 O 2709.99 -3.56031 0.109652 0
M  V30 29432 O 2708.85 -5.46437 -0.0831265 0
M  V30 29433 H 2705.94 -0.825599 -0.0481136 0
M  V30 29434 H 2708.49 -1.56581 0.654255 0
M  V30 29435 H 2707.26 -3.72554 1.19663 0
M  V30 29436 H 2706.88 -3.94387 -0.504429 0
M  V30 29437 N 2707.88 -0.323668 -1.54241 0
M  V30 29438 C 2708.83 0.542237 -2.2434 0
M  V30 29439 C 2709.8 1.11157 -1.23423 0
M  V30 29440 O 2710.98 1.15189 -1.52106 0
M  V30 29441 C 2708.12 1.6972 -3.00482 0
M  V30 29442 C 2707.23 1.15709 -4.16216 0
M  V30 29443 C 2706.37 2.27774 -4.79888 0
M  V30 29444 C 2705.41 1.71012 -5.87725 0
M  V30 29445 N 2704.55 2.76741 -6.45259 0
M  V30 29446 H 2709.39 -0.0621137 -2.97935 0
M  V30 29447 H 2706.92 -0.0424252 -1.47039 0
M  V30 29448 H 2708.88 2.37684 -3.42874 0
M  V30 29449 H 2707.51 2.27283 -2.29221 0
M  V30 29450 H 2706.56 0.368996 -3.78606 0
M  V30 29451 H 2707.87 0.701745 -4.93839 0
M  V30 29452 H 2707.03 3.03642 -5.25249 0
M  V30 29453 H 2705.77 2.76645 -4.01645 0
M  V30 29454 H 2704.77 0.936422 -5.41767 0
M  V30 29455 H 2706 1.23018 -6.67865 0
M  V30 29456 H 2703.94 3.24902 -5.6989 0
M  V30 29457 H 2703.86 2.3577 -7.18296 0
M  V30 29458 H 2705.13 3.52437 -6.95276 0
M  V30 29459 N 2709.36 1.57515 -0.0518432 0
M  V30 29460 C 2710.61 1.91894 0.621252 0
M  V30 29461 C 2710.92 0.932083 1.71964 0
M  V30 29462 O 2712.13 1.16795 2.45094 0
M  V30 29463 C 2710.58 3.40818 1.15635 0
M  V30 29464 C 2710.19 4.4791 0.0900359 0
M  V30 29465 C 2711.93 3.8423 1.80465 0
M  V30 29466 C 2709.84 5.87948 0.638051 0
M  V30 29467 H 2708.77 0.716173 0.235822 0
M  V30 29468 H 2711.42 1.83102 -0.120841 0
M  V30 29469 H 2709.8 3.44617 1.95078 0
M  V30 29470 H 2710.98 4.55701 -0.683605 0
M  V30 29471 H 2709.29 4.13842 -0.460847 0
M  V30 29472 H 2711.89 4.86225 2.22463 0
M  V30 29473 H 2712.23 3.20513 2.65664 0
M  V30 29474 H 2712.77 3.8295 1.07676 0
M  V30 29475 H 2709.5 6.55263 -0.176317 0
M  V30 29476 H 2709.02 5.83717 1.37966 0
M  V30 29477 H 2710.7 6.37219 1.12074 0
M  V30 29478 N 2710.84 -0.221546 1.56035 0
M  V30 29479 C 2712.08 -0.943985 1.78247 0
M  V30 29480 C 2712.4 -1.855 0.620403 0
M  V30 29481 O 2713.6 -2.61609 0.726149 0
M  V30 29482 C 2712.06 -1.72874 3.15662 0
M  V30 29483 C 2711.67 -0.863865 4.39592 0
M  V30 29484 C 2713.41 -2.4424 3.47199 0
M  V30 29485 C 2711.32 -1.64597 5.68033 0
M  V30 29486 H 2710.25 -0.35621 0.664553 0
M  V30 29487 H 2712.9 -0.197872 1.8243 0
M  V30 29488 H 2711.28 -2.51776 3.05655 0
M  V30 29489 H 2712.46 -0.115383 4.60656 0
M  V30 29490 H 2710.77 -0.262334 4.15573 0
M  V30 29491 H 2713.37 -3.03256 4.40386 0
M  V30 29492 H 2713.71 -3.17125 2.69698 0
M  V30 29493 H 2714.24 -1.72328 3.58536 0
M  V30 29494 H 2710.98 -0.960393 6.48426 0
M  V30 29495 H 2710.5 -2.36907 5.51031 0
M  V30 29496 H 2712.18 -2.20665 6.08207 0
M  V30 29497 N 2712.31 -1.49846 -0.48825 0
M  V30 29498 C 2713.56 -1.59975 -1.24154 0
M  V30 29499 C 2713.89 -0.292215 -1.92292 0
M  V30 29500 O 2713.14 0.720781 -1.81943 0
M  V30 29501 C 2713.44 -2.71739 -2.32147 0
M  V30 29502 C 2713.11 -4.1281 -1.8138 0
M  V30 29503 C 2711.77 -4.51198 -1.67254 0
M  V30 29504 C 2714.12 -5.01048 -1.43529 0
M  V30 29505 C 2711.45 -5.75582 -1.13675 0
M  V30 29506 C 2713.8 -6.25963 -0.913971 0
M  V30 29507 C 2712.47 -6.63168 -0.75921 0
M  V30 29508 H 2711.74 -0.585391 -0.454311 0
M  V30 29509 H 2714.38 -1.83722 -0.540228 0
M  V30 29510 H 2712.69 -2.42014 -3.08118 0
M  V30 29511 H 2714.39 -2.76783 -2.90159 0
M  V30 29512 H 2710.98 -3.82516 -1.93337 0
M  V30 29513 H 2715.16 -4.72036 -1.53283 0
M  V30 29514 H 2710.42 -6.03098 -1.00415 0
M  V30 29515 H 2714.59 -6.93706 -0.611944 0
M  V30 29516 H 2712.22 -7.59431 -0.341868 0
M  V30 29517 N 2713.79 0.740218 -1.39135 0
M  V30 29518 C 2715.2 1.31823 -1.32211 0
M  V30 29519 C 2715.55 1.96194 0.0159574 0
M  V30 29520 O 2714.68 1.9596 0.918077 0
M  V30 29521 C 2715.27 2.39695 -2.3944 0
M  V30 29522 C 2713.83 2.93183 -2.36053 0
M  V30 29523 C 2712.98 1.66697 -2.21602 0
M  V30 29524 H 2715.93 0.538106 -1.49299 0
M  V30 29525 H 2715.95 3.19959 -2.05928 0
M  V30 29526 H 2715.46 1.92815 -3.36814 0
M  V30 29527 H 2713.56 3.44356 -1.42301 0
M  V30 29528 H 2713.68 3.46652 -3.3071 0
M  V30 29529 H 2712.04 1.90834 -1.68684 0
M  V30 29530 H 2712.82 1.21877 -3.20938 0
M  V30 29531 N 2715.27 1.24225 0.969846 0
M  V30 29532 C 2716.2 0.990586 2.06688 0
M  V30 29533 C 2717.21 -0.0391936 1.62753 0
M  V30 29534 O 2718.4 0.197592 1.77403 0
M  V30 29535 C 2715.5 0.472653 3.35588 0
M  V30 29536 C 2714.68 1.56507 4.08441 0
M  V30 29537 C 2713.74 1.05016 5.15614 0
M  V30 29538 O 2712.76 1.7414 5.41908 0
M  V30 29539 N 2713.96 -0.116539 5.80383 0
M  V30 29540 H 2716.73 1.93512 2.28852 0
M  V30 29541 H 2714.29 1.15225 1.13731 0
M  V30 29542 H 2716.28 0.11299 4.04542 0
M  V30 29543 H 2714.85 -0.377563 3.10311 0
M  V30 29544 H 2714.07 2.09702 3.33795 0
M  V30 29545 H 2715.36 2.2994 4.53878 0
M  V30 29546 H 2714.76 -0.69449 5.61421 0
M  V30 29547 H 2713.31 -0.417368 6.50462 0
M  V30 29548 N 2716.75 -1.1702 1.05565 0
M  V30 29549 C 2718.02 -1.83337 0.681683 0
M  V30 29550 C 2718.4 -1.9377 -0.837631 0
M  V30 29551 O 2717.75 -1.47514 -1.74505 0
M  V30 29552 C 2717.96 -3.2077 1.37506 0
M  V30 29553 C 2719.31 -3.96632 1.51552 0
M  V30 29554 O 2720.33 -3.30262 1.33437 0
M  V30 29555 O 2719.19 -5.15583 1.81209 0
M  V30 29556 H 2716.29 -0.79128 0.240425 0
M  V30 29557 H 2718.83 -1.24286 1.15547 0
M  V30 29558 H 2717.61 -3.08167 2.41141 0
M  V30 29559 H 2717.23 -3.87491 0.890866 0
M  V30 29560 N 2718.23 -0.837197 -1.33524 0
M  V30 29561 C 2719.14 -0.271609 -2.33022 0
M  V30 29562 C 2720.15 0.601485 -1.63273 0
M  V30 29563 O 2721.33 0.506004 -1.9494 0
M  V30 29564 C 2718.39 0.545388 -3.42383 0
M  V30 29565 C 2717.45 -0.351784 -4.27856 0
M  V30 29566 C 2716.69 0.426315 -5.31995 0
M  V30 29567 O 2716.91 1.65819 -5.45766 0
M  V30 29568 O 2715.84 -0.198805 -6.01572 0
M  V30 29569 H 2719.67 -1.09549 -2.83254 0
M  V30 29570 H 2717.25 -0.599679 -1.36836 0
M  V30 29571 H 2719.14 1.00972 -4.09124 0
M  V30 29572 H 2717.81 1.34636 -2.94372 0
M  V30 29573 H 2716.72 -0.863917 -3.63988 0
M  V30 29574 H 2718.05 -1.11748 -4.79347 0
M  V30 29575 N 2719.7 1.45999 -0.593476 0
M  V30 29576 C 2721.11 1.85926 -0.169834 0
M  V30 29577 C 2721.47 1.49567 1.26981 0
M  V30 29578 O 2720.59 0.915636 1.96074 0
M  V30 29579 C 2721.19 3.37456 -0.301444 0
M  V30 29580 C 2719.74 3.7634 0.0674022 0
M  V30 29581 C 2718.89 2.69992 -0.63243 0
M  V30 29582 H 2721.84 1.37 -0.801038 0
M  V30 29583 H 2721.86 3.77583 0.470265 0
M  V30 29584 H 2721.38 3.63888 -1.34933 0
M  V30 29585 H 2719.48 3.55525 1.11501 0
M  V30 29586 H 2719.59 4.78054 -0.316416 0
M  V30 29587 H 2717.95 2.546 -0.0715408 0
M  V30 29588 H 2718.74 2.99262 -1.68218 0
M  V30 29589 N 2721.18 0.331843 1.54067 0
M  V30 29590 C 2722.41 -0.272669 2.056 0
M  V30 29591 C 2722.83 -1.44357 1.20593 0
M  V30 29592 O 2722.19 -1.79997 0.216939 0
M  V30 29593 C 2722.24 -0.676958 3.54189 0
M  V30 29594 O 2721.34 -1.77838 3.72085 0
M  V30 29595 H 2720.68 -0.0476685 0.662287 0
M  V30 29596 H 2723.21 0.482659 1.98825 0
M  V30 29597 H 2723.22 -0.957345 3.96609 0
M  V30 29598 H 2721.9 0.179398 4.15513 0
M  V30 29599 H 2720.48 -1.49616 3.41569 0
M  V30 29600 N 2722.66 -1.57485 0.0601958 0
M  V30 29601 C 2723.94 -1.84416 -0.651923 0
M  V30 29602 C 2724.32 -0.950394 -1.88496 0
M  V30 29603 O 2723.67 -0.0137121 -2.28496 0
M  V30 29604 C 2723.88 -3.34348 -1.00063 0
M  V30 29605 C 2725.22 -4.0158 -1.37908 0
M  V30 29606 O 2726.25 -3.39026 -1.09271 0
M  V30 29607 O 2725.11 -5.11891 -1.9139 0
M  V30 29608 H 2722.2 -0.761461 -0.322655 0
M  V30 29609 H 2724.75 -1.6946 0.0902457 0
M  V30 29610 H 2723.52 -3.91102 -0.124394 0
M  V30 29611 H 2723.14 -3.54524 -1.79995 0
M  V30 29612 N 2724.14 0.213268 -1.5615 0
M  V30 29613 C 2725.07 1.26738 -1.96111 0
M  V30 29614 C 2726.05 1.48449 -0.830475 0
M  V30 29615 O 2727.23 1.60493 -1.09342 0
M  V30 29616 C 2724.36 2.61547 -2.28497 0
M  V30 29617 C 2723.32 2.54479 -3.44129 0
M  V30 29618 C 2722.64 3.93393 -3.62141 0
M  V30 29619 C 2723.94 2.08548 -4.78858 0
M  V30 29620 H 2725.64 0.935384 -2.84413 0
M  V30 29621 H 2723.18 0.448516 -1.36837 0
M  V30 29622 H 2725.14 3.35455 -2.55045 0
M  V30 29623 H 2723.86 2.96451 -1.37057 0
M  V30 29624 H 2722.52 1.83027 -3.17642 0
M  V30 29625 H 2722.17 4.25619 -2.68063 0
M  V30 29626 H 2721.87 3.89544 -4.3992 0
M  V30 29627 H 2723.39 4.68951 -3.91046 0
M  V30 29628 H 2724.81 2.72204 -5.04557 0
M  V30 29629 H 2723.2 2.1574 -5.59979 0
M  V30 29630 H 2724.27 1.03802 -4.73659 0
M  V30 29631 N 2725.62 1.50103 0.480296 0
M  V30 29632 C 2726.56 1.68808 1.60021 0
M  V30 29633 C 2727.56 0.553916 1.60088 0
M  V30 29634 O 2728.76 0.734156 1.64348 0
M  V30 29635 H 2725.14 0.532656 0.530831 0
M  V30 29636 H 2727.11 2.62769 1.41403 0
M  V30 29637 C 2725.86 1.79097 2.98026 0
M  V30 29638 H 2725.18 2.65753 2.98689 0
M  V30 29639 H 2726.62 1.96213 3.75868 0
M  V30 29640 C 2725.08 0.540447 3.32537 0
M  V30 29641 O 2725.61 -0.324566 4.00387 0
M  V30 29642 N 2723.82 0.397205 2.87873 0
M  V30 29643 H 2723.36 1.10214 2.32832 0
M  V30 29644 H 2723.32 -0.43837 3.11329 0
M  V30 29645 N 2727.09 -0.732829 1.39526 0
M  V30 29646 C 2728.02 -1.86003 1.41157 0
M  V30 29647 C 2729.01 -1.67868 0.274644 0
M  V30 29648 O 2730.19 -1.88155 0.480778 0
M  V30 29649 C 2727.32 -3.23776 1.25644 0
M  V30 29650 C 2726.27 -3.56552 2.36759 0
M  V30 29651 C 2725.6 -4.93285 2.06334 0
M  V30 29652 C 2726.9 -3.59303 3.79076 0
M  V30 29653 H 2728.59 -1.84895 2.35487 0
M  V30 29654 H 2726.14 -0.888142 1.13349 0
M  V30 29655 H 2728.09 -4.02308 1.25405 0
M  V30 29656 H 2726.82 -3.25416 0.277829 0
M  V30 29657 H 2725.48 -2.80351 2.36218 0
M  V30 29658 H 2725.12 -4.91508 1.06906 0
M  V30 29659 H 2724.82 -5.16182 2.80766 0
M  V30 29660 H 2726.35 -5.74171 2.07749 0
M  V30 29661 H 2727.76 -4.27907 3.81534 0
M  V30 29662 H 2726.16 -3.9372 4.52885 0
M  V30 29663 H 2727.23 -2.5906 4.09897 0
M  V30 29664 N 2728.57 -1.24737 -0.963244 0
M  V30 29665 C 2729.5 -1.00153 -2.0616 0
M  V30 29666 C 2730.52 0.0305619 -1.62771 0
M  V30 29667 O 2731.71 -0.206997 -1.77296 0
M  V30 29668 C 2728.81 -0.490444 -3.35332 0
M  V30 29669 C 2727.98 -1.58671 -4.07606 0
M  V30 29670 C 2727.04 -1.07749 -5.1505 0
M  V30 29671 O 2726.06 -1.77011 -5.40977 0
M  V30 29672 N 2727.27 0.0857585 -5.80437 0
M  V30 29673 H 2730.03 -1.94723 -2.27822 0
M  V30 29674 H 2727.59 -1.15827 -1.13119 0
M  V30 29675 H 2729.58 -0.134442 -4.04477 0
M  V30 29676 H 2728.15 0.361101 -3.10507 0
M  V30 29677 H 2727.37 -2.11469 -3.32678 0
M  V30 29678 H 2728.66 -2.32344 -4.52652 0
M  V30 29679 H 2728.06 0.664707 -5.61781 0
M  V30 29680 H 2726.62 0.382867 -6.50675 0
M  V30 29681 N 2730.05 1.16459 -1.06184 0
M  V30 29682 C 2731.46 1.68575 -0.802456 0
M  V30 29683 C 2731.81 1.84257 0.674088 0
M  V30 29684 O 2730.94 1.53732 1.523 0
M  V30 29685 C 2731.53 3.062 -1.45008 0
M  V30 29686 C 2730.09 3.55441 -1.23849 0
M  V30 29687 C 2729.24 2.31451 -1.52728 0
M  V30 29688 H 2732.19 1.00836 -1.22547 0
M  V30 29689 H 2732.21 3.70542 -0.864796 0
M  V30 29690 H 2731.72 2.94754 -2.52471 0
M  V30 29691 H 2729.82 3.72148 -0.183553 0
M  V30 29692 H 2729.94 4.37601 -1.95044 0
M  V30 29693 H 2728.3 2.3641 -0.947767 0
M  V30 29694 H 2729.08 2.22604 -2.61347 0
M  V30 29695 N 2731.53 0.844266 1.33079 0
M  V30 29696 C 2732.78 0.44171 1.97214 0
M  V30 29697 C 2733.1 -1.00367 1.67187 0
M  V30 29698 O 2732.37 -1.69993 0.973618 0
M  V30 29699 H 2730.95 0.160348 0.729587 0
M  V30 29700 H 2733.61 1.07841 1.62346 0
M  V30 29701 H 2732.71 0.578204 3.06697 0
M  V30 29702 N 2733.01 -1.45682 0.60121 0
M  V30 29703 C 2733.95 -2.32214 -0.133915 0
M  V30 29704 C 2734.95 -1.45591 -0.866008 0
M  V30 29705 O 2736.15 -1.62111 -0.782297 0
M  V30 29706 H 2732.53 -0.749436 -0.0620482 0
M  V30 29707 H 2734.5 -2.92005 0.61444 0
M  V30 29708 C 2733.25 -3.29096 -1.12211 0
M  V30 29709 H 2732.57 -3.95742 -0.568203 0
M  V30 29710 H 2734.01 -3.92386 -1.60653 0
M  V30 29711 C 2732.47 -2.55798 -2.19246 0
M  V30 29712 O 2733 -2.33464 -3.2689 0
M  V30 29713 N 2731.21 -2.16042 -1.94356 0
M  V30 29714 H 2730.75 -2.34406 -1.06825 0
M  V30 29715 H 2730.71 -1.67322 -2.66178 0
M  V30 29716 N 2734.48 -0.340009 -1.53889 0
M  V30 29717 C 2735.71 0.261761 -2.05742 0
M  V30 29718 C 2736.13 1.43715 -1.21357 0
M  V30 29719 O 2735.49 1.7988 -0.226481 0
M  V30 29720 C 2735.54 0.658165 -3.54543 0
M  V30 29721 O 2734.64 1.75862 -3.73023 0
M  V30 29722 H 2733.99 0.0441556 -0.66253 0
M  V30 29723 H 2736.52 -0.493196 -1.98567 0
M  V30 29724 H 2736.53 0.936298 -3.97111 0
M  V30 29725 H 2735.2 -0.201431 -4.15412 0
M  V30 29726 H 2733.78 1.47803 -3.42358 0
M  V30 29727 N 2735.96 1.57451 -0.0685468 0
M  V30 29728 C 2737.19 1.9769 0.610427 0
M  V30 29729 C 2737.61 0.946787 1.63344 0
M  V30 29730 O 2736.96 -0.0669548 1.82377 0
M  V30 29731 C 2737.01 3.38008 1.2819 0
M  V30 29732 O 2736.74 4.37073 0.299829 0
M  V30 29733 C 2738.24 3.93104 2.049 0
M  V30 29734 H 2735.46 0.650224 0.165678 0
M  V30 29735 H 2738 2.0402 -0.139989 0
M  V30 29736 H 2736.16 3.32775 1.98342 0
M  V30 29737 H 2736.57 5.1865 0.781169 0
M  V30 29738 H 2738.04 4.93515 2.47279 0
M  V30 29739 H 2738.52 3.2947 2.90424 0
M  V30 29740 H 2739.13 4.01729 1.39622 0
M  V30 29741 N 2737.44 -0.204984 1.56261 0
M  V30 29742 C 2738.39 -1.25408 1.93756 0
M  V30 29743 C 2739.36 -1.45738 0.796851 0
M  V30 29744 O 2740.54 -1.59034 1.05417 0
M  V30 29745 C 2737.68 -2.59594 2.27388 0
M  V30 29746 C 2736.8 -2.46925 3.54475 0
M  V30 29747 C 2735.93 -3.73747 3.77474 0
M  V30 29748 C 2734.97 -3.55869 4.9802 0
M  V30 29749 N 2734.11 -4.74679 5.17324 0
M  V30 29750 H 2738.95 -0.92732 2.83204 0
M  V30 29751 H 2736.48 -0.446549 1.40158 0
M  V30 29752 H 2738.44 -3.37757 2.44901 0
M  V30 29753 H 2737.07 -2.90332 1.41093 0
M  V30 29754 H 2736.12 -1.6011 3.45064 0
M  V30 29755 H 2737.44 -2.29643 4.42793 0
M  V30 29756 H 2736.59 -4.60351 3.95173 0
M  V30 29757 H 2735.33 -3.93971 2.87468 0
M  V30 29758 H 2734.33 -2.67649 4.80254 0
M  V30 29759 H 2735.56 -3.37099 5.89526 0
M  V30 29760 H 2733.51 -4.95186 4.30264 0
M  V30 29761 H 2733.42 -4.60186 5.99804 0
M  V30 29762 H 2734.69 -5.62663 5.39473 0
M  V30 29763 N 2738.92 -1.50356 -0.472329 0
M  V30 29764 C 2739.83 -1.71913 -1.59634 0
M  V30 29765 C 2740.85 -0.602224 -1.63246 0
M  V30 29766 O 2742.02 -0.880401 -1.81138 0
M  V30 29767 C 2739.09 -1.80748 -2.95857 0
M  V30 29768 C 2738.15 -3.04476 -3.02643 0
M  V30 29769 C 2737.38 -3.12879 -4.32368 0
M  V30 29770 O 2737.6 -2.28108 -5.22803 0
M  V30 29771 O 2736.54 -4.05595 -4.44721 0
M  V30 29772 H 2740.36 -2.67192 -1.44369 0
M  V30 29773 H 2737.95 -1.34437 -0.651694 0
M  V30 29774 H 2739.83 -1.88746 -3.76767 0
M  V30 29775 H 2738.51 -0.886524 -3.11324 0
M  V30 29776 H 2737.41 -3.01979 -2.20816 0
M  V30 29777 H 2738.75 -3.96145 -2.92112 0
M  V30 29778 N 2740.4 0.725419 -1.39912 0
M  V30 29779 C 2741.62 1.51968 -1.4114 0
M  V30 29780 C 2742.05 1.88097 -0.010295 0
M  V30 29781 O 2741.41 1.52585 0.979157 0
M  V30 29782 C 2741.45 2.77773 -2.29945 0
M  V30 29783 O 2740.56 3.74085 -1.73593 0
M  V30 29784 H 2739.9 0.458561 -0.480227 0
M  V30 29785 H 2742.43 0.894217 -1.84024 0
M  V30 29786 H 2742.44 3.26407 -2.44791 0
M  V30 29787 H 2741.11 2.5081 -3.31764 0
M  V30 29788 H 2739.69 3.32891 -1.68041 0
M  V30 29789 N 2741.88 1.25246 0.956615 0
M  V30 29790 C 2742.79 1.07193 2.08679 0
M  V30 29791 C 2743.8 0.00962132 1.73997 0
M  V30 29792 O 2744.98 0.210139 2.00301 0
M  V30 29793 C 2742.04 0.690586 3.39753 0
M  V30 29794 C 2741.1 1.83061 3.88313 0
M  V30 29795 C 2740.34 1.46737 5.13132 0
M  V30 29796 O 2740.56 0.362129 5.69249 0
M  V30 29797 O 2739.49 2.29687 5.56352 0
M  V30 29798 H 2743.32 2.01969 2.26809 0
M  V30 29799 H 2740.9 1.04167 1.07097 0
M  V30 29800 H 2742.79 0.489945 4.18542 0
M  V30 29801 H 2741.46 -0.227924 3.22897 0
M  V30 29802 H 2740.37 2.0861 3.10536 0
M  V30 29803 H 2741.7 2.7283 4.09664 0
M  V30 29804 N 2743.35 -1.15894 1.068 0
M  V30 29805 C 2744.58 -1.90981 0.808773 0
M  V30 29806 C 2745 -1.7718 -0.631568 0
M  V30 29807 O 2744.36 -1.10064 -1.44068 0
M  V30 29808 C 2744.41 -3.39524 1.21474 0
M  V30 29809 O 2743.51 -4.10855 0.356634 0
M  V30 29810 H 2742.85 -0.594806 0.29513 0
M  V30 29811 H 2745.38 -1.46801 1.42515 0
M  V30 29812 H 2745.39 -3.90306 1.18851 0
M  V30 29813 H 2744.07 -3.48888 2.26385 0
M  V30 29814 H 2742.65 -3.70237 0.444874 0
M  V30 29815 N 2744.83 -0.851312 -1.32629 0
M  V30 29816 C 2746.06 -0.466934 -2.01562 0
M  V30 29817 C 2746.47 0.935418 -1.63998 0
M  V30 29818 O 2745.83 1.60988 -0.859598 0
M  V30 29819 C 2745.88 -0.592496 -3.56611 0
M  V30 29820 O 2745.6 -1.9396 -3.92824 0
M  V30 29821 C 2747.1 -0.20669 -4.42818 0
M  V30 29822 H 2744.32 -0.183914 -0.645304 0
M  V30 29823 H 2746.87 -1.14733 -1.69283 0
M  V30 29824 H 2745.02 0.0401255 -3.87379 0
M  V30 29825 H 2745.44 -1.93399 -4.87542 0
M  V30 29826 H 2746.91 -0.345559 -5.50917 0
M  V30 29827 H 2747.39 0.852564 -4.30846 0
M  V30 29828 H 2747.99 -0.814249 -4.17433 0
M  V30 29829 N 2746.31 1.45361 -0.608928 0
M  V30 29830 C 2747.26 2.32282 0.121598 0
M  V30 29831 C 2748.25 1.46048 0.858275 0
M  V30 29832 O 2749.46 1.62524 0.773689 0
M  V30 29833 H 2745.83 0.749754 0.0580728 0
M  V30 29834 H 2747.8 2.91676 -0.629918 0
M  V30 29835 C 2746.55 3.29686 1.10464 0
M  V30 29836 H 2745.88 3.96037 0.547208 0
M  V30 29837 H 2747.32 3.93232 1.58569 0
M  V30 29838 C 2745.77 2.56957 2.17886 0
M  V30 29839 O 2746.3 2.35195 3.25648 0
M  V30 29840 N 2744.51 2.1707 1.93207 0
M  V30 29841 H 2744.06 2.34969 1.0558 0
M  V30 29842 H 2744.02 1.68731 2.65287 0
M  V30 29843 N 2747.79 0.348166 1.53706 0
M  V30 29844 C 2749.01 -0.250847 2.05877 0
M  V30 29845 C 2749.44 -1.4307 1.22117 0
M  V30 29846 O 2748.8 -1.79757 0.236017 0
M  V30 29847 C 2748.84 -0.639354 3.54887 0
M  V30 29848 O 2747.95 -1.73881 3.73951 0
M  V30 29849 H 2747.29 -0.0406414 0.662755 0
M  V30 29850 H 2749.82 0.50372 1.98302 0
M  V30 29851 H 2749.83 -0.915225 3.97602 0
M  V30 29852 H 2748.5 0.223459 4.15299 0
M  V30 29853 H 2747.08 -1.45985 3.43137 0
M  V30 29854 N 2749.27 -1.57412 0.0768958 0
M  V30 29855 C 2750.51 -1.93969 -0.591927 0
M  V30 29856 C 2750.84 -0.957529 -1.68953 0
M  V30 29857 O 2750.12 0.0124334 -1.94496 0
M  V30 29858 C 2750.4 -3.40764 -1.16412 0
M  V30 29859 C 2750.26 -4.49741 -0.0728142 0
M  V30 29860 C 2751.57 -3.88483 -2.06807 0
M  V30 29861 H 2748.69 -0.705337 -0.213703 0
M  V30 29862 H 2751.34 -1.89454 0.143903 0
M  V30 29863 H 2749.49 -3.44743 -1.79122 0
M  V30 29864 H 2751.16 -4.57882 0.560526 0
M  V30 29865 H 2749.4 -4.29687 0.595934 0
M  V30 29866 H 2750.07 -5.49605 -0.513658 0
M  V30 29867 H 2752.55 -3.86542 -1.54027 0
M  V30 29868 H 2751.42 -4.91797 -2.43776 0
M  V30 29869 H 2751.68 -3.26719 -2.97838 0
M  V30 29870 N 2750.74 0.196695 -1.56368 0
M  V30 29871 C 2752.16 0.547464 -1.49917 0
M  V30 29872 C 2752.36 1.85932 -0.776623 0
M  V30 29873 O 2751.42 2.5038 -0.326484 0
M  V30 29874 C 2752.73 0.603682 -2.94578 0
M  V30 29875 C 2754.28 0.692624 -3.0524 0
M  V30 29876 C 2754.75 0.779967 -4.5131 0
M  V30 29877 N 2756.24 0.843536 -4.55454 0
M  V30 29878 C 2756.98 0.931259 -5.65787 0
M  V30 29879 N 2756.47 0.981382 -6.85814 0
M  V30 29880 N 2758.27 0.968323 -5.53697 0
M  V30 29881 H 2750.42 -0.663838 -2.0176 0
M  V30 29882 H 2752.68 -0.236254 -0.918089 0
M  V30 29883 H 2752.39 -0.291111 -3.50493 0
M  V30 29884 H 2752.26 1.45892 -3.47844 0
M  V30 29885 H 2754.65 1.57785 -2.49375 0
M  V30 29886 H 2754.73 -0.188781 -2.55102 0
M  V30 29887 H 2754.37 -0.1009 -5.078 0
M  V30 29888 H 2754.3 1.67715 -4.99179 0
M  V30 29889 H 2756.79 0.814111 -3.69027 0
M  V30 29890 H 2757.11 1.04879 -7.6565 0
M  V30 29891 H 2755.45 0.950087 -6.88475 0
M  V30 29892 H 2758.64 0.925991 -4.5885 0
M  V30 29893 H 2758.82 1.03323 -6.3971 0
M  V30 29894 N 2752.22 1.50604 0.464349 0
M  V30 29895 C 2753.15 1.72892 1.56941 0
M  V30 29896 C 2754.13 0.578025 1.59978 0
M  V30 29897 O 2755.32 0.817886 1.76137 0
M  V30 29898 C 2752.45 1.82925 2.95222 0
M  V30 29899 C 2751.4 2.98167 3.07051 0
M  V30 29900 C 2750.73 2.9335 4.47045 0
M  V30 29901 C 2752.03 4.38572 2.8364 0
M  V30 29902 H 2753.72 2.65417 1.38542 0
M  V30 29903 H 2751.27 1.27722 0.665059 0
M  V30 29904 H 2753.22 1.97101 3.72464 0
M  V30 29905 H 2751.95 0.870264 3.14792 0
M  V30 29906 H 2750.6 2.83652 2.32243 0
M  V30 29907 H 2750.25 1.95284 4.63544 0
M  V30 29908 H 2749.95 3.7072 4.55895 0
M  V30 29909 H 2751.48 3.09584 5.26298 0
M  V30 29910 H 2752.89 4.53578 3.50628 0
M  V30 29911 H 2751.29 5.17444 3.03928 0
M  V30 29912 H 2752.36 4.50475 1.79443 0
M  V30 29913 N 2753.7 -0.717989 1.40295 0
M  V30 29914 C 2754.63 -1.84153 1.3477 0
M  V30 29915 C 2755.61 -1.61125 0.218484 0
M  V30 29916 O 2756.8 -1.84169 0.401748 0
M  V30 29917 C 2753.92 -3.20449 1.09682 0
M  V30 29918 C 2752.97 -3.62308 2.25023 0
M  V30 29919 S 2753.8 -3.69701 3.87404 0
M  V30 29920 C 2754.96 -5.0876 3.64574 0
M  V30 29921 H 2755.19 -1.88558 2.29854 0
M  V30 29922 H 2752.72 -0.884532 1.26552 0
M  V30 29923 H 2754.68 -3.99143 0.95892 0
M  V30 29924 H 2753.34 -3.13679 0.162557 0
M  V30 29925 H 2752.54 -4.61264 2.03105 0
M  V30 29926 H 2752.14 -2.90865 2.35104 0
M  V30 29927 H 2754.43 -5.95606 3.22893 0
M  V30 29928 H 2755.37 -5.35712 4.63053 0
M  V30 29929 H 2755.78 -4.7924 2.98311 0
M  V30 29930 N 2755.18 -1.25752 -0.94996 0
M  V30 29931 C 2756.11 -1.09032 -2.06481 0
M  V30 29932 C 2757.09 0.00198542 -1.701 0
M  V30 29933 O 2758.27 -0.168417 -1.93468 0
M  V30 29934 C 2755.4 -0.71322 -3.39898 0
M  V30 29935 C 2754.36 -1.75628 -3.90306 0
M  V30 29936 C 2753.68 -1.23374 -5.20272 0
M  V30 29937 C 2754.98 -3.15603 -4.16163 0
M  V30 29938 H 2756.68 -2.02287 -2.20727 0
M  V30 29939 H 2754.22 -0.973983 -1.06064 0
M  V30 29940 H 2756.18 -0.583164 -4.17345 0
M  V30 29941 H 2754.9 0.255034 -3.25603 0
M  V30 29942 H 2753.56 -1.87485 -3.15031 0
M  V30 29943 H 2753.21 -0.255579 -5.0235 0
M  V30 29944 H 2752.91 -1.93092 -5.54968 0
M  V30 29945 H 2754.43 -1.11617 -6.00312 0
M  V30 29946 H 2755.85 -3.06873 -4.84254 0
M  V30 29947 H 2754.24 -3.82834 -4.62124 0
M  V30 29948 H 2755.31 -3.62315 -3.22266 0
M  V30 29949 O 2756.7 1.0832 -1.19788 0
M  V30 29950 H 2757.39 1.68896 -0.948352 0
M  V30 END ATOM
M  V30 BEGIN BOND
M  V30 END BOND
M  V30 END CTAB
M  END
$$$$
