drugbank_target|P35961 Envelope glycoprotein gp160 (DB04639; DB11854)
 OpenBabel12092120303D

  0  0  0     0  0            999 V3000
M  V30 BEGIN CTAB
M  V30 COUNTS 13510 13653 0 0 0
M  V30 BEGIN ATOM
M  V30 1 H -0.908 1.98254 -0.117106 0
M  V30 2 N 0 1.576 0 0
M  V30 3 C 0.933 2.03868 1.02534 0
M  V30 4 C 1.911 0.928543 1.3348 0
M  V30 5 O 3.095 1.19667 1.45644 0
M  V30 6 C 0.222 2.43627 2.35294 0
M  V30 7 C -0.732 3.65373 2.2001 0
M  V30 8 S 0.101 5.13292 1.52614 0
M  V30 9 C 1.257 5.56322 2.86805 0
M  V30 10 H 1.49 2.90518 0.631377 0
M  V30 11 H -0.977 1.52953 0.210867 0
M  V30 12 H 0.981 2.67203 3.11629 0
M  V30 13 H -0.358 1.57376 2.7183 0
M  V30 14 H -1.165 3.90944 3.18086 0
M  V30 15 H -1.563 3.418 1.51819 0
M  V30 16 H 0.729 5.58782 3.83104 0
M  V30 17 H 1.672 6.56266 2.65933 0
M  V30 18 H 2.08 4.83886 2.90714 0
M  V30 19 N 1.4781 -0.272755 1.55222 0
M  V30 20 C 2.8941 -0.619959 1.47067 0
M  V30 21 C 3.0941 -1.895 0.684978 0
M  V30 22 O 2.1501 -2.51675 0.203931 0
M  V30 23 C 3.4631 -0.746693 2.91282 0
M  V30 24 C 5.0111 -0.840731 3.01497 0
M  V30 25 C 5.4861 -0.99924 4.46967 0
M  V30 26 N 6.9771 -1.06476 4.50796 0
M  V30 27 C 7.7121 -1.20621 5.6057 0
M  V30 28 N 7.2081 -1.31483 6.80209 0
M  V30 29 N 9.0011 -1.23733 5.48312 0
M  V30 30 H 1.1521 0.564606 2.04758 0
M  V30 31 H 3.4151 0.191177 0.928523 0
M  V30 32 H 3.1211 0.119753 3.51496 0
M  V30 33 H 2.9951 -1.6269 3.40311 0
M  V30 34 H 5.3821 -1.69764 2.41379 0
M  V30 35 H 5.4631 0.0640874 2.5572 0
M  V30 36 H 5.1071 -0.146984 5.07687 0
M  V30 37 H 5.0371 -1.91871 4.90401 0
M  V30 38 H 7.5281 -0.993196 3.64615 0
M  V30 39 H 7.8411 -1.42111 7.59621 0
M  V30 40 H 6.1861 -1.28487 6.8302 0
M  V30 41 H 9.3771 -1.14877 4.53785 0
M  V30 42 H 9.5501 -1.34412 6.33906 0
M  V30 43 N 2.9562 -1.48159 -0.537278 0
M  V30 44 C 3.9192 -1.61665 -1.62472 0
M  V30 45 C 4.9192 -0.490395 -1.5314 0
M  V30 46 O 6.1092 -0.755998 -1.5694 0
M  V30 47 C 3.2412 -1.57997 -3.02076 0
M  V30 48 H 4.4342 -2.58621 -1.51839 0
M  V30 49 H 1.9872 -1.36647 -0.758771 0
M  V30 50 H 2.7222 -0.624913 -3.18222 0
M  V30 51 H 2.5072 -2.39755 -3.10258 0
M  V30 52 H 3.9972 -1.70627 -3.81151 0
M  V30 53 N 4.4343 0.785586 -1.36625 0
M  V30 54 C 5.6623 1.57448 -1.3423 0
M  V30 55 C 6.0773 1.88649 0.0755653 0
M  V30 56 O 5.4343 1.50414 1.03354 0
M  V30 57 C 5.4853 2.89316 -2.16745 0
M  V30 58 O 5.2063 2.59459 -3.53005 0
M  V30 59 C 6.7073 3.83606 -2.22174 0
M  V30 60 H 3.9273 0.488226 -0.4603 0
M  V30 61 H 6.4713 0.974733 -1.79775 0
M  V30 62 H 4.6263 3.4575 -1.74745 0
M  V30 63 H 5.0403 3.43804 -3.96105 0
M  V30 64 H 6.5143 4.73181 -2.8426 0
M  V30 65 H 6.9913 4.21734 -1.22627 0
M  V30 66 H 7.5973 3.33104 -2.64427 0
M  V30 67 N 5.9124 1.20967 1.01018 0
M  V30 68 C 6.8224 0.980157 2.13143 0
M  V30 69 C 7.8384 -0.0660665 1.73875 0
M  V30 70 O 9.0144 0.122821 2.01025 0
M  V30 71 C 6.0794 0.54216 3.42435 0
M  V30 72 C 5.1404 1.65999 3.95908 0
M  V30 73 C 4.3734 1.2428 5.19028 0
M  V30 74 O 4.5964 0.114196 5.70286 0
M  V30 75 O 3.5304 2.05271 5.65816 0
M  V30 76 H 7.3564 1.91913 2.35379 0
M  V30 77 H 4.9414 0.994099 1.11526 0
M  V30 78 H 6.8234 0.30744 4.20277 0
M  V30 79 H 5.4984 -0.36815 3.216 0
M  V30 80 H 4.4054 1.94906 3.19316 0
M  V30 81 H 5.7384 2.54753 4.21143 0
M  V30 82 N 7.3905 -1.2043 1.01659 0
M  V30 83 C 8.6395 -1.89118 0.701237 0
M  V30 84 C 8.9525 -1.79705 -0.772358 0
M  V30 85 O 10.1585 -2.43528 -1.20026 0
M  V30 86 C 8.6145 -3.39168 1.20388 0
M  V30 87 C 8.2225 -3.57166 2.70438 0
M  V30 88 C 9.9665 -4.1341 0.963953 0
M  V30 89 C 7.8735 -5.01042 3.14183 0
M  V30 90 H 6.8035 -0.708267 0.2586 0
M  V30 91 H 9.4545 -1.36239 1.22927 0
M  V30 92 H 7.8365 -3.91369 0.603824 0
M  V30 93 H 9.0105 -3.15351 3.35992 0
M  V30 94 H 7.3255 -2.96294 2.92572 0
M  V30 95 H 9.9225 -5.19491 1.26621 0
M  V30 96 H 10.2655 -4.16181 -0.099578 0
M  V30 97 H 10.7985 -3.67309 1.52738 0
M  V30 98 H 7.5375 -5.03426 4.19812 0
M  V30 99 H 7.0575 -5.43668 2.53348 0
M  V30 100 H 8.7365 -5.69623 3.0682 0
M  V30 101 N 8.8686 -0.792821 -1.36206 0
M  V30 102 C 10.2846 -0.474903 -1.52371 0
M  V30 103 C 10.4846 1.00622 -1.74578 0
M  V30 104 O 9.5406 1.79162 -1.77924 0
M  V30 105 C 10.8536 -1.3083 -2.70747 0
M  V30 106 C 12.4016 -1.30234 -2.84619 0
M  V30 107 C 12.8766 -2.11956 -4.06004 0
M  V30 108 N 14.3676 -2.09419 -4.13156 0
M  V30 109 C 15.1026 -2.69419 -5.06163 0
M  V30 110 N 14.5986 -3.3829 -6.04592 0
M  V30 111 N 16.3916 -2.59134 -4.98804 0
M  V30 112 H 8.5426 -1.75222 -1.20046 0
M  V30 113 H 10.8056 -0.745024 -0.586211 0
M  V30 114 H 10.5116 -2.35881 -2.6087 0
M  V30 115 H 10.3856 -0.95196 -3.6499 0
M  V30 116 H 12.7726 -0.259748 -2.93955 0
M  V30 117 H 12.8536 -1.69847 -1.91274 0
M  V30 118 H 12.4976 -3.16248 -3.97429 0
M  V30 119 H 12.4276 -1.69711 -4.98503 0
M  V30 120 H 14.9186 -1.59297 -3.42685 0
M  V30 121 H 15.2316 -3.81394 -6.7213 0
M  V30 122 H 13.5766 -3.42393 -6.04807 0
M  V30 123 H 16.7676 -2.04927 -4.20859 0
M  V30 124 H 16.9406 -3.06185 -5.711 0
M  V30 125 N 10.3467 1.47872 -0.545128 0
M  V30 126 C 11.2937 2.29849 0.2093 0
M  V30 127 C 12.2637 1.38313 0.919707 0
M  V30 128 O 13.4487 1.67277 0.917772 0
M  V30 129 C 10.5887 3.22019 1.24088 0
M  V30 130 C 9.7017 4.2864 0.537778 0
M  V30 131 C 8.8367 5.07973 1.5536 0
M  V30 132 C 7.8757 6.06381 0.8348 0
M  V30 133 N 7.0127 6.78717 1.79688 0
M  V30 134 H 11.8527 2.93845 -0.49591 0
M  V30 135 H 9.3897 1.44848 -0.256389 0
M  V30 136 H 11.3477 3.73868 1.85144 0
M  V30 137 H 9.9777 2.59914 1.91428 0
M  V30 138 H 9.0297 3.7994 -0.187046 0
M  V30 139 H 10.3417 4.98793 -0.0258907 0
M  V30 140 H 9.4957 5.63912 2.23803 0
M  V30 141 H 8.2347 4.37693 2.15118 0
M  V30 142 H 7.2397 5.49631 0.136388 0
M  V30 143 H 8.4647 6.78665 0.24313 0
M  V30 144 H 6.4107 6.11177 2.38326 0
M  V30 145 H 6.3277 7.44998 1.28505 0
M  V30 146 H 7.5957 7.39237 2.47282 0
M  V30 147 N 11.8248 0.280983 1.55075 0
M  V30 148 C 12.7728 -0.619864 2.24188 0
M  V30 149 C 13.7668 -1.15315 1.24092 0
M  V30 150 O 14.9728 -1.1061 1.42005 0
M  V30 151 H 11.3478 -0.218459 0.719569 0
M  V30 152 H 13.3188 -0.0141831 2.98397 0
M  V30 153 C 12.0678 -1.7899 2.98091 0
M  V30 154 H 11.3908 -1.38874 3.74905 0
M  V30 155 H 12.8308 -2.39672 3.49762 0
M  V30 156 C 11.2898 -2.68192 2.03899 0
M  V30 157 O 11.8198 -3.6872 1.594 0
M  V30 158 N 10.0258 -2.35488 1.70275 0
M  V30 159 H 9.5728 -1.53787 2.06658 0
M  V30 160 H 9.5308 -2.95442 1.07524 0
M  V30 161 N 13.3029 -1.57598 0.00835791 0
M  V30 162 C 14.5329 -1.94931 -0.684496 0
M  V30 163 C 14.9409 -0.882233 -1.67372 0
M  V30 164 O 14.2839 0.146621 -1.83114 0
M  V30 165 C 14.3459 -3.283 -1.4649 0
M  V30 166 C 14.0099 -4.52548 -0.63634 0
M  V30 167 C 15.0069 -5.19839 0.0795586 0
M  V30 168 C 12.6919 -4.98942 -0.579849 0
M  V30 169 C 14.6859 -6.3183 0.840843 0
M  V30 170 C 12.3729 -6.10819 0.185155 0
M  V30 171 C 13.3709 -6.77121 0.894227 0
M  V30 172 O 13.0589 -7.86853 1.64673 0
M  V30 173 H 12.7909 -0.647249 -0.19505 0
M  V30 174 H 15.3449 -2.05318 0.0581272 0
M  V30 175 H 13.5749 -3.14345 -2.2522 0
M  V30 176 H 15.2639 -3.50685 -2.04389 0
M  V30 177 H 16.0299 -4.84979 0.0451202 0
M  V30 178 H 11.9089 -4.47155 -1.1213 0
M  V30 179 H 15.4529 -6.83513 1.39483 0
M  V30 180 H 11.3499 -6.4512 0.221384 0
M  V30 181 H 12.1179 -8.03412 1.56432 0
M  V30 182 N 14.781 0.264519 -1.55364 0
M  V30 183 C 15.713 1.34965 -1.85248 0
M  V30 184 C 16.726 1.45136 -0.737525 0
M  V30 185 O 17.915 1.46801 -1.01547 0
M  V30 186 C 15.015 2.73008 -2.00797 0
M  V30 187 C 14.188 2.85324 -3.31525 0
M  V30 188 C 13.247 4.04097 -3.37034 0
M  V30 189 O 12.273 3.94455 -4.10358 0
M  V30 190 N 13.475 5.16458 -2.65049 0
M  V30 191 H 16.24 1.09672 -2.78913 0
M  V30 192 H 13.801 0.454635 -1.55386 0
M  V30 193 H 15.793 3.50772 -2.01844 0
M  V30 194 H 14.363 2.91087 -1.1396 0
M  V30 195 H 13.583 1.94377 -3.42945 0
M  V30 196 H 14.871 2.9049 -4.17724 0
M  V30 197 H 14.269 5.27181 -2.05175 0
M  V30 198 H 12.826 5.92422 -2.71809 0
M  V30 199 N 16.2591 1.48442 0.529413 0
M  V30 200 C 17.2091 1.59407 1.63014 0
M  V30 201 C 18.1931 0.451166 1.54445 0
M  V30 202 O 19.3851 0.702635 1.62456 0
M  V30 203 C 16.5141 1.63746 3.01732 0
M  V30 204 C 15.6001 2.83518 3.15402 0
M  V30 205 N 15.9911 4.07929 2.99045 0
M  V30 206 C 14.2891 2.80862 3.46457 0
M  V30 207 C 14.9901 4.8829 3.16146 0
M  V30 208 N 13.9661 4.21117 3.43746 0
M  V30 209 H 17.7681 2.53343 1.48978 0
M  V30 210 H 15.2821 1.44821 0.734885 0
M  V30 211 H 17.2791 1.69695 3.80801 0
M  V30 212 H 15.9391 0.709264 3.16859 0
M  V30 213 H 16.9501 4.38357 2.75796 0
M  V30 214 H 13.6271 1.97301 3.67938 0
M  V30 215 H 15.0171 5.97028 3.08232 0
M  V30 216 N 17.7372 -0.778329 1.37039 0
M  V30 217 C 18.6672 -1.90546 1.34962 0
M  V30 218 C 19.6482 -1.68681 0.219274 0
M  V30 219 O 20.8332 -1.89634 0.418624 0
M  V30 220 C 17.9632 -3.27734 1.14925 0
M  V30 221 C 16.9172 -3.64147 2.24902 0
M  V30 222 C 16.2432 -4.99806 1.89996 0
M  V30 223 C 17.5432 -3.71579 3.67051 0
M  V30 224 H 19.2372 -1.92541 2.29277 0
M  V30 225 H 16.7832 -0.924948 1.10366 0
M  V30 226 H 18.7362 -4.06215 1.12104 0
M  V30 227 H 17.4602 -3.26154 0.170631 0
M  V30 228 H 16.1192 -2.8797 2.26868 0
M  V30 229 H 15.7672 -4.94759 0.906796 0
M  V30 230 H 15.4672 -5.25139 2.63634 0
M  V30 231 H 16.9912 -5.80694 1.88749 0
M  V30 232 H 18.4052 -4.40227 3.67251 0
M  V30 233 H 16.8022 -4.08405 4.39688 0
M  V30 234 H 17.8722 -2.72404 4.01154 0
M  V30 235 N 19.2153 -1.21501 -1.00376 0
M  V30 236 C 20.4613 -1.04457 -1.74529 0
M  V30 237 C 20.8163 0.417386 -1.87818 0
M  V30 238 O 20.1093 1.30556 -1.40234 0
M  V30 239 C 20.3033 -1.67673 -3.15627 0
M  V30 240 C 20.1323 -3.19865 -3.16096 0
M  V30 241 C 18.9023 -3.88915 -3.22604 0
M  V30 242 C 21.1003 -4.16936 -3.01112 0
M  V30 243 N 19.0823 -5.28284 -3.12712 0
M  V30 244 C 20.4533 -5.43066 -2.99131 0
M  V30 245 C 22.5083 -4.07968 -2.85423 0
M  V30 246 C 21.2113 -6.6126 -2.83068 0
M  V30 247 C 23.2373 -5.258 -2.70718 0
M  V30 248 C 22.5993 -6.50842 -2.69414 0
M  V30 249 H 18.6983 -0.436584 -0.648782 0
M  V30 250 H 21.2823 -1.53875 -1.19293 0
M  V30 251 H 19.4533 -1.20822 -3.6913 0
M  V30 252 H 21.1853 -1.43824 -3.78281 0
M  V30 253 H 17.9403 -3.39847 -3.2985 0
M  V30 254 H 18.3643 -6.01284 -3.11105 0
M  V30 255 H 23.0063 -3.1209 -2.85236 0
M  V30 256 H 20.7243 -7.57298 -2.82002 0
M  V30 257 H 24.3103 -5.20683 -2.59577 0
M  V30 258 H 23.1903 -7.40485 -2.5817 0
M  V30 259 N 20.6934 1.19889 -1.02296 0
M  V30 260 C 21.6404 2.22901 -0.598651 0
M  V30 261 C 22.6104 1.61588 0.384521 0
M  V30 262 O 23.7954 1.88697 0.282522 0
M  V30 263 C 20.9354 3.45063 0.0504476 0
M  V30 264 C 20.0484 4.20783 -0.978053 0
M  V30 265 C 19.1834 5.30356 -0.299338 0
M  V30 266 C 18.2224 5.97826 -1.31416 0
M  V30 267 N 17.3594 6.98975 -0.661667 0
M  V30 268 H 22.1994 2.58554 -1.48169 0
M  V30 269 H 19.7364 1.27039 -0.741584 0
M  V30 270 H 21.6944 4.14831 0.443971 0
M  V30 271 H 20.3244 3.10084 0.897097 0
M  V30 272 H 19.3764 3.50018 -1.48969 0
M  V30 273 H 20.6884 4.67109 -1.74958 0
M  V30 274 H 19.8424 6.06516 0.149347 0
M  V30 275 H 18.5814 4.85084 0.504445 0
M  V30 276 H 17.5864 5.20422 -1.77317 0
M  V30 277 H 18.8114 6.45183 -2.11933 0
M  V30 278 H 16.7574 6.55886 0.122132 0
M  V30 279 H 16.6744 7.43461 -1.37117 0
M  V30 280 H 17.9424 7.7914 -0.236785 0
M  V30 281 N 22.1715 0.800033 1.35784 0
M  V30 282 C 23.4195 0.376597 1.9856 0
M  V30 283 C 23.7405 -1.05812 1.63795 0
M  V30 284 O 23.0105 -1.73103 0.917171 0
M  V30 285 H 21.5905 0.136261 0.734467 0
M  V30 286 H 24.2525 1.02442 1.65806 0
M  V30 287 H 23.3485 0.477002 3.08433 0
M  V30 288 N 23.6496 -1.47581 0.552962 0
M  V30 289 C 24.8976 -2.02082 0.0272703 0
M  V30 290 C 25.2186 -1.4301 -1.32563 0
M  V30 291 O 24.4886 -0.603745 -1.86365 0
M  V30 292 H 23.0686 -0.746966 0.00709182 0
M  V30 293 H 25.7306 -1.81033 0.722008 0
M  V30 294 H 24.8266 -3.12034 -0.0639951 0
M  V30 295 N 25.1277 -0.289203 -1.54924 0
M  V30 296 C 26.3557 0.326463 -2.04308 0
M  V30 297 C 26.7707 1.48413 -1.16701 0
M  V30 298 O 26.1277 1.81507 -0.190087 0
M  V30 299 C 26.1787 0.794014 -3.52672 0
M  V30 300 O 25.8997 -0.317564 -4.36948 0
M  V30 301 C 27.4007 1.47605 -4.18004 0
M  V30 302 H 24.6207 0.0726272 -0.667058 0
M  V30 303 H 27.1647 -0.425401 -2.00026 0
M  V30 304 H 25.3197 1.49593 -3.57352 0
M  V30 305 H 25.7337 0.0443186 -5.24481 0
M  V30 306 H 27.2077 1.75447 -5.23376 0
M  V30 307 H 27.6847 2.41224 -3.67025 0
M  V30 308 H 28.2907 0.81762 -4.17367 0
M  V30 309 N 26.6058 1.57591 -0.0167156 0
M  V30 310 C 27.5358 2.12496 0.967858 0
M  V30 311 C 28.5168 1.03807 1.34752 0
M  V30 312 O 29.7018 1.31577 1.42833 0
M  V30 313 C 26.8318 2.64194 2.25431 0
M  V30 314 C 25.7858 3.77559 2.01576 0
M  V30 315 C 25.1118 4.15636 3.36379 0
M  V30 316 C 26.4118 5.04151 1.36489 0
M  V30 317 H 28.1058 2.95013 0.510643 0
M  V30 318 H 25.6518 1.41915 0.244181 0
M  V30 319 H 27.6048 3.01236 2.94678 0
M  V30 320 H 26.3288 1.78821 2.73296 0
M  V30 321 H 24.9878 3.40937 1.34751 0
M  V30 322 H 24.6358 3.27263 3.81979 0
M  V30 323 H 24.3358 4.92022 3.21229 0
M  V30 324 H 25.8598 4.5525 4.06915 0
M  V30 325 H 27.2738 5.38857 1.95718 0
M  V30 326 H 25.6708 5.85453 1.31776 0
M  V30 327 H 26.7408 4.83733 0.336219 0
M  V30 328 N 28.0839 -0.256276 1.55502 0
M  V30 329 C 29.0139 -1.32102 1.92539 0
M  V30 330 C 29.9949 -1.50684 0.789194 0
M  V30 331 O 31.1799 -1.63449 1.04872 0
M  V30 332 C 28.3099 -2.67752 2.21192 0
M  V30 333 C 27.2639 -2.63878 3.36975 0
M  V30 334 C 26.5899 -4.03236 3.51147 0
M  V30 335 C 27.8899 -2.21682 4.72921 0
M  V30 336 H 29.5839 -1.01351 2.81724 0
M  V30 337 H 27.1299 -0.486105 1.35547 0
M  V30 338 H 29.0829 -3.42365 2.45691 0
M  V30 339 H 27.8069 -3.0012 1.28824 0
M  V30 340 H 26.4659 -1.91722 3.12471 0
M  V30 341 H 26.1139 -4.32854 2.56216 0
M  V30 342 H 25.8139 -4.01535 4.29003 0
M  V30 343 H 27.3379 -4.79563 3.77957 0
M  V30 344 H 28.7519 -2.86023 4.96854 0
M  V30 345 H 27.1489 -2.3111 5.53812 0
M  V30 346 H 28.2189 -1.16833 4.70615 0
M  V30 347 N 29.562 -1.4872 -0.521534 0
M  V30 348 C 30.492 -1.66771 -1.63431 0
M  V30 349 C 31.473 -0.516499 -1.62069 0
M  V30 350 O 32.658 -0.750013 -1.79132 0
M  V30 351 C 29.788 -1.71515 -3.01993 0
M  V30 352 C 28.742 -2.86222 -3.18216 0
M  V30 353 C 28.068 -2.76061 -4.57924 0
M  V30 354 C 29.368 -4.27419 -3.00184 0
M  V30 355 H 31.062 -2.59932 -1.48579 0
M  V30 356 H 28.608 -1.25089 -0.713358 0
M  V30 357 H 30.561 -1.82731 -3.7972 0
M  V30 358 H 29.285 -0.749393 -3.17886 0
M  V30 359 H 27.944 -2.74575 -2.42908 0
M  V30 360 H 27.592 -1.77437 -4.70665 0
M  V30 361 H 27.292 -3.53037 -4.69722 0
M  V30 362 H 28.816 -2.89256 -5.37739 0
M  V30 363 H 30.23 -4.39855 -3.67697 0
M  V30 364 H 28.627 -5.05458 -3.2347 0
M  V30 365 H 29.697 -4.43293 -1.96518 0
M  V30 366 N 31.0401 0.771051 -1.3745 0
M  V30 367 C 32.2881 1.52661 -1.32435 0
M  V30 368 C 32.6091 1.9479 0.0905024 0
M  V30 369 O 31.8791 1.66348 1.03466 0
M  V30 370 H 30.4591 0.566218 -0.487244 0
M  V30 371 H 33.1211 0.917636 -1.71946 0
M  V30 372 H 32.2171 2.42568 -1.96385 0
M  V30 373 N 32.5182 1.22032 0.997298 0
M  V30 374 C 33.4512 0.929735 2.08401 0
M  V30 375 C 34.4292 -0.125681 1.62114 0
M  V30 376 O 35.6132 0.00495409 1.88499 0
M  V30 377 C 32.7402 0.397488 3.3636 0
M  V30 378 C 31.7862 1.4369 4.01566 0
M  V30 379 S 32.6192 3.00874 4.42984 0
M  V30 380 C 33.7752 2.49276 5.74119 0
M  V30 381 H 34.0082 1.84998 2.32729 0
M  V30 382 H 31.5412 1.0509 1.13117 0
M  V30 383 H 33.4992 0.0969846 4.10385 0
M  V30 384 H 32.1602 -0.501571 3.10069 0
M  V30 385 H 31.3532 1.01427 4.93689 0
M  V30 386 H 30.9552 1.68588 3.33847 0
M  V30 387 H 33.2472 1.90242 6.50242 0
M  V30 388 H 34.1902 3.39872 6.21203 0
M  V30 389 H 34.5982 1.90714 5.31308 0
M  V30 390 N 33.9963 -1.19345 1.0293 0
M  V30 391 C 34.9263 -2.2481 0.631105 0
M  V30 392 C 35.9073 -1.66245 -0.360104 0
M  V30 393 O 37.0923 -1.92677 -0.242726 0
M  V30 394 C 34.2223 -3.47295 -0.0184607 0
M  V30 395 C 33.1763 -4.18536 0.895073 0
M  V30 396 C 32.5023 -5.34586 0.110592 0
M  V30 397 C 33.8023 -4.73287 2.209 0
M  V30 398 H 35.4963 -2.58372 1.51275 0
M  V30 399 H 33.0423 -1.24194 0.728818 0
M  V30 400 H 34.9953 -4.20268 -0.308675 0
M  V30 401 H 33.7193 -3.12933 -0.934907 0
M  V30 402 H 32.3783 -3.47446 1.16949 0
M  V30 403 H 32.0263 -4.96469 -0.807902 0
M  V30 404 H 31.7263 -5.83183 0.719087 0
M  V30 405 H 33.2503 -6.10355 -0.172871 0
M  V30 406 H 34.6643 -5.38013 1.98028 0
M  V30 407 H 33.0613 -5.32373 2.76946 0
M  V30 408 H 34.1313 -3.91331 2.86336 0
M  V30 409 N 35.4744 -0.807222 -1.35358 0
M  V30 410 C 36.4074 -0.163572 -2.27613 0
M  V30 411 C 37.3854 0.670817 -1.48118 0
M  V30 412 O 38.5694 0.63796 -1.77376 0
M  V30 413 C 35.6964 0.773015 -3.29761 0
M  V30 414 C 34.7424 0.0181653 -4.26496 0
M  V30 415 S 35.5754 -1.31831 -5.19019 0
M  V30 416 C 36.7314 -0.38619 -6.24707 0
M  V30 417 H 36.9644 -0.945757 -2.81856 0
M  V30 418 H 34.4974 -0.602315 -1.42167 0
M  V30 419 H 36.4554 1.30788 -3.89108 0
M  V30 420 H 35.1164 1.52859 -2.74396 0
M  V30 421 H 34.3094 0.729534 -4.98692 0
M  V30 422 H 33.9114 -0.446761 -3.71322 0
M  V30 423 H 36.2034 0.428295 -6.76145 0
M  V30 424 H 37.1464 -1.07736 -6.99856 0
M  V30 425 H 37.5544 0.018398 -5.64497 0
M  V30 426 N 36.9525 1.47285 -0.560781 0
M  V30 427 C 38.2015 2.01668 -0.035895 0
M  V30 428 C 38.5145 1.44021 1.32353 0
M  V30 429 O 39.7205 1.90088 1.93853 0
M  V30 430 C 38.1765 3.59897 -0.0136659 0
M  V30 431 C 37.7845 4.26536 -1.37006 0
M  V30 432 C 39.5285 4.22017 0.458425 0
M  V30 433 C 37.4355 5.76782 -1.30675 0
M  V30 434 H 36.3655 0.753938 -0.00964879 0
M  V30 435 H 39.0165 1.69243 -0.709166 0
M  V30 436 H 37.3985 3.89301 0.725325 0
M  V30 437 H 38.5725 4.0877 -2.12705 0
M  V30 438 H 36.8875 3.76419 -1.78038 0
M  V30 439 H 39.4845 5.32124 0.524247 0
M  V30 440 H 39.8275 3.89437 1.4712 0
M  V30 441 H 40.3605 3.97159 -0.225818 0
M  V30 442 H 37.0995 6.13988 -2.29564 0
M  V30 443 H 36.6195 5.96875 -0.591622 0
M  V30 444 H 38.2985 6.39063 -1.01033 0
M  V30 445 N 38.4306 0.297415 1.54768 0
M  V30 446 C 39.6706 -0.313829 2.01976 0
M  V30 447 C 40.0346 -1.51366 1.1812 0
M  V30 448 O 41.2356 -2.19603 1.5501 0
M  V30 449 C 39.5066 -0.664964 3.51159 0
M  V30 450 S 41.0656 -1.25958 4.20333 0
M  V30 451 H 37.8836 -0.0965014 0.704421 0
M  V30 452 H 40.4856 0.424451 1.90837 0
M  V30 453 H 39.1896 0.21681 4.09827 0
M  V30 454 H 38.7206 -1.43413 3.66328 0
M  V30 455 H 40.7356 -2.54751 4.25813 0
M  V30 456 N 39.9087 -1.5758 0.0250728 0
M  V30 457 C 41.1337 -1.96337 -0.668317 0
M  V30 458 C 41.5587 -0.901314 -1.651 0
M  V30 459 O 40.9167 0.138187 -1.80773 0
M  V30 460 C 40.9647 -3.34191 -1.35457 0
M  V30 461 O 40.0687 -3.30269 -2.46974 0
M  V30 462 H 39.4097 -0.640281 -0.175887 0
M  V30 463 H 41.9397 -2.0442 0.0857224 0
M  V30 464 H 41.9497 -3.70331 -1.71228 0
M  V30 465 H 40.6247 -4.11036 -0.634218 0
M  V30 466 H 39.2017 -3.05841 -2.13344 0
M  V30 467 N 41.3868 0.248026 -1.55636 0
M  V30 468 C 42.3498 1.29044 -1.89421 0
M  V30 469 C 43.3498 1.41134 -0.770581 0
M  V30 470 O 44.5398 1.39854 -1.03858 0
M  V30 471 C 41.6718 2.66831 -2.12165 0
M  V30 472 H 42.8648 1.00305 -2.82629 0
M  V30 473 H 40.4178 0.487265 -1.48511 0
M  V30 474 H 41.1528 3.00711 -1.21422 0
M  V30 475 H 40.9378 2.59438 -2.93997 0
M  V30 476 H 42.4278 3.42103 -2.3949 0
M  V30 477 N 42.8649 1.48995 0.513639 0
M  V30 478 C 43.8279 1.64229 1.59879 0
M  V30 479 C 44.8279 0.514696 1.5234 0
M  V30 480 O 46.0179 0.78087 1.55718 0
M  V30 481 C 43.1499 1.62783 2.99524 0
M  V30 482 H 44.3429 2.61004 1.47705 0
M  V30 483 H 41.8959 1.37837 0.736936 0
M  V30 484 H 42.6309 0.675461 3.17188 0
M  V30 485 H 42.4159 2.4466 3.06404 0
M  V30 486 H 43.9059 1.76669 3.78388 0
M  V30 487 N 44.343 -0.763751 1.37857 0
M  V30 488 C 45.253 -1.90817 1.36478 0
M  V30 489 C 46.269 -1.71997 0.263248 0
M  V30 490 O 47.445 -1.95095 0.499979 0
M  V30 491 C 44.51 -3.2605 1.17864 0
M  V30 492 C 43.571 -3.57467 2.3773 0
M  V30 493 C 42.804 -4.86249 2.19995 0
M  V30 494 O 43.027 -5.57884 1.18836 0
M  V30 495 O 41.961 -5.16911 3.08361 0
M  V30 496 H 45.787 -1.94933 2.32884 0
M  V30 497 H 43.372 -0.907619 1.1867 0
M  V30 498 H 45.254 -4.06924 1.09504 0
M  V30 499 H 43.929 -3.22769 0.245372 0
M  V30 500 H 42.836 -2.76796 2.51664 0
M  V30 501 H 44.169 -3.655 3.29652 0
M  V30 502 N 45.8211 -1.22559 -0.990812 0
M  V30 503 C 46.7531 -0.955325 -2.08342 0
M  V30 504 C 47.7661 0.0668408 -1.62663 0
M  V30 505 O 48.9551 -0.167421 -1.77713 0
M  V30 506 C 46.0551 -0.415566 -3.36342 0
M  V30 507 C 45.2281 -1.49544 -4.11042 0
M  V30 508 C 44.2871 -0.962399 -5.17324 0
M  V30 509 O 43.3131 -1.64907 -5.44788 0
M  V30 510 N 44.5151 0.215134 -5.80101 0
M  V30 511 H 47.2801 -1.89596 -2.32106 0
M  V30 512 H 44.8411 -1.13276 -1.15673 0
M  V30 513 H 46.8331 -0.0442386 -4.04676 0
M  V30 514 H 45.4031 0.430232 -3.09625 0
M  V30 515 H 44.6231 -2.04 -3.37309 0
M  V30 516 H 45.9111 -2.22195 -4.57719 0
M  V30 517 H 45.3091 0.789779 -5.6016 0
M  V30 518 H 43.8661 0.527826 -6.49659 0
M  V30 519 N 47.2992 1.18797 -1.03562 0
M  V30 520 C 48.2292 2.24472 -0.643019 0
M  V30 521 C 49.2102 1.66433 0.351283 0
M  V30 522 O 50.3952 1.92803 0.232505 0
M  V30 523 C 47.5252 3.473 4.24935e-05 0
M  V30 524 C 46.4792 4.18055 -0.917257 0
M  V30 525 C 45.8052 5.34519 -0.138941 0
M  V30 526 C 47.1052 4.72109 -2.23407 0
M  V30 527 H 48.7992 2.57566 -1.52643 0
M  V30 528 H 46.3452 1.23806 -0.735394 0
M  V30 529 H 48.2982 4.20426 0.286383 0
M  V30 530 H 47.0222 3.13424 0.918299 0
M  V30 531 H 45.6812 3.46821 -1.1879 0
M  V30 532 H 45.3292 4.96891 0.781562 0
M  V30 533 H 45.0292 5.82794 -0.750005 0
M  V30 534 H 46.5532 6.10438 0.1405 0
M  V30 535 H 47.9672 5.36955 -2.00879 0
M  V30 536 H 46.3642 5.30897 -2.79765 0
M  V30 537 H 47.4342 3.89807 -2.88407 0
M  V30 538 N 48.7773 0.814389 1.34928 0
M  V30 539 C 50.0233 0.408167 1.99263 0
M  V30 540 C 50.3783 -1.0154 1.63424 0
M  V30 541 O 49.6713 -1.69607 0.891289 0
M  V30 542 C 49.8653 0.537781 3.53331 0
M  V30 543 C 49.6943 1.9724 4.04137 0
M  V30 544 C 48.4643 2.60245 4.33129 0
M  V30 545 C 50.6623 2.93801 4.2212 0
M  V30 546 N 48.6443 3.95036 4.69914 0
M  V30 547 C 50.0153 4.1348 4.6199 0
M  V30 548 C 52.0703 2.9053 4.04348 0
M  V30 549 C 50.7733 5.3033 4.85945 0
M  V30 550 C 52.7993 4.06589 4.29464 0
M  V30 551 C 52.1613 5.25017 4.69613 0
M  V30 552 H 48.2603 0.197289 0.756704 0
M  V30 553 H 50.8443 1.05728 1.63492 0
M  V30 554 H 49.0153 -0.0813868 3.88315 0
M  V30 555 H 50.7473 0.105389 4.04563 0
M  V30 556 H 47.5023 2.11545 4.23728 0
M  V30 557 H 47.9263 4.64455 4.92555 0
M  V30 558 H 52.5683 2.00115 3.72443 0
M  V30 559 H 50.2863 6.21309 5.16721 0
M  V30 560 H 53.8723 4.05447 4.17257 0
M  V30 561 H 52.7523 6.1333 4.88667 0
M  V30 562 N 50.2554 -1.46986 0.568584 0
M  V30 563 C 51.5014 -2.02741 0.0488709 0
M  V30 564 C 51.8344 -1.44077 -1.30214 0
M  V30 565 O 51.1094 -0.600552 -1.84996 0
M  V30 566 C 51.3924 -3.60086 -0.032047 0
M  V30 567 C 51.2454 -4.29162 1.34686 0
M  V30 568 C 52.5644 -4.33838 -0.739798 0
M  V30 569 H 49.6834 -0.736749 0.0192338 0
M  V30 570 H 52.3254 -1.75289 0.733065 0
M  V30 571 H 50.4754 -3.83606 -0.61473 0
M  V30 572 H 52.1474 -4.16948 1.97362 0
M  V30 573 H 50.3904 -3.89073 1.91846 0
M  V30 574 H 51.0614 -5.37826 1.24285 0
M  V30 575 H 53.5374 -4.15378 -0.244939 0
M  V30 576 H 52.4134 -5.43537 -0.765406 0
M  V30 577 H 52.6744 -4.03875 -1.79827 0
M  V30 578 N 51.7335 -0.305618 -1.54608 0
M  V30 579 C 52.9615 0.304775 -2.04643 0
M  V30 580 C 53.3765 1.47167 -1.18268 0
M  V30 581 O 52.7335 1.81296 -0.209328 0
M  V30 582 C 52.7845 0.756564 -3.53495 0
M  V30 583 O 52.5055 -0.36389 -4.36586 0
M  V30 584 C 54.0065 1.43163 -4.19546 0
M  V30 585 H 51.2265 0.0655481 -0.667791 0
M  V30 586 H 53.7705 -0.446592 -1.99564 0
M  V30 587 H 51.9255 1.45794 -3.58919 0
M  V30 588 H 52.3395 -0.0113121 -5.24499 0
M  V30 589 H 53.8135 1.69886 -5.25207 0
M  V30 590 H 54.2905 2.37318 -3.69563 0
M  V30 591 H 54.8965 0.773307 -4.18211 0
M  V30 592 N 53.2116 1.57565 -0.0334293 0
M  V30 593 C 54.4576 1.92262 0.645226 0
M  V30 594 C 54.7906 0.910543 1.71531 0
M  V30 595 O 54.0656 -0.066099 1.94388 0
M  V30 596 C 54.3486 3.37422 1.2577 0
M  V30 597 C 54.2016 4.49369 0.196891 0
M  V30 598 C 55.5206 3.82628 2.17449 0
M  V30 599 H 52.6396 0.699171 0.233085 0
M  V30 600 H 55.2816 1.89779 -0.0915694 0
M  V30 601 H 53.4316 3.39669 1.88566 0
M  V30 602 H 55.1036 4.59254 -0.433962 0
M  V30 603 H 53.3466 4.31168 -0.477137 0
M  V30 604 H 54.0176 5.47978 0.665124 0
M  V30 605 H 56.4936 3.82145 1.64634 0
M  V30 606 H 55.3696 4.84883 2.57254 0
M  V30 607 H 55.6306 3.18376 3.0674 0
M  V30 608 N 54.6897 -0.239769 1.55765 0
M  V30 609 C 55.9197 -0.982743 1.8173 0
M  V30 610 C 56.3277 -1.7917 0.607835 0
M  V30 611 O 55.6707 -1.78525 -0.432973 0
M  V30 612 C 55.7327 -1.96332 3.01155 0
M  V30 613 C 55.3967 -1.34062 4.36894 0
M  V30 614 C 56.3937 -0.739539 5.14613 0
M  V30 615 C 54.0787 -1.35784 4.83599 0
M  V30 616 C 56.0727 -0.163989 6.37189 0
M  V30 617 C 53.7597 -0.778441 6.06122 0
M  V30 618 C 54.7577 -0.182548 6.82756 0
M  V30 619 O 54.4457 0.387887 8.02964 0
M  V30 620 H 54.1777 -0.294481 0.608487 0
M  V30 621 H 56.7317 -0.26572 2.03674 0
M  V30 622 H 54.9617 -2.71884 2.74984 0
M  V30 623 H 56.6507 -2.57032 3.14149 0
M  V30 624 H 57.4167 -0.718687 4.79646 0
M  V30 625 H 53.2957 -1.81105 4.23936 0
M  V30 626 H 56.8397 0.301753 6.96947 0
M  V30 627 H 52.7367 -0.796645 6.40565 0
M  V30 628 H 53.5047 0.28044 8.18019 0
M  V30 629 N 56.1678 -1.49265 -0.50573 0
M  V30 630 C 57.3978 -1.61979 -1.28243 0
M  V30 631 C 57.8058 -0.288576 -1.86986 0
M  V30 632 O 57.1488 0.735408 -1.68337 0
M  V30 633 C 57.2108 -2.62632 -2.45489 0
M  V30 634 C 56.8748 -4.071 -2.07651 0
M  V30 635 C 57.8718 -4.94049 -1.61901 0
M  V30 636 C 55.5568 -4.52801 -2.17431 0
M  V30 637 C 57.5508 -6.24736 -1.26428 0
M  V30 638 C 55.2378 -5.83503 -1.8157 0
M  V30 639 C 56.2358 -6.69294 -1.36142 0
M  V30 640 O 55.9238 -7.9756 -1.00764 0
M  V30 641 H 55.6558 -0.54834 -0.395347 0
M  V30 642 H 58.2098 -1.96002 -0.614204 0
M  V30 643 H 56.4398 -2.2378 -3.15372 0
M  V30 644 H 58.1288 -2.64925 -3.07522 0
M  V30 645 H 58.8948 -4.5997 -1.53795 0
M  V30 646 H 54.7738 -3.86196 -2.51742 0
M  V30 647 H 58.3178 -6.91652 -0.908992 0
M  V30 648 H 54.2148 -6.17112 -1.89324 0
M  V30 649 H 54.9828 -8.10529 -1.13952 0
M  V30 650 N 57.6459 0.756429 -1.3826 0
M  V30 651 C 58.8939 1.51248 -1.34047 0
M  V30 652 C 59.2149 1.94875 0.0698372 0
M  V30 653 O 58.4849 1.67436 1.01696 0
M  V30 654 H 57.0649 0.561018 -0.493222 0
M  V30 655 H 59.7269 0.899347 -1.7291 0
M  V30 656 H 58.8229 2.40472 -1.98947 0
M  V30 657 N 59.124 1.23083 0.984299 0
M  V30 658 C 60.37 1.06214 1.72761 0
M  V30 659 C 60.703 -0.400584 1.90024 0
M  V30 660 O 59.978 -1.29672 1.44967 0
M  V30 661 C 60.261 1.78375 3.12817 0
M  V30 662 C 60.114 3.32296 3.03149 0
M  V30 663 C 61.433 1.54309 4.12161 0
M  V30 664 H 58.552 0.387251 0.627061 0
M  V30 665 H 61.194 1.51536 1.14616 0
M  V30 666 H 59.344 1.39848 3.62457 0
M  V30 667 H 61.016 3.8032 2.61064 0
M  V30 668 H 59.259 3.6153 2.39747 0
M  V30 669 H 59.93 3.77972 4.02295 0
M  V30 670 H 62.406 1.87791 3.71314 0
M  V30 671 H 61.282 2.07281 5.08258 0
M  V30 672 H 61.543 0.477572 4.39513 0
M  V30 673 N 60.6021 -1.18246 1.0419 0
M  V30 674 C 62.0131 -1.69914 0.773698 0
M  V30 675 C 62.3641 -1.83085 -0.705297 0
M  V30 676 O 61.4891 -1.51123 -1.5489 0
M  V30 677 C 62.0841 -3.08619 1.39784 0
M  V30 678 C 60.6431 -3.57494 1.17792 0
M  V30 679 C 59.7901 -2.34013 1.48773 0
M  V30 680 H 62.7411 -1.02904 1.20816 0
M  V30 681 H 62.7621 -3.71958 0.801714 0
M  V30 682 H 62.2741 -2.99001 2.47426 0
M  V30 683 H 60.3751 -3.72406 0.120295 0
M  V30 684 H 60.4881 -4.40852 1.87581 0
M  V30 685 H 58.8521 -2.37986 0.907463 0
M  V30 686 H 59.6351 -2.27013 2.57527 0
M  V30 687 N 62.0802 -0.821533 -1.34494 0
M  V30 688 C 63.3262 -0.409552 -1.98622 0
M  V30 689 C 63.6592 1.0244 -1.64984 0
M  V30 690 O 62.9342 1.71325 -0.920758 0
M  V30 691 C 63.2172 -0.610458 -3.54888 0
M  V30 692 C 63.0702 -2.09043 -3.98273 0
M  V30 693 C 64.3892 -0.0455379 -4.40076 0
M  V30 694 H 61.5082 -0.15028 -0.721516 0
M  V30 695 H 64.1502 -1.03384 -1.59411 0
M  V30 696 H 62.3002 -0.079044 -3.8842 0
M  V30 697 H 63.9722 -2.68537 -3.75081 0
M  V30 698 H 62.2152 -2.58139 -3.48635 0
M  V30 699 H 62.8862 -2.18182 -5.07051 0
M  V30 700 H 65.3622 -0.499557 -4.1309 0
M  V30 701 H 64.2382 -0.215922 -5.48475 0
M  V30 702 H 64.4992 1.04939 -4.29465 0
M  V30 703 N 63.5583 1.46682 -0.576371 0
M  V30 704 C 64.8043 2.03287 -0.0679305 0
M  V30 705 C 65.1593 1.44063 1.27529 0
M  V30 706 O 64.4523 0.593973 1.82161 0
M  V30 707 C 64.6463 3.57345 0.062886 0
M  V30 708 C 64.4753 4.31509 -1.26611 0
M  V30 709 C 63.2453 4.70664 -1.83856 0
M  V30 710 C 65.4433 4.65444 -2.18783 0
M  V30 711 N 63.4253 5.29552 -3.10561 0
M  V30 712 C 64.7963 5.24835 -3.30072 0
M  V30 713 C 66.8513 4.47375 -2.18542 0
M  V30 714 C 65.5543 5.68063 -4.41244 0
M  V30 715 C 67.5803 4.91614 -3.28739 0
M  V30 716 C 66.9423 5.51071 -4.38748 0
M  V30 717 H 63.0413 0.779083 -0.0674836 0
M  V30 718 H 65.6253 1.78918 -0.767877 0
M  V30 719 H 63.7963 3.8144 0.731988 0
M  V30 720 H 65.5283 4.00592 0.575134 0
M  V30 721 H 62.2833 4.53224 -1.37424 0
M  V30 722 H 62.7073 5.63523 -3.75195 0
M  V30 723 H 67.3493 4.00747 -1.34765 0
M  V30 724 H 65.0673 6.13672 -5.25768 0
M  V30 725 H 68.6533 4.79389 -3.29662 0
M  V30 726 H 67.5333 5.84678 -5.22611 0
M  V30 727 N 65.0364 0.313813 1.54444 0
M  V30 728 C 65.9834 -0.55655 2.23989 0
M  V30 729 C 66.9534 -1.11943 1.22711 0
M  V30 730 O 68.1384 -1.16158 1.51367 0
M  V30 731 C 65.2784 -1.71635 2.99392 0
M  V30 732 C 64.3914 -1.18364 4.15468 0
M  V30 733 C 63.5264 -2.30834 4.78424 0
M  V30 734 C 62.5654 -1.74762 5.86622 0
M  V30 735 N 61.7024 -2.80855 6.43479 0
M  V30 736 H 66.5424 0.0430893 2.97969 0
M  V30 737 H 64.0794 0.0330359 1.47063 0
M  V30 738 H 66.0374 -2.39868 3.41349 0
M  V30 739 H 64.6674 -2.28742 2.27765 0
M  V30 740 H 63.7194 -0.393163 3.78363 0
M  V30 741 H 65.0314 -0.733262 4.93381 0
M  V30 742 H 64.1854 -3.0699 5.23299 0
M  V30 743 H 62.9244 -2.79204 3.99871 0
M  V30 744 H 61.9294 -0.970995 5.41158 0
M  V30 745 H 63.1544 -1.2728 6.67066 0
M  V30 746 H 61.1004 -3.28535 5.67804 0
M  V30 747 H 61.0174 -2.40351 7.16776 0
M  V30 748 H 62.2854 -3.5687 6.93011 0
M  V30 749 N 66.5145 -1.57545 0.0417849 0
M  V30 750 C 67.4245 -2.14451 -0.951213 0
M  V30 751 C 68.4405 -1.09992 -1.34825 0
M  V30 752 O 69.6165 -1.42114 -1.42708 0
M  V30 753 C 66.6815 -2.67063 -2.21084 0
M  V30 754 C 65.7425 -3.86284 -1.87304 0
M  V30 755 C 64.9755 -4.36378 -3.07261 0
M  V30 756 O 65.1985 -3.85587 -4.20332 0
M  V30 757 O 64.1325 -5.28077 -2.88822 0
M  V30 758 H 67.9585 -2.99601 -0.497287 0
M  V30 759 H 65.5435 -1.48317 -0.179567 0
M  V30 760 H 67.4255 -3.00914 -2.95006 0
M  V30 761 H 66.1005 -1.84989 -2.65633 0
M  V30 762 H 65.0075 -3.57338 -1.10727 0
M  V30 763 H 66.3405 -4.6956 -1.47562 0
M  V30 764 N 67.9926 0.231505 -1.5589 0
M  V30 765 C 68.9556 1.27028 -1.90779 0
M  V30 766 C 69.9556 1.40308 -0.785507 0
M  V30 767 O 71.1456 1.38744 -1.05336 0
M  V30 768 C 68.2776 2.64566 -2.14983 0
M  V30 769 H 69.4706 0.973017 -2.83677 0
M  V30 770 H 67.0236 0.471486 -1.49019 0
M  V30 771 H 67.7586 2.99406 -1.24604 0
M  V30 772 H 67.5436 2.56305 -2.96732 0
M  V30 773 H 69.0336 3.39543 -2.43105 0
M  V30 774 N 69.4707 1.49531 0.497807 0
M  V30 775 C 70.6987 1.62893 1.27567 0
M  V30 776 C 71.1137 0.301585 1.86376 0
M  V30 777 O 70.4707 -0.713335 1.67982 0
M  V30 778 C 70.5217 2.70013 2.40364 0
M  V30 779 O 70.2427 3.976 1.83972 0
M  V30 780 C 71.7437 2.94109 3.31685 0
M  V30 781 H 68.9637 0.548298 0.386794 0
M  V30 782 H 71.5077 1.95584 0.597245 0
M  V30 783 H 69.6627 2.40092 3.04031 0
M  V30 784 H 70.0767 4.56631 2.58047 0
M  V30 785 H 71.5507 3.72788 4.07104 0
M  V30 786 H 72.0277 2.04147 3.88871 0
M  V30 787 H 72.6337 3.2546 2.73781 0
M  V30 788 N 70.9488 -0.749086 1.3866 0
M  V30 789 C 72.1768 -1.53834 1.38358 0
M  V30 790 C 72.5918 -1.88783 -0.0255219 0
M  V30 791 O 71.9488 -1.53101 -0.993292 0
M  V30 792 C 71.9998 -2.83468 2.2434 0
M  V30 793 O 71.7208 -2.50008 3.5976 0
M  V30 794 C 73.2218 -3.7758 2.32267 0
M  V30 795 H 70.4418 -0.47585 0.473083 0
M  V30 796 H 72.9858 -0.926726 1.82297 0
M  V30 797 H 71.1408 -3.40995 1.83851 0
M  V30 798 H 71.5548 -3.33182 4.05081 0
M  V30 799 H 73.0288 -4.65478 2.96706 0
M  V30 800 H 73.5058 -4.18334 1.33765 0
M  V30 801 H 74.1118 -3.25976 2.73166 0
M  V30 802 N 72.4269 -1.23603 -0.977757 0
M  V30 803 C 73.6549 -1.09646 -1.75458 0
M  V30 804 C 74.0699 0.351859 -1.85492 0
M  V30 805 O 73.4269 1.24327 -1.336 0
M  V30 806 C 73.4779 -1.71895 -3.18016 0
M  V30 807 O 73.1989 -3.11063 -3.08498 0
M  V30 808 C 74.6999 -1.63415 -4.12081 0
M  V30 809 H 71.9199 -0.38359 -0.550545 0
M  V30 810 H 74.4639 -1.63507 -1.22824 0
M  V30 811 H 72.6189 -1.22061 -3.67668 0
M  V30 812 H 73.0329 -3.41305 -3.9826 0
M  V30 813 H 74.5069 -2.11669 -5.09804 0
M  V30 814 H 74.9839 -0.593462 -4.35172 0
M  V30 815 H 75.5899 -2.12628 -3.68334 0
M  V30 816 N 73.905 1.17692 -1.04816 0
M  V30 817 C 74.835 2.23777 -0.666791 0
M  V30 818 C 75.816 1.66796 0.33361 0
M  V30 819 O 77.001 1.93039 0.212042 0
M  V30 820 C 74.131 3.47281 -0.0367933 0
M  V30 821 C 73.085 4.17059 -0.961546 0
M  V30 822 C 72.411 5.34342 -0.195626 0
M  V30 823 C 73.711 4.69713 -2.28402 0
M  V30 824 H 75.405 2.55933 -1.55367 0
M  V30 825 H 72.951 1.23019 -0.748484 0
M  V30 826 H 74.904 4.20706 0.241775 0
M  V30 827 H 73.628 3.14381 0.885004 0
M  V30 828 H 72.287 3.45541 -1.22462 0
M  V30 829 H 71.935 4.97692 0.728816 0
M  V30 830 H 71.635 5.81966 -0.811775 0
M  V30 831 H 73.159 6.10553 0.0757473 0
M  V30 832 H 74.573 5.34794 -2.06563 0
M  V30 833 H 72.97 5.279 -2.8538 0
M  V30 834 H 74.04 3.86726 -2.92525 0
M  V30 835 N 75.3831 0.828654 1.34056 0
M  V30 836 C 76.6301 0.419458 1.98108 0
M  V30 837 C 76.9581 -1.01886 1.65679 0
M  V30 838 O 76.2131 -1.72539 0.923512 0
M  V30 839 C 76.5121 0.575226 3.52741 0
M  V30 840 C 76.1781 1.98012 4.05095 0
M  V30 841 C 74.8401 2.36442 4.19104 0
M  V30 842 C 77.1921 2.89824 4.33188 0
M  V30 843 C 74.5201 3.66009 4.58535 0
M  V30 844 C 76.8721 4.1886 4.74066 0
M  V30 845 C 75.5361 4.5726 4.86281 0
M  V30 846 H 74.8061 0.153491 0.724929 0
M  V30 847 H 77.4531 1.05371 1.59904 0
M  V30 848 H 75.7581 -0.142385 3.91541 0
M  V30 849 H 77.4551 0.239057 4.00287 0
M  V30 850 H 74.0451 1.67162 3.94658 0
M  V30 851 H 78.2291 2.61375 4.21897 0
M  V30 852 H 73.4851 3.95579 4.66184 0
M  V30 853 H 77.6591 4.90086 4.94761 0
M  V30 854 H 75.2861 5.57707 5.16592 0
M  V30 855 N 76.8612 -1.46375 0.584142 0
M  V30 856 C 78.1012 -2.0427 0.0729695 0
M  V30 857 C 78.4652 -1.44563 -1.26355 0
M  V30 858 O 79.6662 -1.93667 -1.86405 0
M  V30 859 C 77.9372 -3.57399 0.00967464 0
M  V30 860 S 79.4962 -4.36551 -0.443714 0
M  V30 861 H 76.3142 -0.709975 0.0381673 0
M  V30 862 H 78.9162 -1.79398 0.776962 0
M  V30 863 H 77.6202 -3.98372 0.986319 0
M  V30 864 H 77.1512 -3.8681 -0.717044 0
M  V30 865 H 79.1662 -4.66237 -1.69816 0
M  V30 866 N 78.3393 -0.321999 -1.54275 0
M  V30 867 C 79.3023 0.531975 -2.22941 0
M  V30 868 C 80.3023 1.04478 -1.22234 0
M  V30 869 O 81.4923 0.937452 -1.46825 0
M  V30 870 C 78.6243 1.73874 -2.93224 0
M  V30 871 H 79.8173 -0.0682612 -2.99822 0
M  V30 872 H 77.3703 -0.0730644 -1.56129 0
M  V30 873 H 78.1053 2.37825 -2.20476 0
M  V30 874 H 77.8903 1.37847 -3.6707 0
M  V30 875 H 79.3803 2.34496 -3.45545 0
M  V30 876 N 79.8174 1.5752 -0.0501392 0
M  V30 877 C 81.0424 1.97376 0.636997 0
M  V30 878 C 81.4674 0.927466 1.63645 0
M  V30 879 O 80.8254 -0.10941 1.8097 0
M  V30 880 C 80.8734 3.36304 1.30123 0
M  V30 881 O 79.9774 3.34156 2.41689 0
M  V30 882 H 79.3184 0.642998 0.165679 0
M  V30 883 H 81.8484 2.04258 -0.118233 0
M  V30 884 H 81.8584 3.73008 1.65315 0
M  V30 885 H 80.5334 4.11993 0.568746 0
M  V30 886 H 79.1104 3.09196 2.08451 0
M  V30 887 N 81.2955 -0.223234 1.56011 0
M  V30 888 C 82.5725 -0.972108 1.69733 0
M  V30 889 C 82.9525 -2.02485 0.59691 0
M  V30 890 O 82.3005 -2.25037 -0.396324 0
M  V30 891 C 82.5105 -1.58407 3.10979 0
M  V30 892 C 83.8585 -2.07696 3.70334 0
M  V30 893 O 84.8825 -1.68304 3.1393 0
M  V30 894 O 83.7415 -2.80096 4.69264 0
M  V30 895 H 80.8355 -0.453993 0.691245 0
M  V30 896 H 83.3815 -0.215149 1.68331 0
M  V30 897 H 82.1535 -0.823831 3.82529 0
M  V30 898 H 81.7765 -2.40661 3.16493 0
M  V30 899 N 82.7736 -1.49793 -0.48987 0
M  V30 900 C 83.7366 -1.66752 -1.57246 0
M  V30 901 C 84.7366 -0.538867 -1.51502 0
M  V30 902 O 85.9266 -0.805545 -1.54456 0
M  V30 903 C 83.0586 -1.67528 -2.96896 0
M  V30 904 H 84.2516 -2.63321 -1.43534 0
M  V30 905 H 81.8046 -1.38992 -0.714914 0
M  V30 906 H 82.5396 -0.725837 -3.16073 0
M  V30 907 H 82.3246 -2.49504 -3.02473 0
M  V30 908 H 83.8146 -1.82667 -3.7553 0
M  V30 909 N 84.2517 0.741722 -1.39055 0
M  V30 910 C 85.1987 1.85566 -1.37237 0
M  V30 911 C 86.1687 1.64457 -0.233072 0
M  V30 912 O 87.3537 1.85957 -0.427147 0
M  V30 913 C 84.4937 3.23004 -1.215 0
M  V30 914 C 83.6067 3.55864 -2.44918 0
M  V30 915 C 82.7417 4.82669 -2.21821 0
M  V30 916 C 81.7807 5.08351 -3.40948 0
M  V30 917 N 80.9177 6.26356 -3.17211 0
M  V30 918 H 85.7577 1.86455 -2.32462 0
M  V30 919 H 83.2947 0.911176 -1.15482 0
M  V30 920 H 85.2527 4.02331 -1.10389 0
M  V30 921 H 83.8827 3.21411 -0.29908 0
M  V30 922 H 82.9347 2.7129 -2.66657 0
M  V30 923 H 84.2467 3.70765 -3.33668 0
M  V30 924 H 83.4007 5.69962 -2.07914 0
M  V30 925 H 82.1397 4.69929 -1.30454 0
M  V30 926 H 81.1447 4.19522 -3.55361 0
M  V30 927 H 82.3697 5.22981 -4.33207 0
M  V30 928 H 80.3157 6.14917 -2.28502 0
M  V30 929 H 80.2327 6.41813 -3.99515 0
M  V30 930 H 81.5007 7.16506 -3.06984 0
M  V30 931 N 85.7298 1.2412 0.971189 0
M  V30 932 C 86.6928 1.03156 2.04674 0
M  V30 933 C 87.6928 -0.00990322 1.60797 0
M  V30 934 O 88.8828 0.230729 1.72665 0
M  V30 935 C 86.0148 0.562765 3.36223 0
M  V30 936 H 87.2078 1.98614 2.24705 0
M  V30 937 H 84.7608 1.06293 1.14593 0
M  V30 938 H 85.4958 -0.395176 3.21883 0
M  V30 939 H 85.2808 1.31441 3.69413 0
M  V30 940 H 86.7708 0.437015 4.15307 0
M  V30 941 N 87.2079 -1.17134 1.05439 0
M  V30 942 C 88.4379 -1.91094 0.785274 0
M  V30 943 C 88.8459 -1.77198 -0.663142 0
M  V30 944 O 88.1889 -1.10835 -1.46497 0
M  V30 945 C 88.2509 -3.42594 1.08949 0
M  V30 946 C 87.9149 -3.80274 2.53458 0
M  V30 947 C 88.9119 -3.82912 3.51673 0
M  V30 948 C 86.5969 -4.11162 2.88532 0
M  V30 949 C 88.5909 -4.15913 4.83006 0
M  V30 950 C 86.2779 -4.43831 4.20068 0
M  V30 951 C 87.2759 -4.46185 5.17115 0
M  V30 952 O 86.9639 -4.78083 6.46291 0
M  V30 953 H 86.6959 -0.613073 0.284811 0
M  V30 954 H 89.2499 -1.49461 1.40893 0
M  V30 955 H 87.4799 -3.84534 0.408741 0
M  V30 956 H 89.1689 -3.97817 0.805991 0
M  V30 957 H 89.9349 -3.5917 3.25917 0
M  V30 958 H 85.8139 -4.085 2.13656 0
M  V30 959 H 89.3579 -4.17665 5.5875 0
M  V30 960 H 85.2549 -4.67037 4.45586 0
M  V30 961 H 86.0229 -4.9593 6.51149 0
M  V30 962 N 88.686 -0.835752 -1.33615 0
M  V30 963 C 89.963 -0.352017 -1.92406 0
M  V30 964 C 90.343 1.16225 -1.76224 0
M  V30 965 O 89.691 1.97526 -1.14873 0
M  V30 966 C 89.901 -0.795485 -3.39813 0
M  V30 967 C 91.249 -0.801703 -4.16963 0
M  V30 968 O 92.273 -0.738889 -3.48452 0
M  V30 969 O 91.132 -0.886607 -5.3926 0
M  V30 970 H 88.226 -0.0989641 -0.821057 0
M  V30 971 H 90.772 -0.921397 -1.42507 0
M  V30 972 H 89.544 -1.83795 -3.45449 0
M  V30 973 H 89.167 -0.202505 -3.97084 0
M  V30 974 N 90.1641 1.46063 -0.591896 0
M  V30 975 C 91.3921 2.06717 -0.0868936 0
M  V30 976 C 91.8071 1.43916 1.22203 0
M  V30 977 O 91.1641 0.547698 1.74088 0
M  V30 978 C 91.2151 3.6142 0.0758725 0
M  V30 979 O 90.9361 4.21874 -1.18126 0
M  V30 980 C 92.4371 4.39025 0.61416 0
M  V30 981 H 89.6571 0.668162 -0.0616518 0
M  V30 982 H 92.2011 1.8755 -0.815175 0
M  V30 983 H 90.3561 3.79983 0.754413 0
M  V30 984 H 90.7701 5.14861 -1.00092 0
M  V30 985 H 92.2441 5.4783 0.677193 0
M  V30 986 H 92.7211 4.07708 1.63312 0
M  V30 987 H 93.3271 4.2529 -0.0298142 0
M  V30 988 N 91.6422 0.330177 1.54103 0
M  V30 989 C 92.5522 -0.541534 2.28264 0
M  V30 990 C 93.5682 -1.12351 1.32866 0
M  V30 991 O 94.7442 -1.14206 1.65888 0
M  V30 992 C 91.8092 -1.68322 3.03098 0
M  V30 993 C 90.8702 -1.13238 4.14096 0
M  V30 994 C 90.1032 -2.21966 4.85352 0
M  V30 995 O 90.3262 -3.42437 4.56172 0
M  V30 996 O 89.2602 -1.87013 5.7211 0
M  V30 997 H 93.0862 0.060938 3.03639 0
M  V30 998 H 90.6712 0.09565 1.49093 0
M  V30 999 H 92.5532 -2.34777 3.49939 0
M  V30 1000 H 91.2282 -2.27176 2.30593 0
M  V30 1001 H 90.1352 -0.432736 3.71589 0
M  V30 1002 H 91.4682 -0.588898 4.88664 0
M  V30 1003 N 93.1203 -1.57491 0.0584922 0
M  V30 1004 C 94.3663 -1.93264 -0.614558 0
M  V30 1005 C 94.6993 -0.937717 -1.7006 0
M  V30 1006 O 93.9743 0.0351652 -1.94468 0
M  V30 1007 C 94.2573 -3.3938 -1.20386 0
M  V30 1008 C 94.1103 -4.49625 -0.125375 0
M  V30 1009 C 95.4293 -3.86039 -2.11334 0
M  V30 1010 H 92.5483 -0.702791 -0.221933 0
M  V30 1011 H 95.1903 -1.8961 0.12175 0
M  V30 1012 H 93.3403 -3.42626 -1.83139 0
M  V30 1013 H 95.0123 -4.58506 0.506971 0
M  V30 1014 H 93.2553 -4.30354 0.545672 0
M  V30 1015 H 93.9263 -5.48967 -0.577861 0
M  V30 1016 H 96.4023 -3.84716 -1.58534 0
M  V30 1017 H 95.2783 -4.88914 -2.49507 0
M  V30 1018 H 95.5393 -3.23215 -3.01636 0
M  V30 1019 N 94.5984 0.214957 -1.56127 0
M  V30 1020 C 95.5484 1.27006 -1.8935 0
M  V30 1021 C 96.5324 1.41969 -0.757202 0
M  V30 1022 O 97.7244 1.44673 -1.01973 0
M  V30 1023 C 94.8534 2.61911 -2.2194 0
M  V30 1024 C 93.9394 2.50822 -3.41978 0
M  V30 1025 N 94.3304 2.09391 -4.60423 0
M  V30 1026 C 92.6284 2.81765 -3.45723 0
M  V30 1027 C 93.3294 2.09712 -5.42582 0
M  V30 1028 N 92.3054 2.50454 -4.82466 0
M  V30 1029 H 96.1074 0.940734 -2.78437 0
M  V30 1030 H 93.6214 0.423492 -1.56781 0
M  V30 1031 H 95.6184 3.38096 -2.43919 0
M  V30 1032 H 94.2784 2.95684 -1.34169 0
M  V30 1033 H 95.2894 1.80416 -4.85459 0
M  V30 1034 H 91.9664 3.19865 -2.68314 0
M  V30 1035 H 93.3564 1.79748 -6.4741 0
M  V30 1036 N 96.0765 1.50051 0.48192 0
M  V30 1037 C 97.0245 1.68635 1.60203 0
M  V30 1038 C 98.0185 0.552184 1.60148 0
M  V30 1039 O 99.2245 0.732377 1.64427 0
M  V30 1040 H 95.5995 0.532081 0.531407 0
M  V30 1041 H 97.5705 2.62616 1.41688 0
M  V30 1042 C 96.3195 1.78775 2.9822 0
M  V30 1043 H 95.6425 2.6543 2.98976 0
M  V30 1044 H 97.0825 1.95806 3.7608 0
M  V30 1045 C 95.5415 0.536849 3.32595 0
M  V30 1046 O 96.0715 -0.328897 4.00351 0
M  V30 1047 N 94.2775 0.394091 2.87915 0
M  V30 1048 H 93.8245 1.09962 2.32951 0
M  V30 1049 H 93.7825 -0.441737 3.11281 0
M  V30 1050 N 97.5546 -0.734337 1.39446 0
M  V30 1051 C 98.8006 -1.49613 1.36908 0
M  V30 1052 C 99.1336 -1.94169 -0.0347829 0
M  V30 1053 O 98.4086 -1.66833 -0.999847 0
M  V30 1054 C 98.6916 -2.73534 2.34203 0
M  V30 1055 C 98.5446 -2.34993 3.83534 0
M  V30 1056 C 99.8636 -3.75635 2.29317 0
M  V30 1057 H 96.9826 -0.542714 0.498629 0
M  V30 1058 H 99.6246 -0.839597 1.70443 0
M  V30 1059 H 97.7746 -3.29553 2.05736 0
M  V30 1060 H 99.4466 -1.84601 4.22753 0
M  V30 1061 H 97.6896 -1.67213 4.00278 0
M  V30 1062 H 98.3606 -3.23738 4.47099 0
M  V30 1063 H 100.837 -3.29203 2.54489 0
M  V30 1064 H 99.7126 -4.60008 2.99472 0
M  V30 1065 H 99.9736 -4.22603 1.29842 0
M  V30 1066 N 99.0327 -1.24633 -0.964593 0
M  V30 1067 C 100.279 -1.09957 -1.71117 0
M  V30 1068 C 100.634 0.357422 -1.89051 0
M  V30 1069 O 99.9267 1.26029 -1.44317 0
M  V30 1070 C 100.121 -1.7763 -3.10133 0
M  V30 1071 C 99.9497 -3.29759 -3.05759 0
M  V30 1072 C 98.7197 -3.98981 -3.10068 0
M  V30 1073 C 100.918 -4.26305 -2.87695 0
M  V30 1074 N 98.8997 -5.37966 -2.95747 0
M  V30 1075 C 100.271 -5.52308 -2.81702 0
M  V30 1076 C 102.326 -4.16842 -2.72299 0
M  V30 1077 C 101.029 -6.69931 -2.61887 0
M  V30 1078 C 103.055 -5.34147 -2.53853 0
M  V30 1079 C 102.417 -6.59084 -2.48572 0
M  V30 1080 H 98.5157 -0.457003 -0.634564 0
M  V30 1081 H 101.1 -1.57592 -1.14337 0
M  V30 1082 H 99.2707 -1.32504 -3.65099 0
M  V30 1083 H 101.003 -1.55786 -3.73514 0
M  V30 1084 H 97.7577 -3.50169 -3.18871 0
M  V30 1085 H 98.1817 -6.10877 -2.91818 0
M  V30 1086 H 102.824 -3.21007 -2.75163 0
M  V30 1087 H 100.542 -7.65886 -2.57767 0
M  V30 1088 H 104.128 -5.28678 -2.4288 0
M  V30 1089 H 103.008 -7.48324 -2.34481 0
M  V30 1090 N 100.511 1.16574 -1.06058 0
M  V30 1091 C 101.474 2.19085 -0.673392 0
M  V30 1092 C 102.474 1.5835 0.279648 0
M  V30 1093 O 103.664 1.74088 0.0623488 0
M  V30 1094 C 100.796 3.40899 0.00954234 0
M  V30 1095 H 101.989 2.54853 -1.58081 0
M  V30 1096 H 99.5418 1.30808 -0.855516 0
M  V30 1097 H 100.277 3.10684 0.929826 0
M  V30 1098 H 100.062 3.86233 -0.67573 0
M  V30 1099 H 101.552 4.1675 0.266245 0
M  V30 1100 N 101.989 0.842826 1.3317 0
M  V30 1101 C 103.217 0.454055 2.01856 0
M  V30 1102 C 103.632 -0.94587 1.63397 0
M  V30 1103 O 102.989 -1.61534 0.849302 0
M  V30 1104 C 103.04 0.569715 3.56982 0
M  V30 1105 O 102.761 1.91448 3.94055 0
M  V30 1106 C 104.262 0.178412 4.42941 0
M  V30 1107 H 101.482 0.17979 0.646465 0
M  V30 1108 H 104.026 1.1365 1.70012 0
M  V30 1109 H 102.181 -0.0648587 3.87346 0
M  V30 1110 H 102.595 1.90282 4.88767 0
M  V30 1111 H 104.069 0.310376 5.51127 0
M  V30 1112 H 104.546 -0.880056 4.30293 0
M  V30 1113 H 105.152 0.787579 4.17944 0
M  V30 1114 N 103.467 -1.45747 0.599634 0
M  V30 1115 C 104.417 -2.27538 -0.145107 0
M  V30 1116 C 105.401 -1.3686 -0.846055 0
M  V30 1117 O 106.593 -1.6091 -0.737357 0
M  V30 1118 C 103.722 -3.23569 -1.14708 0
M  V30 1119 C 102.808 -4.21734 -0.447383 0
M  V30 1120 N 103.199 -5.03257 0.506535 0
M  V30 1121 C 101.497 -4.40536 -0.695966 0
M  V30 1122 C 102.198 -5.74426 0.917068 0
M  V30 1123 N 101.174 -5.42966 0.26253 0
M  V30 1124 H 104.976 -2.87965 0.587672 0
M  V30 1125 H 102.49 -1.56803 0.422697 0
M  V30 1126 H 104.487 -3.8089 -1.69495 0
M  V30 1127 H 103.147 -2.64702 -1.8805 0
M  V30 1128 H 104.158 -5.10319 0.882899 0
M  V30 1129 H 100.835 -3.92802 -1.41467 0
M  V30 1130 H 102.225 -6.4995 1.70338 0
M  V30 1131 N 104.945 -0.338344 -1.53925 0
M  V30 1132 C 105.908 0.508299 -2.23493 0
M  V30 1133 C 106.908 1.03175 -1.23335 0
M  V30 1134 O 108.098 0.921826 -1.47811 0
M  V30 1135 C 105.23 1.70754 -2.95052 0
M  V30 1136 H 106.423 -0.100058 -2.99733 0
M  V30 1137 H 103.976 -0.0896198 -1.56043 0
M  V30 1138 H 104.711 2.35474 -2.22986 0
M  V30 1139 H 104.496 1.33946 -3.68512 0
M  V30 1140 H 105.986 2.30818 -3.48013 0
M  V30 1141 N 106.423 1.57458 -0.0668435 0
M  V30 1142 C 107.663 1.95175 0.607116 0
M  V30 1143 C 108.027 0.946039 1.67075 0
M  V30 1144 O 109.228 1.2107 2.39991 0
M  V30 1145 C 107.499 3.37582 1.17358 0
M  V30 1146 S 109.058 3.97271 1.86336 0
M  V30 1147 H 105.876 0.682604 0.19893 0
M  V30 1148 H 108.478 1.95002 -0.139519 0
M  V30 1149 H 107.182 4.08566 0.387553 0
M  V30 1150 H 106.713 3.41288 1.95669 0
M  V30 1151 H 108.728 3.83772 3.14537 0
M  V30 1152 N 107.901 -0.206675 1.56239 0
M  V30 1153 C 109.147 -0.930218 1.80208 0
M  V30 1154 C 109.48 -1.83387 0.638981 0
M  V30 1155 O 108.755 -1.91119 -0.361066 0
M  V30 1156 C 109.038 -1.75641 3.1436 0
M  V30 1157 C 108.891 -0.878257 4.41142 0
M  V30 1158 C 110.21 -2.73129 3.45092 0
M  V30 1159 H 107.329 -0.336742 0.655571 0
M  V30 1160 H 109.971 -0.198222 1.88963 0
M  V30 1161 H 108.121 -2.38048 3.07027 0
M  V30 1162 H 109.793 -0.269787 4.6051 0
M  V30 1163 H 108.036 -0.184385 4.33408 0
M  V30 1164 H 108.707 -1.49106 5.3148 0
M  V30 1165 H 111.183 -2.20856 3.52649 0
M  V30 1166 H 110.059 -3.28028 4.40101 0
M  V30 1167 H 110.32 -3.51606 2.68003 0
M  V30 1168 N 109.379 -1.50304 -0.473955 0
M  V30 1169 C 110.79 -1.54042 -1.0549 0
M  V30 1170 C 111.141 -0.342248 -1.93192 0
M  V30 1171 O 110.266 0.545157 -2.09421 0
M  V30 1172 C 110.861 -2.79152 -1.91989 0
M  V30 1173 C 109.42 -2.8558 -2.45196 0
M  V30 1174 C 108.567 -2.48295 -1.2347 0
M  V30 1175 H 111.518 -1.5661 -0.256693 0
M  V30 1176 H 111.539 -2.60845 -2.7702 0
M  V30 1177 H 111.051 -3.66339 -1.28131 0
M  V30 1178 H 109.152 -2.02738 -3.12615 0
M  V30 1179 H 109.265 -3.88403 -2.80499 0
M  V30 1180 H 107.629 -2.00669 -1.56856 0
M  V30 1181 H 108.412 -3.37787 -0.612789 0
M  V30 1182 N 110.857 0.726932 -1.39834 0
M  V30 1183 C 112.085 1.51613 -1.40787 0
M  V30 1184 C 112.5 1.88799 -0.00451505 0
M  V30 1185 O 111.857 1.54662 0.968809 0
M  V30 1186 C 111.908 2.79863 -2.28821 0
M  V30 1187 O 111.629 2.44253 -3.63692 0
M  V30 1188 C 113.13 3.73837 -2.38245 0
M  V30 1189 H 110.35 0.468264 -0.480593 0
M  V30 1190 H 112.894 0.897607 -1.83748 0
M  V30 1191 H 111.049 3.38027 -1.89252 0
M  V30 1192 H 111.463 3.26695 -4.1033 0
M  V30 1193 H 112.937 4.60699 -3.04073 0
M  V30 1194 H 113.414 4.16153 -1.40403 0
M  V30 1195 H 114.02 3.21589 -2.78317 0
M  V30 1196 N 112.336 1.25143 0.95797 0
M  V30 1197 C 113.613 1.00472 1.67823 0
M  V30 1198 C 113.993 -0.470056 2.058 0
M  V30 1199 O 113.341 -1.44663 1.76875 0
M  V30 1200 C 113.551 1.9372 2.90299 0
M  V30 1201 C 114.899 2.21371 3.62326 0
M  V30 1202 O 115.923 1.91451 3.00375 0
M  V30 1203 O 114.782 2.72231 4.7387 0
M  V30 1204 H 111.876 0.380752 0.734137 0
M  V30 1205 H 114.422 1.36283 1.01119 0
M  V30 1206 H 113.194 2.93316 2.59001 0
M  V30 1207 H 112.817 1.58286 3.64735 0
M  V30 1208 N 113.814 -1.1601 1.06675 0
M  V30 1209 C 115.225 -1.68235 0.809565 0
M  V30 1210 C 115.576 -1.8454 -0.666303 0
M  V30 1211 O 114.701 -1.54374 -1.5165 0
M  V30 1212 C 115.296 -3.05585 1.46299 0
M  V30 1213 C 113.855 -3.54915 1.25349 0
M  V30 1214 C 113.002 -2.30804 1.53703 0
M  V30 1215 H 115.953 -1.00318 1.22971 0
M  V30 1216 H 115.974 -3.70174 0.880431 0
M  V30 1217 H 115.486 -2.93686 2.53713 0
M  V30 1218 H 113.587 -3.72067 0.199261 0
M  V30 1219 H 113.7 -4.36774 1.9689 0
M  V30 1220 H 112.064 -2.36007 0.957739 0
M  V30 1221 H 112.847 -2.21499 2.62284 0
M  V30 1222 N 115.292 -0.849877 -1.32721 0
M  V30 1223 C 116.24 -0.279745 -2.30912 0
M  V30 1224 C 117.234 0.594278 -1.58634 0
M  V30 1225 O 118.44 0.482613 -1.73409 0
M  V30 1226 H 114.815 -0.0717521 -0.748569 0
M  V30 1227 H 116.786 -1.12222 -2.76494 0
M  V30 1228 C 115.535 0.521108 -3.43773 0
M  V30 1229 H 114.858 -0.142141 -3.99547 0
M  V30 1230 H 116.298 0.885693 -4.14646 0
M  V30 1231 C 114.757 1.70442 -2.90605 0
M  V30 1232 O 115.287 2.8034 -2.87702 0
M  V30 1233 N 113.493 1.52991 -2.47067 0
M  V30 1234 H 113.04 0.635914 -2.49628 0
M  V30 1235 H 112.998 2.32311 -2.11847 0
M  V30 1236 N 116.77 1.45427 -0.607355 0
M  V30 1237 C 118.181 1.85756 -0.187535 0
M  V30 1238 C 118.532 1.5077 1.25551 0
M  V30 1239 O 117.657 0.93427 1.95193 0
M  V30 1240 C 118.252 3.37154 -0.333572 0
M  V30 1241 C 116.811 3.76387 0.0315542 0
M  V30 1242 C 115.958 2.69377 -0.658117 0
M  V30 1243 H 118.909 1.36231 -0.81405 0
M  V30 1244 H 118.93 3.78014 0.43428 0
M  V30 1245 H 118.442 3.62586 -1.38393 0
M  V30 1246 H 116.543 3.56571 1.0811 0
M  V30 1247 H 116.656 4.77731 -0.361935 0
M  V30 1248 H 115.02 2.5452 -0.0957873 0
M  V30 1249 H 115.803 2.97646 -1.7106 0
M  V30 1250 N 118.248 0.346503 1.53744 0
M  V30 1251 C 119.18 -0.543316 2.22667 0
M  V30 1252 C 120.193 -1.06159 1.23427 0
M  V30 1253 O 121.382 -0.971235 1.49764 0
M  V30 1254 C 118.482 -1.76076 2.89569 0
M  V30 1255 C 117.655 -1.37727 4.15151 0
M  V30 1256 C 116.714 -2.45471 4.65436 0
M  V30 1257 O 115.74 -2.08655 5.29577 0
M  V30 1258 N 116.942 -3.7677 4.41616 0
M  V30 1259 H 119.707 0.0469703 2.99663 0
M  V30 1260 H 117.268 0.170766 1.60997 0
M  V30 1261 H 119.26 -2.47593 3.20125 0
M  V30 1262 H 117.83 -2.25835 2.16142 0
M  V30 1263 H 117.05 -0.492746 3.91108 0
M  V30 1264 H 118.338 -1.09708 4.96832 0
M  V30 1265 H 117.736 -4.09467 3.90325 0
M  V30 1266 H 116.293 -4.44448 4.7677 0
M  V30 1267 N 119.726 -1.57421 0.075193 0
M  V30 1268 C 120.636 -2.1642 -0.905511 0
M  V30 1269 C 121.652 -1.12828 -1.32461 0
M  V30 1270 O 122.828 -1.45109 -1.39661 0
M  V30 1271 C 119.893 -2.71693 -2.15369 0
M  V30 1272 C 118.954 -3.90171 -1.79068 0
M  V30 1273 C 118.187 -4.42798 -2.97936 0
M  V30 1274 O 118.41 -3.94416 -4.12058 0
M  V30 1275 O 117.344 -5.34085 -2.77555 0
M  V30 1276 H 121.17 -3.00588 -0.433626 0
M  V30 1277 H 118.755 -1.48664 -0.148067 0
M  V30 1278 H 120.637 -3.07104 -2.88557 0
M  V30 1279 H 119.312 -1.90582 -2.61649 0
M  V30 1280 H 118.219 -3.59606 -1.03122 0
M  V30 1281 H 119.552 -4.72584 -1.37569 0
M  V30 1282 N 121.204 0.198386 -1.56346 0
M  V30 1283 C 122.45 0.920648 -1.80698 0
M  V30 1284 C 122.783 1.83045 -0.648697 0
M  V30 1285 O 122.058 1.91308 0.350925 0
M  V30 1286 C 122.341 1.73971 -3.15287 0
M  V30 1287 C 122.194 0.85485 -4.41602 0
M  V30 1288 C 123.513 2.71296 -3.46535 0
M  V30 1289 H 120.632 0.333261 -0.657348 0
M  V30 1290 H 123.274 0.188198 -1.89066 0
M  V30 1291 H 121.424 2.36416 -3.08285 0
M  V30 1292 H 123.096 0.245362 -4.60647 0
M  V30 1293 H 121.339 0.161398 -4.335 0
M  V30 1294 H 122.01 1.46286 -5.32264 0
M  V30 1295 H 124.486 2.18983 -3.53816 0
M  V30 1296 H 123.362 3.2569 -4.41834 0
M  V30 1297 H 123.623 3.5018 -2.69864 0
M  V30 1298 N 122.682 1.50554 0.465978 0
M  V30 1299 C 123.629 1.6979 1.56333 0
M  V30 1300 C 124.599 0.539239 1.57103 0
M  V30 1301 O 125.784 0.770401 1.74555 0
M  V30 1302 C 122.924 1.80273 2.94271 0
M  V30 1303 C 122.037 3.07674 3.0325 0
M  V30 1304 C 121.172 3.08922 4.32135 0
M  V30 1305 C 120.211 4.30755 4.34875 0
M  V30 1306 N 119.348 4.29714 5.55239 0
M  V30 1307 H 124.188 2.63472 1.39235 0
M  V30 1308 H 121.725 1.30602 0.676873 0
M  V30 1309 H 123.683 1.84332 3.74269 0
M  V30 1310 H 122.313 0.900258 3.09992 0
M  V30 1311 H 121.365 3.13062 2.16094 0
M  V30 1312 H 122.677 3.97642 3.01135 0
M  V30 1313 H 121.831 3.11738 5.20485 0
M  V30 1314 H 120.57 2.16792 4.36866 0
M  V30 1315 H 119.575 4.28146 3.44922 0
M  V30 1316 H 120.8 5.24117 4.31831 0
M  V30 1317 H 118.746 3.4044 5.60746 0
M  V30 1318 H 118.663 5.13456 5.54886 0
M  V30 1319 H 119.931 4.36683 6.457 0
M  V30 1320 N 124.16 -0.719506 1.40217 0
M  V30 1321 C 125.09 -1.8465 1.42922 0
M  V30 1322 C 126.071 -1.67599 0.29062 0
M  V30 1323 O 127.256 -1.87688 0.498677 0
M  V30 1324 C 124.386 -3.22565 1.28722 0
M  V30 1325 C 123.34 -3.54281 2.40144 0
M  V30 1326 C 122.666 -4.91298 2.11023 0
M  V30 1327 C 123.966 -3.55676 3.82481 0
M  V30 1328 H 125.66 -1.82644 2.37237 0
M  V30 1329 H 123.206 -0.877305 1.1419 0
M  V30 1330 H 125.159 -4.01095 1.29232 0
M  V30 1331 H 123.883 -3.25137 0.308811 0
M  V30 1332 H 122.542 -2.78088 2.38877 0
M  V30 1333 H 122.19 -4.90468 1.11582 0
M  V30 1334 H 121.89 -5.13485 2.8567 0
M  V30 1335 H 123.414 -5.72166 2.13209 0
M  V30 1336 H 124.828 -4.24254 3.85592 0
M  V30 1337 H 123.225 -3.89388 4.56614 0
M  V30 1338 H 124.295 -2.55144 4.12346 0
M  V30 1339 N 125.638 -1.25649 -0.95132 0
M  V30 1340 C 126.548 -1.08073 -2.08224 0
M  V30 1341 C 127.564 -0.0169666 -1.73992 0
M  V30 1342 O 128.74 -0.218593 -2.0021 0
M  V30 1343 C 125.805 -0.704922 -3.39458 0
M  V30 1344 C 124.866 -1.84699 -3.87537 0
M  V30 1345 C 124.099 -1.48902 -5.12508 0
M  V30 1346 O 124.322 -0.386156 -5.69091 0
M  V30 1347 O 123.256 -2.32033 -5.55378 0
M  V30 1348 H 127.082 -2.02924 -2.25954 0
M  V30 1349 H 124.667 -1.04618 -1.06656 0
M  V30 1350 H 126.549 -0.507609 -4.18332 0
M  V30 1351 H 125.224 0.214291 -3.2299 0
M  V30 1352 H 124.131 -2.09919 -3.09653 0
M  V30 1353 H 125.464 -2.74557 -4.08509 0
M  V30 1354 N 127.117 1.15442 -1.07289 0
M  V30 1355 C 128.065 2.22225 -0.686952 0
M  V30 1356 C 129.059 1.66688 0.30193 0
M  V30 1357 O 130.265 1.79236 0.165712 0
M  V30 1358 H 126.64 0.723783 -0.204064 0
M  V30 1359 H 128.611 2.52056 -1.5972 0
M  V30 1360 C 127.36 3.47556 -0.100149 0
M  V30 1361 H 126.683 3.90612 -0.852211 0
M  V30 1362 H 128.123 4.23794 0.132235 0
M  V30 1363 C 126.582 3.16337 1.159 0
M  V30 1364 O 127.112 3.33074 2.24555 0
M  V30 1365 N 125.318 2.70385 1.06491 0
M  V30 1366 H 124.865 2.56966 0.180668 0
M  V30 1367 H 124.823 2.49871 1.90819 0
M  V30 1368 N 128.595 0.856903 1.32268 0
M  V30 1369 C 129.841 0.462069 1.97466 0
M  V30 1370 C 130.174 -0.980298 1.67642 0
M  V30 1371 O 129.449 -1.68824 0.965858 0
M  V30 1372 C 129.732 0.704336 3.53145 0
M  V30 1373 C 129.585 2.19529 3.9259 0
M  V30 1374 C 130.904 0.1622 4.39801 0
M  V30 1375 H 128.023 0.169357 0.717278 0
M  V30 1376 H 130.665 1.07574 1.56614 0
M  V30 1377 H 128.815 0.181999 3.88073 0
M  V30 1378 H 130.487 2.78387 3.67829 0
M  V30 1379 H 128.73 2.67292 3.41668 0
M  V30 1380 H 129.401 2.31549 5.01088 0
M  V30 1381 H 131.877 0.608905 4.11621 0
M  V30 1382 H 130.753 0.361265 5.4771 0
M  V30 1383 H 131.014 -0.935158 4.32096 0
M  V30 1384 N 130.073 -1.45103 0.615059 0
M  V30 1385 C 131.301 -2.06553 0.11977 0
M  V30 1386 C 131.716 -1.45842 -1.19898 0
M  V30 1387 O 131.073 -0.575325 -1.73194 0
M  V30 1388 C 131.124 -3.61495 -0.018364 0
M  V30 1389 O 130.845 -4.19942 1.24822 0
M  V30 1390 C 132.346 -4.39947 -0.544237 0
M  V30 1391 H 129.566 -0.667096 0.0722739 0
M  V30 1392 H 132.11 -1.8623 0.84491 0
M  V30 1393 H 130.265 -3.81135 -0.693865 0
M  V30 1394 H 130.679 -5.13204 1.0827 0
M  V30 1395 H 132.153 -5.48838 -0.589953 0
M  V30 1396 H 132.63 -4.10255 -1.56805 0
M  V30 1397 H 133.236 -4.25188 0.0974703 0
M  V30 1398 N 131.551 -0.354651 -1.53558 0
M  V30 1399 C 132.461 0.50515 -2.29097 0
M  V30 1400 C 133.477 1.10223 -1.34636 0
M  V30 1401 O 134.653 1.11553 -1.67684 0
M  V30 1402 C 131.718 1.63479 -3.05738 0
M  V30 1403 C 130.779 1.06636 -4.15845 0
M  V30 1404 C 130.012 2.14217 -4.88822 0
M  V30 1405 O 130.235 3.35137 -4.61562 0
M  V30 1406 O 129.169 1.77887 -5.75013 0
M  V30 1407 H 132.995 -0.109237 -3.03503 0
M  V30 1408 H 130.58 -0.119357 -1.48922 0
M  V30 1409 H 132.462 2.2918 -3.5363 0
M  V30 1410 H 131.137 2.23478 -2.34178 0
M  V30 1411 H 130.044 0.373565 -3.7223 0
M  V30 1412 H 131.377 0.511081 -4.89539 0
M  V30 1413 N 133.029 1.57378 -0.0835403 0
M  V30 1414 C 133.977 2.14602 0.89714 0
M  V30 1415 C 134.971 1.08589 1.30018 0
M  V30 1416 O 136.177 1.26952 1.27606 0
M  V30 1417 H 132.552 0.686346 0.3073 0
M  V30 1418 H 134.523 2.95845 0.38969 0
M  V30 1419 C 133.272 2.73188 2.15089 0
M  V30 1420 H 132.595 3.54442 1.84962 0
M  V30 1421 H 134.035 3.1681 2.81793 0
M  V30 1422 C 132.494 1.68517 2.91725 0
M  V30 1423 O 133.024 1.11718 3.85852 0
M  V30 1424 N 131.23 1.39277 2.55049 0
M  V30 1425 H 130.777 1.85655 1.78577 0
M  V30 1426 H 130.735 0.694791 3.06627 0
M  V30 1427 N 134.507 -0.190092 1.56449 0
M  V30 1428 C 135.754 -0.909705 1.80916 0
M  V30 1429 C 136.082 -1.83047 0.657583 0
M  V30 1430 O 135.337 -1.92428 -0.356356 0
M  V30 1431 C 135.636 -1.75382 3.1141 0
M  V30 1432 C 135.302 -0.983606 4.40041 0
M  V30 1433 C 133.964 -0.770967 4.74984 0
M  V30 1434 C 136.316 -0.442024 5.19322 0
M  V30 1435 C 133.644 -0.0053448 5.867 0
M  V30 1436 C 135.996 0.310412 6.31838 0
M  V30 1437 C 134.66 0.534023 6.6536 0
M  V30 1438 H 133.93 -0.332885 0.662019 0
M  V30 1439 H 136.577 -0.175762 1.90692 0
M  V30 1440 H 134.882 -2.55659 2.96893 0
M  V30 1441 H 136.579 -2.31331 3.27547 0
M  V30 1442 H 133.169 -1.15936 4.12622 0
M  V30 1443 H 137.353 -0.593693 4.92736 0
M  V30 1444 H 132.609 0.177825 6.11141 0
M  V30 1445 H 136.783 0.737419 6.92485 0
M  V30 1446 H 134.41 1.12918 7.51767 0
M  V30 1447 N 135.985 -1.50799 -0.457987 0
M  V30 1448 C 136.933 -1.71162 -1.575 0
M  V30 1449 C 137.927 -0.577592 -1.59249 0
M  V30 1450 O 139.133 -0.758443 -1.63241 0
M  V30 1451 H 135.508 -0.540468 -0.522875 0
M  V30 1452 H 137.479 -2.64837 -1.37492 0
M  V30 1453 C 136.228 -1.83496 -2.95338 0
M  V30 1454 H 135.551 -2.70153 -2.94716 0
M  V30 1455 H 136.991 -2.01765 -3.72917 0
M  V30 1456 C 135.45 -0.589694 -3.31699 0
M  V30 1457 O 135.98 0.265163 -4.00824 0
M  V30 1458 N 134.186 -0.439845 -2.87252 0
M  V30 1459 H 133.733 -1.13655 -2.31172 0
M  V30 1460 H 133.691 0.392159 -3.11945 0
M  V30 1461 N 137.463 0.71206 -1.40597 0
M  V30 1462 C 138.396 1.83582 -1.35546 0
M  V30 1463 C 139.374 1.61032 -0.225284 0
M  V30 1464 O 140.558 1.83998 -0.409519 0
M  V30 1465 C 137.685 3.19983 -1.11034 0
M  V30 1466 C 136.731 3.61355 -2.2655 0
M  V30 1467 S 137.564 3.68062 -3.88961 0
M  V30 1468 C 138.72 5.07216 -3.66719 0
M  V30 1469 H 138.953 1.87586 -2.30648 0
M  V30 1470 H 136.486 0.879182 -1.26924 0
M  V30 1471 H 138.444 3.98734 -0.975761 0
M  V30 1472 H 137.105 3.13608 -0.175798 0
M  V30 1473 H 136.298 4.60403 -2.0505 0
M  V30 1474 H 135.9 2.8987 -2.36329 0
M  V30 1475 H 138.192 5.94238 -3.25404 0
M  V30 1476 H 139.135 5.33753 -4.6531 0
M  V30 1477 H 139.543 4.77976 -3.00332 0
M  V30 1478 N 138.941 1.26152 0.944643 0
M  V30 1479 C 140.187 1.12665 1.69346 0
M  V30 1480 C 140.542 -0.3273 1.89596 0
M  V30 1481 O 139.835 -1.23717 1.46303 0
M  V30 1482 C 140.029 1.82541 3.07268 0
M  V30 1483 C 139.858 3.34582 3.00475 0
M  V30 1484 C 138.628 4.03863 3.03681 0
M  V30 1485 C 140.826 4.30828 2.80877 0
M  V30 1486 N 138.808 5.42603 2.87151 0
M  V30 1487 C 140.179 5.5672 2.7288 0
M  V30 1488 C 142.234 4.21122 2.65633 0
M  V30 1489 C 140.937 6.74013 2.51196 0
M  V30 1490 C 142.963 5.38118 2.45323 0
M  V30 1491 C 142.325 6.62955 2.38055 0
M  V30 1492 H 138.424 0.467041 0.627214 0
M  V30 1493 H 141.008 1.59391 1.11815 0
M  V30 1494 H 139.179 1.38296 3.62945 0
M  V30 1495 H 140.911 1.61708 3.70989 0
M  V30 1496 H 137.666 3.55198 3.1326 0
M  V30 1497 H 138.09 6.15443 2.82063 0
M  V30 1498 H 142.732 3.25344 2.70021 0
M  V30 1499 H 140.45 7.6989 2.4555 0
M  V30 1500 H 144.036 5.32475 2.34439 0
M  V30 1501 H 142.916 7.51959 2.22546 0
M  V30 1502 N 140.419 -1.14872 1.07899 0
M  V30 1503 C 141.366 -2.19791 0.704319 0
M  V30 1504 C 142.336 -1.63238 -0.306987 0
M  V30 1505 O 143.521 -1.8983 -0.192171 0
M  V30 1506 C 140.661 -3.44911 0.114244 0
M  V30 1507 C 139.774 -4.15637 1.1777 0
M  V30 1508 C 138.909 -5.28324 0.552037 0
M  V30 1509 C 137.948 -5.90875 1.59789 0
M  V30 1510 N 137.085 -6.95022 0.994404 0
M  V30 1511 H 141.925 -2.5119 1.60336 0
M  V30 1512 H 139.462 -1.23356 0.801352 0
M  V30 1513 H 141.42 -4.16477 -0.245544 0
M  V30 1514 H 140.05 -3.14011 -0.74813 0
M  V30 1515 H 139.102 -3.42512 1.65499 0
M  V30 1516 H 140.414 -4.5823 1.97046 0
M  V30 1517 H 139.568 -6.06538 0.1402 0
M  V30 1518 H 138.307 -4.86939 -0.272431 0
M  V30 1519 H 137.312 -5.11369 2.01945 0
M  V30 1520 H 138.537 -6.34337 2.42474 0
M  V30 1521 H 136.483 -6.55722 0.190939 0
M  V30 1522 H 136.4 -7.36073 1.72432 0
M  V30 1523 H 137.668 -7.77123 0.608253 0
M  V30 1524 N 141.898 -0.863906 -1.31812 0
M  V30 1525 C 142.846 -0.30422 -2.30602 0
M  V30 1526 C 143.84 0.577419 -1.59255 0
M  V30 1527 O 145.046 0.464194 -1.73912 0
M  V30 1528 H 141.421 -0.0796877 -0.747766 0
M  V30 1529 H 143.392 -1.15148 -2.75288 0
M  V30 1530 C 142.141 0.484617 -3.44306 0
M  V30 1531 H 141.464 -0.18451 -3.99374 0
M  V30 1532 H 142.904 0.841664 -4.15562 0
M  V30 1533 C 141.363 1.6735 -2.92396 0
M  V30 1534 O 141.893 2.77273 -2.90659 0
M  V30 1535 N 140.099 1.50362 -2.48676 0
M  V30 1536 H 139.646 0.609402 -2.50288 0
M  V30 1537 H 139.604 2.30051 -2.14299 0
M  V30 1538 N 143.376 1.44774 -0.622745 0
M  V30 1539 C 144.324 2.32387 0.0994683 0
M  V30 1540 C 145.318 1.46859 0.844326 0
M  V30 1541 O 146.524 1.63254 0.758174 0
M  V30 1542 H 142.899 0.750273 0.0509291 0
M  V30 1543 H 144.87 2.91062 -0.65767 0
M  V30 1544 C 143.619 3.30723 1.07319 0
M  V30 1545 H 142.942 3.96541 0.509462 0
M  V30 1546 H 144.382 3.94725 1.54817 0
M  V30 1547 C 142.841 2.59021 2.15429 0
M  V30 1548 O 143.371 2.38286 3.23393 0
M  V30 1549 N 141.577 2.189 1.91131 0
M  V30 1550 H 141.124 2.35964 1.03337 0
M  V30 1551 H 141.082 1.71251 2.63668 0
M  V30 1552 N 144.854 0.36279 1.53368 0
M  V30 1553 C 145.787 -0.528507 2.21996 0
M  V30 1554 C 146.765 -1.0852 1.21087 0
M  V30 1555 O 147.949 -1.14186 1.4998 0
M  V30 1556 C 145.076 -1.72893 2.91249 0
M  V30 1557 C 144.122 -1.29994 4.06207 0
M  V30 1558 S 144.955 -0.303575 5.34639 0
M  V30 1559 C 146.111 -1.51039 6.07403 0
M  V30 1560 H 146.344 0.0543423 2.9725 0
M  V30 1561 H 143.877 0.146889 1.537 0
M  V30 1562 H 145.835 -2.41751 3.31763 0
M  V30 1563 H 144.496 -2.28303 2.15724 0
M  V30 1564 H 143.689 -2.19549 4.53667 0
M  V30 1565 H 143.291 -0.690608 3.67569 0
M  V30 1566 H 145.583 -2.44186 6.31965 0
M  V30 1567 H 146.526 -1.07721 6.99858 0
M  V30 1568 H 146.934 -1.71518 5.37812 0
M  V30 1569 N 146.332 -1.57332 0.0918853 0
M  V30 1570 C 147.578 -1.94524 -0.573425 0
M  V30 1571 C 147.911 -0.973578 -1.68033 0
M  V30 1572 O 147.186 -0.00609226 -1.94499 0
M  V30 1573 C 147.469 -3.41858 -1.13161 0
M  V30 1574 C 147.322 -4.4979 -0.0299747 0
M  V30 1575 C 148.641 -3.90435 -2.03098 0
M  V30 1576 H 145.76 -0.70734 -0.206975 0
M  V30 1577 H 148.402 -1.89309 0.161942 0
M  V30 1578 H 146.552 -3.46433 -1.7583 0
M  V30 1579 H 148.224 -4.57327 0.604112 0
M  V30 1580 H 146.467 -4.291 0.636833 0
M  V30 1581 H 147.138 -5.50069 -0.461287 0
M  V30 1582 H 149.614 -3.87992 -1.50338 0
M  V30 1583 H 148.49 -4.94097 -2.39081 0
M  V30 1584 H 148.751 -3.29541 -2.94712 0
M  V30 1585 N 147.81 0.181792 -1.56548 0
M  V30 1586 C 148.72 1.24538 -1.98815 0
M  V30 1587 C 149.736 1.49045 -0.897861 0
M  V30 1588 O 150.912 1.61399 -1.20467 0
M  V30 1589 C 147.977 2.56683 -2.33055 0
M  V30 1590 C 147.038 2.40131 -3.55859 0
M  V30 1591 C 146.271 3.65975 -3.88456 0
M  V30 1592 O 146.494 4.70711 -3.22161 0
M  V30 1593 O 145.428 3.6071 -4.81842 0
M  V30 1594 H 149.254 0.916647 -2.89536 0
M  V30 1595 H 146.839 0.387842 -1.44278 0
M  V30 1596 H 148.721 3.34655 -2.56094 0
M  V30 1597 H 147.396 2.89157 -1.45498 0
M  V30 1598 H 146.303 1.60226 -3.38051 0
M  V30 1599 H 147.636 2.12585 -4.43924 0
M  V30 1600 N 149.288 1.51039 0.449983 0
M  V30 1601 C 150.22 1.67617 1.56324 0
M  V30 1602 C 151.233 0.557083 1.52972 0
M  V30 1603 O 152.422 0.830989 1.57977 0
M  V30 1604 C 149.522 1.66402 2.95235 0
M  V30 1605 C 148.695 2.9469 3.23229 0
M  V30 1606 C 147.754 2.85832 4.41799 0
M  V30 1607 O 146.78 3.59785 4.41071 0
M  V30 1608 N 147.982 2.00821 5.44657 0
M  V30 1609 H 150.747 2.63648 1.42512 0
M  V30 1610 H 148.308 1.48767 0.638737 0
M  V30 1611 H 150.3 1.58062 3.72557 0
M  V30 1612 H 148.87 0.780182 3.02708 0
M  V30 1613 H 148.09 3.16996 2.34323 0
M  V30 1614 H 149.378 3.79636 3.38754 0
M  V30 1615 H 148.776 1.40091 5.48079 0
M  V30 1616 H 147.333 1.98368 6.20881 0
M  V30 1617 N 150.766 -0.704594 1.40972 0
M  V30 1618 C 151.699 -1.82861 1.36518 0
M  V30 1619 C 152.677 -1.6091 0.23382 0
M  V30 1620 O 153.861 -1.83778 0.419271 0
M  V30 1621 C 150.988 -3.1939 1.12729 0
M  V30 1622 C 150.034 -3.60148 2.28463 0
M  V30 1623 S 150.867 -3.65994 3.90907 0
M  V30 1624 C 152.023 -5.05264 3.69403 0
M  V30 1625 H 152.256 -1.86361 2.3164 0
M  V30 1626 H 149.789 -0.872439 1.27389 0
M  V30 1627 H 151.747 -3.98211 0.996893 0
M  V30 1628 H 150.408 -3.1351 0.192427 0
M  V30 1629 H 149.601 -4.59309 2.07489 0
M  V30 1630 H 149.203 -2.88612 2.37863 0
M  V30 1631 H 151.495 -5.92504 3.28551 0
M  V30 1632 H 152.438 -5.31278 4.68134 0
M  V30 1633 H 152.846 -4.76377 3.02862 0
M  V30 1634 N 152.244 -1.26651 -0.937939 0
M  V30 1635 C 153.194 -1.05156 -2.02302 0
M  V30 1636 C 154.178 0.0171233 -1.60891 0
M  V30 1637 O 155.37 -0.200213 -1.75864 0
M  V30 1638 C 152.499 -0.689962 -3.36295 0
M  V30 1639 C 151.585 -1.79626 -3.84181 0
M  V30 1640 N 151.976 -3.03422 -4.04684 0
M  V30 1641 C 150.274 -1.6806 -4.13124 0
M  V30 1642 C 150.975 -3.75345 -4.444 0
M  V30 1643 N 149.951 -3.03051 -4.51288 0
M  V30 1644 H 153.753 -1.99117 -2.1617 0
M  V30 1645 H 151.267 -1.17216 -1.12402 0
M  V30 1646 H 153.264 -0.517112 -4.13681 0
M  V30 1647 H 151.924 0.242139 -3.23796 0
M  V30 1648 H 152.935 -3.39293 -3.91281 0
M  V30 1649 H 149.612 -0.818629 -4.09396 0
M  V30 1650 H 151.002 -4.81691 -4.68427 0
M  V30 1651 N 153.722 1.14298 -1.08507 0
M  V30 1652 C 154.632 2.23027 -0.727753 0
M  V30 1653 C 155.648 1.71952 0.26619 0
M  V30 1654 O 156.824 2.011 0.109882 0
M  V30 1655 C 153.889 3.46403 -0.143541 0
M  V30 1656 C 152.95 4.12413 -1.19223 0
M  V30 1657 C 152.183 5.29899 -0.635798 0
M  V30 1658 O 152.406 5.67796 0.544393 0
M  V30 1659 O 151.34 5.85717 -1.38634 0
M  V30 1660 H 155.166 2.55945 -1.63481 0
M  V30 1661 H 152.751 1.22248 -0.858817 0
M  V30 1662 H 154.633 4.21018 0.179404 0
M  V30 1663 H 153.308 3.15206 0.736659 0
M  V30 1664 H 152.215 3.39667 -1.56772 0
M  V30 1665 H 153.548 4.47718 -2.04474 0
M  V30 1666 N 155.201 0.870884 1.31352 0
M  V30 1667 C 156.478 0.402907 1.91405 0
M  V30 1668 C 156.858 -1.11512 1.79244 0
M  V30 1669 O 156.206 -1.94411 1.2007 0
M  V30 1670 C 156.416 0.885301 3.37585 0
M  V30 1671 C 157.764 0.911971 4.14691 0
M  V30 1672 O 158.788 0.831016 3.46371 0
M  V30 1673 O 157.647 1.02927 5.3672 0
M  V30 1674 H 154.741 0.120698 0.818145 0
M  V30 1675 H 157.287 0.958857 1.40014 0
M  V30 1676 H 156.059 1.92889 3.40455 0
M  V30 1677 H 155.682 0.307714 3.96407 0
M  V30 1678 N 156.679 -1.44442 0.630414 0
M  V30 1679 C 157.928 -2.01267 0.132073 0
M  V30 1680 C 158.241 -1.50172 -1.25331 0
M  V30 1681 O 159.447 -1.9912 -1.84562 0
M  V30 1682 C 157.903 -3.59422 0.185362 0
M  V30 1683 C 157.511 -4.19514 1.57201 0
M  V30 1684 C 159.255 -4.23724 -0.256553 0
M  V30 1685 C 157.162 -5.69891 1.58045 0
M  V30 1686 H 156.092 -0.752619 0.0456092 0
M  V30 1687 H 158.743 -1.65666 0.789106 0
M  V30 1688 H 157.125 -3.92318 -0.538759 0
M  V30 1689 H 158.299 -3.98156 2.31966 0
M  V30 1690 H 156.614 -3.67496 1.95795 0
M  V30 1691 H 159.211 -5.34019 -0.269767 0
M  V30 1692 H 159.554 -3.96013 -1.28372 0
M  V30 1693 H 160.087 -3.95629 0.41505 0
M  V30 1694 H 156.826 -6.02336 2.58597 0
M  V30 1695 H 156.346 -5.93373 0.875725 0
M  V30 1696 H 158.025 -6.33515 1.31408 0
M  V30 1697 N 158.157 -0.370918 -1.53173 0
M  V30 1698 C 159.406 0.218249 -2.00516 0
M  V30 1699 C 159.719 1.49429 -1.26215 0
M  V30 1700 O 160.925 2.16239 -1.64174 0
M  V30 1701 C 159.381 0.43948 -3.57207 0
M  V30 1702 C 158.989 -0.822244 -4.4039 0
M  V30 1703 C 160.733 0.986012 -4.1289 0
M  V30 1704 C 158.64 -0.570304 -5.88644 0
M  V30 1705 H 157.57 0.0853333 -0.749156 0
M  V30 1706 H 160.221 -0.490483 -1.76823 0
M  V30 1707 H 158.603 1.20961 -3.77074 0
M  V30 1708 H 159.777 -1.59557 -4.32294 0
M  V30 1709 H 158.092 -1.29238 -3.95836 0
M  V30 1710 H 160.689 1.18991 -5.21292 0
M  V30 1711 H 161.032 1.94972 -3.6782 0
M  V30 1712 H 161.565 0.27592 -3.96842 0
M  V30 1713 H 158.304 -1.50449 -6.38001 0
M  V30 1714 H 157.824 0.164427 -5.99575 0
M  V30 1715 H 159.503 -0.19784 -6.46697 0
M  V30 1716 N 159.635 1.57281 -0.100228 0
M  V30 1717 C 160.86 1.99302 0.573881 0
M  V30 1718 C 161.285 0.979059 1.60611 0
M  V30 1719 O 160.643 -0.0517803 1.81226 0
M  V30 1720 C 160.691 3.40274 1.19358 0
M  V30 1721 O 159.795 3.41676 2.30935 0
M  V30 1722 H 159.136 0.647944 0.145138 0
M  V30 1723 H 161.666 2.03779 -0.183156 0
M  V30 1724 H 161.676 3.78078 1.53365 0
M  V30 1725 H 160.351 4.13594 0.437385 0
M  V30 1726 H 158.928 3.15672 1.98509 0
M  V30 1727 N 161.113 -0.173488 1.56642 0
M  V30 1728 C 162.043 -1.2171 1.99271 0
M  V30 1729 C 163.024 -1.46289 0.867959 0
M  V30 1730 O 164.209 -1.5766 1.13388 0
M  V30 1731 C 161.339 -2.55651 2.35074 0
M  V30 1732 C 160.293 -2.45645 3.50489 0
M  V30 1733 C 159.619 -3.84056 3.72028 0
M  V30 1734 C 160.919 -1.96302 4.84007 0
M  V30 1735 H 162.613 -0.86275 2.867 0
M  V30 1736 H 160.159 -0.413571 1.37933 0
M  V30 1737 H 162.112 -3.2886 2.63494 0
M  V30 1738 H 160.836 -2.92869 1.44552 0
M  V30 1739 H 159.495 -1.7489 3.22194 0
M  V30 1740 H 159.143 -4.18664 2.788 0
M  V30 1741 H 158.843 -3.7823 4.49684 0
M  V30 1742 H 160.367 -4.58854 4.02846 0
M  V30 1743 H 161.781 -2.59284 5.11317 0
M  V30 1744 H 160.178 -2.01429 5.65284 0
M  V30 1745 H 161.248 -0.917226 4.76146 0
M  V30 1746 N 162.591 -1.51276 -0.441967 0
M  V30 1747 C 163.837 -1.6492 -1.1905 0
M  V30 1748 C 164.192 -0.358731 -1.89026 0
M  V30 1749 O 163.485 0.645193 -1.8041 0
M  V30 1750 C 163.679 -2.78746 -2.23686 0
M  V30 1751 C 163.508 -4.18737 -1.63979 0
M  V30 1752 C 162.278 -4.84739 -1.42674 0
M  V30 1753 C 164.476 -5.01988 -1.11858 0
M  V30 1754 N 162.458 -6.08858 -0.785159 0
M  V30 1755 C 163.829 -6.17071 -0.601989 0
M  V30 1756 C 165.884 -4.87551 -1.0099 0
M  V30 1757 C 164.587 -7.19299 0.0126012 0
M  V30 1758 C 166.613 -5.89983 -0.409206 0
M  V30 1759 C 165.975 -7.04333 0.0968651 0
M  V30 1760 H 162.074 -0.657416 -0.423471 0
M  V30 1761 H 164.658 -1.8849 -0.48782 0
M  V30 1762 H 162.829 -2.56848 -2.91348 0
M  V30 1763 H 164.561 -2.81595 -2.90666 0
M  V30 1764 H 161.316 -4.42528 -1.68719 0
M  V30 1765 H 161.74 -6.75282 -0.481942 0
M  V30 1766 H 166.382 -3.99401 -1.38703 0
M  V30 1767 H 164.1 -8.071 0.401879 0
M  V30 1768 H 167.686 -5.8088 -0.327079 0
M  V30 1769 H 166.566 -7.82238 0.554373 0
M  V30 1770 N 164.069 0.697108 -1.41344 0
M  V30 1771 C 165.346 1.45154 -1.31109 0
M  V30 1772 C 165.726 2.11009 0.0620449 0
M  V30 1773 O 165.074 2.01571 1.07618 0
M  V30 1774 C 165.284 2.47223 -2.46337 0
M  V30 1775 C 166.632 3.1252 -2.87431 0
M  V30 1776 O 167.656 2.57547 -2.46065 0
M  V30 1777 O 166.515 4.12083 -3.58957 0
M  V30 1778 H 163.609 0.646365 -0.515889 0
M  V30 1779 H 166.155 0.727716 -1.53305 0
M  V30 1780 H 164.927 1.97204 -3.37974 0
M  V30 1781 H 164.55 3.27116 -2.2601 0
M  V30 1782 N 165.547 1.27147 0.931209 0
M  V30 1783 C 166.479 1.05364 2.03546 0
M  V30 1784 C 167.492 0.0108438 1.62796 0
M  V30 1785 O 168.681 0.25202 1.76712 0
M  V30 1786 C 165.781 0.575566 3.33977 0
M  V30 1787 C 164.954 1.68985 4.03439 0
M  V30 1788 C 164.013 1.20813 5.12143 0
M  V30 1789 O 163.039 1.90712 5.363 0
M  V30 1790 N 164.241 0.0618851 5.80467 0
M  V30 1791 H 167.006 2.00454 2.22796 0
M  V30 1792 H 164.567 1.18666 1.10136 0
M  V30 1793 H 166.559 0.237264 4.04004 0
M  V30 1794 H 165.129 -0.282016 3.11325 0
M  V30 1795 H 164.349 2.19861 3.27192 0
M  V30 1796 H 165.637 2.4378 4.46597 0
M  V30 1797 H 165.035 -0.521621 5.6329 0
M  V30 1798 H 163.592 -0.217264 6.51438 0
M  V30 1799 N 167.025 -1.13721 1.09112 0
M  V30 1800 C 168.25 -1.89314 0.847053 0
M  V30 1801 C 168.675 -1.78416 -0.595774 0
M  V30 1802 O 168.033 -1.12942 -1.41823 0
M  V30 1803 C 168.081 -3.3701 1.28284 0
M  V30 1804 O 167.185 -4.10054 0.439267 0
M  V30 1805 H 166.526 -0.588745 0.307044 0
M  V30 1806 H 169.056 -1.43902 1.45442 0
M  V30 1807 H 169.066 -3.87834 1.26683 0
M  V30 1808 H 167.741 -3.4426 2.33363 0
M  V30 1809 H 166.318 -3.69266 0.519312 0
M  V30 1810 N 168.503 -0.877838 -1.30888 0
M  V30 1811 C 169.433 -0.35534 -2.3078 0
M  V30 1812 C 170.414 0.557994 -1.60687 0
M  V30 1813 O 171.599 0.473355 -1.88343 0
M  V30 1814 C 168.729 0.437221 -3.44537 0
M  V30 1815 C 167.683 -0.383715 -4.26276 0
M  V30 1816 C 167.009 0.535014 -5.32017 0
M  V30 1817 C 168.309 -1.62201 -4.96476 0
M  V30 1818 H 170.003 -1.19007 -2.74732 0
M  V30 1819 H 167.549 -0.573698 -1.32078 0
M  V30 1820 H 169.502 0.813334 -4.13477 0
M  V30 1821 H 168.226 1.30553 -2.99372 0
M  V30 1822 H 166.885 -0.741874 -3.59015 0
M  V30 1823 H 166.533 1.40083 -4.831 0
M  V30 1824 H 166.233 -0.0104211 -5.87599 0
M  V30 1825 H 167.757 0.907799 -6.03814 0
M  V30 1826 H 169.171 -1.31689 -5.5797 0
M  V30 1827 H 167.568 -2.10711 -5.61891 0
M  V30 1828 H 168.638 -2.37044 -4.23011 0
M  V30 1829 N 169.982 1.44106 -0.638065 0
M  V30 1830 C 170.929 2.30715 0.062701 0
M  V30 1831 C 171.899 1.43882 0.829883 0
M  V30 1832 O 173.084 1.72775 0.809532 0
M  V30 1833 C 170.224 3.29258 1.03358 0
M  V30 1834 C 169.337 4.31192 0.26409 0
M  V30 1835 C 168.472 5.16825 1.22741 0
M  V30 1836 C 167.511 6.10462 0.447475 0
M  V30 1837 N 166.648 6.8877 1.36161 0
M  V30 1838 H 171.488 2.90096 -0.681781 0
M  V30 1839 H 169.025 1.42925 -0.347988 0
M  V30 1840 H 170.983 3.84886 1.60992 0
M  V30 1841 H 169.613 2.71562 1.74511 0
M  V30 1842 H 168.665 3.77981 -0.428295 0
M  V30 1843 H 169.977 4.97619 -0.343052 0
M  V30 1844 H 169.131 5.77004 1.87487 0
M  V30 1845 H 167.87 4.50488 1.86847 0
M  V30 1846 H 166.875 5.49386 -0.213433 0
M  V30 1847 H 168.1 6.78837 -0.188968 0
M  V30 1848 H 166.046 6.25096 1.98975 0
M  V30 1849 H 165.963 7.51663 0.808656 0
M  V30 1850 H 167.231 7.53467 1.99769 0
M  V30 1851 N 171.46 0.379036 1.52974 0
M  V30 1852 C 172.871 -0.0972525 1.86447 0
M  V30 1853 C 173.222 -1.47027 1.29914 0
M  V30 1854 O 172.347 -2.07135 0.626433 0
M  V30 1855 C 172.942 -0.183248 3.38304 0
M  V30 1856 C 171.501 -0.603812 3.71525 0
M  V30 1857 C 170.648 0.240632 2.76254 0
M  V30 1858 H 173.599 0.597316 1.4703 0
M  V30 1859 H 173.62 -1.00432 3.67006 0
M  V30 1860 H 173.132 0.816191 3.79421 0
M  V30 1861 H 171.233 -1.61099 3.35973 0
M  V30 1862 H 171.346 -0.369086 4.77676 0
M  V30 1863 H 169.71 -0.292548 2.53014 0
M  V30 1864 H 170.493 1.23786 3.20206 0
M  V30 1865 N 172.938 -1.57226 0.108567 0
M  V30 1866 C 174.178 -1.96717 -0.555155 0
M  V30 1867 C 174.542 -0.990003 -1.64508 0
M  V30 1868 O 175.743 -1.2739 -2.36696 0
M  V30 1869 C 174.014 -3.40575 -1.08367 0
M  V30 1870 S 175.573 -4.02072 -1.75737 0
M  V30 1871 H 172.391 -0.687638 -0.180762 0
M  V30 1872 H 174.993 -1.94563 0.191172 0
M  V30 1873 H 173.697 -4.0945 -0.279092 0
M  V30 1874 H 173.228 -3.46356 -1.86551 0
M  V30 1875 H 175.243 -3.91977 -3.04251 0
M  V30 1876 N 174.416 0.165178 -1.56732 0
M  V30 1877 C 175.662 0.882112 -1.82611 0
M  V30 1878 C 175.995 1.81628 -0.687378 0
M  V30 1879 O 175.27 1.92009 0.310267 0
M  V30 1880 C 175.553 1.67245 -3.18906 0
M  V30 1881 C 175.406 0.760987 -4.43316 0
M  V30 1882 C 176.725 2.63884 -3.52212 0
M  V30 1883 H 173.844 0.319242 -0.664269 0
M  V30 1884 H 176.486 0.148052 -1.89422 0
M  V30 1885 H 174.636 2.29824 -3.1323 0
M  V30 1886 H 176.308 0.147596 -4.61064 0
M  V30 1887 H 174.551 0.0694102 -4.33744 0
M  V30 1888 H 175.222 1.34962 -5.35247 0
M  V30 1889 H 177.698 2.11429 -3.58381 0
M  V30 1890 H 176.574 3.16245 -4.48643 0
M  V30 1891 H 176.835 3.44377 -2.77231 0
M  V30 1892 N 175.894 1.51508 0.433938 0
M  V30 1893 C 176.841 1.73068 1.52696 0
M  V30 1894 C 177.811 0.572441 1.55924 0
M  V30 1895 O 178.996 0.807253 1.72882 0
M  V30 1896 C 176.136 1.86474 2.90381 0
M  V30 1897 C 175.249 3.14037 2.96656 0
M  V30 1898 C 174.384 3.18019 4.25485 0
M  V30 1899 C 173.423 4.39882 4.2564 0
M  V30 1900 N 172.56 4.41394 5.45999 0
M  V30 1901 H 177.4 2.66366 1.33615 0
M  V30 1902 H 174.937 1.32008 0.649018 0
M  V30 1903 H 176.895 1.92229 3.70275 0
M  V30 1904 H 175.525 0.965809 3.08013 0
M  V30 1905 H 174.577 3.17575 2.09404 0
M  V30 1906 H 175.889 4.0394 2.92633 0
M  V30 1907 H 175.043 3.22708 5.13755 0
M  V30 1908 H 173.782 2.2601 4.3217 0
M  V30 1909 H 172.787 4.35366 3.35763 0
M  V30 1910 H 174.012 5.33159 4.20617 0
M  V30 1911 H 171.958 3.52258 5.53399 0
M  V30 1912 H 171.875 5.25111 5.4387 0
M  V30 1913 H 173.143 4.50281 6.36292 0
M  V30 1914 N 177.372 -0.689602 1.41712 0
M  V30 1915 C 178.302 -1.81577 1.46806 0
M  V30 1916 C 179.283 -1.66945 0.326105 0
M  V30 1917 O 180.468 -1.86588 0.538377 0
M  V30 1918 C 177.598 -3.19762 1.35535 0
M  V30 1919 C 176.552 -3.49107 2.47605 0
M  V30 1920 C 175.878 -4.86711 2.21397 0
M  V30 1921 C 177.178 -3.47483 3.89939 0
M  V30 1922 H 178.872 -1.7757 2.41058 0
M  V30 1923 H 176.418 -0.852887 1.16025 0
M  V30 1924 H 178.371 -3.98263 1.3771 0
M  V30 1925 H 177.095 -3.24409 0.377708 0
M  V30 1926 H 175.754 -2.72959 2.44722 0
M  V30 1927 H 175.402 -4.8799 1.21961 0
M  V30 1928 H 175.102 -5.0731 2.96497 0
M  V30 1929 H 176.626 -5.67515 2.25297 0
M  V30 1930 H 178.04 -4.1598 3.94505 0
M  V30 1931 H 176.437 -3.79615 4.64771 0
M  V30 1932 H 177.507 -2.46341 4.17665 0
M  V30 1933 N 178.85 -1.27639 -0.924453 0
M  V30 1934 C 180.078 -1.16989 -1.70649 0
M  V30 1935 C 180.493 0.272869 -1.86818 0
M  V30 1936 O 179.85 1.18549 -1.38753 0
M  V30 1937 C 179.901 -1.85229 -3.10439 0
M  V30 1938 O 179.622 -3.23868 -2.95028 0
M  V30 1939 C 181.123 -1.80746 -4.04779 0
M  V30 1940 H 178.343 -0.406595 -0.53378 0
M  V30 1941 H 180.887 -1.68569 -1.15778 0
M  V30 1942 H 179.042 -1.37545 -3.6216 0
M  V30 1943 H 179.456 -3.57889 -3.83426 0
M  V30 1944 H 180.93 -2.33101 -5.00368 0
M  V30 1945 H 181.407 -0.777499 -4.32263 0
M  V30 1946 H 182.013 -2.28059 -3.58984 0
M  V30 1947 N 180.328 1.1314 -1.09713 0
M  V30 1948 C 181.739 1.66029 -0.853885 0
M  V30 1949 C 182.09 1.86241 0.617142 0
M  V30 1950 O 181.215 1.5834 1.47503 0
M  V30 1951 C 181.81 3.01599 -1.5435 0
M  V30 1952 C 180.369 3.51467 -1.34714 0
M  V30 1953 C 179.516 2.26648 -1.59769 0
M  V30 1954 H 182.467 0.970226 -1.25588 0
M  V30 1955 H 182.488 3.67709 -0.978267 0
M  V30 1956 H 182 2.86856 -2.6141 0
M  V30 1957 H 180.101 3.71408 -0.297838 0
M  V30 1958 H 180.214 4.314 -2.08401 0
M  V30 1959 H 178.578 2.33385 -1.01998 0
M  V30 1960 H 179.361 2.14467 -2.68065 0
M  V30 1961 N 181.806 0.884767 1.30421 0
M  V30 1962 C 182.736 0.367574 2.30589 0
M  V30 1963 C 183.717 -0.549464 1.60981 0
M  V30 1964 O 184.902 -0.46336 1.88591 0
M  V30 1965 C 182.032 -0.418944 3.44764 0
M  V30 1966 C 180.986 0.406316 4.26067 0
M  V30 1967 C 180.312 -0.506793 5.32293 0
M  V30 1968 C 181.612 1.64832 4.95608 0
M  V30 1969 H 183.306 1.20462 2.74097 0
M  V30 1970 H 180.852 0.580695 1.31772 0
M  V30 1971 H 182.805 -0.791395 4.13902 0
M  V30 1972 H 181.529 -1.28964 3.0006 0
M  V30 1973 H 180.188 0.760903 3.58617 0
M  V30 1974 H 179.836 -1.37519 4.83836 0
M  V30 1975 H 179.536 0.0415828 5.87585 0
M  V30 1976 H 181.06 -0.875764 6.04287 0
M  V30 1977 H 182.474 1.34646 5.57264 0
M  V30 1978 H 180.871 2.13688 5.60765 0
M  V30 1979 H 181.941 2.39284 4.21748 0
M  V30 1980 N 183.284 -1.43765 0.645699 0
M  V30 1981 C 184.524 -2.03776 0.159542 0
M  V30 1982 C 184.888 -1.49792 -1.2011 0
M  V30 1983 O 186.089 -2.01398 -1.78023 0
M  V30 1984 C 184.36 -3.57036 0.161251 0
M  V30 1985 S 185.919 -4.3804 -0.258159 0
M  V30 1986 H 182.737 -0.707717 0.0682454 0
M  V30 1987 H 185.339 -1.75941 0.852352 0
M  V30 1988 H 184.043 -3.9383 1.15439 0
M  V30 1989 H 183.574 -3.89503 -0.552339 0
M  V30 1990 H 185.589 -4.7302 -1.49889 0
M  V30 1991 N 184.763 -0.387143 -1.52771 0
M  V30 1992 C 186.009 0.196025 -2.0185 0
M  V30 1993 C 186.342 1.46641 -1.27319 0
M  V30 1994 O 185.617 1.90889 -0.373032 0
M  V30 1995 C 185.9 0.466136 -3.5707 0
M  V30 1996 C 185.753 -0.819385 -4.42274 0
M  V30 1997 C 187.072 1.25768 -4.21747 0
M  V30 1998 H 184.191 0.0697708 -0.73369 0
M  V30 1999 H 186.833 -0.516286 -1.82851 0
M  V30 2000 H 184.983 1.07293 -3.7339 0
M  V30 2001 H 186.655 -1.4563 -4.37709 0
M  V30 2002 H 184.898 -1.43517 -4.09372 0
M  V30 2003 H 185.569 -0.585065 -5.48891 0
M  V30 2004 H 188.045 0.744167 -4.09391 0
M  V30 2005 H 186.921 1.41541 -5.30337 0
M  V30 2006 H 187.182 2.27228 -3.79236 0
M  V30 2007 N 186.241 1.57166 -0.116904 0
M  V30 2008 C 187.469 1.99473 0.549383 0
M  V30 2009 C 187.884 0.996541 1.60357 0
M  V30 2010 O 187.241 -0.0108731 1.82497 0
M  V30 2011 C 187.292 3.41788 1.17741 0
M  V30 2012 O 187.013 4.37788 0.165362 0
M  V30 2013 C 188.514 3.99216 1.92722 0
M  V30 2014 H 185.734 0.655009 0.145616 0
M  V30 2015 H 188.278 2.03494 -0.202625 0
M  V30 2016 H 186.433 3.38713 1.88021 0
M  V30 2017 H 186.847 5.20806 0.621403 0
M  V30 2018 H 188.321 5.00882 2.31995 0
M  V30 2019 H 188.798 3.3824 2.80161 0
M  V30 2020 H 189.404 4.0583 1.27209 0
M  V30 2021 N 187.719 -0.156864 1.56817 0
M  V30 2022 C 188.649 -1.19589 2.00551 0
M  V30 2023 C 189.63 -1.4536 0.883426 0
M  V30 2024 O 190.815 -1.56449 1.15054 0
M  V30 2025 C 187.945 -2.53143 2.37773 0
M  V30 2026 C 186.899 -2.41913 3.53075 0
M  V30 2027 C 186.225 -3.80088 3.76081 0
M  V30 2028 C 187.525 -1.91157 4.86062 0
M  V30 2029 H 189.219 -0.832293 2.87599 0
M  V30 2030 H 186.765 -0.398918 1.38364 0
M  V30 2031 H 188.718 -3.26047 2.66967 0
M  V30 2032 H 187.442 -2.91319 1.4765 0
M  V30 2033 H 186.101 -1.71462 3.24031 0
M  V30 2034 H 185.749 -4.15683 2.83225 0
M  V30 2035 H 185.449 -3.73439 4.53671 0
M  V30 2036 H 186.973 -4.54556 4.0769 0
M  V30 2037 H 188.387 -2.53846 5.14038 0
M  V30 2038 H 186.784 -1.95422 5.67389 0
M  V30 2039 H 187.854 -0.866673 4.77092 0
M  V30 2040 N 189.197 -1.51736 -0.425897 0
M  V30 2041 C 190.145 -1.74464 -1.53834 0
M  V30 2042 C 191.139 -0.611241 -1.57988 0
M  V30 2043 O 192.345 -0.792899 -1.61596 0
M  V30 2044 H 188.72 -0.551437 -0.511293 0
M  V30 2045 H 190.691 -2.67694 -1.31843 0
M  V30 2046 C 189.44 -1.8972 -2.91379 0
M  V30 2047 H 188.763 -2.76344 -2.88919 0
M  V30 2048 H 190.203 -2.09629 -3.68553 0
M  V30 2049 C 188.662 -0.65992 -3.30374 0
M  V30 2050 O 189.192 0.180083 -4.01296 0
M  V30 2051 N 187.398 -0.500677 -2.86254 0
M  V30 2052 H 186.945 -1.18532 -2.28709 0
M  V30 2053 H 186.903 0.325903 -3.12706 0
M  V30 2054 N 190.675 0.682077 -1.42076 0
M  V30 2055 C 191.915 1.45424 -1.43636 0
M  V30 2056 C 192.279 1.91939 -0.0484001 0
M  V30 2057 O 193.48 2.6873 0.0612514 0
M  V30 2058 C 191.751 2.62427 -2.42625 0
M  V30 2059 S 193.31 3.51379 -2.62827 0
M  V30 2060 H 190.128 0.496779 -0.508657 0
M  V30 2061 H 192.73 0.794645 -1.78621 0
M  V30 2062 H 191.434 2.26481 -3.42249 0
M  V30 2063 H 190.965 3.33266 -2.09039 0
M  V30 2064 H 192.98 4.58141 -1.9058 0
M  V30 2065 N 192.153 1.28127 0.917671 0
M  V30 2066 C 193.381 1.17892 1.70026 0
M  V30 2067 C 193.796 -0.262958 1.8696 0
M  V30 2068 O 193.153 -1.17811 1.3938 0
M  V30 2069 C 193.204 1.86872 3.09453 0
M  V30 2070 O 192.925 3.25428 2.93306 0
M  V30 2071 C 194.426 1.8289 4.03815 0
M  V30 2072 H 191.646 0.40942 0.531617 0
M  V30 2073 H 194.19 1.69181 1.14883 0
M  V30 2074 H 192.345 1.39464 3.61426 0
M  V30 2075 H 192.759 3.59918 3.81523 0
M  V30 2076 H 194.233 2.35751 4.99125 0
M  V30 2077 H 194.71 0.800412 4.31845 0
M  V30 2078 H 195.316 2.29959 3.57769 0
M  V30 2079 N 193.631 -1.12557 1.10312 0
M  V30 2080 C 194.908 -1.80363 0.756878 0
M  V30 2081 C 195.288 -1.97067 -0.756824 0
M  V30 2082 O 194.636 -1.54601 -1.68259 0
M  V30 2083 C 194.846 -3.14812 1.50647 0
M  V30 2084 C 196.194 -3.90029 1.67817 0
M  V30 2085 O 197.218 -3.24464 1.46974 0
M  V30 2086 O 196.077 -5.07652 2.02365 0
M  V30 2087 H 193.171 -0.780667 0.272926 0
M  V30 2088 H 195.717 -1.19404 1.20586 0
M  V30 2089 H 194.489 -2.97936 2.53672 0
M  V30 2090 H 194.112 -3.83478 1.05026 0
M  V30 2091 N 195.109 -0.891671 -1.2995 0
M  V30 2092 C 196.039 -0.379797 -2.30391 0
M  V30 2093 C 197.02 0.540919 -1.6127 0
M  V30 2094 O 198.205 0.453352 -1.88834 0
M  V30 2095 C 195.335 0.400654 -3.44981 0
M  V30 2096 C 194.289 -0.428905 -4.25846 0
M  V30 2097 C 193.615 0.478557 -5.32554 0
M  V30 2098 C 194.915 -1.67458 -4.94727 0
M  V30 2099 H 196.609 -1.21914 -2.73454 0
M  V30 2100 H 194.155 -0.587675 -1.31462 0
M  V30 2101 H 196.108 0.769434 -4.14316 0
M  V30 2102 H 194.832 1.27371 -3.0074 0
M  V30 2103 H 193.491 -0.779911 -3.58208 0
M  V30 2104 H 193.139 1.34951 -4.84559 0
M  V30 2105 H 192.839 -0.0727433 -5.87555 0
M  V30 2106 H 194.363 0.843705 -6.04743 0
M  V30 2107 H 195.777 -1.376 -5.56542 0
M  V30 2108 H 194.174 -2.16659 -5.59624 0
M  V30 2109 H 195.244 -2.41518 -4.20473 0
M  V30 2110 N 196.587 1.43421 -0.653314 0
M  V30 2111 C 198.003 1.56341 -0.320886 0
M  V30 2112 C 198.203 1.63696 1.17499 0
M  V30 2113 O 197.259 1.59208 1.95982 0
M  V30 2114 C 198.572 2.82424 -1.03233 0
M  V30 2115 C 200.12 2.96168 -1.01259 0
M  V30 2116 C 200.595 4.25084 -1.70492 0
M  V30 2117 N 202.086 4.31948 -1.67257 0
M  V30 2118 C 202.821 5.30466 -2.17701 0
M  V30 2119 N 202.317 6.35261 -2.76434 0
M  V30 2120 N 204.11 5.2212 -2.082 0
M  V30 2121 H 196.261 1.3689 -1.62403 0
M  V30 2122 H 198.524 0.657455 -0.682977 0
M  V30 2123 H 198.23 2.83053 -2.08744 0
M  V30 2124 H 198.104 3.72653 -0.583948 0
M  V30 2125 H 200.491 2.9508 0.0341235 0
M  V30 2126 H 200.572 2.07229 -1.49966 0
M  V30 2127 H 200.216 4.26932 -2.7512 0
M  V30 2128 H 200.146 5.1292 -1.19251 0
M  V30 2129 H 202.637 3.56838 -1.24398 0
M  V30 2130 H 202.95 7.06754 -3.12601 0
M  V30 2131 H 201.295 6.35884 -2.80495 0
M  V30 2132 H 204.486 4.39166 -1.62021 0
M  V30 2133 H 204.659 5.98739 -2.47822 0
M  V30 2134 N 198.065 0.39524 1.52563 0
M  V30 2135 C 199.013 -0.451859 2.28169 0
M  V30 2136 C 200.007 -1.05792 1.32304 0
M  V30 2137 O 201.213 -0.997718 1.49818 0
M  V30 2138 H 197.588 -0.164481 0.733792 0
M  V30 2139 H 199.559 0.207199 2.9768 0
M  V30 2140 C 198.308 -1.56385 3.10546 0
M  V30 2141 H 197.631 -1.10682 3.84174 0
M  V30 2142 H 199.071 -2.13067 3.66577 0
M  V30 2143 C 197.53 -2.52328 2.23231 0
M  V30 2144 O 198.06 -3.5588 1.86312 0
M  V30 2145 N 196.266 -2.22209 1.87274 0
M  V30 2146 H 195.813 -1.38033 2.17496 0
M  V30 2147 H 195.771 -2.86652 1.29143 0
M  V30 2148 N 199.544 -1.57102 0.125237 0
M  V30 2149 C 200.507 -2.14471 -0.80838 0
M  V30 2150 C 201.507 -1.0811 -1.19033 0
M  V30 2151 O 202.697 -1.33856 -1.11482 0
M  V30 2152 C 199.829 -2.69005 -2.09402 0
M  V30 2153 H 201.022 -2.98297 -0.309696 0
M  V30 2154 H 198.575 -1.55807 -0.124051 0
M  V30 2155 H 199.31 -1.88785 -2.63687 0
M  V30 2156 H 199.095 -3.46799 -1.82957 0
M  V30 2157 H 200.585 -3.13278 -2.76128 0
M  V30 2158 N 201.022 0.148545 -1.56898 0
M  V30 2159 C 202.25 0.876389 -1.87422 0
M  V30 2160 C 202.665 1.74809 -0.713256 0
M  V30 2161 O 202.022 1.79725 0.317025 0
M  V30 2162 C 202.073 1.73438 -3.17178 0
M  V30 2163 O 201.794 0.897809 -4.28802 0
M  V30 2164 C 203.295 2.56993 -3.61205 0
M  V30 2165 H 200.515 0.253489 -0.621277 0
M  V30 2166 H 203.059 0.141798 -2.04008 0
M  V30 2167 H 201.214 2.42205 -3.0235 0
M  V30 2168 H 201.628 1.48672 -5.02988 0
M  V30 2169 H 203.102 3.12773 -4.54838 0
M  V30 2170 H 203.579 3.32958 -2.86419 0
M  V30 2171 H 204.185 1.9352 -3.78722 0
M  V30 2172 N 202.5 1.5196 0.417844 0
M  V30 2173 C 203.448 1.75278 1.52907 0
M  V30 2174 C 204.442 0.619611 1.57662 0
M  V30 2175 O 205.648 0.801457 1.61173 0
M  V30 2176 H 202.023 0.554141 0.508362 0
M  V30 2177 H 203.994 2.68389 1.30422 0
M  V30 2178 C 202.743 1.91262 2.90369 0
M  V30 2179 H 202.066 2.77872 2.8745 0
M  V30 2180 H 203.506 2.11581 3.67436 0
M  V30 2181 C 201.965 0.677431 3.30019 0
M  V30 2182 O 202.495 -0.158799 4.01386 0
M  V30 2183 N 200.701 0.515851 2.85985 0
M  V30 2184 H 200.248 1.19744 2.28077 0
M  V30 2185 H 200.206 -0.309315 3.12875 0
M  V30 2186 N 203.978 -0.674533 1.42435 0
M  V30 2187 C 205.206 -1.46283 1.46317 0
M  V30 2188 C 205.621 -1.88653 0.0745836 0
M  V30 2189 O 204.978 -1.58151 -0.91074 0
M  V30 2190 C 205.029 -2.71178 2.3905 0
M  V30 2191 O 204.75 -2.30586 3.72507 0
M  V30 2192 C 206.251 -3.64738 2.51955 0
M  V30 2193 H 203.471 -0.450104 0.497642 0
M  V30 2194 H 206.015 -0.828792 1.86953 0
M  V30 2195 H 204.17 -3.3077 2.01667 0
M  V30 2196 H 204.584 -3.11241 4.22172 0
M  V30 2197 H 206.058 -4.49096 3.20962 0
M  V30 2198 H 206.535 -4.10656 1.55752 0
M  V30 2199 H 207.141 -3.11038 2.90061 0
M  V30 2200 N 205.456 -1.28612 -0.910864 0
M  V30 2201 C 206.684 -1.18792 -1.69399 0
M  V30 2202 C 207.099 0.253039 -1.87097 0
M  V30 2203 O 206.456 1.17071 -1.40003 0
M  V30 2204 C 206.507 -1.88511 -3.08457 0
M  V30 2205 O 206.228 -3.26979 -2.91576 0
M  V30 2206 C 207.729 -1.85029 -4.02839 0
M  V30 2207 H 204.949 -0.412233 -0.529438 0
M  V30 2208 H 207.493 -1.69788 -1.13984 0
M  V30 2209 H 205.648 -1.41379 -3.60681 0
M  V30 2210 H 206.062 -3.61936 -3.79608 0
M  V30 2211 H 207.536 -2.38395 -4.97867 0
M  V30 2212 H 208.013 -0.823303 -4.31414 0
M  V30 2213 H 208.619 -2.31853 -3.56545 0
M  V30 2214 N 206.934 1.1197 -1.10907 0
M  V30 2215 C 208.159 1.87942 -0.877064 0
M  V30 2216 C 208.584 1.79341 0.567314 0
M  V30 2217 O 207.942 1.15184 1.40009 0
M  V30 2218 C 207.99 3.34926 -1.33629 0
M  V30 2219 O 207.094 4.09303 -0.504447 0
M  V30 2220 H 206.435 0.583785 -0.316371 0
M  V30 2221 H 208.965 1.4157 -1.47712 0
M  V30 2222 H 208.975 3.8577 -1.32837 0
M  V30 2223 H 207.65 3.40504 -2.3881 0
M  V30 2224 H 206.227 3.68393 -0.577993 0
M  V30 2225 N 208.412 0.89855 1.29475 0
M  V30 2226 C 209.637 0.538561 2.00285 0
M  V30 2227 C 210.062 -0.869135 1.66816 0
M  V30 2228 O 209.42 -1.57831 0.892145 0
M  V30 2229 C 209.468 0.736475 3.52999 0
M  V30 2230 O 208.572 -0.211537 4.11857 0
M  V30 2231 H 207.913 0.210563 0.62973 0
M  V30 2232 H 210.443 1.20982 1.64998 0
M  V30 2233 H 210.453 0.640685 4.02938 0
M  V30 2234 H 209.128 1.76276 3.76696 0
M  V30 2235 H 207.705 -0.0682991 3.72837 0
M  V30 2236 N 209.89 -1.43072 0.660911 0
M  V30 2237 C 211.115 -2.06584 0.183805 0
M  V30 2238 C 211.54 -1.49257 -1.14472 0
M  V30 2239 O 210.898 -0.605528 -1.70889 0
M  V30 2240 C 210.946 -3.60418 0.114434 0
M  V30 2241 O 210.05 -4.01981 -0.921137 0
M  V30 2242 H 209.391 -0.656669 0.0983994 0
M  V30 2243 H 211.921 -1.83447 0.906006 0
M  V30 2244 H 211.931 -4.07946 -0.0663394 0
M  V30 2245 H 210.606 -4.01519 1.08422 0
M  V30 2246 H 209.183 -3.66029 -0.71253 0
M  V30 2247 N 211.368 -0.403325 -1.52352 0
M  V30 2248 C 212.614 0.167015 -2.02713 0
M  V30 2249 C 212.969 1.43296 -1.28391 0
M  V30 2250 O 212.262 1.87796 -0.379885 0
M  V30 2251 C 212.456 0.474665 -3.54234 0
M  V30 2252 C 212.285 -0.759909 -4.43233 0
M  V30 2253 C 211.055 -1.28338 -4.88731 0
M  V30 2254 C 213.253 -1.63634 -4.87574 0
M  V30 2255 N 211.235 -2.47404 -5.6184 0
M  V30 2256 C 212.606 -2.67329 -5.59406 0
M  V30 2257 C 214.661 -1.65478 -4.69597 0
M  V30 2258 C 213.364 -3.72773 -6.15169 0
M  V30 2259 C 215.39 -2.69837 -5.26253 0
M  V30 2260 C 214.752 -3.72253 -5.98002 0
M  V30 2261 H 210.851 0.0228343 -0.781667 0
M  V30 2262 H 213.435 -0.556368 -1.86581 0
M  V30 2263 H 211.606 1.16709 -3.7045 0
M  V30 2264 H 213.338 1.03338 -3.91284 0
M  V30 2265 H 210.093 -0.842273 -4.6605 0
M  V30 2266 H 210.517 -3.07688 -6.0304 0
M  V30 2267 H 215.159 -0.876389 -4.13617 0
M  V30 2268 H 212.877 -4.51471 -6.70223 0
M  V30 2269 H 216.463 -2.72164 -5.14216 0
M  V30 2270 H 215.343 -4.51679 -6.41058 0
M  V30 2271 N 212.846 1.57033 -0.133567 0
M  V30 2272 C 213.756 2.19632 0.824564 0
M  V30 2273 C 214.772 1.17666 1.28182 0
M  V30 2274 O 215.948 1.50193 1.3418 0
M  V30 2275 C 213.013 2.79499 2.05137 0
M  V30 2276 C 212.074 3.96548 1.64464 0
M  V30 2277 C 211.307 4.5355 2.81297 0
M  V30 2278 O 211.53 4.09438 3.97136 0
M  V30 2279 O 210.464 5.44018 2.57542 0
M  V30 2280 H 214.29 3.01991 0.321766 0
M  V30 2281 H 211.875 1.49112 0.0927889 0
M  V30 2282 H 213.757 3.17602 2.7696 0
M  V30 2283 H 212.432 2.00162 2.54395 0
M  V30 2284 H 211.339 3.63186 0.897048 0
M  V30 2285 H 212.672 4.77364 1.19934 0
M  V30 2286 N 214.325 -0.140222 1.56975 0
M  V30 2287 C 215.553 -0.866437 1.87884 0
M  V30 2288 C 215.968 -1.74428 0.722517 0
M  V30 2289 O 215.325 -1.79891 -0.30749 0
M  V30 2290 C 215.376 -1.71753 3.18093 0
M  V30 2291 O 215.097 -0.875056 4.29272 0
M  V30 2292 C 216.598 -2.55074 3.62563 0
M  V30 2293 H 213.818 -0.25019 0.622612 0
M  V30 2294 H 216.362 -0.130977 2.0408 0
M  V30 2295 H 214.517 -2.40598 3.03631 0
M  V30 2296 H 214.931 -1.46002 5.03769 0
M  V30 2297 H 216.405 -3.10356 4.5649 0
M  V30 2298 H 216.882 -3.31434 2.88181 0
M  V30 2299 H 217.488 -1.91509 3.79743 0
M  V30 2300 N 215.803 -1.52179 -0.40978 0
M  V30 2301 C 216.736 -1.70196 -1.52015 0
M  V30 2302 C 217.714 -0.549542 -1.53032 0
M  V30 2303 O 218.898 -0.776815 -1.71749 0
M  V30 2304 C 216.025 -1.74069 -2.90547 0
M  V30 2305 C 215.071 -2.95601 -3.07445 0
M  V30 2306 S 215.904 -4.55956 -2.80827 0
M  V30 2307 C 217.06 -4.62614 -4.21591 0
M  V30 2308 H 217.293 -2.64109 -1.36504 0
M  V30 2309 H 214.826 -1.4221 -0.601312 0
M  V30 2310 H 216.784 -1.76985 -3.70387 0
M  V30 2311 H 215.445 -0.812835 -3.034 0
M  V30 2312 H 214.638 -2.94791 -4.08796 0
M  V30 2313 H 214.24 -2.90569 -2.35469 0
M  V30 2314 H 216.532 -4.39951 -5.15218 0
M  V30 2315 H 217.475 -5.64548 -4.27424 0
M  V30 2316 H 217.883 -3.91654 -4.06531 0
M  V30 2317 N 217.281 0.66697 -1.42791 0
M  V30 2318 C 218.191 1.80962 -1.49299 0
M  V30 2319 C 219.207 1.69775 -0.381108 0
M  V30 2320 O 220.383 1.91188 -0.633188 0
M  V30 2321 C 217.448 3.17156 -1.40045 0
M  V30 2322 C 216.509 3.40242 -2.6179 0
M  V30 2323 C 215.742 4.69939 -2.52969 0
M  V30 2324 O 215.965 5.48372 -1.56985 0
M  V30 2325 O 214.899 4.94441 -3.43237 0
M  V30 2326 H 218.725 1.78427 -2.45759 0
M  V30 2327 H 216.31 0.823713 -1.24641 0
M  V30 2328 H 218.192 3.98413 -1.37276 0
M  V30 2329 H 216.867 3.20312 -0.467138 0
M  V30 2330 H 215.774 2.58802 -2.70134 0
M  V30 2331 H 217.107 3.41923 -3.54047 0
M  V30 2332 N 218.759 1.29093 0.90403 0
M  V30 2333 C 219.706 1.13853 2.00764 0
M  V30 2334 C 220.676 0.0330084 1.66067 0
M  V30 2335 O 221.861 0.199733 1.89752 0
M  V30 2336 C 219.001 0.816537 3.35301 0
M  V30 2337 C 218.114 2.00206 3.82807 0
M  V30 2338 C 217.249 1.61983 5.059 0
M  V30 2339 C 216.288 2.77143 5.45764 0
M  V30 2340 N 215.425 2.39346 6.60044 0
M  V30 2341 H 220.265 2.08276 2.13132 0
M  V30 2342 H 217.802 1.03648 1.04381 0
M  V30 2343 H 219.76 0.610557 4.12708 0
M  V30 2344 H 218.39 -0.090779 3.22672 0
M  V30 2345 H 217.442 2.31988 3.01473 0
M  V30 2346 H 218.754 2.86512 4.08304 0
M  V30 2347 H 217.908 1.37649 5.90879 0
M  V30 2348 H 216.647 0.728202 4.82233 0
M  V30 2349 H 215.652 3.02165 4.59322 0
M  V30 2350 H 216.877 3.66964 5.71414 0
M  V30 2351 H 214.823 1.52665 6.37989 0
M  V30 2352 H 214.74 3.19185 6.85315 0
M  V30 2353 H 216.008 2.1832 7.48303 0
M  V30 2354 N 220.237 -1.11381 1.11499 0
M  V30 2355 C 221.485 -1.8277 0.862524 0
M  V30 2356 C 221.806 -1.85097 -0.613534 0
M  V30 2357 O 221.076 -1.32198 -1.4457 0
M  V30 2358 H 219.656 -0.676823 0.316101 0
M  V30 2359 H 222.318 -1.34816 1.4075 0
M  V30 2360 H 221.414 -2.86614 1.23527 0
M  V30 2361 N 221.715 -0.905404 -1.28997 0
M  V30 2362 C 222.625 -0.392246 -2.31298 0
M  V30 2363 C 223.641 0.515889 -1.66176 0
M  V30 2364 O 224.817 0.404093 -1.97304 0
M  V30 2365 C 221.882 0.36686 -3.44754 0
M  V30 2366 C 220.943 -0.573485 -4.25452 0
M  V30 2367 C 220.176 0.149488 -5.33491 0
M  V30 2368 O 220.399 1.37255 -5.5364 0
M  V30 2369 O 219.333 -0.510919 -5.99728 0
M  V30 2370 H 223.159 -1.2411 -2.77183 0
M  V30 2371 H 220.744 -0.669926 -1.33538 0
M  V30 2372 H 222.626 0.795907 -4.13816 0
M  V30 2373 H 221.301 1.19169 -3.00966 0
M  V30 2374 H 220.208 -1.05176 -3.59011 0
M  V30 2375 H 221.541 -1.36489 -4.72897 0
M  V30 2376 N 223.193 1.4272 -0.668489 0
M  V30 2377 C 224.442 2.00846 -0.185389 0
M  V30 2378 C 224.755 1.53442 1.21305 0
M  V30 2379 O 225.961 2.03944 1.79218 0
M  V30 2380 C 224.417 3.58805 -0.280591 0
M  V30 2381 C 224.025 4.15198 -1.68268 0
M  V30 2382 C 225.769 4.24255 0.14412 0
M  V30 2383 C 223.676 5.655 -1.73099 0
M  V30 2384 H 222.606 0.751145 -0.0655475 0
M  V30 2385 H 225.257 1.63516 -0.832752 0
M  V30 2386 H 223.639 3.93608 0.434553 0
M  V30 2387 H 224.813 3.91866 -2.42441 0
M  V30 2388 H 223.128 3.62176 -2.05469 0
M  V30 2389 H 225.725 5.34547 0.128086 0
M  V30 2390 H 226.068 3.99277 1.17827 0
M  V30 2391 H 226.601 3.94389 -0.519798 0
M  V30 2392 H 223.34 5.95268 -2.74475 0
M  V30 2393 H 222.86 5.90842 -1.03274 0
M  V30 2394 H 224.539 6.29808 -1.48158 0
M  V30 2395 N 224.671 0.411399 1.52136 0
M  V30 2396 C 225.618 -0.412975 2.27075 0
M  V30 2397 C 226.588 -1.03912 1.29582 0
M  V30 2398 O 227.773 -1.06296 1.58448 0
M  V30 2399 C 224.913 -1.52247 3.09701 0
M  V30 2400 C 224.026 -0.917021 4.22155 0
M  V30 2401 C 223.161 -1.9994 4.92135 0
M  V30 2402 C 222.2 -1.37101 5.96548 0
M  V30 2403 N 221.337 -2.39364 6.60038 0
M  V30 2404 H 226.177 0.232499 2.97092 0
M  V30 2405 H 223.714 0.126496 1.46555 0
M  V30 2406 H 225.672 -2.17674 3.55913 0
M  V30 2407 H 224.302 -2.13794 2.41851 0
M  V30 2408 H 223.354 -0.151742 3.80097 0
M  V30 2409 H 224.666 -0.418006 4.97045 0
M  V30 2410 H 223.82 -2.73088 5.41763 0
M  V30 2411 H 222.559 -2.53208 4.16818 0
M  V30 2412 H 221.564 -0.624873 5.46237 0
M  V30 2413 H 222.789 -0.845998 6.7381 0
M  V30 2414 H 220.735 -2.91759 5.87548 0
M  V30 2415 H 220.652 -1.9428 7.3061 0
M  V30 2416 H 221.92 -3.12074 7.14304 0
M  V30 2417 N 226.149 -1.5696 0.141893 0
M  V30 2418 C 227.097 -2.17784 -0.816874 0
M  V30 2419 C 228.091 -1.1334 -1.25899 0
M  V30 2420 O 229.297 -1.316 -1.22806 0
M  V30 2421 H 225.672 -0.697278 -0.281615 0
M  V30 2422 H 227.643 -2.97087 -0.279621 0
M  V30 2423 C 226.392 -2.80983 -2.04802 0
M  V30 2424 H 225.715 -3.61062 -1.7168 0
M  V30 2425 H 227.155 -3.2705 -2.69841 0
M  V30 2426 C 225.614 -1.79228 -2.8527 0
M  V30 2427 O 226.144 -1.25962 -3.8144 0
M  V30 2428 N 224.35 -1.48647 -2.49704 0
M  V30 2429 H 223.897 -1.92155 -1.71564 0
M  V30 2430 H 223.855 -0.808115 -3.03837 0
M  V30 2431 N 227.627 0.131896 -1.57047 0
M  V30 2432 C 228.867 0.847972 -1.85981 0
M  V30 2433 C 229.231 1.77655 -0.7282 0
M  V30 2434 O 230.432 2.53322 -0.898968 0
M  V30 2435 C 228.703 1.58919 -3.20124 0
M  V30 2436 S 230.262 2.34862 -3.70655 0
M  V30 2437 H 227.08 0.283273 -0.652133 0
M  V30 2438 H 229.682 0.107057 -1.95207 0
M  V30 2439 H 228.386 0.898771 -4.00438 0
M  V30 2440 H 227.917 2.37073 -3.13942 0
M  V30 2441 H 229.932 3.60344 -3.41126 0
M  V30 2442 N 229.106 1.52395 0.401703 0
M  V30 2443 C 230.331 1.70972 1.17403 0
M  V30 2444 C 230.756 0.421615 1.83314 0
M  V30 2445 O 230.114 -0.621564 1.70312 0
M  V30 2446 C 230.162 2.85151 2.20728 0
M  V30 2447 O 229.266 2.51238 3.27037 0
M  V30 2448 H 228.607 0.568927 0.342372 0
M  V30 2449 H 231.137 1.99131 0.469891 0
M  V30 2450 H 231.147 3.10279 2.64936 0
M  V30 2451 H 229.822 3.78603 1.7214 0
M  V30 2452 H 228.399 2.36808 2.88057 0
M  V30 2453 N 230.584 -0.659388 1.43143 0
M  V30 2454 C 231.831 -1.41935 1.44433 0
M  V30 2455 C 232.159 -1.94387 0.0663522 0
M  V30 2456 O 231.414 -1.72314 -0.927706 0
M  V30 2457 C 231.713 -2.62206 2.42864 0
M  V30 2458 C 231.379 -2.28208 3.88886 0
M  V30 2459 C 230.041 -2.18647 4.28657 0
M  V30 2460 C 232.393 -2.00887 4.8093 0
M  V30 2461 C 229.721 -1.79914 5.58433 0
M  V30 2462 C 232.073 -1.63653 6.11065 0
M  V30 2463 C 230.737 -1.52614 6.49819 0
M  V30 2464 H 230.007 -0.519376 0.528517 0
M  V30 2465 H 232.654 -0.750453 1.76183 0
M  V30 2466 H 230.959 -3.34199 2.04495 0
M  V30 2467 H 232.656 -3.2041 2.41119 0
M  V30 2468 H 229.246 -2.36557 3.57406 0
M  V30 2469 H 233.43 -2.07198 4.5098 0
M  V30 2470 H 228.686 -1.69948 5.87305 0
M  V30 2471 H 232.86 -1.41543 6.81864 0
M  V30 2472 H 230.487 -1.22371 7.50286 0
M  V30 2473 N 232.062 -1.29571 -0.897171 0
M  V30 2474 C 233.01 -1.14802 -2.02295 0
M  V30 2475 C 234.004 -0.0629637 -1.69283 0
M  V30 2476 O 235.21 -0.222945 -1.78614 0
M  V30 2477 H 231.585 -0.354692 -0.663097 0
M  V30 2478 H 233.556 -2.10108 -2.11889 0
M  V30 2479 C 232.305 -0.843966 -3.37302 0
M  V30 2480 H 231.628 -1.67093 -3.63208 0
M  V30 2481 H 233.068 -0.780672 -4.16751 0
M  V30 2482 C 231.527 0.452843 -3.33843 0
M  V30 2483 O 232.057 1.47813 -3.73516 0
M  V30 2484 N 230.263 0.459601 -2.86943 0
M  V30 2485 H 229.81 -0.375213 -2.54853 0
M  V30 2486 H 229.768 1.32726 -2.85011 0
M  V30 2487 N 233.54 1.10788 -1.12088 0
M  V30 2488 C 234.789 1.82036 -0.868659 0
M  V30 2489 C 235.102 1.85929 0.607426 0
M  V30 2490 O 236.308 2.53346 0.97613 0
M  V30 2491 C 234.764 3.26951 -1.50435 0
M  V30 2492 C 234.372 3.31367 -3.01496 0
M  V30 2493 C 236.116 4.03053 -1.33225 0
M  V30 2494 C 234.023 4.7072 -3.58017 0
M  V30 2495 H 232.953 0.682108 -0.321318 0
M  V30 2496 H 235.604 1.24618 -1.34694 0
M  V30 2497 H 233.986 3.84343 -0.953735 0
M  V30 2498 H 235.16 2.83819 -3.6302 0
M  V30 2499 H 233.475 2.6875 -3.18061 0
M  V30 2500 H 236.072 5.05981 -1.72878 0
M  V30 2501 H 236.415 4.15387 -0.275529 0
M  V30 2502 H 236.948 3.52066 -1.85188 0
M  V30 2503 H 233.687 4.63585 -4.63432 0
M  V30 2504 H 233.207 5.1865 -3.01268 0
M  V30 2505 H 234.886 5.39685 -3.56859 0
M  V30 2506 N 235.018 0.912232 1.28515 0
M  V30 2507 C 236.246 0.560416 1.99166 0
M  V30 2508 C 236.661 -0.857927 1.68182 0
M  V30 2509 O 236.018 -1.56805 0.933733 0
M  V30 2510 C 236.069 0.758142 3.53461 0
M  V30 2511 O 235.79 2.12067 3.83352 0
M  V30 2512 C 237.291 0.412954 4.41372 0
M  V30 2513 H 234.511 0.213805 0.636026 0
M  V30 2514 H 237.055 1.22502 1.63749 0
M  V30 2515 H 235.21 0.140556 3.87145 0
M  V30 2516 H 235.624 2.15923 4.77993 0
M  V30 2517 H 237.098 0.60208 5.48707 0
M  V30 2518 H 237.575 -0.65073 4.34353 0
M  V30 2519 H 238.181 1.00802 4.13182 0
M  V30 2520 N 236.496 -1.42363 0.676048 0
M  V30 2521 C 237.724 -2.05859 0.207268 0
M  V30 2522 C 238.139 -1.50796 -1.13605 0
M  V30 2523 O 237.496 -0.648265 -1.70598 0
M  V30 2524 C 237.547 -3.61248 0.134975 0
M  V30 2525 O 237.268 -4.1427 1.42521 0
M  V30 2526 C 238.769 -4.41859 -0.357151 0
M  V30 2527 H 235.989 -0.663431 0.100503 0
M  V30 2528 H 238.533 -1.82479 0.923136 0
M  V30 2529 H 236.688 -3.83735 -0.531588 0
M  V30 2530 H 237.102 -5.0815 1.29939 0
M  V30 2531 H 238.576 -5.50847 -0.356641 0
M  V30 2532 H 239.053 -4.16536 -1.39264 0
M  V30 2533 H 239.659 -4.24392 0.27772 0
M  V30 2534 N 237.974 -0.419461 -1.51915 0
M  V30 2535 C 239.199 0.154572 -2.06823 0
M  V30 2536 C 239.624 1.3722 -1.28656 0
M  V30 2537 O 238.982 1.78461 -0.319583 0
M  V30 2538 C 239.03 0.473172 -3.57482 0
M  V30 2539 O 238.134 1.56255 -3.81652 0
M  V30 2540 H 237.475 0.0096924 -0.663929 0
M  V30 2541 H 240.005 -0.595642 -1.95738 0
M  V30 2542 H 240.015 0.728825 -4.01438 0
M  V30 2543 H 238.69 -0.416873 -4.13805 0
M  V30 2544 H 237.267 1.29825 -3.49571 0
M  V30 2545 N 239.452 1.56882 -0.150215 0
M  V30 2546 C 240.701 1.95403 0.500071 0
M  V30 2547 C 241.014 1.03777 1.658 0
M  V30 2548 O 242.22 1.31889 2.37313 0
M  V30 2549 C 240.676 3.4738 0.941018 0
M  V30 2550 C 240.284 4.47596 -0.190158 0
M  V30 2551 C 242.028 3.9476 1.56091 0
M  V30 2552 C 239.935 5.90787 0.269237 0
M  V30 2553 H 238.865 0.729515 0.190588 0
M  V30 2554 H 241.516 1.81988 -0.235074 0
M  V30 2555 H 239.898 3.56138 1.73152 0
M  V30 2556 H 241.072 4.50536 -0.967157 0
M  V30 2557 H 239.387 4.10151 -0.718666 0
M  V30 2558 H 241.984 4.99181 1.9163 0
M  V30 2559 H 242.327 3.36494 2.45107 0
M  V30 2560 H 242.86 3.88932 0.835249 0
M  V30 2561 H 239.599 6.52879 -0.585621 0
M  V30 2562 H 239.119 5.912 1.01204 0
M  V30 2563 H 240.798 6.42979 0.720176 0
M  V30 2564 N 240.93 -0.123565 1.57115 0
M  V30 2565 C 242.346 -0.476961 1.52306 0
M  V30 2566 C 242.546 -1.82109 0.86248 0
M  V30 2567 O 241.602 -2.48586 0.442884 0
M  V30 2568 C 242.915 -0.465661 2.97073 0
M  V30 2569 C 244.463 -0.549534 3.08138 0
M  V30 2570 C 244.938 -0.568669 4.54456 0
M  V30 2571 N 246.429 -0.630237 4.58892 0
M  V30 2572 C 247.164 -0.666415 5.69514 0
M  V30 2573 N 246.66 -0.660514 6.89644 0
M  V30 2574 N 248.453 -0.709077 5.5761 0
M  V30 2575 H 240.604 0.757198 1.98445 0
M  V30 2576 H 242.867 0.278808 0.906074 0
M  V30 2577 H 242.573 0.454232 3.48754 0
M  V30 2578 H 242.447 -1.29513 3.54269 0
M  V30 2579 H 244.834 -1.45985 2.56461 0
M  V30 2580 H 244.915 0.307532 2.53945 0
M  V30 2581 H 244.559 0.337581 5.06777 0
M  V30 2582 H 244.489 -1.44256 5.06456 0
M  V30 2583 H 246.98 -0.641146 3.72421 0
M  V30 2584 H 247.293 -0.690616 7.69708 0
M  V30 2585 H 245.638 -0.628012 6.92157 0
M  V30 2586 H 248.829 -0.711019 4.62668 0
M  V30 2587 H 249.002 -0.733804 6.43832 0
M  V30 2588 N 242.408 -1.52605 -0.393616 0
M  V30 2589 C 243.685 -1.58001 -1.15304 0
M  V30 2590 C 244.065 -0.370385 -2.07825 0
M  V30 2591 O 243.413 0.641638 -2.19306 0
M  V30 2592 C 243.623 -2.91652 -1.91677 0
M  V30 2593 C 244.971 -3.4522 -2.47201 0
M  V30 2594 O 245.995 -2.93495 -2.01839 0
M  V30 2595 O 244.854 -4.35579 -3.3005 0
M  V30 2596 H 241.948 -0.637068 -0.527327 0
M  V30 2597 H 244.494 -1.64939 -0.399141 0
M  V30 2598 H 243.266 -3.71136 -1.23992 0
M  V30 2599 H 242.889 -2.88077 -2.74039 0
M  V30 2600 N 243.887 0.651787 -1.4349 0
M  V30 2601 C 244.834 1.76462 -1.4876 0
M  V30 2602 C 245.804 1.62641 -0.337189 0
M  V30 2603 O 246.989 1.82864 -0.544544 0
M  V30 2604 C 244.129 3.14623 -1.41796 0
M  V30 2605 C 243.242 3.39568 -2.67053 0
M  V30 2606 C 242.377 4.67585 -2.52068 0
M  V30 2607 C 241.416 4.85639 -3.72587 0
M  V30 2608 N 240.553 6.04915 -3.56402 0
M  V30 2609 H 245.393 1.71293 -2.43849 0
M  V30 2610 H 242.93 0.835889 -1.21043 0
M  V30 2611 H 244.888 3.94496 -1.35753 0
M  V30 2612 H 243.518 3.18859 -0.50288 0
M  V30 2613 H 242.57 2.53783 -2.8337 0
M  V30 2614 H 243.882 3.48795 -3.56572 0
M  V30 2615 H 243.036 5.55586 -2.4374 0
M  V30 2616 H 241.775 4.60681 -1.60075 0
M  V30 2617 H 240.78 3.96073 -3.81321 0
M  V30 2618 H 242.005 4.94372 -4.65589 0
M  V30 2619 H 239.951 5.9914 -2.67146 0
M  V30 2620 H 239.868 6.15106 -4.39524 0
M  V30 2621 H 241.136 6.95533 -3.51929 0
M  V30 2622 N 245.365 1.30045 0.890287 0
M  V30 2623 C 246.611 1.18737 1.64406 0
M  V30 2624 C 246.944 -0.258525 1.92472 0
M  V30 2625 O 246.219 -1.18562 1.54186 0
M  V30 2626 C 246.502 2.01087 2.98724 0
M  V30 2627 C 246.355 3.53867 2.77665 0
M  V30 2628 C 247.674 1.84457 3.9958 0
M  V30 2629 H 244.793 0.432698 0.596608 0
M  V30 2630 H 247.435 1.5962 1.0306 0
M  V30 2631 H 245.585 1.66349 3.51084 0
M  V30 2632 H 247.257 3.98637 2.32133 0
M  V30 2633 H 245.5 3.78318 2.12269 0
M  V30 2634 H 246.171 4.06772 3.7315 0
M  V30 2635 H 248.647 2.14817 3.56361 0
M  V30 2636 H 247.523 2.44411 4.91482 0
M  V30 2637 H 247.784 0.802276 4.3476 0
M  V30 2638 N 246.843 -1.10192 1.12674 0
M  V30 2639 C 247.775 -2.16418 0.754701 0
M  V30 2640 C 248.788 -1.61309 -0.21986 0
M  V30 2641 O 249.977 -1.785 -0.000826841 0
M  V30 2642 C 247.077 -3.38762 0.096698 0
M  V30 2643 C 246.25 -4.23307 1.10136 0
M  V30 2644 C 245.309 -5.24092 0.470513 0
M  V30 2645 O 244.335 -5.57906 1.12824 0
M  V30 2646 N 245.537 -5.75491 -0.760948 0
M  V30 2647 H 248.302 -2.48943 1.66875 0
M  V30 2648 H 245.863 -1.25834 1.01869 0
M  V30 2649 H 247.855 -4.03291 -0.337384 0
M  V30 2650 H 246.425 -3.04192 -0.720153 0
M  V30 2651 H 245.645 -3.55036 1.71299 0
M  V30 2652 H 246.933 -4.76624 1.78064 0
M  V30 2653 H 246.331 -5.50222 -1.31424 0
M  V30 2654 H 244.888 -6.41792 -1.13781 0
M  V30 2655 N 248.321 -0.919034 -1.28029 0
M  V30 2656 C 249.268 -0.410005 -2.27129 0
M  V30 2657 C 250.238 0.518405 -1.57803 0
M  V30 2658 O 251.423 0.439451 -1.8567 0
M  V30 2659 C 248.563 0.339054 -3.4343 0
M  V30 2660 C 247.676 -0.622468 -4.27492 0
M  V30 2661 C 246.811 0.145567 -5.31001 0
M  V30 2662 C 245.85 -0.809226 -6.06727 0
M  V30 2663 N 244.987 -0.0743728 -7.02061 0
M  V30 2664 H 249.827 -1.26011 -2.70047 0
M  V30 2665 H 247.364 -0.632663 -1.328 0
M  V30 2666 H 249.322 0.789586 -4.0966 0
M  V30 2667 H 247.952 1.15346 -3.01488 0
M  V30 2668 H 247.004 -1.19153 -3.61257 0
M  V30 2669 H 248.316 -1.35252 -4.80113 0
M  V30 2670 H 247.47 0.656417 -6.03139 0
M  V30 2671 H 246.209 0.908643 -4.79161 0
M  V30 2672 H 245.214 -1.3314 -5.33436 0
M  V30 2673 H 246.439 -1.57194 -6.60656 0
M  V30 2674 H 244.385 0.670616 -6.52563 0
M  V30 2675 H 244.302 -0.744157 -7.52329 0
M  V30 2676 H 245.57 0.416109 -7.78389 0
M  V30 2677 N 249.799 1.42003 -0.683588 0
M  V30 2678 C 250.709 2.34597 -0.0109075 0
M  V30 2679 C 251.725 1.55576 0.779245 0
M  V30 2680 O 252.901 1.88107 0.719555 0
M  V30 2681 C 249.966 3.34199 0.922588 0
M  V30 2682 C 249.027 4.29115 0.125984 0
M  V30 2683 C 248.26 5.23959 1.01502 0
M  V30 2684 O 248.483 5.23952 2.25456 0
M  V30 2685 O 247.417 6.00053 0.47111 0
M  V30 2686 H 251.243 2.93675 -0.773853 0
M  V30 2687 H 248.828 1.42654 -0.443861 0
M  V30 2688 H 250.71 3.95365 1.45823 0
M  V30 2689 H 249.385 2.77582 1.66523 0
M  V30 2690 H 248.292 3.71335 -0.453969 0
M  V30 2691 H 249.625 4.88798 -0.577736 0
M  V30 2692 N 251.277 0.427512 1.51691 0
M  V30 2693 C 252.507 -0.140986 2.06118 0
M  V30 2694 C 252.915 -1.37854 1.29588 0
M  V30 2695 O 252.258 -1.80411 0.346036 0
M  V30 2696 C 252.32 -0.538276 3.55447 0
M  V30 2697 C 251.984 0.591095 4.53161 0
M  V30 2698 C 252.981 1.46027 4.98971 0
M  V30 2699 C 250.666 0.769028 4.96378 0
M  V30 2700 C 252.66 2.49216 5.8666 0
M  V30 2701 C 250.347 1.80421 5.83859 0
M  V30 2702 C 251.345 2.66417 6.28897 0
M  V30 2703 O 251.033 3.68159 7.14643 0
M  V30 2704 H 250.765 -0.0157455 0.675817 0
M  V30 2705 H 253.319 0.602495 1.96365 0
M  V30 2706 H 251.549 -1.33432 3.6295 0
M  V30 2707 H 253.238 -1.0368 3.92435 0
M  V30 2708 H 254.004 1.33429 4.66285 0
M  V30 2709 H 249.883 0.109273 4.6087 0
M  V30 2710 H 253.427 3.16372 6.21735 0
M  V30 2711 H 249.324 1.93042 6.15959 0
M  V30 2712 H 250.092 3.64622 7.32798 0
M  V30 2713 N 252.755 -1.56801 0.158532 0
M  V30 2714 C 253.718 -2.16138 -0.762705 0
M  V30 2715 C 254.718 -1.1061 -1.16713 0
M  V30 2716 O 255.908 -1.36191 -1.08617 0
M  V30 2717 C 253.04 -2.73386 -2.03649 0
M  V30 2718 H 254.233 -2.98886 -0.246354 0
M  V30 2719 H 251.786 -1.56035 -0.0909744 0
M  V30 2720 H 252.521 -1.94335 -2.59623 0
M  V30 2721 H 252.306 -3.50601 -1.75559 0
M  V30 2722 H 253.796 -3.19065 -2.6942 0
M  V30 2723 N 254.233 0.115231 -1.57178 0
M  V30 2724 C 255.163 1.1423 -2.03651 0
M  V30 2725 C 256.144 1.42967 -0.921655 0
M  V30 2726 O 257.329 1.53343 -1.19162 0
M  V30 2727 C 254.459 2.4675 -2.44401 0
M  V30 2728 C 253.413 2.32467 -3.59365 0
M  V30 2729 C 252.739 3.69984 -3.86026 0
M  V30 2730 C 254.039 1.78203 -4.90959 0
M  V30 2731 H 255.733 0.755749 -2.89705 0
M  V30 2732 H 253.279 0.362093 -1.39373 0
M  V30 2733 H 255.232 3.18854 -2.75517 0
M  V30 2734 H 253.956 2.87302 -1.55322 0
M  V30 2735 H 252.615 1.62811 -3.28463 0
M  V30 2736 H 252.263 4.08028 -2.94147 0
M  V30 2737 H 251.963 3.61279 -4.63412 0
M  V30 2738 H 253.487 4.43587 -4.19599 0
M  V30 2739 H 254.901 2.40128 -5.20587 0
M  V30 2740 H 253.298 1.8031 -5.72371 0
M  V30 2741 H 254.368 0.739876 -4.79222 0
M  V30 2742 N 255.711 1.52812 0.385517 0
M  V30 2743 C 256.958 1.68026 1.1302 0
M  V30 2744 C 257.286 0.421934 1.89868 0
M  V30 2745 O 256.541 -0.595749 1.86412 0
M  V30 2746 C 256.84 2.86856 2.13187 0
M  V30 2747 C 256.506 4.24159 1.5297 0
M  V30 2748 C 255.168 4.61501 1.36274 0
M  V30 2749 C 257.52 5.09627 1.09223 0
M  V30 2750 C 254.848 5.81966 0.743837 0
M  V30 2751 C 257.2 6.30719 0.487411 0
M  V30 2752 C 255.864 6.6679 0.307777 0
M  V30 2753 H 255.134 0.614849 0.413571 0
M  V30 2754 H 257.781 1.86962 0.414405 0
M  V30 2755 H 256.086 2.6235 2.90998 0
M  V30 2756 H 257.783 2.95821 2.70722 0
M  V30 2757 H 254.373 3.94746 1.66954 0
M  V30 2758 H 258.557 4.81343 1.20922 0
M  V30 2759 H 253.813 6.08519 0.592891 0
M  V30 2760 H 257.987 6.96259 0.140143 0
M  V30 2761 H 255.614 7.60001 -0.173879 0
M  V30 2762 N 257.189 -0.644168 1.43834 0
M  V30 2763 C 258.419 -1.42939 1.49171 0
M  V30 2764 C 258.827 -1.88874 0.111048 0
M  V30 2765 O 258.17 -1.60656 -0.8908 0
M  V30 2766 C 258.232 -2.69151 2.38324 0
M  V30 2767 C 257.896 -2.45097 3.85715 0
M  V30 2768 C 258.893 -2.07747 4.76589 0
M  V30 2769 C 256.578 -2.59141 4.30292 0
M  V30 2770 C 258.572 -1.8475 6.10038 0
M  V30 2771 C 256.259 -2.35759 5.63792 0
M  V30 2772 C 257.257 -1.9862 6.53482 0
M  V30 2773 O 256.945 -1.75489 7.84512 0
M  V30 2774 H 256.677 -0.445271 0.508635 0
M  V30 2775 H 259.231 -0.79621 1.8934 0
M  V30 2776 H 257.461 -3.3506 1.93058 0
M  V30 2777 H 259.15 -3.31123 2.3476 0
M  V30 2778 H 259.916 -1.96465 4.43426 0
M  V30 2779 H 255.795 -2.87022 3.60749 0
M  V30 2780 H 259.339 -1.55686 6.80006 0
M  V30 2781 H 255.236 -2.46646 5.9652 0
M  V30 2782 H 256.004 -1.89841 7.9618 0
M  V30 2783 N 258.668 -1.30515 -0.883378 0
M  V30 2784 C 259.616 -1.16941 -2.01066 0
M  V30 2785 C 260.61 -0.0809148 -1.69207 0
M  V30 2786 O 261.816 -0.241877 -1.78367 0
M  V30 2787 H 258.191 -0.361705 -0.659298 0
M  V30 2788 H 260.162 -2.12344 -2.09649 0
M  V30 2789 C 258.911 -0.879694 -3.36388 0
M  V30 2790 H 258.234 -1.70936 -3.61415 0
M  V30 2791 H 259.674 -0.82483 -4.159 0
M  V30 2792 C 258.133 0.417409 -3.34304 0
M  V30 2793 O 258.663 1.43843 -3.75063 0
M  V30 2794 N 256.869 0.429141 -2.87414 0
M  V30 2795 H 256.416 -0.402222 -2.5444 0
M  V30 2796 H 256.374 1.29696 -2.86403 0
M  V30 2797 N 260.146 1.09593 -1.13257 0
M  V30 2798 C 261.076 2.18214 -0.830946 0
M  V30 2799 C 262.057 1.68812 0.208966 0
M  V30 2800 O 263.242 1.9408 0.0682666 0
M  V30 2801 C 260.372 3.46051 -0.294296 0
M  V30 2802 C 259.326 4.08778 -1.26826 0
M  V30 2803 C 258.652 5.31419 -0.591449 0
M  V30 2804 C 259.952 4.51476 -2.62615 0
M  V30 2805 H 261.646 2.43703 -1.73923 0
M  V30 2806 H 259.192 1.17128 -0.837675 0
M  V30 2807 H 261.145 4.2134 -0.0709606 0
M  V30 2808 H 259.869 3.20079 0.649366 0
M  V30 2809 H 258.528 3.35505 -1.47756 0
M  V30 2810 H 258.176 5.01727 0.357633 0
M  V30 2811 H 257.876 5.74341 -1.24123 0
M  V30 2812 H 259.4 6.09433 -0.377355 0
M  V30 2813 H 260.814 5.17999 -2.45663 0
M  V30 2814 H 259.211 5.05277 -3.23752 0
M  V30 2815 H 260.281 3.63962 -3.20406 0
M  V30 2816 N 261.624 0.925811 1.2754 0
M  V30 2817 C 262.901 0.483726 1.89524 0
M  V30 2818 C 263.281 -1.03809 1.83812 0
M  V30 2819 O 262.629 -1.89143 1.28207 0
M  V30 2820 C 262.839 1.02769 3.33526 0
M  V30 2821 C 264.187 1.08703 4.10449 0
M  V30 2822 O 265.211 0.977175 3.42534 0
M  V30 2823 O 264.07 1.25599 5.31871 0
M  V30 2824 H 261.164 0.15529 0.812289 0
M  V30 2825 H 263.71 1.01738 1.35822 0
M  V30 2826 H 262.482 2.07155 3.31967 0
M  V30 2827 H 262.105 0.475567 3.94746 0
M  V30 2828 N 263.102 -1.41638 0.69111 0
M  V30 2829 C 264.348 -2.01598 0.220519 0
M  V30 2830 C 264.681 -1.54594 -1.17535 0
M  V30 2831 O 263.956 -0.755177 -1.79241 0
M  V30 2832 C 264.239 -3.59062 0.273243 0
M  V30 2833 C 264.092 -4.16203 1.70573 0
M  V30 2834 C 265.411 -4.38546 -0.369457 0
M  V30 2835 H 262.53 -0.732468 0.0816045 0
M  V30 2836 H 265.172 -1.68445 0.878986 0
M  V30 2837 H 263.322 -3.87435 -0.287411 0
M  V30 2838 H 264.994 -3.98722 2.31989 0
M  V30 2839 H 263.237 -3.71414 2.2413 0
M  V30 2840 H 263.908 -5.25358 1.69419 0
M  V30 2841 H 266.384 -4.1596 0.107977 0
M  V30 2842 H 265.26 -5.48069 -0.302002 0
M  V30 2843 H 265.521 -4.17662 -1.44951 0
M  V30 2844 N 264.58 -0.43555 -1.51462 0
M  V30 2845 C 265.826 0.131709 -2.02372 0
M  V30 2846 C 266.159 1.42516 -1.3192 0
M  V30 2847 O 265.434 1.89606 -0.433573 0
M  V30 2848 C 265.717 0.352301 -3.58373 0
M  V30 2849 C 265.57 -0.959676 -4.39443 0
M  V30 2850 C 266.889 1.12286 -4.25535 0
M  V30 2851 H 264.008 0.0463936 -0.735538 0
M  V30 2852 H 266.65 -0.574197 -1.81116 0
M  V30 2853 H 264.8 0.9536 -3.76615 0
M  V30 2854 H 266.472 -1.59482 -4.32855 0
M  V30 2855 H 264.715 -1.56468 -4.04599 0
M  V30 2856 H 265.386 -0.759394 -5.46752 0
M  V30 2857 H 267.862 0.613545 -4.11552 0
M  V30 2858 H 266.738 1.24598 -5.34571 0
M  V30 2859 H 266.999 2.15048 -3.86273 0
M  V30 2860 N 266.058 1.56714 -0.166846 0
M  V30 2861 C 267.469 1.83378 0.350646 0
M  V30 2862 C 267.82 1.08646 1.63372 0
M  V30 2863 O 266.945 0.338058 2.13743 0
M  V30 2864 C 267.54 3.32643 0.642963 0
M  V30 2865 C 266.099 3.59818 1.10491 0
M  V30 2866 C 265.246 2.76954 0.138411 0
M  V30 2867 H 268.197 1.53803 -0.391193 0
M  V30 2868 H 268.218 3.49878 1.49551 0
M  V30 2869 H 267.73 3.87007 -0.291055 0
M  V30 2870 H 265.831 3.1086 2.05418 0
M  V30 2871 H 265.944 4.68178 1.01716 0
M  V30 2872 H 264.308 2.4666 0.634911 0
M  V30 2873 H 265.091 3.34097 -0.789549 0
M  V30 2874 N 267.536 -0.106894 1.57237 0
M  V30 2875 C 268.785 -0.811163 1.8467 0
M  V30 2876 C 269.098 -1.80469 0.754342 0
M  V30 2877 O 270.304 -2.55601 0.915439 0
M  V30 2878 C 268.76 -1.49337 3.27454 0
M  V30 2879 C 268.368 -0.540217 4.44731 0
M  V30 2880 C 270.112 -2.18206 3.64124 0
M  V30 2881 C 268.019 -1.22634 5.78545 0
M  V30 2882 H 266.949 -0.306679 0.688813 0
M  V30 2883 H 269.6 -0.0639887 1.83388 0
M  V30 2884 H 267.982 -2.2876 3.23241 0
M  V30 2885 H 269.156 0.221659 4.60267 0
M  V30 2886 H 267.471 0.042146 4.16379 0
M  V30 2887 H 270.068 -2.70253 4.61376 0
M  V30 2888 H 270.411 -2.96562 2.92158 0
M  V30 2889 H 270.944 -1.45658 3.70174 0
M  V30 2890 H 267.683 -0.483832 6.53712 0
M  V30 2891 H 267.203 -1.95993 5.66874 0
M  V30 2892 H 268.882 -1.75615 6.2271 0
M  V30 2893 N 269.014 -1.53014 -0.377408 0
M  V30 2894 C 270.291 -1.59215 -1.13622 0
M  V30 2895 C 270.671 -0.392407 -2.07421 0
M  V30 2896 O 270.019 0.618342 -2.19975 0
M  V30 2897 C 270.229 -2.93669 -1.88573 0
M  V30 2898 C 271.577 -3.47822 -2.43526 0
M  V30 2899 O 272.601 -2.9562 -1.98715 0
M  V30 2900 O 271.46 -4.39055 -3.25412 0
M  V30 2901 H 268.554 -0.642625 -0.52054 0
M  V30 2902 H 271.1 -1.65353 -0.381625 0
M  V30 2903 H 269.872 -3.7243 -1.20048 0
M  V30 2904 H 269.495 -2.90968 -2.70968 0
M  V30 2905 N 270.492 0.636531 -1.44174 0
M  V30 2906 C 271.44 1.76995 -1.50915 0
M  V30 2907 C 272.434 1.65053 -0.381295 0
M  V30 2908 O 273.64 1.71197 -0.55601 0
M  V30 2909 H 270.015 0.584247 -0.473455 0
M  V30 2910 H 271.986 1.68432 -2.4632 0
M  V30 2911 C 270.735 3.15314 -1.46534 0
M  V30 2912 H 270.058 3.25149 -2.32633 0
M  V30 2913 H 271.498 3.9453 -1.55312 0
M  V30 2914 C 269.957 3.3639 -0.185305 0
M  V30 2915 O 270.487 3.94699 0.746688 0
M  V30 2916 N 268.693 2.9046 -0.0901606 0
M  V30 2917 H 268.24 2.43193 -0.849416 0
M  V30 2918 H 268.198 3.04937 0.765553 0
M  V30 2919 N 271.97 1.30982 0.876444 0
M  V30 2920 C 272.933 1.18054 1.96459 0
M  V30 2921 C 273.933 0.109399 1.60427 0
M  V30 2922 O 275.123 0.358173 1.70478 0
M  V30 2923 C 272.255 0.810616 3.31122 0
M  V30 2924 H 273.448 2.14735 2.09354 0
M  V30 2925 H 271.001 1.145 1.06392 0
M  V30 2926 H 271.736 -0.155322 3.23928 0
M  V30 2927 H 271.521 1.58481 3.58645 0
M  V30 2928 H 273.011 0.743876 4.10921 0
M  V30 2929 N 273.449 -1.08991 1.13837 0
M  V30 2930 C 274.674 -1.85551 0.926585 0
M  V30 2931 C 275.099 -1.80782 -0.519566 0
M  V30 2932 O 274.457 -1.18855 -1.36906 0
M  V30 2933 C 274.505 -3.31266 1.42462 0
M  V30 2934 O 273.609 -4.07822 0.612789 0
M  V30 2935 H 272.95 -0.575192 0.331738 0
M  V30 2936 H 275.48 -1.37604 1.51414 0
M  V30 2937 H 275.49 -3.82112 1.43019 0
M  V30 2938 H 274.165 -3.34052 2.47754 0
M  V30 2939 H 272.742 -3.66731 0.675463 0
M  V30 2940 N 274.927 -0.932562 -1.27047 0
M  V30 2941 C 276.157 -0.591173 -1.97961 0
M  V30 2942 C 276.565 0.836219 -1.69717 0
M  V30 2943 O 275.908 1.56801 -0.957036 0
M  V30 2944 C 275.97 -0.743082 -3.51736 0
M  V30 2945 C 275.634 -2.1435 -4.03613 0
M  V30 2946 C 276.631 -3.11815 -4.16014 0
M  V30 2947 C 274.316 -2.46175 -4.37839 0
M  V30 2948 C 276.31 -4.39211 -4.61923 0
M  V30 2949 C 273.997 -3.73806 -4.83438 0
M  V30 2950 C 274.995 -4.70137 -4.95439 0
M  V30 2951 O 274.683 -5.95496 -5.40037 0
M  V30 2952 H 274.415 -0.222375 -0.638377 0
M  V30 2953 H 276.969 -1.25317 -1.62742 0
M  V30 2954 H 275.199 -0.0239739 -3.86693 0
M  V30 2955 H 276.888 -0.40603 -4.03864 0
M  V30 2956 H 277.654 -2.88549 -3.89826 0
M  V30 2957 H 273.533 -1.71936 -4.27737 0
M  V30 2958 H 277.077 -5.14404 -4.71205 0
M  V30 2959 H 272.974 -3.96888 -5.09068 0
M  V30 2960 H 273.742 -5.98554 -5.58279 0
M  V30 2961 N 276.405 1.4127 -0.698611 0
M  V30 2962 C 277.821 1.55241 -0.370462 0
M  V30 2963 C 278.021 1.67351 1.12231 0
M  V30 2964 O 277.077 1.65363 1.90818 0
M  V30 2965 C 278.39 2.78997 -1.12165 0
M  V30 2966 C 279.938 2.92797 -1.1063 0
M  V30 2967 C 280.413 4.19445 -1.8393 0
M  V30 2968 N 281.904 4.26409 -1.80914 0
M  V30 2969 C 282.639 5.23271 -2.34467 0
M  V30 2970 N 282.135 6.26145 -2.96504 0
M  V30 2971 N 283.928 5.15232 -2.24706 0
M  V30 2972 H 276.079 1.31654 -1.66676 0
M  V30 2973 H 278.342 0.635393 -0.703548 0
M  V30 2974 H 278.048 2.76268 -2.17644 0
M  V30 2975 H 277.922 3.70606 -0.702209 0
M  V30 2976 H 280.309 2.95039 -0.0597713 0
M  V30 2977 H 280.39 2.02353 -1.56483 0
M  V30 2978 H 280.034 4.17964 -2.88563 0
M  V30 2979 H 279.964 5.08866 -1.35509 0
M  V30 2980 H 282.455 3.527 -1.35687 0
M  V30 2981 H 282.768 6.96451 -3.34927 0
M  V30 2982 H 281.113 6.26638 -3.00583 0
M  V30 2983 H 284.304 4.33789 -1.7591 0
M  V30 2984 H 284.477 5.90552 -2.66745 0
M  V30 2985 N 277.883 0.443576 1.51229 0
M  V30 2986 C 278.813 -0.355142 2.30783 0
M  V30 2987 C 279.794 -1.0154 1.36468 0
M  V30 2988 O 280.979 -1.01785 1.65389 0
M  V30 2989 C 278.109 -1.45312 3.15439 0
M  V30 2990 C 277.063 -0.916002 4.18083 0
M  V30 2991 C 276.389 -2.1102 4.91299 0
M  V30 2992 C 277.689 0.0538602 5.22272 0
M  V30 2993 H 279.383 0.308767 2.97804 0
M  V30 2994 H 276.929 0.149937 1.43217 0
M  V30 2995 H 278.882 -2.01914 3.69876 0
M  V30 2996 H 277.606 -2.14541 2.46252 0
M  V30 2997 H 276.265 -0.372145 3.64706 0
M  V30 2998 H 275.913 -2.78882 4.18609 0
M  V30 2999 H 275.613 -1.75717 5.60712 0
M  V30 3000 H 277.137 -2.68164 5.48562 0
M  V30 3001 H 278.551 -0.422069 5.71744 0
M  V30 3002 H 276.948 0.319776 5.99247 0
M  V30 3003 H 278.018 0.98858 4.74716 0
M  V30 3004 N 279.361 -1.56624 0.175154 0
M  V30 3005 C 280.61 -1.96173 -0.468921 0
M  V30 3006 C 280.923 -1.06401 -1.64128 0
M  V30 3007 O 282.129 -1.35648 -2.35185 0
M  V30 3008 C 280.585 -3.48833 -0.885633 0
M  V30 3009 C 280.193 -4.47237 0.261343 0
M  V30 3010 C 281.937 -3.97194 -1.49791 0
M  V30 3011 C 279.844 -5.9114 -0.175214 0
M  V30 3012 H 278.774 -0.732455 -0.178958 0
M  V30 3013 H 281.425 -1.81591 0.263997 0
M  V30 3014 H 279.807 -3.58848 -1.67464 0
M  V30 3015 H 280.981 -4.4894 1.03871 0
M  V30 3016 H 279.296 -4.08956 0.783827 0
M  V30 3017 H 281.893 -5.02167 -1.83665 0
M  V30 3018 H 282.236 -3.40351 -2.39722 0
M  V30 3019 H 282.769 -3.90212 -0.773267 0
M  V30 3020 H 279.508 -6.51865 0.689414 0
M  V30 3021 H 279.028 -5.92735 -0.91786 0
M  V30 3022 H 280.707 -6.44044 -0.617792 0
M  V30 3023 N 280.839 0.0985539 -1.57292 0
M  V30 3024 C 282.064 0.820196 -1.90493 0
M  V30 3025 C 282.489 1.71658 -0.769094 0
M  V30 3026 O 281.847 1.79133 0.279495 0
M  V30 3027 C 281.895 1.61242 -3.22542 0
M  V30 3028 O 280.999 2.72108 -3.09888 0
M  V30 3029 H 280.34 0.225547 -0.62452 0
M  V30 3030 H 282.87 0.0748159 -2.04463 0
M  V30 3031 H 282.88 1.99737 -3.55766 0
M  V30 3032 H 281.555 0.954535 -4.04798 0
M  V30 3033 H 280.132 2.36667 -2.88172 0
M  V30 3034 N 282.317 1.53212 0.369288 0
M  V30 3035 C 283.557 1.70915 1.12105 0
M  V30 3036 C 283.921 0.449444 1.86665 0
M  V30 3037 O 285.122 0.503105 2.6405 0
M  V30 3038 C 283.393 2.9222 2.05772 0
M  V30 3039 S 284.952 3.30609 2.88519 0
M  V30 3040 H 281.77 0.601445 0.379189 0
M  V30 3041 H 284.372 1.91306 0.402794 0
M  V30 3042 H 283.076 3.82103 1.49752 0
M  V30 3043 H 282.607 2.7422 2.82076 0
M  V30 3044 H 284.622 2.82333 4.08047 0
M  V30 3045 N 283.795 -0.628877 1.44509 0
M  V30 3046 C 284.743 -1.76193 1.51852 0
M  V30 3047 C 285.737 -1.64849 0.390042 0
M  V30 3048 O 286.943 -1.709 0.565082 0
M  V30 3049 H 283.318 -0.581728 0.476547 0
M  V30 3050 H 285.289 -1.67123 2.47209 0
M  V30 3051 C 284.038 -3.14533 1.48204 0
M  V30 3052 H 283.361 -3.23911 2.34354 0
M  V30 3053 H 284.801 -3.93701 1.57402 0
M  V30 3054 C 283.26 -3.36287 0.203142 0
M  V30 3055 O 283.79 -3.9509 -0.725745 0
M  V30 3056 N 281.996 -2.90408 0.105563 0
M  V30 3057 H 281.543 -2.42739 0.862301 0
M  V30 3058 H 281.501 -3.05339 -0.749371 0
M  V30 3059 N 285.273 -1.31445 -0.869486 0
M  V30 3060 C 286.501 -1.24122 -1.65534 0
M  V30 3061 C 286.916 0.193387 -1.87807 0
M  V30 3062 O 286.273 1.12557 -1.43656 0
M  V30 3063 C 286.324 -1.98229 -3.02304 0
M  V30 3064 O 286.045 -3.3609 -2.81026 0
M  V30 3065 C 287.546 -1.97751 -3.96749 0
M  V30 3066 H 284.766 -0.428868 -0.516055 0
M  V30 3067 H 287.31 -1.73328 -1.08525 0
M  V30 3068 H 285.465 -1.52782 -3.56001 0
M  V30 3069 H 285.879 -3.7383 -3.67902 0
M  V30 3070 H 287.353 -2.54114 -4.90031 0
M  V30 3071 H 287.83 -0.960137 -4.28577 0
M  V30 3072 H 288.436 -2.43079 -3.48988 0
M  V30 3073 N 286.751 1.08385 -1.14413 0
M  V30 3074 C 287.976 1.85057 -0.936413 0
M  V30 3075 C 288.401 1.81055 0.509971 0
M  V30 3076 O 287.759 1.1958 1.36273 0
M  V30 3077 C 287.807 3.30505 -1.44217 0
M  V30 3078 O 286.911 4.07491 -0.634409 0
M  V30 3079 H 286.252 0.573425 -0.334784 0
M  V30 3080 H 288.782 1.36799 -1.52142 0
M  V30 3081 H 288.792 3.81348 -1.45043 0
M  V30 3082 H 287.467 3.32734 -2.49522 0
M  V30 3083 H 286.044 3.66368 -0.694902 0
M  V30 3084 N 288.23 0.939286 1.26551 0
M  V30 3085 C 289.476 0.586715 1.94128 0
M  V30 3086 C 289.809 -0.8717 1.73537 0
M  V30 3087 O 289.084 -1.62339 1.07127 0
M  V30 3088 C 289.367 0.927497 3.4795 0
M  V30 3089 C 289.22 2.44052 3.77834 0
M  V30 3090 C 290.539 0.441569 4.37879 0
M  V30 3091 H 287.658 0.21463 0.705055 0
M  V30 3092 H 290.3 1.17316 1.49455 0
M  V30 3093 H 288.45 0.428431 3.8613 0
M  V30 3094 H 290.122 3.01216 3.4938 0
M  V30 3095 H 288.365 2.8848 3.23978 0
M  V30 3096 H 289.036 2.62947 4.85348 0
M  V30 3097 H 291.512 0.869448 4.06915 0
M  V30 3098 H 290.388 0.708856 5.44304 0
M  V30 3099 H 290.649 -0.658467 4.37169 0
M  V30 3100 N 289.708 -1.40897 0.706093 0
M  V30 3101 C 290.957 -2.00284 0.238574 0
M  V30 3102 C 291.27 -1.56604 -1.17194 0
M  V30 3103 O 292.476 -2.08624 -1.73748 0
M  V30 3104 C 290.932 -3.57934 0.375623 0
M  V30 3105 C 290.54 -4.10591 1.79217 0
M  V30 3106 C 292.284 -4.24488 -0.0315857 0
M  V30 3107 C 290.191 -5.60712 1.88032 0
M  V30 3108 H 289.121 -0.749144 0.0854398 0
M  V30 3109 H 291.772 -1.61251 0.875813 0
M  V30 3110 H 290.154 -3.94622 -0.330042 0
M  V30 3111 H 291.328 -3.85301 2.52745 0
M  V30 3112 H 289.643 -3.56601 2.15 0
M  V30 3113 H 292.24 -5.34698 0.0136842 0
M  V30 3114 H 292.583 -4.02261 -1.072 0
M  V30 3115 H 293.116 -3.92873 0.624181 0
M  V30 3116 H 289.855 -5.87781 2.90161 0
M  V30 3117 H 289.375 -5.87896 1.18903 0
M  V30 3118 H 291.054 -6.25658 1.64805 0
M  V30 3119 N 291.186 -0.45159 -1.50991 0
M  V30 3120 C 292.414 0.108334 -2.06616 0
M  V30 3121 C 292.829 1.35224 -1.31757 0
M  V30 3122 O 292.186 1.78475 -0.381174 0
M  V30 3123 C 292.237 0.41619 -3.59096 0
M  V30 3124 O 291.958 -0.778361 -4.3113 0
M  V30 3125 C 293.459 1.02523 -4.31282 0
M  V30 3126 H 290.679 0.00159995 -0.670998 0
M  V30 3127 H 293.223 -0.634771 -1.94399 0
M  V30 3128 H 291.378 1.10921 -3.71181 0
M  V30 3129 H 291.792 -0.511181 -5.22003 0
M  V30 3130 H 293.266 1.19053 -5.39009 0
M  V30 3131 H 293.743 2.01013 -3.905 0
M  V30 3132 H 294.349 0.371173 -4.23677 0
M  V30 3133 N 292.664 1.56529 -0.183458 0
M  V30 3134 C 293.596 2.15747 0.773697 0
M  V30 3135 C 294.609 1.1162 1.1851 0
M  V30 3136 O 295.798 1.3876 1.12285 0
M  V30 3137 C 292.898 2.6952 2.05456 0
M  V30 3138 C 292.071 3.98429 1.8048 0
M  V30 3139 C 291.13 4.37145 2.92901 0
M  V30 3140 O 290.156 5.04791 2.6301 0
M  V30 3141 N 291.358 3.99695 4.2098 0
M  V30 3142 H 294.123 2.98505 0.26736 0
M  V30 3143 H 291.684 1.619 -0.0010878 0
M  V30 3144 H 293.676 2.92412 2.79781 0
M  V30 3145 H 292.246 1.91282 2.47245 0
M  V30 3146 H 291.466 3.8379 0.899947 0
M  V30 3147 H 292.754 4.82597 1.61175 0
M  V30 3148 H 292.152 3.4526 4.48121 0
M  V30 3149 H 290.709 4.27562 4.9197 0
M  V30 3150 N 294.142 -0.090211 1.57342 0
M  V30 3151 C 295.105 -1.09335 2.01441 0
M  V30 3152 C 296.105 -1.32666 0.908641 0
M  V30 3153 O 297.295 -1.28697 1.174 0
M  V30 3154 C 294.427 -2.44136 2.3793 0
M  V30 3155 H 295.62 -0.713662 2.91285 0
M  V30 3156 H 293.173 -0.335404 1.52659 0
M  V30 3157 H 293.908 -2.86972 1.51055 0
M  V30 3158 H 293.693 -2.28548 3.18603 0
M  V30 3159 H 295.183 -3.16277 2.72688 0
M  V30 3160 N 295.62 -1.53406 -0.361157 0
M  V30 3161 C 296.86 -1.71507 -1.11197 0
M  V30 3162 C 297.224 -0.459337 -1.86425 0
M  V30 3163 O 298.425 -0.517102 -2.63779 0
M  V30 3164 C 296.696 -2.93307 -2.0422 0
M  V30 3165 S 298.255 -3.32135 -2.86761 0
M  V30 3166 H 295.073 -0.603448 -0.375995 0
M  V30 3167 H 297.675 -1.91516 -0.392642 0
M  V30 3168 H 296.379 -3.82891 -1.47724 0
M  V30 3169 H 295.91 -2.75712 -2.80618 0
M  V30 3170 H 297.925 -2.84493 -4.06544 0
M  V30 3171 N 297.098 0.621204 -1.44841 0
M  V30 3172 C 298.509 1.20298 -1.42777 0
M  V30 3173 C 298.86 1.95639 -0.148259 0
M  V30 3174 O 297.985 2.02955 0.750892 0
M  V30 3175 C 298.58 2.1882 -2.58657 0
M  V30 3176 C 297.139 2.72403 -2.59756 0
M  V30 3177 C 296.286 1.4757 -2.34773 0
M  V30 3178 H 299.237 0.411297 -1.53278 0
M  V30 3179 H 299.258 3.01607 -2.31977 0
M  V30 3180 H 298.77 1.63957 -3.51766 0
M  V30 3181 H 296.871 3.31242 -1.70615 0
M  V30 3182 H 296.984 3.17765 -3.58556 0
M  V30 3183 H 295.348 1.76051 -1.8406 0
M  V30 3184 H 296.131 0.945954 -3.3001 0
M  V30 3185 N 298.576 1.31904 0.862503 0
M  V30 3186 C 299.523 1.20182 1.9704 0
M  V30 3187 C 300.493 0.0858247 1.65878 0
M  V30 3188 O 301.678 0.26 1.8902 0
M  V30 3189 C 298.818 0.922797 3.32533 0
M  V30 3190 C 297.931 2.12284 3.76244 0
M  V30 3191 C 297.066 1.77996 5.00491 0
M  V30 3192 C 296.105 2.94366 5.36671 0
M  V30 3193 N 295.242 2.60223 6.52095 0
M  V30 3194 H 300.082 2.14951 2.06398 0
M  V30 3195 H 297.619 1.06917 1.01031 0
M  V30 3196 H 299.577 0.741548 4.10557 0
M  V30 3197 H 298.207 0.0119227 3.22798 0
M  V30 3198 H 297.259 2.41461 2.9394 0
M  V30 3199 H 298.571 2.99357 3.98982 0
M  V30 3200 H 297.725 1.56377 5.862 0
M  V30 3201 H 296.464 0.881252 4.79672 0
M  V30 3202 H 295.469 3.16625 4.49476 0
M  V30 3203 H 296.694 3.84957 5.59451 0
M  V30 3204 H 294.64 1.72884 6.32809 0
M  V30 3205 H 294.557 3.40827 6.74814 0
M  V30 3206 H 295.825 2.42016 7.40978 0
M  V30 3207 N 300.054 -1.07777 1.14986 0
M  V30 3208 C 301.3 -1.80557 0.923422 0
M  V30 3209 C 301.633 -1.86298 -0.548337 0
M  V30 3210 O 300.908 -1.34354 -1.40639 0
M  V30 3211 C 301.191 -3.25839 1.53299 0
M  V30 3212 C 301.044 -3.28269 3.07505 0
M  V30 3213 C 302.363 -4.22991 1.21518 0
M  V30 3214 H 299.482 -0.655493 0.336894 0
M  V30 3215 H 302.124 -1.26144 1.42083 0
M  V30 3216 H 300.274 -3.72306 1.10999 0
M  V30 3217 H 301.946 -2.90079 3.58681 0
M  V30 3218 H 300.189 -2.67355 3.4162 0
M  V30 3219 H 300.86 -4.30691 3.45266 0
M  V30 3220 H 303.336 -3.84894 1.581 0
M  V30 3221 H 302.212 -5.22945 1.66793 0
M  V30 3222 H 302.473 -4.41904 0.131505 0
M  V30 3223 N 301.532 -0.945985 -1.26051 0
M  V30 3224 C 302.757 -0.612525 -1.98149 0
M  V30 3225 C 303.182 0.806623 -1.69927 0
M  V30 3226 O 302.54 1.54411 -0.950108 0
M  V30 3227 C 302.588 -0.866981 -3.50023 0
M  V30 3228 O 301.692 0.0585333 -4.12358 0
M  V30 3229 H 301.033 -0.23379 -0.621481 0
M  V30 3230 H 303.563 -1.27023 -1.60395 0
M  V30 3231 H 303.573 -0.789792 -4.00283 0
M  V30 3232 H 302.248 -1.90135 -3.69894 0
M  V30 3233 H 300.825 -0.0701241 -3.72834 0
M  V30 3234 N 303.011 1.40521 -0.713556 0
M  V30 3235 C 304.258 2.00923 -0.25219 0
M  V30 3236 C 304.586 1.56571 1.15395 0
M  V30 3237 O 303.841 0.775874 1.79663 0
M  V30 3238 C 304.14 3.56317 -0.278 0
M  V30 3239 C 303.806 4.20246 -1.63415 0
M  V30 3240 C 302.468 4.37422 -2.00538 0
M  V30 3241 C 304.82 4.55923 -2.52554 0
M  V30 3242 C 302.148 4.87558 -3.2635 0
M  V30 3243 C 304.5 5.07458 -3.77716 0
M  V30 3244 C 303.164 5.22843 -4.14959 0
M  V30 3245 H 302.434 0.735231 -0.0922829 0
M  V30 3246 H 305.081 1.68161 -0.916188 0
M  V30 3247 H 303.386 3.88976 0.469567 0
M  V30 3248 H 305.083 4.00883 0.0967819 0
M  V30 3249 H 301.673 4.07263 -1.33546 0
M  V30 3250 H 305.857 4.42291 -2.25149 0
M  V30 3251 H 301.113 4.97654 -3.55176 0
M  V30 3252 H 305.287 5.34041 -4.4696 0
M  V30 3253 H 302.914 5.61454 -5.12516 0
M  V30 3254 N 304.489 0.459591 1.5075 0
M  V30 3255 C 305.399 -0.34613 2.32033 0
M  V30 3256 C 306.415 -1.00686 1.41909 0
M  V30 3257 O 307.591 -0.997361 1.7497 0
M  V30 3258 C 304.656 -1.42029 3.16273 0
M  V30 3259 C 303.717 -0.777362 4.22203 0
M  V30 3260 C 302.95 -1.80034 5.02418 0
M  V30 3261 O 303.173 -3.02544 4.83553 0
M  V30 3262 O 302.107 -1.37853 5.85901 0
M  V30 3263 H 305.933 0.318054 3.0203 0
M  V30 3264 H 303.518 0.221663 1.47746 0
M  V30 3265 H 305.4 -2.04275 3.68578 0
M  V30 3266 H 304.075 -2.06815 2.49016 0
M  V30 3267 H 302.982 -0.116256 3.73919 0
M  V30 3268 H 304.315 -0.172634 4.91897 0
M  V30 3269 N 305.967 -1.56429 0.191757 0
M  V30 3270 C 307.378 -1.83912 -0.321428 0
M  V30 3271 C 307.729 -1.11231 -1.61623 0
M  V30 3272 O 306.854 -0.37202 -2.13178 0
M  V30 3273 C 307.449 -3.33624 -0.589961 0
M  V30 3274 C 306.008 -3.6153 -1.04753 0
M  V30 3275 C 305.155 -2.7714 -0.0943327 0
M  V30 3276 H 308.106 -1.53161 0.415612 0
M  V30 3277 H 308.127 -3.52213 -1.43966 0
M  V30 3278 H 307.639 -3.86495 0.352588 0
M  V30 3279 H 305.74 -3.14089 -2.00447 0
M  V30 3280 H 305.853 -4.69737 -0.942549 0
M  V30 3281 H 304.217 -2.47638 -0.595589 0
M  V30 3282 H 305 -3.32799 0.842601 0
M  V30 3283 N 307.445 0.0818655 -1.57387 0
M  V30 3284 C 308.694 0.781681 -1.85937 0
M  V30 3285 C 309.007 1.79246 -0.782957 0
M  V30 3286 O 310.213 2.54112 -0.955987 0
M  V30 3287 C 308.669 1.44109 -3.29789 0
M  V30 3288 C 308.277 0.469396 -4.45534 0
M  V30 3289 C 310.021 2.12386 -3.67549 0
M  V30 3290 C 307.928 1.13415 -5.80423 0
M  V30 3291 H 306.858 0.295682 -0.693605 0
M  V30 3292 H 309.509 0.0348051 -1.83467 0
M  V30 3293 H 307.891 2.23588 -3.2684 0
M  V30 3294 H 309.065 -0.294856 -4.59856 0
M  V30 3295 H 307.38 -0.108383 -4.16259 0
M  V30 3296 H 309.977 2.62878 -4.65617 0
M  V30 3297 H 310.32 2.91877 -2.96839 0
M  V30 3298 H 310.853 1.39751 -3.72444 0
M  V30 3299 H 307.592 0.379771 -6.54399 0
M  V30 3300 H 307.112 1.8695 -5.69921 0
M  V30 3301 H 308.791 1.65686 -6.25426 0
M  V30 3302 N 308.923 1.53595 0.353017 0
M  V30 3303 C 310.334 1.61937 0.929153 0
M  V30 3304 C 310.685 0.494686 1.89861 0
M  V30 3305 O 309.81 -0.377017 2.1309 0
M  V30 3306 C 310.405 2.93526 1.69199 0
M  V30 3307 C 308.964 3.04161 2.21727 0
M  V30 3308 C 308.111 2.57322 1.03348 0
M  V30 3309 H 311.062 1.58155 0.131431 0
M  V30 3310 H 311.083 2.82034 2.55416 0
M  V30 3311 H 310.595 3.75362 0.986144 0
M  V30 3312 H 308.696 2.26938 2.95516 0
M  V30 3313 H 308.809 4.09465 2.48748 0
M  V30 3314 H 307.173 2.12499 1.40414 0
M  V30 3315 H 307.956 3.41588 0.342428 0
M  V30 3316 N 310.401 -0.613514 1.45168 0
M  V30 3317 C 311.65 -1.36874 1.4815 0
M  V30 3318 C 311.963 -1.952 0.124982 0
M  V30 3319 O 313.169 -2.71481 0.0324176 0
M  V30 3320 C 311.625 -2.47905 2.60904 0
M  V30 3321 C 311.233 -1.96016 4.02842 0
M  V30 3322 C 312.977 -3.24965 2.73126 0
M  V30 3323 C 310.884 -3.04494 5.06988 0
M  V30 3324 H 309.814 -0.514428 0.551253 0
M  V30 3325 H 312.465 -0.658182 1.7129 0
M  V30 3326 H 310.847 -3.21618 2.31037 0
M  V30 3327 H 312.021 -1.29051 4.4236 0
M  V30 3328 H 310.336 -1.31719 3.95018 0
M  V30 3329 H 312.933 -4.05865 3.48106 0
M  V30 3330 H 313.276 -3.75588 1.79553 0
M  V30 3331 H 313.809 -2.5835 3.0249 0
M  V30 3332 H 310.548 -2.58795 6.0225 0
M  V30 3333 H 310.068 -3.70044 4.72046 0
M  V30 3334 H 311.747 -3.68976 5.31475 0
M  V30 3335 N 311.879 -1.3236 -0.855495 0
M  V30 3336 C 312.829 -1.17809 -1.95205 0
M  V30 3337 C 313.813 -0.0852319 -1.60674 0
M  V30 3338 O 315.005 -0.311651 -1.74235 0
M  V30 3339 C 312.134 -0.902437 -3.31226 0
M  V30 3340 C 311.22 -2.03695 -3.7198 0
M  V30 3341 N 311.611 -3.28544 -3.84568 0
M  V30 3342 C 309.909 -1.93993 -4.016 0
M  V30 3343 C 310.61 -4.02847 -4.19629 0
M  V30 3344 N 309.586 -3.31138 -4.31102 0
M  V30 3345 H 313.388 -2.12462 -2.0307 0
M  V30 3346 H 310.902 -1.24127 -1.0472 0
M  V30 3347 H 312.899 -0.77915 -4.09554 0
M  V30 3348 H 311.559 0.0357267 -3.2468 0
M  V30 3349 H 312.57 -3.6349 -3.68911 0
M  V30 3350 H 309.247 -1.07733 -4.03361 0
M  V30 3351 H 310.637 -5.10506 -4.36845 0
M  V30 3352 N 313.357 1.07166 -1.15556 0
M  V30 3353 C 314.587 1.83248 -0.954133 0
M  V30 3354 C 314.995 1.82449 0.500911 0
M  V30 3355 O 314.338 1.23575 1.35923 0
M  V30 3356 C 314.4 3.31393 -1.39351 0
M  V30 3357 C 314.064 3.5591 -2.86666 0
M  V30 3358 C 315.061 3.49695 -3.8472 0
M  V30 3359 C 312.746 3.83515 -3.24379 0
M  V30 3360 C 314.74 3.70737 -5.18491 0
M  V30 3361 C 312.427 4.04209 -4.58321 0
M  V30 3362 C 313.425 3.97815 -5.55186 0
M  V30 3363 O 313.113 4.17954 -6.86709 0
M  V30 3364 H 312.845 0.584941 -0.338851 0
M  V30 3365 H 315.399 1.36169 -1.53777 0
M  V30 3366 H 313.629 3.79292 -0.75329 0
M  V30 3367 H 315.318 3.88945 -1.16089 0
M  V30 3368 H 316.084 3.28368 -3.56931 0
M  V30 3369 H 311.963 3.87605 -2.49567 0
M  V30 3370 H 315.507 3.65663 -5.94085 0
M  V30 3371 H 311.404 4.25023 -4.85825 0
M  V30 3372 H 312.172 4.35291 -6.93155 0
M  V30 3373 N 314.835 0.952656 1.25548 0
M  V30 3374 C 316.075 0.614013 1.9496 0
M  V30 3375 C 316.439 -0.833215 1.72978 0
M  V30 3376 O 317.64 -1.28135 2.36294 0
M  V30 3377 C 315.911 0.960562 3.4425 0
M  V30 3378 S 317.47 0.734195 4.32614 0
M  V30 3379 H 314.288 0.225754 0.674208 0
M  V30 3380 H 316.89 1.22641 1.52248 0
M  V30 3381 H 315.594 2.01103 3.57751 0
M  V30 3382 H 315.125 0.338336 3.91942 0
M  V30 3383 H 317.14 -0.395995 4.94617 0
M  V30 3384 N 316.313 -1.40141 0.720998 0
M  V30 3385 C 317.276 -2.29058 0.0805834 0
M  V30 3386 C 318.276 -1.45632 -0.681758 0
M  V30 3387 O 319.466 -1.6648 -0.512856 0
M  V30 3388 C 316.598 -3.28925 -0.895593 0
M  V30 3389 H 317.791 -2.87191 0.863793 0
M  V30 3390 H 315.344 -1.48553 0.485975 0
M  V30 3391 H 316.079 -2.75822 -1.70566 0
M  V30 3392 H 315.864 -3.90519 -0.351766 0
M  V30 3393 H 317.354 -3.95494 -1.34069 0
M  V30 3394 N 317.792 -0.46758 -1.50504 0
M  V30 3395 C 319.203 -0.0116166 -1.86696 0
M  V30 3396 C 319.554 1.39202 -1.38265 0
M  V30 3397 O 318.679 2.0313 -0.746132 0
M  V30 3398 C 319.274 -0.0143044 -3.38797 0
M  V30 3399 C 317.833 0.386175 -3.74414 0
M  V30 3400 C 316.98 -0.401287 -2.74381 0
M  V30 3401 H 319.931 -0.682022 -1.43297 0
M  V30 3402 H 319.952 0.788641 -3.72237 0
M  V30 3403 H 319.464 -1.03602 -3.74016 0
M  V30 3404 H 317.565 1.41237 -3.44794 0
M  V30 3405 H 317.678 0.0899596 -4.79016 0
M  V30 3406 H 316.042 0.144536 -2.5429 0
M  V30 3407 H 316.825 -1.42244 -3.12444 0
M  V30 3408 N 319.27 1.56325 -0.20005 0
M  V30 3409 C 320.233 2.18084 0.705132 0
M  V30 3410 C 321.233 1.13666 1.1374 0
M  V30 3411 O 322.423 1.39023 1.04968 0
M  V30 3412 C 319.555 2.78689 1.96329 0
M  V30 3413 H 320.748 2.99435 0.167023 0
M  V30 3414 H 318.301 1.56221 0.0495725 0
M  V30 3415 H 319.036 2.0115 2.5438 0
M  V30 3416 H 318.821 3.55133 1.66202 0
M  V30 3417 H 320.311 3.26096 2.60866 0
M  V30 3418 N 320.748 -0.0735177 1.57428 0
M  V30 3419 C 321.996 -0.771472 1.86796 0
M  V30 3420 C 322.317 -1.78201 0.791804 0
M  V30 3421 O 321.587 -1.95074 -0.179718 0
M  V30 3422 H 320.167 -0.28791 0.689287 0
M  V30 3423 H 322.829 -0.0500161 1.94836 0
M  V30 3424 H 321.925 -1.28874 2.8425 0
M  V30 3425 N 322.226 -1.5378 -0.344866 0
M  V30 3426 C 323.473 -1.70963 -1.08526 0
M  V30 3427 C 323.801 -0.472126 -1.88683 0
M  V30 3428 O 323.056 0.546116 -1.87926 0
M  V30 3429 C 323.355 -2.92407 -2.05506 0
M  V30 3430 C 323.021 -4.28066 -1.41671 0
M  V30 3431 C 321.683 -4.64951 -1.2399 0
M  V30 3432 C 324.035 -5.12344 -0.956726 0
M  V30 3433 C 321.363 -5.83733 -0.589277 0
M  V30 3434 C 323.715 -6.3179 -0.320015 0
M  V30 3435 C 322.379 -6.67372 -0.130881 0
M  V30 3436 H 321.649 -0.625598 -0.397124 0
M  V30 3437 H 324.296 -1.87995 -0.36469 0
M  V30 3438 H 322.601 -2.69973 -2.8394 0
M  V30 3439 H 324.298 -3.02895 -2.62784 0
M  V30 3440 H 320.888 -3.99034 -1.56429 0
M  V30 3441 H 325.072 -4.8438 -1.08118 0
M  V30 3442 H 320.328 -6.09877 -0.431344 0
M  V30 3443 H 324.502 -6.96386 0.0445072 0
M  V30 3444 H 322.129 -7.59273 0.375318 0
M  V30 3445 N 323.704 0.605807 -1.45491 0
M  V30 3446 C 324.667 1.69836 -1.5391 0
M  V30 3447 C 325.667 1.55261 -0.418424 0
M  V30 3448 O 326.857 1.60296 -0.681965 0
M  V30 3449 C 323.989 3.09117 -1.43734 0
M  V30 3450 H 325.182 1.63738 -2.51257 0
M  V30 3451 H 322.735 0.821689 -1.32959 0
M  V30 3452 H 323.47 3.20791 -0.475788 0
M  V30 3453 H 323.255 3.21104 -2.25021 0
M  V30 3454 H 324.745 3.88696 -1.52661 0
M  V30 3455 N 325.182 1.32811 0.848464 0
M  V30 3456 C 326.431 1.23075 1.59798 0
M  V30 3457 C 326.744 -0.204419 1.94529 0
M  V30 3458 O 327.95 -0.423701 2.68173 0
M  V30 3459 C 326.406 2.15594 2.88179 0
M  V30 3460 C 326.014 3.64228 2.60849 0
M  V30 3461 C 327.758 2.14709 3.66197 0
M  V30 3462 C 325.665 4.48689 3.85269 0
M  V30 3463 H 324.595 0.457091 0.599653 0
M  V30 3464 H 327.246 1.57813 0.936342 0
M  V30 3465 H 325.628 1.73778 3.55833 0
M  V30 3466 H 326.802 4.14424 2.01467 0
M  V30 3467 H 325.117 3.67306 1.96151 0
M  V30 3468 H 327.714 2.75046 4.58534 0
M  V30 3469 H 328.057 1.13966 4.00397 0
M  V30 3470 H 328.59 2.54837 3.05455 0
M  V30 3471 H 325.329 5.5027 3.56207 0
M  V30 3472 H 324.849 4.03241 4.44024 0
M  V30 3473 H 326.528 4.62006 4.52946 0
M  V30 3474 N 326.66 -1.06551 1.16123 0
M  V30 3475 C 327.59 -2.15935 0.88851 0
M  V30 3476 C 328.571 -1.69306 -0.164135 0
M  V30 3477 O 329.756 -1.94193 -0.0167857 0
M  V30 3478 C 326.886 -3.45149 0.385942 0
M  V30 3479 C 325.84 -4.05271 1.3762 0
M  V30 3480 C 325.166 -5.29664 0.732137 0
M  V30 3481 C 326.466 -4.44355 2.74493 0
M  V30 3482 H 328.16 -2.39006 1.80323 0
M  V30 3483 H 325.706 -1.14866 0.868435 0
M  V30 3484 H 327.659 -4.21004 0.182647 0
M  V30 3485 H 326.383 -3.21689 -0.564274 0
M  V30 3486 H 325.042 -3.3147 1.56599 0
M  V30 3487 H 324.69 -5.02499 -0.224483 0
M  V30 3488 H 324.39 -5.70848 1.39307 0
M  V30 3489 H 325.914 -6.08218 0.538802 0
M  V30 3490 H 327.328 -5.11303 2.59311 0
M  V30 3491 H 325.725 -4.96515 3.37035 0
M  V30 3492 H 326.795 -3.55339 3.29943 0
M  V30 3493 N 328.138 -0.959301 -1.25041 0
M  V30 3494 C 329.085 -0.482057 -2.2571 0
M  V30 3495 C 330.055 0.467939 -1.59372 0
M  V30 3496 O 331.24 0.380159 -1.86974 0
M  V30 3497 C 328.38 0.229623 -3.44335 0
M  V30 3498 C 327.493 -0.758156 -4.25295 0
M  V30 3499 C 326.628 -0.0234403 -5.31195 0
M  V30 3500 C 325.667 -1.00184 -6.03846 0
M  V30 3501 N 324.804 -0.29769 -7.01469 0
M  V30 3502 H 329.644 -1.34538 -2.65901 0
M  V30 3503 H 327.181 -0.674592 -1.3072 0
M  V30 3504 H 329.139 0.658856 -4.11965 0
M  V30 3505 H 327.769 1.05696 -3.05005 0
M  V30 3506 H 326.821 -1.30586 -3.57284 0
M  V30 3507 H 328.133 -1.50458 -4.75567 0
M  V30 3508 H 327.287 0.464201 -6.04922 0
M  V30 3509 H 326.026 0.755741 -4.81809 0
M  V30 3510 H 325.031 -1.50044 -5.2893 0
M  V30 3511 H 326.256 -1.78133 -6.55321 0
M  V30 3512 H 324.202 0.462668 -6.54366 0
M  V30 3513 H 324.119 -0.983128 -7.4958 0
M  V30 3514 H 325.387 0.16826 -7.79318 0
M  V30 3515 N 329.616 1.39756 -0.72842 0
M  V30 3516 C 330.856 2.025 -0.278078 0
M  V30 3517 C 331.22 1.5654 1.11173 0
M  V30 3518 O 332.421 2.11435 1.65978 0
M  V30 3519 C 330.692 3.55489 -0.369139 0
M  V30 3520 S 332.251 4.388 0.00232983 0
M  V30 3521 H 329.069 0.702534 -0.109391 0
M  V30 3522 H 331.671 1.70672 -0.95348 0
M  V30 3523 H 330.375 3.86429 -1.38204 0
M  V30 3524 H 329.906 3.92061 0.324308 0
M  V30 3525 H 331.921 4.80954 1.22055 0
M  V30 3526 N 331.094 0.475555 1.50254 0
M  V30 3527 C 332.042 -0.330276 2.30243 0
M  V30 3528 C 333.036 -0.986306 1.37726 0
M  V30 3529 O 334.242 -0.9169 1.54897 0
M  V30 3530 H 330.617 -0.125353 0.741479 0
M  V30 3531 H 332.588 0.364702 2.96163 0
M  V30 3532 C 331.337 -1.39704 3.18399 0
M  V30 3533 H 330.66 -0.901621 3.89501 0
M  V30 3534 H 332.1 -1.93336 3.77355 0
M  V30 3535 C 330.559 -2.4014 2.36293 0
M  V30 3536 O 331.089 -3.45504 2.04914 0
M  V30 3537 N 329.295 -2.1197 1.98789 0
M  V30 3538 H 328.842 -1.2631 2.24507 0
M  V30 3539 H 328.8 -2.79403 1.44157 0
M  V30 3540 N 332.573 -1.56217 0.208337 0
M  V30 3541 C 333.85 -1.89739 -0.475234 0
M  V30 3542 C 334.23 -1.1238 -1.78701 0
M  V30 3543 O 333.578 -0.228979 -2.2735 0
M  V30 3544 C 333.788 -3.42289 -0.681101 0
M  V30 3545 C 335.136 -4.12789 -0.994507 0
M  V30 3546 O 336.16 -3.47814 -0.768357 0
M  V30 3547 O 335.019 -5.27649 -1.42299 0
M  V30 3548 H 332.113 -0.788478 -0.249461 0
M  V30 3549 H 334.659 -1.67855 0.249538 0
M  V30 3550 H 333.431 -3.90534 0.244722 0
M  V30 3551 H 333.054 -3.69909 -1.45785 0
M  V30 3552 N 334.051 0.0651679 -1.57465 0
M  V30 3553 C 334.998 1.07675 -2.04144 0
M  V30 3554 C 335.968 1.38071 -0.923335 0
M  V30 3555 O 337.153 1.49026 -1.19146 0
M  V30 3556 C 334.293 2.38337 -2.49579 0
M  V30 3557 C 333.406 2.14413 -3.75035 0
M  V30 3558 C 332.541 3.38686 -4.09225 0
M  V30 3559 C 331.58 3.10156 -5.27702 0
M  V30 3560 N 330.717 4.26778 -5.57499 0
M  V30 3561 H 335.557 0.671716 -2.90331 0
M  V30 3562 H 333.094 0.3201 -1.43575 0
M  V30 3563 H 335.052 3.14632 -2.73975 0
M  V30 3564 H 333.682 2.7663 -1.6636 0
M  V30 3565 H 332.734 1.2878 -3.57939 0
M  V30 3566 H 334.046 1.89344 -4.61466 0
M  V30 3567 H 333.2 4.23373 -4.34558 0
M  V30 3568 H 331.939 3.66837 -3.21374 0
M  V30 3569 H 330.944 2.23866 -5.02159 0
M  V30 3570 H 332.169 2.8332 -6.17176 0
M  V30 3571 H 330.115 4.54948 -4.72608 0
M  V30 3572 H 330.032 4.05005 -6.38362 0
M  V30 3573 H 331.3 5.12443 -5.87386 0
M  V30 3574 N 335.529 1.53961 0.336706 0
M  V30 3575 C 336.476 1.82428 1.41381 0
M  V30 3576 C 337.446 0.670444 1.51968 0
M  V30 3577 O 338.631 0.915565 1.67398 0
M  V30 3578 C 335.771 2.04564 2.77934 0
M  V30 3579 C 334.884 3.32267 2.76084 0
M  V30 3580 C 334.019 3.44434 4.04399 0
M  V30 3581 C 333.058 4.66061 3.96804 0
M  V30 3582 N 332.195 4.75224 5.16823 0
M  V30 3583 H 337.035 2.74324 1.16405 0
M  V30 3584 H 334.572 1.35869 0.563752 0
M  V30 3585 H 336.53 2.15388 3.57301 0
M  V30 3586 H 335.16 1.15974 3.01247 0
M  V30 3587 H 334.212 3.3025 1.88784 0
M  V30 3588 H 335.524 4.21733 2.66351 0
M  V30 3589 H 334.678 3.54728 4.92192 0
M  V30 3590 H 333.417 2.53037 4.16921 0
M  V30 3591 H 332.422 4.55838 3.07396 0
M  V30 3592 H 333.647 5.58829 3.85858 0
M  V30 3593 H 331.593 3.86739 5.29876 0
M  V30 3594 H 331.51 5.58636 5.09374 0
M  V30 3595 H 332.778 4.89835 6.06367 0
M  V30 3596 N 337.007 -0.598083 1.45811 0
M  V30 3597 C 338.254 -1.35681 1.50323 0
M  V30 3598 C 338.582 -1.9393 0.148739 0
M  V30 3599 O 337.837 -1.76094 -0.853787 0
M  V30 3600 C 338.136 -2.51669 2.53766 0
M  V30 3601 C 337.802 -2.11508 3.98215 0
M  V30 3602 C 336.464 -2.0027 4.37545 0
M  V30 3603 C 338.816 -1.80308 4.89018 0
M  V30 3604 C 336.144 -1.56067 5.65562 0
M  V30 3605 C 338.496 -1.37589 6.17456 0
M  V30 3606 C 337.16 -1.24916 6.55708 0
M  V30 3607 H 336.43 -0.496492 0.550069 0
M  V30 3608 H 339.077 -0.675052 1.79207 0
M  V30 3609 H 337.382 -3.25225 2.18486 0
M  V30 3610 H 339.079 -3.09895 2.54492 0
M  V30 3611 H 335.669 -2.21185 3.67117 0
M  V30 3612 H 339.853 -1.87884 4.59362 0
M  V30 3613 H 335.109 -1.44886 5.93985 0
M  V30 3614 H 339.283 -1.12495 6.87254 0
M  V30 3615 H 336.91 -0.904386 7.54801 0
M  V30 3616 N 338.485 -1.33259 -0.841409 0
M  V30 3617 C 339.433 -1.23279 -1.97244 0
M  V30 3618 C 340.427 -0.134706 -1.68864 0
M  V30 3619 O 341.633 -0.298501 -1.77508 0
M  V30 3620 H 338.008 -0.382497 -0.647457 0
M  V30 3621 H 339.979 -2.18906 -2.02787 0
M  V30 3622 C 338.728 -0.986268 -3.33419 0
M  V30 3623 H 338.051 -1.82347 -3.55794 0
M  V30 3624 H 339.491 -0.956728 -4.13065 0
M  V30 3625 C 337.95 0.310842 -3.35463 0
M  V30 3626 O 338.48 1.31838 -3.79449 0
M  V30 3627 N 336.686 0.337485 -2.88634 0
M  V30 3628 H 336.233 -0.482967 -2.53032 0
M  V30 3629 H 336.191 1.20518 -2.90384 0
M  V30 3630 N 339.963 1.05934 -1.16686 0
M  V30 3631 C 341.211 1.78447 -0.948744 0
M  V30 3632 C 341.532 1.87813 0.524523 0
M  V30 3633 O 340.802 1.38945 1.38098 0
M  V30 3634 H 339.382 0.660971 -0.348033 0
M  V30 3635 H 342.044 1.27947 -1.47022 0
M  V30 3636 H 341.14 2.80394 -1.37061 0
M  V30 3637 N 341.441 0.965919 1.2453 0
M  V30 3638 C 342.669 0.644385 1.96609 0
M  V30 3639 C 343.084 -0.785823 1.71669 0
M  V30 3640 O 342.441 -1.52703 0.999399 0
M  V30 3641 C 342.492 0.907375 3.49927 0
M  V30 3642 O 342.213 2.28136 3.74013 0
M  V30 3643 C 343.714 0.599784 4.39224 0
M  V30 3644 H 340.934 0.240588 0.626385 0
M  V30 3645 H 343.478 1.29337 1.58405 0
M  V30 3646 H 341.633 0.304631 3.862 0
M  V30 3647 H 342.047 2.36002 4.68405 0
M  V30 3648 H 343.521 0.834263 5.45659 0
M  V30 3649 H 343.998 -0.465921 4.36722 0
M  V30 3650 H 344.604 1.18235 4.08535 0
M  V30 3651 N 342.919 -1.39368 0.735821 0
M  V30 3652 C 344.167 -2.00101 0.283562 0
M  V30 3653 C 344.488 -1.5868 -1.13338 0
M  V30 3654 O 343.758 -0.835423 -1.77193 0
M  V30 3655 H 342.338 -0.740024 0.101851 0
M  V30 3656 H 345 -1.70404 0.945962 0
M  V30 3657 H 344.096 -3.10323 0.332604 0
M  V30 3658 N 344.397 -0.483516 -1.5 0
M  V30 3659 C 345.808 -0.0314176 -1.86674 0
M  V30 3660 C 346.159 1.37728 -1.39733 0
M  V30 3661 O 345.284 2.02327 -0.767635 0
M  V30 3662 C 345.879 -0.0502376 -3.38763 0
M  V30 3663 C 344.438 0.346442 -3.74802 0
M  V30 3664 C 343.585 -0.430366 -2.7394 0
M  V30 3665 H 346.536 -0.697182 -1.42566 0
M  V30 3666 H 346.557 0.749116 -3.73053 0
M  V30 3667 H 346.069 -1.07563 -3.72897 0
M  V30 3668 H 344.17 1.37572 -3.46273 0
M  V30 3669 H 344.283 0.0391486 -4.79084 0
M  V30 3670 H 342.647 0.117557 -2.54429 0
M  V30 3671 H 343.43 -1.4555 -3.10918 0
M  V30 3672 N 345.875 1.56104 -0.216619 0
M  V30 3673 C 347.115 2.00074 0.418322 0
M  V30 3674 C 347.479 1.10098 1.57297 0
M  V30 3675 O 348.68 1.43393 2.27359 0
M  V30 3676 C 346.951 3.47231 0.846477 0
M  V30 3677 S 348.51 4.13223 1.47622 0
M  V30 3678 H 345.328 0.698457 0.132962 0
M  V30 3679 H 347.93 1.92784 -0.324748 0
M  V30 3680 H 346.634 4.104 -0.0036319 0
M  V30 3681 H 346.165 3.58384 1.62248 0
M  V30 3682 H 348.18 4.12005 2.76526 0
M  V30 3683 N 347.353 -0.0568162 1.57498 0
M  V30 3684 C 348.581 -0.765626 1.92213 0
M  V30 3685 C 348.996 -1.70353 0.813961 0
M  V30 3686 O 348.353 -1.81268 -0.211701 0
M  V30 3687 C 348.404 -1.5465 3.2675 0
M  V30 3688 O 348.125 -0.646278 4.33307 0
M  V30 3689 C 349.626 -2.35497 3.75574 0
M  V30 3690 H 346.846 -0.216835 0.634999 0
M  V30 3691 H 349.39 -0.0226146 2.04487 0
M  V30 3692 H 347.545 -2.24165 3.15957 0
M  V30 3693 H 347.959 -1.19093 5.108 0
M  V30 3694 H 349.433 -2.85722 4.72299 0
M  V30 3695 H 349.91 -3.15692 3.05344 0
M  V30 3696 H 350.516 -1.7111 3.8936 0
M  V30 3697 N 348.832 -1.54138 -0.328536 0
M  V30 3698 C 349.78 -1.83894 -1.42428 0
M  V30 3699 C 350.774 -0.710478 -1.53781 0
M  V30 3700 O 351.98 -0.894062 -1.56226 0
M  V30 3701 H 348.355 -0.582837 -0.475189 0
M  V30 3702 H 350.326 -2.75537 -1.14552 0
M  V30 3703 C 349.075 -2.07866 -2.78724 0
M  V30 3704 H 348.398 -2.94158 -2.7076 0
M  V30 3705 H 349.838 -2.32644 -3.54476 0
M  V30 3706 C 348.297 -0.868689 -3.25508 0
M  V30 3707 O 348.827 -0.0754908 -4.01629 0
M  V30 3708 N 347.033 -0.681711 -2.82491 0
M  V30 3709 H 346.58 -1.32838 -2.20708 0
M  V30 3710 H 346.538 0.126374 -3.14146 0
M  V30 3711 N 350.31 0.590341 -1.46126 0
M  V30 3712 C 351.556 1.35082 -1.51264 0
M  V30 3713 C 351.889 1.93534 -0.160711 0
M  V30 3714 O 351.164 1.76045 0.826956 0
M  V30 3715 C 351.447 2.48588 -2.6053 0
M  V30 3716 C 351.3 1.95221 -4.05227 0
M  V30 3717 C 352.619 3.50662 -2.6594 0
M  V30 3718 H 349.738 0.489803 -0.550692 0
M  V30 3719 H 352.38 0.663887 -1.78024 0
M  V30 3720 H 350.53 3.07186 -2.37843 0
M  V30 3721 H 352.202 1.41139 -4.39178 0
M  V30 3722 H 350.445 1.26101 -4.15068 0
M  V30 3723 H 351.116 2.77121 -4.77397 0
M  V30 3724 H 353.592 3.01934 -2.86313 0
M  V30 3725 H 352.468 4.27551 -3.44226 0
M  V30 3726 H 352.729 4.07399 -1.71694 0
M  V30 3727 N 351.788 1.33704 0.83433 0
M  V30 3728 C 353.013 1.28615 1.62705 0
M  V30 3729 C 353.438 -0.139242 1.87584 0
M  V30 3730 O 352.796 -1.09734 1.4432 0
M  V30 3731 C 352.844 2.07139 2.95171 0
M  V30 3732 O 351.948 1.4331 3.86699 0
M  V30 3733 H 351.289 0.44226 0.49528 0
M  V30 3734 H 353.819 1.76335 1.03766 0
M  V30 3735 H 353.829 2.18073 3.44831 0
M  V30 3736 H 352.504 3.10779 2.76386 0
M  V30 3737 H 351.081 1.4105 3.45195 0
M  V30 3738 N 353.266 -1.05314 1.17247 0
M  V30 3739 C 354.494 -1.81971 0.984593 0
M  V30 3740 C 354.909 -1.82929 -0.467166 0
M  V30 3741 O 354.266 -1.25564 -1.32438 0
M  V30 3742 C 354.317 -3.28143 1.51672 0
M  V30 3743 O 354.038 -3.27347 2.91163 0
M  V30 3744 C 355.539 -4.21493 1.37326 0
M  V30 3745 H 352.759 -0.573455 0.348411 0
M  V30 3746 H 355.303 -1.32808 1.55506 0
M  V30 3747 H 353.458 -3.74582 0.988302 0
M  V30 3748 H 353.872 -4.18824 3.15732 0
M  V30 3749 H 355.346 -5.22043 1.79375 0
M  V30 3750 H 355.823 -4.38031 0.320169 0
M  V30 3751 H 356.429 -3.80909 1.89178 0
M  V30 3752 N 354.744 -0.972509 -1.24016 0
M  V30 3753 C 355.99 -0.637978 -1.92504 0
M  V30 3754 C 356.323 0.825383 -1.75787 0
M  V30 3755 O 355.598 1.59442 -1.11393 0
M  V30 3756 C 355.881 -1.01942 -3.45369 0
M  V30 3757 C 355.734 -2.53983 -3.71231 0
M  V30 3758 C 357.053 -0.55751 -4.36555 0
M  V30 3759 H 354.172 -0.233248 -0.699117 0
M  V30 3760 H 356.814 -1.21238 -1.46292 0
M  V30 3761 H 354.964 -0.530656 -3.84859 0
M  V30 3762 H 356.636 -3.10374 -3.41271 0
M  V30 3763 H 354.879 -2.96968 -3.16216 0
M  V30 3764 H 355.55 -2.75723 -4.78206 0
M  V30 3765 H 358.026 -0.977029 -4.04467 0
M  V30 3766 H 356.902 -0.85292 -5.42233 0
M  V30 3767 H 357.163 0.542328 -4.38761 0
M  V30 3768 N 356.222 1.38976 -0.743202 0
M  V30 3769 C 357.154 2.29096 -0.0689228 0
M  V30 3770 C 358.167 1.47229 0.694791 0
M  V30 3771 O 359.356 1.70212 0.537597 0
M  V30 3772 C 356.456 3.25988 0.926548 0
M  V30 3773 C 355.629 4.36833 0.222647 0
M  V30 3774 C 354.688 5.13981 1.12739 0
M  V30 3775 O 353.714 5.6601 0.601795 0
M  V30 3776 N 354.916 5.25966 2.45641 0
M  V30 3777 H 357.681 2.87604 -0.842846 0
M  V30 3778 H 355.242 1.50645 -0.593109 0
M  V30 3779 H 357.234 3.74476 1.5346 0
M  V30 3780 H 355.804 2.68453 1.60162 0
M  V30 3781 H 355.024 3.90116 -0.565983 0
M  V30 3782 H 356.312 5.0811 -0.264841 0
M  V30 3783 H 355.71 4.85228 2.9081 0
M  V30 3784 H 354.267 5.77865 3.01522 0
M  V30 3785 N 357.7 0.491464 1.49741 0
M  V30 3786 C 358.94 -0.0549118 2.04326 0
M  V30 3787 C 359.304 -1.35148 1.36378 0
M  V30 3788 O 360.505 -1.9815 1.81631 0
M  V30 3789 C 358.776 -0.213841 3.5676 0
M  V30 3790 S 360.335 -0.715839 4.32922 0
M  V30 3791 H 357.153 -0.00630513 0.710972 0
M  V30 3792 H 359.755 0.663257 1.83905 0
M  V30 3793 H 358.459 0.73527 4.0376 0
M  V30 3794 H 357.99 -0.957529 3.81569 0
M  V30 3795 H 360.005 -1.9864 4.54705 0
M  V30 3796 N 359.178 -1.55987 0.224894 0
M  V30 3797 C 360.406 -2.02784 -0.410665 0
M  V30 3798 C 360.821 -1.10464 -1.53112 0
M  V30 3799 O 360.178 -0.114871 -1.82138 0
M  V30 3800 C 360.229 -3.49087 -0.939165 0
M  V30 3801 O 359.95 -4.37887 0.136614 0
M  V30 3802 C 361.451 -4.11543 -1.64763 0
M  V30 3803 H 358.671 -0.663484 -0.100148 0
M  V30 3804 H 361.215 -2.01614 0.342326 0
M  V30 3805 H 359.37 -3.50861 -1.64242 0
M  V30 3806 H 359.784 -5.23849 -0.261155 0
M  V30 3807 H 361.258 -5.15673 -1.96939 0
M  V30 3808 H 361.735 -3.56736 -2.56195 0
M  V30 3809 H 362.341 -4.13629 -0.989503 0
M  V30 3810 N 360.656 0.0484629 -1.57525 0
M  V30 3811 C 361.606 1.06246 -2.01732 0
M  V30 3812 C 362.59 1.33155 -0.903245 0
M  V30 3813 O 363.782 1.33065 -1.16717 0
M  V30 3814 C 360.911 2.36943 -2.48421 0
M  V30 3815 C 359.997 2.13208 -3.6661 0
M  V30 3816 N 360.388 1.5947 -4.80003 0
M  V30 3817 C 358.686 2.43581 -3.7361 0
M  V30 3818 C 359.387 1.51092 -5.61735 0
M  V30 3819 N 358.363 1.9797 -5.0627 0
M  V30 3820 H 362.165 0.640675 -2.86832 0
M  V30 3821 H 359.679 0.255134 -1.60383 0
M  V30 3822 H 361.676 3.10374 -2.78341 0
M  V30 3823 H 360.336 2.79818 -1.64718 0
M  V30 3824 H 361.347 1.28008 -5.01831 0
M  V30 3825 H 358.024 2.89662 -3.00669 0
M  V30 3826 H 359.414 1.10199 -6.62801 0
M  V30 3827 N 362.134 1.5431 0.320358 0
M  V30 3828 C 363.382 1.72327 1.05583 0
M  V30 3829 C 363.703 0.50149 1.88441 0
M  V30 3830 O 362.973 -0.48448 1.89815 0
M  V30 3831 H 361.553 0.635387 0.3928 0
M  V30 3832 H 364.215 1.91621 0.356019 0
M  V30 3833 H 363.311 2.60426 1.72003 0
M  V30 3834 N 363.613 -0.582584 1.46437 0
M  V30 3835 C 364.862 -1.337 1.5102 0
M  V30 3836 C 365.175 -1.94891 0.166359 0
M  V30 3837 O 366.381 -2.71351 0.0899954 0
M  V30 3838 C 364.837 -2.42315 2.66104 0
M  V30 3839 C 364.445 -1.87427 4.06909 0
M  V30 3840 C 366.189 -3.19099 2.79958 0
M  V30 3841 C 364.096 -2.93672 5.13333 0
M  V30 3842 H 363.026 -0.502619 0.562041 0
M  V30 3843 H 365.677 -0.621701 1.72647 0
M  V30 3844 H 364.059 -3.16645 2.37807 0
M  V30 3845 H 365.233 -1.19639 4.44998 0
M  V30 3846 H 363.548 -1.2331 3.97723 0
M  V30 3847 H 366.145 -3.9839 3.56636 0
M  V30 3848 H 366.488 -3.71695 1.87479 0
M  V30 3849 H 367.021 -2.51875 3.07902 0
M  V30 3850 H 363.76 -2.45962 6.07604 0
M  V30 3851 H 363.28 -3.59948 4.79789 0
M  V30 3852 H 364.959 -3.5762 5.39182 0
M  V30 3853 N 365.091 -1.34144 -0.827227 0
M  V30 3854 C 366.507 -1.13732 -1.11969 0
M  V30 3855 C 366.707 0.0640463 -2.01398 0
M  V30 3856 O 365.763 0.740856 -2.41387 0
M  V30 3857 C 367.076 -2.43047 -1.77055 0
M  V30 3858 C 368.624 -2.49063 -1.89569 0
M  V30 3859 C 369.099 -3.78369 -2.58072 0
M  V30 3860 N 370.59 -3.79505 -2.65575 0
M  V30 3861 C 371.325 -4.76274 -3.19297 0
M  V30 3862 N 370.821 -5.83424 -3.73616 0
M  V30 3863 N 372.614 -4.63735 -3.17658 0
M  V30 3864 H 364.765 -2.11126 -0.232296 0
M  V30 3865 H 367.028 -0.933424 -0.165602 0
M  V30 3866 H 366.734 -3.31025 -1.18807 0
M  V30 3867 H 366.608 -2.56066 -2.76966 0
M  V30 3868 H 368.995 -1.61527 -2.46968 0
M  V30 3869 H 369.076 -2.39975 -0.885745 0
M  V30 3870 H 368.72 -4.66293 -2.01329 0
M  V30 3871 H 368.65 -3.84737 -3.59562 0
M  V30 3872 H 371.141 -3.02074 -2.27068 0
M  V30 3873 H 371.454 -6.53282 -4.12846 0
M  V30 3874 H 369.799 -5.87143 -3.71871 0
M  V30 3875 H 372.99 -3.79177 -2.74486 0
M  V30 3876 H 373.163 -5.39318 -3.59221 0
M  V30 3877 N 366.569 1.04691 -1.17803 0
M  V30 3878 C 367.98 1.59238 -0.974689 0
M  V30 3879 C 368.331 1.90306 0.477292 0
M  V30 3880 O 367.456 1.68846 1.35352 0
M  V30 3881 C 368.051 2.89318 -1.76296 0
M  V30 3882 C 366.61 3.40506 -1.60414 0
M  V30 3883 C 365.757 2.14172 -1.76141 0
M  V30 3884 H 368.708 0.874395 -1.32439 0
M  V30 3885 H 368.729 3.5944 -1.24833 0
M  V30 3886 H 368.241 2.66675 -2.81968 0
M  V30 3887 H 366.342 3.68175 -0.572519 0
M  V30 3888 H 366.455 4.14753 -2.39827 0
M  V30 3889 H 364.819 2.25176 -1.19028 0
M  V30 3890 H 365.602 1.93992 -2.83235 0
M  V30 3891 N 368.047 0.979072 1.23499 0
M  V30 3892 C 369.293 0.648178 1.92163 0
M  V30 3893 C 369.626 -0.816049 1.76222 0
M  V30 3894 O 368.901 -1.58849 1.12237 0
M  V30 3895 C 369.184 1.03773 3.44824 0
M  V30 3896 C 369.037 2.55948 3.69879 0
M  V30 3897 C 370.356 0.580653 4.36253 0
M  V30 3898 H 367.475 0.236952 0.69787 0
M  V30 3899 H 370.117 1.22012 1.45647 0
M  V30 3900 H 368.267 0.551058 3.84572 0
M  V30 3901 H 369.939 3.12179 3.3962 0
M  V30 3902 H 368.182 2.98641 3.14636 0
M  V30 3903 H 368.853 2.78255 4.76737 0
M  V30 3904 H 371.329 0.998465 4.03943 0
M  V30 3905 H 370.205 0.881663 5.41773 0
M  V30 3906 H 370.466 -0.519052 4.39042 0
M  V30 3907 N 369.525 -1.3858 0.750561 0
M  V30 3908 C 370.771 -2.00481 0.305825 0
M  V30 3909 C 371.104 -1.5944 -1.10872 0
M  V30 3910 O 370.379 -0.83052 -1.75877 0
M  V30 3911 C 370.662 -3.5758 0.425287 0
M  V30 3912 C 370.515 -4.08594 1.88072 0
M  V30 3913 C 371.834 -4.39719 -0.183122 0
M  V30 3914 H 368.953 -0.728348 0.112598 0
M  V30 3915 H 371.595 -1.64566 0.949638 0
M  V30 3916 H 369.745 -3.88306 -0.122828 0
M  V30 3917 H 371.417 -3.88523 2.48691 0
M  V30 3918 H 369.66 -3.61574 2.39681 0
M  V30 3919 H 370.331 -5.177 1.91548 0
M  V30 3920 H 372.807 -4.15128 0.284303 0
M  V30 3921 H 371.683 -5.48856 -0.0692757 0
M  V30 3922 H 371.944 -4.23434 -1.27106 0
M  V30 3923 N 371.003 -0.499398 -1.49478 0
M  V30 3924 C 372.228 0.044722 -2.07352 0
M  V30 3925 C 372.653 1.30207 -1.35749 0
M  V30 3926 O 372.011 1.76516 -0.413732 0
M  V30 3927 C 372.059 0.283013 -3.59488 0
M  V30 3928 O 371.163 1.35804 -3.89398 0
M  V30 3929 H 370.504 -0.0255147 -0.66351 0
M  V30 3930 H 373.034 -0.698561 -1.92305 0
M  V30 3931 H 373.044 0.515007 -4.04737 0
M  V30 3932 H 371.719 -0.635636 -4.11014 0
M  V30 3933 H 370.296 1.11113 -3.55961 0
M  V30 3934 N 372.481 1.55866 -0.233164 0
M  V30 3935 C 373.709 2.02998 0.399905 0
M  V30 3936 C 374.124 1.11274 1.52524 0
M  V30 3937 O 373.481 0.124528 1.82075 0
M  V30 3938 C 373.532 3.4958 0.920639 0
M  V30 3939 O 373.253 4.37808 -0.159834 0
M  V30 3940 C 374.754 4.12411 1.62578 0
M  V30 3941 H 371.974 0.664006 0.0966281 0
M  V30 3942 H 374.518 2.0143 -0.353013 0
M  V30 3943 H 372.673 3.51727 1.62379 0
M  V30 3944 H 373.087 5.23981 0.23337 0
M  V30 3945 H 374.561 5.16711 1.94201 0
M  V30 3946 H 375.038 3.5809 2.54299 0
M  V30 3947 H 375.644 4.14148 0.967553 0
M  V30 3948 N 373.959 -0.0401083 1.57549 0
M  V30 3949 C 374.891 -1.07149 2.02612 0
M  V30 3950 C 375.904 -1.33126 0.937085 0
M  V30 3951 O 377.093 -1.30808 1.21456 0
M  V30 3952 C 374.193 -2.41561 2.37701 0
M  V30 3953 C 373.366 -2.35096 3.68848 0
M  V30 3954 C 372.425 -3.51867 3.91249 0
M  V30 3955 O 371.451 -3.3186 4.62447 0
M  V30 3956 N 372.653 -4.73351 3.36035 0
M  V30 3957 H 375.418 -0.687485 2.91708 0
M  V30 3958 H 372.979 -0.228248 1.60283 0
M  V30 3959 H 374.971 -3.18379 2.49833 0
M  V30 3960 H 373.541 -2.71846 1.54332 0
M  V30 3961 H 372.761 -1.4345 3.67173 0
M  V30 3962 H 374.049 -2.27908 4.54901 0
M  V30 3963 H 373.447 -4.92507 2.78304 0
M  V30 3964 H 372.004 -5.47572 3.53565 0
M  V30 3965 N 375.437 -1.54477 -0.31217 0
M  V30 3966 C 376.367 -1.87652 -1.38957 0
M  V30 3967 C 377.348 -0.734358 -1.53431 0
M  V30 3968 O 378.533 -0.98911 -1.67123 0
M  V30 3969 C 375.663 -2.11396 -2.75552 0
M  V30 3970 C 374.617 -3.27243 -2.75855 0
M  V30 3971 C 373.943 -3.36382 -4.15633 0
M  V30 3972 C 375.243 -4.64622 -2.38587 0
M  V30 3973 H 376.937 -2.77887 -1.11442 0
M  V30 3974 H 374.483 -1.33707 -0.534655 0
M  V30 3975 H 376.436 -2.33189 -3.51 0
M  V30 3976 H 375.16 -1.17921 -3.04569 0
M  V30 3977 H 373.819 -3.05356 -2.02863 0
M  V30 3978 H 373.467 -2.40445 -4.41809 0
M  V30 3979 H 373.167 -4.14249 -4.1674 0
M  V30 3980 H 374.691 -3.60422 -4.92877 0
M  V30 3981 H 376.105 -4.86219 -3.03749 0
M  V30 3982 H 374.502 -5.45121 -2.50925 0
M  V30 3983 H 375.572 -4.66097 -1.33723 0
M  V30 3984 N 376.915 0.57481 -1.46744 0
M  V30 3985 C 377.845 1.69337 -1.60771 0
M  V30 3986 C 378.826 1.63825 -0.457736 0
M  V30 3987 O 380.011 1.8172 -0.684947 0
M  V30 3988 C 377.141 3.0798 -1.60517 0
M  V30 3989 C 376.095 3.28327 -2.74564 0
M  V30 3990 C 375.421 4.67578 -2.59373 0
M  V30 3991 C 376.721 3.15398 -4.16319 0
M  V30 3992 H 378.415 1.57853 -2.54407 0
M  V30 3993 H 375.961 0.75799 -1.22436 0
M  V30 3994 H 377.914 3.86061 -1.68923 0
M  V30 3995 H 376.638 3.20381 -0.634305 0
M  V30 3996 H 375.297 2.52649 -2.65639 0
M  V30 3997 H 374.945 4.76755 -1.60353 0
M  V30 3998 H 374.645 4.82144 -3.35873 0
M  V30 3999 H 376.169 5.47817 -2.69682 0
M  V30 4000 H 377.583 3.83315 -4.26313 0
M  V30 4001 H 375.98 3.41482 -4.93468 0
M  V30 4002 H 377.05 2.12372 -4.3592 0
M  V30 4003 N 378.394 1.34581 0.820102 0
M  V30 4004 C 379.324 1.29038 1.94606 0
M  V30 4005 C 380.305 0.1673 1.69275 0
M  V30 4006 O 381.49 0.360112 1.90832 0
M  V30 4007 C 378.62 1.04793 3.31113 0
M  V30 4008 C 377.574 2.13597 3.70891 0
M  V30 4009 C 376.9 1.74537 5.05412 0
M  V30 4010 C 378.2 3.55451 3.8269 0
M  V30 4011 H 379.894 2.23248 1.99501 0
M  V30 4012 H 377.44 1.0747 0.958449 0
M  V30 4013 H 379.393 0.995592 4.0947 0
M  V30 4014 H 378.117 0.0702565 3.26524 0
M  V30 4015 H 376.776 2.17905 2.9481 0
M  V30 4016 H 376.424 0.754226 4.97313 0
M  V30 4017 H 376.124 2.47361 5.32997 0
M  V30 4018 H 377.648 1.70803 5.86224 0
M  V30 4019 H 379.062 3.5354 4.51312 0
M  V30 4020 H 377.459 4.26922 4.21732 0
M  V30 4021 H 378.529 3.92587 2.84611 0
M  V30 4022 N 379.872 -1.04064 1.18357 0
M  V30 4023 C 380.82 -2.14187 0.907007 0
M  V30 4024 C 381.814 -1.68879 -0.132725 0
M  V30 4025 O 383.02 -1.79993 0.0154248 0
M  V30 4026 H 379.395 -0.699585 0.275835 0
M  V30 4027 H 381.366 -2.34711 1.84264 0
M  V30 4028 C 380.115 -3.44785 0.449254 0
M  V30 4029 H 379.438 -3.80058 1.24081 0
M  V30 4030 H 380.878 -4.22974 0.294737 0
M  V30 4031 C 379.337 -3.26391 -0.834909 0
M  V30 4032 O 379.867 -3.53973 -1.89911 0
M  V30 4033 N 378.073 -2.79726 -0.787523 0
M  V30 4034 H 377.62 -2.5748 0.0787347 0
M  V30 4035 H 377.578 -2.67798 -1.64716 0
M  V30 4036 N 381.35 -0.985608 -1.22978 0
M  V30 4037 C 382.598 -0.656087 -1.91154 0
M  V30 4038 C 382.919 0.813561 -1.77218 0
M  V30 4039 O 382.189 1.58244 -1.1548 0
M  V30 4040 H 380.769 -0.239674 -0.707506 0
M  V30 4041 H 383.431 -1.25054 -1.49491 0
M  V30 4042 H 382.527 -0.912253 -2.9847 0
M  V30 4043 N 382.828 1.3818 -0.7579 0
M  V30 4044 C 384.053 2.04827 -0.325679 0
M  V30 4045 C 384.478 1.56788 1.03919 0
M  V30 4046 O 383.836 0.721811 1.66312 0
M  V30 4047 C 383.884 3.58774 -0.362447 0
M  V30 4048 O 382.988 4.07372 0.642033 0
M  V30 4049 H 382.329 0.64833 -0.143402 0
M  V30 4050 H 384.859 1.7677 -1.03023 0
M  V30 4051 H 384.869 4.07434 -0.214844 0
M  V30 4052 H 383.544 3.93096 -1.35824 0
M  V30 4053 H 382.121 3.70068 0.458688 0
M  V30 4054 N 384.306 0.507319 1.49211 0
M  V30 4055 C 385.236 -0.256939 2.32082 0
M  V30 4056 C 386.217 -0.956609 1.40652 0
M  V30 4057 O 387.402 -0.946788 1.69557 0
M  V30 4058 C 384.532 -1.31802 3.21318 0
M  V30 4059 C 383.486 -0.737855 4.21592 0
M  V30 4060 C 382.812 -1.89992 4.99807 0
M  V30 4061 C 384.112 0.275325 5.21574 0
M  V30 4062 H 385.806 0.434798 2.96226 0
M  V30 4063 H 383.352 0.210546 1.42452 0
M  V30 4064 H 385.305 -1.86045 3.78107 0
M  V30 4065 H 384.029 -2.03903 2.5513 0
M  V30 4066 H 382.688 -0.217126 3.65956 0
M  V30 4067 H 382.336 -2.60877 4.30061 0
M  V30 4068 H 382.036 -1.51777 5.6766 0
M  V30 4069 H 383.56 -2.44657 5.59442 0
M  V30 4070 H 384.974 -0.179193 5.7302 0
M  V30 4071 H 383.371 0.573649 5.97352 0
M  V30 4072 H 384.441 1.18903 4.70096 0
M  V30 4073 N 385.784 -1.5574 0.241426 0
M  V30 4074 C 386.747 -2.19877 -0.647063 0
M  V30 4075 C 387.747 -1.16642 -1.10686 0
M  V30 4076 O 388.937 -1.41757 -1.01245 0
M  V30 4077 C 386.069 -2.83797 -1.88871 0
M  V30 4078 H 387.262 -2.99772 -0.087574 0
M  V30 4079 H 384.815 -1.56298 -0.00813574 0
M  V30 4080 H 385.55 -2.07824 -2.48957 0
M  V30 4081 H 385.335 -3.59414 -1.56728 0
M  V30 4082 H 386.825 -3.32898 -2.52129 0
M  V30 4083 N 387.262 0.0317525 -1.57568 0
M  V30 4084 C 388.172 1.05021 -2.0978 0
M  V30 4085 C 389.188 1.39809 -1.03583 0
M  V30 4086 O 390.364 1.49182 -1.35302 0
M  V30 4087 C 387.429 2.33301 -2.56459 0
M  V30 4088 C 386.49 2.0512 -3.77127 0
M  V30 4089 C 385.723 3.27283 -4.2157 0
M  V30 4090 O 385.946 4.37861 -3.65559 0
M  V30 4091 O 384.88 3.13141 -5.14029 0
M  V30 4092 H 388.706 0.636505 -2.96955 0
M  V30 4093 H 386.291 0.248559 -1.47318 0
M  V30 4094 H 388.173 3.08722 -2.86825 0
M  V30 4095 H 386.848 2.73973 -1.72397 0
M  V30 4096 H 385.755 1.27276 -3.51784 0
M  V30 4097 H 387.088 1.69305 -4.62165 0
M  V30 4098 N 388.74 1.54641 0.303973 0
M  V30 4099 C 389.65 1.88439 1.39743 0
M  V30 4100 C 390.666 0.778239 1.55626 0
M  V30 4101 O 391.842 1.07442 1.70347 0
M  V30 4102 C 388.907 2.12212 2.74166 0
M  V30 4103 C 387.968 3.35936 2.67293 0
M  V30 4104 C 387.201 3.58566 3.95305 0
M  V30 4105 O 387.424 2.84263 4.9452 0
M  V30 4106 O 386.358 4.52078 3.97378 0
M  V30 4107 H 390.184 2.81458 1.14083 0
M  V30 4108 H 387.769 1.40793 0.499768 0
M  V30 4109 H 389.651 2.29067 3.53704 0
M  V30 4110 H 388.326 1.22379 2.99675 0
M  V30 4111 H 387.233 3.24448 1.86237 0
M  V30 4112 H 388.566 4.2589 2.46736 0
M  V30 4113 N 390.218 -0.567019 1.47046 0
M  V30 4114 C 391.128 -1.70247 1.6141 0
M  V30 4115 C 392.144 -1.66746 0.497157 0
M  V30 4116 O 393.32 -1.86371 0.763389 0
M  V30 4117 C 390.385 -3.06756 1.61561 0
M  V30 4118 C 389.446 -3.21399 2.84607 0
M  V30 4119 C 388.679 -4.51396 2.84741 0
M  V30 4120 O 388.902 -5.36255 1.94388 0
M  V30 4121 O 387.836 -4.69621 3.76483 0
M  V30 4122 H 391.662 -1.61073 2.57467 0
M  V30 4123 H 389.247 -0.735894 1.30019 0
M  V30 4124 H 391.129 -3.8801 1.64396 0
M  V30 4125 H 389.804 -3.16333 0.686684 0
M  V30 4126 H 388.711 -2.39579 2.8732 0
M  V30 4127 H 390.044 -3.16721 3.76761 0
M  V30 4128 N 391.696 -1.35014 -0.812953 0
M  V30 4129 C 392.945 -1.27269 -1.56479 0
M  V30 4130 C 393.258 0.152771 -1.95002 0
M  V30 4131 O 394.464 0.352451 -2.69203 0
M  V30 4132 C 392.92 -2.23159 -2.82362 0
M  V30 4133 C 392.528 -3.71016 -2.511 0
M  V30 4134 C 394.272 -2.24342 -3.60376 0
M  V30 4135 C 392.179 -4.58746 -3.73237 0
M  V30 4136 H 391.109 -0.472829 -0.587324 0
M  V30 4137 H 393.76 -1.6024 -0.894171 0
M  V30 4138 H 392.142 -1.83151 -3.51101 0
M  V30 4139 H 393.316 -4.1962 -1.90409 0
M  V30 4140 H 391.631 -3.72378 -1.86343 0
M  V30 4141 H 394.228 -2.87107 -4.51081 0
M  V30 4142 H 394.571 -1.24542 -3.97234 0
M  V30 4143 H 395.104 -2.62846 -2.98591 0
M  V30 4144 H 391.843 -5.59521 -3.41492 0
M  V30 4145 H 391.363 -4.14871 -4.33176 0
M  V30 4146 H 393.042 -4.73852 -4.40537 0
M  V30 4147 N 393.175 1.03435 -1.18907 0
M  V30 4148 C 394.421 1.77005 -0.989798 0
M  V30 4149 C 394.754 1.88205 0.478816 0
M  V30 4150 O 394.029 1.39481 1.35556 0
M  V30 4151 C 394.312 3.19925 -1.65287 0
M  V30 4152 C 394.165 3.1663 -3.19477 0
M  V30 4153 C 395.484 4.18189 -1.37134 0
M  V30 4154 H 392.603 0.642538 -0.360991 0
M  V30 4155 H 395.245 1.20784 -1.46667 0
M  V30 4156 H 393.395 3.67929 -1.24741 0
M  V30 4157 H 395.067 2.76567 -3.692 0
M  V30 4158 H 393.31 2.54491 -3.51307 0
M  V30 4159 H 393.981 4.1758 -3.61013 0
M  V30 4160 H 396.457 3.78761 -1.72276 0
M  V30 4161 H 395.333 5.16394 -1.86087 0
M  V30 4162 H 395.594 4.41112 -0.295424 0
M  V30 4163 N 394.653 0.992116 1.22453 0
M  V30 4164 C 395.902 0.662992 1.90492 0
M  V30 4165 C 396.215 -0.808407 1.78113 0
M  V30 4166 O 397.421 -1.24908 2.41061 0
M  V30 4167 C 395.877 1.1353 3.41524 0
M  V30 4168 C 395.485 2.63187 3.62542 0
M  V30 4169 C 397.229 0.880465 4.15269 0
M  V30 4170 C 395.136 3.04024 5.0727 0
M  V30 4171 H 394.066 0.244278 0.713333 0
M  V30 4172 H 396.717 1.20157 1.38688 0
M  V30 4173 H 395.099 0.52485 3.92506 0
M  V30 4174 H 396.273 3.2957 3.22056 0
M  V30 4175 H 394.588 2.86543 3.02129 0
M  V30 4176 H 397.185 1.16128 5.21937 0
M  V30 4177 H 397.528 -0.183408 4.15896 0
M  V30 4178 H 398.061 1.45307 3.70312 0
M  V30 4179 H 394.8 4.09584 5.11782 0
M  V30 4180 H 394.32 2.42343 5.48662 0
M  V30 4181 H 395.999 2.95282 5.75689 0
M  V30 4182 N 396.131 -1.37776 0.765217 0
M  V30 4183 C 397.547 -1.53297 0.444108 0
M  V30 4184 C 397.747 -1.72515 -1.04119 0
M  V30 4185 O 396.803 -1.74278 -1.82711 0
M  V30 4186 C 398.116 -2.73328 1.25349 0
M  V30 4187 C 399.664 -2.87185 1.24473 0
M  V30 4188 C 400.139 -4.10191 2.03733 0
M  V30 4189 N 401.63 -4.17291 2.01053 0
M  V30 4190 C 402.365 -5.11488 2.59166 0
M  V30 4191 N 401.861 -6.11285 3.26041 0
M  V30 4192 N 403.654 -5.03924 2.49032 0
M  V30 4193 H 395.805 -1.23552 1.72768 0
M  V30 4194 H 398.068 -0.601103 0.733062 0
M  V30 4195 H 397.774 -2.6557 2.30577 0
M  V30 4196 H 397.648 -3.66834 0.87823 0
M  V30 4197 H 400.035 -2.94418 0.20047 0
M  V30 4198 H 400.116 -1.94657 1.65959 0
M  V30 4199 H 399.76 -4.0372 3.08176 0
M  V30 4200 H 399.69 -5.01821 1.59633 0
M  V30 4201 H 402.181 -3.45825 1.5236 0
M  V30 4202 H 402.494 -6.79678 3.67774 0
M  V30 4203 H 400.839 -6.11583 3.30138 0
M  V30 4204 H 404.03 -4.24902 1.96407 0
M  V30 4205 H 404.203 -5.77152 2.94617 0
M  V30 4206 N 397.609 -0.515225 -1.4894 0
M  V30 4207 C 398.834 0.022727 -2.07388 0
M  V30 4208 C 399.259 1.2876 -1.37122 0
M  V30 4209 O 398.617 1.76067 -0.432431 0
M  V30 4210 C 398.665 0.244869 -3.59768 0
M  V30 4211 O 397.769 1.31667 -3.90817 0
M  V30 4212 H 397.11 -0.0325506 -0.663202 0
M  V30 4213 H 399.64 -0.718918 -1.91553 0
M  V30 4214 H 399.65 0.47205 -4.0526 0
M  V30 4215 H 398.325 -0.679194 -4.10317 0
M  V30 4216 H 396.902 1.07331 -3.5712 0
M  V30 4217 N 399.087 1.5561 -0.249682 0
M  V30 4218 C 399.997 2.25143 0.659375 0
M  V30 4219 C 401.013 1.2685 1.19101 0
M  V30 4220 O 402.189 1.59732 1.22669 0
M  V30 4221 C 399.254 2.93945 1.8384 0
M  V30 4222 C 398.315 4.07655 1.34596 0
M  V30 4223 C 397.548 4.73167 2.46878 0
M  V30 4224 O 397.771 4.37768 3.65671 0
M  V30 4225 O 396.705 5.61623 2.16478 0
M  V30 4226 H 400.531 3.03545 0.0968698 0
M  V30 4227 H 398.116 1.49389 -0.018074 0
M  V30 4228 H 399.998 3.37271 2.52638 0
M  V30 4229 H 398.673 2.18481 2.38847 0
M  V30 4230 H 397.58 3.68839 0.625174 0
M  V30 4231 H 398.913 4.84946 0.841941 0
M  V30 4232 N 400.565 -0.0233959 1.57583 0
M  V30 4233 C 401.513 -1.04063 2.08023 0
M  V30 4234 C 402.507 -1.37084 0.995204 0
M  V30 4235 O 403.713 -1.35923 1.18004 0
M  V30 4236 H 400.088 -0.353144 0.663922 0
M  V30 4237 H 402.059 -0.589453 2.9252 0
M  V30 4238 C 400.808 -2.33123 2.57971 0
M  V30 4239 H 400.131 -2.08577 3.4108 0
M  V30 4240 H 401.571 -3.02632 2.96967 0
M  V30 4241 C 400.03 -3.02483 1.48342 0
M  V30 4242 O 400.56 -3.92541 0.852898 0
M  V30 4243 N 398.766 -2.63909 1.21658 0
M  V30 4244 H 398.313 -1.90758 1.73116 0
M  V30 4245 H 398.271 -3.10633 0.485218 0
M  V30 4246 N 402.043 -1.548 -0.295768 0
M  V30 4247 C 403.29 -1.74329 -1.03032 0
M  V30 4248 C 403.618 -0.531915 -1.87085 0
M  V30 4249 O 402.873 0.486052 -1.89568 0
M  V30 4250 C 403.172 -2.98797 -1.961 0
M  V30 4251 C 402.838 -4.32356 -1.2798 0
M  V30 4252 C 401.5 -4.68661 -1.09135 0
M  V30 4253 C 403.852 -5.15128 -0.793243 0
M  V30 4254 C 401.18 -5.85312 -0.403269 0
M  V30 4255 C 403.532 -6.32488 -0.118854 0
M  V30 4256 C 402.196 -6.6745 0.0815043 0
M  V30 4257 H 401.466 -0.637916 -0.37702 0
M  V30 4258 H 404.113 -1.8906 -0.304696 0
M  V30 4259 H 402.418 -2.78869 -2.75207 0
M  V30 4260 H 404.115 -3.11102 -2.53015 0
M  V30 4261 H 400.705 -4.03808 -1.43655 0
M  V30 4262 H 404.889 -4.87575 -0.92653 0
M  V30 4263 H 400.145 -6.1094 -0.237098 0
M  V30 4264 H 404.319 -6.95892 0.266035 0
M  V30 4265 H 401.946 -7.57695 0.616685 0
M  V30 4266 N 403.521 0.559213 -1.47345 0
M  V30 4267 C 404.749 1.34194 -1.57479 0
M  V30 4268 C 405.164 1.87463 -0.224261 0
M  V30 4269 O 404.521 1.64888 0.782185 0
M  V30 4270 C 404.572 2.51324 -2.59843 0
M  V30 4271 O 404.293 2.00256 -3.89653 0
M  V30 4272 C 405.794 3.43563 -2.80142 0
M  V30 4273 H 403.014 0.409136 -0.531835 0
M  V30 4274 H 405.558 0.677609 -1.92947 0
M  V30 4275 H 403.713 3.13699 -2.27314 0
M  V30 4276 H 404.127 2.76708 -4.4557 0
M  V30 4277 H 405.601 4.2217 -3.55635 0
M  V30 4278 H 406.078 3.9698 -1.87892 0
M  V30 4279 H 406.684 2.87005 -3.1386 0
M  V30 4280 N 404.999 1.35443 0.805782 0
M  V30 4281 C 405.947 1.28465 1.93906 0
M  V30 4282 C 406.941 0.17943 1.68447 0
M  V30 4283 O 408.147 0.345459 1.76654 0
M  V30 4284 H 404.522 0.399528 0.637088 0
M  V30 4285 H 406.493 2.24206 1.96912 0
M  V30 4286 C 405.242 1.07432 3.30687 0
M  V30 4287 H 404.565 1.91716 3.50835 0
M  V30 4288 H 406.005 1.06591 4.10383 0
M  V30 4289 C 404.464 -0.22179 3.36169 0
M  V30 4290 O 404.994 -1.21731 3.82811 0
M  V30 4291 N 403.2 -0.260841 2.89427 0
M  V30 4292 H 402.747 0.549884 2.51663 0
M  V30 4293 H 402.705 -1.12777 2.93477 0
M  V30 4294 N 406.477 -1.02803 1.19454 0
M  V30 4295 C 407.425 -2.13213 0.929673 0
M  V30 4296 C 408.419 -1.69011 -0.114806 0
M  V30 4297 O 409.625 -1.79967 0.0345147 0
M  V30 4298 H 406 -0.69662 0.28324 0
M  V30 4299 H 407.971 -2.32744 1.86743 0
M  V30 4300 C 406.72 -3.4429 0.485797 0
M  V30 4301 H 406.043 -3.7872 1.28105 0
M  V30 4302 H 407.483 -4.22638 0.339582 0
M  V30 4303 C 405.942 -3.27258 -0.800244 0
M  V30 4304 O 406.472 -3.55967 -1.86146 0
M  V30 4305 N 404.678 -2.80545 -0.75781 0
M  V30 4306 H 404.225 -2.57382 0.106039 0
M  V30 4307 H 404.183 -2.6953 -1.61867 0
M  V30 4308 N 407.956 -0.998596 -1.21925 0
M  V30 4309 C 408.919 -0.558679 -2.22287 0
M  V30 4310 C 409.919 0.361525 -1.56683 0
M  V30 4311 O 411.109 0.152695 -1.73529 0
M  V30 4312 C 408.241 0.18661 -3.40389 0
M  V30 4313 H 409.434 -1.4463 -2.62721 0
M  V30 4314 H 406.987 -0.786413 -1.35075 0
M  V30 4315 H 407.722 1.08996 -3.05435 0
M  V30 4316 H 407.507 -0.474188 -3.89222 0
M  V30 4317 H 408.997 0.482367 -4.14805 0
M  V30 4318 N 409.434 1.37368 -0.772513 0
M  V30 4319 C 410.381 2.30262 -0.157488 0
M  V30 4320 C 411.351 1.51137 0.688965 0
M  V30 4321 O 412.536 1.79704 0.641168 0
M  V30 4322 C 409.676 3.37611 0.715045 0
M  V30 4323 C 408.789 4.31746 -0.148098 0
M  V30 4324 C 407.924 5.26171 0.729213 0
M  V30 4325 C 406.963 6.11948 -0.136418 0
M  V30 4326 N 406.1 6.98613 0.698914 0
M  V30 4327 H 410.94 2.82277 -0.955179 0
M  V30 4328 H 408.477 1.38957 -0.482631 0
M  V30 4329 H 410.435 3.98479 1.23575 0
M  V30 4330 H 409.065 2.86959 1.47833 0
M  V30 4331 H 408.117 3.72178 -0.786613 0
M  V30 4332 H 409.429 4.92084 -0.81579 0
M  V30 4333 H 408.583 5.92247 1.31637 0
M  V30 4334 H 407.322 4.66246 1.43059 0
M  V30 4335 H 406.327 5.4485 -0.736102 0
M  V30 4336 H 407.552 6.73945 -0.835134 0
M  V30 4337 H 405.498 6.41215 1.38489 0
M  V30 4338 H 405.415 7.55948 0.0885358 0
M  V30 4339 H 406.683 7.69077 1.27044 0
M  V30 4340 N 410.912 0.523116 1.48665 0
M  V30 4341 C 412.14 -0.0096312 2.06898 0
M  V30 4342 C 412.555 -1.28784 1.38059 0
M  V30 4343 O 411.912 -1.76453 0.465893 0
M  V30 4344 C 411.963 -0.244386 3.60673 0
M  V30 4345 O 411.684 0.983172 4.26925 0
M  V30 4346 C 413.185 -0.818289 4.35682 0
M  V30 4347 H 410.405 0.0304161 0.67031 0
M  V30 4348 H 412.949 0.726799 1.91149 0
M  V30 4349 H 411.104 -0.930847 3.76051 0
M  V30 4350 H 411.518 0.759653 5.1897 0
M  V30 4351 H 412.992 -0.93201 5.44075 0
M  V30 4352 H 413.469 -1.82153 3.99646 0
M  V30 4353 H 414.075 -0.168609 4.24966 0
M  V30 4354 N 412.39 -1.55475 0.257931 0
M  V30 4355 C 413.639 -1.98383 -0.364275 0
M  V30 4356 C 413.952 -1.14952 -1.58258 0
M  V30 4357 O 415.158 -1.47924 -2.27664 0
M  V30 4358 C 413.614 -3.53037 -0.699479 0
M  V30 4359 C 413.222 -4.45223 0.498046 0
M  V30 4360 C 414.966 -4.04575 -1.28526 0
M  V30 4361 C 412.873 -5.91238 0.138383 0
M  V30 4362 H 411.803 -0.740911 -0.13988 0
M  V30 4363 H 414.454 -1.79936 0.359883 0
M  V30 4364 H 412.836 -3.6722 -1.48207 0
M  V30 4365 H 414.01 -4.42803 1.27522 0
M  V30 4366 H 412.325 -4.04226 0.999503 0
M  V30 4367 H 414.922 -5.11196 -1.56788 0
M  V30 4368 H 415.265 -3.5258 -2.21344 0
M  V30 4369 H 415.798 -3.93762 -0.565337 0
M  V30 4370 H 412.537 -6.47294 1.03398 0
M  V30 4371 H 412.057 -5.96768 -0.602374 0
M  V30 4372 H 413.736 -6.46413 -0.27553 0
M  V30 4373 N 413.868 0.0150385 -1.57593 0
M  V30 4374 C 415.117 0.702115 -1.89085 0
M  V30 4375 C 415.43 1.75764 -0.858277 0
M  V30 4376 O 416.636 2.49829 -1.0629 0
M  V30 4377 C 415.092 1.29992 -3.35604 0
M  V30 4378 C 414.7 0.280007 -4.47124 0
M  V30 4379 C 416.444 1.96606 -3.76227 0
M  V30 4380 C 414.351 0.886949 -5.84711 0
M  V30 4381 H 413.281 0.265997 -0.705522 0
M  V30 4382 H 415.932 -0.0430408 -1.8345 0
M  V30 4383 H 414.314 2.09525 -3.36029 0
M  V30 4384 H 415.488 -0.489631 -4.58191 0
M  V30 4385 H 413.803 -0.284835 -4.15425 0
M  V30 4386 H 416.4 2.42893 -4.76347 0
M  V30 4387 H 416.743 2.79024 -3.08952 0
M  V30 4388 H 417.276 1.23828 -3.78036 0
M  V30 4389 H 414.015 0.101876 -6.55421 0
M  V30 4390 H 413.535 1.6261 -5.77337 0
M  V30 4391 H 415.214 1.39011 -6.3189 0
M  V30 4392 N 415.346 1.54954 0.287554 0
M  V30 4393 C 416.592 1.75132 1.02257 0
M  V30 4394 C 416.925 0.542858 1.86458 0
M  V30 4395 O 416.2 -0.459856 1.88986 0
M  V30 4396 C 416.483 3.04812 1.91733 0
M  V30 4397 C 416.336 4.35985 1.10622 0
M  V30 4398 C 417.655 3.30438 2.90687 0
M  V30 4399 H 414.774 0.637194 0.370341 0
M  V30 4400 H 417.416 1.87678 0.296111 0
M  V30 4401 H 415.566 2.94247 2.53675 0
M  V30 4402 H 417.238 4.58487 0.508636 0
M  V30 4403 H 415.481 4.31865 0.409271 0
M  V30 4404 H 416.152 5.23017 1.76513 0
M  V30 4405 H 418.628 3.40701 2.38877 0
M  V30 4406 H 417.504 4.22467 3.50447 0
M  V30 4407 H 417.765 2.49377 3.65053 0
M  V30 4408 N 416.824 -0.551391 1.4764 0
M  V30 4409 C 417.756 -1.67333 1.56628 0
M  V30 4410 C 418.769 -1.56398 0.452045 0
M  V30 4411 O 419.958 -1.6325 0.721926 0
M  V30 4412 C 417.058 -3.05841 1.45994 0
M  V30 4413 C 416.231 -3.42472 2.72088 0
M  V30 4414 C 415.29 -4.60168 2.55209 0
M  V30 4415 O 414.316 -4.64458 3.2904 0
M  V30 4416 N 415.518 -5.57024 1.63416 0
M  V30 4417 H 418.283 -1.60066 2.53375 0
M  V30 4418 H 415.844 -0.738169 1.44093 0
M  V30 4419 H 417.836 -3.8242 1.32428 0
M  V30 4420 H 416.406 -3.07302 0.573071 0
M  V30 4421 H 415.626 -2.55284 3.00373 0
M  V30 4422 H 416.914 -3.63723 3.55785 0
M  V30 4423 H 416.312 -5.56319 1.02594 0
M  V30 4424 H 414.869 -6.32906 1.558 0
M  V30 4425 N 418.302 -1.35869 -0.798587 0
M  V30 4426 C 419.232 -1.32118 -1.92528 0
M  V30 4427 C 420.213 -0.194209 -1.68988 0
M  V30 4428 O 421.398 -0.390426 -1.90235 0
M  V30 4429 C 418.528 -1.10047 -3.29404 0
M  V30 4430 C 417.482 -2.19471 -3.67446 0
M  V30 4431 C 416.808 -1.82555 -5.02571 0
M  V30 4432 C 418.108 -3.61495 -3.76987 0
M  V30 4433 H 419.802 -2.26394 -1.95924 0
M  V30 4434 H 417.348 -1.08981 -0.94123 0
M  V30 4435 H 419.301 -1.06061 -4.07835 0
M  V30 4436 H 418.025 -0.122195 -3.26371 0
M  V30 4437 H 416.684 -2.22568 -2.91306 0
M  V30 4438 H 416.332 -0.833249 -4.9605 0
M  V30 4439 H 416.032 -2.5581 -5.28995 0
M  V30 4440 H 417.556 -1.80108 -5.83432 0
M  V30 4441 H 418.97 -3.60676 -4.4563 0
M  V30 4442 H 417.367 -4.33577 -4.14887 0
M  V30 4443 H 418.437 -3.97065 -2.78329 0
M  V30 4444 N 419.78 1.02168 -1.19998 0
M  V30 4445 C 420.728 2.12717 -0.940967 0
M  V30 4446 C 421.722 1.69069 0.105841 0
M  V30 4447 O 422.928 1.79946 -0.0440583 0
M  V30 4448 H 419.303 0.695108 -0.28693 0
M  V30 4449 H 421.274 2.3175 -1.87975 0
M  V30 4450 C 420.023 3.44027 -0.504049 0
M  V30 4451 H 419.346 3.78036 -1.30112 0
M  V30 4452 H 420.786 4.22452 -0.361991 0
M  V30 4453 C 419.245 3.27678 0.782878 0
M  V30 4454 O 419.775 3.56949 1.84256 0
M  V30 4455 N 417.981 2.80943 0.742921 0
M  V30 4456 H 417.528 2.57322 -0.119687 0
M  V30 4457 H 417.486 2.70385 1.60435 0
M  V30 4458 N 421.258 1.00505 1.21394 0
M  V30 4459 C 422.168 0.574806 2.27449 0
M  V30 4460 C 423.184 -0.382206 1.6975 0
M  V30 4461 O 424.36 -0.246027 1.99892 0
M  V30 4462 C 421.425 -0.0917414 3.46579 0
M  V30 4463 C 420.486 0.909758 4.1955 0
M  V30 4464 C 419.719 0.274924 5.32991 0
M  V30 4465 O 419.942 -0.928254 5.62796 0
M  V30 4466 O 418.876 0.985877 5.93771 0
M  V30 4467 H 422.702 1.45744 2.66444 0
M  V30 4468 H 420.287 0.773923 1.27792 0
M  V30 4469 H 422.169 -0.464551 4.18832 0
M  V30 4470 H 420.844 -0.948755 3.09484 0
M  V30 4471 H 419.751 1.33372 3.49518 0
M  V30 4472 H 421.084 1.73636 4.60555 0
M  V30 4473 N 422.737 -1.36956 0.779787 0
M  V30 4474 C 423.962 -2.04283 0.358224 0
M  V30 4475 C 424.387 -1.58422 -1.01411 0
M  V30 4476 O 423.745 -0.748179 -1.65142 0
M  V30 4477 C 423.793 -3.58152 0.419479 0
M  V30 4478 O 422.897 -4.08342 -0.577142 0
M  V30 4479 H 422.238 -0.645967 0.153698 0
M  V30 4480 H 424.768 -1.75108 1.05822 0
M  V30 4481 H 424.778 -4.07041 0.279636 0
M  V30 4482 H 423.453 -3.90886 1.42061 0
M  V30 4483 H 422.03 -3.70751 -0.399755 0
M  V30 4484 N 424.215 -0.530993 -1.48385 0
M  V30 4485 C 425.461 0.00274135 -2.028 0
M  V30 4486 C 425.794 1.33838 -1.40716 0
M  V30 4487 O 425.069 1.86465 -0.553277 0
M  V30 4488 C 425.352 0.123676 -3.59888 0
M  V30 4489 C 425.205 -1.2372 -4.3245 0
M  V30 4490 C 426.524 0.849967 -4.31814 0
M  V30 4491 H 423.643 -0.000477758 -0.737 0
M  V30 4492 H 426.285 -0.688217 -1.77098 0
M  V30 4493 H 424.435 0.712157 -3.81917 0
M  V30 4494 H 426.107 -1.86687 -4.21836 0
M  V30 4495 H 424.35 -1.81882 -3.93829 0
M  V30 4496 H 425.021 -1.10557 -5.40815 0
M  V30 4497 H 427.497 0.350572 -4.14621 0
M  V30 4498 H 426.373 0.903486 -5.41413 0
M  V30 4499 H 426.634 1.90047 -3.99167 0
M  V30 4500 N 425.693 1.55336 -0.266172 0
M  V30 4501 C 426.939 1.99692 0.353681 0
M  V30 4502 C 427.272 1.1543 1.56172 0
M  V30 4503 O 426.547 0.222218 1.93226 0
M  V30 4504 C 426.83 3.52316 0.74466 0
M  V30 4505 C 426.683 4.47337 -0.470101 0
M  V30 4506 C 428.002 4.10588 1.58447 0
M  V30 4507 H 425.121 0.725961 0.12708 0
M  V30 4508 H 427.763 1.86336 -0.371333 0
M  V30 4509 H 425.913 3.63829 1.36239 0
M  V30 4510 H 427.585 4.4778 -1.10864 0
M  V30 4511 H 425.828 4.19364 -1.10978 0
M  V30 4512 H 426.499 5.51788 -0.15291 0
M  V30 4513 H 428.975 4.02297 1.06286 0
M  V30 4514 H 427.851 5.17607 1.82686 0
M  V30 4515 H 428.112 3.60253 2.56262 0
M  V30 4516 N 427.171 -0.0066808 1.57599 0
M  V30 4517 C 428.42 -0.692078 1.89455 0
M  V30 4518 C 428.733 -1.75306 0.867586 0
M  V30 4519 O 429.939 -2.49262 1.07614 0
M  V30 4520 C 428.395 -1.2821 3.36289 0
M  V30 4521 C 428.003 -0.256291 4.47266 0
M  V30 4522 C 429.747 -1.94608 3.77264 0
M  V30 4523 C 427.654 -0.855927 5.85173 0
M  V30 4524 H 426.584 -0.262252 0.706923 0
M  V30 4525 H 429.235 0.052769 1.83424 0
M  V30 4526 H 427.617 -2.0774 3.37135 0
M  V30 4527 H 428.791 0.513923 4.57925 0
M  V30 4528 H 427.106 0.306862 4.15268 0
M  V30 4529 H 429.703 -2.40364 4.77629 0
M  V30 4530 H 430.046 -2.77382 3.10427 0
M  V30 4531 H 430.579 -1.21822 3.78688 0
M  V30 4532 H 427.318 -0.0671161 6.55466 0
M  V30 4533 H 426.838 -1.59546 5.78191 0
M  V30 4534 H 428.517 -1.35658 6.32618 0
M  V30 4535 N 428.649 -1.55105 -0.279332 0
M  V30 4536 C 429.597 -1.88333 -1.36505 0
M  V30 4537 C 430.591 -0.759043 -1.51443 0
M  V30 4538 O 431.797 -0.943312 -1.53302 0
M  V30 4539 H 428.172 -0.59766 -0.456406 0
M  V30 4540 H 430.143 -2.79041 -1.05728 0
M  V30 4541 C 428.892 -2.16628 -2.7197 0
M  V30 4542 H 428.215 -3.02624 -2.61264 0
M  V30 4543 H 429.655 -2.43803 -3.46895 0
M  V30 4544 C 428.114 -0.971807 -3.22579 0
M  V30 4545 O 428.644 -0.203228 -4.01186 0
M  V30 4546 N 426.85 -0.771238 -2.80179 0
M  V30 4547 H 426.397 -1.39792 -2.1637 0
M  V30 4548 H 426.355 0.0263667 -3.14389 0
M  V30 4549 N 430.127 0.543554 -1.4793 0
M  V30 4550 C 431.367 1.31072 -1.56843 0
M  V30 4551 C 431.731 1.90604 -0.231124 0
M  V30 4552 O 432.932 2.68091 -0.195165 0
M  V30 4553 C 431.203 2.38106 -2.66533 0
M  V30 4554 S 432.762 3.24729 -2.95122 0
M  V30 4555 H 429.58 0.446035 -0.553691 0
M  V30 4556 H 432.182 0.620777 -1.85382 0
M  V30 4557 H 430.886 1.92828 -3.62278 0
M  V30 4558 H 430.417 3.11824 -2.39852 0
M  V30 4559 H 432.432 4.37891 -2.3338 0
M  V30 4560 N 431.605 1.3629 0.791371 0
M  V30 4561 C 432.833 1.33562 1.58016 0
M  V30 4562 C 433.248 -0.0835616 1.88615 0
M  V30 4563 O 432.605 -1.0399 1.49974 0
M  V30 4564 C 432.656 2.15517 2.90232 0
M  V30 4565 O 432.377 3.51902 2.60953 0
M  V30 4566 C 433.878 2.20546 3.84544 0
M  V30 4567 H 431.098 0.458226 0.490173 0
M  V30 4568 H 433.642 1.79361 0.982345 0
M  V30 4569 H 431.797 1.73278 3.46487 0
M  V30 4570 H 432.211 3.94644 3.4548 0
M  V30 4571 H 433.685 2.82252 4.74382 0
M  V30 4572 H 434.162 1.20838 4.2225 0
M  V30 4573 H 434.768 2.63013 3.34222 0
M  V30 4574 N 433.083 -1.0153 1.20538 0
M  V30 4575 C 434.499 -1.27461 0.96051 0
M  V30 4576 C 434.699 -1.98273 -0.359193 0
M  V30 4577 O 433.755 -2.27886 -1.0874 0
M  V30 4578 C 435.068 -2.10837 2.14402 0
M  V30 4579 C 436.616 -2.24099 2.18515 0
M  V30 4580 C 437.091 -3.10852 3.36355 0
M  V30 4581 N 438.582 -3.18441 3.36377 0
M  V30 4582 C 439.317 -3.85795 4.24205 0
M  V30 4583 N 438.813 -4.55264 5.22213 0
M  V30 4584 N 440.606 -3.82331 4.12043 0
M  V30 4585 H 432.757 -0.539907 2.05423 0
M  V30 4586 H 435.02 -0.30092 0.898972 0
M  V30 4587 H 434.726 -1.66144 3.09983 0
M  V30 4588 H 434.6 -3.11576 2.12604 0
M  V30 4589 H 436.987 -2.68016 1.23497 0
M  V30 4590 H 437.068 -1.22865 2.24361 0
M  V30 4591 H 436.712 -2.6764 4.31661 0
M  V30 4592 H 436.642 -4.12177 3.27746 0
M  V30 4593 H 439.133 -2.68978 2.65442 0
M  V30 4594 H 439.446 -5.04331 5.85551 0
M  V30 4595 H 437.791 -4.54085 5.26148 0
M  V30 4596 H 440.982 -3.27207 3.34743 0
M  V30 4597 H 441.155 -4.34547 4.807 0
M  V30 4598 N 434.561 -1.01147 -1.20859 0
M  V30 4599 C 435.972 -0.730205 -1.71828 0
M  V30 4600 C 436.323 0.751662 -1.8123 0
M  V30 4601 O 435.448 1.58686 -1.47132 0
M  V30 4602 C 436.043 -1.31885 -3.12077 0
M  V30 4603 C 434.602 -1.08656 -3.60376 0
M  V30 4604 C 433.749 -1.42769 -2.37723 0
M  V30 4605 H 436.7 -1.18158 -1.05945 0
M  V30 4606 H 436.721 -0.706793 -3.73878 0
M  V30 4607 H 436.233 -2.39737 -3.05201 0
M  V30 4608 H 434.334 -0.0254814 -3.72591 0
M  V30 4609 H 434.447 -1.76301 -4.45483 0
M  V30 4610 H 432.811 -0.846603 -2.40218 0
M  V30 4611 H 433.594 -2.51666 -2.33493 0
M  V30 4612 N 436.039 1.36541 -0.78704 0
M  V30 4613 C 436.987 2.31965 -0.171724 0
M  V30 4614 C 437.981 1.55689 0.667631 0
M  V30 4615 O 439.187 1.70969 0.562981 0
M  V30 4616 H 435.562 0.751101 -0.0367545 0
M  V30 4617 H 437.533 2.81428 -0.992017 0
M  V30 4618 C 436.282 3.40968 0.680904 0
M  V30 4619 H 435.605 3.99775 0.0443961 0
M  V30 4620 H 437.045 4.10063 1.07815 0
M  V30 4621 C 435.504 2.82338 1.83813 0
M  V30 4622 O 436.034 2.74311 2.93456 0
M  V30 4623 N 434.24 2.39661 1.6435 0
M  V30 4624 H 433.787 2.46389 0.751668 0
M  V30 4625 H 433.745 2.00779 2.4194 0
M  V30 4626 N 437.518 0.538854 1.48102 0
M  V30 4627 C 438.466 -0.232325 2.31437 0
M  V30 4628 C 439.46 -0.927004 1.41785 0
M  V30 4629 O 440.666 -0.850378 1.58646 0
M  V30 4630 H 437.041 -0.0937916 0.746128 0
M  V30 4631 H 439.012 0.489986 2.9435 0
M  V30 4632 C 437.761 -1.26074 3.24038 0
M  V30 4633 H 437.084 -0.735609 3.92974 0
M  V30 4634 H 438.524 -1.77157 3.85216 0
M  V30 4635 C 436.983 -2.29902 2.46265 0
M  V30 4636 O 437.513 -3.36502 2.19384 0
M  V30 4637 N 435.719 -2.03348 2.07601 0
M  V30 4638 H 435.266 -1.16675 2.29662 0
M  V30 4639 H 435.224 -2.73038 1.55877 0
M  V30 4640 N 438.996 -1.55193 0.274407 0
M  V30 4641 C 439.944 -2.23924 -0.629362 0
M  V30 4642 C 440.938 -1.23602 -1.1584 0
M  V30 4643 O 442.144 -1.41535 -1.11211 0
M  V30 4644 H 438.519 -0.718637 -0.221507 0
M  V30 4645 H 440.49 -2.98388 -0.0268322 0
M  V30 4646 C 439.239 -2.97329 -1.80252 0
M  V30 4647 H 438.562 -3.74313 -1.40462 0
M  V30 4648 H 440.002 -3.48743 -2.41152 0
M  V30 4649 C 438.461 -2.0276 -2.69054 0
M  V30 4650 O 438.991 -1.57836 -3.69392 0
M  V30 4651 N 437.197 -1.69275 -2.36208 0
M  V30 4652 H 436.744 -2.06004 -1.54661 0
M  V30 4653 H 436.702 -1.06271 -2.95895 0
M  V30 4654 N 440.474 -0.00167713 -1.576 0
M  V30 4655 C 441.702 0.693759 -1.94922 0
M  V30 4656 C 442.117 1.67215 -0.876626 0
M  V30 4657 O 441.474 1.81929 0.144279 0
M  V30 4658 C 441.525 1.42416 -3.32265 0
M  V30 4659 O 441.246 0.485014 -4.35407 0
M  V30 4660 C 442.747 2.21395 -3.84056 0
M  V30 4661 H 439.967 0.193118 -0.642609 0
M  V30 4662 H 442.511 -0.0532952 -2.04431 0
M  V30 4663 H 440.666 2.12284 -3.24059 0
M  V30 4664 H 441.08 1.00053 -5.14868 0
M  V30 4665 H 442.554 2.67996 -4.82578 0
M  V30 4666 H 443.031 3.04142 -3.16851 0
M  V30 4667 H 443.637 1.56542 -3.95443 0
M  V30 4668 N 441.952 1.55251 0.271103 0
M  V30 4669 C 443.368 1.47133 0.618393 0
M  V30 4670 C 443.568 0.686994 1.89427 0
M  V30 4671 O 442.624 0.206609 2.51653 0
M  V30 4672 C 443.937 2.91361 0.743593 0
M  V30 4673 C 445.485 3.01587 0.837522 0
M  V30 4674 C 445.96 4.47073 0.994483 0
M  V30 4675 N 447.451 4.50909 1.05996 0
M  V30 4676 C 448.186 5.60698 1.20024 0
M  V30 4677 N 447.682 6.80348 1.30759 0
M  V30 4678 N 449.475 5.48444 1.23149 0
M  V30 4679 H 441.626 2.04698 -0.566784 0
M  V30 4680 H 443.889 0.928319 -0.192165 0
M  V30 4681 H 443.595 3.51483 -0.123493 0
M  V30 4682 H 443.469 3.40484 1.62328 0
M  V30 4683 H 445.856 2.4156 1.69507 0
M  V30 4684 H 445.937 2.55713 -0.0668086 0
M  V30 4685 H 445.581 5.07703 0.141582 0
M  V30 4686 H 445.511 4.90605 1.91349 0
M  V30 4687 H 448.002 3.6472 0.989316 0
M  V30 4688 H 448.315 7.59772 1.41303 0
M  V30 4689 H 446.66 6.83156 1.27761 0
M  V30 4690 H 449.851 4.53907 1.14394 0
M  V30 4691 H 450.024 6.34049 1.33738 0
M  V30 4692 N 443.43 -0.535701 1.48216 0
M  V30 4693 C 444.377 -1.64083 1.62312 0
M  V30 4694 C 445.347 -1.59448 0.465365 0
M  V30 4695 O 446.532 -1.77959 0.688135 0
M  V30 4696 C 443.672 -3.0236 1.66349 0
M  V30 4697 C 442.785 -3.17273 2.93193 0
M  V30 4698 C 441.92 -4.46075 2.88427 0
M  V30 4699 C 440.959 -4.54496 4.1 0
M  V30 4700 N 440.096 -5.7468 4.03345 0
M  V30 4701 H 444.936 -1.51374 2.5669 0
M  V30 4702 H 442.473 -0.737059 1.27302 0
M  V30 4703 H 444.431 -3.82461 1.66672 0
M  V30 4704 H 443.061 -3.13854 0.754672 0
M  V30 4705 H 442.113 -2.30462 3.02641 0
M  V30 4706 H 443.425 -3.19357 3.83162 0
M  V30 4707 H 442.579 -5.3446 2.87119 0
M  V30 4708 H 441.318 -4.46504 1.96177 0
M  V30 4709 H 440.323 -3.64519 4.11589 0
M  V30 4710 H 441.548 -4.5581 5.03402 0
M  V30 4711 H 439.494 -5.76017 3.13912 0
M  V30 4712 H 439.411 -5.78234 4.87013 0
M  V30 4713 H 440.679 -6.65367 4.06087 0
M  V30 4714 N 444.908 -1.36708 -0.784132 0
M  V30 4715 C 446.133 -1.34565 -1.5782 0
M  V30 4716 C 446.558 0.0695257 -1.87971 0
M  V30 4717 O 445.916 1.04302 -1.48293 0
M  V30 4718 C 445.964 -2.17952 -2.87279 0
M  V30 4719 O 445.068 -1.57563 -3.81114 0
M  V30 4720 H 444.409 -0.460337 -0.478524 0
M  V30 4721 H 446.939 -1.80064 -0.971495 0
M  V30 4722 H 446.949 -2.30721 -3.365 0
M  V30 4723 H 445.624 -3.20823 -2.64661 0
M  V30 4724 H 444.201 -1.53764 -3.39722 0
M  V30 4725 N 446.386 1.0089 -1.21074 0
M  V30 4726 C 447.635 1.74019 -1.01981 0
M  V30 4727 C 447.948 1.90408 0.447665 0
M  V30 4728 O 449.154 2.60707 0.757906 0
M  V30 4729 C 447.61 3.13026 -1.77603 0
M  V30 4730 C 447.218 3.04623 -3.28495 0
M  V30 4731 C 448.962 3.90312 -1.66904 0
M  V30 4732 C 446.869 4.38685 -3.96623 0
M  V30 4733 H 445.799 0.652422 -0.377971 0
M  V30 4734 H 448.45 1.12755 -1.44771 0
M  V30 4735 H 446.832 3.74878 -1.27604 0
M  V30 4736 H 448.006 2.52032 -3.85767 0
M  V30 4737 H 446.321 2.40827 -3.39693 0
M  V30 4738 H 448.918 4.8951 -2.15138 0
M  V30 4739 H 449.261 4.11558 -0.62658 0
M  V30 4740 H 449.794 3.35104 -2.14359 0
M  V30 4741 H 446.533 4.22641 -5.01054 0
M  V30 4742 H 446.053 4.91252 -3.4414 0
M  V30 4743 H 447.732 5.075 -4.01314 0
M  V30 4744 N 447.864 1.01787 1.20321 0
M  V30 4745 C 448.812 0.58254 2.25187 0
M  V30 4746 C 449.806 -0.379359 1.65098 0
M  V30 4747 O 451.012 -0.249142 1.78267 0
M  V30 4748 H 447.387 0.170078 0.732514 0
M  V30 4749 H 449.358 1.47788 2.59232 0
M  V30 4750 C 448.107 -0.0620885 3.47645 0
M  V30 4751 H 447.43 0.669069 3.94162 0
M  V30 4752 H 448.87 -0.329784 4.22716 0
M  V30 4753 C 447.329 -1.3053 3.10586 0
M  V30 4754 O 447.859 -2.39848 3.22236 0
M  V30 4755 N 446.065 -1.18988 2.65123 0
M  V30 4756 H 445.612 -0.300341 2.55843 0
M  V30 4757 H 445.57 -2.02267 2.40698 0
M  V30 4758 N 449.342 -1.36122 0.79427 0
M  V30 4759 C 450.591 -1.98361 0.365464 0
M  V30 4760 C 450.904 -1.6374 -1.06997 0
M  V30 4761 O 452.11 -2.19251 -1.60129 0
M  V30 4762 C 450.566 -3.54821 0.602496 0
M  V30 4763 C 450.174 -3.98362 2.04967 0
M  V30 4764 C 451.918 -4.2383 0.238437 0
M  V30 4765 C 449.825 -5.47619 2.2331 0
M  V30 4766 H 448.755 -0.742193 0.13291 0
M  V30 4767 H 451.406 -1.55354 0.976589 0
M  V30 4768 H 449.788 -3.95922 -0.078409 0
M  V30 4769 H 450.962 -3.68447 2.76737 0
M  V30 4770 H 449.277 -3.42206 2.37243 0
M  V30 4771 H 451.874 -5.33529 0.353705 0
M  V30 4772 H 452.217 -4.08264 -0.814006 0
M  V30 4773 H 452.75 -3.88108 0.872769 0
M  V30 4774 H 449.489 -5.68138 3.26955 0
M  V30 4775 H 449.009 -5.79145 1.5605 0
M  V30 4776 H 450.688 -6.13911 2.0426 0
M  V30 4777 N 450.82 -0.546701 -1.47814 0
M  V30 4778 C 452.068 -0.0187037 -2.02091 0
M  V30 4779 C 452.389 1.33168 -1.42447 0
M  V30 4780 O 451.659 1.86619 -0.595839 0
M  V30 4781 H 450.239 -0.00392531 -0.74699 0
M  V30 4782 H 452.901 -0.714327 -1.81338 0
M  V30 4783 H 451.997 0.0772219 -3.12004 0
M  V30 4784 N 452.299 1.55045 -0.282633 0
M  V30 4785 C 453.71 1.85473 0.213655 0
M  V30 4786 C 454.061 1.20465 1.54863 0
M  V30 4787 O 453.186 0.495676 2.10647 0
M  V30 4788 C 453.781 3.36496 0.394445 0
M  V30 4789 C 452.34 3.67022 0.834961 0
M  V30 4790 C 451.487 2.77218 -0.0674081 0
M  V30 4791 H 454.438 1.50478 -0.504202 0
M  V30 4792 H 454.459 3.60007 1.23186 0
M  V30 4793 H 453.971 3.83782 -0.577326 0
M  V30 4794 H 452.072 3.25241 1.81794 0
M  V30 4795 H 452.185 4.74433 0.667075 0
M  V30 4796 H 450.549 2.5069 0.450196 0
M  V30 4797 H 451.332 3.2732 -1.0352 0
M  V30 4798 N 453.777 0.010035 1.57597 0
M  V30 4799 C 455.025 -0.671371 1.90623 0
M  V30 4800 C 455.346 -1.73753 0.885151 0
M  V30 4801 O 454.616 -1.95752 -0.0760611 0
M  V30 4802 H 453.196 -0.250968 0.703579 0
M  V30 4803 H 455.858 0.0533325 1.94827 0
M  V30 4804 H 454.954 -1.13626 2.90681 0
M  V30 4805 N 455.255 -1.55392 -0.262866 0
M  V30 4806 C 456.671 -1.47459 -0.610582 0
M  V30 4807 C 456.871 -0.697031 -1.8906 0
M  V30 4808 O 455.927 -0.219952 -2.5154 0
M  V30 4809 C 457.24 -2.91751 -0.728131 0
M  V30 4810 C 458.788 -3.02027 -0.821517 0
M  V30 4811 C 459.263 -4.47594 -0.97076 0
M  V30 4812 N 460.754 -4.51465 -1.03603 0
M  V30 4813 C 461.489 -5.61326 -1.17049 0
M  V30 4814 N 460.985 -6.81032 -1.2715 0
M  V30 4815 N 462.778 -5.49089 -1.20239 0
M  V30 4816 H 454.929 -2.04395 0.577632 0
M  V30 4817 H 457.192 -0.927287 0.197086 0
M  V30 4818 H 456.898 -3.51413 0.142132 0
M  V30 4819 H 456.772 -3.4134 -1.6052 0
M  V30 4820 H 459.159 -2.42456 -1.68224 0
M  V30 4821 H 459.24 -2.55674 0.0803688 0
M  V30 4822 H 458.884 -5.07771 -0.114655 0
M  V30 4823 H 458.814 -4.91613 -1.88745 0
M  V30 4824 H 461.305 -3.6524 -0.96996 0
M  V30 4825 H 461.618 -7.60511 -1.37271 0
M  V30 4826 H 459.963 -6.83824 -1.24136 0
M  V30 4827 H 463.154 -4.54507 -1.11985 0
M  V30 4828 H 463.327 -6.34749 -1.30373 0
M  V30 4829 N 456.733 0.527833 -1.48498 0
M  V30 4830 C 457.696 1.61439 -1.62696 0
M  V30 4831 C 458.696 1.52824 -0.500136 0
M  V30 4832 O 459.886 1.56456 -0.765976 0
M  V30 4833 C 457.018 3.01063 -1.59918 0
M  V30 4834 H 458.211 1.50189 -2.59583 0
M  V30 4835 H 455.764 0.750055 -1.37127 0
M  V30 4836 H 456.499 3.17818 -0.645163 0
M  V30 4837 H 456.284 3.08725 -2.41726 0
M  V30 4838 H 457.774 3.80057 -1.73051 0
M  V30 4839 N 458.211 1.37122 0.776871 0
M  V30 4840 C 459.141 1.35164 1.90402 0
M  V30 4841 C 460.122 0.221069 1.68657 0
M  V30 4842 O 461.307 0.420642 1.8959 0
M  V30 4843 C 458.437 1.15274 3.27611 0
M  V30 4844 C 457.391 2.25289 3.63908 0
M  V30 4845 C 456.717 1.90527 4.99603 0
M  V30 4846 C 458.017 3.67446 3.71188 0
M  V30 4847 H 459.711 2.29482 1.92297 0
M  V30 4848 H 457.257 1.10465 0.923773 0
M  V30 4849 H 459.21 1.12536 4.06096 0
M  V30 4850 H 457.934 0.174102 3.26136 0
M  V30 4851 H 456.593 2.27174 2.87728 0
M  V30 4852 H 456.241 0.91206 4.94662 0
M  V30 4853 H 455.941 2.64193 5.24858 0
M  V30 4854 H 457.465 1.89367 5.80493 0
M  V30 4855 H 458.879 3.67719 4.39836 0
M  V30 4856 H 457.276 4.40123 4.07936 0
M  V30 4857 H 458.346 4.01443 2.71977 0
M  V30 4858 N 459.689 -1.00246 1.21608 0
M  V30 4859 C 460.919 -1.77373 1.05935 0
M  V30 4860 C 461.327 -1.85059 -0.393686 0
M  V30 4861 O 460.67 -1.31289 -1.28487 0
M  V30 4862 C 460.732 -3.22705 1.58435 0
M  V30 4863 C 460.396 -3.38591 3.06929 0
M  V30 4864 C 461.393 -3.2667 4.04454 0
M  V30 4865 C 459.078 -3.6395 3.46187 0
M  V30 4866 C 461.072 -3.39877 5.39224 0
M  V30 4867 C 458.759 -3.768 4.81108 0
M  V30 4868 C 459.757 -3.6477 5.77436 0
M  V30 4869 O 459.445 -3.77206 7.09909 0
M  V30 4870 H 459.177 -0.56419 0.372378 0
M  V30 4871 H 461.731 -1.26971 1.61454 0
M  V30 4872 H 459.961 -3.74255 0.973147 0
M  V30 4873 H 461.65 -3.81515 1.38568 0
M  V30 4874 H 462.416 -3.06999 3.75468 0
M  V30 4875 H 458.295 -3.72395 2.71741 0
M  V30 4876 H 461.839 -3.30404 6.14393 0
M  V30 4877 H 457.736 -3.95975 5.09779 0
M  V30 4878 H 458.504 -3.94138 7.17355 0
M  V30 4879 N 461.167 -1.02423 -1.1978 0
M  V30 4880 C 462.395 -0.737456 -1.93311 0
M  V30 4881 C 462.81 0.703023 -1.75223 0
M  V30 4882 O 462.167 1.47761 -1.07112 0
M  V30 4883 C 462.218 -1.0733 -3.45199 0
M  V30 4884 O 461.939 -2.4572 -3.62702 0
M  V30 4885 C 463.44 -0.80866 -4.35862 0
M  V30 4886 H 460.66 -0.2702 -0.614193 0
M  V30 4887 H 463.204 -1.36747 -1.52054 0
M  V30 4888 H 461.359 -0.488545 -3.84307 0
M  V30 4889 H 461.773 -2.58081 -4.56612 0
M  V30 4890 H 463.247 -1.09365 -5.41057 0
M  V30 4891 H 463.724 0.257025 -4.38447 0
M  V30 4892 H 464.33 -1.37592 -4.02428 0
M  V30 4893 N 462.645 1.35699 -0.801477 0
M  V30 4894 C 463.873 2.03157 -0.391768 0
M  V30 4895 C 464.288 1.60412 0.995668 0
M  V30 4896 O 463.645 0.799228 1.64069 0
M  V30 4897 C 463.696 3.58566 -0.459671 0
M  V30 4898 O 463.417 3.99756 -1.7924 0
M  V30 4899 C 464.918 4.4328 -0.0421205 0
M  V30 4900 H 462.138 0.651688 -0.159825 0
M  V30 4901 H 464.682 1.73426 -1.08368 0
M  V30 4902 H 462.837 3.86963 0.183939 0
M  V30 4903 H 463.251 4.94387 -1.75162 0
M  V30 4904 H 464.725 5.51821 -0.140754 0
M  V30 4905 H 465.202 4.27383 1.01196 0
M  V30 4906 H 465.808 4.20168 -0.658687 0
M  V30 4907 N 464.123 0.554532 1.47522 0
M  V30 4908 C 465.371 0.0294208 2.02079 0
M  V30 4909 C 465.692 -1.32411 1.43151 0
M  V30 4910 O 464.962 -1.863 0.605728 0
M  V30 4911 H 463.542 0.00788672 0.746958 0
M  V30 4912 H 466.204 0.723934 1.80956 0
M  V30 4913 H 465.3 -0.0606745 3.12041 0
M  V30 4914 N 465.601 -1.54893 0.290851 0
M  V30 4915 C 466.511 -2.26812 -0.59945 0
M  V30 4916 C 467.527 -1.29963 -1.15696 0
M  V30 4917 O 468.703 -1.62928 -1.18391 0
M  V30 4918 C 465.768 -2.98716 -1.75982 0
M  V30 4919 C 464.829 -4.1108 -1.2374 0
M  V30 4920 C 464.062 -4.79546 -2.34246 0
M  V30 4921 O 464.285 -4.47309 -3.53936 0
M  V30 4922 O 463.219 -5.67165 -2.01512 0
M  V30 4923 H 467.045 -3.03696 -0.0163561 0
M  V30 4924 H 464.63 -1.49289 0.0576755 0
M  V30 4925 H 466.512 -3.43851 -2.43607 0
M  V30 4926 H 465.187 -2.24737 -2.3297 0
M  V30 4927 H 464.094 -3.70367 -0.527163 0
M  V30 4928 H 465.427 -4.87007 -0.71307 0
M  V30 4929 N 467.08 -0.0183926 -1.57589 0
M  V30 4930 C 468.329 0.66185 -1.90532 0
M  V30 4931 C 468.642 1.73904 -0.895366 0
M  V30 4932 O 469.848 2.47518 -1.11566 0
M  V30 4933 C 468.304 1.22844 -3.38286 0
M  V30 4934 C 467.912 0.185103 -4.47617 0
M  V30 4935 C 469.656 1.88581 -3.80312 0
M  V30 4936 C 467.563 0.762723 -5.86461 0
M  V30 4937 H 466.493 0.250972 -0.711006 0
M  V30 4938 H 469.144 -0.0819435 -1.83317 0
M  V30 4939 H 467.526 2.0235 -3.40398 0
M  V30 4940 H 468.7 -0.58671 -4.5705 0
M  V30 4941 H 467.015 -0.372889 -4.14727 0
M  V30 4942 H 469.612 2.32735 -4.81392 0
M  V30 4943 H 469.955 2.72408 -3.14801 0
M  V30 4944 H 470.488 1.15782 -3.80578 0
M  V30 4945 H 467.227 -0.0371713 -6.55489 0
M  V30 4946 H 466.747 1.50327 -5.80656 0
M  V30 4947 H 468.426 1.25576 -6.34697 0
M  V30 4948 N 468.558 1.5553 0.254621 0
M  V30 4949 C 469.807 1.76202 0.981612 0
M  V30 4950 C 470.12 0.580883 1.86776 0
M  V30 4951 O 471.326 0.670448 2.63092 0
M  V30 4952 C 469.782 3.11921 1.79537 0
M  V30 4953 C 469.39 4.37659 0.956991 0
M  V30 4954 C 471.134 3.41936 2.51555 0
M  V30 4955 C 469.041 5.64411 1.76619 0
M  V30 4956 H 467.971 0.656841 0.370237 0
M  V30 4957 H 470.622 1.81969 0.236556 0
M  V30 4958 H 469.004 3.00241 2.58208 0
M  V30 4959 H 470.178 4.60307 0.21315 0
M  V30 4960 H 468.493 4.14922 0.350497 0
M  V30 4961 H 471.09 4.33849 3.12536 0
M  V30 4962 H 471.433 2.62905 3.22779 0
M  V30 4963 H 471.966 3.54797 1.799 0
M  V30 4964 H 468.705 6.46241 1.09783 0
M  V30 4965 H 468.225 5.45877 2.48551 0
M  V30 4966 H 469.904 6.03386 2.33527 0
M  V30 4967 N 470.036 -0.519951 1.48776 0
M  V30 4968 C 471.284 -1.2727 1.56993 0
M  V30 4969 C 471.605 -1.9339 0.25004 0
M  V30 4970 O 470.875 -1.81822 -0.729216 0
M  V30 4971 H 469.455 -0.472732 0.578389 0
M  V30 4972 H 472.117 -0.604234 1.85297 0
M  V30 4973 H 471.213 -2.04669 2.3562 0
M  V30 4974 N 471.514 -1.37532 -0.769588 0
M  V30 4975 C 472.791 -1.23392 -1.51768 0
M  V30 4976 C 473.171 0.17157 -2.10402 0
M  V30 4977 O 472.519 1.17943 -1.95708 0
M  V30 4978 C 472.729 -2.33163 -2.59685 0
M  V30 4979 C 474.077 -2.70809 -3.27028 0
M  V30 4980 O 475.101 -2.32355 -2.69981 0
M  V30 4981 O 473.96 -3.37066 -4.30173 0
M  V30 4982 H 471.054 -0.481617 -0.67229 0
M  V30 4983 H 473.6 -1.49318 -0.806368 0
M  V30 4984 H 472.372 -3.27273 -2.14494 0
M  V30 4985 H 471.995 -2.08713 -3.38415 0
M  V30 4986 N 472.992 0.995999 -1.22138 0
M  V30 4987 C 474.241 1.72928 -1.03821 0
M  V30 4988 C 474.554 1.90872 0.427444 0
M  V30 4989 O 475.76 2.61496 0.730212 0
M  V30 4990 C 474.216 3.11124 -1.80913 0
M  V30 4991 C 473.824 3.01122 -3.31707 0
M  V30 4992 C 475.568 3.8852 -1.71035 0
M  V30 4993 C 473.475 4.34453 -4.01253 0
M  V30 4994 H 472.405 0.648376 -0.384869 0
M  V30 4995 H 475.056 1.11213 -1.45959 0
M  V30 4996 H 473.438 3.73503 -1.31573 0
M  V30 4997 H 474.612 2.47926 -3.88419 0
M  V30 4998 H 472.927 2.3721 -3.42228 0
M  V30 4999 H 475.524 4.872 -2.20318 0
M  V30 5000 H 475.867 4.1087 -0.670196 0
M  V30 5001 H 476.4 3.32812 -2.17902 0
M  V30 5002 H 473.139 4.17303 -5.05508 0
M  V30 5003 H 472.659 4.87574 -3.49331 0
M  V30 5004 H 474.338 5.03215 -4.06674 0
M  V30 5005 N 474.47 1.03057 1.19235 0
M  V30 5006 C 475.886 0.747947 1.40989 0
M  V30 5007 C 476.086 -0.666752 1.90149 0
M  V30 5008 O 475.142 -1.43249 2.07933 0
M  V30 5009 C 476.455 1.7855 2.41951 0
M  V30 5010 C 478.003 1.80524 2.55695 0
M  V30 5011 C 478.478 2.83243 3.59913 0
M  V30 5012 N 479.969 2.8207 3.67411 0
M  V30 5013 C 480.704 3.58204 4.47747 0
M  V30 5014 N 480.2 4.44057 5.31775 0
M  V30 5015 N 481.993 3.46738 4.42413 0
M  V30 5016 H 474.144 1.94367 0.856468 0
M  V30 5017 H 476.407 0.840412 0.438647 0
M  V30 5018 H 476.113 2.79973 2.12857 0
M  V30 5019 H 475.987 1.6092 3.41152 0
M  V30 5020 H 478.374 0.79778 2.84112 0
M  V30 5021 H 478.455 2.02229 1.56643 0
M  V30 5022 H 478.099 3.84161 3.32239 0
M  V30 5023 H 478.029 2.58795 4.5862 0
M  V30 5024 H 480.52 2.19803 3.074 0
M  V30 5025 H 480.833 4.98884 5.90199 0
M  V30 5026 H 479.178 4.48129 5.3123 0
M  V30 5027 H 482.369 2.79077 3.75811 0
M  V30 5028 H 482.542 4.06322 5.04783 0
M  V30 5029 N 475.948 -1.35272 0.808662 0
M  V30 5030 C 476.88 -2.28507 0.178149 0
M  V30 5031 C 477.893 -1.50377 -0.623754 0
M  V30 5032 O 479.082 -1.72583 -0.455774 0
M  V30 5033 C 476.182 -3.30038 -0.769959 0
M  V30 5034 C 475.355 -4.37398 -0.0139749 0
M  V30 5035 C 474.414 -5.18775 -0.880875 0
M  V30 5036 O 473.44 -5.68236 -0.331059 0
M  V30 5037 N 474.642 -5.37087 -2.20267 0
M  V30 5038 H 477.407 -2.83255 0.979106 0
M  V30 5039 H 474.968 -1.47643 0.664308 0
M  V30 5040 H 476.96 -3.81371 -1.35418 0
M  V30 5041 H 475.53 -2.75789 -1.47171 0
M  V30 5042 H 474.75 -3.86971 0.751468 0
M  V30 5043 H 476.038 -5.06268 0.506965 0
M  V30 5044 H 475.436 -4.9855 -2.67328 0
M  V30 5045 H 473.993 -5.91593 -2.73608 0
M  V30 5046 N 477.426 -0.562348 -1.47226 0
M  V30 5047 C 478.389 0.172056 -2.28553 0
M  V30 5048 C 479.389 0.837928 -1.37242 0
M  V30 5049 O 480.579 0.693001 -1.59822 0
M  V30 5050 C 477.711 1.25223 -3.17068 0
M  V30 5051 H 478.904 -0.542401 -2.94954 0
M  V30 5052 H 476.457 -0.319493 -1.53 0
M  V30 5053 H 477.192 1.99892 -2.55369 0
M  V30 5054 H 476.977 0.779515 -3.84273 0
M  V30 5055 H 478.467 1.76791 -3.78332 0
M  V30 5056 N 478.904 1.54736 -0.299062 0
M  V30 5057 C 479.854 2.20155 0.592932 0
M  V30 5058 C 480.838 1.1739 1.10038 0
M  V30 5059 O 482.03 1.43116 1.04147 0
M  V30 5060 C 479.159 2.94437 1.76527 0
M  V30 5061 C 478.245 4.04516 1.27388 0
M  V30 5062 N 478.636 5.03319 0.500339 0
M  V30 5063 C 476.934 4.18022 1.55478 0
M  V30 5064 C 477.635 5.81209 0.238909 0
M  V30 5065 N 476.611 5.37408 0.818163 0
M  V30 5066 H 480.413 2.93899 -0.00563596 0
M  V30 5067 H 477.927 1.62068 -0.103732 0
M  V30 5068 H 479.924 3.3977 2.41582 0
M  V30 5069 H 478.584 2.22209 2.36756 0
M  V30 5070 H 479.595 5.17696 0.145419 0
M  V30 5071 H 476.272 3.56998 2.16469 0
M  V30 5072 H 477.662 6.70812 -0.382223 0
M  V30 5073 N 480.382 0.0267497 1.57577 0
M  V30 5074 C 481.622 -0.65659 1.93567 0
M  V30 5075 C 481.986 -1.69429 0.903213 0
M  V30 5076 O 483.187 -2.42994 1.14923 0
M  V30 5077 C 481.458 -1.25912 3.34486 0
M  V30 5078 S 483.017 -1.96386 3.924 0
M  V30 5079 H 479.835 -0.216237 0.67732 0
M  V30 5080 H 482.437 0.0898475 1.95293 0
M  V30 5081 H 481.141 -0.491405 4.07447 0
M  V30 5082 H 480.672 -2.04291 3.36198 0
M  V30 5083 H 482.687 -3.24202 3.75643 0
M  V30 5084 N 481.861 -1.55662 -0.24637 0
M  V30 5085 C 482.809 -1.91186 -1.3248 0
M  V30 5086 C 483.803 -0.790996 -1.49799 0
M  V30 5087 O 485.009 -0.975617 -1.51267 0
M  V30 5088 H 481.384 -0.607207 -0.443626 0
M  V30 5089 H 483.355 -2.81221 -0.997853 0
M  V30 5090 C 482.104 -2.22349 -2.67313 0
M  V30 5091 H 481.427 -3.08097 -2.54786 0
M  V30 5092 H 482.867 -2.51107 -3.41645 0
M  V30 5093 C 481.326 -1.04001 -3.20446 0
M  V30 5094 O 481.856 -0.28828 -4.00664 0
M  V30 5095 N 480.062 -0.830494 -2.7848 0
M  V30 5096 H 479.609 -1.4435 -2.13356 0
M  V30 5097 H 479.567 -0.0403258 -3.14374 0
M  V30 5098 N 483.339 0.512053 -1.4905 0
M  V30 5099 C 484.269 1.62365 -1.67809 0
M  V30 5100 C 485.25 1.61737 -0.526809 0
M  V30 5101 O 486.435 1.78651 -0.761404 0
M  V30 5102 C 483.565 3.00895 -1.73435 0
M  V30 5103 C 482.519 3.16387 -2.88242 0
M  V30 5104 C 481.845 4.56157 -2.78971 0
M  V30 5105 C 483.145 2.97457 -4.29321 0
M  V30 5106 H 484.839 1.46921 -2.60873 0
M  V30 5107 H 482.385 0.705379 -1.2554 0
M  V30 5108 H 484.338 3.78549 -1.85145 0
M  V30 5109 H 483.062 3.17403 -0.769619 0
M  V30 5110 H 481.721 2.41155 -2.76116 0
M  V30 5111 H 481.369 4.69525 -1.8043 0
M  V30 5112 H 481.069 4.67465 -3.5602 0
M  V30 5113 H 482.593 5.35886 -2.92675 0
M  V30 5114 H 484.007 3.64888 -4.42187 0
M  V30 5115 H 482.404 3.20245 -5.07507 0
M  V30 5116 H 483.474 1.93692 -4.44535 0
M  V30 5117 N 484.817 1.37938 0.762283 0
M  V30 5118 C 486.042 1.37059 1.55659 0
M  V30 5119 C 486.467 -0.0396123 1.88058 0
M  V30 5120 O 485.825 -1.01929 1.49934 0
M  V30 5121 C 485.873 2.22494 2.83776 0
M  V30 5122 O 484.977 1.63607 3.78559 0
M  V30 5123 H 484.318 0.467892 0.47114 0
M  V30 5124 H 486.848 1.81587 0.942725 0
M  V30 5125 H 486.858 2.36045 3.32786 0
M  V30 5126 H 485.533 3.24993 2.59524 0
M  V30 5127 H 484.11 1.5915 3.37233 0
M  V30 5128 N 486.295 -0.989507 1.22664 0
M  V30 5129 C 487.242 -2.08024 0.999733 0
M  V30 5130 C 488.212 -1.65909 -0.0797047 0
M  V30 5131 O 489.397 -1.90669 0.0705715 0
M  V30 5132 C 486.537 -3.40067 0.587234 0
M  V30 5133 C 485.65 -3.95505 1.73781 0
M  V30 5134 C 484.785 -5.15722 1.27297 0
M  V30 5135 C 483.824 -5.63305 2.39488 0
M  V30 5136 N 482.961 -6.74758 1.94026 0
M  V30 5137 H 487.801 -2.26768 1.9334 0
M  V30 5138 H 485.338 -1.11171 0.963297 0
M  V30 5139 H 487.296 -4.15899 0.329227 0
M  V30 5140 H 485.926 -3.21314 -0.309426 0
M  V30 5141 H 484.978 -3.16513 2.11006 0
M  V30 5142 H 486.29 -4.26797 2.58158 0
M  V30 5143 H 485.444 -5.98854 0.972546 0
M  V30 5144 H 484.183 -4.86061 0.399445 0
M  V30 5145 H 483.188 -4.78759 2.70315 0
M  V30 5146 H 484.413 -5.94988 3.27362 0
M  V30 5147 H 482.359 -6.46874 1.09041 0
M  V30 5148 H 482.276 -7.05386 2.71968 0
M  V30 5149 H 483.544 -7.61387 1.67062 0
M  V30 5150 N 487.773 -1.03688 -1.18687 0
M  V30 5151 C 489.001 -0.757918 -1.92518 0
M  V30 5152 C 489.416 0.684398 -1.75959 0
M  V30 5153 O 488.773 1.46617 -1.08673 0
M  V30 5154 C 488.824 -1.10985 -3.44042 0
M  V30 5155 O 488.545 -2.49554 -3.60076 0
M  V30 5156 C 490.046 -0.854844 -4.3498 0
M  V30 5157 H 487.266 -0.276699 -0.611293 0
M  V30 5158 H 489.81 -1.38352 -1.50595 0
M  V30 5159 H 487.965 -0.529279 -3.83767 0
M  V30 5160 H 488.379 -2.6291 -4.53849 0
M  V30 5161 H 489.853 -1.15098 -5.39867 0
M  V30 5162 H 490.33 0.210507 -4.38695 0
M  V30 5163 H 490.936 -1.41853 -4.00946 0
M  V30 5164 N 489.251 1.34841 -0.815825 0
M  V30 5165 C 490.183 2.28409 -0.190265 0
M  V30 5166 C 491.196 1.50705 0.615771 0
M  V30 5167 O 492.385 1.72822 0.446616 0
M  V30 5168 C 489.485 3.30441 0.752446 0
M  V30 5169 C 488.658 4.37399 -0.00922152 0
M  V30 5170 C 487.717 5.19234 0.853351 0
M  V30 5171 O 486.743 5.68404 0.300919 0
M  V30 5172 N 487.945 5.38248 2.17416 0
M  V30 5173 H 490.71 2.82732 -0.994114 0
M  V30 5174 H 488.271 1.47289 -0.672129 0
M  V30 5175 H 490.263 3.82084 1.33394 0
M  V30 5176 H 488.833 2.76565 1.45707 0
M  V30 5177 H 488.053 3.86567 -0.771979 0
M  V30 5178 H 489.341 5.05992 -0.533807 0
M  V30 5179 H 488.739 4.99961 2.6468 0
M  V30 5180 H 487.296 5.93035 2.70467 0
M  V30 5181 N 490.729 0.570148 1.46925 0
M  V30 5182 C 491.975 0.0593124 2.03314 0
M  V30 5183 C 492.33 -1.28139 1.43521 0
M  V30 5184 O 491.623 -1.82411 0.586245 0
M  V30 5185 C 491.817 -0.0780336 3.57315 0
M  V30 5186 C 491.646 1.2478 4.32042 0
M  V30 5187 C 490.416 1.81859 4.7144 0
M  V30 5188 C 492.614 2.16808 4.66368 0
M  V30 5189 N 490.596 3.08313 5.30864 0
M  V30 5190 C 491.967 3.27845 5.2623 0
M  V30 5191 C 494.022 2.16643 4.48297 0
M  V30 5192 C 492.725 4.38832 5.69929 0
M  V30 5193 C 494.751 3.26652 4.93004 0
M  V30 5194 C 494.113 4.36408 5.52926 0
M  V30 5195 H 490.212 0.0641804 0.779362 0
M  V30 5196 H 492.796 0.760285 1.79242 0
M  V30 5197 H 490.967 -0.748151 3.81126 0
M  V30 5198 H 492.699 -0.59211 4.00345 0
M  V30 5199 H 489.454 1.35502 4.53802 0
M  V30 5200 H 489.878 3.72802 5.65108 0
M  V30 5201 H 494.52 1.33065 4.01315 0
M  V30 5202 H 492.238 5.23162 6.15896 0
M  V30 5203 H 495.824 3.27627 4.80782 0
M  V30 5204 H 494.704 5.20127 5.86888 0
M  V30 5205 N 492.207 -1.54576 0.307264 0
M  V30 5206 C 493.117 -2.27435 -0.57536 0
M  V30 5207 C 494.133 -1.31183 -1.14311 0
M  V30 5208 O 495.309 -1.64175 -1.16656 0
M  V30 5209 C 492.374 -3.00566 -1.72803 0
M  V30 5210 C 491.435 -4.12369 -1.19373 0
M  V30 5211 C 490.668 -4.82003 -2.29147 0
M  V30 5212 O 490.891 -4.51038 -3.49171 0
M  V30 5213 O 489.825 -5.69271 -1.95485 0
M  V30 5214 H 493.651 -3.03696 0.0158558 0
M  V30 5215 H 491.236 -1.49219 0.0735064 0
M  V30 5216 H 493.118 -3.46416 -2.39946 0
M  V30 5217 H 491.793 -2.27195 -2.30574 0
M  V30 5218 H 490.7 -3.70905 -0.487851 0
M  V30 5219 H 492.033 -4.87736 -0.661376 0
M  V30 5220 N 493.685 -0.035106 -1.57561 0
M  V30 5221 C 494.633 0.962707 -2.11742 0
M  V30 5222 C 495.627 1.33296 -1.0454 0
M  V30 5223 O 496.833 1.31449 -1.22968 0
M  V30 5224 H 493.208 0.32826 -0.676572 0
M  V30 5225 H 495.179 0.48048 -2.94506 0
M  V30 5226 C 493.928 2.23388 -2.66445 0
M  V30 5227 H 493.251 1.95774 -3.48587 0
M  V30 5228 H 494.691 2.91402 -3.07995 0
M  V30 5229 C 493.15 2.96769 -1.59467 0
M  V30 5230 O 493.68 3.89105 -0.998 0
M  V30 5231 N 491.886 2.59212 -1.31369 0
M  V30 5232 H 491.433 1.84202 -1.80076 0
M  V30 5233 H 491.391 3.08618 -0.600173 0
M  V30 5234 N 495.163 1.55791 0.238111 0
M  V30 5235 C 496.391 1.82098 0.982233 0
M  V30 5236 C 496.806 0.612025 1.78605 0
M  V30 5237 O 496.163 -0.419381 1.77616 0
M  V30 5238 C 496.214 3.0673 1.91309 0
M  V30 5239 O 495.935 4.2296 1.14179 0
M  V30 5240 C 497.436 3.45903 2.77248 0
M  V30 5241 H 494.656 0.605748 0.288635 0
M  V30 5242 H 497.2 2.02862 0.258341 0
M  V30 5243 H 495.355 2.87991 2.59114 0
M  V30 5244 H 495.769 4.93653 1.7722 0
M  V30 5245 H 497.243 4.36189 3.38295 0
M  V30 5246 H 497.72 2.66891 3.48806 0
M  V30 5247 H 498.326 3.67024 2.14881 0
M  V30 5248 N 496.642 -0.504142 1.49319 0
M  V30 5249 C 497.572 -1.61473 1.68667 0
M  V30 5250 C 498.553 -1.61455 0.535378 0
M  V30 5251 O 499.738 -1.78245 0.770868 0
M  V30 5252 C 496.868 -2.99971 1.75028 0
M  V30 5253 C 495.822 -3.14854 2.89916 0
M  V30 5254 C 495.148 -4.54671 2.81387 0
M  V30 5255 C 496.448 -2.95176 4.30893 0
M  V30 5256 H 498.142 -1.45535 2.61648 0
M  V30 5257 H 495.688 -0.698711 1.25913 0
M  V30 5258 H 497.641 -3.77562 1.8715 0
M  V30 5259 H 496.365 -3.1699 0.786441 0
M  V30 5260 H 495.024 -2.39687 2.77391 0
M  V30 5261 H 494.672 -4.68562 1.82917 0
M  V30 5262 H 494.372 -4.6557 3.58494 0
M  V30 5263 H 495.896 -5.34327 2.95512 0
M  V30 5264 H 497.31 -3.62538 4.44116 0
M  V30 5265 H 495.707 -3.17549 5.09198 0
M  V30 5266 H 496.777 -1.91332 4.45556 0
M  V30 5267 N 498.12 -1.38341 -0.754957 0
M  V30 5268 C 499.03 -1.3769 -1.89944 0
M  V30 5269 C 500.046 -0.274194 -1.71826 0
M  V30 5270 O 501.222 -0.512391 -1.94773 0
M  V30 5271 C 498.287 -1.19938 -3.25293 0
M  V30 5272 C 497.348 -2.40001 -3.55946 0
M  V30 5273 C 496.581 -2.23087 -4.84838 0
M  V30 5274 O 496.804 -1.22386 -5.57116 0
M  V30 5275 O 495.738 -3.11646 -5.14937 0
M  V30 5276 H 499.564 -2.3412 -1.93446 0
M  V30 5277 H 497.149 -1.19246 -0.900044 0
M  V30 5278 H 499.031 -1.12093 -4.06218 0
M  V30 5279 H 497.706 -0.265919 -3.22606 0
M  V30 5280 H 496.613 -2.53421 -2.75188 0
M  V30 5281 H 497.946 -3.31973 -3.63394 0
M  V30 5282 N 499.598 0.982988 -1.23187 0
M  V30 5283 C 500.53 2.07729 -0.968572 0
M  V30 5284 C 501.543 1.62702 0.0564821 0
M  V30 5285 O 502.732 1.77603 -0.178733 0
M  V30 5286 C 499.832 3.36071 -0.436974 0
M  V30 5287 C 499.005 4.10081 -1.52159 0
M  V30 5288 C 498.064 5.16701 -0.99532 0
M  V30 5289 O 497.09 5.43727 -1.68373 0
M  V30 5290 N 498.292 5.80226 0.178192 0
M  V30 5291 H 501.057 2.30894 -1.9107 0
M  V30 5292 H 498.618 1.14949 -1.1401 0
M  V30 5293 H 500.61 4.04639 -0.0700051 0
M  V30 5294 H 499.18 3.09893 0.410509 0
M  V30 5295 H 498.4 3.36004 -2.06144 0
M  V30 5296 H 499.688 4.56295 -2.25105 0
M  V30 5297 H 499.086 5.60651 0.754096 0
M  V30 5298 H 497.643 6.49982 0.486449 0
M  V30 5299 N 501.076 1.04316 1.18135 0
M  V30 5300 C 502.325 0.74319 1.87509 0
M  V30 5301 C 502.638 -0.732136 1.81381 0
M  V30 5302 O 503.844 -1.14572 2.46141 0
M  V30 5303 C 502.3 1.27913 3.36402 0
M  V30 5304 C 501.908 2.78326 3.51053 0
M  V30 5305 C 503.652 1.0558 4.11161 0
M  V30 5306 C 501.559 3.25266 4.93919 0
M  V30 5307 H 500.489 0.274313 0.702331 0
M  V30 5308 H 503.14 1.25931 1.33467 0
M  V30 5309 H 501.522 0.690853 3.89927 0
M  V30 5310 H 502.696 3.42933 3.07788 0
M  V30 5311 H 501.011 2.991 2.89704 0
M  V30 5312 H 503.608 1.38161 5.16542 0
M  V30 5313 H 503.951 -0.00684729 4.16299 0
M  V30 5314 H 504.484 1.60882 3.63816 0
M  V30 5315 H 501.223 4.30922 4.9395 0
M  V30 5316 H 500.743 2.65396 5.3789 0
M  V30 5317 H 502.422 3.19433 5.62647 0
M  V30 5318 N 502.554 -1.34406 0.822964 0
M  V30 5319 C 503.517 -2.2783 0.250271 0
M  V30 5320 C 504.517 -1.50288 -0.571854 0
M  V30 5321 O 505.707 -1.69825 -0.387952 0
M  V30 5322 C 502.839 -3.34663 -0.649137 0
M  V30 5323 H 504.032 -2.79992 1.07444 0
M  V30 5324 H 501.585 -1.44539 0.594829 0
M  V30 5325 H 502.32 -2.87714 -1.49637 0
M  V30 5326 H 502.105 -3.92052 -0.0611199 0
M  V30 5327 H 503.595 -4.04349 -1.04363 0
M  V30 5328 N 504.032 -0.577932 -1.46621 0
M  V30 5329 C 505.281 -0.0594281 -2.01612 0
M  V30 5330 C 505.594 1.30663 -1.45556 0
M  V30 5331 O 506.8 1.91621 -1.92337 0
M  V30 5332 C 505.256 -0.0556666 -3.59857 0
M  V30 5333 C 504.864 -1.41975 -4.24908 0
M  V30 5334 C 506.608 0.409143 -4.22524 0
M  V30 5335 C 504.515 -1.37397 -5.75218 0
M  V30 5336 H 503.445 -0.0184469 -0.753774 0
M  V30 5337 H 506.096 -0.728869 -1.68404 0
M  V30 5338 H 504.478 0.679843 -3.90121 0
M  V30 5339 H 505.652 -2.17461 -4.0626 0
M  V30 5340 H 503.967 -1.82419 -3.74316 0
M  V30 5341 H 506.564 0.46211 -5.32699 0
M  V30 5342 H 506.907 1.42565 -3.91128 0
M  V30 5343 H 507.44 -0.272152 -3.96868 0
M  V30 5344 H 504.179 -2.36714 -6.11267 0
M  V30 5345 H 503.699 -0.661239 -5.96144 0
M  V30 5346 H 505.378 -1.08484 -6.3784 0
M  V30 5347 N 505.51 1.54411 -0.315457 0
M  V30 5348 C 506.457 2.24048 0.554166 0
M  V30 5349 C 507.427 1.2283 1.11812 0
M  V30 5350 O 508.612 1.51491 1.15997 0
M  V30 5351 C 505.752 2.99574 1.71316 0
M  V30 5352 C 504.865 4.15594 1.17922 0
M  V30 5353 C 504 4.78669 2.30324 0
M  V30 5354 C 503.039 5.86807 1.74137 0
M  V30 5355 N 502.176 6.43777 2.8017 0
M  V30 5356 H 507.016 2.97964 -0.0462602 0
M  V30 5357 H 504.553 1.47059 -0.0346009 0
M  V30 5358 H 506.511 3.41604 2.39505 0
M  V30 5359 H 505.141 2.28008 2.285 0
M  V30 5360 H 504.193 3.78404 0.389136 0
M  V30 5361 H 505.505 4.93459 0.728012 0
M  V30 5362 H 504.659 5.23626 3.06433 0
M  V30 5363 H 503.398 4.00168 2.78778 0
M  V30 5364 H 502.403 5.41261 0.965236 0
M  V30 5365 H 503.628 6.67201 1.2657 0
M  V30 5366 H 501.574 5.68153 3.2793 0
M  V30 5367 H 501.491 7.17031 2.39588 0
M  V30 5368 H 502.759 6.9339 3.56132 0
M  V30 5369 N 506.988 0.0434614 1.5754 0
M  V30 5370 C 507.918 -0.931651 2.14109 0
M  V30 5371 C 508.899 -1.32971 1.06079 0
M  V30 5372 O 510.084 -1.40579 1.33982 0
M  V30 5373 C 507.214 -2.20914 2.67982 0
M  V30 5374 C 506.168 -1.95139 3.80926 0
M  V30 5375 C 505.494 -3.29276 4.21285 0
M  V30 5376 C 506.794 -1.27913 5.06395 0
M  V30 5377 H 508.488 -0.460497 2.95837 0
M  V30 5378 H 506.034 -0.220058 1.42309 0
M  V30 5379 H 507.987 -2.89522 3.06194 0
M  V30 5380 H 506.711 -2.70221 1.83434 0
M  V30 5381 H 505.37 -1.28945 3.43175 0
M  V30 5382 H 505.018 -3.76369 3.33699 0
M  V30 5383 H 504.718 -3.12831 4.97404 0
M  V30 5384 H 506.242 -3.99129 4.62091 0
M  V30 5385 H 507.656 -1.86544 5.42102 0
M  V30 5386 H 506.053 -1.2182 5.87605 0
M  V30 5387 H 507.123 -0.254066 4.84234 0
M  V30 5388 N 508.466 -1.55915 -0.229846 0
M  V30 5389 C 509.413 -1.91734 -1.28478 0
M  V30 5390 C 510.383 -0.773539 -1.46988 0
M  V30 5391 O 511.568 -1.02871 -1.60693 0
M  V30 5392 C 508.708 -2.23224 -2.63182 0
M  V30 5393 C 507.821 -3.50497 -2.52539 0
M  V30 5394 C 506.956 -3.71474 -3.79711 0
M  V30 5395 C 505.995 -4.92289 -3.63755 0
M  V30 5396 N 505.132 -5.09698 -4.82858 0
M  V30 5397 H 509.972 -2.81692 -0.972308 0
M  V30 5398 H 507.509 -1.39429 -0.468815 0
M  V30 5399 H 509.467 -2.3949 -3.41614 0
M  V30 5400 H 508.097 -1.36451 -2.92542 0
M  V30 5401 H 507.149 -3.4247 -1.65585 0
M  V30 5402 H 508.461 -4.39079 -2.36666 0
M  V30 5403 H 507.615 -3.87791 -4.66586 0
M  V30 5404 H 506.354 -2.81157 -3.985 0
M  V30 5405 H 505.359 -4.7593 -2.75264 0
M  V30 5406 H 506.584 -5.84083 -3.46445 0
M  V30 5407 H 504.53 -4.22322 -5.01976 0
M  V30 5408 H 504.447 -5.92399 -4.69681 0
M  V30 5409 H 505.715 -5.30443 -5.71183 0
M  V30 5410 N 509.944 0.496216 -1.49584 0
M  V30 5411 C 510.854 1.62352 -1.69349 0
M  V30 5412 C 511.87 1.64184 -0.576147 0
M  V30 5413 O 513.046 1.82517 -0.85144 0
M  V30 5414 C 510.111 2.98698 -1.76013 0
M  V30 5415 C 509.172 3.07454 -2.99617 0
M  V30 5416 C 508.405 4.37296 -3.05953 0
M  V30 5417 O 508.628 5.2637 -2.19752 0
M  V30 5418 O 507.562 4.51124 -3.9846 0
M  V30 5419 H 511.388 1.48606 -2.64859 0
M  V30 5420 H 508.973 0.673022 -1.33382 0
M  V30 5421 H 510.855 3.79725 -1.82721 0
M  V30 5422 H 509.53 3.12696 -0.836828 0
M  V30 5423 H 508.437 2.25597 -2.98424 0
M  V30 5424 H 509.77 2.98385 -3.91443 0
M  V30 5425 N 511.423 1.38739 0.74761 0
M  V30 5426 C 512.355 1.32341 1.87132 0
M  V30 5427 C 513.368 0.234502 1.61102 0
M  V30 5428 O 514.557 0.492516 1.71571 0
M  V30 5429 C 511.657 1.02915 3.22896 0
M  V30 5430 C 510.83 2.22834 3.76383 0
M  V30 5431 C 509.889 1.90059 4.90677 0
M  V30 5432 O 508.915 2.62615 5.04997 0
M  V30 5433 N 510.117 0.859141 5.74107 0
M  V30 5434 H 512.882 2.29175 1.93129 0
M  V30 5435 H 510.443 1.32678 0.927805 0
M  V30 5436 H 512.435 0.79031 3.96908 0
M  V30 5437 H 511.005 0.148572 3.12247 0
M  V30 5438 H 510.225 2.62747 2.93867 0
M  V30 5439 H 511.513 3.02851 4.08851 0
M  V30 5440 H 510.911 0.257564 5.65113 0
M  V30 5441 H 509.468 0.680189 6.48241 0
M  V30 5442 N 512.901 -0.976442 1.23707 0
M  V30 5443 C 514.148 -1.71827 1.07153 0
M  V30 5444 C 514.476 -1.9053 -0.390982 0
M  V30 5445 O 513.731 -1.45779 -1.30564 0
M  V30 5446 C 514.03 -3.11814 1.74662 0
M  V30 5447 C 513.696 -3.12978 3.24585 0
M  V30 5448 C 512.358 -3.13003 3.6549 0
M  V30 5449 C 514.71 -3.07986 4.20469 0
M  V30 5450 C 512.038 -3.05757 5.00729 0
M  V30 5451 C 514.39 -3.02282 5.55705 0
M  V30 5452 C 513.054 -3.00631 5.95968 0
M  V30 5453 H 512.324 -0.628758 0.392102 0
M  V30 5454 H 514.971 -1.14239 1.53693 0
M  V30 5455 H 513.276 -3.72812 1.20492 0
M  V30 5456 H 514.973 -3.67989 1.59328 0
M  V30 5457 H 511.563 -3.13718 2.92026 0
M  V30 5458 H 515.747 -3.07103 3.89874 0
M  V30 5459 H 511.003 -3.02834 5.31132 0
M  V30 5460 H 515.177 -2.97376 6.29714 0
M  V30 5461 H 512.804 -2.94771 7.00724 0
M  V30 5462 N 514.379 -1.04941 -1.1758 0
M  V30 5463 C 515.627 -0.756492 -1.87408 0
M  V30 5464 C 515.948 0.718478 -1.81281 0
M  V30 5465 O 515.218 1.519 -1.23706 0
M  V30 5466 H 513.798 -0.276841 -0.693807 0
M  V30 5467 H 516.46 -1.32803 -1.42652 0
M  V30 5468 H 515.556 -1.06918 -2.93215 0
M  V30 5469 N 515.857 1.33968 -0.830081 0
M  V30 5470 C 516.805 2.31301 -0.245435 0
M  V30 5471 C 517.799 1.57734 0.617762 0
M  V30 5472 O 519.005 1.72674 0.508303 0
M  V30 5473 H 515.38 0.749552 -0.0606316 0
M  V30 5474 H 517.351 2.78129 -1.08105 0
M  V30 5475 C 516.1 3.42961 0.572084 0
M  V30 5476 H 515.423 3.99714 -0.0828118 0
M  V30 5477 H 516.863 4.13286 0.94715 0
M  V30 5478 C 515.322 2.88043 1.74737 0
M  V30 5479 O 515.852 2.83508 2.8458 0
M  V30 5480 N 514.058 2.44768 1.56642 0
M  V30 5481 H 513.605 2.48656 0.672901 0
M  V30 5482 H 513.563 2.08375 2.3543 0
M  V30 5483 N 517.335 0.585699 1.46312 0
M  V30 5484 C 518.283 -0.158577 2.32059 0
M  V30 5485 C 519.277 -0.881427 1.44662 0
M  V30 5486 O 520.483 -0.799476 1.61271 0
M  V30 5487 H 516.858 -0.0700066 0.748734 0
M  V30 5488 H 518.829 0.583383 2.92642 0
M  V30 5489 C 517.578 -1.15701 3.27885 0
M  V30 5490 H 516.901 -0.610215 3.95116 0
M  V30 5491 H 518.341 -1.64812 3.90657 0
M  V30 5492 C 516.8 -2.21951 2.53455 0
M  V30 5493 O 517.33 -3.29352 2.29978 0
M  V30 5494 N 515.536 -1.9664 2.13965 0
M  V30 5495 H 515.083 -1.09309 2.33258 0
M  V30 5496 H 515.041 -2.6794 1.64485 0
M  V30 5497 N 518.813 -1.54241 0.323641 0
M  V30 5498 C 519.76 -2.24339 -0.542277 0
M  V30 5499 C 520.73 -1.23421 -1.11159 0
M  V30 5500 O 521.915 -1.52104 -1.15192 0
M  V30 5501 C 519.055 -3.00479 -1.69725 0
M  V30 5502 C 518.168 -4.16214 -1.15716 0
M  V30 5503 C 517.303 -4.79884 -2.27783 0
M  V30 5504 C 516.342 -5.87722 -1.71023 0
M  V30 5505 N 515.479 -6.45254 -2.76752 0
M  V30 5506 H 520.319 -2.97935 0.0620613 0
M  V30 5507 H 517.856 -1.47039 0.0423993 0
M  V30 5508 H 519.814 -3.42869 -2.3769 0
M  V30 5509 H 518.444 -2.29217 -2.27288 0
M  V30 5510 H 517.496 -3.78605 -0.369063 0
M  V30 5511 H 518.808 -4.93838 -0.701832 0
M  V30 5512 H 517.962 -5.25243 -3.03651 0
M  V30 5513 H 516.701 -4.01641 -2.76652 0
M  V30 5514 H 515.706 -5.41765 -0.936518 0
M  V30 5515 H 516.931 -6.67863 -1.2303 0
M  V30 5516 H 514.877 -5.69884 -3.24912 0
M  V30 5517 H 514.794 -7.18292 -2.35782 0
M  V30 5518 H 516.062 -6.95269 -3.5245 0
M  V30 5519 N 520.291 -0.0518155 -1.57515 0
M  V30 5520 C 521.519 0.631395 -1.9703 0
M  V30 5521 C 521.934 1.64341 -0.92938 0
M  V30 5522 O 521.291 1.82296 0.0863266 0
M  V30 5523 C 521.342 1.31774 -3.36627 0
M  V30 5524 O 521.063 0.346247 -4.3673 0
M  V30 5525 C 522.564 2.09065 -3.90905 0
M  V30 5526 H 519.784 0.172576 -0.648428 0
M  V30 5527 H 522.328 -0.118306 -2.04158 0
M  V30 5528 H 520.483 2.01867 -3.30649 0
M  V30 5529 H 520.897 0.836226 -5.17791 0
M  V30 5530 H 522.371 2.52508 -4.9086 0
M  V30 5531 H 522.848 2.93908 -3.26366 0
M  V30 5532 H 523.454 1.43882 -4.00223 0
M  V30 5533 N 521.769 1.56035 0.221574 0
M  V30 5534 C 523.018 1.78245 0.944016 0
M  V30 5535 C 523.331 0.620371 1.85501 0
M  V30 5536 O 524.537 0.726103 2.6161 0
M  V30 5537 C 522.993 3.15659 1.7288 0
M  V30 5538 C 522.601 4.39591 0.863942 0
M  V30 5539 C 524.345 3.47195 2.44246 0
M  V30 5540 C 522.252 5.6803 1.64607 0
M  V30 5541 H 521.182 0.664547 0.356222 0
M  V30 5542 H 523.833 1.8243 0.197904 0
M  V30 5543 H 522.215 3.0565 2.51781 0
M  V30 5544 H 523.389 4.60655 0.115464 0
M  V30 5545 H 521.704 4.15572 0.262407 0
M  V30 5546 H 524.301 4.40381 3.03263 0
M  V30 5547 H 524.644 2.69693 3.1713 0
M  V30 5548 H 525.177 3.58533 1.72334 0
M  V30 5549 H 521.916 6.48425 0.960507 0
M  V30 5550 H 521.436 5.51027 2.36917 0
M  V30 5551 H 523.115 6.08203 2.20675 0
M  V30 5552 N 523.247 -0.488276 1.49845 0
M  V30 5553 C 524.496 -1.23826 1.59217 0
M  V30 5554 C 524.809 -1.93439 0.289966 0
M  V30 5555 O 526.015 -2.70229 0.262382 0
M  V30 5556 C 524.471 -2.24902 2.80976 0
M  V30 5557 C 524.079 -1.6117 4.18005 0
M  V30 5558 C 525.823 -3.00648 2.99685 0
M  V30 5559 C 523.73 -2.60431 5.3097 0
M  V30 5560 H 522.66 -0.465858 0.592868 0
M  V30 5561 H 525.311 -0.510645 1.76252 0
M  V30 5562 H 523.693 -3.0088 2.57463 0
M  V30 5563 H 524.867 -0.910968 4.51706 0
M  V30 5564 H 523.182 -0.97767 4.0476 0
M  V30 5565 H 525.779 -3.74903 3.81251 0
M  V30 5566 H 526.122 -3.5902 2.10738 0
M  V30 5567 H 526.655 -2.31784 3.23297 0
M  V30 5568 H 523.394 -2.06823 6.22017 0
M  V30 5569 H 522.914 -3.28707 5.01709 0
M  V30 5570 H 524.593 -3.22606 5.60834 0
M  V30 5571 N 524.725 -1.39134 -0.740242 0
M  V30 5572 C 525.972 -1.36071 -1.49969 0
M  V30 5573 C 526.3 0.0450245 -1.94448 0
M  V30 5574 O 525.555 1.02482 -1.66721 0
M  V30 5575 C 525.854 -2.27457 -2.75678 0
M  V30 5576 C 525.52 -3.75185 -2.50094 0
M  V30 5577 C 524.182 -4.15439 -2.42825 0
M  V30 5578 C 526.534 -4.68643 -2.28086 0
M  V30 5579 C 523.862 -5.4722 -2.11584 0
M  V30 5580 C 526.214 -6.00695 -1.98363 0
M  V30 5581 C 524.878 -6.40018 -1.8956 0
M  V30 5582 H 524.148 -0.497921 -0.548777 0
M  V30 5583 H 526.795 -1.71599 -0.85007 0
M  V30 5584 H 525.1 -1.8503 -3.45356 0
M  V30 5585 H 526.797 -2.22384 -3.33686 0
M  V30 5586 H 523.387 -3.43279 -2.56627 0
M  V30 5587 H 527.571 -4.3838 -2.32672 0
M  V30 5588 H 522.827 -5.76615 -2.03287 0
M  V30 5589 H 527.001 -6.72644 -1.80341 0
M  V30 5590 H 524.628 -7.42051 -1.65117 0
M  V30 5591 N 526.204 0.969867 -1.24223 0
M  V30 5592 C 527.152 2.08535 -1.03034 0
M  V30 5593 C 528.146 1.69366 0.0340379 0
M  V30 5594 O 529.352 1.79597 -0.12034 0
M  V30 5595 H 525.727 0.682313 -0.316154 0
M  V30 5596 H 527.698 2.23569 -1.97635 0
M  V30 5597 C 526.447 3.4158 -0.649509 0
M  V30 5598 H 525.77 3.72177 -1.46028 0
M  V30 5599 H 527.21 4.20536 -0.540841 0
M  V30 5600 C 525.669 3.30703 0.643194 0
M  V30 5601 O 526.199 3.64443 1.68951 0
M  V30 5602 N 524.405 2.83841 0.623095 0
M  V30 5603 H 523.952 2.56583 -0.228719 0
M  V30 5604 H 523.91 2.76946 1.48823 0
M  V30 5605 N 527.682 1.05563 1.17022 0
M  V30 5606 C 529.093 0.793475 1.69 0
M  V30 5607 C 529.444 -0.683882 1.83895 0
M  V30 5608 O 528.569 -1.53116 1.5292 0
M  V30 5609 C 529.164 1.43376 3.06967 0
M  V30 5610 C 527.723 1.21956 3.56095 0
M  V30 5611 C 526.87 1.51494 2.3226 0
M  V30 5612 H 529.821 1.22008 1.01487 0
M  V30 5613 H 529.842 0.845068 3.70997 0
M  V30 5614 H 529.354 2.50899 2.96093 0
M  V30 5615 H 527.455 0.163749 3.7224 0
M  V30 5616 H 527.568 1.92713 4.38633 0
M  V30 5617 H 525.932 0.935175 2.3691 0
M  V30 5618 H 526.715 2.60159 2.23992 0
M  V30 5619 N 529.16 -1.33526 0.837174 0
M  V30 5620 C 530.385 -2.0258 0.444545 0
M  V30 5621 C 530.81 -1.6258 -0.946006 0
M  V30 5622 O 530.168 -0.817548 -1.6182 0
M  V30 5623 C 530.216 -3.5605 0.571006 0
M  V30 5624 O 529.32 -4.10422 -0.403431 0
M  V30 5625 H 528.661 -0.638866 0.180958 0
M  V30 5626 H 531.191 -1.70462 1.13154 0
M  V30 5627 H 531.201 -4.05488 0.452024 0
M  V30 5628 H 529.876 -3.84509 1.58512 0
M  V30 5629 H 528.453 -3.72113 -0.242147 0
M  V30 5630 N 530.638 -0.59345 -1.46 0
M  V30 5631 C 531.863 -0.0872365 -2.07216 0
M  V30 5632 C 532.288 1.2131 -1.43755 0
M  V30 5633 O 531.646 1.73528 -0.525152 0
M  V30 5634 C 531.694 0.0538197 -3.6056 0
M  V30 5635 O 530.798 1.10765 -3.97247 0
M  V30 5636 H 530.139 -0.0676598 -0.660544 0
M  V30 5637 H 532.669 -0.819445 -1.87473 0
M  V30 5638 H 532.679 0.256567 -4.07193 0
M  V30 5639 H 531.354 -0.895739 -4.0614 0
M  V30 5640 H 529.931 0.882501 -3.62307 0
M  V30 5641 N 532.116 1.54067 -0.331816 0
M  V30 5642 C 533.364 2.00319 0.267739 0
M  V30 5643 C 533.685 1.22148 1.52003 0
M  V30 5644 O 532.955 0.325494 1.93177 0
M  V30 5645 H 531.535 0.740014 0.101922 0
M  V30 5646 H 534.197 1.89628 -0.450267 0
M  V30 5647 H 533.293 3.07765 0.518385 0
M  V30 5648 N 533.594 0.0601682 1.57485 0
M  V30 5649 C 534.842 -0.610386 1.92662 0
M  V30 5650 C 535.163 -1.70849 0.939981 0
M  V30 5651 O 534.433 -1.95895 -0.0137455 0
M  V30 5652 H 533.013 -0.228457 0.711208 0
M  V30 5653 H 535.675 0.115288 1.94559 0
M  V30 5654 H 534.771 -1.0432 2.94149 0
M  V30 5655 N 535.072 -1.5615 -0.213296 0
M  V30 5656 C 536.349 -1.70349 -0.961281 0
M  V30 5657 C 536.729 -0.609791 -2.02101 0
M  V30 5658 O 536.077 0.381987 -2.25285 0
M  V30 5659 C 536.287 -3.11982 -1.56424 0
M  V30 5660 C 537.635 -3.71649 -2.05334 0
M  V30 5661 O 538.659 -3.14995 -1.66302 0
M  V30 5662 O 537.518 -4.71038 -2.77102 0
M  V30 5663 H 534.612 -0.694121 -0.449582 0
M  V30 5664 H 537.158 -1.68464 -0.204426 0
M  V30 5665 H 535.93 -3.83046 -0.799457 0
M  V30 5666 H 535.553 -3.18019 -2.38641 0
M  V30 5667 N 536.55 0.480323 -1.50102 0
M  V30 5668 C 537.961 1.06142 -1.53593 0
M  V30 5669 C 538.312 1.93335 -0.334055 0
M  V30 5670 O 537.437 2.09188 0.55403 0
M  V30 5671 C 538.032 1.9317 -2.78336 0
M  V30 5672 C 536.591 2.46405 -2.84538 0
M  V30 5673 C 535.738 1.24521 -2.4777 0
M  V30 5674 H 538.689 0.26333 -1.565 0
M  V30 5675 H 538.71 2.78123 -2.59669 0
M  V30 5676 H 538.222 1.29683 -3.65792 0
M  V30 5677 H 536.323 3.13472 -2.01411 0
M  V30 5678 H 536.436 2.82143 -3.87211 0
M  V30 5679 H 534.8 1.57706 -2.00003 0
M  V30 5680 H 535.583 0.627102 -3.37524 0
M  V30 5681 N 538.028 1.39524 0.732853 0
M  V30 5682 C 538.938 1.40695 1.87729 0
M  V30 5683 C 539.954 0.301496 1.71368 0
M  V30 5684 O 541.13 0.543313 1.93933 0
M  V30 5685 C 538.195 1.25098 3.23344 0
M  V30 5686 C 537.256 2.45634 3.52083 0
M  V30 5687 C 536.489 2.30772 4.81228 0
M  V30 5688 O 536.712 1.31233 5.55098 0
M  V30 5689 O 535.646 3.19799 5.09914 0
M  V30 5690 H 539.472 2.37168 1.89697 0
M  V30 5691 H 537.057 1.20663 0.880959 0
M  V30 5692 H 538.939 1.18541 4.04383 0
M  V30 5693 H 537.614 0.317209 3.22142 0
M  V30 5694 H 536.521 2.57767 2.71122 0
M  V30 5695 H 537.854 3.37712 3.58066 0
M  V30 5696 N 539.506 -0.963266 1.24736 0
M  V30 5697 C 540.755 -1.70115 1.08369 0
M  V30 5698 C 541.068 -1.91939 -0.376688 0
M  V30 5699 O 542.274 -2.6334 -0.660624 0
M  V30 5700 C 540.73 -3.06218 1.89099 0
M  V30 5701 C 540.338 -2.92221 3.39574 0
M  V30 5702 C 542.082 -3.83848 1.81275 0
M  V30 5703 C 539.989 -4.23662 4.12631 0
M  V30 5704 H 538.919 -0.637944 0.401924 0
M  V30 5705 H 541.57 -1.07304 1.48856 0
M  V30 5706 H 539.952 -3.69884 1.41429 0
M  V30 5707 H 541.126 -2.37541 3.94856 0
M  V30 5708 H 539.441 -2.28054 3.48397 0
M  V30 5709 H 542.038 -4.81188 2.33158 0
M  V30 5710 H 542.381 -4.08949 0.778895 0
M  V30 5711 H 542.914 -3.26918 2.26649 0
M  V30 5712 H 539.653 -4.03753 5.16395 0
M  V30 5713 H 539.173 -4.78141 3.62135 0
M  V30 5714 H 540.852 -4.92256 4.19873 0
M  V30 5715 N 540.985 -1.06182 -1.16461 0
M  V30 5716 C 542.231 -0.779015 -1.87241 0
M  V30 5717 C 542.564 0.692715 -1.81425 0
M  V30 5718 O 541.839 1.5074 -1.22913 0
M  V30 5719 C 542.122 -1.2728 -3.36856 0
M  V30 5720 C 541.975 -2.80821 -3.51368 0
M  V30 5721 C 543.294 -0.879799 -4.31216 0
M  V30 5722 H 540.413 -0.284464 -0.679889 0
M  V30 5723 H 543.055 -1.31755 -1.36896 0
M  V30 5724 H 541.205 -0.814673 -3.79862 0
M  V30 5725 H 542.877 -3.34833 -3.17308 0
M  V30 5726 H 541.12 -3.19606 -2.93316 0
M  V30 5727 H 541.791 -3.10435 -4.56436 0
M  V30 5728 H 544.267 -1.27436 -3.96105 0
M  V30 5729 H 543.143 -1.25278 -5.34412 0
M  V30 5730 H 543.404 0.215372 -4.41575 0
M  V30 5731 N 542.463 1.3308 -0.844243 0
M  V30 5732 C 543.691 2.01808 -0.456203 0
M  V30 5733 C 544.106 1.63498 0.944131 0
M  V30 5734 O 543.463 0.85102 1.61443 0
M  V30 5735 C 543.514 3.56922 -0.573513 0
M  V30 5736 O 543.235 3.93851 -1.91868 0
M  V30 5737 C 544.736 4.42922 -0.183125 0
M  V30 5738 H 541.956 0.646273 -0.180477 0
M  V30 5739 H 544.5 1.69891 -1.1383 0
M  V30 5740 H 542.655 3.87352 0.0607367 0
M  V30 5741 H 543.069 4.88564 -1.90802 0
M  V30 5742 H 544.543 5.51093 -0.316241 0
M  V30 5743 H 545.02 4.30386 0.875477 0
M  V30 5744 H 545.626 4.1786 -0.792027 0
M  V30 5745 N 543.941 0.601185 1.45683 0
M  V30 5746 C 544.891 -0.142686 2.27553 0
M  V30 5747 C 545.875 -0.844598 1.3695 0
M  V30 5748 O 547.067 -0.735644 1.60988 0
M  V30 5749 C 544.196 -1.14364 3.23691 0
M  V30 5750 C 543.282 -0.442894 4.21781 0
M  V30 5751 N 543.673 0.51189 5.03203 0
M  V30 5752 C 541.971 -0.691277 4.4061 0
M  V30 5753 C 542.672 0.92318 5.74328 0
M  V30 5754 N 541.648 0.268308 5.42937 0
M  V30 5755 H 545.45 0.590736 2.87902 0
M  V30 5756 H 542.964 0.424365 1.56757 0
M  V30 5757 H 544.961 -1.6909 3.8107 0
M  V30 5758 H 543.621 -1.87768 2.64902 0
M  V30 5759 H 544.632 0.888329 5.10225 0
M  V30 5760 H 541.309 -1.41049 3.92952 0
M  V30 5761 H 542.699 1.71029 6.49768 0
M  V30 5762 N 545.419 -1.53889 0.339982 0
M  V30 5763 C 546.644 -2.05741 -0.261798 0
M  V30 5764 C 547.069 -1.21354 -1.43718 0
M  V30 5765 O 546.427 -0.22645 -1.7988 0
M  V30 5766 C 546.475 -3.54542 -0.658228 0
M  V30 5767 O 545.579 -3.7302 -1.75869 0
M  V30 5768 H 544.92 -0.662529 -0.0441672 0
M  V30 5769 H 547.45 -1.98568 0.493161 0
M  V30 5770 H 547.46 -3.9711 -0.936368 0
M  V30 5771 H 546.135 -4.15412 0.201358 0
M  V30 5772 H 544.712 -3.42355 -1.47809 0
M  V30 5773 N 546.897 -0.0685191 -1.57451 0
M  V30 5774 C 548.144 0.601348 -1.93365 0
M  V30 5775 C 548.472 1.69816 -0.948294 0
M  V30 5776 O 547.727 1.95666 0.0366199 0
M  V30 5777 C 548.026 1.22051 -3.35914 0
M  V30 5778 C 547.692 0.250165 -4.50205 0
M  V30 5779 C 546.354 -0.0167954 -4.81197 0
M  V30 5780 C 548.706 -0.413867 -5.19554 0
M  V30 5781 C 546.034 -0.95493 -5.78876 0
M  V30 5782 C 548.386 -1.3403 -6.18238 0
M  V30 5783 C 547.05 -1.61576 -6.47649 0
M  V30 5784 H 546.32 0.220049 -0.707573 0
M  V30 5785 H 548.967 -0.138697 -1.90997 0
M  V30 5786 H 547.272 2.03622 -3.34732 0
M  V30 5787 H 548.969 1.74605 -3.6099 0
M  V30 5788 H 545.559 0.468421 -4.26033 0
M  V30 5789 H 549.743 -0.220733 -4.95809 0
M  V30 5790 H 544.999 -1.17563 -5.99991 0
M  V30 5791 H 549.173 -1.86081 -6.71079 0
M  V30 5792 H 546.8 -2.34431 -7.2315 0
M  V30 5793 N 548.375 1.56261 0.205012 0
M  V30 5794 C 549.323 1.94631 1.27364 0
M  V30 5795 C 550.317 0.830434 1.47649 0
M  V30 5796 O 551.523 1.01538 1.48627 0
M  V30 5797 H 547.898 0.618755 0.427371 0
M  V30 5798 H 549.869 2.83768 0.922941 0
M  V30 5799 C 548.618 2.29358 2.61324 0
M  V30 5800 H 547.941 3.14744 2.46528 0
M  V30 5801 H 549.381 2.60076 3.34868 0
M  V30 5802 C 547.84 1.12461 3.17575 0
M  V30 5803 O 548.37 0.394407 3.99759 0
M  V30 5804 N 546.576 0.904036 2.7618 0
M  V30 5805 H 546.123 1.49956 2.09454 0
M  V30 5806 H 546.081 0.123662 3.14157 0
M  V30 5807 N 549.853 -0.472356 1.50355 0
M  V30 5808 C 551.093 -1.23439 1.62918 0
M  V30 5809 C 551.457 -1.89284 0.321801 0
M  V30 5810 O 552.658 -2.66854 0.322852 0
M  V30 5811 C 550.929 -2.25119 2.7759 0
M  V30 5812 S 552.488 -3.10278 3.10279 0
M  V30 5813 H 549.306 -0.41911 0.574341 0
M  V30 5814 H 551.908 -0.531621 1.88133 0
M  V30 5815 H 550.612 -1.75324 3.71066 0
M  V30 5816 H 550.143 -3.00026 2.54457 0
M  V30 5817 H 552.158 -4.26257 2.54007 0
M  V30 5818 N 551.331 -1.39911 -0.725443 0
M  V30 5819 C 552.579 -1.37382 -1.48224 0
M  V30 5820 C 552.9 0.0264107 -1.94982 0
M  V30 5821 O 552.17 0.979408 -1.6966 0
M  V30 5822 H 550.75 -0.505596 -0.549892 0
M  V30 5823 H 553.412 -1.7487 -0.860608 0
M  V30 5824 H 552.508 -2.04254 -2.3598 0
M  V30 5825 N 552.809 0.956637 -1.25245 0
M  V30 5826 C 554.057 1.69764 -1.09657 0
M  V30 5827 C 554.378 1.91583 0.363464 0
M  V30 5828 O 553.648 1.50149 1.25825 0
M  V30 5829 H 552.228 0.629097 -0.402798 0
M  V30 5830 H 554.89 1.15026 -1.57337 0
M  V30 5831 H 553.986 2.67769 -1.60331 0
M  V30 5832 N 554.287 1.06798 1.15896 0
M  V30 5833 C 555.197 0.694564 2.24083 0
M  V30 5834 C 556.213 -0.291687 1.71538 0
M  V30 5835 O 557.389 -0.139723 2.00915 0
M  V30 5836 C 554.454 0.0921014 3.46578 0
M  V30 5837 C 553.515 1.13087 4.14137 0
M  V30 5838 C 552.748 0.557064 5.30785 0
M  V30 5839 O 552.971 -0.628623 5.66925 0
M  V30 5840 O 551.905 1.29924 5.8771 0
M  V30 5841 H 555.731 1.59663 2.58344 0
M  V30 5842 H 553.316 0.840575 1.2351 0
M  V30 5843 H 555.198 -0.241884 4.20705 0
M  V30 5844 H 553.873 -0.78337 3.14078 0
M  V30 5845 H 552.78 1.51712 3.41957 0
M  V30 5846 H 554.113 1.97805 4.50704 0
M  V30 5847 N 555.766 -1.3263 0.851289 0
M  V30 5848 C 557.013 -1.97368 0.453023 0
M  V30 5849 C 557.341 -1.67384 -0.990596 0
M  V30 5850 O 556.596 -0.952665 -1.70947 0
M  V30 5851 C 556.895 -3.51713 0.635015 0
M  V30 5852 C 556.561 -4.01676 2.04859 0
M  V30 5853 C 555.223 -4.15031 2.43522 0
M  V30 5854 C 557.575 -4.28206 2.97135 0
M  V30 5855 C 554.903 -4.52257 3.73739 0
M  V30 5856 C 557.255 -4.66889 4.26846 0
M  V30 5857 C 555.919 -4.7845 4.65448 0
M  V30 5858 H 555.189 -0.722219 0.165773 0
M  V30 5859 H 557.836 -1.58092 1.0807 0
M  V30 5860 H 556.141 -3.91726 -0.0759081 0
M  V30 5861 H 557.838 -3.99823 0.306964 0
M  V30 5862 H 554.428 -3.91764 1.73836 0
M  V30 5863 H 558.612 -4.174 2.68498 0
M  V30 5864 H 553.868 -4.59402 4.03435 0
M  V30 5865 H 558.042 -4.86372 4.98413 0
M  V30 5866 H 555.669 -5.07052 5.66395 0
M  V30 5867 N 557.244 -0.608902 -1.45362 0
M  V30 5868 C 558.491 -0.104607 -2.0223 0
M  V30 5869 C 558.819 1.26534 -1.47714 0
M  V30 5870 O 558.074 1.84855 -0.642435 0
M  V30 5871 C 558.373 -0.0167296 -3.57396 0
M  V30 5872 C 558.039 -1.32251 -4.31069 0
M  V30 5873 C 556.701 -1.68019 -4.50914 0
M  V30 5874 C 559.053 -2.18542 -4.73169 0
M  V30 5875 C 556.381 -2.89828 -5.10114 0
M  V30 5876 C 558.733 -3.39602 -5.33717 0
M  V30 5877 C 557.397 -3.7562 -5.51784 0
M  V30 5878 H 556.667 -0.0382785 -0.740011 0
M  V30 5879 H 559.314 -0.790782 -1.7441 0
M  V30 5880 H 557.619 0.752715 -3.84502 0
M  V30 5881 H 559.316 0.389634 -3.99103 0
M  V30 5882 H 555.906 -1.03411 -4.15938 0
M  V30 5883 H 560.09 -1.92208 -4.5757 0
M  V30 5884 H 555.346 -3.17839 -5.22291 0
M  V30 5885 H 559.52 -4.06716 -5.65292 0
M  V30 5886 H 557.147 -4.70093 -5.97425 0
M  V30 5887 N 558.722 1.53707 -0.348139 0
M  V30 5888 C 559.952 2.05108 0.247864 0
M  V30 5889 C 560.36 1.22252 1.44399 0
M  V30 5890 O 559.703 0.251853 1.81965 0
M  V30 5891 C 559.765 3.52171 0.722187 0
M  V30 5892 C 559.429 4.5562 -0.354902 0
M  V30 5893 C 560.426 5.05883 -1.19911 0
M  V30 5894 C 558.111 4.99703 -0.510145 0
M  V30 5895 C 560.105 5.98814 -2.18406 0
M  V30 5896 C 557.792 5.92443 -1.49848 0
M  V30 5897 C 558.79 6.41887 -2.33389 0
M  V30 5898 O 558.478 7.32802 -3.3054 0
M  V30 5899 H 558.21 0.674086 0.0508296 0
M  V30 5900 H 560.764 1.99229 -0.49968 0
M  V30 5901 H 558.994 3.55529 1.52105 0
M  V30 5902 H 560.683 3.8652 1.23925 0
M  V30 5903 H 561.449 4.72586 -1.09028 0
M  V30 5904 H 557.328 4.60816 0.130274 0
M  V30 5905 H 560.872 6.3733 -2.83649 0
M  V30 5906 H 556.769 6.25155 -1.60786 0
M  V30 5907 H 557.537 7.50749 -3.26064 0
M  V30 5908 N 560.2 0.0768682 1.57412 0
M  V30 5909 C 561.44 -0.594676 1.95558 0
M  V30 5910 C 561.804 -1.66469 0.956658 0
M  V30 5911 O 563.005 -2.39215 1.22595 0
M  V30 5912 C 561.276 -1.15206 3.38323 0
M  V30 5913 S 562.835 -1.83803 3.9845 0
M  V30 5914 H 559.653 -0.194579 0.683857 0
M  V30 5915 H 562.255 0.151933 1.94909 0
M  V30 5916 H 560.959 -0.36153 4.08805 0
M  V30 5917 H 560.49 -1.93491 3.42527 0
M  V30 5918 H 562.505 -3.12087 3.85767 0
M  V30 5919 N 561.678 -1.56367 -0.196722 0
M  V30 5920 C 562.626 -1.95304 -1.2633 0
M  V30 5921 C 563.62 -0.838252 -1.47206 0
M  V30 5922 O 564.826 -1.02325 -1.48087 0
M  V30 5923 H 561.201 -0.621013 -0.424083 0
M  V30 5924 H 563.172 -2.84254 -0.907879 0
M  V30 5925 C 561.921 -2.3074 -2.60104 0
M  V30 5926 H 561.244 -3.16047 -2.44856 0
M  V30 5927 H 562.684 -2.61849 -3.33484 0
M  V30 5928 C 561.143 -1.14143 -3.16975 0
M  V30 5929 O 561.673 -0.415602 -3.99544 0
M  V30 5930 N 559.879 -0.91867 -2.75697 0
M  V30 5931 H 559.426 -1.51065 -2.08656 0
M  V30 5932 H 559.384 -0.140321 -3.14087 0
M  V30 5933 N 563.156 0.464375 -1.50603 0
M  V30 5934 C 564.381 1.24372 -1.65971 0
M  V30 5935 C 564.806 1.84901 -0.345453 0
M  V30 5936 O 564.164 1.67596 0.691457 0
M  V30 5937 C 564.212 2.32331 -2.7578 0
M  V30 5938 O 563.316 3.37146 -2.375 0
M  V30 5939 H 562.657 0.365604 -0.554283 0
M  V30 5940 H 565.187 0.55183 -1.97018 0
M  V30 5941 H 565.197 2.77539 -2.99059 0
M  V30 5942 H 563.872 1.87648 -3.71162 0
M  V30 5943 H 562.449 2.97602 -2.24694 0
M  V30 5944 N 564.634 1.40294 0.718013 0
M  V30 5945 C 565.862 1.4175 1.50714 0
M  V30 5946 C 566.277 0.0165366 1.88793 0
M  V30 5947 O 565.634 -0.958942 1.55276 0
M  V30 5948 C 565.685 2.30598 2.784 0
M  V30 5949 O 565.406 3.6524 2.41932 0
M  V30 5950 C 566.907 2.4062 3.72313 0
M  V30 5951 H 564.127 0.483565 0.465194 0
M  V30 5952 H 566.671 1.84316 0.885889 0
M  V30 5953 H 564.826 1.91401 3.36815 0
M  V30 5954 H 565.24 4.12402 3.24076 0
M  V30 5955 H 566.714 3.07001 4.58753 0
M  V30 5956 H 567.191 1.4305 4.15251 0
M  V30 5957 H 567.797 2.80359 3.19811 0
M  V30 5958 N 566.112 -0.949982 1.2575 0
M  V30 5959 C 567.044 -2.05088 1.02331 0
M  V30 5960 C 568.057 -1.62795 -0.0133247 0
M  V30 5961 O 569.246 -1.77067 0.225759 0
M  V30 5962 C 566.346 -3.34794 0.525924 0
M  V30 5963 C 565.519 -4.05903 1.62978 0
M  V30 5964 C 564.578 -5.1388 1.13196 0
M  V30 5965 O 563.604 -5.39072 1.82729 0
M  V30 5966 N 564.806 -5.80495 -0.0242926 0
M  V30 5967 H 567.571 -2.25747 1.97125 0
M  V30 5968 H 565.132 -1.11886 1.17018 0
M  V30 5969 H 567.124 -4.04312 0.177263 0
M  V30 5970 H 565.694 -3.10872 -0.328202 0
M  V30 5971 H 564.914 -3.3042 2.1498 0
M  V30 5972 H 566.202 -4.50166 2.37124 0
M  V30 5973 H 565.6 -5.62454 -0.605184 0
M  V30 5974 H 564.157 -6.51043 -0.313947 0
M  V30 5975 N 567.59 -1.07411 -1.15328 0
M  V30 5976 C 568.52 -0.716472 -2.22236 0
M  V30 5977 C 569.501 0.296373 -1.67498 0
M  V30 5978 O 570.686 0.168989 -1.93463 0
M  V30 5979 C 567.816 -0.114142 -3.47112 0
M  V30 5980 C 566.77 -1.05421 -4.14814 0
M  V30 5981 C 566.096 -0.314604 -5.33774 0
M  V30 5982 C 567.396 -2.38808 -4.64508 0
M  V30 5983 H 569.09 -1.61029 -2.52408 0
M  V30 5984 H 566.636 -0.775702 -1.21321 0
M  V30 5985 H 568.589 0.148001 -4.2114 0
M  V30 5986 H 567.313 0.814755 -3.16274 0
M  V30 5987 H 565.972 -1.30128 -3.42728 0
M  V30 5988 H 565.62 0.617772 -4.99192 0
M  V30 5989 H 565.32 -0.941209 -5.80013 0
M  V30 5990 H 566.844 -0.0602747 -6.1057 0
M  V30 5991 H 568.258 -2.18424 -5.3006 0
M  V30 5992 H 566.655 -2.97069 -5.21412 0
M  V30 5993 H 567.725 -3.01067 -3.80114 0
M  V30 5994 N 569.068 1.32177 -0.85831 0
M  V30 5995 C 570.315 1.97125 -0.463484 0
M  V30 5996 C 570.643 1.67907 0.981705 0
M  V30 5997 O 569.898 0.961717 1.70439 0
M  V30 5998 C 570.197 3.51372 -0.653658 0
M  V30 5999 C 569.863 4.00584 -2.06987 0
M  V30 6000 C 568.525 4.13733 -2.4572 0
M  V30 6001 C 570.877 4.26624 -2.99402 0
M  V30 6002 C 568.205 4.50268 -3.76132 0
M  V30 6003 C 570.557 4.64618 -4.29316 0
M  V30 6004 C 569.221 4.75975 -4.67979 0
M  V30 6005 H 568.491 0.72133 -0.169601 0
M  V30 6006 H 571.138 1.57517 -1.08907 0
M  V30 6007 H 569.443 3.91761 0.0551328 0
M  V30 6008 H 571.14 3.99655 -0.328163 0
M  V30 6009 H 567.73 3.90837 -1.75911 0
M  V30 6010 H 571.914 4.1597 -2.70708 0
M  V30 6011 H 567.17 4.57256 -4.05865 0
M  V30 6012 H 571.344 4.83722 -5.00985 0
M  V30 6013 H 568.971 5.04041 -5.69076 0
M  V30 6014 N 570.547 0.616602 1.45037 0
M  V30 6015 C 571.775 0.121968 2.0654 0
M  V30 6016 C 572.19 -1.19743 1.45969 0
M  V30 6017 O 571.547 -1.73133 0.577168 0
M  V30 6018 C 571.598 -0.0145171 3.61497 0
M  V30 6019 O 571.319 1.25269 4.19809 0
M  V30 6020 C 572.82 -0.539555 4.40004 0
M  V30 6021 H 570.04 0.0729837 0.667019 0
M  V30 6022 H 572.584 0.846891 1.8614 0
M  V30 6023 H 570.739 -0.689809 3.81209 0
M  V30 6024 H 571.153 1.08816 5.13088 0
M  V30 6025 H 572.627 -0.584112 5.48901 0
M  V30 6026 H 573.104 -1.56368 4.10421 0
M  V30 6027 H 573.71 0.101995 4.25178 0
M  V30 6028 N 572.025 -1.5352 0.356285 0
M  V30 6029 C 573.271 -2.02104 -0.229271 0
M  V30 6030 C 573.626 -1.23923 -1.47176 0
M  V30 6031 O 572.919 -0.321957 -1.88876 0
M  V30 6032 C 573.113 -3.52607 -0.583369 0
M  V30 6033 C 572.942 -4.4536 0.623253 0
M  V30 6034 C 571.712 -4.92446 1.13248 0
M  V30 6035 C 573.91 -4.92375 1.48563 0
M  V30 6036 N 571.892 -5.69183 2.3001 0
M  V30 6037 C 573.263 -5.67362 2.50001 0
M  V30 6038 C 575.318 -4.74464 1.50959 0
M  V30 6039 C 574.021 -6.26341 3.5368 0
M  V30 6040 C 576.047 -5.34302 2.53526 0
M  V30 6041 C 575.409 -6.09166 3.53688 0
M  V30 6042 H 571.508 -0.780595 -0.0468602 0
M  V30 6043 H 574.092 -1.88204 0.49873 0
M  V30 6044 H 572.263 -3.66686 -1.28046 0
M  V30 6045 H 573.995 -3.87922 -1.15321 0
M  V30 6046 H 570.75 -4.6842 0.698562 0
M  V30 6047 H 571.174 -6.12216 2.88998 0
M  V30 6048 H 575.816 -4.16117 0.748785 0
M  V30 6049 H 573.534 -6.8379 4.30648 0
M  V30 6050 H 577.12 -5.22342 2.56223 0
M  V30 6051 H 576 -6.54644 4.31753 0
M  V30 6052 N 573.503 -0.0852151 -1.57369 0
M  V30 6053 C 574.451 0.894856 -2.14698 0
M  V30 6054 C 575.445 1.29903 -1.08727 0
M  V30 6055 O 576.651 1.27471 -1.27088 0
M  V30 6056 H 573.026 0.306569 -0.686673 0
M  V30 6057 H 574.997 0.386542 -2.95886 0
M  V30 6058 C 573.746 2.14798 -2.73417 0
M  V30 6059 H 573.069 1.84585 -3.54638 0
M  V30 6060 H 574.509 2.81456 -3.1711 0
M  V30 6061 C 572.968 2.91546 -1.68828 0
M  V30 6062 O 573.498 3.85733 -1.12129 0
M  V30 6063 N 571.704 2.54901 -1.39549 0
M  V30 6064 H 571.251 1.7838 -1.85845 0
M  V30 6065 H 571.209 3.06553 -0.698054 0
M  V30 6066 N 574.981 1.5647 0.188427 0
M  V30 6067 C 576.258 1.71857 0.934058 0
M  V30 6068 C 576.638 0.641867 2.01105 0
M  V30 6069 O 575.986 -0.346098 2.25864 0
M  V30 6070 C 576.196 3.14431 1.5144 0
M  V30 6071 C 577.544 3.74869 1.99396 0
M  V30 6072 O 578.568 3.17601 1.61269 0
M  V30 6073 O 577.427 4.75387 2.69573 0
M  V30 6074 H 574.521 0.701186 0.438483 0
M  V30 6075 H 577.067 1.68768 0.177599 0
M  V30 6076 H 575.839 3.8427 0.738416 0
M  V30 6077 H 575.462 3.21775 2.33552 0
M  V30 6078 N 576.459 -0.456382 1.50847 0
M  V30 6079 C 577.687 -1.23026 1.66349 0
M  V30 6080 C 578.102 -1.85473 0.352868 0
M  V30 6081 O 577.459 -1.69885 -0.666739 0
M  V30 6082 C 577.51 -2.32827 2.76539 0
M  V30 6083 O 577.231 -1.72938 4.02522 0
M  V30 6084 C 578.732 -3.23448 3.03144 0
M  V30 6085 H 575.952 -0.371527 0.558756 0
M  V30 6086 H 578.496 -0.543082 1.97157 0
M  V30 6087 H 576.651 -2.97294 2.48384 0
M  V30 6088 H 577.065 -2.45357 4.63573 0
M  V30 6089 H 578.539 -3.96669 3.83872 0
M  V30 6090 H 579.016 -3.83094 2.14793 0
M  V30 6091 H 579.622 -2.64702 3.32886 0
M  V30 6092 N 577.937 -1.40673 -0.710563 0
M  V30 6093 C 579.353 -1.22813 -1.01928 0
M  V30 6094 C 579.553 -0.10687 -2.01216 0
M  V30 6095 O 578.609 0.533614 -2.46797 0
M  V30 6096 C 579.922 -2.57178 -1.5582 0
M  V30 6097 C 581.47 -2.64233 -1.67779 0
M  V30 6098 C 581.945 -3.98879 -2.25076 0
M  V30 6099 N 583.436 -4.00647 -2.32456 0
M  V30 6100 C 584.171 -5.01621 -2.77784 0
M  V30 6101 N 583.667 -6.12989 -3.22826 0
M  V30 6102 N 585.46 -4.88988 -2.77213 0
M  V30 6103 H 577.611 -2.12335 -0.05253 0
M  V30 6104 H 579.874 -0.9441 -0.085898 0
M  V30 6105 H 579.58 -3.39903 -0.903249 0
M  V30 6106 H 579.454 -2.78618 -2.54267 0
M  V30 6107 H 581.841 -1.81876 -2.3239 0
M  V30 6108 H 581.922 -2.46619 -0.679178 0
M  V30 6109 H 581.566 -4.81678 -1.61086 0
M  V30 6110 H 581.496 -4.13826 -3.25661 0
M  V30 6111 H 583.987 -3.20231 -2.0065 0
M  V30 6112 H 584.3 -6.85921 -3.55995 0
M  V30 6113 H 582.645 -6.16547 -3.20773 0
M  V30 6114 H 585.836 -4.01075 -2.41363 0
M  V30 6115 H 586.009 -5.67822 -3.12221 0
M  V30 6116 N 579.415 0.9433 -1.26252 0
M  V30 6117 C 580.362 2.0417 -1.07625 0
M  V30 6118 C 581.332 1.6609 0.0180738 0
M  V30 6119 O 582.517 1.90276 -0.141289 0
M  V30 6120 C 579.657 3.37653 -0.713043 0
M  V30 6121 C 578.77 3.88783 -1.8834 0
M  V30 6122 C 577.905 5.10642 -1.4635 0
M  V30 6123 C 576.944 5.54028 -2.60229 0
M  V30 6124 N 576.081 6.67092 -2.18936 0
M  V30 6125 H 580.921 2.19436 -2.01623 0
M  V30 6126 H 578.458 1.07519 -1.00389 0
M  V30 6127 H 580.416 4.14391 -0.483358 0
M  V30 6128 H 579.046 3.22241 0.18996 0
M  V30 6129 H 578.098 3.08464 -2.22608 0
M  V30 6130 H 579.41 4.16922 -2.73821 0
M  V30 6131 H 578.564 5.94832 -1.19414 0
M  V30 6132 H 577.303 4.84244 -0.579568 0
M  V30 6133 H 576.308 4.68396 -2.87898 0
M  V30 6134 H 577.533 5.82429 -3.49219 0
M  V30 6135 H 575.479 6.42381 -1.32974 0
M  V30 6136 H 575.396 6.94806 -2.97961 0
M  V30 6137 H 576.664 7.54662 -1.95206 0
M  V30 6138 N 580.893 1.08022 1.14757 0
M  V30 6139 C 581.823 0.728248 2.21853 0
M  V30 6140 C 582.804 -0.287486 1.67653 0
M  V30 6141 O 583.989 -0.158727 1.9355 0
M  V30 6142 C 581.119 0.132549 3.47047 0
M  V30 6143 C 580.073 1.07619 4.14249 0
M  V30 6144 C 579.399 0.342907 5.33599 0
M  V30 6145 C 580.699 2.41268 4.63235 0
M  V30 6146 H 582.393 1.62365 2.51551 0
M  V30 6147 H 579.939 0.782125 1.20908 0
M  V30 6148 H 581.892 -0.125665 4.21213 0
M  V30 6149 H 580.616 -0.797971 3.16702 0
M  V30 6150 H 579.275 1.31944 3.42033 0
M  V30 6151 H 578.923 -0.59129 4.99513 0
M  V30 6152 H 578.623 0.971955 5.79506 0
M  V30 6153 H 580.147 0.0926538 6.1053 0
M  V30 6154 H 581.561 2.21232 5.28894 0
M  V30 6155 H 579.958 2.9983 5.19829 0
M  V30 6156 H 581.028 3.03079 3.78512 0
M  V30 6157 N 582.371 -1.3172 0.865308 0
M  V30 6158 C 583.319 -2.30569 0.306674 0
M  V30 6159 C 584.313 -1.59317 -0.575724 0
M  V30 6160 O 585.519 -1.73961 -0.462343 0
M  V30 6161 H 581.894 -0.747681 0.0804834 0
M  V30 6162 H 583.865 -2.75165 1.15441 0
M  V30 6163 C 582.614 -3.44358 -0.480952 0
M  V30 6164 H 581.937 -3.99354 0.18876 0
M  V30 6165 H 583.377 -4.15652 -0.837241 0
M  V30 6166 C 581.836 -2.92574 -1.67039 0
M  V30 6167 O 582.366 -2.90954 -2.76964 0
M  V30 6168 N 580.572 -2.48835 -1.50097 0
M  V30 6169 H 580.119 -2.50353 -0.606738 0
M  V30 6170 H 580.077 -2.14543 -2.29823 0
M  V30 6171 N 583.85 -0.624285 -1.44708 0
M  V30 6172 C 584.798 0.0969952 -2.32398 0
M  V30 6173 C 585.792 0.842762 -1.46949 0
M  V30 6174 O 586.998 0.756436 -1.63334 0
M  V30 6175 H 583.373 0.0501306 -0.750327 0
M  V30 6176 H 585.344 -0.660767 -2.90992 0
M  V30 6177 C 584.093 1.06967 -3.30837 0
M  V30 6178 H 583.416 0.505242 -3.96595 0
M  V30 6179 H 584.856 1.54397 -3.94889 0
M  V30 6180 C 583.315 2.15153 -2.5925 0
M  V30 6181 O 583.845 3.23139 -2.3863 0
M  V30 6182 N 582.051 1.90898 -2.19103 0
M  V30 6183 H 581.598 1.03086 -2.36074 0
M  V30 6184 H 581.556 2.63485 -1.71531 0
M  V30 6185 N 585.328 1.53329 -0.364422 0
M  V30 6186 C 586.556 2.05657 0.226424 0
M  V30 6187 C 586.971 1.23801 1.42544 0
M  V30 6188 O 586.328 0.27839 1.80364 0
M  V30 6189 C 586.379 3.56125 0.621056 0
M  V30 6190 O 586.1 4.34879 -0.530304 0
M  V30 6191 C 587.601 4.24706 1.27041 0
M  V30 6192 H 584.821 0.669806 0.0400056 0
M  V30 6193 H 587.365 1.97714 -0.522456 0
M  V30 6194 H 585.52 3.64223 1.31985 0
M  V30 6195 H 585.934 5.24073 -0.211546 0
M  V30 6196 H 587.408 5.3131 1.49711 0
M  V30 6197 H 587.885 3.78354 2.23036 0
M  V30 6198 H 588.491 4.20858 0.613079 0
M  V30 6199 N 586.806 0.0935595 1.57322 0
M  V30 6200 C 588.054 -0.569383 1.93913 0
M  V30 6201 C 588.375 -1.68817 0.976009 0
M  V30 6202 O 587.645 -1.9588 0.0278099 0
M  V30 6203 H 586.225 -0.21332 0.715894 0
M  V30 6204 H 588.887 0.156531 1.9427 0
M  V30 6205 H 587.983 -0.980577 2.96296 0
M  V30 6206 N 588.284 -1.56567 -0.180126 0
M  V30 6207 C 589.7 -1.50488 -0.531559 0
M  V30 6208 C 589.9 -0.796267 -1.851 0
M  V30 6209 O 588.956 -0.352978 -2.50021 0
M  V30 6210 C 590.269 -2.95201 -0.572456 0
M  V30 6211 C 591.817 -3.05957 -0.660264 0
M  V30 6212 C 592.292 -4.5211 -0.732135 0
M  V30 6213 N 593.783 -4.56322 -0.795262 0
M  V30 6214 C 594.518 -5.66742 -0.871296 0
M  V30 6215 N 594.014 -6.86815 -0.908708 0
M  V30 6216 N 595.807 -5.54691 -0.909639 0
M  V30 6217 H 587.958 -2.01045 0.685165 0
M  V30 6218 H 590.221 -0.915536 0.245962 0
M  V30 6219 H 589.927 -3.50165 0.328208 0
M  V30 6220 H 589.801 -3.49369 -1.422 0
M  V30 6221 H 592.188 -2.51032 -1.55136 0
M  V30 6222 H 592.269 -2.54888 0.215783 0
M  V30 6223 H 591.913 -5.07664 0.154664 0
M  V30 6224 H 591.843 -5.00926 -1.6242 0
M  V30 6225 H 594.334 -3.69868 -0.77499 0
M  V30 6226 H 594.647 -7.66718 -0.967654 0
M  V30 6227 H 592.992 -6.89443 -0.877132 0
M  V30 6228 H 596.183 -4.59804 -0.877353 0
M  V30 6229 H 596.356 -6.40768 -0.965434 0
M  V30 6230 N 589.762 0.448376 -1.51087 0
M  V30 6231 C 590.71 1.56407 -1.72161 0
M  V30 6232 C 591.704 1.58878 -0.587721 0
M  V30 6233 O 592.91 1.62755 -0.768822 0
M  V30 6234 H 589.285 0.519423 -0.543786 0
M  V30 6235 H 591.256 1.35803 -2.65707 0
M  V30 6236 C 590.005 2.94163 -1.85373 0
M  V30 6237 H 589.328 2.9299 -2.72024 0
M  V30 6238 H 590.768 3.71625 -2.04135 0
M  V30 6239 C 589.227 3.31317 -0.610803 0
M  V30 6240 O 589.757 4.00985 0.239636 0
M  V30 6241 N 587.963 2.86966 -0.458127 0
M  V30 6242 H 587.51 2.30443 -1.15124 0
M  V30 6243 H 587.468 3.12188 0.372289 0
M  V30 6244 N 591.24 1.41047 0.703093 0
M  V30 6245 C 592.489 1.39301 1.4587 0
M  V30 6246 C 592.802 0.00267077 1.956 0
M  V30 6247 O 594.008 -0.137414 2.71152 0
M  V30 6248 C 592.464 2.44891 2.63735 0
M  V30 6249 C 592.072 3.89796 2.20824 0
M  V30 6250 C 593.816 2.5227 3.41409 0
M  V30 6251 C 591.723 4.86955 3.35602 0
M  V30 6252 H 590.653 0.518005 0.547893 0
M  V30 6253 H 593.304 1.66839 0.764009 0
M  V30 6254 H 591.686 2.10472 3.35436 0
M  V30 6255 H 592.86 4.33424 1.56461 0
M  V30 6256 H 591.175 3.86008 1.56163 0
M  V30 6257 H 593.772 3.22044 4.26839 0
M  V30 6258 H 594.115 1.55714 3.86081 0
M  V30 6259 H 594.648 2.85742 2.7676 0
M  V30 6260 H 591.387 5.84888 2.9595 0
M  V30 6261 H 590.907 4.47982 3.98839 0
M  V30 6262 H 592.586 5.07361 4.01489 0
M  V30 6263 N 592.718 -0.936591 1.26751 0
M  V30 6264 C 593.946 -1.71758 1.15355 0
M  V30 6265 C 594.361 -1.86549 -0.290683 0
M  V30 6266 O 593.718 -1.37616 -1.19868 0
M  V30 6267 C 593.769 -3.12193 1.82258 0
M  V30 6268 O 593.49 -2.98105 3.21038 0
M  V30 6269 C 594.991 -4.06485 1.76875 0
M  V30 6270 H 592.211 -0.537636 0.401483 0
M  V30 6271 H 594.755 -1.17382 1.67457 0
M  V30 6272 H 592.91 -3.63456 1.34083 0
M  V30 6273 H 593.324 -3.86824 3.54214 0
M  V30 6274 H 594.798 -5.02569 2.28316 0
M  V30 6275 H 595.275 -4.32986 0.736216 0
M  V30 6276 H 595.881 -3.61144 2.24623 0
M  V30 6277 N 594.196 -1.08629 -1.14182 0
M  V30 6278 C 595.126 -0.740003 -2.21464 0
M  V30 6279 C 596.107 0.278591 -1.67803 0
M  V30 6280 O 597.292 0.148461 -1.93632 0
M  V30 6281 C 594.422 -0.150952 -3.46972 0
M  V30 6282 C 593.376 -1.09815 -4.13672 0
M  V30 6283 C 592.702 -0.3712 -5.3341 0
M  V30 6284 C 594.002 -2.43722 -4.61949 0
M  V30 6285 H 595.696 -1.63697 -2.50686 0
M  V30 6286 H 593.242 -0.788526 -1.20492 0
M  V30 6287 H 595.195 0.103325 -4.21273 0
M  V30 6288 H 593.919 0.781164 -3.1712 0
M  V30 6289 H 592.578 -1.33756 -3.41328 0
M  V30 6290 H 592.226 0.564792 -4.99819 0
M  V30 6291 H 591.926 -1.00267 -5.78982 0
M  V30 6292 H 593.45 -0.12503 -6.10472 0
M  V30 6293 H 594.864 -2.24034 -5.27714 0
M  V30 6294 H 593.261 -3.02582 -5.18232 0
M  V30 6295 H 594.331 -3.05082 -3.76899 0
M  V30 6296 N 595.674 1.31259 -0.872281 0
M  V30 6297 C 597.085 1.78822 -0.536617 0
M  V30 6298 C 597.436 1.71855 0.946594 0
M  V30 6299 O 596.561 1.28769 1.73918 0
M  V30 6300 C 597.156 3.24698 -0.967294 0
M  V30 6301 C 595.715 3.70147 -0.683251 0
M  V30 6302 C 594.862 2.51994 -1.15733 0
M  V30 6303 H 597.813 1.18308 -1.05777 0
M  V30 6304 H 597.834 3.79386 -0.290929 0
M  V30 6305 H 597.346 3.29737 -2.04683 0
M  V30 6306 H 595.447 3.70607 0.384825 0
M  V30 6307 H 595.56 4.62183 -1.2619 0
M  V30 6308 H 593.924 2.48078 -0.577024 0
M  V30 6309 H 594.707 2.59778 -2.24434 0
M  V30 6310 N 597.152 0.631951 1.44375 0
M  V30 6311 C 598.392 0.14009 2.03919 0
M  V30 6312 C 598.756 -1.21534 1.48639 0
M  V30 6313 O 599.957 -1.79936 1.99691 0
M  V30 6314 C 598.228 0.127174 3.57174 0
M  V30 6315 S 599.787 -0.299946 4.37774 0
M  V30 6316 H 596.605 0.0614891 0.708336 0
M  V30 6317 H 599.207 0.835524 1.76746 0
M  V30 6318 H 597.911 1.11676 3.94913 0
M  V30 6319 H 597.442 -0.589482 3.88958 0
M  V30 6320 H 599.457 -1.54396 4.71568 0
M  V30 6321 N 598.631 -1.53133 0.372548 0
M  V30 6322 C 600.047 -1.59585 0.02178 0
M  V30 6323 C 600.247 -1.38736 -1.46132 0
M  V30 6324 O 599.303 -1.19599 -2.22379 0
M  V30 6325 C 600.616 -2.9678 0.483959 0
M  V30 6326 C 602.164 -3.09909 0.438775 0
M  V30 6327 C 602.639 -4.49527 0.876876 0
M  V30 6328 N 604.13 -4.55663 0.832214 0
M  V30 6329 C 604.865 -5.61896 1.14281 0
M  V30 6330 N 604.361 -6.75852 1.52303 0
M  V30 6331 N 606.154 -5.51916 1.06515 0
M  V30 6332 H 598.305 -1.64936 1.33827 0
M  V30 6333 H 600.568 -0.773947 0.547458 0
M  V30 6334 H 600.274 -3.17198 1.51915 0
M  V30 6335 H 600.148 -3.7699 -0.125784 0
M  V30 6336 H 602.535 -2.89197 -0.587294 0
M  V30 6337 H 602.616 -2.31691 1.0841 0
M  V30 6338 H 602.26 -4.70979 1.90109 0
M  V30 6339 H 602.19 -5.26186 0.208727 0
M  V30 6340 H 604.681 -3.73844 0.552195 0
M  V30 6341 H 604.994 -7.52862 1.7441 0
M  V30 6342 H 603.339 -6.77226 1.56175 0
M  V30 6343 H 606.53 -4.6177 0.767235 0
M  V30 6344 H 606.703 -6.34609 1.31053 0
M  V30 6345 N 600.109 -0.101901 -1.5727 0
M  V30 6346 C 601.358 0.559922 -1.93772 0
M  V30 6347 C 601.671 1.68913 -0.98629 0
M  V30 6348 O 602.877 2.41256 -1.24529 0
M  V30 6349 C 601.333 1.04739 -3.44322 0
M  V30 6350 C 600.941 -0.05243 -4.47969 0
M  V30 6351 C 602.685 1.68157 -3.89774 0
M  V30 6352 C 600.592 0.450781 -5.8968 0
M  V30 6353 H 599.522 0.212931 -0.723309 0
M  V30 6354 H 602.173 -0.179001 -1.82625 0
M  V30 6355 H 600.555 1.84021 -3.50645 0
M  V30 6356 H 601.729 -0.828157 -4.53297 0
M  V30 6357 H 600.044 -0.592202 -4.12167 0
M  V30 6358 H 602.641 2.0689 -4.93052 0
M  V30 6359 H 602.984 2.55338 -3.28798 0
M  V30 6360 H 603.517 0.954453 -3.8618 0
M  V30 6361 H 600.256 -0.38458 -6.54371 0
M  V30 6362 H 599.776 1.19336 -5.87809 0
M  V30 6363 H 601.455 0.917555 -6.40461 0
M  V30 6364 N 601.587 1.56661 0.17182 0
M  V30 6365 C 602.534 1.96371 1.21273 0
M  V30 6366 C 603.504 0.82756 1.44016 0
M  V30 6367 O 604.689 1.08764 1.56764 0
M  V30 6368 C 601.829 2.32838 2.54716 0
M  V30 6369 C 600.942 3.59628 2.39356 0
M  V30 6370 C 600.077 3.85311 3.65662 0
M  V30 6371 C 599.116 5.0545 3.45234 0
M  V30 6372 N 598.253 5.27268 4.63608 0
M  V30 6373 H 603.093 2.85106 0.86709 0
M  V30 6374 H 600.63 1.41073 0.416744 0
M  V30 6375 H 602.588 2.52004 3.3249 0
M  V30 6376 H 601.218 1.47214 2.87277 0
M  V30 6377 H 600.27 3.4838 1.52761 0
M  V30 6378 H 601.582 4.4756 2.20207 0
M  V30 6379 H 600.736 4.04841 4.51872 0
M  V30 6380 H 599.475 2.95753 3.8779 0
M  V30 6381 H 598.48 4.85819 2.5741 0
M  V30 6382 H 599.705 5.96538 3.24529 0
M  V30 6383 H 597.651 4.40662 4.85956 0
M  V30 6384 H 597.568 6.09422 4.4737 0
M  V30 6385 H 598.836 5.51277 5.51103 0
M  V30 6386 N 603.065 -0.440357 1.51323 0
M  V30 6387 C 603.997 -1.55254 1.68609 0
M  V30 6388 C 605.01 -1.52614 0.566812 0
M  V30 6389 O 606.199 -1.57445 0.841032 0
M  V30 6390 C 603.299 -2.94169 1.68279 0
M  V30 6391 C 602.472 -3.21346 2.96742 0
M  V30 6392 C 601.531 -4.3997 2.8864 0
M  V30 6393 O 600.557 -4.38771 3.62586 0
M  V30 6394 N 601.759 -5.43367 2.04285 0
M  V30 6395 H 604.524 -1.40831 2.6455 0
M  V30 6396 H 602.085 -0.629251 1.49171 0
M  V30 6397 H 604.077 -3.71543 1.60431 0
M  V30 6398 H 602.647 -3.02205 0.799441 0
M  V30 6399 H 601.867 -2.32299 3.18482 0
M  V30 6400 H 603.155 -3.3633 3.81785 0
M  V30 6401 H 602.553 -5.47176 1.43578 0
M  V30 6402 H 601.11 -6.19605 2.02318 0
M  V30 6403 N 604.543 -1.41418 -0.695603 0
M  V30 6404 C 605.792 -1.40073 -1.4513 0
M  V30 6405 C 606.105 -0.0130439 -1.95596 0
M  V30 6406 O 607.311 0.123032 -2.71221 0
M  V30 6407 C 605.767 -2.46286 -2.62433 0
M  V30 6408 C 605.375 -3.90962 -2.18753 0
M  V30 6409 C 607.119 -2.54077 -3.40066 0
M  V30 6410 C 605.026 -4.88728 -3.33015 0
M  V30 6411 H 603.956 -0.520903 -0.545138 0
M  V30 6412 H 606.607 -1.67242 -0.75515 0
M  V30 6413 H 604.989 -2.12248 -3.34315 0
M  V30 6414 H 606.163 -4.34248 -1.54161 0
M  V30 6415 H 604.478 -3.86831 -1.54114 0
M  V30 6416 H 607.075 -3.24303 -4.25125 0
M  V30 6417 H 607.418 -1.5776 -3.8525 0
M  V30 6418 H 607.951 -2.87206 -2.75241 0
M  V30 6419 H 604.69 -5.86449 -2.92844 0
M  V30 6420 H 604.21 -4.50091 -3.96457 0
M  V30 6421 H 605.889 -5.09483 -3.98793 0
M  V30 6422 N 606.021 0.929856 -1.27246 0
M  V30 6423 C 607.27 1.67182 -1.12842 0
M  V30 6424 C 607.583 1.9287 0.325666 0
M  V30 6425 O 608.789 2.64999 0.590572 0
M  V30 6426 C 607.245 3.01097 -1.97151 0
M  V30 6427 C 606.853 2.83115 -3.47203 0
M  V30 6428 C 608.597 3.78907 -1.91389 0
M  V30 6429 C 606.504 4.12573 -4.23719 0
M  V30 6430 H 605.434 0.627064 -0.418697 0
M  V30 6431 H 608.085 1.0332 -1.51649 0
M  V30 6432 H 606.467 3.66004 -1.51186 0
M  V30 6433 H 607.641 2.26989 -4.01015 0
M  V30 6434 H 605.956 2.18736 -3.54321 0
M  V30 6435 H 608.553 4.74837 -2.45834 0
M  V30 6436 H 608.896 4.0674 -0.887047 0
M  V30 6437 H 609.429 3.20794 -2.35237 0
M  V30 6438 H 606.168 3.8992 -5.26918 0
M  V30 6439 H 605.688 4.68371 -3.74685 0
M  V30 6440 H 607.367 4.8095 -4.32777 0
M  V30 6441 N 607.499 1.09233 1.13605 0
M  V30 6442 C 608.447 0.724572 2.21027 0
M  V30 6443 C 609.441 -0.273595 1.67176 0
M  V30 6444 O 610.647 -0.135266 1.79491 0
M  V30 6445 H 607.022 0.216319 0.720215 0
M  V30 6446 H 608.993 1.63975 2.49309 0
M  V30 6447 C 607.742 0.159126 3.47336 0
M  V30 6448 H 607.065 0.918387 3.89109 0
M  V30 6449 H 608.505 -0.0602851 4.23957 0
M  V30 6450 C 606.964 -1.10514 3.18258 0
M  V30 6451 O 607.494 -2.18869 3.36837 0
M  V30 6452 N 605.7 -1.01886 2.72154 0
M  V30 6453 H 605.247 -0.137027 2.57235 0
M  V30 6454 H 605.205 -1.8655 2.53074 0
M  V30 6455 N 608.977 -1.30795 0.87923 0
M  V30 6456 C 609.91 -2.26396 0.286404 0
M  V30 6457 C 610.888 -1.51528 -0.589748 0
M  V30 6458 O 612.072 -1.80566 -0.541119 0
M  V30 6459 C 609.199 -3.33458 -0.593581 0
M  V30 6460 C 608.245 -4.2597 0.21247 0
M  V30 6461 S 609.078 -5.11132 1.59702 0
M  V30 6462 C 610.234 -6.21705 0.723408 0
M  V30 6463 H 610.467 -2.7633 1.09677 0
M  V30 6464 H 608 -1.38703 0.678305 0
M  V30 6465 H 609.958 -3.9561 -1.09557 0
M  V30 6466 H 608.619 -2.82259 -1.37799 0
M  V30 6467 H 607.812 -5.01907 -0.458822 0
M  V30 6468 H 607.414 -3.68363 0.646883 0
M  V30 6469 H 609.706 -6.77472 -0.0620739 0
M  V30 6470 H 610.649 -6.93007 1.4542 0
M  V30 6471 H 611.057 -5.63771 0.286855 0
M  V30 6472 N 610.455 -0.639598 -1.44038 0
M  V30 6473 C 611.701 -0.156248 -2.02799 0
M  V30 6474 C 612.056 1.21145 -1.49471 0
M  V30 6475 O 611.349 1.79406 -0.672608 0
M  V30 6476 C 611.543 -0.0925348 -3.5728 0
M  V30 6477 C 611.372 -1.45252 -4.25596 0
M  V30 6478 C 610.142 -2.04145 -4.62226 0
M  V30 6479 C 612.34 -2.38812 -4.55492 0
M  V30 6480 N 610.322 -3.3329 -5.15549 0
M  V30 6481 C 611.693 -3.52578 -5.09989 0
M  V30 6482 C 613.748 -2.37785 -4.3745 0
M  V30 6483 C 612.451 -4.65525 -5.48342 0
M  V30 6484 C 614.477 -3.49802 -4.76857 0
M  V30 6485 C 613.839 -4.62292 -5.31475 0
M  V30 6486 H 609.938 -0.101292 -0.775412 0
M  V30 6487 H 612.522 -0.844938 -1.75411 0
M  V30 6488 H 610.693 0.565459 -3.84262 0
M  V30 6489 H 612.425 0.400426 -4.02714 0
M  V30 6490 H 609.18 -1.56999 -4.4682 0
M  V30 6491 H 609.604 -3.9934 -5.46678 0
M  V30 6492 H 614.246 -1.52061 -3.94509 0
M  V30 6493 H 611.964 -5.51951 -5.90233 0
M  V30 6494 H 615.55 -3.50193 -4.64603 0
M  V30 6495 H 614.43 -5.47536 -5.61403 0
M  V30 6496 N 611.933 1.52934 -0.380664 0
M  V30 6497 C 612.865 2.23822 0.493581 0
M  V30 6498 C 613.878 1.25761 1.03383 0
M  V30 6499 O 615.067 1.5189 0.937633 0
M  V30 6500 C 612.167 2.9342 1.69582 0
M  V30 6501 C 611.34 4.18115 1.28445 0
M  V30 6502 C 610.399 4.70788 2.35042 0
M  V30 6503 O 609.425 5.34093 1.96807 0
M  V30 6504 N 610.627 4.49899 3.66839 0
M  V30 6505 H 613.392 2.99484 -0.11371 0
M  V30 6506 H 610.953 1.60577 -0.206587 0
M  V30 6507 H 612.945 3.2556 2.40401 0
M  V30 6508 H 611.515 2.21119 2.20965 0
M  V30 6509 H 610.735 3.92109 0.405503 0
M  V30 6510 H 612.023 4.99152 0.986132 0
M  V30 6511 H 611.421 3.99349 4.0067 0
M  V30 6512 H 609.978 4.86551 4.33718 0
M  V30 6513 N 613.412 0.11024 1.57214 0
M  V30 6514 C 614.322 -0.857077 2.18383 0
M  V30 6515 C 615.338 -1.29915 1.1575 0
M  V30 6516 O 616.514 -1.36394 1.48184 0
M  V30 6517 C 613.579 -2.09264 2.76423 0
M  V30 6518 C 612.64 -1.70333 3.94063 0
M  V30 6519 C 611.873 -2.87999 4.49324 0
M  V30 6520 O 612.096 -4.0317 4.03497 0
M  V30 6521 O 611.03 -2.6559 5.40135 0
M  V30 6522 H 614.856 -0.366561 3.0148 0
M  V30 6523 H 612.441 -0.114914 1.48957 0
M  V30 6524 H 614.323 -2.81644 3.13456 0
M  V30 6525 H 612.998 -2.57339 1.96363 0
M  V30 6526 H 611.905 -0.950864 3.61814 0
M  V30 6527 H 613.238 -1.27007 4.75531 0
M  V30 6528 N 614.89 -1.56749 -0.16351 0
M  V30 6529 C 616.136 -1.82704 -0.880168 0
M  V30 6530 C 616.469 -0.689311 -1.81555 0
M  V30 6531 O 615.744 0.308224 -1.92042 0
M  V30 6532 C 616.027 -3.19084 -1.66905 0
M  V30 6533 C 615.88 -4.43397 -0.756269 0
M  V30 6534 C 617.199 -3.52493 -2.63509 0
M  V30 6535 H 614.318 -0.664608 -0.318535 0
M  V30 6536 H 616.96 -1.89438 -0.146036 0
M  V30 6537 H 615.11 -3.13475 -2.2949 0
M  V30 6538 H 616.782 -4.61079 -0.14269 0
M  V30 6539 H 615.025 -4.33752 -0.0647944 0
M  V30 6540 H 615.696 -5.3539 -1.34393 0
M  V30 6541 H 618.172 -3.58606 -2.11047 0
M  V30 6542 H 617.048 -4.48979 -3.15767 0
M  V30 6543 H 617.309 -2.77597 -3.44082 0
M  V30 6544 N 616.368 0.432326 -1.51554 0
M  V30 6545 C 617.616 1.17901 -1.64146 0
M  V30 6546 C 617.937 1.91604 -0.362367 0
M  V30 6547 O 617.207 1.85764 0.621968 0
M  V30 6548 H 615.787 0.438206 -0.604966 0
M  V30 6549 H 618.449 0.495172 -1.88505 0
M  V30 6550 H 617.545 1.90584 -2.47152 0
M  V30 6551 N 617.846 1.41785 0.688094 0
M  V30 6552 C 618.793 1.44221 1.80191 0
M  V30 6553 C 619.763 0.295688 1.63447 0
M  V30 6554 O 620.948 0.49783 1.84191 0
M  V30 6555 C 618.088 1.33743 3.1813 0
M  V30 6556 C 617.201 2.58325 3.46254 0
M  V30 6557 C 616.336 2.40086 4.73848 0
M  V30 6558 C 615.375 3.60107 4.94964 0
M  V30 6559 N 614.512 3.40892 6.13789 0
M  V30 6560 H 619.352 2.39411 1.77444 0
M  V30 6561 H 616.889 1.18876 0.866423 0
M  V30 6562 H 618.847 1.25669 3.97823 0
M  V30 6563 H 617.477 0.42157 3.20035 0
M  V30 6564 H 616.529 2.7682 2.60912 0
M  V30 6565 H 617.841 3.4758 3.57756 0
M  V30 6566 H 616.995 2.29522 5.61609 0
M  V30 6567 H 615.734 1.483 4.64606 0
M  V30 6568 H 614.739 3.71118 4.05649 0
M  V30 6569 H 615.964 4.52857 5.06061 0
M  V30 6570 H 613.91 2.51812 6.05745 0
M  V30 6571 H 613.827 4.23727 6.26092 0
M  V30 6572 H 615.095 3.34114 7.04264 0
M  V30 6573 N 619.324 -0.923095 1.27737 0
M  V30 6574 C 620.287 -2.00587 1.10894 0
M  V30 6575 C 621.287 -1.60718 0.0514927 0
M  V30 6576 O 622.477 -1.71658 0.296481 0
M  V30 6577 C 619.609 -3.33829 0.690717 0
M  V30 6578 H 620.802 -2.16959 2.07048 0
M  V30 6579 H 618.355 -1.10451 1.1059 0
M  V30 6580 H 619.09 -3.23157 -0.272 0
M  V30 6581 H 618.875 -3.64125 1.45448 0
M  V30 6582 H 620.365 -4.13336 0.595252 0
M  V30 6583 N 620.802 -1.09834 -1.13024 0
M  V30 6584 C 621.735 -0.685453 -2.17662 0
M  V30 6585 C 622.713 0.310142 -1.59615 0
M  V30 6586 O 623.897 0.21052 -1.87321 0
M  V30 6587 C 621.024 -0.0104476 -3.38698 0
M  V30 6588 C 620.07 -0.968522 -4.15358 0
M  V30 6589 S 620.903 -2.48272 -4.74469 0
M  V30 6590 C 622.059 -1.82025 -5.98847 0
M  V30 6591 H 622.292 -1.57187 -2.52348 0
M  V30 6592 H 619.825 -0.914728 -1.24387 0
M  V30 6593 H 621.783 0.372694 -4.08805 0
M  V30 6594 H 620.444 0.852673 -3.02305 0
M  V30 6595 H 619.637 -0.443373 -5.02046 0
M  V30 6596 H 619.239 -1.29327 -3.50928 0
M  V30 6597 H 621.531 -1.14678 -6.67724 0
M  V30 6598 H 622.474 -2.66645 -6.55977 0
M  V30 6599 H 622.882 -1.2874 -5.49624 0
M  V30 6600 N 622.28 1.30327 -0.886154 0
M  V30 6601 C 623.51 1.99964 -0.519421 0
M  V30 6602 C 623.918 1.66593 0.89686 0
M  V30 6603 O 623.261 0.899886 1.60149 0
M  V30 6604 C 623.323 3.54187 -0.615795 0
M  V30 6605 C 622.987 4.11078 -1.9966 0
M  V30 6606 C 623.984 4.26985 -2.96614 0
M  V30 6607 C 621.669 4.46429 -2.30231 0
M  V30 6608 C 623.663 4.77456 -4.22273 0
M  V30 6609 C 621.35 4.966 -3.56135 0
M  V30 6610 C 622.348 5.12066 -4.5197 0
M  V30 6611 O 622.036 5.61154 -5.7564 0
M  V30 6612 H 621.768 0.645979 -0.199217 0
M  V30 6613 H 624.322 1.67154 -1.19368 0
M  V30 6614 H 622.552 3.86528 0.115448 0
M  V30 6615 H 624.241 4.05065 -0.26017 0
M  V30 6616 H 625.007 3.99975 -2.74308 0
M  V30 6617 H 620.886 4.33658 -1.56404 0
M  V30 6618 H 624.43 4.89444 -4.97082 0
M  V30 6619 H 620.327 5.23045 -3.78277 0
M  V30 6620 H 621.095 5.79494 -5.78039 0
M  V30 6621 N 623.758 0.647228 1.43697 0
M  V30 6622 C 624.721 -0.0385101 2.29168 0
M  V30 6623 C 625.721 -0.756487 1.41894 0
M  V30 6624 O 626.911 -0.598641 1.63591 0
M  V30 6625 C 624.043 -1.06524 3.23829 0
M  V30 6626 H 625.236 0.713445 2.9129 0
M  V30 6627 H 622.789 0.408153 1.50877 0
M  V30 6628 H 623.524 -1.84664 2.66589 0
M  V30 6629 H 623.309 -0.554147 3.88164 0
M  V30 6630 H 624.799 -1.54432 3.87996 0
M  V30 6631 N 625.236 -1.5273 0.388769 0
M  V30 6632 C 626.647 -1.86505 -0.0853788 0
M  V30 6633 C 626.998 -1.30847 -1.46197 0
M  V30 6634 O 626.123 -0.639609 -2.06732 0
M  V30 6635 C 626.718 -3.38414 -0.161703 0
M  V30 6636 C 625.277 -3.71902 -0.580144 0
M  V30 6637 C 624.424 -2.76095 0.258218 0
M  V30 6638 H 627.375 -1.46647 0.606665 0
M  V30 6639 H 627.396 -3.67638 -0.980936 0
M  V30 6640 H 626.908 -3.78893 0.840333 0
M  V30 6641 H 625.009 -3.36992 -1.58957 0
M  V30 6642 H 625.122 -4.77902 -0.338663 0
M  V30 6643 H 623.486 -2.53195 -0.276432 0
M  V30 6644 H 624.269 -3.19411 1.25822 0
M  V30 6645 N 626.714 -0.118576 -1.57153 0
M  V30 6646 C 628.125 0.40687 -1.82213 0
M  V30 6647 C 628.476 1.66636 -1.03571 0
M  V30 6648 O 627.601 2.14682 -0.272171 0
M  V30 6649 C 628.196 0.744949 -3.30509 0
M  V30 6650 C 626.755 1.21503 -3.5625 0
M  V30 6651 C 625.902 0.223511 -2.76398 0
M  V30 6652 H 628.853 -0.343712 -1.54933 0
M  V30 6653 H 628.874 1.6024 -3.45114 0
M  V30 6654 H 628.386 -0.171911 -3.87719 0
M  V30 6655 H 626.487 2.1488 -3.04396 0
M  V30 6656 H 626.6 1.16065 -4.64829 0
M  V30 6657 H 624.964 0.71046 -2.44591 0
M  V30 6658 H 625.747 -0.686439 -3.36367 0
M  V30 6659 N 628.193 1.56834 0.155195 0
M  V30 6660 C 629.442 1.82088 0.867567 0
M  V30 6661 C 629.755 0.69849 1.82703 0
M  V30 6662 O 630.961 0.836407 2.58295 0
M  V30 6663 C 629.417 3.22707 1.59336 0
M  V30 6664 C 629.025 4.42859 0.676719 0
M  V30 6665 C 630.769 3.57242 2.293 0
M  V30 6666 C 628.676 5.74501 1.40367 0
M  V30 6667 H 627.606 0.679057 0.327715 0
M  V30 6668 H 630.257 1.83105 0.120351 0
M  V30 6669 H 628.639 3.16054 2.38591 0
M  V30 6670 H 629.813 4.60731 -0.0800196 0
M  V30 6671 H 628.128 4.16311 0.0859129 0
M  V30 6672 H 630.725 4.52847 2.84312 0
M  V30 6673 H 631.068 2.82901 3.05406 0
M  V30 6674 H 631.601 3.6552 1.56972 0
M  V30 6675 H 628.34 6.51915 0.684623 0
M  V30 6676 H 627.86 5.60579 2.13332 0
M  V30 6677 H 629.539 6.17016 1.94681 0
M  V30 6678 N 629.671 -0.424282 1.51781 0
M  V30 6679 C 631.087 -0.761768 1.40247 0
M  V30 6680 C 631.287 -1.95324 0.495041 0
M  V30 6681 O 630.343 -2.5246 -0.0448949 0
M  V30 6682 C 631.656 -1.0299 2.82513 0
M  V30 6683 C 633.204 -1.13354 2.91753 0
M  V30 6684 C 633.679 -1.43453 4.34954 0
M  V30 6685 N 635.17 -1.5035 4.3812 0
M  V30 6686 C 635.905 -1.75236 5.45967 0
M  V30 6687 N 635.401 -1.97827 6.63955 0
M  V30 6688 N 637.194 -1.77126 5.33463 0
M  V30 6689 H 629.345 0.360228 2.09323 0
M  V30 6690 H 631.608 0.0988128 0.942836 0
M  V30 6691 H 631.314 -0.226961 3.50967 0
M  V30 6692 H 631.188 -1.95411 3.22637 0
M  V30 6693 H 633.575 -1.92709 2.23489 0
M  V30 6694 H 633.656 -0.188041 2.55108 0
M  V30 6695 H 633.3 -0.646209 5.03772 0
M  V30 6696 H 633.23 -2.3923 4.69123 0
M  V30 6697 H 635.721 -1.34742 3.53062 0
M  V30 6698 H 636.034 -2.16223 7.41935 0
M  V30 6699 H 634.379 -1.95123 6.67047 0
M  V30 6700 H 637.57 -1.59005 4.40267 0
M  V30 6701 H 637.743 -1.96182 6.17589 0
M  V30 6702 N 631.149 -1.42148 -0.680565 0
M  V30 6703 C 632.397 -1.42029 -1.43779 0
M  V30 6704 C 632.718 -0.0356347 -1.94967 0
M  V30 6705 O 631.988 0.924936 -1.7269 0
M  V30 6706 H 630.568 -0.522835 -0.533529 0
M  V30 6707 H 633.23 -1.7752 -0.804538 0
M  V30 6708 H 632.326 -2.11658 -2.29363 0
M  V30 6709 N 632.627 0.916307 -1.28225 0
M  V30 6710 C 633.559 2.02303 -1.07732 0
M  V30 6711 C 634.572 1.62773 -0.0298421 0
M  V30 6712 O 635.761 1.76406 -0.272626 0
M  V30 6713 C 632.861 3.33282 -0.614504 0
M  V30 6714 C 632.034 4.01439 -1.73682 0
M  V30 6715 C 631.093 5.10698 -1.26781 0
M  V30 6716 O 630.119 5.34038 -1.96958 0
M  V30 6717 N 631.321 5.80355 -0.129624 0
M  V30 6718 H 634.086 2.20442 -2.03041 0
M  V30 6719 H 631.647 1.08744 -1.19943 0
M  V30 6720 H 633.639 4.03699 -0.284397 0
M  V30 6721 H 632.209 3.11633 0.245664 0
M  V30 6722 H 631.429 3.24604 -2.23665 0
M  V30 6723 H 632.717 4.43721 -2.48976 0
M  V30 6724 H 632.115 5.6386 0.455847 0
M  V30 6725 H 630.672 6.51647 0.141224 0
M  V30 6726 N 634.105 1.10431 1.1244 0
M  V30 6727 C 635.354 0.841539 1.83306 0
M  V30 6728 C 635.667 -0.634961 1.85007 0
M  V30 6729 O 636.873 -1.01363 2.51869 0
M  V30 6730 C 635.329 1.45565 3.29149 0
M  V30 6731 C 634.937 2.96544 3.35806 0
M  V30 6732 C 636.681 1.27227 4.04986 0
M  V30 6733 C 634.588 3.5099 4.75983 0
M  V30 6734 H 633.518 0.311156 0.686803 0
M  V30 6735 H 636.169 1.32829 1.26604 0
M  V30 6736 H 634.551 0.896574 3.85717 0
M  V30 6737 H 635.725 3.58766 2.89177 0
M  V30 6738 H 634.04 3.14036 2.73442 0
M  V30 6739 H 636.637 1.65348 5.08492 0
M  V30 6740 H 636.98 0.213834 4.1575 0
M  V30 6741 H 637.513 1.79941 3.54776 0
M  V30 6742 H 634.252 4.56499 4.70413 0
M  V30 6743 H 633.772 2.93535 5.23065 0
M  V30 6744 H 635.451 3.48808 5.44924 0
M  V30 6745 N 635.583 -1.29855 0.893053 0
M  V30 6746 C 636.999 -1.48366 0.588199 0
M  V30 6747 C 637.199 -1.81654 -0.872018 0
M  V30 6748 O 636.255 -1.909 -1.65268 0
M  V30 6749 C 637.568 -2.60136 1.5083 0
M  V30 6750 C 639.116 -2.74014 1.51279 0
M  V30 6751 C 639.591 -3.88905 2.41902 0
M  V30 6752 N 641.082 -3.96228 2.39911 0
M  V30 6753 C 641.817 -4.84458 3.06738 0
M  V30 6754 N 641.313 -5.77426 3.8282 0
M  V30 6755 N 643.106 -4.77894 2.95929 0
M  V30 6756 H 635.257 -1.06522 1.83757 0
M  V30 6757 H 637.52 -0.528495 0.787018 0
M  V30 6758 H 637.226 -2.42383 2.54839 0
M  V30 6759 H 637.1 -3.56793 1.22388 0
M  V30 6760 H 639.487 -2.91167 0.480179 0
M  V30 6761 H 639.568 -1.77952 1.83757 0
M  V30 6762 H 639.212 -3.72508 3.45253 0
M  V30 6763 H 639.142 -4.84322 2.06737 0
M  V30 6764 H 641.633 -3.29728 1.84629 0
M  V30 6765 H 641.946 -6.41529 4.30883 0
M  V30 6766 H 640.291 -5.77332 3.86927 0
M  V30 6767 H 643.482 -4.04248 2.36012 0
M  V30 6768 H 643.655 -5.46444 3.48286 0
M  V30 6769 N 637.061 -0.65484 -1.43351 0
M  V30 6770 C 638.301 -0.172514 -2.03671 0
M  V30 6771 C 638.665 1.19154 -1.50553 0
M  V30 6772 O 639.866 1.76737 -2.02528 0
M  V30 6773 C 638.137 -0.183982 -3.56926 0
M  V30 6774 S 639.696 0.230262 -4.38195 0
M  V30 6775 H 636.514 -0.0727503 -0.707268 0
M  V30 6776 H 639.116 -0.863537 -1.75395 0
M  V30 6777 H 637.82 -1.17945 -3.93087 0
M  V30 6778 H 637.351 0.527527 -3.89847 0
M  V30 6779 H 639.366 1.46874 -4.73965 0
M  V30 6780 N 638.539 1.52521 -0.396863 0
M  V30 6781 C 639.764 2.06571 0.185258 0
M  V30 6782 C 640.189 1.26605 1.39115 0
M  V30 6783 O 639.547 0.293055 1.78916 0
M  V30 6784 C 639.595 3.5674 0.526189 0
M  V30 6785 O 638.699 3.7929 1.61903 0
M  V30 6786 H 638.04 0.663712 0.0195474 0
M  V30 6787 H 640.57 1.966 -0.566519 0
M  V30 6788 H 640.58 4.00311 0.788338 0
M  V30 6789 H 639.255 4.14379 -0.355397 0
M  V30 6790 H 637.832 3.47605 1.35 0
M  V30 6791 N 640.017 0.126909 1.57088 0
M  V30 6792 C 641.242 -0.53997 2.00248 0
M  V30 6793 C 641.667 -1.58927 1.00618 0
M  V30 6794 O 641.025 -1.81288 -0.0210131 0
M  V30 6795 C 641.073 -1.13565 3.4225 0
M  V30 6796 O 640.177 -2.25103 3.45547 0
M  V30 6797 H 639.518 -0.13412 0.650314 0
M  V30 6798 H 642.048 0.217718 2.03438 0
M  V30 6799 H 642.058 -1.46925 3.80627 0
M  V30 6800 H 640.733 -0.367122 4.14277 0
M  V30 6801 H 639.31 -1.93123 3.18995 0
M  V30 6802 N 641.495 -1.56914 -0.146875 0
M  V30 6803 C 642.443 -1.99224 -1.20053 0
M  V30 6804 C 643.437 -0.884661 -1.44465 0
M  V30 6805 O 644.643 -1.06984 -1.44756 0
M  V30 6806 H 641.018 -0.634191 -0.404112 0
M  V30 6807 H 642.989 -2.86998 -0.816987 0
M  V30 6808 C 641.738 -2.38899 -2.52632 0
M  V30 6809 H 641.061 -3.23677 -2.34677 0
M  V30 6810 H 642.501 -2.72326 -3.24984 0
M  V30 6811 C 640.96 -1.2417 -3.13183 0
M  V30 6812 O 641.49 -0.542503 -3.9802 0
M  V30 6813 N 639.696 -1.00592 -2.72635 0
M  V30 6814 H 639.243 -1.57627 -2.03744 0
M  V30 6815 H 639.201 -0.240174 -3.13481 0
M  V30 6816 N 642.974 0.416227 -1.52004 0
M  V30 6817 C 644.223 1.16088 -1.64944 0
M  V30 6818 C 644.536 1.91835 -0.381928 0
M  V30 6819 O 645.742 2.6867 -0.391013 0
M  V30 6820 C 644.198 2.1124 -2.91386 0
M  V30 6821 C 643.806 1.41042 -4.25219 0
M  V30 6822 C 645.55 2.86008 -3.13688 0
M  V30 6823 C 643.457 2.34801 -5.42791 0
M  V30 6824 H 642.387 0.437041 -0.61442 0
M  V30 6825 H 645.038 0.425971 -1.78487 0
M  V30 6826 H 643.42 2.88254 -2.71525 0
M  V30 6827 H 644.594 0.694416 -4.55538 0
M  V30 6828 H 642.909 0.78344 -4.08964 0
M  V30 6829 H 645.506 3.56286 -3.98703 0
M  V30 6830 H 645.849 3.48556 -2.27628 0
M  V30 6831 H 646.382 2.16095 -3.33988 0
M  V30 6832 H 643.121 1.7691 -6.31176 0
M  V30 6833 H 642.641 3.04395 -5.16821 0
M  V30 6834 H 644.32 2.9548 -5.75587 0
M  V30 6835 N 644.452 1.42507 0.673017 0
M  V30 6836 C 645.68 1.46473 1.46128 0
M  V30 6837 C 646.095 0.0765912 1.88645 0
M  V30 6838 O 645.452 -0.909057 1.58248 0
M  V30 6839 C 645.503 2.39339 2.70923 0
M  V30 6840 O 645.224 3.72752 2.3019 0
M  V30 6841 C 646.725 2.52343 3.64469 0
M  V30 6842 H 643.945 0.49812 0.449575 0
M  V30 6843 H 646.489 1.87041 0.826802 0
M  V30 6844 H 644.644 2.02019 3.30556 0
M  V30 6845 H 645.058 4.22503 3.10791 0
M  V30 6846 H 646.532 3.2144 4.48754 0
M  V30 6847 H 647.009 1.56189 4.1049 0
M  V30 6848 H 647.615 2.90392 3.10729 0
M  V30 6849 N 645.93 -0.909495 1.28709 0
M  V30 6850 C 647.178 -1.65577 1.15882 0
M  V30 6851 C 647.499 -1.928 -0.292108 0
M  V30 6852 O 646.769 -1.54716 -1.20166 0
M  V30 6853 H 645.349 -0.613714 0.425869 0
M  V30 6854 H 648.011 -1.09108 1.61498 0
M  V30 6855 H 647.107 -2.61634 1.70159 0
M  V30 6856 N 647.408 -1.11026 -1.11852 0
M  V30 6857 C 648.338 -0.786812 -2.19844 0
M  V30 6858 C 649.319 0.242935 -1.68356 0
M  V30 6859 O 650.504 0.107355 -1.93903 0
M  V30 6860 C 647.634 -0.224516 -3.46574 0
M  V30 6861 C 646.588 -1.18564 -4.1125 0
M  V30 6862 C 645.914 -0.484261 -5.32503 0
M  V30 6863 C 647.214 -2.53465 -4.56676 0
M  V30 6864 H 648.908 -1.68978 -2.47158 0
M  V30 6865 H 646.454 -0.813906 -1.18792 0
M  V30 6866 H 648.407 0.0139435 -4.21398 0
M  V30 6867 H 647.131 0.713722 -3.18706 0
M  V30 6868 H 645.79 -1.40966 -3.38414 0
M  V30 6869 H 645.438 0.458646 -5.00905 0
M  V30 6870 H 645.138 -1.12526 -5.76725 0
M  V30 6871 H 646.662 -0.254492 -6.10069 0
M  V30 6872 H 648.076 -2.35177 -5.22843 0
M  V30 6873 H 646.473 -3.13507 -5.11697 0
M  V30 6874 H 647.543 -3.13008 -3.70343 0
M  V30 6875 N 648.886 1.2938 -0.899927 0
M  V30 6876 C 649.816 2.30144 -0.39446 0
M  V30 6877 C 650.797 1.61611 0.530639 0
M  V30 6878 O 651.982 1.89119 0.441319 0
M  V30 6879 C 649.112 3.45229 0.37868 0
M  V30 6880 C 648.066 4.25564 -0.456012 0
M  V30 6881 C 647.392 5.32848 0.444637 0
M  V30 6882 C 648.692 4.93651 -1.70605 0
M  V30 6883 H 650.386 2.72673 -1.23653 0
M  V30 6884 H 647.932 1.31086 -0.596034 0
M  V30 6885 H 649.885 4.14797 0.743037 0
M  V30 6886 H 648.609 3.01545 1.25453 0
M  V30 6887 H 647.268 3.57704 -0.802704 0
M  V30 6888 H 646.916 4.85408 1.31863 0
M  V30 6889 H 646.616 5.87497 -0.110154 0
M  V30 6890 H 648.14 6.05268 0.805182 0
M  V30 6891 H 649.554 5.55655 -1.41141 0
M  V30 6892 H 647.951 5.58233 -2.20217 0
M  V30 6893 H 649.021 4.18926 -2.4419 0
M  V30 6894 N 650.364 0.662433 1.43002 0
M  V30 6895 C 651.294 -0.00979809 2.33498 0
M  V30 6896 C 652.275 -0.802329 1.49989 0
M  V30 6897 O 653.46 -0.761964 1.78627 0
M  V30 6898 C 650.59 -0.970446 3.33466 0
M  V30 6899 C 649.544 -0.287383 4.27034 0
M  V30 6900 C 648.87 -1.36012 5.17112 0
M  V30 6901 C 650.17 0.82595 5.15728 0
M  V30 6902 H 651.864 0.745959 2.89958 0
M  V30 6903 H 649.41 0.360172 1.39423 0
M  V30 6904 H 651.363 -1.44971 3.95679 0
M  V30 6905 H 650.087 -1.75748 2.75282 0
M  V30 6906 H 648.746 0.17152 3.66199 0
M  V30 6907 H 648.394 -2.13882 4.55262 0
M  V30 6908 H 648.094 -0.908276 5.80538 0
M  V30 6909 H 649.618 -1.84056 5.82199 0
M  V30 6910 H 651.032 0.42845 5.71697 0
M  V30 6911 H 649.429 1.20282 5.87922 0
M  V30 6912 H 650.499 1.68003 4.54866 0
M  V30 6913 N 651.842 -1.52309 0.404946 0
M  V30 6914 C 653.07 -2.06185 -0.171818 0
M  V30 6915 C 653.485 -1.27536 -1.39212 0
M  V30 6916 O 652.842 -0.326112 -1.79563 0
M  V30 6917 C 652.893 -3.57647 -0.526417 0
M  V30 6918 O 652.614 -4.3332 0.645417 0
M  V30 6919 C 654.115 -4.27925 -1.15736 0
M  V30 6920 H 651.335 -0.670632 -0.0222328 0
M  V30 6921 H 653.879 -1.96259 0.574692 0
M  V30 6922 H 652.034 -3.67595 -1.22282 0
M  V30 6923 H 652.448 -5.23328 0.35042 0
M  V30 6924 H 653.922 -5.35093 -1.35572 0
M  V30 6925 H 654.399 -3.84134 -2.12926 0
M  V30 6926 H 655.005 -4.22335 -0.501281 0
M  V30 6927 N 653.32 -0.135238 -1.57019 0
M  V30 6928 C 654.736 0.221262 -1.58059 0
M  V30 6929 C 654.936 1.65538 -1.14889 0
M  V30 6930 O 653.992 2.37985 -0.843751 0
M  V30 6931 C 655.305 -0.0268114 -3.00688 0
M  V30 6932 C 656.853 0.0378206 -3.12977 0
M  V30 6933 C 657.328 -0.182769 -4.57635 0
M  V30 6934 N 658.819 -0.129292 -4.6302 0
M  V30 6935 C 659.554 -0.274648 -5.72742 0
M  V30 6936 N 659.05 -0.477075 -6.91155 0
M  V30 6937 N 660.843 -0.213077 -5.61696 0
M  V30 6938 H 652.994 -1.07177 -1.83376 0
M  V30 6939 H 655.257 -0.423338 -0.848227 0
M  V30 6940 H 654.963 -1.01889 -3.36618 0
M  V30 6941 H 654.837 0.697863 -3.70688 0
M  V30 6942 H 657.224 1.02043 -2.76896 0
M  V30 6943 H 657.305 -0.718996 -2.45487 0
M  V30 6944 H 656.949 -1.16243 -4.94419 0
M  V30 6945 H 656.879 0.59423 -5.23237 0
M  V30 6946 H 659.37 0.0229896 -3.77893 0
M  V30 6947 H 659.683 -0.578413 -7.70632 0
M  V30 6948 H 658.028 -0.513252 -6.93102 0
M  V30 6949 H 661.219 -0.0557796 -4.68067 0
M  V30 6950 H 661.392 -0.329796 -6.4716 0
M  V30 6951 N 654.798 1.5699 0.138552 0
M  V30 6952 C 656.075 1.74741 0.87891 0
M  V30 6953 C 656.455 0.705522 1.98961 0
M  V30 6954 O 655.803 -0.274066 2.2685 0
M  V30 6955 C 656.013 3.1909 1.4136 0
M  V30 6956 C 657.361 3.81023 1.87368 0
M  V30 6957 O 658.385 3.22571 1.51084 0
M  V30 6958 O 657.244 4.83722 2.54312 0
M  V30 6959 H 654.338 0.714781 0.415953 0
M  V30 6960 H 656.884 1.69248 0.123817 0
M  V30 6961 H 655.656 3.86424 0.61579 0
M  V30 6962 H 655.279 3.29043 2.23196 0
M  V30 6963 N 656.276 -0.40816 1.52223 0
M  V30 6964 C 657.524 -1.15274 1.66001 0
M  V30 6965 C 657.845 -1.91003 0.392803 0
M  V30 6966 O 657.115 -1.8673 -0.592336 0
M  V30 6967 H 655.695 -0.428526 0.611861 0
M  V30 6968 H 658.357 -0.46512 1.89269 0
M  V30 6969 H 657.453 -1.86628 2.50153 0
M  V30 6970 N 657.755 -1.42862 -0.66545 0
M  V30 6971 C 659.003 -1.43546 -1.42264 0
M  V30 6972 C 659.324 -0.0563116 -1.94919 0
M  V30 6973 O 658.594 0.906568 -1.73661 0
M  V30 6974 H 657.174 -0.528464 -0.527953 0
M  V30 6975 H 659.836 -1.78363 -0.785665 0
M  V30 6976 H 658.932 -2.14079 -2.27105 0
M  V30 6977 N 659.233 0.902656 -1.29189 0
M  V30 6978 C 660.18 2.00643 -1.14066 0
M  V30 6979 C 661.15 1.66064 -0.0347756 0
M  V30 6980 O 662.335 1.8973 -0.201752 0
M  V30 6981 C 659.475 3.35214 -0.820104 0
M  V30 6982 C 658.588 3.82594 -2.00614 0
M  V30 6983 C 657.723 5.05727 -1.62522 0
M  V30 6984 C 656.762 5.45469 -2.77724 0
M  V30 6985 N 655.899 6.59789 -2.40048 0
M  V30 6986 H 660.739 2.1291 -2.08502 0
M  V30 6987 H 658.276 1.04271 -1.03759 0
M  V30 6988 H 660.234 4.12643 -0.614949 0
M  V30 6989 H 658.864 3.22682 0.0873452 0
M  V30 6990 H 657.916 3.01226 -2.32308 0
M  V30 6991 H 659.228 4.07999 -2.86946 0
M  V30 6992 H 658.382 5.90732 -1.38277 0
M  V30 6993 H 657.121 4.82155 -0.733333 0
M  V30 6994 H 656.126 4.59 -3.02653 0
M  V30 6995 H 657.351 5.71024 -3.67572 0
M  V30 6996 H 655.297 6.37826 -1.53343 0
M  V30 6997 H 655.214 6.84975 -3.19914 0
M  V30 6998 H 656.482 7.4807 -2.19116 0
M  V30 6999 N 660.711 1.11618 1.11262 0
M  V30 7000 C 661.988 0.777876 1.79467 0
M  V30 7001 C 662.368 -0.733774 1.97937 0
M  V30 7002 O 661.716 -1.66443 1.56554 0
M  V30 7003 C 661.926 1.5431 3.13032 0
M  V30 7004 C 663.274 1.72357 3.88044 0
M  V30 7005 O 664.298 1.5075 3.22727 0
M  V30 7006 O 663.157 2.08276 5.05256 0
M  V30 7007 H 660.251 0.282018 0.777428 0
M  V30 7008 H 662.797 1.21971 1.17988 0
M  V30 7009 H 661.569 2.57132 2.94956 0
M  V30 7010 H 661.192 1.09495 3.82226 0
M  V30 7011 N 662.189 -1.289 0.906776 0
M  V30 7012 C 663.417 -1.99401 0.551969 0
M  V30 7013 C 663.832 -1.67816 -0.865048 0
M  V30 7014 O 663.189 -0.927078 -1.57199 0
M  V30 7015 C 663.24 -3.53779 0.743152 0
M  V30 7016 O 662.961 -3.84248 2.1044 0
M  V30 7017 C 664.462 -4.41543 0.39424 0
M  V30 7018 H 661.682 -0.636926 0.211106 0
M  V30 7019 H 664.226 -1.64266 1.21807 0
M  V30 7020 H 662.381 -3.87201 0.124143 0
M  V30 7021 H 662.795 -4.78904 2.13895 0
M  V30 7022 H 664.269 -5.48957 0.578814 0
M  V30 7023 H 664.746 -4.34073 -0.669137 0
M  V30 7024 H 665.352 -4.13605 0.990491 0
M  V30 7025 N 663.667 -0.670007 -1.42649 0
M  V30 7026 C 664.615 0.0230106 -2.32589 0
M  V30 7027 C 665.609 0.795585 -1.49555 0
M  V30 7028 O 666.815 0.70409 -1.65658 0
M  V30 7029 H 663.19 0.0262342 -0.751542 0
M  V30 7030 H 665.161 -0.753009 -2.88743 0
M  V30 7031 C 663.91 0.963872 -3.34073 0
M  V30 7032 H 663.233 0.378813 -3.98001 0
M  V30 7033 H 664.673 1.41755 -3.99602 0
M  V30 7034 C 663.132 2.06797 -2.65964 0
M  V30 7035 O 663.662 3.15383 -2.48789 0
M  V30 7036 N 661.868 1.83831 -2.25066 0
M  V30 7037 H 661.415 0.955235 -2.39234 0
M  V30 7038 H 661.373 2.57895 -1.79827 0
M  V30 7039 N 665.145 1.52092 -0.413018 0
M  V30 7040 C 666.393 2.01456 0.161178 0
M  V30 7041 C 666.714 1.30034 1.45314 0
M  V30 7042 O 665.984 0.427435 1.9118 0
M  V30 7043 H 664.564 0.744376 0.0625526 0
M  V30 7044 H 667.226 1.86974 -0.550151 0
M  V30 7045 H 666.322 3.1008 0.354517 0
M  V30 7046 N 666.623 0.143563 1.56945 0
M  V30 7047 C 667.851 -0.515447 2.00377 0
M  V30 7048 C 668.266 -1.58643 1.02361 0
M  V30 7049 O 667.623 -1.82489 0.0201039 0
M  V30 7050 C 667.674 -1.11923 3.43737 0
M  V30 7051 O 667.395 -0.0910318 4.38005 0
M  V30 7052 C 668.896 -1.85918 4.02429 0
M  V30 7053 H 666.116 -0.134478 0.657386 0
M  V30 7054 H 668.66 0.237135 2.0312 0
M  V30 7055 H 666.815 -1.82245 3.41856 0
M  V30 7056 H 667.229 -0.532916 5.21786 0
M  V30 7057 H 668.703 -2.2346 5.04747 0
M  V30 7058 H 669.18 -2.7438 3.42947 0
M  V30 7059 H 669.786 -1.20303 4.07931 0
M  V30 7060 N 668.101 -1.57061 -0.130224 0
M  V30 7061 C 669.011 -2.02802 -1.17934 0
M  V30 7062 C 670.027 -0.946378 -1.46013 0
M  V30 7063 O 671.203 -1.25708 -1.57351 0
M  V30 7064 C 668.268 -2.41368 -2.48882 0
M  V30 7065 C 667.329 -3.63561 -2.28301 0
M  V30 7066 C 666.562 -4.00279 -3.53005 0
M  V30 7067 O 666.785 -3.37463 -4.59864 0
M  V30 7068 O 665.719 -4.93441 -3.44673 0
M  V30 7069 H 669.545 -2.92394 -0.820958 0
M  V30 7070 H 667.13 -1.45475 -0.340197 0
M  V30 7071 H 669.012 -2.66958 -3.26054 0
M  V30 7072 H 667.687 -1.54926 -2.84217 0
M  V30 7073 H 666.594 -3.43136 -1.49025 0
M  V30 7074 H 667.927 -4.50673 -1.97875 0
M  V30 7075 N 669.579 0.400081 -1.52437 0
M  V30 7076 C 670.828 1.14332 -1.66166 0
M  V30 7077 C 671.141 1.91419 -0.402253 0
M  V30 7078 O 672.347 2.6824 -0.419487 0
M  V30 7079 C 670.803 2.08137 -2.9361 0
M  V30 7080 C 670.411 1.36524 -4.26691 0
M  V30 7081 C 672.155 2.82664 -3.16703 0
M  V30 7082 C 670.062 2.29031 -5.45251 0
M  V30 7083 H 668.992 0.430499 -0.61902 0
M  V30 7084 H 671.643 0.407017 -1.78929 0
M  V30 7085 H 670.025 2.85358 -2.74567 0
M  V30 7086 H 671.199 0.646061 -4.56249 0
M  V30 7087 H 669.514 0.74002 -4.09771 0
M  V30 7088 H 672.111 3.52037 -4.0246 0
M  V30 7089 H 672.454 3.46122 -2.31312 0
M  V30 7090 H 672.987 2.12541 -3.36261 0
M  V30 7091 H 669.726 1.70206 -6.33017 0
M  V30 7092 H 669.246 2.98896 -5.2002 0
M  V30 7093 H 670.925 2.89359 -5.78689 0
M  V30 7094 N 671.057 1.43213 0.657864 0
M  V30 7095 C 672.304 1.44584 1.41781 0
M  V30 7096 C 672.632 0.0684208 1.9438 0
M  V30 7097 O 671.887 -0.925872 1.72413 0
M  V30 7098 C 672.186 2.43143 2.61947 0
M  V30 7099 C 671.852 3.89128 2.27794 0
M  V30 7100 C 670.514 4.28889 2.18191 0
M  V30 7101 C 672.866 4.81144 2.00375 0
M  V30 7102 C 670.194 5.58625 1.79319 0
M  V30 7103 C 672.546 6.11239 1.63003 0
M  V30 7104 C 671.21 6.49981 1.51922 0
M  V30 7105 H 670.48 0.529069 0.518813 0
M  V30 7106 H 673.127 1.76263 0.748577 0
M  V30 7107 H 671.432 2.04851 3.33981 0
M  V30 7108 H 673.129 2.4146 3.20153 0
M  V30 7109 H 669.719 3.57657 2.36176 0
M  V30 7110 H 673.903 4.512 2.06718 0
M  V30 7111 H 669.159 5.87486 1.69323 0
M  V30 7112 H 673.333 6.82014 1.40817 0
M  V30 7113 H 670.96 7.50416 1.21572 0
M  V30 7114 N 672.536 -0.895792 1.29666 0
M  V30 7115 C 673.952 -1.17726 1.07763 0
M  V30 7116 C 674.152 -2.00794 -0.168576 0
M  V30 7117 O 673.208 -2.37213 -0.865244 0
M  V30 7118 C 674.521 -1.89441 2.33522 0
M  V30 7119 C 676.069 -2.02251 2.3888 0
M  V30 7120 C 676.544 -2.77378 3.64452 0
M  V30 7121 N 678.035 -2.8493 3.65198 0
M  V30 7122 C 678.77 -3.43606 4.59045 0
M  V30 7123 N 678.266 -4.03417 5.63228 0
M  V30 7124 N 680.059 -3.41317 4.46608 0
M  V30 7125 H 672.21 -0.341652 2.09634 0
M  V30 7126 H 674.473 -0.213865 0.923561 0
M  V30 7127 H 674.179 -1.35842 3.24407 0
M  V30 7128 H 674.053 -2.89893 2.41334 0
M  V30 7129 H 676.44 -2.55025 1.4848 0
M  V30 7130 H 676.521 -1.0092 2.3505 0
M  V30 7131 H 676.165 -2.25279 4.55205 0
M  V30 7132 H 676.095 -3.79062 3.65541 0
M  V30 7133 H 678.586 -2.42453 2.89871 0
M  V30 7134 H 678.899 -4.46224 6.30955 0
M  V30 7135 H 677.244 -4.01868 5.67033 0
M  V30 7136 H 680.435 -2.93812 3.64407 0
M  V30 7137 H 680.608 -3.86751 5.1993 0
M  V30 7138 N 674.014 -1.12206 -1.10668 0
M  V30 7139 C 675.425 -0.890657 -1.64086 0
M  V30 7140 C 675.776 0.575502 -1.8757 0
M  V30 7141 O 674.901 1.4394 -1.61587 0
M  V30 7142 C 675.496 -1.61029 -2.98085 0
M  V30 7143 C 674.055 -1.4251 -3.48379 0
M  V30 7144 C 673.202 -1.64778 -2.23033 0
M  V30 7145 H 676.153 -1.27718 -0.94201 0
M  V30 7146 H 676.174 -1.05993 -3.65439 0
M  V30 7147 H 675.686 -2.67735 -2.80962 0
M  V30 7148 H 673.787 -0.380497 -3.70652 0
M  V30 7149 H 673.9 -2.17959 -4.26651 0
M  V30 7150 H 672.264 -1.07171 -2.31055 0
M  V30 7151 H 673.047 -2.72776 -2.08443 0
M  V30 7152 N 675.492 1.28418 -0.913599 0
M  V30 7153 C 676.74 1.94596 -0.545594 0
M  V30 7154 C 677.061 1.7227 0.913668 0
M  V30 7155 O 676.331 1.06233 1.64595 0
M  V30 7156 H 674.911 0.720065 -0.198783 0
M  V30 7157 H 677.573 1.56404 -1.16292 0
M  V30 7158 H 676.669 3.03202 -0.739911 0
M  V30 7159 N 676.97 0.677563 1.42291 0
M  V30 7160 C 678.218 0.200578 2.01102 0
M  V30 7161 C 678.539 -1.19803 1.53858 0
M  V30 7162 O 677.809 -1.80496 0.761439 0
M  V30 7163 H 676.389 0.0711634 0.743603 0
M  V30 7164 H 679.051 0.874691 1.7417 0
M  V30 7165 H 678.147 0.204 3.11433 0
M  V30 7166 N 678.448 -1.51871 0.421078 0
M  V30 7167 C 679.696 -2.01539 -0.150492 0
M  V30 7168 C 680.017 -1.30803 -1.44623 0
M  V30 7169 O 679.287 -0.437568 -1.90951 0
M  V30 7170 H 677.867 -0.744698 -0.0586041 0
M  V30 7171 H 680.529 -1.8668 0.560059 0
M  V30 7172 H 679.625 -3.10264 -0.338068 0
M  V30 7173 N 679.926 -0.151884 -1.56866 0
M  V30 7174 C 681.203 0.543328 -1.87902 0
M  V30 7175 C 681.583 1.82636 -1.05864 0
M  V30 7176 O 680.931 2.28028 -0.146868 0
M  V30 7177 C 681.141 0.804056 -3.39611 0
M  V30 7178 C 682.489 1.14267 -4.08935 0
M  V30 7179 O 683.513 0.893248 -3.44818 0
M  V30 7180 O 682.372 1.61229 -5.22176 0
M  V30 7181 H 679.466 0.277724 -0.778973 0
M  V30 7182 H 682.012 -0.188862 -1.68646 0
M  V30 7183 H 680.784 -0.103772 -3.91162 0
M  V30 7184 H 680.407 1.59025 -3.64413 0
M  V30 7185 N 681.404 1.57128 0.121893 0
M  V30 7186 C 682.337 1.95327 1.17995 0
M  V30 7187 C 683.315 0.822524 1.40262 0
M  V30 7188 O 684.499 1.08044 1.54463 0
M  V30 7189 C 681.626 2.24699 2.53432 0
M  V30 7190 C 680.672 3.47263 2.4761 0
M  V30 7191 S 681.505 4.99951 1.91857 0
M  V30 7192 C 682.661 5.32473 3.28973 0
M  V30 7193 H 682.894 2.84765 0.854182 0
M  V30 7194 H 680.427 1.50864 0.328534 0
M  V30 7195 H 682.385 2.423 3.31362 0
M  V30 7196 H 681.046 1.3588 2.83188 0
M  V30 7197 H 680.239 3.65171 3.4737 0
M  V30 7198 H 679.841 3.29034 1.778 0
M  V30 7199 H 682.133 5.27478 4.25175 0
M  V30 7200 H 683.076 6.33732 3.15895 0
M  V30 7201 H 683.484 4.59952 3.27268 0
M  V30 7202 N 682.882 -0.391992 1.52647 0
M  V30 7203 C 684.298 -0.731848 1.41831 0
M  V30 7204 C 684.498 -1.9423 0.536361 0
M  V30 7205 O 683.554 -2.52499 0.00866571 0
M  V30 7206 C 684.867 -0.969743 2.84634 0
M  V30 7207 C 686.415 -1.0714 2.94092 0
M  V30 7208 C 686.89 -1.34195 4.37899 0
M  V30 7209 N 688.381 -1.41023 4.41211 0
M  V30 7210 C 689.116 -1.63616 5.49561 0
M  V30 7211 N 688.612 -1.83699 6.68002 0
M  V30 7212 N 690.405 -1.65771 5.371 0
M  V30 7213 H 682.556 0.404547 2.08512 0
M  V30 7214 H 684.819 0.11879 0.940528 0
M  V30 7215 H 684.525 -0.152465 3.51369 0
M  V30 7216 H 684.399 -1.88523 3.26709 0
M  V30 7217 H 686.786 -1.87925 2.27526 0
M  V30 7218 H 686.867 -0.133887 2.55449 0
M  V30 7219 H 686.511 -0.539207 5.0503 0
M  V30 7220 H 686.441 -2.29226 4.74092 0
M  V30 7221 H 688.932 -1.27223 3.55841 0
M  V30 7222 H 689.245 -2.00437 7.46354 0
M  V30 7223 H 687.59 -1.8093 6.71036 0
M  V30 7224 H 690.781 -1.4963 4.43541 0
M  V30 7225 H 690.954 -1.83038 6.21612 0
M  V30 7226 N 684.36 -1.4356 -0.65026 0
M  V30 7227 C 685.637 -1.35811 -1.40765 0
M  V30 7228 C 686.017 -0.00736379 -2.11099 0
M  V30 7229 O 685.365 1.00932 -2.05 0
M  V30 7230 C 685.575 -2.54332 -2.3899 0
M  V30 7231 C 686.923 -2.97551 -3.02901 0
M  V30 7232 O 687.947 -2.544 -2.49317 0
M  V30 7233 O 686.806 -3.72311 -4.00059 0
M  V30 7234 H 683.9 -0.536861 -0.629054 0
M  V30 7235 H 686.446 -1.55615 -0.676919 0
M  V30 7236 H 685.218 -3.44274 -1.85986 0
M  V30 7237 H 684.841 -2.36643 -3.19509 0
M  V30 7238 N 685.838 0.888903 -1.30139 0
M  V30 7239 C 686.786 2.0156 -1.16088 0
M  V30 7240 C 687.78 1.69239 -0.0737413 0
M  V30 7241 O 688.986 1.78468 -0.234313 0
M  V30 7242 H 685.361 0.660825 -0.358907 0
M  V30 7243 H 687.332 2.10547 -2.11453 0
M  V30 7244 C 686.081 3.36758 -0.865426 0
M  V30 7245 H 685.404 3.62137 -1.69402 0
M  V30 7246 H 686.844 4.16246 -0.807192 0
M  V30 7247 C 685.303 3.34124 0.431577 0
M  V30 7248 O 685.833 3.7445 1.45431 0
M  V30 7249 N 684.039 2.87229 0.441321 0
M  V30 7250 H 683.586 2.54609 -0.391433 0
M  V30 7251 H 683.544 2.8585 1.30909 0
M  V30 7252 N 687.317 1.12792 1.10072 0
M  V30 7253 C 688.563 0.89679 1.82563 0
M  V30 7254 C 688.918 -0.571152 1.83727 0
M  V30 7255 O 688.211 -1.41697 1.28967 0
M  V30 7256 C 688.405 1.4102 3.28403 0
M  V30 7257 C 688.234 2.92652 3.41445 0
M  V30 7258 C 687.004 3.60928 3.53637 0
M  V30 7259 C 689.202 3.9063 3.34534 0
M  V30 7260 N 687.184 5.00638 3.55295 0
M  V30 7261 C 688.555 5.16492 3.42981 0
M  V30 7262 C 690.61 3.82989 3.18157 0
M  V30 7263 C 689.313 6.35609 3.3674 0
M  V30 7264 C 691.339 5.01633 3.13239 0
M  V30 7265 C 690.701 6.26355 3.22272 0
M  V30 7266 H 686.8 0.381482 0.682638 0
M  V30 7267 H 689.384 1.43491 1.31599 0
M  V30 7268 H 687.555 0.899077 3.77851 0
M  V30 7269 H 689.287 1.12075 3.88872 0
M  V30 7270 H 686.042 3.11429 3.56803 0
M  V30 7271 H 686.466 5.73521 3.59725 0
M  V30 7272 H 691.108 2.87454 3.10049 0
M  V30 7273 H 688.826 7.31407 3.43613 0
M  V30 7274 H 692.412 4.97454 3.01713 0
M  V30 7275 H 691.292 7.1662 3.18473 0
M  V30 7276 N 688.795 -1.27931 0.920396 0
M  V30 7277 C 690.211 -1.47085 0.619537 0
M  V30 7278 C 690.411 -1.83463 -0.833291 0
M  V30 7279 O 689.467 -1.94363 -1.61181 0
M  V30 7280 C 690.78 -2.56878 1.56314 0
M  V30 7281 C 692.328 -2.70743 1.57058 0
M  V30 7282 C 692.803 -3.83687 2.50097 0
M  V30 7283 N 694.294 -3.9105 2.48262 0
M  V30 7284 C 695.029 -4.77842 3.16945 0
M  V30 7285 N 694.525 -5.69176 3.94982 0
M  V30 7286 N 696.318 -4.71509 3.06 0
M  V30 7287 H 688.469 -1.02601 1.85975 0
M  V30 7288 H 690.732 -0.511682 0.798051 0
M  V30 7289 H 690.438 -2.36923 2.59923 0
M  V30 7290 H 690.312 -3.54117 1.29928 0
M  V30 7291 H 692.699 -2.90083 0.541832 0
M  V30 7292 H 692.78 -1.74015 1.8749 0
M  V30 7293 H 692.424 -3.65101 3.53077 0
M  V30 7294 H 692.354 -4.79827 2.16964 0
M  V30 7295 H 694.845 -3.25738 1.91581 0
M  V30 7296 H 695.158 -6.32245 4.44394 0
M  V30 7297 H 693.503 -5.68995 3.99086 0
M  V30 7298 H 696.694 -3.99151 2.44533 0
M  V30 7299 H 696.867 -5.38933 3.59799 0
M  V30 7300 N 690.273 -0.685099 -1.4193 0
M  V30 7301 C 691.498 -0.218842 -2.06242 0
M  V30 7302 C 691.923 1.11923 -1.51178 0
M  V30 7303 O 691.281 1.69837 -0.634446 0
M  V30 7304 C 691.329 -0.175592 -3.60172 0
M  V30 7305 O 690.433 0.852776 -4.03487 0
M  V30 7306 H 689.774 -0.109531 -0.654904 0
M  V30 7307 H 692.304 -0.937013 -1.81882 0
M  V30 7308 H 692.314 -0.00291151 -4.08 0
M  V30 7309 H 690.989 -1.15222 -3.99621 0
M  V30 7310 H 689.566 0.650301 -3.67186 0
M  V30 7311 N 691.751 1.51645 -0.429126 0
M  V30 7312 C 692.661 2.31288 0.392809 0
M  V30 7313 C 693.677 1.39852 1.03525 0
M  V30 7314 O 694.853 1.72926 1.03241 0
M  V30 7315 C 691.918 3.13347 1.48372 0
M  V30 7316 C 690.979 4.20551 0.862268 0
M  V30 7317 C 690.212 4.98688 1.9012 0
M  V30 7318 O 690.435 4.77359 3.12225 0
M  V30 7319 O 689.369 5.83005 1.4963 0
M  V30 7320 H 693.195 3.02609 -0.257138 0
M  V30 7321 H 690.78 1.48163 -0.191851 0
M  V30 7322 H 692.662 3.64387 2.1166 0
M  V30 7323 H 691.337 2.44799 2.1179 0
M  V30 7324 H 690.244 3.73609 0.191568 0
M  V30 7325 H 691.577 4.91449 0.271704 0
M  V30 7326 N 693.229 0.160201 1.56784 0
M  V30 7327 C 694.159 -0.770264 2.2043 0
M  V30 7328 C 695.14 -1.24736 1.15651 0
M  V30 7329 O 696.325 -1.30253 1.44041 0
M  V30 7330 C 693.455 -2.00427 2.83631 0
M  V30 7331 C 692.409 -1.66345 3.94352 0
M  V30 7332 C 691.735 -2.97119 4.4455 0
M  V30 7333 C 693.035 -0.899972 5.14488 0
M  V30 7334 H 694.729 -0.239783 2.98438 0
M  V30 7335 H 692.275 -0.113891 1.43549 0
M  V30 7336 H 694.228 -2.66012 3.26827 0
M  V30 7337 H 692.952 -2.5587 2.02973 0
M  V30 7338 H 691.611 -1.03133 3.51794 0
M  V30 7339 H 691.259 -3.5058 3.60698 0
M  V30 7340 H 690.959 -2.75073 5.19238 0
M  V30 7341 H 692.483 -3.63753 4.90425 0
M  V30 7342 H 693.897 -1.45818 5.54446 0
M  V30 7343 H 692.294 -0.778968 5.95023 0
M  V30 7344 H 693.364 0.105827 4.84785 0
M  V30 7345 N 694.707 -1.5719 -0.113559 0
M  V30 7346 C 695.937 -1.89053 -0.833212 0
M  V30 7347 C 696.345 -0.750139 -1.73694 0
M  V30 7348 O 695.688 0.287808 -1.81431 0
M  V30 7349 C 695.75 -3.15986 -1.71443 0
M  V30 7350 C 695.414 -4.46271 -0.984449 0
M  V30 7351 C 696.411 -5.18897 -0.322741 0
M  V30 7352 C 694.096 -4.92963 -0.964011 0
M  V30 7353 C 696.09 -6.3644 0.349646 0
M  V30 7354 C 693.777 -6.10422 -0.287828 0
M  V30 7355 C 694.775 -6.82009 0.36784 0
M  V30 7356 O 694.463 -7.97233 1.03322 0
M  V30 7357 H 694.195 -0.630225 -0.244526 0
M  V30 7358 H 696.749 -2.05152 -0.100847 0
M  V30 7359 H 694.979 -2.95984 -2.48858 0
M  V30 7360 H 696.668 -3.33826 -2.309 0
M  V30 7361 H 697.434 -4.83875 -0.330114 0
M  V30 7362 H 693.313 -4.37143 -1.46379 0
M  V30 7363 H 696.857 -6.92254 0.861996 0
M  V30 7364 H 692.754 -6.449 -0.278237 0
M  V30 7365 H 693.522 -8.13105 0.938247 0
M  V30 7366 N 696.185 0.383891 -1.52853 0
M  V30 7367 C 697.132 1.46924 -1.77995 0
M  V30 7368 C 698.102 1.53958 -0.623396 0
M  V30 7369 O 699.287 1.70134 -0.863657 0
M  V30 7370 C 696.427 2.84093 -1.95921 0
M  V30 7371 C 695.54 2.86171 -3.23621 0
M  V30 7372 C 694.675 4.14799 -3.31836 0
M  V30 7373 C 693.714 4.10948 -4.53639 0
M  V30 7374 N 692.851 5.31192 -4.59107 0
M  V30 7375 H 697.691 1.24786 -2.70615 0
M  V30 7376 H 695.228 0.605265 -1.34071 0
M  V30 7377 H 697.186 3.63755 -2.04299 0
M  V30 7378 H 695.816 3.04671 -1.06656 0
M  V30 7379 H 694.868 1.9885 -3.24288 0
M  V30 7380 H 696.18 2.79194 -4.13343 0
M  V30 7381 H 695.334 5.02867 -3.39425 0
M  V30 7382 H 694.073 4.24505 -2.40097 0
M  V30 7383 H 693.078 3.21268 -4.46169 0
M  V30 7384 H 694.303 4.0286 -5.467 0
M  V30 7385 H 692.249 5.41518 -3.70262 0
M  V30 7386 H 692.166 5.26311 -5.42708 0
M  V30 7387 H 693.434 6.21143 -4.70958 0
M  V30 7388 N 697.663 1.43903 0.642637 0
M  V30 7389 C 698.893 1.49323 1.4278 0
M  V30 7390 C 699.301 0.113058 1.88862 0
M  V30 7391 O 698.644 -0.889089 1.60751 0
M  V30 7392 C 698.706 2.3861 2.68897 0
M  V30 7393 C 698.37 3.85976 2.44687 0
M  V30 7394 C 699.367 4.7681 2.07239 0
M  V30 7395 C 697.052 4.30567 2.58683 0
M  V30 7396 C 699.046 6.10234 1.841 0
M  V30 7397 C 696.733 5.64042 2.35159 0
M  V30 7398 C 697.731 6.53693 1.97925 0
M  V30 7399 O 697.419 7.84698 1.74654 0
M  V30 7400 H 697.151 0.509109 0.444729 0
M  V30 7401 H 699.705 1.89425 0.794195 0
M  V30 7402 H 697.935 1.93415 3.34855 0
M  V30 7403 H 699.624 2.35112 3.30873 0
M  V30 7404 H 700.39 4.43635 1.95993 0
M  V30 7405 H 696.269 3.61054 2.86637 0
M  V30 7406 H 699.813 6.80171 1.54962 0
M  V30 7407 H 695.71 5.96782 2.46011 0
M  V30 7408 H 696.478 7.96382 1.88993 0
M  V30 7409 N 699.141 -0.881989 1.30609 0
M  V30 7410 C 700.088 -1.98803 1.17244 0
M  V30 7411 C 701.058 -1.65987 0.0611905 0
M  V30 7412 O 702.243 -1.89385 0.231911 0
M  V30 7413 C 699.383 -3.33867 0.87333 0
M  V30 7414 C 698.496 -3.79354 2.06675 0
M  V30 7415 C 697.631 -5.03078 1.70547 0
M  V30 7416 C 696.67 -5.40981 2.86366 0
M  V30 7417 N 695.807 -6.55886 2.50514 0
M  V30 7418 H 700.647 -2.09566 2.11863 0
M  V30 7419 H 698.184 -1.02607 1.05405 0
M  V30 7420 H 700.142 -4.11612 0.680519 0
M  V30 7421 H 698.772 -3.2278 -0.0359983 0
M  V30 7422 H 697.824 -2.97492 2.37071 0
M  V30 7423 H 699.136 -4.03382 2.93401 0
M  V30 7424 H 698.29 -5.88457 1.47658 0
M  V30 7425 H 697.029 -4.80927 0.809947 0
M  V30 7426 H 696.034 -4.54127 3.09917 0
M  V30 7427 H 697.259 -5.65104 3.76609 0
M  V30 7428 H 695.205 -6.35306 1.63471 0
M  V30 7429 H 695.122 -6.79799 3.30771 0
M  V30 7430 H 696.39 -7.44489 2.30989 0
M  V30 7431 N 700.619 -1.13374 -1.09472 0
M  V30 7432 C 701.865 -0.896516 -1.81908 0
M  V30 7433 C 702.198 0.575933 -1.85463 0
M  V30 7434 O 701.473 1.42618 -1.32251 0
M  V30 7435 C 701.756 -1.48445 -3.28079 0
M  V30 7436 C 701.609 -3.02598 -3.32798 0
M  V30 7437 C 702.928 -1.15226 -4.24748 0
M  V30 7438 H 700.047 -0.327127 -0.660422 0
M  V30 7439 H 702.689 -1.40195 -1.2824 0
M  V30 7440 H 700.839 -1.0546 -3.73912 0
M  V30 7441 H 702.511 -3.54335 -2.95372 0
M  V30 7442 H 700.754 -3.37613 -2.72397 0
M  V30 7443 H 701.425 -3.38835 -4.3577 0
M  V30 7444 H 703.901 -1.52369 -3.87199 0
M  V30 7445 H 702.777 -1.59012 -5.25363 0
M  V30 7446 H 703.038 -0.0658891 -4.42051 0
M  V30 7447 N 702.098 1.27442 -0.927168 0
M  V30 7448 C 703.344 1.94679 -0.568164 0
M  V30 7449 C 703.677 1.72697 0.888219 0
M  V30 7450 O 702.952 1.05573 1.63354 0
M  V30 7451 C 703.235 3.4882 -0.894253 0
M  V30 7452 C 703.088 3.80146 -2.40435 0
M  V30 7453 C 704.407 4.38281 -0.399766 0
M  V30 7454 H 701.526 0.707071 -0.207892 0
M  V30 7455 H 704.168 1.50568 -1.15885 0
M  V30 7456 H 702.318 3.86522 -0.391566 0
M  V30 7457 H 703.99 3.52238 -2.97869 0
M  V30 7458 H 702.233 3.26716 -2.85375 0
M  V30 7459 H 702.904 4.87835 -2.58304 0
M  V30 7460 H 705.38 4.07726 -0.83058 0
M  V30 7461 H 704.256 5.44955 -0.656885 0
M  V30 7462 H 704.517 4.36521 0.700153 0
M  V30 7463 N 703.576 0.692616 1.41565 0
M  V30 7464 C 704.523 0.0254264 2.30786 0
M  V30 7465 C 705.493 -0.774347 1.46946 0
M  V30 7466 O 706.678 -0.742981 1.7574 0
M  V30 7467 C 703.818 -0.907123 3.32964 0
M  V30 7468 C 702.931 -0.0992784 4.31886 0
M  V30 7469 C 702.066 -1.0292 5.21134 0
M  V30 7470 C 701.105 -0.214088 6.11725 0
M  V30 7471 N 700.242 -1.09766 6.93467 0
M  V30 7472 H 705.082 0.792036 2.87282 0
M  V30 7473 H 702.619 0.4023 1.41492 0
M  V30 7474 H 704.577 -1.46181 3.90752 0
M  V30 7475 H 703.207 -1.64016 2.78026 0
M  V30 7476 H 702.259 0.572287 3.76071 0
M  V30 7477 H 703.571 0.532782 4.95946 0
M  V30 7478 H 702.725 -1.65321 5.83741 0
M  V30 7479 H 701.464 -1.69512 4.57293 0
M  V30 7480 H 700.469 0.42302 5.4817 0
M  V30 7481 H 701.694 0.447995 6.77621 0
M  V30 7482 H 699.64 -1.74965 6.32237 0
M  V30 7483 H 699.557 -0.521099 7.54202 0
M  V30 7484 H 700.825 -1.70858 7.60544 0
M  V30 7485 N 705.054 -1.51416 0.437162 0
M  V30 7486 C 706.303 -2.01275 -0.130865 0
M  V30 7487 C 706.616 -1.32593 -1.438 0
M  V30 7488 O 707.822 -1.7342 -2.08897 0
M  V30 7489 C 706.278 -3.5878 -0.283763 0
M  V30 7490 C 705.886 -4.36399 1.01293 0
M  V30 7491 C 707.63 -4.16786 -0.805569 0
M  V30 7492 C 705.537 -5.85608 0.825687 0
M  V30 7493 H 704.467 -0.752157 -0.0526818 0
M  V30 7494 H 707.118 -1.74524 0.566896 0
M  V30 7495 H 705.5 -3.81976 -1.04452 0
M  V30 7496 H 706.674 -4.24948 1.78201 0
M  V30 7497 H 704.989 -3.89843 1.46326 0
M  V30 7498 H 707.586 -5.25972 -0.962146 0
M  V30 7499 H 707.929 -3.75949 -1.78796 0
M  V30 7500 H 708.462 -3.97666 -0.103125 0
M  V30 7501 H 705.201 -6.30857 1.78045 0
M  V30 7502 H 704.721 -5.99723 0.0964029 0
M  V30 7503 H 706.4 -6.45226 0.478815 0
M  V30 7504 N 706.532 -0.168513 -1.56696 0
M  V30 7505 C 707.442 0.775435 -2.21414 0
M  V30 7506 C 708.458 1.25529 -1.20492 0
M  V30 7507 O 709.634 1.30801 -1.53144 0
M  V30 7508 C 706.699 1.9886 -2.83999 0
M  V30 7509 C 705.76 1.5559 -4.00113 0
M  V30 7510 C 704.993 2.71124 -4.59704 0
M  V30 7511 O 705.216 3.87917 -4.18182 0
M  V30 7512 O 704.15 2.4536 -5.4962 0
M  V30 7513 H 707.976 0.254416 -3.02632 0
M  V30 7514 H 705.561 0.0595507 -1.49281 0
M  V30 7515 H 707.443 2.69816 -3.23693 0
M  V30 7516 H 706.118 2.49874 -2.05779 0
M  V30 7517 H 705.025 0.815924 -3.65094 0
M  V30 7518 H 706.358 1.09271 -4.79917 0
M  V30 7519 N 708.01 1.57248 0.105221 0
M  V30 7520 C 709.421 1.74612 0.660865 0
M  V30 7521 C 709.772 0.789231 1.79626 0
M  V30 7522 O 708.897 -0.0346611 2.16372 0
M  V30 7523 C 709.492 3.16624 1.20559 0
M  V30 7524 C 708.051 3.35447 1.7074 0
M  V30 7525 C 707.198 2.70445 0.612764 0
M  V30 7526 H 710.149 1.5824 -0.12079 0
M  V30 7527 H 710.17 3.18937 2.07508 0
M  V30 7528 H 709.682 3.86245 0.379012 0
M  V30 7529 H 707.783 2.7089 2.5583 0
M  V30 7530 H 707.896 4.43702 1.80736 0
M  V30 7531 H 706.26 2.32061 1.04975 0
M  V30 7532 H 707.043 3.42699 -0.203066 0
M  V30 7533 N 709.488 -0.375779 1.53054 0
M  V30 7534 C 710.418 -1.46598 1.81745 0
M  V30 7535 C 711.399 -1.56337 0.670286 0
M  V30 7536 O 712.584 -1.71071 0.919158 0
M  V30 7537 C 709.714 -2.84058 1.99821 0
M  V30 7538 C 708.668 -2.8915 3.15557 0
M  V30 7539 C 707.994 -4.29187 3.18908 0
M  V30 7540 C 709.294 -2.57595 4.54359 0
M  V30 7541 H 710.988 -1.22837 2.73041 0
M  V30 7542 H 708.534 -0.589485 1.31381 0
M  V30 7543 H 710.487 -3.60342 2.18475 0
M  V30 7544 H 709.211 -3.09184 1.05226 0
M  V30 7545 H 707.87 -2.15316 2.96706 0
M  V30 7546 H 707.518 -4.51374 2.2197 0
M  V30 7547 H 707.218 -4.33512 3.96662 0
M  V30 7548 H 708.742 -5.07359 3.39734 0
M  V30 7549 H 710.156 -3.23595 4.73243 0
M  V30 7550 H 708.553 -2.73252 5.34279 0
M  V30 7551 H 709.623 -1.52882 4.60169 0
M  V30 7552 N 710.966 -1.44241 -0.634997 0
M  V30 7553 C 712.214 -1.46531 -1.39187 0
M  V30 7554 C 712.535 -0.0976441 -1.94755 0
M  V30 7555 O 711.805 0.869528 -1.75545 0
M  V30 7556 H 710.385 -0.539544 -0.516625 0
M  V30 7557 H 713.047 -1.79989 -0.747655 0
M  V30 7558 H 712.143 -2.18848 -2.22513 0
M  V30 7559 N 712.444 0.87505 -1.31075 0
M  V30 7560 C 713.69 1.63009 -1.20647 0
M  V30 7561 C 714.023 1.9276 0.236045 0
M  V30 7562 O 713.298 1.55559 1.16754 0
M  V30 7563 C 713.581 2.96357 -2.0456 0
M  V30 7564 C 713.434 2.73516 -3.57084 0
M  V30 7565 C 714.753 3.974 -1.89107 0
M  V30 7566 H 711.872 0.591518 -0.439631 0
M  V30 7567 H 714.514 1.0119 -1.60812 0
M  V30 7568 H 712.664 3.49119 -1.70435 0
M  V30 7569 H 714.336 2.27465 -4.01319 0
M  V30 7570 H 712.579 2.0784 -3.80769 0
M  V30 7571 H 713.25 3.68377 -4.11099 0
M  V30 7572 H 715.726 3.5383 -2.18961 0
M  V30 7573 H 714.602 4.88596 -2.5013 0
M  V30 7574 H 714.863 4.33794 -0.85296 0
M  V30 7575 N 713.922 1.13953 1.08869 0
M  V30 7576 C 714.885 0.824991 2.13838 0
M  V30 7577 C 715.885 -0.168198 1.59918 0
M  V30 7578 O 717.075 0.0595778 1.74098 0
M  V30 7579 C 714.207 0.228938 3.4013 0
M  V30 7580 H 715.4 1.75521 2.43171 0
M  V30 7581 H 712.953 0.94492 1.24503 0
M  V30 7582 H 713.688 -0.710227 3.16427 0
M  V30 7583 H 713.473 0.944243 3.80561 0
M  V30 7584 H 714.963 0.0259223 4.17592 0
M  V30 7585 N 715.4 -1.26948 0.933913 0
M  V30 7586 C 716.811 -1.76058 0.621324 0
M  V30 7587 C 717.162 -1.76175 -0.863522 0
M  V30 7588 O 716.287 -1.36921 -1.67576 0
M  V30 7589 C 716.882 -3.19713 1.12111 0
M  V30 7590 C 715.441 -3.66465 0.859074 0
M  V30 7591 C 714.588 -2.46186 1.27624 0
M  V30 7592 H 717.539 -1.13127 1.11301 0
M  V30 7593 H 717.56 -3.77566 0.471608 0
M  V30 7594 H 717.072 -3.19596 2.20182 0
M  V30 7595 H 715.173 -3.72021 -0.207566 0
M  V30 7596 H 715.286 -4.55636 1.48098 0
M  V30 7597 H 713.65 -2.45042 0.694727 0
M  V30 7598 H 714.433 -2.48774 2.36572 0
M  V30 7599 N 716.879 -0.700114 -1.41195 0
M  V30 7600 C 718.107 -0.242179 -2.05478 0
M  V30 7601 C 718.522 1.11029 -1.52702 0
M  V30 7602 O 717.879 1.69473 -0.677127 0
M  V30 7603 C 717.93 -0.196271 -3.60967 0
M  V30 7604 O 717.651 -1.49532 -4.11791 0
M  V30 7605 C 719.152 0.282102 -4.42401 0
M  V30 7606 H 716.372 -0.111749 -0.661629 0
M  V30 7607 H 718.916 -0.953975 -1.80885 0
M  V30 7608 H 717.071 0.46638 -3.84582 0
M  V30 7609 H 717.485 -1.38545 -5.05871 0
M  V30 7610 H 718.959 0.263093 -5.51373 0
M  V30 7611 H 719.436 1.32174 -4.1884 0
M  V30 7612 H 720.042 -0.349712 -4.2386 0
M  V30 7613 N 718.357 1.51182 -0.445186 0
M  V30 7614 C 719.304 2.27939 0.362291 0
M  V30 7615 C 720.274 1.31864 1.01 0
M  V30 7616 O 721.459 1.60776 1.02741 0
M  V30 7617 C 718.599 3.13016 1.45311 0
M  V30 7618 C 717.712 4.24093 0.822757 0
M  V30 7619 C 716.847 4.96467 1.88928 0
M  V30 7620 C 715.886 5.99454 1.23778 0
M  V30 7621 N 715.023 6.65206 2.24602 0
M  V30 7622 H 719.863 2.965 -0.29862 0
M  V30 7623 H 717.4 1.46237 -0.15911 0
M  V30 7624 H 719.358 3.60673 2.09692 0
M  V30 7625 H 717.988 2.46553 2.08354 0
M  V30 7626 H 717.04 3.80341 0.0670364 0
M  V30 7627 H 718.352 4.97853 0.307184 0
M  V30 7628 H 717.506 5.47712 2.60953 0
M  V30 7629 H 716.245 4.22355 2.4386 0
M  V30 7630 H 715.25 5.47494 0.503042 0
M  V30 7631 H 716.475 6.75527 0.695694 0
M  V30 7632 H 714.421 5.93901 2.78599 0
M  V30 7633 H 714.338 7.34756 1.77958 0
M  V30 7634 H 715.606 7.21078 2.96085 0
M  V30 7635 N 719.835 0.176821 1.56605 0
M  V30 7636 C 720.798 -0.737429 2.17013 0
M  V30 7637 C 721.798 -1.15414 1.11965 0
M  V30 7638 O 722.988 -1.0702 1.37449 0
M  V30 7639 C 720.12 -2.00445 2.75744 0
M  V30 7640 H 721.313 -0.211455 2.99154 0
M  V30 7641 H 718.866 -0.0727582 1.56131 0
M  V30 7642 H 719.601 -2.57338 1.97352 0
M  V30 7643 H 719.386 -1.71456 3.52626 0
M  V30 7644 H 720.876 -2.65679 3.22187 0
M  V30 7645 N 721.313 -1.57302 -0.09688 0
M  V30 7646 C 722.26 -2.01933 -1.11766 0
M  V30 7647 C 723.23 -0.895329 -1.39904 0
M  V30 7648 O 724.415 -1.16119 -1.51397 0
M  V30 7649 C 721.555 -2.44726 -2.43317 0
M  V30 7650 C 720.668 -3.70639 -2.21925 0
M  V30 7651 C 719.803 -4.02318 -3.46862 0
M  V30 7652 C 718.842 -5.21346 -3.20725 0
M  V30 7653 N 717.979 -5.48787 -4.37924 0
M  V30 7654 H 722.819 -2.88919 -0.730075 0
M  V30 7655 H 720.356 -1.42901 -0.348962 0
M  V30 7656 H 722.314 -2.6758 -3.20088 0
M  V30 7657 H 720.944 -1.60753 -2.79926 0
M  V30 7658 H 719.996 -3.55271 -1.35965 0
M  V30 7659 H 721.308 -4.57557 -1.98603 0
M  V30 7660 H 720.462 -4.25939 -4.32042 0
M  V30 7661 H 719.201 -3.13918 -3.73238 0
M  V30 7662 H 718.206 -4.97547 -2.33938 0
M  V30 7663 H 719.431 -6.11343 -2.95697 0
M  V30 7664 H 717.377 -4.63346 -4.64378 0
M  V30 7665 H 717.294 -6.30073 -4.17785 0
M  V30 7666 H 718.562 -5.76943 -5.24173 0
M  V30 7667 N 722.791 0.367657 -1.53252 0
M  V30 7668 C 724.207 0.709191 -1.42978 0
M  V30 7669 C 724.407 1.93352 -0.567193 0
M  V30 7670 O 723.463 2.52453 -0.0488349 0
M  V30 7671 C 724.776 0.924338 -2.86141 0
M  V30 7672 C 726.324 1.02448 -2.95759 0
M  V30 7673 C 726.799 1.27211 -4.39979 0
M  V30 7674 N 728.29 1.33986 -4.43398 0
M  V30 7675 C 729.025 1.54852 -5.52095 0
M  V30 7676 N 728.521 1.73049 -6.7084 0
M  V30 7677 N 730.314 1.57205 -5.39669 0
M  V30 7678 H 722.465 -0.437669 -2.07842 0
M  V30 7679 H 724.728 -0.133737 -0.938519 0
M  V30 7680 H 724.434 0.0965455 -3.51567 0
M  V30 7681 H 724.308 1.83302 -3.29667 0
M  V30 7682 H 726.695 1.84282 -2.30487 0
M  V30 7683 H 726.776 0.0932301 -2.5563 0
M  V30 7684 H 726.42 0.458792 -5.05824 0
M  V30 7685 H 726.35 2.21654 -4.77679 0
M  V30 7686 H 728.841 1.21545 -3.5782 0
M  V30 7687 H 729.154 1.88538 -7.49449 0
M  V30 7688 H 727.499 1.70231 -6.7383 0
M  V30 7689 H 730.69 1.42555 -4.45865 0
M  V30 7690 H 730.863 1.73126 -6.24445 0
M  V30 7691 N 724.269 1.44576 0.627338 0
M  V30 7692 C 725.685 1.28546 0.945938 0
M  V30 7693 C 725.885 0.224003 2.00251 0
M  V30 7694 O 724.941 -0.388817 2.49488 0
M  V30 7695 C 726.254 2.65825 1.40561 0
M  V30 7696 C 727.802 2.73566 1.52088 0
M  V30 7697 C 728.277 4.11323 2.01438 0
M  V30 7698 N 729.768 4.13519 2.08702 0
M  V30 7699 C 730.503 5.16964 2.48065 0
M  V30 7700 N 729.999 6.30768 2.86538 0
M  V30 7701 N 731.792 5.04319 2.48232 0
M  V30 7702 H 723.943 2.1228 -0.0713567 0
M  V30 7703 H 726.206 0.947503 0.0307081 0
M  V30 7704 H 725.912 3.44591 0.703539 0
M  V30 7705 H 725.786 2.92969 2.37591 0
M  V30 7706 H 728.173 1.95116 2.21391 0
M  V30 7707 H 728.254 2.50159 0.534237 0
M  V30 7708 H 727.898 4.9025 1.32729 0
M  V30 7709 H 727.828 4.32109 3.0098 0
M  V30 7710 H 730.319 3.31385 1.81638 0
M  V30 7711 H 730.632 7.0551 3.15398 0
M  V30 7712 H 728.977 6.342 2.84281 0
M  V30 7713 H 732.168 4.14465 2.17569 0
M  V30 7714 H 732.341 5.85059 2.78585 0
M  V30 7715 N 725.747 -0.868086 1.31537 0
M  V30 7716 C 726.993 -1.62367 1.2151 0
M  V30 7717 C 727.326 -1.92883 -0.225819 0
M  V30 7718 O 726.601 -1.56176 -1.15927 0
M  V30 7719 C 726.884 -2.95268 2.06129 0
M  V30 7720 C 726.737 -2.71619 3.58529 0
M  V30 7721 C 728.056 -3.96391 1.91212 0
M  V30 7722 H 725.175 -0.589178 0.442762 0
M  V30 7723 H 727.817 -1.00336 1.61347 0
M  V30 7724 H 725.967 -3.4821 1.72284 0
M  V30 7725 H 727.639 -2.25334 4.0252 0
M  V30 7726 H 725.882 -2.05817 3.81866 0
M  V30 7727 H 726.553 -3.66192 4.13047 0
M  V30 7728 H 729.029 -3.52663 2.20834 0
M  V30 7729 H 727.905 -4.87263 2.52718 0
M  V30 7730 H 728.166 -4.33335 0.875953 0
M  V30 7731 N 727.225 -1.14528 -1.08264 0
M  V30 7732 C 728.471 -0.91576 -1.80947 0
M  V30 7733 C 728.804 0.55623 -1.86064 0
M  V30 7734 O 728.079 1.41207 -1.33756 0
M  V30 7735 C 728.362 -1.51917 -3.26486 0
M  V30 7736 C 728.215 -3.06111 -3.2957 0
M  V30 7737 C 729.534 -1.19724 -4.23502 0
M  V30 7738 H 726.653 -0.334113 -0.656915 0
M  V30 7739 H 729.295 -1.41547 -1.26746 0
M  V30 7740 H 727.445 -1.0942 -3.72773 0
M  V30 7741 H 729.117 -3.57448 -2.91597 0
M  V30 7742 H 727.36 -3.40483 -2.688 0
M  V30 7743 H 728.031 -3.43438 -4.32151 0
M  V30 7744 H 730.507 -1.56467 -3.85561 0
M  V30 7745 H 729.383 -1.64575 -5.23647 0
M  V30 7746 H 729.644 -0.112771 -4.41956 0
M  V30 7747 N 728.703 1.26451 -0.940633 0
M  V30 7748 C 729.635 2.25556 -0.407104 0
M  V30 7749 C 730.648 1.55888 0.469324 0
M  V30 7750 O 731.837 1.76292 0.279858 0
M  V30 7751 C 728.937 3.36109 0.434064 0
M  V30 7752 C 728.11 4.3532 -0.426082 0
M  V30 7753 C 727.169 5.25004 0.354563 0
M  V30 7754 O 726.195 5.68684 -0.242219 0
M  V30 7755 N 727.397 5.5652 1.65123 0
M  V30 7756 H 730.162 2.7197 -1.25907 0
M  V30 7757 H 727.723 1.40212 -0.809456 0
M  V30 7758 H 729.715 3.93059 0.963684 0
M  V30 7759 H 728.285 2.89194 1.18683 0
M  V30 7760 H 727.505 3.77449 -1.13692 0
M  V30 7761 H 728.793 4.986 -1.01366 0
M  V30 7762 H 728.191 5.22912 2.15822 0
M  V30 7763 H 726.748 6.16115 2.12711 0
M  V30 7764 N 730.181 0.707592 1.40822 0
M  V30 7765 C 731.597 0.38034 1.55002 0
M  V30 7766 C 731.797 -1.11163 1.68062 0
M  V30 7767 O 730.853 -1.89761 1.66574 0
M  V30 7768 C 732.166 1.1394 2.78277 0
M  V30 7769 C 733.714 1.12492 2.92087 0
M  V30 7770 C 734.189 1.86597 4.18265 0
M  V30 7771 N 735.68 1.83626 4.25248 0
M  V30 7772 C 736.415 2.37794 5.21768 0
M  V30 7773 N 735.911 3.00485 6.24244 0
M  V30 7774 N 737.704 2.27982 5.13791 0
M  V30 7775 H 729.855 1.67511 1.3059 0
M  V30 7776 H 732.118 0.707579 0.630901 0
M  V30 7777 H 731.824 2.19398 2.74877 0
M  V30 7778 H 731.698 0.725793 3.70151 0
M  V30 7779 H 734.085 0.0785564 2.94995 0
M  V30 7780 H 734.166 1.57768 2.01353 0
M  V30 7781 H 733.81 2.91219 4.16118 0
M  V30 7782 H 733.74 1.38746 5.07993 0
M  V30 7783 H 736.231 1.3793 3.51829 0
M  V30 7784 H 736.544 3.39355 6.94304 0
M  V30 7785 H 734.889 3.04567 6.24711 0
M  V30 7786 H 738.08 1.78669 4.3266 0
M  V30 7787 H 738.253 2.70499 5.88841 0
M  V30 7788 N 731.66 -1.50943 0.453197 0
M  V30 7789 C 732.57 -2.31884 -0.355963 0
M  V30 7790 C 733.586 -1.41481 -1.01287 0
M  V30 7791 O 734.762 -1.74546 -1.00477 0
M  V30 7792 C 731.827 -3.15668 -1.43369 0
M  V30 7793 C 730.888 -4.2187 -0.795253 0
M  V30 7794 C 730.121 -5.0165 -1.82162 0
M  V30 7795 O 730.344 -4.82266 -3.04592 0
M  V30 7796 O 729.278 -5.85311 -1.40336 0
M  V30 7797 H 733.104 -3.02162 0.305248 0
M  V30 7798 H 730.689 -1.47839 0.215398 0
M  V30 7799 H 732.571 -3.67709 -2.05836 0
M  V30 7800 H 731.246 -2.48137 -2.07869 0
M  V30 7801 H 730.153 -3.73867 -0.132106 0
M  V30 7802 H 731.486 -4.9182 -0.193484 0
M  V30 7803 N 733.138 -0.185124 -1.56509 0
M  V30 7804 C 734.085 0.739729 -2.18624 0
M  V30 7805 C 735.055 1.217 -1.13042 0
M  V30 7806 O 736.24 1.28268 -1.41251 0
M  V30 7807 C 733.38 1.95787 -2.84186 0
M  V30 7808 C 732.493 1.52289 -4.04267 0
M  V30 7809 C 731.628 2.69576 -4.57714 0
M  V30 7810 C 730.667 2.22636 -5.70175 0
M  V30 7811 N 729.804 3.33065 -6.18071 0
M  V30 7812 H 734.644 0.203269 -2.97306 0
M  V30 7813 H 732.181 0.0885946 -1.46833 0
M  V30 7814 H 734.139 2.67253 -3.20361 0
M  V30 7815 H 732.769 2.4678 -2.08085 0
M  V30 7816 H 731.821 0.704458 -3.7382 0
M  V30 7817 H 733.133 1.13843 -4.85635 0
M  V30 7818 H 732.287 3.4918 -4.96143 0
M  V30 7819 H 731.026 3.1129 -3.75433 0
M  V30 7820 H 730.031 1.41483 -5.31284 0
M  V30 7821 H 731.256 1.81964 -6.54267 0
M  V30 7822 H 729.202 3.74328 -5.38715 0
M  V30 7823 H 729.119 2.98756 -6.94464 0
M  V30 7824 H 730.387 4.12912 -6.61153 0
M  V30 7825 N 734.616 1.57351 0.0885366 0
M  V30 7826 C 736.032 1.53331 0.442916 0
M  V30 7827 C 736.232 0.902831 1.80142 0
M  V30 7828 O 735.288 0.498147 2.47537 0
M  V30 7829 C 736.601 2.98036 0.399372 0
M  V30 7830 C 738.149 3.09286 0.480759 0
M  V30 7831 C 738.624 4.5561 0.467296 0
M  V30 7832 N 740.115 4.60182 0.52786 0
M  V30 7833 C 740.85 5.70857 0.539388 0
M  V30 7834 N 740.346 6.90944 0.506729 0
M  V30 7835 N 742.139 5.59051 0.584691 0
M  V30 7836 H 734.29 1.96709 -0.801215 0
M  V30 7837 H 736.553 0.899639 -0.298922 0
M  V30 7838 H 736.259 3.47656 -0.531806 0
M  V30 7839 H 736.133 3.57066 1.21589 0
M  V30 7840 H 738.52 2.5965 1.40236 0
M  V30 7841 H 738.601 2.53197 -0.364023 0
M  V30 7842 H 738.245 5.05899 -0.450384 0
M  V30 7843 H 738.175 5.09544 1.32938 0
M  V30 7844 H 740.666 3.73757 0.558028 0
M  V30 7845 H 740.979 7.71055 0.518989 0
M  V30 7846 H 739.324 6.93384 0.473675 0
M  V30 7847 H 742.515 4.64138 0.607781 0
M  V30 7848 H 742.688 6.45307 0.590206 0
M  V30 7849 N 736.094 -0.359525 1.53444 0
M  V30 7850 C 737.057 -1.42357 1.7963 0
M  V30 7851 C 738.057 -1.46319 0.666884 0
M  V30 7852 O 739.247 -1.46974 0.935113 0
M  V30 7853 C 736.379 -2.81425 1.92387 0
M  V30 7854 H 737.572 -1.20409 2.74666 0
M  V30 7855 H 735.125 -0.593007 1.44614 0
M  V30 7856 H 735.86 -3.08679 0.994384 0
M  V30 7857 H 735.645 -2.79947 2.74539 0
M  V30 7858 H 737.135 -3.5847 2.14218 0
M  V30 7859 N 737.572 -1.44907 -0.619662 0
M  V30 7860 C 738.818 -1.48512 -1.38102 0
M  V30 7861 C 739.151 -0.121686 -1.93818 0
M  V30 7862 O 738.426 0.862256 -1.74343 0
M  V30 7863 C 738.709 -2.55469 -2.53787 0
M  V30 7864 C 738.562 -4.01212 -2.03345 0
M  V30 7865 C 739.881 -2.58821 -3.55949 0
M  V30 7866 H 737 -0.540712 -0.500799 0
M  V30 7867 H 739.642 -1.7665 -0.69962 0
M  V30 7868 H 737.792 -2.31606 -3.11915 0
M  V30 7869 H 739.464 -4.36245 -1.49959 0
M  V30 7870 H 737.707 -4.12443 -1.34438 0
M  V30 7871 H 738.378 -4.71717 -2.86683 0
M  V30 7872 H 740.854 -2.80172 -3.07641 0
M  V30 7873 H 739.73 -3.35542 -4.34399 0
M  V30 7874 H 739.991 -1.63451 -4.10775 0
M  V30 7875 N 739.05 0.861098 -1.31996 0
M  V30 7876 C 740.298 1.61162 -1.21947 0
M  V30 7877 C 740.619 1.93751 0.220351 0
M  V30 7878 O 739.889 1.59069 1.14341 0
M  V30 7879 H 738.469 0.597485 -0.448353 0
M  V30 7880 H 741.131 1.03039 -1.65436 0
M  V30 7881 H 740.227 2.55138 -1.79752 0
M  V30 7882 N 740.528 1.15101 1.07655 0
M  V30 7883 C 741.458 0.867864 2.16773 0
M  V30 7884 C 742.439 -0.180283 1.69142 0
M  V30 7885 O 743.624 -0.0353152 1.94168 0
M  V30 7886 C 740.754 0.35299 3.45501 0
M  V30 7887 C 739.708 1.33746 4.06566 0
M  V30 7888 C 739.034 0.681562 5.30338 0
M  V30 7889 C 740.334 2.7024 4.46954 0
M  V30 7890 H 742.028 1.78034 2.40716 0
M  V30 7891 H 739.574 0.857435 1.15689 0
M  V30 7892 H 741.527 0.142465 4.21159 0
M  V30 7893 H 740.251 -0.594945 3.21135 0
M  V30 7894 H 738.91 1.53429 3.32949 0
M  V30 7895 H 738.558 -0.272422 5.02262 0
M  V30 7896 H 738.258 1.33853 5.72151 0
M  V30 7897 H 739.782 0.48074 6.08705 0
M  V30 7898 H 741.196 2.5442 5.13754 0
M  V30 7899 H 739.593 3.32282 4.99709 0
M  V30 7900 H 740.663 3.26537 3.58471 0
M  V30 7901 N 742.006 -1.2595 0.947325 0
M  V30 7902 C 743.254 -1.93081 0.596996 0
M  V30 7903 C 743.575 -1.74632 -0.867672 0
M  V30 7904 O 742.845 -1.1056 -1.6172 0
M  V30 7905 H 741.425 -0.714542 0.217805 0
M  V30 7906 H 744.087 -1.53265 1.20398 0
M  V30 7907 H 743.183 -3.01134 0.82004 0
M  V30 7908 N 743.484 -0.715051 -1.40445 0
M  V30 7909 C 744.447 -0.0708726 -2.2909 0
M  V30 7910 C 745.447 0.687926 -1.45342 0
M  V30 7911 O 746.637 0.519908 -1.66261 0
M  V30 7912 C 743.769 0.909528 -3.28543 0
M  V30 7913 H 744.962 -0.851611 -2.87555 0
M  V30 7914 H 742.515 -0.479674 -1.48758 0
M  V30 7915 H 743.25 1.71734 -2.75096 0
M  V30 7916 H 743.035 0.368318 -3.90366 0
M  V30 7917 H 744.525 1.35744 -3.94922 0
M  V30 7918 N 744.962 1.50701 -0.461195 0
M  V30 7919 C 745.892 2.31182 0.328184 0
M  V30 7920 C 746.873 1.37644 0.999408 0
M  V30 7921 O 748.058 1.66565 0.99848 0
M  V30 7922 C 745.188 3.17113 1.41621 0
M  V30 7923 C 744.142 4.19124 0.867148 0
M  V30 7924 C 743.468 4.93728 2.05272 0
M  V30 7925 C 744.768 5.22174 -0.114808 0
M  V30 7926 H 746.462 2.97423 -0.343501 0
M  V30 7927 H 744.008 1.43033 -0.166641 0
M  V30 7928 H 745.961 3.72208 1.97584 0
M  V30 7929 H 744.685 2.48739 2.11652 0
M  V30 7930 H 743.344 3.65116 0.329557 0
M  V30 7931 H 742.992 4.21835 2.73978 0
M  V30 7932 H 742.692 5.62724 1.69161 0
M  V30 7933 H 744.216 5.51654 2.61744 0
M  V30 7934 H 745.63 5.72198 0.355316 0
M  V30 7935 H 744.027 5.98833 -0.389689 0
M  V30 7936 H 745.097 4.7353 -1.04391 0
M  V30 7937 N 746.441 0.193421 1.56409 0
M  V30 7938 C 747.688 -0.445789 1.97532 0
M  V30 7939 C 748.016 -1.61744 1.08024 0
M  V30 7940 O 747.271 -1.95338 0.118982 0
M  V30 7941 C 747.57 -0.949718 3.44551 0
M  V30 7942 C 747.236 0.108383 4.5077 0
M  V30 7943 C 745.898 0.399126 4.79542 0
M  V30 7944 C 748.25 0.825423 5.14622 0
M  V30 7945 C 745.578 1.41192 5.69457 0
M  V30 7946 C 747.93 1.82735 6.05632 0
M  V30 7947 C 746.594 2.12531 6.32761 0
M  V30 7948 H 745.864 -0.163126 0.722822 0
M  V30 7949 H 748.511 0.290035 1.89291 0
M  V30 7950 H 746.816 -1.76378 3.49854 0
M  V30 7951 H 748.513 -1.45367 3.73724 0
M  V30 7952 H 745.103 -0.128392 4.28408 0
M  V30 7953 H 749.287 0.61403 4.92487 0
M  V30 7954 H 744.543 1.6487 5.88751 0
M  V30 7955 H 748.717 2.3882 6.5417 0
M  V30 7956 H 746.344 2.91155 7.02234 0
M  V30 7957 N 747.919 -1.57396 -0.0801906 0
M  V30 7958 C 748.849 -2.06145 -1.09665 0
M  V30 7959 C 749.83 -0.953273 -1.40878 0
M  V30 7960 O 751.015 -1.22548 -1.50651 0
M  V30 7961 C 748.145 -2.49836 -2.41245 0
M  V30 7962 C 747.099 -3.64454 -2.24405 0
M  V30 7963 C 746.425 -3.94172 -3.61293 0
M  V30 7964 C 747.725 -4.94807 -1.67223 0
M  V30 7965 H 749.419 -2.91316 -0.691028 0
M  V30 7966 H 746.965 -1.40145 -0.330957 0
M  V30 7967 H 748.918 -2.82552 -3.12638 0
M  V30 7968 H 747.642 -1.61683 -2.83771 0
M  V30 7969 H 746.301 -3.32008 -1.55454 0
M  V30 7970 H 745.949 -3.03163 -4.01374 0
M  V30 7971 H 745.649 -4.71345 -3.50867 0
M  V30 7972 H 747.173 -4.29376 -4.3413 0
M  V30 7973 H 748.587 -5.25807 -2.28472 0
M  V30 7974 H 746.984 -5.76245 -1.67515 0
M  V30 7975 H 748.054 -4.80751 -0.632944 0
M  V30 7976 N 749.397 0.351382 -1.53633 0
M  V30 7977 C 750.645 1.09034 -1.70165 0
M  V30 7978 C 750.966 1.89413 -0.463422 0
M  V30 7979 O 750.236 1.888 0.522624 0
M  V30 7980 H 748.816 0.405522 -0.627344 0
M  V30 7981 H 751.478 0.394554 -1.90865 0
M  V30 7982 H 750.574 1.77215 -2.56907 0
M  V30 7983 N 750.875 1.45233 0.611969 0
M  V30 7984 C 752.122 1.49021 1.37109 0
M  V30 7985 C 752.45 0.130227 1.94064 0
M  V30 7986 O 751.705 -0.870551 1.75271 0
M  V30 7987 C 752.004 2.51353 2.54079 0
M  V30 7988 C 751.67 3.96178 2.15299 0
M  V30 7989 C 750.332 4.35614 2.04436 0
M  V30 7990 C 752.684 4.87275 1.84966 0
M  V30 7991 C 750.012 5.64047 1.61456 0
M  V30 7992 C 752.364 6.16115 1.43474 0
M  V30 7993 C 751.028 6.54486 1.31167 0
M  V30 7994 H 750.298 0.545307 0.501719 0
M  V30 7995 H 752.945 1.78555 0.692122 0
M  V30 7996 H 751.25 2.15372 3.27295 0
M  V30 7997 H 752.947 2.51523 3.12309 0
M  V30 7998 H 749.537 3.6499 2.24678 0
M  V30 7999 H 753.721 4.57548 1.92258 0
M  V30 8000 H 748.977 5.92575 1.50547 0
M  V30 8001 H 753.151 6.86149 1.19048 0
M  V30 8002 H 750.778 7.53904 0.97637 0
M  V30 8003 N 752.353 -0.854086 1.3245 0
M  V30 8004 C 753.283 -1.97827 1.24044 0
M  V30 8005 C 754.264 -1.69646 0.124166 0
M  V30 8006 O 755.449 -1.91687 0.31143 0
M  V30 8007 C 752.579 -3.33673 0.963324 0
M  V30 8008 C 751.533 -3.76207 2.04089 0
M  V30 8009 C 750.859 -5.0969 1.61618 0
M  V30 8010 C 752.159 -3.91612 3.45597 0
M  V30 8011 H 753.853 -2.05118 2.18099 0
M  V30 8012 H 751.399 -0.985489 1.04996 0
M  V30 8013 H 753.352 -4.11871 0.891061 0
M  V30 8014 H 752.076 -3.26597 -0.0128649 0
M  V30 8015 H 750.735 -3.0026 2.10332 0
M  V30 8016 H 750.383 -4.99072 0.627418 0
M  V30 8017 H 750.083 -5.3912 2.33717 0
M  V30 8018 H 751.607 -5.90381 1.55829 0
M  V30 8019 H 753.021 -4.60163 3.4194 0
M  V30 8020 H 751.418 -4.3246 4.16051 0
M  V30 8021 H 752.488 -2.9451 3.85217 0
M  V30 8022 N 753.831 -1.1567 -1.07043 0
M  V30 8023 C 755.079 -0.931673 -1.79344 0
M  V30 8024 C 755.4 0.542421 -1.87304 0
M  V30 8025 O 754.67 1.39418 -1.37621 0
M  V30 8026 H 753.25 -0.34171 -0.664262 0
M  V30 8027 H 755.912 -1.45795 -1.29344 0
M  V30 8028 H 755.008 -1.34379 -2.81689 0
M  V30 8029 N 755.309 1.25446 -0.953992 0
M  V30 8030 C 756.272 2.24156 -0.478179 0
M  V30 8031 C 757.272 1.55278 0.417776 0
M  V30 8032 O 758.462 1.72866 0.215155 0
M  V30 8033 C 755.594 3.39495 0.309202 0
M  V30 8034 H 756.787 2.67764 -1.35064 0
M  V30 8035 H 754.34 1.37822 -0.737206 0
M  V30 8036 H 755.075 3.01307 1.19936 0
M  V30 8037 H 754.86 3.90679 -0.333562 0
M  V30 8038 H 756.35 4.12796 0.631594 0
M  V30 8039 N 756.787 0.722489 1.40064 0
M  V30 8040 C 757.75 0.0830209 2.2905 0
M  V30 8041 C 758.75 -0.680208 1.45705 0
M  V30 8042 O 759.94 -0.511084 1.66534 0
M  V30 8043 C 757.072 -0.892092 3.29021 0
M  V30 8044 H 758.265 0.866848 2.87099 0
M  V30 8045 H 755.818 0.487556 1.48501 0
M  V30 8046 H 756.553 -1.70273 2.76003 0
M  V30 8047 H 756.338 -0.34761 3.90556 0
M  V30 8048 H 757.828 -1.33648 3.95636 0
M  V30 8049 N 758.265 -1.50454 0.469181 0
M  V30 8050 C 759.513 -2.01916 -0.0862982 0
M  V30 8051 C 759.834 -1.35337 -1.40388 0
M  V30 8052 O 759.104 -0.498096 -1.89462 0
M  V30 8053 H 757.684 -0.746185 -0.0348825 0
M  V30 8054 H 760.346 -1.84804 0.619167 0
M  V30 8055 H 759.442 -3.11182 -0.239189 0
M  V30 8056 N 759.743 -0.201713 -1.56304 0
M  V30 8057 C 760.968 0.443815 -2.02596 0
M  V30 8058 C 761.393 1.53945 -1.08086 0
M  V30 8059 O 760.751 1.81182 -0.0655056 0
M  V30 8060 C 760.799 0.971066 -3.47279 0
M  V30 8061 O 759.903 2.0836 -3.55893 0
M  V30 8062 H 759.244 0.10294 -0.655972 0
M  V30 8063 H 761.774 -0.314533 -2.02168 0
M  V30 8064 H 761.784 1.28598 -3.87204 0
M  V30 8065 H 760.459 0.169048 -4.15556 0
M  V30 8066 H 759.036 1.77683 -3.27846 0
M  V30 8067 N 761.222 1.57436 0.0718424 0
M  V30 8068 C 762.45 1.91474 0.783932 0
M  V30 8069 C 762.865 0.797669 1.71122 0
M  V30 8070 O 762.222 -0.228989 1.81058 0
M  V30 8071 C 762.273 3.25259 1.57761 0
M  V30 8072 O 761.994 4.3267 0.687596 0
M  V30 8073 C 763.495 3.7331 2.3907 0
M  V30 8074 H 760.715 0.632901 0.222885 0
M  V30 8075 H 763.259 2.04457 0.0421262 0
M  V30 8076 H 761.414 3.13804 2.27169 0
M  V30 8077 H 761.828 5.09641 1.23962 0
M  V30 8078 H 763.302 4.69551 2.90216 0
M  V30 8079 H 763.779 3.02318 3.18591 0
M  V30 8080 H 764.385 3.8771 1.74818 0
M  V30 8081 N 762.7 -0.34323 1.53817 0
M  V30 8082 C 763.633 -1.44472 1.76644 0
M  V30 8083 C 764.611 -1.50498 0.615556 0
M  V30 8084 O 765.795 -1.6821 0.850751 0
M  V30 8085 C 762.922 -2.82705 1.86536 0
M  V30 8086 C 761.968 -2.94302 3.08688 0
M  V30 8087 S 762.801 -2.60739 4.67735 0
M  V30 8088 C 763.957 -4.01079 4.80506 0
M  V30 8089 H 764.19 -1.24893 2.69794 0
M  V30 8090 H 761.723 -0.538915 1.4469 0
M  V30 8091 H 763.681 -3.62342 1.92921 0
M  V30 8092 H 762.342 -2.9958 0.943975 0
M  V30 8093 H 761.535 -3.95593 3.12286 0
M  V30 8094 H 761.137 -2.22614 3.00531 0
M  V30 8095 H 763.429 -4.95603 4.61935 0
M  V30 8096 H 764.372 -4.02475 5.82597 0
M  V30 8097 H 764.78 -3.89119 4.08958 0
M  V30 8098 N 764.178 -1.45556 -0.604258 0
M  V30 8099 C 765.426 -1.4945 -1.36048 0
M  V30 8100 C 765.747 -0.138933 -1.94504 0
M  V30 8101 O 765.017 0.832097 -1.7735 0
M  V30 8102 H 763.597 -0.550381 -0.505064 0
M  V30 8103 H 766.259 -1.81535 -0.709308 0
M  V30 8104 H 765.355 -2.23519 -2.17821 0
M  V30 8105 N 765.656 0.84705 -1.32902 0
M  V30 8106 C 766.619 1.9378 -1.224 0
M  V30 8107 C 767.619 1.60144 -0.145108 0
M  V30 8108 O 768.809 1.69638 -0.396058 0
M  V30 8109 C 765.941 3.29234 -0.884174 0
M  V30 8110 H 767.134 2.04518 -2.19345 0
M  V30 8111 H 764.687 1.03816 -1.16842 0
M  V30 8112 H 765.422 3.24193 0.0831277 0
M  V30 8113 H 765.207 3.55026 -1.6643 0
M  V30 8114 H 766.697 4.09162 -0.835226 0
M  V30 8115 N 767.134 1.16236 1.06428 0
M  V30 8116 C 768.097 0.870163 2.1204 0
M  V30 8117 C 769.097 -0.134239 1.60239 0
M  V30 8118 O 770.287 0.0964932 1.73933 0
M  V30 8119 C 767.419 0.301033 3.39568 0
M  V30 8120 H 768.612 1.8064 2.39394 0
M  V30 8121 H 766.165 0.971116 1.2247 0
M  V30 8122 H 766.9 -0.642948 3.17863 0
M  V30 8123 H 766.685 1.02475 3.78472 0
M  V30 8124 H 768.175 0.114494 4.17443 0
M  V30 8125 N 768.612 -1.24939 0.960631 0
M  V30 8126 C 769.837 -1.9742 0.635608 0
M  V30 8127 C 770.262 -1.70857 -0.786737 0
M  V30 8128 O 769.62 -0.968063 -1.53291 0
M  V30 8129 C 769.668 -3.48987 0.907771 0
M  V30 8130 O 768.772 -4.12399 -0.0104053 0
M  V30 8131 H 768.113 -0.61871 0.241027 0
M  V30 8132 H 770.643 -1.58901 1.28886 0
M  V30 8133 H 770.653 -3.99334 0.836453 0
M  V30 8134 H 769.328 -3.6765 1.94439 0
M  V30 8135 H 767.905 -3.72727 0.113631 0
M  V30 8136 N 770.09 -0.729906 -1.39679 0
M  V30 8137 C 771.339 -0.272534 -1.9985 0
M  V30 8138 C 771.652 1.14519 -1.58571 0
M  V30 8139 O 772.858 1.70182 -2.11543 0
M  V30 8140 C 771.314 -0.436322 -3.57245 0
M  V30 8141 C 770.922 -1.86161 -4.0749 0
M  V30 8142 C 772.666 -0.0404679 -4.24481 0
M  V30 8143 C 770.573 -1.97522 -5.5744 0
M  V30 8144 H 769.503 -0.0981428 -0.747585 0
M  V30 8145 H 772.154 -0.903056 -1.59741 0
M  V30 8146 H 770.536 0.263015 -3.95126 0
M  V30 8147 H 771.71 -2.59248 -3.80955 0
M  V30 8148 H 770.025 -2.21021 -3.529 0
M  V30 8149 H 772.622 -0.104437 -5.34598 0
M  V30 8150 H 772.965 1.00357 -4.04023 0
M  V30 8151 H 773.498 -0.690774 -3.91757 0
M  V30 8152 H 770.237 -3.00096 -5.82771 0
M  V30 8153 H 769.757 -1.28864 -5.85794 0
M  V30 8154 H 771.436 -1.754 -6.22771 0
M  V30 8155 N 771.568 1.50203 -0.477153 0
M  V30 8156 C 772.796 2.0677 0.0732489 0
M  V30 8157 C 773.211 1.34033 1.32968 0
M  V30 8158 O 772.568 0.411412 1.77802 0
M  V30 8159 C 772.619 3.59751 0.35518 0
M  V30 8160 O 772.34 4.29747 -0.851425 0
M  V30 8161 C 773.841 4.3296 0.951877 0
M  V30 8162 H 771.061 0.670929 -0.00978923 0
M  V30 8163 H 773.605 1.93293 -0.667676 0
M  V30 8164 H 771.76 3.7301 1.04605 0
M  V30 8165 H 772.174 5.2106 -0.599708 0
M  V30 8166 H 773.648 5.40952 1.09888 0
M  V30 8167 H 774.125 3.93856 1.94356 0
M  V30 8168 H 774.731 4.24246 0.299208 0
M  V30 8169 N 773.046 0.209999 1.56195 0
M  V30 8170 C 773.976 -0.699746 2.22769 0
M  V30 8171 C 774.957 -1.20993 1.1956 0
M  V30 8172 O 776.142 -1.25605 1.48112 0
M  V30 8173 C 773.272 -1.91302 2.89863 0
M  V30 8174 C 772.226 -1.53715 3.99444 0
M  V30 8175 C 771.552 -2.82826 4.53777 0
M  V30 8176 C 772.852 -0.735836 5.17091 0
M  V30 8177 H 774.546 -0.144716 2.9905 0
M  V30 8178 H 772.092 -0.0681645 1.43839 0
M  V30 8179 H 774.045 -2.5548 3.35124 0
M  V30 8180 H 772.769 -2.49283 2.11011 0
M  V30 8181 H 771.428 -0.918892 3.54897 0
M  V30 8182 H 771.076 -3.38927 3.71669 0
M  V30 8183 H 770.776 -2.58415 5.27727 0
M  V30 8184 H 772.3 -3.47966 5.01749 0
M  V30 8185 H 773.714 -1.28105 5.58804 0
M  V30 8186 H 772.111 -0.589272 5.972 0
M  V30 8187 H 773.181 0.260004 4.84202 0
M  V30 8188 N 774.524 -1.57472 -0.0634922 0
M  V30 8189 C 775.752 -1.91887 -0.773767 0
M  V30 8190 C 776.167 -0.806733 -1.70696 0
M  V30 8191 O 775.524 0.219383 -1.81177 0
M  V30 8192 C 775.575 -3.26092 -1.56034 0
M  V30 8193 O 775.296 -4.33029 -0.66464 0
M  V30 8194 C 776.797 -3.74573 -2.37087 0
M  V30 8195 H 774.017 -0.634074 -0.219525 0
M  V30 8196 H 776.561 -2.04476 -0.0312828 0
M  V30 8197 H 774.716 -3.15004 -2.25502 0
M  V30 8198 H 775.13 -5.10291 -1.21258 0
M  V30 8199 H 776.604 -4.71084 -2.87722 0
M  V30 8200 H 777.081 -3.04003 -3.16984 0
M  V30 8201 H 777.687 -3.88631 -1.72759 0
M  V30 8202 N 776.003 0.335068 -1.53997 0
M  V30 8203 C 777.249 1.07594 -1.71905 0
M  V30 8204 C 777.582 1.88039 -0.485264 0
M  V30 8205 O 776.857 1.87482 0.517752 0
M  V30 8206 C 777.14 2.01016 -2.98772 0
M  V30 8207 C 776.993 1.23977 -4.32377 0
M  V30 8208 C 778.312 3.0071 -3.21343 0
M  V30 8209 H 775.431 0.38976 -0.625505 0
M  V30 8210 H 778.073 0.353684 -1.86679 0
M  V30 8211 H 776.223 2.62603 -2.86307 0
M  V30 8212 H 777.895 0.649383 -4.56706 0
M  V30 8213 H 776.138 0.541878 -4.30402 0
M  V30 8214 H 776.809 1.92512 -5.17342 0
M  V30 8215 H 779.285 2.4924 -3.33194 0
M  V30 8216 H 778.161 3.63272 -4.11491 0
M  V30 8217 H 778.422 3.72549 -2.38033 0
M  V30 8218 N 777.481 1.45874 0.596531 0
M  V30 8219 C 778.413 1.51408 1.7207 0
M  V30 8220 C 779.426 0.403738 1.57714 0
M  V30 8221 O 780.615 0.671384 1.65393 0
M  V30 8222 C 777.715 1.3652 3.10186 0
M  V30 8223 C 776.888 2.61428 3.50677 0
M  V30 8224 C 775.947 2.40937 4.67799 0
M  V30 8225 O 774.973 3.14602 4.74357 0
M  V30 8226 N 776.175 1.4621 5.61785 0
M  V30 8227 H 778.94 2.48333 1.67782 0
M  V30 8228 H 776.501 1.41755 0.782129 0
M  V30 8229 H 778.493 1.20606 3.86311 0
M  V30 8230 H 777.063 0.478302 3.08919 0
M  V30 8231 H 776.283 2.92381 2.644 0
M  V30 8232 H 777.571 3.44432 3.74491 0
M  V30 8233 H 776.969 0.854382 5.59211 0
M  V30 8234 H 775.526 1.36264 6.37397 0
M  V30 8235 N 778.959 -0.83999 1.33349 0
M  V30 8236 C 779.922 -1.93128 1.23426 0
M  V30 8237 C 780.922 -1.60065 0.153599 0
M  V30 8238 O 782.112 -1.69425 0.405049 0
M  V30 8239 C 779.244 -3.28761 0.901622 0
M  V30 8240 H 780.437 -2.03352 2.20427 0
M  V30 8241 H 777.99 -1.03194 1.17391 0
M  V30 8242 H 778.725 -3.24233 -0.0659337 0
M  V30 8243 H 778.51 -3.54138 1.68311 0
M  V30 8244 H 780 -4.08714 0.856913 0
M  V30 8245 N 780.437 -1.16799 -1.0581 0
M  V30 8246 C 781.853 -0.913935 -1.30841 0
M  V30 8247 C 782.053 0.430439 -1.96849 0
M  V30 8248 O 781.109 1.16885 -2.23817 0
M  V30 8249 C 782.422 -2.06662 -2.18429 0
M  V30 8250 C 783.97 -2.10294 -2.31831 0
M  V30 8251 C 784.445 -3.2493 -3.22776 0
M  V30 8252 N 785.936 -3.24678 -3.30361 0
M  V30 8253 C 786.671 -4.10021 -4.00837 0
M  V30 8254 N 786.167 -5.05461 -4.73795 0
M  V30 8255 N 787.96 -3.97991 -3.96937 0
M  V30 8256 H 780.111 -2.03343 -0.613613 0
M  V30 8257 H 782.374 -0.88754 -0.333133 0
M  V30 8258 H 782.08 -3.03791 -1.77211 0
M  V30 8259 H 781.954 -2.01233 -3.19038 0
M  V30 8260 H 784.341 -1.13754 -2.72294 0
M  V30 8261 H 784.422 -2.19786 -1.30873 0
M  V30 8262 H 784.066 -4.21731 -2.83028 0
M  V30 8263 H 783.996 -3.12674 -4.23725 0
M  V30 8264 H 786.487 -2.55573 -2.78372 0
M  V30 8265 H 786.8 -5.66989 -5.25113 0
M  V30 8266 H 785.145 -5.09436 -4.72758 0
M  V30 8267 H 788.336 -3.2273 -3.39062 0
M  V30 8268 H 788.509 -4.64722 -4.51594 0
M  V30 8269 N 781.915 1.24427 -0.967243 0
M  V30 8270 C 782.847 2.24641 -0.454856 0
M  V30 8271 C 783.86 1.56849 0.436152 0
M  V30 8272 O 785.049 1.76846 0.242401 0
M  V30 8273 C 782.149 3.36954 0.362672 0
M  V30 8274 C 781.322 4.34318 -0.518324 0
M  V30 8275 C 780.381 5.25638 0.243122 0
M  V30 8276 O 779.407 5.68043 -0.362791 0
M  V30 8277 N 780.609 5.59897 1.53282 0
M  V30 8278 H 783.374 2.69238 -1.31648 0
M  V30 8279 H 780.935 1.38464 -0.839015 0
M  V30 8280 H 782.927 3.95014 0.880094 0
M  V30 8281 H 781.497 2.91646 1.12522 0
M  V30 8282 H 780.717 3.74953 -1.21672 0
M  V30 8283 H 782.005 4.96338 -1.11919 0
M  V30 8284 H 781.403 5.27373 2.04682 0
M  V30 8285 H 779.96 6.20488 1.99594 0
M  V30 8286 N 783.393 0.737304 1.3929 0
M  V30 8287 C 784.323 0.113988 2.33222 0
M  V30 8288 C 785.304 -0.721695 1.54031 0
M  V30 8289 O 786.489 -0.666206 1.82415 0
M  V30 8290 C 783.619 -0.792319 3.38141 0
M  V30 8291 C 782.573 -0.0606178 4.27957 0
M  V30 8292 C 781.899 -1.08409 5.23595 0
M  V30 8293 C 783.199 1.09817 5.10625 0
M  V30 8294 H 784.893 0.898611 2.85596 0
M  V30 8295 H 782.439 0.433571 1.37318 0
M  V30 8296 H 784.392 -1.23793 4.02807 0
M  V30 8297 H 783.116 -1.60908 2.84211 0
M  V30 8298 H 781.775 0.365393 3.64775 0
M  V30 8299 H 781.423 -1.89449 4.6596 0
M  V30 8300 H 781.123 -0.599269 5.84536 0
M  V30 8301 H 782.647 -1.52936 5.91137 0
M  V30 8302 H 784.061 0.730892 5.68622 0
M  V30 8303 H 782.458 1.51278 5.80719 0
M  V30 8304 H 783.528 1.91878 4.45321 0
M  V30 8305 N 784.871 -1.49948 0.485112 0
M  V30 8306 C 785.801 -2.31675 -0.291364 0
M  V30 8307 C 786.782 -1.39216 -0.977383 0
M  V30 8308 O 787.967 -1.68133 -0.971855 0
M  V30 8309 C 785.097 -3.19326 -1.36558 0
M  V30 8310 C 784.051 -4.2045 -0.800359 0
M  V30 8311 C 783.377 -4.96931 -1.97391 0
M  V30 8312 C 784.677 -5.21925 0.197867 0
M  V30 8313 H 786.371 -2.96839 0.390775 0
M  V30 8314 H 783.917 -1.42749 0.189375 0
M  V30 8315 H 785.87 -3.75304 -1.91638 0
M  V30 8316 H 784.594 -2.52074 -2.07668 0
M  V30 8317 H 783.253 -3.65594 -0.271428 0
M  V30 8318 H 782.901 -4.26141 -2.67232 0
M  V30 8319 H 782.601 -5.65344 -1.60187 0
M  V30 8320 H 784.125 -5.55749 -2.52935 0
M  V30 8321 H 785.539 -5.72691 -0.264239 0
M  V30 8322 H 783.936 -5.98138 0.484908 0
M  V30 8323 H 785.006 -4.71809 1.11912 0
M  V30 8324 N 786.349 -0.21828 -1.56081 0
M  V30 8325 C 787.574 0.422302 -2.03055 0
M  V30 8326 C 787.999 1.5279 -1.09713 0
M  V30 8327 O 787.357 1.81102 -0.0847187 0
M  V30 8328 C 787.405 0.934177 -3.48289 0
M  V30 8329 O 786.509 2.04574 -3.58083 0
M  V30 8330 H 785.85 0.0959764 -0.657027 0
M  V30 8331 H 788.38 -0.335958 -2.01823 0
M  V30 8332 H 788.39 1.24484 -3.88546 0
M  V30 8333 H 787.065 0.124963 -4.15712 0
M  V30 8334 H 785.642 1.74196 -3.29712 0
M  V30 8335 N 787.827 1.57504 0.0551401 0
M  V30 8336 C 789.075 1.87684 0.74962 0
M  V30 8337 C 789.396 0.812547 1.77264 0
M  V30 8338 O 788.666 -0.15694 1.9527 0
M  V30 8339 H 787.246 0.6926 0.279846 0
M  V30 8340 H 789.908 1.94881 0.0272745 0
M  V30 8341 H 789.004 2.85734 1.25548 0
M  V30 8342 N 789.305 -0.326896 1.54172 0
M  V30 8343 C 790.554 -1.06274 1.71431 0
M  V30 8344 C 790.867 -1.89282 0.493123 0
M  V30 8345 O 792.073 -2.65933 0.54699 0
M  V30 8346 C 790.529 -1.93892 3.03206 0
M  V30 8347 C 790.137 -1.16011 4.32719 0
M  V30 8348 C 791.881 -2.67232 3.29829 0
M  V30 8349 C 789.788 -2.02755 5.55558 0
M  V30 8350 H 788.718 -0.400475 0.638855 0
M  V30 8351 H 791.369 -0.321184 1.80667 0
M  V30 8352 H 789.751 -2.71933 2.87869 0
M  V30 8353 H 790.925 -0.427643 4.58811 0
M  V30 8354 H 789.24 -0.54367 4.12836 0
M  V30 8355 H 791.837 -3.32434 4.18798 0
M  V30 8356 H 792.18 -3.34692 2.47562 0
M  V30 8357 H 792.713 -1.96255 3.46018 0
M  V30 8358 H 789.452 -1.3981 6.40417 0
M  V30 8359 H 788.972 -2.73745 5.33689 0
M  V30 8360 H 790.651 -2.61419 5.91835 0
M  V30 8361 N 790.784 -1.46188 -0.588786 0
M  V30 8362 C 792.03 -1.51407 -1.34921 0
M  V30 8363 C 792.363 -0.162771 -1.93517 0
M  V30 8364 O 791.638 0.825082 -1.76132 0
M  V30 8365 C 791.921 -2.60795 -2.48311 0
M  V30 8366 C 791.774 -4.05435 -1.94789 0
M  V30 8367 C 793.093 -2.66313 -3.50379 0
M  V30 8368 H 790.212 -0.551213 -0.489217 0
M  V30 8369 H 792.854 -1.78095 -0.661993 0
M  V30 8370 H 791.004 -2.3817 -3.06932 0
M  V30 8371 H 792.676 -4.39328 -1.40672 0
M  V30 8372 H 790.919 -4.15202 -1.25659 0
M  V30 8373 H 791.59 -4.77691 -2.76613 0
M  V30 8374 H 794.066 -2.86634 -3.01629 0
M  V30 8375 H 792.942 -3.44681 -4.27184 0
M  V30 8376 H 793.203 -1.72127 -4.07216 0
M  V30 8377 N 792.262 0.832906 -1.33792 0
M  V30 8378 C 793.194 1.95042 -1.2038 0
M  V30 8379 C 794.207 1.62253 -0.133299 0
M  V30 8380 O 795.396 1.74315 -0.384261 0
M  V30 8381 C 792.496 3.287 -0.825215 0
M  V30 8382 C 791.669 3.89581 -1.98861 0
M  V30 8383 C 790.728 5.01602 -1.59003 0
M  V30 8384 O 789.754 5.20431 -2.30522 0
M  V30 8385 N 790.956 5.78356 -0.498446 0
M  V30 8386 H 793.721 2.07083 -2.16649 0
M  V30 8387 H 791.282 1.00896 -1.26616 0
M  V30 8388 H 793.274 4.01074 -0.540559 0
M  V30 8389 H 791.844 3.12565 0.0469796 0
M  V30 8390 H 791.064 3.09723 -2.43856 0
M  V30 8391 H 792.352 4.26989 -2.76691 0
M  V30 8392 H 791.75 5.65618 0.0963297 0
M  V30 8393 H 790.307 6.51226 -0.273485 0
M  V30 8394 N 793.74 1.17359 1.05189 0
M  V30 8395 C 794.672 0.848078 2.12933 0
M  V30 8396 C 795.685 -0.149521 1.62112 0
M  V30 8397 O 796.874 0.0767797 1.78335 0
M  V30 8398 C 793.974 0.243889 3.38021 0
M  V30 8399 C 793.147 1.28436 4.18118 0
M  V30 8400 C 792.206 0.697926 5.21551 0
M  V30 8401 O 791.232 1.36973 5.52473 0
M  V30 8402 N 792.434 -0.510024 5.78255 0
M  V30 8403 H 795.199 1.7754 2.41453 0
M  V30 8404 H 792.76 1.07244 1.21286 0
M  V30 8405 H 794.752 -0.161727 4.04377 0
M  V30 8406 H 793.322 -0.58722 3.07035 0
M  V30 8407 H 792.542 1.86573 3.47252 0
M  V30 8408 H 793.83 1.98617 4.68432 0
M  V30 8409 H 793.228 -1.07378 5.55416 0
M  V30 8410 H 791.785 -0.857705 6.46132 0
M  V30 8411 N 795.218 -1.23913 0.973828 0
M  V30 8412 C 796.15 -2.24397 0.466763 0
M  V30 8413 C 797.163 -1.57078 -0.427828 0
M  V30 8414 O 798.352 -1.76973 -0.233019 0
M  V30 8415 C 795.452 -3.37141 -0.344798 0
M  V30 8416 C 794.625 -4.34037 0.541349 0
M  V30 8417 C 793.684 -5.2576 -0.215243 0
M  V30 8418 O 792.71 -5.67842 0.39291 0
M  V30 8419 N 793.912 -5.60702 -1.5031 0
M  V30 8420 H 796.677 -2.68536 1.33074 0
M  V30 8421 H 794.238 -1.38017 0.846346 0
M  V30 8422 H 796.23 -3.95476 -0.859133 0
M  V30 8423 H 794.8 -2.92239 -1.10974 0
M  V30 8424 H 794.02 -3.74302 1.23659 0
M  V30 8425 H 795.308 -4.95738 1.1455 0
M  V30 8426 H 794.706 -5.28451 -2.01882 0
M  V30 8427 H 793.263 -6.21538 -1.96301 0
M  V30 8428 N 796.696 -0.74468 -1.38897 0
M  V30 8429 C 797.644 -0.100312 -2.32384 0
M  V30 8430 C 798.638 0.715191 -1.53562 0
M  V30 8431 O 799.844 0.615288 -1.69157 0
M  V30 8432 H 796.219 -0.0136403 -0.751876 0
M  V30 8433 H 798.19 -0.905007 -2.84345 0
M  V30 8434 C 796.939 0.785432 -3.38713 0
M  V30 8435 H 796.262 0.167308 -3.9945 0
M  V30 8436 H 797.702 1.20374 -4.06554 0
M  V30 8437 C 796.161 1.92408 -2.76552 0
M  V30 8438 O 796.691 3.01752 -2.65157 0
M  V30 8439 N 794.897 1.71642 -2.34494 0
M  V30 8440 H 794.444 0.827079 -2.43961 0
M  V30 8441 H 794.402 2.48 -1.93244 0
M  V30 8442 N 798.174 1.49689 -0.493057 0
M  V30 8443 C 799.122 2.30613 0.303383 0
M  V30 8444 C 800.116 1.38867 0.970165 0
M  V30 8445 O 801.322 1.55956 0.898761 0
M  V30 8446 H 797.697 0.742891 0.116691 0
M  V30 8447 H 799.668 2.95717 -0.39924 0
M  V30 8448 C 798.417 3.20008 1.35978 0
M  V30 8449 H 797.74 3.90526 0.856103 0
M  V30 8450 H 799.18 3.79586 1.88919 0
M  V30 8451 C 797.639 2.39079 2.37367 0
M  V30 8452 O 798.169 2.08933 3.43089 0
M  V30 8453 N 796.375 2.0125 2.09635 0
M  V30 8454 H 795.922 2.25966 1.23682 0
M  V30 8455 H 795.88 1.47408 2.77702 0
M  V30 8456 N 799.652 0.226554 1.55963 0
M  V30 8457 C 800.582 -0.676079 2.23498 0
M  V30 8458 C 801.563 -1.19718 1.20837 0
M  V30 8459 O 802.748 -1.24027 1.49436 0
M  V30 8460 C 799.878 -1.88217 2.91876 0
M  V30 8461 C 798.832 -1.4947 4.01052 0
M  V30 8462 C 798.158 -2.77997 4.56751 0
M  V30 8463 C 799.458 -0.680951 5.17842 0
M  V30 8464 H 801.152 -0.112989 2.99187 0
M  V30 8465 H 798.698 -0.0529046 1.43903 0
M  V30 8466 H 800.651 -2.51911 3.37815 0
M  V30 8467 H 799.375 -2.47031 2.13643 0
M  V30 8468 H 798.034 -0.881199 3.55852 0
M  V30 8469 H 797.682 -3.34966 3.75243 0
M  V30 8470 H 797.382 -2.52803 5.30438 0
M  V30 8471 H 798.906 -3.42625 5.05411 0
M  V30 8472 H 800.32 -1.22171 5.60131 0
M  V30 8473 H 798.717 -0.525898 5.97791 0
M  V30 8474 H 799.787 0.311346 4.83899 0
M  V30 8475 N 801.13 -1.57531 -0.0467866 0
M  V30 8476 C 802.06 -2.08425 -1.05268 0
M  V30 8477 C 803.041 -0.982941 -1.38825 0
M  V30 8478 O 804.226 -1.25716 -1.48018 0
M  V30 8479 C 801.356 -2.54897 -2.35891 0
M  V30 8480 C 800.31 -3.69132 -2.16623 0
M  V30 8481 C 799.636 -4.01747 -3.52851 0
M  V30 8482 C 800.936 -4.98243 -1.56689 0
M  V30 8483 H 802.63 -2.92716 -0.62908 0
M  V30 8484 H 800.176 -1.40816 -0.301156 0
M  V30 8485 H 802.129 -2.8912 -3.06574 0
M  V30 8486 H 800.853 -1.67666 -2.80278 0
M  V30 8487 H 799.512 -3.35231 -1.48377 0
M  V30 8488 H 799.16 -3.11608 -3.94853 0
M  V30 8489 H 798.86 -4.78681 -3.4079 0
M  V30 8490 H 800.384 -4.38487 -4.24925 0
M  V30 8491 H 801.798 -5.30535 -2.17268 0
M  V30 8492 H 800.195 -5.79669 -1.55255 0
M  V30 8493 H 801.265 -4.81986 -0.530827 0
M  V30 8494 N 802.608 0.318715 -1.54344 0
M  V30 8495 C 804.024 0.663345 -1.45162 0
M  V30 8496 C 804.224 1.9145 -0.62842 0
M  V30 8497 O 803.28 2.5217 -0.129126 0
M  V30 8498 C 804.593 0.832836 -2.88937 0
M  V30 8499 C 806.141 0.929866 -2.98869 0
M  V30 8500 C 806.616 1.13149 -4.43803 0
M  V30 8501 N 808.107 1.19811 -4.47437 0
M  V30 8502 C 808.842 1.37209 -5.56742 0
M  V30 8503 N 808.338 1.51619 -6.76006 0
M  V30 8504 N 810.131 1.39956 -5.44398 0
M  V30 8505 H 802.282 -0.50357 -2.06344 0
M  V30 8506 H 804.545 -0.163528 -0.933789 0
M  V30 8507 H 804.251 -0.0153519 -3.51697 0
M  V30 8508 H 804.125 1.72721 -3.35332 0
M  V30 8509 H 806.512 1.76855 -2.36233 0
M  V30 8510 H 806.593 0.0118561 -2.55797 0
M  V30 8511 H 806.237 0.297636 -5.07027 0
M  V30 8512 H 806.167 2.06345 -4.84489 0
M  V30 8513 H 808.658 1.101 -3.61506 0
M  V30 8514 H 808.971 1.64599 -7.55067 0
M  V30 8515 H 807.316 1.48708 -6.78904 0
M  V30 8516 H 810.507 1.28298 -4.50175 0
M  V30 8517 H 810.68 1.53172 -6.29637 0
M  V30 8518 N 804.086 1.46499 0.581025 0
M  V30 8519 C 805.049 1.5677 1.672 0
M  V30 8520 C 806.049 0.444716 1.54528 0
M  V30 8521 O 807.239 0.709074 1.59116 0
M  V30 8522 C 804.371 1.4896 3.06633 0
M  V30 8523 H 805.564 2.54 1.5945 0
M  V30 8524 H 803.117 1.34334 0.799003 0
M  V30 8525 H 803.852 0.530168 3.19937 0
M  V30 8526 H 803.637 2.30439 3.17239 0
M  V30 8527 H 805.127 1.59237 3.86048 0
M  V30 8528 N 805.565 -0.825799 1.34232 0
M  V30 8529 C 806.814 -1.57686 1.2577 0
M  V30 8530 C 807.127 -1.94848 -0.171372 0
M  V30 8531 O 808.333 -2.68854 -0.378123 0
M  V30 8532 C 806.789 -2.84478 2.20454 0
M  V30 8533 C 806.397 -2.54629 3.68603 0
M  V30 8534 C 808.141 -3.625 2.20893 0
M  V30 8535 C 806.048 -3.77597 4.55164 0
M  V30 8536 H 804.978 -0.591809 0.467203 0
M  V30 8537 H 807.629 -0.909421 1.59379 0
M  V30 8538 H 806.011 -3.52832 1.79793 0
M  V30 8539 H 807.185 -1.94404 4.17784 0
M  V30 8540 H 805.5 -1.89888 3.70582 0
M  V30 8541 H 808.097 -4.538 2.82789 0
M  V30 8542 H 808.44 -3.98404 1.20746 0
M  V30 8543 H 808.973 -3.01086 2.59985 0
M  V30 8544 H 805.712 -3.46815 5.56237 0
M  V30 8545 H 805.232 -4.37116 4.10719 0
M  V30 8546 H 806.911 -4.45039 4.69627 0
M  V30 8547 N 807.043 -1.17915 -1.04565 0
M  V30 8548 C 807.953 -0.916449 -2.15959 0
M  V30 8549 C 808.969 0.117655 -1.73602 0
M  V30 8550 O 810.145 -0.063089 -2.01301 0
M  V30 8551 C 807.21 -0.440262 -3.43893 0
M  V30 8552 C 806.271 -1.54172 -4.00661 0
M  V30 8553 C 805.504 -1.08816 -5.22489 0
M  V30 8554 O 805.727 0.0551547 -5.70373 0
M  V30 8555 O 804.661 -1.88383 -5.7166 0
M  V30 8556 H 808.487 -1.8484 -2.40972 0
M  V30 8557 H 806.072 -0.960552 -1.14428 0
M  V30 8558 H 807.954 -0.182537 -4.21004 0
M  V30 8559 H 806.629 0.46346 -3.20365 0
M  V30 8560 H 805.536 -1.85341 -3.24961 0
M  V30 8561 H 806.869 -2.42139 -4.2852 0
M  V30 8562 N 808.521 1.23394 -0.980386 0
M  V30 8563 C 809.484 2.23092 -0.525619 0
M  V30 8564 C 810.484 1.56129 0.384745 0
M  V30 8565 O 811.674 1.73284 0.178439 0
M  V30 8566 C 808.806 3.40074 0.23712 0
M  V30 8567 H 809.999 2.64839 -1.40714 0
M  V30 8568 H 807.552 1.36227 -0.766275 0
M  V30 8569 H 808.287 3.03783 1.13518 0
M  V30 8570 H 808.072 3.89883 -0.416356 0
M  V30 8571 H 809.562 4.14043 0.543892 0
M  V30 8572 N 809.999 0.752036 1.385 0
M  V30 8573 C 810.931 0.0835089 2.29048 0
M  V30 8574 C 811.944 -0.685402 1.47669 0
M  V30 8575 O 813.133 -0.526748 1.70551 0
M  V30 8576 C 810.233 -0.905772 3.26572 0
M  V30 8577 C 809.406 -0.194828 4.36966 0
M  V30 8578 C 808.465 -1.09464 5.14688 0
M  V30 8579 O 807.491 -0.565743 5.66381 0
M  V30 8580 N 808.693 -2.42287 5.2752 0
M  V30 8581 H 811.458 0.861142 2.87062 0
M  V30 8582 H 809.019 0.602689 1.50264 0
M  V30 8583 H 811.011 -1.51072 3.75446 0
M  V30 8584 H 809.581 -1.58449 2.69467 0
M  V30 8585 H 808.801 0.590812 3.89747 0
M  V30 8586 H 810.089 0.297189 5.07931 0
M  V30 8587 H 809.487 -2.87715 4.8707 0
M  V30 8588 H 808.044 -2.97836 5.79773 0
M  V30 8589 N 811.477 -1.49425 0.500989 0
M  V30 8590 C 812.409 -2.27037 -0.314159 0
M  V30 8591 C 813.422 -1.33578 -0.930626 0
M  V30 8592 O 814.611 -1.58861 -0.813968 0
M  V30 8593 C 811.711 -3.05968 -1.45729 0
M  V30 8594 C 810.884 -4.27 -0.948135 0
M  V30 8595 C 809.943 -4.87977 -1.96888 0
M  V30 8596 O 808.969 -5.48044 -1.53743 0
M  V30 8597 N 810.171 -4.77627 -3.29928 0
M  V30 8598 H 812.936 -2.97634 0.351336 0
M  V30 8599 H 810.497 -1.58427 0.333536 0
M  V30 8600 H 812.489 -3.43634 -2.1377 0
M  V30 8601 H 811.059 -2.37978 -2.02695 0
M  V30 8602 H 810.279 -3.94091 -0.0926311 0
M  V30 8603 H 811.567 -5.0541 -0.586362 0
M  V30 8604 H 810.965 -4.29926 -3.67669 0
M  V30 8605 H 809.522 -5.19478 -3.93682 0
M  V30 8606 N 812.955 -0.234822 -1.55841 0
M  V30 8607 C 813.905 0.68346 -2.17515 0
M  V30 8608 C 814.889 1.14798 -1.1274 0
M  V30 8609 O 816.081 1.09976 -1.38688 0
M  V30 8610 C 813.21 1.88551 -2.86886 0
M  V30 8611 C 812.296 1.44006 -3.98903 0
M  V30 8612 N 812.687 0.708034 -5.0082 0
M  V30 8613 C 810.985 1.7263 -4.11236 0
M  V30 8614 C 811.686 0.479036 -5.79724 0
M  V30 8615 N 810.662 1.03968 -5.33565 0
M  V30 8616 H 814.464 0.115897 -2.93671 0
M  V30 8617 H 811.978 -0.0366273 -1.62359 0
M  V30 8618 H 813.975 2.55425 -3.2949 0
M  V30 8619 H 812.635 2.45742 -2.12229 0
M  V30 8620 H 813.646 0.359363 -5.16652 0
M  V30 8621 H 810.323 2.31046 -3.47741 0
M  V30 8622 H 811.713 -0.104514 -6.71819 0
M  V30 8623 N 814.433 1.57553 0.0384317 0
M  V30 8624 C 815.363 2.0898 1.04161 0
M  V30 8625 C 816.344 0.99029 1.38301 0
M  V30 8626 O 817.529 1.26499 1.47349 0
M  V30 8627 C 814.659 2.56145 2.34536 0
M  V30 8628 C 813.613 3.70275 2.14663 0
M  V30 8629 C 812.939 4.03612 3.50715 0
M  V30 8630 C 814.239 4.99067 1.54045 0
M  V30 8631 H 815.933 2.93046 0.613548 0
M  V30 8632 H 813.479 1.40973 0.293684 0
M  V30 8633 H 815.432 2.90741 3.05037 0
M  V30 8634 H 814.156 1.6915 2.79385 0
M  V30 8635 H 812.815 3.36013 1.46597 0
M  V30 8636 H 812.463 3.13698 3.93195 0
M  V30 8637 H 812.163 4.80482 3.38247 0
M  V30 8638 H 813.687 4.40735 4.22593 0
M  V30 8639 H 815.101 5.3168 2.14451 0
M  V30 8640 H 813.498 5.80484 1.52178 0
M  V30 8641 H 814.568 4.8226 0.505259 0
M  V30 8642 N 815.911 -0.310526 1.54511 0
M  V30 8643 C 816.841 -1.38757 1.878 0
M  V30 8644 C 817.822 -1.53353 0.735991 0
M  V30 8645 O 819.007 -1.67018 0.990887 0
M  V30 8646 C 816.137 -2.75327 2.11689 0
M  V30 8647 C 815.091 -2.75506 3.27537 0
M  V30 8648 C 814.417 -4.15275 3.36824 0
M  V30 8649 C 815.717 -2.38093 4.64875 0
M  V30 8650 H 817.411 -1.11146 2.78005 0
M  V30 8651 H 814.957 -0.533232 1.33763 0
M  V30 8652 H 816.91 -3.50752 2.33562 0
M  V30 8653 H 815.634 -3.04443 1.18245 0
M  V30 8654 H 814.293 -2.02538 3.05572 0
M  V30 8655 H 813.941 -4.41553 2.40915 0
M  V30 8656 H 813.641 -4.16299 4.14692 0
M  V30 8657 H 815.165 -4.92493 3.60947 0
M  V30 8658 H 816.579 -3.03232 4.86542 0
M  V30 8659 H 814.976 -2.50345 5.45387 0
M  V30 8660 H 816.046 -1.33227 4.66239 0
M  V30 8661 N 817.389 -1.46805 -0.573248 0
M  V30 8662 C 818.321 -1.54127 -1.6964 0
M  V30 8663 C 819.334 -0.428778 -1.57052 0
M  V30 8664 O 820.523 -0.697612 -1.64303 0
M  V30 8665 C 817.623 -1.41438 -3.07975 0
M  V30 8666 C 816.796 -2.66974 -3.46474 0
M  V30 8667 C 815.855 -2.48349 -4.63906 0
M  V30 8668 O 814.881 -3.22109 -4.69292 0
M  V30 8669 N 816.083 -1.55129 -5.59388 0
M  V30 8670 H 818.848 -2.50971 -1.6381 0
M  V30 8671 H 816.409 -1.42981 -0.759479 0
M  V30 8672 H 818.401 -1.26737 -3.84343 0
M  V30 8673 H 816.971 -0.527388 -3.08119 0
M  V30 8674 H 816.191 -2.9655 -2.59715 0
M  V30 8675 H 817.479 -3.50347 -3.68964 0
M  V30 8676 H 816.877 -0.94324 -5.57781 0
M  V30 8677 H 815.434 -1.46387 -6.35149 0
M  V30 8678 N 818.867 0.818669 -1.34668 0
M  V30 8679 C 819.797 1.94468 -1.29245 0
M  V30 8680 C 820.778 1.69257 -0.169101 0
M  V30 8681 O 821.963 1.90794 -0.362143 0
M  V30 8682 C 819.093 3.31001 -1.05145 0
M  V30 8683 C 818.047 3.70663 -2.13992 0
M  V30 8684 C 817.373 5.05226 -1.75074 0
M  V30 8685 C 818.673 3.82312 -3.55858 0
M  V30 8686 H 820.367 1.99263 -2.2346 0
M  V30 8687 H 817.913 0.957304 -1.07572 0
M  V30 8688 H 819.866 4.09364 -0.999949 0
M  V30 8689 H 818.59 3.26517 -0.0737312 0
M  V30 8690 H 817.249 2.94578 -2.18219 0
M  V30 8691 H 816.897 4.97233 -0.759518 0
M  V30 8692 H 816.597 5.32734 -2.47928 0
M  V30 8693 H 818.121 5.86042 -1.71427 0
M  V30 8694 H 819.535 4.50935 -3.5402 0
M  V30 8695 H 817.932 4.21278 -4.2737 0
M  V30 8696 H 819.002 2.84193 -3.9289 0
M  V30 8697 N 820.346 1.18468 1.03938 0
M  V30 8698 C 821.574 1.00576 1.80809 0
M  V30 8699 C 821.989 -0.445786 1.83462 0
M  V30 8700 O 821.346 -1.30964 1.27101 0
M  V30 8701 C 821.397 1.55491 3.26351 0
M  V30 8702 O 821.118 2.94963 3.23926 0
M  V30 8703 C 822.619 1.42236 4.19862 0
M  V30 8704 H 819.839 0.35508 0.56935 0
M  V30 8705 H 822.383 1.57046 1.30984 0
M  V30 8706 H 820.538 1.03195 3.73403 0
M  V30 8707 H 820.952 3.20598 4.15111 0
M  V30 8708 H 822.426 1.85455 5.19914 0
M  V30 8709 H 822.903 0.371267 4.37628 0
M  V30 8710 H 823.509 1.9361 3.78675 0
M  V30 8711 N 821.824 -1.22873 0.986916 0
M  V30 8712 C 823.07 -1.91746 0.660401 0
M  V30 8713 C 823.403 -1.76738 -0.804812 0
M  V30 8714 O 822.678 -1.13246 -1.58131 0
M  V30 8715 C 822.961 -3.44156 1.05966 0
M  V30 8716 C 822.814 -3.68242 2.58298 0
M  V30 8717 C 824.133 -4.35874 0.60842 0
M  V30 8718 H 821.252 -0.696347 0.241391 0
M  V30 8719 H 823.894 -1.44867 1.22937 0
M  V30 8720 H 822.044 -3.84213 0.575534 0
M  V30 8721 H 823.716 -3.37626 3.14335 0
M  V30 8722 H 821.959 -3.12728 3.00638 0
M  V30 8723 H 822.63 -4.74956 2.81285 0
M  V30 8724 H 825.106 -4.03299 1.02417 0
M  V30 8725 H 823.982 -5.41201 0.916142 0
M  V30 8726 H 824.243 -4.39364 -0.491086 0
M  V30 8727 N 823.302 -0.75937 -1.38099 0
M  V30 8728 C 824.548 -0.327559 -2.00745 0
M  V30 8729 C 824.903 1.08042 -1.592 0
M  V30 8730 O 824.196 1.7306 -0.822236 0
M  V30 8731 C 824.39 -0.394999 -3.55211 0
M  V30 8732 C 824.219 -1.80798 -4.11755 0
M  V30 8733 C 822.989 -2.42585 -4.43262 0
M  V30 8734 C 825.187 -2.76556 -4.33614 0
M  V30 8735 N 823.169 -3.75784 -4.85448 0
M  V30 8736 C 824.54 -3.94532 -4.78273 0
M  V30 8737 C 826.595 -2.74004 -4.15724 0
M  V30 8738 C 825.298 -5.10322 -5.06916 0
M  V30 8739 C 827.324 -3.88957 -4.45496 0
M  V30 8740 C 826.686 -5.05672 -4.90383 0
M  V30 8741 H 822.785 -0.166644 -0.764038 0
M  V30 8742 H 825.369 -0.99056 -1.67619 0
M  V30 8743 H 823.54 0.237761 -3.87672 0
M  V30 8744 H 825.272 0.0576828 -4.04659 0
M  V30 8745 H 822.027 -1.94302 -4.31907 0
M  V30 8746 H 822.451 -4.44234 -5.10867 0
M  V30 8747 H 827.093 -1.84948 -3.80203 0
M  V30 8748 H 824.811 -5.99988 -5.41332 0
M  V30 8749 H 828.397 -3.88308 -4.33253 0
M  V30 8750 H 827.277 -5.93146 -5.1298 0
M  V30 8751 N 824.78 1.49157 -0.508906 0
M  V30 8752 C 826.028 2.02073 0.0327335 0
M  V30 8753 C 826.349 1.39012 1.3675 0
M  V30 8754 O 825.619 0.548153 1.88075 0
M  V30 8755 H 824.199 0.746848 0.0150864 0
M  V30 8756 H 826.861 1.83097 -0.667946 0
M  V30 8757 H 825.957 3.11707 0.1566 0
M  V30 8758 N 826.258 0.243083 1.55714 0
M  V30 8759 C 827.507 -0.383188 1.98027 0
M  V30 8760 C 827.82 -1.59347 1.13436 0
M  V30 8761 O 829.026 -2.29065 1.45745 0
M  V30 8762 C 827.482 -0.733135 3.52354 0
M  V30 8763 C 827.09 0.455539 4.45678 0
M  V30 8764 C 828.834 -1.32381 4.03331 0
M  V30 8765 C 826.741 0.0819591 5.91343 0
M  V30 8766 H 825.671 -0.146944 0.739543 0
M  V30 8767 H 828.322 0.342697 1.80272 0
M  V30 8768 H 826.704 -1.51704 3.65789 0
M  V30 8769 H 827.878 1.23291 4.44 0
M  V30 8770 H 826.193 0.960886 4.05162 0
M  V30 8771 H 828.79 -1.61658 5.09677 0
M  V30 8772 H 829.133 -2.24698 3.50452 0
M  V30 8773 H 829.666 -0.602885 3.93205 0
M  V30 8774 H 826.405 0.972171 6.48251 0
M  V30 8775 H 825.925 -0.659291 5.96166 0
M  V30 8776 H 827.604 -0.3372 6.46121 0
M  V30 8777 N 827.736 -1.57571 -0.0300757 0
M  V30 8778 C 828.683 -2.06492 -1.03101 0
M  V30 8779 C 829.653 -0.953862 -1.3598 0
M  V30 8780 O 830.838 -1.22436 -1.46335 0
M  V30 8781 C 827.978 -2.54826 -2.32718 0
M  V30 8782 C 827.091 -3.79718 -2.06006 0
M  V30 8783 C 826.226 -4.16668 -3.29487 0
M  V30 8784 C 825.265 -5.3448 -2.98324 0
M  V30 8785 N 824.402 -5.66867 -4.14254 0
M  V30 8786 H 829.242 -2.91755 -0.606877 0
M  V30 8787 H 826.779 -1.44252 -0.288038 0
M  V30 8788 H 828.737 -2.80916 -3.08451 0
M  V30 8789 H 827.367 -1.72481 -2.72856 0
M  V30 8790 H 826.419 -3.60718 -1.20774 0
M  V30 8791 H 827.731 -4.65569 -1.79017 0
M  V30 8792 H 826.885 -4.43881 -4.13588 0
M  V30 8793 H 825.624 -3.29466 -3.59588 0
M  V30 8794 H 824.629 -5.07021 -2.12625 0
M  V30 8795 H 825.854 -6.23334 -2.69502 0
M  V30 8796 H 823.8 -4.82625 -4.44308 0
M  V30 8797 H 823.717 -6.47226 -3.90685 0
M  V30 8798 H 824.985 -5.98656 -4.99231 0
M  V30 8799 N 829.214 0.302327 -1.54673 0
M  V30 8800 C 830.146 1.39443 -1.81902 0
M  V30 8801 C 831.159 1.46891 -0.701914 0
M  V30 8802 O 832.348 1.49233 -0.979369 0
M  V30 8803 C 829.448 2.77824 -1.9408 0
M  V30 8804 C 828.621 2.93324 -3.24468 0
M  V30 8805 C 827.68 4.12196 -3.27079 0
M  V30 8806 O 826.706 4.04344 -4.00617 0
M  V30 8807 N 827.908 5.22768 -2.52376 0
M  V30 8808 H 830.673 1.1644 -2.76155 0
M  V30 8809 H 828.234 0.492392 -1.54231 0
M  V30 8810 H 830.226 3.5559 -1.9323 0
M  V30 8811 H 828.796 2.9378 -1.06828 0
M  V30 8812 H 828.016 2.02682 -3.38103 0
M  V30 8813 H 829.304 3.0059 -4.10516 0
M  V30 8814 H 828.702 5.32027 -1.92259 0
M  V30 8815 H 827.259 5.98874 -2.57281 0
M  V30 8816 N 830.692 1.47107 0.565454 0
M  V30 8817 C 831.622 1.61846 1.68309 0
M  V30 8818 C 832.603 0.468159 1.63531 0
M  V30 8819 O 833.788 0.696504 1.8128 0
M  V30 8820 C 830.918 1.62474 3.06952 0
M  V30 8821 C 829.872 2.76649 3.26572 0
M  V30 8822 C 829.198 2.62345 4.65917 0
M  V30 8823 C 830.498 4.18319 3.12741 0
M  V30 8824 H 832.192 2.55407 1.5623 0
M  V30 8825 H 829.738 1.22916 0.750179 0
M  V30 8826 H 831.691 1.71378 3.84977 0
M  V30 8827 H 830.415 0.654692 3.19971 0
M  V30 8828 H 829.074 2.67242 2.50952 0
M  V30 8829 H 828.722 1.63386 4.75725 0
M  V30 8830 H 828.422 3.38936 4.79996 0
M  V30 8831 H 829.946 2.73165 5.46089 0
M  V30 8832 H 831.36 4.28745 3.80593 0
M  V30 8833 H 829.757 4.95632 3.38333 0
M  V30 8834 H 830.827 4.37263 2.09592 0
M  V30 8835 N 832.17 -0.811516 1.35101 0
M  V30 8836 C 833.102 -1.93102 1.23468 0
M  V30 8837 C 834.115 -1.62021 0.159095 0
M  V30 8838 O 835.304 -1.73682 0.411945 0
M  V30 8839 C 832.404 -3.27345 0.877404 0
M  V30 8840 C 831.577 -3.86368 2.05033 0
M  V30 8841 C 830.636 -4.99009 1.66963 0
M  V30 8842 O 829.662 -5.16698 2.38772 0
M  V30 8843 N 830.864 -5.7749 0.590394 0
M  V30 8844 H 833.629 -2.0361 2.19916 0
M  V30 8845 H 831.19 -0.988687 1.28205 0
M  V30 8846 H 833.182 -4.00163 0.604298 0
M  V30 8847 H 831.752 -3.126 0.00275267 0
M  V30 8848 H 830.972 -3.05804 2.48752 0
M  V30 8849 H 832.26 -4.22533 2.83449 0
M  V30 8850 H 831.658 -5.657 -0.00633259 0
M  V30 8851 H 830.215 -6.50708 0.377055 0
M  V30 8852 N 833.648 -1.19017 -1.03309 0
M  V30 8853 C 834.611 -0.926076 -2.09658 0
M  V30 8854 C 835.611 0.0917077 -1.60538 0
M  V30 8855 O 836.801 -0.142574 -1.73616 0
M  V30 8856 C 833.933 -0.390958 -3.38651 0
M  V30 8857 H 835.126 -1.86923 -2.3452 0
M  V30 8858 H 832.679 -1.00325 -1.19853 0
M  V30 8859 H 833.414 0.558446 -3.19456 0
M  V30 8860 H 833.199 -1.12474 -3.75622 0
M  V30 8861 H 834.689 -0.225131 -4.16993 0
M  V30 8862 N 835.127 1.22348 -0.993418 0
M  V30 8863 C 836.543 1.43222 -0.704238 0
M  V30 8864 C 836.743 1.88009 0.724909 0
M  V30 8865 O 835.799 2.03429 1.49575 0
M  V30 8866 C 837.112 2.47328 -1.71025 0
M  V30 8867 C 838.66 2.61126 -1.72576 0
M  V30 8868 C 839.135 3.68453 -2.72041 0
M  V30 8869 N 840.626 3.75911 -2.70639 0
M  V30 8870 C 841.361 4.58551 -3.44266 0
M  V30 8871 N 840.857 5.45179 -4.27495 0
M  V30 8872 N 842.65 4.52866 -3.32969 0
M  V30 8873 H 834.801 0.915832 -1.91641 0
M  V30 8874 H 837.064 0.464283 -0.826526 0
M  V30 8875 H 836.77 2.21366 -2.73295 0
M  V30 8876 H 836.644 3.45939 -1.50353 0
M  V30 8877 H 839.031 2.86431 -0.710037 0
M  V30 8878 H 839.112 1.62787 -1.97317 0
M  V30 8879 H 838.756 3.43895 -3.73763 0
M  V30 8880 H 838.686 4.66362 -2.4457 0
M  V30 8881 H 841.177 3.14014 -2.10247 0
M  V30 8882 H 841.49 6.0526 -4.80499 0
M  V30 8883 H 839.835 5.44759 -4.31582 0
M  V30 8884 H 843.026 3.84215 -2.67389 0
M  V30 8885 H 843.199 5.17039 -3.90608 0
M  V30 8886 N 836.605 0.766683 1.37694 0
M  V30 8887 C 837.851 0.329201 2.0011 0
M  V30 8888 C 838.184 -1.09004 1.60723 0
M  V30 8889 O 837.459 -1.74895 0.850989 0
M  V30 8890 C 837.742 0.466989 3.57059 0
M  V30 8891 C 837.595 1.92828 4.06371 0
M  V30 8892 C 838.914 -0.131792 4.39903 0
M  V30 8893 H 836.033 0.12109 0.726984 0
M  V30 8894 H 838.675 0.968779 1.63446 0
M  V30 8895 H 836.825 -0.0775023 3.88423 0
M  V30 8896 H 838.497 2.53208 3.85595 0
M  V30 8897 H 836.74 2.43884 3.58752 0
M  V30 8898 H 837.411 1.97577 5.15429 0
M  V30 8899 H 839.887 0.332731 4.14768 0
M  V30 8900 H 838.763 -0.005217 5.489 0
M  V30 8901 H 839.024 -1.22156 4.24889 0
M  V30 8902 N 838.083 -1.48885 0.516809 0
M  V30 8903 C 839.013 -2.32241 -0.242157 0
M  V30 8904 C 839.994 -1.41258 -0.947633 0
M  V30 8905 O 841.179 -1.70156 -0.935973 0
M  V30 8906 C 838.309 -3.22151 -1.29754 0
M  V30 8907 C 837.263 -4.22053 -0.710995 0
M  V30 8908 C 836.589 -5.01007 -1.86806 0
M  V30 8909 C 837.889 -5.21388 0.30853 0
M  V30 8910 H 839.583 -2.95943 0.453651 0
M  V30 8911 H 837.129 -1.42316 0.219612 0
M  V30 8912 H 839.082 -3.79284 -1.83634 0
M  V30 8913 H 837.806 -2.56423 -2.02274 0
M  V30 8914 H 836.465 -3.66087 -0.193819 0
M  V30 8915 H 836.113 -4.31713 -2.58133 0
M  V30 8916 H 835.813 -5.68615 -1.48159 0
M  V30 8917 H 837.337 -5.60989 -2.4109 0
M  V30 8918 H 838.751 -5.73122 -0.142703 0
M  V30 8919 H 837.148 -5.96975 0.611673 0
M  V30 8920 H 838.218 -4.69329 1.21894 0
M  V30 8921 N 839.561 -0.251338 -1.55583 0
M  V30 8922 C 840.524 0.63305 -2.20284 0
M  V30 8923 C 841.524 1.09941 -1.17344 0
M  V30 8924 O 842.714 1.00341 -1.42399 0
M  V30 8925 C 839.846 1.8706 -2.84993 0
M  V30 8926 H 841.039 0.0684846 -2.99822 0
M  V30 8927 H 838.592 -0.00181653 -1.563 0
M  V30 8928 H 839.327 2.47629 -2.09405 0
M  V30 8929 H 839.112 1.54436 -3.60405 0
M  V30 8930 H 840.602 2.50004 -3.34496 0
M  V30 8931 N 841.039 1.57585 0.0217189 0
M  V30 8932 C 842.285 1.89887 0.712099 0
M  V30 8933 C 842.618 0.849971 1.74611 0
M  V30 8934 O 841.893 -0.13407 1.94037 0
M  V30 8935 C 842.176 3.32815 1.37499 0
M  V30 8936 C 842.029 4.48405 0.353993 0
M  V30 8937 C 843.348 3.74786 2.30703 0
M  V30 8938 H 840.467 0.690588 0.257405 0
M  V30 8939 H 843.109 1.89983 -0.0251145 0
M  V30 8940 H 841.259 3.32863 2.00335 0
M  V30 8941 H 842.931 4.60491 -0.273015 0
M  V30 8942 H 841.174 4.32573 -0.32599 0
M  V30 8943 H 841.845 5.45316 0.85644 0
M  V30 8944 H 844.321 3.76151 1.77904 0
M  V30 8945 H 843.197 4.75585 2.74061 0
M  V30 8946 H 843.458 3.07449 3.17691 0
M  V30 8947 N 842.517 -0.29412 1.54831 0
M  V30 8948 C 843.427 -1.3854 1.89325 0
M  V30 8949 C 844.443 -1.55127 0.788133 0
M  V30 8950 O 845.619 -1.6966 1.08524 0
M  V30 8951 C 842.684 -2.72809 2.13954 0
M  V30 8952 C 841.745 -2.65148 3.37631 0
M  V30 8953 C 840.978 -3.93014 3.61076 0
M  V30 8954 O 841.201 -4.927 2.87406 0
M  V30 8955 O 840.135 -3.94491 4.54599 0
M  V30 8956 H 843.961 -1.12289 2.82179 0
M  V30 8957 H 841.546 -0.490793 1.41108 0
M  V30 8958 H 843.428 -3.52238 2.31315 0
M  V30 8959 H 842.103 -2.9889 1.24285 0
M  V30 8960 H 841.01 -1.84168 3.25627 0
M  V30 8961 H 842.343 -2.4402 4.27452 0
M  V30 8962 N 843.995 -1.47404 -0.557645 0
M  V30 8963 C 845.411 -1.32913 -0.88353 0
M  V30 8964 C 845.611 -0.31929 -1.98954 0
M  V30 8965 O 844.667 0.26934 -2.51059 0
M  V30 8966 C 845.98 -2.72229 -1.27718 0
M  V30 8967 C 847.528 -2.8051 -1.38863 0
M  V30 8968 C 848.003 -4.20466 -1.81583 0
M  V30 8969 N 849.494 -4.23005 -1.88735 0
M  V30 8970 C 850.229 -5.2821 -2.23118 0
M  V30 8971 N 849.725 -6.4372 -2.56117 0
M  V30 8972 N 851.518 -5.15588 -2.23888 0
M  V30 8973 H 843.669 -2.11698 0.172557 0
M  V30 8974 H 845.932 -0.947889 0.0145334 0
M  V30 8975 H 845.638 -3.47556 -0.538329 0
M  V30 8976 H 845.512 -3.03971 -2.23342 0
M  V30 8977 H 847.899 -2.05457 -2.11829 0
M  V30 8978 H 847.98 -2.52423 -0.414274 0
M  V30 8979 H 847.624 -4.96025 -1.09187 0
M  V30 8980 H 847.554 -4.45977 -2.80021 0
M  V30 8981 H 850.045 -3.39674 -1.65621 0
M  V30 8982 H 850.358 -7.19754 -2.81378 0
M  V30 8983 H 848.703 -6.47041 -2.53698 0
M  V30 8984 H 851.894 -4.24374 -1.97546 0
M  V30 8985 H 852.067 -5.97685 -2.50353 0
M  V30 8986 N 845.473 0.80434 -1.35529 0
M  V30 8987 C 846.703 1.59052 -1.31856 0
M  V30 8988 C 847.111 1.88905 0.105549 0
M  V30 8989 O 846.454 1.49422 1.06858 0
M  V30 8990 C 846.516 2.94626 -2.06 0
M  V30 8991 C 846.18 2.87576 -3.55175 0
M  V30 8992 C 847.177 2.60856 -4.49722 0
M  V30 8993 C 844.862 3.06623 -3.97854 0
M  V30 8994 C 846.856 2.53262 -5.84925 0
M  V30 8995 C 844.543 2.98652 -5.33151 0
M  V30 8996 C 845.541 2.72007 -6.26499 0
M  V30 8997 O 845.229 2.64003 -7.59314 0
M  V30 8998 H 844.961 0.500486 -0.454411 0
M  V30 8999 H 847.515 1.0074 -1.78999 0
M  V30 9000 H 845.745 3.5493 -1.53498 0
M  V30 9001 H 847.434 3.55785 -1.95376 0
M  V30 9002 H 848.2 2.45858 -4.18066 0
M  V30 9003 H 844.079 3.26372 -3.2558 0
M  V30 9004 H 847.623 2.32386 -6.57756 0
M  V30 9005 H 843.52 3.13208 -5.64421 0
M  V30 9006 H 844.288 2.79595 -7.69265 0
M  V30 9007 N 846.951 1.19563 1.02676 0
M  V30 9008 C 847.881 0.959024 2.12897 0
M  V30 9009 C 848.862 -0.108382 1.69754 0
M  V30 9010 O 850.047 0.0470698 1.94143 0
M  V30 9011 C 847.177 0.499211 3.43693 0
M  V30 9012 C 846.131 1.5087 4.00528 0
M  V30 9013 C 845.457 0.905884 5.2697 0
M  V30 9014 C 846.757 2.88954 4.3509 0
M  V30 9015 H 848.451 1.88084 2.32948 0
M  V30 9016 H 845.997 0.905731 1.11949 0
M  V30 9017 H 847.95 0.320965 4.20176 0
M  V30 9018 H 846.674 -0.458205 3.2337 0
M  V30 9019 H 845.333 1.67413 3.26142 0
M  V30 9020 H 844.981 -0.0591506 5.02965 0
M  V30 9021 H 844.681 1.58 5.65959 0
M  V30 9022 H 846.205 0.73848 6.06118 0
M  V30 9023 H 847.619 2.75981 5.02501 0
M  V30 9024 H 846.016 3.53177 4.85166 0
M  V30 9025 H 847.086 3.41447 3.44299 0
M  V30 9026 N 848.429 -1.21819 0.999893 0
M  V30 9027 C 849.845 -1.42847 0.711824 0
M  V30 9028 C 850.045 -1.88391 -0.714928 0
M  V30 9029 O 849.101 -2.0422 -1.48494 0
M  V30 9030 C 850.414 -2.46417 1.72334 0
M  V30 9031 C 851.962 -2.60207 1.73958 0
M  V30 9032 C 852.437 -3.67005 2.73992 0
M  V30 9033 N 853.928 -3.7447 2.72628 0
M  V30 9034 C 854.663 -4.56718 3.46693 0
M  V30 9035 N 854.159 -5.42904 4.3038 0
M  V30 9036 N 855.952 -4.51094 3.35366 0
M  V30 9037 H 848.103 -0.905656 1.92124 0
M  V30 9038 H 850.366 -0.459893 0.828977 0
M  V30 9039 H 850.072 -2.19914 2.74465 0
M  V30 9040 H 849.946 -3.45137 1.52186 0
M  V30 9041 H 852.333 -2.8605 0.725217 0
M  V30 9042 H 852.414 -1.61739 1.98177 0
M  V30 9043 H 852.058 -3.41908 3.75582 0
M  V30 9044 H 851.988 -4.65058 2.4704 0
M  V30 9045 H 854.479 -3.12895 2.11909 0
M  V30 9046 H 854.792 -6.02704 4.83702 0
M  V30 9047 H 853.137 -5.42463 4.34464 0
M  V30 9048 H 856.328 -3.82791 2.69423 0
M  V30 9049 H 856.501 -5.1496 3.93344 0
M  V30 9050 N 849.908 -0.773975 -1.37286 0
M  V30 9051 C 851.185 -0.263942 -1.93811 0
M  V30 9052 C 851.565 1.24138 -1.70743 0
M  V30 9053 O 850.913 2.02557 -1.05749 0
M  V30 9054 C 851.123 -0.639753 -3.43086 0
M  V30 9055 C 852.471 -0.610796 -4.20184 0
M  V30 9056 O 853.495 -0.579278 -3.51458 0
M  V30 9057 O 852.354 -0.639862 -5.42741 0
M  V30 9058 H 849.448 -0.0614331 -0.824715 0
M  V30 9059 H 851.994 -0.855477 -1.46559 0
M  V30 9060 H 850.766 -1.67856 -3.53469 0
M  V30 9061 H 850.389 -0.0212827 -3.97594 0
M  V30 9062 N 851.386 1.48609 -0.524698 0
M  V30 9063 C 852.318 2.27508 0.278 0
M  V30 9064 C 853.331 1.35042 0.909258 0
M  V30 9065 O 854.52 1.60136 0.788592 0
M  V30 9066 C 851.62 3.08247 1.40843 0
M  V30 9067 C 850.793 4.28455 0.880083 0
M  V30 9068 C 849.852 4.91048 1.891 0
M  V30 9069 O 848.878 5.5042 1.45005 0
M  V30 9070 N 850.08 4.82816 3.22288 0
M  V30 9071 H 852.845 2.97037 -0.398642 0
M  V30 9072 H 850.406 1.57876 -0.358698 0
M  V30 9073 H 852.398 3.46992 2.08276 0
M  V30 9074 H 850.968 2.41173 1.98883 0
M  V30 9075 H 850.188 3.94189 0.0299228 0
M  V30 9076 H 851.476 5.06279 0.505881 0
M  V30 9077 H 850.874 4.3572 3.60783 0
M  V30 9078 H 849.431 5.25676 3.85368 0
M  V30 9079 N 852.864 0.259585 1.55447 0
M  V30 9080 C 853.796 -0.667548 2.19263 0
M  V30 9081 C 854.809 -1.12925 1.17268 0
M  V30 9082 O 855.998 -1.05384 1.44071 0
M  V30 9083 C 853.098 -1.92066 2.7922 0
M  V30 9084 C 852.271 -1.60832 4.06758 0
M  V30 9085 C 851.33 -2.71231 4.50911 0
M  V30 9086 O 850.356 -2.38077 5.17019 0
M  V30 9087 N 851.558 -4.00984 4.19752 0
M  V30 9088 H 854.323 -0.121449 2.99454 0
M  V30 9089 H 851.884 0.0800519 1.61702 0
M  V30 9090 H 853.876 -2.65186 3.0571 0
M  V30 9091 H 852.446 -2.37621 2.03113 0
M  V30 9092 H 851.666 -0.711685 3.87722 0
M  V30 9093 H 852.954 -1.37445 4.89884 0
M  V30 9094 H 852.352 -4.30748 3.66706 0
M  V30 9095 H 850.909 -4.7053 4.51048 0
M  V30 9096 N 854.342 -1.57594 -0.0133615 0
M  V30 9097 C 855.272 -2.10611 -1.00823 0
M  V30 9098 C 856.253 -1.01217 -1.36708 0
M  V30 9099 O 857.438 -1.28827 -1.45318 0
M  V30 9100 C 854.568 -2.59844 -2.30431 0
M  V30 9101 C 853.522 -3.73644 -2.08745 0
M  V30 9102 C 852.848 -4.09141 -3.4425 0
M  V30 9103 C 854.148 -5.01454 -1.46086 0
M  V30 9104 H 855.842 -2.93985 -0.566849 0
M  V30 9105 H 853.388 -1.41423 -0.271219 0
M  V30 9106 H 855.341 -2.95557 -3.00373 0
M  V30 9107 H 854.065 -1.73573 -2.76658 0
M  V30 9108 H 852.724 -3.38303 -1.41232 0
M  V30 9109 H 852.372 -3.19914 -3.88155 0
M  V30 9110 H 852.072 -4.85802 -3.3056 0
M  V30 9111 H 853.596 -4.47402 -4.15528 0
M  V30 9112 H 855.01 -5.35024 -2.05966 0
M  V30 9113 H 853.407 -5.82832 -1.42924 0
M  V30 9114 H 854.477 -4.83003 -0.428471 0
M  V30 9115 N 855.82 0.285905 -1.54985 0
M  V30 9116 C 856.75 1.35752 -1.89983 0
M  V30 9117 C 857.731 1.52163 -0.760295 0
M  V30 9118 O 858.916 1.65421 -1.01733 0
M  V30 9119 C 856.046 2.71925 -2.16042 0
M  V30 9120 C 855 2.70261 -3.31878 0
M  V30 9121 C 854.326 4.09864 -3.43388 0
M  V30 9122 C 855.626 2.30667 -4.68604 0
M  V30 9123 H 857.32 1.06709 -2.79738 0
M  V30 9124 H 854.866 0.511884 -1.34595 0
M  V30 9125 H 856.819 3.46992 -2.39113 0
M  V30 9126 H 855.543 3.02523 -1.23074 0
M  V30 9127 H 854.202 1.97651 -3.08755 0
M  V30 9128 H 853.85 4.37664 -2.47909 0
M  V30 9129 H 853.55 4.09648 -4.21262 0
M  V30 9130 H 855.074 4.86689 -3.68736 0
M  V30 9131 H 856.488 2.95453 -4.91305 0
M  V30 9132 H 854.885 2.41637 -5.49301 0
M  V30 9133 H 855.955 1.25793 -4.68299 0
M  V30 9134 N 857.298 1.47698 0.54982 0
M  V30 9135 C 858.546 1.54397 1.30407 0
M  V30 9136 C 858.867 0.211026 1.93855 0
M  V30 9137 O 858.137 -0.765701 1.80316 0
M  V30 9138 H 856.717 0.568747 0.484289 0
M  V30 9139 H 859.379 1.84042 0.641444 0
M  V30 9140 H 858.475 2.31449 2.09375 0
M  V30 9141 N 858.776 -0.797141 1.35954 0
M  V30 9142 C 860.025 -1.54983 1.29086 0
M  V30 9143 C 860.338 -1.95167 -0.130003 0
M  V30 9144 O 861.544 -2.69596 -0.32101 0
M  V30 9145 C 860 -2.79738 2.26439 0
M  V30 9146 C 859.608 -2.46753 3.73921 0
M  V30 9147 C 861.352 -3.57733 2.28533 0
M  V30 9148 C 859.259 -3.67858 4.63071 0
M  V30 9149 H 858.189 -0.581766 0.479651 0
M  V30 9150 H 860.84 -0.87541 1.61273 0
M  V30 9151 H 859.222 -3.48939 1.87236 0
M  V30 9152 H 860.396 -1.85499 4.21814 0
M  V30 9153 H 858.711 -1.81985 3.74527 0
M  V30 9154 H 861.308 -4.47699 2.92351 0
M  V30 9155 H 861.651 -3.95754 1.29169 0
M  V30 9156 H 862.184 -2.95504 2.66313 0
M  V30 9157 H 858.923 -3.34939 5.63468 0
M  V30 9158 H 858.443 -4.28305 4.19898 0
M  V30 9159 H 860.122 -4.34977 4.78961 0
M  V30 9160 N 860.254 -1.20106 -1.0204 0
M  V30 9161 C 861.5 -1.02042 -1.75951 0
M  V30 9162 C 861.855 0.443229 -1.87225 0
M  V30 9163 O 861.148 1.32477 -1.38421 0
M  V30 9164 C 861.342 -1.63308 -3.17908 0
M  V30 9165 C 861.171 -3.15478 -3.20474 0
M  V30 9166 C 859.941 -3.84432 -3.27933 0
M  V30 9167 C 862.139 -4.12747 -3.06829 0
M  V30 9168 N 860.121 -5.23925 -3.19963 0
M  V30 9169 C 861.492 -5.38892 -3.06586 0
M  V30 9170 C 863.547 -4.03996 -2.91018 0
M  V30 9171 C 862.25 -6.57296 -2.92154 0
M  V30 9172 C 864.276 -5.22019 -2.77938 0
M  V30 9173 C 863.638 -6.47067 -2.78358 0
M  V30 9174 H 859.737 -0.427602 -0.654737 0
M  V30 9175 H 862.321 -1.52216 -1.21402 0
M  V30 9176 H 860.492 -1.15723 -3.7076 0
M  V30 9177 H 862.224 -1.38597 -3.80227 0
M  V30 9178 H 858.979 -3.35269 -3.34502 0
M  V30 9179 H 859.403 -5.9694 -3.19362 0
M  V30 9180 H 864.045 -3.0813 -2.8951 0
M  V30 9181 H 861.763 -7.5334 -2.92412 0
M  V30 9182 H 865.349 -5.17057 -2.66728 0
M  V30 9183 H 864.229 -7.36857 -2.6835 0
M  V30 9184 N 861.732 1.21287 -1.00634 0
M  V30 9185 C 862.98 1.90013 -0.688438 0
M  V30 9186 C 863.301 1.78573 0.783365 0
M  V30 9187 O 862.571 1.1815 1.56261 0
M  V30 9188 H 861.151 0.703336 -0.251648 0
M  V30 9189 H 863.813 1.47346 -1.27574 0
M  V30 9190 H 862.909 2.96879 -0.962781 0
M  V30 9191 N 863.21 0.781244 1.36873 0
M  V30 9192 C 864.45 0.355185 2.0129 0
M  V30 9193 C 864.814 -1.05115 1.6067 0
M  V30 9194 O 866.015 -1.57785 2.17618 0
M  V30 9195 C 864.286 0.504587 3.5382 0
M  V30 9196 S 865.845 0.165196 4.38489 0
M  V30 9197 H 862.663 0.136133 0.697846 0
M  V30 9198 H 865.265 1.01794 1.66908 0
M  V30 9199 H 863.969 1.52857 3.80871 0
M  V30 9200 H 863.5 -0.174392 3.93013 0
M  V30 9201 H 865.515 -1.03605 4.85263 0
M  V30 9202 N 864.689 -1.48329 0.532571 0
M  V30 9203 C 865.914 -2.074 0.00147755 0
M  V30 9204 C 866.339 -1.38615 -1.27151 0
M  V30 9205 O 865.697 -0.452949 -1.75551 0
M  V30 9206 C 865.745 -3.60029 -0.202866 0
M  V30 9207 O 864.849 -3.92327 -1.27097 0
M  V30 9208 H 864.19 -0.662777 0.0402883 0
M  V30 9209 H 866.72 -1.90701 0.741224 0
M  V30 9210 H 866.73 -4.05783 -0.424722 0
M  V30 9211 H 865.405 -4.09496 0.727033 0
M  V30 9212 H 863.982 -3.58348 -1.03156 0
M  V30 9213 N 866.167 -0.267825 -1.55308 0
M  V30 9214 C 867.415 0.350343 -1.9904 0
M  V30 9215 C 867.736 1.56924 -1.15758 0
M  V30 9216 O 867.006 1.94358 -0.245336 0
M  V30 9217 H 865.586 0.132435 -0.735167 0
M  V30 9218 H 868.248 -0.371471 -1.91327 0
M  V30 9219 H 867.344 0.645203 -3.05358 0
M  V30 9220 N 867.645 1.57599 0.00500368 0
M  V30 9221 C 868.592 2.08106 0.998025 0
M  V30 9222 C 869.562 0.975374 1.34446 0
M  V30 9223 O 870.747 1.24749 1.44369 0
M  V30 9224 C 867.887 2.58496 2.28635 0
M  V30 9225 C 867 3.82947 1.99939 0
M  V30 9226 C 866.135 4.21857 3.22816 0
M  V30 9227 C 865.174 5.39159 2.89783 0
M  V30 9228 N 864.311 5.73386 4.05183 0
M  V30 9229 H 869.151 2.92684 0.560385 0
M  V30 9230 H 866.688 1.44692 0.265053 0
M  V30 9231 H 868.646 2.85787 3.03943 0
M  V30 9232 H 867.276 1.768 2.70077 0
M  V30 9233 H 866.328 3.62594 1.1502 0
M  V30 9234 H 867.64 4.68358 1.71588 0
M  V30 9235 H 866.794 4.50404 4.06474 0
M  V30 9236 H 865.533 3.35145 3.54301 0
M  V30 9237 H 864.538 5.1034 2.04532 0
M  V30 9238 H 865.763 6.27543 2.59551 0
M  V30 9239 H 863.709 4.89632 4.36574 0
M  V30 9240 H 863.626 6.53359 3.80339 0
M  V30 9241 H 864.894 6.06522 4.89644 0
M  V30 9242 N 869.123 -0.277682 1.55134 0
M  V30 9243 C 870.053 -1.34742 1.90701 0
M  V30 9244 C 871.034 -1.51757 0.768354 0
M  V30 9245 O 872.219 -1.64879 1.02609 0
M  V30 9246 C 869.349 -2.70775 2.17481 0
M  V30 9247 C 868.303 -2.68497 3.33307 0
M  V30 9248 C 867.629 -4.08037 3.45557 0
M  V30 9249 C 868.929 -2.28178 4.69821 0
M  V30 9250 H 870.623 -1.05224 2.803 0
M  V30 9251 H 868.169 -0.504738 1.34864 0
M  V30 9252 H 870.122 -3.45719 2.40949 0
M  V30 9253 H 868.846 -3.01867 1.24676 0
M  V30 9254 H 867.505 -1.9601 3.09799 0
M  V30 9255 H 867.153 -4.36344 2.50226 0
M  V30 9256 H 866.853 -4.07409 4.23429 0
M  V30 9257 H 868.377 -4.84726 3.71312 0
M  V30 9258 H 869.791 -2.92843 4.92865 0
M  V30 9259 H 868.188 -2.3872 5.50575 0
M  V30 9260 H 869.258 -1.23308 4.6896 0
M  V30 9261 N 870.601 -1.47988 -0.541979 0
M  V30 9262 C 871.85 -1.5465 -1.29485 0
M  V30 9263 C 872.163 -0.220041 -1.94358 0
M  V30 9264 O 873.369 -0.164792 -2.70999 0
M  V30 9265 C 871.825 -2.72685 -2.34885 0
M  V30 9266 C 871.433 -4.11923 -1.76134 0
M  V30 9267 C 873.177 -2.88651 -3.11257 0
M  V30 9268 C 871.084 -5.21237 -2.79404 0
M  V30 9269 H 870.014 -0.575688 -0.486928 0
M  V30 9270 H 872.665 -1.74296 -0.573853 0
M  V30 9271 H 871.047 -2.46448 -3.09966 0
M  V30 9272 H 872.221 -4.48128 -1.07322 0
M  V30 9273 H 870.536 -4.00972 -1.12295 0
M  V30 9274 H 873.133 -3.67487 -3.88404 0
M  V30 9275 H 873.476 -1.97658 -3.66384 0
M  V30 9276 H 874.009 -3.14731 -2.43288 0
M  V30 9277 H 870.748 -6.14156 -2.29113 0
M  V30 9278 H 870.268 -4.89533 -3.4658 0
M  V30 9279 H 871.947 -5.48839 -3.42615 0
M  V30 9280 N 872.079 0.78992 -1.36375 0
M  V30 9281 C 873.319 1.56098 -1.31958 0
M  V30 9282 C 873.683 1.91738 0.100197 0
M  V30 9283 O 874.884 2.67451 0.268913 0
M  V30 9284 C 873.155 2.80406 -2.21601 0
M  V30 9285 S 874.714 3.70655 -2.34863 0
M  V30 9286 H 871.532 0.534632 -0.46871 0
M  V30 9287 H 874.134 0.930417 -1.7194 0
M  V30 9288 H 872.838 2.52273 -3.23707 0
M  V30 9289 H 872.369 3.48436 -1.82637 0
M  V30 9290 H 874.384 4.71509 -1.54575 0
M  V30 9291 N 873.557 1.20646 1.01402 0
M  V30 9292 C 874.785 1.04389 1.78635 0
M  V30 9293 C 875.2 -0.406771 1.84366 0
M  V30 9294 O 874.557 -1.28239 1.2985 0
M  V30 9295 C 874.608 1.62378 3.22979 0
M  V30 9296 O 874.329 3.01768 3.17597 0
M  V30 9297 C 875.83 1.5111 4.1675 0
M  V30 9298 H 873.05 0.367077 0.56169 0
M  V30 9299 H 875.594 1.59789 1.27624 0
M  V30 9300 H 873.749 1.11092 3.7113 0
M  V30 9301 H 874.163 3.29331 4.08217 0
M  V30 9302 H 875.637 1.96441 5.15863 0
M  V30 9303 H 876.114 0.464011 4.36742 0
M  V30 9304 H 876.72 2.01599 3.74483 0
M  V30 9305 N 875.035 -1.20752 1.01276 0
M  V30 9306 C 876.263 -1.94006 0.718976 0
M  V30 9307 C 876.678 -1.74544 -0.719711 0
M  V30 9308 O 876.035 -1.05697 -1.48776 0
M  V30 9309 C 876.086 -3.46208 1.04031 0
M  V30 9310 O 875.807 -3.65031 2.42248 0
M  V30 9311 C 877.308 -4.36614 0.767032 0
M  V30 9312 H 874.528 -0.616743 0.264327 0
M  V30 9313 H 877.072 -1.53352 1.3529 0
M  V30 9314 H 875.227 -3.84756 0.451852 0
M  V30 9315 H 875.641 -4.59054 2.53712 0
M  V30 9316 H 877.115 -5.42076 1.04198 0
M  V30 9317 H 877.592 -4.38182 -0.298851 0
M  V30 9318 H 878.198 -4.03723 1.33746 0
M  V30 9319 N 876.513 -0.788492 -1.36457 0
M  V30 9320 C 877.741 -0.372365 -2.03522 0
M  V30 9321 C 878.156 1.01093 -1.59454 0
M  V30 9322 O 877.513 1.64824 -0.783535 0
M  V30 9323 C 877.564 -0.425435 -3.58988 0
M  V30 9324 O 877.285 -1.75418 -4.01448 0
M  V30 9325 C 878.786 0.000180167 -4.433 0
M  V30 9326 H 876.006 -0.1536 -0.653183 0
M  V30 9327 H 878.55 -1.06708 -1.74452 0
M  V30 9328 H 876.705 0.220856 -3.8677 0
M  V30 9329 H 877.119 -1.70437 -4.96036 0
M  V30 9330 H 878.593 -0.0880919 -5.5193 0
M  V30 9331 H 879.07 1.05269 -4.26398 0
M  V30 9332 H 879.676 -0.618563 -4.20778 0
M  V30 9333 N 877.991 1.48044 -0.54043 0
M  V30 9334 C 879.237 2.02797 -0.0101718 0
M  V30 9335 C 879.57 1.41565 1.32939 0
M  V30 9336 O 878.845 0.565139 1.86109 0
M  V30 9337 C 879.128 3.59959 0.100758 0
M  V30 9338 C 878.981 4.31654 -1.26471 0
M  V30 9339 C 880.3 4.32347 0.822455 0
M  V30 9340 H 877.419 0.736982 -0.00517052 0
M  V30 9341 H 880.061 1.76656 -0.69948 0
M  V30 9342 H 878.211 3.82363 0.687824 0
M  V30 9343 H 879.883 4.20639 -1.89369 0
M  V30 9344 H 878.126 3.92663 -1.84386 0
M  V30 9345 H 878.797 5.401 -1.13998 0
M  V30 9346 H 881.273 4.14835 0.324164 0
M  V30 9347 H 880.149 5.41978 0.868993 0
M  V30 9348 H 880.41 4.00369 1.87501 0
M  V30 9349 N 879.47 0.276058 1.55163 0
M  V30 9350 C 880.881 -0.221516 1.85381 0
M  V30 9351 C 881.232 -1.55372 1.19808 0
M  V30 9352 O 880.357 -2.10855 0.486742 0
M  V30 9353 C 880.952 -0.408706 3.36326 0
M  V30 9354 C 879.511 -0.850512 3.66665 0
M  V30 9355 C 878.658 0.055656 2.77244 0
M  V30 9356 H 881.609 0.497819 1.5069 0
M  V30 9357 H 881.63 -1.24711 3.59482 0
M  V30 9358 H 881.142 0.561052 3.84023 0
M  V30 9359 H 879.243 -1.83171 3.24468 0
M  V30 9360 H 879.356 -0.687181 4.74146 0
M  V30 9361 H 877.72 -0.460819 2.50497 0
M  V30 9362 H 878.503 1.02131 3.27756 0
M  V30 9363 N 880.948 -1.576 0.00335426 0
M  V30 9364 C 882.194 -1.91833 -0.676149 0
M  V30 9365 C 882.549 -0.878079 -1.71194 0
M  V30 9366 O 881.842 0.109297 -1.91288 0
M  V30 9367 C 882.036 -3.3058 -1.35837 0
M  V30 9368 C 881.865 -4.48004 -0.390171 0
M  V30 9369 C 880.635 -5.053 0.000648493 0
M  V30 9370 C 882.833 -5.13142 0.344982 0
M  V30 9371 N 880.815 -6.06241 0.966709 0
M  V30 9372 C 882.186 -6.08944 1.16562 0
M  V30 9373 C 884.241 -4.96222 0.408457 0
M  V30 9374 C 882.944 -6.89649 2.04395 0
M  V30 9375 C 884.97 -5.77514 1.27403 0
M  V30 9376 C 884.332 -6.72912 2.08251 0
M  V30 9377 H 880.431 -0.750263 -0.220519 0
M  V30 9378 H 883.015 -1.94593 0.0644891 0
M  V30 9379 H 881.186 -3.28687 -2.06928 0
M  V30 9380 H 882.918 -3.52233 -1.99284 0
M  V30 9381 H 879.673 -4.72165 -0.368428 0
M  V30 9382 H 880.097 -6.61394 1.44521 0
M  V30 9383 H 884.739 -4.22316 -0.202324 0
M  V30 9384 H 882.457 -7.62878 2.66539 0
M  V30 9385 H 886.043 -5.66462 1.3271 0
M  V30 9386 H 884.923 -7.34721 2.74145 0
M  V30 9387 N 882.426 0.269451 -1.5528 0
M  V30 9388 C 883.374 1.35303 -1.89198 0
M  V30 9389 C 884.368 1.50956 -0.768671 0
M  V30 9390 O 885.574 1.52699 -0.953054 0
M  V30 9391 H 881.949 0.452591 -0.600554 0
M  V30 9392 H 883.92 1.03949 -2.79709 0
M  V30 9393 C 882.669 2.70585 -2.18356 0
M  V30 9394 H 881.992 2.59332 -3.04281 0
M  V30 9395 H 883.432 3.45335 -2.46007 0
M  V30 9396 C 881.891 3.21954 -0.992327 0
M  V30 9397 O 882.421 4.01048 -0.228769 0
M  V30 9398 N 880.627 2.79682 -0.789062 0
M  V30 9399 H 880.174 2.15475 -1.41167 0
M  V30 9400 H 880.132 3.14399 0.00634776 0
M  V30 9401 N 883.904 1.48273 0.534124 0
M  V30 9402 C 885.132 1.59734 1.31501 0
M  V30 9403 C 885.547 0.256047 1.87056 0
M  V30 9404 O 884.904 -0.754086 1.66192 0
M  V30 9405 C 884.955 2.64072 2.46877 0
M  V30 9406 O 884.676 3.92995 1.93613 0
M  V30 9407 C 886.177 2.85933 3.38758 0
M  V30 9408 H 883.397 0.538703 0.40005 0
M  V30 9409 H 885.941 1.9407 0.644762 0
M  V30 9410 H 884.096 2.32606 3.09795 0
M  V30 9411 H 884.51 4.50203 2.69106 0
M  V30 9412 H 885.984 3.62749 4.16073 0
M  V30 9413 H 886.461 1.94603 3.93734 0
M  V30 9414 H 887.067 3.18687 2.81636 0
M  V30 9415 N 885.382 -0.782676 1.36792 0
M  V30 9416 C 886.607 -1.57676 1.34733 0
M  V30 9417 C 887.032 -1.87979 -0.0675253 0
M  V30 9418 O 886.39 -1.48404 -1.04144 0
M  V30 9419 C 886.438 -2.87047 2.18257 0
M  V30 9420 O 885.542 -3.80946 1.57969 0
M  V30 9421 H 884.883 -0.478034 0.460846 0
M  V30 9422 H 887.413 -0.969578 1.80168 0
M  V30 9423 H 887.423 -3.36254 2.31079 0
M  V30 9424 H 886.098 -2.64319 3.21104 0
M  V30 9425 H 884.675 -3.39558 1.54126 0
M  V30 9426 N 886.86 -1.21182 -1.00761 0
M  V30 9427 C 888.106 -1.03903 -1.74859 0
M  V30 9428 C 888.461 0.423347 -1.87685 0
M  V30 9429 O 887.754 1.31001 -1.39819 0
M  V30 9430 C 887.948 -1.6667 -3.16158 0
M  V30 9431 C 887.777 -3.1886 -3.1711 0
M  V30 9432 C 886.547 -3.87888 -3.23838 0
M  V30 9433 C 888.745 -4.15978 -3.02434 0
M  V30 9434 N 886.727 -5.27289 -3.14388 0
M  V30 9435 C 888.098 -5.42114 -3.00854 0
M  V30 9436 C 890.153 -4.0706 -2.86717 0
M  V30 9437 C 888.856 -6.60358 -2.85166 0
M  V30 9438 C 890.882 -5.24938 -2.72386 0
M  V30 9439 C 890.244 -6.49983 -2.71479 0
M  V30 9440 H 886.343 -0.434522 -0.650165 0
M  V30 9441 H 888.927 -1.53495 -1.1978 0
M  V30 9442 H 887.098 -1.19649 -3.69511 0
M  V30 9443 H 888.83 -1.42622 -3.78736 0
M  V30 9444 H 885.585 -3.38798 -3.30927 0
M  V30 9445 H 886.009 -6.00293 -3.13013 0
M  V30 9446 H 890.651 -3.11183 -2.86226 0
M  V30 9447 H 888.369 -7.56399 -2.84405 0
M  V30 9448 H 891.955 -5.19857 -2.61228 0
M  V30 9449 H 890.835 -7.39662 -2.6052 0
M  V30 9450 N 888.338 1.20213 -1.01915 0
M  V30 9451 C 889.563 1.94163 -0.729076 0
M  V30 9452 C 889.988 1.74416 0.704323 0
M  V30 9453 O 889.346 1.0401 1.48498 0
M  V30 9454 C 889.394 3.44258 -1.07324 0
M  V30 9455 O 888.498 4.11979 -0.186367 0
M  V30 9456 H 887.839 0.606506 -0.270272 0
M  V30 9457 H 890.369 1.52571 -1.3632 0
M  V30 9458 H 890.379 3.94888 -1.02603 0
M  V30 9459 H 889.054 3.57954 -2.11759 0
M  V30 9460 H 887.631 3.7176 -0.291334 0
M  V30 9461 N 889.816 0.795718 1.36037 0
M  V30 9462 C 890.764 0.18649 2.31851 0
M  V30 9463 C 891.758 -0.657704 1.56111 0
M  V30 9464 O 892.964 -0.552083 1.71324 0
M  V30 9465 H 889.339 0.0415363 0.750852 0
M  V30 9466 H 891.31 1.00992 2.8079 0
M  V30 9467 C 890.059 -0.65918 3.41394 0
M  V30 9468 H 889.382 -0.01894 3.99796 0
M  V30 9469 H 890.822 -1.05202 4.10741 0
M  V30 9470 C 889.281 -1.82011 2.83502 0
M  V30 9471 O 889.811 -2.91703 2.76174 0
M  V30 9472 N 888.017 -1.62821 2.40703 0
M  V30 9473 H 887.564 -0.735965 2.46863 0
M  V30 9474 H 887.522 -2.40657 2.02316 0
M  V30 9475 N 891.294 -1.47756 0.548274 0
M  V30 9476 C 892.241 -2.29893 -0.204408 0
M  V30 9477 C 893.211 -1.38509 -0.916761 0
M  V30 9478 O 894.396 -1.67472 -0.91421 0
M  V30 9479 C 891.536 -3.22282 -1.23403 0
M  V30 9480 C 890.649 -4.28753 -0.528654 0
M  V30 9481 C 889.784 -5.08303 -1.54279 0
M  V30 9482 C 888.823 -6.06557 -0.821893 0
M  V30 9483 N 887.96 -6.79098 -1.78243 0
M  V30 9484 H 892.8 -2.93739 0.502163 0
M  V30 9485 H 890.337 -1.44793 0.259471 0
M  V30 9486 H 892.295 -3.74262 -1.84348 0
M  V30 9487 H 890.925 -2.6032 -1.90875 0
M  V30 9488 H 889.977 -3.79899 0.195132 0
M  V30 9489 H 891.289 -4.98787 0.0365066 0
M  V30 9490 H 890.443 -5.64388 -2.22602 0
M  V30 9491 H 889.182 -4.3815 -2.14186 0
M  V30 9492 H 888.187 -5.49659 -0.12469 0
M  V30 9493 H 889.412 -6.78715 -0.228685 0
M  V30 9494 H 887.358 -6.11682 -2.37025 0
M  V30 9495 H 887.275 -7.4527 -1.26919 0
M  V30 9496 H 888.543 -7.39762 -2.45709 0
M  V30 9497 N 892.772 -0.284283 -1.55015 0
M  V30 9498 C 893.997 0.335799 -2.04664 0
M  V30 9499 C 894.422 1.47999 -1.16094 0
M  V30 9500 O 893.78 1.8058 -0.161454 0
M  V30 9501 C 893.828 0.785615 -3.51938 0
M  V30 9502 O 892.932 1.89202 -3.66437 0
M  V30 9503 H 892.273 0.0680233 -0.660506 0
M  V30 9504 H 894.803 -0.421255 -2.00216 0
M  V30 9505 H 894.813 1.07892 -3.93476 0
M  V30 9506 H 893.488 -0.0514675 -4.15868 0
M  V30 9507 H 892.065 1.60055 -3.36804 0
M  V30 9508 N 894.251 1.57596 -0.0117121 0
M  V30 9509 C 895.181 2.12188 0.9746 0
M  V30 9510 C 896.162 1.03379 1.35081 0
M  V30 9511 O 897.347 1.31123 1.4325 0
M  V30 9512 C 894.477 2.63477 2.26268 0
M  V30 9513 C 893.431 3.76917 2.02774 0
M  V30 9514 C 892.757 4.14566 3.37697 0
M  V30 9515 C 894.057 5.03715 1.38089 0
M  V30 9516 H 895.751 2.9485 0.520007 0
M  V30 9517 H 893.297 1.41836 0.248685 0
M  V30 9518 H 895.25 3.00299 2.95633 0
M  V30 9519 H 893.974 1.77953 2.73862 0
M  V30 9520 H 892.633 3.40507 1.35832 0
M  V30 9521 H 892.281 3.26048 3.83016 0
M  V30 9522 H 891.981 4.91 3.22789 0
M  V30 9523 H 893.505 4.53956 4.08358 0
M  V30 9524 H 894.919 5.38233 1.97428 0
M  V30 9525 H 893.316 5.85032 1.33634 0
M  V30 9526 H 894.386 4.83624 0.351575 0
M  V30 9527 N 895.729 -0.261212 1.5542 0
M  V30 9528 C 896.677 -1.34298 1.89913 0
M  V30 9529 C 897.671 -1.50547 0.776665 0
M  V30 9530 O 898.877 -1.52191 0.961139 0
M  V30 9531 H 895.252 -0.4494 0.602946 0
M  V30 9532 H 897.223 -1.02464 2.80256 0
M  V30 9533 C 895.972 -2.69423 2.19788 0
M  V30 9534 H 895.295 -2.57715 3.05652 0
M  V30 9535 H 896.735 -3.44026 2.47835 0
M  V30 9536 C 895.194 -3.21423 1.00939 0
M  V30 9537 O 895.724 -4.00921 0.250034 0
M  V30 9538 N 893.93 -2.7926 0.803883 0
M  V30 9539 H 893.477 -2.14724 1.42308 0
M  V30 9540 H 893.435 -3.14398 0.0103257 0
M  V30 9541 N 897.207 -1.48554 -0.526253 0
M  V30 9542 C 898.117 -1.66044 -1.65731 0
M  V30 9543 C 899.133 -0.542951 -1.65312 0
M  V30 9544 O 900.309 -0.814495 -1.84195 0
M  V30 9545 C 897.374 -1.69959 -3.02184 0
M  V30 9546 C 896.435 -2.93362 -3.13428 0
M  V30 9547 C 895.668 -2.97081 -4.43372 0
M  V30 9548 O 895.891 -2.09103 -5.3069 0
M  V30 9549 O 894.825 -3.8929 -4.59061 0
M  V30 9550 H 898.651 -2.61811 -1.53912 0
M  V30 9551 H 896.236 -1.31999 -0.699759 0
M  V30 9552 H 898.118 -1.75033 -3.83329 0
M  V30 9553 H 896.793 -0.773658 -3.14319 0
M  V30 9554 H 895.7 -2.93818 -2.31564 0
M  V30 9555 H 897.033 -3.85352 -3.06211 0
M  V30 9556 N 898.685 0.775411 -1.37205 0
M  V30 9557 C 899.934 1.52909 -1.31536 0
M  V30 9558 C 900.247 1.9535 0.0989374 0
M  V30 9559 O 901.453 2.70072 0.278079 0
M  V30 9560 C 899.909 2.761 -2.30861 0
M  V30 9561 C 899.517 2.40773 -3.77799 0
M  V30 9562 C 901.261 3.54052 -2.34195 0
M  V30 9563 C 899.168 3.60444 -4.68865 0
M  V30 9564 H 898.098 0.574061 -0.488845 0
M  V30 9565 H 900.749 0.849642 -1.62645 0
M  V30 9566 H 899.131 3.45916 -1.92764 0
M  V30 9567 H 900.305 1.78764 -4.24712 0
M  V30 9568 H 898.62 1.76004 -3.77375 0
M  V30 9569 H 901.217 4.42992 -2.99437 0
M  V30 9570 H 901.56 3.93649 -1.35449 0
M  V30 9571 H 902.093 2.91229 -2.7098 0
M  V30 9572 H 898.832 3.25932 -5.68725 0
M  V30 9573 H 898.352 4.21571 -4.26659 0
M  V30 9574 H 900.031 4.27302 -4.85821 0
M  V30 9575 N 900.163 1.21714 1.00117 0
M  V30 9576 C 901.409 1.04829 1.74306 0
M  V30 9577 C 901.764 -0.413387 1.87907 0
M  V30 9578 O 901.057 -1.30258 1.40512 0
M  V30 9579 C 901.251 1.68345 3.15269 0
M  V30 9580 C 901.08 3.20537 3.15414 0
M  V30 9581 C 899.85 3.896 3.21776 0
M  V30 9582 C 902.048 4.17576 3.00224 0
M  V30 9583 N 900.03 5.28949 3.11587 0
M  V30 9584 C 901.401 5.43701 2.97974 0
M  V30 9585 C 903.456 4.08575 2.84554 0
M  V30 9586 C 902.159 6.61861 2.8166 0
M  V30 9587 C 904.185 5.26375 2.69598 0
M  V30 9588 C 903.547 6.51414 2.68028 0
M  V30 9589 H 899.646 0.437964 0.647852 0
M  V30 9590 H 902.23 1.54128 1.18965 0
M  V30 9591 H 900.401 1.21607 3.68872 0
M  V30 9592 H 902.133 1.44629 3.77974 0
M  V30 9593 H 898.888 3.40548 3.29126 0
M  V30 9594 H 899.312 6.01945 3.09825 0
M  V30 9595 H 903.954 3.12696 2.84571 0
M  V30 9596 H 901.672 7.57896 2.8039 0
M  V30 9597 H 905.258 5.21235 2.58468 0
M  V30 9598 H 904.138 7.41033 2.56593 0
M  V30 9599 N 901.641 -1.19671 1.02551 0
M  V30 9600 C 902.918 -1.85014 0.634771 0
M  V30 9601 C 903.298 -1.91574 -0.886706 0
M  V30 9602 O 902.646 -1.43022 -1.78205 0
M  V30 9603 C 902.856 -3.24167 1.29292 0
M  V30 9604 C 904.204 -4.00363 1.41402 0
M  V30 9605 O 905.228 -3.33553 1.24983 0
M  V30 9606 O 904.087 -5.2003 1.6802 0
M  V30 9607 H 901.181 -0.797147 0.220196 0
M  V30 9608 H 903.727 -1.27188 1.12345 0
M  V30 9609 H 902.499 -3.14208 2.33215 0
M  V30 9610 H 902.122 -3.89634 0.791895 0
M  V30 9611 N 903.119 -0.802921 -1.35613 0
M  V30 9612 C 904.067 -0.198783 -2.31749 0
M  V30 9613 C 905.061 0.649416 -1.56458 0
M  V30 9614 O 906.267 0.542989 -1.71615 0
M  V30 9615 H 902.642 -0.0455177 -0.750621 0
M  V30 9616 H 904.613 -1.02479 -2.80251 0
M  V30 9617 C 903.362 0.641066 -3.41739 0
M  V30 9618 H 902.685 -0.00226244 -3.998 0
M  V30 9619 H 904.125 1.03022 -4.11294 0
M  V30 9620 C 902.584 1.80505 -2.84464 0
M  V30 9621 O 903.114 2.90235 -2.77717 0
M  V30 9622 N 901.32 1.61542 -2.41563 0
M  V30 9623 H 900.867 0.722863 -2.4725 0
M  V30 9624 H 900.825 2.39581 -2.03589 0
M  V30 9625 N 904.597 1.47463 -0.556102 0
M  V30 9626 C 905.53 2.26934 0.240027 0
M  V30 9627 C 906.508 1.33981 0.921297 0
M  V30 9628 O 907.692 1.63361 0.940506 0
M  V30 9629 C 904.819 3.10982 1.34194 0
M  V30 9630 C 903.865 4.19504 0.769342 0
M  V30 9631 S 904.698 5.34127 -0.383209 0
M  V30 9632 C 905.854 6.21739 0.720548 0
M  V30 9633 H 906.087 2.9411 -0.434348 0
M  V30 9634 H 903.62 1.50556 -0.342402 0
M  V30 9635 H 905.578 3.59976 1.973 0
M  V30 9636 H 904.239 2.4317 1.98814 0
M  V30 9637 H 903.432 4.78036 1.59679 0
M  V30 9638 H 903.034 3.73385 0.214475 0
M  V30 9639 H 905.326 6.58021 1.61292 0
M  V30 9640 H 906.269 7.0789 0.172602 0
M  V30 9641 H 906.677 5.55342 1.01272 0
M  V30 9642 N 906.075 0.2925 1.54862 0
M  V30 9643 C 907.303 -0.322113 2.04377 0
M  V30 9644 C 907.718 -1.48164 1.17016 0
M  V30 9645 O 907.075 -1.81466 0.19395 0
M  V30 9646 C 907.126 -0.786506 3.5284 0
M  V30 9647 O 906.847 0.326863 4.36879 0
M  V30 9648 C 908.348 -1.46715 4.18318 0
M  V30 9649 H 905.568 -0.0712074 0.667211 0
M  V30 9650 H 908.112 0.429657 1.99935 0
M  V30 9651 H 906.267 -1.48832 3.5767 0
M  V30 9652 H 906.681 -0.0331558 5.2449 0
M  V30 9653 H 908.155 -1.74333 5.23748 0
M  V30 9654 H 908.632 -2.40443 3.67538 0
M  V30 9655 H 909.238 -0.808735 4.1754 0
M  V30 9656 N 907.553 -1.57587 0.0200696 0
M  V30 9657 C 908.799 -1.92539 -0.655764 0
M  V30 9658 C 909.154 -0.896187 -1.70253 0
M  V30 9659 O 908.447 0.0890022 -1.91393 0
M  V30 9660 C 908.641 -3.32002 -1.32323 0
M  V30 9661 C 908.47 -4.48393 -0.342632 0
M  V30 9662 C 907.24 -5.05271 0.0542423 0
M  V30 9663 C 909.438 -5.12747 0.399388 0
M  V30 9664 N 907.42 -6.05181 1.03095 0
M  V30 9665 C 908.791 -6.07674 1.23014 0
M  V30 9666 C 910.846 -4.95761 0.461065 0
M  V30 9667 C 909.549 -6.87442 2.11698 0
M  V30 9668 C 911.575 -5.7613 1.33521 0
M  V30 9669 C 910.937 -6.70666 2.15376 0
M  V30 9670 H 907.036 -0.75256 -0.212549 0
M  V30 9671 H 909.62 -1.94514 0.0851247 0
M  V30 9672 H 907.791 -3.30863 -2.0343 0
M  V30 9673 H 909.523 -3.54327 -1.95537 0
M  V30 9674 H 906.278 -4.72529 -0.318327 0
M  V30 9675 H 906.702 -6.59824 1.51528 0
M  V30 9676 H 911.344 -4.22506 -0.15752 0
M  V30 9677 H 909.062 -7.60008 2.74616 0
M  V30 9678 H 912.648 -5.65023 1.38711 0
M  V30 9679 H 911.528 -7.31772 2.81922 0
M  V30 9680 N 909.032 0.252966 -1.55557 0
M  V30 9681 C 909.965 1.33928 -1.84766 0
M  V30 9682 C 910.943 1.46653 -0.702254 0
M  V30 9683 O 912.127 1.62963 -0.947375 0
M  V30 9684 C 909.254 2.71348 -2.02701 0
M  V30 9685 C 908.3 2.75804 -3.25322 0
M  V30 9686 S 909.133 2.33025 -4.82141 0
M  V30 9687 C 910.289 3.72382 -5.03073 0
M  V30 9688 H 910.522 1.08951 -2.76617 0
M  V30 9689 H 908.055 0.45364 -1.47585 0
M  V30 9690 H 910.013 3.50478 -2.13718 0
M  V30 9691 H 908.674 2.93566 -1.11703 0
M  V30 9692 H 907.867 3.76713 -3.34819 0
M  V30 9693 H 907.469 2.04713 -3.12999 0
M  V30 9694 H 909.761 4.67828 -4.90044 0
M  V30 9695 H 910.704 3.67824 -6.05071 0
M  V30 9696 H 911.112 3.64614 -4.30949 0
M  V30 9697 N 910.51 1.48831 0.518367 0
M  V30 9698 C 911.457 1.64216 1.62178 0
M  V30 9699 C 912.427 0.483942 1.58894 0
M  V30 9700 O 913.612 0.708857 1.77144 0
M  V30 9701 C 910.752 1.69867 3.00399 0
M  V30 9702 C 909.865 2.96875 3.1383 0
M  V30 9703 C 909 2.93613 4.42679 0
M  V30 9704 C 908.039 4.15276 4.4968 0
M  V30 9705 N 907.176 4.10024 5.69934 0
M  V30 9706 H 912.016 2.58439 1.48368 0
M  V30 9707 H 909.553 1.28154 0.722152 0
M  V30 9708 H 911.511 1.71124 3.8049 0
M  V30 9709 H 910.141 0.791249 3.12952 0
M  V30 9710 H 909.193 3.0531 2.26914 0
M  V30 9711 H 910.505 3.86863 3.14863 0
M  V30 9712 H 909.659 2.93337 5.31073 0
M  V30 9713 H 908.398 2.01375 4.44184 0
M  V30 9714 H 907.403 4.15816 3.59691 0
M  V30 9715 H 908.628 5.08687 4.49904 0
M  V30 9716 H 906.574 3.20613 5.72314 0
M  V30 9717 H 906.491 4.93728 5.72511 0
M  V30 9718 H 907.759 4.13824 6.60583 0
M  V30 9719 N 911.988 -0.768124 1.37614 0
M  V30 9720 C 913.234 -1.52823 1.34226 0
M  V30 9721 C 913.589 -1.92266 -0.0717482 0
M  V30 9722 O 912.882 -1.61484 -1.03119 0
M  V30 9723 C 913.076 -2.80204 2.21856 0
M  V30 9724 C 912.905 -2.53213 3.71636 0
M  V30 9725 C 911.675 -2.47159 4.40727 0
M  V30 9726 C 913.873 -2.20965 4.64413 0
M  V30 9727 N 911.855 -2.12289 5.76026 0
M  V30 9728 C 913.226 -1.96264 5.88116 0
M  V30 9729 C 915.281 -2.07151 4.52761 0
M  V30 9730 C 913.984 -1.59145 7.01474 0
M  V30 9731 C 916.01 -1.71432 5.66008 0
M  V30 9732 C 915.372 -1.47594 6.88764 0
M  V30 9733 H 911.471 -0.559388 0.546451 0
M  V30 9734 H 914.055 -0.895795 1.72869 0
M  V30 9735 H 912.226 -3.4128 1.85424 0
M  V30 9736 H 913.958 -3.46133 2.097 0
M  V30 9737 H 910.713 -2.63137 3.93772 0
M  V30 9738 H 911.137 -1.97541 6.47539 0
M  V30 9739 H 915.779 -2.24262 3.58422 0
M  V30 9740 H 913.497 -1.40773 7.95744 0
M  V30 9741 H 917.083 -1.61397 5.58965 0
M  V30 9742 H 915.963 -1.20365 7.74908 0
M  V30 9743 N 913.466 -1.22244 -0.994698 0
M  V30 9744 C 914.376 -1.00722 -2.11878 0
M  V30 9745 C 915.392 0.043919 -1.73945 0
M  V30 9746 O 916.568 -0.148411 -2.00852 0
M  V30 9747 C 913.633 -0.585723 -3.41717 0
M  V30 9748 C 912.694 -1.71027 -3.93762 0
M  V30 9749 C 911.927 -1.30879 -5.17403 0
M  V30 9750 O 912.15 -0.18681 -5.70094 0
M  V30 9751 O 911.084 -2.1246 -5.63156 0
M  V30 9752 H 914.91 -1.94894 -2.32916 0
M  V30 9753 H 912.495 -1.00822 -1.10251 0
M  V30 9754 H 914.377 -0.360935 -4.19851 0
M  V30 9755 H 913.052 0.327166 -3.22042 0
M  V30 9756 H 911.959 -1.98956 -3.16808 0
M  V30 9757 H 913.292 -2.60096 -4.17865 0
M  V30 9758 N 914.944 1.19125 -1.03184 0
M  V30 9759 C 916.36 1.40909 -0.749447 0
M  V30 9760 C 916.56 1.9022 0.664729 0
M  V30 9761 O 915.616 2.08085 1.43028 0
M  V30 9762 C 916.929 2.41761 -1.78807 0
M  V30 9763 C 918.477 2.55503 -1.80796 0
M  V30 9764 C 918.952 3.59612 -2.83626 0
M  V30 9765 N 920.443 3.6711 -2.82461 0
M  V30 9766 C 921.178 4.47366 -3.5868 0
M  V30 9767 N 920.674 5.31302 -4.44623 0
M  V30 9768 N 922.467 4.42044 -3.47208 0
M  V30 9769 H 914.618 0.854399 -1.94458 0
M  V30 9770 H 916.881 0.437753 -0.840878 0
M  V30 9771 H 916.587 2.12559 -2.80199 0
M  V30 9772 H 916.461 3.40981 -1.61283 0
M  V30 9773 H 918.848 2.84027 -0.800803 0
M  V30 9774 H 918.929 1.56427 -2.02396 0
M  V30 9775 H 918.573 3.3183 -3.84515 0
M  V30 9776 H 918.503 4.58345 -2.59283 0
M  V30 9777 H 920.994 3.07166 -2.2013 0
M  V30 9778 H 921.307 5.89667 -4.99512 0
M  V30 9779 H 919.652 5.30753 -4.48694 0
M  V30 9780 H 922.843 3.75513 -2.79477 0
M  V30 9781 H 923.016 5.0435 -4.06859 0
M  V30 9782 N 916.422 0.810101 1.35185 0
M  V30 9783 C 917.332 0.224565 2.33523 0
M  V30 9784 C 918.348 -0.634287 1.62027 0
M  V30 9785 O 919.524 -0.545211 1.9388 0
M  V30 9786 C 916.589 -0.614319 3.41214 0
M  V30 9787 C 915.65 0.265435 4.28479 0
M  V30 9788 C 914.883 -0.533506 5.31027 0
M  V30 9789 O 915.106 -1.7679 5.42311 0
M  V30 9790 O 914.04 0.0774573 6.0185 0
M  V30 9791 H 917.866 1.03815 2.85405 0
M  V30 9792 H 915.451 0.571964 1.38018 0
M  V30 9793 H 917.333 -1.09201 4.07005 0
M  V30 9794 H 916.008 -1.40545 2.91597 0
M  V30 9795 H 914.915 0.790343 3.65656 0
M  V30 9796 H 916.248 1.0206 4.81503 0
M  V30 9797 N 917.9 -1.47166 0.563914 0
M  V30 9798 C 919.149 -2.0166 0.0401871 0
M  V30 9799 C 919.462 -1.44303 -1.32046 0
M  V30 9800 O 920.668 -1.905 -1.93448 0
M  V30 9801 C 919.124 -3.59894 0.0213257 0
M  V30 9802 C 918.732 -4.26244 1.37914 0
M  V30 9803 C 920.476 -4.22114 -0.449442 0
M  V30 9804 C 918.383 -5.76503 1.31902 0
M  V30 9805 H 917.313 -0.753916 0.0112534 0
M  V30 9806 H 919.964 -1.69091 0.712766 0
M  V30 9807 H 918.346 -3.89454 -0.717038 0
M  V30 9808 H 919.52 -4.08317 2.13574 0
M  V30 9809 H 917.835 -3.76039 1.78839 0
M  V30 9810 H 920.432 -5.32234 -0.51292 0
M  V30 9811 H 920.775 -3.89749 -1.46291 0
M  V30 9812 H 921.308 -3.9711 0.23427 0
M  V30 9813 H 918.047 -6.13498 2.3087 0
M  V30 9814 H 917.567 -5.96748 0.604324 0
M  V30 9815 H 919.246 -6.38846 1.02392 0
M  V30 9816 N 919.378 -0.300708 -1.54705 0
M  V30 9817 C 920.655 0.361757 -1.92226 0
M  V30 9818 C 921.035 1.71714 -1.2279 0
M  V30 9819 O 920.383 2.2559 -0.363542 0
M  V30 9820 C 920.593 0.476699 -3.45729 0
M  V30 9821 C 921.941 0.7477 -4.17965 0
M  V30 9822 O 922.965 0.560521 -3.51762 0
M  V30 9823 O 921.824 1.10724 -5.35166 0
M  V30 9824 H 918.918 0.202213 -0.801897 0
M  V30 9825 H 921.464 -0.348746 -1.66078 0
M  V30 9826 H 920.236 -0.476132 -3.88392 0
M  V30 9827 H 919.859 1.23568 -3.77911 0
M  V30 9828 N 920.856 1.57574 -0.0284266 0
M  V30 9829 C 921.804 2.11332 0.971675 0
M  V30 9830 C 922.798 1.03974 1.33738 0
M  V30 9831 O 924.004 1.22409 1.31969 0
M  V30 9832 H 920.379 0.675174 0.331125 0
M  V30 9833 H 922.35 2.943 0.49296 0
M  V30 9834 C 921.099 2.65496 2.24516 0
M  V30 9835 H 920.422 3.47753 1.9725 0
M  V30 9836 H 921.862 3.06757 2.92705 0
M  V30 9837 C 920.321 1.58207 2.97443 0
M  V30 9838 O 920.851 0.981496 3.89525 0
M  V30 9839 N 919.057 1.30269 2.59766 0
M  V30 9840 H 918.604 1.79294 1.84963 0
M  V30 9841 H 918.562 0.587085 3.0887 0
M  V30 9842 N 922.334 -0.244713 1.55689 0
M  V30 9843 C 923.564 -0.988508 1.81417 0
M  V30 9844 C 923.972 -1.79362 0.602143 0
M  V30 9845 O 923.315 -1.78386 -0.438639 0
M  V30 9846 C 923.377 -1.97287 3.0053 0
M  V30 9847 C 923.041 -1.35448 4.36466 0
M  V30 9848 C 924.038 -0.755874 5.14376 0
M  V30 9849 C 921.723 -1.37319 4.83165 0
M  V30 9850 C 923.717 -0.184218 6.37134 0
M  V30 9851 C 921.404 -0.797681 6.05871 0
M  V30 9852 C 922.402 -0.204224 6.82695 0
M  V30 9853 O 922.09 0.362392 8.03083 0
M  V30 9854 H 921.822 -0.296412 0.607549 0
M  V30 9855 H 924.376 -0.272185 2.03589 0
M  V30 9856 H 922.606 -2.72756 2.74119 0
M  V30 9857 H 924.295 -2.58028 3.13331 0
M  V30 9858 H 925.061 -0.733912 4.79415 0
M  V30 9859 H 920.94 -1.8245 4.23359 0
M  V30 9860 H 924.484 0.279624 6.97039 0
M  V30 9861 H 920.381 -0.816978 6.40309 0
M  V30 9862 H 921.149 0.254467 8.18104 0
M  V30 9863 N 923.813 -1.49104 -0.510467 0
M  V30 9864 C 925.041 -1.61806 -1.28944 0
M  V30 9865 C 925.456 -0.285774 -1.86625 0
M  V30 9866 O 924.813 0.727551 -1.67371 0
M  V30 9867 C 924.864 -2.67966 -2.42645 0
M  V30 9868 O 924.585 -3.96026 -1.87337 0
M  V30 9869 C 926.086 -2.91286 -3.34166 0
M  V30 9870 H 923.306 -0.544999 -0.391429 0
M  V30 9871 H 925.85 -1.95071 -0.613805 0
M  V30 9872 H 924.005 -2.37505 -3.06056 0
M  V30 9873 H 924.419 -4.54427 -2.61909 0
M  V30 9874 H 925.893 -3.69323 -4.1025 0
M  V30 9875 H 926.37 -2.00842 -3.90588 0
M  V30 9876 H 926.976 -3.23127 -2.76531 0
M  V30 9877 N 925.291 0.760815 -1.38019 0
M  V30 9878 C 926.241 1.86487 -1.31174 0
M  V30 9879 C 927.225 1.59684 -0.197414 0
M  V30 9880 O 928.417 1.71628 -0.432764 0
M  V30 9881 C 925.546 3.24103 -1.13192 0
M  V30 9882 C 924.632 3.5682 -2.29216 0
M  V30 9883 N 925.023 3.60644 -3.5464 0
M  V30 9884 C 923.321 3.87047 -2.2161 0
M  V30 9885 C 924.022 3.90423 -4.31214 0
M  V30 9886 N 922.998 4.06883 -3.60482 0
M  V30 9887 H 926.8 1.87711 -2.26146 0
M  V30 9888 H 924.314 0.957811 -1.31148 0
M  V30 9889 H 926.311 4.03101 -1.06372 0
M  V30 9890 H 924.971 3.24135 -0.191473 0
M  V30 9891 H 925.982 3.42581 -3.88405 0
M  V30 9892 H 922.659 3.94837 -1.35684 0
M  V30 9893 H 924.049 4.00065 -5.39812 0
M  V30 9894 N 926.769 1.22769 0.988202 0
M  V30 9895 C 928.018 1.0492 1.72263 0
M  V30 9896 C 928.331 -0.415282 1.91141 0
M  V30 9897 O 929.537 -0.713547 2.61956 0
M  V30 9898 C 927.993 1.82891 3.09966 0
M  V30 9899 C 927.601 3.33618 2.99003 0
M  V30 9900 C 929.345 1.73505 3.87423 0
M  V30 9901 C 927.252 4.04012 4.3189 0
M  V30 9902 H 926.182 0.38899 0.645912 0
M  V30 9903 H 928.833 1.46664 1.10281 0
M  V30 9904 H 927.215 1.33948 3.72658 0
M  V30 9905 H 928.389 3.8999 2.45448 0
M  V30 9906 H 926.704 3.43732 2.35027 0
M  V30 9907 H 929.301 2.23416 4.85787 0
M  V30 9908 H 929.644 0.696344 4.10435 0
M  V30 9909 H 930.177 2.20016 3.31418 0
M  V30 9910 H 926.916 5.08155 4.14075 0
M  V30 9911 H 926.436 3.52428 4.8534 0
M  V30 9912 H 928.115 4.0987 5.00615 0
M  V30 9913 N 928.247 -1.18576 1.03814 0
M  V30 9914 C 929.496 -1.87822 0.735235 0
M  V30 9915 C 929.809 -1.81069 -0.739819 0
M  V30 9916 O 931.015 -2.45654 -1.15614 0
M  V30 9917 C 929.471 -3.36941 1.26486 0
M  V30 9918 C 929.079 -3.5223 2.76836 0
M  V30 9919 C 930.823 -4.11604 1.03836 0
M  V30 9920 C 928.73 -4.95294 3.23169 0
M  V30 9921 H 927.66 -0.703487 0.271333 0
M  V30 9922 H 930.311 -1.34 1.25365 0
M  V30 9923 H 928.693 -3.90217 0.674318 0
M  V30 9924 H 929.867 -3.09239 3.41625 0
M  V30 9925 H 928.182 -2.90969 2.97869 0
M  V30 9926 H 930.779 -5.17123 1.3597 0
M  V30 9927 H 931.122 -4.16293 -0.0244945 0
M  V30 9928 H 931.655 -3.64494 1.59338 0
M  V30 9929 H 928.394 -4.95772 4.28824 0
M  V30 9930 H 927.914 -5.3901 2.63113 0
M  V30 9931 H 929.593 -5.63996 3.17045 0
M  V30 9932 N 929.725 -0.817259 -1.34754 0
M  V30 9933 C 930.955 -0.414849 -2.02392 0
M  V30 9934 C 931.363 0.982186 -1.61709 0
M  V30 9935 O 930.706 1.64607 -0.815481 0
M  V30 9936 C 930.768 -0.430981 -3.56907 0
M  V30 9937 C 930.432 -1.78037 -4.20894 0
M  V30 9938 C 931.429 -2.74034 -4.41816 0
M  V30 9939 C 929.114 -2.0673 -4.57786 0
M  V30 9940 C 931.108 -3.96901 -4.98747 0
M  V30 9941 C 928.795 -3.29858 -5.14429 0
M  V30 9942 C 929.793 -4.24761 -5.34853 0
M  V30 9943 O 929.481 -5.45714 -5.90298 0
M  V30 9944 H 929.213 -0.165392 -0.655455 0
M  V30 9945 H 931.767 -1.10524 -1.73129 0
M  V30 9946 H 929.997 0.316074 -3.85406 0
M  V30 9947 H 931.686 -0.0494067 -4.0587 0
M  V30 9948 H 932.452 -2.53161 -4.13684 0
M  V30 9949 H 928.331 -1.33666 -4.41197 0
M  V30 9950 H 931.875 -4.70987 -5.14604 0
M  V30 9951 H 927.772 -3.50597 -5.41989 0
M  V30 9952 H 928.54 -5.47157 -6.08738 0
M  V30 9953 N 931.203 1.46865 -0.571711 0
M  V30 9954 C 932.428 2.07323 -0.0564655 0
M  V30 9955 C 932.853 1.41938 1.23431 0
M  V30 9956 O 932.211 0.499334 1.74288 0
M  V30 9957 C 932.259 3.6044 0.107339 0
M  V30 9958 O 931.363 3.95558 1.1665 0
M  V30 9959 H 930.704 0.661475 -0.0578465 0
M  V30 9960 H 933.234 1.88669 -0.791524 0
M  V30 9961 H 933.244 4.06767 0.316987 0
M  V30 9962 H 931.919 4.07425 -0.835348 0
M  V30 9963 H 930.496 3.60957 0.936189 0
M  V30 9964 N 932.681 0.308908 1.54543 0
M  V30 9965 C 933.611 -0.556657 2.26768 0
M  V30 9966 C 934.592 -1.13145 1.27013 0
M  V30 9967 O 935.777 -1.15931 1.558 0
M  V30 9968 C 932.907 -1.72481 3.01443 0
M  V30 9969 C 931.861 -1.28001 4.08411 0
M  V30 9970 C 931.187 -2.53395 4.70845 0
M  V30 9971 C 932.487 -0.405497 5.20724 0
M  V30 9972 H 934.181 0.0457618 2.99365 0
M  V30 9973 H 931.727 0.0234495 1.43981 0
M  V30 9974 H 933.68 -2.3365 3.50693 0
M  V30 9975 H 932.404 -2.35359 2.26437 0
M  V30 9976 H 931.063 -0.69133 3.60022 0
M  V30 9977 H 930.711 -3.14604 3.92471 0
M  V30 9978 H 930.411 -2.2433 5.43093 0
M  V30 9979 H 931.935 -3.15352 5.22863 0
M  V30 9980 H 933.349 -0.923076 5.6582 0
M  V30 9981 H 931.746 -0.208282 5.99738 0
M  V30 9982 H 932.816 0.567412 4.81569 0
M  V30 9983 N 934.159 -1.57557 0.0367827 0
M  V30 9984 C 935.408 -1.91291 -0.639569 0
M  V30 9985 C 935.721 -0.915601 -1.72847 0
M  V30 9986 O 936.927 -1.14447 -2.46199 0
M  V30 9987 C 935.383 -3.39697 -1.18888 0
M  V30 9988 C 934.991 -4.47803 -0.132851 0
M  V30 9989 C 936.735 -3.82487 -1.8413 0
M  V30 9990 C 934.642 -5.87311 -0.694229 0
M  V30 9991 H 933.572 -0.713886 -0.242658 0
M  V30 9992 H 936.223 -1.83209 0.103332 0
M  V30 9993 H 934.605 -3.42736 -1.98363 0
M  V30 9994 H 935.779 -4.56334 0.640009 0
M  V30 9995 H 934.094 -4.14264 0.421264 0
M  V30 9996 H 936.691 -4.84076 -2.27101 0
M  V30 9997 H 937.034 -3.17959 -2.68716 0
M  V30 9998 H 937.567 -3.81903 -1.11332 0
M  V30 9999 H 934.306 -6.55401 0.113667 0
M  V30 10000 H 933.826 -5.82371 -1.4354 0
M  V30 10001 H 935.505 -6.36119 -1.1816 0
M  V30 10002 N 935.637 0.236453 -1.55816 0
M  V30 10003 C 936.547 1.31418 -1.94336 0
M  V30 10004 C 937.563 1.52095 -0.845164 0
M  V30 10005 O 938.739 1.65515 -1.14746 0
M  V30 10006 C 935.804 2.6468 -2.23932 0
M  V30 10007 C 934.865 2.52435 -3.47239 0
M  V30 10008 C 934.098 3.79342 -3.75414 0
M  V30 10009 O 934.321 4.81694 -3.05495 0
M  V30 10010 O 933.255 3.77347 -4.68927 0
M  V30 10011 H 937.081 1.01739 -2.86152 0
M  V30 10012 H 934.666 0.438084 -1.42833 0
M  V30 10013 H 936.548 3.4341 -2.44228 0
M  V30 10014 H 935.223 2.94071 -1.35292 0
M  V30 10015 H 934.13 1.71955 -3.32238 0
M  V30 10016 H 935.463 2.27987 -4.36214 0
M  V30 10017 N 937.115 1.49373 0.502552 0
M  V30 10018 C 938.047 1.62045 1.62093 0
M  V30 10019 C 939.06 0.503221 1.54827 0
M  V30 10020 O 940.249 0.775208 1.60788 0
M  V30 10021 C 937.349 1.55971 3.00876 0
M  V30 10022 C 936.522 2.832 3.33341 0
M  V30 10023 C 935.581 2.702 4.51529 0
M  V30 10024 O 934.607 3.44132 4.53389 0
M  V30 10025 N 935.809 1.81642 5.5135 0
M  V30 10026 H 938.574 2.58501 1.51649 0
M  V30 10027 H 936.135 1.46442 0.690396 0
M  V30 10028 H 938.127 1.4493 3.77859 0
M  V30 10029 H 936.697 0.673795 3.05252 0
M  V30 10030 H 935.917 3.08604 2.4527 0
M  V30 10031 H 937.205 3.67551 3.51829 0
M  V30 10032 H 936.603 1.20829 5.52645 0
M  V30 10033 H 935.16 1.76524 6.27441 0
M  V30 10034 N 938.594 -0.753485 1.38421 0
M  V30 10035 C 939.819 -1.54783 1.38047 0
M  V30 10036 C 940.244 -1.8808 -0.0276371 0
M  V30 10037 O 939.602 -1.5058 -1.00973 0
M  V30 10038 C 939.65 -2.82353 2.24297 0
M  V30 10039 O 938.754 -3.77509 1.66014 0
M  V30 10040 H 938.095 -0.468151 0.470883 0
M  V30 10041 H 940.625 -0.931144 1.82184 0
M  V30 10042 H 940.635 -3.31277 2.38159 0
M  V30 10043 H 939.31 -2.57449 3.26639 0
M  V30 10044 H 937.887 -3.36212 1.61294 0
M  V30 10045 N 940.072 -1.23292 -0.981677 0
M  V30 10046 C 941.004 -0.970782 -2.07626 0
M  V30 10047 C 942.017 0.0547506 -1.62708 0
M  V30 10048 O 943.206 -0.180623 -1.77584 0
M  V30 10049 C 940.306 -0.44055 -3.36024 0
M  V30 10050 C 939.479 -1.52595 -4.09919 0
M  V30 10051 C 938.538 -1.00082 -5.16595 0
M  V30 10052 O 937.564 -1.68951 -5.43548 0
M  V30 10053 N 938.766 0.172017 -5.80245 0
M  V30 10054 H 941.531 -1.91316 -2.30691 0
M  V30 10055 H 939.092 -1.14133 -1.14828 0
M  V30 10056 H 941.084 -0.0743111 -4.04632 0
M  V30 10057 H 939.654 0.407211 -3.09936 0
M  V30 10058 H 938.874 -2.06501 -3.35784 0
M  V30 10059 H 940.162 -2.2559 -4.56055 0
M  V30 10060 H 939.56 0.748129 -5.60731 0
M  V30 10061 H 938.117 0.479532 -6.50034 0
M  V30 10062 N 941.55 1.18024 -1.04442 0
M  V30 10063 C 942.498 2.23834 -0.632557 0
M  V30 10064 C 943.492 1.65902 0.342488 0
M  V30 10065 O 944.698 1.78778 0.20937 0
M  V30 10066 H 941.073 0.728544 -0.186353 0
M  V30 10067 H 943.044 2.55876 -1.53526 0
M  V30 10068 C 941.793 3.47697 -0.0153661 0
M  V30 10069 H 941.116 3.92574 -0.756704 0
M  V30 10070 H 942.556 4.23345 0.235541 0
M  V30 10071 C 941.015 3.13416 1.23579 0
M  V30 10072 O 941.545 3.27499 2.3261 0
M  V30 10073 N 939.751 2.67708 1.13053 0
M  V30 10074 H 939.298 2.56449 0.243277 0
M  V30 10075 H 939.256 2.45143 1.96855 0
M  V30 10076 N 943.028 0.824394 1.34319 0
M  V30 10077 C 943.96 0.204805 2.28283 0
M  V30 10078 C 944.973 -0.606162 1.51094 0
M  V30 10079 O 946.162 -0.435602 1.73103 0
M  V30 10080 C 943.262 -0.73139 3.30914 0
M  V30 10081 C 942.435 0.0370723 4.37384 0
M  V30 10082 C 941.494 -0.820272 5.19767 0
M  V30 10083 O 940.52 -0.264721 5.68584 0
M  V30 10084 N 941.722 -2.13984 5.39621 0
M  V30 10085 H 944.487 1.0121 2.82093 0
M  V30 10086 H 942.048 0.681494 1.46858 0
M  V30 10087 H 944.04 -1.30958 3.82926 0
M  V30 10088 H 942.61 -1.43943 2.77487 0
M  V30 10089 H 941.83 0.796578 3.86068 0
M  V30 10090 H 943.118 0.566014 5.05642 0
M  V30 10091 H 942.516 -2.61492 5.01636 0
M  V30 10092 H 941.073 -2.66685 5.94746 0
M  V30 10093 N 944.506 -1.46559 0.579492 0
M  V30 10094 C 945.438 -2.28383 -0.19337 0
M  V30 10095 C 946.451 -1.38324 -0.858511 0
M  V30 10096 O 947.64 -1.62952 -0.728615 0
M  V30 10097 C 944.74 -3.13262 -1.29306 0
M  V30 10098 C 943.913 -4.31426 -0.720459 0
M  V30 10099 C 942.972 -4.97728 -1.70744 0
M  V30 10100 O 941.998 -5.55423 -1.24476 0
M  V30 10101 N 943.2 -4.94445 -3.04146 0
M  V30 10102 H 945.965 -2.95353 0.508611 0
M  V30 10103 H 943.526 -1.56436 0.417046 0
M  V30 10104 H 945.518 -3.54483 -1.95254 0
M  V30 10105 H 944.088 -2.48388 -1.89795 0
M  V30 10106 H 943.308 -3.94028 0.116398 0
M  V30 10107 H 944.596 -5.07808 -0.31763 0
M  V30 10108 H 943.994 -4.4881 -3.44363 0
M  V30 10109 H 942.551 -5.39616 -3.65592 0
M  V30 10110 N 945.984 -0.3171 -1.54377 0
M  V30 10111 C 946.894 0.560867 -2.27797 0
M  V30 10112 C 947.91 1.13473 -1.31908 0
M  V30 10113 O 949.086 1.15608 -1.64914 0
M  V30 10114 C 946.151 1.70886 -3.0166 0
M  V30 10115 C 945.212 1.16745 -4.13121 0
M  V30 10116 C 944.445 2.26073 -4.83453 0
M  V30 10117 O 944.668 3.46292 -4.53252 0
M  V30 10118 O 943.602 1.91856 -5.70504 0
M  V30 10119 H 947.428 -0.035193 -3.0368 0
M  V30 10120 H 945.013 -0.0830062 -1.49169 0
M  V30 10121 H 946.895 2.37736 -3.47936 0
M  V30 10122 H 945.57 2.29122 -2.28658 0
M  V30 10123 H 944.477 0.464224 -3.71209 0
M  V30 10124 H 945.81 0.630307 -4.88147 0
M  V30 10125 N 947.462 1.57535 -0.0451378 0
M  V30 10126 C 948.409 2.11176 0.931313 0
M  V30 10127 C 949.379 1.01765 1.31275 0
M  V30 10128 O 950.564 1.29279 1.40327 0
M  V30 10129 C 947.704 2.65639 2.20295 0
M  V30 10130 C 946.817 3.89114 1.87654 0
M  V30 10131 C 945.952 4.31914 3.09232 0
M  V30 10132 C 944.991 5.48105 2.72484 0
M  V30 10133 N 944.128 5.85986 3.86736 0
M  V30 10134 H 948.968 2.94318 0.466986 0
M  V30 10135 H 946.505 1.45462 0.218886 0
M  V30 10136 H 948.463 2.95312 2.94697 0
M  V30 10137 H 947.093 1.85303 2.64316 0
M  V30 10138 H 946.145 3.6607 1.03427 0
M  V30 10139 H 947.457 4.7358 1.56601 0
M  V30 10140 H 946.611 4.63108 3.91939 0
M  V30 10141 H 945.35 3.46247 3.43459 0
M  V30 10142 H 944.355 5.16589 1.88192 0
M  V30 10143 H 945.58 6.35482 2.39455 0
M  V30 10144 H 943.526 5.03273 4.20775 0
M  V30 10145 H 943.443 6.65129 3.5936 0
M  V30 10146 H 944.711 6.21793 4.701 0
M  V30 10147 N 948.94 -0.228186 1.55939 0
M  V30 10148 C 949.888 -1.30239 1.92719 0
M  V30 10149 C 950.882 -1.48865 0.808424 0
M  V30 10150 O 952.088 -1.50118 0.993204 0
M  V30 10151 H 948.463 -0.436509 0.612343 0
M  V30 10152 H 950.434 -0.964965 2.82367 0
M  V30 10153 C 949.183 -2.647 2.25453 0
M  V30 10154 H 948.506 -2.51173 3.1105 0
M  V30 10155 H 949.946 -3.38691 2.55077 0
M  V30 10156 C 948.405 -3.1921 1.07734 0
M  V30 10157 O 948.935 -4.00301 0.335019 0
M  V30 10158 N 947.141 -2.77492 0.862938 0
M  V30 10159 H 946.688 -2.11657 1.4683 0
M  V30 10160 H 946.646 -3.14306 0.0770119 0
M  V30 10161 N 950.418 -1.49637 -0.494624 0
M  V30 10162 C 951.328 -1.69522 -1.62172 0
M  V30 10163 C 952.344 -0.577894 -1.64123 0
M  V30 10164 O 953.52 -0.853382 -1.82426 0
M  V30 10165 C 950.585 -1.7633 -2.9851 0
M  V30 10166 C 949.646 -2.99944 -3.07135 0
M  V30 10167 C 948.879 -3.06419 -4.36971 0
M  V30 10168 O 949.102 -2.20312 -5.26136 0
M  V30 10169 O 948.036 -3.9894 -4.507 0
M  V30 10170 H 951.862 -2.65017 -1.48324 0
M  V30 10171 H 949.447 -1.33454 -0.671603 0
M  V30 10172 H 951.329 -1.83125 -3.7953 0
M  V30 10173 H 950.004 -0.840155 -3.12607 0
M  V30 10174 H 948.911 -2.98664 -2.2528 0
M  V30 10175 H 950.244 -3.9176 -2.97968 0
M  V30 10176 N 951.896 0.746133 -1.38819 0
M  V30 10177 C 952.828 1.86991 -1.3254 0
M  V30 10178 C 953.841 1.61077 -0.236216 0
M  V30 10179 O 955.03 1.71518 -0.494341 0
M  V30 10180 C 952.13 3.22786 -1.03258 0
M  V30 10181 C 951.303 3.76145 -2.23234 0
M  V30 10182 C 950.362 4.90474 -1.90581 0
M  V30 10183 O 949.388 5.04717 -2.63153 0
M  V30 10184 N 950.59 5.74015 -0.86525 0
M  V30 10185 H 953.355 1.92885 -2.2938 0
M  V30 10186 H 950.916 0.926392 -1.32776 0
M  V30 10187 H 952.908 3.96824 -0.794533 0
M  V30 10188 H 951.478 3.12231 -0.151895 0
M  V30 10189 H 950.698 2.93587 -2.63059 0
M  V30 10190 H 951.986 4.08528 -3.03285 0
M  V30 10191 H 951.384 5.65086 -0.263577 0
M  V30 10192 H 949.941 6.48168 -0.687087 0
M  V30 10193 N 953.375 1.23811 0.975125 0
M  V30 10194 C 954.285 1.0408 2.10249 0
M  V30 10195 C 955.301 -0.0162404 1.73992 0
M  V30 10196 O 956.477 0.180346 2.00591 0
M  V30 10197 C 953.542 0.640013 3.40741 0
M  V30 10198 C 952.603 1.7727 3.90991 0
M  V30 10199 C 951.836 1.39094 5.15256 0
M  V30 10200 O 952.059 0.277483 5.69725 0
M  V30 10201 O 950.993 2.21392 5.59704 0
M  V30 10202 H 954.819 1.98575 2.29786 0
M  V30 10203 H 952.404 1.02563 1.08633 0
M  V30 10204 H 954.286 0.427684 4.19224 0
M  V30 10205 H 952.961 -0.27589 3.22522 0
M  V30 10206 H 951.868 2.03971 3.13602 0
M  V30 10207 H 953.201 2.66711 4.13674 0
M  V30 10208 N 954.853 -1.17469 1.05066 0
M  V30 10209 C 955.783 -2.23635 0.671552 0
M  V30 10210 C 956.764 -1.66867 -0.33006 0
M  V30 10211 O 957.949 -1.93084 -0.207933 0
M  V30 10212 C 955.079 -3.47272 0.0441845 0
M  V30 10213 C 954.033 -4.16854 0.97042 0
M  V30 10214 C 953.359 -5.34299 0.206998 0
M  V30 10215 C 954.659 -4.69225 2.29401 0
M  V30 10216 H 956.353 -2.55602 1.55911 0
M  V30 10217 H 953.899 -1.2286 0.751101 0
M  V30 10218 H 955.852 -4.20756 -0.23282 0
M  V30 10219 H 954.576 -3.14568 -0.878311 0
M  V30 10220 H 953.235 -3.4528 1.23197 0
M  V30 10221 H 952.883 -4.97846 -0.718222 0
M  V30 10222 H 952.583 -5.81792 0.82416 0
M  V30 10223 H 954.107 -6.10568 -0.0627525 0
M  V30 10224 H 955.521 -5.34353 2.077 0
M  V30 10225 H 953.918 -5.27291 2.86503 0
M  V30 10226 H 954.988 -3.86102 2.93348 0
M  V30 10227 N 956.331 -0.831506 -1.3388 0
M  V30 10228 C 957.261 -0.274378 -2.31882 0
M  V30 10229 C 958.242 0.613872 -1.58637 0
M  V30 10230 O 959.427 0.538961 -1.86571 0
M  V30 10231 C 956.557 0.557498 -3.42796 0
M  V30 10232 C 955.511 -0.234337 -4.27358 0
M  V30 10233 C 954.837 0.720825 -5.29819 0
M  V30 10234 C 956.137 -1.44732 -5.01847 0
M  V30 10235 H 957.831 -1.09322 -2.78728 0
M  V30 10236 H 955.377 -0.527136 -1.34005 0
M  V30 10237 H 957.33 0.957501 -4.10378 0
M  V30 10238 H 956.054 1.40947 -2.94621 0
M  V30 10239 H 954.713 -0.61581 -3.61391 0
M  V30 10240 H 954.361 1.569 -4.77903 0
M  V30 10241 H 954.061 0.195171 -5.87276 0
M  V30 10242 H 955.585 1.1185 -6.00268 0
M  V30 10243 H 956.999 -1.12087 -5.62236 0
M  V30 10244 H 955.396 -1.90923 -5.68919 0
M  V30 10245 H 956.466 -2.22099 -4.31045 0
M  V30 10246 N 957.809 1.4625 -0.587256 0
M  V30 10247 C 958.772 2.28812 0.133238 0
M  V30 10248 C 959.772 1.38645 0.814513 0
M  V30 10249 O 960.962 1.60975 0.665774 0
M  V30 10250 C 958.094 3.19147 1.19824 0
M  V30 10251 H 959.287 2.93991 -0.592386 0
M  V30 10252 H 956.84 1.52435 -0.345416 0
M  V30 10253 H 957.575 2.58725 1.95529 0
M  V30 10254 H 957.36 3.85541 0.71418 0
M  V30 10255 H 958.85 3.81278 1.70344 0
M  V30 10256 N 959.287 0.325282 1.54207 0
M  V30 10257 C 960.217 -0.532574 2.27345 0
M  V30 10258 C 961.198 -1.11791 1.28206 0
M  V30 10259 O 962.383 -1.14272 1.57021 0
M  V30 10260 C 959.513 -1.69274 3.03255 0
M  V30 10261 C 958.467 -1.23662 4.09746 0
M  V30 10262 C 957.793 -2.48386 4.73506 0
M  V30 10263 C 959.093 -0.350244 5.21124 0
M  V30 10264 H 960.787 0.0775108 2.993 0
M  V30 10265 H 958.333 0.0387193 1.43948 0
M  V30 10266 H 960.286 -2.29917 3.53152 0
M  V30 10267 H 959.01 -2.32944 2.28921 0
M  V30 10268 H 957.669 -0.653106 3.60735 0
M  V30 10269 H 957.317 -3.10424 3.95786 0
M  V30 10270 H 957.017 -2.18558 5.45441 0
M  V30 10271 H 958.541 -3.09789 5.26178 0
M  V30 10272 H 959.955 -0.863011 5.66767 0
M  V30 10273 H 958.352 -0.14466 5.99926 0
M  V30 10274 H 959.422 0.618457 4.8094 0
M  V30 10275 N 960.765 -1.57509 0.0534917 0
M  V30 10276 C 962.042 -1.84137 -0.659767 0
M  V30 10277 C 962.422 -0.942362 -1.88899 0
M  V30 10278 O 961.77 -0.00398566 -2.285 0
M  V30 10279 C 961.98 -3.33919 -1.01486 0
M  V30 10280 C 963.328 -4.00989 -1.39616 0
M  V30 10281 O 964.352 -3.38557 -1.10713 0
M  V30 10282 O 963.211 -5.11071 -1.93567 0
M  V30 10283 H 960.305 -0.760081 -0.325893 0
M  V30 10284 H 962.851 -1.69497 0.0830315 0
M  V30 10285 H 961.623 -3.91046 -0.141041 0
M  V30 10286 H 961.246 -3.53755 -1.81503 0
M  V30 10287 N 962.243 0.219913 -1.56058 0
M  V30 10288 C 963.19 1.27254 -1.92549 0
M  V30 10289 C 964.16 1.46493 -0.782883 0
M  V30 10290 O 965.345 1.60035 -1.03892 0
M  V30 10291 C 962.485 2.61756 -2.24896 0
M  V30 10292 C 961.598 2.50302 -3.52098 0
M  V30 10293 C 960.733 3.77338 -3.73884 0
M  V30 10294 C 959.772 3.60613 -4.94595 0
M  V30 10295 N 958.909 4.79603 -5.12763 0
M  V30 10296 H 963.749 0.954352 -2.82305 0
M  V30 10297 H 961.286 0.459928 -1.39725 0
M  V30 10298 H 963.244 3.40082 -2.4166 0
M  V30 10299 H 961.874 2.91668 -1.38311 0
M  V30 10300 H 960.926 1.63401 -3.43517 0
M  V30 10301 H 962.238 2.33866 -4.40577 0
M  V30 10302 H 961.392 4.64108 -3.90754 0
M  V30 10303 H 960.131 3.96702 -2.83689 0
M  V30 10304 H 959.136 2.72228 -4.77674 0
M  V30 10305 H 960.361 3.42719 -5.86277 0
M  V30 10306 H 958.307 4.99277 -4.2551 0
M  V30 10307 H 958.224 4.65899 -5.95377 0
M  V30 10308 H 959.492 5.67794 -5.34069 0
M  V30 10309 N 963.721 1.49897 0.486681 0
M  V30 10310 C 964.967 1.61313 1.23893 0
M  V30 10311 C 965.322 0.302457 1.90008 0
M  V30 10312 O 964.615 -0.698466 1.78415 0
M  V30 10313 C 964.809 2.71982 2.31863 0
M  V30 10314 C 964.638 4.13685 1.76338 0
M  V30 10315 C 963.408 4.8029 1.57002 0
M  V30 10316 C 965.606 4.98446 1.26711 0
M  V30 10317 N 963.588 6.06259 0.965564 0
M  V30 10318 C 964.959 6.15011 0.784912 0
M  V30 10319 C 967.014 4.84338 1.15419 0
M  V30 10320 C 965.717 7.19019 0.200942 0
M  V30 10321 C 967.743 5.88508 0.584173 0
M  V30 10322 C 967.105 7.04311 0.112272 0
M  V30 10323 H 963.204 0.644555 0.442801 0
M  V30 10324 H 965.788 1.86959 0.543562 0
M  V30 10325 H 963.959 2.48086 2.98844 0
M  V30 10326 H 965.691 2.72842 2.98897 0
M  V30 10327 H 962.446 4.37324 1.81781 0
M  V30 10328 H 962.87 6.73554 0.6822 0
M  V30 10329 H 967.512 3.95107 1.50499 0
M  V30 10330 H 965.23 8.07937 -0.162099 0
M  V30 10331 H 968.816 5.79653 0.49938 0
M  V30 10332 H 967.696 7.83539 -0.321907 0
M  V30 10333 N 965.199 -0.738761 1.39212 0
M  V30 10334 C 966.162 -1.83441 1.37412 0
M  V30 10335 C 967.162 -1.58484 0.271908 0
M  V30 10336 O 968.352 -1.65954 0.529609 0
M  V30 10337 C 965.484 -3.21167 1.143 0
M  V30 10338 H 966.677 -1.86441 2.34904 0
M  V30 10339 H 964.23 -0.942023 1.24722 0
M  V30 10340 H 964.965 -3.23829 0.174756 0
M  V30 10341 H 964.75 -3.40678 1.94116 0
M  V30 10342 H 966.24 -4.01231 1.15773 0
M  V30 10343 N 966.677 -1.24326 -0.968545 0
M  V30 10344 C 967.902 -1.1104 -1.75171 0
M  V30 10345 C 968.327 0.333109 -1.85127 0
M  V30 10346 O 967.685 1.24115 -1.32156 0
M  V30 10347 C 967.733 -1.75397 -3.15068 0
M  V30 10348 O 966.837 -1.02417 -3.9948 0
M  V30 10349 H 966.178 -0.388488 -0.538491 0
M  V30 10350 H 968.708 -1.64617 -1.215 0
M  V30 10351 H 968.718 -1.8112 -3.65595 0
M  V30 10352 H 967.393 -2.80427 -3.07138 0
M  V30 10353 H 965.97 -1.04475 -3.57966 0
M  V30 10354 N 968.156 1.1691 -1.05688 0
M  V30 10355 C 969.086 2.23275 -0.683402 0
M  V30 10356 C 970.067 1.6704 0.321206 0
M  V30 10357 O 971.252 1.93191 0.197691 0
M  V30 10358 C 968.382 3.47244 -0.0626006 0
M  V30 10359 C 967.336 4.16333 -0.992513 0
M  V30 10360 C 966.662 5.34182 -0.23533 0
M  V30 10361 C 967.962 4.68002 -2.31886 0
M  V30 10362 H 969.656 2.54771 -1.57264 0
M  V30 10363 H 967.202 1.2246 -0.757606 0
M  V30 10364 H 969.155 4.20874 0.210503 0
M  V30 10365 H 967.879 3.1503 0.861616 0
M  V30 10366 H 966.538 3.44622 -1.25026 0
M  V30 10367 H 966.186 4.9822 0.69181 0
M  V30 10368 H 965.886 5.81346 -0.855002 0
M  V30 10369 H 967.41 6.10592 0.0303717 0
M  V30 10370 H 968.824 5.33244 -2.10531 0
M  V30 10371 H 967.221 5.25764 -2.89296 0
M  V30 10372 H 968.291 3.84541 -2.95391 0
M  V30 10373 N 969.634 0.838594 1.33437 0
M  V30 10374 C 970.88 0.444042 1.98494 0
M  V30 10375 C 971.235 -0.985759 1.65229 0
M  V30 10376 O 970.528 -1.67972 0.921736 0
M  V30 10377 C 970.722 0.601425 3.52303 0
M  V30 10378 C 970.551 2.04497 4.00513 0
M  V30 10379 C 969.321 2.68015 4.28364 0
M  V30 10380 C 971.519 3.01367 4.16752 0
M  V30 10381 N 969.501 4.03448 4.62713 0
M  V30 10382 C 970.872 4.21745 4.54457 0
M  V30 10383 C 972.927 2.97776 3.99041 0
M  V30 10384 C 971.63 5.39009 4.76301 0
M  V30 10385 C 973.656 4.14269 4.22061 0
M  V30 10386 C 973.018 5.33402 4.60067 0
M  V30 10387 H 969.117 0.210906 0.753022 0
M  V30 10388 H 971.701 1.0866 1.61558 0
M  V30 10389 H 969.872 -0.0113326 3.88398 0
M  V30 10390 H 971.604 0.178343 4.04307 0
M  V30 10391 H 968.359 2.19153 4.19844 0
M  V30 10392 H 968.783 4.73264 4.84098 0
M  V30 10393 H 973.425 2.06801 3.68773 0
M  V30 10394 H 971.143 6.30529 5.0543 0
M  V30 10395 H 974.729 4.12908 4.09876 0
M  V30 10396 H 973.609 6.22045 4.77525 0
M  V30 10397 N 971.112 -1.45937 0.595003 0
M  V30 10398 C 972.06 -2.32155 -0.143798 0
M  V30 10399 C 973.054 -1.45221 -0.872198 0
M  V30 10400 O 974.26 -1.61777 -0.789191 0
M  V30 10401 H 970.635 -0.749165 -0.0652377 0
M  V30 10402 H 972.606 -2.92264 0.602005 0
M  V30 10403 C 971.355 -3.28615 -1.13611 0
M  V30 10404 H 970.678 -3.95496 -0.585044 0
M  V30 10405 H 972.118 -3.91699 -1.62321 0
M  V30 10406 C 970.577 -2.54863 -2.20333 0
M  V30 10407 O 971.107 -2.32071 -3.27881 0
M  V30 10408 N 969.313 -2.15213 -1.95274 0
M  V30 10409 H 968.86 -2.33949 -1.07822 0
M  V30 10410 H 968.818 -1.66188 -2.66888 0
M  V30 10411 N 972.59 -0.333456 -1.54032 0
M  V30 10412 C 973.836 0.259248 -2.01741 0
M  V30 10413 C 974.191 1.48999 -1.21725 0
M  V30 10414 O 973.484 1.89333 -0.293882 0
M  V30 10415 C 973.678 0.63565 -3.51702 0
M  V30 10416 C 973.507 -0.55707 -4.46236 0
M  V30 10417 C 972.277 -1.05925 -4.94073 0
M  V30 10418 C 974.475 -1.41237 -4.94527 0
M  V30 10419 N 972.457 -2.21535 -5.72534 0
M  V30 10420 C 973.828 -2.41551 -5.71011 0
M  V30 10421 C 975.883 -1.43899 -4.76652 0
M  V30 10422 C 974.586 -3.44342 -6.31523 0
M  V30 10423 C 976.612 -2.45567 -5.38006 0
M  V30 10424 C 975.974 -3.44606 -6.1435 0
M  V30 10425 H 972.073 0.0584431 -0.779813 0
M  V30 10426 H 974.657 -0.470736 -1.88924 0
M  V30 10427 H 972.828 1.33475 -3.64745 0
M  V30 10428 H 974.56 1.21067 -3.86167 0
M  V30 10429 H 971.315 -0.628947 -4.69405 0
M  V30 10430 H 971.739 -2.79878 -6.16439 0
M  V30 10431 H 976.381 -0.686929 -4.17182 0
M  V30 10432 H 974.099 -4.20449 -6.90107 0
M  V30 10433 H 977.685 -2.4844 -5.26088 0
M  V30 10434 H 976.565 -4.21987 -6.60982 0
M  V30 10435 N 974.068 1.57479 -0.061844 0
M  V30 10436 C 975.315 1.93108 0.60954 0
M  V30 10437 C 975.643 0.941086 1.70217 0
M  V30 10438 O 974.898 -0.044914 1.95648 0
M  V30 10439 C 975.197 3.35394 1.23474 0
M  V30 10440 C 974.863 4.50095 0.269247 0
M  V30 10441 C 973.525 4.812 0.00360316 0
M  V30 10442 C 975.877 5.19725 -0.391839 0
M  V30 10443 C 973.205 5.79276 -0.930383 0
M  V30 10444 C 975.557 6.18801 -1.31408 0
M  V30 10445 C 974.221 6.48328 -1.58829 0
M  V30 10446 H 973.491 0.706634 0.223046 0
M  V30 10447 H 976.138 1.91054 -0.1306 0
M  V30 10448 H 974.443 3.33866 2.05039 0
M  V30 10449 H 976.14 3.60247 1.76134 0
M  V30 10450 H 972.73 4.2583 0.486477 0
M  V30 10451 H 976.914 4.95898 -0.199713 0
M  V30 10452 H 972.17 6.00484 -1.15019 0
M  V30 10453 H 976.344 6.71862 -1.83234 0
M  V30 10454 H 973.971 7.24137 -2.31363 0
M  V30 10455 N 975.546 -0.211634 1.56173 0
M  V30 10456 C 976.823 -0.959467 1.70451 0
M  V30 10457 C 977.203 -2.02036 0.611942 0
M  V30 10458 O 976.551 -2.25325 -0.37959 0
M  V30 10459 C 976.761 -1.56092 3.12148 0
M  V30 10460 C 978.109 -2.04939 3.71867 0
M  V30 10461 O 979.133 -1.65966 3.15172 0
M  V30 10462 O 977.992 -2.766 4.71333 0
M  V30 10463 H 975.086 -0.448844 0.6946 0
M  V30 10464 H 977.632 -0.202633 1.68486 0
M  V30 10465 H 976.404 -0.79538 3.83131 0
M  V30 10466 H 976.027 -2.38303 3.18273 0
M  V30 10467 N 977.024 -1.50153 -0.478725 0
M  V30 10468 C 978.273 -1.60002 -1.22809 0
M  V30 10469 C 978.586 -0.302277 -1.9325 0
M  V30 10470 O 979.792 -0.279583 -2.70057 0
M  V30 10471 C 978.248 -2.82402 -2.23108 0
M  V30 10472 C 977.856 -4.19023 -1.58505 0
M  V30 10473 C 979.6 -3.01593 -2.98734 0
M  V30 10474 C 977.507 -5.32618 -2.57045 0
M  V30 10475 H 976.437 -0.595822 -0.462073 0
M  V30 10476 H 979.088 -1.76573 -0.499412 0
M  V30 10477 H 977.47 -2.59373 -2.99235 0
M  V30 10478 H 978.644 -4.52277 -0.882187 0
M  V30 10479 H 976.959 -4.05374 -0.951877 0
M  V30 10480 H 979.556 -3.8363 -3.72468 0
M  V30 10481 H 979.899 -2.1302 -3.57671 0
M  V30 10482 H 980.432 -3.24766 -2.29721 0
M  V30 10483 H 977.171 -6.23321 -2.02858 0
M  V30 10484 H 976.691 -5.03792 -3.25505 0
M  V30 10485 H 978.37 -5.62877 -3.19028 0
M  V30 10486 N 978.502 0.731368 -1.39602 0
M  V30 10487 C 979.73 1.52059 -1.40305 0
M  V30 10488 C 980.145 1.888 0.00147921 0
M  V30 10489 O 979.502 1.54354 0.973715 0
M  V30 10490 C 979.553 2.80588 -2.27931 0
M  V30 10491 O 979.274 2.45406 -3.62915 0
M  V30 10492 C 980.775 3.74592 -2.37056 0
M  V30 10493 H 977.995 0.469787 -0.479104 0
M  V30 10494 H 980.539 0.903436 -1.83462 0
M  V30 10495 H 978.694 3.38626 -1.88178 0
M  V30 10496 H 979.108 3.27996 -4.09291 0
M  V30 10497 H 980.582 4.61662 -3.02609 0
M  V30 10498 H 981.059 4.16597 -1.39081 0
M  V30 10499 H 981.665 3.22471 -2.77295 0
M  V30 10500 N 979.98 1.24838 0.961938 0
M  V30 10501 C 980.927 1.04582 2.05745 0
M  V30 10502 C 981.897 -0.0427281 1.66045 0
M  V30 10503 O 983.082 0.113026 1.90465 0
M  V30 10504 C 980.222 0.66284 3.38675 0
M  V30 10505 C 979.335 1.82548 3.91536 0
M  V30 10506 C 978.47 1.38753 5.12758 0
M  V30 10507 C 977.509 2.51976 5.5783 0
M  V30 10508 N 976.646 2.09009 6.70268 0
M  V30 10509 H 981.486 1.98343 2.22405 0
M  V30 10510 H 979.023 0.987822 1.08998 0
M  V30 10511 H 980.981 0.421788 4.15062 0
M  V30 10512 H 979.611 -0.237776 3.21923 0
M  V30 10513 H 978.663 2.18004 3.11735 0
M  V30 10514 H 979.975 2.67601 4.20941 0
M  V30 10515 H 979.129 1.1057 5.96539 0
M  V30 10516 H 977.868 0.507618 4.85051 0
M  V30 10517 H 976.873 2.80912 4.72619 0
M  V30 10518 H 978.098 3.40534 5.87549 0
M  V30 10519 H 976.044 1.23423 6.44285 0
M  V30 10520 H 975.961 2.87613 6.99153 0
M  V30 10521 H 977.229 1.83981 7.57477 0
M  V30 10522 N 981.458 -1.16348 1.06306 0
M  V30 10523 C 982.704 -1.87397 0.79082 0
M  V30 10524 C 983.059 -1.80156 -0.675382 0
M  V30 10525 O 982.352 -1.20644 -1.48847 0
M  V30 10526 C 982.546 -3.35936 1.21991 0
M  V30 10527 C 982.375 -3.57637 2.72628 0
M  V30 10528 C 981.145 -3.73717 3.40094 0
M  V30 10529 C 983.343 -3.56345 3.70841 0
M  V30 10530 N 981.325 -3.83369 4.7948 0
M  V30 10531 C 982.696 -3.71983 4.96013 0
M  V30 10532 C 984.751 -3.39558 3.64149 0
M  V30 10533 C 983.454 -3.7257 6.15292 0
M  V30 10534 C 985.48 -3.41439 4.8288 0
M  V30 10535 C 984.842 -3.57596 6.06881 0
M  V30 10536 H 980.941 -0.703355 0.341782 0
M  V30 10537 H 983.525 -1.39597 1.35723 0
M  V30 10538 H 981.696 -3.82378 0.681319 0
M  V30 10539 H 983.428 -3.94649 0.896319 0
M  V30 10540 H 980.183 -3.74045 2.90495 0
M  V30 10541 H 980.607 -3.91964 5.5199 0
M  V30 10542 H 985.249 -3.25994 2.69235 0
M  V30 10543 H 982.967 -3.84916 7.10539 0
M  V30 10544 H 986.553 -3.29693 4.79368 0
M  V30 10545 H 985.433 -3.58971 6.97216 0
M  V30 10546 N 982.937 -0.845659 -1.3299 0
M  V30 10547 C 983.867 -0.298957 -2.31578 0
M  V30 10548 C 984.848 0.597012 -1.59279 0
M  V30 10549 O 986.033 0.519142 -1.87132 0
M  V30 10550 C 983.163 0.521109 -3.43368 0
M  V30 10551 C 982.117 -0.279651 -4.27085 0
M  V30 10552 C 981.443 0.664591 -5.30554 0
M  V30 10553 C 982.743 -1.50046 -5.00283 0
M  V30 10554 H 984.437 -1.12272 -2.77552 0
M  V30 10555 H 981.983 -0.54132 -1.33438 0
M  V30 10556 H 983.936 0.913921 -4.1137 0
M  V30 10557 H 982.66 1.37815 -2.96099 0
M  V30 10558 H 981.319 -0.654106 -3.60717 0
M  V30 10559 H 980.967 1.51822 -4.79541 0
M  V30 10560 H 980.667 0.132871 -5.8745 0
M  V30 10561 H 982.191 1.05477 -6.01421 0
M  V30 10562 H 983.605 -1.18044 -5.61016 0
M  V30 10563 H 982.002 -1.96946 -5.66862 0
M  V30 10564 H 983.072 -2.26659 -4.28665 0
M  V30 10565 N 984.415 1.45619 -0.602734 0
M  V30 10566 C 985.661 2.03131 -0.104587 0
M  V30 10567 C 986.016 1.4634 1.2491 0
M  V30 10568 O 985.309 0.626733 1.8106 0
M  V30 10569 C 985.503 3.574 -0.00157909 0
M  V30 10570 C 985.332 4.29155 -1.34373 0
M  V30 10571 C 984.102 4.67272 -1.92316 0
M  V30 10572 C 986.3 4.61422 -2.27143 0
M  V30 10573 N 984.282 5.23864 -3.20062 0
M  V30 10574 C 985.653 5.18796 -3.39485 0
M  V30 10575 C 987.708 4.4336 -2.26575 0
M  V30 10576 C 986.411 5.60012 -4.51419 0
M  V30 10577 C 988.437 4.85605 -3.37553 0
M  V30 10578 C 987.799 5.43068 -4.48617 0
M  V30 10579 H 983.898 0.777739 -0.0815251 0
M  V30 10580 H 986.482 1.77504 -0.800024 0
M  V30 10581 H 984.653 3.82698 0.663068 0
M  V30 10582 H 986.385 4.01565 0.502784 0
M  V30 10583 H 983.14 4.50671 -1.45577 0
M  V30 10584 H 983.564 5.56664 -3.85298 0
M  V30 10585 H 988.206 3.98251 -1.41971 0
M  V30 10586 H 985.924 6.04089 -5.36751 0
M  V30 10587 H 989.51 4.73365 -3.38255 0
M  V30 10588 H 988.39 5.75156 -5.33072 0
M  V30 10589 N 985.893 0.34162 1.53853 0
M  V30 10590 C 987.123 -0.256557 2.05001 0
M  V30 10591 C 987.531 -1.44916 1.21639 0
M  V30 10592 O 986.874 -1.8207 0.244138 0
M  V30 10593 C 986.936 -0.737109 3.51862 0
M  V30 10594 C 986.6 0.335584 4.55766 0
M  V30 10595 C 987.597 1.17765 5.06387 0
M  V30 10596 C 985.282 0.488958 4.99914 0
M  V30 10597 C 987.276 2.15865 5.99734 0
M  V30 10598 C 984.963 1.47336 5.93073 0
M  V30 10599 C 985.961 2.30666 6.4287 0
M  V30 10600 O 985.649 3.2743 7.34197 0
M  V30 10601 H 985.381 -0.0536867 0.673865 0
M  V30 10602 H 987.935 0.49123 1.99439 0
M  V30 10603 H 986.165 -1.53611 3.54881 0
M  V30 10604 H 987.854 -1.25562 3.85991 0
M  V30 10605 H 988.62 1.07023 4.73044 0
M  V30 10606 H 984.499 -0.149807 4.60757 0
M  V30 10607 H 988.043 2.80945 6.38526 0
M  V30 10608 H 983.94 1.58134 6.25831 0
M  V30 10609 H 984.708 3.22879 7.52125 0
M  V30 10610 N 987.371 -1.57444 0.0701946 0
M  V30 10611 C 988.62 -1.92605 -0.598849 0
M  V30 10612 C 988.933 -0.952058 -1.70866 0
M  V30 10613 O 990.139 -1.19643 -2.43716 0
M  V30 10614 C 988.595 -3.42142 -1.11655 0
M  V30 10615 C 988.203 -4.47984 -0.0378355 0
M  V30 10616 C 989.947 -3.86307 -1.75975 0
M  V30 10617 C 987.854 -5.88652 -0.569495 0
M  V30 10618 H 986.784 -0.718873 -0.22746 0
M  V30 10619 H 989.435 -1.82948 0.14217 0
M  V30 10620 H 987.817 -3.46866 -1.91049 0
M  V30 10621 H 988.991 -4.54874 0.736661 0
M  V30 10622 H 987.306 -4.13277 0.50904 0
M  V30 10623 H 989.903 -4.88784 -2.16782 0
M  V30 10624 H 990.246 -3.23587 -2.61911 0
M  V30 10625 H 990.779 -3.84179 -1.03206 0
M  V30 10626 H 987.518 -6.55013 0.252662 0
M  V30 10627 H 987.038 -5.85285 -1.31155 0
M  V30 10628 H 988.717 -6.38482 -1.04641 0
M  V30 10629 N 988.849 0.203349 -1.56283 0
M  V30 10630 C 989.796 1.25205 -1.93888 0
M  V30 10631 C 990.766 1.45654 -0.798376 0
M  V30 10632 O 991.951 1.58924 -1.05583 0
M  V30 10633 C 989.091 2.59355 -2.27659 0
M  V30 10634 C 988.204 2.46553 -3.54733 0
M  V30 10635 C 987.339 3.73351 -3.77865 0
M  V30 10636 C 986.378 3.55347 -4.98392 0
M  V30 10637 N 985.515 4.74137 -5.17821 0
M  V30 10638 H 990.355 0.924356 -2.83301 0
M  V30 10639 H 987.892 0.445082 -1.40205 0
M  V30 10640 H 989.85 3.375 -2.45254 0
M  V30 10641 H 988.48 2.90184 -1.41396 0
M  V30 10642 H 987.532 1.59749 -3.45231 0
M  V30 10643 H 988.844 2.2918 -4.43033 0
M  V30 10644 H 987.998 4.59937 -3.95655 0
M  V30 10645 H 986.737 3.9367 -2.8788 0
M  V30 10646 H 985.742 2.67146 -4.80534 0
M  V30 10647 H 986.967 3.36482 -5.89879 0
M  V30 10648 H 984.913 4.94735 -4.30782 0
M  V30 10649 H 984.83 4.59558 -6.00285 0
M  V30 10650 H 986.098 5.62098 -5.40061 0
M  V30 10651 N 990.327 1.50405 0.470755 0
M  V30 10652 C 991.576 1.60652 1.21959 0
M  V30 10653 C 991.889 0.312521 1.93087 0
M  V30 10654 O 993.095 0.293901 2.69905 0
M  V30 10655 C 991.551 2.83581 2.21607 0
M  V30 10656 C 991.159 4.19858 1.5628 0
M  V30 10657 C 992.903 3.03173 2.9713 0
M  V30 10658 C 990.81 5.33974 2.54217 0
M  V30 10659 H 989.74 0.598264 0.458907 0
M  V30 10660 H 992.391 1.76836 0.490041 0
M  V30 10661 H 990.773 2.60957 2.97855 0
M  V30 10662 H 991.947 4.52738 0.85819 0
M  V30 10663 H 990.262 4.05873 0.930366 0
M  V30 10664 H 992.859 3.856 3.70428 0
M  V30 10665 H 993.202 2.14914 3.56536 0
M  V30 10666 H 993.735 3.2598 2.27995 0
M  V30 10667 H 990.474 6.24388 1.99549 0
M  V30 10668 H 989.994 5.05511 3.22829 0
M  V30 10669 H 991.673 5.64561 3.16039 0
M  V30 10670 N 991.805 -0.723954 1.39988 0
M  V30 10671 C 993.052 -1.48371 1.37812 0
M  V30 10672 C 993.38 -1.94487 -0.0223285 0
M  V30 10673 O 992.635 -1.67906 -1.00529 0
M  V30 10674 C 992.934 -2.73004 2.30659 0
M  V30 10675 C 992.6 -2.45698 3.78078 0
M  V30 10676 C 991.262 -2.37961 4.18244 0
M  V30 10677 C 993.614 -2.22601 4.71273 0
M  V30 10678 C 990.942 -2.05183 5.49652 0
M  V30 10679 C 993.294 -1.91339 6.0297 0
M  V30 10680 C 991.958 -1.82078 6.42187 0
M  V30 10681 H 991.228 -0.542929 0.504291 0
M  V30 10682 H 993.875 -0.829986 1.72579 0
M  V30 10683 H 992.18 -3.43174 1.89048 0
M  V30 10684 H 993.877 -3.31068 2.26263 0
M  V30 10685 H 990.467 -2.52603 3.46251 0
M  V30 10686 H 994.651 -2.2754 4.41066 0
M  V30 10687 H 989.907 -1.96544 5.78948 0
M  V30 10688 H 994.081 -1.72479 6.74703 0
M  V30 10689 H 991.708 -1.56446 7.43928 0
M  V30 10690 N 993.283 -1.25346 -0.955304 0
M  V30 10691 C 994.532 -1.0945 -1.69421 0
M  V30 10692 C 994.845 0.364459 -1.92175 0
M  V30 10693 O 996.051 0.643843 -2.63755 0
M  V30 10694 C 994.507 -1.91045 -3.05008 0
M  V30 10695 C 994.115 -3.41428 -2.90053 0
M  V30 10696 C 995.859 -1.83716 -3.82686 0
M  V30 10697 C 993.766 -4.1532 -4.21026 0
M  V30 10698 H 992.696 -0.405978 -0.635372 0
M  V30 10699 H 995.347 -1.49536 -1.06354 0
M  V30 10700 H 993.729 -1.43781 -3.68975 0
M  V30 10701 H 994.903 -3.9636 -2.35022 0
M  V30 10702 H 993.218 -3.49842 -2.25831 0
M  V30 10703 H 995.815 -2.36217 -4.79693 0
M  V30 10704 H 996.158 -0.804919 -4.08444 0
M  V30 10705 H 996.691 -2.28726 -3.25468 0
M  V30 10706 H 993.43 -5.18955 -4.00457 0
M  V30 10707 H 992.95 -3.65172 -4.75825 0
M  V30 10708 H 994.629 -4.22999 -4.89572 0
M  V30 10709 N 994.761 1.15782 -1.06922 0
M  V30 10710 C 995.694 2.19336 -0.629837 0
M  V30 10711 C 996.672 1.58774 0.350663 0
M  V30 10712 O 997.856 1.86724 0.258124 0
M  V30 10713 C 994.983 3.38615 0.0757526 0
M  V30 10714 C 994.029 4.17688 -0.862503 0
M  V30 10715 S 994.862 4.80634 -2.36117 0
M  V30 10716 C 996.018 6.03286 -1.66725 0
M  V30 10717 H 996.251 2.56267 -1.50714 0
M  V30 10718 H 993.784 1.26674 -0.882776 0
M  V30 10719 H 995.742 4.07724 0.476611 0
M  V30 10720 H 994.403 3.00037 0.929332 0
M  V30 10721 H 993.596 5.03012 -0.315461 0
M  V30 10722 H 993.198 3.54106 -1.20354 0
M  V30 10723 H 995.49 6.70426 -0.976472 0
M  V30 10724 H 996.433 6.62551 -2.49864 0
M  V30 10725 H 996.841 5.52722 -1.14711 0
M  V30 10726 N 996.239 0.8527 1.3254 0
M  V30 10727 C 997.488 0.45136 1.96585 0
M  V30 10728 C 997.801 -0.997773 1.68237 0
M  V30 10729 O 999.007 -1.50445 2.26006 0
M  V30 10730 C 997.463 0.75619 3.51866 0
M  V30 10731 C 997.071 2.22092 3.89075 0
M  V30 10732 C 998.815 0.422478 4.22392 0
M  V30 10733 C 996.722 2.46908 5.37392 0
M  V30 10734 H 995.652 0.165052 0.735713 0
M  V30 10735 H 998.303 1.04321 1.50962 0
M  V30 10736 H 996.685 0.0937988 3.95889 0
M  V30 10737 H 997.859 2.92494 3.56067 0
M  V30 10738 H 996.174 2.51896 3.31568 0
M  V30 10739 H 998.771 0.58533 5.31487 0
M  V30 10740 H 999.114 -0.635737 4.11417 0
M  V30 10741 H 999.647 1.04068 3.83946 0
M  V30 10742 H 996.386 3.51346 5.53386 0
M  V30 10743 H 995.906 1.81082 5.71812 0
M  V30 10744 H 997.585 2.30758 6.0445 0
M  V30 10745 N 997.718 -1.45297 0.610449 0
M  V30 10746 C 998.964 -2.02518 0.106917 0
M  V30 10747 C 999.297 -1.47747 -1.26034 0
M  V30 10748 O 998.572 -0.65329 -1.832 0
M  V30 10749 C 998.855 -3.6003 0.0710975 0
M  V30 10750 C 998.708 -4.25128 1.46922 0
M  V30 10751 C 1000.03 -4.35778 -0.61524 0
M  V30 10752 H 997.146 -0.735896 0.040327 0
M  V30 10753 H 999.788 -1.73117 0.782968 0
M  V30 10754 H 997.938 -3.85209 -0.504611 0
M  V30 10755 H 999.61 -4.11125 2.09223 0
M  V30 10756 H 997.853 -3.83418 2.02911 0
M  V30 10757 H 998.524 -5.34046 1.39637 0
M  V30 10758 H 1001 -4.1591 -0.125871 0
M  V30 10759 H 999.876 -5.45506 -0.609419 0
M  V30 10760 H 1000.14 -4.08859 -1.68186 0
M  V30 10761 N 999.196 -0.349774 -1.5367 0
M  V30 10762 C 1000.44 0.244343 -2.00617 0
M  V30 10763 C 1000.76 1.50567 -1.23914 0
M  V30 10764 O 1000.03 1.92784 -0.348016 0
M  V30 10765 H 998.615 0.0932792 -0.741153 0
M  V30 10766 H 1001.28 -0.472367 -1.89089 0
M  V30 10767 H 1000.37 0.482433 -3.08349 0
M  V30 10768 N 1000.67 1.57404 -0.0785433 0
M  V30 10769 C 1001.92 1.93361 0.58786 0
M  V30 10770 C 1002.24 0.959856 1.6974 0
M  V30 10771 O 1001.51 0.0091173 1.95898 0
M  V30 10772 H 1000.09 0.713825 0.220141 0
M  V30 10773 H 1002.75 1.94411 -0.137986 0
M  V30 10774 H 1001.85 2.95346 1.00881 0
M  V30 10775 N 1002.15 -0.195058 1.56388 0
M  V30 10776 C 1003.08 -1.24444 1.97575 0
M  V30 10777 C 1004.06 -1.47471 0.847717 0
M  V30 10778 O 1005.25 -1.59208 1.11205 0
M  V30 10779 C 1002.38 -2.58866 2.31529 0
M  V30 10780 C 1001.33 -2.50451 3.47071 0
M  V30 10781 C 1000.66 -3.89146 3.667 0
M  V30 10782 C 1001.96 -2.02953 4.81256 0
M  V30 10783 H 1003.65 -0.902178 2.85484 0
M  V30 10784 H 1001.2 -0.43254 1.3735 0
M  V30 10785 H 1003.15 -3.3246 2.58936 0
M  V30 10786 H 1001.87 -2.94833 1.40502 0
M  V30 10787 H 1000.53 -1.79313 3.19754 0
M  V30 10788 H 1000.18 -4.22466 2.73004 0
M  V30 10789 H 999.882 -3.84391 4.44429 0
M  V30 10790 H 1001.41 -4.64363 3.96484 0
M  V30 10791 H 1002.82 -2.66306 5.07695 0
M  V30 10792 H 1001.22 -2.092 5.62455 0
M  V30 10793 H 1002.29 -0.982757 4.74837 0
M  V30 10794 N 1003.63 -1.50653 -0.462772 0
M  V30 10795 C 1004.88 -1.61296 -1.21105 0
M  V30 10796 C 1005.19 -0.322757 -1.92919 0
M  V30 10797 O 1006.4 -0.308211 -2.69745 0
M  V30 10798 C 1004.85 -2.84752 -2.201 0
M  V30 10799 C 1004.46 -4.20681 -1.54051 0
M  V30 10800 C 1006.21 -3.04744 -2.95518 0
M  V30 10801 C 1004.11 -5.35314 -2.51381 0
M  V30 10802 H 1003.04 -0.60069 -0.455728 0
M  V30 10803 H 1005.69 -1.77093 -0.480656 0
M  V30 10804 H 1004.08 -2.62532 -2.96467 0
M  V30 10805 H 1005.25 -4.53187 -0.834168 0
M  V30 10806 H 1003.56 -4.06361 -0.908828 0
M  V30 10807 H 1006.16 -3.87559 -3.68378 0
M  V30 10808 H 1006.5 -2.16802 -3.55391 0
M  V30 10809 H 1007.04 -3.27185 -2.26263 0
M  V30 10810 H 1003.78 -6.25437 -1.96235 0
M  V30 10811 H 1003.3 -5.07216 -3.20144 0
M  V30 10812 H 1004.98 -5.66229 -3.1304 0
M  V30 10813 N 1005.11 0.71652 -1.4037 0
M  V30 10814 C 1006.36 1.47347 -1.38324 0
M  V30 10815 C 1006.68 1.94995 0.0139949 0
M  V30 10816 O 1005.95 1.7028 0.968585 0
M  V30 10817 H 1004.53 0.546662 -0.509087 0
M  V30 10818 H 1007.19 0.849455 -1.75415 0
M  V30 10819 H 1006.29 2.34675 -2.05752 0
M  V30 10820 N 1006.59 1.25851 0.948643 0
M  V30 10821 C 1007.52 1.09248 2.06367 0
M  V30 10822 C 1008.5 -0.000205168 1.701 0
M  V30 10823 O 1009.68 0.170442 1.93451 0
M  V30 10824 C 1006.81 0.716777 3.39823 0
M  V30 10825 C 1005.77 1.76036 3.90122 0
M  V30 10826 C 1005.09 1.23918 5.20143 0
M  V30 10827 C 1006.39 3.16039 4.15833 0
M  V30 10828 H 1008.09 2.02518 2.20515 0
M  V30 10829 H 1005.63 0.975093 1.05962 0
M  V30 10830 H 1007.59 0.587531 4.17284 0
M  V30 10831 H 1006.31 -0.251626 3.25629 0
M  V30 10832 H 1004.97 1.87815 3.14835 0
M  V30 10833 H 1004.62 0.260836 5.02323 0
M  V30 10834 H 1004.32 1.93673 5.54765 0
M  V30 10835 H 1005.84 1.12245 6.00194 0
M  V30 10836 H 1007.25 3.0738 4.83933 0
M  V30 10837 H 1005.65 3.83317 4.61723 0
M  V30 10838 H 1006.72 3.62652 3.21887 0
M  V30 10839 N 1008.06 -1.15214 1.07534 0
M  V30 10840 C 1009.48 -1.38031 0.801228 0
M  V30 10841 C 1009.68 -1.92556 -0.593672 0
M  V30 10842 O 1008.74 -2.1325 -1.35206 0
M  V30 10843 C 1010.05 -2.34958 1.87657 0
M  V30 10844 C 1011.6 -2.48617 1.90154 0
M  V30 10845 C 1012.07 -3.48837 2.96777 0
M  V30 10846 N 1013.56 -3.56374 2.95892 0
M  V30 10847 C 1014.3 -4.33746 3.75036 0
M  V30 10848 N 1013.79 -5.14435 4.64036 0
M  V30 10849 N 1015.59 -4.28853 3.63375 0
M  V30 10850 H 1007.74 -0.781639 1.97495 0
M  V30 10851 H 1010 -0.406243 0.856546 0
M  V30 10852 H 1009.71 -2.02013 2.87895 0
M  V30 10853 H 1009.58 -3.3476 1.73827 0
M  V30 10854 H 1011.97 -2.80859 0.905666 0
M  V30 10855 H 1012.05 -1.48808 2.08062 0
M  V30 10856 H 1011.69 -3.1733 3.96565 0
M  V30 10857 H 1011.62 -4.48406 2.76116 0
M  V30 10858 H 1014.11 -2.98784 2.31379 0
M  V30 10859 H 1014.43 -5.70722 5.21053 0
M  V30 10860 H 1012.77 -5.13734 4.68084 0
M  V30 10861 H 1015.96 -3.64882 2.93221 0
M  V30 10862 H 1016.14 -4.88903 4.25298 0
M  V30 10863 N 1009.54 -0.859717 -1.32086 0
M  V30 10864 C 1010.79 -0.461779 -1.96343 0
M  V30 10865 C 1011.1 0.988837 -1.68764 0
M  V30 10866 O 1012.31 1.49244 -2.268 0
M  V30 10867 C 1010.77 -0.77484 -3.5146 0
M  V30 10868 C 1010.37 -2.24153 -3.87891 0
M  V30 10869 C 1012.12 -0.444873 -4.22162 0
M  V30 10870 C 1010.03 -2.49754 -5.36075 0
M  V30 10871 H 1008.96 -0.168951 -0.734828 0
M  V30 10872 H 1011.61 -1.0512 -1.50406 0
M  V30 10873 H 1009.99 -0.114792 -3.95834 0
M  V30 10874 H 1011.16 -2.94378 -3.54511 0
M  V30 10875 H 1009.48 -2.53651 -3.30227 0
M  V30 10876 H 1012.07 -0.613508 -5.31169 0
M  V30 10877 H 1012.42 0.61391 -4.11749 0
M  V30 10878 H 1012.95 -1.06103 -3.83389 0
M  V30 10879 H 1009.69 -3.54276 -5.51515 0
M  V30 10880 H 1009.21 -1.84112 -5.70844 0
M  V30 10881 H 1010.89 -2.3396 -6.03218 0
M  V30 10882 N 1011.02 1.44971 -0.618145 0
M  V30 10883 C 1012.27 2.02458 -0.117656 0
M  V30 10884 C 1012.6 1.48413 1.25248 0
M  V30 10885 O 1011.87 0.662997 1.82851 0
M  V30 10886 C 1012.16 3.59987 -0.0901897 0
M  V30 10887 C 1012.01 4.24343 -1.49175 0
M  V30 10888 C 1013.33 4.36099 0.592121 0
M  V30 10889 H 1010.45 0.735672 -0.0442291 0
M  V30 10890 H 1013.09 1.727 -0.792138 0
M  V30 10891 H 1011.24 3.85471 0.484175 0
M  V30 10892 H 1012.91 4.10009 -2.114 0
M  V30 10893 H 1011.16 3.82337 -2.04941 0
M  V30 10894 H 1011.83 5.33298 -1.42468 0
M  V30 10895 H 1014.3 4.1597 0.103813 0
M  V30 10896 H 1013.18 5.45822 0.580481 0
M  V30 10897 H 1013.44 4.09746 1.66015 0
M  V30 10898 N 1012.5 0.357919 1.53482 0
M  V30 10899 C 1013.75 -0.234163 2.01142 0
M  V30 10900 C 1014.07 -1.49399 1.2454 0
M  V30 10901 O 1013.33 -1.92981 0.325111 0
M  V30 10902 C 1013.63 -0.579617 3.52669 0
M  V30 10903 C 1013.29 0.584988 4.47089 0
M  V30 10904 C 1011.96 0.904558 4.72622 0
M  V30 10905 C 1014.31 1.3656 5.02992 0
M  V30 10906 C 1011.64 2.00685 5.5131 0
M  V30 10907 C 1013.99 2.45824 5.82884 0
M  V30 10908 C 1012.65 2.78325 6.06706 0
M  V30 10909 H 1011.92 -0.0856863 0.736029 0
M  V30 10910 H 1014.57 0.488801 1.85157 0
M  V30 10911 H 1012.87 -1.38349 3.66561 0
M  V30 10912 H 1014.57 -1.04985 3.87013 0
M  V30 10913 H 1011.16 0.32587 4.27359 0
M  V30 10914 H 1015.34 1.13196 4.83219 0
M  V30 10915 H 1010.6 2.26272 5.67988 0
M  V30 10916 H 1014.77 3.06732 6.25211 0
M  V30 10917 H 1012.4 3.63862 6.67464 0
M  V30 10918 N 1013.98 -1.5736 0.0868897 0
M  V30 10919 C 1015.22 -1.94341 -0.579598 0
M  V30 10920 C 1015.56 -0.968238 -1.68341 0
M  V30 10921 O 1014.83 8.29649e-05 -1.945 0
M  V30 10922 C 1015.11 -3.41497 -1.14245 0
M  V30 10923 C 1014.97 -4.49778 -0.044255 0
M  V30 10924 C 1016.29 -3.89788 -2.04336 0
M  V30 10925 H 1013.4 -0.70668 -0.20922 0
M  V30 10926 H 1016.05 -1.89359 0.15593 0
M  V30 10927 H 1014.2 -3.45873 -1.76929 0
M  V30 10928 H 1015.87 -4.57517 0.58959 0
M  V30 10929 H 1014.11 -4.293 0.623207 0
M  V30 10930 H 1014.78 -5.4992 -0.478749 0
M  V30 10931 H 1017.26 -3.87513 -1.51569 0
M  V30 10932 H 1016.13 -4.93335 -2.40648 0
M  V30 10933 H 1016.4 -3.28603 -2.95757 0
M  V30 10934 N 1015.45 0.186762 -1.56489 0
M  V30 10935 C 1016.7 0.907194 -1.81378 0
M  V30 10936 C 1017.03 1.82558 -0.662283 0
M  V30 10937 O 1016.31 1.91564 0.336699 0
M  V30 10938 C 1016.59 1.71624 -3.16571 0
M  V30 10939 C 1016.44 0.822009 -4.42225 0
M  V30 10940 C 1017.76 2.68713 -3.48542 0
M  V30 10941 H 1014.88 0.328366 -0.659806 0
M  V30 10942 H 1017.52 0.174142 -1.892 0
M  V30 10943 H 1015.67 2.34119 -3.10033 0
M  V30 10944 H 1017.35 0.211122 -4.60817 0
M  V30 10945 H 1015.59 0.129178 -4.33608 0
M  V30 10946 H 1016.26 1.42326 -5.33336 0
M  V30 10947 H 1018.74 2.16348 -3.55433 0
M  V30 10948 H 1017.61 3.22397 -4.44242 0
M  V30 10949 H 1017.87 3.48165 -2.72459 0
M  V30 10950 N 1016.93 1.50896 0.454776 0
M  V30 10951 C 1017.86 1.73885 1.5584 0
M  V30 10952 C 1018.84 0.588172 1.59607 0
M  V30 10953 O 1020.03 0.829054 1.75614 0
M  V30 10954 C 1017.16 1.84796 2.94054 0
M  V30 10955 C 1016.11 3.00111 3.05152 0
M  V30 10956 C 1015.44 2.96183 4.45174 0
M  V30 10957 C 1016.74 4.40365 2.80849 0
M  V30 10958 H 1018.43 2.66292 1.36854 0
M  V30 10959 H 1015.98 1.28142 0.656936 0
M  V30 10960 H 1017.93 1.99462 3.71204 0
M  V30 10961 H 1016.66 0.890235 3.14233 0
M  V30 10962 H 1015.31 2.85121 2.30438 0
M  V30 10963 H 1014.96 1.98224 4.62295 0
M  V30 10964 H 1014.66 3.73608 4.53532 0
M  V30 10965 H 1016.19 3.1292 5.24322 0
M  V30 10966 H 1017.6 4.55795 3.47741 0
M  V30 10967 H 1016 5.19363 3.00636 0
M  V30 10968 H 1017.07 4.51606 1.76579 0
M  V30 10969 N 1018.41 -0.709066 1.40748 0
M  V30 10970 C 1019.64 -1.50313 1.42901 0
M  V30 10971 C 1020.06 -1.88072 0.032213 0
M  V30 10972 O 1019.42 -1.53716 -0.96131 0
M  V30 10973 C 1019.47 -2.75074 2.33166 0
M  V30 10974 O 1018.57 -3.72036 1.7794 0
M  V30 10975 H 1017.91 -0.452934 0.485538 0
M  V30 10976 H 1020.44 -0.872712 1.85054 0
M  V30 10977 H 1020.45 -3.23532 2.48578 0
M  V30 10978 H 1019.13 -2.46927 3.34664 0
M  V30 10979 H 1017.7 -3.30911 1.71908 0
M  V30 10980 N 1019.89 -1.26353 -0.941956 0
M  V30 10981 C 1021.14 -1.11241 -1.68251 0
M  V30 10982 C 1021.45 0.344055 -1.9255 0
M  V30 10983 O 1022.66 0.615832 -2.64423 0
M  V30 10984 C 1021.11 -1.94269 -3.02965 0
M  V30 10985 C 1020.72 -3.44485 -2.86415 0
M  V30 10986 C 1022.47 -1.87764 -3.80716 0
M  V30 10987 C 1020.37 -4.19763 -4.16597 0
M  V30 10988 H 1019.3 -0.412694 -0.63103 0
M  V30 10989 H 1021.95 -1.50656 -1.04762 0
M  V30 10990 H 1020.34 -1.47687 -3.6743 0
M  V30 10991 H 1021.51 -3.9883 -2.30805 0
M  V30 10992 H 1019.82 -3.52218 -2.22107 0
M  V30 10993 H 1022.42 -2.41292 -4.77161 0
M  V30 10994 H 1022.76 -0.848195 -4.07568 0
M  V30 10995 H 1023.3 -2.32165 -3.23024 0
M  V30 10996 H 1020.04 -5.23173 -3.9493 0
M  V30 10997 H 1019.56 -3.70198 -4.71925 0
M  V30 10998 H 1021.24 -4.28168 -4.85058 0
M  V30 10999 N 1021.37 1.14642 -1.08144 0
M  V30 11000 C 1022.61 1.85892 -0.810683 0
M  V30 11001 C 1022.95 1.82575 0.661821 0
M  V30 11002 O 1022.22 1.25454 1.48632 0
M  V30 11003 C 1022.5 3.34647 -1.32979 0
M  V30 11004 C 1022.36 3.46551 -2.86744 0
M  V30 11005 C 1023.68 4.29661 -0.952864 0
M  V30 11006 H 1020.8 0.674963 -0.295963 0
M  V30 11007 H 1023.44 1.3464 -1.3406 0
M  V30 11008 H 1021.59 3.78425 -0.87903 0
M  V30 11009 H 1023.26 3.11579 -3.40171 0
M  V30 11010 H 1021.5 2.87849 -3.24539 0
M  V30 11011 H 1022.17 4.51101 -3.18138 0
M  V30 11012 H 1024.65 3.93885 -1.34141 0
M  V30 11013 H 1023.53 5.32209 -1.34331 0
M  V30 11014 H 1023.79 4.41877 0.140392 0
M  V30 11015 N 1022.85 0.866709 1.31628 0
M  V30 11016 C 1023.79 0.309128 2.30537 0
M  V30 11017 C 1024.79 -0.574028 1.59378 0
M  V30 11018 O 1025.99 -0.460491 1.7401 0
M  V30 11019 H 1022.37 0.081279 0.747595 0
M  V30 11020 H 1024.34 1.15734 2.75042 0
M  V30 11021 C 1023.09 -0.477287 3.44409 0
M  V30 11022 H 1022.41 0.19301 3.99334 0
M  V30 11023 H 1023.85 -0.832818 4.1574 0
M  V30 11024 C 1022.31 -1.66727 2.92752 0
M  V30 11025 O 1022.84 -2.76654 2.91248 0
M  V30 11026 N 1021.05 -1.49833 2.48995 0
M  V30 11027 H 1020.59 -0.604073 2.50417 0
M  V30 11028 H 1020.55 -2.29594 2.14788 0
M  V30 11029 N 1024.32 -1.44642 0.625825 0
M  V30 11030 C 1025.74 -1.56925 0.290992 0
M  V30 11031 C 1025.94 -1.61424 -1.20601 0
M  V30 11032 O 1025 -1.55439 -1.98985 0
M  V30 11033 C 1026.31 -2.84343 0.978242 0
M  V30 11034 C 1027.86 -2.98047 0.955882 0
M  V30 11035 C 1028.33 -4.2826 1.62349 0
M  V30 11036 N 1029.82 -4.35062 1.58983 0
M  V30 11037 C 1030.56 -5.34524 2.07538 0
M  V30 11038 N 1030.05 -6.4042 2.6426 0
M  V30 11039 N 1031.85 -5.25998 1.98198 0
M  V30 11040 H 1024 -1.39965 1.59761 0
M  V30 11041 H 1026.26 -0.670368 0.670306 0
M  V30 11042 H 1025.97 -2.86985 2.03304 0
M  V30 11043 H 1025.84 -3.73699 0.512726 0
M  V30 11044 H 1028.23 -2.94961 -0.0904292 0
M  V30 11045 H 1028.31 -2.10053 1.45984 0
M  V30 11046 H 1027.95 -4.32105 2.66923 0
M  V30 11047 H 1027.88 -5.15102 1.09441 0
M  V30 11048 H 1030.37 -3.59147 1.17565 0
M  V30 11049 H 1030.69 -7.1259 2.99056 0
M  V30 11050 H 1029.03 -6.41121 2.68308 0
M  V30 11051 H 1032.22 -4.42178 1.5361 0
M  V30 11052 H 1032.4 -6.03359 2.3635 0
M  V30 11053 N 1025.8 -0.366053 -1.5329 0
M  V30 11054 C 1027.05 0.223824 -2.01561 0
M  V30 11055 C 1027.38 1.48382 -1.25286 0
M  V30 11056 O 1026.66 1.91385 -0.34669 0
M  V30 11057 C 1026.94 0.5153 -3.56394 0
M  V30 11058 C 1026.79 -0.758357 -4.43361 0
M  V30 11059 C 1028.11 1.31568 -4.19974 0
M  V30 11060 H 1025.23 0.0798751 -0.732659 0
M  V30 11061 H 1027.87 -0.491038 -1.83545 0
M  V30 11062 H 1026.02 1.12429 -3.71876 0
M  V30 11063 H 1027.69 -1.39584 -4.39675 0
M  V30 11064 H 1025.94 -1.37862 -4.11311 0
M  V30 11065 H 1026.61 -0.509366 -5.49645 0
M  V30 11066 H 1029.08 0.800514 -4.08327 0
M  V30 11067 H 1027.96 1.48837 -5.28336 0
M  V30 11068 H 1028.22 2.32432 -3.76069 0
M  V30 11069 N 1027.28 1.57312 -0.0952337 0
M  V30 11070 C 1028.7 1.57445 0.261416 0
M  V30 11071 C 1028.9 1.10639 1.68408 0
M  V30 11072 O 1027.95 0.782912 2.40056 0
M  V30 11073 C 1029.26 3.00659 0.0497206 0
M  V30 11074 C 1030.81 3.1278 0.117459 0
M  V30 11075 C 1031.29 4.57952 -0.0662441 0
M  V30 11076 N 1032.78 4.63199 -0.0114146 0
M  V30 11077 C 1033.51 5.73255 -0.128799 0
M  V30 11078 N 1033.01 6.92146 -0.301026 0
M  V30 11079 N 1034.8 5.62056 -0.0700599 0
M  V30 11080 H 1026.95 1.86045 -1.02475 0
M  V30 11081 H 1029.22 0.858726 -0.401614 0
M  V30 11082 H 1028.92 3.39102 -0.932888 0
M  V30 11083 H 1028.8 3.68792 0.791975 0
M  V30 11084 H 1031.18 2.74209 1.09057 0
M  V30 11085 H 1031.26 2.47238 -0.656288 0
M  V30 11086 H 1030.91 4.97217 -1.03623 0
M  V30 11087 H 1030.84 5.21555 0.727198 0
M  V30 11088 H 1033.33 3.77712 0.119154 0
M  V30 11089 H 1033.64 7.71855 -0.382104 0
M  V30 11090 H 1031.99 6.94184 -0.336695 0
M  V30 11091 H 1035.18 4.68057 0.0633587 0
M  V30 11092 H 1035.35 6.4779 -0.164991 0
M  V30 11093 N 1028.76 -0.17846 1.56586 0
M  V30 11094 C 1029.69 -1.24547 1.92408 0
M  V30 11095 C 1030.7 -1.40849 0.816421 0
M  V30 11096 O 1031.89 -1.40979 1.09486 0
M  V30 11097 C 1028.99 -2.61523 2.15544 0
M  V30 11098 C 1028.16 -2.66613 3.46751 0
M  V30 11099 C 1027.22 -3.84901 3.588 0
M  V30 11100 O 1026.25 -3.71231 4.31482 0
M  V30 11101 N 1027.45 -5.0106 2.9312 0
M  V30 11102 H 1030.22 -0.941275 2.84535 0
M  V30 11103 H 1027.78 -0.368275 1.57656 0
M  V30 11104 H 1029.77 -3.3911 2.20876 0
M  V30 11105 H 1028.34 -2.84362 1.29835 0
M  V30 11106 H 1027.56 -1.75174 3.5314 0
M  V30 11107 H 1028.85 -2.67018 4.33104 0
M  V30 11108 H 1028.25 -5.15067 2.33928 0
M  V30 11109 H 1026.8 -5.76535 3.04057 0
M  V30 11110 N 1030.24 -1.51135 -0.446768 0
M  V30 11111 C 1031.48 -1.63013 -1.19461 0
M  V30 11112 C 1031.8 -0.344067 -1.91941 0
M  V30 11113 O 1031.07 0.639666 -1.85162 0
M  V30 11114 H 1029.65 -0.600757 -0.443959 0
M  V30 11115 H 1032.32 -1.88024 -0.513137 0
M  V30 11116 H 1031.41 -2.45322 -1.92933 0
M  V30 11117 N 1031.71 0.701592 -1.41122 0
M  V30 11118 C 1032.94 1.48833 -1.43291 0
M  V30 11119 C 1033.35 1.89168 -0.0348668 0
M  V30 11120 O 1032.69 1.56937 0.9548 0
M  V30 11121 C 1032.76 2.78533 -2.27287 0
M  V30 11122 C 1032.42 2.60438 -3.75528 0
M  V30 11123 C 1033.42 2.26778 -4.67833 0
M  V30 11124 C 1031.1 2.76266 -4.19503 0
M  V30 11125 C 1033.1 2.09176 -6.021 0
M  V30 11126 C 1030.78 2.58281 -5.53836 0
M  V30 11127 C 1031.78 2.24786 -6.4495 0
M  V30 11128 O 1031.47 2.06952 -7.76805 0
M  V30 11129 H 1031.2 0.465401 -0.490284 0
M  V30 11130 H 1033.76 0.871843 -1.85979 0
M  V30 11131 H 1031.99 3.42566 -1.79403 0
M  V30 11132 H 1033.67 3.40312 -2.21229 0
M  V30 11133 H 1034.44 2.1417 -4.35151 0
M  V30 11134 H 1030.32 3.01322 -3.48893 0
M  V30 11135 H 1033.86 1.82955 -6.73181 0
M  V30 11136 H 1029.76 2.70478 -5.86099 0
M  V30 11137 H 1030.53 2.21762 -7.87886 0
M  V30 11138 N 1033.19 1.2685 0.935242 0
M  V30 11139 C 1034.42 1.15645 1.72165 0
M  V30 11140 C 1034.84 -0.283909 1.85945 0
M  V30 11141 O 1034.2 -1.20567 1.354 0
M  V30 11142 C 1034.25 1.83689 3.10307 0
M  V30 11143 O 1033.35 1.12972 3.96625 0
M  V30 11144 H 1032.69 0.402629 0.528002 0
M  V30 11145 H 1035.22 1.67781 1.17093 0
M  V30 11146 H 1035.23 1.90749 3.60664 0
M  V30 11147 H 1033.91 2.88472 2.99595 0
M  V30 11148 H 1032.48 1.13929 3.5507 0
M  V30 11149 N 1034.67 -1.14067 1.0875 0
M  V30 11150 C 1036.08 -1.66747 0.839778 0
M  V30 11151 C 1036.43 -1.85711 -0.632909 0
M  V30 11152 O 1035.56 -1.57084 -1.48841 0
M  V30 11153 C 1036.15 -3.02896 1.51787 0
M  V30 11154 C 1034.71 -3.52596 1.3173 0
M  V30 11155 C 1033.86 -2.27994 1.57841 0
M  V30 11156 H 1036.81 -0.980838 1.24761 0
M  V30 11157 H 1036.83 -3.68526 0.947057 0
M  V30 11158 H 1036.34 -2.89062 2.58969 0
M  V30 11159 H 1034.44 -3.71647 0.266339 0
M  V30 11160 H 1034.56 -4.33151 2.04736 0
M  V30 11161 H 1032.92 -2.34241 1.00015 0
M  V30 11162 H 1033.7 -2.16732 2.66237 0
M  V30 11163 N 1036.15 -0.873678 -1.31166 0
M  V30 11164 C 1037.08 -0.348011 -2.30892 0
M  V30 11165 C 1038.06 0.563092 -1.60509 0
M  V30 11166 O 1039.24 0.479332 -1.88192 0
M  V30 11167 C 1036.37 0.448158 -3.44396 0
M  V30 11168 C 1035.33 -0.370179 -4.26396 0
M  V30 11169 C 1034.65 0.551903 -5.31844 0
M  V30 11170 C 1035.95 -1.60624 -4.96988 0
M  V30 11171 H 1037.65 -1.18134 -2.75109 0
M  V30 11172 H 1035.19 -0.569502 -1.3226 0
M  V30 11173 H 1037.15 0.826458 -4.13216 0
M  V30 11174 H 1035.87 1.31503 -2.98956 0
M  V30 11175 H 1034.53 -0.730472 -3.59249 0
M  V30 11176 H 1034.18 1.41616 -4.82653 0
M  V30 11177 H 1033.88 0.00823478 -5.87599 0
M  V30 11178 H 1035.4 0.926965 -6.03523 0
M  V30 11179 H 1036.82 -1.29917 -5.58386 0
M  V30 11180 H 1035.21 -2.08926 -5.62557 0
M  V30 11181 H 1036.28 -2.357 -4.23761 0
M  V30 11182 N 1037.63 1.44308 -0.633487 0
M  V30 11183 C 1038.85 2.06897 -0.144347 0
M  V30 11184 C 1039.28 1.47045 1.173 0
M  V30 11185 O 1038.63 0.572806 1.72013 0
M  V30 11186 C 1038.68 3.60571 -0.0456324 0
M  V30 11187 O 1037.79 4.0015 0.997682 0
M  V30 11188 H 1037.13 0.658427 -0.0858499 0
M  V30 11189 H 1039.66 1.85142 -0.870833 0
M  V30 11190 H 1039.67 4.07745 0.144178 0
M  V30 11191 H 1038.34 4.03515 -1.0074 0
M  V30 11192 H 1036.92 3.64603 0.782252 0
M  V30 11193 N 1039.1 0.374177 1.53094 0
M  V30 11194 C 1040.35 -0.212816 2.01379 0
M  V30 11195 C 1040.68 -1.48069 1.26118 0
M  V30 11196 O 1039.93 -1.92625 0.345561 0
M  V30 11197 C 1040.23 -0.542179 3.53264 0
M  V30 11198 C 1039.9 0.632375 4.46444 0
M  V30 11199 C 1038.56 0.954635 4.71636 0
M  V30 11200 C 1040.91 1.41887 5.01515 0
M  V30 11201 C 1038.24 2.06521 5.4915 0
M  V30 11202 C 1040.59 2.51993 5.80243 0
M  V30 11203 C 1039.26 2.84744 6.03719 0
M  V30 11204 H 1038.53 -0.0778749 0.736897 0
M  V30 11205 H 1041.17 0.508412 1.84628 0
M  V30 11206 H 1039.48 -1.34454 3.68007 0
M  V30 11207 H 1041.18 -1.00874 3.88105 0
M  V30 11208 H 1037.77 0.371179 4.2699 0
M  V30 11209 H 1041.95 1.18315 4.81991 0
M  V30 11210 H 1037.21 2.32284 5.65557 0
M  V30 11211 H 1041.38 3.13346 6.21922 0
M  V30 11212 H 1039.01 3.70921 6.63568 0
M  V30 11213 N 1040.58 -1.57259 0.103575 0
M  V30 11214 C 1041.51 -2.1153 -0.882472 0
M  V30 11215 C 1042.53 -1.05446 -1.24036 0
M  V30 11216 O 1043.72 -1.32867 -1.192 0
M  V30 11217 C 1040.82 -2.58717 -2.18903 0
M  V30 11218 C 1039.99 -3.8873 -2.00519 0
M  V30 11219 C 1039.05 -4.21675 -3.14764 0
M  V30 11220 O 1038.07 -4.90755 -2.88355 0
M  V30 11221 N 1039.28 -3.77757 -4.40772 0
M  V30 11222 H 1042.04 -2.96758 -0.418901 0
M  V30 11223 H 1039.6 -1.61696 -0.0812921 0
M  V30 11224 H 1041.59 -2.77797 -2.94297 0
M  V30 11225 H 1040.16 -1.78454 -2.56657 0
M  V30 11226 H 1039.38 -3.78714 -1.09406 0
M  V30 11227 H 1040.67 -4.73771 -1.85522 0
M  V30 11228 H 1040.07 -3.22011 -4.65108 0
M  V30 11229 H 1038.63 -4.01975 -5.13088 0
M  V30 11230 N 1042.06 0.170153 -1.56679 0
M  V30 11231 C 1043.29 0.902134 -1.86197 0
M  V30 11232 C 1043.7 1.75775 -0.689098 0
M  V30 11233 O 1043.06 1.79271 0.341763 0
M  V30 11234 C 1043.11 1.77792 -3.14757 0
M  V30 11235 O 1042.83 0.956817 -4.27524 0
M  V30 11236 C 1044.33 2.61947 -3.57629 0
M  V30 11237 H 1041.55 0.262026 -0.617724 0
M  V30 11238 H 1044.1 0.169899 -2.03793 0
M  V30 11239 H 1042.25 2.46348 -2.98984 0
M  V30 11240 H 1042.67 1.5559 -5.00891 0
M  V30 11241 H 1044.14 3.19011 -4.50484 0
M  V30 11242 H 1044.62 3.36873 -2.81803 0
M  V30 11243 H 1045.22 1.98721 -3.76019 0
M  V30 11244 N 1043.54 1.5137 0.438746 0
M  V30 11245 C 1044.49 1.68966 1.53083 0
M  V30 11246 C 1045.47 0.543669 1.51437 0
M  V30 11247 O 1046.66 0.799519 1.57914 0
M  V30 11248 C 1043.79 1.8168 2.91286 0
M  V30 11249 C 1042.88 3.02059 2.97693 0
M  V30 11250 N 1043.27 4.25254 2.73848 0
M  V30 11251 C 1041.57 3.01284 3.28852 0
M  V30 11252 C 1042.27 5.06501 2.86062 0
M  V30 11253 N 1041.25 4.41119 3.17671 0
M  V30 11254 H 1045.05 2.61883 1.33397 0
M  V30 11255 H 1042.56 1.48997 0.64603 0
M  V30 11256 H 1044.56 1.92396 3.6985 0
M  V30 11257 H 1043.22 0.899438 3.11994 0
M  V30 11258 H 1044.23 4.54222 2.48803 0
M  V30 11259 H 1040.91 2.19174 3.55344 0
M  V30 11260 H 1042.3 6.14563 2.71592 0
M  V30 11261 N 1045.02 -0.694098 1.41492 0
M  V30 11262 C 1045.95 -1.82042 1.46229 0
M  V30 11263 C 1046.93 -1.67047 0.320803 0
M  V30 11264 O 1048.11 -1.86758 0.53245 0
M  V30 11265 C 1045.24 -3.2019 1.34519 0
M  V30 11266 C 1044.2 -3.49892 2.46495 0
M  V30 11267 C 1043.52 -4.87411 2.1985 0
M  V30 11268 C 1044.82 -3.4872 3.88834 0
M  V30 11269 H 1046.52 -1.78335 2.40493 0
M  V30 11270 H 1044.06 -0.856566 1.15754 0
M  V30 11271 H 1046.02 -3.98699 1.36445 0
M  V30 11272 H 1044.74 -3.24527 0.367406 0
M  V30 11273 H 1043.4 -2.73734 2.43854 0
M  V30 11274 H 1043.05 -4.88375 1.20411 0
M  V30 11275 H 1042.75 -5.08248 2.94885 0
M  V30 11276 H 1044.27 -5.68228 2.23494 0
M  V30 11277 H 1045.68 -4.1723 3.93182 0
M  V30 11278 H 1044.08 -3.81089 4.63564 0
M  V30 11279 H 1045.15 -2.47665 4.16881 0
M  V30 11280 N 1046.49 -1.27344 -0.928501 0
M  V30 11281 C 1047.91 -1.12361 -1.49103 0
M  V30 11282 C 1048.26 0.291667 -1.9402 0
M  V30 11283 O 1047.38 1.18449 -1.81104 0
M  V30 11284 C 1047.98 -2.03358 -2.70981 0
M  V30 11285 C 1046.54 -1.92483 -3.23461 0
M  V30 11286 C 1045.68 -1.95961 -1.962 0
M  V30 11287 H 1048.63 -1.40249 -0.742689 0
M  V30 11288 H 1048.65 -1.58892 -3.45736 0
M  V30 11289 H 1048.17 -3.06356 -2.38259 0
M  V30 11290 H 1046.27 -0.924676 -3.60944 0
M  V30 11291 H 1046.38 -2.78682 -3.89709 0
M  V30 11292 H 1044.74 -1.40175 -2.12657 0
M  V30 11293 H 1045.53 -3.00612 -1.65793 0
M  V30 11294 N 1047.97 1.13488 -1.09353 0
M  V30 11295 C 1048.94 2.17066 -0.735863 0
M  V30 11296 C 1049.94 1.59086 0.234181 0
M  V30 11297 O 1051.13 1.74196 0.012463 0
M  V30 11298 C 1048.26 3.40786 -0.0880975 0
M  V30 11299 H 1049.45 2.50221 -1.65316 0
M  V30 11300 H 1047 1.28304 -0.89263 0
M  V30 11301 H 1047.74 3.1322 0.840462 0
M  V30 11302 H 1047.52 3.8414 -0.786073 0
M  V30 11303 H 1049.01 4.17342 0.146775 0
M  V30 11304 N 1049.45 0.880621 1.30701 0
M  V30 11305 C 1050.38 0.301443 2.27209 0
M  V30 11306 C 1051.4 -0.541533 1.53529 0
M  V30 11307 O 1052.59 -0.361791 1.74795 0
M  V30 11308 C 1049.69 -0.59038 3.33718 0
M  V30 11309 C 1048.86 0.222549 4.36833 0
M  V30 11310 C 1047.92 -0.599083 5.22779 0
M  V30 11311 O 1046.94 -0.0233267 5.69195 0
M  V30 11312 N 1048.15 -1.90904 5.48211 0
M  V30 11313 H 1050.91 1.13083 2.77547 0
M  V30 11314 H 1048.47 0.743168 1.43835 0
M  V30 11315 H 1050.46 -1.14599 3.88135 0
M  V30 11316 H 1049.03 -1.32044 2.83343 0
M  V30 11317 H 1048.25 0.959606 3.82342 0
M  V30 11318 H 1049.54 0.779965 5.02786 0
M  V30 11319 H 1048.94 -2.3998 5.12275 0
M  V30 11320 H 1047.5 -2.4122 6.05521 0
M  V30 11321 N 1050.93 -1.4397 0.641131 0
M  V30 11322 C 1052.35 -1.56607 0.30762 0
M  V30 11323 C 1052.55 -1.62694 -1.18882 0
M  V30 11324 O 1051.6 -1.57541 -1.97325 0
M  V30 11325 C 1052.91 -2.83289 1.00834 0
M  V30 11326 C 1054.46 -2.97016 0.98744 0
M  V30 11327 C 1054.94 -4.26514 1.66882 0
M  V30 11328 N 1056.43 -4.33351 1.63589 0
M  V30 11329 C 1057.16 -5.32292 2.13196 0
M  V30 11330 N 1056.66 -6.37582 2.71038 0
M  V30 11331 N 1058.45 -5.23866 2.03766 0
M  V30 11332 H 1050.6 -1.38262 1.61237 0
M  V30 11333 H 1052.87 -0.663221 0.677378 0
M  V30 11334 H 1052.57 -2.84812 2.06337 0
M  V30 11335 H 1052.45 -3.73134 0.552333 0
M  V30 11336 H 1054.83 -2.95041 -0.0591395 0
M  V30 11337 H 1054.91 -2.08493 1.48203 0
M  V30 11338 H 1054.56 -4.2925 2.71491 0
M  V30 11339 H 1054.49 -5.13912 1.14898 0
M  V30 11340 H 1056.98 -3.5788 1.21368 0
M  V30 11341 H 1057.29 -7.09378 3.06597 0
M  V30 11342 H 1055.64 -6.38239 2.75093 0
M  V30 11343 H 1058.83 -4.40524 1.58291 0
M  V30 11344 H 1059 -6.00819 2.42737 0
M  V30 11345 N 1052.41 -0.382291 -1.52893 0
M  V30 11346 C 1053.66 0.201734 -2.01091 0
M  V30 11347 C 1053.98 1.47905 -1.2708 0
M  V30 11348 O 1053.25 1.92002 -0.38883 0
M  V30 11349 H 1051.83 0.0775373 -0.742965 0
M  V30 11350 H 1054.49 -0.512369 -1.88045 0
M  V30 11351 H 1053.58 0.416919 -3.09303 0
M  V30 11352 N 1053.89 1.57202 -0.111913 0
M  V30 11353 C 1055.3 1.82039 0.414591 0
M  V30 11354 C 1055.65 1.02863 1.67074 0
M  V30 11355 O 1054.77 0.263068 2.14795 0
M  V30 11356 C 1055.37 3.3019 0.758953 0
M  V30 11357 C 1053.93 3.55732 1.23012 0
M  V30 11358 C 1053.07 2.76301 0.235226 0
M  V30 11359 H 1056.02 1.55078 -0.337142 0
M  V30 11360 H 1056.05 3.44431 1.61701 0
M  V30 11361 H 1055.56 3.87788 -0.155473 0
M  V30 11362 H 1053.66 3.03483 2.16169 0
M  V30 11363 H 1053.77 4.64333 1.18034 0
M  V30 11364 H 1052.14 2.44287 0.720822 0
M  V30 11365 H 1052.92 3.36655 -0.672173 0
M  V30 11366 N 1055.36 -0.161842 1.56767 0
M  V30 11367 C 1056.64 -0.904754 1.73417 0
M  V30 11368 C 1057.02 -1.99987 0.675908 0
M  V30 11369 O 1056.37 -2.26419 -0.307712 0
M  V30 11370 C 1056.58 -1.46082 3.16956 0
M  V30 11371 C 1057.93 -1.93004 3.78199 0
M  V30 11372 O 1058.95 -1.55856 3.20293 0
M  V30 11373 O 1057.81 -2.61465 4.79894 0
M  V30 11374 H 1054.9 -0.426518 0.708528 0
M  V30 11375 H 1057.45 -0.148928 1.69045 0
M  V30 11376 H 1056.22 -0.673087 3.85468 0
M  V30 11377 H 1055.84 -2.28056 3.25693 0
M  V30 11378 N 1056.84 -1.516 -0.430713 0
M  V30 11379 C 1058.26 -1.39923 -0.767706 0
M  V30 11380 C 1058.46 -0.486756 -1.95532 0
M  V30 11381 O 1057.51 0.0555965 -2.52439 0
M  V30 11382 C 1058.83 -2.82074 -1.04187 0
M  V30 11383 C 1060.37 -2.9127 -1.1459 0
M  V30 11384 C 1060.85 -4.34342 -1.45295 0
M  V30 11385 N 1062.34 -4.37479 -1.52206 0
M  V30 11386 C 1063.08 -5.45219 -1.77549 0
M  V30 11387 N 1062.57 -6.6311 -2.0064 0
M  V30 11388 N 1064.36 -5.32707 -1.79386 0
M  V30 11389 H 1056.52 -2.09474 0.351351 0
M  V30 11390 H 1058.78 -0.943247 0.0948151 0
M  V30 11391 H 1058.48 -3.50868 -0.241837 0
M  V30 11392 H 1058.36 -3.21805 -1.96777 0
M  V30 11393 H 1060.75 -2.2267 -1.93655 0
M  V30 11394 H 1060.83 -2.55026 -0.198854 0
M  V30 11395 H 1060.47 -5.03494 -0.667559 0
M  V30 11396 H 1060.4 -4.68105 -2.41217 0
M  V30 11397 H 1062.89 -3.52488 -1.36237 0
M  V30 11398 H 1063.2 -7.41012 -2.19366 0
M  V30 11399 H 1061.55 -6.66214 -1.97948 0
M  V30 11400 H 1064.74 -4.39589 -1.60869 0
M  V30 11401 H 1064.91 -6.16752 -1.98799 0
M  V30 11402 N 1058.32 0.686584 -1.41858 0
M  V30 11403 C 1059.73 1.26682 -1.37145 0
M  V30 11404 C 1060.08 1.96112 -0.058922 0
M  V30 11405 O 1059.21 1.99321 0.842629 0
M  V30 11406 C 1059.8 2.30383 -2.48413 0
M  V30 11407 C 1058.36 2.83961 -2.47069 0
M  V30 11408 C 1057.51 1.58119 -2.27802 0
M  V30 11409 H 1060.46 0.480742 -1.51243 0
M  V30 11410 H 1060.48 3.11868 -2.17987 0
M  V30 11411 H 1059.99 1.79822 -3.43927 0
M  V30 11412 H 1058.09 3.38675 -1.55338 0
M  V30 11413 H 1058.21 3.3378 -3.43697 0
M  V30 11414 H 1056.57 1.84258 -1.75844 0
M  V30 11415 H 1057.35 1.09541 -3.25355 0
M  V30 11416 N 1059.8 1.27835 0.921735 0
M  V30 11417 C 1061.07 1.05238 1.64877 0
M  V30 11418 C 1061.45 -0.410921 2.07062 0
M  V30 11419 O 1060.8 -1.39538 1.80946 0
M  V30 11420 C 1061.01 2.01955 2.84632 0
M  V30 11421 C 1062.36 2.31657 3.55837 0
M  V30 11422 O 1063.38 1.99975 2.94768 0
M  V30 11423 O 1062.24 2.85692 4.65878 0
M  V30 11424 H 1059.34 0.401622 0.72293 0
M  V30 11425 H 1061.88 1.39123 0.971744 0
M  V30 11426 H 1060.66 3.00614 2.50494 0
M  V30 11427 H 1060.28 1.68667 3.60052 0
M  V30 11428 N 1061.28 -1.12907 1.09954 0
M  V30 11429 C 1062.52 -1.83941 0.837255 0
M  V30 11430 C 1062.84 -1.84234 -0.638984 0
M  V30 11431 O 1062.11 -1.30193 -1.46378 0
M  V30 11432 H 1060.69 -0.681115 0.306743 0
M  V30 11433 H 1063.36 -1.36743 1.38879 0
M  V30 11434 H 1062.45 -2.88289 1.19565 0
M  V30 11435 N 1062.75 -0.88754 -1.30232 0
M  V30 11436 C 1064 -0.503322 -1.95319 0
M  V30 11437 C 1064.32 0.952817 -1.70824 0
M  V30 11438 O 1065.52 1.444 -2.29915 0
M  V30 11439 C 1063.98 -0.849216 -3.49738 0
M  V30 11440 C 1063.59 -2.3233 -3.83049 0
M  V30 11441 C 1065.33 -0.53432 -4.21124 0
M  V30 11442 C 1063.24 -2.61069 -5.30657 0
M  V30 11443 H 1062.17 -0.1845 -0.731078 0
M  V30 11444 H 1064.82 -1.08287 -1.48143 0
M  V30 11445 H 1063.2 -0.198729 -3.95501 0
M  V30 11446 H 1064.37 -3.01832 -3.48187 0
M  V30 11447 H 1062.69 -2.60599 -3.24773 0
M  V30 11448 H 1065.29 -0.726039 -5.29748 0
M  V30 11449 H 1065.63 0.526434 -4.12958 0
M  V30 11450 H 1066.16 -1.14211 -3.81052 0
M  V30 11451 H 1062.9 -3.65895 -5.43876 0
M  V30 11452 H 1062.42 -1.96179 -5.6681 0
M  V30 11453 H 1064.1 -2.46703 -5.98119 0
M  V30 11454 N 1064.23 1.43628 -0.648757 0
M  V30 11455 C 1065.14 2.34554 0.0463037 0
M  V30 11456 C 1066.16 1.53629 0.816952 0
M  V30 11457 O 1067.33 1.86297 0.765212 0
M  V30 11458 C 1064.4 3.3185 1.00381 0
M  V30 11459 C 1063.46 4.2868 0.230589 0
M  V30 11460 C 1062.69 5.21328 1.14249 0
M  V30 11461 O 1062.92 5.18298 2.38166 0
M  V30 11462 O 1061.85 5.98726 0.617296 0
M  V30 11463 H 1065.68 2.95475 -0.702008 0
M  V30 11464 H 1063.26 1.43694 -0.408942 0
M  V30 11465 H 1065.14 3.91692 1.5542 0
M  V30 11466 H 1063.82 2.73439 1.73243 0
M  V30 11467 H 1062.73 3.72332 -0.363282 0
M  V30 11468 H 1064.06 4.90061 -0.458368 0
M  V30 11469 N 1065.71 0.390394 1.52688 0
M  V30 11470 C 1066.62 -0.451543 2.30213 0
M  V30 11471 C 1067.64 -1.07051 1.37172 0
M  V30 11472 O 1068.81 -1.07609 1.70242 0
M  V30 11473 C 1065.88 -1.56299 3.0947 0
M  V30 11474 C 1064.94 -0.969017 4.18221 0
M  V30 11475 C 1064.17 -2.0275 4.93688 0
M  V30 11476 O 1064.39 -3.24273 4.69258 0
M  V30 11477 O 1063.33 -1.64418 5.79008 0
M  V30 11478 H 1067.15 0.180042 3.03166 0
M  V30 11479 H 1064.74 0.154082 1.48603 0
M  V30 11480 H 1066.62 -2.20864 3.58883 0
M  V30 11481 H 1065.3 -2.17952 2.3933 0
M  V30 11482 H 1064.2 -0.286587 3.73001 0
M  V30 11483 H 1065.54 -0.396687 4.90599 0
M  V30 11484 N 1067.19 -1.57141 0.120249 0
M  V30 11485 C 1068.1 -2.18925 -0.843155 0
M  V30 11486 C 1069.11 -1.16575 -1.29175 0
M  V30 11487 O 1070.29 -1.4905 -1.35448 0
M  V30 11488 C 1067.36 -2.7775 -2.075 0
M  V30 11489 C 1066.42 -3.95139 -1.6782 0
M  V30 11490 C 1065.65 -4.51149 -2.85132 0
M  V30 11491 O 1065.87 -4.06056 -4.00593 0
M  V30 11492 O 1064.81 -5.41815 -2.62145 0
M  V30 11493 H 1068.63 -3.01707 -0.347357 0
M  V30 11494 H 1066.22 -1.49028 -0.105427 0
M  V30 11495 H 1068.1 -3.15243 -2.79643 0
M  V30 11496 H 1066.77 -1.97998 -2.56083 0
M  V30 11497 H 1065.68 -3.62412 -0.927807 0
M  V30 11498 H 1067.01 -4.7633 -1.23977 0
M  V30 11499 N 1068.67 0.153526 -1.5685 0
M  V30 11500 C 1069.91 0.865519 -1.82629 0
M  V30 11501 C 1070.24 1.81999 -0.700105 0
M  V30 11502 O 1069.51 1.93907 0.278744 0
M  V30 11503 H 1068.09 0.32261 -0.673745 0
M  V30 11504 H 1070.75 0.149088 -1.94329 0
M  V30 11505 H 1069.84 1.43171 -2.77324 0
M  V30 11506 N 1070.14 1.51827 0.422667 0
M  V30 11507 C 1071.39 1.64893 1.16853 0
M  V30 11508 C 1071.71 0.37456 1.91369 0
M  V30 11509 O 1070.98 -0.610128 1.86157 0
M  V30 11510 H 1069.56 0.607744 0.434345 0
M  V30 11511 H 1072.23 1.88816 0.483159 0
M  V30 11512 H 1071.32 2.48361 1.89006 0
M  V30 11513 N 1071.62 -0.679052 1.4222 0
M  V30 11514 C 1072.53 -1.82221 1.47759 0
M  V30 11515 C 1073.55 -1.70092 0.3667 0
M  V30 11516 O 1074.72 -1.91718 0.616957 0
M  V30 11517 C 1071.79 -3.18332 1.37351 0
M  V30 11518 C 1070.85 -3.42449 2.58896 0
M  V30 11519 C 1070.08 -4.72067 2.48976 0
M  V30 11520 O 1070.31 -5.49683 1.5233 0
M  V30 11521 O 1069.24 -4.97333 3.39033 0
M  V30 11522 H 1073.07 -1.80504 2.44238 0
M  V30 11523 H 1070.65 -0.834251 1.23938 0
M  V30 11524 H 1072.53 -3.99563 1.33893 0
M  V30 11525 H 1071.21 -3.20696 0.439965 0
M  V30 11526 H 1070.12 -2.61083 2.6793 0
M  V30 11527 H 1071.45 -3.44912 3.51136 0
M  V30 11528 N 1073.1 -1.28322 -0.914942 0
M  V30 11529 C 1074.52 -1.06003 -1.19313 0
M  V30 11530 C 1074.72 0.198366 -2.00521 0
M  V30 11531 O 1073.77 0.900364 -2.35902 0
M  V30 11532 C 1075.09 -2.30684 -1.92887 0
M  V30 11533 C 1076.63 -2.35851 -2.05775 0
M  V30 11534 C 1077.11 -3.60295 -2.82757 0
M  V30 11535 N 1078.6 -3.60928 -2.9032 0
M  V30 11536 C 1079.33 -4.53894 -3.50383 0
M  V30 11537 N 1078.83 -5.57178 -4.11734 0
M  V30 11538 N 1080.62 -4.41492 -3.4791 0
M  V30 11539 H 1072.77 -2.09104 -0.372735 0
M  V30 11540 H 1075.04 -0.920285 -0.227552 0
M  V30 11541 H 1074.74 -3.22355 -1.40643 0
M  V30 11542 H 1074.62 -2.37003 -2.93444 0
M  V30 11543 H 1077 -1.44678 -2.57201 0
M  V30 11544 H 1077.09 -2.33526 -1.04399 0
M  V30 11545 H 1076.73 -4.51811 -2.32011 0
M  V30 11546 H 1076.66 -3.59873 -3.84446 0
M  V30 11547 H 1079.15 -2.8624 -2.46729 0
M  V30 11548 H 1079.46 -6.24261 -4.55541 0
M  V30 11549 H 1077.81 -5.61005 -4.10242 0
M  V30 11550 H 1081 -3.60005 -2.99189 0
M  V30 11551 H 1081.17 -5.14132 -3.94427 0
M  V30 11552 N 1074.58 1.12322 -1.10551 0
M  V30 11553 C 1075.86 1.80201 -0.760715 0
M  V30 11554 C 1076.24 1.97228 0.752628 0
M  V30 11555 O 1075.58 1.54958 1.67929 0
M  V30 11556 C 1075.79 3.14491 -1.51316 0
M  V30 11557 C 1077.14 3.89671 -1.68647 0
M  V30 11558 O 1078.17 3.24151 -1.47664 0
M  V30 11559 O 1077.02 5.0722 -2.03445 0
M  V30 11560 H 1074.12 0.780084 -0.274587 0
M  V30 11561 H 1076.66 1.19147 -1.20839 0
M  V30 11562 H 1075.44 2.97396 -2.54306 0
M  V30 11563 H 1075.06 3.83253 -1.05842 0
M  V30 11564 N 1076.06 0.894434 1.2976 0
M  V30 11565 C 1077.47 0.589778 1.48303 0
M  V30 11566 C 1077.67 -0.870085 1.81746 0
M  V30 11567 O 1076.73 -1.65065 1.91076 0
M  V30 11568 C 1078.04 1.51107 2.59975 0
M  V30 11569 C 1079.59 1.51571 2.73853 0
M  V30 11570 C 1080.06 2.42316 3.88648 0
M  V30 11571 N 1081.56 2.40333 3.95973 0
M  V30 11572 C 1082.29 3.07254 4.84131 0
M  V30 11573 N 1081.79 3.83435 5.77018 0
M  V30 11574 N 1083.58 2.96438 4.77578 0
M  V30 11575 H 1075.73 1.83871 1.06327 0
M  V30 11576 H 1077.99 0.78758 0.527657 0
M  V30 11577 H 1077.7 2.55097 2.42112 0
M  V30 11578 H 1077.57 1.22767 3.56662 0
M  V30 11579 H 1079.96 0.483277 2.91116 0
M  V30 11580 H 1080.04 1.83946 1.77757 0
M  V30 11581 H 1079.69 3.4565 3.72141 0
M  V30 11582 H 1079.62 2.07252 4.84101 0
M  V30 11583 H 1082.11 1.84979 3.29532 0
M  V30 11584 H 1082.42 4.31565 6.4107 0
M  V30 11585 H 1080.76 3.87542 5.7692 0
M  V30 11586 H 1083.96 2.36442 4.03996 0
M  V30 11587 H 1084.13 3.48867 5.46073 0
M  V30 11588 N 1077.53 -1.43282 0.656365 0
M  V30 11589 C 1078.81 -1.9534 0.100816 0
M  V30 11590 C 1079.19 -1.59755 -1.37992 0
M  V30 11591 O 1078.54 -0.884264 -2.10697 0
M  V30 11592 C 1078.75 -3.47237 0.35038 0
M  V30 11593 C 1080.1 -4.23822 0.257001 0
M  V30 11594 O 1081.12 -3.55073 0.283111 0
M  V30 11595 O 1079.98 -5.46192 0.183397 0
M  V30 11596 H 1077.07 -0.826963 -0.00780287 0
M  V30 11597 H 1079.62 -1.53205 0.72982 0
M  V30 11598 H 1078.39 -3.66276 1.37685 0
M  V30 11599 H 1078.02 -3.96378 -0.311539 0
M  V30 11600 N 1079.01 -0.398486 -1.52479 0
M  V30 11601 C 1080.43 -0.0488635 -1.59525 0
M  V30 11602 C 1080.63 1.43756 -1.41197 0
M  V30 11603 O 1079.69 2.20317 -1.23357 0
M  V30 11604 C 1081 -0.534262 -2.95916 0
M  V30 11605 C 1082.55 -0.491314 -3.0912 0
M  V30 11606 C 1083.02 -0.953049 -4.47974 0
M  V30 11607 N 1084.51 -0.909434 -4.54184 0
M  V30 11608 C 1085.25 -1.23801 -5.59876 0
M  V30 11609 N 1084.74 -1.63752 -6.73169 0
M  V30 11610 N 1086.54 -1.15867 -5.50028 0
M  V30 11611 H 1078.69 -1.36608 -1.62641 0
M  V30 11612 H 1080.95 -0.560515 -0.764544 0
M  V30 11613 H 1080.66 -1.57277 -3.14574 0
M  V30 11614 H 1080.53 0.0617787 -3.77149 0
M  V30 11615 H 1082.92 0.538123 -2.90152 0
M  V30 11616 H 1083 -1.12327 -2.29818 0
M  V30 11617 H 1082.64 -1.98076 -4.67684 0
M  V30 11618 H 1082.57 -0.298007 -5.25756 0
M  V30 11619 H 1085.06 -0.615569 -3.72853 0
M  V30 11620 H 1085.38 -1.87163 -7.49793 0
M  V30 11621 H 1083.72 -1.67647 -6.74477 0
M  V30 11622 H 1086.91 -0.845502 -4.60401 0
M  V30 11623 H 1087.09 -1.41805 -6.32294 0
M  V30 11624 N 1080.49 1.57075 -0.12858 0
M  V30 11625 C 1081.72 2.00305 0.537839 0
M  V30 11626 C 1082.14 1.00787 1.58819 0
M  V30 11627 O 1081.5 -0.0190839 1.8129 0
M  V30 11628 C 1081.55 3.42371 1.13201 0
M  V30 11629 O 1080.65 3.45786 2.24735 0
M  V30 11630 H 1079.99 0.650456 0.133428 0
M  V30 11631 H 1082.52 2.03415 -0.219882 0
M  V30 11632 H 1082.53 3.80783 1.4652 0
M  V30 11633 H 1081.21 4.14315 0.362713 0
M  V30 11634 H 1079.78 3.19201 1.92783 0
M  V30 11635 N 1081.97 -0.145205 1.5693 0
M  V30 11636 C 1083.22 -0.855822 1.83085 0
M  V30 11637 C 1083.54 -1.81625 0.709747 0
M  V30 11638 O 1082.81 -1.94052 -0.268456 0
M  V30 11639 H 1081.39 -0.319032 0.675446 0
M  V30 11640 H 1084.05 -0.138781 1.94405 0
M  V30 11641 H 1083.15 -1.41698 2.78079 0
M  V30 11642 N 1083.45 -1.52049 -0.414609 0
M  V30 11643 C 1084.86 -1.58062 -0.993638 0
M  V30 11644 C 1085.21 -0.417795 -1.917 0
M  V30 11645 O 1084.33 0.462558 -2.11399 0
M  V30 11646 C 1084.93 -2.86471 -1.80886 0
M  V30 11647 C 1083.49 -2.94981 -2.33801 0
M  V30 11648 C 1082.64 -2.52949 -1.13631 0
M  V30 11649 H 1085.59 -1.57497 -0.19504 0
M  V30 11650 H 1085.61 -2.71515 -2.66571 0
M  V30 11651 H 1085.12 -3.71085 -1.13657 0
M  V30 11652 H 1083.22 -2.14849 -3.04419 0
M  V30 11653 H 1083.33 -3.99111 -2.65042 0
M  V30 11654 H 1081.7 -2.0667 -1.48861 0
M  V30 11655 H 1082.48 -3.39931 -0.479765 0
M  V30 11656 N 1084.93 0.6715 -1.42579 0
M  V30 11657 C 1085.86 1.79693 -1.49107 0
M  V30 11658 C 1086.84 1.66516 -0.347338 0
M  V30 11659 O 1088.02 1.85887 -0.562094 0
M  V30 11660 C 1085.15 3.1801 -1.39596 0
M  V30 11661 C 1084.11 3.45926 -2.5203 0
M  V30 11662 C 1083.43 4.83852 -2.27577 0
M  V30 11663 C 1084.73 3.4249 -3.94333 0
M  V30 11664 H 1086.43 1.74486 -2.433 0
M  V30 11665 H 1083.97 0.838042 -1.17102 0
M  V30 11666 H 1085.92 3.96478 -1.42771 0
M  V30 11667 H 1084.65 3.23901 -0.418989 0
M  V30 11668 H 1083.31 2.6982 -2.48178 0
M  V30 11669 H 1082.96 4.86398 -1.28165 0
M  V30 11670 H 1082.66 5.03493 -3.02934 0
M  V30 11671 H 1084.18 5.646 -2.32506 0
M  V30 11672 H 1085.59 4.10922 -3.9977 0
M  V30 11673 H 1083.99 3.73666 -4.69568 0
M  V30 11674 H 1085.06 2.41002 -4.20768 0
M  V30 11675 N 1086.4 1.28806 0.908124 0
M  V30 11676 C 1087.65 1.1646 1.66027 0
M  V30 11677 C 1087.98 -0.285025 1.92097 0
M  V30 11678 O 1087.26 -1.20675 1.52538 0
M  V30 11679 C 1087.54 1.96951 3.01467 0
M  V30 11680 C 1087.39 3.50007 2.82515 0
M  V30 11681 C 1088.71 1.78932 4.02084 0
M  V30 11682 H 1085.83 0.424435 0.602515 0
M  V30 11683 H 1088.47 1.58185 1.0525 0
M  V30 11684 H 1086.62 1.61495 3.53344 0
M  V30 11685 H 1088.3 3.95401 2.37605 0
M  V30 11686 H 1086.54 3.75356 2.17463 0
M  V30 11687 H 1087.21 4.01591 3.7872 0
M  V30 11688 H 1089.69 2.09885 3.59287 0
M  V30 11689 H 1088.56 2.37615 4.94803 0
M  V30 11690 H 1088.82 0.742286 4.35824 0
M  V30 11691 N 1087.88 -1.11734 1.11145 0
M  V30 11692 C 1089.16 -1.79795 0.770261 0
M  V30 11693 C 1089.54 -1.97624 -0.742158 0
M  V30 11694 O 1088.89 -1.55847 -1.67105 0
M  V30 11695 C 1089.1 -3.13684 1.52982 0
M  V30 11696 C 1090.44 -3.88771 1.70711 0
M  V30 11697 O 1091.47 -3.23363 1.49381 0
M  V30 11698 O 1090.33 -5.06134 2.06132 0
M  V30 11699 H 1087.42 -0.778617 0.27872 0
M  V30 11700 H 1089.97 -1.18504 1.2147 0
M  V30 11701 H 1088.74 -2.96043 2.55879 0
M  V30 11702 H 1088.36 -3.82687 1.07873 0
M  V30 11703 N 1089.36 -0.901303 -1.29284 0
M  V30 11704 C 1090.61 -0.527 -1.95108 0
M  V30 11705 C 1090.93 0.930065 -1.71391 0
M  V30 11706 O 1090.2 1.65601 -1.04658 0
M  V30 11707 H 1088.78 -0.191903 -0.721929 0
M  V30 11708 H 1091.44 -1.14795 -1.57506 0
M  V30 11709 H 1090.54 -0.710945 -3.03895 0
M  V30 11710 N 1090.84 1.42931 -0.663954 0
M  V30 11711 C 1092.08 2.01683 -0.181738 0
M  V30 11712 C 1092.41 1.52437 1.20802 0
M  V30 11713 O 1091.67 0.71254 1.82267 0
M  V30 11714 C 1091.97 3.57072 -0.153163 0
M  V30 11715 C 1091.63 4.25706 -1.48612 0
M  V30 11716 C 1090.29 4.4417 -1.85111 0
M  V30 11717 C 1092.65 4.6448 -2.36448 0
M  V30 11718 C 1089.97 4.98677 -3.09092 0
M  V30 11719 C 1092.33 5.20362 -3.5973 0
M  V30 11720 C 1090.99 5.37041 -3.96412 0
M  V30 11721 H 1090.26 0.73801 -0.0665026 0
M  V30 11722 H 1092.91 1.71264 -0.856791 0
M  V30 11723 H 1091.21 3.87095 0.605372 0
M  V30 11724 H 1092.91 4.00299 0.236981 0
M  V30 11725 H 1089.5 4.11686 -1.19215 0
M  V30 11726 H 1093.68 4.49898 -2.09537 0
M  V30 11727 H 1088.94 5.09776 -3.37547 0
M  V30 11728 H 1093.11 5.49352 -4.28001 0
M  V30 11729 H 1090.74 5.79042 -4.92559 0
M  V30 11730 N 1092.32 0.406567 1.52266 0
M  V30 11731 C 1093.25 -0.411314 2.29849 0
M  V30 11732 C 1094.23 -1.04838 1.33952 0
M  V30 11733 O 1095.41 -1.05788 1.62857 0
M  V30 11734 C 1092.54 -1.52961 3.11802 0
M  V30 11735 C 1091.5 -1.01768 4.15725 0
M  V30 11736 C 1090.82 -2.22938 4.86007 0
M  V30 11737 C 1092.12 -0.073515 5.22248 0
M  V30 11738 H 1093.82 0.236054 2.98468 0
M  V30 11739 H 1091.36 0.114968 1.4354 0
M  V30 11740 H 1093.31 -2.10874 3.64843 0
M  V30 11741 H 1092.04 -2.20482 2.40947 0
M  V30 11742 H 1090.7 -0.46097 3.6369 0
M  V30 11743 H 1090.35 -2.89007 4.11684 0
M  V30 11744 H 1090.05 -1.89338 5.5626 0
M  V30 11745 H 1091.57 -2.81462 5.41859 0
M  V30 11746 H 1092.98 -0.561367 5.70545 0
M  V30 11747 H 1091.38 0.173551 5.99849 0
M  V30 11748 H 1092.45 0.872524 4.76985 0
M  V30 11749 N 1093.79 -1.57004 0.136909 0
M  V30 11750 C 1094.76 -2.15066 -0.792419 0
M  V30 11751 C 1095.76 -1.08991 -1.18226 0
M  V30 11752 O 1096.95 -1.34681 -1.10484 0
M  V30 11753 C 1094.08 -2.70554 -2.07397 0
M  V30 11754 H 1095.27 -2.98519 -0.28752 0
M  V30 11755 H 1092.83 -1.55895 -0.112469 0
M  V30 11756 H 1093.56 -1.90739 -2.62277 0
M  V30 11757 H 1093.35 -3.48149 -1.80374 0
M  V30 11758 H 1094.84 -3.15322 -2.73792 0
M  V30 11759 N 1095.27 0.136881 -1.57004 0
M  V30 11760 C 1096.52 0.846257 -1.83088 0
M  V30 11761 C 1096.83 1.81876 -0.719765 0
M  V30 11762 O 1098.04 2.57302 -0.866494 0
M  V30 11763 C 1096.5 1.55559 -3.24545 0
M  V30 11764 C 1096.1 0.624989 -4.43619 0
M  V30 11765 C 1097.85 2.25115 -3.59893 0
M  V30 11766 C 1095.76 1.33653 -5.761 0
M  V30 11767 H 1094.69 0.319768 -0.682836 0
M  V30 11768 H 1097.34 0.0989741 -1.83233 0
M  V30 11769 H 1095.72 2.34887 -3.18817 0
M  V30 11770 H 1096.89 -0.133783 -4.60606 0
M  V30 11771 H 1095.21 0.0373216 -4.16383 0
M  V30 11772 H 1097.8 2.79008 -4.56134 0
M  V30 11773 H 1098.15 3.02084 -2.86446 0
M  V30 11774 H 1098.68 1.52696 -3.67327 0
M  V30 11775 H 1095.42 0.608495 -6.5267 0
M  V30 11776 H 1094.94 2.06776 -5.63031 0
M  V30 11777 H 1096.62 1.87467 -6.19246 0
M  V30 11778 N 1096.75 1.52266 0.40654 0
M  V30 11779 C 1098 1.6568 1.15035 0
M  V30 11780 C 1098.31 0.394135 1.91588 0
M  V30 11781 O 1099.52 0.408113 2.68415 0
M  V30 11782 C 1097.97 2.92725 2.0938 0
M  V30 11783 C 1097.58 4.26108 1.38332 0
M  V30 11784 C 1099.33 3.15502 2.84004 0
M  V30 11785 C 1097.23 5.44275 2.3134 0
M  V30 11786 H 1096.16 0.61719 0.43312 0
M  V30 11787 H 1098.81 1.78755 0.414598 0
M  V30 11788 H 1097.2 2.73355 2.86519 0
M  V30 11789 H 1098.37 4.55971 0.665396 0
M  V30 11790 H 1096.69 4.09454 0.757384 0
M  V30 11791 H 1099.28 4.00964 3.5374 0
M  V30 11792 H 1099.63 2.29842 3.471 0
M  V30 11793 H 1100.16 3.35357 2.13964 0
M  V30 11794 H 1096.9 6.3229 1.72887 0
M  V30 11795 H 1096.42 5.18749 3.01098 0
M  V30 11796 H 1098.1 5.77457 2.91809 0
M  V30 11797 N 1098.23 -0.663929 1.42933 0
M  V30 11798 C 1099.47 -1.42446 1.45192 0
M  V30 11799 C 1099.83 -1.92269 0.0710678 0
M  V30 11800 O 1099.12 -1.68688 -0.908565 0
M  V30 11801 C 1099.32 -2.62976 2.4203 0
M  V30 11802 C 1099.15 -2.24948 3.89395 0
M  V30 11803 C 1097.92 -2.13786 4.57847 0
M  V30 11804 C 1100.11 -1.85907 4.79524 0
M  V30 11805 N 1098.1 -1.68976 5.90187 0
M  V30 11806 C 1099.47 -1.52099 6.01054 0
M  V30 11807 C 1101.52 -1.72995 4.6688 0
M  V30 11808 C 1100.22 -1.06673 7.11346 0
M  V30 11809 C 1102.25 -1.28975 5.77165 0
M  V30 11810 C 1101.61 -0.960968 6.97814 0
M  V30 11811 H 1097.71 -0.517312 0.58644 0
M  V30 11812 H 1100.3 -0.765097 1.79037 0
M  V30 11813 H 1098.47 -3.26586 2.10229 0
M  V30 11814 H 1100.2 -3.29624 2.34798 0
M  V30 11815 H 1096.95 -2.33203 4.12206 0
M  V30 11816 H 1097.38 -1.48964 6.60408 0
M  V30 11817 H 1102.02 -1.97057 3.7407 0
M  V30 11818 H 1099.74 -0.813591 8.03994 0
M  V30 11819 H 1103.32 -1.19489 5.69398 0
M  V30 11820 H 1102.2 -0.625522 7.81701 0
M  V30 11821 N 1099.71 -1.29285 -0.901281 0
M  V30 11822 C 1100.95 -1.17339 -1.65407 0
M  V30 11823 C 1101.29 0.274834 -1.92245 0
M  V30 11824 O 1100.56 1.19865 -1.53176 0
M  V30 11825 C 1100.84 -1.98547 -3.00418 0
M  V30 11826 C 1100.7 -3.51501 -2.80655 0
M  V30 11827 C 1102.02 -1.81062 -4.01129 0
M  V30 11828 H 1099.13 -0.427624 -0.600255 0
M  V30 11829 H 1101.78 -1.58741 -1.0441 0
M  V30 11830 H 1099.93 -1.63366 -3.52482 0
M  V30 11831 H 1101.6 -3.96655 -2.35505 0
M  V30 11832 H 1099.84 -3.76504 -2.15469 0
M  V30 11833 H 1100.51 -4.03593 -3.76585 0
M  V30 11834 H 1102.99 -2.11788 -3.58169 0
M  V30 11835 H 1101.86 -2.40235 -4.93536 0
M  V30 11836 H 1102.13 -0.765388 -4.35424 0
M  V30 11837 N 1101.18 1.11143 -1.11736 0
M  V30 11838 C 1102.46 1.79384 -0.779785 0
M  V30 11839 C 1102.84 1.98015 0.731668 0
M  V30 11840 O 1102.19 1.56731 1.66276 0
M  V30 11841 C 1102.4 3.12868 -1.54643 0
M  V30 11842 C 1103.75 3.8786 -1.7277 0
M  V30 11843 O 1104.77 3.22566 -1.51094 0
M  V30 11844 O 1103.63 5.05034 -2.08813 0
M  V30 11845 H 1100.72 0.777128 -0.282845 0
M  V30 11846 H 1103.27 1.17858 -1.22096 0
M  V30 11847 H 1102.04 2.94682 -2.57446 0
M  V30 11848 H 1101.67 3.82109 -1.09901 0
M  V30 11849 N 1102.66 0.908147 1.28804 0
M  V30 11850 C 1103.59 0.409106 2.29888 0
M  V30 11851 C 1104.57 -0.520338 1.61946 0
M  V30 11852 O 1105.76 -0.429268 1.89396 0
M  V30 11853 C 1102.89 -0.35669 3.45463 0
M  V30 11854 C 1101.84 0.4831 4.25265 0
M  V30 11855 C 1101.17 -0.4107 5.3312 0
M  V30 11856 C 1102.47 1.73744 4.92555 0
M  V30 11857 H 1104.16 1.25386 2.7188 0
M  V30 11858 H 1101.71 0.604368 1.30703 0
M  V30 11859 H 1103.66 -0.71661 4.15262 0
M  V30 11860 H 1102.39 -1.2353 3.02337 0
M  V30 11861 H 1101.04 0.825464 3.57186 0
M  V30 11862 H 1100.69 -1.28769 4.86238 0
M  V30 11863 H 1100.39 0.14756 5.87415 0
M  V30 11864 H 1101.92 -0.766626 6.05768 0
M  V30 11865 H 1103.33 1.44676 5.54745 0
M  V30 11866 H 1101.73 2.23767 5.5682 0
M  V30 11867 H 1102.8 2.46853 4.17363 0
M  V30 11868 N 1104.14 -1.42577 0.671525 0
M  V30 11869 C 1105.56 -1.5592 0.340769 0
M  V30 11870 C 1105.76 -1.65179 -1.15405 0
M  V30 11871 O 1104.81 -1.61691 -1.93939 0
M  V30 11872 C 1106.13 -2.81087 1.06821 0
M  V30 11873 C 1107.67 -2.94855 1.05022 0
M  V30 11874 C 1108.15 -4.22878 1.75892 0
M  V30 11875 N 1109.64 -4.29783 1.72744 0
M  V30 11876 C 1110.37 -5.2765 2.24439 0
M  V30 11877 N 1109.87 -6.31689 2.84501 0
M  V30 11878 N 1111.66 -5.19426 2.14832 0
M  V30 11879 H 1103.81 -1.34811 1.64133 0
M  V30 11880 H 1106.08 -0.648704 0.691294 0
M  V30 11881 H 1105.78 -2.80371 2.12332 0
M  V30 11882 H 1105.66 -3.71879 0.631356 0
M  V30 11883 H 1108.04 -2.951 0.00345633 0
M  V30 11884 H 1108.13 -2.05303 1.52592 0
M  V30 11885 H 1107.77 -4.23394 2.80535 0
M  V30 11886 H 1107.7 -5.1136 1.25773 0
M  V30 11887 H 1110.19 -3.55225 1.28932 0
M  V30 11888 H 1110.5 -7.02715 3.21575 0
M  V30 11889 H 1108.85 -6.3226 2.88569 0
M  V30 11890 H 1112.04 -4.37067 1.676 0
M  V30 11891 H 1112.21 -5.95535 2.55426 0
M  V30 11892 N 1105.62 -0.414636 -1.52048 0
M  V30 11893 C 1106.84 0.161137 -2.06773 0
M  V30 11894 C 1107.27 1.37628 -1.2822 0
M  V30 11895 O 1106.63 1.78562 -0.313915 0
M  V30 11896 C 1106.67 0.48452 -3.5733 0
M  V30 11897 O 1105.78 1.57466 -3.81154 0
M  V30 11898 H 1105.12 0.0118003 -0.663895 0
M  V30 11899 H 1107.65 -0.589424 -1.95926 0
M  V30 11900 H 1107.66 0.741567 -4.01204 0
M  V30 11901 H 1106.33 -0.403733 -4.13936 0
M  V30 11902 H 1104.91 1.30935 -3.49157 0
M  V30 11903 N 1107.1 1.56929 -0.145233 0
M  V30 11904 C 1108.03 2.19685 0.791263 0
M  V30 11905 C 1109.01 1.14455 1.25833 0
M  V30 11906 O 1110.19 1.42791 1.31622 0
M  V30 11907 C 1107.32 2.81705 2.03124 0
M  V30 11908 C 1106.28 3.92746 1.70101 0
M  V30 11909 C 1105.6 4.41694 3.01347 0
M  V30 11910 C 1106.9 5.13606 0.949025 0
M  V30 11911 H 1108.6 2.98196 0.26825 0
M  V30 11912 H 1106.14 1.43434 0.127584 0
M  V30 11913 H 1108.1 3.24273 2.69119 0
M  V30 11914 H 1106.82 2.00523 2.57795 0
M  V30 11915 H 1105.48 3.50794 1.06486 0
M  V30 11916 H 1105.13 3.57336 3.54006 0
M  V30 11917 H 1104.83 5.1659 2.80016 0
M  V30 11918 H 1106.35 4.86931 3.68416 0
M  V30 11919 H 1107.76 5.53029 1.51102 0
M  V30 11920 H 1106.16 5.94252 0.835711 0
M  V30 11921 H 1107.23 4.84863 -0.0595631 0
M  V30 11922 N 1108.58 -0.128553 1.57075 0
M  V30 11923 C 1109.82 -0.844012 1.86161 0
M  V30 11924 C 1110.18 -1.77499 0.73198 0
M  V30 11925 O 1111.38 -2.5313 0.904357 0
M  V30 11926 C 1109.65 -1.58238 3.20462 0
M  V30 11927 S 1111.21 -2.34073 3.71154 0
M  V30 11928 H 1108.03 -0.281884 0.652734 0
M  V30 11929 H 1110.63 -0.102902 1.95229 0
M  V30 11930 H 1109.33 -0.890246 4.00628 0
M  V30 11931 H 1108.87 -2.36404 3.14446 0
M  V30 11932 H 1110.88 -3.59617 3.41892 0
M  V30 11933 N 1110.05 -1.5248 -0.398459 0
M  V30 11934 C 1110.98 -1.79549 -1.49279 0
M  V30 11935 C 1111.96 -0.647004 -1.57315 0
M  V30 11936 O 1113.15 -0.893661 -1.72416 0
M  V30 11937 C 1110.28 -1.95582 -2.86993 0
M  V30 11938 C 1109.23 -3.1123 -2.93803 0
M  V30 11939 C 1108.56 -3.12501 -4.33874 0
M  V30 11940 C 1109.86 -4.50485 -2.64312 0
M  V30 11941 H 1111.55 -2.71187 -1.26877 0
M  V30 11942 H 1109.1 -1.30492 -0.608924 0
M  V30 11943 H 1111.05 -2.13102 -3.63546 0
M  V30 11944 H 1109.78 -1.00625 -3.10712 0
M  V30 11945 H 1108.44 -2.93477 -2.19697 0
M  V30 11946 H 1108.08 -2.15245 -4.54619 0
M  V30 11947 H 1107.78 -3.90183 -4.39353 0
M  V30 11948 H 1109.31 -3.32164 -5.12347 0
M  V30 11949 H 1110.72 -4.68387 -3.30585 0
M  V30 11950 H 1109.12 -5.30163 -2.81153 0
M  V30 11951 H 1110.19 -4.57848 -1.59696 0
M  V30 11952 N 1111.53 0.65634 -1.43283 0
M  V30 11953 C 1112.78 1.41627 -1.44734 0
M  V30 11954 C 1113.11 1.94372 -0.0704893 0
M  V30 11955 O 1112.36 1.72511 0.924037 0
M  V30 11956 C 1112.66 2.61688 -2.43421 0
M  V30 11957 C 1112.33 2.2738 -3.8937 0
M  V30 11958 C 1110.99 2.17735 -4.29121 0
M  V30 11959 C 1113.34 1.99863 -4.81357 0
M  V30 11960 C 1110.67 1.78725 -5.58815 0
M  V30 11961 C 1113.02 1.62352 -6.11412 0
M  V30 11962 C 1111.68 1.51231 -6.50143 0
M  V30 11963 H 1110.95 0.51825 -0.529621 0
M  V30 11964 H 1113.6 0.746701 -1.76342 0
M  V30 11965 H 1111.91 3.33763 -2.05206 0
M  V30 11966 H 1113.6 3.19896 -2.41801 0
M  V30 11967 H 1110.19 2.35795 -3.57908 0
M  V30 11968 H 1114.38 2.06237 -4.5142 0
M  V30 11969 H 1109.63 1.68698 -5.87666 0
M  V30 11970 H 1113.81 1.40091 -6.82164 0
M  V30 11971 H 1111.43 1.20774 -7.50545 0
M  V30 11972 N 1113.01 1.29761 0.894412 0
M  V30 11973 C 1114.23 1.21064 1.68399 0
M  V30 11974 C 1114.66 -0.224608 1.86754 0
M  V30 11975 O 1114.02 -1.16199 1.39167 0
M  V30 11976 C 1114.07 1.93468 3.04306 0
M  V30 11977 O 1113.17 1.25533 3.9283 0
M  V30 11978 H 1112.51 0.419223 0.514925 0
M  V30 11979 H 1115.04 1.71421 1.11696 0
M  V30 11980 H 1115.05 2.02127 3.54413 0
M  V30 11981 H 1113.73 2.97857 2.90265 0
M  V30 11982 H 1112.3 1.25168 3.51266 0
M  V30 11983 N 1114.49 -1.10549 1.12324 0
M  V30 11984 C 1115.72 -1.86 0.899312 0
M  V30 11985 C 1116.13 -1.80881 -0.554854 0
M  V30 11986 O 1115.47 -1.19485 -1.39531 0
M  V30 11987 C 1115.53 -3.35384 1.29452 0
M  V30 11988 C 1115.19 -3.64263 2.75974 0
M  V30 11989 C 1116.19 -3.60962 3.74169 0
M  V30 11990 C 1113.88 -3.92976 3.1285 0
M  V30 11991 C 1115.87 -3.85966 5.07256 0
M  V30 11992 C 1113.56 -4.17637 4.4612 0
M  V30 11993 C 1114.56 -4.14122 5.43132 0
M  V30 11994 O 1114.24 -4.38156 6.73999 0
M  V30 11995 H 1113.98 -0.594743 0.321337 0
M  V30 11996 H 1116.53 -1.40674 1.49667 0
M  V30 11997 H 1114.76 -3.81361 0.640358 0
M  V30 11998 H 1116.45 -3.9222 1.04491 0
M  V30 11999 H 1117.21 -3.38819 3.47025 0
M  V30 12000 H 1113.09 -3.94843 2.3795 0
M  V30 12001 H 1116.64 -3.83138 5.82967 0
M  V30 12002 H 1112.53 -4.39258 4.72993 0
M  V30 12003 H 1113.3 -4.55677 6.79927 0
M  V30 12004 N 1115.97 -0.914965 -1.28321 0
M  V30 12005 C 1116.92 -0.375436 -2.24888 0
M  V30 12006 C 1117.9 0.51313 -1.52498 0
M  V30 12007 O 1119.09 0.352654 -1.73451 0
M  V30 12008 C 1116.22 0.382266 -3.41165 0
M  V30 12009 C 1115.31 -0.522089 -4.20874 0
M  V30 12010 N 1115.7 -1.63623 -4.78603 0
M  V30 12011 C 1114 -0.322703 -4.44831 0
M  V30 12012 C 1114.7 -2.19766 -5.38589 0
M  V30 12013 N 1113.67 -1.48878 -5.22816 0
M  V30 12014 H 1117.47 -1.2263 -2.67094 0
M  V30 12015 H 1114.99 -0.767759 -1.43106 0
M  V30 12016 H 1116.99 0.785641 -4.0943 0
M  V30 12017 H 1115.65 1.23021 -3.00493 0
M  V30 12018 H 1116.66 -2.01879 -4.76933 0
M  V30 12019 H 1113.33 0.485627 -4.14666 0
M  V30 12020 H 1114.72 -3.13494 -5.94282 0
M  V30 12021 N 1117.44 1.42219 -0.679077 0
M  V30 12022 C 1118.86 1.55737 -0.349034 0
M  V30 12023 C 1119.06 1.65789 1.14527 0
M  V30 12024 O 1118.12 1.62717 1.93079 0
M  V30 12025 C 1119.43 2.80516 -1.0831 0
M  V30 12026 C 1120.98 2.94294 -1.06584 0
M  V30 12027 C 1121.45 4.2194 -1.78132 0
M  V30 12028 N 1122.94 4.28861 -1.75021 0
M  V30 12029 C 1123.68 5.26453 -2.27234 0
M  V30 12030 N 1123.17 6.30171 -2.87847 0
M  V30 12031 N 1124.97 5.1828 -2.17584 0
M  V30 12032 H 1117.12 1.33939 -1.64846 0
M  V30 12033 H 1119.38 0.645029 -0.694725 0
M  V30 12034 H 1119.09 2.79241 -2.13816 0
M  V30 12035 H 1118.96 3.71539 -0.651069 0
M  V30 12036 H 1121.35 2.95094 -0.0191061 0
M  V30 12037 H 1121.43 2.04491 -1.53679 0
M  V30 12038 H 1121.07 4.21901 -2.82776 0
M  V30 12039 H 1121 5.10685 -1.28483 0
M  V30 12040 H 1123.49 3.54537 -1.30814 0
M  V30 12041 H 1123.81 7.01 -3.25298 0
M  V30 12042 H 1122.15 6.30721 -2.91918 0
M  V30 12043 H 1125.34 4.36172 -1.69916 0
M  V30 12044 H 1125.52 5.94172 -2.58581 0
M  V30 12045 N 1118.92 0.422693 1.51826 0
M  V30 12046 C 1119.85 -0.386913 2.30272 0
M  V30 12047 C 1120.83 -1.03411 1.35056 0
M  V30 12048 O 1122.02 -1.04055 1.6397 0
M  V30 12049 C 1119.15 -1.49645 3.13407 0
M  V30 12050 C 1118.1 -0.973532 4.16781 0
M  V30 12051 C 1117.43 -2.1777 4.88344 0
M  V30 12052 C 1118.73 -0.0181194 5.22297 0
M  V30 12053 H 1120.42 0.267697 2.98201 0
M  V30 12054 H 1117.97 0.130186 1.4341 0
M  V30 12055 H 1119.92 -2.06993 3.67059 0
M  V30 12056 H 1118.64 -2.17914 2.43272 0
M  V30 12057 H 1117.3 -0.42237 3.64159 0
M  V30 12058 H 1116.95 -2.84625 4.14726 0
M  V30 12059 H 1116.65 -1.83427 5.58237 0
M  V30 12060 H 1118.18 -2.75699 5.44814 0
M  V30 12061 H 1119.59 -0.500822 5.71108 0
M  V30 12062 H 1117.99 0.237163 5.99631 0
M  V30 12063 H 1119.06 0.923065 4.76033 0
M  V30 12064 N 1120.4 -1.5685 0.153553 0
M  V30 12065 C 1121.82 -1.58306 -0.202801 0
M  V30 12066 C 1122.02 -1.16813 -1.64186 0
M  V30 12067 O 1121.07 -0.871468 -2.36985 0
M  V30 12068 C 1122.38 -3.00636 0.0619012 0
M  V30 12069 C 1123.93 -3.13 -0.00129219 0
M  V30 12070 C 1124.41 -4.57391 0.236164 0
M  V30 12071 N 1125.9 -4.62837 0.18332 0
M  V30 12072 C 1126.63 -5.72382 0.341471 0
M  V30 12073 N 1126.13 -6.90552 0.557704 0
M  V30 12074 N 1127.92 -5.61409 0.278615 0
M  V30 12075 H 1120.07 -1.82113 1.09309 0
M  V30 12076 H 1122.34 -0.843228 0.433209 0
M  V30 12077 H 1122.04 -3.35406 1.0581 0
M  V30 12078 H 1121.92 -3.71477 -0.654555 0
M  V30 12079 H 1124.3 -2.78068 -0.98805 0
M  V30 12080 H 1124.38 -2.44632 0.747596 0
M  V30 12081 H 1124.03 -4.93029 1.22005 0
M  V30 12082 H 1123.96 -5.23894 -0.533125 0
M  V30 12083 H 1126.45 -3.77894 0.0211138 0
M  V30 12084 H 1126.76 -7.69905 0.66831 0
M  V30 12085 H 1125.11 -6.92456 0.594105 0
M  V30 12086 H 1128.3 -4.6797 0.110401 0
M  V30 12087 H 1128.47 -6.46731 0.4053 0
M  V30 12088 N 1121.88 0.120221 -1.57141 0
M  V30 12089 C 1123.15 0.858458 -1.75755 0
M  V30 12090 C 1123.53 1.98124 -0.728693 0
M  V30 12091 O 1122.88 2.27155 0.247573 0
M  V30 12092 C 1123.09 1.37627 -3.20718 0
M  V30 12093 C 1124.44 1.82909 -3.83183 0
M  V30 12094 O 1125.46 1.47309 -3.24312 0
M  V30 12095 O 1124.32 2.4865 -4.86657 0
M  V30 12096 H 1121.42 0.407583 -0.719587 0
M  V30 12097 H 1123.96 0.104057 -1.69381 0
M  V30 12098 H 1122.74 0.570651 -3.87117 0
M  V30 12099 H 1122.36 2.19341 -3.31625 0
M  V30 12100 N 1123.36 1.52689 0.390367 0
M  V30 12101 C 1124.29 1.80338 1.48325 0
M  V30 12102 C 1125.27 0.655338 1.56969 0
M  V30 12103 O 1126.45 0.902792 1.7194 0
M  V30 12104 C 1123.58 1.97101 2.85952 0
M  V30 12105 C 1122.54 3.12783 2.92148 0
M  V30 12106 C 1121.86 3.14798 4.32211 0
M  V30 12107 C 1123.16 4.5188 2.61919 0
M  V30 12108 H 1124.86 2.71857 1.25437 0
M  V30 12109 H 1122.4 1.30813 0.601995 0
M  V30 12110 H 1124.36 2.15027 3.62411 0
M  V30 12111 H 1123.08 1.02271 3.10174 0
M  V30 12112 H 1121.74 2.94638 2.18137 0
M  V30 12113 H 1121.39 2.17653 4.53471 0
M  V30 12114 H 1121.09 3.92507 4.37278 0
M  V30 12115 H 1122.61 3.34877 5.10578 0
M  V30 12116 H 1124.02 4.70134 3.28096 0
M  V30 12117 H 1122.42 5.31647 2.78337 0
M  V30 12118 H 1123.49 4.58689 1.57266 0
M  V30 12119 N 1124.83 -0.648732 1.43629 0
M  V30 12120 C 1125.76 -1.77298 1.51947 0
M  V30 12121 C 1126.75 -1.65942 0.373785 0
M  V30 12122 O 1127.93 -1.8497 0.591596 0
M  V30 12123 C 1125.06 -3.15749 1.44638 0
M  V30 12124 C 1124.01 -3.41872 2.57502 0
M  V30 12125 C 1123.34 -4.8017 2.35246 0
M  V30 12126 C 1124.64 -3.36173 3.99731 0
M  V30 12127 H 1126.33 -1.70594 2.46045 0
M  V30 12128 H 1123.88 -0.819306 1.1842 0
M  V30 12129 H 1125.83 -3.94156 1.4906 0
M  V30 12130 H 1124.56 -3.23194 0.470466 0
M  V30 12131 H 1123.22 -2.65838 2.5244 0
M  V30 12132 H 1122.86 -4.84297 1.35887 0
M  V30 12133 H 1122.56 -4.9861 3.10906 0
M  V30 12134 H 1124.09 -5.6083 2.41459 0
M  V30 12135 H 1125.5 -4.0451 4.06257 0
M  V30 12136 H 1123.9 -3.66148 4.75453 0
M  V30 12137 H 1124.97 -2.34277 4.24549 0
M  V30 12138 N 1126.31 -1.30234 -0.887518 0
M  V30 12139 C 1127.24 -1.18969 -2.00919 0
M  V30 12140 C 1128.22 -0.080952 -1.69907 0
M  V30 12141 O 1129.41 -0.262546 -1.92417 0
M  V30 12142 C 1126.54 -0.878094 -3.36016 0
M  V30 12143 C 1125.49 -1.94449 -3.81279 0
M  V30 12144 C 1124.82 -1.48594 -5.13638 0
M  V30 12145 C 1126.12 -3.35519 -4.00281 0
M  V30 12146 H 1127.81 -2.12808 -2.10602 0
M  V30 12147 H 1125.36 -1.02454 -1.01189 0
M  V30 12148 H 1127.31 -0.785954 -4.14006 0
M  V30 12149 H 1126.04 0.0959779 -3.26459 0
M  V30 12150 H 1124.69 -2.02622 -3.05516 0
M  V30 12151 H 1124.34 -0.500204 -5.00507 0
M  V30 12152 H 1124.04 -2.19921 -5.44893 0
M  V30 12153 H 1125.57 -1.40754 -5.94156 0
M  V30 12154 H 1126.98 -3.30119 -4.68716 0
M  V30 12155 H 1125.38 -4.0491 -4.42909 0
M  V30 12156 H 1126.45 -3.77597 -3.04218 0
M  V30 12157 N 1127.79 1.09952 -1.12909 0
M  V30 12158 C 1129.04 1.81386 -0.882163 0
M  V30 12159 C 1129.35 1.86376 0.593592 0
M  V30 12160 O 1130.56 2.54064 0.957275 0
M  V30 12161 C 1129.01 3.25824 -1.52861 0
M  V30 12162 C 1128.62 3.29117 -3.0395 0
M  V30 12163 C 1130.37 4.02051 -1.36216 0
M  V30 12164 C 1128.27 4.68047 -3.61505 0
M  V30 12165 H 1127.2 0.679701 -0.326378 0
M  V30 12166 H 1129.85 1.23614 -1.35616 0
M  V30 12167 H 1128.24 3.83624 -0.982271 0
M  V30 12168 H 1129.41 2.81114 -3.65119 0
M  V30 12169 H 1127.73 2.66379 -3.20049 0
M  V30 12170 H 1130.32 5.04683 -1.76633 0
M  V30 12171 H 1130.67 4.15171 -0.306391 0
M  V30 12172 H 1131.2 3.5068 -1.87799 0
M  V30 12173 H 1127.94 4.60128 -4.66865 0
M  V30 12174 H 1127.46 5.16397 -3.05114 0
M  V30 12175 H 1129.14 5.37018 -3.6086 0
M  V30 12176 N 1129.27 0.921757 1.27833 0
M  V30 12177 C 1130.51 0.559906 1.94918 0
M  V30 12178 C 1130.85 -0.895532 1.72319 0
M  V30 12179 O 1130.12 -1.638 1.04879 0
M  V30 12180 C 1130.41 0.879458 3.49196 0
M  V30 12181 C 1130.26 2.38821 3.81162 0
M  V30 12182 C 1131.58 0.381183 4.38446 0
M  V30 12183 H 1128.7 0.204893 0.707946 0
M  V30 12184 H 1131.34 1.15246 1.51058 0
M  V30 12185 H 1129.49 0.375177 3.86684 0
M  V30 12186 H 1131.16 2.96373 3.53498 0
M  V30 12187 H 1129.4 2.83988 3.27923 0
M  V30 12188 H 1130.07 2.56234 4.88926 0
M  V30 12189 H 1132.55 0.813289 4.08075 0
M  V30 12190 H 1131.43 0.633778 5.45229 0
M  V30 12191 H 1131.69 -0.718651 4.3622 0
M  V30 12192 N 1130.75 -1.41857 0.686609 0
M  V30 12193 C 1131.97 -2.05699 0.222561 0
M  V30 12194 C 1132.39 -1.51636 -1.12481 0
M  V30 12195 O 1131.75 -0.660925 -1.70112 0
M  V30 12196 C 1131.8 -3.61138 0.161818 0
M  V30 12197 O 1131.52 -4.13199 1.45596 0
M  V30 12198 C 1133.02 -4.42112 -0.324304 0
M  V30 12199 H 1130.24 -0.662665 0.10543 0
M  V30 12200 H 1132.78 -1.81788 0.936671 0
M  V30 12201 H 1130.94 -3.8412 -0.503056 0
M  V30 12202 H 1131.35 -5.0717 1.33712 0
M  V30 12203 H 1132.83 -5.51097 -0.315694 0
M  V30 12204 H 1133.3 -4.1756 -1.36164 0
M  V30 12205 H 1133.91 -4.24174 0.309251 0
M  V30 12206 N 1132.22 -0.430739 -1.51599 0
M  V30 12207 C 1133.64 -0.0826902 -1.59386 0
M  V30 12208 C 1133.84 1.40729 -1.44214 0
M  V30 12209 O 1132.9 2.1765 -1.28002 0
M  V30 12210 C 1134.21 -0.59691 -2.94716 0
M  V30 12211 C 1135.76 -0.556772 -3.08008 0
M  V30 12212 C 1136.23 -1.04786 -4.45852 0
M  V30 12213 N 1137.72 -1.00557 -4.52153 0
M  V30 12214 C 1138.46 -1.35649 -5.57124 0
M  V30 12215 N 1137.95 -1.77994 -6.69545 0
M  V30 12216 N 1139.75 -1.27508 -5.47447 0
M  V30 12217 H 1131.9 -1.40027 -1.59707 0
M  V30 12218 H 1134.16 -0.576606 -0.752482 0
M  V30 12219 H 1133.87 -1.63914 -3.11167 0
M  V30 12220 H 1133.74 -0.0182342 -3.77196 0
M  V30 12221 H 1136.13 0.476457 -2.91228 0
M  V30 12222 H 1136.21 -1.17177 -2.27383 0
M  V30 12223 H 1135.85 -2.07952 -4.63377 0
M  V30 12224 H 1135.78 -0.409461 -5.25006 0
M  V30 12225 H 1138.27 -0.694518 -3.71463 0
M  V30 12226 H 1138.59 -2.03026 -7.45654 0
M  V30 12227 H 1136.93 -1.81916 -6.70769 0
M  V30 12228 H 1140.12 -0.942969 -4.58504 0
M  V30 12229 H 1140.3 -1.55185 -6.29143 0
M  V30 12230 N 1133.7 1.56767 -0.161869 0
M  V30 12231 C 1134.95 1.95769 0.485536 0
M  V30 12232 C 1135.26 1.05006 1.65025 0
M  V30 12233 O 1136.47 1.33649 2.36326 0
M  V30 12234 C 1134.93 3.4807 0.915176 0
M  V30 12235 C 1134.53 4.47443 -0.223416 0
M  V30 12236 C 1136.28 3.95909 1.53153 0
M  V30 12237 C 1134.19 5.90971 0.225325 0
M  V30 12238 H 1133.12 0.730911 0.185161 0
M  V30 12239 H 1135.77 1.81808 -0.248592 0
M  V30 12240 H 1134.15 3.57415 1.705 0
M  V30 12241 H 1135.32 4.49805 -1.00061 0
M  V30 12242 H 1133.64 4.09606 -0.749127 0
M  V30 12243 H 1136.23 5.00592 1.87915 0
M  V30 12244 H 1136.58 3.38307 2.42599 0
M  V30 12245 H 1137.11 3.89542 0.806322 0
M  V30 12246 H 1133.85 6.52426 -0.634124 0
M  V30 12247 H 1133.37 5.91936 0.96808 0
M  V30 12248 H 1135.05 6.43497 0.672373 0
M  V30 12249 N 1135.18 -0.111886 1.57202 0
M  V30 12250 C 1136.43 -0.819623 1.85499 0
M  V30 12251 C 1136.76 -1.7919 0.748629 0
M  V30 12252 O 1136.03 -1.92952 -0.244918 0
M  V30 12253 C 1136.32 -1.56324 3.24399 0
M  V30 12254 C 1136.17 -0.610081 4.45643 0
M  V30 12255 C 1137.49 -2.51777 3.60966 0
M  V30 12256 H 1134.61 -0.296512 0.674722 0
M  V30 12257 H 1137.25 -0.0836741 1.89816 0
M  V30 12258 H 1135.4 -2.1906 3.2085 0
M  V30 12259 H 1137.07 0.00898038 4.61299 0
M  V30 12260 H 1135.32 0.0778488 4.3373 0
M  V30 12261 H 1135.99 -1.16718 5.39519 0
M  V30 12262 H 1138.46 -1.99143 3.65351 0
M  V30 12263 H 1137.34 -3.00835 4.59118 0
M  V30 12264 H 1137.6 -3.34769 2.8876 0
M  V30 12265 N 1136.66 -1.52894 -0.382264 0
M  V30 12266 C 1137.57 -1.81084 -1.4915 0
M  V30 12267 C 1138.58 -0.698045 -1.59384 0
M  V30 12268 O 1139.76 -0.98635 -1.75594 0
M  V30 12269 C 1136.83 -1.97987 -2.84608 0
M  V30 12270 C 1135.89 -3.219 -2.8404 0
M  V30 12271 C 1135.12 -3.37988 -4.13037 0
M  V30 12272 O 1135.34 -2.58733 -5.08344 0
M  V30 12273 O 1134.28 -4.31273 -4.19866 0
M  V30 12274 H 1138.1 -2.75289 -1.28257 0
M  V30 12275 H 1135.69 -1.38068 -0.57076 0
M  V30 12276 H 1137.57 -2.10773 -3.64901 0
M  V30 12277 H 1136.24 -1.06972 -3.05514 0
M  V30 12278 H 1135.15 -3.14551 -2.02505 0
M  V30 12279 H 1136.48 -4.12783 -2.68087 0
M  V30 12280 N 1138.14 0.641106 -1.43971 0
M  V30 12281 C 1139.07 1.76489 -1.52885 0
M  V30 12282 C 1140.05 1.65742 -0.38258 0
M  V30 12283 O 1141.23 1.84653 -0.601397 0
M  V30 12284 C 1138.36 3.14977 -1.4631 0
M  V30 12285 C 1137.32 3.40502 -2.59311 0
M  V30 12286 C 1136.64 4.78916 -2.37789 0
M  V30 12287 C 1137.94 3.34048 -4.01509 0
M  V30 12288 H 1139.64 1.69286 -2.46946 0
M  V30 12289 H 1137.18 0.813015 -1.18853 0
M  V30 12290 H 1139.14 3.9336 -1.51149 0
M  V30 12291 H 1137.86 3.2294 -0.487599 0
M  V30 12292 H 1136.52 2.64495 -2.53846 0
M  V30 12293 H 1136.17 4.8357 -1.38454 0
M  V30 12294 H 1135.87 4.96954 -3.13545 0
M  V30 12295 H 1137.39 5.59541 -2.4443 0
M  V30 12296 H 1138.81 4.0235 -4.08396 0
M  V30 12297 H 1137.2 3.63622 -4.77388 0
M  V30 12298 H 1138.27 2.32022 -4.25786 0
M  V30 12299 N 1139.62 1.30703 0.880598 0
M  V30 12300 C 1140.55 1.20033 2.00286 0
M  V30 12301 C 1141.53 0.0899614 1.69862 0
M  V30 12302 O 1142.71 0.272747 1.92275 0
M  V30 12303 C 1139.84 0.895902 3.35546 0
M  V30 12304 C 1138.8 1.96468 3.80242 0
M  V30 12305 C 1138.12 1.51316 5.12843 0
M  V30 12306 C 1139.42 3.37637 3.98496 0
M  V30 12307 H 1141.12 2.13922 2.0947 0
M  V30 12308 H 1138.66 1.02989 1.00644 0
M  V30 12309 H 1140.61 0.807899 4.13583 0
M  V30 12310 H 1139.34 -0.0786636 3.26505 0
M  V30 12311 H 1138 2.0424 3.04437 0
M  V30 12312 H 1137.65 0.52674 5.00234 0
M  V30 12313 H 1137.35 2.22807 5.43719 0
M  V30 12314 H 1138.87 1.43903 5.93401 0
M  V30 12315 H 1140.28 3.326 4.66959 0
M  V30 12316 H 1138.68 4.07253 4.40755 0
M  V30 12317 H 1139.75 3.79205 3.02211 0
M  V30 12318 N 1141.09 -1.09351 1.1349 0
M  V30 12319 C 1142.34 -1.81185 0.89535 0
M  V30 12320 C 1142.66 -1.86173 -0.580048 0
M  V30 12321 O 1141.93 -1.34784 -1.42162 0
M  V30 12322 H 1140.51 -0.671011 0.328257 0
M  V30 12323 H 1143.17 -1.32255 1.43159 0
M  V30 12324 H 1142.27 -2.84339 1.28676 0
M  V30 12325 N 1142.57 -0.928524 -1.27343 0
M  V30 12326 C 1143.99 -0.62889 -1.46687 0
M  V30 12327 C 1144.19 0.821592 -1.83989 0
M  V30 12328 O 1143.24 1.59941 -1.95385 0
M  V30 12329 C 1144.56 -1.57947 -2.55878 0
M  V30 12330 C 1146.1 -1.58778 -2.69738 0
M  V30 12331 C 1146.58 -2.52535 -3.82087 0
M  V30 12332 N 1148.07 -2.50747 -3.89462 0
M  V30 12333 C 1148.81 -3.19981 -4.75814 0
M  V30 12334 N 1148.3 -3.98598 -5.66649 0
M  V30 12335 N 1150.09 -3.08996 -4.69551 0
M  V30 12336 H 1142.25 -1.86625 -1.01414 0
M  V30 12337 H 1144.51 -0.801293 -0.50659 0
M  V30 12338 H 1144.21 -2.61427 -2.35264 0
M  V30 12339 H 1144.09 -1.3218 -3.53282 0
M  V30 12340 H 1146.48 -0.560292 -2.89732 0
M  V30 12341 H 1146.56 -1.88594 -1.72817 0
M  V30 12342 H 1146.2 -3.55395 -3.62846 0
M  V30 12343 H 1146.13 -2.20015 -4.78436 0
M  V30 12344 H 1148.62 -1.93651 -3.24511 0
M  V30 12345 H 1148.93 -4.4841 -6.29403 0
M  V30 12346 H 1147.28 -4.02701 -5.66442 0
M  V30 12347 H 1150.47 -2.4707 -3.97585 0
M  V30 12348 H 1150.64 -3.63223 -5.36631 0
M  V30 12349 N 1144.05 1.41491 -0.694123 0
M  V30 12350 C 1145.47 1.55358 -0.365532 0
M  V30 12351 C 1145.67 1.66994 1.12762 0
M  V30 12352 O 1144.72 1.64756 1.91342 0
M  V30 12353 C 1146.03 2.79352 -1.11279 0
M  V30 12354 C 1147.58 2.93147 -1.097 0
M  V30 12355 C 1148.06 4.20027 -1.82597 0
M  V30 12356 N 1149.55 4.26981 -1.7956 0
M  V30 12357 C 1150.28 5.24013 -2.32805 0
M  V30 12358 N 1149.78 6.27083 -2.94515 0
M  V30 12359 N 1151.57 5.15943 -2.23069 0
M  V30 12360 H 1143.72 1.32183 -1.66257 0
M  V30 12361 H 1145.99 0.637624 -0.701527 0
M  V30 12362 H 1145.69 2.76958 -2.16765 0
M  V30 12363 H 1145.57 3.70827 -0.690439 0
M  V30 12364 H 1147.95 2.95057 -0.0504037 0
M  V30 12365 H 1148.03 2.02849 -1.55839 0
M  V30 12366 H 1147.68 4.18878 -2.87235 0
M  V30 12367 H 1147.61 5.09294 -1.33893 0
M  V30 12368 H 1150.1 3.53129 -1.34567 0
M  V30 12369 H 1150.41 6.97511 -3.32714 0
M  V30 12370 H 1148.76 6.27589 -2.98592 0
M  V30 12371 H 1151.95 4.34346 -1.74532 0
M  V30 12372 H 1152.12 5.91396 -2.64868 0
M  V30 12373 N 1145.53 0.438773 1.51369 0
M  V30 12374 C 1146.78 -0.126962 2.01701 0
M  V30 12375 C 1147.1 -1.43086 1.32481 0
M  V30 12376 O 1146.37 -1.90427 0.459823 0
M  V30 12377 H 1144.95 -0.0499092 0.745331 0
M  V30 12378 H 1147.61 0.581808 1.86013 0
M  V30 12379 H 1146.7 -0.301836 3.10637 0
M  V30 12380 N 1147.01 -1.56678 0.170181 0
M  V30 12381 C 1148.25 -1.97913 -0.469262 0
M  V30 12382 C 1148.61 -1.05438 -1.60936 0
M  V30 12383 O 1147.9 -0.0938273 -1.9137 0
M  V30 12384 C 1148.09 -3.43103 -1.00076 0
M  V30 12385 C 1147.92 -4.49617 0.0863088 0
M  V30 12386 C 1146.69 -5.02454 0.535589 0
M  V30 12387 C 1148.89 -5.06606 0.886289 0
M  V30 12388 N 1146.87 -5.926 1.60308 0
M  V30 12389 C 1148.24 -5.93182 1.80374 0
M  V30 12390 C 1150.3 -4.89109 0.931495 0
M  V30 12391 C 1149 -6.64134 2.76257 0
M  V30 12392 C 1151.03 -5.60781 1.87827 0
M  V30 12393 C 1150.39 -6.47084 2.78319 0
M  V30 12394 H 1146.49 -0.769393 -0.139852 0
M  V30 12395 H 1149.07 -1.92817 0.270136 0
M  V30 12396 H 1147.24 -3.48747 -1.70968 0
M  V30 12397 H 1148.98 -3.71351 -1.60874 0
M  V30 12398 H 1145.73 -4.73412 0.133508 0
M  V30 12399 H 1146.15 -6.42378 2.13729 0
M  V30 12400 H 1150.8 -4.22084 0.245904 0
M  V30 12401 H 1148.51 -7.30373 3.45805 0
M  V30 12402 H 1152.1 -5.49229 1.91934 0
M  V30 12403 H 1150.98 -7.01569 3.50386 0
M  V30 12404 N 1148.48 0.103547 -1.57259 0
M  V30 12405 C 1149.73 0.806979 -1.8529 0
M  V30 12406 C 1150.05 1.79679 -0.757653 0
M  V30 12407 O 1149.32 1.94695 0.216913 0
M  V30 12408 H 1147.9 0.301012 -0.683667 0
M  V30 12409 H 1150.56 0.0871886 -1.94705 0
M  V30 12410 H 1149.66 1.34275 -2.81738 0
M  V30 12411 N 1149.96 1.53094 0.37415 0
M  V30 12412 C 1151.21 1.69111 1.11934 0
M  V30 12413 C 1151.54 0.437252 1.89213 0
M  V30 12414 O 1150.82 -0.565298 1.86104 0
M  V30 12415 C 1151.1 2.93559 2.08554 0
M  V30 12416 C 1150.95 4.29082 1.3494 0
M  V30 12417 C 1152.27 3.13586 3.08791 0
M  V30 12418 H 1149.39 0.615383 0.405553 0
M  V30 12419 H 1152.03 1.85719 0.401078 0
M  V30 12420 H 1150.18 2.79531 2.69805 0
M  V30 12421 H 1151.85 4.54906 0.765402 0
M  V30 12422 H 1150.1 4.28884 0.651238 0
M  V30 12423 H 1150.77 5.12275 2.05616 0
M  V30 12424 H 1153.24 3.26743 2.57639 0
M  V30 12425 H 1152.12 4.02112 3.73627 0
M  V30 12426 H 1152.38 2.28475 3.78486 0
M  V30 12427 N 1151.44 -0.633461 1.44309 0
M  V30 12428 C 1152.37 -1.75676 1.53819 0
M  V30 12429 C 1153.35 -1.65537 0.391365 0
M  V30 12430 O 1154.54 -1.84332 0.611181 0
M  V30 12431 C 1151.67 -3.14197 1.47979 0
M  V30 12432 C 1150.62 -3.39122 2.61113 0
M  V30 12433 C 1149.95 -4.77648 2.40325 0
M  V30 12434 C 1151.25 -3.31914 4.03274 0
M  V30 12435 H 1152.94 -1.67974 2.47841 0
M  V30 12436 H 1150.49 -0.8067 1.19283 0
M  V30 12437 H 1152.44 -3.92553 1.53233 0
M  V30 12438 H 1151.16 -3.22677 0.504718 0
M  V30 12439 H 1149.82 -2.63145 2.55245 0
M  V30 12440 H 1149.47 -4.82829 1.41016 0
M  V30 12441 H 1149.17 -4.95284 3.16177 0
M  V30 12442 H 1150.69 -5.58237 2.47394 0
M  V30 12443 H 1152.11 -4.00178 4.10524 0
M  V30 12444 H 1150.5 -3.61085 4.7931 0
M  V30 12445 H 1151.57 -2.29761 4.2701 0
M  V30 12446 N 1152.92 -1.31168 -0.873655 0
M  V30 12447 C 1153.87 -1.18507 -1.98052 0
M  V30 12448 C 1154.84 -0.0717583 -1.65945 0
M  V30 12449 O 1156.02 -0.243965 -1.89234 0
M  V30 12450 C 1153.16 -0.894571 -3.33304 0
M  V30 12451 C 1152.27 -2.09086 -3.7803 0
M  V30 12452 C 1151.41 -1.73747 -5.01982 0
M  V30 12453 C 1150.45 -2.89805 -5.39147 0
M  V30 12454 N 1149.58 -2.54686 -6.54278 0
M  V30 12455 H 1154.42 -2.13193 -2.08213 0
M  V30 12456 H 1151.96 -1.06056 -1.01934 0
M  V30 12457 H 1153.92 -0.706714 -4.11171 0
M  V30 12458 H 1152.55 0.0154449 -3.22796 0
M  V30 12459 H 1151.6 -2.38961 -2.95976 0
M  V30 12460 H 1152.91 -2.95963 -4.01506 0
M  V30 12461 H 1152.07 -1.51402 -5.87505 0
M  V30 12462 H 1150.81 -0.840553 -4.80402 0
M  V30 12463 H 1149.81 -3.12803 -4.52144 0
M  V30 12464 H 1151.04 -3.802 -5.62694 0
M  V30 12465 H 1148.98 -1.67513 -6.34252 0
M  V30 12466 H 1148.9 -3.35093 -6.77679 0
M  V30 12467 H 1150.17 -2.35725 -7.43003 0
M  V30 12468 N 1154.4 1.08748 -1.14068 0
M  V30 12469 C 1155.63 1.84546 -0.928789 0
M  V30 12470 C 1156.03 1.81741 0.526007 0
M  V30 12471 O 1155.38 1.2169 1.37613 0
M  V30 12472 C 1155.44 3.33282 -1.34771 0
M  V30 12473 C 1155.1 3.59826 -2.81734 0
M  V30 12474 C 1156.1 3.54964 -3.79864 0
M  V30 12475 C 1153.79 3.87949 -3.19063 0
M  V30 12476 C 1155.78 3.77847 -5.13332 0
M  V30 12477 C 1153.47 4.10487 -4.52707 0
M  V30 12478 C 1154.46 4.05429 -5.49651 0
M  V30 12479 O 1154.15 4.27378 -6.80884 0
M  V30 12480 H 1153.88 0.589555 -0.330758 0
M  V30 12481 H 1156.44 1.38275 -1.51886 0
M  V30 12482 H 1154.67 3.80294 -0.700948 0
M  V30 12483 H 1156.36 3.90508 -1.10718 0
M  V30 12484 H 1157.12 3.33256 -3.52371 0
M  V30 12485 H 1153 3.91007 -2.44201 0
M  V30 12486 H 1156.55 3.73815 -5.88989 0
M  V30 12487 H 1152.44 4.31677 -4.79922 0
M  V30 12488 H 1153.21 4.44802 -6.8709 0
M  V30 12489 N 1155.87 0.935264 1.26849 0
M  V30 12490 C 1157.12 0.590057 1.94653 0
M  V30 12491 C 1157.48 -0.860481 1.72086 0
M  V30 12492 O 1156.77 -1.60672 1.04379 0
M  V30 12493 C 1156.96 0.861098 3.46872 0
M  V30 12494 C 1156.79 2.33643 3.84241 0
M  V30 12495 C 1155.56 2.99052 4.07303 0
M  V30 12496 C 1157.76 3.3145 3.9325 0
M  V30 12497 N 1155.74 4.36659 4.31511 0
M  V30 12498 C 1157.11 4.54294 4.21921 0
M  V30 12499 C 1159.17 3.26555 3.75854 0
M  V30 12500 C 1157.87 5.72854 4.35006 0
M  V30 12501 C 1159.9 4.44435 3.90168 0
M  V30 12502 C 1159.26 5.66059 4.19233 0
M  V30 12503 H 1155.36 0.266182 0.735303 0
M  V30 12504 H 1157.94 1.20345 1.53053 0
M  V30 12505 H 1156.11 0.276803 3.87412 0
M  V30 12506 H 1157.84 0.477757 4.0187 0
M  V30 12507 H 1154.6 2.49692 4.02431 0
M  V30 12508 H 1155.02 5.07869 4.47658 0
M  V30 12509 H 1159.67 2.33585 3.52417 0
M  V30 12510 H 1157.38 6.66283 4.57266 0
M  V30 12511 H 1160.97 4.42174 3.78119 0
M  V30 12512 H 1159.85 6.55753 4.30068 0
M  V30 12513 N 1157.35 -1.41121 0.701616 0
M  V30 12514 C 1158.6 -2.01928 0.244271 0
M  V30 12515 C 1158.95 -1.54597 -1.14532 0
M  V30 12516 O 1158.25 -0.749972 -1.76312 0
M  V30 12517 C 1158.44 -3.5654 0.247781 0
M  V30 12518 C 1158.27 -4.18879 1.63618 0
M  V30 12519 C 1157.04 -4.52913 2.24048 0
M  V30 12520 C 1159.24 -4.44679 2.5839 0
M  V30 12521 N 1157.22 -5.00571 3.55389 0
M  V30 12522 C 1158.59 -4.94178 3.74418 0
M  V30 12523 C 1160.65 -4.26698 2.56579 0
M  V30 12524 C 1159.35 -5.27584 4.88924 0
M  V30 12525 C 1161.37 -4.61198 3.70203 0
M  V30 12526 C 1160.74 -5.10873 4.84962 0
M  V30 12527 H 1156.84 -0.770275 0.134908 0
M  V30 12528 H 1159.42 -1.71571 0.920402 0
M  V30 12529 H 1157.59 -3.86357 -0.39786 0
M  V30 12530 H 1159.32 -4.04074 -0.224961 0
M  V30 12531 H 1156.08 -4.39572 1.76277 0
M  V30 12532 H 1156.5 -5.28799 4.2273 0
M  V30 12533 H 1161.14 -3.87525 1.69069 0
M  V30 12534 H 1158.86 -5.65678 5.77091 0
M  V30 12535 H 1162.45 -4.48939 3.70061 0
M  V30 12536 H 1161.33 -5.37067 5.71426 0
M  V30 12537 N 1158.83 -0.446794 -1.51134 0
M  V30 12538 C 1159.78 0.374154 -2.29571 0
M  V30 12539 C 1160.77 1.01241 -1.35818 0
M  V30 12540 O 1161.98 0.946293 -1.53119 0
M  V30 12541 H 1158.35 0.13948 -0.738951 0
M  V30 12542 H 1160.32 -0.308117 -2.96805 0
M  V30 12543 C 1159.07 1.45754 -3.15675 0
M  V30 12544 H 1158.4 0.975787 -3.87709 0
M  V30 12545 H 1159.84 2.00502 -3.73597 0
M  V30 12546 C 1158.3 2.44606 -2.31667 0
M  V30 12547 O 1158.83 3.49352 -1.98284 0
M  V30 12548 N 1157.03 2.15725 -1.94708 0
M  V30 12549 H 1156.58 1.30572 -2.22056 0
M  V30 12550 H 1156.54 2.82103 -1.38798 0
M  V30 12551 N 1160.31 1.56586 -0.178487 0
M  V30 12552 C 1161.24 2.21313 0.744486 0
M  V30 12553 C 1162.22 1.17098 1.23377 0
M  V30 12554 O 1163.4 1.45551 1.28563 0
M  V30 12555 C 1160.53 2.8595 1.97103 0
M  V30 12556 C 1159.49 3.96266 1.61732 0
M  V30 12557 C 1158.81 4.47987 2.91911 0
M  V30 12558 C 1160.11 5.15503 0.839868 0
M  V30 12559 H 1161.81 2.98698 0.204938 0
M  V30 12560 H 1159.35 1.43672 0.0971306 0
M  V30 12561 H 1161.31 3.29909 2.6218 0
M  V30 12562 H 1160.03 2.05946 2.53484 0
M  V30 12563 H 1158.69 3.52974 0.990208 0
M  V30 12564 H 1158.34 3.64765 3.46346 0
M  V30 12565 H 1158.04 5.22413 2.68995 0
M  V30 12566 H 1159.56 4.94637 3.58004 0
M  V30 12567 H 1160.98 5.5611 1.39337 0
M  V30 12568 H 1159.37 5.95891 0.709473 0
M  V30 12569 H 1160.44 4.84628 -0.162396 0
M  V30 12570 N 1161.79 -0.095206 1.57312 0
M  V30 12571 C 1162.72 -1.11627 2.05089 0
M  V30 12572 C 1163.7 -1.41782 0.939787 0
M  V30 12573 O 1164.88 -1.51813 1.21105 0
M  V30 12574 C 1162.01 -2.43618 2.47523 0
M  V30 12575 C 1160.97 -2.27872 3.62296 0
M  V30 12576 C 1160.29 -3.65038 3.90706 0
M  V30 12577 C 1161.59 -1.71936 4.93189 0
M  V30 12578 H 1163.29 -0.718795 2.90644 0
M  V30 12579 H 1160.83 -0.344315 1.39823 0
M  V30 12580 H 1162.79 -3.1532 2.79556 0
M  V30 12581 H 1161.51 -2.85301 1.58968 0
M  V30 12582 H 1160.17 -1.58615 3.3051 0
M  V30 12583 H 1159.82 -4.04249 2.99319 0
M  V30 12584 H 1159.52 -3.55349 4.67976 0
M  V30 12585 H 1161.04 -4.38208 4.25213 0
M  V30 12586 H 1162.45 -2.33479 5.23603 0
M  V30 12587 H 1160.85 -1.73006 5.74621 0
M  V30 12588 H 1161.92 -0.678789 4.80125 0
M  V30 12589 N 1163.26 -1.53291 -0.366026 0
M  V30 12590 C 1164.2 -1.75981 -1.46845 0
M  V30 12591 C 1165.21 -0.640574 -1.49668 0
M  V30 12592 O 1166.4 -0.916823 -1.53155 0
M  V30 12593 C 1163.5 -1.82426 -2.85611 0
M  V30 12594 C 1162.67 -3.12062 -3.0649 0
M  V30 12595 C 1161.73 -3.09755 -4.25368 0
M  V30 12596 O 1160.76 -3.83555 -4.20564 0
M  V30 12597 N 1161.96 -2.30544 -5.32757 0
M  V30 12598 H 1164.72 -2.71104 -1.2776 0
M  V30 12599 H 1162.28 -1.52063 -0.555745 0
M  V30 12600 H 1164.28 -1.78361 -3.63276 0
M  V30 12601 H 1162.85 -0.945888 -2.97946 0
M  V30 12602 H 1162.07 -3.29433 -2.16489 0
M  V30 12603 H 1163.35 -3.97735 -3.17308 0
M  V30 12604 H 1162.75 -1.70095 -5.39522 0
M  V30 12605 H 1161.31 -2.32298 -6.09 0
M  V30 12606 N 1164.74 0.6258 -1.44643 0
M  V30 12607 C 1165.97 1.41028 -1.50979 0
M  V30 12608 C 1166.38 1.88717 -0.135092 0
M  V30 12609 O 1165.72 1.61778 0.870268 0
M  V30 12610 C 1165.79 2.66094 -2.41732 0
M  V30 12611 C 1165.45 2.40166 -3.88805 0
M  V30 12612 C 1166.45 2.01661 -4.79196 0
M  V30 12613 C 1164.13 2.53641 -4.33557 0
M  V30 12614 C 1166.13 1.76966 -6.12341 0
M  V30 12615 C 1163.81 2.2856 -5.66748 0
M  V30 12616 C 1164.81 1.90282 -6.55959 0
M  V30 12617 O 1164.5 1.65484 -7.86683 0
M  V30 12618 H 1164.23 0.438757 -0.514265 0
M  V30 12619 H 1166.78 0.772034 -1.90339 0
M  V30 12620 H 1165.01 3.32575 -1.97309 0
M  V30 12621 H 1166.7 3.28107 -2.38957 0
M  V30 12622 H 1167.47 1.90802 -4.45892 0
M  V30 12623 H 1163.35 2.82404 -3.64375 0
M  V30 12624 H 1166.89 1.47014 -6.81933 0
M  V30 12625 H 1162.79 2.3903 -5.99612 0
M  V30 12626 H 1163.56 1.79686 -7.98533 0
M  V30 12627 N 1166.22 1.31629 0.866686 0
M  V30 12628 C 1167.47 1.22693 1.62228 0
M  V30 12629 C 1167.82 -0.212134 1.91227 0
M  V30 12630 O 1167.11 -1.1465 1.53512 0
M  V30 12631 C 1167.31 2.00775 2.95676 0
M  V30 12632 C 1167.14 3.52128 2.79708 0
M  V30 12633 C 1165.91 4.21476 2.78722 0
M  V30 12634 C 1168.11 4.47013 2.5433 0
M  V30 12635 N 1166.09 5.58963 2.53838 0
M  V30 12636 C 1167.46 5.72192 2.3874 0
M  V30 12637 C 1169.51 4.36404 2.39701 0
M  V30 12638 C 1168.22 6.8796 2.10008 0
M  V30 12639 C 1170.24 5.51959 2.12358 0
M  V30 12640 C 1169.6 6.76129 1.97559 0
M  V30 12641 H 1165.7 0.504088 0.597845 0
M  V30 12642 H 1168.29 1.65856 1.01979 0
M  V30 12643 H 1166.46 1.59975 3.53924 0
M  V30 12644 H 1168.19 1.83831 3.60539 0
M  V30 12645 H 1164.95 3.73478 2.91224 0
M  V30 12646 H 1165.37 6.31362 2.44358 0
M  V30 12647 H 1170.01 3.41066 2.49868 0
M  V30 12648 H 1167.73 7.83321 1.98578 0
M  V30 12649 H 1171.32 5.45669 2.01834 0
M  V30 12650 H 1170.2 7.64033 1.76701 0
M  V30 12651 N 1167.7 -1.08142 1.14644 0
M  V30 12652 C 1168.95 -1.79959 0.910908 0
M  V30 12653 C 1169.26 -1.87296 -0.563866 0
M  V30 12654 O 1170.47 -2.55555 -0.916735 0
M  V30 12655 C 1168.92 -3.23351 1.58025 0
M  V30 12656 C 1168.53 -3.2424 3.09148 0
M  V30 12657 C 1170.28 -3.99834 1.42595 0
M  V30 12658 C 1168.18 -4.62236 3.68906 0
M  V30 12659 H 1167.11 -0.674423 0.33715 0
M  V30 12660 H 1169.76 -1.21441 1.37566 0
M  V30 12661 H 1168.15 -3.82013 1.04318 0
M  V30 12662 H 1169.32 -2.75269 3.69545 0
M  V30 12663 H 1167.63 -2.61253 3.24246 0
M  V30 12664 H 1170.23 -5.01809 1.8464 0
M  V30 12665 H 1170.57 -4.14631 0.372402 0
M  V30 12666 H 1171.11 -3.47648 1.93354 0
M  V30 12667 H 1167.85 -4.52642 4.74126 0
M  V30 12668 H 1167.37 -5.11477 3.1329 0
M  V30 12669 H 1169.05 -5.3121 3.69358 0
M  V30 12670 N 1169.18 -0.941978 -1.26351 0
M  V30 12671 C 1170.11 -0.409504 -2.25512 0
M  V30 12672 C 1171.12 0.467665 -1.55938 0
M  V30 12673 O 1172.31 0.277982 -1.76322 0
M  V30 12674 C 1169.41 0.430487 -3.36155 0
M  V30 12675 C 1168.58 -0.430714 -4.35274 0
M  V30 12676 C 1167.64 0.348976 -5.25042 0
M  V30 12677 O 1166.67 -0.24827 -5.68658 0
M  V30 12678 N 1167.87 1.64531 -5.56695 0
M  V30 12679 H 1170.64 -1.26196 -2.71836 0
M  V30 12680 H 1168.2 -0.810947 -1.40126 0
M  V30 12681 H 1170.19 0.959501 -3.93161 0
M  V30 12682 H 1168.76 1.18375 -2.8932 0
M  V30 12683 H 1167.98 -1.14093 -3.77328 0
M  V30 12684 H 1169.27 -1.01896 -4.98492 0
M  V30 12685 H 1168.67 2.15266 -5.23142 0
M  V30 12686 H 1167.22 2.12055 -6.16341 0
M  V30 12687 N 1170.66 1.40747 -0.709091 0
M  V30 12688 C 1171.57 2.3454 -0.0532205 0
M  V30 12689 C 1172.58 1.56956 0.751057 0
M  V30 12690 O 1173.76 1.89375 0.685509 0
M  V30 12691 C 1170.82 3.35809 0.862157 0
M  V30 12692 C 1169.88 4.29273 0.0485632 0
M  V30 12693 C 1169.12 5.25705 0.920345 0
M  V30 12694 O 1169.34 5.27933 2.15969 0
M  V30 12695 O 1168.27 6.00806 0.3628 0
M  V30 12696 H 1172.1 2.92232 -0.826698 0
M  V30 12697 H 1169.68 1.4183 -0.469519 0
M  V30 12698 H 1171.57 3.97931 1.38668 0
M  V30 12699 H 1170.24 2.8054 1.61489 0
M  V30 12700 H 1169.15 3.70456 -0.520873 0
M  V30 12701 H 1170.48 4.87676 -0.665807 0
M  V30 12702 N 1172.13 0.454803 1.50895 0
M  V30 12703 C 1173.06 -0.337982 2.31041 0
M  V30 12704 C 1174.04 -1.00523 1.37219 0
M  V30 12705 O 1175.23 -1.00553 1.66141 0
M  V30 12706 C 1172.36 -1.42964 3.1651 0
M  V30 12707 C 1171.31 -0.884907 4.18752 0
M  V30 12708 C 1170.64 -2.07363 4.92854 0
M  V30 12709 C 1171.94 0.0926716 5.22218 0
M  V30 12710 H 1173.63 0.33089 2.97566 0
M  V30 12711 H 1171.18 0.160577 1.43102 0
M  V30 12712 H 1173.13 -1.9916 3.71367 0
M  V30 12713 H 1171.86 -2.12705 2.47839 0
M  V30 12714 H 1170.52 -0.345031 3.64973 0
M  V30 12715 H 1170.16 -2.75764 4.2067 0
M  V30 12716 H 1169.86 -1.71545 5.62002 0
M  V30 12717 H 1171.39 -2.6408 5.5054 0
M  V30 12718 H 1172.8 -0.379568 5.72042 0
M  V30 12719 H 1171.2 0.3643 5.98993 0
M  V30 12720 H 1172.27 1.02383 4.73968 0
M  V30 12721 N 1173.61 -1.56489 0.186789 0
M  V30 12722 C 1174.56 -2.18703 -0.737402 0
M  V30 12723 C 1175.53 -1.13171 -1.21579 0
M  V30 12724 O 1176.71 -1.41388 -1.28118 0
M  V30 12725 C 1173.85 -2.84394 -1.95484 0
M  V30 12726 C 1172.97 -4.04429 -1.51859 0
M  V30 12727 C 1172.1 -4.58001 -2.69089 0
M  V30 12728 C 1171.14 -5.70412 -2.22029 0
M  V30 12729 N 1170.28 -6.18425 -3.32407 0
M  V30 12730 H 1175.12 -2.97327 -0.200105 0
M  V30 12731 H 1172.65 -1.46842 -0.087032 0
M  V30 12732 H 1174.61 -3.20646 -2.66912 0
M  V30 12733 H 1173.24 -2.08347 -2.46559 0
M  V30 12734 H 1172.29 -3.73895 -0.70048 0
M  V30 12735 H 1173.61 -4.85756 -1.13327 0
M  V30 12736 H 1172.76 -4.96515 -3.48652 0
M  V30 12737 H 1171.5 -3.75764 -3.1089 0
M  V30 12738 H 1170.5 -5.31434 -1.40918 0
M  V30 12739 H 1171.73 -6.54461 -1.81268 0
M  V30 12740 H 1169.68 -5.39113 -3.73755 0
M  V30 12741 H 1169.59 -6.94782 -2.98017 0
M  V30 12742 H 1170.86 -6.61592 -4.12209 0
M  V30 12743 N 1175.09 0.086862 -1.5736 0
M  V30 12744 C 1176.04 1.12359 -2.03662 0
M  V30 12745 C 1177.03 1.40982 -0.939169 0
M  V30 12746 O 1178.24 1.40566 -1.12433 0
M  V30 12747 H 1174.61 0.379605 -0.649156 0
M  V30 12748 H 1176.58 0.706822 -2.89908 0
M  V30 12749 C 1175.33 2.43327 -2.48369 0
M  V30 12750 H 1174.66 2.22148 -3.324 0
M  V30 12751 H 1176.1 3.14351 -2.84534 0
M  V30 12752 C 1174.55 3.08214 -1.36036 0
M  V30 12753 O 1175.08 3.95659 -0.694063 0
M  V30 12754 N 1173.29 2.68596 -1.10927 0
M  V30 12755 H 1172.84 1.97578 -1.6529 0
M  V30 12756 H 1172.8 3.12336 -0.359679 0
M  V30 12757 N 1176.57 1.53483 0.357892 0
M  V30 12758 C 1177.79 1.74264 1.12458 0
M  V30 12759 C 1178.22 0.473944 1.82031 0
M  V30 12760 O 1177.58 -0.57253 1.72023 0
M  V30 12761 C 1177.62 2.91356 2.12471 0
M  V30 12762 O 1176.73 2.60502 3.19707 0
M  V30 12763 H 1176.07 0.578499 0.325937 0
M  V30 12764 H 1178.6 2.00395 0.412666 0
M  V30 12765 H 1178.61 3.1774 2.5594 0
M  V30 12766 H 1177.28 3.83378 1.61226 0
M  V30 12767 H 1175.86 2.44961 2.81156 0
M  V30 12768 N 1178.05 -0.61812 1.44973 0
M  V30 12769 C 1179.01 -1.71135 1.52465 0
M  V30 12770 C 1180.01 -1.5561 0.405246 0
M  V30 12771 O 1181.2 -1.60869 0.668351 0
M  V30 12772 C 1178.33 -3.10324 1.41108 0
M  V30 12773 H 1179.52 -1.65862 2.49859 0
M  V30 12774 H 1177.08 -0.832932 1.32257 0
M  V30 12775 H 1177.81 -3.21183 0.448574 0
M  V30 12776 H 1177.6 -3.23001 2.2229 0
M  V30 12777 H 1179.09 -3.89976 1.49361 0
M  V30 12778 N 1179.52 -1.32087 -0.859693 0
M  V30 12779 C 1180.77 -1.22542 -1.6159 0
M  V30 12780 C 1181.1 0.213533 -1.93022 0
M  V30 12781 O 1180.38 1.14931 -1.56911 0
M  V30 12782 C 1180.66 -2.08004 -2.93949 0
M  V30 12783 C 1180.51 -3.60252 -2.6933 0
M  V30 12784 C 1181.83 -1.93732 -3.95166 0
M  V30 12785 H 1178.95 -0.446504 -0.586347 0
M  V30 12786 H 1181.59 -1.61982 -0.993064 0
M  V30 12787 H 1179.74 -1.74498 -3.47106 0
M  V30 12788 H 1181.42 -4.03947 -2.22766 0
M  V30 12789 H 1179.66 -3.83169 -2.03382 0
M  V30 12790 H 1180.33 -4.1537 -3.63555 0
M  V30 12791 H 1182.81 -2.23075 -3.5125 0
M  V30 12792 H 1181.68 -2.55815 -4.85644 0
M  V30 12793 H 1181.94 -0.903528 -4.32769 0
M  V30 12794 N 1181 1.07532 -1.15215 0
M  V30 12795 C 1182.23 1.84356 -0.950139 0
M  V30 12796 C 1182.65 1.81429 0.496502 0
M  V30 12797 O 1182.01 1.20589 1.35381 0
M  V30 12798 C 1182.06 3.29425 -1.46669 0
M  V30 12799 O 1181.16 4.07008 -0.664674 0
M  V30 12800 H 1180.5 0.570921 -0.339036 0
M  V30 12801 H 1183.03 1.35665 -1.53154 0
M  V30 12802 H 1183.04 3.8026 -1.47873 0
M  V30 12803 H 1181.72 3.3087 -2.51988 0
M  V30 12804 H 1180.29 3.65841 -0.72211 0
M  V30 12805 N 1182.48 0.948665 1.2585 0
M  V30 12806 C 1183.41 0.482036 2.2847 0
M  V30 12807 C 1184.39 -0.468553 1.63519 0
M  V30 12808 O 1185.58 -0.368796 1.90666 0
M  V30 12809 C 1182.71 -0.246603 3.46423 0
M  V30 12810 C 1181.66 0.61815 4.23513 0
M  V30 12811 C 1180.99 -0.240884 5.34157 0
M  V30 12812 C 1182.29 1.89327 4.86778 0
M  V30 12813 H 1183.98 1.33973 2.67753 0
M  V30 12814 H 1181.53 0.645645 1.28715 0
M  V30 12815 H 1183.48 -0.584135 4.17332 0
M  V30 12816 H 1182.2 -1.13849 3.06114 0
M  V30 12817 H 1180.86 0.938682 3.54379 0
M  V30 12818 H 1180.51 -1.13235 4.90089 0
M  V30 12819 H 1180.21 0.334367 5.86648 0
M  V30 12820 H 1181.73 -0.573517 6.07901 0
M  V30 12821 H 1183.15 1.62252 5.49861 0
M  V30 12822 H 1181.55 2.41369 5.49419 0
M  V30 12823 H 1182.62 2.60006 4.09298 0
M  V30 12824 N 1183.96 -1.40369 0.716545 0
M  V30 12825 C 1184.89 -2.33365 0.0793533 0
M  V30 12826 C 1185.87 -1.52943 -0.744482 0
M  V30 12827 O 1187.05 -1.81406 -0.693212 0
M  V30 12828 C 1184.18 -3.36928 -0.842429 0
M  V30 12829 C 1183.14 -4.2782 -0.124142 0
M  V30 12830 C 1182.46 -5.21928 -1.1617 0
M  V30 12831 C 1183.76 -5.12199 1.02224 0
M  V30 12832 H 1185.46 -2.86899 0.856115 0
M  V30 12833 H 1183 -1.37946 0.413138 0
M  V30 12834 H 1184.96 -4.00925 -1.29759 0
M  V30 12835 H 1183.68 -2.81791 -1.6511 0
M  V30 12836 H 1182.34 -3.65277 0.311201 0
M  V30 12837 H 1181.99 -4.63096 -1.96345 0
M  V30 12838 H 1181.69 -5.83582 -0.685978 0
M  V30 12839 H 1183.21 -5.88802 -1.61694 0
M  V30 12840 H 1184.63 -5.69644 0.646399 0
M  V30 12841 H 1183.02 -5.82901 1.4264 0
M  V30 12842 H 1184.09 -4.4812 1.85246 0
M  V30 12843 N 1185.44 -0.462799 -1.50652 0
M  V30 12844 C 1186.38 0.349784 -2.29955 0
M  V30 12845 C 1187.38 0.997947 -1.36885 0
M  V30 12846 O 1188.58 0.93 -1.54114 0
M  V30 12847 H 1184.96 0.131635 -0.740389 0
M  V30 12848 H 1186.93 -0.33958 -2.96461 0
M  V30 12849 C 1185.68 1.42398 -3.17204 0
M  V30 12850 H 1185 0.934611 -3.88722 0
M  V30 12851 H 1186.44 1.96528 -3.75703 0
M  V30 12852 C 1184.9 2.42135 -2.34248 0
M  V30 12853 O 1185.43 3.47229 -2.01978 0
M  V30 12854 N 1183.64 2.13647 -1.96985 0
M  V30 12855 H 1183.18 1.28209 -2.23428 0
M  V30 12856 H 1183.14 2.80615 -1.41783 0
M  V30 12857 N 1186.91 1.56388 -0.195085 0
M  V30 12858 C 1187.88 2.17859 0.712053 0
M  V30 12859 C 1188.88 1.13304 1.141 0
M  V30 12860 O 1190.07 1.38689 1.05409 0
M  V30 12861 C 1187.2 2.78065 1.97213 0
M  V30 12862 H 1188.39 2.9938 0.176529 0
M  V30 12863 H 1185.95 1.56205 0.0545322 0
M  V30 12864 H 1186.68 2.00342 2.55017 0
M  V30 12865 H 1186.47 3.54603 1.67329 0
M  V30 12866 H 1187.96 3.25266 2.619 0
M  V30 12867 N 1188.39 -0.0785156 1.57404 0
M  V30 12868 C 1189.62 -0.792042 1.9114 0
M  V30 12869 C 1190.04 -1.71458 0.790408 0
M  V30 12870 O 1189.39 -1.80959 -0.236662 0
M  V30 12871 C 1189.44 -1.59138 3.24588 0
M  V30 12872 O 1189.16 -0.705931 4.32375 0
M  V30 12873 C 1190.67 -2.4065 3.72293 0
M  V30 12874 H 1187.89 -0.225566 0.63195 0
M  V30 12875 H 1190.43 -0.0507929 2.04437 0
M  V30 12876 H 1188.58 -2.28498 3.12838 0
M  V30 12877 H 1189 -1.26121 5.09111 0
M  V30 12878 H 1190.47 -2.92204 4.68317 0
M  V30 12879 H 1190.95 -3.1987 3.00965 0
M  V30 12880 H 1191.56 -1.7646 3.86965 0
M  V30 12881 N 1189.87 -1.5367 -0.349747 0
M  V30 12882 C 1190.83 -1.80533 -1.41211 0
M  V30 12883 C 1191.83 -0.676188 -1.45892 0
M  V30 12884 O 1193.02 -0.944453 -1.46375 0
M  V30 12885 C 1190.16 -1.94175 -2.80195 0
M  V30 12886 H 1191.35 -2.75428 -1.18658 0
M  V30 12887 H 1188.9 -1.44988 -0.583787 0
M  V30 12888 H 1189.64 -1.01402 -3.08039 0
M  V30 12889 H 1189.42 -2.76316 -2.78194 0
M  V30 12890 H 1190.91 -2.16496 -3.57098 0
M  V30 12891 N 1191.35 0.610423 -1.45298 0
M  V30 12892 C 1192.6 1.36558 -1.48441 0
M  V30 12893 C 1192.91 1.95173 -0.129137 0
M  V30 12894 O 1194.12 2.71473 -0.0381956 0
M  V30 12895 C 1192.57 2.47349 -2.61431 0
M  V30 12896 C 1192.18 1.95158 -4.03258 0
M  V30 12897 C 1193.92 3.24383 -2.73817 0
M  V30 12898 C 1191.83 3.03414 -5.07635 0
M  V30 12899 H 1190.76 0.513253 -0.552347 0
M  V30 12900 H 1193.41 0.654535 -1.7143 0
M  V30 12901 H 1191.79 3.21125 -2.31721 0
M  V30 12902 H 1192.97 1.2811 -4.42634 0
M  V30 12903 H 1191.28 1.30878 -3.95297 0
M  V30 12904 H 1193.88 4.05123 -3.48969 0
M  V30 12905 H 1194.22 3.75205 -1.80352 0
M  V30 12906 H 1194.76 2.57705 -3.03039 0
M  V30 12907 H 1191.5 2.57512 -6.028 0
M  V30 12908 H 1191.02 3.69039 -4.72833 0
M  V30 12909 H 1192.69 3.67844 -5.32259 0
M  V30 12910 N 1192.83 1.32541 0.852676 0
M  V30 12911 C 1193.79 1.21578 1.94297 0
M  V30 12912 C 1194.79 0.138318 1.60204 0
M  V30 12913 O 1195.98 0.388864 1.69804 0
M  V30 12914 C 1193.11 0.870209 3.29606 0
M  V30 12915 H 1194.3 2.18476 2.05446 0
M  V30 12916 H 1191.86 1.16401 1.0431 0
M  V30 12917 H 1192.59 -0.0968698 3.24155 0
M  V30 12918 H 1192.38 1.64924 3.55728 0
M  V30 12919 H 1193.87 0.817874 4.09513 0
M  V30 12920 N 1194.3 -1.0692 1.15784 0
M  V30 12921 C 1195.55 -1.79866 0.936815 0
M  V30 12922 C 1195.88 -1.867 -0.534477 0
M  V30 12923 O 1195.16 -1.35395 -1.39637 0
M  V30 12924 C 1195.44 -3.24691 1.55717 0
M  V30 12925 C 1195.29 -3.25975 3.09936 0
M  V30 12926 C 1196.61 -4.22076 1.24658 0
M  V30 12927 H 1193.73 -0.652971 0.341756 0
M  V30 12928 H 1196.37 -1.25085 1.43016 0
M  V30 12929 H 1194.52 -3.7147 1.13763 0
M  V30 12930 H 1196.2 -2.87405 3.60827 0
M  V30 12931 H 1194.44 -2.64808 3.43597 0
M  V30 12932 H 1195.11 -4.28114 3.48458 0
M  V30 12933 H 1197.59 -3.83709 1.60956 0
M  V30 12934 H 1196.46 -5.21691 1.70675 0
M  V30 12935 H 1196.72 -4.41794 0.164341 0
M  V30 12936 N 1195.78 -0.955326 -1.25345 0
M  V30 12937 C 1196.75 -0.480564 -2.24105 0
M  V30 12938 C 1197.75 0.416123 -1.55322 0
M  V30 12939 O 1198.94 0.213315 -1.72889 0
M  V30 12940 C 1196.07 0.305589 -3.39528 0
M  V30 12941 H 1197.26 -1.35349 -2.6762 0
M  V30 12942 H 1194.81 -0.738673 -1.37744 0
M  V30 12943 H 1195.55 1.19615 -3.01434 0
M  V30 12944 H 1195.33 -0.337719 -3.90643 0
M  V30 12945 H 1196.82 0.627201 -4.12863 0
M  V30 12946 N 1197.26 1.39987 -0.723979 0
M  V30 12947 C 1198.17 2.3447 -0.0780936 0
M  V30 12948 C 1199.19 1.57744 0.734368 0
M  V30 12949 O 1200.36 1.90091 0.665385 0
M  V30 12950 C 1197.43 3.36705 0.826492 0
M  V30 12951 C 1196.49 4.293 0.00303036 0
M  V30 12952 C 1195.72 5.26651 0.864535 0
M  V30 12953 O 1195.95 5.30194 2.10357 0
M  V30 12954 O 1194.88 6.01157 0.299057 0
M  V30 12955 H 1198.71 2.91338 -0.857646 0
M  V30 12956 H 1196.29 1.41324 -0.484536 0
M  V30 12957 H 1198.17 3.9938 1.34439 0
M  V30 12958 H 1196.85 2.82237 1.58505 0
M  V30 12959 H 1195.75 3.69883 -0.560136 0
M  V30 12960 H 1197.09 4.86942 -0.717494 0
M  V30 12961 N 1198.74 0.470782 1.50404 0
M  V30 12962 C 1199.99 -0.0841494 2.01925 0
M  V30 12963 C 1200.31 -1.40244 1.35487 0
M  V30 12964 O 1199.58 -1.89409 0.500111 0
M  V30 12965 H 1198.16 -0.0340884 0.746222 0
M  V30 12966 H 1200.82 0.621133 1.84738 0
M  V30 12967 H 1199.92 -0.235877 3.11207 0
M  V30 12968 N 1200.22 -1.56282 0.203376 0
M  V30 12969 C 1201.45 -2.02198 -0.438572 0
M  V30 12970 C 1201.86 -1.08343 -1.54619 0
M  V30 12971 O 1201.22 -0.0897594 -1.82279 0
M  V30 12972 C 1201.27 -3.4776 -0.987184 0
M  V30 12973 O 1200.99 -4.38034 0.0762552 0
M  V30 12974 C 1202.49 -4.09234 -1.70419 0
M  V30 12975 H 1199.71 -0.662041 -0.109282 0
M  V30 12976 H 1202.25 -2.02067 0.314509 0
M  V30 12977 H 1200.41 -3.48564 -1.69061 0
M  V30 12978 H 1200.82 -5.2344 -0.333322 0
M  V30 12979 H 1202.3 -5.1291 -2.04027 0
M  V30 12980 H 1202.77 -3.53172 -2.61087 0
M  V30 12981 H 1203.38 -4.12226 -1.04641 0
M  V30 12982 N 1201.7 0.070167 -1.57444 0
M  V30 12983 C 1202.97 0.802108 -1.78397 0
M  V30 12984 C 1203.35 1.95706 -0.791356 0
M  V30 12985 O 1202.7 2.27827 0.17518 0
M  V30 12986 C 1202.91 1.27354 -3.24934 0
M  V30 12987 C 1204.26 1.70626 -3.88808 0
M  V30 12988 O 1205.28 1.36916 -3.28835 0
M  V30 12989 O 1204.14 2.33041 -4.94322 0
M  V30 12990 H 1201.24 0.384483 -0.73219 0
M  V30 12991 H 1203.78 0.0501168 -1.69626 0
M  V30 12992 H 1202.55 0.447204 -3.88736 0
M  V30 12993 H 1202.18 2.0868 -3.38435 0
M  V30 12994 N 1203.17 1.53854 0.341593 0
M  V30 12995 C 1204.59 1.44161 0.684821 0
M  V30 12996 C 1204.79 0.599929 1.92362 0
M  V30 12997 O 1203.85 0.0916771 2.52334 0
M  V30 12998 C 1205.16 2.87668 0.875637 0
M  V30 12999 C 1206.71 2.97455 0.974131 0
M  V30 13000 C 1207.18 4.42075 1.19725 0
M  V30 13001 N 1208.67 4.45609 1.2644 0
M  V30 13002 C 1209.41 5.54643 1.45459 0
M  V30 13003 N 1208.9 6.7368 1.61637 0
M  V30 13004 N 1210.7 5.4226 1.48022 0
M  V30 13005 H 1202.85 2.07069 -0.472883 0
M  V30 13006 H 1205.11 0.936114 -0.149648 0
M  V30 13007 H 1204.82 3.51681 0.0368595 0
M  V30 13008 H 1204.69 3.32731 1.7768 0
M  V30 13009 H 1207.08 2.33582 1.80343 0
M  V30 13010 H 1207.16 2.55751 0.0498282 0
M  V30 13011 H 1206.8 5.06529 0.372872 0
M  V30 13012 H 1206.73 4.81372 2.13515 0
M  V30 13013 H 1209.22 3.59831 1.15455 0
M  V30 13014 H 1209.54 7.52541 1.7579 0
M  V30 13015 H 1207.88 6.76622 1.5877 0
M  V30 13016 H 1211.07 4.48221 1.34966 0
M  V30 13017 H 1211.25 6.27293 1.62502 0
M  V30 13018 N 1204.65 -0.602709 1.4562 0
M  V30 13019 C 1205.9 -1.36359 1.50113 0
M  V30 13020 C 1206.23 -1.93663 0.144297 0
M  V30 13021 O 1205.51 -1.75337 -0.841851 0
M  V30 13022 C 1205.79 -2.50788 2.58413 0
M  V30 13023 C 1205.64 -1.98649 4.03557 0
M  V30 13024 C 1206.96 -3.52905 2.62957 0
M  V30 13025 H 1204.08 -0.494455 0.54652 0
M  V30 13026 H 1206.72 -0.678957 1.77455 0
M  V30 13027 H 1204.87 -3.09191 2.3523 0
M  V30 13028 H 1206.54 -1.44857 4.37966 0
M  V30 13029 H 1204.79 -1.29615 4.13984 0
M  V30 13030 H 1205.46 -2.81159 4.7503 0
M  V30 13031 H 1207.93 -3.0435 2.83743 0
M  V30 13032 H 1206.81 -4.30454 3.40589 0
M  V30 13033 H 1207.07 -4.0884 1.68233 0
M  V30 13034 N 1206.13 -1.32992 -0.845635 0
M  V30 13035 C 1207.38 -1.23415 -1.59536 0
M  V30 13036 C 1207.69 0.200278 -1.94572 0
M  V30 13037 O 1208.9 0.417993 -2.68263 0
M  V30 13038 C 1207.35 -2.16207 -2.8772 0
M  V30 13039 C 1206.96 -3.64782 -2.60073 0
M  V30 13040 C 1208.71 -2.15488 -3.65739 0
M  V30 13041 C 1206.61 -4.49508 -3.84313 0
M  V30 13042 H 1205.54 -0.458366 -0.598679 0
M  V30 13043 H 1208.19 -1.58012 -0.932981 0
M  V30 13044 H 1206.58 -1.74535 -3.55462 0
M  V30 13045 H 1207.75 -4.14852 -2.00585 0
M  V30 13046 H 1206.06 -3.67723 -1.95369 0
M  V30 13047 H 1208.66 -2.76021 -4.57948 0
M  V30 13048 H 1209 -1.14818 -4.00153 0
M  V30 13049 H 1209.54 -2.55487 -3.04912 0
M  V30 13050 H 1206.28 -5.51027 -3.55035 0
M  V30 13051 H 1205.8 -4.04185 -4.43165 0
M  V30 13052 H 1207.48 -4.62969 -4.51961 0
M  V30 13053 N 1207.61 1.06304 -1.1635 0
M  V30 13054 C 1208.52 2.17296 -0.884289 0
M  V30 13055 C 1209.53 1.73408 0.143414 0
M  V30 13056 O 1210.71 2.01373 -0.0331987 0
M  V30 13057 C 1207.77 3.44509 -0.389163 0
M  V30 13058 C 1206.84 4.02906 -1.48208 0
M  V30 13059 C 1206.07 5.24047 -1.01048 0
M  V30 13060 O 1206.29 5.70229 0.139821 0
M  V30 13061 O 1205.23 5.74394 -1.79876 0
M  V30 13062 H 1209.05 2.4369 -1.81243 0
M  V30 13063 H 1206.64 1.15841 -0.943459 0
M  V30 13064 H 1208.52 4.21229 -0.120018 0
M  V30 13065 H 1207.19 3.19642 0.510968 0
M  V30 13066 H 1206.1 3.27677 -1.80496 0
M  V30 13067 H 1207.43 4.32068 -2.35751 0
M  V30 13068 N 1209.09 0.96196 1.24836 0
M  V30 13069 C 1210.33 0.616342 1.92052 0
M  V30 13070 C 1210.65 -0.851601 1.76088 0
M  V30 13071 O 1211.85 -1.3075 2.37943 0
M  V30 13072 C 1210.31 1.05168 3.44191 0
M  V30 13073 C 1209.92 2.54268 3.68852 0
M  V30 13074 C 1211.66 0.778938 4.17292 0
M  V30 13075 C 1209.57 2.91564 5.14533 0
M  V30 13076 H 1208.5 0.22681 0.719078 0
M  V30 13077 H 1211.15 1.1674 1.41577 0
M  V30 13078 H 1209.53 0.428979 3.9367 0
M  V30 13079 H 1210.71 3.21619 3.29997 0
M  V30 13080 H 1209.02 2.79091 3.09026 0
M  V30 13081 H 1211.62 1.03366 5.24614 0
M  V30 13082 H 1211.96 -0.284772 4.15325 0
M  V30 13083 H 1212.49 1.36233 3.73745 0
M  V30 13084 H 1209.23 3.96982 5.21618 0
M  V30 13085 H 1208.75 2.28892 5.54408 0
M  V30 13086 H 1210.43 2.81155 5.82718 0
M  V30 13087 N 1210.56 -1.39601 0.731392 0
M  V30 13088 C 1211.49 -2.33268 0.1041 0
M  V30 13089 C 1212.47 -1.53724 -0.728219 0
M  V30 13090 O 1213.66 -1.82131 -0.673933 0
M  V30 13091 C 1210.79 -3.37802 -0.806646 0
M  V30 13092 C 1209.74 -4.27928 -0.0787588 0
M  V30 13093 C 1209.07 -5.23131 -1.10628 0
M  V30 13094 C 1210.37 -5.11086 1.07651 0
M  V30 13095 H 1212.06 -2.85975 0.886496 0
M  V30 13096 H 1209.61 -1.375 0.427746 0
M  V30 13097 H 1211.56 -4.02278 -1.25499 0
M  V30 13098 H 1210.29 -2.83527 -1.62112 0
M  V30 13099 H 1208.95 -3.64926 0.349926 0
M  V30 13100 H 1208.59 -4.65152 -1.91422 0
M  V30 13101 H 1208.29 -5.84277 -0.624043 0
M  V30 13102 H 1209.82 -5.90483 -1.5544 0
M  V30 13103 H 1211.23 -5.68927 0.706781 0
M  V30 13104 H 1209.63 -5.81356 1.48814 0
M  V30 13105 H 1210.7 -4.46131 1.89988 0
M  V30 13106 N 1212.04 -0.478751 -1.50152 0
M  V30 13107 C 1212.97 0.347829 -2.26545 0
M  V30 13108 C 1213.99 0.950354 -1.32182 0
M  V30 13109 O 1215.18 0.837462 -1.57635 0
M  V30 13110 C 1212.28 1.50255 -3.0377 0
M  V30 13111 C 1211.45 1.01142 -4.25546 0
M  V30 13112 C 1210.51 2.0411 -4.85 0
M  V30 13113 O 1209.53 1.61862 -5.45701 0
M  V30 13114 N 1210.74 3.36982 -4.72677 0
M  V30 13115 H 1213.5 -0.307113 -2.98122 0
M  V30 13116 H 1211.06 -0.309981 -1.58905 0
M  V30 13117 H 1213.05 2.18848 -3.40423 0
M  V30 13118 H 1211.62 2.06205 -2.34943 0
M  V30 13119 H 1210.84 0.151124 -3.9391 0
M  V30 13120 H 1212.13 0.661326 -5.04484 0
M  V30 13121 H 1211.53 3.74011 -4.2442 0
M  V30 13122 H 1210.09 4.0135 -5.13577 0
M  V30 13123 N 1213.52 1.56172 -0.211661 0
M  V30 13124 C 1214.94 1.5895 0.143907 0
M  V30 13125 C 1215.14 1.22826 1.59737 0
M  V30 13126 O 1214.19 0.958823 2.33587 0
M  V30 13127 C 1215.51 3.00199 -0.173438 0
M  V30 13128 C 1217.05 3.12789 -0.114877 0
M  V30 13129 C 1217.53 4.56199 -0.405759 0
M  V30 13130 N 1219.02 4.61838 -0.354973 0
M  V30 13131 C 1219.75 5.70721 -0.553671 0
M  V30 13132 N 1219.25 6.88006 -0.813613 0
M  V30 13133 N 1221.04 5.59988 -0.486787 0
M  V30 13134 H 1213.19 1.77931 -1.15993 0
M  V30 13135 H 1215.46 0.826569 -0.464206 0
M  V30 13136 H 1215.16 3.31248 -1.18186 0
M  V30 13137 H 1215.04 3.73651 0.516232 0
M  V30 13138 H 1217.42 2.81543 0.884166 0
M  V30 13139 H 1217.51 2.41688 -0.837875 0
M  V30 13140 H 1217.15 4.88161 -1.40219 0
M  V30 13141 H 1217.08 5.25512 0.338318 0
M  V30 13142 H 1219.57 3.77555 -0.161352 0
M  V30 13143 H 1219.88 7.66894 -0.953594 0
M  V30 13144 H 1218.23 6.89774 -0.850696 0
M  V30 13145 H 1221.42 4.67238 -0.284009 0
M  V30 13146 H 1221.59 6.44781 -0.645051 0
M  V30 13147 N 1215 -0.0618163 1.57479 0
M  V30 13148 C 1215.96 -1.05684 2.0338 0
M  V30 13149 C 1216.96 -1.31006 0.932423 0
M  V30 13150 O 1218.15 -1.26559 1.19702 0
M  V30 13151 C 1215.28 -2.39805 2.42294 0
M  V30 13152 H 1216.48 -0.661006 2.92525 0
M  V30 13153 H 1214.03 -0.307814 1.53239 0
M  V30 13154 H 1214.76 -2.84201 1.56207 0
M  V30 13155 H 1214.55 -2.22764 3.22674 0
M  V30 13156 H 1216.04 -3.11307 2.78349 0
M  V30 13157 N 1216.48 -1.54033 -0.333429 0
M  V30 13158 C 1217.72 -1.71765 -1.07252 0
M  V30 13159 C 1218.05 -0.486135 -1.88327 0
M  V30 13160 O 1217.31 0.532135 -1.88326 0
M  V30 13161 C 1217.61 -2.93926 -2.03328 0
M  V30 13162 C 1217.27 -4.29107 -1.38486 0
M  V30 13163 C 1215.93 -4.6586 -1.20532 0
M  V30 13164 C 1218.29 -5.13041 -0.918624 0
M  V30 13165 C 1215.61 -5.84155 -0.545881 0
M  V30 13166 C 1217.97 -6.3201 -0.273055 0
M  V30 13167 C 1216.63 -6.67451 -0.0812815 0
M  V30 13168 H 1215.9 -0.628532 -0.392464 0
M  V30 13169 H 1218.55 -1.88261 -0.350709 0
M  V30 13170 H 1216.85 -2.72075 -2.81926 0
M  V30 13171 H 1218.55 -3.0484 -2.60526 0
M  V30 13172 H 1215.14 -4.00185 -1.5346 0
M  V30 13173 H 1219.32 -4.8517 -1.04515 0
M  V30 13174 H 1214.58 -6.1018 -0.386009 0
M  V30 13175 H 1218.75 -6.96333 0.0962582 0
M  V30 13176 H 1216.38 -7.58973 0.431734 0
M  V30 13177 N 1217.95 0.594978 -1.45938 0
M  V30 13178 C 1219.37 0.917069 -1.30622 0
M  V30 13179 C 1219.57 1.99702 -0.268554 0
M  V30 13180 O 1218.63 2.50293 0.333146 0
M  V30 13181 C 1219.94 1.34604 -2.68891 0
M  V30 13182 C 1221.49 1.45957 -2.76886 0
M  V30 13183 C 1221.96 1.92225 -4.15708 0
M  V30 13184 N 1223.45 1.99439 -4.18065 0
M  V30 13185 C 1224.19 2.36488 -5.22361 0
M  V30 13186 N 1223.68 2.72416 -6.36994 0
M  V30 13187 N 1225.48 2.36936 -5.09723 0
M  V30 13188 H 1217.63 -0.118625 -2.12068 0
M  V30 13189 H 1219.89 0.00959453 -0.947951 0
M  V30 13190 H 1219.6 0.626605 -3.46073 0
M  V30 13191 H 1219.47 2.31006 -2.98188 0
M  V30 13192 H 1221.86 2.16989 -1.99999 0
M  V30 13193 H 1221.94 0.47838 -2.51287 0
M  V30 13194 H 1221.58 1.21775 -4.93085 0
M  V30 13195 H 1221.51 2.9128 -4.38707 0
M  V30 13196 H 1224 1.74212 -3.35349 0
M  V30 13197 H 1224.32 2.99604 -7.1236 0
M  V30 13198 H 1222.66 2.70083 -6.40375 0
M  V30 13199 H 1225.85 2.08282 -4.19209 0
M  V30 13200 H 1226.03 2.65483 -5.9112 0
M  V30 13201 N 1219.43 1.33438 0.838571 0
M  V30 13202 C 1220.4 1.23632 1.92997 0
M  V30 13203 C 1221.4 0.155302 1.60048 0
M  V30 13204 O 1222.59 0.406852 1.69382 0
M  V30 13205 C 1219.72 0.90512 3.28665 0
M  V30 13206 H 1220.91 2.20643 2.03117 0
M  V30 13207 H 1218.46 1.17501 1.03069 0
M  V30 13208 H 1219.2 -0.0624833 3.2424 0
M  V30 13209 H 1218.98 1.68688 3.53959 0
M  V30 13210 H 1220.47 0.861262 4.08622 0
M  V30 13211 N 1220.91 -1.05686 1.16912 0
M  V30 13212 C 1222.16 -1.78862 0.955839 0
M  V30 13213 C 1222.49 -1.87257 -0.514645 0
M  V30 13214 O 1221.76 -1.36869 -1.38193 0
M  V30 13215 C 1222.05 -3.23021 1.59152 0
M  V30 13216 C 1221.9 -3.22669 3.13376 0
M  V30 13217 C 1223.22 -4.2073 1.29128 0
M  V30 13218 H 1220.34 -0.64931 0.348663 0
M  V30 13219 H 1222.98 -1.23561 1.44335 0
M  V30 13220 H 1221.13 -3.70243 1.17697 0
M  V30 13221 H 1222.8 -2.83562 3.63855 0
M  V30 13222 H 1221.05 -2.61149 3.46386 0
M  V30 13223 H 1221.72 -4.24394 3.52979 0
M  V30 13224 H 1224.19 -3.8198 1.65017 0
M  V30 13225 H 1223.07 -5.19851 1.76198 0
M  V30 13226 H 1223.33 -4.41595 0.21119 0
M  V30 13227 N 1222.39 -0.968567 -1.24324 0
M  V30 13228 C 1223.32 -0.518323 -2.27674 0
M  V30 13229 C 1224.3 0.442479 -1.64244 0
M  V30 13230 O 1225.48 0.338416 -1.91229 0
M  V30 13231 C 1222.61 0.191459 -3.46772 0
M  V30 13232 C 1221.57 -0.685449 -4.22476 0
M  V30 13233 C 1220.89 0.155873 -5.34473 0
M  V30 13234 C 1222.19 -1.97047 -4.83704 0
M  V30 13235 H 1223.89 -1.38215 -2.65588 0
M  V30 13236 H 1221.43 -0.66604 -1.27671 0
M  V30 13237 H 1223.39 0.517667 -4.18208 0
M  V30 13238 H 1222.11 1.08965 -3.07887 0
M  V30 13239 H 1220.77 -0.994942 -3.52841 0
M  V30 13240 H 1220.42 1.05424 -4.91828 0
M  V30 13241 H 1220.12 -0.427655 -5.86042 0
M  V30 13242 H 1221.64 0.476733 -6.08736 0
M  V30 13243 H 1223.06 -1.70979 -5.4721 0
M  V30 13244 H 1221.45 -2.50079 -5.45509 0
M  V30 13245 H 1222.52 -2.66484 -4.0511 0
M  V30 13246 N 1223.87 1.39211 -0.738786 0
M  V30 13247 C 1224.82 2.27869 -0.0772787 0
M  V30 13248 C 1225.8 1.44452 0.708683 0
M  V30 13249 O 1226.99 1.67329 0.57707 0
M  V30 13250 C 1224.12 3.33206 0.826364 0
M  V30 13251 C 1223.21 4.24086 0.034349 0
M  V30 13252 N 1223.6 4.95928 -0.99446 0
M  V30 13253 C 1221.9 4.45221 0.26343 0
M  V30 13254 C 1222.6 5.62757 -1.47238 0
M  V30 13255 N 1221.57 5.37824 -0.790305 0
M  V30 13256 H 1225.38 2.80869 -0.865447 0
M  V30 13257 H 1222.89 1.51938 -0.573462 0
M  V30 13258 H 1224.89 3.95592 1.31578 0
M  V30 13259 H 1223.55 2.81765 1.61365 0
M  V30 13260 H 1224.56 4.99289 -1.37591 0
M  V30 13261 H 1221.23 4.04717 1.02522 0
M  V30 13262 H 1222.62 6.30261 -2.32853 0
M  V30 13263 N 1225.34 0.486708 1.49896 0
M  V30 13264 C 1226.59 -0.0646197 2.01596 0
M  V30 13265 C 1226.91 -1.39363 1.37249 0
M  V30 13266 O 1228.11 -2.03082 1.80194 0
M  V30 13267 C 1226.57 -0.16565 3.59519 0
M  V30 13268 C 1226.18 1.15586 4.32832 0
M  V30 13269 C 1227.92 -0.668103 4.1921 0
M  V30 13270 C 1225.83 1.01778 5.82576 0
M  V30 13271 H 1224.76 -0.0279241 0.753483 0
M  V30 13272 H 1227.41 0.623969 1.72566 0
M  V30 13273 H 1225.79 -0.918372 3.85204 0
M  V30 13274 H 1226.96 1.92076 4.1886 0
M  V30 13275 H 1225.28 1.59064 3.84822 0
M  V30 13276 H 1227.88 -0.788698 5.28851 0
M  V30 13277 H 1228.22 -1.66339 3.81624 0
M  V30 13278 H 1228.75 0.0276746 3.9779 0
M  V30 13279 H 1225.49 1.9869 6.24662 0
M  V30 13280 H 1225.01 0.293527 5.99081 0
M  V30 13281 H 1226.69 0.690693 6.43303 0
M  V30 13282 N 1226.82 -1.56058 0.219941 0
M  V30 13283 C 1228.23 -1.84462 -0.288203 0
M  V30 13284 C 1228.59 -1.14128 -1.59591 0
M  V30 13285 O 1227.71 -0.410411 -2.12473 0
M  V30 13286 C 1228.31 -3.34634 -0.529689 0
M  V30 13287 C 1226.86 -3.63361 -0.982145 0
M  V30 13288 C 1226.01 -2.77265 -0.0443292 0
M  V30 13289 H 1228.96 -1.52387 0.44317 0
M  V30 13290 H 1228.98 -3.54752 -1.3759 0
M  V30 13291 H 1228.5 -3.85796 0.422243 0
M  V30 13292 H 1226.6 -3.17653 -1.94749 0
M  V30 13293 H 1226.71 -4.71361 -0.857668 0
M  V30 13294 H 1225.07 -2.48672 -0.550825 0
M  V30 13295 H 1225.86 -3.31225 0.902491 0
M  V30 13296 N 1228.3 0.053464 -1.57509 0
M  V30 13297 C 1229.55 0.750212 -1.88414 0
M  V30 13298 C 1229.88 1.76288 -0.814619 0
M  V30 13299 O 1229.16 1.93728 0.173136 0
M  V30 13300 C 1229.44 1.44176 -3.29978 0
M  V30 13301 C 1229.29 0.444263 -4.47601 0
M  V30 13302 C 1230.61 2.38207 -3.70061 0
M  V30 13303 H 1227.73 0.271266 -0.685262 0
M  V30 13304 H 1230.37 0.0131676 -1.89995 0
M  V30 13305 H 1228.52 2.07001 -3.2876 0
M  V30 13306 H 1230.19 -0.180182 -4.60948 0
M  V30 13307 H 1228.44 -0.238771 -4.33142 0
M  V30 13308 H 1229.11 0.966134 -5.43479 0
M  V30 13309 H 1231.58 1.85446 -3.7249 0
M  V30 13310 H 1230.46 2.83588 -4.69967 0
M  V30 13311 H 1230.72 3.23821 -3.00985 0
M  V30 13312 N 1229.78 1.54207 0.325255 0
M  V30 13313 C 1231.2 1.44879 0.669492 0
M  V30 13314 C 1231.4 0.620298 1.91715 0
M  V30 13315 O 1230.45 0.118435 2.52222 0
M  V30 13316 C 1231.76 2.88581 0.845077 0
M  V30 13317 C 1233.31 2.98472 0.942527 0
M  V30 13318 C 1233.79 4.4332 1.15029 0
M  V30 13319 N 1235.28 4.46925 1.21707 0
M  V30 13320 C 1236.01 5.56155 1.39568 0
M  V30 13321 N 1235.51 6.75357 1.54483 0
M  V30 13322 N 1237.3 5.43799 1.42263 0
M  V30 13323 H 1229.45 2.06556 -0.494819 0
M  V30 13324 H 1231.72 0.934474 -0.159568 0
M  V30 13325 H 1231.42 3.517 -0.000442996 0
M  V30 13326 H 1231.3 3.34596 1.74141 0
M  V30 13327 H 1233.68 2.35481 1.77855 0
M  V30 13328 H 1233.76 2.5579 0.0226995 0
M  V30 13329 H 1233.41 5.06896 0.319127 0
M  V30 13330 H 1233.34 4.8361 2.08397 0
M  V30 13331 H 1235.83 3.61036 1.11632 0
M  V30 13332 H 1236.14 7.54363 1.67799 0
M  V30 13333 H 1234.49 6.78268 1.51584 0
M  V30 13334 H 1237.68 4.49627 1.30205 0
M  V30 13335 H 1237.85 6.28982 1.5584 0
M  V30 13336 N 1231.26 -0.58723 1.46251 0
M  V30 13337 C 1232.51 -1.34179 1.50595 0
M  V30 13338 C 1232.82 -1.94943 0.160171 0
M  V30 13339 O 1234.03 -2.71378 0.0813797 0
M  V30 13340 C 1232.48 -2.43159 2.65333 0
M  V30 13341 C 1232.09 -1.88718 4.06312 0
M  V30 13342 C 1233.83 -3.19986 2.78943 0
M  V30 13343 C 1231.74 -2.953 5.12398 0
M  V30 13344 H 1230.67 -0.504401 0.560442 0
M  V30 13345 H 1233.32 -0.627179 1.72449 0
M  V30 13346 H 1231.7 -3.17398 2.368 0
M  V30 13347 H 1232.88 -1.21051 4.44616 0
M  V30 13348 H 1231.19 -1.24572 3.97329 0
M  V30 13349 H 1233.79 -3.9952 3.5537 0
M  V30 13350 H 1234.13 -3.72288 1.86298 0
M  V30 13351 H 1234.67 -2.52852 3.07101 0
M  V30 13352 H 1231.4 -2.4789 6.0682 0
M  V30 13353 H 1230.92 -3.61469 4.78644 0
M  V30 13354 H 1232.6 -3.5933 5.38044 0
M  V30 13355 N 1232.74 -1.33881 -0.831482 0
M  V30 13356 C 1234.15 -1.13376 -1.1233 0
M  V30 13357 C 1234.35 0.0704402 -2.01377 0
M  V30 13358 O 1233.41 0.748516 -2.4115 0
M  V30 13359 C 1234.72 -2.42484 -1.77826 0
M  V30 13360 C 1236.27 -2.4846 -1.90359 0
M  V30 13361 C 1236.74 -3.77548 -2.59272 0
M  V30 13362 N 1238.23 -3.7866 -2.66778 0
M  V30 13363 C 1238.97 -4.75258 -3.20807 0
M  V30 13364 N 1238.47 -5.82234 -3.75466 0
M  V30 13365 N 1240.26 -4.62724 -3.19128 0
M  V30 13366 H 1232.41 -2.11051 -0.238998 0
M  V30 13367 H 1234.67 -0.932893 -0.168565 0
M  V30 13368 H 1234.38 -3.30647 -1.19857 0
M  V30 13369 H 1234.25 -2.55186 -2.77777 0
M  V30 13370 H 1236.64 -1.60742 -2.47479 0
M  V30 13371 H 1236.72 -2.39693 -0.893359 0
M  V30 13372 H 1236.36 -4.65651 -2.02808 0
M  V30 13373 H 1236.29 -3.83594 -3.60781 0
M  V30 13374 H 1238.79 -3.01351 -2.28026 0
M  V30 13375 H 1239.1 -6.51968 -4.14918 0
M  V30 13376 H 1237.44 -5.85959 -3.73733 0
M  V30 13377 H 1240.63 -3.78303 -2.75688 0
M  V30 13378 H 1240.81 -5.38175 -3.60932 0
M  V30 13379 N 1234.21 1.05064 -1.1747 0
M  V30 13380 C 1235.15 2.12842 -0.850344 0
M  V30 13381 C 1236.16 1.62128 0.147796 0
M  V30 13382 O 1237.35 1.78327 -0.0786774 0
M  V30 13383 C 1234.45 3.37995 -0.247486 0
M  V30 13384 C 1233.62 4.17981 -1.28881 0
M  V30 13385 C 1232.68 5.21476 -0.703476 0
M  V30 13386 O 1231.71 5.52327 -1.37561 0
M  V30 13387 N 1232.91 5.78309 0.50387 0
M  V30 13388 H 1235.67 2.41264 -1.77797 0
M  V30 13389 H 1233.23 1.21172 -1.07373 0
M  V30 13390 H 1235.23 4.04394 0.157424 0
M  V30 13391 H 1233.8 3.07097 0.583952 0
M  V30 13392 H 1233.02 3.47054 -1.86942 0
M  V30 13393 H 1234.3 4.6822 -1.99116 0
M  V30 13394 H 1233.7 5.5553 1.06787 0
M  V30 13395 H 1232.26 6.46223 0.850828 0
M  V30 13396 N 1235.69 0.975146 1.23809 0
M  V30 13397 C 1236.94 0.639858 1.91704 0
M  V30 13398 C 1237.26 -0.828557 1.76522 0
M  V30 13399 O 1236.53 -1.59217 1.14135 0
M  V30 13400 H 1235.11 0.233667 0.709513 0
M  V30 13401 H 1237.77 1.23782 1.50545 0
M  V30 13402 H 1236.87 0.886915 2.99233 0
M  V30 13403 N 1237.17 -1.38817 0.746158 0
M  V30 13404 C 1238.1 -2.33144 0.128836 0
M  V30 13405 C 1239.08 -1.54487 -0.711873 0
M  V30 13406 O 1240.27 -1.82836 -0.654577 0
M  V30 13407 C 1237.4 -3.38639 -0.770772 0
M  V30 13408 C 1236.35 -4.27987 -0.0333669 0
M  V30 13409 C 1235.68 -5.24274 -1.05073 0
M  V30 13410 C 1236.98 -5.09915 1.13066 0
M  V30 13411 H 1238.67 -2.85019 0.916778 0
M  V30 13412 H 1236.22 -1.37039 0.442306 0
M  V30 13413 H 1238.17 -4.03587 -1.21225 0
M  V30 13414 H 1236.89 -2.8523 -1.59095 0
M  V30 13415 H 1235.55 -3.64534 0.388612 0
M  V30 13416 H 1235.2 -4.67156 -1.86478 0
M  V30 13417 H 1234.9 -5.84906 -0.562037 0
M  V30 13418 H 1236.42 -5.92099 -1.49169 0
M  V30 13419 H 1237.84 -5.68145 0.767084 0
M  V30 13420 H 1236.23 -5.79744 1.54972 0
M  V30 13421 H 1237.3 -4.4409 1.94709 0
M  V30 13422 N 1238.65 -0.49465 -1.49636 0
M  V30 13423 C 1239.56 0.291881 -2.32777 0
M  V30 13424 C 1240.57 0.973468 -1.44221 0
M  V30 13425 O 1241.75 0.956252 -1.77251 0
M  V30 13426 C 1238.81 1.34609 -3.19502 0
M  V30 13427 C 1237.88 0.678611 -4.23903 0
M  V30 13428 C 1237.11 1.68259 -5.06483 0
M  V30 13429 O 1237.33 2.91176 -4.90482 0
M  V30 13430 O 1236.27 1.24141 -5.88959 0
M  V30 13431 H 1240.09 -0.388459 -3.01205 0
M  V30 13432 H 1237.68 -0.256086 -1.47189 0
M  V30 13433 H 1239.56 1.95617 -3.73245 0
M  V30 13434 H 1238.23 2.00947 -2.53775 0
M  V30 13435 H 1237.14 0.0289541 -3.74089 0
M  V30 13436 H 1238.47 0.0577817 -4.92166 0
M  V30 13437 N 1240.13 1.55939 -0.228214 0
M  V30 13438 C 1241.54 1.59094 0.12704 0
M  V30 13439 C 1241.74 1.24514 1.58425 0
M  V30 13440 O 1240.8 0.983544 2.32557 0
M  V30 13441 C 1242.11 2.99999 -0.205268 0
M  V30 13442 C 1243.66 3.1265 -0.148046 0
M  V30 13443 C 1244.13 4.55743 -0.454122 0
M  V30 13444 N 1245.62 4.61435 -0.403937 0
M  V30 13445 C 1246.36 5.70101 -0.614173 0
M  V30 13446 N 1245.86 6.87104 -0.88654 0
M  V30 13447 N 1247.65 5.5944 -0.546153 0
M  V30 13448 H 1239.8 1.7669 -1.17874 0
M  V30 13449 H 1242.06 0.821599 -0.472947 0
M  V30 13450 H 1241.77 3.29976 -1.21692 0
M  V30 13451 H 1241.64 3.74177 0.476573 0
M  V30 13452 H 1244.03 2.82465 0.854255 0
M  V30 13453 H 1244.11 2.40786 -0.863462 0
M  V30 13454 H 1243.75 4.86646 -1.45389 0
M  V30 13455 H 1243.68 5.25841 0.282561 0
M  V30 13456 H 1246.18 3.77363 -0.201388 0
M  V30 13457 H 1246.49 7.65839 -1.03488 0
M  V30 13458 H 1244.83 6.88833 -0.923808 0
M  V30 13459 H 1248.02 4.6691 -0.33355 0
M  V30 13460 H 1248.2 6.44061 -0.713402 0
M  V30 13461 N 1241.6 -0.0451101 1.57535 0
M  V30 13462 C 1242.57 -1.03521 2.0449 0
M  V30 13463 C 1243.57 -1.30009 0.946265 0
M  V30 13464 O 1244.76 -1.25282 1.21038 0
M  V30 13465 C 1241.89 -2.37221 2.44824 0
M  V30 13466 H 1243.08 -0.629943 2.93209 0
M  V30 13467 H 1240.64 -0.291544 1.53557 0
M  V30 13468 H 1241.37 -2.82528 1.59212 0
M  V30 13469 H 1241.16 -2.19329 3.25018 0
M  V30 13470 H 1242.65 -3.08337 2.81635 0
M  V30 13471 N 1243.08 -1.54377 -0.317073 0
M  V30 13472 C 1244.01 -1.8721 -1.39552 0
M  V30 13473 C 1244.99 -0.729483 -1.53664 0
M  V30 13474 O 1246.18 -0.983799 -1.67437 0
M  V30 13475 C 1243.31 -2.1052 -2.76222 0
M  V30 13476 C 1242.26 -3.26366 -2.76892 0
M  V30 13477 C 1241.59 -3.35061 -4.16699 0
M  V30 13478 C 1242.89 -4.63862 -2.40061 0
M  V30 13479 H 1244.58 -2.77532 -1.12323 0
M  V30 13480 H 1242.13 -1.33536 -0.538897 0
M  V30 13481 H 1244.08 -2.32073 -3.51739 0
M  V30 13482 H 1242.81 -1.16953 -3.04942 0
M  V30 13483 H 1241.46 -3.0471 -2.03831 0
M  V30 13484 H 1241.11 -2.39041 -4.4257 0
M  V30 13485 H 1240.81 -4.12923 -4.18053 0
M  V30 13486 H 1242.34 -3.58856 -4.94019 0
M  V30 13487 H 1243.75 -4.85252 -3.05292 0
M  V30 13488 H 1242.15 -5.44321 -2.52655 0
M  V30 13489 H 1243.22 -4.6567 -1.35202 0
M  V30 13490 N 1244.56 0.579466 -1.4656 0
M  V30 13491 C 1245.49 1.69846 -1.60233 0
M  V30 13492 C 1246.47 1.6397 -0.452533 0
M  V30 13493 O 1247.66 1.81936 -0.679174 0
M  V30 13494 C 1244.79 3.08488 -1.59538 0
M  V30 13495 C 1243.74 3.29197 -2.7352 0
M  V30 13496 C 1243.07 4.684 -2.57887 0
M  V30 13497 C 1244.37 3.16718 -4.15315 0
M  V30 13498 H 1246.06 1.5866 -2.53904 0
M  V30 13499 H 1243.61 0.761873 -1.22194 0
M  V30 13500 H 1245.56 3.86595 -1.67696 0
M  V30 13501 H 1244.28 3.20581 -0.62413 0
M  V30 13502 H 1242.94 2.53491 -2.64836 0
M  V30 13503 H 1242.59 4.77262 -1.58839 0
M  V30 13504 H 1242.29 4.83208 -3.34341 0
M  V30 13505 H 1243.81 5.48671 -2.67942 0
M  V30 13506 H 1245.23 3.84666 -4.25094 0
M  V30 13507 H 1243.63 3.43047 -4.92381 0
M  V30 13508 H 1244.7 2.13755 -4.35244 0
M  V30 13509 O 1246.08 1.44373 0.723796 0
M  V30 13510 H 1246.77 1.36511 1.37421 0
M  V30 END ATOM
M  V30 BEGIN BOND
M  V30 END BOND
M  V30 END CTAB
M  END
$$$$
