drugbank_target|P23975 Sodium-dependent noradrenaline transporter (DB00182; DB00191; DB00193; DB00226; DB00234; DB00245; DB00285; DB00289; DB00321; DB00344; DB00408; DB00422; DB00454; DB00458; DB00476; DB00514; DB00540; DB00543; DB00579; DB00715; DB00726; DB00830; DB00852; DB00907; DB00924; DB00934; DB00937; DB00988; DB01104; DB01105; DB01114; DB01142; DB01149; DB01151; DB01156; DB01170; DB01173; DB01175; DB01221; DB01242; DB01363; DB01364; DB01381; DB01442; DB01454; DB01576; DB01577; DB01579; DB04821; DB04836; DB04840; DB04889; DB04896; DB05012; DB05642; DB05688; DB05964; DB06148; DB06156; DB06204; DB06333; DB06700; DB06701; DB08918; DB09068; DB09167; DB09185; DB09225; DB12305; DB13931; DB14754)
 OpenBabel12092119333D

  0  0  0     0  0            999 V3000
M  V30 BEGIN CTAB
M  V30 COUNTS 9822 9974 0 0 0
M  V30 BEGIN ATOM
M  V30 1 H -0.908 1.98254 -0.117106 0
M  V30 2 N 0 1.576 0 0
M  V30 3 C 0.933 2.03868 1.02534 0
M  V30 4 C 1.911 0.928543 1.3348 0
M  V30 5 O 3.095 1.19667 1.45644 0
M  V30 6 C 0.222 2.43627 2.35294 0
M  V30 7 C -0.732 3.65373 2.2001 0
M  V30 8 S 0.101 5.13292 1.52614 0
M  V30 9 C 1.257 5.56322 2.86805 0
M  V30 10 H 1.49 2.90518 0.631377 0
M  V30 11 H -0.977 1.52953 0.210867 0
M  V30 12 H 0.981 2.67203 3.11629 0
M  V30 13 H -0.358 1.57376 2.7183 0
M  V30 14 H -1.165 3.90944 3.18086 0
M  V30 15 H -1.563 3.418 1.51819 0
M  V30 16 H 0.729 5.58782 3.83104 0
M  V30 17 H 1.672 6.56266 2.65933 0
M  V30 18 H 2.08 4.83886 2.90714 0
M  V30 19 N 1.4781 -0.272755 1.55222 0
M  V30 20 C 2.4081 -1.34136 1.91127 0
M  V30 21 C 3.3891 -1.51513 0.773168 0
M  V30 22 O 4.5741 -1.64552 1.03132 0
M  V30 23 C 1.7041 -2.70083 2.1834 0
M  V30 24 C 0.6581 -2.67437 3.34158 0
M  V30 25 C -0.0159 -4.06938 3.46851 0
M  V30 26 C 1.2841 -2.26686 4.70543 0
M  V30 27 H 2.9781 -1.04333 2.80633 0
M  V30 28 H 0.5241 -0.500454 1.35024 0
M  V30 29 H 2.4771 -3.44952 2.42046 0
M  V30 30 H 1.2011 -3.01469 1.25634 0
M  V30 31 H -0.1399 -1.95026 3.1042 0
M  V30 32 H -0.4919 -4.35547 2.51611 0
M  V30 33 H -0.7919 -4.06062 4.2472 0
M  V30 34 H 0.7321 -4.83545 3.72849 0
M  V30 35 H 2.1461 -2.91277 4.93792 0
M  V30 36 H 0.5431 -2.36971 5.5133 0
M  V30 37 H 1.6131 -1.21818 4.69349 0
M  V30 38 N 2.9562 -1.48159 -0.537278 0
M  V30 39 C 3.8862 -1.65029 -1.6519 0
M  V30 40 C 4.8672 -0.499281 -1.62607 0
M  V30 41 O 6.0522 -0.730972 -1.79918 0
M  V30 42 C 3.1822 -1.68303 -3.03795 0
M  V30 43 C 2.1362 -2.8283 -3.21234 0
M  V30 44 C 1.4622 -2.71189 -4.60826 0
M  V30 45 C 2.7622 -4.24211 -3.04701 0
M  V30 46 H 4.4562 -2.58341 -1.51328 0
M  V30 47 H 2.0022 -1.24325 -0.726585 0
M  V30 48 H 3.9552 -1.78693 -3.81637 0
M  V30 49 H 2.6792 -0.715635 -3.18663 0
M  V30 50 H 1.3382 -2.71983 -2.45807 0
M  V30 51 H 0.9862 -1.72435 -4.7252 0
M  V30 52 H 0.6862 -3.48035 -4.7344 0
M  V30 53 H 2.2102 -2.83537 -5.40777 0
M  V30 54 H 3.6242 -4.3593 -3.72341 0
M  V30 55 H 2.0212 -5.01998 -3.28813 0
M  V30 56 H 3.0912 -4.41184 -2.01209 0
M  V30 57 N 4.4343 0.785586 -1.36625 0
M  V30 58 C 5.3973 1.87999 -1.31107 0
M  V30 59 C 6.3973 1.59316 -0.217959 0
M  V30 60 O 7.5873 1.67656 -0.472977 0
M  V30 61 C 4.7193 3.24861 -1.03334 0
M  V30 62 H 5.9123 1.94307 -2.2844 0
M  V30 63 H 3.4653 0.983813 -1.21453 0
M  V30 64 H 4.2003 3.24235 -0.0647432 0
M  V30 65 H 3.9853 3.4707 -1.82441 0
M  V30 66 H 5.4753 4.04929 -1.02088 0
M  V30 67 N 5.9124 1.20967 1.01018 0
M  V30 68 C 7.3284 0.965905 1.27053 0
M  V30 69 C 7.5284 -0.350785 1.98423 0
M  V30 70 O 6.5844 -1.07773 2.28344 0
M  V30 71 C 7.8974 2.15294 2.09926 0
M  V30 72 C 9.4454 2.19463 2.23171 0
M  V30 73 C 9.9204 3.3767 3.09424 0
M  V30 74 N 11.4114 3.37724 3.17012 0
M  V30 75 C 12.1464 4.25837 3.83993 0
M  V30 76 N 11.6424 5.24138 4.53047 0
M  V30 77 N 13.4354 4.1366 3.80581 0
M  V30 78 H 5.5864 2.0565 0.531194 0
M  V30 79 H 7.8494 0.90024 0.297106 0
M  V30 80 H 7.5554 3.10684 1.64828 0
M  V30 81 H 7.4294 2.13923 3.10672 0
M  V30 82 H 9.8164 1.24632 2.6749 0
M  V30 83 H 9.8974 2.2488 1.21912 0
M  V30 84 H 9.5414 4.32791 2.65808 0
M  V30 85 H 9.4714 3.29491 4.10784 0
M  V30 86 H 11.9624 2.6658 2.6785 0
M  V30 87 H 12.2754 5.87684 5.01844 0
M  V30 88 H 10.6204 5.28068 4.5185 0
M  V30 89 H 13.8114 3.36127 3.25785 0
M  V30 90 H 13.9844 4.82538 4.32505 0
M  V30 91 N 7.3905 -1.2043 1.01659 0
M  V30 92 C 8.3235 -2.21924 0.531521 0
M  V30 93 C 9.3015 -1.57054 -0.421032 0
M  V30 94 O 10.4855 -1.85389 -0.341035 0
M  V30 95 C 7.6125 -3.37942 -0.226496 0
M  V30 96 C 6.6585 -4.21115 0.67561 0
M  V30 97 S 7.4915 -4.90674 2.14475 0
M  V30 98 C 8.6475 -6.10113 1.3969 0
M  V30 99 H 8.8805 -2.62725 1.3915 0
M  V30 100 H 6.4135 -1.30481 0.825479 0
M  V30 101 H 8.3715 -4.05196 -0.657738 0
M  V30 102 H 7.0325 -2.956 -1.06205 0
M  V30 103 H 6.2255 -5.03918 0.091108 0
M  V30 104 H 5.8275 -3.59115 1.04463 0
M  V30 105 H 8.1195 -6.7411 0.676897 0
M  V30 106 H 9.0625 -6.73022 2.20107 0
M  V30 107 H 9.4705 -5.57283 0.899786 0
M  V30 108 N 8.8686 -0.792821 -1.36206 0
M  V30 109 C 9.8166 -0.181555 -2.3189 0
M  V30 110 C 10.8106 0.661025 -1.55971 0
M  V30 111 O 12.0166 0.555728 -1.71206 0
M  V30 112 H 8.3916 -0.0399382 -0.750939 0
M  V30 113 H 10.3626 -1.00394 -2.81005 0
M  V30 114 C 9.1116 0.666444 -3.41253 0
M  V30 115 H 8.4346 0.0274489 -3.99791 0
M  V30 116 H 9.8746 1.06076 -4.10517 0
M  V30 117 C 8.3336 1.82614 -2.83114 0
M  V30 118 O 8.8636 2.9229 -2.75553 0
M  V30 119 N 7.0696 1.63333 -2.40356 0
M  V30 120 H 6.6166 0.741217 -2.46706 0
M  V30 121 H 6.5746 2.41087 -2.01803 0
M  V30 122 N 10.3467 1.47872 -0.545128 0
M  V30 123 C 11.7577 1.86384 -0.108581 0
M  V30 124 C 12.1087 1.45309 1.31832 0
M  V30 125 O 11.2337 0.850641 1.9898 0
M  V30 126 C 11.8287 3.38265 -0.190274 0
M  V30 127 C 10.3877 3.75914 0.191164 0
M  V30 128 C 9.5347 2.71926 -0.543273 0
M  V30 129 H 12.4857 1.39561 -0.755537 0
M  V30 130 H 12.5067 3.75831 0.594217 0
M  V30 131 H 12.0187 3.6813 -1.2289 0
M  V30 132 H 10.1197 3.51665 1.23136 0
M  V30 133 H 10.2327 4.78836 -0.158987 0
M  V30 134 H 8.5967 2.54697 0.0122495 0
M  V30 135 H 9.3797 3.04634 -1.58282 0
M  V30 136 N 11.8248 0.280983 1.55075 0
M  V30 137 C 12.7568 -0.637268 2.20163 0
M  V30 138 C 13.7698 -1.11298 1.18813 0
M  V30 139 O 14.9588 -1.03388 1.4551 0
M  V30 140 C 12.0588 -1.88199 2.81841 0
M  V30 141 C 11.2318 -1.55211 4.08936 0
M  V30 142 C 10.2908 -2.64991 4.54606 0
M  V30 143 O 9.3168 -2.30929 5.2025 0
M  V30 144 N 10.5188 -3.95161 4.25238 0
M  V30 145 H 13.2838 -0.0801694 2.99593 0
M  V30 146 H 10.8448 0.102329 1.61576 0
M  V30 147 H 12.8368 -2.60948 3.09335 0
M  V30 148 H 11.4068 -2.34799 2.06369 0
M  V30 149 H 10.6268 -0.658185 3.88666 0
M  V30 150 H 11.9148 -1.30681 4.91732 0
M  V30 151 H 11.3128 -4.25653 3.72607 0
M  V30 152 H 9.8698 -4.6427 4.5749 0
M  V30 153 N 13.3029 -1.57598 0.00835791 0
M  V30 154 C 14.5489 -1.91211 -0.675732 0
M  V30 155 C 14.8819 -0.883139 -1.72958 0
M  V30 156 O 14.1569 0.097016 -1.94258 0
M  V30 157 C 14.4399 -3.35379 -1.31123 0
M  V30 158 C 14.2929 -4.48999 -0.268356 0
M  V30 159 C 15.6119 -3.7912 -2.23508 0
M  V30 160 H 12.7309 -0.695374 -0.244179 0
M  V30 161 H 15.3729 -1.89901 0.0613655 0
M  V30 162 H 13.5229 -3.36626 -1.93946 0
M  V30 163 H 15.1949 -4.59887 0.360844 0
M  V30 164 H 13.4379 -4.31873 0.408482 0
M  V30 165 H 14.1089 -5.46851 -0.752218 0
M  V30 166 H 16.5849 -3.79477 -1.70693 0
M  V30 167 H 15.4609 -4.80729 -2.64936 0
M  V30 168 H 15.7219 -3.13455 -3.11766 0
M  V30 169 N 14.781 0.264519 -1.55364 0
M  V30 170 C 15.713 1.34965 -1.85248 0
M  V30 171 C 16.726 1.45136 -0.737525 0
M  V30 172 O 17.915 1.46801 -1.01547 0
M  V30 173 C 15.015 2.73008 -2.00797 0
M  V30 174 C 14.188 2.85324 -3.31525 0
M  V30 175 C 13.247 4.04097 -3.37034 0
M  V30 176 O 12.273 3.94455 -4.10358 0
M  V30 177 N 13.475 5.16458 -2.65049 0
M  V30 178 H 16.24 1.09672 -2.78913 0
M  V30 179 H 13.801 0.454635 -1.55386 0
M  V30 180 H 15.793 3.50772 -2.01844 0
M  V30 181 H 14.363 2.91087 -1.1396 0
M  V30 182 H 13.583 1.94377 -3.42945 0
M  V30 183 H 14.871 2.9049 -4.17724 0
M  V30 184 H 14.269 5.27181 -2.05175 0
M  V30 185 H 12.826 5.92422 -2.71809 0
M  V30 186 N 16.2591 1.48442 0.529413 0
M  V30 187 C 17.6701 1.5002 1.11134 0
M  V30 188 C 18.0211 0.27031 1.94329 0
M  V30 189 O 17.1461 -0.622507 2.07253 0
M  V30 190 C 17.7411 2.71834 2.02217 0
M  V30 191 C 16.3001 2.76283 2.55627 0
M  V30 192 C 15.4471 2.43542 1.326 0
M  V30 193 H 18.3981 1.5555 0.314641 0
M  V30 194 H 18.4191 2.50384 2.8651 0
M  V30 195 H 17.9311 3.61331 1.41639 0
M  V30 196 H 16.0321 1.90995 3.19924 0
M  V30 197 H 16.1451 3.77725 2.94721 0
M  V30 198 H 14.5091 1.94709 1.64196 0
M  V30 199 H 15.2921 3.3528 0.737734 0
M  V30 200 N 17.7372 -0.778329 1.37039 0
M  V30 201 C 18.6472 -1.92253 1.34446 0
M  V30 202 C 19.6632 -1.72267 0.244991 0
M  V30 203 O 20.8392 -1.95615 0.479258 0
M  V30 204 C 17.9042 -3.27282 1.144 0
M  V30 205 C 16.9652 -3.59969 2.33925 0
M  V30 206 C 16.1982 -4.88555 2.14825 0
M  V30 207 O 16.4212 -5.59113 1.12912 0
M  V30 208 O 15.3552 -5.20153 3.02861 0
M  V30 209 H 19.1812 -1.97392 2.30803 0
M  V30 210 H 16.7662 -0.920154 1.17701 0
M  V30 211 H 18.6482 -4.08062 1.05182 0
M  V30 212 H 17.3232 -3.23011 0.211124 0
M  V30 213 H 16.2302 -2.7945 2.48714 0
M  V30 214 H 17.5632 -3.68976 3.25757 0
M  V30 215 N 19.2153 -1.21501 -1.00376 0
M  V30 216 C 20.1633 -0.972442 -2.11297 0
M  V30 217 C 21.1573 0.080731 -1.69208 0
M  V30 218 O 22.3633 -0.0707666 -1.79861 0
M  V30 219 H 18.7383 -0.297218 -0.690772 0
M  V30 220 H 20.7093 -1.91394 -2.28934 0
M  V30 221 C 19.4583 -0.555065 -3.43241 0
M  V30 222 H 18.7813 -1.35709 -3.76062 0
M  V30 223 H 20.2213 -0.424664 -4.21868 0
M  V30 224 C 18.6803 0.734147 -3.28804 0
M  V30 225 O 19.2103 1.78937 -3.59645 0
M  V30 226 N 17.4163 0.701133 -2.82015 0
M  V30 227 H 16.9633 -0.157874 -2.57116 0
M  V30 228 H 16.9213 1.56403 -2.72737 0
M  V30 229 N 20.6934 1.19889 -1.02296 0
M  V30 230 C 21.6414 2.24938 -0.592081 0
M  V30 231 C 22.6354 1.65257 0.372357 0
M  V30 232 O 23.8414 1.78371 0.241583 0
M  V30 233 H 20.2164 0.731787 -0.173182 0
M  V30 234 H 22.1874 2.58603 -1.48885 0
M  V30 235 C 20.9364 3.47668 0.047351 0
M  V30 236 H 20.2594 3.93875 -0.685772 0
M  V30 237 H 21.6994 4.22852 0.311862 0
M  V30 238 C 20.1584 3.11136 1.29212 0
M  V30 239 O 20.6884 3.2325 2.38479 0
M  V30 240 N 18.8944 2.65625 1.17863 0
M  V30 241 H 18.4414 2.55968 0.289493 0
M  V30 242 H 18.3994 2.41553 2.01245 0
M  V30 243 N 22.1715 0.800033 1.35784 0
M  V30 244 C 23.4195 0.376597 1.9856 0
M  V30 245 C 23.7405 -1.05812 1.63795 0
M  V30 246 O 23.0105 -1.73103 0.917171 0
M  V30 247 H 21.5905 0.136261 0.734467 0
M  V30 248 H 24.2525 1.02442 1.65806 0
M  V30 249 H 23.3485 0.477002 3.08433 0
M  V30 250 N 23.6496 -1.47581 0.552962 0
M  V30 251 C 24.6126 -2.28439 -0.186605 0
M  V30 252 C 25.6126 -1.36706 -0.84665 0
M  V30 253 O 26.8026 -1.59378 -0.703164 0
M  V30 254 C 23.9346 -3.16264 -1.2724 0
M  V30 255 H 25.1276 -2.95294 0.523609 0
M  V30 256 H 22.6806 -1.532 0.309745 0
M  V30 257 H 23.4156 -2.54091 -2.01514 0
M  V30 258 H 23.2006 -3.83769 -0.803968 0
M  V30 259 H 24.6906 -3.77198 -1.79196 0
M  V30 260 N 25.1277 -0.289203 -1.54924 0
M  V30 261 C 26.4047 0.376032 -1.91951 0
M  V30 262 C 26.7847 1.72622 -1.21511 0
M  V30 263 O 26.1327 2.25853 -0.346767 0
M  V30 264 C 26.3427 0.502378 -3.45365 0
M  V30 265 C 27.6907 0.778741 -4.17398 0
M  V30 266 O 28.7147 0.586647 -3.51336 0
M  V30 267 O 27.5737 1.14698 -5.34328 0
M  V30 268 H 24.6677 0.208167 -0.800372 0
M  V30 269 H 27.2137 -0.336394 -1.66332 0
M  V30 270 H 25.9857 -0.447255 -3.88736 0
M  V30 271 H 25.6087 1.26373 -3.76982 0
M  V30 272 N 26.6058 1.57591 -0.0167156 0
M  V30 273 C 27.8338 1.95575 0.675128 0
M  V30 274 C 28.2488 0.892542 1.6637 0
M  V30 275 O 27.6058 -0.126912 1.82058 0
M  V30 276 C 27.6568 3.33608 1.39239 0
M  V30 277 O 27.3778 4.3585 0.443444 0
M  V30 278 C 28.8788 3.86151 2.17721 0
M  V30 279 H 26.0988 0.644423 0.186978 0
M  V30 280 H 28.6428 2.0437 -0.0728 0
M  V30 281 H 26.7978 3.2607 2.09182 0
M  V30 282 H 27.2118 5.158 0.951358 0
M  V30 283 H 28.6858 4.85114 2.63379 0
M  V30 284 H 29.1628 3.19738 3.01105 0
M  V30 285 H 29.7688 3.96918 1.52761 0
M  V30 286 N 28.0839 -0.256276 1.55502 0
M  V30 287 C 29.3319 -0.983672 1.76545 0
M  V30 288 C 29.6529 -1.86206 0.578982 0
M  V30 289 O 28.9229 -1.91656 -0.405577 0
M  V30 290 H 27.5029 -0.366191 0.651086 0
M  V30 291 H 30.1649 -0.276479 1.92929 0
M  V30 292 H 29.2609 -1.61087 2.67315 0
M  V30 293 N 29.562 -1.4872 -0.521534 0
M  V30 294 C 30.973 -1.50607 -1.10337 0
M  V30 295 C 31.324 -0.280612 -1.94183 0
M  V30 296 O 30.449 0.611507 -2.0758 0
M  V30 297 C 31.044 -2.72903 -2.00772 0
M  V30 298 C 29.603 -2.77634 -2.54158 0
M  V30 299 C 28.75 -2.44241 -1.31307 0
M  V30 300 H 31.701 -1.55714 -0.306388 0
M  V30 301 H 31.722 -2.519 -2.85178 0
M  V30 302 H 31.234 -3.62077 -1.39721 0
M  V30 303 H 29.335 -1.92689 -3.18907 0
M  V30 304 H 29.448 -3.79283 -2.92714 0
M  V30 305 H 27.812 -1.95577 -1.63161 0
M  V30 306 H 28.595 -3.35666 -0.719943 0
M  V30 307 N 31.0401 0.771051 -1.3745 0
M  V30 308 C 31.9501 1.91538 -1.35464 0
M  V30 309 C 32.9661 1.72134 -0.254123 0
M  V30 310 O 34.1421 1.95358 -0.489626 0
M  V30 311 C 31.2071 3.26671 -1.16134 0
M  V30 312 C 30.2681 3.58723 -2.35831 0
M  V30 313 C 29.5011 4.87409 -2.17413 0
M  V30 314 O 29.7241 5.58506 -1.15876 0
M  V30 315 O 28.6581 5.18539 -3.05615 0
M  V30 316 H 32.4841 1.96165 -2.31847 0
M  V30 317 H 30.0691 0.9139 -1.18187 0
M  V30 318 H 31.9511 4.07499 -1.07345 0
M  V30 319 H 30.6261 3.22894 -0.228251 0
M  V30 320 H 29.5331 2.78127 -2.50192 0
M  V30 321 H 30.8661 3.67243 -3.27709 0
M  V30 322 N 32.5182 1.22032 0.997298 0
M  V30 323 C 33.4502 0.944263 2.08845 0
M  V30 324 C 34.4632 -0.0754663 1.62625 0
M  V30 325 O 35.6522 0.157994 1.77799 0
M  V30 326 C 32.7522 0.397723 3.36558 0
M  V30 327 C 31.9252 1.47362 4.11829 0
M  V30 328 C 30.9842 0.934951 5.17827 0
M  V30 329 O 30.0102 1.62016 5.45655 0
M  V30 330 N 31.2122 -0.245895 5.79979 0
M  V30 331 H 33.9772 1.88363 2.33109 0
M  V30 332 H 31.5382 1.12661 1.16272 0
M  V30 333 H 33.5302 0.0227771 4.04694 0
M  V30 334 H 32.1002 -0.446646 3.09393 0
M  V30 335 H 31.3202 2.02208 3.38386 0
M  V30 336 H 32.6082 2.19764 4.58891 0
M  V30 337 H 32.0062 -0.819475 5.59733 0
M  V30 338 H 30.5632 -0.562272 6.4937 0
M  V30 339 N 33.9963 -1.19345 1.0293 0
M  V30 340 C 35.4073 -1.70725 0.755633 0
M  V30 341 C 35.7583 -1.82326 -0.724676 0
M  V30 342 O 34.8833 -1.49471 -1.56484 0
M  V30 343 C 35.4783 -3.10084 1.36503 0
M  V30 344 C 34.0373 -3.58723 1.13994 0
M  V30 345 C 33.1843 -2.35577 1.46283 0
M  V30 346 H 36.1353 -1.0418 1.19718 0
M  V30 347 H 36.1563 -3.72787 0.762217 0
M  V30 348 H 35.6683 -3.01609 2.44241 0
M  V30 349 H 33.7693 -3.72512 0.0807901 0
M  V30 350 H 33.8823 -4.42816 1.82894 0
M  V30 351 H 32.2463 -2.38935 0.88217 0
M  V30 352 H 33.0293 -2.29731 2.55105 0
M  V30 353 N 35.4744 -0.807222 -1.35358 0
M  V30 354 C 36.4044 -0.232509 -2.3234 0
M  V30 355 C 37.3854 0.642386 -1.57504 0
M  V30 356 O 38.5704 0.572526 -1.85569 0
M  V30 357 C 35.7004 0.619238 -3.41735 0
M  V30 358 C 34.6544 -0.157215 -4.27711 0
M  V30 359 C 33.9804 0.816273 -5.28433 0
M  V30 360 C 35.2804 -1.35656 -5.04376 0
M  V30 361 H 36.9744 -1.04276 -2.80654 0
M  V30 362 H 34.5204 -0.50288 -1.34934 0
M  V30 363 H 36.4734 1.03137 -4.08584 0
M  V30 364 H 35.1974 1.46239 -2.92031 0
M  V30 365 H 33.8564 -0.550525 -3.62443 0
M  V30 366 H 33.5044 1.65494 -4.74996 0
M  V30 367 H 33.2044 0.301067 -5.86828 0
M  V30 368 H 34.7284 1.22659 -5.98153 0
M  V30 369 H 36.1424 -1.01927 -5.64166 0
M  V30 370 H 34.5394 -1.8063 -5.7227 0
M  V30 371 H 35.6094 -2.14288 -4.34981 0
M  V30 372 N 36.9525 1.47285 -0.560781 0
M  V30 373 C 38.3685 1.58065 -0.22081 0
M  V30 374 C 38.5685 1.55892 1.27671 0
M  V30 375 O 37.6245 1.46422 2.0571 0
M  V30 376 C 38.9375 2.88418 -0.850625 0
M  V30 377 C 40.4855 3.02009 -0.822184 0
M  V30 378 C 40.9605 4.35066 -1.43113 0
M  V30 379 N 42.4515 4.41711 -1.39448 0
M  V30 380 C 43.1865 5.43237 -1.83525 0
M  V30 381 N 42.6825 6.51555 -2.35474 0
M  V30 382 N 44.4755 5.34304 -1.74574 0
M  V30 383 H 36.6265 1.46941 -1.53369 0
M  V30 384 H 38.8895 0.699558 -0.639783 0
M  V30 385 H 38.5955 2.95755 -1.9032 0
M  V30 386 H 38.4695 3.75612 -0.345773 0
M  V30 387 H 40.8565 2.94266 0.221714 0
M  V30 388 H 40.9375 2.16347 -1.36483 0
M  V30 389 H 40.5815 4.43565 -2.47412 0
M  V30 390 H 40.5115 5.19465 -0.863899 0
M  V30 391 H 43.0025 3.64027 -1.01452 0
M  V30 392 H 43.3155 7.25203 -2.67021 0
M  V30 393 H 41.6605 6.52435 -2.39487 0
M  V30 394 H 44.8515 4.48581 -1.33763 0
M  V30 395 H 45.0245 6.13288 -2.09242 0
M  V30 396 N 38.4306 0.297415 1.54768 0
M  V30 397 C 39.3936 -0.567375 2.22066 0
M  V30 398 C 40.3936 -1.06409 1.20556 0
M  V30 399 O 41.5836 -0.960691 1.45315 0
M  V30 400 C 38.7156 -1.78517 2.90421 0
M  V30 401 H 39.9086 0.0205534 2.99893 0
M  V30 402 H 37.4616 0.0482163 1.56226 0
M  V30 403 H 38.1966 -2.41303 2.16664 0
M  V30 404 H 37.9816 -1.43669 3.64831 0
M  V30 405 H 39.4716 -2.39964 3.41771 0
M  V30 406 N 39.9087 -1.5758 0.0250728 0
M  V30 407 C 41.3247 -1.56124 -0.331282 0
M  V30 408 C 41.5247 -1.03029 -1.73169 0
M  V30 409 O 40.5807 -0.675215 -2.43305 0
M  V30 410 C 41.8937 -3.00139 -0.183584 0
M  V30 411 C 43.4417 -3.11946 -0.256654 0
M  V30 412 C 43.9167 -4.57793 -0.137792 0
M  V30 413 N 45.4077 -4.6279 -0.194904 0
M  V30 414 C 46.1427 -5.7326 -0.126655 0
M  V30 415 N 45.6387 -6.928 -0.00755288 0
M  V30 416 N 47.4317 -5.61811 -0.180348 0
M  V30 417 H 39.5827 -1.90424 0.94087 0
M  V30 418 H 41.8457 -0.875761 0.362968 0
M  V30 419 H 41.5517 -3.4292 0.780927 0
M  V30 420 H 41.4257 -3.64899 -0.955448 0
M  V30 421 H 43.8127 -2.69079 -1.21162 0
M  V30 422 H 43.8937 -2.49915 0.545517 0
M  V30 423 H 43.5377 -5.01339 0.813739 0
M  V30 424 H 43.4677 -5.17798 -0.958775 0
M  V30 425 H 45.9587 -3.76807 -0.287267 0
M  V30 426 H 46.2717 -7.72791 0.0379428 0
M  V30 427 H 44.6167 -6.94995 0.0271731 0
M  V30 428 H 47.8077 -4.6731 -0.271767 0
M  V30 429 H 47.9807 -6.47882 -0.123697 0
M  V30 430 N 41.3868 0.248026 -1.55636 0
M  V30 431 C 42.3338 1.30707 -1.90222 0
M  V30 432 C 43.3038 1.47881 -0.756332 0
M  V30 433 O 44.4888 1.61883 -1.00988 0
M  V30 434 C 41.6288 2.65769 -2.20138 0
M  V30 435 C 40.7418 2.56612 -3.47526 0
M  V30 436 C 39.8768 3.8402 -3.67017 0
M  V30 437 C 38.9158 3.69476 -4.8801 0
M  V30 438 N 38.0528 4.88774 -5.04029 0
M  V30 439 H 42.8928 1.00512 -2.80538 0
M  V30 440 H 40.4298 0.485055 -1.38873 0
M  V30 441 H 42.3878 3.44386 -2.35487 0
M  V30 442 H 41.0178 2.94115 -1.33027 0
M  V30 443 H 40.0698 1.69571 -3.40514 0
M  V30 444 H 41.3818 2.41774 -4.36287 0
M  V30 445 H 40.5358 4.7108 -3.8232 0
M  V30 446 H 39.2748 4.01754 -2.76487 0
M  V30 447 H 38.2798 2.80799 -4.72686 0
M  V30 448 H 39.5048 3.53238 -5.8 0
M  V30 449 H 37.4508 5.0687 -4.16435 0
M  V30 450 H 37.3678 4.76562 -5.86877 0
M  V30 451 H 38.6358 5.77335 -5.23741 0
M  V30 452 N 42.8649 1.48995 0.513639 0
M  V30 453 C 44.0929 1.61531 1.29288 0
M  V30 454 C 44.5079 0.281801 1.86685 0
M  V30 455 O 43.8649 -0.731111 1.67215 0
M  V30 456 C 43.9159 2.67449 2.43215 0
M  V30 457 O 43.6369 3.95626 1.88179 0
M  V30 458 C 45.1379 2.90575 3.34785 0
M  V30 459 H 42.3579 0.544165 0.392588 0
M  V30 460 H 44.9019 1.9494 0.617956 0
M  V30 461 H 43.0569 2.36853 3.0656 0
M  V30 462 H 43.4709 4.53868 2.62876 0
M  V30 463 H 44.9449 3.68449 4.11035 0
M  V30 464 H 45.4219 2.00011 3.91015 0
M  V30 465 H 46.0279 3.22538 2.77218 0
M  V30 466 N 44.343 -0.763751 1.37857 0
M  V30 467 C 45.306 -1.85889 1.34081 0
M  V30 468 C 46.306 -1.58949 0.243277 0
M  V30 469 O 47.496 -1.66882 0.499589 0
M  V30 470 C 44.628 -3.23176 1.08489 0
M  V30 471 H 45.821 -1.90648 2.31502 0
M  V30 472 H 43.374 -0.964367 1.23003 0
M  V30 473 H 44.109 -3.24091 0.116318 0
M  V30 474 H 43.894 -3.44124 1.8794 0
M  V30 475 H 45.384 -4.03254 1.08517 0
M  V30 476 N 45.8211 -1.22559 -0.990812 0
M  V30 477 C 46.7311 -1.01394 -2.11557 0
M  V30 478 C 47.7471 0.0383962 -1.73958 0
M  V30 479 O 48.9231 -0.154787 -2.00804 0
M  V30 480 C 45.9881 -0.596569 -3.41529 0
M  V30 481 C 45.0491 -1.72276 -3.93217 0
M  V30 482 C 44.2821 -1.32521 -5.16985 0
M  V30 483 O 44.5051 -0.204909 -5.70032 0
M  V30 484 O 43.4391 -2.14247 -5.62478 0
M  V30 485 H 47.2651 -1.95633 -2.32296 0
M  V30 486 H 44.8501 -1.01172 -1.0993 0
M  V30 487 H 46.7321 -0.374263 -4.19735 0
M  V30 488 H 45.4071 0.316939 -3.22145 0
M  V30 489 H 44.3141 -1.99961 -3.16174 0
M  V30 490 H 45.6471 -2.61421 -4.17037 0
M  V30 491 N 47.2992 1.18797 -1.03562 0
M  V30 492 C 48.2292 2.24472 -0.643019 0
M  V30 493 C 49.2102 1.66433 0.351283 0
M  V30 494 O 50.3952 1.92803 0.232505 0
M  V30 495 C 47.5252 3.473 4.24935e-05 0
M  V30 496 C 46.4792 4.18055 -0.917257 0
M  V30 497 C 45.8052 5.34519 -0.138941 0
M  V30 498 C 47.1052 4.72109 -2.23407 0
M  V30 499 H 48.7992 2.57566 -1.52643 0
M  V30 500 H 46.3452 1.23806 -0.735394 0
M  V30 501 H 48.2982 4.20426 0.286383 0
M  V30 502 H 47.0222 3.13424 0.918299 0
M  V30 503 H 45.6812 3.46821 -1.1879 0
M  V30 504 H 45.3292 4.96891 0.781562 0
M  V30 505 H 45.0292 5.82794 -0.750005 0
M  V30 506 H 46.5532 6.10438 0.1405 0
M  V30 507 H 47.9672 5.36955 -2.00879 0
M  V30 508 H 46.3642 5.30897 -2.79765 0
M  V30 509 H 47.4342 3.89807 -2.88407 0
M  V30 510 N 48.7773 0.814389 1.34928 0
M  V30 511 C 49.7073 0.244827 2.32213 0
M  V30 512 C 50.6883 -0.634024 1.57842 0
M  V30 513 O 51.8733 -0.562676 1.8587 0
M  V30 514 C 49.0033 -0.601106 3.42058 0
M  V30 515 C 47.9573 0.179896 4.27622 0
M  V30 516 C 47.2833 -0.788237 5.28858 0
M  V30 517 C 48.5833 1.38329 5.03649 0
M  V30 518 H 50.2773 1.05763 2.80097 0
M  V30 519 H 47.8233 0.510029 1.34665 0
M  V30 520 H 49.7763 -1.00968 4.09125 0
M  V30 521 H 48.5003 -1.44688 2.92802 0
M  V30 522 H 47.1593 0.569739 3.62146 0
M  V30 523 H 46.8073 -1.62973 4.75866 0
M  V30 524 H 46.5073 -0.269942 5.8698 0
M  V30 525 H 48.0313 -1.19485 5.98795 0
M  V30 526 H 49.4453 1.04918 5.63618 0
M  V30 527 H 47.8423 1.83662 5.71304 0
M  V30 528 H 48.9123 2.16592 4.33839 0
M  V30 529 N 50.2554 -1.46986 0.568584 0
M  V30 530 C 51.5014 -2.02741 0.0488709 0
M  V30 531 C 51.8344 -1.44077 -1.30214 0
M  V30 532 O 51.1094 -0.600552 -1.84996 0
M  V30 533 C 51.3924 -3.60086 -0.032047 0
M  V30 534 C 51.2454 -4.29162 1.34686 0
M  V30 535 C 52.5644 -4.33838 -0.739798 0
M  V30 536 H 49.6834 -0.736749 0.0192338 0
M  V30 537 H 52.3254 -1.75289 0.733065 0
M  V30 538 H 50.4754 -3.83606 -0.61473 0
M  V30 539 H 52.1474 -4.16948 1.97362 0
M  V30 540 H 50.3904 -3.89073 1.91846 0
M  V30 541 H 51.0614 -5.37826 1.24285 0
M  V30 542 H 53.5374 -4.15378 -0.244939 0
M  V30 543 H 52.4134 -5.43537 -0.765406 0
M  V30 544 H 52.6744 -4.03875 -1.79827 0
M  V30 545 N 51.7335 -0.305618 -1.54608 0
M  V30 546 C 52.9795 0.302746 -2.00528 0
M  V30 547 C 53.3125 1.53184 -1.19367 0
M  V30 548 O 52.5875 1.92598 -0.271321 0
M  V30 549 C 52.8705 0.654756 -3.54097 0
M  V30 550 C 52.7235 -0.583793 -4.45995 0
M  V30 551 C 54.0425 1.47947 -4.14487 0
M  V30 552 H 51.1615 0.108564 -0.72896 0
M  V30 553 H 53.8035 -0.418634 -1.85331 0
M  V30 554 H 51.9535 1.26935 -3.67178 0
M  V30 555 H 53.6255 -1.22224 -4.44814 0
M  V30 556 H 51.8685 -1.21615 -4.16404 0
M  V30 557 H 52.5395 -0.293287 -5.5122 0
M  V30 558 H 55.0155 0.96013 -4.04871 0
M  V30 559 H 53.8915 1.69454 -5.22088 0
M  V30 560 H 54.1525 2.47011 -3.66658 0
M  V30 561 N 53.2116 1.57565 -0.0334293 0
M  V30 562 C 54.1586 2.10478 0.946981 0
M  V30 563 C 55.1286 1.00787 1.32027 0
M  V30 564 O 56.3136 1.28232 1.41284 0
M  V30 565 C 53.4536 2.63994 2.22263 0
M  V30 566 C 52.5666 3.87709 1.90541 0
M  V30 567 C 51.7016 4.29604 3.12433 0
M  V30 568 C 50.7406 5.46065 2.76549 0
M  V30 569 N 49.8776 5.83096 3.9108 0
M  V30 570 H 54.7176 2.93963 0.488846 0
M  V30 571 H 52.2546 1.45296 0.22969 0
M  V30 572 H 54.2126 2.93114 2.96884 0
M  V30 573 H 52.8426 1.83333 2.65685 0
M  V30 574 H 51.8946 3.65291 1.06144 0
M  V30 575 H 53.2066 4.72403 1.60116 0
M  V30 576 H 52.3606 4.60182 3.9537 0
M  V30 577 H 51.0996 3.43685 3.46023 0
M  V30 578 H 50.1046 5.15176 1.92026 0
M  V30 579 H 51.3296 6.33685 2.44171 0
M  V30 580 H 49.2756 5.00132 4.24504 0
M  V30 581 H 49.1926 6.6244 3.64293 0
M  V30 582 H 50.4606 6.18282 4.74708 0
M  V30 583 N 54.6897 -0.239769 1.55765 0
M  V30 584 C 55.5997 -1.31831 1.94056 0
M  V30 585 C 56.6157 -1.52275 0.841925 0
M  V30 586 O 57.7917 -1.65759 1.14394 0
M  V30 587 C 54.8567 -2.65156 2.23368 0
M  V30 588 C 53.9177 -2.53173 3.46701 0
M  V30 589 C 53.1507 -3.8014 3.74606 0
M  V30 590 O 53.3737 -4.82343 3.04469 0
M  V30 591 O 52.3077 -3.78344 4.68123 0
M  V30 592 H 56.1337 -1.02347 2.85935 0
M  V30 593 H 53.7187 -0.441123 1.42739 0
M  V30 594 H 55.6007 -3.43929 2.43497 0
M  V30 595 H 54.2757 -2.94358 1.34666 0
M  V30 596 H 53.1827 -1.72662 3.31871 0
M  V30 597 H 54.5157 -2.28915 4.35728 0
M  V30 598 N 56.1678 -1.49265 -0.50573 0
M  V30 599 C 57.5838 -1.35923 -0.836486 0
M  V30 600 C 57.7838 -0.388704 -1.97715 0
M  V30 601 O 56.8398 0.181336 -2.51848 0
M  V30 602 C 58.1528 -2.76531 -1.18115 0
M  V30 603 C 59.7008 -2.85197 -1.28964 0
M  V30 604 C 60.1758 -4.26561 -1.66761 0
M  V30 605 N 61.6668 -4.2935 -1.73819 0
M  V30 606 C 62.4018 -5.35693 -2.045 0
M  V30 607 N 61.8978 -6.52287 -2.33438 0
M  V30 608 N 63.6908 -5.23105 -2.05711 0
M  V30 609 H 55.8418 -2.10965 0.246519 0
M  V30 610 H 58.1048 -0.9468 0.0476887 0
M  V30 611 H 57.8108 -3.49226 -0.416398 0
M  V30 612 H 57.6848 -3.11599 -2.1257 0
M  V30 613 H 60.0718 -2.12742 -2.04511 0
M  V30 614 H 60.1528 -2.53718 -0.325704 0
M  V30 615 H 59.7968 -4.99541 -0.917656 0
M  V30 616 H 59.7268 -4.55502 -2.64246 0
M  V30 617 H 62.2178 -3.4526 -1.53635 0
M  V30 618 H 62.5308 -7.29158 -2.56024 0
M  V30 619 H 60.8758 -6.55521 -2.30905 0
M  V30 620 H 64.0668 -4.31026 -1.82577 0
M  V30 621 H 64.2398 -6.06078 -2.29289 0
M  V30 622 N 57.6459 0.756429 -1.3826 0
M  V30 623 C 58.5939 1.89149 -1.35372 0
M  V30 624 C 59.5879 1.67691 -0.24004 0
M  V30 625 O 60.7939 1.75294 -0.408919 0
M  V30 626 H 57.1689 0.622271 -0.422236 0
M  V30 627 H 59.1399 1.88701 -2.31159 0
M  V30 628 C 57.8889 3.26599 -1.19284 0
M  V30 629 H 57.2119 3.43695 -2.0424 0
M  V30 630 H 58.6519 4.06274 -1.21316 0
M  V30 631 C 57.1109 3.3675 0.100454 0
M  V30 632 O 57.6409 3.86951 1.07851 0
M  V30 633 N 55.8469 2.90179 0.15633 0
M  V30 634 H 55.3939 2.49517 -0.640253 0
M  V30 635 H 55.3519 2.97352 1.02123 0
M  V30 636 N 59.124 1.23083 0.984299 0
M  V30 637 C 60.372 1.05848 1.72165 0
M  V30 638 C 60.693 -0.406049 1.90726 0
M  V30 639 O 59.963 -1.29139 1.47309 0
M  V30 640 H 58.543 0.388685 0.637913 0
M  V30 641 H 61.205 1.54736 1.18503 0
M  V30 642 H 60.301 1.54327 2.71274 0
M  V30 643 N 60.6021 -1.18246 1.0419 0
M  V30 644 C 61.8481 -1.88536 0.747122 0
M  V30 645 C 62.1811 -1.80223 -0.723409 0
M  V30 646 O 61.4561 -1.20337 -1.52804 0
M  V30 647 C 61.7391 -3.38968 1.21544 0
M  V30 648 C 61.5921 -3.56084 2.74816 0
M  V30 649 C 62.9111 -4.32648 0.806482 0
M  V30 650 H 60.0301 -0.684619 0.272883 0
M  V30 651 H 62.6721 -1.39113 1.29413 0
M  V30 652 H 60.8221 -3.8119 0.750081 0
M  V30 653 H 62.4941 -3.22946 3.29399 0
M  V30 654 H 60.7371 -2.98699 3.14582 0
M  V30 655 H 61.4081 -4.61639 3.02644 0
M  V30 656 H 63.8841 -3.98211 1.20695 0
M  V30 657 H 62.7601 -5.36462 1.1619 0
M  V30 658 H 63.0211 -4.41146 -0.29029 0
M  V30 659 N 62.0802 -0.821533 -1.34494 0
M  V30 660 C 63.0122 -0.199946 -2.28326 0
M  V30 661 C 64.0252 0.609377 -1.50965 0
M  V30 662 O 65.2142 0.439285 -1.7301 0
M  V30 663 C 62.3142 0.738431 -3.30757 0
M  V30 664 C 61.4872 -0.0277632 -4.37391 0
M  V30 665 C 60.5462 0.831332 -5.19591 0
M  V30 666 O 59.5722 0.276822 -5.68526 0
M  V30 667 N 60.7742 2.15132 -5.39165 0
M  V30 668 H 63.5392 -1.00609 -2.82308 0
M  V30 669 H 61.1002 -0.678366 -1.47003 0
M  V30 670 H 63.0922 1.31773 -3.82646 0
M  V30 671 H 61.6622 1.44533 -2.7718 0
M  V30 672 H 60.8822 -0.788359 -3.86236 0
M  V30 673 H 62.1702 -0.555251 -5.05761 0
M  V30 674 H 61.5682 2.62559 -5.01078 0
M  V30 675 H 60.1252 2.6795 -5.94177 0
M  V30 676 N 63.5583 1.46682 -0.576371 0
M  V30 677 C 64.7983 2.04306 -0.0621356 0
M  V30 678 C 65.1623 1.4389 1.2712 0
M  V30 679 O 66.3633 1.92675 1.87429 0
M  V30 680 C 64.6343 3.57399 0.00927922 0
M  V30 681 S 66.1933 4.36309 0.466859 0
M  V30 682 H 63.0113 0.710167 -0.0344016 0
M  V30 683 H 65.6133 1.79807 -0.767437 0
M  V30 684 H 64.3173 3.98889 -0.965178 0
M  V30 685 H 63.8483 3.86424 0.737547 0
M  V30 686 H 65.8633 4.6533 1.72287 0
M  V30 687 N 65.0364 0.313813 1.54444 0
M  V30 688 C 65.9664 -0.549454 2.26943 0
M  V30 689 C 66.9474 -1.12741 1.27372 0
M  V30 690 O 68.1324 -1.15436 1.56167 0
M  V30 691 C 65.2624 -1.71523 3.01989 0
M  V30 692 C 64.2164 -1.26703 4.08816 0
M  V30 693 C 63.5424 -2.51898 4.71647 0
M  V30 694 C 64.8424 -0.388962 5.2085 0
M  V30 695 H 66.5364 0.0552661 2.99349 0
M  V30 696 H 64.0824 0.0280207 1.43973 0
M  V30 697 H 66.0354 -2.32535 3.51433 0
M  V30 698 H 64.7594 -2.34639 2.27183 0
M  V30 699 H 63.4184 -0.679896 3.6024 0
M  V30 700 H 63.0664 -3.13356 3.93468 0
M  V30 701 H 62.7664 -2.22605 5.43802 0
M  V30 702 H 64.2904 -3.1369 5.23861 0
M  V30 703 H 65.7044 -0.905107 5.6611 0
M  V30 704 H 64.1014 -0.18924 5.99802 0
M  V30 705 H 65.1714 0.582699 4.81386 0
M  V30 706 N 66.5145 -1.57545 0.0417849 0
M  V30 707 C 67.4445 -2.14009 -0.933929 0
M  V30 708 C 68.4255 -1.05938 -1.33083 0
M  V30 709 O 69.6105 -1.33833 -1.40721 0
M  V30 710 C 66.7405 -2.67747 -2.21199 0
M  V30 711 C 65.6945 -3.80718 -1.95544 0
M  V30 712 C 65.0205 -4.20935 -3.29724 0
M  V30 713 C 66.3205 -5.06258 -1.28452 0
M  V30 714 H 68.0145 -2.95788 -0.463645 0
M  V30 715 H 65.5605 -1.42285 -0.221573 0
M  V30 716 H 67.5135 -3.05886 -2.89848 0
M  V30 717 H 66.2375 -1.83147 -2.70416 0
M  V30 718 H 64.8965 -3.43037 -1.2931 0
M  V30 719 H 64.5445 -3.33298 -3.76724 0
M  V30 720 H 64.2445 -4.9707 -3.13361 0
M  V30 721 H 65.7685 -4.61666 -3.9962 0
M  V30 722 H 67.1825 -5.41903 -1.8712 0
M  V30 723 H 65.5795 -5.87475 -1.22445 0
M  V30 724 H 66.6495 -4.84207 -0.259219 0
M  V30 725 N 67.9926 0.231505 -1.5589 0
M  V30 726 C 68.9556 1.27028 -1.90779 0
M  V30 727 C 69.9556 1.40308 -0.785507 0
M  V30 728 O 71.1456 1.38744 -1.05336 0
M  V30 729 C 68.2776 2.64566 -2.14983 0
M  V30 730 H 69.4706 0.973017 -2.83677 0
M  V30 731 H 67.0236 0.471486 -1.49019 0
M  V30 732 H 67.7586 2.99406 -1.24604 0
M  V30 733 H 67.5436 2.56305 -2.96732 0
M  V30 734 H 69.0336 3.39543 -2.43105 0
M  V30 735 N 69.4707 1.49531 0.497807 0
M  V30 736 C 70.8817 1.52344 1.07927 0
M  V30 737 C 71.2327 0.311469 1.93712 0
M  V30 738 O 70.3577 -0.578405 2.08527 0
M  V30 739 C 70.9527 2.76062 1.96405 0
M  V30 740 C 69.5117 2.81643 2.49709 0
M  V30 741 C 68.6587 2.46299 1.27404 0
M  V30 742 H 71.6097 1.56182 0.281576 0
M  V30 743 H 71.6307 2.56405 2.81135 0
M  V30 744 H 71.1427 3.64254 1.33943 0
M  V30 745 H 69.2437 1.97739 3.15801 0
M  V30 746 H 69.3567 3.83891 2.86643 0
M  V30 747 H 67.7207 1.98148 1.60029 0
M  V30 748 H 68.5037 3.36769 0.66645 0
M  V30 749 N 70.9488 -0.749086 1.3866 0
M  V30 750 C 72.3648 -1.05276 1.19955 0
M  V30 751 C 72.5648 -2.01435 0.05134 0
M  V30 752 O 71.6208 -2.45232 -0.60147 0
M  V30 753 C 72.9338 -1.62853 2.52783 0
M  V30 754 C 74.4818 -1.75002 2.59506 0
M  V30 755 C 74.9568 -2.35991 3.92521 0
M  V30 756 N 76.4478 -2.43416 3.94085 0
M  V30 757 C 77.1828 -2.91511 4.9377 0
M  V30 758 N 76.6788 -3.39608 6.03853 0
M  V30 759 N 78.4718 -2.90592 4.81157 0
M  V30 760 H 70.6228 -0.111066 2.12109 0
M  V30 761 H 72.8858 -0.111901 0.941373 0
M  V30 762 H 72.5918 -0.99664 3.37283 0
M  V30 763 H 72.4658 -2.61854 2.715 0
M  V30 764 H 74.8528 -2.37317 1.75398 0
M  V30 765 H 74.9338 -0.74693 2.44652 0
M  V30 766 H 74.5778 -1.74308 4.77053 0
M  V30 767 H 74.5078 -3.3695 4.04688 0
M  V30 768 H 76.9988 -2.09405 3.14576 0
M  V30 769 H 77.3118 -3.74775 6.75843 0
M  V30 770 H 75.6568 -3.37653 6.07466 0
M  V30 771 H 78.8478 -2.52332 3.94267 0
M  V30 772 H 79.0208 -3.27762 5.58996 0
M  V30 773 N 72.4269 -1.23603 -0.977757 0
M  V30 774 C 73.7039 -0.977897 -1.69401 0
M  V30 775 C 74.0839 0.502738 -2.05026 0
M  V30 776 O 73.4319 1.47459 -1.74551 0
M  V30 777 C 73.6419 -1.89077 -2.93345 0
M  V30 778 C 74.9899 -2.15579 -3.65802 0
M  V30 779 O 76.0139 -1.86648 -3.03383 0
M  V30 780 O 74.8729 -2.64658 -4.78141 0
M  V30 781 H 71.9669 -0.369025 -0.740101 0
M  V30 782 H 74.5129 -1.34657 -1.03274 0
M  V30 783 H 73.2849 -2.89158 -2.63634 0
M  V30 784 H 72.9079 -1.52463 -3.67207 0
M  V30 785 N 73.905 1.17692 -1.04816 0
M  V30 786 C 75.153 1.87488 -0.754497 0
M  V30 787 C 75.474 1.81205 0.720407 0
M  V30 788 O 74.744 1.23544 1.52032 0
M  V30 789 H 73.324 0.694101 -0.276102 0
M  V30 790 H 75.986 1.42793 -1.32651 0
M  V30 791 H 75.082 2.93328 -1.06606 0
M  V30 792 N 75.3831 0.828654 1.34056 0
M  V30 793 C 76.6601 0.341809 1.9259 0
M  V30 794 C 77.0401 -1.17158 1.75605 0
M  V30 795 O 76.3881 -1.98132 1.13824 0
M  V30 796 C 76.5981 0.777453 3.4023 0
M  V30 797 C 77.9461 0.779579 4.17382 0
M  V30 798 O 78.9701 0.7204 3.48839 0
M  V30 799 O 77.8291 0.857996 5.39723 0
M  V30 800 H 74.9231 0.0946085 0.821571 0
M  V30 801 H 77.4691 0.913827 1.42994 0
M  V30 802 H 76.2411 1.8196 3.46419 0
M  V30 803 H 75.8641 0.181444 3.97186 0
M  V30 804 N 76.8612 -1.46375 0.584142 0
M  V30 805 C 77.8242 -2.28784 -0.138108 0
M  V30 806 C 78.8242 -1.38471 -0.817462 0
M  V30 807 O 80.0142 -1.60833 -0.669199 0
M  V30 808 C 77.1462 -3.18892 -1.20503 0
M  V30 809 H 78.3392 -2.94117 0.586127 0
M  V30 810 H 75.8922 -1.52509 0.342171 0
M  V30 811 H 76.6272 -2.58309 -1.96079 0
M  V30 812 H 76.4122 -3.85388 -0.722384 0
M  V30 813 H 77.9022 -3.80914 -1.71155 0
M  V30 814 N 78.3393 -0.321999 -1.54275 0
M  V30 815 C 79.2713 0.578671 -2.21775 0
M  V30 816 C 80.2843 1.08109 -1.21722 0
M  V30 817 O 81.4733 0.994938 -1.482 0
M  V30 818 C 78.5733 1.80661 -2.86731 0
M  V30 819 C 77.7463 1.44314 -4.12907 0
M  V30 820 C 76.8053 2.52845 -4.61472 0
M  V30 821 O 75.8313 2.17054 -5.2619 0
M  V30 822 N 77.0333 3.83748 -4.35566 0
M  V30 823 H 79.7983 0.000709447 -2.997 0
M  V30 824 H 77.3593 -0.145132 -1.61248 0
M  V30 825 H 79.3513 2.52655 -3.16145 0
M  V30 826 H 77.9213 2.29245 -2.12521 0
M  V30 827 H 77.1413 0.554906 -3.90275 0
M  V30 828 H 78.4293 1.17598 -4.95023 0
M  V30 829 H 77.8273 4.15625 -3.83761 0
M  V30 830 H 76.3843 4.51977 -4.69638 0
M  V30 831 N 79.8174 1.5752 -0.0501392 0
M  V30 832 C 81.2284 1.80271 0.485705 0
M  V30 833 C 81.5794 0.96228 1.70981 0
M  V30 834 O 80.7044 0.178578 2.15662 0
M  V30 835 C 81.2994 3.26957 0.887938 0
M  V30 836 C 79.8584 3.5063 1.36877 0
M  V30 837 C 79.0054 2.75165 0.343468 0
M  V30 838 H 81.9564 1.56281 -0.276028 0
M  V30 839 H 81.9774 3.37821 1.75093 0
M  V30 840 H 81.4894 3.881 -0.0031809 0
M  V30 841 H 79.5904 2.94766 2.27911 0
M  V30 842 H 79.7034 4.59343 1.36164 0
M  V30 843 H 78.0674 2.4127 0.816128 0
M  V30 844 H 78.8504 3.39034 -0.539548 0
M  V30 845 N 81.2955 -0.223234 1.56011 0
M  V30 846 C 82.7115 -0.572856 1.48965 0
M  V30 847 C 82.9115 -1.87225 0.74492 0
M  V30 848 O 81.9675 -2.50899 0.283896 0
M  V30 849 C 83.2805 -0.653646 2.9351 0
M  V30 850 C 84.8285 -0.744386 3.0402 0
M  V30 851 C 85.3035 -0.856535 4.49919 0
M  V30 852 N 86.7945 -0.9208 4.53955 0
M  V30 853 C 87.5295 -1.02726 5.64123 0
M  V30 854 N 87.0255 -1.09777 6.84047 0
M  V30 855 N 88.8185 -1.06226 5.51971 0
M  V30 856 H 80.9695 0.629462 2.02858 0
M  V30 857 H 83.2325 0.220621 0.921971 0
M  V30 858 H 82.9385 0.231518 3.50937 0
M  V30 859 H 82.8125 -1.51781 3.45315 0
M  V30 860 H 85.1995 -1.61999 2.46658 0
M  V30 861 H 85.2805 0.14541 2.55386 0
M  V30 862 H 84.9245 0.0146069 5.07898 0
M  V30 863 H 84.8545 -1.76172 4.96257 0
M  V30 864 H 87.3455 -0.876694 3.6759 0
M  V30 865 H 87.6585 -1.17872 7.63758 0
M  V30 866 H 86.0035 -1.06693 6.86762 0
M  V30 867 H 89.1945 -1.00382 4.5721 0
M  V30 868 H 89.3675 -1.14177 6.37862 0
M  V30 869 N 82.7736 -1.49793 -0.48987 0
M  V30 870 C 83.6836 -1.70036 -1.61632 0
M  V30 871 C 84.6996 -0.583102 -1.63939 0
M  V30 872 O 85.8756 -0.859169 -1.82154 0
M  V30 873 C 82.9406 -1.77277 -2.97949 0
M  V30 874 C 82.0016 -3.00918 -3.06181 0
M  V30 875 C 81.2346 -3.07804 -4.35996 0
M  V30 876 O 81.4576 -2.21982 -5.25433 0
M  V30 877 O 80.3916 -4.00369 -4.49431 0
M  V30 878 H 84.2176 -2.65486 -1.47482 0
M  V30 879 H 81.8026 -1.33666 -0.667362 0
M  V30 880 H 83.6846 -1.84329 -3.78947 0
M  V30 881 H 82.3596 -0.850076 -3.12339 0
M  V30 882 H 81.2666 -2.99377 -2.2433 0
M  V30 883 H 82.5996 -3.92704 -2.96723 0
M  V30 884 N 84.2517 0.741722 -1.39055 0
M  V30 885 C 85.4797 1.53098 -1.39171 0
M  V30 886 C 85.8947 1.88794 0.0155099 0
M  V30 887 O 85.2517 1.53626 0.985159 0
M  V30 888 C 85.3027 2.82274 -2.2584 0
M  V30 889 O 85.0237 2.48097 -3.61081 0
M  V30 890 C 86.5247 3.76343 -2.34266 0
M  V30 891 H 83.7447 0.473335 -0.4756 0
M  V30 892 H 86.2887 0.917045 -1.82785 0
M  V30 893 H 84.4437 3.40015 -1.85656 0
M  V30 894 H 84.8577 3.31029 -4.06842 0
M  V30 895 H 86.3317 4.63898 -2.9917 0
M  V30 896 H 86.8087 4.17619 -1.35982 0
M  V30 897 H 87.4147 3.24523 -2.74891 0
M  V30 898 N 85.7298 1.2412 0.971189 0
M  V30 899 C 86.9758 1.09048 1.71698 0
M  V30 900 C 87.3308 -0.367442 1.88859 0
M  V30 901 O 86.6238 -1.26792 1.43646 0
M  V30 902 C 86.8178 1.75983 3.11071 0
M  V30 903 C 86.6468 3.28133 3.07504 0
M  V30 904 C 85.4168 3.97331 3.1218 0
M  V30 905 C 87.6148 4.24773 2.89952 0
M  V30 906 N 85.5968 5.3639 2.98596 0
M  V30 907 C 86.9678 5.50806 2.84627 0
M  V30 908 C 89.0228 4.15392 2.74506 0
M  V30 909 C 87.7258 6.68533 2.65437 0
M  V30 910 C 89.7518 5.32793 2.56682 0
M  V30 911 C 89.1138 6.57756 2.52063 0
M  V30 912 H 85.2128 0.453632 0.636979 0
M  V30 913 H 87.7968 1.56983 1.15171 0
M  V30 914 H 85.9678 1.30566 3.65796 0
M  V30 915 H 87.6998 1.53803 3.74335 0
M  V30 916 H 84.4548 3.48473 3.20724 0
M  V30 917 H 84.8788 6.09321 2.95054 0
M  V30 918 H 89.5208 3.19543 2.76861 0
M  V30 919 H 87.2388 7.64509 2.61825 0
M  V30 920 H 90.8248 5.27383 2.4568 0
M  V30 921 H 89.7048 7.4707 2.38446 0
M  V30 922 N 87.2079 -1.17134 1.05439 0
M  V30 923 C 88.4559 -1.87085 0.764429 0
M  V30 924 C 88.7769 -1.81584 -0.710787 0
M  V30 925 O 88.0469 -1.24349 -1.51374 0
M  V30 926 H 86.6269 -0.692627 0.279779 0
M  V30 927 H 89.2889 -1.42087 1.33406 0
M  V30 928 H 88.3849 -2.92759 1.0816 0
M  V30 929 N 88.686 -0.835752 -1.33615 0
M  V30 930 C 89.633 -0.26473 -2.29277 0
M  V30 931 C 90.603 0.617712 -1.54187 0
M  V30 932 O 91.788 0.556641 -1.825 0
M  V30 933 C 88.928 0.556777 -3.40579 0
M  V30 934 C 88.041 -0.349339 -4.30585 0
M  V30 935 C 87.176 0.482969 -5.29 0
M  V30 936 C 86.215 -0.421732 -6.10645 0
M  V30 937 N 85.352 0.372262 -7.01112 0
M  V30 938 H 90.192 -1.08582 -2.77514 0
M  V30 939 H 87.729 -0.546927 -1.36554 0
M  V30 940 H 89.687 1.04852 -4.03809 0
M  V30 941 H 88.317 1.34286 -2.93542 0
M  V30 942 H 87.369 -0.959372 -3.68104 0
M  V30 943 H 88.681 -1.04445 -4.87742 0
M  V30 944 H 87.835 1.03866 -5.97743 0
M  V30 945 H 86.574 1.21153 -4.72412 0
M  V30 946 H 85.579 -0.989464 -5.40823 0
M  V30 947 H 86.804 -1.14861 -6.69316 0
M  V30 948 H 84.75 1.08426 -6.46977 0
M  V30 949 H 84.667 -0.264198 -7.55538 0
M  V30 950 H 85.935 0.910293 -7.74167 0
M  V30 951 N 90.1641 1.46063 -0.591896 0
M  V30 952 C 91.1111 2.30399 0.136069 0
M  V30 953 C 92.0811 1.41169 0.875238 0
M  V30 954 O 93.2661 1.70112 0.86409 0
M  V30 955 C 90.4061 3.25804 1.13781 0
M  V30 956 C 89.5191 4.30134 0.401137 0
M  V30 957 C 88.6541 5.12659 1.39121 0
M  V30 958 C 87.6931 6.0873 0.641462 0
M  V30 959 N 86.8301 6.8409 1.58004 0
M  V30 960 H 91.6701 2.92118 -0.589144 0
M  V30 961 H 89.2071 1.43959 -0.302342 0
M  V30 962 H 91.1651 3.79569 1.73156 0
M  V30 963 H 89.7951 2.65872 1.83062 0
M  V30 964 H 88.8471 3.79152 -0.307826 0
M  V30 965 H 90.1591 4.98458 -0.184565 0
M  V30 966 H 89.3131 5.70747 2.05749 0
M  V30 967 H 88.0521 4.44316 2.01084 0
M  V30 968 H 87.0571 5.49786 -0.0385419 0
M  V30 969 H 88.2821 6.79095 0.0270945 0
M  V30 970 H 86.2281 6.18449 2.18761 0
M  V30 971 H 86.1451 7.48709 1.04738 0
M  V30 972 H 87.4131 7.4673 2.23639 0
M  V30 973 N 91.6422 0.330177 1.54103 0
M  V30 974 C 92.8912 -0.271336 1.99867 0
M  V30 975 C 93.2042 -1.52723 1.22209 0
M  V30 976 O 94.4102 -2.20515 1.58383 0
M  V30 977 C 92.8662 -0.534032 3.55916 0
M  V30 978 C 92.4742 0.705193 4.42415 0
M  V30 979 C 94.2182 -1.09514 4.1013 0
M  V30 980 C 92.1252 0.414035 5.89949 0
M  V30 981 H 91.0552 -0.105166 0.74663 0
M  V30 982 H 93.7062 0.443429 1.78062 0
M  V30 983 H 92.0882 -1.30915 3.73734 0
M  V30 984 H 93.2622 1.4804 4.36372 0
M  V30 985 H 91.5772 1.18698 3.99124 0
M  V30 986 H 94.1742 -1.3277 5.17954 0
M  V30 987 H 94.5172 -2.04656 3.62521 0
M  V30 988 H 95.0502 -0.381038 3.95971 0
M  V30 989 H 91.7892 1.33481 6.41766 0
M  V30 990 H 91.3092 -0.323336 5.98928 0
M  V30 991 H 92.9882 0.0263105 6.46995 0
M  V30 992 N 93.1203 -1.57491 0.0584922 0
M  V30 993 C 94.3973 -1.84346 -0.653918 0
M  V30 994 C 94.7773 -0.948355 -1.88599 0
M  V30 995 O 94.1253 -0.0112403 -2.28497 0
M  V30 996 C 94.3353 -3.34239 -1.00425 0
M  V30 997 C 95.6833 -4.01431 -1.38342 0
M  V30 998 O 96.7073 -3.38907 -1.09637 0
M  V30 999 O 95.5663 -5.11683 -1.91943 0
M  V30 1000 H 92.6603 -0.761112 -0.323478 0
M  V30 1001 H 95.2063 -1.6947 0.0884125 0
M  V30 1002 H 93.9783 -3.91089 -0.128625 0
M  V30 1003 H 93.6013 -3.54329 -1.80378 0
M  V30 1004 N 94.5984 0.214957 -1.56127 0
M  V30 1005 C 95.8454 0.938372 -1.79446 0
M  V30 1006 C 96.1734 1.8407 -0.628378 0
M  V30 1007 O 95.4284 1.91837 0.386925 0
M  V30 1008 C 95.7274 1.80314 -3.0858 0
M  V30 1009 C 95.3934 1.05349 -4.3842 0
M  V30 1010 C 94.0554 0.846435 -4.73697 0
M  V30 1011 C 96.4074 0.524588 -5.18553 0
M  V30 1012 C 93.7354 0.098683 -5.86617 0
M  V30 1013 C 96.0874 -0.209853 -6.32252 0
M  V30 1014 C 94.7514 -0.428102 -6.66126 0
M  V30 1015 H 94.0214 0.343375 -0.656639 0
M  V30 1016 H 96.6684 0.206077 -1.90388 0
M  V30 1017 H 94.9734 2.6035 -2.92789 0
M  V30 1018 H 96.6704 2.36513 -3.23825 0
M  V30 1019 H 93.2604 1.22486 -4.10725 0
M  V30 1020 H 97.4444 0.672008 -4.91729 0
M  V30 1021 H 92.7004 -0.0805753 -6.11347 0
M  V30 1022 H 96.8744 -0.627157 -6.9357 0
M  V30 1023 H 94.5014 -1.00944 -7.53468 0
M  V30 1024 N 96.0765 1.50051 0.48192 0
M  V30 1025 C 97.0065 1.71046 1.58951 0
M  V30 1026 C 97.9875 0.559288 1.60642 0
M  V30 1027 O 99.1725 0.797243 1.77081 0
M  V30 1028 C 96.3025 1.79462 2.97339 0
M  V30 1029 C 95.2565 2.94558 3.10515 0
M  V30 1030 C 94.5825 2.88105 4.50444 0
M  V30 1031 C 95.8825 4.35227 2.88747 0
M  V30 1032 H 97.5765 2.6378 1.41635 0
M  V30 1033 H 95.1225 1.26936 0.679942 0
M  V30 1034 H 97.0755 1.92734 3.74742 0
M  V30 1035 H 95.7995 0.833412 3.15788 0
M  V30 1036 H 94.4585 2.80918 2.35543 0
M  V30 1037 H 94.1065 1.89853 4.65795 0
M  V30 1038 H 93.8065 3.65366 4.60197 0
M  V30 1039 H 95.3305 3.03412 5.29881 0
M  V30 1040 H 96.7445 4.49449 3.55905 0
M  V30 1041 H 95.1415 5.13856 3.09955 0
M  V30 1042 H 96.2115 4.48347 1.84696 0
M  V30 1043 N 97.5546 -0.734337 1.39446 0
M  V30 1044 C 98.4846 -1.86155 1.40955 0
M  V30 1045 C 99.4656 -1.67898 0.272827 0
M  V30 1046 O 100.651 -1.88207 0.478743 0
M  V30 1047 C 97.7806 -3.23912 1.25294 0
M  V30 1048 C 96.7346 -3.56808 2.36373 0
M  V30 1049 C 96.0606 -4.93508 2.058 0
M  V30 1050 C 97.3606 -3.59713 3.78687 0
M  V30 1051 H 99.0546 -1.8515 2.35287 0
M  V30 1052 H 96.6006 -0.889367 1.13253 0
M  V30 1053 H 98.5536 -4.02443 1.2497 0
M  V30 1054 H 97.2776 -3.25446 0.274308 0
M  V30 1055 H 95.9366 -2.80606 2.35914 0
M  V30 1056 H 95.5846 -4.91623 1.06374 0
M  V30 1057 H 95.2846 -5.16486 2.80208 0
M  V30 1058 H 96.8086 -5.74396 2.07128 0
M  V30 1059 H 98.2226 -4.2832 3.81071 0
M  V30 1060 H 96.6196 -3.94209 4.52459 0
M  V30 1061 H 97.6896 -2.59504 4.09617 0
M  V30 1062 N 99.0327 -1.24633 -0.964593 0
M  V30 1063 C 100.258 -1.11596 -1.74818 0
M  V30 1064 C 100.683 0.32723 -1.85232 0
M  V30 1065 O 100.041 1.23695 -1.32549 0
M  V30 1066 C 100.089 -1.76397 -3.1451 0
M  V30 1067 O 99.1927 -1.03685 -3.99153 0
M  V30 1068 H 98.5337 -0.390196 -0.537255 0
M  V30 1069 H 101.064 -1.65002 -1.20977 0
M  V30 1070 H 101.074 -1.8228 -3.65018 0
M  V30 1071 H 99.7487 -2.81401 -3.06246 0
M  V30 1072 H 98.3257 -1.05611 -3.57632 0
M  V30 1073 N 100.511 1.16574 -1.06058 0
M  V30 1074 C 101.757 1.87324 -0.777022 0
M  V30 1075 C 102.09 1.81351 0.694645 0
M  V30 1076 O 101.365 1.22753 1.50871 0
M  V30 1077 C 101.648 3.36991 -1.26922 0
M  V30 1078 C 101.501 3.51667 -2.80447 0
M  V30 1079 C 102.82 4.3131 -0.87521 0
M  V30 1080 H 99.9388 0.680191 -0.28374 0
M  V30 1081 H 102.581 1.37036 -1.3161 0
M  V30 1082 H 100.731 3.79949 -0.81063 0
M  V30 1083 H 102.403 3.17664 -3.34495 0
M  V30 1084 H 100.646 2.93656 -3.19294 0
M  V30 1085 H 101.317 4.56766 -3.0995 0
M  V30 1086 H 103.793 3.9624 -1.27014 0
M  V30 1087 H 102.669 5.34545 -1.2471 0
M  V30 1088 H 102.93 4.41552 0.220071 0
M  V30 1089 N 101.989 0.842826 1.3317 0
M  V30 1090 C 103.235 0.441099 1.97945 0
M  V30 1091 C 103.568 -0.998024 1.66593 0
M  V30 1092 O 102.843 -1.69839 0.947898 0
M  V30 1093 C 103.126 0.666841 3.53872 0
M  V30 1094 C 102.979 2.15352 3.94897 0
M  V30 1095 C 104.298 0.115544 4.39948 0
M  V30 1096 H 101.417 0.161739 0.719034 0
M  V30 1097 H 104.059 1.05907 1.57746 0
M  V30 1098 H 102.209 0.140828 3.88245 0
M  V30 1099 H 103.881 2.7447 3.70761 0
M  V30 1100 H 102.124 2.63653 3.44484 0
M  V30 1101 H 102.795 2.26221 5.03516 0
M  V30 1102 H 105.271 0.565213 4.12243 0
M  V30 1103 H 104.147 0.303152 5.48062 0
M  V30 1104 H 104.408 -0.980935 4.3108 0
M  V30 1105 N 103.467 -1.45747 0.599634 0
M  V30 1106 C 104.715 -2.01893 0.0915472 0
M  V30 1107 C 105.036 -1.47155 -1.27946 0
M  V30 1108 O 104.306 -0.66273 -1.84349 0
M  V30 1109 H 102.886 -0.746363 0.0308524 0
M  V30 1110 H 105.548 -1.78645 0.779237 0
M  V30 1111 H 104.644 -3.1208 0.0353086 0
M  V30 1112 N 104.945 -0.338344 -1.53925 0
M  V30 1113 C 106.192 0.259758 -2.00827 0
M  V30 1114 C 106.52 1.50973 -1.22628 0
M  V30 1115 O 105.775 1.93379 -0.300509 0
M  V30 1116 C 106.074 0.62448 -3.51902 0
M  V30 1117 C 105.74 -0.528006 -4.47798 0
M  V30 1118 C 104.402 -0.844298 -4.73735 0
M  V30 1119 C 106.754 -1.30143 -5.0469 0
M  V30 1120 C 104.082 -1.93648 -5.53821 0
M  V30 1121 C 106.434 -2.38382 -5.85967 0
M  V30 1122 C 105.098 -2.70576 -6.10201 0
M  V30 1123 H 104.368 0.0950523 -0.734878 0
M  V30 1124 H 107.015 -0.465182 -1.85764 0
M  V30 1125 H 105.32 1.43006 -3.64769 0
M  V30 1126 H 107.017 1.09905 -3.85645 0
M  V30 1127 H 103.607 -0.271421 -4.2774 0
M  V30 1128 H 107.791 -1.07033 -4.84621 0
M  V30 1129 H 103.047 -2.19021 -5.70824 0
M  V30 1130 H 107.221 -2.98746 -6.29066 0
M  V30 1131 H 104.848 -3.55333 -6.72044 0
M  V30 1132 N 106.423 1.57458 -0.0668435 0
M  V30 1133 C 107.386 2.11323 0.887422 0
M  V30 1134 C 108.386 1.03618 1.22964 0
M  V30 1135 O 109.576 1.29626 1.16373 0
M  V30 1136 C 106.708 2.61048 2.19242 0
M  V30 1137 H 107.901 2.96942 0.420194 0
M  V30 1138 H 105.454 1.55239 0.181793 0
M  V30 1139 H 106.189 1.78868 2.70512 0
M  V30 1140 H 105.974 3.39769 1.95702 0
M  V30 1141 H 107.464 3.02814 2.87565 0
M  V30 1142 N 107.901 -0.206675 1.56239 0
M  V30 1143 C 109.147 -0.930218 1.80208 0
M  V30 1144 C 109.48 -1.83387 0.638981 0
M  V30 1145 O 108.755 -1.91119 -0.361066 0
M  V30 1146 C 109.038 -1.75641 3.1436 0
M  V30 1147 C 108.891 -0.878257 4.41142 0
M  V30 1148 C 110.21 -2.73129 3.45092 0
M  V30 1149 H 107.329 -0.336742 0.655571 0
M  V30 1150 H 109.971 -0.198222 1.88963 0
M  V30 1151 H 108.121 -2.38048 3.07027 0
M  V30 1152 H 109.793 -0.269787 4.6051 0
M  V30 1153 H 108.036 -0.184385 4.33408 0
M  V30 1154 H 108.707 -1.49106 5.3148 0
M  V30 1155 H 111.183 -2.20856 3.52649 0
M  V30 1156 H 110.059 -3.28028 4.40101 0
M  V30 1157 H 110.32 -3.51606 2.68003 0
M  V30 1158 N 109.379 -1.50304 -0.473955 0
M  V30 1159 C 110.656 -1.51667 -1.23518 0
M  V30 1160 C 111.036 -0.259701 -2.09496 0
M  V30 1161 O 110.384 0.756986 -2.15597 0
M  V30 1162 C 110.594 -2.81082 -2.06868 0
M  V30 1163 C 111.942 -3.31631 -2.65153 0
M  V30 1164 O 112.966 -2.82384 -2.17113 0
M  V30 1165 O 111.825 -4.17471 -3.52675 0
M  V30 1166 H 108.919 -0.60822 -0.560355 0
M  V30 1167 H 111.465 -1.62592 -0.486011 0
M  V30 1168 H 110.237 -3.64041 -1.4349 0
M  V30 1169 H 109.86 -2.73146 -2.88924 0
M  V30 1170 N 110.857 0.726932 -1.39834 0
M  V30 1171 C 111.787 1.85405 -1.41941 0
M  V30 1172 C 112.768 1.67751 -0.281728 0
M  V30 1173 O 113.953 1.8795 -0.488717 0
M  V30 1174 C 111.083 3.23243 -1.2701 0
M  V30 1175 C 110.037 3.55549 -2.38262 0
M  V30 1176 C 109.363 4.9241 -2.08415 0
M  V30 1177 C 110.663 3.577 -3.80589 0
M  V30 1178 H 112.357 1.83899 -2.36266 0
M  V30 1179 H 109.903 0.883349 -1.13723 0
M  V30 1180 H 111.856 4.01775 -1.27103 0
M  V30 1181 H 110.58 3.25296 -0.291564 0
M  V30 1182 H 109.239 2.79351 -2.37399 0
M  V30 1183 H 108.887 4.91052 -1.0898 0
M  V30 1184 H 108.587 5.14992 -2.82943 0
M  V30 1185 H 110.111 5.73289 -2.10171 0
M  V30 1186 H 111.525 4.26293 -3.83337 0
M  V30 1187 H 109.922 3.91804 -4.54543 0
M  V30 1188 H 110.992 2.57328 -4.10987 0
M  V30 1189 N 112.336 1.25143 0.95797 0
M  V30 1190 C 113.299 1.05321 2.03569 0
M  V30 1191 C 114.299 0.007152 1.60798 0
M  V30 1192 O 115.489 0.24903 1.72411 0
M  V30 1193 C 112.621 0.598394 3.35607 0
M  V30 1194 H 113.814 2.00986 2.22586 0
M  V30 1195 H 111.367 1.07502 1.13459 0
M  V30 1196 H 112.102 -0.361014 3.22284 0
M  V30 1197 H 111.887 1.35351 3.67998 0
M  V30 1198 H 113.377 0.48104 4.1482 0
M  V30 1199 N 113.814 -1.1601 1.06675 0
M  V30 1200 C 114.762 -2.22586 0.675157 0
M  V30 1201 C 115.756 -1.66525 -0.310766 0
M  V30 1202 O 116.962 -1.79145 -0.175215 0
M  V30 1203 H 113.337 -0.724855 0.200223 0
M  V30 1204 H 115.308 -2.52899 1.58381 0
M  V30 1205 C 114.057 -3.47604 0.0817162 0
M  V30 1206 H 113.38 -3.91058 0.831484 0
M  V30 1207 H 114.82 -4.23718 -0.154708 0
M  V30 1208 C 113.279 -3.15718 -1.17576 0
M  V30 1209 O 113.809 -3.31878 -2.26318 0
M  V30 1210 N 112.015 -2.69816 -1.07923 0
M  V30 1211 H 111.562 -2.56866 -0.194293 0
M  V30 1212 H 111.52 -2.48855 -1.92141 0
M  V30 1213 N 115.292 -0.849877 -1.32721 0
M  V30 1214 C 116.538 -0.451591 -1.97708 0
M  V30 1215 C 116.871 0.989175 -1.6712 0
M  V30 1216 O 116.146 1.69334 -0.956891 0
M  V30 1217 C 116.429 -0.685598 -3.53513 0
M  V30 1218 C 116.282 -2.17444 -3.93749 0
M  V30 1219 C 117.601 -0.138874 -4.39881 0
M  V30 1220 H 114.72 -0.16555 -0.718166 0
M  V30 1221 H 117.362 -1.06742 -1.57182 0
M  V30 1222 H 115.512 -0.161416 -3.88165 0
M  V30 1223 H 117.184 -2.76433 -3.693 0
M  V30 1224 H 115.427 -2.65476 -3.43081 0
M  V30 1225 H 116.098 -2.28888 -5.02309 0
M  V30 1226 H 118.574 -0.587068 -4.11938 0
M  V30 1227 H 117.45 -0.332213 -5.47894 0
M  V30 1228 H 117.711 0.95806 -4.31594 0
M  V30 1229 N 116.77 1.45427 -0.607355 0
M  V30 1230 C 118.016 2.03097 -0.111035 0
M  V30 1231 C 118.371 1.46735 1.24445 0
M  V30 1232 O 117.664 0.632478 1.8086 0
M  V30 1233 C 117.858 3.57398 -0.0129263 0
M  V30 1234 C 117.687 4.28726 -1.35735 0
M  V30 1235 C 116.457 4.66659 -1.93798 0
M  V30 1236 C 118.655 4.60699 -2.28607 0
M  V30 1237 N 116.637 5.22845 -3.21723 0
M  V30 1238 C 118.008 5.17716 -3.41131 0
M  V30 1239 C 120.063 4.42638 -2.27982 0
M  V30 1240 C 118.766 5.58576 -4.53194 0
M  V30 1241 C 120.792 4.84531 -3.39093 0
M  V30 1242 C 120.154 5.4164 -4.50339 0
M  V30 1243 H 116.253 0.777476 -0.083994 0
M  V30 1244 H 118.837 1.77249 -0.805655 0
M  V30 1245 H 117.008 3.82907 0.650914 0
M  V30 1246 H 118.74 4.01722 0.490033 0
M  V30 1247 H 115.495 4.50207 -1.47007 0
M  V30 1248 H 115.919 5.55438 -3.87063 0
M  V30 1249 H 120.561 3.97798 -1.43235 0
M  V30 1250 H 118.279 6.02382 -5.38667 0
M  V30 1251 H 121.865 4.72289 -3.39757 0
M  V30 1252 H 120.745 5.73461 -5.34895 0
M  V30 1253 N 118.248 0.346503 1.53744 0
M  V30 1254 C 119.664 -0.00530975 1.59599 0
M  V30 1255 C 119.864 -1.48465 1.36236 0
M  V30 1256 O 118.92 -2.24376 1.15808 0
M  V30 1257 C 120.233 0.433516 2.97559 0
M  V30 1258 C 121.781 0.386111 3.10609 0
M  V30 1259 C 122.256 0.800451 4.50951 0
M  V30 1260 N 123.747 0.754753 4.5701 0
M  V30 1261 C 124.482 1.04727 5.63755 0
M  V30 1262 N 123.978 1.4081 6.7834 0
M  V30 1263 N 125.771 0.971316 5.53644 0
M  V30 1264 H 117.922 1.31009 1.67184 0
M  V30 1265 H 120.185 0.534242 0.783128 0
M  V30 1266 H 119.891 1.46509 3.19731 0
M  V30 1267 H 119.765 -0.189753 3.76722 0
M  V30 1268 H 122.152 -0.636295 2.88158 0
M  V30 1269 H 122.233 1.04462 2.33498 0
M  V30 1270 H 121.877 1.82088 4.74137 0
M  V30 1271 H 121.807 0.119386 5.26465 0
M  V30 1272 H 124.298 0.488662 3.74727 0
M  V30 1273 H 124.611 1.61607 7.55714 0
M  V30 1274 H 122.956 1.44657 6.79779 0
M  V30 1275 H 126.147 0.688748 4.63005 0
M  V30 1276 H 126.32 1.20263 6.36742 0
M  V30 1277 N 119.726 -1.57421 0.075193 0
M  V30 1278 C 120.973 -1.93618 -0.593146 0
M  V30 1279 C 121.301 -0.955484 -1.69413 0
M  V30 1280 O 120.556 0.0283251 -1.9568 0
M  V30 1281 C 120.855 -3.36428 -1.20626 0
M  V30 1282 C 120.521 -4.50307 -0.231078 0
M  V30 1283 C 119.183 -4.81186 0.0371936 0
M  V30 1284 C 121.535 -5.19374 0.435888 0
M  V30 1285 C 118.863 -5.78466 0.979461 0
M  V30 1286 C 121.215 -6.17665 1.3665 0
M  V30 1287 C 119.879 -6.46958 1.6432 0
M  V30 1288 H 119.149 -0.708499 -0.217047 0
M  V30 1289 H 121.796 -1.90937 0.146793 0
M  V30 1290 H 120.101 -3.35592 -2.02201 0
M  V30 1291 H 121.798 -3.61727 -1.73073 0
M  V30 1292 H 118.388 -4.26227 -0.450357 0
M  V30 1293 H 122.572 -4.95711 0.241748 0
M  V30 1294 H 117.828 -5.99487 1.20106 0
M  V30 1295 H 122.002 -6.70284 1.88924 0
M  V30 1296 H 119.629 -7.2215 2.37494 0
M  V30 1297 N 121.204 0.198386 -1.56346 0
M  V30 1298 C 122.615 0.763358 -1.70381 0
M  V30 1299 C 122.966 1.83995 -0.681203 0
M  V30 1300 O 122.091 2.15785 0.16305 0
M  V30 1301 C 122.686 1.39143 -3.08909 0
M  V30 1302 C 121.245 1.90352 -3.2472 0
M  V30 1303 C 120.392 0.772233 -2.6633 0
M  V30 1304 H 123.343 -0.0266377 -1.58678 0
M  V30 1305 H 123.364 2.26076 -3.06055 0
M  V30 1306 H 122.876 0.607638 -3.83314 0
M  V30 1307 H 120.977 2.71461 -2.55225 0
M  V30 1308 H 121.09 2.06757 -4.3219 0
M  V30 1309 H 119.454 1.18566 -2.2542 0
M  V30 1310 H 120.237 0.00073556 -3.433 0
M  V30 1311 N 122.682 1.50554 0.465978 0
M  V30 1312 C 123.912 1.65323 1.23903 0
M  V30 1313 C 124.32 0.338051 1.86155 0
M  V30 1314 O 123.663 -0.690518 1.70228 0
M  V30 1315 C 123.725 2.69048 2.3844 0
M  V30 1316 C 123.389 4.12462 1.96784 0
M  V30 1317 C 124.386 4.98168 1.48745 0
M  V30 1318 C 122.071 4.58407 2.05349 0
M  V30 1319 C 124.065 6.27868 1.0982 0
M  V30 1320 C 121.752 5.88112 1.66035 0
M  V30 1321 C 122.75 6.72668 1.18349 0
M  V30 1322 O 122.438 7.99951 0.795825 0
M  V30 1323 H 122.17 0.558629 0.38067 0
M  V30 1324 H 124.724 1.97561 0.562022 0
M  V30 1325 H 122.954 2.32062 3.09328 0
M  V30 1326 H 124.643 2.72985 3.0039 0
M  V30 1327 H 125.409 4.63885 1.41546 0
M  V30 1328 H 121.288 3.92735 2.41414 0
M  V30 1329 H 124.832 6.93819 0.725293 0
M  V30 1330 H 120.729 6.21914 1.72895 0
M  V30 1331 H 121.497 8.13265 0.924222 0
M  V30 1332 N 124.16 -0.719506 1.40217 0
M  V30 1333 C 125.09 -1.8465 1.42922 0
M  V30 1334 C 126.071 -1.67599 0.29062 0
M  V30 1335 O 127.256 -1.87688 0.498677 0
M  V30 1336 C 124.386 -3.22565 1.28722 0
M  V30 1337 C 123.34 -3.54281 2.40144 0
M  V30 1338 C 122.666 -4.91298 2.11023 0
M  V30 1339 C 123.966 -3.55676 3.82481 0
M  V30 1340 H 125.66 -1.82644 2.37237 0
M  V30 1341 H 123.206 -0.877305 1.1419 0
M  V30 1342 H 125.159 -4.01095 1.29232 0
M  V30 1343 H 123.883 -3.25137 0.308811 0
M  V30 1344 H 122.542 -2.78088 2.38877 0
M  V30 1345 H 122.19 -4.90468 1.11582 0
M  V30 1346 H 121.89 -5.13485 2.8567 0
M  V30 1347 H 123.414 -5.72166 2.13209 0
M  V30 1348 H 124.828 -4.24254 3.85592 0
M  V30 1349 H 123.225 -3.89388 4.56614 0
M  V30 1350 H 124.295 -2.55144 4.12346 0
M  V30 1351 N 125.638 -1.25649 -0.95132 0
M  V30 1352 C 126.878 -1.11802 -1.71113 0
M  V30 1353 C 127.242 0.334758 -1.89059 0
M  V30 1354 O 128.443 0.595121 -2.62129 0
M  V30 1355 C 126.714 -1.85512 -3.05483 0
M  V30 1356 S 128.273 -1.87597 -3.96677 0
M  V30 1357 H 125.091 -0.399552 -0.588115 0
M  V30 1358 H 127.693 -1.59222 -1.1344 0
M  V30 1359 H 126.397 -2.90299 -2.90094 0
M  V30 1360 H 125.928 -1.38493 -3.68216 0
M  V30 1361 H 127.943 -0.955389 -4.86916 0
M  V30 1362 N 127.117 1.15442 -1.07289 0
M  V30 1363 C 128.347 1.89821 -0.815576 0
M  V30 1364 C 128.755 1.7823 0.634867 0
M  V30 1365 O 128.098 1.13152 1.44715 0
M  V30 1366 C 128.16 3.40817 -1.14385 0
M  V30 1367 C 127.824 3.76193 -2.59476 0
M  V30 1368 C 128.821 3.77269 -3.57721 0
M  V30 1369 C 126.506 4.0652 -2.95037 0
M  V30 1370 C 128.5 4.08176 -4.89562 0
M  V30 1371 C 126.187 4.37092 -4.27076 0
M  V30 1372 C 127.185 4.37902 -5.24148 0
M  V30 1373 O 126.873 4.67741 -6.53815 0
M  V30 1374 H 126.605 0.608465 -0.294528 0
M  V30 1375 H 129.159 1.472 -1.43252 0
M  V30 1376 H 127.389 3.83835 -0.469865 0
M  V30 1377 H 129.078 3.96485 -0.869179 0
M  V30 1378 H 129.844 3.5394 -3.3159 0
M  V30 1379 H 125.723 4.05049 -2.20128 0
M  V30 1380 H 129.267 4.08723 -5.65324 0
M  V30 1381 H 125.164 4.59889 -4.5296 0
M  V30 1382 H 125.932 4.85509 -6.58957 0
M  V30 1383 N 128.595 0.856903 1.32268 0
M  V30 1384 C 129.542 0.301172 2.28827 0
M  V30 1385 C 130.512 -0.593104 1.5515 0
M  V30 1386 O 131.697 -0.527537 1.83362 0
M  V30 1387 C 128.837 -0.502523 3.41422 0
M  V30 1388 C 127.95 0.417797 4.29975 0
M  V30 1389 C 127.085 -0.398749 5.29701 0
M  V30 1390 C 126.124 0.518827 6.09897 0
M  V30 1391 N 125.261 -0.260674 7.01616 0
M  V30 1392 H 130.101 1.12983 2.75751 0
M  V30 1393 H 127.638 0.568582 1.35667 0
M  V30 1394 H 129.596 -0.984141 4.05426 0
M  V30 1395 H 128.226 -1.29599 2.95642 0
M  V30 1396 H 127.278 1.01781 3.66531 0
M  V30 1397 H 128.59 1.12191 4.86019 0
M  V30 1398 H 127.744 -0.943435 5.9932 0
M  V30 1399 H 126.483 -1.13622 4.7428 0
M  V30 1400 H 125.488 1.07538 5.39181 0
M  V30 1401 H 126.713 1.25495 6.67404 0
M  V30 1402 H 124.659 -0.981198 6.4862 0
M  V30 1403 H 124.576 0.384364 7.55022 0
M  V30 1404 H 125.844 -0.787014 7.75517 0
M  V30 1405 N 130.073 -1.45103 0.615059 0
M  V30 1406 C 131.021 -2.32331 -0.111791 0
M  V30 1407 C 132.015 -1.46409 -0.852102 0
M  V30 1408 O 133.221 -1.62849 -0.766821 0
M  V30 1409 H 129.596 -0.749993 -0.0549072 0
M  V30 1410 H 131.567 -2.91407 0.642225 0
M  V30 1411 C 130.316 -3.3015 -1.09071 0
M  V30 1412 H 129.639 -3.96265 -0.530485 0
M  V30 1413 H 131.079 -3.93898 -1.56908 0
M  V30 1414 C 129.538 -2.57875 -2.168 0
M  V30 1415 O 130.068 -2.36567 -3.24652 0
M  V30 1416 N 128.274 -2.17884 -1.92289 0
M  V30 1417 H 127.821 -2.35413 -1.04587 0
M  V30 1418 H 127.779 -1.6985 -2.64572 0
M  V30 1419 N 131.551 -0.354651 -1.53558 0
M  V30 1420 C 132.799 0.237972 -2.00694 0
M  V30 1421 C 133.12 1.50173 -1.24391 0
M  V30 1422 O 132.39 1.92673 -0.354135 0
M  V30 1423 H 130.97 0.0909256 -0.741446 0
M  V30 1424 H 133.632 -0.478368 -1.88938 0
M  V30 1425 H 132.728 0.47264 -3.085 0
M  V30 1426 N 133.029 1.57378 -0.0835403 0
M  V30 1427 C 134.277 1.93547 0.581718 0
M  V30 1428 C 134.598 0.96524 1.69435 0
M  V30 1429 O 133.868 0.0153369 1.95894 0
M  V30 1430 H 132.448 0.714521 0.217874 0
M  V30 1431 H 135.11 1.94366 -0.144158 0
M  V30 1432 H 134.206 2.95665 0.999423 0
M  V30 1433 N 134.507 -0.190092 1.56449 0
M  V30 1434 C 135.755 -0.907908 1.80559 0
M  V30 1435 C 136.076 -1.83583 0.657438 0
M  V30 1436 O 135.346 -1.93203 -0.323924 0
M  V30 1437 H 133.926 -0.338247 0.666032 0
M  V30 1438 H 136.588 -0.194403 1.93928 0
M  V30 1439 H 135.684 -1.49604 2.73907 0
M  V30 1440 N 135.985 -1.50799 -0.457987 0
M  V30 1441 C 136.948 -1.7005 -1.53674 0
M  V30 1442 C 137.948 -0.570881 -1.50325 0
M  V30 1443 O 139.138 -0.838126 -1.52712 0
M  V30 1444 C 136.27 -1.73788 -2.93276 0
M  V30 1445 H 137.463 -2.66306 -1.37917 0
M  V30 1446 H 135.016 -1.40477 -0.685271 0
M  V30 1447 H 135.751 -0.792717 -3.14462 0
M  V30 1448 H 135.536 -2.55864 -2.97113 0
M  V30 1449 H 137.026 -1.90591 -3.71571 0
M  V30 1450 N 137.463 0.71206 -1.40597 0
M  V30 1451 C 138.71 1.47197 -1.39065 0
M  V30 1452 C 139.038 1.94499 0.00583891 0
M  V30 1453 O 138.293 1.68752 0.99102 0
M  V30 1454 C 138.592 2.71039 -2.32965 0
M  V30 1455 C 138.258 2.42484 -3.80148 0
M  V30 1456 C 136.92 2.34406 -4.20247 0
M  V30 1457 C 139.272 2.18598 -4.73143 0
M  V30 1458 C 136.6 2.00516 -5.51371 0
M  V30 1459 C 138.952 1.8622 -6.0457 0
M  V30 1460 C 137.616 1.76626 -6.43708 0
M  V30 1461 H 136.886 0.538634 -0.508876 0
M  V30 1462 H 139.533 0.815325 -1.73276 0
M  V30 1463 H 137.838 3.41558 -1.91951 0
M  V30 1464 H 139.535 3.29138 -2.29061 0
M  V30 1465 H 136.125 2.49659 -3.4838 0
M  V30 1466 H 140.309 2.23793 -4.42979 0
M  V30 1467 H 135.565 1.91628 -5.80593 0
M  V30 1468 H 139.739 1.66752 -6.76141 0
M  V30 1469 H 137.366 1.50133 -7.45228 0
M  V30 1470 N 138.941 1.26152 0.944643 0
M  V30 1471 C 139.871 1.09902 2.06019 0
M  V30 1472 C 140.852 0.00519538 1.70099 0
M  V30 1473 O 142.037 0.176583 1.93396 0
M  V30 1474 C 139.167 0.727562 3.39594 0
M  V30 1475 C 138.121 1.77274 3.89561 0
M  V30 1476 C 137.447 1.25569 5.19747 0
M  V30 1477 C 138.747 3.17357 4.14827 0
M  V30 1478 H 140.441 2.03217 2.19871 0
M  V30 1479 H 137.987 0.978452 1.05652 0
M  V30 1480 H 139.94 0.600777 4.17095 0
M  V30 1481 H 138.664 -0.241287 3.25707 0
M  V30 1482 H 137.323 1.88814 3.14237 0
M  V30 1483 H 136.971 0.276783 5.02238 0
M  V30 1484 H 136.671 1.95433 5.54148 0
M  V30 1485 H 138.195 1.1415 5.99835 0
M  V30 1486 H 139.609 3.08914 4.82954 0
M  V30 1487 H 138.006 3.84781 4.60504 0
M  V30 1488 H 139.076 3.63673 3.20734 0
M  V30 1489 N 140.419 -1.14872 1.07899 0
M  V30 1490 C 141.668 -1.85135 0.800499 0
M  V30 1491 C 141.981 -1.83547 -0.676014 0
M  V30 1492 O 143.187 -2.49548 -1.06948 0
M  V30 1493 C 141.643 -3.3231 1.38197 0
M  V30 1494 C 141.251 -3.42329 2.8899 0
M  V30 1495 C 142.995 -4.0772 1.18174 0
M  V30 1496 C 140.902 -4.83684 3.403 0
M  V30 1497 H 139.832 -0.693563 0.29578 0
M  V30 1498 H 142.483 -1.29532 1.29976 0
M  V30 1499 H 140.865 -3.87618 0.810431 0
M  V30 1500 H 142.039 -2.97097 3.52236 0
M  V30 1501 H 140.354 -2.80369 3.07867 0
M  V30 1502 H 142.951 -5.12049 1.5398 0
M  V30 1503 H 143.294 -4.16124 0.12117 0
M  V30 1504 H 143.827 -3.58696 1.71994 0
M  V30 1505 H 140.566 -4.80465 4.45907 0
M  V30 1506 H 140.086 -5.29474 2.81811 0
M  V30 1507 H 141.765 -5.52558 3.36584 0
M  V30 1508 N 141.898 -0.863906 -1.31812 0
M  V30 1509 C 143.309 -0.52522 -1.7916 0
M  V30 1510 C 143.66 0.957518 -1.71248 0
M  V30 1511 O 142.785 1.74734 -1.27659 0
M  V30 1512 C 143.38 -0.9466 -3.25307 0
M  V30 1513 C 141.939 -0.659668 -3.70574 0
M  V30 1514 C 141.086 -1.14126 -2.52726 0
M  V30 1515 H 144.037 -1.05022 -1.1898 0
M  V30 1516 H 144.058 -0.266766 -3.79564 0
M  V30 1517 H 143.57 -2.02579 -3.31034 0
M  V30 1518 H 141.671 0.408416 -3.70355 0
M  V30 1519 H 141.784 -1.23245 -4.62977 0
M  V30 1520 H 140.148 -0.561216 -2.4844 0
M  V30 1521 H 140.931 -2.22775 -2.61201 0
M  V30 1522 N 143.376 1.44774 -0.622745 0
M  V30 1523 C 144.606 2.06187 -0.130532 0
M  V30 1524 C 145.014 1.46547 1.19669 0
M  V30 1525 O 144.357 0.579636 1.74316 0
M  V30 1526 C 144.419 3.59437 0.0674983 0
M  V30 1527 C 144.083 4.41496 -1.18026 0
M  V30 1528 C 145.08 4.75512 -2.102 0
M  V30 1529 C 142.765 4.82007 -1.41333 0
M  V30 1530 C 144.759 5.48912 -3.23998 0
M  V30 1531 C 142.446 5.55157 -2.55429 0
M  V30 1532 C 143.444 5.88528 -3.46589 0
M  V30 1533 O 143.132 6.60191 -4.58697 0
M  V30 1534 H 142.864 0.672045 -0.0730162 0
M  V30 1535 H 145.418 1.86768 -0.854802 0
M  V30 1536 H 143.648 3.77314 0.846825 0
M  V30 1537 H 145.337 4.02642 0.513209 0
M  V30 1538 H 146.103 4.4476 -1.93425 0
M  V30 1539 H 141.982 4.55457 -0.712709 0
M  V30 1540 H 145.526 5.74877 -3.95174 0
M  V30 1541 H 141.423 5.85324 -2.72151 0
M  V30 1542 H 142.191 6.78654 -4.57571 0
M  V30 1543 N 144.854 0.36279 1.53368 0
M  V30 1544 C 146.082 -0.228613 2.05633 0
M  V30 1545 C 146.497 -1.42676 1.23649 0
M  V30 1546 O 145.854 -1.80394 0.27647 0
M  V30 1547 C 145.905 -0.624845 3.56059 0
M  V30 1548 O 145.626 0.525675 4.34935 0
M  V30 1549 C 147.127 -1.27493 4.24571 0
M  V30 1550 H 144.347 -0.0407183 0.669763 0
M  V30 1551 H 146.891 0.520352 1.97769 0
M  V30 1552 H 145.046 -1.32373 3.64083 0
M  V30 1553 H 145.46 0.205969 5.24095 0
M  V30 1554 H 146.934 -1.50277 5.31151 0
M  V30 1555 H 147.411 -2.23439 3.78116 0
M  V30 1556 H 148.017 -0.617558 4.20792 0
M  V30 1557 N 146.332 -1.57332 0.0918853 0
M  V30 1558 C 147.262 -2.16872 -0.865371 0
M  V30 1559 C 148.243 -1.10118 -1.29646 0
M  V30 1560 O 149.428 -1.38242 -1.36392 0
M  V30 1561 C 146.558 -2.74649 -2.12569 0
M  V30 1562 C 145.512 -3.86747 -1.83333 0
M  V30 1563 C 144.838 -4.31212 -3.16166 0
M  V30 1564 C 146.138 -5.10089 -1.1228 0
M  V30 1565 H 147.832 -2.97114 -0.369307 0
M  V30 1566 H 145.378 -1.42918 -0.176194 0
M  V30 1567 H 147.331 -3.14952 -2.7997 0
M  V30 1568 H 146.055 -1.91657 -2.64452 0
M  V30 1569 H 144.714 -3.46978 -1.18331 0
M  V30 1570 H 144.362 -3.45115 -3.6593 0
M  V30 1571 H 144.062 -5.06788 -2.97388 0
M  V30 1572 H 145.586 -4.74146 -3.84731 0
M  V30 1573 H 147 -5.47582 -1.69785 0
M  V30 1574 H 145.397 -5.91073 -1.03693 0
M  V30 1575 H 146.467 -4.84786 -0.105041 0
M  V30 1576 N 147.81 0.181792 -1.56548 0
M  V30 1577 C 149.057 0.900097 -1.81396 0
M  V30 1578 C 149.385 1.82695 -0.667281 0
M  V30 1579 O 148.64 1.92614 0.346146 0
M  V30 1580 C 148.939 1.73728 -3.12335 0
M  V30 1581 C 148.605 0.960255 -4.40556 0
M  V30 1582 C 147.267 0.745766 -4.75386 0
M  V30 1583 C 149.619 0.414477 -5.19549 0
M  V30 1584 C 146.947 -0.0257694 -5.86694 0
M  V30 1585 C 149.299 -0.343916 -6.31664 0
M  V30 1586 C 147.963 -0.569301 -6.65068 0
M  V30 1587 H 147.233 0.329369 -0.663775 0
M  V30 1588 H 149.88 0.165647 -1.90782 0
M  V30 1589 H 148.185 2.54081 -2.98245 0
M  V30 1590 H 149.882 2.29591 -3.28769 0
M  V30 1591 H 146.472 1.13746 -4.13231 0
M  V30 1592 H 150.656 0.567554 -4.93044 0
M  V30 1593 H 145.912 -0.210233 -6.11038 0
M  V30 1594 H 150.086 -0.774133 -6.92084 0
M  V30 1595 H 147.713 -1.16903 -7.51158 0
M  V30 1596 N 149.288 1.51039 0.449983 0
M  V30 1597 C 150.218 1.74379 1.55288 0
M  V30 1598 C 151.199 0.593236 1.5942 0
M  V30 1599 O 152.384 0.834625 1.7535 0
M  V30 1600 C 149.514 1.85728 2.93466 0
M  V30 1601 C 148.468 3.01078 3.04197 0
M  V30 1602 C 147.794 2.97595 4.44231 0
M  V30 1603 C 149.094 4.41254 2.7945 0
M  V30 1604 H 150.788 2.66725 1.36008 0
M  V30 1605 H 148.334 1.2835 0.652864 0
M  V30 1606 H 150.287 2.0064 3.70569 0
M  V30 1607 H 149.011 0.900207 3.13949 0
M  V30 1608 H 147.67 2.85851 2.29531 0
M  V30 1609 H 147.318 1.99691 4.61663 0
M  V30 1610 H 147.018 3.75046 4.52343 0
M  V30 1611 H 148.542 3.14583 5.23326 0
M  V30 1612 H 149.956 4.56897 3.46292 0
M  V30 1613 H 148.353 5.20315 2.98985 0
M  V30 1614 H 149.423 4.52164 1.75144 0
M  V30 1615 N 150.766 -0.704594 1.40972 0
M  V30 1616 C 152.015 -1.46018 1.39146 0
M  V30 1617 C 152.328 -1.956 0.000589254 0
M  V30 1618 O 153.534 -2.71137 -0.1403 0
M  V30 1619 C 151.99 -2.63996 2.4461 0
M  V30 1620 C 151.598 -2.21238 3.89561 0
M  V30 1621 C 153.342 -3.41677 2.51907 0
M  V30 1622 C 151.249 -3.3612 4.86598 0
M  V30 1623 H 150.179 -0.548444 0.517422 0
M  V30 1624 H 152.83 -0.765784 1.66757 0
M  V30 1625 H 151.212 -3.3566 2.10115 0
M  V30 1626 H 152.386 -1.56923 4.33257 0
M  V30 1627 H 150.701 -1.56574 3.85841 0
M  V30 1628 H 153.298 -4.27182 3.2159 0
M  V30 1629 H 153.641 -3.86247 1.55303 0
M  V30 1630 H 154.174 -2.77064 2.85448 0
M  V30 1631 H 150.913 -2.96572 5.84573 0
M  V30 1632 H 150.433 -3.99315 4.47557 0
M  V30 1633 H 152.112 -4.02029 5.06934 0
M  V30 1634 N 152.244 -1.26651 -0.937939 0
M  V30 1635 C 153.493 -1.11775 -1.67897 0
M  V30 1636 C 153.806 0.33794 -1.92659 0
M  V30 1637 O 155.012 0.607434 -2.64618 0
M  V30 1638 C 153.468 -1.9523 -3.02346 0
M  V30 1639 C 153.076 -3.45393 -2.8532 0
M  V30 1640 C 154.82 -1.88972 -3.80118 0
M  V30 1641 C 152.727 -4.21083 -4.15263 0
M  V30 1642 H 151.657 -0.414696 -0.629717 0
M  V30 1643 H 154.308 -1.50988 -1.04283 0
M  V30 1644 H 152.69 -1.48853 -3.66959 0
M  V30 1645 H 153.864 -3.99561 -2.29537 0
M  V30 1646 H 152.179 -3.52921 -2.20988 0
M  V30 1647 H 154.776 -2.42805 -4.76392 0
M  V30 1648 H 155.119 -0.86113 -4.07296 0
M  V30 1649 H 155.652 -2.33189 -3.22285 0
M  V30 1650 H 152.391 -5.24425 -3.93267 0
M  V30 1651 H 151.911 -3.71695 -4.70747 0
M  V30 1652 H 153.59 -4.29706 -4.83696 0
M  V30 1653 N 153.722 1.14298 -1.08507 0
M  V30 1654 C 154.685 2.17607 -0.719711 0
M  V30 1655 C 155.685 1.58907 0.245997 0
M  V30 1656 O 156.875 1.74181 0.0254081 0
M  V30 1657 C 154.007 3.40842 -0.0627695 0
M  V30 1658 H 155.2 2.51443 -1.63452 0
M  V30 1659 H 152.753 1.28963 -0.88307 0
M  V30 1660 H 153.488 3.12587 0.863716 0
M  V30 1661 H 153.273 3.84713 -0.757504 0
M  V30 1662 H 154.763 4.17221 0.177786 0
M  V30 1663 N 155.201 0.870884 1.31352 0
M  V30 1664 C 156.449 0.48132 1.96285 0
M  V30 1665 C 156.77 -0.969813 1.69173 0
M  V30 1666 O 156.04 -1.67998 1.00764 0
M  V30 1667 H 154.62 0.175002 0.726212 0
M  V30 1668 H 157.282 1.11087 1.60143 0
M  V30 1669 H 156.378 0.639825 3.05471 0
M  V30 1670 N 156.679 -1.44442 0.630414 0
M  V30 1671 C 157.612 -2.27862 -0.124247 0
M  V30 1672 C 158.59 -1.38495 -0.851931 0
M  V30 1673 O 159.774 -1.67935 -0.856166 0
M  V30 1674 C 156.901 -3.17407 -1.18197 0
M  V30 1675 C 155.947 -4.22875 -0.554892 0
M  V30 1676 S 156.78 -5.31485 0.654489 0
M  V30 1677 C 157.936 -6.246 -0.40326 0
M  V30 1678 H 158.169 -2.91519 0.583435 0
M  V30 1679 H 155.702 -1.48618 0.418565 0
M  V30 1680 H 157.66 -3.69549 -1.78728 0
M  V30 1681 H 156.321 -2.52971 -1.86184 0
M  V30 1682 H 155.514 -4.85542 -1.35148 0
M  V30 1683 H 155.116 -3.73992 -0.0242105 0
M  V30 1684 H 157.408 -6.65375 -1.27602 0
M  V30 1685 H 158.351 -7.07851 0.187813 0
M  V30 1686 H 158.759 -5.59775 -0.728837 0
M  V30 1687 N 158.157 -0.370918 -1.53173 0
M  V30 1688 C 159.568 0.107139 -1.86392 0
M  V30 1689 C 159.919 1.47714 -1.29132 0
M  V30 1690 O 159.044 2.07464 -0.615439 0
M  V30 1691 C 159.639 0.201187 -3.38202 0
M  V30 1692 C 158.198 0.623507 -3.712 0
M  V30 1693 C 157.345 -0.225978 -2.76378 0
M  V30 1694 H 160.296 -0.58951 -1.47345 0
M  V30 1695 H 160.317 1.02377 -3.66468 0
M  V30 1696 H 159.829 -0.796058 -3.79848 0
M  V30 1697 H 157.93 1.62879 -3.35114 0
M  V30 1698 H 158.043 0.394414 -4.77474 0
M  V30 1699 H 156.407 0.305962 -2.52856 0
M  V30 1700 H 157.19 -1.22086 -3.20858 0
M  V30 1701 N 159.635 1.57281 -0.100228 0
M  V30 1702 C 160.565 2.17328 0.853857 0
M  V30 1703 C 161.546 1.10804 1.2906 0
M  V30 1704 O 162.731 1.38963 1.35657 0
M  V30 1705 C 159.861 2.75772 2.11109 0
M  V30 1706 C 158.815 3.87713 1.81279 0
M  V30 1707 C 158.141 4.32882 3.13874 0
M  V30 1708 C 159.441 5.10677 1.09574 0
M  V30 1709 H 161.135 2.97305 0.353545 0
M  V30 1710 H 158.681 1.43009 0.168612 0
M  V30 1711 H 160.634 3.16433 2.78296 0
M  V30 1712 H 159.358 1.93057 2.63432 0
M  V30 1713 H 158.017 3.476 1.16489 0
M  V30 1714 H 157.665 3.47051 3.64095 0
M  V30 1715 H 157.365 5.08358 2.94696 0
M  V30 1716 H 158.889 4.7618 3.82211 0
M  V30 1717 H 160.303 5.48474 1.66879 0
M  V30 1718 H 158.7 5.91615 1.00557 0
M  V30 1719 H 159.77 4.84835 0.0793299 0
M  V30 1720 N 161.113 -0.173488 1.56642 0
M  V30 1721 C 162.36 -0.890465 1.81871 0
M  V30 1722 C 162.688 -1.82339 0.67696 0
M  V30 1723 O 161.943 -1.92795 -0.335926 0
M  V30 1724 C 162.242 -1.72069 3.13252 0
M  V30 1725 C 161.908 -0.936878 4.41059 0
M  V30 1726 C 160.57 -0.720545 4.75775 0
M  V30 1727 C 162.922 -0.386919 5.19762 0
M  V30 1728 C 160.25 0.0568829 5.86672 0
M  V30 1729 C 162.602 0.37741 6.31473 0
M  V30 1730 C 161.266 0.604563 6.64757 0
M  V30 1731 H 160.536 -0.325844 0.665512 0
M  V30 1732 H 163.183 -0.155527 1.90867 0
M  V30 1733 H 161.488 -2.52496 2.99588 0
M  V30 1734 H 163.185 -2.27844 3.29982 0
M  V30 1735 H 159.775 -1.11553 4.13828 0
M  V30 1736 H 163.959 -0.541398 4.93338 0
M  V30 1737 H 159.215 0.242635 6.10918 0
M  V30 1738 H 163.389 0.810825 6.91664 0
M  V30 1739 H 161.016 1.20885 7.50527 0
M  V30 1740 N 162.591 -1.51276 -0.441967 0
M  V30 1741 C 163.821 -1.67273 -1.21257 0
M  V30 1742 C 164.229 -0.367624 -1.85594 0
M  V30 1743 O 163.572 0.663349 -1.71305 0
M  V30 1744 C 163.634 -2.72807 -2.34129 0
M  V30 1745 C 163.298 -4.1554 -1.90198 0
M  V30 1746 C 164.295 -5.00471 -1.40801 0
M  V30 1747 C 161.98 -4.61616 -1.9803 0
M  V30 1748 C 163.974 -6.29536 -0.998174 0
M  V30 1749 C 161.661 -5.90679 -1.56658 0
M  V30 1750 C 162.659 -6.74466 -1.07633 0
M  V30 1751 O 162.347 -8.01116 -0.668459 0
M  V30 1752 H 162.079 -0.564614 -0.371734 0
M  V30 1753 H 164.633 -1.9843 -0.530521 0
M  V30 1754 H 162.863 -2.36954 -3.05597 0
M  V30 1755 H 164.552 -2.77729 -2.96009 0
M  V30 1756 H 165.318 -4.66079 -1.34148 0
M  V30 1757 H 161.197 -3.96526 -2.35135 0
M  V30 1758 H 164.741 -6.94885 -0.61482 0
M  V30 1759 H 160.638 -6.24586 -1.62979 0
M  V30 1760 H 161.406 -8.14633 -0.794722 0
M  V30 1761 N 164.069 0.697108 -1.41344 0
M  V30 1762 C 165.002 1.82134 -1.37486 0
M  V30 1763 C 165.98 1.60784 -0.242351 0
M  V30 1764 O 167.164 1.83553 -0.429012 0
M  V30 1765 C 164.291 3.18788 -1.14421 0
M  V30 1766 C 163.337 3.58932 -2.3037 0
M  V30 1767 S 164.17 3.63916 -3.92843 0
M  V30 1768 C 165.326 5.03298 -3.72078 0
M  V30 1769 H 165.559 1.85129 -2.32625 0
M  V30 1770 H 163.092 0.865671 -1.2785 0
M  V30 1771 H 165.05 3.97677 -1.018 0
M  V30 1772 H 163.711 3.13404 -0.20905 0
M  V30 1773 H 162.904 4.58202 -2.09922 0
M  V30 1774 H 162.506 2.87347 -2.39391 0
M  V30 1775 H 164.798 5.90753 -3.31688 0
M  V30 1776 H 165.741 5.28788 -4.70945 0
M  V30 1777 H 166.149 4.74764 -3.05384 0
M  V30 1778 N 165.547 1.27147 0.931209 0
M  V30 1779 C 166.457 1.11372 2.06478 0
M  V30 1780 C 167.473 0.044645 1.73943 0
M  V30 1781 O 168.649 0.250417 1.99837 0
M  V30 1782 C 165.714 0.758838 3.38294 0
M  V30 1783 C 164.775 1.90841 3.84549 0
M  V30 1784 C 164.008 1.57036 5.10074 0
M  V30 1785 O 164.231 0.476645 5.68405 0
M  V30 1786 O 163.165 2.40839 5.51616 0
M  V30 1787 H 166.991 2.06493 2.22698 0
M  V30 1788 H 164.576 1.06301 1.04978 0
M  V30 1789 H 166.458 0.574098 4.17471 0
M  V30 1790 H 165.133 -0.162879 3.2329 0
M  V30 1791 H 164.04 2.14819 3.06274 0
M  V30 1792 H 165.373 2.81021 4.04089 0
M  V30 1793 N 167.025 -1.13721 1.09112 0
M  V30 1794 C 167.955 -2.21148 0.749385 0
M  V30 1795 C 168.936 -1.6792 -0.271475 0
M  V30 1796 O 170.121 -1.93693 -0.140251 0
M  V30 1797 C 167.251 -3.46905 0.165659 0
M  V30 1798 C 166.205 -4.13203 1.11567 0
M  V30 1799 C 165.531 -5.33248 0.393809 0
M  V30 1800 C 166.831 -4.60912 2.45678 0
M  V30 1801 H 168.525 -2.4999 1.64758 0
M  V30 1802 H 166.071 -1.20156 0.793626 0
M  V30 1803 H 168.024 -4.21313 -0.085466 0
M  V30 1804 H 166.748 -3.17449 -0.767714 0
M  V30 1805 H 165.407 -3.40758 1.35202 0
M  V30 1806 H 165.055 -5.00054 -0.543599 0
M  V30 1807 H 164.755 -5.78552 1.02721 0
M  V30 1808 H 166.279 -6.10413 0.150908 0
M  V30 1809 H 167.693 -5.26759 2.26269 0
M  V30 1810 H 166.09 -5.16944 3.04776 0
M  V30 1811 H 167.16 -3.75603 3.06677 0
M  V30 1812 N 168.503 -0.877838 -1.30888 0
M  V30 1813 C 169.466 -0.344265 -2.266 0
M  V30 1814 C 170.466 0.50922 -1.52524 0
M  V30 1815 O 171.656 0.317398 -1.71284 0
M  V30 1816 C 168.788 0.510198 -3.37061 0
M  V30 1817 H 169.981 -1.1893 -2.7531 0
M  V30 1818 H 167.534 -0.654088 -1.41956 0
M  V30 1819 H 168.269 1.37612 -2.93655 0
M  V30 1820 H 168.054 -0.101047 -3.9197 0
M  V30 1821 H 169.544 0.875537 -4.08319 0
M  V30 1822 N 169.982 1.44106 -0.638065 0
M  V30 1823 C 170.912 2.33448 0.0494287 0
M  V30 1824 C 171.893 1.48606 0.827672 0
M  V30 1825 O 173.078 1.77308 0.792173 0
M  V30 1826 C 170.208 3.31771 1.02691 0
M  V30 1827 C 169.162 4.26485 0.359823 0
M  V30 1828 C 168.488 5.14729 1.44769 0
M  V30 1829 C 169.788 5.17056 -0.738296 0
M  V30 1830 H 171.482 2.91183 -0.696636 0
M  V30 1831 H 169.028 1.40014 -0.336456 0
M  V30 1832 H 170.981 3.93161 1.51666 0
M  V30 1833 H 169.705 2.7226 1.80395 0
M  V30 1834 H 168.364 3.66437 -0.10934 0
M  V30 1835 H 168.012 4.51566 2.21578 0
M  V30 1836 H 167.712 5.78913 1.00668 0
M  V30 1837 H 169.236 5.78991 1.93911 0
M  V30 1838 H 170.65 5.72342 -0.331354 0
M  V30 1839 H 169.047 5.89879 -1.10286 0
M  V30 1840 H 170.117 4.57652 -1.60258 0
M  V30 1841 N 171.46 0.379036 1.52974 0
M  V30 1842 C 172.708 -0.206014 2.01047 0
M  V30 1843 C 173.029 -1.48175 1.26765 0
M  V30 1844 O 172.299 -1.92085 0.384743 0
M  V30 1845 H 170.879 -0.0791184 0.742798 0
M  V30 1846 H 173.541 0.508366 1.88153 0
M  V30 1847 H 172.637 -0.423501 3.09213 0
M  V30 1848 N 172.938 -1.57226 0.108567 0
M  V30 1849 C 173.87 -2.11809 -0.875752 0
M  V30 1850 C 174.883 -1.05839 -1.23701 0
M  V30 1851 O 176.072 -1.33245 -1.18778 0
M  V30 1852 C 173.172 -2.59411 -2.18081 0
M  V30 1853 C 172.345 -3.89364 -1.99284 0
M  V30 1854 C 171.404 -4.22672 -3.13424 0
M  V30 1855 O 170.43 -4.91668 -2.86795 0
M  V30 1856 N 171.632 -3.79154 -4.3957 0
M  V30 1857 H 174.397 -2.9689 -0.409477 0
M  V30 1858 H 171.958 -1.61721 -0.076158 0
M  V30 1859 H 173.95 -2.7873 -2.93414 0
M  V30 1860 H 172.52 -1.79268 -2.5609 0
M  V30 1861 H 171.74 -3.79059 -1.08203 0
M  V30 1862 H 173.028 -4.74358 -1.84017 0
M  V30 1863 H 172.426 -3.23486 -4.64083 0
M  V30 1864 H 170.983 -4.03602 -5.11809 0
M  V30 1865 N 174.416 0.165178 -1.56732 0
M  V30 1866 C 175.646 0.894919 -1.86212 0
M  V30 1867 C 176.054 1.76066 -0.692627 0
M  V30 1868 O 175.397 1.80387 0.347303 0
M  V30 1869 C 175.459 1.8174 -3.10179 0
M  V30 1870 C 175.123 1.13064 -4.42793 0
M  V30 1871 C 176.12 0.493169 -5.17556 0
M  V30 1872 C 173.805 1.12556 -4.89527 0
M  V30 1873 C 175.799 -0.140209 -6.37246 0
M  V30 1874 C 173.486 0.488366 -6.09145 0
M  V30 1875 C 174.484 -0.143411 -6.82849 0
M  V30 1876 O 174.172 -0.77055 -8.00199 0
M  V30 1877 H 173.904 0.265114 -0.621844 0
M  V30 1878 H 176.458 0.168242 -2.0471 0
M  V30 1879 H 174.688 2.58455 -2.87642 0
M  V30 1880 H 176.377 2.4175 -3.26055 0
M  V30 1881 H 177.143 0.489023 -4.82528 0
M  V30 1882 H 173.022 1.60672 -4.32094 0
M  V30 1883 H 176.566 -0.633932 -6.94714 0
M  V30 1884 H 172.463 0.490116 -6.43637 0
M  V30 1885 H 173.231 -0.670408 -8.1575 0
M  V30 1886 N 175.894 1.51508 0.433938 0
M  V30 1887 C 176.842 1.73646 1.54757 0
M  V30 1888 C 177.836 0.602854 1.5831 0
M  V30 1889 O 179.042 0.784318 1.62014 0
M  V30 1890 H 175.417 0.548718 0.51421 0
M  V30 1891 H 177.388 2.66991 1.33261 0
M  V30 1892 C 176.137 1.88172 2.92381 0
M  V30 1893 H 175.46 2.74808 2.90381 0
M  V30 1894 H 176.9 2.07672 3.6966 0
M  V30 1895 C 175.359 0.64239 3.30719 0
M  V30 1896 O 175.889 -0.201362 4.01195 0
M  V30 1897 N 174.095 0.485489 2.86516 0
M  V30 1898 H 173.642 1.17318 2.29334 0
M  V30 1899 H 173.6 -0.342482 3.12529 0
M  V30 1900 N 177.372 -0.689602 1.41712 0
M  V30 1901 C 178.788 -1.00093 1.24312 0
M  V30 1902 C 178.988 -2.01036 0.136729 0
M  V30 1903 O 178.044 -2.47562 -0.496918 0
M  V30 1904 C 179.357 -1.51985 2.59463 0
M  V30 1905 C 180.905 -1.63838 2.66695 0
M  V30 1906 C 181.38 -2.1913 4.02177 0
M  V30 1907 N 182.871 -2.26483 4.04054 0
M  V30 1908 C 183.606 -2.70306 5.0569 0
M  V30 1909 N 183.102 -3.13691 6.17713 0
M  V30 1910 N 184.895 -2.69923 4.9305 0
M  V30 1911 H 177.046 -0.0210029 2.1239 0
M  V30 1912 H 179.309 -0.0718733 0.945272 0
M  V30 1913 H 179.015 -0.85269 3.41207 0
M  V30 1914 H 178.889 -2.50103 2.82362 0
M  V30 1915 H 181.276 -2.29664 1.85306 0
M  V30 1916 H 181.357 -0.642492 2.476 0
M  V30 1917 H 181.001 -1.53918 4.84016 0
M  V30 1918 H 180.931 -3.19482 4.18615 0
M  V30 1919 H 183.422 -1.95874 3.23174 0
M  V30 1920 H 183.735 -3.45773 6.9113 0
M  V30 1921 H 182.08 -3.11585 6.21241 0
M  V30 1922 H 185.271 -2.35382 4.04614 0
M  V30 1923 H 185.444 -3.03758 5.72394 0
M  V30 1924 N 178.85 -1.27639 -0.924453 0
M  V30 1925 C 179.76 -1.12466 -2.05885 0
M  V30 1926 C 180.776 -0.053869 -1.73917 0
M  V30 1927 O 181.952 -0.261012 -1.99702 0
M  V30 1928 C 179.017 -0.776768 -3.37886 0
M  V30 1929 C 178.078 -1.92878 -3.83532 0
M  V30 1930 C 177.311 -1.59739 -5.09234 0
M  V30 1931 O 177.534 -0.506782 -5.68144 0
M  V30 1932 O 176.468 -2.43761 -5.50331 0
M  V30 1933 H 180.294 -2.07671 -2.21599 0
M  V30 1934 H 177.879 -1.06857 -1.04413 0
M  V30 1935 H 179.761 -0.596229 -4.17161 0
M  V30 1936 H 178.436 0.145732 -3.23372 0
M  V30 1937 H 177.343 -2.1644 -3.0513 0
M  V30 1938 H 178.676 -2.8316 -4.02593 0
M  V30 1939 N 180.328 1.1314 -1.09713 0
M  V30 1940 C 181.576 1.84119 -0.833338 0
M  V30 1941 C 181.897 1.84097 0.642904 0
M  V30 1942 O 181.167 1.29881 1.46655 0
M  V30 1943 H 179.747 0.681766 -0.305293 0
M  V30 1944 H 182.409 1.37038 -1.38588 0
M  V30 1945 H 181.505 2.88543 -1.18951 0
M  V30 1946 N 181.806 0.884767 1.30421 0
M  V30 1947 C 182.769 0.356277 2.26414 0
M  V30 1948 C 183.769 -0.501124 1.52792 0
M  V30 1949 O 184.959 -0.30831 1.7145 0
M  V30 1950 C 182.091 -0.492316 3.37326 0
M  V30 1951 H 183.284 1.20389 2.74675 0
M  V30 1952 H 180.837 0.661607 1.41607 0
M  V30 1953 H 181.572 -1.36052 2.94381 0
M  V30 1954 H 181.357 0.121832 3.91911 0
M  V30 1955 H 182.847 -0.853871 4.08777 0
M  V30 1956 N 183.284 -1.43765 0.645699 0
M  V30 1957 C 184.247 -2.29163 -0.0409488 0
M  V30 1958 C 185.247 -1.41813 -0.757996 0
M  V30 1959 O 186.437 -1.63527 -0.600382 0
M  V30 1960 C 183.569 -3.23716 -1.06869 0
M  V30 1961 H 184.762 -2.91366 0.710345 0
M  V30 1962 H 182.315 -1.5092 0.406547 0
M  V30 1963 H 183.05 -2.66393 -1.84947 0
M  V30 1964 H 182.835 -3.88105 -0.558277 0
M  V30 1965 H 184.325 -3.87831 -1.54845 0
M  V30 1966 N 184.763 -0.387143 -1.52771 0
M  V30 1967 C 185.991 0.195869 -2.05971 0
M  V30 1968 C 186.406 1.40691 -1.25903 0
M  V30 1969 O 185.763 1.79931 -0.305134 0
M  V30 1970 C 185.814 0.56812 -3.57008 0
M  V30 1971 O 185.535 -0.594803 -4.34043 0
M  V30 1972 C 187.036 1.20723 -4.26545 0
M  V30 1973 H 184.256 0.0300578 -0.670326 0
M  V30 1974 H 186.8 -0.551749 -1.96916 0
M  V30 1975 H 184.955 1.26564 -3.66143 0
M  V30 1976 H 185.369 -0.289322 -5.23701 0
M  V30 1977 H 186.843 1.41807 -5.33474 0
M  V30 1978 H 187.32 2.17395 -3.81623 0
M  V30 1979 H 187.926 0.550535 -4.21722 0
M  V30 1980 N 186.241 1.57166 -0.116904 0
M  V30 1981 C 187.487 1.95412 0.542405 0
M  V30 1982 C 187.82 1.00019 1.66463 0
M  V30 1983 O 187.095 0.0370346 1.94465 0
M  V30 1984 C 187.378 3.43615 1.07708 0
M  V30 1985 C 187.231 4.49781 -0.0415868 0
M  V30 1986 C 188.55 3.93616 1.96861 0
M  V30 1987 H 185.669 0.710543 0.195696 0
M  V30 1988 H 188.311 1.89027 -0.192038 0
M  V30 1989 H 186.461 3.49187 1.70296 0
M  V30 1990 H 188.133 4.56308 -0.676793 0
M  V30 1991 H 186.376 4.28033 -0.705019 0
M  V30 1992 H 187.047 5.50733 0.373717 0
M  V30 1993 H 189.523 3.90335 1.44146 0
M  V30 1994 H 188.399 4.97838 2.3119 0
M  V30 1995 H 188.66 3.34188 2.89432 0
M  V30 1996 N 187.719 -0.156864 1.56817 0
M  V30 1997 C 188.965 -0.867645 1.83966 0
M  V30 1998 C 189.32 -1.79233 0.699511 0
M  V30 1999 O 188.613 -1.89186 -0.303176 0
M  V30 2000 C 188.807 -1.68737 3.1506 0
M  V30 2001 C 188.636 -0.843548 4.41718 0
M  V30 2002 C 187.406 -0.512994 5.02689 0
M  V30 2003 C 189.604 -0.178416 5.1399 0
M  V30 2004 N 187.586 0.345456 6.12927 0
M  V30 2005 C 188.957 0.540586 6.17639 0
M  V30 2006 C 191.012 -0.0980696 4.97803 0
M  V30 2007 C 189.715 1.33233 7.06853 0
M  V30 2008 C 191.741 0.680387 5.87473 0
M  V30 2009 C 191.103 1.3877 6.90596 0
M  V30 2010 H 187.202 -0.295642 0.723961 0
M  V30 2011 H 189.786 -0.13365 1.94241 0
M  V30 2012 H 187.957 -2.39268 3.0595 0
M  V30 2013 H 189.689 -2.34056 3.30151 0
M  V30 2014 H 186.444 -0.846476 4.65974 0
M  V30 2015 H 186.868 0.765415 6.72659 0
M  V30 2016 H 191.51 -0.630562 4.18071 0
M  V30 2017 H 189.228 1.87612 7.8602 0
M  V30 2018 H 192.814 0.744415 5.77018 0
M  V30 2019 H 191.694 1.9804 7.58782 0
M  V30 2020 N 189.197 -1.51736 -0.425897 0
M  V30 2021 C 190.144 -1.73875 -1.51776 0
M  V30 2022 C 191.114 -0.580702 -1.55618 0
M  V30 2023 O 192.299 -0.81641 -1.72451 0
M  V30 2024 C 189.439 -1.88012 -2.89388 0
M  V30 2025 C 188.552 -3.15606 -2.94986 0
M  V30 2026 C 187.687 -3.20271 -4.23793 0
M  V30 2027 C 186.726 -4.42134 -4.23302 0
M  V30 2028 N 185.863 -4.44284 -5.43651 0
M  V30 2029 H 190.703 -2.67071 -1.32201 0
M  V30 2030 H 188.24 -1.32351 -0.642008 0
M  V30 2031 H 190.198 -1.9419 -3.69251 0
M  V30 2032 H 188.828 -0.98213 -3.07496 0
M  V30 2033 H 187.88 -3.18681 -2.07717 0
M  V30 2034 H 189.192 -4.05486 -2.90486 0
M  V30 2035 H 188.346 -3.25428 -5.12036 0
M  V30 2036 H 187.085 -2.28299 -4.30965 0
M  V30 2037 H 186.09 -4.3714 -3.3345 0
M  V30 2038 H 187.315 -5.35382 -4.17783 0
M  V30 2039 H 185.261 -3.55188 -5.51523 0
M  V30 2040 H 185.178 -5.27988 -5.41078 0
M  V30 2041 H 186.446 -4.53649 -6.33895 0
M  V30 2042 N 190.675 0.682077 -1.42076 0
M  V30 2043 C 191.924 1.43786 -1.41451 0
M  V30 2044 C 192.237 1.95574 -0.0317074 0
M  V30 2045 O 193.443 2.71326 0.0971462 0
M  V30 2046 C 191.899 2.60071 -2.48779 0
M  V30 2047 C 191.507 2.15013 -3.93031 0
M  V30 2048 C 193.251 3.37626 -2.57311 0
M  V30 2049 C 191.158 3.28336 -4.91883 0
M  V30 2050 H 190.088 0.540143 -0.526082 0
M  V30 2051 H 192.739 0.739157 -1.67955 0
M  V30 2052 H 191.121 3.32275 -2.15429 0
M  V30 2053 H 192.295 1.5001 -4.35699 0
M  V30 2054 H 190.61 1.50416 -3.88284 0
M  V30 2055 H 193.207 4.22012 -3.28345 0
M  V30 2056 H 193.55 3.83727 -1.61429 0
M  V30 2057 H 194.083 2.72488 -2.89819 0
M  V30 2058 H 190.822 2.87234 -5.89217 0
M  V30 2059 H 190.342 3.92145 -4.53853 0
M  V30 2060 H 192.021 3.93913 -5.13265 0
M  V30 2061 N 192.153 1.28127 0.917671 0
M  V30 2062 C 193.393 1.163 1.68088 0
M  V30 2063 C 193.757 -0.284515 1.8988 0
M  V30 2064 O 194.958 -0.525413 2.63615 0
M  V30 2065 C 193.229 1.93546 3.00457 0
M  V30 2066 S 194.788 1.98048 3.91564 0
M  V30 2067 H 191.606 0.415005 0.577315 0
M  V30 2068 H 194.208 1.62173 1.09179 0
M  V30 2069 H 192.912 2.97888 2.82295 0
M  V30 2070 H 192.443 1.48207 3.64415 0
M  V30 2071 H 194.458 1.08415 4.84211 0
M  V30 2072 N 193.631 -1.12557 1.10312 0
M  V30 2073 C 195.042 -1.65574 0.862678 0
M  V30 2074 C 195.393 -1.86566 -0.607256 0
M  V30 2075 O 194.518 -1.59121 -1.46662 0
M  V30 2076 C 195.113 -3.00776 1.55947 0
M  V30 2077 C 193.672 -3.50748 1.36576 0
M  V30 2078 C 192.819 -2.25797 1.60968 0
M  V30 2079 H 195.77 -0.963552 1.26101 0
M  V30 2080 H 195.791 -3.67185 0.997753 0
M  V30 2081 H 195.303 -2.85465 2.62928 0
M  V30 2082 H 193.404 -3.71245 0.317531 0
M  V30 2083 H 193.517 -4.30289 2.10686 0
M  V30 2084 H 191.881 -2.32841 1.03234 0
M  V30 2085 H 192.664 -2.13043 2.69198 0
M  V30 2086 N 195.109 -0.891671 -1.2995 0
M  V30 2087 C 196.356 -0.513501 -1.95881 0
M  V30 2088 C 196.684 0.938655 -1.70351 0
M  V30 2089 O 195.939 1.67936 -1.00478 0
M  V30 2090 C 196.238 -0.742868 -3.49594 0
M  V30 2091 C 195.904 -2.17114 -3.95186 0
M  V30 2092 C 194.566 -2.56169 -4.07346 0
M  V30 2093 C 196.918 -3.10162 -4.18866 0
M  V30 2094 C 194.246 -3.87469 -4.4055 0
M  V30 2095 C 196.598 -4.41001 -4.53542 0
M  V30 2096 C 195.262 -4.79941 -4.63911 0
M  V30 2097 H 194.532 -0.187903 -0.71678 0
M  V30 2098 H 197.179 -1.1288 -1.54694 0
M  V30 2099 H 195.484 -0.044586 -3.91775 0
M  V30 2100 H 197.181 -0.429767 -3.9869 0
M  V30 2101 H 193.771 -1.85801 -3.86233 0
M  V30 2102 H 197.955 -2.81206 -4.08946 0
M  V30 2103 H 193.211 -4.17371 -4.46779 0
M  V30 2104 H 197.385 -5.13133 -4.70815 0
M  V30 2105 H 195.012 -5.81719 -4.89395 0
M  V30 2106 N 196.587 1.43421 -0.653314 0
M  V30 2107 C 197.834 2.01812 -0.166745 0
M  V30 2108 C 198.162 1.51535 1.21931 0
M  V30 2109 O 197.417 0.698975 1.82792 0
M  V30 2110 C 197.716 3.57176 -0.126623 0
M  V30 2111 C 197.382 4.26798 -1.45444 0
M  V30 2112 C 196.044 4.45534 -1.81805 0
M  V30 2113 C 198.396 4.66225 -2.32989 0
M  V30 2114 C 195.724 5.00961 -3.05377 0
M  V30 2115 C 198.076 5.23021 -3.55853 0
M  V30 2116 C 196.74 5.39973 -3.9241 0
M  V30 2117 H 196.01 0.738484 -0.0610162 0
M  V30 2118 H 198.657 1.71896 -0.84404 0
M  V30 2119 H 196.962 3.86634 0.634123 0
M  V30 2120 H 198.659 4.00112 0.266723 0
M  V30 2121 H 195.249 4.12561 -1.16153 0
M  V30 2122 H 199.433 4.51443 -2.06187 0
M  V30 2123 H 194.689 5.12271 -3.3375 0
M  V30 2124 H 198.863 5.52518 -4.23907 0
M  V30 2125 H 196.49 5.82687 -4.88242 0
M  V30 2126 N 198.065 0.39524 1.52563 0
M  V30 2127 C 199.012 -0.437036 2.26624 0
M  V30 2128 C 199.982 -1.05281 1.28472 0
M  V30 2129 O 201.167 -1.07971 1.57311 0
M  V30 2130 C 198.307 -1.55524 3.08069 0
M  V30 2131 C 197.42 -0.961745 4.21158 0
M  V30 2132 C 196.555 -2.05149 4.89987 0
M  V30 2133 C 195.594 -1.4342 5.95061 0
M  V30 2134 N 194.731 -2.46351 6.57462 0
M  V30 2135 H 199.571 0.200976 2.97322 0
M  V30 2136 H 197.108 0.110944 1.46681 0
M  V30 2137 H 199.066 -2.21437 3.53584 0
M  V30 2138 H 197.696 -2.16348 2.3957 0
M  V30 2139 H 196.748 -0.192048 3.79915 0
M  V30 2140 H 198.06 -0.470701 4.96574 0
M  V30 2141 H 197.214 -2.78819 5.38837 0
M  V30 2142 H 195.953 -2.57615 4.14109 0
M  V30 2143 H 194.958 -0.682774 5.45544 0
M  V30 2144 H 196.183 -0.917416 6.72875 0
M  V30 2145 H 194.129 -2.97975 5.8442 0
M  V30 2146 H 194.046 -2.02019 7.28508 0
M  V30 2147 H 195.314 -3.19633 7.10954 0
M  V30 2148 N 199.544 -1.57102 0.125237 0
M  V30 2149 C 200.792 -1.95021 -0.530198 0
M  V30 2150 C 201.113 -1.00982 -1.66816 0
M  V30 2151 O 200.383 -0.0672693 -1.95784 0
M  V30 2152 H 198.963 -0.720046 -0.198853 0
M  V30 2153 H 201.625 -1.93916 0.19564 0
M  V30 2154 H 200.721 -2.98211 -0.920681 0
M  V30 2155 N 201.022 0.148545 -1.56898 0
M  V30 2156 C 202.268 0.862694 -1.83536 0
M  V30 2157 C 202.601 1.80889 -0.706604 0
M  V30 2158 O 201.876 1.92328 0.289885 0
M  V30 2159 C 202.159 1.63853 -3.20662 0
M  V30 2160 C 202.012 0.713925 -4.44098 0
M  V30 2161 C 203.331 2.60133 -3.54991 0
M  V30 2162 H 200.45 0.312179 -0.667618 0
M  V30 2163 H 203.092 0.127953 -1.89569 0
M  V30 2164 H 201.242 2.26489 -3.1565 0
M  V30 2165 H 202.914 0.098686 -4.61194 0
M  V30 2166 H 201.157 0.0234019 -4.33794 0
M  V30 2167 H 201.828 1.29278 -5.36648 0
M  V30 2168 H 204.304 2.07616 -3.60603 0
M  V30 2169 H 203.18 3.11468 -4.51972 0
M  V30 2170 H 203.441 3.41417 -2.80868 0
M  V30 2171 N 202.5 1.5196 0.417844 0
M  V30 2172 C 203.748 1.65263 1.16329 0
M  V30 2173 C 204.069 0.380634 1.91249 0
M  V30 2174 O 203.339 -0.604214 1.86349 0
M  V30 2175 H 201.919 0.60912 0.432414 0
M  V30 2176 H 204.581 1.88969 0.477162 0
M  V30 2177 H 203.677 2.4896 1.88217 0
M  V30 2178 N 203.978 -0.674533 1.42435 0
M  V30 2179 C 205.208 -1.46071 1.46105 0
M  V30 2180 C 205.616 -1.89067 0.0709605 0
M  V30 2181 O 204.959 -1.58731 -0.924677 0
M  V30 2182 C 205.021 -2.74145 2.32561 0
M  V30 2183 C 204.685 -2.53224 3.8043 0
M  V30 2184 C 205.682 -2.17809 4.72075 0
M  V30 2185 C 203.367 -2.6821 4.24698 0
M  V30 2186 C 205.361 -1.97648 6.05982 0
M  V30 2187 C 203.048 -2.47665 5.58664 0
M  V30 2188 C 204.046 -2.12437 6.49122 0
M  V30 2189 O 203.734 -1.9209 7.80613 0
M  V30 2190 H 203.466 -0.455959 0.499076 0
M  V30 2191 H 206.02 -0.836193 1.87609 0
M  V30 2192 H 204.25 -3.3908 1.85908 0
M  V30 2193 H 205.939 -3.36028 2.27683 0
M  V30 2194 H 206.705 -2.05826 4.39159 0
M  V30 2195 H 202.584 -2.94609 3.54579 0
M  V30 2196 H 206.128 -1.70075 6.7655 0
M  V30 2197 H 202.025 -2.59244 5.91154 0
M  V30 2198 H 202.793 -2.06686 7.91974 0
M  V30 2199 N 205.456 -1.28612 -0.910864 0
M  V30 2200 C 206.419 -1.12803 -1.9952 0
M  V30 2201 C 207.419 -0.0668264 -1.60661 0
M  V30 2202 O 208.609 -0.312847 -1.71368 0
M  V30 2203 C 205.741 -0.72254 -3.33155 0
M  V30 2204 H 206.934 -2.09109 -2.14973 0
M  V30 2205 H 204.487 -1.11639 -1.09391 0
M  V30 2206 H 205.222 0.241152 -3.23402 0
M  V30 2207 H 205.007 -1.48916 -3.62721 0
M  V30 2208 H 206.497 -0.634666 -4.12749 0
M  V30 2209 N 206.934 1.1197 -1.10907 0
M  V30 2210 C 208.18 1.8386 -0.855773 0
M  V30 2211 C 208.513 1.84134 0.617103 0
M  V30 2212 O 207.788 1.29041 1.45529 0
M  V30 2213 C 208.071 3.31305 -1.411 0
M  V30 2214 C 207.924 3.39456 -2.9511 0
M  V30 2215 C 209.243 4.2721 -1.05736 0
M  V30 2216 H 206.362 0.667545 -0.312334 0
M  V30 2217 H 209.004 1.31331 -1.37303 0
M  V30 2218 H 207.154 3.76169 -0.97105 0
M  V30 2219 H 208.826 3.03191 -3.47668 0
M  V30 2220 H 207.069 2.79849 -3.31462 0
M  V30 2221 H 207.74 4.43209 -3.29044 0
M  V30 2222 H 210.216 3.90497 -1.43706 0
M  V30 2223 H 209.092 5.28775 -1.47269 0
M  V30 2224 H 209.353 4.42088 0.0325958 0
M  V30 2225 N 208.412 0.89855 1.29475 0
M  V30 2226 C 209.661 0.519863 1.94885 0
M  V30 2227 C 209.974 -0.9383 1.71625 0
M  V30 2228 O 211.18 -1.42445 2.31131 0
M  V30 2229 C 209.636 0.878836 3.49005 0
M  V30 2230 C 209.244 2.35569 3.81066 0
M  V30 2231 C 210.988 0.570004 4.20656 0
M  V30 2232 C 208.895 2.65558 5.28425 0
M  V30 2233 H 207.825 0.190692 0.729488 0
M  V30 2234 H 210.476 1.09539 1.47219 0
M  V30 2235 H 208.858 0.232253 3.95318 0
M  V30 2236 H 210.032 3.04773 3.45616 0
M  V30 2237 H 208.347 2.63343 3.22552 0
M  V30 2238 H 210.944 0.770925 5.29113 0
M  V30 2239 H 211.287 -0.491404 4.1339 0
M  V30 2240 H 211.82 1.17438 3.8007 0
M  V30 2241 H 208.559 3.70493 5.40754 0
M  V30 2242 H 208.079 2.00977 5.65127 0
M  V30 2243 H 209.758 2.51765 5.96006 0
M  V30 2244 N 209.89 -1.43072 0.660911 0
M  V30 2245 C 210.82 -2.33497 -0.0122829 0
M  V30 2246 C 211.801 -1.49903 -0.803925 0
M  V30 2247 O 212.986 -1.78546 -0.763864 0
M  V30 2248 C 210.116 -3.33363 -0.973994 0
M  V30 2249 C 209.07 -4.27003 -0.291928 0
M  V30 2250 C 208.396 -5.16967 -1.36562 0
M  V30 2251 C 209.696 -5.15816 0.820462 0
M  V30 2252 H 211.39 -2.90038 0.742873 0
M  V30 2253 H 208.936 -1.39461 0.358688 0
M  V30 2254 H 210.889 -3.95524 -1.45392 0
M  V30 2255 H 209.613 -2.75095 -1.7604 0
M  V30 2256 H 208.272 -3.66217 0.167623 0
M  V30 2257 H 207.92 -4.55034 -2.14366 0
M  V30 2258 H 207.62 -5.80441 -0.914454 0
M  V30 2259 H 209.144 -5.82003 -1.84675 0
M  V30 2260 H 210.558 -5.71742 0.422366 0
M  V30 2261 H 208.955 -5.8805 1.19656 0
M  V30 2262 H 210.025 -4.55045 1.67518 0
M  V30 2263 N 211.368 -0.403325 -1.52352 0
M  V30 2264 C 212.617 0.175668 -2.00934 0
M  V30 2265 C 212.93 1.46718 -1.29356 0
M  V30 2266 O 214.136 2.12708 -1.68724 0
M  V30 2267 C 212.592 0.363612 -3.58058 0
M  V30 2268 C 212.2 -0.915472 -4.38547 0
M  V30 2269 C 213.944 0.89821 -4.14888 0
M  V30 2270 C 211.851 -0.695035 -5.87302 0
M  V30 2271 H 210.781 0.0694234 -0.750797 0
M  V30 2272 H 213.432 -0.527879 -1.75743 0
M  V30 2273 H 211.814 1.12935 -3.79555 0
M  V30 2274 H 212.988 -1.68691 -4.28812 0
M  V30 2275 H 211.303 -1.37606 -3.93006 0
M  V30 2276 H 213.9 1.07907 -5.23699 0
M  V30 2277 H 214.243 1.87126 -3.71873 0
M  V30 2278 H 214.776 0.191681 -3.97338 0
M  V30 2279 H 211.515 -1.63948 -6.34666 0
M  V30 2280 H 211.035 0.0372116 -5.99788 0
M  V30 2281 H 212.714 -0.33497 -6.46132 0
M  V30 2282 N 212.846 1.57033 -0.133567 0
M  V30 2283 C 213.809 2.14897 0.796995 0
M  V30 2284 C 214.809 1.0874 1.18458 0
M  V30 2285 O 215.999 1.34446 1.1077 0
M  V30 2286 C 213.131 2.70112 2.07973 0
M  V30 2287 H 214.324 2.98457 0.293873 0
M  V30 2288 H 211.877 1.55871 0.115787 0
M  V30 2289 H 212.612 1.9018 2.62682 0
M  V30 2290 H 212.397 3.47764 1.81115 0
M  V30 2291 H 213.887 3.14738 2.74462 0
M  V30 2292 N 214.325 -0.140222 1.56975 0
M  V30 2293 C 215.255 -1.17456 2.01808 0
M  V30 2294 C 216.236 -1.44415 0.898794 0
M  V30 2295 O 217.421 -1.5522 1.16707 0
M  V30 2296 C 214.551 -2.50607 2.40444 0
M  V30 2297 C 213.505 -2.38155 3.55621 0
M  V30 2298 C 212.831 -3.76078 3.80091 0
M  V30 2299 C 214.131 -1.85991 4.88062 0
M  V30 2300 H 215.825 -0.801743 2.88466 0
M  V30 2301 H 213.371 -0.38422 1.38779 0
M  V30 2302 H 215.324 -3.23197 2.7041 0
M  V30 2303 H 214.048 -2.89737 1.50732 0
M  V30 2304 H 212.707 -1.68016 3.25832 0
M  V30 2305 H 212.355 -4.12656 2.87618 0
M  V30 2306 H 212.055 -3.68606 4.57606 0
M  V30 2307 H 213.579 -4.50206 4.12488 0
M  V30 2308 H 214.993 -2.4838 5.16701 0
M  V30 2309 H 213.39 -1.89393 5.6943 0
M  V30 2310 H 214.46 -0.816023 4.77984 0
M  V30 2311 N 215.803 -1.52179 -0.40978 0
M  V30 2312 C 217.033 -1.69807 -1.17682 0
M  V30 2313 C 217.441 -0.406908 -1.84773 0
M  V30 2314 O 216.784 0.626863 -1.72673 0
M  V30 2315 C 216.846 -2.77712 -2.2829 0
M  V30 2316 C 216.51 -4.19481 -1.81341 0
M  V30 2317 C 217.507 -5.03345 -1.30154 0
M  V30 2318 C 215.192 -4.65713 -1.88194 0
M  V30 2319 C 217.186 -6.31511 -0.864416 0
M  V30 2320 C 214.873 -5.93869 -1.44093 0
M  V30 2321 C 215.871 -6.76597 -0.933023 0
M  V30 2322 O 215.559 -8.02354 -0.49838 0
M  V30 2323 H 215.291 -0.572372 -0.359675 0
M  V30 2324 H 217.845 -1.99511 -0.488311 0
M  V30 2325 H 216.075 -2.43383 -3.00502 0
M  V30 2326 H 217.764 -2.83946 -2.90051 0
M  V30 2327 H 218.53 -4.68819 -1.24232 0
M  V30 2328 H 214.409 -4.01424 -2.26671 0
M  V30 2329 H 217.953 -6.96033 -0.467286 0
M  V30 2330 H 213.85 -6.27903 -1.49694 0
M  V30 2331 H 214.618 -8.16135 -0.621747 0
M  V30 2332 N 217.281 0.66697 -1.42791 0
M  V30 2333 C 218.527 1.4291 -1.43891 0
M  V30 2334 C 218.86 1.94114 -0.0578972 0
M  V30 2335 O 218.135 1.71414 0.91911 0
M  V30 2336 C 218.418 2.62049 -2.46987 0
M  V30 2337 C 218.271 2.16426 -3.94309 0
M  V30 2338 C 219.59 3.64266 -2.46978 0
M  V30 2339 H 216.709 0.518306 -0.523954 0
M  V30 2340 H 219.351 0.757321 -1.74255 0
M  V30 2341 H 217.501 3.19361 -2.21225 0
M  V30 2342 H 219.173 1.64221 -4.31079 0
M  V30 2343 H 217.416 1.47925 -4.078 0
M  V30 2344 H 218.087 3.02038 -4.62036 0
M  V30 2345 H 220.563 3.16686 -2.69906 0
M  V30 2346 H 219.439 4.45196 -3.21079 0
M  V30 2347 H 219.7 4.15927 -1.49857 0
M  V30 2348 N 218.759 1.29093 0.90403 0
M  V30 2349 C 220.007 1.16583 1.65085 0
M  V30 2350 C 220.328 -0.283933 1.92922 0
M  V30 2351 O 219.598 -1.19509 1.55224 0
M  V30 2352 H 218.178 0.428467 0.611903 0
M  V30 2353 H 220.84 1.61959 1.08422 0
M  V30 2354 H 219.936 1.71266 2.6091 0
M  V30 2355 N 220.237 -1.11381 1.11499 0
M  V30 2356 C 221.484 -1.83132 0.864231 0
M  V30 2357 C 221.812 -1.84683 -0.610114 0
M  V30 2358 O 221.067 -1.29589 -1.46646 0
M  V30 2359 C 221.366 -3.30026 1.37177 0
M  V30 2360 C 221.032 -3.48634 2.85946 0
M  V30 2361 C 219.694 -3.53421 3.26569 0
M  V30 2362 C 222.046 -3.54837 3.81759 0
M  V30 2363 C 219.374 -3.61967 4.61733 0
M  V30 2364 C 221.726 -3.64915 5.1674 0
M  V30 2365 C 220.39 -3.67962 5.5692 0
M  V30 2366 H 219.66 -0.670127 0.316245 0
M  V30 2367 H 222.307 -1.31354 1.3935 0
M  V30 2368 H 220.612 -3.84304 0.762753 0
M  V30 2369 H 222.309 -3.84034 1.15408 0
M  V30 2370 H 218.899 -3.45579 2.53521 0
M  V30 2371 H 223.083 -3.50399 3.51474 0
M  V30 2372 H 218.339 -3.62603 4.92269 0
M  V30 2373 H 222.513 -3.68658 5.90816 0
M  V30 2374 H 220.14 -3.74336 6.61647 0
M  V30 2375 N 221.715 -0.905404 -1.28997 0
M  V30 2376 C 222.945 -0.549049 -1.99171 0
M  V30 2377 C 223.353 0.87203 -1.67906 0
M  V30 2378 O 222.696 1.58796 -0.923561 0
M  V30 2379 C 222.758 -0.668306 -3.53234 0
M  V30 2380 C 222.422 -2.0574 -4.08069 0
M  V30 2381 C 223.419 -3.0292 -4.22534 0
M  V30 2382 C 221.104 -2.36833 -4.42962 0
M  V30 2383 C 223.098 -4.29314 -4.71135 0
M  V30 2384 C 220.785 -3.63467 -4.91258 0
M  V30 2385 C 221.783 -4.59522 -5.053 0
M  V30 2386 O 221.471 -5.83907 -5.52546 0
M  V30 2387 H 221.203 -0.208784 -0.64295 0
M  V30 2388 H 223.757 -1.21836 -1.65363 0
M  V30 2389 H 221.987 0.0580547 -3.86656 0
M  V30 2390 H 223.676 -0.320273 -4.04634 0
M  V30 2391 H 224.442 -2.80216 -3.95859 0
M  V30 2392 H 220.321 -1.62824 -4.31288 0
M  V30 2393 H 223.865 -5.04293 -4.8201 0
M  V30 2394 H 219.762 -3.86 -5.17372 0
M  V30 2395 H 220.53 -5.86578 -5.70849 0
M  V30 2396 N 223.193 1.4272 -0.668489 0
M  V30 2397 C 224.423 2.05668 -0.196063 0
M  V30 2398 C 224.831 1.5028 1.14946 0
M  V30 2399 O 224.174 0.6348 1.72383 0
M  V30 2400 C 224.236 3.59469 -0.0468879 0
M  V30 2401 C 223.9 4.37518 -1.32012 0
M  V30 2402 C 224.897 4.68584 -2.25222 0
M  V30 2403 C 222.582 4.77266 -1.56596 0
M  V30 2404 C 224.576 5.38326 -3.41297 0
M  V30 2405 C 222.263 5.4675 -2.72962 0
M  V30 2406 C 223.261 5.77204 -3.65137 0
M  V30 2407 O 222.949 6.45264 -4.79468 0
M  V30 2408 H 222.681 0.669382 -0.0943599 0
M  V30 2409 H 225.235 1.83954 -0.913788 0
M  V30 2410 H 223.465 3.79817 0.726357 0
M  V30 2411 H 225.154 4.04071 0.384852 0
M  V30 2412 H 225.92 4.38382 -2.07477 0
M  V30 2413 H 221.799 4.52959 -0.857249 0
M  V30 2414 H 225.343 5.62014 -4.13263 0
M  V30 2415 H 221.24 5.76369 -2.90635 0
M  V30 2416 H 222.008 6.63753 -4.78931 0
M  V30 2417 N 224.671 0.411399 1.52136 0
M  V30 2418 C 225.619 -0.427633 2.28635 0
M  V30 2419 C 226.613 -1.04383 1.33419 0
M  V30 2420 O 227.819 -0.981772 1.50868 0
M  V30 2421 H 224.194 -0.156689 0.735495 0
M  V30 2422 H 226.165 0.238761 2.97443 0
M  V30 2423 C 224.914 -1.53082 3.12188 0
M  V30 2424 H 224.237 -1.06601 3.85326 0
M  V30 2425 H 225.677 -2.09167 3.68816 0
M  V30 2426 C 224.136 -2.49946 2.25895 0
M  V30 2427 O 224.666 -3.53884 1.90076 0
M  V30 2428 N 222.872 -2.2021 1.8962 0
M  V30 2429 H 222.419 -1.35719 2.18948 0
M  V30 2430 H 222.377 -2.85266 1.32176 0
M  V30 2431 N 226.149 -1.5696 0.141893 0
M  V30 2432 C 227.395 -1.9625 -0.511248 0
M  V30 2433 C 227.728 -1.02654 -1.64851 0
M  V30 2434 O 227.003 -0.0679676 -1.94381 0
M  V30 2435 C 227.286 -3.45285 -1.02227 0
M  V30 2436 C 227.139 -4.49658 0.113138 0
M  V30 2437 C 228.458 -3.96698 -1.90574 0
M  V30 2438 H 225.577 -0.713567 -0.184367 0
M  V30 2439 H 228.219 -1.88698 0.222087 0
M  V30 2440 H 226.369 -3.51852 -1.64719 0
M  V30 2441 H 228.041 -4.55174 0.749302 0
M  V30 2442 H 226.284 -4.26857 0.773026 0
M  V30 2443 H 226.955 -5.51258 -0.286053 0
M  V30 2444 H 229.431 -3.92578 -1.37918 0
M  V30 2445 H 228.307 -5.01453 -2.2324 0
M  V30 2446 H 228.568 -3.3875 -2.84079 0
M  V30 2447 N 227.627 0.131896 -1.57047 0
M  V30 2448 C 228.876 0.84044 -1.83356 0
M  V30 2449 C 229.189 1.81646 -0.725535 0
M  V30 2450 O 230.395 2.57025 -0.874659 0
M  V30 2451 C 228.851 1.54528 -3.25037 0
M  V30 2452 C 228.459 0.610902 -4.43815 0
M  V30 2453 C 230.203 2.23972 -3.60606 0
M  V30 2454 C 228.11 1.31823 -5.76521 0
M  V30 2455 H 227.04 0.317599 -0.683847 0
M  V30 2456 H 229.691 0.0931561 -1.83263 0
M  V30 2457 H 228.073 2.33873 -3.19561 0
M  V30 2458 H 229.247 -0.148407 -4.60561 0
M  V30 2459 H 227.562 0.0241016 -4.16393 0
M  V30 2460 H 230.159 2.77558 -4.57018 0
M  V30 2461 H 230.502 3.01173 -2.87403 0
M  V30 2462 H 231.035 1.51529 -3.6781 0
M  V30 2463 H 227.774 0.587771 -6.52859 0
M  V30 2464 H 227.294 2.04987 -5.63685 0
M  V30 2465 H 228.973 1.855 -6.19838 0
M  V30 2466 N 229.106 1.52395 0.401703 0
M  V30 2467 C 230.355 1.66044 1.14509 0
M  V30 2468 C 230.668 0.400216 1.91462 0
M  V30 2469 O 231.874 0.416632 2.68284 0
M  V30 2470 C 230.33 2.93388 2.0845 0
M  V30 2471 C 229.938 4.26545 1.36978 0
M  V30 2472 C 231.682 3.16402 2.83001 0
M  V30 2473 C 229.589 5.45007 2.29611 0
M  V30 2474 H 228.519 0.618562 0.431158 0
M  V30 2475 H 231.17 1.78886 0.40892 0
M  V30 2476 H 229.552 2.74263 2.8565 0
M  V30 2477 H 230.726 4.56179 0.650916 0
M  V30 2478 H 229.041 4.09692 0.74438 0
M  V30 2479 H 231.638 4.02085 3.52465 0
M  V30 2480 H 231.981 2.30943 3.46368 0
M  V30 2481 H 232.514 3.36034 2.12898 0
M  V30 2482 H 229.253 6.32835 1.70879 0
M  V30 2483 H 228.773 5.19702 2.9945 0
M  V30 2484 H 230.452 5.7838 2.89974 0
M  V30 2485 N 230.584 -0.659388 1.43143 0
M  V30 2486 C 231.547 -1.75432 1.47501 0
M  V30 2487 C 232.547 -1.56707 0.360512 0
M  V30 2488 O 233.737 -1.62717 0.622002 0
M  V30 2489 C 230.869 -3.14239 1.32162 0
M  V30 2490 H 232.062 -1.7295 2.45006 0
M  V30 2491 H 229.615 -0.870469 1.29817 0
M  V30 2492 H 230.35 -3.22336 0.356401 0
M  V30 2493 H 230.135 -3.29235 2.12948 0
M  V30 2494 H 231.625 -3.94094 1.3813 0
M  V30 2495 N 232.062 -1.29571 -0.897171 0
M  V30 2496 C 233.308 -1.18873 -1.65048 0
M  V30 2497 C 233.663 0.256707 -1.9068 0
M  V30 2498 O 232.956 1.18202 -1.50794 0
M  V30 2499 C 233.15 -1.9382 -3.00281 0
M  V30 2500 C 232.979 -3.45503 -2.8785 0
M  V30 2501 C 231.749 -4.14856 -2.88483 0
M  V30 2502 C 233.947 -4.40956 -2.64693 0
M  V30 2503 N 231.929 -5.52886 -2.66815 0
M  V30 2504 C 233.3 -5.66464 -2.5203 0
M  V30 2505 C 235.355 -4.3069 -2.49821 0
M  V30 2506 C 234.058 -6.82871 -2.26008 0
M  V30 2507 C 236.084 -5.46852 -2.25182 0
M  V30 2508 C 235.446 -6.71333 -2.13286 0
M  V30 2509 H 231.545 -0.489998 -0.609447 0
M  V30 2510 H 234.129 -1.63431 -1.05822 0
M  V30 2511 H 232.3 -1.51671 -3.57562 0
M  V30 2512 H 234.032 -1.75366 -3.64731 0
M  V30 2513 H 230.787 -3.66579 -2.99861 0
M  V30 2514 H 231.211 -6.25487 -2.59027 0
M  V30 2515 H 235.853 -3.35141 -2.5776 0
M  V30 2516 H 233.571 -7.78473 -2.16806 0
M  V30 2517 H 237.157 -5.40809 -2.14515 0
M  V30 2518 H 236.037 -7.59701 -1.94485 0
M  V30 2519 N 233.54 1.10788 -1.12088 0
M  V30 2520 C 234.765 1.87002 -0.896949 0
M  V30 2521 C 235.19 1.79933 0.548261 0
M  V30 2522 O 234.548 1.16662 1.38779 0
M  V30 2523 C 234.596 3.3349 -1.37174 0
M  V30 2524 O 233.7 4.08745 -0.547831 0
M  V30 2525 H 233.041 0.580397 -0.322545 0
M  V30 2526 H 235.571 1.39996 -1.49206 0
M  V30 2527 H 235.581 3.84339 -1.36922 0
M  V30 2528 H 234.256 3.37951 -2.42408 0
M  V30 2529 H 232.833 3.6776 -0.617034 0
M  V30 2530 N 235.018 0.912232 1.28515 0
M  V30 2531 C 235.948 0.416403 2.29757 0
M  V30 2532 C 236.929 -0.515194 1.6211 0
M  V30 2533 O 238.114 -0.423253 1.89532 0
M  V30 2534 C 235.244 -0.34572 3.45575 0
M  V30 2535 C 234.198 0.496599 4.25109 0
M  V30 2536 C 233.524 -0.393771 5.33248 0
M  V30 2537 C 234.824 1.75307 4.92001 0
M  V30 2538 H 236.518 1.26249 2.7148 0
M  V30 2539 H 234.064 0.608515 1.30511 0
M  V30 2540 H 236.017 -0.703422 4.15488 0
M  V30 2541 H 234.741 -1.2257 3.02728 0
M  V30 2542 H 233.4 0.8368 3.56922 0
M  V30 2543 H 233.048 -1.27225 4.86644 0
M  V30 2544 H 232.748 0.166209 5.87365 0
M  V30 2545 H 234.272 -0.747389 6.06009 0
M  V30 2546 H 235.686 1.46437 5.54283 0
M  V30 2547 H 234.083 2.25534 5.56106 0
M  V30 2548 H 235.153 2.48176 4.16577 0
M  V30 2549 N 236.496 -1.42363 0.676048 0
M  V30 2550 C 237.726 -2.05561 0.206967 0
M  V30 2551 C 238.134 -1.50887 -1.14148 0
M  V30 2552 O 237.477 -0.643933 -1.72044 0
M  V30 2553 C 237.539 -3.5944 0.0659508 0
M  V30 2554 C 237.203 -4.36812 1.34331 0
M  V30 2555 C 238.2 -4.67383 2.27704 0
M  V30 2556 C 235.885 -4.76429 1.59125 0
M  V30 2557 C 237.879 -5.36509 3.44147 0
M  V30 2558 C 235.566 -5.45294 2.75857 0
M  V30 2559 C 236.564 -5.75259 3.68193 0
M  V30 2560 O 236.252 -6.42712 4.82883 0
M  V30 2561 H 235.984 -0.668872 0.0979084 0
M  V30 2562 H 238.538 -1.83467 0.923531 0
M  V30 2563 H 236.768 -3.80197 -0.706204 0
M  V30 2564 H 238.457 -4.0427 -0.363418 0
M  V30 2565 H 239.223 -4.37275 2.09799 0
M  V30 2566 H 235.102 -4.52498 0.881258 0
M  V30 2567 H 238.646 -5.59814 4.16238 0
M  V30 2568 H 234.543 -5.7482 2.93688 0
M  V30 2569 H 235.311 -6.61204 4.82444 0
M  V30 2570 N 237.974 -0.419461 -1.51915 0
M  V30 2571 C 239.204 0.151915 -2.06041 0
M  V30 2572 C 239.612 1.38539 -1.28855 0
M  V30 2573 O 238.955 1.80592 -0.336463 0
M  V30 2574 C 239.017 0.557119 -3.55157 0
M  V30 2575 C 238.681 -0.567054 -4.53468 0
M  V30 2576 C 239.678 -1.43379 -4.99738 0
M  V30 2577 C 237.363 -0.742693 -4.96779 0
M  V30 2578 C 239.357 -2.46102 -5.87973 0
M  V30 2579 C 237.044 -1.77322 -5.84808 0
M  V30 2580 C 238.042 -2.63078 -6.30301 0
M  V30 2581 O 237.73 -3.64364 -7.16585 0
M  V30 2582 H 237.462 0.0193293 -0.675724 0
M  V30 2583 H 240.016 -0.592073 -1.96682 0
M  V30 2584 H 238.246 1.35355 -3.62238 0
M  V30 2585 H 239.935 1.05759 -3.9188 0
M  V30 2586 H 240.701 -1.30954 -4.66986 0
M  V30 2587 H 236.58 -0.0848307 -4.60922 0
M  V30 2588 H 240.124 -3.13071 -6.23404 0
M  V30 2589 H 236.021 -1.89773 -6.16974 0
M  V30 2590 H 236.789 -3.60731 -7.34721 0
M  V30 2591 N 239.452 1.56882 -0.150215 0
M  V30 2592 C 240.382 2.19935 0.784284 0
M  V30 2593 C 241.363 1.14854 1.25469 0
M  V30 2594 O 242.548 1.43209 1.31168 0
M  V30 2595 C 239.678 2.82349 2.02229 0
M  V30 2596 C 238.632 3.93285 1.68853 0
M  V30 2597 C 237.958 4.42649 2.99944 0
M  V30 2598 C 239.258 5.13904 0.932714 0
M  V30 2599 H 240.952 2.9828 0.258781 0
M  V30 2600 H 238.498 1.43473 0.123029 0
M  V30 2601 H 240.451 3.25126 2.68088 0
M  V30 2602 H 239.175 2.0134 2.57157 0
M  V30 2603 H 237.834 3.5113 1.05371 0
M  V30 2604 H 237.482 3.58458 3.52869 0
M  V30 2605 H 237.182 5.17476 2.78374 0
M  V30 2606 H 238.706 4.88099 3.66868 0
M  V30 2607 H 240.12 5.53506 1.49345 0
M  V30 2608 H 238.517 5.94515 0.81684 0
M  V30 2609 H 239.587 4.84842 -0.0749568 0
M  V30 2610 N 240.93 -0.123565 1.57115 0
M  V30 2611 C 242.177 -0.832153 1.84612 0
M  V30 2612 C 242.505 -1.80093 0.734627 0
M  V30 2613 O 241.76 -1.93766 -0.27442 0
M  V30 2614 C 242.059 -1.62016 3.18568 0
M  V30 2615 C 241.725 -0.796084 4.43817 0
M  V30 2616 C 240.387 -0.568816 4.77826 0
M  V30 2617 C 242.739 -0.221364 5.2073 0
M  V30 2618 C 240.067 0.243499 5.86194 0
M  V30 2619 C 242.419 0.578117 6.29953 0
M  V30 2620 C 241.083 0.815744 6.62497 0
M  V30 2621 H 240.353 -0.304507 0.675542 0
M  V30 2622 H 243 -0.0947248 1.91266 0
M  V30 2623 H 241.305 -2.42837 3.0747 0
M  V30 2624 H 243.002 -2.17231 3.37064 0
M  V30 2625 H 239.592 -0.983307 4.17168 0
M  V30 2626 H 243.776 -0.384173 4.94811 0
M  V30 2627 H 239.032 0.436871 6.09837 0
M  V30 2628 H 243.206 1.03046 6.88734 0
M  V30 2629 H 240.833 1.44701 7.46301 0
M  V30 2630 N 242.408 -1.52605 -0.393616 0
M  V30 2631 C 243.633 -1.71592 -1.16495 0
M  V30 2632 C 244.058 -0.43133 -1.83088 0
M  V30 2633 O 243.416 0.612523 -1.7064 0
M  V30 2634 C 243.464 -2.86318 -2.19213 0
M  V30 2635 O 242.568 -2.52969 -3.257 0
M  V30 2636 H 241.909 -0.570734 -0.33935 0
M  V30 2637 H 244.439 -1.99377 -0.459324 0
M  V30 2638 H 244.449 -3.1168 -2.63286 0
M  V30 2639 H 243.124 -3.79511 -1.7013 0
M  V30 2640 H 241.701 -2.38332 -2.86797 0
M  V30 2641 N 243.887 0.651787 -1.4349 0
M  V30 2642 C 245.112 1.44434 -1.48841 0
M  V30 2643 C 245.537 1.8779 -0.107955 0
M  V30 2644 O 244.895 1.57464 0.898602 0
M  V30 2645 C 244.943 2.65458 -2.44059 0
M  V30 2646 O 244.047 3.64566 -1.92784 0
M  V30 2647 H 243.388 0.433005 -0.503391 0
M  V30 2648 H 245.918 0.797451 -1.88419 0
M  V30 2649 H 245.928 3.13255 -2.6141 0
M  V30 2650 H 244.603 2.33244 -3.4434 0
M  V30 2651 H 243.18 3.23716 -1.851 0
M  V30 2652 N 245.365 1.30045 0.890287 0
M  V30 2653 C 246.612 1.18561 1.64163 0
M  V30 2654 C 246.94 -0.260852 1.92743 0
M  V30 2655 O 246.195 -1.20376 1.54299 0
M  V30 2656 C 246.494 1.95409 2.99249 0
M  V30 2657 C 246.16 3.45066 2.90242 0
M  V30 2658 C 244.822 3.85878 2.87492 0
M  V30 2659 C 247.174 4.4039 2.78758 0
M  V30 2660 C 244.502 5.20314 2.7109 0
M  V30 2661 C 246.854 5.74928 2.63894 0
M  V30 2662 C 245.518 6.14986 2.59516 0
M  V30 2663 H 244.788 0.433846 0.600715 0
M  V30 2664 H 247.435 1.61088 1.03552 0
M  V30 2665 H 245.74 1.45501 3.63781 0
M  V30 2666 H 247.437 1.8392 3.56334 0
M  V30 2667 H 244.027 3.12631 2.93189 0
M  V30 2668 H 248.211 4.09806 2.79952 0
M  V30 2669 H 243.467 5.50449 2.66112 0
M  V30 2670 H 247.641 6.48434 2.53981 0
M  V30 2671 H 245.268 7.19104 2.46565 0
M  V30 2672 N 246.843 -1.10192 1.12674 0
M  V30 2673 C 248.071 -1.85983 0.906527 0
M  V30 2674 C 248.486 -1.80783 -0.544333 0
M  V30 2675 O 247.843 -1.19834 -1.37645 0
M  V30 2676 C 247.894 -3.34281 1.37618 0
M  V30 2677 O 247.615 -3.39401 2.77017 0
M  V30 2678 C 249.116 -4.26938 1.19325 0
M  V30 2679 H 246.336 -0.587716 0.323775 0
M  V30 2680 H 248.88 -1.39284 1.49734 0
M  V30 2681 H 247.035 -3.78436 0.828539 0
M  V30 2682 H 247.449 -4.31838 2.97684 0
M  V30 2683 H 248.923 -5.29181 1.57071 0
M  V30 2684 H 249.4 -4.38995 0.134097 0
M  V30 2685 H 250.006 -3.8859 1.72852 0
M  V30 2686 N 248.321 -0.919034 -1.28029 0
M  V30 2687 C 249.251 -0.428581 -2.29533 0
M  V30 2688 C 250.232 0.50659 -1.62381 0
M  V30 2689 O 251.417 0.413195 -1.89753 0
M  V30 2690 C 248.547 0.327388 -3.45753 0
M  V30 2691 C 247.501 -0.519137 -4.2484 0
M  V30 2692 C 246.827 0.365486 -5.33449 0
M  V30 2693 C 248.127 -1.77914 -4.91064 0
M  V30 2694 H 249.821 -1.27687 -2.70807 0
M  V30 2695 H 247.367 -0.615428 -1.30186 0
M  V30 2696 H 249.32 0.681378 -4.15855 0
M  V30 2697 H 248.044 1.20963 -3.03374 0
M  V30 2698 H 246.703 -0.855717 -3.56473 0
M  V30 2699 H 246.351 1.24642 -4.87312 0
M  V30 2700 H 246.051 -0.197356 -5.87268 0
M  V30 2701 H 247.575 0.715241 -6.06396 0
M  V30 2702 H 248.989 -1.49374 -5.53498 0
M  V30 2703 H 247.386 -2.2848 -5.54903 0
M  V30 2704 H 248.456 -2.50382 -4.15255 0
M  V30 2705 N 249.799 1.42003 -0.683588 0
M  V30 2706 C 250.747 2.326 0.000815408 0
M  V30 2707 C 251.741 1.50308 0.781278 0
M  V30 2708 O 252.947 1.66322 0.688251 0
M  V30 2709 H 249.322 0.751758 0.0190616 0
M  V30 2710 H 251.293 2.88011 -0.780528 0
M  V30 2711 C 250.042 3.34978 0.93195 0
M  V30 2712 H 249.365 3.98345 0.340817 0
M  V30 2713 H 250.805 4.00936 1.37936 0
M  V30 2714 C 249.264 2.67925 2.04249 0
M  V30 2715 O 249.794 2.51788 3.12995 0
M  V30 2716 N 248 2.2681 1.81675 0
M  V30 2717 H 247.547 2.40135 0.932363 0
M  V30 2718 H 247.505 1.8228 2.56167 0
M  V30 2719 N 251.277 0.427512 1.51691 0
M  V30 2720 C 252.207 -0.3796 2.30394 0
M  V30 2721 C 253.188 -1.02982 1.35384 0
M  V30 2722 O 254.373 -1.03534 1.643 0
M  V30 2723 C 251.503 -1.48649 3.1388 0
M  V30 2724 C 250.457 -0.960294 4.17088 0
M  V30 2725 C 249.783 -2.16219 4.89033 0
M  V30 2726 C 251.083 -0.00153679 5.223 0
M  V30 2727 H 252.777 0.277164 2.98114 0
M  V30 2728 H 250.323 0.134739 1.43368 0
M  V30 2729 H 252.276 -2.05826 3.67714 0
M  V30 2730 H 251 -2.1714 2.43962 0
M  V30 2731 H 249.659 -0.410806 3.64291 0
M  V30 2732 H 249.307 -2.83307 4.15628 0
M  V30 2733 H 249.007 -1.81654 5.58816 0
M  V30 2734 H 250.531 -2.73968 5.45687 0
M  V30 2735 H 251.945 -0.482687 5.71264 0
M  V30 2736 H 250.342 0.256199 5.99553 0
M  V30 2737 H 251.412 0.938174 4.75738 0
M  V30 2738 N 252.755 -1.56801 0.158532 0
M  V30 2739 C 254.166 -1.83189 -0.360366 0
M  V30 2740 C 254.517 -1.07778 -1.63946 0
M  V30 2741 O 253.642 -0.326718 -2.13919 0
M  V30 2742 C 254.237 -3.32297 -0.660595 0
M  V30 2743 C 252.796 -3.59227 -1.12398 0
M  V30 2744 C 251.943 -2.76877 -0.153097 0
M  V30 2745 H 254.894 -1.54008 0.383031 0
M  V30 2746 H 254.915 -3.4908 -1.51405 0
M  V30 2747 H 254.427 -3.87156 0.270527 0
M  V30 2748 H 252.528 -3.09766 -2.07064 0
M  V30 2749 H 252.641 -4.67632 -1.04197 0
M  V30 2750 H 251.005 -2.46319 -0.647983 0
M  V30 2751 H 251.788 -3.34511 0.77182 0
M  V30 2752 N 254.233 0.115231 -1.57178 0
M  V30 2753 C 255.479 0.818565 -1.86202 0
M  V30 2754 C 255.834 1.77316 -0.746785 0
M  V30 2755 O 255.127 1.89923 0.25291 0
M  V30 2756 C 255.321 1.60324 -3.19423 0
M  V30 2757 C 255.15 0.726138 -4.43799 0
M  V30 2758 C 253.92 0.379535 -5.03873 0
M  V30 2759 C 256.118 0.0420774 -5.14283 0
M  V30 2760 N 254.1 -0.507841 -6.11796 0
M  V30 2761 C 255.471 -0.704152 -6.15988 0
M  V30 2762 C 257.526 -0.0339486 -4.97888 0
M  V30 2763 C 256.229 -1.51927 -7.03072 0
M  V30 2764 C 258.255 -0.835906 -5.85463 0
M  V30 2765 C 257.617 -1.57031 -6.86673 0
M  V30 2766 H 253.716 0.276343 -0.731545 0
M  V30 2767 H 256.3 0.0821032 -1.94527 0
M  V30 2768 H 254.471 2.31072 -3.12186 0
M  V30 2769 H 256.203 2.2522 -3.36241 0
M  V30 2770 H 252.958 0.722634 -4.68054 0
M  V30 2771 H 253.382 -0.94349 -6.70393 0
M  V30 2772 H 258.024 0.519496 -4.19596 0
M  V30 2773 H 255.742 -2.08386 -7.80769 0
M  V30 2774 H 259.328 -0.89714 -5.74841 0
M  V30 2775 H 258.208 -2.18088 -7.53264 0
M  V30 2776 N 255.711 1.52812 0.385517 0
M  V30 2777 C 256.939 1.71907 1.15133 0
M  V30 2778 C 257.354 0.439004 1.83625 0
M  V30 2779 O 256.711 -0.586765 1.7281 0
M  V30 2780 C 256.762 2.87099 2.19673 0
M  V30 2781 O 256.483 4.10151 1.53973 0
M  V30 2782 C 257.984 3.17902 3.08955 0
M  V30 2783 H 255.204 0.575479 0.345057 0
M  V30 2784 H 257.748 1.99476 0.45052 0
M  V30 2785 H 255.903 2.61982 2.85384 0
M  V30 2786 H 256.317 4.74514 2.23465 0
M  V30 2787 H 257.791 4.01959 3.7833 0
M  V30 2788 H 258.268 2.3243 3.72657 0
M  V30 2789 H 258.874 3.44871 2.48885 0
M  V30 2790 N 257.189 -0.644168 1.43834 0
M  V30 2791 C 258.466 -1.40188 1.36406 0
M  V30 2792 C 258.846 -2.11094 0.0163124 0
M  V30 2793 O 258.194 -2.05426 -1.00062 0
M  V30 2794 C 258.404 -2.3791 2.55343 0
M  V30 2795 C 259.752 -3.01637 2.98832 0
M  V30 2796 O 260.776 -2.48237 2.55455 0
M  V30 2797 O 259.635 -3.98477 3.74003 0
M  V30 2798 H 256.729 -0.626773 0.539523 0
M  V30 2799 H 259.275 -0.670317 1.559 0
M  V30 2800 H 258.047 -1.84525 3.4506 0
M  V30 2801 H 257.67 -3.18503 2.37995 0
M  V30 2802 N 258.668 -1.30515 -0.883378 0
M  V30 2803 C 259.908 -1.20716 -1.64946 0
M  V30 2804 C 260.272 0.234072 -1.90568 0
M  V30 2805 O 261.473 0.455335 -2.64915 0
M  V30 2806 C 259.744 -2.01444 -2.9522 0
M  V30 2807 S 261.303 -2.0836 -3.86175 0
M  V30 2808 H 258.121 -0.430165 -0.566109 0
M  V30 2809 H 260.723 -1.65011 -1.04841 0
M  V30 2810 H 259.427 -3.05268 -2.74298 0
M  V30 2811 H 258.958 -1.57817 -3.60357 0
M  V30 2812 H 260.973 -1.21215 -4.81167 0
M  V30 2813 N 260.146 1.09593 -1.13257 0
M  V30 2814 C 261.394 1.81375 -0.891492 0
M  V30 2815 C 261.715 1.86049 0.584009 0
M  V30 2816 O 260.985 1.34481 1.42449 0
M  V30 2817 H 259.565 0.671708 -0.326828 0
M  V30 2818 H 262.227 1.3256 -1.42877 0
M  V30 2819 H 261.323 2.84612 -1.28071 0
M  V30 2820 N 261.624 0.925811 1.2754 0
M  V30 2821 C 262.574 0.394488 2.24561 0
M  V30 2822 C 263.558 -0.500183 1.52928 0
M  V30 2823 O 264.75 -0.337936 1.73744 0
M  V30 2824 C 261.879 -0.353328 3.41477 0
M  V30 2825 C 260.965 0.557752 4.20416 0
M  V30 2826 N 261.356 1.67674 4.77199 0
M  V30 2827 C 259.654 0.360404 4.44541 0
M  V30 2828 C 260.355 2.24324 5.36706 0
M  V30 2829 N 259.331 1.53305 5.21535 0
M  V30 2830 H 263.133 1.2489 2.66045 0
M  V30 2831 H 260.647 0.779864 1.4245 0
M  V30 2832 H 262.644 -0.7509 4.10082 0
M  V30 2833 H 261.304 -1.20469 3.01525 0
M  V30 2834 H 262.315 2.05915 4.75204 0
M  V30 2835 H 258.992 -0.450454 4.15063 0
M  V30 2836 H 260.382 3.18521 5.91603 0
M  V30 2837 N 263.102 -1.41638 0.69111 0
M  V30 2838 C 264.33 -2.05628 0.22909 0
M  V30 2839 C 264.745 -1.51992 -1.11999 0
M  V30 2840 O 264.102 -0.666322 -1.69901 0
M  V30 2841 C 264.153 -3.61084 0.173283 0
M  V30 2842 O 263.874 -4.12735 1.46907 0
M  V30 2843 C 265.375 -4.42213 -0.310266 0
M  V30 2844 H 262.595 -0.662327 0.107534 0
M  V30 2845 H 265.139 -1.81489 0.942438 0
M  V30 2846 H 263.294 -3.84278 -0.490858 0
M  V30 2847 H 263.708 -5.06743 1.35322 0
M  V30 2848 H 265.182 -5.51194 -0.298196 0
M  V30 2849 H 265.659 -4.1799 -1.34838 0
M  V30 2850 H 266.265 -4.24074 0.322716 0
M  V30 2851 N 264.58 -0.43555 -1.51462 0
M  V30 2852 C 265.826 0.123979 -2.03022 0
M  V30 2853 C 266.181 1.4054 -1.31401 0
M  V30 2854 O 265.474 1.86948 -0.419634 0
M  V30 2855 C 265.668 0.39942 -3.55161 0
M  V30 2856 C 265.497 -0.853754 -4.41521 0
M  V30 2857 C 264.267 -1.38675 -4.85898 0
M  V30 2858 C 266.465 -1.73939 -4.83994 0
M  V30 2859 N 264.447 -2.59265 -5.56466 0
M  V30 2860 C 265.818 -2.79135 -5.5361 0
M  V30 2861 C 267.873 -1.75402 -4.65981 0
M  V30 2862 C 266.576 -3.85737 -6.07124 0
M  V30 2863 C 268.602 -2.80938 -5.20411 0
M  V30 2864 C 267.964 -3.84854 -5.89972 0
M  V30 2865 H 264.063 0.00624887 -0.781975 0
M  V30 2866 H 266.647 -0.59582 -1.85359 0
M  V30 2867 H 264.818 1.08825 -3.72843 0
M  V30 2868 H 266.55 0.95015 -3.93388 0
M  V30 2869 H 263.305 -0.94094 -4.64159 0
M  V30 2870 H 263.729 -3.2041 -5.96378 0
M  V30 2871 H 268.371 -0.963926 -4.11665 0
M  V30 2872 H 266.089 -4.65586 -6.60496 0
M  V30 2873 H 269.675 -2.8301 -5.08327 0
M  V30 2874 H 268.555 -4.65176 -6.31333 0
M  V30 2875 N 266.058 1.56714 -0.166846 0
M  V30 2876 C 267.006 2.19056 0.782123 0
M  V30 2877 C 268 1.15328 1.24079 0
M  V30 2878 O 269.206 1.33537 1.20697 0
M  V30 2879 H 265.581 0.70167 0.270486 0
M  V30 2880 H 267.552 2.97494 0.232322 0
M  V30 2881 C 266.301 2.84206 2.00306 0
M  V30 2882 H 265.624 3.63748 1.65914 0
M  V30 2883 H 267.064 3.31302 2.64604 0
M  V30 2884 C 265.523 1.83744 2.82382 0
M  V30 2885 O 266.053 1.32014 3.79388 0
M  V30 2886 N 264.259 1.52601 2.47308 0
M  V30 2887 H 263.806 1.9486 1.68485 0
M  V30 2888 H 263.764 0.856351 3.02513 0
M  V30 2889 N 267.536 -0.106894 1.57237 0
M  V30 2890 C 268.761 -0.830287 1.90055 0
M  V30 2891 C 269.186 -1.72064 0.75998 0
M  V30 2892 O 268.544 -1.78982 -0.288991 0
M  V30 2893 C 268.592 -1.6295 3.21683 0
M  V30 2894 O 267.696 -2.73748 3.08441 0
M  V30 2895 H 267.037 -0.228855 0.623315 0
M  V30 2896 H 269.567 -0.085658 2.04421 0
M  V30 2897 H 269.577 -2.01621 3.54701 0
M  V30 2898 H 268.252 -0.975989 4.04286 0
M  V30 2899 H 266.829 -2.38192 2.86913 0
M  V30 2900 N 269.014 -1.53014 -0.377408 0
M  V30 2901 C 270.425 -1.60438 -0.954798 0
M  V30 2902 C 270.776 -0.464418 -1.90624 0
M  V30 2903 O 269.901 0.41087 -2.12464 0
M  V30 2904 C 270.496 -2.90797 -1.73847 0
M  V30 2905 C 269.055 -3.00595 -2.26538 0
M  V30 2906 C 268.202 -2.55645 -1.07429 0
M  V30 2907 H 271.153 -1.57926 -0.156575 0
M  V30 2908 H 271.174 -2.77935 -2.5987 0
M  V30 2909 H 270.686 -3.73746 -1.04574 0
M  V30 2910 H 268.787 -2.22208 -2.99089 0
M  V30 2911 H 268.9 -4.05456 -2.5523 0
M  V30 2912 H 267.264 -2.10239 -1.43777 0
M  V30 2913 H 268.047 -3.41 -0.396728 0
M  V30 2914 N 270.492 0.636531 -1.44174 0
M  V30 2915 C 271.44 1.76995 -1.50915 0
M  V30 2916 C 272.434 1.65053 -0.381295 0
M  V30 2917 O 273.64 1.71197 -0.55601 0
M  V30 2918 H 270.015 0.584247 -0.473455 0
M  V30 2919 H 271.986 1.68432 -2.4632 0
M  V30 2920 C 270.735 3.15314 -1.46534 0
M  V30 2921 H 270.058 3.25149 -2.32633 0
M  V30 2922 H 271.498 3.9453 -1.55312 0
M  V30 2923 C 269.957 3.3639 -0.185305 0
M  V30 2924 O 270.487 3.94699 0.746688 0
M  V30 2925 N 268.693 2.9046 -0.0901606 0
M  V30 2926 H 268.24 2.43193 -0.849416 0
M  V30 2927 H 268.198 3.04937 0.765553 0
M  V30 2928 N 271.97 1.30982 0.876444 0
M  V30 2929 C 273.21 1.21589 1.64303 0
M  V30 2930 C 273.574 -0.223962 1.90689 0
M  V30 2931 O 274.775 -0.44128 2.65153 0
M  V30 2932 C 273.046 2.03007 2.94148 0
M  V30 2933 S 274.605 2.10405 3.85065 0
M  V30 2934 H 271.423 0.433161 0.563819 0
M  V30 2935 H 274.025 1.65565 1.03964 0
M  V30 2936 H 272.729 3.06719 2.72675 0
M  V30 2937 H 272.26 1.59725 3.59515 0
M  V30 2938 H 274.275 1.23765 4.80517 0
M  V30 2939 N 273.449 -1.08991 1.13837 0
M  V30 2940 C 274.677 -1.85011 0.926202 0
M  V30 2941 C 275.092 -1.8135 -0.525127 0
M  V30 2942 O 274.449 -1.21287 -1.36366 0
M  V30 2943 C 274.5 -3.32802 1.41155 0
M  V30 2944 O 274.221 -3.36444 2.80601 0
M  V30 2945 C 275.722 -4.25649 1.23847 0
M  V30 2946 H 272.942 -0.584249 0.32999 0
M  V30 2947 H 275.486 -1.37688 1.51202 0
M  V30 2948 H 273.641 -3.77536 0.868631 0
M  V30 2949 H 274.055 -4.28657 3.02248 0
M  V30 2950 H 275.529 -5.27485 1.62675 0
M  V30 2951 H 276.006 -4.38828 0.18065 0
M  V30 2952 H 276.612 -3.86735 1.76964 0
M  V30 2953 N 274.927 -0.932562 -1.27047 0
M  V30 2954 C 276.204 -0.49377 -1.89265 0
M  V30 2955 C 276.584 1.02833 -1.8436 0
M  V30 2956 O 275.932 1.88461 -1.29209 0
M  V30 2957 C 276.142 -1.04536 -3.32976 0
M  V30 2958 C 277.49 -1.10879 -4.09867 0
M  V30 2959 O 278.514 -0.995327 -3.42011 0
M  V30 2960 O 277.373 -1.28417 -5.31198 0
M  V30 2961 H 274.467 -0.159596 -0.811454 0
M  V30 2962 H 277.013 -1.02457 -1.3528 0
M  V30 2963 H 275.785 -2.08913 -3.30864 0
M  V30 2964 H 275.408 -0.496494 -3.94488 0
M  V30 2965 N 276.405 1.4127 -0.698611 0
M  V30 2966 C 277.816 1.84187 -0.305289 0
M  V30 2967 C 278.167 1.58449 1.15708 0
M  V30 2968 O 277.292 1.05651 1.88856 0
M  V30 2969 C 277.887 3.3435 -0.547314 0
M  V30 2970 C 276.446 3.75826 -0.207878 0
M  V30 2971 C 275.593 2.64647 -0.828099 0
M  V30 2972 H 278.544 1.30778 -0.89904 0
M  V30 2973 H 278.565 3.8001 0.192998 0
M  V30 2974 H 278.077 3.53051 -1.61172 0
M  V30 2975 H 276.178 3.62725 0.852143 0
M  V30 2976 H 276.291 4.74462 -0.665021 0
M  V30 2977 H 274.655 2.53395 -0.257458 0
M  V30 2978 H 275.438 2.86165 -1.89643 0
M  V30 2979 N 277.883 0.443576 1.51229 0
M  V30 2980 C 278.83 -0.364716 2.279 0
M  V30 2981 C 279.8 -1.0114 1.31757 0
M  V30 2982 O 280.985 -1.02912 1.60667 0
M  V30 2983 C 278.125 -1.45644 3.12861 0
M  V30 2984 C 277.238 -0.827269 4.24005 0
M  V30 2985 C 276.373 -1.89456 4.96266 0
M  V30 2986 C 275.412 -1.24416 5.99322 0
M  V30 2987 N 274.549 -2.25309 6.64966 0
M  V30 2988 H 279.389 0.295464 2.96532 0
M  V30 2989 H 276.926 0.157554 1.46254 0
M  V30 2990 H 278.884 -2.10076 3.6045 0
M  V30 2991 H 277.514 -2.08616 2.46331 0
M  V30 2992 H 276.566 -0.0710839 3.80334 0
M  V30 2993 H 277.878 -0.312481 4.9782 0
M  V30 2994 H 277.032 -2.61535 5.47434 0
M  V30 2995 H 275.771 -2.4431 4.22095 0
M  V30 2996 H 274.776 -0.508868 5.4744 0
M  V30 2997 H 276.001 -0.702882 6.75453 0
M  V30 2998 H 273.947 -2.79231 5.93604 0
M  V30 2999 H 273.864 -1.78739 7.34567 0
M  V30 3000 H 275.132 -2.96853 7.20763 0
M  V30 3001 N 279.361 -1.56624 0.175154 0
M  V30 3002 C 280.291 -2.21155 -0.749195 0
M  V30 3003 C 281.272 -1.16836 -1.23626 0
M  V30 3004 O 282.457 -1.45277 -1.28873 0
M  V30 3005 C 279.587 -2.8553 -1.97711 0
M  V30 3006 C 278.541 -3.95921 -1.62575 0
M  V30 3007 C 277.867 -4.47365 -2.92864 0
M  V30 3008 C 279.167 -5.15323 -0.850838 0
M  V30 3009 H 280.861 -2.98653 -0.211295 0
M  V30 3010 H 278.407 -1.43651 -0.100188 0
M  V30 3011 H 280.36 -3.2935 -2.62881 0
M  V30 3012 H 279.084 -2.05406 -2.53921 0
M  V30 3013 H 277.743 -3.52762 -0.997719 0
M  V30 3014 H 277.391 -3.64027 -3.47122 0
M  V30 3015 H 277.091 -5.21839 -2.70106 0
M  V30 3016 H 278.615 -4.93873 -3.59056 0
M  V30 3017 H 280.029 -5.55812 -1.40521 0
M  V30 3018 H 278.426 -5.95739 -0.722154 0
M  V30 3019 H 279.496 -4.84661 0.152082 0
M  V30 3020 N 280.839 0.0985539 -1.57292 0
M  V30 3021 C 281.769 1.12064 -2.04851 0
M  V30 3022 C 282.75 1.41981 -0.936767 0
M  V30 3023 O 283.935 1.52071 -1.20781 0
M  V30 3024 C 281.065 2.44144 -2.47004 0
M  V30 3025 C 280.019 2.28643 -3.6181 0
M  V30 3026 C 279.345 3.65869 -3.89929 0
M  V30 3027 C 280.645 1.72986 -4.92822 0
M  V30 3028 H 282.339 0.724979 -2.9049 0
M  V30 3029 H 279.885 0.34729 -1.39749 0
M  V30 3030 H 281.838 3.15914 -2.78884 0
M  V30 3031 H 280.562 2.85639 -1.5836 0
M  V30 3032 H 279.221 1.59318 -3.30172 0
M  V30 3033 H 278.869 4.04885 -2.98458 0
M  V30 3034 H 278.569 3.56344 -4.67218 0
M  V30 3035 H 280.093 4.39112 -4.2428 0
M  V30 3036 H 281.507 2.34593 -5.23105 0
M  V30 3037 H 279.904 1.74229 -5.74251 0
M  V30 3038 H 280.974 0.689007 -4.7998 0
M  V30 3039 N 282.317 1.53212 0.369288 0
M  V30 3040 C 283.265 1.80054 1.47253 0
M  V30 3041 C 284.259 0.669456 1.55611 0
M  V30 3042 O 285.465 0.852328 1.58541 0
M  V30 3043 H 281.84 0.570034 0.490475 0
M  V30 3044 H 283.811 2.72403 1.21817 0
M  V30 3045 C 282.56 2.00403 2.84137 0
M  V30 3046 H 281.883 2.86876 2.78464 0
M  V30 3047 H 283.323 2.23164 3.60519 0
M  V30 3048 C 281.782 0.782081 3.27697 0
M  V30 3049 O 282.312 -0.0310205 4.01688 0
M  V30 3050 N 280.518 0.606573 2.84199 0
M  V30 3051 H 280.065 1.26939 2.24152 0
M  V30 3052 H 280.023 -0.20962 3.137 0
M  V30 3053 N 283.795 -0.628877 1.44509 0
M  V30 3054 C 285.043 -1.38565 1.4712 0
M  V30 3055 C 285.364 -1.94712 0.105899 0
M  V30 3056 O 284.634 -1.75912 -0.862079 0
M  V30 3057 H 283.214 -0.514333 0.541729 0
M  V30 3058 H 285.876 -0.740018 1.80305 0
M  V30 3059 H 284.972 -2.21583 2.19789 0
M  V30 3060 N 285.273 -1.31445 -0.869486 0
M  V30 3061 C 286.498 -1.24256 -1.66058 0
M  V30 3062 C 286.923 0.188928 -1.87149 0
M  V30 3063 O 286.281 1.13522 -1.4136 0
M  V30 3064 C 286.329 -1.9924 -3.00559 0
M  V30 3065 O 285.433 -1.33007 -3.90362 0
M  V30 3066 H 284.774 -0.428973 -0.506831 0
M  V30 3067 H 287.304 -1.73521 -1.08404 0
M  V30 3068 H 287.314 -2.08854 -3.50491 0
M  V30 3069 H 285.989 -3.03342 -2.84528 0
M  V30 3070 H 284.566 -1.31848 -3.48813 0
M  V30 3071 N 286.751 1.08385 -1.14413 0
M  V30 3072 C 287.997 1.81044 -0.913834 0
M  V30 3073 C 288.33 1.86004 0.558209 0
M  V30 3074 O 287.605 1.33606 1.4135 0
M  V30 3075 C 287.888 3.26648 -1.51569 0
M  V30 3076 C 287.741 3.29895 -3.0576 0
M  V30 3077 C 289.06 4.23629 -1.19273 0
M  V30 3078 H 286.179 0.65727 -0.333414 0
M  V30 3079 H 288.821 1.26896 -1.41412 0
M  V30 3080 H 286.971 3.72889 -1.09023 0
M  V30 3081 H 288.643 2.91977 -3.57137 0
M  V30 3082 H 286.886 2.69163 -3.40197 0
M  V30 3083 H 287.557 4.32516 -3.42977 0
M  V30 3084 H 290.033 3.85727 -1.56057 0
M  V30 3085 H 288.909 5.23822 -1.64017 0
M  V30 3086 H 289.17 4.41968 -0.108068 0
M  V30 3087 N 288.23 0.939286 1.26551 0
M  V30 3088 C 289.16 0.465044 2.28822 0
M  V30 3089 C 290.141 -0.480692 1.63167 0
M  V30 3090 O 291.326 -0.382955 1.90387 0
M  V30 3091 C 288.456 -0.27234 3.46231 0
M  V30 3092 C 287.41 0.58666 4.2396 0
M  V30 3093 C 286.736 -0.280573 5.33963 0
M  V30 3094 C 288.036 1.85704 4.88171 0
M  V30 3095 H 289.73 1.31979 2.68741 0
M  V30 3096 H 287.276 0.636061 1.29191 0
M  V30 3097 H 289.229 -0.615133 4.16886 0
M  V30 3098 H 287.953 -1.16121 3.0526 0
M  V30 3099 H 286.612 0.91232 3.55067 0
M  V30 3100 H 286.26 -1.16874 4.89234 0
M  V30 3101 H 285.96 0.29076 5.8688 0
M  V30 3102 H 287.484 -0.618678 6.07458 0
M  V30 3103 H 288.898 1.58161 5.51052 0
M  V30 3104 H 287.295 2.37279 5.51197 0
M  V30 3105 H 288.365 2.56957 4.11219 0
M  V30 3106 N 289.708 -1.40897 0.706093 0
M  V30 3107 C 290.956 -2.00657 0.241054 0
M  V30 3108 C 291.277 -1.56241 -1.16678 0
M  V30 3109 O 290.547 -0.79765 -1.78926 0
M  V30 3110 H 289.127 -0.742018 0.0861308 0
M  V30 3111 H 291.789 -1.72372 0.909604 0
M  V30 3112 H 290.885 -3.10958 0.266705 0
M  V30 3113 N 291.186 -0.45159 -1.50991 0
M  V30 3114 C 292.134 0.366864 -2.29689 0
M  V30 3115 C 293.128 1.00809 -1.36139 0
M  V30 3116 O 294.334 0.941427 -1.53418 0
M  V30 3117 H 290.709 0.137133 -0.739391 0
M  V30 3118 H 292.68 -0.317538 -2.96706 0
M  V30 3119 C 291.429 1.44751 -3.16137 0
M  V30 3120 H 290.752 0.963473 -3.88017 0
M  V30 3121 H 292.192 1.99315 -3.74232 0
M  V30 3122 C 290.651 2.43869 -2.32442 0
M  V30 3123 O 291.181 3.4872 -1.99392 0
M  V30 3124 N 289.387 2.15105 -1.95392 0
M  V30 3125 H 288.934 1.29866 -2.22469 0
M  V30 3126 H 288.892 2.81661 -1.39693 0
M  V30 3127 N 292.664 1.56529 -0.183458 0
M  V30 3128 C 293.614 2.1515 0.754605 0
M  V30 3129 C 294.598 1.08904 1.18443 0
M  V30 3130 O 295.79 1.34997 1.14476 0
M  V30 3131 C 292.919 2.80531 1.97881 0
M  V30 3132 C 292.005 3.93952 1.57043 0
M  V30 3133 N 292.396 4.98221 0.87231 0
M  V30 3134 C 290.694 4.05338 1.86057 0
M  V30 3135 C 291.395 5.77836 0.669377 0
M  V30 3136 N 290.371 5.29858 1.21454 0
M  V30 3137 H 294.173 2.93132 0.212387 0
M  V30 3138 H 291.687 1.62391 0.0167725 0
M  V30 3139 H 293.684 3.20914 2.6612 0
M  V30 3140 H 292.344 2.04035 2.52586 0
M  V30 3141 H 293.355 5.15191 0.529033 0
M  V30 3142 H 290.032 3.39957 2.42354 0
M  V30 3143 H 291.422 6.71799 0.116422 0
M  V30 3144 N 294.142 -0.090211 1.57342 0
M  V30 3145 C 295.37 -0.806224 1.90546 0
M  V30 3146 C 295.785 -1.72041 0.777644 0
M  V30 3147 O 295.142 -1.80778 -0.250103 0
M  V30 3148 C 295.193 -1.61546 3.23396 0
M  V30 3149 O 294.914 -0.738043 4.31839 0
M  V30 3150 C 296.415 -2.4341 3.70495 0
M  V30 3151 H 293.635 -0.230256 0.630257 0
M  V30 3152 H 296.179 -0.0659843 2.04394 0
M  V30 3153 H 294.334 -2.30816 3.11131 0
M  V30 3154 H 294.748 -1.29901 5.08159 0
M  V30 3155 H 296.222 -2.95676 4.66133 0
M  V30 3156 H 296.699 -3.22098 2.98579 0
M  V30 3157 H 297.305 -1.79331 3.85643 0
M  V30 3158 N 295.62 -1.53406 -0.361157 0
M  V30 3159 C 296.567 -1.80156 -1.44265 0
M  V30 3160 C 297.537 -0.646183 -1.53015 0
M  V30 3161 O 298.722 -0.888818 -1.68833 0
M  V30 3162 C 295.862 -2.00116 -2.81154 0
M  V30 3163 C 294.975 -3.27833 -2.81335 0
M  V30 3164 C 294.11 -3.37957 -4.09828 0
M  V30 3165 C 293.149 -4.59689 -4.04168 0
M  V30 3166 N 292.286 -4.66942 -5.24318 0
M  V30 3167 H 297.126 -2.72438 -1.20754 0
M  V30 3168 H 294.663 -1.34954 -0.585296 0
M  V30 3169 H 296.621 -2.09677 -3.60682 0
M  V30 3170 H 295.251 -1.11167 -3.03054 0
M  V30 3171 H 294.303 -3.27204 -1.94014 0
M  V30 3172 H 295.615 -4.17442 -2.73027 0
M  V30 3173 H 294.769 -3.46853 -4.97773 0
M  V30 3174 H 293.508 -2.46372 -4.20894 0
M  V30 3175 H 292.513 -4.50889 -3.14609 0
M  V30 3176 H 293.738 -5.5262 -3.947 0
M  V30 3177 H 291.684 -3.7826 -5.35962 0
M  V30 3178 H 291.601 -5.50462 -5.18197 0
M  V30 3179 H 292.869 -4.80127 -6.14084 0
M  V30 3180 N 297.098 0.621204 -1.44841 0
M  V30 3181 C 298.328 1.40548 -1.51426 0
M  V30 3182 C 298.736 1.88673 -0.141083 0
M  V30 3183 O 298.079 1.62053 0.865128 0
M  V30 3184 C 298.141 2.65325 -2.42576 0
M  V30 3185 C 297.805 2.3893 -3.89566 0
M  V30 3186 C 298.802 2.00138 -4.79834 0
M  V30 3187 C 296.487 2.52263 -4.3436 0
M  V30 3188 C 298.481 1.75021 -6.129 0
M  V30 3189 C 296.168 2.2676 -5.67471 0
M  V30 3190 C 297.166 1.88199 -6.56559 0
M  V30 3191 O 296.854 1.62986 -7.87204 0
M  V30 3192 H 296.586 0.437122 -0.515655 0
M  V30 3193 H 299.14 0.765987 -1.90583 0
M  V30 3194 H 297.37 3.31947 -1.98364 0
M  V30 3195 H 299.059 3.27347 -2.39998 0
M  V30 3196 H 299.825 1.89386 -4.46495 0
M  V30 3197 H 295.704 2.81246 -3.65269 0
M  V30 3198 H 299.248 1.44848 -6.82396 0
M  V30 3199 H 295.145 2.37125 -6.00368 0
M  V30 3200 H 295.913 1.7715 -7.991 0
M  V30 3201 N 298.576 1.31904 0.862503 0
M  V30 3202 C 299.801 1.25135 1.65397 0
M  V30 3203 C 300.226 -0.179 1.87246 0
M  V30 3204 O 299.584 -1.1277 1.4196 0
M  V30 3205 C 299.632 2.00832 2.99498 0
M  V30 3206 O 298.736 1.35075 3.89652 0
M  V30 3207 H 298.077 0.431655 0.504549 0
M  V30 3208 H 300.607 1.74094 1.07483 0
M  V30 3209 H 300.617 2.10709 3.49379 0
M  V30 3210 H 299.292 3.04847 2.82916 0
M  V30 3211 H 297.869 1.33696 3.48109 0
M  V30 3212 N 300.054 -1.07777 1.14986 0
M  V30 3213 C 301.001 -2.14867 0.842672 0
M  V30 3214 C 301.971 -1.6486 -0.202552 0
M  V30 3215 O 303.156 -1.90668 -0.0710568 0
M  V30 3216 C 300.296 -3.43486 0.333363 0
M  V30 3217 C 299.409 -4.07306 1.43965 0
M  V30 3218 C 298.544 -5.23744 0.886914 0
M  V30 3219 C 297.583 -5.79517 1.97043 0
M  V30 3220 N 296.72 -6.87291 1.4344 0
M  V30 3221 H 301.56 -2.40485 1.75986 0
M  V30 3222 H 299.097 -1.1801 0.878179 0
M  V30 3223 H 301.055 -4.17195 0.0198163 0
M  V30 3224 H 299.685 -3.18133 -0.546916 0
M  V30 3225 H 298.737 -3.31293 1.86946 0
M  V30 3226 H 300.049 -4.44771 2.25788 0
M  V30 3227 H 299.203 -6.04419 0.525651 0
M  V30 3228 H 297.942 -4.87685 0.0377957 0
M  V30 3229 H 296.947 -4.97491 2.34057 0
M  V30 3230 H 298.172 -6.17632 2.82325 0
M  V30 3231 H 296.118 -6.5318 0.607567 0
M  V30 3232 H 296.035 -7.23617 2.18895 0
M  V30 3233 H 297.303 -7.71682 1.10124 0
M  V30 3234 N 301.532 -0.945985 -1.26051 0
M  V30 3235 C 302.762 -0.612136 -1.97323 0
M  V30 3236 C 303.17 0.818171 -1.70595 0
M  V30 3237 O 302.513 1.55777 -0.973613 0
M  V30 3238 C 302.575 -0.780347 -3.50929 0
M  V30 3239 C 302.239 -2.18619 -4.01317 0
M  V30 3240 C 303.236 -3.16209 -4.12683 0
M  V30 3241 C 300.921 -2.50805 -4.35203 0
M  V30 3242 C 302.915 -4.44085 -4.57238 0
M  V30 3243 C 300.602 -3.78912 -4.79446 0
M  V30 3244 C 301.6 -4.75365 -4.90425 0
M  V30 3245 O 301.288 -6.01191 -5.3369 0
M  V30 3246 H 301.02 -0.229134 -0.635982 0
M  V30 3247 H 303.574 -1.27036 -1.61404 0
M  V30 3248 H 301.804 -0.0649864 -3.86645 0
M  V30 3249 H 303.493 -0.448842 -4.03411 0
M  V30 3250 H 304.259 -2.92668 -3.86744 0
M  V30 3251 H 300.138 -1.76463 -4.2589 0
M  V30 3252 H 303.682 -5.19373 -4.65723 0
M  V30 3253 H 299.579 -4.02265 -5.0483 0
M  V30 3254 H 300.347 -6.04442 -5.51899 0
M  V30 3255 N 303.011 1.40521 -0.713556 0
M  V30 3256 C 303.958 2.30723 -0.059684 0
M  V30 3257 C 304.928 1.48079 0.752448 0
M  V30 3258 O 306.113 1.76823 0.71681 0
M  V30 3259 C 303.253 3.34274 0.857594 0
M  V30 3260 C 302.366 4.31986 0.0351536 0
M  V30 3261 C 301.501 5.22605 0.951724 0
M  V30 3262 C 300.54 6.11976 0.123253 0
M  V30 3263 N 299.677 6.9502 0.99459 0
M  V30 3264 H 304.517 2.86074 -0.834596 0
M  V30 3265 H 302.054 1.40879 -0.42326 0
M  V30 3266 H 304.012 3.92879 1.40364 0
M  V30 3267 H 302.642 2.8043 1.59871 0
M  V30 3268 H 301.694 3.7518 -0.628052 0
M  V30 3269 H 303.006 4.95101 -0.606347 0
M  V30 3270 H 302.16 5.86131 1.56638 0
M  V30 3271 H 300.899 4.59759 1.62705 0
M  V30 3272 H 299.904 5.47482 -0.50435 0
M  V30 3273 H 301.129 6.76881 -0.548539 0
M  V30 3274 H 299.075 6.34764 1.6556 0
M  V30 3275 H 298.992 7.54892 0.40908 0
M  V30 3276 H 300.26 7.62997 1.59549 0
M  V30 3277 N 304.489 0.459591 1.5075 0
M  V30 3278 C 305.736 -0.0993495 2.02256 0
M  V30 3279 C 306.064 -1.40751 1.34237 0
M  V30 3280 O 305.319 -1.90379 0.453228 0
M  V30 3281 C 305.618 -0.342866 3.55752 0
M  V30 3282 C 305.284 0.88218 4.42186 0
M  V30 3283 C 303.946 1.21808 4.65528 0
M  V30 3284 C 306.298 1.69837 4.92752 0
M  V30 3285 C 303.626 2.37045 5.36681 0
M  V30 3286 C 305.978 2.84192 5.65171 0
M  V30 3287 C 304.642 3.1821 5.8677 0
M  V30 3288 H 303.912 -0.0363545 0.740108 0
M  V30 3289 H 306.559 0.611329 1.8148 0
M  V30 3290 H 304.864 -1.13567 3.7498 0
M  V30 3291 H 306.561 -0.789121 3.93159 0
M  V30 3292 H 303.151 0.610467 4.2423 0
M  V30 3293 H 307.335 1.45205 4.74583 0
M  V30 3294 H 302.591 2.63689 5.51614 0
M  V30 3295 H 306.765 3.4779 6.03337 0
M  V30 3296 H 304.392 4.07613 6.41682 0
M  V30 3297 N 305.967 -1.56429 0.191757 0
M  V30 3298 C 307.195 -2.01867 -0.453586 0
M  V30 3299 C 307.61 -1.07191 -1.5542 0
M  V30 3300 O 306.967 -0.0762108 -1.82341 0
M  V30 3301 C 307.018 -3.47017 -1.013 0
M  V30 3302 O 306.739 -4.38078 0.0437005 0
M  V30 3303 C 308.24 -4.07956 -1.73456 0
M  V30 3304 H 305.46 -0.661211 -0.114199 0
M  V30 3305 H 308.004 -2.02295 0.299483 0
M  V30 3306 H 306.159 -3.47298 -1.71647 0
M  V30 3307 H 306.573 -5.23178 -0.372212 0
M  V30 3308 H 308.047 -5.1138 -2.07833 0
M  V30 3309 H 308.524 -3.51222 -2.63704 0
M  V30 3310 H 309.13 -4.11437 -1.07702 0
M  V30 3311 N 307.445 0.0818655 -1.57387 0
M  V30 3312 C 308.856 0.634871 -1.75574 0
M  V30 3313 C 309.207 1.78435 -0.815809 0
M  V30 3314 O 308.332 2.164 0.0025366 0
M  V30 3315 C 308.927 1.15845 -3.18379 0
M  V30 3316 C 307.486 1.65741 -3.37945 0
M  V30 3317 C 306.633 0.572549 -2.71325 0
M  V30 3318 H 309.584 -0.144268 -1.58043 0
M  V30 3319 H 309.605 2.02751 -3.21982 0
M  V30 3320 H 309.117 0.321631 -3.86765 0
M  V30 3321 H 307.218 2.51781 -2.74658 0
M  V30 3322 H 307.331 1.74129 -4.46336 0
M  V30 3323 H 305.695 1.01518 -2.33594 0
M  V30 3324 H 306.478 -0.253918 -3.4236 0
M  V30 3325 N 308.923 1.53595 0.353017 0
M  V30 3326 C 309.886 1.80232 1.41594 0
M  V30 3327 C 310.886 0.673081 1.46035 0
M  V30 3328 O 312.076 0.941335 1.46576 0
M  V30 3329 C 309.208 1.93578 2.80607 0
M  V30 3330 H 310.401 2.75174 1.19244 0
M  V30 3331 H 307.954 1.44864 0.586872 0
M  V30 3332 H 308.689 1.00746 3.08254 0
M  V30 3333 H 308.474 2.75724 2.78781 0
M  V30 3334 H 309.964 2.15735 3.57558 0
M  V30 3335 N 310.401 -0.613514 1.45168 0
M  V30 3336 C 311.364 -1.7065 1.53007 0
M  V30 3337 C 312.364 -1.5548 0.410184 0
M  V30 3338 O 313.554 -1.60656 0.673455 0
M  V30 3339 C 310.686 -3.09875 1.42093 0
M  V30 3340 H 311.879 -1.65068 2.50385 0
M  V30 3341 H 309.432 -0.828728 1.32521 0
M  V30 3342 H 310.167 -3.21039 0.458769 0
M  V30 3343 H 309.952 -3.22293 2.23315 0
M  V30 3344 H 311.442 -3.895 1.50598 0
M  V30 3345 N 311.879 -1.3236 -0.855495 0
M  V30 3346 C 312.789 -1.23221 -1.99634 0
M  V30 3347 C 313.805 -0.145983 -1.73387 0
M  V30 3348 O 314.981 -0.366502 -1.98037 0
M  V30 3349 C 312.046 -0.954782 -3.33294 0
M  V30 3350 C 311.107 -2.12937 -3.72769 0
M  V30 3351 C 310.34 -1.86508 -5.00051 0
M  V30 3352 O 310.563 -0.807231 -5.64659 0
M  V30 3353 O 309.497 -2.72591 -5.36636 0
M  V30 3354 H 313.323 -2.19126 -2.1028 0
M  V30 3355 H 310.908 -1.12241 -0.986018 0
M  V30 3356 H 312.79 -0.816519 -4.13414 0
M  V30 3357 H 311.465 -0.0258854 -3.2369 0
M  V30 3358 H 310.372 -2.3231 -2.93228 0
M  V30 3359 H 311.705 -3.04102 -3.87018 0
M  V30 3360 N 313.357 1.07166 -1.15556 0
M  V30 3361 C 314.604 1.79798 -0.931604 0
M  V30 3362 C 314.932 1.8682 0.54115 0
M  V30 3363 O 314.187 1.34942 1.41736 0
M  V30 3364 C 314.486 3.24707 -1.49332 0
M  V30 3365 C 314.152 3.37781 -2.98688 0
M  V30 3366 C 312.814 3.41057 -3.39461 0
M  V30 3367 C 315.166 3.40424 -3.94665 0
M  V30 3368 C 312.494 3.4458 -4.74849 0
M  V30 3369 C 314.846 3.45485 -5.29927 0
M  V30 3370 C 313.51 3.47039 -5.70193 0
M  V30 3371 H 312.78 0.657928 -0.340898 0
M  V30 3372 H 315.427 1.26091 -1.44129 0
M  V30 3373 H 313.732 3.81208 -0.904859 0
M  V30 3374 H 315.429 3.79486 -1.29582 0
M  V30 3375 H 312.019 3.35932 -2.66172 0
M  V30 3376 H 316.203 3.37113 -3.64237 0
M  V30 3377 H 311.459 3.44083 -5.05388 0
M  V30 3378 H 315.633 3.46476 -6.04092 0
M  V30 3379 H 313.26 3.49522 -6.75084 0
M  V30 3380 N 314.835 0.952656 1.25548 0
M  V30 3381 C 316.065 0.622592 1.96996 0
M  V30 3382 C 316.473 -0.809112 1.71026 0
M  V30 3383 O 315.816 -1.55258 0.981861 0
M  V30 3384 C 315.878 0.798946 3.5051 0
M  V30 3385 C 315.542 2.20744 4.00151 0
M  V30 3386 C 316.539 3.18394 4.11001 0
M  V30 3387 C 314.224 2.5311 4.33867 0
M  V30 3388 C 316.218 4.46504 4.54877 0
M  V30 3389 C 313.905 3.8145 4.7743 0
M  V30 3390 C 314.903 4.77959 4.87897 0
M  V30 3391 O 314.591 6.04012 5.30494 0
M  V30 3392 H 314.323 0.232503 0.634758 0
M  V30 3393 H 316.877 1.2789 1.60728 0
M  V30 3394 H 315.107 0.0854903 3.86605 0
M  V30 3395 H 316.796 0.47023 4.03167 0
M  V30 3396 H 317.562 2.94715 3.85186 0
M  V30 3397 H 313.441 1.78719 4.24948 0
M  V30 3398 H 316.985 5.21835 4.62962 0
M  V30 3399 H 312.882 4.04936 5.0269 0
M  V30 3400 H 313.65 6.0736 5.48685 0
M  V30 3401 N 316.313 -1.40141 0.720998 0
M  V30 3402 C 317.223 -2.34486 0.0731031 0
M  V30 3403 C 318.239 -1.57587 -0.737723 0
M  V30 3404 O 319.415 -1.89949 -0.669429 0
M  V30 3405 C 316.48 -3.36528 -0.833656 0
M  V30 3406 C 315.541 -4.29298 -0.0121673 0
M  V30 3407 C 314.774 -5.26466 -0.875742 0
M  V30 3408 O 314.997 -5.29745 -2.11485 0
M  V30 3409 O 313.931 -6.01092 -0.31185 0
M  V30 3410 H 317.757 -2.9152 0.851444 0
M  V30 3411 H 315.342 -1.41427 0.481527 0
M  V30 3412 H 317.224 -3.99093 -1.35289 0
M  V30 3413 H 315.899 -2.81899 -1.59105 0
M  V30 3414 H 314.806 -3.70001 0.552262 0
M  V30 3415 H 316.139 -4.87094 0.707129 0
M  V30 3416 N 317.792 -0.46758 -1.50504 0
M  V30 3417 C 319.208 -0.121533 -1.59137 0
M  V30 3418 C 319.408 1.3717 -1.47603 0
M  V30 3419 O 318.464 2.14464 -1.33272 0
M  V30 3420 C 319.777 -0.6686 -2.93173 0
M  V30 3421 C 321.325 -0.631716 -3.06559 0
M  V30 3422 C 321.8 -1.15627 -4.43164 0
M  V30 3423 N 323.291 -1.11553 -4.49567 0
M  V30 3424 C 324.026 -1.49195 -5.5365 0
M  V30 3425 N 323.522 -1.94269 -6.65005 0
M  V30 3426 N 325.315 -1.4082 -5.44175 0
M  V30 3427 H 317.466 -1.4388 -1.56245 0
M  V30 3428 H 319.729 -0.594784 -0.738198 0
M  V30 3429 H 319.435 -1.71453 -3.07078 0
M  V30 3430 H 319.309 -0.11021 -3.77039 0
M  V30 3431 H 321.696 0.405297 -2.92304 0
M  V30 3432 H 321.777 -1.22687 -2.24458 0
M  V30 3433 H 321.421 -2.1919 -4.58168 0
M  V30 3434 H 321.351 -0.537365 -5.23851 0
M  V30 3435 H 323.842 -0.784895 -3.69659 0
M  V30 3436 H 324.155 -2.21148 -7.40482 0
M  V30 3437 H 322.5 -1.98219 -6.66134 0
M  V30 3438 H 325.691 -1.0545 -4.56068 0
M  V30 3439 H 325.864 -1.70481 -6.25172 0
M  V30 3440 N 319.27 1.56325 -0.20005 0
M  V30 3441 C 320.518 1.97329 0.436547 0
M  V30 3442 C 320.839 1.08826 1.61808 0
M  V30 3443 O 320.109 0.160604 1.95241 0
M  V30 3444 H 318.689 0.728714 0.164272 0
M  V30 3445 H 321.351 1.92761 -0.287937 0
M  V30 3446 H 320.447 3.02264 0.777353 0
M  V30 3447 N 320.748 -0.0735177 1.57428 0
M  V30 3448 C 321.994 -0.774145 1.87443 0
M  V30 3449 C 322.327 -1.77311 0.792103 0
M  V30 3450 O 321.602 -1.93492 -0.197793 0
M  V30 3451 C 321.885 -1.48367 3.28115 0
M  V30 3452 C 321.738 -0.501227 4.46999 0
M  V30 3453 C 323.057 -2.429 3.66998 0
M  V30 3454 H 320.176 -0.279971 0.681752 0
M  V30 3455 H 322.818 -0.0373616 1.89963 0
M  V30 3456 H 320.968 -2.11171 3.26097 0
M  V30 3457 H 322.64 0.121468 4.6114 0
M  V30 3458 H 320.883 0.183593 4.33411 0
M  V30 3459 H 321.554 -1.03526 5.42205 0
M  V30 3460 H 324.03 -1.90175 3.70098 0
M  V30 3461 H 322.906 -2.89549 4.66318 0
M  V30 3462 H 323.167 -3.27628 2.96837 0
M  V30 3463 N 322.226 -1.5378 -0.344866 0
M  V30 3464 C 323.156 -1.84662 -1.42906 0
M  V30 3465 C 324.137 -0.701648 -1.54955 0
M  V30 3466 O 325.322 -0.953438 -1.69184 0
M  V30 3467 C 322.452 -2.05503 -2.79974 0
M  V30 3468 C 321.406 -3.21318 -2.82734 0
M  V30 3469 C 320.732 -3.2749 -4.22675 0
M  V30 3470 C 322.032 -4.59456 -2.48389 0
M  V30 3471 H 323.726 -2.75461 -1.17311 0
M  V30 3472 H 321.272 -1.32542 -0.562896 0
M  V30 3473 H 323.225 -2.25691 -3.55867 0
M  V30 3474 H 321.949 -1.11434 -3.07002 0
M  V30 3475 H 320.608 -3.00984 -2.09294 0
M  V30 3476 H 320.256 -2.31019 -4.4681 0
M  V30 3477 H 319.956 -4.05316 -4.25433 0
M  V30 3478 H 321.48 -3.49887 -5.00412 0
M  V30 3479 H 322.894 -4.79667 -3.13995 0
M  V30 3480 H 321.291 -5.39675 -2.62432 0
M  V30 3481 H 322.361 -4.63155 -1.4358 0
M  V30 3482 N 323.704 0.605807 -1.45491 0
M  V30 3483 C 324.654 1.71074 -1.50724 0
M  V30 3484 C 325.638 1.5658 -0.37033 0
M  V30 3485 O 326.83 1.65887 -0.617299 0
M  V30 3486 C 323.959 3.0983 -1.47852 0
M  V30 3487 C 323.045 3.29704 -2.66751 0
M  V30 3488 N 323.436 3.19831 -3.91844 0
M  V30 3489 C 321.734 3.60579 -2.62486 0
M  V30 3490 C 322.435 3.41083 -4.71208 0
M  V30 3491 N 321.411 3.65157 -4.02693 0
M  V30 3492 H 325.213 1.61937 -2.45263 0
M  V30 3493 H 322.727 0.80912 -1.40808 0
M  V30 3494 H 324.724 3.89101 -1.49686 0
M  V30 3495 H 323.384 3.20115 -0.543714 0
M  V30 3496 H 324.395 2.98194 -4.23439 0
M  V30 3497 H 321.072 3.7769 -1.77922 0
M  V30 3498 H 322.462 3.38828 -5.80211 0
M  V30 3499 N 325.182 1.32811 0.848464 0
M  V30 3500 C 326.112 1.24882 1.97299 0
M  V30 3501 C 327.093 0.131357 1.69592 0
M  V30 3502 O 328.278 0.319553 1.91553 0
M  V30 3503 C 325.408 0.97746 3.33261 0
M  V30 3504 C 324.362 2.05682 3.75338 0
M  V30 3505 C 323.688 1.63777 5.09 0
M  V30 3506 C 324.988 3.47254 3.90144 0
M  V30 3507 H 326.682 2.18966 2.04191 0
M  V30 3508 H 324.228 1.05413 0.981029 0
M  V30 3509 H 326.181 0.908513 4.1149 0
M  V30 3510 H 324.905 0.000980011 3.266 0
M  V30 3511 H 323.564 2.11603 2.99366 0
M  V30 3512 H 323.212 0.648569 4.98801 0
M  V30 3513 H 322.912 2.36 5.38124 0
M  V30 3514 H 324.436 1.5833 5.89715 0
M  V30 3515 H 325.85 3.43888 4.58709 0
M  V30 3516 H 324.247 4.1788 4.30693 0
M  V30 3517 H 325.317 3.86462 2.92874 0
M  V30 3518 N 326.66 -1.06551 1.16123 0
M  V30 3519 C 327.61 -2.12209 0.833736 0
M  V30 3520 C 328.594 -1.59825 -0.185656 0
M  V30 3521 O 329.786 -1.76994 0.0147906 0
M  V30 3522 C 326.915 -3.41674 0.333697 0
M  V30 3523 C 326.001 -4.00892 1.38372 0
M  V30 3524 N 326.392 -4.34256 2.59337 0
M  V30 3525 C 324.69 -4.28463 1.23836 0
M  V30 3526 C 325.391 -4.81291 3.26701 0
M  V30 3527 N 324.367 -4.80565 2.54083 0
M  V30 3528 H 328.169 -2.35849 1.75364 0
M  V30 3529 H 325.683 -1.24068 1.04789 0
M  V30 3530 H 327.68 -4.16822 0.0806918 0
M  V30 3531 H 326.34 -3.19475 -0.58017 0
M  V30 3532 H 327.351 -4.24687 2.96415 0
M  V30 3533 H 324.028 -4.15721 0.38504 0
M  V30 3534 H 325.418 -5.16332 4.29943 0
M  V30 3535 N 328.138 -0.959301 -1.25041 0
M  V30 3536 C 329.048 -0.489994 -2.29426 0
M  V30 3537 C 330.064 0.444944 -1.68215 0
M  V30 3538 O 331.24 0.320046 -1.98841 0
M  V30 3539 C 328.305 0.220309 -3.45999 0
M  V30 3540 C 327.366 -0.753418 -4.22637 0
M  V30 3541 C 326.599 -0.076918 -5.33645 0
M  V30 3542 O 326.822 1.13649 -5.58963 0
M  V30 3543 O 325.756 -0.764824 -5.97021 0
M  V30 3544 H 329.582 -1.35755 -2.71669 0
M  V30 3545 H 327.167 -0.725961 -1.30576 0
M  V30 3546 H 329.049 0.619677 -4.16819 0
M  V30 3547 H 327.724 1.06296 -3.0575 0
M  V30 3548 H 326.631 -1.20308 -3.54227 0
M  V30 3549 H 327.964 -1.56423 -4.66683 0
M  V30 3550 N 329.616 1.39756 -0.72842 0
M  V30 3551 C 330.841 2.05472 -0.282159 0
M  V30 3552 C 331.266 1.54549 1.07221 0
M  V30 3553 O 330.624 0.686372 1.67805 0
M  V30 3554 C 330.672 3.59462 -0.286264 0
M  V30 3555 O 329.776 4.05918 0.728298 0
M  V30 3556 H 329.117 0.651226 -0.129618 0
M  V30 3557 H 331.647 1.78915 -0.992499 0
M  V30 3558 H 331.657 4.07798 -0.128373 0
M  V30 3559 H 330.332 3.95889 -1.27456 0
M  V30 3560 H 328.909 3.69012 0.537081 0
M  V30 3561 N 331.094 0.475555 1.50254 0
M  V30 3562 C 332.319 -0.0777042 2.07254 0
M  V30 3563 C 332.744 -1.3235 1.3366 0
M  V30 3564 O 332.102 -1.77152 0.385597 0
M  V30 3565 C 332.15 -0.340169 3.58992 0
M  V30 3566 O 331.254 -1.41982 3.87188 0
M  V30 3567 H 330.595 0.0149556 0.663832 0
M  V30 3568 H 333.125 0.667878 1.93392 0
M  V30 3569 H 333.135 -0.579332 4.03866 0
M  V30 3570 H 331.81 0.570167 4.11973 0
M  V30 3571 H 330.387 -1.16762 3.54148 0
M  V30 3572 N 332.573 -1.56217 0.208337 0
M  V30 3573 C 333.821 -1.97558 -0.426076 0
M  V30 3574 C 334.142 -1.09683 -1.61229 0
M  V30 3575 O 333.412 -0.170956 -1.95153 0
M  V30 3576 H 331.992 -0.729575 -0.160405 0
M  V30 3577 H 334.654 -1.92606 0.298155 0
M  V30 3578 H 333.75 -3.02672 -0.761312 0
M  V30 3579 N 334.051 0.0651679 -1.57465 0
M  V30 3580 C 335.3 0.761916 -1.86756 0
M  V30 3581 C 335.613 1.78406 -0.801925 0
M  V30 3582 O 336.819 2.53084 -0.982885 0
M  V30 3583 C 335.275 1.40603 -3.31299 0
M  V30 3584 C 334.883 0.422115 -4.46007 0
M  V30 3585 C 336.627 2.08476 -3.69781 0
M  V30 3586 C 334.534 1.07252 -5.81593 0
M  V30 3587 H 333.464 0.288308 -0.696702 0
M  V30 3588 H 336.115 0.015344 -1.83494 0
M  V30 3589 H 334.497 2.20109 -3.29193 0
M  V30 3590 H 335.671 -0.343613 -4.59517 0
M  V30 3591 H 333.986 -0.152527 -4.16121 0
M  V30 3592 H 336.583 2.57925 -4.68379 0
M  V30 3593 H 336.926 2.88712 -2.99919 0
M  V30 3594 H 337.459 1.35792 -3.73905 0
M  V30 3595 H 334.198 0.310342 -6.54765 0
M  V30 3596 H 333.718 1.80895 -5.71872 0
M  V30 3597 H 335.397 1.59043 -6.27148 0
M  V30 3598 N 335.529 1.53961 0.336706 0
M  V30 3599 C 336.479 1.7881 1.41461 0
M  V30 3600 C 337.463 0.643561 1.47469 0
M  V30 3601 O 338.655 0.903166 1.52223 0
M  V30 3602 C 335.784 2.00722 2.78506 0
M  V30 3603 C 334.87 3.2126 2.76862 0
M  V30 3604 N 335.261 4.42588 2.44845 0
M  V30 3605 C 333.559 3.22568 3.08004 0
M  V30 3606 C 334.26 5.2447 2.51607 0
M  V30 3607 N 333.236 4.61344 2.87511 0
M  V30 3608 H 337.038 2.70205 1.15615 0
M  V30 3609 H 334.552 1.52978 0.545112 0
M  V30 3610 H 336.549 2.1666 3.5618 0
M  V30 3611 H 335.209 1.10573 3.05293 0
M  V30 3612 H 336.22 4.69819 2.17922 0
M  V30 3613 H 332.897 2.42409 3.39918 0
M  V30 3614 H 334.287 6.31324 2.29955 0
M  V30 3615 N 337.007 -0.598083 1.45811 0
M  V30 3616 C 338.284 -1.35777 1.40797 0
M  V30 3617 C 338.664 -2.10935 0.083462 0
M  V30 3618 O 338.012 -2.08505 -0.934763 0
M  V30 3619 C 338.222 -2.29666 2.62783 0
M  V30 3620 C 339.57 -2.91977 3.08277 0
M  V30 3621 O 340.594 -2.39984 2.63223 0
M  V30 3622 O 339.453 -3.86376 3.86491 0
M  V30 3623 H 336.547 -0.609291 0.55919 0
M  V30 3624 H 339.093 -0.620379 1.57954 0
M  V30 3625 H 337.865 -1.73454 3.50756 0
M  V30 3626 H 337.488 -3.1077 2.48008 0
M  V30 3627 N 338.485 -1.33259 -0.841409 0
M  V30 3628 C 339.734 -1.23921 -1.59143 0
M  V30 3629 C 340.047 0.1941 -1.94635 0
M  V30 3630 O 341.253 0.409474 -2.68394 0
M  V30 3631 C 339.709 -2.17119 -2.87032 0
M  V30 3632 C 339.317 -3.65606 -2.58914 0
M  V30 3633 C 341.061 -2.16648 -3.65053 0
M  V30 3634 C 338.968 -4.50726 -3.82884 0
M  V30 3635 H 337.898 -0.460264 -0.597221 0
M  V30 3636 H 340.549 -1.58307 -0.927959 0
M  V30 3637 H 338.931 -1.75663 -3.54906 0
M  V30 3638 H 340.105 -4.15487 -1.99267 0
M  V30 3639 H 338.42 -3.68341 -1.942 0
M  V30 3640 H 341.017 -2.77474 -4.57069 0
M  V30 3641 H 341.36 -1.16088 -3.99787 0
M  V30 3642 H 341.893 -2.56453 -3.041 0
M  V30 3643 H 338.632 -5.52151 -3.53283 0
M  V30 3644 H 338.152 -4.0559 -4.41879 0
M  V30 3645 H 339.831 -4.64401 -4.50489 0
M  V30 3646 N 339.963 1.05934 -1.16686 0
M  V30 3647 C 341.211 1.78447 -0.948744 0
M  V30 3648 C 341.532 1.87813 0.524523 0
M  V30 3649 O 340.802 1.38945 1.38098 0
M  V30 3650 H 339.382 0.660971 -0.348033 0
M  V30 3651 H 342.044 1.27947 -1.47022 0
M  V30 3652 H 341.14 2.80394 -1.37061 0
M  V30 3653 N 341.441 0.965919 1.2453 0
M  V30 3654 C 342.371 0.513476 2.27784 0
M  V30 3655 C 343.352 -0.445974 1.6415 0
M  V30 3656 O 344.537 -0.342485 1.91156 0
M  V30 3657 C 341.667 -0.198839 3.4673 0
M  V30 3658 C 340.621 0.676456 4.2262 0
M  V30 3659 C 339.947 -0.167248 5.34438 0
M  V30 3660 C 341.247 1.96017 4.84123 0
M  V30 3661 H 342.941 1.3765 2.65881 0
M  V30 3662 H 340.487 0.663321 1.27813 0
M  V30 3663 H 342.44 -0.526567 4.18097 0
M  V30 3664 H 341.164 -1.0962 3.07654 0
M  V30 3665 H 339.823 0.98743 3.53052 0
M  V30 3666 H 339.471 -1.0647 4.91603 0
M  V30 3667 H 339.171 0.415181 5.86131 0
M  V30 3668 H 340.695 -0.489688 6.08633 0
M  V30 3669 H 342.109 1.69814 5.47573 0
M  V30 3670 H 340.506 2.48918 5.4604 0
M  V30 3671 H 341.576 2.65622 4.05676 0
M  V30 3672 N 342.919 -1.39368 0.735821 0
M  V30 3673 C 344.33 -1.83313 0.354015 0
M  V30 3674 C 344.681 -1.61461 -1.11466 0
M  V30 3675 O 343.806 -1.10621 -1.85989 0
M  V30 3676 C 344.401 -3.32781 0.635769 0
M  V30 3677 C 342.96 -3.75142 0.307448 0
M  V30 3678 C 342.107 -2.62358 0.897974 0
M  V30 3679 H 345.058 -1.28349 0.933398 0
M  V30 3680 H 345.079 -3.80388 -0.0921773 0
M  V30 3681 H 344.591 -3.48654 1.70476 0
M  V30 3682 H 342.692 -3.64857 -0.755674 0
M  V30 3683 H 342.805 -4.72532 0.790583 0
M  V30 3684 H 341.169 -2.52624 0.324551 0
M  V30 3685 H 341.952 -2.81036 1.97164 0
M  V30 3686 N 344.397 -0.483516 -1.5 0
M  V30 3687 C 345.329 0.340634 -2.26655 0
M  V30 3688 C 346.342 0.946152 -1.32483 0
M  V30 3689 O 347.531 0.832453 -1.579 0
M  V30 3690 C 344.631 1.4929 -3.04246 0
M  V30 3691 C 343.804 0.997903 -4.25865 0
M  V30 3692 C 342.863 2.02569 -4.85646 0
M  V30 3693 O 341.889 1.60128 -5.46212 0
M  V30 3694 N 343.091 3.3548 -4.73744 0
M  V30 3695 H 345.856 -0.316577 -2.98023 0
M  V30 3696 H 343.417 -0.315024 -1.58806 0
M  V30 3697 H 345.409 2.17766 -3.41116 0
M  V30 3698 H 343.979 2.05458 -2.35597 0
M  V30 3699 H 343.199 0.138617 -3.93956 0
M  V30 3700 H 344.487 0.645305 -5.04691 0
M  V30 3701 H 343.885 3.72661 -4.25605 0
M  V30 3702 H 342.442 3.99718 -5.14848 0
M  V30 3703 N 345.875 1.56104 -0.216619 0
M  V30 3704 C 347.121 1.99219 0.410301 0
M  V30 3705 C 347.476 1.10169 1.57735 0
M  V30 3706 O 346.769 0.150598 1.91007 0
M  V30 3707 C 346.963 3.45923 0.898464 0
M  V30 3708 C 346.792 4.49163 -0.219748 0
M  V30 3709 C 345.562 5.00642 -0.684516 0
M  V30 3710 C 347.76 5.03751 -1.03629 0
M  V30 3711 N 345.742 5.87579 -1.7783 0
M  V30 3712 C 347.113 5.87566 -1.97904 0
M  V30 3713 C 349.168 4.86128 -1.07629 0
M  V30 3714 C 347.871 6.5564 -2.95851 0
M  V30 3715 C 349.897 5.54958 -2.04392 0
M  V30 3716 C 349.259 6.38536 -2.97407 0
M  V30 3717 H 345.358 0.773206 0.11695 0
M  V30 3718 H 347.942 1.9193 -0.327258 0
M  V30 3719 H 346.113 3.53669 1.6054 0
M  V30 3720 H 347.845 3.75963 1.49779 0
M  V30 3721 H 344.6 4.72807 -0.27399 0
M  V30 3722 H 345.024 6.3575 -2.32705 0
M  V30 3723 H 349.666 4.21168 -0.371099 0
M  V30 3724 H 347.384 7.19785 -3.67335 0
M  V30 3725 H 350.97 5.43289 -2.08154 0
M  V30 3726 H 349.85 6.90858 -3.71059 0
M  V30 3727 N 347.353 -0.0568162 1.57498 0
M  V30 3728 C 348.285 -1.09292 2.01464 0
M  V30 3729 C 349.298 -1.34112 0.922913 0
M  V30 3730 O 350.487 -1.32089 1.20062 0
M  V30 3731 C 347.587 -2.44068 2.35125 0
M  V30 3732 C 346.76 -2.38995 3.66333 0
M  V30 3733 C 345.819 -3.55997 3.87495 0
M  V30 3734 O 344.845 -3.36746 4.58901 0
M  V30 3735 N 346.047 -4.76888 3.30996 0
M  V30 3736 H 348.812 -0.718386 2.90963 0
M  V30 3737 H 346.373 -0.245235 1.60032 0
M  V30 3738 H 348.365 -3.21011 2.46443 0
M  V30 3739 H 346.935 -2.73468 1.5144 0
M  V30 3740 H 346.155 -1.47336 3.65631 0
M  V30 3741 H 347.443 -2.3272 4.52458 0
M  V30 3742 H 346.841 -4.95431 2.73065 0
M  V30 3743 H 345.398 -5.51291 3.47738 0
M  V30 3744 N 348.832 -1.54138 -0.328536 0
M  V30 3745 C 349.762 -1.86167 -1.40939 0
M  V30 3746 C 350.743 -0.718044 -1.54202 0
M  V30 3747 O 351.928 -0.971328 -1.68163 0
M  V30 3748 C 349.058 -2.08461 -2.77779 0
M  V30 3749 C 348.012 -3.24299 -2.7931 0
M  V30 3750 C 347.338 -3.31955 -4.19178 0
M  V30 3751 C 348.638 -4.62065 -2.43502 0
M  V30 3752 H 350.332 -2.76689 -1.14383 0
M  V30 3753 H 347.878 -1.33132 -0.548806 0
M  V30 3754 H 349.831 -2.29453 -3.53454 0
M  V30 3755 H 348.555 -1.14684 -3.05802 0
M  V30 3756 H 347.214 -3.03187 -2.0609 0
M  V30 3757 H 346.862 -2.35745 -4.44335 0
M  V30 3758 H 346.562 -4.09805 -4.2111 0
M  V30 3759 H 348.086 -3.55175 -4.96672 0
M  V30 3760 H 349.5 -4.8297 -3.08889 0
M  V30 3761 H 347.897 -5.42429 -2.56693 0
M  V30 3762 H 348.967 -4.64652 -1.38659 0
M  V30 3763 N 350.31 0.590341 -1.46126 0
M  V30 3764 C 351.24 1.71032 -1.58966 0
M  V30 3765 C 352.221 1.64302 -0.440335 0
M  V30 3766 O 353.406 1.82436 -0.665634 0
M  V30 3767 C 350.536 3.09665 -1.57241 0
M  V30 3768 C 349.49 3.31221 -2.71066 0
M  V30 3769 C 348.816 4.70303 -2.54399 0
M  V30 3770 C 350.116 3.19796 -4.1295 0
M  V30 3771 H 351.81 1.60543 -2.52718 0
M  V30 3772 H 349.356 0.770933 -1.21625 0
M  V30 3773 H 351.309 3.87831 -1.64819 0
M  V30 3774 H 350.033 3.21036 -0.600289 0
M  V30 3775 H 348.692 2.55452 -2.62944 0
M  V30 3776 H 348.34 4.78429 -1.55288 0
M  V30 3777 H 348.04 4.85679 -3.30741 0
M  V30 3778 H 349.564 5.50647 -2.63857 0
M  V30 3779 H 350.978 3.87815 -4.22223 0
M  V30 3780 H 349.375 3.46696 -4.89818 0
M  V30 3781 H 350.445 2.16983 -4.33643 0
M  V30 3782 N 351.788 1.33704 0.83433 0
M  V30 3783 C 352.718 1.26967 1.95963 0
M  V30 3784 C 353.699 0.149337 1.69443 0
M  V30 3785 O 354.884 0.339852 1.91203 0
M  V30 3786 C 352.014 1.01275 3.32206 0
M  V30 3787 C 350.968 2.09652 3.73136 0
M  V30 3788 C 350.294 1.69166 5.07235 0
M  V30 3789 C 351.594 3.51372 3.86439 0
M  V30 3790 H 353.288 2.2112 2.01857 0
M  V30 3791 H 350.834 1.06447 0.969793 0
M  V30 3792 H 352.787 0.952106 4.10503 0
M  V30 3793 H 351.511 0.0356203 3.26581 0
M  V30 3794 H 350.17 2.14766 2.97104 0
M  V30 3795 H 349.818 0.701437 4.98085 0
M  V30 3796 H 349.518 2.41694 5.35591 0
M  V30 3797 H 351.042 1.64576 5.88003 0
M  V30 3798 H 352.456 3.48734 4.55036 0
M  V30 3799 H 350.853 4.22425 4.26236 0
M  V30 3800 H 351.923 3.89546 2.88759 0
M  V30 3801 N 353.266 -1.05314 1.17247 0
M  V30 3802 C 354.506 -1.79869 0.970898 0
M  V30 3803 C 354.87 -1.85594 -0.491808 0
M  V30 3804 O 356.071 -2.56229 -0.812409 0
M  V30 3805 C 354.342 -3.19937 1.59295 0
M  V30 3806 S 355.901 -4.10986 1.53741 0
M  V30 3807 H 352.719 -0.61949 0.348931 0
M  V30 3808 H 355.321 -1.26368 1.49169 0
M  V30 3809 H 354.025 -3.13372 2.65003 0
M  V30 3810 H 353.556 -3.78515 1.07191 0
M  V30 3811 H 355.571 -4.93203 0.544537 0
M  V30 3812 N 354.744 -0.972509 -1.24016 0
M  V30 3813 C 355.674 -0.525548 -2.27509 0
M  V30 3814 C 356.655 0.437262 -1.64384 0
M  V30 3815 O 357.84 0.332343 -1.91335 0
M  V30 3816 C 354.97 0.180448 -3.46831 0
M  V30 3817 C 353.924 -0.698859 -4.22256 0
M  V30 3818 C 353.25 0.138903 -5.3452 0
M  V30 3819 C 354.55 -1.98582 -4.83076 0
M  V30 3820 H 356.244 -1.39058 -2.65148 0
M  V30 3821 H 353.79 -0.67009 -1.27459 0
M  V30 3822 H 355.743 0.504387 -4.18371 0
M  V30 3823 H 354.467 1.07987 -3.08231 0
M  V30 3824 H 353.126 -1.00614 -3.52523 0
M  V30 3825 H 352.774 1.03862 -4.9216 0
M  V30 3826 H 352.474 -0.446259 -5.85903 0
M  V30 3827 H 353.998 0.457404 -6.08884 0
M  V30 3828 H 355.412 -1.72715 -5.46665 0
M  V30 3829 H 353.809 -2.5181 -5.44713 0
M  V30 3830 H 354.879 -2.67769 -4.04262 0
M  V30 3831 N 356.222 1.38976 -0.743202 0
M  V30 3832 C 357.155 2.28128 -0.0572165 0
M  V30 3833 C 358.133 1.44827 0.739182 0
M  V30 3834 O 359.317 1.74207 0.720009 0
M  V30 3835 C 356.444 3.25796 0.926001 0
M  V30 3836 C 355.49 4.25947 0.217099 0
M  V30 3837 S 356.323 5.24604 -1.07477 0
M  V30 3838 C 357.479 6.25829 -0.0943545 0
M  V30 3839 H 357.712 2.85961 -0.813246 0
M  V30 3840 H 355.245 1.44822 -0.535341 0
M  V30 3841 H 357.203 3.82583 1.48797 0
M  V30 3842 H 355.864 2.66966 1.65493 0
M  V30 3843 H 355.057 4.94746 0.961372 0
M  V30 3844 H 354.659 3.73002 -0.273059 0
M  V30 3845 H 356.951 6.73411 0.743239 0
M  V30 3846 H 357.894 7.0412 -0.749713 0
M  V30 3847 H 358.302 5.63797 0.281706 0
M  V30 3848 N 357.7 0.491464 1.49741 0
M  V30 3849 C 358.946 -0.0565092 2.02721 0
M  V30 3850 C 359.279 -1.37522 1.37118 0
M  V30 3851 O 358.554 -1.87866 0.503645 0
M  V30 3852 C 358.837 -0.219051 3.59433 0
M  V30 3853 C 358.69 1.12211 4.35579 0
M  V30 3854 C 360.009 -0.964157 4.29409 0
M  V30 3855 H 357.128 -0.0190627 0.736753 0
M  V30 3856 H 359.77 0.641021 1.7886 0
M  V30 3857 H 357.92 -0.813165 3.79895 0
M  V30 3858 H 359.592 1.75437 4.26637 0
M  V30 3859 H 357.835 1.71377 3.98513 0
M  V30 3860 H 358.506 0.961794 5.43556 0
M  V30 3861 H 360.982 -0.460378 4.13545 0
M  V30 3862 H 359.858 -1.04671 5.38828 0
M  V30 3863 H 360.119 -2.00563 3.93988 0
M  V30 3864 N 359.178 -1.55987 0.224894 0
M  V30 3865 C 360.424 -1.98684 -0.406502 0
M  V30 3866 C 360.757 -1.11248 -1.59177 0
M  V30 3867 O 360.032 -0.170909 -1.93748 0
M  V30 3868 C 360.315 -3.50218 -0.837808 0
M  V30 3869 C 360.168 -4.48426 0.351332 0
M  V30 3870 C 361.487 -4.06243 -1.69278 0
M  V30 3871 H 358.606 -0.722337 -0.146283 0
M  V30 3872 H 361.248 -1.87255 0.321799 0
M  V30 3873 H 359.398 -3.60089 -1.45837 0
M  V30 3874 H 361.07 -4.50562 0.989526 0
M  V30 3875 H 359.313 -4.22159 0.998207 0
M  V30 3876 H 359.984 -5.52 0.00655905 0
M  V30 3877 H 362.46 -3.99337 -1.16914 0
M  V30 3878 H 361.336 -5.12581 -1.96346 0
M  V30 3879 H 361.597 -3.53332 -2.65723 0
M  V30 3880 N 360.656 0.0484629 -1.57525 0
M  V30 3881 C 361.902 0.744226 -1.88651 0
M  V30 3882 C 362.235 1.76029 -0.820212 0
M  V30 3883 O 361.51 1.93782 0.166985 0
M  V30 3884 C 361.793 1.43128 -3.30434 0
M  V30 3885 C 361.646 0.43005 -4.47739 0
M  V30 3886 C 362.965 2.37031 -3.70816 0
M  V30 3887 H 360.084 0.269089 -0.68612 0
M  V30 3888 H 362.726 0.00713532 -1.89999 0
M  V30 3889 H 360.876 2.05956 -3.29415 0
M  V30 3890 H 362.548 -0.194816 -4.60888 0
M  V30 3891 H 360.791 -0.252522 -4.33064 0
M  V30 3892 H 361.462 0.948874 -5.43783 0
M  V30 3893 H 363.938 1.84263 -3.73077 0
M  V30 3894 H 362.814 2.82094 -4.70865 0
M  V30 3895 H 363.075 3.22864 -3.02012 0
M  V30 3896 N 362.134 1.5431 0.320358 0
M  V30 3897 C 363.383 1.7188 1.05546 0
M  V30 3898 C 363.696 0.501143 1.89071 0
M  V30 3899 O 364.902 0.558258 2.65699 0
M  V30 3900 C 363.358 3.04025 1.92605 0
M  V30 3901 C 362.966 4.33207 1.14176 0
M  V30 3902 C 364.71 3.30959 2.65832 0
M  V30 3903 C 362.617 5.56412 2.00399 0
M  V30 3904 H 361.547 0.640547 0.397763 0
M  V30 3905 H 364.198 1.80802 0.313522 0
M  V30 3906 H 362.58 2.89019 2.7071 0
M  V30 3907 H 363.754 4.58989 0.40819 0
M  V30 3908 H 362.069 4.13062 0.526165 0
M  V30 3909 H 364.666 4.20203 3.30656 0
M  V30 3910 H 365.009 2.48979 3.33639 0
M  V30 3911 H 365.542 3.46847 1.94787 0
M  V30 3912 H 362.281 6.41004 1.37094 0
M  V30 3913 H 361.801 5.34844 2.7148 0
M  V30 3914 H 363.48 5.92938 2.58908 0
M  V30 3915 N 363.613 -0.582584 1.46437 0
M  V30 3916 C 364.859 -1.34278 1.51978 0
M  V30 3917 C 365.192 -1.93446 0.170973 0
M  V30 3918 O 364.467 -1.76481 -0.817608 0
M  V30 3919 C 364.75 -2.47203 2.61845 0
M  V30 3920 C 364.603 -1.93069 4.06257 0
M  V30 3921 C 365.922 -3.49247 2.67795 0
M  V30 3922 H 363.041 -0.486876 0.553282 0
M  V30 3923 H 365.683 -0.654437 1.78374 0
M  V30 3924 H 363.833 -3.0592 2.39469 0
M  V30 3925 H 365.505 -1.38808 4.3992 0
M  V30 3926 H 363.748 -1.23898 4.1573 0
M  V30 3927 H 364.419 -2.74586 4.7886 0
M  V30 3928 H 366.895 -3.00411 2.8791 0
M  V30 3929 H 365.771 -4.25719 3.46489 0
M  V30 3930 H 366.032 -4.06482 1.73852 0
M  V30 3931 N 365.091 -1.34144 -0.827227 0
M  V30 3932 C 366.021 -1.28005 -1.95287 0
M  V30 3933 C 367.002 -0.158321 -1.69362 0
M  V30 3934 O 368.187 -0.349987 -1.9102 0
M  V30 3935 C 365.317 -1.03036 -3.31664 0
M  V30 3936 C 364.271 -2.11628 -3.72019 0
M  V30 3937 C 363.597 -1.71854 -5.0633 0
M  V30 3938 C 364.897 -3.53417 -3.8457 0
M  V30 3939 H 366.591 -2.22187 -2.00682 0
M  V30 3940 H 364.137 -1.0696 -0.964135 0
M  V30 3941 H 366.09 -0.973863 -4.09993 0
M  V30 3942 H 364.814 -0.0529391 -3.26557 0
M  V30 3943 H 363.473 -2.16339 -2.95961 0
M  V30 3944 H 363.121 -0.727841 -4.97706 0
M  V30 3945 H 362.821 -2.44531 -5.34302 0
M  V30 3946 H 364.345 -1.67692 -5.87122 0
M  V30 3947 H 365.759 -3.51142 -4.5318 0
M  V30 3948 H 364.156 -4.24679 -4.2399 0
M  V30 3949 H 365.226 -3.91072 -2.86689 0
M  V30 3950 N 366.569 1.04691 -1.17803 0
M  V30 3951 C 367.799 1.81183 -0.992788 0
M  V30 3952 C 368.207 1.8347 0.462098 0
M  V30 3953 O 367.55 1.2643 1.33271 0
M  V30 3954 C 367.612 3.28363 -1.46349 0
M  V30 3955 C 367.276 3.49749 -2.94151 0
M  V30 3956 C 368.273 3.41456 -3.92051 0
M  V30 3957 C 365.958 3.76548 -3.32441 0
M  V30 3958 C 367.952 3.59656 -5.26238 0
M  V30 3959 C 365.639 3.94396 -4.66792 0
M  V30 3960 C 366.637 3.8595 -5.635 0
M  V30 3961 O 366.325 4.03294 -6.9542 0
M  V30 3962 H 366.057 0.577622 -0.351182 0
M  V30 3963 H 368.611 1.32876 -1.5663 0
M  V30 3964 H 366.841 3.77609 -0.833574 0
M  V30 3965 H 368.53 3.86395 -1.24313 0
M  V30 3966 H 369.296 3.20723 -3.63815 0
M  V30 3967 H 365.175 3.82224 -2.57732 0
M  V30 3968 H 368.719 3.52979 -6.01707 0
M  V30 3969 H 364.616 4.14622 -4.94731 0
M  V30 3970 H 365.384 4.2049 -7.02232 0
M  V30 3971 N 368.047 0.979072 1.23499 0
M  V30 3972 C 369.294 0.647219 1.91878 0
M  V30 3973 C 369.622 -0.819074 1.76413 0
M  V30 3974 O 368.877 -1.60616 1.11808 0
M  V30 3975 C 369.176 0.981932 3.43646 0
M  V30 3976 C 368.842 2.43822 3.79291 0
M  V30 3977 C 367.504 2.83622 3.88731 0
M  V30 3978 C 369.856 3.3828 3.96505 0
M  V30 3979 C 367.184 4.16897 4.12812 0
M  V30 3980 C 369.536 4.71197 4.22085 0
M  V30 3981 C 368.2 5.10758 4.29747 0
M  V30 3982 H 367.47 0.236834 0.702133 0
M  V30 3983 H 370.117 1.23268 1.46551 0
M  V30 3984 H 368.422 0.314365 3.90537 0
M  V30 3985 H 370.119 0.703395 3.94783 0
M  V30 3986 H 366.709 2.11966 3.72516 0
M  V30 3987 H 370.893 3.0871 3.88603 0
M  V30 3988 H 366.149 4.47157 4.16966 0
M  V30 3989 H 370.323 5.44348 4.34348 0
M  V30 3990 H 367.95 6.1405 4.48159 0
M  V30 3991 N 369.525 -1.3858 0.750561 0
M  V30 3992 C 370.75 -2.04997 0.314812 0
M  V30 3993 C 371.175 -1.56235 -1.04749 0
M  V30 3994 O 370.533 -0.712981 -1.66692 0
M  V30 3995 C 370.581 -3.58961 0.343415 0
M  V30 3996 O 369.685 -4.07025 -0.663628 0
M  V30 3997 H 369.026 -0.649081 0.139962 0
M  V30 3998 H 371.556 -1.77313 1.02084 0
M  V30 3999 H 371.566 -4.07542 0.193233 0
M  V30 4000 H 370.241 -3.93811 1.33738 0
M  V30 4001 H 368.818 -3.6982 -0.478307 0
M  V30 4002 N 371.003 -0.499398 -1.49478 0
M  V30 4003 C 371.933 0.269244 -2.31943 0
M  V30 4004 C 372.914 0.964054 -1.40143 0
M  V30 4005 O 374.099 0.955767 -1.69052 0
M  V30 4006 C 371.229 1.33504 -3.20615 0
M  V30 4007 C 370.183 0.760202 -4.21195 0
M  V30 4008 C 369.509 1.9264 -4.98792 0
M  V30 4009 C 370.809 -0.247661 -5.21712 0
M  V30 4010 H 372.503 -0.419082 -2.96452 0
M  V30 4011 H 370.049 -0.202988 -1.42562 0
M  V30 4012 H 372.002 1.88048 -3.77115 0
M  V30 4013 H 370.726 2.05253 -2.54045 0
M  V30 4014 H 369.385 0.23653 -3.65836 0
M  V30 4015 H 369.033 2.63154 -4.28671 0
M  V30 4016 H 368.733 1.54785 -5.66847 0
M  V30 4017 H 370.257 2.4762 -5.58137 0
M  V30 4018 H 371.671 0.209579 -5.72917 0
M  V30 4019 H 370.068 -0.541962 -5.97648 0
M  V30 4020 H 371.138 -1.16409 -4.7072 0
M  V30 4021 N 372.481 1.55866 -0.233164 0
M  V30 4022 C 373.727 1.99643 0.389148 0
M  V30 4023 C 374.082 1.11836 1.56558 0
M  V30 4024 O 373.375 0.170848 1.90837 0
M  V30 4025 C 373.569 3.46856 0.861724 0
M  V30 4026 C 373.398 4.48904 -0.267376 0
M  V30 4027 C 372.168 4.99888 -0.737577 0
M  V30 4028 C 374.366 5.02624 -1.08966 0
M  V30 4029 N 372.348 5.8566 -1.84052 0
M  V30 4030 C 373.719 5.85434 -2.04125 0
M  V30 4031 C 375.774 4.84959 -1.12779 0
M  V30 4032 C 374.477 6.52466 -3.02789 0
M  V30 4033 C 376.503 5.52759 -2.10266 0
M  V30 4034 C 375.865 6.35346 -3.04162 0
M  V30 4035 H 371.964 0.774402 0.108742 0
M  V30 4036 H 374.548 1.91572 -0.347596 0
M  V30 4037 H 372.719 3.55352 1.5678 0
M  V30 4038 H 374.451 3.77531 1.45783 0
M  V30 4039 H 371.206 4.7249 -0.324122 0
M  V30 4040 H 371.63 6.33246 -2.39434 0
M  V30 4041 H 376.272 4.20751 -0.415749 0
M  V30 4042 H 373.99 7.15849 -3.74948 0
M  V30 4043 H 377.576 5.41051 -2.13905 0
M  V30 4044 H 376.456 6.86883 -3.78366 0
M  V30 4045 N 373.959 -0.0401083 1.57549 0
M  V30 4046 C 374.906 -1.04413 2.05831 0
M  V30 4047 C 375.876 -1.36585 0.945184 0
M  V30 4048 O 377.061 -1.47112 1.21502 0
M  V30 4049 C 374.201 -2.34336 2.53339 0
M  V30 4050 C 373.314 -2.08419 3.78398 0
M  V30 4051 C 372.449 -3.32133 4.14561 0
M  V30 4052 C 371.488 -3.01721 5.3257 0
M  V30 4053 N 370.625 -4.17855 5.64218 0
M  V30 4054 H 375.465 -0.625442 2.91363 0
M  V30 4055 H 373.002 -0.297218 1.44066 0
M  V30 4056 H 374.96 -3.10234 2.78946 0
M  V30 4057 H 373.59 -2.73948 1.7074 0
M  V30 4058 H 372.642 -1.23069 3.59942 0
M  V30 4059 H 373.954 -1.81978 4.64419 0
M  V30 4060 H 373.108 -4.16406 4.41238 0
M  V30 4061 H 371.847 -3.61678 3.2717 0
M  V30 4062 H 370.852 -2.15849 5.05657 0
M  V30 4063 H 372.077 -2.73466 6.21605 0
M  V30 4064 H 370.023 -4.47372 4.79786 0
M  V30 4065 H 369.94 -3.94798 6.44725 0
M  V30 4066 H 371.208 -5.03033 5.95465 0
M  V30 4067 N 375.437 -1.54477 -0.31217 0
M  V30 4068 C 376.685 -1.72884 -1.04668 0
M  V30 4069 C 377.006 -0.511477 -1.88173 0
M  V30 4070 O 376.276 0.474407 -1.90069 0
M  V30 4071 H 374.856 -0.637461 -0.389425 0
M  V30 4072 H 377.518 -1.91807 -0.345852 0
M  V30 4073 H 376.614 -2.61334 -1.70619 0
M  V30 4074 N 376.915 0.57481 -1.46744 0
M  V30 4075 C 378.161 1.3347 -1.52688 0
M  V30 4076 C 378.494 1.93353 -0.181229 0
M  V30 4077 O 377.769 1.76912 0.808237 0
M  V30 4078 C 378.052 2.45811 -2.63152 0
M  V30 4079 C 377.905 1.90912 -4.07275 0
M  V30 4080 C 379.224 3.47822 -2.69644 0
M  V30 4081 H 376.343 0.483935 -0.555856 0
M  V30 4082 H 378.985 0.644968 -1.78718 0
M  V30 4083 H 377.135 3.04646 -2.41088 0
M  V30 4084 H 378.807 1.36473 -4.4065 0
M  V30 4085 H 377.05 1.21691 -4.16382 0
M  V30 4086 H 377.721 2.72042 -4.80309 0
M  V30 4087 H 380.197 2.9888 -2.895 0
M  V30 4088 H 379.073 4.23876 -3.48742 0
M  V30 4089 H 379.334 4.05555 -1.76005 0
M  V30 4090 N 378.394 1.34581 0.820102 0
M  V30 4091 C 379.341 1.2639 1.93117 0
M  V30 4092 C 380.311 0.138554 1.65521 0
M  V30 4093 O 381.496 0.320004 1.88097 0
M  V30 4094 C 378.636 1.02812 3.29429 0
M  V30 4095 C 377.749 2.24146 3.693 0
M  V30 4096 C 376.884 1.93829 4.94574 0
M  V30 4097 C 375.923 3.1129 5.27034 0
M  V30 4098 N 375.06 2.80838 6.43486 0
M  V30 4099 H 379.9 2.21408 1.99455 0
M  V30 4100 H 377.437 1.10077 0.975784 0
M  V30 4101 H 379.395 0.871788 4.0799 0
M  V30 4102 H 378.025 0.114612 3.22596 0
M  V30 4103 H 377.077 2.50691 2.86109 0
M  V30 4104 H 378.389 3.11899 3.89257 0
M  V30 4105 H 377.543 1.74948 5.80929 0
M  V30 4106 H 376.282 1.03341 4.76626 0
M  V30 4107 H 375.287 3.30764 4.39175 0
M  V30 4108 H 376.512 4.02561 5.4692 0
M  V30 4109 H 374.458 1.92929 6.26988 0
M  V30 4110 H 374.375 3.62123 6.63629 0
M  V30 4111 H 375.643 2.65467 7.32903 0
M  V30 4112 N 379.872 -1.04064 1.18357 0
M  V30 4113 C 381.1 -1.80916 1.00384 0
M  V30 4114 C 381.515 -1.83414 -0.447738 0
M  V30 4115 O 380.872 -1.26962 -1.31099 0
M  V30 4116 C 380.923 -3.26516 1.55144 0
M  V30 4117 O 380.644 -3.2424 2.94618 0
M  V30 4118 C 382.145 -4.20013 1.41789 0
M  V30 4119 H 379.365 -0.569728 0.354474 0
M  V30 4120 H 381.909 -1.31151 1.56906 0
M  V30 4121 H 380.064 -3.73512 1.02798 0
M  V30 4122 H 380.478 -4.15452 3.20156 0
M  V30 4123 H 381.952 -5.20111 1.84901 0
M  V30 4124 H 382.429 -4.37667 0.36661 0
M  V30 4125 H 383.035 -3.78881 1.93207 0
M  V30 4126 N 381.35 -0.985608 -1.22978 0
M  V30 4127 C 382.575 -0.675254 -1.961 0
M  V30 4128 C 383 0.752154 -1.72407 0
M  V30 4129 O 382.358 1.5131 -0.998751 0
M  V30 4130 C 382.406 -0.977899 -3.47087 0
M  V30 4131 O 381.51 -0.072685 -4.12336 0
M  V30 4132 H 380.851 -0.253443 -0.613728 0
M  V30 4133 H 383.381 -1.32061 -1.56272 0
M  V30 4134 H 383.391 -0.916739 -3.97567 0
M  V30 4135 H 382.066 -2.01807 -3.63657 0
M  V30 4136 H 380.643 -0.188703 -3.72422 0
M  V30 4137 N 382.828 1.3818 -0.7579 0
M  V30 4138 C 384.076 1.99624 -0.315361 0
M  V30 4139 C 384.397 1.60464 1.10799 0
M  V30 4140 O 383.667 0.863507 1.75842 0
M  V30 4141 H 382.247 0.73831 -0.113611 0
M  V30 4142 H 384.909 1.68878 -0.972952 0
M  V30 4143 H 384.005 3.09754 -0.381931 0
M  V30 4144 N 384.306 0.507319 1.49211 0
M  V30 4145 C 385.253 -0.267728 2.29242 0
M  V30 4146 C 386.223 -0.954609 1.35928 0
M  V30 4147 O 387.408 -0.960046 1.64887 0
M  V30 4148 C 384.548 -1.32243 3.18756 0
M  V30 4149 C 383.661 -0.64669 4.27132 0
M  V30 4150 C 382.796 -1.68238 5.03855 0
M  V30 4151 C 381.835 -0.98885 6.0406 0
M  V30 4152 N 380.972 -1.96903 6.73924 0
M  V30 4153 H 385.812 0.420968 2.95012 0
M  V30 4154 H 383.349 0.219443 1.45454 0
M  V30 4155 H 385.307 -1.94599 3.69036 0
M  V30 4156 H 383.937 -1.97981 2.54958 0
M  V30 4157 H 382.989 0.0902926 3.80293 0
M  V30 4158 H 384.301 -0.101058 4.98698 0
M  V30 4159 H 383.455 -2.38081 5.58034 0
M  V30 4160 H 382.194 -2.26187 4.32077 0
M  V30 4161 H 381.199 -0.276222 5.49106 0
M  V30 4162 H 382.424 -0.415767 6.77826 0
M  V30 4163 H 380.37 -2.53803 6.04913 0
M  V30 4164 H 380.287 -1.47423 7.41487 0
M  V30 4165 H 381.555 -2.66015 7.32705 0
M  V30 4166 N 385.784 -1.5574 0.241426 0
M  V30 4167 C 387.03 -1.99104 -0.385406 0
M  V30 4168 C 387.363 -1.1293 -1.57988 0
M  V30 4169 O 386.638 -0.191449 -1.93555 0
M  V30 4170 C 386.921 -3.51087 -0.800616 0
M  V30 4171 C 386.774 -4.48028 0.398874 0
M  V30 4172 C 388.093 -4.08015 -1.64959 0
M  V30 4173 H 385.212 -0.723848 -0.138614 0
M  V30 4174 H 387.854 -1.86903 0.341642 0
M  V30 4175 H 386.004 -3.61615 -1.4201 0
M  V30 4176 H 387.676 -4.49487 1.03726 0
M  V30 4177 H 385.919 -4.21077 1.04293 0
M  V30 4178 H 386.59 -5.51962 0.0651056 0
M  V30 4179 H 389.066 -4.00555 -1.12672 0
M  V30 4180 H 387.942 -5.14635 -1.90898 0
M  V30 4181 H 388.203 -3.56131 -2.61961 0
M  V30 4182 N 387.262 0.0317525 -1.57568 0
M  V30 4183 C 388.508 0.724175 -1.8943 0
M  V30 4184 C 388.841 1.75149 -0.838836 0
M  V30 4185 O 388.116 1.93948 0.146422 0
M  V30 4186 C 388.399 1.39615 -3.31933 0
M  V30 4187 C 388.252 0.382537 -4.4817 0
M  V30 4188 C 389.571 2.33084 -3.73309 0
M  V30 4189 H 386.69 0.261797 -0.688935 0
M  V30 4190 H 389.332 -0.013017 -1.89996 0
M  V30 4191 H 387.482 2.02451 -3.31581 0
M  V30 4192 H 389.154 -0.243689 -4.60656 0
M  V30 4193 H 387.397 -0.29844 -4.32772 0
M  V30 4194 H 388.068 0.891145 -5.44759 0
M  V30 4195 H 390.544 1.80295 -3.7501 0
M  V30 4196 H 389.42 2.77084 -4.73831 0
M  V30 4197 H 389.681 3.19643 -3.05419 0
M  V30 4198 N 388.74 1.54641 0.303973 0
M  V30 4199 C 389.986 1.74969 1.03718 0
M  V30 4200 C 390.341 0.527461 1.85029 0
M  V30 4201 O 389.634 -0.480143 1.85486 0
M  V30 4202 C 389.828 2.97753 1.97681 0
M  V30 4203 C 389.657 4.318 1.25613 0
M  V30 4204 C 388.427 4.95616 0.984518 0
M  V30 4205 C 390.625 5.10021 0.662081 0
M  V30 4206 N 388.607 6.13455 0.233794 0
M  V30 4207 C 389.978 6.19984 0.0439736 0
M  V30 4208 C 392.033 4.94663 0.566835 0
M  V30 4209 C 390.736 7.16264 -0.66016 0
M  V30 4210 C 392.762 5.91271 -0.123637 0
M  V30 4211 C 392.124 7.00601 -0.730608 0
M  V30 4212 H 388.223 0.692873 0.362562 0
M  V30 4213 H 390.807 1.92116 0.316135 0
M  V30 4214 H 388.978 2.82036 2.6704 0
M  V30 4215 H 390.71 3.06621 2.64132 0
M  V30 4216 H 387.465 4.55921 1.28191 0
M  V30 4217 H 387.889 6.76879 -0.127996 0
M  V30 4218 H 392.531 4.10267 1.02181 0
M  V30 4219 H 390.249 8.00204 -1.12691 0
M  V30 4220 H 393.835 5.81466 -0.197236 0
M  V30 4221 H 392.715 7.7407 -1.2564 0
M  V30 4222 N 390.218 -0.567019 1.47046 0
M  V30 4223 C 391.467 -1.32091 1.5243 0
M  V30 4224 C 391.78 -1.94704 0.187021 0
M  V30 4225 O 392.986 -2.7124 0.118771 0
M  V30 4226 C 391.442 -2.39479 2.68659 0
M  V30 4227 C 391.05 -1.831 4.08874 0
M  V30 4228 C 392.794 -3.16111 2.83327 0
M  V30 4229 C 390.701 -2.8821 5.16419 0
M  V30 4230 H 389.631 -0.496629 0.56734 0
M  V30 4231 H 392.282 -0.603354 1.73297 0
M  V30 4232 H 390.664 -3.14105 2.41152 0
M  V30 4233 H 391.838 -1.14913 4.46242 0
M  V30 4234 H 390.153 -1.19085 3.99008 0
M  V30 4235 H 392.75 -3.94585 3.60842 0
M  V30 4236 H 393.093 -3.69686 1.91411 0
M  V30 4237 H 393.626 -2.48595 3.10556 0
M  V30 4238 H 390.365 -2.39504 6.10179 0
M  V30 4239 H 389.885 -3.54839 4.8358 0
M  V30 4240 H 391.564 -3.51881 5.42945 0
M  V30 4241 N 391.696 -1.35014 -0.812953 0
M  V30 4242 C 392.924 -1.31031 -1.6012 0
M  V30 4243 C 393.339 0.113558 -1.88458 0
M  V30 4244 O 392.696 1.06363 -1.48301 0
M  V30 4245 C 392.747 -2.10872 -2.93624 0
M  V30 4246 O 392.468 -3.47706 -2.66518 0
M  V30 4247 C 393.969 -2.14401 -3.88004 0
M  V30 4248 H 391.189 -0.45037 -0.497401 0
M  V30 4249 H 393.733 -1.77775 -1.01076 0
M  V30 4250 H 391.888 -1.67744 -3.492 0
M  V30 4251 H 392.302 -3.89097 -3.51715 0
M  V30 4252 H 393.776 -2.74669 -4.78812 0
M  V30 4253 H 394.253 -1.14105 -4.24119 0
M  V30 4254 H 394.859 -2.57662 -3.38364 0
M  V30 4255 N 393.175 1.03435 -1.18907 0
M  V30 4256 C 394.138 2.09756 -0.923844 0
M  V30 4257 C 395.138 1.60528 0.093416 0
M  V30 4258 O 396.328 1.73631 -0.140727 0
M  V30 4259 C 393.46 3.38692 -0.387354 0
M  V30 4260 H 394.653 2.34719 -1.86674 0
M  V30 4261 H 392.206 1.19959 -1.00197 0
M  V30 4262 H 392.941 3.19396 0.561845 0
M  V30 4263 H 392.726 3.75742 -1.12074 0
M  V30 4264 H 394.216 4.17016 -0.220694 0
M  V30 4265 N 394.653 0.992116 1.22453 0
M  V30 4266 C 395.881 0.685944 1.95198 0
M  V30 4267 C 396.296 -0.749233 1.73297 0
M  V30 4268 O 395.653 -1.50549 1.03156 0
M  V30 4269 C 395.704 0.981395 3.47924 0
M  V30 4270 O 395.425 2.36018 3.6909 0
M  V30 4271 C 396.926 0.692815 4.37853 0
M  V30 4272 H 394.146 0.253821 0.621141 0
M  V30 4273 H 396.69 1.32668 1.55626 0
M  V30 4274 H 394.845 0.386481 3.85467 0
M  V30 4275 H 395.259 2.45884 4.63294 0
M  V30 4276 H 396.733 0.949818 5.43767 0
M  V30 4277 H 397.21 -0.373181 4.37612 0
M  V30 4278 H 397.816 1.26874 4.05935 0
M  V30 4279 N 396.131 -1.37776 0.765217 0
M  V30 4280 C 397.061 -2.32945 0.160953 0
M  V30 4281 C 398.042 -1.55454 -0.690516 0
M  V30 4282 O 399.227 -1.83721 -0.629318 0
M  V30 4283 C 396.357 -3.39669 -0.724031 0
M  V30 4284 C 395.311 -4.27992 0.0256173 0
M  V30 4285 C 394.637 -5.25673 -0.978383 0
M  V30 4286 C 395.937 -5.08309 1.20082 0
M  V30 4287 H 397.631 -2.83728 0.955969 0
M  V30 4288 H 395.177 -1.36416 0.461149 0
M  V30 4289 H 397.13 -4.05219 -1.15652 0
M  V30 4290 H 395.854 -2.87396 -1.5515 0
M  V30 4291 H 394.513 -3.63964 0.438812 0
M  V30 4292 H 394.161 -4.69682 -1.80022 0
M  V30 4293 H 393.861 -5.85625 -0.481378 0
M  V30 4294 H 395.385 -5.94098 -1.40995 0
M  V30 4295 H 396.799 -5.67034 0.845307 0
M  V30 4296 H 395.196 -5.77554 1.62947 0
M  V30 4297 H 396.266 -4.41365 2.00811 0
M  V30 4298 N 397.609 -0.515225 -1.4894 0
M  V30 4299 C 399.02 -0.0710067 -1.86565 0
M  V30 4300 C 399.371 1.34733 -1.42623 0
M  V30 4301 O 398.496 2.00653 -0.810379 0
M  V30 4302 C 399.091 -0.122083 -3.3858 0
M  V30 4303 C 397.65 0.266863 -3.75453 0
M  V30 4304 C 396.797 -0.488376 -2.72966 0
M  V30 4305 H 399.748 -0.727266 -1.41055 0
M  V30 4306 H 399.769 0.669818 -3.74558 0
M  V30 4307 H 399.281 -1.15448 -3.70531 0
M  V30 4308 H 397.382 1.30196 -3.49113 0
M  V30 4309 H 397.495 -0.0624811 -4.79059 0
M  V30 4310 H 395.859 0.0635622 -2.54621 0
M  V30 4311 H 396.642 -1.52113 -3.07761 0
M  V30 4312 N 399.087 1.5561 -0.249682 0
M  V30 4313 C 400.317 2.03116 0.377803 0
M  V30 4314 C 400.725 1.12822 1.51881 0
M  V30 4315 O 400.068 0.13562 1.83199 0
M  V30 4316 C 400.13 3.46866 0.944693 0
M  V30 4317 C 399.794 4.56955 -0.0644259 0
M  V30 4318 C 400.791 5.12485 -0.874957 0
M  V30 4319 C 398.476 5.01936 -0.19132 0
M  V30 4320 C 400.47 6.11491 -1.79881 0
M  V30 4321 C 398.157 6.00773 -1.11868 0
M  V30 4322 C 399.155 6.5543 -1.92095 0
M  V30 4323 O 398.843 7.5234 -2.83267 0
M  V30 4324 H 398.575 0.669489 0.0935961 0
M  V30 4325 H 401.129 2.02004 -0.371966 0
M  V30 4326 H 399.359 3.45136 1.74407 0
M  V30 4327 H 401.048 3.77856 1.48255 0
M  V30 4328 H 401.814 4.78564 -0.787523 0
M  V30 4329 H 397.693 4.59055 0.423072 0
M  V30 4330 H 401.237 6.54078 -2.42543 0
M  V30 4331 H 397.134 6.34114 -1.20703 0
M  V30 4332 H 397.902 7.69966 -2.7766 0
M  V30 4333 N 400.565 -0.0233959 1.57583 0
M  V30 4334 C 401.812 -0.713063 1.8953 0
M  V30 4335 C 402.14 -1.75056 0.847673 0
M  V30 4336 O 401.395 -1.95119 -0.150636 0
M  V30 4337 C 401.694 -1.41428 3.28227 0
M  V30 4338 C 401.36 -0.512222 4.47981 0
M  V30 4339 C 400.022 -0.263785 4.80476 0
M  V30 4340 C 402.374 0.110248 5.21083 0
M  V30 4341 C 399.702 0.615804 5.83459 0
M  V30 4342 C 402.054 0.977573 6.25001 0
M  V30 4343 C 400.718 1.23542 6.55968 0
M  V30 4344 H 399.988 -0.260928 0.69354 0
M  V30 4345 H 402.635 0.0271047 1.91481 0
M  V30 4346 H 400.94 -2.22791 3.22291 0
M  V30 4347 H 402.637 -1.95355 3.50196 0
M  V30 4348 H 399.227 -0.716013 4.22577 0
M  V30 4349 H 403.411 -0.0687137 4.96252 0
M  V30 4350 H 398.667 0.82382 6.05824 0
M  V30 4351 H 402.841 1.46638 6.80786 0
M  V30 4352 H 400.468 1.91871 7.35588 0
M  V30 4353 N 402.043 -1.548 -0.295768 0
M  V30 4354 C 403.289 -1.74588 -1.03184 0
M  V30 4355 C 403.622 -0.532962 -1.86744 0
M  V30 4356 O 402.897 0.469872 -1.88739 0
M  V30 4357 C 403.18 -3.03791 -1.93347 0
M  V30 4358 C 403.033 -4.35392 -1.12933 0
M  V30 4359 C 404.352 -3.28892 -2.92435 0
M  V30 4360 H 401.471 -0.635221 -0.373715 0
M  V30 4361 H 404.113 -1.87519 -0.30606 0
M  V30 4362 H 402.263 -2.92898 -2.55232 0
M  V30 4363 H 403.935 -4.58211 -0.532943 0
M  V30 4364 H 402.178 -4.31642 -0.432168 0
M  V30 4365 H 402.849 -5.22074 -1.79284 0
M  V30 4366 H 405.325 -3.39429 -2.4068 0
M  V30 4367 H 404.201 -4.20603 -3.52682 0
M  V30 4368 H 404.462 -2.47437 -3.6637 0
M  V30 4369 N 403.521 0.559213 -1.47345 0
M  V30 4370 C 404.451 1.67622 -1.62558 0
M  V30 4371 C 405.432 1.63331 -0.475087 0
M  V30 4372 O 406.617 1.80983 -0.704182 0
M  V30 4373 C 403.747 3.0626 -1.63774 0
M  V30 4374 C 402.701 3.25397 -2.7803 0
M  V30 4375 C 402.027 4.64801 -2.64318 0
M  V30 4376 C 403.327 3.10965 -4.19641 0
M  V30 4377 H 405.021 1.55146 -2.56067 0
M  V30 4378 H 402.567 0.744961 -1.23233 0
M  V30 4379 H 404.52 3.84247 -1.73008 0
M  V30 4380 H 403.244 3.1969 -0.66825 0
M  V30 4381 H 401.903 2.49817 -2.68304 0
M  V30 4382 H 401.551 4.75028 -1.65401 0
M  V30 4383 H 401.251 4.78555 -3.40968 0
M  V30 4384 H 402.775 5.44926 -2.75478 0
M  V30 4385 H 404.189 3.78772 -4.30354 0
M  V30 4386 H 402.586 3.36229 -4.97062 0
M  V30 4387 H 403.656 2.07736 -4.38148 0
M  V30 4388 N 404.999 1.35443 0.805782 0
M  V30 4389 C 406.246 1.28761 1.56291 0
M  V30 4390 C 406.574 -0.137747 1.94012 0
M  V30 4391 O 405.829 -1.1032 1.61642 0
M  V30 4392 C 406.128 2.14045 2.86216 0
M  V30 4393 C 405.794 3.62826 2.67709 0
M  V30 4394 C 404.456 4.0338 2.6237 0
M  V30 4395 C 406.808 4.57227 2.50186 0
M  V30 4396 C 404.136 5.36501 2.37451 0
M  V30 4397 C 406.488 5.90547 2.26797 0
M  V30 4398 C 405.152 6.30245 2.1988 0
M  V30 4399 H 404.422 0.471171 0.571908 0
M  V30 4400 H 407.069 1.67347 0.930974 0
M  V30 4401 H 405.374 1.68342 3.53791 0
M  V30 4402 H 407.071 2.0621 3.43917 0
M  V30 4403 H 403.661 3.30644 2.72713 0
M  V30 4404 H 407.845 4.2678 2.53323 0
M  V30 4405 H 403.101 5.66259 2.30567 0
M  V30 4406 H 407.275 6.63274 2.12228 0
M  V30 4407 H 404.902 7.33328 2.00333 0
M  V30 4408 N 406.477 -1.02803 1.19454 0
M  V30 4409 C 407.723 -1.76478 0.999171 0
M  V30 4410 C 408.056 -1.88456 -0.468828 0
M  V30 4411 O 407.331 -1.40198 -1.34814 0
M  V30 4412 C 407.614 -3.19044 1.66981 0
M  V30 4413 C 407.467 -3.14932 3.21151 0
M  V30 4414 C 408.786 -4.17456 1.39349 0
M  V30 4415 H 405.905 -0.640614 0.364393 0
M  V30 4416 H 408.547 -1.20005 1.47305 0
M  V30 4417 H 406.697 -3.67263 1.2669 0
M  V30 4418 H 408.369 -2.74605 3.70661 0
M  V30 4419 H 406.612 -2.52625 3.52652 0
M  V30 4420 H 407.283 -4.1566 3.63223 0
M  V30 4421 H 409.759 -3.77842 1.74283 0
M  V30 4422 H 408.635 -5.154 1.88823 0
M  V30 4423 H 408.896 -4.40949 0.318813 0
M  V30 4424 N 407.956 -0.998596 -1.21925 0
M  V30 4425 C 408.886 -0.573688 -2.26343 0
M  V30 4426 C 409.867 0.402296 -1.65274 0
M  V30 4427 O 411.052 0.291683 -1.91997 0
M  V30 4428 C 408.182 0.106839 -3.47136 0
M  V30 4429 C 407.136 -0.788269 -4.20678 0
M  V30 4430 C 406.462 0.0254927 -5.34694 0
M  V30 4431 C 407.762 -2.08784 -4.78755 0
M  V30 4432 H 409.456 -1.44651 -2.62138 0
M  V30 4433 H 407.002 -0.696975 -1.26009 0
M  V30 4434 H 408.955 0.415531 -4.19346 0
M  V30 4435 H 407.679 1.01424 -3.10452 0
M  V30 4436 H 406.338 -1.08069 -3.50309 0
M  V30 4437 H 405.986 0.933989 -4.94253 0
M  V30 4438 H 405.686 -0.570437 -5.84825 0
M  V30 4439 H 407.21 0.328147 -6.09718 0
M  V30 4440 H 408.624 -1.84272 -5.42878 0
M  V30 4441 H 407.021 -2.63307 -5.39249 0
M  V30 4442 H 408.091 -2.76284 -3.98491 0
M  V30 4443 N 409.434 1.37368 -0.772513 0
M  V30 4444 C 410.364 2.32856 -0.173304 0
M  V30 4445 C 411.345 1.55818 0.682262 0
M  V30 4446 O 412.53 1.84052 0.619566 0
M  V30 4447 C 409.66 3.40048 0.706007 0
M  V30 4448 C 408.614 4.27973 -0.0483144 0
M  V30 4449 C 407.94 5.26184 0.950491 0
M  V30 4450 C 409.24 5.07665 -1.22776 0
M  V30 4451 H 410.934 2.83217 -0.971002 0
M  V30 4452 H 408.48 1.3617 -0.468377 0
M  V30 4453 H 410.433 4.05827 1.13501 0
M  V30 4454 H 409.157 2.88214 1.53623 0
M  V30 4455 H 407.816 3.63726 -0.458107 0
M  V30 4456 H 407.464 4.7063 1.77529 0
M  V30 4457 H 407.164 5.85872 0.450314 0
M  V30 4458 H 408.688 5.94838 1.37842 0
M  V30 4459 H 410.102 5.66578 -0.875366 0
M  V30 4460 H 408.499 5.76681 -1.66007 0
M  V30 4461 H 409.569 4.40294 -2.03149 0
M  V30 4462 N 410.912 0.523116 1.48665 0
M  V30 4463 C 412.158 -0.0134963 2.02796 0
M  V30 4464 C 412.491 -1.34582 1.40004 0
M  V30 4465 O 411.766 -1.86756 0.543381 0
M  V30 4466 C 412.049 -0.14276 3.59817 0
M  V30 4467 C 411.902 1.21425 4.331 0
M  V30 4468 C 413.221 -0.872856 4.31357 0
M  V30 4469 H 410.34 -0.00343074 0.736992 0
M  V30 4470 H 412.982 0.678816 1.7746 0
M  V30 4471 H 411.132 -0.732401 3.81534 0
M  V30 4472 H 412.804 1.84447 4.2282 0
M  V30 4473 H 411.047 1.79791 3.94788 0
M  V30 4474 H 411.718 1.07687 5.41394 0
M  V30 4475 H 414.194 -0.372555 4.14429 0
M  V30 4476 H 413.07 -0.932185 5.40927 0
M  V30 4477 H 413.331 -1.92161 3.98154 0
M  V30 4478 N 412.39 -1.55475 0.257931 0
M  V30 4479 C 413.34 -2.18506 -0.651094 0
M  V30 4480 C 414.324 -1.14431 -1.13112 0
M  V30 4481 O 415.516 -1.40305 -1.07905 0
M  V30 4482 C 412.645 -2.89653 -1.84272 0
M  V30 4483 C 411.731 -4.00996 -1.38068 0
M  V30 4484 N 412.122 -5.01816 -0.633609 0
M  V30 4485 C 410.42 -4.13753 -1.66506 0
M  V30 4486 C 411.121 -5.80371 -0.392922 0
M  V30 4487 N 410.097 -5.3505 -0.960359 0
M  V30 4488 H 413.899 -2.93811 -0.0722883 0
M  V30 4489 H 411.413 -1.62286 0.0607256 0
M  V30 4490 H 413.41 -3.33245 -2.50506 0
M  V30 4491 H 412.07 -2.15854 -2.42564 0
M  V30 4492 H 413.081 -5.17128 -0.282626 0
M  V30 4493 H 409.758 -3.51133 -2.25858 0
M  V30 4494 H 411.148 -6.7159 0.204235 0
M  V30 4495 N 413.868 0.0150385 -1.57593 0
M  V30 4496 C 415.116 0.701613 -1.8953 0
M  V30 4497 C 415.437 1.75139 -0.857396 0
M  V30 4498 O 414.707 1.95607 0.107194 0
M  V30 4499 H 413.287 0.26213 -0.699498 0
M  V30 4500 H 415.949 -0.0223304 -1.94887 0
M  V30 4501 H 415.045 1.18236 -2.88837 0
M  V30 4502 N 415.346 1.54954 0.287554 0
M  V30 4503 C 416.592 1.75132 1.02257 0
M  V30 4504 C 416.925 0.542858 1.86458 0
M  V30 4505 O 416.2 -0.459856 1.88986 0
M  V30 4506 C 416.483 3.04812 1.91733 0
M  V30 4507 C 416.336 4.35985 1.10622 0
M  V30 4508 C 417.655 3.30438 2.90687 0
M  V30 4509 H 414.774 0.637194 0.370341 0
M  V30 4510 H 417.416 1.87678 0.296111 0
M  V30 4511 H 415.566 2.94247 2.53675 0
M  V30 4512 H 417.238 4.58487 0.508636 0
M  V30 4513 H 415.481 4.31865 0.409271 0
M  V30 4514 H 416.152 5.23017 1.76513 0
M  V30 4515 H 418.628 3.40701 2.38877 0
M  V30 4516 H 417.504 4.22467 3.50447 0
M  V30 4517 H 417.765 2.49377 3.65053 0
M  V30 4518 N 416.824 -0.551391 1.4764 0
M  V30 4519 C 418.052 -1.33357 1.58189 0
M  V30 4520 C 418.467 -1.87342 0.234199 0
M  V30 4521 O 417.824 -1.65301 -0.77343 0
M  V30 4522 C 417.875 -2.49942 2.61173 0
M  V30 4523 O 417.596 -1.98187 3.90709 0
M  V30 4524 C 419.097 -3.42072 2.8196 0
M  V30 4525 H 416.317 -0.40631 0.533998 0
M  V30 4526 H 418.861 -0.667367 1.93304 0
M  V30 4527 H 417.016 -3.12489 2.28975 0
M  V30 4528 H 417.43 -2.74342 4.47031 0
M  V30 4529 H 418.904 -4.20278 3.57869 0
M  V30 4530 H 419.381 -3.95978 1.89995 0
M  V30 4531 H 419.987 -2.85336 3.15378 0
M  V30 4532 N 418.302 -1.35869 -0.798587 0
M  V30 4533 C 419.232 -1.32118 -1.92528 0
M  V30 4534 C 420.213 -0.194209 -1.68988 0
M  V30 4535 O 421.398 -0.390426 -1.90235 0
M  V30 4536 C 418.528 -1.10047 -3.29404 0
M  V30 4537 C 417.482 -2.19471 -3.67446 0
M  V30 4538 C 416.808 -1.82555 -5.02571 0
M  V30 4539 C 418.108 -3.61495 -3.76987 0
M  V30 4540 H 419.802 -2.26394 -1.95924 0
M  V30 4541 H 417.348 -1.08981 -0.94123 0
M  V30 4542 H 419.301 -1.06061 -4.07835 0
M  V30 4543 H 418.025 -0.122195 -3.26371 0
M  V30 4544 H 416.684 -2.22568 -2.91306 0
M  V30 4545 H 416.332 -0.833249 -4.9605 0
M  V30 4546 H 416.032 -2.5581 -5.28995 0
M  V30 4547 H 417.556 -1.80108 -5.83432 0
M  V30 4548 H 418.97 -3.60676 -4.4563 0
M  V30 4549 H 417.367 -4.33577 -4.14887 0
M  V30 4550 H 418.437 -3.97065 -2.78329 0
M  V30 4551 N 419.78 1.02168 -1.19998 0
M  V30 4552 C 421.191 1.57135 -1.00825 0
M  V30 4553 C 421.542 1.91276 0.436818 0
M  V30 4554 O 420.667 1.71679 1.3174 0
M  V30 4555 C 421.262 2.85514 -1.82393 0
M  V30 4556 C 419.821 3.37027 -1.67601 0
M  V30 4557 C 418.968 2.10388 -1.80644 0
M  V30 4558 H 421.919 0.846106 -1.34264 0
M  V30 4559 H 421.94 3.56711 -1.32429 0
M  V30 4560 H 421.452 2.60634 -2.87561 0
M  V30 4561 H 419.553 3.66878 -0.650485 0
M  V30 4562 H 419.666 4.09572 -2.4857 0
M  V30 4563 H 418.03 2.22601 -1.23778 0
M  V30 4564 H 418.813 1.8794 -2.87286 0
M  V30 4565 N 421.258 1.00505 1.21394 0
M  V30 4566 C 422.506 0.686415 1.90086 0
M  V30 4567 C 422.827 -0.785264 1.7849 0
M  V30 4568 O 422.097 -1.56387 1.17983 0
M  V30 4569 H 420.677 0.2509 0.703604 0
M  V30 4570 H 423.339 1.27417 1.47482 0
M  V30 4571 H 422.435 0.959621 2.96981 0
M  V30 4572 N 422.737 -1.36956 0.779787 0
M  V30 4573 C 423.7 -2.2851 0.177662 0
M  V30 4574 C 424.7 -1.48393 -0.619377 0
M  V30 4575 O 425.89 -1.68505 -0.441785 0
M  V30 4576 C 423.022 -3.32428 -0.755279 0
M  V30 4577 H 424.215 -2.83269 0.984823 0
M  V30 4578 H 421.768 -1.46358 0.548544 0
M  V30 4579 H 422.503 -2.82808 -1.58714 0
M  V30 4580 H 422.288 -3.91659 -0.185817 0
M  V30 4581 H 423.778 -4.00824 -1.17174 0
M  V30 4582 N 424.215 -0.530993 -1.48385 0
M  V30 4583 C 425.44 0.000729535 -2.074 0
M  V30 4584 C 425.865 1.27298 -1.3848 0
M  V30 4585 O 425.223 1.75599 -0.451081 0
M  V30 4586 C 425.271 0.206697 -3.60007 0
M  V30 4587 O 424.375 1.27514 -3.92191 0
M  V30 4588 H 423.716 -0.039583 -0.662819 0
M  V30 4589 H 426.246 -0.739194 -1.9078 0
M  V30 4590 H 426.256 0.42904 -4.05738 0
M  V30 4591 H 424.931 -0.722675 -4.09573 0
M  V30 4592 H 423.508 1.03537 -3.58238 0
M  V30 4593 N 425.693 1.55336 -0.266172 0
M  V30 4594 C 426.641 2.23587 0.641228 0
M  V30 4595 C 427.635 1.22986 1.16494 0
M  V30 4596 O 428.841 1.40943 1.1196 0
M  V30 4597 H 425.216 0.717452 0.225315 0
M  V30 4598 H 427.187 2.9837 0.0426561 0
M  V30 4599 C 425.936 2.96369 1.81826 0
M  V30 4600 H 425.259 3.73563 1.42445 0
M  V30 4601 H 426.699 3.47459 2.42998 0
M  V30 4602 C 425.158 2.0133 2.70125 0
M  V30 4603 O 425.688 1.55875 3.70224 0
M  V30 4604 N 423.894 1.6802 2.37102 0
M  V30 4605 H 423.441 2.05181 1.55751 0
M  V30 4606 H 423.399 1.047 2.96454 0
M  V30 4607 N 427.171 -0.0066808 1.57599 0
M  V30 4608 C 428.419 -0.691552 1.899 0
M  V30 4609 C 428.74 -1.74682 0.866672 0
M  V30 4610 O 428.01 -1.95661 -0.0968189 0
M  V30 4611 H 426.59 -0.258416 0.700878 0
M  V30 4612 H 429.252 0.0326655 1.94873 0
M  V30 4613 H 428.348 -1.16702 2.8946 0
M  V30 4614 N 428.649 -1.55105 -0.279332 0
M  V30 4615 C 429.898 -1.74618 -1.00952 0
M  V30 4616 C 430.211 -0.551096 -1.87676 0
M  V30 4617 O 431.417 -0.628507 -2.64125 0
M  V30 4618 C 429.873 -3.09025 -1.84476 0
M  V30 4619 C 429.481 -4.36081 -1.0265 0
M  V30 4620 C 431.225 -3.37891 -2.56963 0
M  V30 4621 C 429.132 -5.6153 -1.85576 0
M  V30 4622 H 428.062 -0.650868 -0.38064 0
M  V30 4623 H 430.713 -1.81569 -0.265475 0
M  V30 4624 H 429.095 -2.96095 -2.62952 0
M  V30 4625 H 430.269 -4.59909 -0.286354 0
M  V30 4626 H 428.584 -4.14312 -0.416464 0
M  V30 4627 H 431.181 -4.28822 -3.19399 0
M  V30 4628 H 431.524 -2.57737 -3.26921 0
M  V30 4629 H 432.057 -3.5189 -1.85522 0
M  V30 4630 H 428.796 -6.44413 -1.2005 0
M  V30 4631 H 428.316 -5.41854 -2.57204 0
M  V30 4632 H 429.995 -5.99594 -2.43096 0
M  V30 4633 N 430.127 0.543554 -1.4793 0
M  V30 4634 C 431.075 1.67039 -1.61866 0
M  V30 4635 C 432.069 1.62294 -0.48549 0
M  V30 4636 O 433.275 1.67315 -0.66376 0
M  V30 4637 H 429.65 0.552954 -0.509652 0
M  V30 4638 H 431.621 1.52426 -2.56533 0
M  V30 4639 C 430.37 3.05357 -1.6629 0
M  V30 4640 H 429.693 3.09696 -2.5284 0
M  V30 4641 H 431.133 3.83855 -1.80088 0
M  V30 4642 C 429.592 3.34531 -0.398861 0
M  V30 4643 O 430.122 3.98649 0.494162 0
M  V30 4644 N 428.328 2.89299 -0.2747 0
M  V30 4645 H 427.875 2.37298 -1.00236 0
M  V30 4646 H 427.833 3.09188 0.570075 0
M  V30 4647 N 431.605 1.3629 0.791371 0
M  V30 4648 C 432.568 1.30309 1.88553 0
M  V30 4649 C 433.568 0.211204 1.59407 0
M  V30 4650 O 434.758 0.465865 1.67855 0
M  V30 4651 C 431.89 1.01956 3.25297 0
M  V30 4652 H 433.083 2.27614 1.95273 0
M  V30 4653 H 430.636 1.21035 0.988953 0
M  V30 4654 H 431.371 0.050998 3.2426 0
M  V30 4655 H 431.156 1.80968 3.4784 0
M  V30 4656 H 432.646 1.0037 4.05359 0
M  V30 4657 N 433.083 -1.0153 1.20538 0
M  V30 4658 C 434.313 -1.78487 1.04048 0
M  V30 4659 C 434.721 -1.84631 -0.413292 0
M  V30 4660 O 434.064 -1.29919 -1.29872 0
M  V30 4661 C 434.126 -3.24367 1.55003 0
M  V30 4662 C 433.79 -3.41827 3.0332 0
M  V30 4663 C 434.787 -3.30941 4.00966 0
M  V30 4664 C 432.472 -3.67602 3.42307 0
M  V30 4665 C 434.466 -3.45577 5.35589 0
M  V30 4666 C 432.153 -3.81881 4.77085 0
M  V30 4667 C 433.151 -3.70874 5.73534 0
M  V30 4668 O 432.839 -3.84714 7.05868 0
M  V30 4669 H 432.571 -0.568108 0.366373 0
M  V30 4670 H 435.125 -1.28677 1.60098 0
M  V30 4671 H 433.355 -3.75266 0.933397 0
M  V30 4672 H 435.044 -3.82963 1.34514 0
M  V30 4673 H 435.81 -3.10964 3.72191 0
M  V30 4674 H 431.689 -3.75256 2.67776 0
M  V30 4675 H 435.233 -3.36902 6.10854 0
M  V30 4676 H 431.13 -4.01359 5.0555 0
M  V30 4677 H 431.898 -4.01724 7.13134 0
M  V30 4678 N 434.561 -1.01147 -1.20859 0
M  V30 4679 C 435.491 -0.597663 -2.25722 0
M  V30 4680 C 436.472 0.384744 -1.65692 0
M  V30 4681 O 437.657 0.271303 -1.92296 0
M  V30 4682 C 434.787 0.0700149 -3.47229 0
M  V30 4683 C 433.741 -0.832843 -4.19819 0
M  V30 4684 C 433.067 -0.0312202 -5.34691 0
M  V30 4685 C 434.367 -2.1385 -4.76514 0
M  V30 4686 H 436.061 -1.47423 -2.60589 0
M  V30 4687 H 433.607 -0.710301 -1.25263 0
M  V30 4688 H 435.56 0.37103 -4.19763 0
M  V30 4689 H 434.284 0.981259 -3.11511 0
M  V30 4690 H 432.943 -1.11778 -3.49144 0
M  V30 4691 H 432.591 0.881515 -4.95215 0
M  V30 4692 H 432.291 -0.632434 -5.84187 0
M  V30 4693 H 433.815 0.26346 -6.10031 0
M  V30 4694 H 435.229 -1.9002 -5.40893 0
M  V30 4695 H 433.626 -2.69012 -5.36426 0
M  V30 4696 H 434.696 -2.80495 -3.95538 0
M  V30 4697 N 436.039 1.36541 -0.78704 0
M  V30 4698 C 436.989 2.27459 -0.156957 0
M  V30 4699 C 437.973 1.46843 0.657709 0
M  V30 4700 O 439.165 1.69245 0.518173 0
M  V30 4701 C 436.294 3.35893 0.709278 0
M  V30 4702 C 435.38 4.23947 -0.114049 0
M  V30 4703 N 435.771 4.92145 -1.16736 0
M  V30 4704 C 434.069 4.4587 0.107497 0
M  V30 4705 C 434.77 5.57261 -1.66837 0
M  V30 4706 N 433.746 5.3473 -0.977992 0
M  V30 4707 H 437.548 2.77669 -0.963185 0
M  V30 4708 H 435.062 1.49839 -0.62627 0
M  V30 4709 H 437.059 3.99953 1.17656 0
M  V30 4710 H 435.719 2.87238 1.51408 0
M  V30 4711 H 436.73 4.94169 -1.54976 0
M  V30 4712 H 433.407 4.08056 0.882994 0
M  V30 4713 H 434.797 6.21728 -2.54762 0
M  V30 4714 N 437.518 0.538854 1.48102 0
M  V30 4715 C 438.767 0.0059532 2.01699 0
M  V30 4716 C 439.08 -1.34476 1.42041 0
M  V30 4717 O 440.286 -1.96653 1.87189 0
M  V30 4718 C 438.742 -0.0397627 3.59878 0
M  V30 4719 C 438.35 1.30659 4.28523 0
M  V30 4720 C 440.094 -0.521024 4.2129 0
M  V30 4721 C 438.001 1.22098 5.78659 0
M  V30 4722 H 436.931 -0.00154456 0.753998 0
M  V30 4723 H 439.582 0.683963 1.70277 0
M  V30 4724 H 437.964 -0.783037 3.88181 0
M  V30 4725 H 439.138 2.06613 4.11883 0
M  V30 4726 H 437.453 1.7243 3.79021 0
M  V30 4727 H 440.05 -0.603184 5.31287 0
M  V30 4728 H 440.393 -1.52885 3.8721 0
M  V30 4729 H 440.926 0.166834 3.9745 0
M  V30 4730 H 437.665 2.20424 6.17328 0
M  V30 4731 H 437.185 0.50295 5.97688 0
M  V30 4732 H 438.864 0.915345 6.40492 0
M  V30 4733 N 438.996 -1.55193 0.274407 0
M  V30 4734 C 440.273 -1.91584 -0.394331 0
M  V30 4735 C 440.653 -1.19858 -1.73774 0
M  V30 4736 O 440.001 -0.3252 -2.26174 0
M  V30 4737 C 440.211 -3.4487 -0.535311 0
M  V30 4738 C 441.559 -4.16636 -0.818534 0
M  V30 4739 O 442.583 -3.5076 -0.620146 0
M  V30 4740 O 441.442 -5.33209 -1.19792 0
M  V30 4741 H 438.536 -0.798349 -0.215794 0
M  V30 4742 H 441.082 -1.66646 0.320507 0
M  V30 4743 H 439.854 -3.89145 0.410141 0
M  V30 4744 H 439.477 -3.75759 -1.29964 0
M  V30 4745 N 440.474 -0.00167713 -1.576 0
M  V30 4746 C 441.721 0.68282 -1.90641 0
M  V30 4747 C 442.049 1.73686 -0.875415 0
M  V30 4748 O 441.304 1.95334 0.119575 0
M  V30 4749 C 441.603 1.36189 -3.30435 0
M  V30 4750 C 441.269 0.440887 -4.48739 0
M  V30 4751 C 439.931 0.187312 -4.80835 0
M  V30 4752 C 442.283 -0.193134 -5.20842 0
M  V30 4753 C 439.611 -0.70855 -5.82406 0
M  V30 4754 C 441.963 -1.07688 -6.23367 0
M  V30 4755 C 440.627 -1.33962 -6.53919 0
M  V30 4756 H 439.897 0.249862 -0.697603 0
M  V30 4757 H 442.544 -0.0575642 -1.91413 0
M  V30 4758 H 440.849 2.17636 -3.25794 0
M  V30 4759 H 442.546 1.89759 -3.5326 0
M  V30 4760 H 439.136 0.648694 -4.23663 0
M  V30 4761 H 443.32 -0.0102445 -4.96299 0
M  V30 4762 H 438.576 -0.920097 -6.04437 0
M  V30 4763 H 442.75 -1.57451 -6.78367 0
M  V30 4764 H 440.377 -2.03549 -7.32442 0
M  V30 4765 N 441.952 1.55251 0.271103 0
M  V30 4766 C 443.182 1.79713 1.01916 0
M  V30 4767 C 443.59 0.571613 1.80359 0
M  V30 4768 O 442.933 -0.468853 1.77616 0
M  V30 4769 C 442.995 2.97138 2.02359 0
M  V30 4770 C 442.659 4.34104 1.42837 0
M  V30 4771 C 443.656 5.13019 0.843071 0
M  V30 4772 C 441.341 4.80765 1.455 0
M  V30 4773 C 443.335 6.36729 0.292333 0
M  V30 4774 C 441.022 6.0443 0.900402 0
M  V30 4775 C 442.02 6.8225 0.32007 0
M  V30 4776 O 441.708 8.03582 -0.226031 0
M  V30 4777 H 441.44 0.602431 0.306681 0
M  V30 4778 H 443.994 2.03097 0.306701 0
M  V30 4779 H 442.224 2.6945 2.77369 0
M  V30 4780 H 443.913 3.08907 2.63309 0
M  V30 4781 H 444.679 4.781 0.815178 0
M  V30 4782 H 440.558 4.20202 1.89609 0
M  V30 4783 H 444.102 6.97414 -0.161274 0
M  V30 4784 H 439.999 6.3883 0.925541 0
M  V30 4785 H 440.767 8.18418 -0.115572 0
M  V30 4786 N 443.43 -0.535701 1.48216 0
M  V30 4787 C 444.846 -0.863701 1.3421 0
M  V30 4788 C 445.046 -1.98458 0.34879 0
M  V30 4789 O 444.102 -2.51432 -0.23204 0
M  V30 4790 C 445.415 -1.23662 2.74095 0
M  V30 4791 C 446.963 -1.34683 2.82541 0
M  V30 4792 C 447.438 -1.75322 4.23115 0
M  V30 4793 N 448.929 -1.82434 4.2576 0
M  V30 4794 C 449.664 -2.15252 5.31464 0
M  V30 4795 N 449.16 -2.46533 6.47452 0
M  V30 4796 N 450.953 -2.16209 5.18855 0
M  V30 4797 H 443.104 0.203965 2.11418 0
M  V30 4798 H 445.367 0.0286033 0.947568 0
M  V30 4799 H 445.073 -0.486674 3.48316 0
M  V30 4800 H 444.947 -2.18805 3.07253 0
M  V30 4801 H 447.334 -2.08756 2.08579 0
M  V30 4802 H 447.415 -0.376756 2.5301 0
M  V30 4803 H 447.059 -1.01812 4.97591 0
M  V30 4804 H 446.989 -2.7337 4.50085 0
M  V30 4805 H 449.48 -1.6056 3.42095 0
M  V30 4806 H 449.793 -2.70662 7.23852 0
M  V30 4807 H 448.138 -2.44065 6.50736 0
M  V30 4808 H 451.329 -1.91224 4.2726 0
M  V30 4809 H 451.502 -2.41453 6.01335 0
M  V30 4810 N 444.908 -1.36708 -0.784132 0
M  V30 4811 C 445.838 -1.34153 -1.91116 0
M  V30 4812 C 446.819 -0.212121 -1.68772 0
M  V30 4813 O 448.004 -0.410581 -1.8981 0
M  V30 4814 C 445.134 -1.13535 -3.28218 0
M  V30 4815 C 444.088 -2.23356 -3.65097 0
M  V30 4816 C 443.414 -1.87875 -5.00607 0
M  V30 4817 C 444.714 -3.65473 -3.73131 0
M  V30 4818 H 446.408 -2.28459 -1.93512 0
M  V30 4819 H 443.954 -1.09973 -0.929618 0
M  V30 4820 H 445.907 -1.10381 -4.06687 0
M  V30 4821 H 444.631 -0.156804 -3.26223 0
M  V30 4822 H 443.29 -2.25645 -2.88929 0
M  V30 4823 H 442.938 -0.885814 -4.95139 0
M  V30 4824 H 442.638 -2.61406 -5.26252 0
M  V30 4825 H 444.162 -1.86286 -5.81489 0
M  V30 4826 H 445.576 -3.65382 -4.41779 0
M  V30 4827 H 443.973 -4.37953 -4.10265 0
M  V30 4828 H 445.043 -3.99995 -2.74102 0
M  V30 4829 N 446.386 1.0089 -1.21074 0
M  V30 4830 C 447.333 2.09588 -0.966512 0
M  V30 4831 C 448.303 1.65761 0.106089 0
M  V30 4832 O 449.488 1.90758 -0.0402287 0
M  V30 4833 C 446.628 3.40958 -0.533058 0
M  V30 4834 C 445.741 3.9822 -1.67467 0
M  V30 4835 C 444.876 5.17682 -1.19076 0
M  V30 4836 C 443.915 5.67043 -2.30496 0
M  V30 4837 N 443.052 6.77759 -1.83267 0
M  V30 4838 H 447.892 2.29815 -1.89708 0
M  V30 4839 H 445.429 1.12689 -0.945489 0
M  V30 4840 H 447.387 4.1637 -0.263019 0
M  V30 4841 H 446.017 3.20781 0.360505 0
M  V30 4842 H 445.069 3.1983 -2.05944 0
M  V30 4843 H 446.381 4.3085 -2.51336 0
M  V30 4844 H 445.535 6.00326 -0.877151 0
M  V30 4845 H 444.274 4.86635 -0.322066 0
M  V30 4846 H 443.279 4.82999 -2.62664 0
M  V30 4847 H 444.504 6.00121 -3.17855 0
M  V30 4848 H 442.45 6.48527 -0.987356 0
M  V30 4849 H 442.367 7.09624 -2.60711 0
M  V30 4850 H 443.635 7.63949 -1.54928 0
M  V30 4851 N 447.864 1.01787 1.20321 0
M  V30 4852 C 448.774 0.598898 2.26827 0
M  V30 4853 C 449.79 -0.36418 1.70146 0
M  V30 4854 O 450.966 -0.224812 2.00141 0
M  V30 4855 C 448.031 -0.0549769 3.46656 0
M  V30 4856 C 447.092 0.954205 4.18561 0
M  V30 4857 C 446.325 0.331439 5.3267 0
M  V30 4858 O 446.548 -0.86851 5.63749 0
M  V30 4859 O 445.482 1.0488 5.92692 0
M  V30 4860 H 449.308 1.48562 2.64883 0
M  V30 4861 H 446.893 0.787434 1.26964 0
M  V30 4862 H 448.775 -0.420102 4.19301 0
M  V30 4863 H 447.45 -0.915876 3.10473 0
M  V30 4864 H 446.357 1.37072 3.48083 0
M  V30 4865 H 447.69 1.78511 4.58688 0
M  V30 4866 N 449.342 -1.36122 0.79427 0
M  V30 4867 C 450.305 -2.28309 0.201889 0
M  V30 4868 C 451.305 -1.49041 -0.603603 0
M  V30 4869 O 452.495 -1.68964 -0.423888 0
M  V30 4870 C 449.627 -3.3321 -0.719978 0
M  V30 4871 H 450.82 -2.82208 1.01481 0
M  V30 4872 H 448.373 -1.45768 0.564037 0
M  V30 4873 H 449.108 -2.84475 -1.55706 0
M  V30 4874 H 448.893 -3.91835 -0.144266 0
M  V30 4875 H 450.383 -4.02044 -1.12916 0
M  V30 4876 N 450.82 -0.546701 -1.47814 0
M  V30 4877 C 452.048 -0.0232857 -2.06887 0
M  V30 4878 C 452.463 1.26571 -1.4009 0
M  V30 4879 O 451.82 1.7569 -0.493906 0
M  V30 4880 C 451.871 0.186975 -3.61016 0
M  V30 4881 O 451.592 -1.05097 -4.25307 0
M  V30 4882 C 453.093 0.748872 -4.36929 0
M  V30 4883 H 450.313 -0.0410763 -0.669742 0
M  V30 4884 H 452.857 -0.757117 -1.89968 0
M  V30 4885 H 451.012 0.870903 -3.77484 0
M  V30 4886 H 451.426 -0.842121 -5.17695 0
M  V30 4887 H 452.9 0.845334 -5.45489 0
M  V30 4888 H 453.377 1.75772 -4.02493 0
M  V30 4889 H 453.983 0.100979 -4.2518 0
M  V30 4890 N 452.299 1.55045 -0.282633 0
M  V30 4891 C 453.545 2.00056 0.332481 0
M  V30 4892 C 453.878 1.1708 1.54939 0
M  V30 4893 O 453.153 0.2427 1.9298 0
M  V30 4894 C 453.436 3.53086 0.70725 0
M  V30 4895 C 453.289 4.46813 -0.517521 0
M  V30 4896 C 454.608 4.12245 1.54084 0
M  V30 4897 H 451.727 0.727268 0.119373 0
M  V30 4898 H 454.369 1.85932 -0.391076 0
M  V30 4899 H 452.519 3.65253 1.32372 0
M  V30 4900 H 454.191 4.46579 -1.15607 0
M  V30 4901 H 452.434 4.18163 -1.1542 0
M  V30 4902 H 453.105 5.51595 -0.211426 0
M  V30 4903 H 455.581 4.03401 1.02013 0
M  V30 4904 H 454.457 5.19515 1.77186 0
M  V30 4905 H 454.718 3.62951 2.52427 0
M  V30 4906 N 453.777 0.010035 1.57597 0
M  V30 4907 C 455.023 -0.668011 1.92118 0
M  V30 4908 C 455.378 -1.70821 0.885328 0
M  V30 4909 O 454.671 -1.91333 -0.101187 0
M  V30 4910 C 454.865 -1.34434 3.31153 0
M  V30 4911 C 454.694 -0.371176 4.48166 0
M  V30 4912 C 453.464 0.0220686 5.05295 0
M  V30 4913 C 455.662 0.366731 5.12991 0
M  V30 4914 N 453.644 0.9924 6.05826 0
M  V30 4915 C 455.015 1.19142 6.08445 0
M  V30 4916 C 457.07 0.429489 4.96044 0
M  V30 4917 C 455.773 2.07317 6.88776 0
M  V30 4918 C 457.799 1.2985 5.76969 0
M  V30 4919 C 457.161 2.11101 6.72023 0
M  V30 4920 H 453.26 -0.217337 0.751192 0
M  V30 4921 H 455.844 0.0727375 1.94564 0
M  V30 4922 H 454.015 -2.05533 3.29561 0
M  V30 4923 H 455.747 -1.97789 3.53075 0
M  V30 4924 H 452.502 -0.348409 4.72317 0
M  V30 4925 H 452.926 1.47324 6.60776 0
M  V30 4926 H 457.568 -0.18442 4.22398 0
M  V30 4927 H 455.286 2.69771 7.61741 0
M  V30 4928 H 458.872 1.3511 5.65894 0
M  V30 4929 H 457.752 2.77257 7.33552 0
M  V30 4930 N 455.255 -1.55392 -0.262866 0
M  V30 4931 C 456.504 -1.75679 -0.990943 0
M  V30 4932 C 456.817 -0.57097 -1.87081 0
M  V30 4933 O 458.023 -0.656486 -2.63444 0
M  V30 4934 C 456.479 -3.10964 -1.81188 0
M  V30 4935 C 456.087 -4.37146 -0.980188 0
M  V30 4936 C 457.831 -3.40597 -2.53365 0
M  V30 4937 C 455.738 -5.63466 -1.7961 0
M  V30 4938 H 454.668 -0.654868 -0.373716 0
M  V30 4939 H 457.319 -1.81841 -0.246203 0
M  V30 4940 H 455.701 -2.98867 -2.59797 0
M  V30 4941 H 456.875 -4.60187 -0.237558 0
M  V30 4942 H 455.19 -4.14731 -0.372497 0
M  V30 4943 H 457.787 -4.32186 -3.14833 0
M  V30 4944 H 458.13 -2.6119 -3.24169 0
M  V30 4945 H 458.663 -3.53838 -1.81779 0
M  V30 4946 H 455.402 -6.4565 -1.13209 0
M  V30 4947 H 454.922 -5.44552 -2.51443 0
M  V30 4948 H 456.601 -6.02139 -2.36723 0
M  V30 4949 N 456.733 0.527833 -1.48498 0
M  V30 4950 C 458.01 1.28905 -1.47115 0
M  V30 4951 C 458.39 2.10297 -0.184007 0
M  V30 4952 O 457.738 2.12728 0.834218 0
M  V30 4953 C 457.948 2.16866 -2.73441 0
M  V30 4954 C 459.296 2.76936 -3.21857 0
M  V30 4955 O 460.32 2.27152 -2.74373 0
M  V30 4956 O 459.179 3.67496 -4.04486 0
M  V30 4957 H 456.273 0.581918 -0.587623 0
M  V30 4958 H 458.819 0.544311 -1.60734 0
M  V30 4959 H 457.591 1.56521 -3.58632 0
M  V30 4960 H 457.214 2.98583 -2.62553 0
M  V30 4961 N 458.211 1.37122 0.776871 0
M  V30 4962 C 459.174 1.32301 1.8716 0
M  V30 4963 C 460.174 0.228099 1.59174 0
M  V30 4964 O 461.364 0.483642 1.67352 0
M  V30 4965 C 458.496 1.054 3.24197 0
M  V30 4966 H 459.689 2.29673 1.92848 0
M  V30 4967 H 457.242 1.22077 0.97606 0
M  V30 4968 H 457.977 0.0853872 3.24188 0
M  V30 4969 H 457.762 1.84648 3.45901 0
M  V30 4970 H 459.252 1.04664 4.04271 0
M  V30 4971 N 459.689 -1.00246 1.21608 0
M  V30 4972 C 460.652 -2.07233 0.979133 0
M  V30 4973 C 461.652 -1.6072 -0.0508219 0
M  V30 4974 O 462.842 -1.73196 0.186712 0
M  V30 4975 C 459.974 -3.37546 0.477016 0
M  V30 4976 H 461.167 -2.29687 1.92831 0
M  V30 4977 H 458.72 -1.17261 1.03342 0
M  V30 4978 H 459.455 -3.20773 -0.476966 0
M  V30 4979 H 459.24 -3.72638 1.21997 0
M  V30 4980 H 460.73 -4.16285 0.331181 0
M  V30 4981 N 461.167 -1.02423 -1.1978 0
M  V30 4982 C 462.395 -0.737456 -1.93311 0
M  V30 4983 C 462.81 0.703023 -1.75223 0
M  V30 4984 O 462.167 1.47761 -1.07112 0
M  V30 4985 C 462.218 -1.0733 -3.45199 0
M  V30 4986 O 461.939 -2.4572 -3.62702 0
M  V30 4987 C 463.44 -0.80866 -4.35862 0
M  V30 4988 H 460.66 -0.2702 -0.614193 0
M  V30 4989 H 463.204 -1.36747 -1.52054 0
M  V30 4990 H 461.359 -0.488545 -3.84307 0
M  V30 4991 H 461.773 -2.58081 -4.56612 0
M  V30 4992 H 463.247 -1.09365 -5.41057 0
M  V30 4993 H 463.724 0.257025 -4.38447 0
M  V30 4994 H 464.33 -1.37592 -4.02428 0
M  V30 4995 N 462.645 1.35699 -0.801477 0
M  V30 4996 C 463.577 2.28598 -0.166028 0
M  V30 4997 C 464.59 1.50044 0.631721 0
M  V30 4998 O 465.779 1.72339 0.464921 0
M  V30 4999 C 462.879 3.29625 0.787451 0
M  V30 5000 C 462.052 4.37384 0.037171 0
M  V30 5001 C 461.111 5.183 0.908375 0
M  V30 5002 O 460.137 5.68053 0.361189 0
M  V30 5003 N 461.339 5.35912 2.23112 0
M  V30 5004 H 464.104 2.83771 -0.964071 0
M  V30 5005 H 461.665 1.47994 -0.656469 0
M  V30 5006 H 463.657 3.80648 1.37439 0
M  V30 5007 H 462.227 2.75004 1.48632 0
M  V30 5008 H 461.447 3.87364 -0.730935 0
M  V30 5009 H 462.735 5.0653 -0.480109 0
M  V30 5010 H 462.133 4.97125 2.69968 0
M  V30 5011 H 460.69 5.90133 2.76741 0
M  V30 5012 N 464.123 0.554532 1.47522 0
M  V30 5013 C 465.372 0.0273458 2.01681 0
M  V30 5014 C 465.685 -1.32962 1.43459 0
M  V30 5015 O 466.891 -1.94657 1.89265 0
M  V30 5016 C 465.347 -0.00159057 3.599 0
M  V30 5017 C 464.955 1.35197 4.27113 0
M  V30 5018 C 466.699 -0.476311 4.21819 0
M  V30 5019 C 464.606 1.28229 5.77331 0
M  V30 5020 H 463.536 0.00645269 0.753972 0
M  V30 5021 H 466.187 0.701985 1.69542 0
M  V30 5022 H 464.569 -0.741821 3.8899 0
M  V30 5023 H 465.743 2.1097 4.09668 0
M  V30 5024 H 464.058 1.76441 3.77171 0
M  V30 5025 H 466.655 -0.5468 5.31897 0
M  V30 5026 H 466.998 -1.4877 3.8881 0
M  V30 5027 H 467.531 0.20898 3.97251 0
M  V30 5028 H 464.27 2.26959 6.14955 0
M  V30 5029 H 463.79 0.566314 5.97121 0
M  V30 5030 H 465.469 0.983226 6.39485 0
M  V30 5031 N 465.601 -1.54893 0.290851 0
M  V30 5032 C 466.848 -1.99933 -0.321391 0
M  V30 5033 C 467.176 -1.17927 -1.54672 0
M  V30 5034 O 466.431 -0.240902 -1.94212 0
M  V30 5035 C 466.73 -3.49815 -0.732397 0
M  V30 5036 C 466.396 -4.4921 0.390056 0
M  V30 5037 C 465.058 -4.76107 0.698223 0
M  V30 5038 C 467.41 -5.08453 1.14562 0
M  V30 5039 C 464.738 -5.59514 1.76526 0
M  V30 5040 C 467.09 -5.9302 2.2025 0
M  V30 5041 C 465.754 -6.18232 2.51684 0
M  V30 5042 H 465.024 -0.731608 -0.117605 0
M  V30 5043 H 467.671 -1.87107 0.407839 0
M  V30 5044 H 465.976 -3.60199 -1.54155 0
M  V30 5045 H 467.673 -3.82083 -1.21712 0
M  V30 5046 H 464.263 -4.28372 0.13976 0
M  V30 5047 H 468.447 -4.87683 0.920801 0
M  V30 5048 H 463.703 -5.77289 2.01364 0
M  V30 5049 H 467.877 -6.37955 2.7926 0
M  V30 5050 H 465.504 -6.82653 3.34499 0
M  V30 5051 N 467.08 -0.0183926 -1.57589 0
M  V30 5052 C 468.327 0.662562 -1.91354 0
M  V30 5053 C 468.655 1.72747 -0.893788 0
M  V30 5054 O 467.91 1.9545 0.0988509 0
M  V30 5055 C 468.209 1.32676 -3.31861 0
M  V30 5056 C 467.875 0.393267 -4.49182 0
M  V30 5057 C 466.537 0.136302 -4.81007 0
M  V30 5058 C 468.889 -0.248366 -5.20608 0
M  V30 5059 C 466.217 -0.770282 -5.81621 0
M  V30 5060 C 468.569 -1.14294 -6.22189 0
M  V30 5061 C 467.233 -1.4089 -6.52462 0
M  V30 5062 H 466.503 0.242448 -0.700214 0
M  V30 5063 H 469.15 -0.0778629 -1.91342 0
M  V30 5064 H 467.455 2.14168 -3.28084 0
M  V30 5065 H 469.152 1.86001 -3.55253 0
M  V30 5066 H 465.742 0.603723 -4.24327 0
M  V30 5067 H 469.926 -0.062883 -4.9626 0
M  V30 5068 H 465.182 -0.984154 -6.03427 0
M  V30 5069 H 469.356 -1.64637 -6.76659 0
M  V30 5070 H 466.983 -2.11306 -7.30242 0
M  V30 5071 N 468.558 1.5553 0.254621 0
M  V30 5072 C 469.783 1.81383 1.00573 0
M  V30 5073 C 470.208 0.594419 1.78461 0
M  V30 5074 O 469.566 -0.456403 1.75461 0
M  V30 5075 C 469.614 3.04892 1.92545 0
M  V30 5076 O 468.718 2.81266 3.01601 0
M  V30 5077 H 468.059 0.598969 0.286587 0
M  V30 5078 H 470.589 2.02703 0.277952 0
M  V30 5079 H 470.599 3.34119 2.34155 0
M  V30 5080 H 469.274 3.93287 1.3527 0
M  V30 5081 H 467.851 2.63185 2.64174 0
M  V30 5082 N 470.036 -0.519951 1.48776 0
M  V30 5083 C 470.966 -1.63253 1.66945 0
M  V30 5084 C 471.947 -1.62014 0.518224 0
M  V30 5085 O 473.132 -1.79053 0.751919 0
M  V30 5086 C 470.262 -3.0181 1.71836 0
M  V30 5087 C 469.216 -3.17911 2.8656 0
M  V30 5088 C 468.542 -4.5763 2.76548 0
M  V30 5089 C 469.842 -2.99729 4.27738 0
M  V30 5090 H 471.536 -1.48302 2.6009 0
M  V30 5091 H 469.082 -0.712026 1.25165 0
M  V30 5092 H 471.035 -3.79525 1.83135 0
M  V30 5093 H 469.759 -3.17806 0.752775 0
M  V30 5094 H 468.418 -2.42616 2.74833 0
M  V30 5095 H 468.066 -4.70476 1.77937 0
M  V30 5096 H 467.766 -4.69346 3.53536 0
M  V30 5097 H 469.29 -5.37431 2.89828 0
M  V30 5098 H 470.704 -3.67228 4.40246 0
M  V30 5099 H 469.101 -3.22932 5.05801 0
M  V30 5100 H 470.171 -1.96047 4.43502 0
M  V30 5101 N 471.514 -1.37532 -0.769588 0
M  V30 5102 C 472.762 -1.32597 -1.5252 0
M  V30 5103 C 473.083 0.0884294 -1.94799 0
M  V30 5104 O 472.353 1.03289 -1.66458 0
M  V30 5105 H 470.933 -0.487846 -0.565699 0
M  V30 5106 H 473.595 -1.72044 -0.915806 0
M  V30 5107 H 472.691 -1.96643 -2.42359 0
M  V30 5108 N 472.992 0.995999 -1.22138 0
M  V30 5109 C 473.955 2.06711 -0.990109 0
M  V30 5110 C 474.955 1.60744 0.0422978 0
M  V30 5111 O 476.145 1.73095 -0.195895 0
M  V30 5112 C 473.277 3.37288 -0.49491 0
M  V30 5113 H 474.47 2.28661 -1.94047 0
M  V30 5114 H 472.023 1.16711 -1.03963 0
M  V30 5115 H 472.758 3.21022 0.459948 0
M  V30 5116 H 472.543 3.71986 -1.23971 0
M  V30 5117 H 474.033 4.16103 -0.353253 0
M  V30 5118 N 474.47 1.03057 1.19235 0
M  V30 5119 C 475.718 0.726581 1.88587 0
M  V30 5120 C 476.039 -0.747227 1.80115 0
M  V30 5121 O 475.309 -1.53849 1.21274 0
M  V30 5122 H 473.889 0.265768 0.698124 0
M  V30 5123 H 476.551 1.30516 1.44746 0
M  V30 5124 H 475.647 1.0224 2.94879 0
M  V30 5125 N 475.948 -1.35272 0.808662 0
M  V30 5126 C 477.195 -1.98709 0.390003 0
M  V30 5127 C 477.523 -1.64148 -1.04335 0
M  V30 5128 O 476.778 -0.897797 -1.73891 0
M  V30 5129 C 477.077 -3.53556 0.522798 0
M  V30 5130 C 476.743 -4.0799 1.91977 0
M  V30 5131 C 475.405 -4.22568 2.30195 0
M  V30 5132 C 477.757 -4.37442 2.83361 0
M  V30 5133 C 475.085 -4.63918 3.59162 0
M  V30 5134 C 477.437 -4.80232 4.11776 0
M  V30 5135 C 476.101 -4.93016 4.49991 0
M  V30 5136 H 475.371 -0.727127 0.142712 0
M  V30 5137 H 478.018 -1.6145 1.02985 0
M  V30 5138 H 476.323 -3.91287 -0.200494 0
M  V30 5139 H 478.02 -4.00598 0.179608 0
M  V30 5140 H 474.61 -3.97096 1.61284 0
M  V30 5141 H 478.794 -4.25731 2.55083 0
M  V30 5142 H 474.05 -4.72005 3.88615 0
M  V30 5143 H 478.224 -5.01982 4.82687 0
M  V30 5144 H 475.851 -5.24814 5.49976 0
M  V30 5145 N 477.426 -0.562348 -1.47226 0
M  V30 5146 C 478.674 -0.0401371 -2.0206 0
M  V30 5147 C 478.995 1.3165 -1.43852 0
M  V30 5148 O 478.265 1.85976 -0.615599 0
M  V30 5149 H 476.845 -0.0118479 -0.746906 0
M  V30 5150 H 479.507 -0.73352 -1.8057 0
M  V30 5151 H 478.603 0.0441254 -3.12069 0
M  V30 5152 N 478.904 1.54736 -0.299062 0
M  V30 5153 C 480.15 2.00397 0.311244 0
M  V30 5154 C 480.483 1.18716 1.53688 0
M  V30 5155 O 479.758 0.263154 1.92712 0
M  V30 5156 C 480.041 3.53817 0.669761 0
M  V30 5157 C 479.894 4.46239 -0.564882 0
M  V30 5158 C 481.213 4.13856 1.49702 0
M  V30 5159 H 478.332 0.728493 0.111653 0
M  V30 5160 H 480.974 1.85506 -0.410774 0
M  V30 5161 H 479.124 3.66637 1.28491 0
M  V30 5162 H 480.796 4.45328 -1.20337 0
M  V30 5163 H 479.039 4.16916 -1.19849 0
M  V30 5164 H 479.71 5.5134 -0.269918 0
M  V30 5165 H 482.186 4.04461 0.977284 0
M  V30 5166 H 481.062 5.21365 1.71666 0
M  V30 5167 H 481.323 3.65608 2.48563 0
M  V30 5168 N 480.382 0.0267497 1.57577 0
M  V30 5169 C 481.312 -0.954308 2.13108 0
M  V30 5170 C 482.293 -1.34088 1.04663 0
M  V30 5171 O 483.478 -1.41992 1.32484 0
M  V30 5172 C 480.608 -2.23744 2.65624 0
M  V30 5173 C 479.562 -1.99168 3.78835 0
M  V30 5174 C 478.888 -3.33726 4.17769 0
M  V30 5175 C 480.188 -1.33277 5.0501 0
M  V30 5176 H 481.882 -0.491848 2.95332 0
M  V30 5177 H 479.428 -0.23514 1.42067 0
M  V30 5178 H 481.381 -2.92754 3.03106 0
M  V30 5179 H 480.105 -2.72151 1.80558 0
M  V30 5180 H 478.764 -1.32577 3.41788 0
M  V30 5181 H 478.412 -3.79888 3.29688 0
M  V30 5182 H 478.112 -3.18089 4.94058 0
M  V30 5183 H 479.636 -4.04008 4.57832 0
M  V30 5184 H 481.05 -1.92283 5.40093 0
M  V30 5185 H 479.447 -1.28045 5.8628 0
M  V30 5186 H 480.517 -0.305411 4.83937 0
M  V30 5187 N 481.861 -1.55662 -0.24637 0
M  V30 5188 C 483.11 -1.7672 -0.972254 0
M  V30 5189 C 483.423 -0.59078 -1.86465 0
M  V30 5190 O 484.629 -0.684391 -2.62732 0
M  V30 5191 C 483.085 -3.12869 -1.7788 0
M  V30 5192 C 482.693 -4.38161 -0.933768 0
M  V30 5193 C 484.437 -3.43265 -2.49738 0
M  V30 5194 C 482.344 -5.6534 -1.73623 0
M  V30 5195 H 481.274 -0.658795 -0.366749 0
M  V30 5196 H 483.925 -1.82092 -0.226902 0
M  V30 5197 H 482.307 -3.01606 -2.56612 0
M  V30 5198 H 483.481 -4.60413 -0.188736 0
M  V30 5199 H 481.796 -4.15102 -0.328488 0
M  V30 5200 H 484.393 -4.35501 -3.10231 0
M  V30 5201 H 484.736 -2.64614 -3.2138 0
M  V30 5202 H 485.269 -3.55746 -1.78016 0
M  V30 5203 H 482.008 -6.46814 -1.06354 0
M  V30 5204 H 481.528 -5.47188 -2.45653 0
M  V30 5205 H 483.207 -6.04616 -2.30323 0
M  V30 5206 N 483.339 0.512053 -1.4905 0
M  V30 5207 C 484.302 1.59704 -1.64399 0
M  V30 5208 C 485.302 1.52285 -0.516317 0
M  V30 5209 O 486.492 1.55635 -0.782527 0
M  V30 5210 C 483.624 2.9935 -1.63102 0
M  V30 5211 H 484.817 1.47428 -2.61161 0
M  V30 5212 H 482.37 0.735469 -1.37915 0
M  V30 5213 H 483.105 3.17116 -0.678836 0
M  V30 5214 H 482.89 3.06144 -2.44986 0
M  V30 5215 H 484.38 3.782 -1.77072 0
M  V30 5216 N 484.817 1.37938 0.762283 0
M  V30 5217 C 486.064 1.33668 1.52115 0
M  V30 5218 C 486.392 -0.0759538 1.94352 0
M  V30 5219 O 485.647 -1.05121 1.6507 0
M  V30 5220 C 485.946 2.23042 2.79261 0
M  V30 5221 C 485.612 3.71159 2.56031 0
M  V30 5222 C 484.274 4.11523 2.49404 0
M  V30 5223 C 486.626 4.64955 2.35513 0
M  V30 5224 C 483.954 5.43784 2.20263 0
M  V30 5225 C 486.306 5.97464 2.07894 0
M  V30 5226 C 484.97 6.36922 1.99718 0
M  V30 5227 H 484.24 0.489127 0.556629 0
M  V30 5228 H 486.887 1.70224 0.877262 0
M  V30 5229 H 485.192 1.79512 3.48256 0
M  V30 5230 H 486.889 2.17047 3.37182 0
M  V30 5231 H 483.479 3.39153 2.62056 0
M  V30 5232 H 487.663 4.34623 2.39617 0
M  V30 5233 H 482.919 5.73307 2.12435 0
M  V30 5234 H 487.093 6.6969 1.91019 0
M  V30 5235 H 484.72 7.39331 1.76902 0
M  V30 5236 N 486.295 -0.989507 1.22664 0
M  V30 5237 C 487.258 -2.06183 1.00106 0
M  V30 5238 C 488.258 -1.60765 -0.0337726 0
M  V30 5239 O 489.448 -1.72989 0.205072 0
M  V30 5240 C 486.58 -3.37021 0.51279 0
M  V30 5241 H 487.773 -2.27629 1.95256 0
M  V30 5242 H 485.326 -1.16158 1.0458 0
M  V30 5243 H 486.061 -3.21261 -0.442917 0
M  V30 5244 H 485.846 -3.71323 1.25942 0
M  V30 5245 H 487.336 -4.1591 0.375315 0
M  V30 5246 N 487.773 -1.03688 -1.18687 0
M  V30 5247 C 488.998 -0.757819 -1.93059 0
M  V30 5248 C 489.423 0.678353 -1.75442 0
M  V30 5249 O 488.781 1.46938 -1.06203 0
M  V30 5250 C 488.829 -1.12423 -3.42627 0
M  V30 5251 O 487.933 -0.247505 -4.11657 0
M  V30 5252 H 487.274 -0.279245 -0.602427 0
M  V30 5253 H 489.804 -1.3857 -1.5053 0
M  V30 5254 H 489.814 -1.08454 -3.93322 0
M  V30 5255 H 488.489 -2.17049 -3.54771 0
M  V30 5256 H 487.066 -0.34649 -3.71287 0
M  V30 5257 N 489.251 1.34841 -0.815825 0
M  V30 5258 C 490.481 2.02436 -0.412695 0
M  V30 5259 C 490.889 1.61604 0.983906 0
M  V30 5260 O 490.232 0.813729 1.64694 0
M  V30 5261 C 490.294 3.56953 -0.427182 0
M  V30 5262 C 489.958 4.21083 -1.77589 0
M  V30 5263 C 490.955 4.42107 -2.73564 0
M  V30 5264 C 488.64 4.58006 -2.06243 0
M  V30 5265 C 490.634 4.99169 -3.9637 0
M  V30 5266 C 488.321 5.1478 -3.2931 0
M  V30 5267 C 489.319 5.35304 -4.24191 0
M  V30 5268 O 489.007 5.90878 -5.45086 0
M  V30 5269 H 488.739 0.655631 -0.164695 0
M  V30 5270 H 491.293 1.73246 -1.1034 0
M  V30 5271 H 489.523 3.85372 0.320175 0
M  V30 5272 H 491.212 4.05875 -0.0450875 0
M  V30 5273 H 491.978 4.13953 -2.52721 0
M  V30 5274 H 487.857 4.41339 -1.33196 0
M  V30 5275 H 491.401 5.15105 -4.70439 0
M  V30 5276 H 487.298 5.42362 -3.5002 0
M  V30 5277 H 488.066 6.0932 -5.46508 0
M  V30 5278 N 490.729 0.570148 1.46925 0
M  V30 5279 C 491.677 -0.183181 2.31878 0
M  V30 5280 C 492.671 -0.896721 1.43719 0
M  V30 5281 O 493.877 -0.816536 1.60414 0
M  V30 5282 H 490.252 -0.077944 0.74795 0
M  V30 5283 H 492.223 0.552312 2.93244 0
M  V30 5284 C 490.972 -1.19172 3.2664 0
M  V30 5285 H 490.295 -0.652088 3.94446 0
M  V30 5286 H 491.735 -1.68946 3.88887 0
M  V30 5287 C 490.194 -2.24627 2.51086 0
M  V30 5288 O 490.724 -3.31773 2.26472 0
M  V30 5289 N 488.93 -1.98898 2.11867 0
M  V30 5290 H 488.477 -1.11777 2.32086 0
M  V30 5291 H 488.435 -2.6967 1.61634 0
M  V30 5292 N 492.207 -1.54576 0.307264 0
M  V30 5293 C 493.154 -2.23751 -0.56604 0
M  V30 5294 C 494.124 -1.22235 -1.12462 0
M  V30 5295 O 495.309 -1.50873 -1.16799 0
M  V30 5296 C 492.449 -2.98661 -1.72903 0
M  V30 5297 C 491.562 -4.14963 -1.20124 0
M  V30 5298 C 490.697 -4.77441 -2.3286 0
M  V30 5299 C 489.736 -5.85875 -1.77247 0
M  V30 5300 N 488.873 -6.42282 -2.8358 0
M  V30 5301 H 493.713 -2.97984 0.0304578 0
M  V30 5302 H 491.25 -1.47076 0.0268015 0
M  V30 5303 H 493.208 -3.40329 -2.41313 0
M  V30 5304 H 491.838 -2.26793 -2.29706 0
M  V30 5305 H 490.89 -3.78193 -0.409198 0
M  V30 5306 H 492.202 -4.93066 -0.754171 0
M  V30 5307 H 491.356 -5.21993 -3.09205 0
M  V30 5308 H 490.095 -3.98684 -2.80896 0
M  V30 5309 H 489.1 -5.40741 -0.993926 0
M  V30 5310 H 490.325 -6.6652 -1.30107 0
M  V30 5311 H 488.271 -5.66406 -3.30939 0
M  V30 5312 H 488.188 -7.1575 -2.43388 0
M  V30 5313 H 489.456 -6.91492 -3.59804 0
M  V30 5314 N 493.685 -0.035106 -1.57561 0
M  V30 5315 C 494.932 0.642229 -1.92046 0
M  V30 5316 C 495.26 1.7179 -0.91206 0
M  V30 5317 O 494.515 1.95544 0.0781153 0
M  V30 5318 C 494.814 1.29149 -3.3325 0
M  V30 5319 C 494.48 0.345604 -4.49574 0
M  V30 5320 C 493.142 0.0852775 -4.81124 0
M  V30 5321 C 495.494 -0.303569 -5.20315 0
M  V30 5322 C 492.822 -0.831927 -5.80772 0
M  V30 5323 C 495.174 -1.20886 -6.20942 0
M  V30 5324 C 493.838 -1.47802 -6.50931 0
M  V30 5325 H 493.108 0.235008 -0.702746 0
M  V30 5326 H 495.755 -0.0981529 -1.91248 0
M  V30 5327 H 494.06 2.10676 -3.30337 0
M  V30 5328 H 495.757 1.82223 -3.57205 0
M  V30 5329 H 492.347 0.558683 -4.24943 0
M  V30 5330 H 496.531 -0.115515 -4.96166 0
M  V30 5331 H 491.787 -1.0481 -6.02349 0
M  V30 5332 H 495.961 -1.71804 -6.74875 0
M  V30 5333 H 493.588 -2.19039 -7.2796 0
M  V30 5334 N 495.163 1.55791 0.238111 0
M  V30 5335 C 496.44 1.68798 0.98826 0
M  V30 5336 C 496.82 0.577562 2.03045 0
M  V30 5337 O 496.168 -0.41778 2.24648 0
M  V30 5338 C 496.378 3.09454 1.61367 0
M  V30 5339 C 497.726 3.68335 2.11221 0
M  V30 5340 O 498.75 3.1231 1.71292 0
M  V30 5341 O 497.609 4.6657 2.84561 0
M  V30 5342 H 494.703 0.686881 0.460568 0
M  V30 5343 H 497.249 1.68118 0.231202 0
M  V30 5344 H 496.021 3.81726 0.860295 0
M  V30 5345 H 495.644 3.14182 2.4367 0
M  V30 5346 N 496.642 -0.504142 1.49319 0
M  V30 5347 C 497.59 -1.62689 1.66238 0
M  V30 5348 C 498.584 -1.6095 0.528349 0
M  V30 5349 O 499.79 -1.65496 0.707887 0
M  V30 5350 H 496.165 -0.539247 0.524134 0
M  V30 5351 H 498.136 -1.45571 2.60484 0
M  V30 5352 C 496.885 -3.00841 1.74328 0
M  V30 5353 H 496.208 -3.02884 2.60963 0
M  V30 5354 H 497.648 -3.78945 1.90202 0
M  V30 5355 C 496.107 -3.33355 0.487416 0
M  V30 5356 O 496.637 -3.99819 -0.388294 0
M  V30 5357 N 494.843 -2.88469 0.351306 0
M  V30 5358 H 494.39 -2.34557 1.06492 0
M  V30 5359 H 494.348 -3.10591 -0.487899 0
M  V30 5360 N 498.12 -1.38341 -0.754957 0
M  V30 5361 C 499.068 -1.35573 -1.89005 0
M  V30 5362 C 500.062 -0.241824 -1.67665 0
M  V30 5363 O 501.268 -0.410785 -1.7525 0
M  V30 5364 H 497.643 -0.422898 -0.621821 0
M  V30 5365 H 499.614 -2.31359 -1.88455 0
M  V30 5366 C 498.363 -1.19631 -3.26471 0
M  V30 5367 H 497.686 -2.04605 -3.43477 0
M  V30 5368 H 499.126 -1.21748 -4.06144 0
M  V30 5369 C 497.585 0.0968705 -3.36761 0
M  V30 5370 O 498.115 1.07439 -3.87066 0
M  V30 5371 N 496.321 0.153242 -2.90196 0
M  V30 5372 H 495.868 -0.642908 -2.49448 0
M  V30 5373 H 495.826 1.01807 -2.9746 0
M  V30 5374 N 499.598 0.982988 -1.23187 0
M  V30 5375 C 500.838 1.73903 -1.07412 0
M  V30 5376 C 501.202 1.88146 0.382764 0
M  V30 5377 O 502.403 2.6053 0.661638 0
M  V30 5378 C 500.674 3.10105 -1.77678 0
M  V30 5379 S 502.233 4.01323 -1.77441 0
M  V30 5380 H 499.051 0.598093 -0.384456 0
M  V30 5381 H 501.653 1.17456 -1.56283 0
M  V30 5382 H 500.357 2.97388 -2.82822 0
M  V30 5383 H 499.888 3.71622 -1.29077 0
M  V30 5384 H 501.903 4.89189 -0.831162 0
M  V30 5385 N 501.076 1.04316 1.18135 0
M  V30 5386 C 502.306 0.767003 1.91835 0
M  V30 5387 C 502.714 -0.68002 1.76557 0
M  V30 5388 O 502.057 -1.47548 1.09432 0
M  V30 5389 C 502.119 1.05674 3.43618 0
M  V30 5390 C 501.783 2.49818 3.82675 0
M  V30 5391 C 502.78 3.48003 3.86251 0
M  V30 5392 C 500.465 2.84596 4.13897 0
M  V30 5393 C 502.459 4.79016 4.20503 0
M  V30 5394 C 500.146 4.15813 4.4782 0
M  V30 5395 C 501.144 5.12834 4.51099 0
M  V30 5396 O 500.832 6.41699 4.84229 0
M  V30 5397 H 500.564 0.278948 0.615763 0
M  V30 5398 H 503.118 1.3946 1.50798 0
M  V30 5399 H 501.348 0.372029 3.84906 0
M  V30 5400 H 503.037 0.767994 3.98568 0
M  V30 5401 H 503.803 3.22475 3.62264 0
M  V30 5402 H 499.682 2.09748 4.1052 0
M  V30 5403 H 503.226 5.54739 4.22978 0
M  V30 5404 H 499.123 4.41109 4.71268 0
M  V30 5405 H 499.891 6.46387 5.02121 0
M  V30 5406 N 502.554 -1.34406 0.822964 0
M  V30 5407 C 503.97 -1.51275 0.508727 0
M  V30 5408 C 504.17 -1.76776 -0.967083 0
M  V30 5409 O 503.226 -1.81871 -1.75155 0
M  V30 5410 C 504.539 -2.67765 1.36829 0
M  V30 5411 C 506.087 -2.81647 1.36542 0
M  V30 5412 C 506.562 -4.01181 2.20947 0
M  V30 5413 N 508.053 -4.08388 2.18571 0
M  V30 5414 C 508.788 -5.00036 2.80627 0
M  V30 5415 N 508.284 -5.96906 3.51674 0
M  V30 5416 N 510.077 -4.92908 2.70181 0
M  V30 5417 H 502.228 -1.16113 1.77852 0
M  V30 5418 H 504.491 -0.56947 0.757897 0
M  V30 5419 H 504.197 -2.55551 2.41633 0
M  V30 5420 H 504.071 -3.62779 1.03303 0
M  V30 5421 H 506.458 -2.93303 0.325163 0
M  V30 5422 H 506.539 -1.87443 1.74066 0
M  V30 5423 H 506.183 -3.90286 3.25022 0
M  V30 5424 H 506.113 -4.94599 1.80774 0
M  V30 5425 H 508.604 -3.39051 1.66891 0
M  V30 5426 H 508.917 -6.63468 3.96271 0
M  V30 5427 H 507.262 -5.9703 3.5578 0
M  V30 5428 H 510.453 -4.1619 2.14251 0
M  V30 5429 H 510.626 -5.64137 3.18831 0
M  V30 5430 N 504.032 -0.577932 -1.46621 0
M  V30 5431 C 505.309 0.00495287 -1.95599 0
M  V30 5432 C 505.689 1.46428 -1.5206 0
M  V30 5433 O 505.037 2.1517 -0.769046 0
M  V30 5434 C 505.247 -0.162114 -3.48623 0
M  V30 5435 C 506.595 -0.0274623 -4.24591 0
M  V30 5436 O 507.619 -0.0907067 -3.56084 0
M  V30 5437 O 506.478 0.1122 -5.46385 0
M  V30 5438 H 503.572 0.0525057 -0.825332 0
M  V30 5439 H 506.118 -0.645914 -1.56927 0
M  V30 5440 H 504.89 -1.17679 -3.73185 0
M  V30 5441 H 504.513 0.525407 -3.94113 0
M  V30 5442 N 505.51 1.54411 -0.315457 0
M  V30 5443 C 506.473 2.22713 0.54142 0
M  V30 5444 C 507.473 1.2179 1.04995 0
M  V30 5445 O 508.663 1.46426 0.943667 0
M  V30 5446 C 505.795 2.92485 1.75116 0
M  V30 5447 H 506.988 2.99849 -0.0555508 0
M  V30 5448 H 504.541 1.56159 -0.0664453 0
M  V30 5449 H 505.276 2.19466 2.38758 0
M  V30 5450 H 505.061 3.66483 1.39401 0
M  V30 5451 H 506.551 3.44548 2.35959 0
M  V30 5452 N 506.988 0.0434614 1.5754 0
M  V30 5453 C 507.918 -0.931651 2.14109 0
M  V30 5454 C 508.899 -1.32971 1.06079 0
M  V30 5455 O 510.084 -1.40579 1.33982 0
M  V30 5456 C 507.214 -2.20914 2.67982 0
M  V30 5457 C 506.168 -1.95139 3.80926 0
M  V30 5458 C 505.494 -3.29276 4.21285 0
M  V30 5459 C 506.794 -1.27913 5.06395 0
M  V30 5460 H 508.488 -0.460497 2.95837 0
M  V30 5461 H 506.034 -0.220058 1.42309 0
M  V30 5462 H 507.987 -2.89522 3.06194 0
M  V30 5463 H 506.711 -2.70221 1.83434 0
M  V30 5464 H 505.37 -1.28945 3.43175 0
M  V30 5465 H 505.018 -3.76369 3.33699 0
M  V30 5466 H 504.718 -3.12831 4.97404 0
M  V30 5467 H 506.242 -3.99129 4.62091 0
M  V30 5468 H 507.656 -1.86544 5.42102 0
M  V30 5469 H 506.053 -1.2182 5.87605 0
M  V30 5470 H 507.123 -0.254066 4.84234 0
M  V30 5471 N 508.466 -1.55915 -0.229846 0
M  V30 5472 C 509.396 -1.94754 -1.28815 0
M  V30 5473 C 510.377 -0.814657 -1.49323 0
M  V30 5474 O 511.562 -1.07631 -1.61645 0
M  V30 5475 C 508.692 -2.25705 -2.63959 0
M  V30 5476 C 507.646 -3.41406 -2.5812 0
M  V30 5477 C 506.972 -3.57941 -3.97218 0
M  V30 5478 C 508.272 -4.76616 -2.13623 0
M  V30 5479 H 509.966 -2.83404 -0.965547 0
M  V30 5480 H 507.512 -1.36353 -0.463028 0
M  V30 5481 H 509.465 -2.51467 -3.38146 0
M  V30 5482 H 508.189 -1.339 -2.9789 0
M  V30 5483 H 506.848 -3.1568 -1.86391 0
M  V30 5484 H 506.496 -2.63526 -4.28443 0
M  V30 5485 H 506.196 -4.35757 -3.94195 0
M  V30 5486 H 507.72 -3.86042 -4.73079 0
M  V30 5487 H 509.134 -5.01637 -2.77549 0
M  V30 5488 H 507.531 -5.57655 -2.21677 0
M  V30 5489 H 508.601 -4.7253 -1.08829 0
M  V30 5490 N 509.944 0.496216 -1.49584 0
M  V30 5491 C 511.172 1.27394 -1.63029 0
M  V30 5492 C 511.587 1.86344 -0.303569 0
M  V30 5493 O 510.944 1.68057 0.711547 0
M  V30 5494 C 510.995 2.40077 -2.70269 0
M  V30 5495 O 510.716 1.83549 -3.97796 0
M  V30 5496 C 512.217 3.31372 -2.94462 0
M  V30 5497 H 509.437 0.386211 -0.54871 0
M  V30 5498 H 511.981 0.595163 -1.95648 0
M  V30 5499 H 510.136 3.03775 -2.40415 0
M  V30 5500 H 510.55 2.57561 -4.56905 0
M  V30 5501 H 512.024 4.06707 -3.73221 0
M  V30 5502 H 512.501 3.88654 -2.0456 0
M  V30 5503 H 513.107 2.73435 -3.25751 0
M  V30 5504 N 511.423 1.38739 0.74761 0
M  V30 5505 C 512.648 1.38702 1.54197 0
M  V30 5506 C 513.073 -0.019664 1.8809 0
M  V30 5507 O 512.431 -1.00333 1.51006 0
M  V30 5508 C 512.479 2.25492 2.814 0
M  V30 5509 O 511.583 1.67613 3.76802 0
M  V30 5510 H 510.924 0.472863 0.466151 0
M  V30 5511 H 513.454 1.82577 0.923413 0
M  V30 5512 H 513.464 2.39561 3.30264 0
M  V30 5513 H 512.139 3.27727 2.56062 0
M  V30 5514 H 510.716 1.62718 3.35526 0
M  V30 5515 N 512.901 -0.976442 1.23707 0
M  V30 5516 C 514.126 -1.75875 1.09922 0
M  V30 5517 C 514.551 -1.84911 -0.34489 0
M  V30 5518 O 513.909 -1.31363 -1.24954 0
M  V30 5519 C 513.957 -3.16179 1.73388 0
M  V30 5520 O 513.061 -4.00124 0.99871 0
M  V30 5521 H 512.402 -0.540954 0.385052 0
M  V30 5522 H 514.932 -1.22546 1.6384 0
M  V30 5523 H 514.942 -3.66741 1.78788 0
M  V30 5524 H 513.617 -3.08917 2.78466 0
M  V30 5525 H 512.194 -3.58624 1.02193 0
M  V30 5526 N 514.379 -1.04941 -1.1758 0
M  V30 5527 C 515.628 -0.753124 -1.87112 0
M  V30 5528 C 515.941 0.722507 -1.81767 0
M  V30 5529 O 517.147 1.13265 -2.46746 0
M  V30 5530 C 515.603 -1.29695 -3.35719 0
M  V30 5531 C 515.211 -2.80184 -3.49572 0
M  V30 5532 C 516.955 -1.07759 -4.10595 0
M  V30 5533 C 514.862 -3.2788 -4.92187 0
M  V30 5534 H 513.792 -0.278034 -0.700866 0
M  V30 5535 H 516.443 -1.26637 -1.32798 0
M  V30 5536 H 514.825 -0.711522 -3.89555 0
M  V30 5537 H 515.999 -3.44561 -3.05965 0
M  V30 5538 H 514.314 -3.00632 -2.88113 0
M  V30 5539 H 516.911 -1.40899 -5.15802 0
M  V30 5540 H 517.254 -0.0152302 -4.16297 0
M  V30 5541 H 517.787 -1.62809 -3.62957 0
M  V30 5542 H 514.526 -4.33535 -4.91658 0
M  V30 5543 H 514.046 -2.68245 -5.36475 0
M  V30 5544 H 515.725 -3.22412 -5.60945 0
M  V30 5545 N 515.857 1.33968 -0.830081 0
M  V30 5546 C 516.805 2.31301 -0.245435 0
M  V30 5547 C 517.799 1.57734 0.617762 0
M  V30 5548 O 519.005 1.72674 0.508303 0
M  V30 5549 H 515.38 0.749552 -0.0606316 0
M  V30 5550 H 517.351 2.78129 -1.08105 0
M  V30 5551 C 516.1 3.42961 0.572084 0
M  V30 5552 H 515.423 3.99714 -0.0828118 0
M  V30 5553 H 516.863 4.13286 0.94715 0
M  V30 5554 C 515.322 2.88043 1.74737 0
M  V30 5555 O 515.852 2.83508 2.8458 0
M  V30 5556 N 514.058 2.44768 1.56642 0
M  V30 5557 H 513.605 2.48656 0.672901 0
M  V30 5558 H 513.563 2.08375 2.3543 0
M  V30 5559 N 517.335 0.585699 1.46312 0
M  V30 5560 C 518.575 0.0751432 2.04262 0
M  V30 5561 C 518.939 -1.26201 1.44697 0
M  V30 5562 O 520.14 -1.86198 1.93865 0
M  V30 5563 C 518.411 0.013478 3.57397 0
M  V30 5564 S 519.97 -0.439068 4.36598 0
M  V30 5565 H 516.788 0.0389228 0.709934 0
M  V30 5566 H 519.39 0.778871 1.79315 0
M  V30 5567 H 518.094 0.990558 3.98266 0
M  V30 5568 H 517.625 -0.712927 3.86886 0
M  V30 5569 H 519.64 -1.6932 4.66417 0
M  V30 5570 N 518.813 -1.54241 0.323641 0
M  V30 5571 C 520.062 -1.9975 -0.279806 0
M  V30 5572 C 520.375 -1.2156 -1.5324 0
M  V30 5573 O 521.581 -1.57447 -2.21185 0
M  V30 5574 C 520.037 -3.55686 -0.549115 0
M  V30 5575 C 519.645 -4.4271 0.686432 0
M  V30 5576 C 521.389 -4.09663 -1.11251 0
M  V30 5577 C 519.296 -5.90119 0.389022 0
M  V30 5578 H 518.226 -0.746177 -0.10833 0
M  V30 5579 H 520.877 -1.78248 0.435877 0
M  V30 5580 H 519.259 -3.73176 -1.32499 0
M  V30 5581 H 520.433 -4.36996 1.46188 0
M  V30 5582 H 518.748 -3.99623 1.17005 0
M  V30 5583 H 521.345 -5.17386 -1.34965 0
M  V30 5584 H 521.688 -3.61651 -2.06191 0
M  V30 5585 H 522.221 -3.95806 -0.39782 0
M  V30 5586 H 518.96 -6.42326 1.30759 0
M  V30 5587 H 518.48 -5.98785 -0.348722 0
M  V30 5588 H 520.159 -6.47 -0.0011164 0
M  V30 5589 N 520.291 -0.0518155 -1.57515 0
M  V30 5590 C 521.519 0.631395 -1.9703 0
M  V30 5591 C 521.934 1.64341 -0.92938 0
M  V30 5592 O 521.291 1.82296 0.0863266 0
M  V30 5593 C 521.342 1.31774 -3.36627 0
M  V30 5594 O 521.063 0.346247 -4.3673 0
M  V30 5595 C 522.564 2.09065 -3.90905 0
M  V30 5596 H 519.784 0.172576 -0.648428 0
M  V30 5597 H 522.328 -0.118306 -2.04158 0
M  V30 5598 H 520.483 2.01867 -3.30649 0
M  V30 5599 H 520.897 0.836226 -5.17791 0
M  V30 5600 H 522.371 2.52508 -4.9086 0
M  V30 5601 H 522.848 2.93908 -3.26366 0
M  V30 5602 H 523.454 1.43882 -4.00223 0
M  V30 5603 N 521.769 1.56035 0.221574 0
M  V30 5604 C 522.994 1.83476 0.967026 0
M  V30 5605 C 523.419 0.632139 1.7716 0
M  V30 5606 O 522.777 -0.419082 1.7639 0
M  V30 5607 C 522.825 3.08907 1.86034 0
M  V30 5608 O 521.929 2.876 2.95567 0
M  V30 5609 H 521.27 0.604913 0.273817 0
M  V30 5610 H 523.8 2.03247 0.234893 0
M  V30 5611 H 523.81 3.3901 2.27016 0
M  V30 5612 H 522.485 3.96068 1.26898 0
M  V30 5613 H 521.062 2.6873 2.58532 0
M  V30 5614 N 523.247 -0.488276 1.49845 0
M  V30 5615 C 524.494 -1.24157 1.59973 0
M  V30 5616 C 524.822 -1.92293 0.292182 0
M  V30 5617 O 524.077 -1.81942 -0.720813 0
M  V30 5618 C 524.376 -2.32152 2.71735 0
M  V30 5619 C 524.042 -1.81387 4.12807 0
M  V30 5620 C 522.704 -1.67262 4.51195 0
M  V30 5621 C 525.056 -1.43537 5.01045 0
M  V30 5622 C 522.384 -1.13685 5.7558 0
M  V30 5623 C 524.736 -0.914081 6.25961 0
M  V30 5624 C 523.4 -0.759327 6.63167 0
M  V30 5625 H 522.67 -0.454322 0.585383 0
M  V30 5626 H 525.317 -0.540261 1.83721 0
M  V30 5627 H 523.622 -3.08122 2.42008 0
M  V30 5628 H 525.319 -2.90164 2.76778 0
M  V30 5629 H 521.909 -1.93344 3.82513 0
M  V30 5630 H 526.093 -1.53292 4.72033 0
M  V30 5631 H 521.349 -1.00426 6.03096 0
M  V30 5632 H 525.523 -0.612066 6.93705 0
M  V30 5633 H 523.15 -0.342002 7.5943 0
M  V30 5634 N 524.725 -1.39134 -0.740242 0
M  V30 5635 C 525.971 -1.36273 -1.50192 0
M  V30 5636 C 526.304 0.0430136 -1.94152 0
M  V30 5637 O 525.579 1.00691 -1.66408 0
M  V30 5638 C 525.862 -2.33041 -2.74525 0
M  V30 5639 C 525.715 -3.82535 -2.36617 0
M  V30 5640 C 527.034 -2.27723 -3.76604 0
M  V30 5641 H 524.153 -0.496323 -0.544823 0
M  V30 5642 H 526.795 -1.70085 -0.846815 0
M  V30 5643 H 524.945 -2.04337 -3.30422 0
M  V30 5644 H 526.617 -4.21967 -1.86391 0
M  V30 5645 H 524.86 -3.99565 -1.68909 0
M  V30 5646 H 525.531 -4.45723 -3.2563 0
M  V30 5647 H 528.007 -2.53091 -3.30279 0
M  V30 5648 H 526.883 -2.97519 -4.61274 0
M  V30 5649 H 527.144 -1.28049 -4.2315 0
M  V30 5650 N 526.204 0.969867 -1.24223 0
M  V30 5651 C 527.429 1.75289 -1.10853 0
M  V30 5652 C 527.854 1.85091 0.335079 0
M  V30 5653 O 527.212 1.32024 1.24255 0
M  V30 5654 C 527.26 3.15255 -1.75062 0
M  V30 5655 O 526.364 3.99589 -1.01992 0
M  V30 5656 H 525.705 0.538904 -0.387915 0
M  V30 5657 H 528.235 1.21675 -1.64488 0
M  V30 5658 H 528.245 3.65787 -1.80731 0
M  V30 5659 H 526.92 3.07436 -2.801 0
M  V30 5660 H 525.497 3.58077 -1.04094 0
M  V30 5661 N 527.682 1.05563 1.17022 0
M  V30 5662 C 528.93 0.76642 1.87004 0
M  V30 5663 C 529.251 -0.708854 1.8166 0
M  V30 5664 O 528.521 -1.51242 1.2451 0
M  V30 5665 H 527.101 0.280516 0.692329 0
M  V30 5666 H 529.763 1.33557 1.41945 0
M  V30 5667 H 528.859 1.08472 2.92644 0
M  V30 5668 N 529.16 -1.33526 0.837174 0
M  V30 5669 C 530.407 -1.97837 0.432064 0
M  V30 5670 C 530.735 -1.66324 -1.00829 0
M  V30 5671 O 529.99 -0.93448 -1.71948 0
M  V30 5672 C 530.289 -3.52367 0.597675 0
M  V30 5673 C 529.955 -4.03826 2.00587 0
M  V30 5674 C 528.617 -4.1759 2.39106 0
M  V30 5675 C 530.969 -4.31333 2.92576 0
M  V30 5676 C 528.297 -4.56195 3.68921 0
M  V30 5677 C 530.649 -4.7139 4.2187 0
M  V30 5678 C 529.313 -4.8336 4.60347 0
M  V30 5679 H 528.583 -0.723937 0.158104 0
M  V30 5680 H 531.23 -1.5923 1.06387 0
M  V30 5681 H 529.535 -3.91624 -0.117452 0
M  V30 5682 H 531.232 -4.00126 0.26454 0
M  V30 5683 H 527.822 -3.93586 1.69671 0
M  V30 5684 H 532.006 -4.20224 2.64056 0
M  V30 5685 H 527.262 -4.63655 3.9854 0
M  V30 5686 H 531.436 -4.91631 4.93226 0
M  V30 5687 H 529.063 -5.1303 5.60985 0
M  V30 5688 N 530.638 -0.59345 -1.46 0
M  V30 5689 C 531.601 0.123538 -2.28867 0
M  V30 5690 C 532.601 0.808628 -1.38989 0
M  V30 5691 O 533.791 0.658945 -1.61256 0
M  V30 5692 C 530.923 1.1847 -3.19653 0
M  V30 5693 H 532.116 -0.604843 -2.93737 0
M  V30 5694 H 529.669 -0.351875 -1.52288 0
M  V30 5695 H 530.404 1.94431 -2.59552 0
M  V30 5696 H 530.189 0.69783 -3.8584 0
M  V30 5697 H 531.679 1.68726 -3.81997 0
M  V30 5698 N 532.116 1.54067 -0.331816 0
M  V30 5699 C 533.365 1.99895 0.269209 0
M  V30 5700 C 533.678 1.22371 1.52593 0
M  V30 5701 O 534.884 1.58618 2.20347 0
M  V30 5702 C 533.34 3.55972 0.530244 0
M  V30 5703 C 532.948 4.4234 -0.709901 0
M  V30 5704 C 534.692 4.10247 1.09077 0
M  V30 5705 C 532.599 5.89905 -0.420312 0
M  V30 5706 H 531.529 0.746741 0.104371 0
M  V30 5707 H 534.18 1.78014 -0.445324 0
M  V30 5708 H 532.562 3.73873 1.30518 0
M  V30 5709 H 533.736 4.36215 -1.48504 0
M  V30 5710 H 532.051 3.98997 -1.19123 0
M  V30 5711 H 534.648 5.18095 1.32219 0
M  V30 5712 H 534.991 3.62739 2.0427 0
M  V30 5713 H 535.524 3.96011 0.376824 0
M  V30 5714 H 532.263 6.41623 -1.34164 0
M  V30 5715 H 531.783 5.98962 0.316962 0
M  V30 5716 H 533.462 6.46991 -0.0331956 0
M  V30 5717 N 533.594 0.0601682 1.57485 0
M  V30 5718 C 534.841 -0.611594 1.93043 0
M  V30 5719 C 535.169 -1.70317 0.939274 0
M  V30 5720 O 534.424 -1.95644 -0.046996 0
M  V30 5721 C 534.723 -1.23831 3.35262 0
M  V30 5722 C 534.389 -0.274037 4.50066 0
M  V30 5723 C 533.051 -0.00872394 4.81199 0
M  V30 5724 C 535.403 0.386308 5.19766 0
M  V30 5725 C 532.731 0.924218 5.79375 0
M  V30 5726 C 535.083 1.3075 6.1894 0
M  V30 5727 C 533.747 1.58139 6.48497 0
M  V30 5728 H 533.017 -0.223798 0.706396 0
M  V30 5729 H 535.664 0.128566 1.91068 0
M  V30 5730 H 533.969 -2.05394 3.33647 0
M  V30 5731 H 535.666 -1.76517 3.60059 0
M  V30 5732 H 532.256 -0.491008 4.25778 0
M  V30 5733 H 536.44 0.194436 4.95919 0
M  V30 5734 H 531.696 1.1438 6.00606 0
M  V30 5735 H 535.87 1.82519 6.72056 0
M  V30 5736 H 533.497 2.30593 7.24383 0
M  V30 5737 N 535.072 -1.5615 -0.213296 0
M  V30 5738 C 536.297 -1.83986 -0.957282 0
M  V30 5739 C 536.722 -0.641526 -1.76822 0
M  V30 5740 O 536.08 0.409722 -1.7661 0
M  V30 5741 C 536.128 -3.09889 -1.84393 0
M  V30 5742 O 535.232 -2.89163 -2.94038 0
M  V30 5743 H 534.573 -0.606357 -0.270605 0
M  V30 5744 H 537.103 -2.03369 -0.224111 0
M  V30 5745 H 537.113 -3.40209 -2.25215 0
M  V30 5746 H 535.788 -3.96735 -1.24795 0
M  V30 5747 H 534.365 -2.70097 -2.57103 0
M  V30 5748 N 536.55 0.480323 -1.50102 0
M  V30 5749 C 537.799 1.22979 -1.59872 0
M  V30 5750 C 538.112 1.93282 -0.30022 0
M  V30 5751 O 539.318 2.70086 -0.276709 0
M  V30 5752 C 537.774 2.23408 -2.82164 0
M  V30 5753 C 537.382 1.5895 -4.18854 0
M  V30 5754 C 539.126 2.99055 -3.01275 0
M  V30 5755 C 537.033 2.57611 -5.32344 0
M  V30 5756 H 535.963 0.462707 -0.59533 0
M  V30 5757 H 538.614 0.501291 -1.7652 0
M  V30 5758 H 536.996 2.99511 -2.59055 0
M  V30 5759 H 538.17 0.887 -4.52182 0
M  V30 5760 H 536.485 0.956191 -4.05273 0
M  V30 5761 H 539.082 3.72876 -3.83233 0
M  V30 5762 H 539.425 3.57897 -2.12639 0
M  V30 5763 H 539.958 2.30066 -3.24522 0
M  V30 5764 H 536.697 2.03521 -6.23105 0
M  V30 5765 H 536.217 3.26041 -5.03445 0
M  V30 5766 H 537.896 3.19627 -5.62537 0
M  V30 5767 N 538.028 1.39524 0.732853 0
M  V30 5768 C 538.958 1.41153 1.86005 0
M  V30 5769 C 539.939 0.274614 1.67869 0
M  V30 5770 O 541.124 0.480745 1.88155 0
M  V30 5771 C 538.254 1.25638 3.23778 0
M  V30 5772 C 537.208 2.36752 3.56556 0
M  V30 5773 C 536.534 2.06326 4.93289 0
M  V30 5774 C 537.834 3.79069 3.5931 0
M  V30 5775 H 539.528 2.35484 1.84899 0
M  V30 5776 H 537.074 1.13348 0.888162 0
M  V30 5777 H 539.027 1.25398 4.0231 0
M  V30 5778 H 537.751 0.277772 3.25417 0
M  V30 5779 H 536.41 2.36213 2.80355 0
M  V30 5780 H 536.058 1.06897 4.9151 0
M  V30 5781 H 535.758 2.80757 5.16187 0
M  V30 5782 H 537.282 2.07739 5.74175 0
M  V30 5783 H 538.696 3.81526 4.27914 0
M  V30 5784 H 537.093 4.52878 3.93728 0
M  V30 5785 H 538.163 4.09893 2.59068 0
M  V30 5786 N 539.506 -0.963266 1.24736 0
M  V30 5787 C 540.754 -1.70343 1.08755 0
M  V30 5788 C 541.075 -1.91387 -0.373619 0
M  V30 5789 O 540.345 -1.4948 -1.2662 0
M  V30 5790 H 538.925 -0.631224 0.399456 0
M  V30 5791 H 541.587 -1.15859 1.56725 0
M  V30 5792 H 540.683 -2.68616 1.58909 0
M  V30 5793 N 540.985 -1.06182 -1.16461 0
M  V30 5794 C 542.215 -0.797425 -1.9059 0
M  V30 5795 C 542.623 0.651845 -1.77616 0
M  V30 5796 O 541.966 1.45788 -1.11766 0
M  V30 5797 C 542.028 -1.11128 -3.41893 0
M  V30 5798 C 541.692 -2.55874 -3.78652 0
M  V30 5799 C 542.689 -3.54104 -3.80665 0
M  V30 5800 C 540.374 -2.91144 -4.09317 0
M  V30 5801 C 542.368 -4.85645 -4.12829 0
M  V30 5802 C 540.055 -4.22885 -4.41148 0
M  V30 5803 C 541.053 -5.19945 -4.42883 0
M  V30 5804 O 540.741 -6.49322 -4.73959 0
M  V30 5805 H 540.473 -0.288709 -0.611247 0
M  V30 5806 H 543.027 -1.41841 -1.4856 0
M  V30 5807 H 541.257 -0.433217 -3.84266 0
M  V30 5808 H 542.946 -0.831306 -3.97296 0
M  V30 5809 H 543.712 -3.28197 -3.57088 0
M  V30 5810 H 539.591 -2.16252 -4.07131 0
M  V30 5811 H 543.135 -5.61398 -4.14099 0
M  V30 5812 H 539.032 -4.48551 -4.6419 0
M  V30 5813 H 539.8 -6.54294 -4.91774 0
M  V30 5814 N 542.463 1.3308 -0.844243 0
M  V30 5815 C 543.396 2.27075 -0.226279 0
M  V30 5816 C 544.374 1.49911 0.629716 0
M  V30 5817 O 545.558 1.79068 0.588803 0
M  V30 5818 C 542.685 3.31767 0.681782 0
M  V30 5819 C 541.731 4.26384 -0.0994565 0
M  V30 5820 S 542.564 5.15186 -1.46094 0
M  V30 5821 C 543.72 6.23405 -0.558319 0
M  V30 5822 H 543.953 2.79141 -1.02312 0
M  V30 5823 H 541.486 1.40452 -0.641292 0
M  V30 5824 H 543.444 3.92566 1.20008 0
M  V30 5825 H 542.105 2.78507 1.45234 0
M  V30 5826 H 541.298 5.00514 0.591733 0
M  V30 5827 H 540.9 3.69949 -0.548991 0
M  V30 5828 H 543.192 6.77069 0.241672 0
M  V30 5829 H 544.135 6.96619 -1.26995 0
M  V30 5830 H 544.543 5.64333 -0.13728 0
M  V30 5831 N 543.941 0.601185 1.45683 0
M  V30 5832 C 544.904 -0.111398 2.28929 0
M  V30 5833 C 545.904 -0.801246 1.39416 0
M  V30 5834 O 547.094 -0.650383 1.61603 0
M  V30 5835 C 544.226 -1.16773 3.20276 0
M  V30 5836 H 545.419 0.620412 2.93413 0
M  V30 5837 H 542.972 0.359946 1.52099 0
M  V30 5838 H 543.707 -1.93051 2.60579 0
M  V30 5839 H 543.492 -0.677358 3.86205 0
M  V30 5840 H 544.982 -1.66698 3.82886 0
M  V30 5841 N 545.419 -1.53889 0.339982 0
M  V30 5842 C 546.369 -2.2165 -0.534354 0
M  V30 5843 C 547.353 -1.20266 -1.06887 0
M  V30 5844 O 548.545 -1.45827 -1.00316 0
M  V30 5845 C 545.674 -2.99014 -1.68659 0
M  V30 5846 C 544.76 -4.07751 -1.16618 0
M  V30 5847 N 545.151 -5.04469 -0.366717 0
M  V30 5848 C 543.449 -4.21998 -1.4434 0
M  V30 5849 C 544.15 -5.81638 -0.0847275 0
M  V30 5850 N 543.126 -5.39388 -0.675391 0
M  V30 5851 H 546.928 -2.93781 0.0835562 0
M  V30 5852 H 544.442 -1.61736 0.146665 0
M  V30 5853 H 546.439 -3.46056 -2.32489 0
M  V30 5854 H 545.099 -2.28408 -2.30781 0
M  V30 5855 H 546.11 -5.17899 -0.00811038 0
M  V30 5856 H 542.787 -3.62612 -2.06928 0
M  V30 5857 H 544.177 -6.69563 0.559943 0
M  V30 5858 N 546.897 -0.0685191 -1.57451 0
M  V30 5859 C 547.807 0.914677 -2.16034 0
M  V30 5860 C 548.823 1.32938 -1.12265 0
M  V30 5861 O 549.999 1.40275 -1.44516 0
M  V30 5862 C 547.064 2.16519 -2.70777 0
M  V30 5863 C 546.125 1.80721 -3.89408 0
M  V30 5864 C 545.358 2.9981 -4.41531 0
M  V30 5865 O 545.581 4.13727 -3.92666 0
M  V30 5866 O 544.515 2.79817 -5.32903 0
M  V30 5867 H 548.341 0.446364 -3.00402 0
M  V30 5868 H 545.926 0.154367 -1.486 0
M  V30 5869 H 547.808 2.89856 -3.05878 0
M  V30 5870 H 546.483 2.62454 -1.89471 0
M  V30 5871 H 545.39 1.04646 -3.59166 0
M  V30 5872 H 546.723 1.39571 -4.71997 0
M  V30 5873 N 548.375 1.56261 0.205012 0
M  V30 5874 C 549.325 1.90155 1.25798 0
M  V30 5875 C 550.309 0.766227 1.41484 0
M  V30 5876 O 551.501 1.02893 1.44021 0
M  V30 5877 C 548.63 2.23603 2.60493 0
M  V30 5878 C 547.716 3.43568 2.48639 0
M  V30 5879 N 548.107 4.61747 2.06455 0
M  V30 5880 C 546.405 3.4751 2.79558 0
M  V30 5881 C 547.106 5.43907 2.06253 0
M  V30 5882 N 546.082 4.84051 2.47377 0
M  V30 5883 H 549.884 2.79031 0.922986 0
M  V30 5884 H 547.398 1.57048 0.413501 0
M  V30 5885 H 549.395 2.46067 3.36537 0
M  V30 5886 H 548.055 1.36049 2.94823 0
M  V30 5887 H 549.066 4.86598 1.77321 0
M  V30 5888 H 545.743 2.70345 3.18151 0
M  V30 5889 H 547.133 6.48542 1.75622 0
M  V30 5890 N 549.853 -0.472356 1.50355 0
M  V30 5891 C 550.8 -1.57051 1.69126 0
M  V30 5892 C 551.77 -1.5733 0.532574 0
M  V30 5893 O 552.955 -1.7488 0.762994 0
M  V30 5894 C 550.095 -2.95033 1.79024 0
M  V30 5895 C 549.208 -3.04552 3.06386 0
M  V30 5896 C 548.343 -4.33441 3.07087 0
M  V30 5897 C 547.382 -4.36697 4.28908 0
M  V30 5898 N 546.519 -5.57056 4.27356 0
M  V30 5899 H 551.359 -1.40351 2.62879 0
M  V30 5900 H 548.896 -0.682403 1.30314 0
M  V30 5901 H 550.854 -3.75048 1.82744 0
M  V30 5902 H 549.484 -3.10371 0.887109 0
M  V30 5903 H 548.536 -2.17419 3.12143 0
M  V30 5904 H 549.848 -3.02818 3.96362 0
M  V30 5905 H 549.002 -5.21801 3.09529 0
M  V30 5906 H 547.741 -4.37782 2.14939 0
M  V30 5907 H 546.746 -3.46734 4.2668 0
M  V30 5908 H 547.971 -4.34049 5.22282 0
M  V30 5909 H 545.917 -5.62184 3.3806 0
M  V30 5910 H 545.834 -5.57058 5.111 0
M  V30 5911 H 547.102 -6.47545 4.33942 0
M  V30 5912 N 551.331 -1.39911 -0.725443 0
M  V30 5913 C 552.577 -1.37858 -1.48738 0
M  V30 5914 C 552.91 0.0224187 -1.94187 0
M  V30 5915 O 552.185 0.989204 -1.67466 0
M  V30 5916 C 552.468 -2.3594 -2.72038 0
M  V30 5917 C 552.321 -3.85023 -2.32546 0
M  V30 5918 C 553.64 -2.31704 -3.74167 0
M  V30 5919 H 550.759 -0.502074 -0.539528 0
M  V30 5920 H 553.401 -1.70974 -0.828728 0
M  V30 5921 H 551.551 -2.0783 -3.28236 0
M  V30 5922 H 553.223 -4.2392 -1.81905 0
M  V30 5923 H 551.466 -4.01334 -1.64661 0
M  V30 5924 H 552.137 -4.49152 -3.20884 0
M  V30 5925 H 554.613 -2.5658 -3.27576 0
M  V30 5926 H 553.489 -3.02395 -4.58092 0
M  V30 5927 H 553.75 -1.3253 -4.21768 0
M  V30 5928 N 552.809 0.956637 -1.25245 0
M  V30 5929 C 553.757 2.0743 -1.0524 0
M  V30 5930 C 554.751 1.69392 0.0160725 0
M  V30 5931 O 555.957 1.7946 -0.139382 0
M  V30 5932 H 552.332 0.678921 -0.323373 0
M  V30 5933 H 554.303 2.2146 -1.99995 0
M  V30 5934 C 553.052 3.40872 -0.685702 0
M  V30 5935 H 552.375 3.70607 -1.49968 0
M  V30 5936 H 553.815 4.19939 -0.585415 0
M  V30 5937 C 552.274 3.31367 0.608082 0
M  V30 5938 O 552.804 3.66214 1.65076 0
M  V30 5939 N 551.01 2.84486 0.592955 0
M  V30 5940 H 550.557 2.56326 -0.25592 0
M  V30 5941 H 550.515 2.78509 1.45877 0
M  V30 5942 N 554.287 1.06798 1.15896 0
M  V30 5943 C 555.536 0.782796 1.8589 0
M  V30 5944 C 555.849 -0.693498 1.82893 0
M  V30 5945 O 557.055 -1.09325 2.48516 0
M  V30 5946 C 555.511 1.3502 3.33613 0
M  V30 5947 C 555.119 2.8571 3.45071 0
M  V30 5948 C 556.863 1.14278 4.08829 0
M  V30 5949 C 554.77 3.35669 4.86909 0
M  V30 5950 H 553.7 0.289149 0.696354 0
M  V30 5951 H 556.351 1.28734 1.30766 0
M  V30 5952 H 554.733 0.773407 3.88374 0
M  V30 5953 H 555.907 3.49385 3.00445 0
M  V30 5954 H 554.222 3.05178 2.83294 0
M  V30 5955 H 556.819 1.49087 5.13495 0
M  V30 5956 H 557.162 0.0814575 4.1622 0
M  V30 5957 H 557.695 1.68563 3.60321 0
M  V30 5958 H 554.434 4.41302 4.84698 0
M  V30 5959 H 553.954 2.76745 5.32139 0
M  V30 5960 H 555.633 3.31296 5.55745 0
M  V30 5961 N 555.766 -1.3263 0.851289 0
M  V30 5962 C 556.676 -2.32722 0.296268 0
M  V30 5963 C 557.692 -1.63901 -0.584162 0
M  V30 5964 O 558.868 -1.95465 -0.485334 0
M  V30 5965 C 555.933 -3.42942 -0.509103 0
M  V30 5966 C 554.994 -4.2746 0.397069 0
M  V30 5967 C 554.227 -5.32416 -0.36996 0
M  V30 5968 O 554.45 -5.47491 -1.6003 0
M  V30 5969 O 553.384 -6.01327 0.262493 0
M  V30 5970 H 557.21 -2.82078 1.12543 0
M  V30 5971 H 554.795 -1.36194 0.614135 0
M  V30 5972 H 556.677 -4.1017 -0.96634 0
M  V30 5973 H 555.352 -2.95781 -1.31512 0
M  V30 5974 H 554.259 -3.63053 0.902411 0
M  V30 5975 H 555.592 -4.78136 1.16818 0
M  V30 5976 N 557.244 -0.608902 -1.45362 0
M  V30 5977 C 558.521 -0.0365378 -1.95566 0
M  V30 5978 C 558.901 1.43169 -1.55131 0
M  V30 5979 O 558.249 2.1349 -0.814513 0
M  V30 5980 C 558.459 -0.236026 -3.48201 0
M  V30 5981 C 559.807 -0.117518 -4.24437 0
M  V30 5982 O 560.831 -0.166217 -3.55812 0
M  V30 5983 O 559.69 -0.00372127 -5.465 0
M  V30 5984 H 556.784 0.0349874 -0.82626 0
M  V30 5985 H 559.33 -0.679055 -1.55521 0
M  V30 5986 H 558.102 -1.25569 -3.70605 0
M  V30 5987 H 557.725 0.441691 -3.95139 0
M  V30 5988 N 558.722 1.53707 -0.348139 0
M  V30 5989 C 559.968 2.01286 0.247332 0
M  V30 5990 C 560.301 1.23546 1.49834 0
M  V30 5991 O 559.576 0.324331 1.91777 0
M  V30 5992 C 559.859 3.55768 0.556858 0
M  V30 5993 C 559.712 4.44216 -0.706564 0
M  V30 5994 C 561.031 4.1841 1.3646 0
M  V30 5995 H 558.15 0.731677 0.0884201 0
M  V30 5996 H 560.792 1.84106 -0.469584 0
M  V30 5997 H 558.942 3.70539 1.16761 0
M  V30 5998 H 560.614 4.41274 -1.34444 0
M  V30 5999 H 558.857 4.12892 -1.33052 0
M  V30 6000 H 559.528 5.50202 -0.445186 0
M  V30 6001 H 562.004 4.07365 0.848113 0
M  V30 6002 H 560.88 5.26563 1.54992 0
M  V30 6003 H 561.141 3.7333 2.36805 0
M  V30 6004 N 560.2 0.0768682 1.57412 0
M  V30 6005 C 561.163 -0.873949 2.11884 0
M  V30 6006 C 562.163 -1.22301 1.04398 0
M  V30 6007 O 563.353 -1.15545 1.30365 0
M  V30 6008 C 560.485 -2.17575 2.62438 0
M  V30 6009 H 561.678 -0.401278 2.97203 0
M  V30 6010 H 559.231 -0.171904 1.55352 0
M  V30 6011 H 559.966 -2.69368 1.80587 0
M  V30 6012 H 559.751 -1.93534 3.41009 0
M  V30 6013 H 561.241 -2.85631 3.04639 0
M  V30 6014 N 561.678 -1.56367 -0.196722 0
M  V30 6015 C 562.906 -1.84639 -0.933608 0
M  V30 6016 C 563.321 -0.659164 -1.76919 0
M  V30 6017 O 562.678 0.372142 -1.78665 0
M  V30 6018 C 562.729 -3.11694 -1.83109 0
M  V30 6019 O 562.45 -4.25838 -1.02924 0
M  V30 6020 C 563.951 -3.53132 -2.67979 0
M  V30 6021 H 561.171 -0.613188 -0.272473 0
M  V30 6022 H 563.715 -2.03475 -0.204465 0
M  V30 6023 H 561.87 -2.94759 -2.51387 0
M  V30 6024 H 562.284 -4.98178 -1.64069 0
M  V30 6025 H 563.758 -4.45005 -3.26611 0
M  V30 6026 H 564.235 -2.76045 -3.41608 0
M  V30 6027 H 564.841 -3.72592 -2.05074 0
M  V30 6028 N 563.156 0.464375 -1.50603 0
M  V30 6029 C 564.066 1.58723 -1.72754 0
M  V30 6030 C 565.082 1.62925 -0.610844 0
M  V30 6031 O 566.258 1.8067 -0.889963 0
M  V30 6032 C 563.323 2.94897 -1.82309 0
M  V30 6033 C 562.384 3.0103 -3.06071 0
M  V30 6034 C 561.617 4.30708 -3.1516 0
M  V30 6035 O 561.84 5.2159 -2.30868 0
M  V30 6036 O 560.774 4.42571 -4.0794 0
M  V30 6037 H 564.6 1.42954 -2.67951 0
M  V30 6038 H 562.185 0.644579 -1.3478 0
M  V30 6039 H 564.067 3.75764 -1.90735 0
M  V30 6040 H 562.742 3.10851 -0.902967 0
M  V30 6041 H 561.649 2.19217 -3.03142 0
M  V30 6042 H 562.982 2.90014 -3.97684 0
M  V30 6043 N 564.634 1.40294 0.718013 0
M  V30 6044 C 565.882 1.38167 1.47494 0
M  V30 6045 C 566.203 -0.01607 1.94993 0
M  V30 6046 O 565.473 -0.970396 1.70177 0
M  V30 6047 H 564.053 0.508505 0.547203 0
M  V30 6048 H 566.715 1.75324 0.851322 0
M  V30 6049 H 565.811 2.05503 2.34894 0
M  V30 6050 N 566.112 -0.949982 1.2575 0
M  V30 6051 C 567.075 -2.02894 1.06615 0
M  V30 6052 C 568.075 -1.60791 0.0173905 0
M  V30 6053 O 569.265 -1.72249 0.260003 0
M  V30 6054 C 566.397 -3.35219 0.619751 0
M  V30 6055 H 567.59 -2.21302 2.02399 0
M  V30 6056 H 565.143 -1.12772 1.08223 0
M  V30 6057 H 565.878 -3.22508 -0.340486 0
M  V30 6058 H 565.663 -3.67129 1.37692 0
M  V30 6059 H 567.153 -4.14505 0.507443 0
M  V30 6060 N 567.59 -1.07411 -1.15328 0
M  V30 6061 C 568.838 -0.796073 -1.85761 0
M  V30 6062 C 569.159 0.679864 -1.82764 0
M  V30 6063 O 568.429 1.49242 -1.269 0
M  V30 6064 H 567.009 -0.291495 -0.687779 0
M  V30 6065 H 569.671 -1.35799 -1.39802 0
M  V30 6066 H 568.767 -1.13114 -2.90881 0
M  V30 6067 N 569.068 1.32177 -0.85831 0
M  V30 6068 C 569.998 2.31282 -0.321041 0
M  V30 6069 C 570.979 1.59841 0.581786 0
M  V30 6070 O 572.164 1.87619 0.501262 0
M  V30 6071 C 569.294 3.4385 0.48832 0
M  V30 6072 C 568.248 4.26799 -0.320391 0
M  V30 6073 C 567.574 5.31164 0.613934 0
M  V30 6074 C 568.874 4.98829 -1.54813 0
M  V30 6075 H 570.568 2.76469 -1.14915 0
M  V30 6076 H 568.114 1.32916 -0.554028 0
M  V30 6077 H 570.067 4.12224 0.874626 0
M  V30 6078 H 568.791 2.97401 1.34983 0
M  V30 6079 H 567.45 3.60077 -0.688497 0
M  V30 6080 H 567.098 4.80967 1.47239 0
M  V30 6081 H 566.798 5.8755 0.0768097 0
M  V30 6082 H 568.322 6.024 0.997336 0
M  V30 6083 H 569.736 5.59864 -1.23392 0
M  V30 6084 H 568.133 5.64957 -2.02346 0
M  V30 6085 H 569.203 4.26483 -2.30739 0
M  V30 6086 N 570.547 0.616602 1.45037 0
M  V30 6087 C 571.793 0.115501 2.02471 0
M  V30 6088 C 572.126 -1.25406 1.4828 0
M  V30 6089 O 571.401 -1.82922 0.661051 0
M  V30 6090 C 571.684 0.0863588 3.59996 0
M  V30 6091 C 571.537 1.48723 4.24501 0
M  V30 6092 C 572.856 -0.596762 4.36035 0
M  V30 6093 H 569.975 0.0434461 0.735718 0
M  V30 6094 H 572.617 0.7903 1.72784 0
M  V30 6095 H 570.767 -0.488277 3.85419 0
M  V30 6096 H 572.439 2.10964 4.10234 0
M  V30 6097 H 570.682 2.04534 3.82555 0
M  V30 6098 H 571.353 1.419 5.3345 0
M  V30 6099 H 573.829 -0.10824 4.15959 0
M  V30 6100 H 572.705 -0.586289 5.4576 0
M  V30 6101 H 572.966 -1.66451 4.09569 0
M  V30 6102 N 572.025 -1.5352 0.356285 0
M  V30 6103 C 573.272 -2.01117 -0.236303 0
M  V30 6104 C 573.6 -1.24381 -1.49531 0
M  V30 6105 O 572.855 -0.323057 -1.93015 0
M  V30 6106 C 573.154 -3.52607 -0.583369 0
M  V30 6107 C 572.82 -4.47151 0.58023 0
M  V30 6108 C 571.482 -4.72718 0.899528 0
M  V30 6109 C 573.834 -5.03137 1.36024 0
M  V30 6110 C 571.162 -5.51523 2.00098 0
M  V30 6111 C 573.514 -5.83145 2.45204 0
M  V30 6112 C 572.178 -6.07001 2.77679 0
M  V30 6113 H 571.448 -0.735938 -0.0864695 0
M  V30 6114 H 574.095 -1.85209 0.48683 0
M  V30 6115 H 572.4 -3.66413 -1.38739 0
M  V30 6116 H 574.097 -3.86901 -1.05397 0
M  V30 6117 H 570.687 -4.27394 0.321322 0
M  V30 6118 H 574.871 -4.83339 1.12682 0
M  V30 6119 H 570.127 -5.68229 2.25668 0
M  V30 6120 H 574.301 -6.25537 3.06067 0
M  V30 6121 H 571.928 -6.67851 3.63151 0
M  V30 6122 N 573.503 -0.0852151 -1.57369 0
M  V30 6123 C 574.752 0.580443 -1.93168 0
M  V30 6124 C 575.065 1.6995 -0.968319 0
M  V30 6125 O 576.271 2.42564 -1.21963 0
M  V30 6126 C 574.727 1.08386 -3.43192 0
M  V30 6127 C 574.335 -0.00491388 -4.48 0
M  V30 6128 C 576.079 1.72281 -3.87968 0
M  V30 6129 C 573.986 0.513299 -5.89168 0
M  V30 6130 H 572.916 0.22059 -0.72101 0
M  V30 6131 H 575.567 -0.159621 -1.82804 0
M  V30 6132 H 573.949 1.8773 -3.48674 0
M  V30 6133 H 575.123 -0.780032 -4.5415 0
M  V30 6134 H 573.438 -0.548453 -4.12772 0
M  V30 6135 H 576.035 2.12108 -4.9083 0
M  V30 6136 H 576.378 2.58811 -3.26071 0
M  V30 6137 H 576.911 0.995359 -3.85146 0
M  V30 6138 H 573.65 -0.315153 -6.54742 0
M  V30 6139 H 573.17 1.25564 -5.8651 0
M  V30 6140 H 574.849 0.985433 -6.39451 0
M  V30 6141 N 574.981 1.5647 0.188427 0
M  V30 6142 C 575.911 1.98101 1.23606 0
M  V30 6143 C 576.892 0.853961 1.47111 0
M  V30 6144 O 578.077 1.11879 1.58735 0
M  V30 6145 C 575.207 2.32624 2.57882 0
M  V30 6146 C 574.161 3.48129 2.48978 0
M  V30 6147 C 573.487 3.68347 3.87588 0
M  V30 6148 C 574.787 4.82112 2.00911 0
M  V30 6149 H 576.481 2.85864 0.890068 0
M  V30 6150 H 574.027 1.37532 0.426714 0
M  V30 6151 H 575.98 2.60343 3.3136 0
M  V30 6152 H 574.704 1.41751 2.94235 0
M  V30 6153 H 573.363 3.20511 1.77956 0
M  V30 6154 H 573.011 2.74793 4.21305 0
M  V30 6155 H 572.711 4.46055 3.82503 0
M  V30 6156 H 574.235 3.98449 4.62678 0
M  V30 6157 H 575.649 5.08819 2.64151 0
M  V30 6158 H 574.046 5.63337 2.06814 0
M  V30 6159 H 575.116 4.75249 0.96262 0
M  V30 6160 N 576.459 -0.456382 1.50847 0
M  V30 6161 C 577.689 -1.22848 1.66108 0
M  V30 6162 C 578.097 -1.85936 0.349897 0
M  V30 6163 O 577.44 -1.70664 -0.679665 0
M  V30 6164 C 577.502 -2.36722 2.70561 0
M  V30 6165 C 577.166 -1.94154 4.13707 0
M  V30 6166 C 578.163 -1.4557 4.99105 0
M  V30 6167 C 575.848 -2.02426 4.59705 0
M  V30 6168 C 577.842 -1.0582 6.28555 0
M  V30 6169 C 575.529 -1.62287 5.89157 0
M  V30 6170 C 576.527 -1.14064 6.73408 0
M  V30 6171 O 576.215 -0.744873 8.00442 0
M  V30 6172 H 575.947 -0.377105 0.561042 0
M  V30 6173 H 578.501 -0.549431 1.97915 0
M  V30 6174 H 576.731 -3.07844 2.34027 0
M  V30 6175 H 578.42 -2.98646 2.74892 0
M  V30 6176 H 579.186 -1.38589 4.64777 0
M  V30 6177 H 575.065 -2.38908 3.94264 0
M  V30 6178 H 578.609 -0.6811 6.94267 0
M  V30 6179 H 574.506 -1.68932 6.23003 0
M  V30 6180 H 575.274 -0.87242 8.13837 0
M  V30 6181 N 577.937 -1.40673 -0.710563 0
M  V30 6182 C 579.348 -1.34975 -1.28991 0
M  V30 6183 C 579.699 -0.0256272 -1.96183 0
M  V30 6184 O 578.824 0.876339 -1.97862 0
M  V30 6185 C 579.419 -2.44467 -2.34567 0
M  V30 6186 C 577.978 -2.42213 -2.88114 0
M  V30 6187 C 577.125 -2.25085 -1.61963 0
M  V30 6188 H 580.076 -1.50406 -0.506343 0
M  V30 6189 H 580.097 -2.12663 -3.15523 0
M  V30 6190 H 579.609 -3.40825 -1.85634 0
M  V30 6191 H 577.71 -1.49568 -3.41263 0
M  V30 6192 H 577.823 -3.37983 -3.39565 0
M  V30 6193 H 576.187 -1.72691 -1.87216 0
M  V30 6194 H 576.97 -3.23449 -1.15047 0
M  V30 6195 N 579.415 0.9433 -1.26252 0
M  V30 6196 C 580.325 2.07532 -1.09397 0
M  V30 6197 C 581.341 1.73977 -0.0280449 0
M  V30 6198 O 582.517 2.00067 -0.231337 0
M  V30 6199 C 579.582 3.39002 -0.726523 0
M  V30 6200 C 578.643 3.86353 -1.87163 0
M  V30 6201 C 577.876 5.11549 -1.52162 0
M  V30 6202 O 578.099 5.68834 -0.422385 0
M  V30 6203 O 577.033 5.53889 -2.35565 0
M  V30 6204 H 580.859 2.24658 -2.04359 0
M  V30 6205 H 578.444 1.05988 -1.05295 0
M  V30 6206 H 580.326 4.18 -0.534236 0
M  V30 6207 H 579.001 3.2312 0.193721 0
M  V30 6208 H 577.908 3.0831 -2.11886 0
M  V30 6209 H 579.241 4.06752 -2.77152 0
M  V30 6210 N 580.893 1.08022 1.14757 0
M  V30 6211 C 581.856 0.71048 2.1791 0
M  V30 6212 C 582.856 -0.252731 1.58801 0
M  V30 6213 O 584.046 -0.0327915 1.74169 0
M  V30 6214 C 581.178 0.0483203 3.40866 0
M  V30 6215 H 582.371 1.62384 2.52134 0
M  V30 6216 H 579.924 0.877595 1.29337 0
M  V30 6217 H 580.659 -0.876959 3.12218 0
M  V30 6218 H 580.444 0.741189 3.85031 0
M  V30 6219 H 581.934 -0.195471 4.17142 0
M  V30 6220 N 582.371 -1.3172 0.865308 0
M  V30 6221 C 583.62 -1.96145 0.470098 0
M  V30 6222 C 583.933 -1.69182 -0.981674 0
M  V30 6223 O 585.139 -2.27431 -1.48281 0
M  V30 6224 C 583.595 -3.51129 0.789732 0
M  V30 6225 C 583.203 -3.86938 2.25795 0
M  V30 6226 C 584.947 -4.2197 0.462765 0
M  V30 6227 C 582.854 -5.35012 2.52024 0
M  V30 6228 H 581.784 -0.734105 0.172065 0
M  V30 6229 H 584.435 -1.49959 1.05757 0
M  V30 6230 H 582.817 -3.95781 0.131571 0
M  V30 6231 H 583.991 -3.5326 2.95879 0
M  V30 6232 H 582.306 -3.29149 2.55049 0
M  V30 6233 H 584.903 -5.30904 0.636019 0
M  V30 6234 H 585.246 -4.12005 -0.59645 0
M  V30 6235 H 585.779 -3.82936 1.07727 0
M  V30 6236 H 582.518 -5.50008 3.56611 0
M  V30 6237 H 582.038 -5.70058 1.8653 0
M  V30 6238 H 583.717 -6.0222 2.36515 0
M  V30 6239 N 583.85 -0.624285 -1.44708 0
M  V30 6240 C 585.075 -0.131171 -2.06985 0
M  V30 6241 C 585.5 1.18234 -1.46295 0
M  V30 6242 O 584.858 1.72375 -0.561842 0
M  V30 6243 C 584.906 -0.0226724 -3.60593 0
M  V30 6244 O 584.01 1.02314 -3.99507 0
M  V30 6245 H 583.351 -0.0816556 -0.65896 0
M  V30 6246 H 585.88 -0.859027 -1.85693 0
M  V30 6247 H 585.891 0.170138 -4.07645 0
M  V30 6248 H 584.566 -0.981685 -4.04148 0
M  V30 6249 H 583.143 0.805452 -3.64097 0
M  V30 6250 N 585.328 1.53329 -0.364422 0
M  V30 6251 C 586.556 2.05657 0.226424 0
M  V30 6252 C 586.971 1.23801 1.42544 0
M  V30 6253 O 586.328 0.27839 1.80364 0
M  V30 6254 C 586.379 3.56125 0.621056 0
M  V30 6255 O 586.1 4.34879 -0.530304 0
M  V30 6256 C 587.601 4.24706 1.27041 0
M  V30 6257 H 584.821 0.669806 0.0400056 0
M  V30 6258 H 587.365 1.97714 -0.522456 0
M  V30 6259 H 585.52 3.64223 1.31985 0
M  V30 6260 H 585.934 5.24073 -0.211546 0
M  V30 6261 H 587.408 5.3131 1.49711 0
M  V30 6262 H 587.885 3.78354 2.23036 0
M  V30 6263 H 588.491 4.20858 0.613079 0
M  V30 6264 N 586.806 0.0935595 1.57322 0
M  V30 6265 C 587.736 -0.863062 2.16964 0
M  V30 6266 C 588.717 -1.29528 1.10256 0
M  V30 6267 O 589.902 -1.36245 1.38387 0
M  V30 6268 C 587.032 -2.12276 2.74875 0
M  V30 6269 C 585.986 -1.82921 3.86942 0
M  V30 6270 C 585.312 -3.15707 4.31548 0
M  V30 6271 C 586.612 -1.11737 5.10208 0
M  V30 6272 H 588.306 -0.366145 2.97153 0
M  V30 6273 H 585.852 -0.174673 1.42937 0
M  V30 6274 H 587.805 -2.79634 3.1525 0
M  V30 6275 H 586.529 -2.64248 1.91938 0
M  V30 6276 H 585.188 -1.17961 3.47103 0
M  V30 6277 H 584.836 -3.65563 3.45504 0
M  V30 6278 H 584.536 -2.96849 5.07104 0
M  V30 6279 H 586.06 -3.84226 4.74555 0
M  V30 6280 H 587.474 -1.69203 5.47762 0
M  V30 6281 H 585.871 -1.03064 5.91183 0
M  V30 6282 H 586.941 -0.0998818 4.84797 0
M  V30 6283 N 588.284 -1.56567 -0.180126 0
M  V30 6284 C 589.509 -1.85975 -0.918041 0
M  V30 6285 C 589.934 -0.678888 -1.75422 0
M  V30 6286 O 589.292 0.372168 -1.77439 0
M  V30 6287 C 589.34 -3.13731 -1.77779 0
M  V30 6288 O 588.444 -2.95335 -2.87838 0
M  V30 6289 H 587.785 -0.61196 -0.257683 0
M  V30 6290 H 590.315 -2.03798 -0.180923 0
M  V30 6291 H 590.325 -3.4491 -2.17948 0
M  V30 6292 H 589 -3.99293 -1.16352 0
M  V30 6293 H 587.577 -2.7549 -2.51316 0
M  V30 6294 N 589.762 0.448376 -1.51087 0
M  V30 6295 C 591.01 1.19635 -1.62886 0
M  V30 6296 C 591.331 1.91977 -0.342024 0
M  V30 6297 O 590.601 1.85094 0.641636 0
M  V30 6298 H 589.181 0.444598 -0.600285 0
M  V30 6299 H 591.843 0.515138 -1.87969 0
M  V30 6300 H 590.939 1.93194 -2.45117 0
M  V30 6301 N 591.24 1.41047 0.703093 0
M  V30 6302 C 592.465 1.43537 1.49706 0
M  V30 6303 C 592.89 0.0401853 1.88057 0
M  V30 6304 O 592.248 -0.954785 1.54122 0
M  V30 6305 C 592.296 2.3433 2.74084 0
M  V30 6306 O 591.4 1.79515 3.71279 0
M  V30 6307 H 590.741 0.487454 0.450871 0
M  V30 6308 H 593.271 1.85422 0.86486 0
M  V30 6309 H 593.281 2.49947 3.22476 0
M  V30 6310 H 591.956 3.35708 2.45506 0
M  V30 6311 H 590.533 1.7331 3.30179 0
M  V30 6312 N 592.718 -0.936591 1.26751 0
M  V30 6313 C 593.946 -1.71758 1.15355 0
M  V30 6314 C 594.361 -1.86549 -0.290683 0
M  V30 6315 O 593.718 -1.37616 -1.19868 0
M  V30 6316 C 593.769 -3.12193 1.82258 0
M  V30 6317 O 593.49 -2.98105 3.21038 0
M  V30 6318 C 594.991 -4.06485 1.76875 0
M  V30 6319 H 592.211 -0.537636 0.401483 0
M  V30 6320 H 594.755 -1.17382 1.67457 0
M  V30 6321 H 592.91 -3.63456 1.34083 0
M  V30 6322 H 593.324 -3.86824 3.54214 0
M  V30 6323 H 594.798 -5.02569 2.28316 0
M  V30 6324 H 595.275 -4.32986 0.736216 0
M  V30 6325 H 595.881 -3.61144 2.24623 0
M  V30 6326 N 594.196 -1.08629 -1.14182 0
M  V30 6327 C 595.443 -0.817345 -1.85272 0
M  V30 6328 C 595.771 0.656917 -1.83071 0
M  V30 6329 O 595.026 1.49897 -1.25815 0
M  V30 6330 C 595.325 -1.28734 -3.3341 0
M  V30 6331 C 594.991 -2.76981 -3.55798 0
M  V30 6332 C 593.653 -3.17469 -3.61617 0
M  V30 6333 C 596.005 -3.72605 -3.64438 0
M  V30 6334 C 593.333 -4.52371 -3.736 0
M  V30 6335 C 595.685 -5.07286 -3.77947 0
M  V30 6336 C 594.349 -5.47376 -3.82016 0
M  V30 6337 H 593.619 -0.299088 -0.677958 0
M  V30 6338 H 596.266 -1.35962 -1.34857 0
M  V30 6339 H 594.571 -0.664702 -3.8612 0
M  V30 6340 H 596.268 -1.05598 -3.86846 0
M  V30 6341 H 592.858 -2.44644 -3.51919 0
M  V30 6342 H 597.042 -3.42443 -3.5923 0
M  V30 6343 H 592.298 -4.82882 -3.75013 0
M  V30 6344 H 596.472 -5.81243 -3.83575 0
M  V30 6345 H 594.099 -6.51906 -3.91054 0
M  V30 6346 N 595.674 1.31259 -0.872281 0
M  V30 6347 C 596.92 1.973 -0.494414 0
M  V30 6348 C 597.275 1.67684 0.94339 0
M  V30 6349 O 596.568 0.964186 1.65572 0
M  V30 6350 C 596.762 3.50659 -0.690889 0
M  V30 6351 C 596.591 3.95179 -2.14624 0
M  V30 6352 C 595.361 4.21405 -2.7883 0
M  V30 6353 C 597.559 4.08948 -3.11875 0
M  V30 6354 N 595.541 4.52295 -4.15093 0
M  V30 6355 C 596.912 4.43576 -4.33174 0
M  V30 6356 C 598.967 3.91334 -3.07835 0
M  V30 6357 C 597.67 4.62429 -5.50956 0
M  V30 6358 C 599.696 4.11381 -4.24876 0
M  V30 6359 C 599.058 4.46343 -5.44938 0
M  V30 6360 H 595.157 0.747411 -0.230002 0
M  V30 6361 H 597.741 1.58741 -1.12736 0
M  V30 6362 H 595.912 3.88301 -0.0875162 0
M  V30 6363 H 597.644 4.03722 -0.281179 0
M  V30 6364 H 594.399 4.14131 -2.29767 0
M  V30 6365 H 594.823 4.71897 -4.8543 0
M  V30 6366 H 599.465 3.6339 -2.16119 0
M  V30 6367 H 597.183 4.8922 -6.43187 0
M  V30 6368 H 600.769 3.99235 -4.23205 0
M  V30 6369 H 599.649 4.6154 -6.33996 0
M  V30 6370 N 597.152 0.631951 1.44375 0
M  V30 6371 C 598.115 -0.0628142 2.29114 0
M  V30 6372 C 599.115 -0.771494 1.41084 0
M  V30 6373 O 600.305 -0.615959 1.62947 0
M  V30 6374 C 597.437 -1.09953 3.22681 0
M  V30 6375 H 598.63 0.682509 2.92031 0
M  V30 6376 H 596.183 0.392128 1.51301 0
M  V30 6377 H 596.918 -1.87481 2.64616 0
M  V30 6378 H 596.703 -0.595286 3.87555 0
M  V30 6379 H 598.193 -1.58538 3.86336 0
M  V30 6380 N 598.631 -1.53133 0.372548 0
M  V30 6381 C 599.877 -2.01654 -0.215277 0
M  V30 6382 C 600.21 -1.25914 -1.47849 0
M  V30 6383 O 599.485 -0.3548 -1.91237 0
M  V30 6384 C 599.768 -3.56609 -0.500187 0
M  V30 6385 C 599.621 -4.43036 0.777145 0
M  V30 6386 C 600.94 -4.20528 -1.29786 0
M  V30 6387 H 598.059 -0.732991 -0.0767686 0
M  V30 6388 H 600.701 -1.83335 0.498814 0
M  V30 6389 H 598.851 -3.7235 -1.10852 0
M  V30 6390 H 600.523 -4.39079 1.41447 0
M  V30 6391 H 598.766 -4.10723 1.39604 0
M  V30 6392 H 599.437 -5.49424 0.532662 0
M  V30 6393 H 601.913 -4.08663 -0.783198 0
M  V30 6394 H 600.789 -5.28962 -1.46596 0
M  V30 6395 H 601.05 -3.77051 -2.30836 0
M  V30 6396 N 600.109 -0.101901 -1.5727 0
M  V30 6397 C 601.355 0.561027 -1.94885 0
M  V30 6398 C 601.688 1.6741 -0.984258 0
M  V30 6399 O 600.963 1.94491 -0.0184767 0
M  V30 6400 C 601.246 1.10982 -3.42571 0
M  V30 6401 C 601.099 0.00133418 -4.498 0
M  V30 6402 C 602.418 2.00608 -3.9172 0
M  V30 6403 H 599.537 0.202467 -0.708644 0
M  V30 6404 H 602.179 -0.173992 -1.89202 0
M  V30 6405 H 600.329 1.73621 -3.47546 0
M  V30 6406 H 602.001 -0.63322 -4.56933 0
M  V30 6407 H 600.244 -0.664143 -4.28686 0
M  V30 6408 H 600.915 0.426253 -5.50352 0
M  V30 6409 H 603.391 1.47864 -3.88941 0
M  V30 6410 H 602.267 2.3593 -4.95609 0
M  V30 6411 H 602.528 2.92608 -3.3141 0
M  V30 6412 N 601.587 1.56661 0.17182 0
M  V30 6413 C 602.834 1.81965 0.888529 0
M  V30 6414 C 603.162 0.6789 1.82267 0
M  V30 6415 O 602.417 -0.333875 1.92831 0
M  V30 6416 C 602.716 3.13435 1.71736 0
M  V30 6417 C 602.382 4.41159 0.932184 0
M  V30 6418 C 601.044 4.75851 0.715481 0
M  V30 6419 C 603.396 5.19803 0.381387 0
M  V30 6420 C 600.724 5.86666 -0.063126 0
M  V30 6421 C 603.076 6.31433 -0.384129 0
M  V30 6422 C 601.74 6.64692 -0.611637 0
M  V30 6423 H 601.01 0.665859 0.325136 0
M  V30 6424 H 603.657 1.90884 0.153495 0
M  V30 6425 H 601.962 2.99857 2.52177 0
M  V30 6426 H 603.659 3.30224 2.27493 0
M  V30 6427 H 600.249 4.13947 1.11112 0
M  V30 6428 H 604.433 4.93396 0.536148 0
M  V30 6429 H 599.689 6.10892 -0.249136 0
M  V30 6430 H 603.863 6.91577 -0.818185 0
M  V30 6431 H 601.49 7.50398 -1.21684 0
M  V30 6432 N 603.065 -0.440357 1.51323 0
M  V30 6433 C 604.312 -1.19004 1.63842 0
M  V30 6434 C 604.64 -1.91266 0.35321 0
M  V30 6435 O 603.895 -1.84143 -0.662565 0
M  V30 6436 C 604.194 -2.2339 2.78984 0
M  V30 6437 C 603.86 -1.68162 4.18369 0
M  V30 6438 C 602.522 -1.52823 4.56288 0
M  V30 6439 C 604.874 -1.27524 5.05358 0
M  V30 6440 C 602.202 -0.953157 5.78906 0
M  V30 6441 C 604.554 -0.714474 6.28552 0
M  V30 6442 C 603.218 -0.547961 6.65247 0
M  V30 6443 H 602.488 -0.435468 0.59954 0
M  V30 6444 H 605.135 -0.481538 1.85347 0
M  V30 6445 H 603.44 -3.00267 2.51688 0
M  V30 6446 H 605.137 -2.81211 2.85869 0
M  V30 6447 H 601.727 -1.81077 3.8847 0
M  V30 6448 H 605.911 -1.38197 4.76671 0
M  V30 6449 H 601.167 -0.811882 6.05986 0
M  V30 6450 H 605.341 -0.391059 6.95301 0
M  V30 6451 H 602.968 -0.100222 7.60134 0
M  V30 6452 N 604.543 -1.41418 -0.695603 0
M  V30 6453 C 605.789 -1.40982 -1.4578 0
M  V30 6454 C 606.122 -0.0187763 -1.94191 0
M  V30 6455 O 605.397 0.95346 -1.69527 0
M  V30 6456 C 605.68 -2.41657 -2.66972 0
M  V30 6457 C 605.533 -3.89869 -2.24327 0
M  V30 6458 C 606.852 -2.39589 -3.69168 0
M  V30 6459 H 603.971 -0.513405 -0.528757 0
M  V30 6460 H 606.613 -1.72693 -0.792275 0
M  V30 6461 H 604.763 -2.14746 -3.23754 0
M  V30 6462 H 606.435 -4.27683 -1.72872 0
M  V30 6463 H 604.678 -4.04737 -1.56111 0
M  V30 6464 H 605.349 -4.55857 -3.11285 0
M  V30 6465 H 607.825 -2.63471 -3.2206 0
M  V30 6466 H 606.701 -3.12044 -4.51575 0
M  V30 6467 H 606.962 -1.41447 -4.18862 0
M  V30 6468 N 606.021 0.929856 -1.27246 0
M  V30 6469 C 606.954 2.03069 -1.04106 0
M  V30 6470 C 607.932 1.62556 0.0378417 0
M  V30 6471 O 609.116 1.88197 -0.106869 0
M  V30 6472 C 606.243 3.33718 -0.578778 0
M  V30 6473 C 605.289 3.93209 -1.65193 0
M  V30 6474 S 606.122 4.26068 -3.24386 0
M  V30 6475 C 607.278 5.598 -2.79954 0
M  V30 6476 H 607.511 2.22386 -1.97311 0
M  V30 6477 H 605.044 1.07269 -1.11053 0
M  V30 6478 H 607.002 4.09261 -0.31874 0
M  V30 6479 H 605.663 3.12328 0.333182 0
M  V30 6480 H 604.856 4.87482 -1.27973 0
M  V30 6481 H 604.458 3.24243 -1.86393 0
M  V30 6482 H 606.75 6.39004 -2.25123 0
M  V30 6483 H 607.693 6.01917 -3.72963 0
M  V30 6484 H 608.101 5.20219 -2.19164 0
M  V30 6485 N 607.499 1.09233 1.13605 0
M  V30 6486 C 608.429 0.751738 2.21068 0
M  V30 6487 C 609.41 -0.269688 1.67948 0
M  V30 6488 O 610.595 -0.13819 1.93708 0
M  V30 6489 C 607.725 0.16935 3.46887 0
M  V30 6490 C 606.679 1.12007 4.13084 0
M  V30 6491 C 606.005 0.399483 5.33206 0
M  V30 6492 C 607.305 2.46168 4.6065 0
M  V30 6493 H 608.999 1.65024 2.49815 0
M  V30 6494 H 606.545 0.794905 1.20072 0
M  V30 6495 H 608.498 -0.0809824 4.21322 0
M  V30 6496 H 607.222 -0.764335 3.1753 0
M  V30 6497 H 605.881 1.35564 3.40614 0
M  V30 6498 H 605.529 -0.538277 5.00112 0
M  V30 6499 H 605.229 1.03337 5.78442 0
M  V30 6500 H 606.753 0.157403 6.10397 0
M  V30 6501 H 608.167 2.26829 5.26518 0
M  V30 6502 H 606.564 3.05326 5.1662 0
M  V30 6503 H 607.634 3.07076 3.75276 0
M  V30 6504 N 608.977 -1.30795 0.87923 0
M  V30 6505 C 609.907 -2.30742 0.357796 0
M  V30 6506 C 610.888 -1.60747 -0.556283 0
M  V30 6507 O 612.073 -1.88393 -0.47135 0
M  V30 6508 C 609.203 -3.44583 -0.433555 0
M  V30 6509 C 608.157 -4.26235 0.388251 0
M  V30 6510 C 607.483 -5.32073 -0.529352 0
M  V30 6511 C 608.783 -4.96303 1.62729 0
M  V30 6512 H 610.477 -2.74605 1.19299 0
M  V30 6513 H 608.023 -1.32017 0.575104 0
M  V30 6514 H 609.976 -4.13563 -0.808934 0
M  V30 6515 H 608.7 -2.99511 -1.30234 0
M  V30 6516 H 607.359 -3.58936 0.745695 0
M  V30 6517 H 607.007 -4.83249 -1.39569 0
M  V30 6518 H 606.707 -5.87598 0.0166741 0
M  V30 6519 H 608.231 -6.0391 -0.901373 0
M  V30 6520 H 609.645 -5.5783 1.32283 0
M  V30 6521 H 608.042 -5.61666 2.11309 0
M  V30 6522 H 609.112 -4.22758 2.37494 0
M  V30 6523 N 610.455 -0.639598 -1.44038 0
M  V30 6524 C 611.418 0.0506628 -2.29144 0
M  V30 6525 C 612.418 0.764001 -1.41491 0
M  V30 6526 O 613.608 0.607309 -1.63271 0
M  V30 6527 C 610.74 1.0824 -3.2326 0
M  V30 6528 H 611.933 -0.697987 -2.91664 0
M  V30 6529 H 609.486 -0.400146 -1.51091 0
M  V30 6530 H 610.221 1.86075 -2.65606 0
M  V30 6531 H 610.006 0.574725 -3.87865 0
M  V30 6532 H 611.496 1.56487 -3.87171 0
M  V30 6533 N 611.933 1.52934 -0.380664 0
M  V30 6534 C 612.863 2.29118 0.450268 0
M  V30 6535 C 613.844 1.32153 1.07096 0
M  V30 6536 O 615.029 1.61038 1.08537 0
M  V30 6537 C 612.159 3.09161 1.58231 0
M  V30 6538 C 611.113 4.13938 1.0881 0
M  V30 6539 C 610.439 4.82153 2.31155 0
M  V30 6540 C 611.739 5.22048 0.162146 0
M  V30 6541 H 613.433 2.98826 -0.185361 0
M  V30 6542 H 610.979 1.43715 -0.0905886 0
M  V30 6543 H 612.932 3.61211 2.17036 0
M  V30 6544 H 611.656 2.3717 2.2454 0
M  V30 6545 H 610.315 3.62855 0.522633 0
M  V30 6546 H 609.963 4.06719 2.95953 0
M  V30 6547 H 609.663 5.52966 1.98752 0
M  V30 6548 H 611.187 5.37004 2.90618 0
M  V30 6549 H 612.601 5.6951 0.658126 0
M  V30 6550 H 610.998 6.00057 -0.0717122 0
M  V30 6551 H 612.068 4.78398 -0.791438 0
M  V30 6552 N 613.412 0.11024 1.57214 0
M  V30 6553 C 614.66 -0.548783 1.94506 0
M  V30 6554 C 614.981 -1.67772 0.99386 0
M  V30 6555 O 614.251 -1.9584 0.0485841 0
M  V30 6556 H 612.831 -0.205715 0.718116 0
M  V30 6557 H 615.493 0.177127 1.94093 0
M  V30 6558 H 614.589 -0.949096 2.97319 0
M  V30 6559 N 614.89 -1.56749 -0.16351 0
M  V30 6560 C 615.82 -2.00042 -1.20438 0
M  V30 6561 C 616.801 -0.877256 -1.45733 0
M  V30 6562 O 617.986 -1.1439 -1.56935 0
M  V30 6563 C 615.116 -2.36697 -2.54149 0
M  V30 6564 C 614.07 -3.52046 -2.43408 0
M  V30 6565 C 613.396 -3.74466 -3.81679 0
M  V30 6566 C 614.696 -4.85247 -1.93216 0
M  V30 6567 H 616.39 -2.87244 -0.844477 0
M  V30 6568 H 613.936 -1.38194 -0.40478 0
M  V30 6569 H 615.889 -2.65582 -3.27176 0
M  V30 6570 H 614.613 -1.46414 -2.91943 0
M  V30 6571 H 613.272 -3.23301 -1.72834 0
M  V30 6572 H 612.92 -2.81461 -4.1688 0
M  V30 6573 H 612.62 -4.52084 -3.75359 0
M  V30 6574 H 614.144 -4.0576 -4.5628 0
M  V30 6575 H 615.558 -5.12957 -2.56023 0
M  V30 6576 H 613.955 -5.66556 -1.97825 0
M  V30 6577 H 615.025 -4.7672 -0.88689 0
M  V30 6578 N 616.368 0.432326 -1.51554 0
M  V30 6579 C 617.645 1.19288 -1.55015 0
M  V30 6580 C 618.025 2.08701 -0.317375 0
M  V30 6581 O 617.373 2.17602 0.697243 0
M  V30 6582 C 617.583 1.99037 -2.86679 0
M  V30 6583 C 618.931 2.55907 -3.38817 0
M  V30 6584 O 619.955 2.09243 -2.88263 0
M  V30 6585 O 618.814 3.41029 -4.27038 0
M  V30 6586 H 615.908 0.543369 -0.623441 0
M  V30 6587 H 618.454 0.440988 -1.6387 0
M  V30 6588 H 617.226 1.33397 -3.6786 0
M  V30 6589 H 616.849 2.81281 -2.8101 0
M  V30 6590 N 617.846 1.41785 0.688094 0
M  V30 6591 C 619.071 1.45117 1.48175 0
M  V30 6592 C 619.496 0.060129 1.88004 0
M  V30 6593 O 618.854 -0.938385 1.55126 0
M  V30 6594 C 618.902 2.37224 2.71583 0
M  V30 6595 O 618.006 1.83443 3.69354 0
M  V30 6596 H 617.347 0.492208 0.445676 0
M  V30 6597 H 619.877 1.86329 0.845145 0
M  V30 6598 H 619.887 2.53353 3.19806 0
M  V30 6599 H 618.562 3.38293 2.41931 0
M  V30 6600 H 617.139 1.76802 3.28322 0
M  V30 6601 N 619.324 -0.923095 1.27737 0
M  V30 6602 C 620.549 -1.71054 1.17283 0
M  V30 6603 C 620.974 -1.86208 -0.266153 0
M  V30 6604 O 620.332 -1.36545 -1.1927 0
M  V30 6605 C 620.38 -3.0854 1.86642 0
M  V30 6606 O 619.484 -3.95528 1.16752 0
M  V30 6607 H 618.825 -0.524136 0.407649 0
M  V30 6608 H 621.355 -1.15487 1.6889 0
M  V30 6609 H 621.365 -3.58828 1.94182 0
M  V30 6610 H 620.04 -2.96828 2.91317 0
M  V30 6611 H 618.617 -3.53967 1.17312 0
M  V30 6612 N 620.802 -1.09834 -1.13024 0
M  V30 6613 C 621.735 -0.685453 -2.17662 0
M  V30 6614 C 622.713 0.310142 -1.59615 0
M  V30 6615 O 623.897 0.21052 -1.87321 0
M  V30 6616 C 621.024 -0.0104476 -3.38698 0
M  V30 6617 C 620.07 -0.968522 -4.15358 0
M  V30 6618 S 620.903 -2.48272 -4.74469 0
M  V30 6619 C 622.059 -1.82025 -5.98847 0
M  V30 6620 H 622.292 -1.57187 -2.52348 0
M  V30 6621 H 619.825 -0.914728 -1.24387 0
M  V30 6622 H 621.783 0.372694 -4.08805 0
M  V30 6623 H 620.444 0.852673 -3.02305 0
M  V30 6624 H 619.637 -0.443373 -5.02046 0
M  V30 6625 H 619.239 -1.29327 -3.50928 0
M  V30 6626 H 621.531 -1.14678 -6.67724 0
M  V30 6627 H 622.474 -2.66645 -6.55977 0
M  V30 6628 H 622.882 -1.2874 -5.49624 0
M  V30 6629 N 622.28 1.30327 -0.886154 0
M  V30 6630 C 623.528 1.9571 -0.504195 0
M  V30 6631 C 623.849 1.70294 0.950003 0
M  V30 6632 O 623.119 1.02718 1.66811 0
M  V30 6633 H 621.699 0.72412 -0.183465 0
M  V30 6634 H 624.361 1.58835 -1.12949 0
M  V30 6635 H 623.457 3.04704 -0.675431 0
M  V30 6636 N 623.758 0.647228 1.43697 0
M  V30 6637 C 625.006 0.157876 2.01482 0
M  V30 6638 C 625.327 -1.23039 1.51282 0
M  V30 6639 O 624.597 -1.82071 0.722982 0
M  V30 6640 H 623.177 0.0553745 0.744945 0
M  V30 6641 H 625.839 0.83755 1.75986 0
M  V30 6642 H 624.935 0.137895 3.11795 0
M  V30 6643 N 625.236 -1.5273 0.388769 0
M  V30 6644 C 626.169 -2.22861 -0.490752 0
M  V30 6645 C 627.147 -1.22912 -1.06449 0
M  V30 6646 O 628.331 -1.51896 -1.11624 0
M  V30 6647 C 625.458 -2.94141 -1.67925 0
M  V30 6648 C 624.504 -4.08355 -1.23081 0
M  V30 6649 S 625.337 -5.35077 -0.212786 0
M  V30 6650 C 626.493 -6.09879 -1.40708 0
M  V30 6651 H 626.726 -2.97115 0.104787 0
M  V30 6652 H 624.259 -1.53428 0.172956 0
M  V30 6653 H 626.217 -3.35818 -2.36085 0
M  V30 6654 H 624.878 -2.19568 -2.24608 0
M  V30 6655 H 624.071 -4.57328 -2.11818 0
M  V30 6656 H 623.673 -3.68688 -0.628121 0
M  V30 6657 H 625.965 -6.36018 -2.33424 0
M  V30 6658 H 626.908 -7.01586 -0.958271 0
M  V30 6659 H 627.316 -5.40646 -1.62364 0
M  V30 6660 N 626.714 -0.118576 -1.57153 0
M  V30 6661 C 627.624 0.845484 -2.18835 0
M  V30 6662 C 628.64 1.29299 -1.16438 0
M  V30 6663 O 629.816 1.35607 -1.48905 0
M  V30 6664 C 626.881 2.07795 -2.77529 0
M  V30 6665 C 625.942 1.6824 -3.9496 0
M  V30 6666 C 625.175 2.85612 -4.50845 0
M  V30 6667 O 625.398 4.01025 -4.05629 0
M  V30 6668 O 624.332 2.62721 -5.41536 0
M  V30 6669 H 628.158 0.350568 -3.0167 0
M  V30 6670 H 625.743 0.107013 -1.49016 0
M  V30 6671 H 627.625 2.79978 -3.14945 0
M  V30 6672 H 626.3 2.56294 -1.97725 0
M  V30 6673 H 625.207 0.931663 -3.62313 0
M  V30 6674 H 626.54 1.24484 -4.76198 0
M  V30 6675 N 628.193 1.56834 0.155195 0
M  V30 6676 C 629.156 1.96748 1.17571 0
M  V30 6677 C 630.156 0.853006 1.3631 0
M  V30 6678 O 631.346 1.11978 1.33441 0
M  V30 6679 C 628.478 2.27631 2.53765 0
M  V30 6680 H 629.671 2.88085 0.833498 0
M  V30 6681 H 627.224 1.51141 0.398242 0
M  V30 6682 H 627.959 1.39059 2.92973 0
M  V30 6683 H 627.744 3.0888 2.41527 0
M  V30 6684 H 629.234 2.59377 3.27282 0
M  V30 6685 N 629.671 -0.424282 1.51781 0
M  V30 6686 C 630.917 -1.17434 1.6534 0
M  V30 6687 C 631.25 -1.90549 0.374806 0
M  V30 6688 O 630.525 -1.84145 -0.626179 0
M  V30 6689 C 630.808 -2.18093 2.86544 0
M  V30 6690 C 630.661 -1.48975 4.24413 0
M  V30 6691 C 631.98 -3.18934 3.03264 0
M  V30 6692 H 629.099 -0.425566 0.601716 0
M  V30 6693 H 631.741 -0.461921 1.84299 0
M  V30 6694 H 629.891 -2.78849 2.7051 0
M  V30 6695 H 631.563 -0.914551 4.52143 0
M  V30 6696 H 629.806 -0.791893 4.26511 0
M  V30 6697 H 630.477 -2.22347 5.05238 0
M  V30 6698 H 632.953 -2.68243 3.18096 0
M  V30 6699 H 631.829 -3.86645 3.89611 0
M  V30 6700 H 632.09 -3.85793 2.15908 0
M  V30 6701 N 631.149 -1.42148 -0.680565 0
M  V30 6702 C 632.398 -1.41604 -1.43636 0
M  V30 6703 C 632.711 -0.0337887 -1.95571 0
M  V30 6704 O 633.917 0.0942588 -2.71336 0
M  V30 6705 C 632.373 -2.49056 -2.59806 0
M  V30 6706 C 631.981 -3.9326 -2.14594 0
M  V30 6707 C 633.725 -2.5767 -3.37352 0
M  V30 6708 C 631.632 -4.92232 -3.27813 0
M  V30 6709 H 630.562 -0.526656 -0.539583 0
M  V30 6710 H 633.213 -1.68033 -0.737369 0
M  V30 6711 H 631.595 -2.15782 -3.32045 0
M  V30 6712 H 632.769 -4.35858 -1.49546 0
M  V30 6713 H 631.084 -3.88443 -1.50002 0
M  V30 6714 H 633.681 -3.28794 -4.21662 0
M  V30 6715 H 634.024 -1.61837 -3.83555 0
M  V30 6716 H 634.557 -2.90109 -2.72179 0
M  V30 6717 H 631.296 -5.89522 -2.86607 0
M  V30 6718 H 630.816 -4.5427 -3.91661 0
M  V30 6719 H 632.495 -5.13684 -3.93367 0
M  V30 6720 N 632.627 0.916307 -1.28225 0
M  V30 6721 C 633.855 1.69901 -1.18073 0
M  V30 6722 C 634.27 1.86988 0.260968 0
M  V30 6723 O 633.627 1.39505 1.17663 0
M  V30 6724 C 633.678 3.09254 -1.87201 0
M  V30 6725 O 633.399 2.92959 -3.2574 0
M  V30 6726 C 634.9 4.0362 -1.83319 0
M  V30 6727 H 632.12 0.531181 -0.409985 0
M  V30 6728 H 634.664 1.14703 -1.69303 0
M  V30 6729 H 632.819 3.61277 -1.39848 0
M  V30 6730 H 633.233 3.81139 -3.60324 0
M  V30 6731 H 634.707 4.98873 -2.36282 0
M  V30 6732 H 635.184 4.3176 -0.805007 0
M  V30 6733 H 635.79 3.57524 -2.3034 0
M  V30 6734 N 634.105 1.10431 1.1244 0
M  V30 6735 C 635.353 0.845045 1.83585 0
M  V30 6736 C 635.674 -0.631168 1.84503 0
M  V30 6737 O 634.944 -1.45825 1.30813 0
M  V30 6738 H 633.524 0.309628 0.679809 0
M  V30 6739 H 636.186 1.39458 1.36153 0
M  V30 6740 H 635.282 1.20786 2.8778 0
M  V30 6741 N 635.583 -1.29855 0.893053 0
M  V30 6742 C 636.513 -2.3035 0.382249 0
M  V30 6743 C 637.494 -1.61328 -0.539203 0
M  V30 6744 O 638.679 -1.88882 -0.451342 0
M  V30 6745 C 635.809 -3.45024 -0.396983 0
M  V30 6746 C 634.763 -4.258 0.433437 0
M  V30 6747 C 634.089 -5.32605 -0.472889 0
M  V30 6748 C 635.389 -4.94549 1.67984 0
M  V30 6749 H 637.083 -2.73325 1.22205 0
M  V30 6750 H 634.629 -1.314 0.589073 0
M  V30 6751 H 636.582 -4.14398 -0.765024 0
M  V30 6752 H 635.306 -3.00875 -1.2705 0
M  V30 6753 H 633.965 -3.58125 0.783723 0
M  V30 6754 H 633.613 -4.84702 -1.34435 0
M  V30 6755 H 633.313 -5.87547 0.0789958 0
M  V30 6756 H 634.837 -6.04832 -0.837269 0
M  V30 6757 H 636.251 -5.56395 1.38192 0
M  V30 6758 H 634.648 -5.59393 2.17254 0
M  V30 6759 H 635.718 -4.20215 2.41965 0
M  V30 6760 N 637.061 -0.65484 -1.43351 0
M  V30 6761 C 638.024 0.0263562 -2.29185 0
M  V30 6762 C 639.024 0.748951 -1.42293 0
M  V30 6763 O 640.214 0.589957 -1.63906 0
M  V30 6764 C 637.346 1.04806 -3.2439 0
M  V30 6765 H 638.539 -0.728883 -2.90908 0
M  V30 6766 H 636.092 -0.416149 -1.50658 0
M  V30 6767 H 636.827 1.83247 -2.67565 0
M  V30 6768 H 636.612 0.533554 -3.88453 0
M  V30 6769 H 638.102 1.52372 -3.88809 0
M  V30 6770 N 638.539 1.52521 -0.396863 0
M  V30 6771 C 639.816 1.94112 0.240842 0
M  V30 6772 C 640.196 1.33288 1.637 0
M  V30 6773 O 639.544 0.503901 2.22875 0
M  V30 6774 C 639.754 3.48033 0.259567 0
M  V30 6775 C 641.102 4.21822 0.484866 0
M  V30 6776 O 642.126 3.54579 0.339453 0
M  V30 6777 O 640.985 5.41042 0.770412 0
M  V30 6778 H 638.079 0.812973 0.151671 0
M  V30 6779 H 640.625 1.63572 -0.451918 0
M  V30 6780 H 639.397 3.84655 -0.718078 0
M  V30 6781 H 639.02 3.84899 0.996937 0
M  V30 6782 N 640.017 0.126909 1.57088 0
M  V30 6783 C 641.294 -0.573152 1.87014 0
M  V30 6784 C 641.674 -1.84297 1.02945 0
M  V30 6785 O 641.022 -2.28232 0.110573 0
M  V30 6786 C 641.232 -0.857984 3.38289 0
M  V30 6787 C 642.58 -1.20759 4.07066 0
M  V30 6788 O 643.604 -0.947992 3.43353 0
M  V30 6789 O 642.463 -1.69516 5.19545 0
M  V30 6790 H 639.557 -0.290082 0.774456 0
M  V30 6791 H 642.103 0.162008 1.68925 0
M  V30 6792 H 640.875 0.0415286 3.91278 0
M  V30 6793 H 640.498 -1.64803 3.61837 0
M  V30 6794 N 641.495 -1.56914 -0.146875 0
M  V30 6795 C 642.742 -1.83356 -0.859467 0
M  V30 6796 C 643.07 -0.707811 -1.81164 0
M  V30 6797 O 642.325 0.303155 -1.93338 0
M  V30 6798 C 642.624 -3.16128 -1.66727 0
M  V30 6799 C 642.29 -4.42586 -0.861881 0
M  V30 6800 C 640.952 -4.76929 -0.639687 0
M  V30 6801 C 643.304 -5.20344 -0.298643 0
M  V30 6802 C 640.632 -5.86491 0.156451 0
M  V30 6803 C 642.984 -6.30742 0.484536 0
M  V30 6804 C 641.648 -6.63635 0.717306 0
M  V30 6805 H 640.918 -0.670947 -0.314501 0
M  V30 6806 H 643.565 -1.91104 -0.123108 0
M  V30 6807 H 641.87 -3.03831 -2.47374 0
M  V30 6808 H 643.567 -3.33802 -2.2221 0
M  V30 6809 H 640.157 -4.15662 -1.04513 0
M  V30 6810 H 644.341 -4.94186 -0.457585 0
M  V30 6811 H 639.597 -6.10419 0.346292 0
M  V30 6812 H 643.771 -6.90188 0.928105 0
M  V30 6813 H 641.398 -7.48367 1.33607 0
M  V30 6814 N 642.974 0.416227 -1.52004 0
M  V30 6815 C 643.906 1.52552 -1.71058 0
M  V30 6816 C 644.919 1.51693 -0.59102 0
M  V30 6817 O 646.108 1.56087 -0.865973 0
M  V30 6818 C 643.208 2.91455 -1.72937 0
M  V30 6819 C 642.381 3.16584 -3.01816 0
M  V30 6820 C 641.44 4.35322 -2.95603 0
M  V30 6821 O 640.466 4.32947 -3.6952 0
M  V30 6822 N 641.668 5.40049 -2.12903 0
M  V30 6823 H 644.433 1.36604 -2.66757 0
M  V30 6824 H 641.994 0.60544 -1.50153 0
M  V30 6825 H 643.986 3.68944 -1.66321 0
M  V30 6826 H 642.556 3.00895 -0.847418 0
M  V30 6827 H 641.776 2.27203 -3.22137 0
M  V30 6828 H 643.064 3.30213 -3.87088 0
M  V30 6829 H 642.462 5.44823 -1.52265 0
M  V30 6830 H 641.019 6.16308 -2.1215 0
M  V30 6831 N 644.452 1.42507 0.673017 0
M  V30 6832 C 645.698 1.43284 1.43519 0
M  V30 6833 C 646.031 0.049668 1.94136 0
M  V30 6834 O 645.306 -0.926369 1.71022 0
M  V30 6835 C 645.589 2.45874 2.63093 0
M  V30 6836 C 645.442 3.93388 2.18096 0
M  V30 6837 C 646.761 2.45431 3.6531 0
M  V30 6838 H 643.88 0.521752 0.520522 0
M  V30 6839 H 646.522 1.73932 0.764701 0
M  V30 6840 H 644.672 2.19869 3.20296 0
M  V30 6841 H 646.344 4.30379 1.66046 0
M  V30 6842 H 644.587 4.07169 1.49652 0
M  V30 6843 H 645.258 4.60752 3.03993 0
M  V30 6844 H 647.734 2.68561 3.17827 0
M  V30 6845 H 646.61 3.19189 4.46553 0
M  V30 6846 H 646.871 1.48092 4.16559 0
M  V30 6847 N 645.93 -0.909495 1.28709 0
M  V30 6848 C 646.86 -2.0291 1.15542 0
M  V30 6849 C 647.841 -1.7002 0.0521017 0
M  V30 6850 O 649.026 -1.92835 0.229849 0
M  V30 6851 C 646.156 -3.37458 0.820935 0
M  V30 6852 C 645.11 -3.84524 1.87949 0
M  V30 6853 C 644.436 -5.16086 1.39854 0
M  V30 6854 C 645.736 -4.05918 3.28676 0
M  V30 6855 H 647.43 -2.14183 2.09203 0
M  V30 6856 H 644.976 -1.02913 1.00722 0
M  V30 6857 H 646.929 -4.1528 0.715571 0
M  V30 6858 H 645.653 -3.26249 -0.151374 0
M  V30 6859 H 644.312 -3.08911 1.97408 0
M  V30 6860 H 643.96 -5.01284 0.41518 0
M  V30 6861 H 643.66 -5.48547 2.1064 0
M  V30 6862 H 645.184 -5.96459 1.30649 0
M  V30 6863 H 646.598 -4.74252 3.22115 0
M  V30 6864 H 644.995 -4.49717 3.97334 0
M  V30 6865 H 646.065 -3.10583 3.72379 0
M  V30 6866 N 647.408 -1.11026 -1.11852 0
M  V30 6867 C 648.355 -0.764662 -2.17765 0
M  V30 6868 C 649.325 0.261854 -1.64023 0
M  V30 6869 O 650.51 0.139748 -1.90288 0
M  V30 6870 C 647.65 -0.209317 -3.44465 0
M  V30 6871 C 646.763 -1.29187 -4.12231 0
M  V30 6872 C 645.898 -0.697523 -5.266 0
M  V30 6873 C 644.937 -1.76023 -5.86244 0
M  V30 6874 N 644.074 -1.18569 -6.92016 0
M  V30 6875 H 648.914 -1.67202 -2.46673 0
M  V30 6876 H 646.451 -0.835065 -1.21099 0
M  V30 6877 H 648.409 0.130599 -4.16996 0
M  V30 6878 H 647.039 0.661251 -3.15955 0
M  V30 6879 H 646.091 -1.74881 -3.37818 0
M  V30 6880 H 647.403 -2.09607 -4.52622 0
M  V30 6881 H 646.557 -0.307412 -6.05921 0
M  V30 6882 H 645.296 0.138044 -4.87505 0
M  V30 6883 H 644.301 -2.1597 -5.05606 0
M  V30 6884 H 645.526 -2.59875 -6.27409 0
M  V30 6885 H 643.472 -0.371695 -6.54946 0
M  V30 6886 H 643.389 -1.92666 -7.31038 0
M  V30 6887 H 644.657 -0.82233 -7.7515 0
M  V30 6888 N 648.886 1.2938 -0.899927 0
M  V30 6889 C 650.302 1.48052 -0.596059 0
M  V30 6890 C 650.502 1.82114 0.862372 0
M  V30 6891 O 649.558 1.91774 1.64253 0
M  V30 6892 C 650.871 2.59332 -1.52208 0
M  V30 6893 C 652.419 2.73208 -1.5273 0
M  V30 6894 C 652.894 3.87617 -2.43961 0
M  V30 6895 N 654.385 3.9495 -2.42009 0
M  V30 6896 C 655.12 4.82824 -3.09303 0
M  V30 6897 N 654.616 5.75387 -3.85877 0
M  V30 6898 N 656.409 4.76317 -2.98459 0
M  V30 6899 H 648.56 1.05546 -1.8432 0
M  V30 6900 H 650.823 0.524314 -0.78981 0
M  V30 6901 H 650.529 2.41029 -2.56121 0
M  V30 6902 H 650.403 3.56139 -1.24278 0
M  V30 6903 H 652.79 2.90908 -0.495614 0
M  V30 6904 H 652.871 1.76975 -1.84698 0
M  V30 6905 H 652.515 3.70672 -3.47224 0
M  V30 6906 H 652.445 4.83218 -2.09303 0
M  V30 6907 H 654.936 3.28744 -1.86375 0
M  V30 6908 H 655.249 6.39235 -4.34279 0
M  V30 6909 H 653.594 5.75272 -3.89984 0
M  V30 6910 H 656.785 4.0299 -2.38152 0
M  V30 6911 H 656.958 5.44589 -3.51179 0
M  V30 6912 N 650.364 0.662433 1.43002 0
M  V30 6913 C 651.314 -0.0460442 2.27954 0
M  V30 6914 C 652.298 -0.785753 1.40409 0
M  V30 6915 O 653.49 -0.666701 1.63964 0
M  V30 6916 C 650.619 -1.00532 3.2825 0
M  V30 6917 C 649.705 -0.263604 4.2328 0
M  V30 6918 N 650.096 0.724855 5.00579 0
M  V30 6919 C 648.394 -0.503778 4.43146 0
M  V30 6920 C 649.095 1.16594 5.69895 0
M  V30 6921 N 648.071 0.498345 5.41311 0
M  V30 6922 H 651.873 0.712314 2.85137 0
M  V30 6923 H 649.387 0.490469 1.54817 0
M  V30 6924 H 651.384 -1.52775 3.87899 0
M  V30 6925 H 650.044 -1.76364 2.72628 0
M  V30 6926 H 651.055 1.10393 5.05998 0
M  V30 6927 H 647.732 -1.24255 3.98581 0
M  V30 6928 H 649.122 1.98434 6.4193 0
M  V30 6929 N 651.842 -1.52309 0.404946 0
M  V30 6930 C 653.258 -1.59503 0.0556255 0
M  V30 6931 C 653.458 -1.41805 -1.43156 0
M  V30 6932 O 652.514 -1.2429 -2.19792 0
M  V30 6933 C 653.827 -2.95687 0.546801 0
M  V30 6934 C 655.375 -3.08909 0.504413 0
M  V30 6935 C 655.85 -4.47566 0.97203 0
M  V30 6936 N 657.341 -4.53795 0.928679 0
M  V30 6937 C 658.076 -5.59346 1.26174 0
M  V30 6938 N 657.572 -6.72469 1.66604 0
M  V30 6939 N 659.365 -5.49532 1.18198 0
M  V30 6940 H 651.516 -1.6206 1.37296 0
M  V30 6941 H 653.779 -0.762161 0.563751 0
M  V30 6942 H 653.485 -3.13905 1.58609 0
M  V30 6943 H 653.359 -3.77172 -0.0457905 0
M  V30 6944 H 655.746 -2.90378 -0.525819 0
M  V30 6945 H 655.827 -2.2934 1.13301 0
M  V30 6946 H 655.471 -4.6684 2.00057 0
M  V30 6947 H 655.401 -5.25625 0.320292 0
M  V30 6948 H 657.892 -3.72588 0.631369 0
M  V30 6949 H 658.205 -7.48993 1.9034 0
M  V30 6950 H 656.55 -6.73761 1.70504 0
M  V30 6951 H 659.741 -4.60038 0.865011 0
M  V30 6952 H 659.914 -6.31687 1.44485 0
M  V30 6953 N 653.32 -0.135238 -1.57019 0
M  V30 6954 C 654.267 0.808908 -2.1616 0
M  V30 6955 C 655.237 1.25234 -1.09113 0
M  V30 6956 O 656.422 1.32697 -1.37099 0
M  V30 6957 C 653.562 2.04729 -2.77813 0
M  V30 6958 C 652.675 1.65074 -3.99218 0
M  V30 6959 C 651.81 2.84002 -4.48906 0
M  V30 6960 C 650.849 2.40663 -5.62803 0
M  V30 6961 N 649.986 3.5256 -6.07162 0
M  V30 6962 H 654.826 0.297751 -2.96509 0
M  V30 6963 H 652.363 0.135264 -1.46477 0
M  V30 6964 H 654.321 2.7731 -3.11697 0
M  V30 6965 H 652.951 2.53275 -2.00128 0
M  V30 6966 H 652.003 0.823029 -3.7139 0
M  V30 6967 H 653.315 1.29236 -4.81767 0
M  V30 6968 H 652.469 3.64788 -4.84783 0
M  V30 6969 H 651.208 3.23076 -3.65339 0
M  V30 6970 H 650.213 1.58314 -5.26514 0
M  V30 6971 H 651.438 2.02687 -6.48147 0
M  V30 6972 H 649.384 3.91278 -5.26534 0
M  V30 6973 H 649.301 3.20699 -6.84608 0
M  V30 6974 H 650.569 4.33738 -6.47682 0
M  V30 6975 N 654.798 1.5699 0.138552 0
M  V30 6976 C 655.728 2.01933 1.17241 0
M  V30 6977 C 656.709 0.90033 1.44319 0
M  V30 6978 O 657.894 1.16872 1.55095 0
M  V30 6979 C 655.024 2.40711 2.50351 0
M  V30 6980 C 653.978 3.55874 2.37776 0
M  V30 6981 C 653.304 3.80491 3.75674 0
M  V30 6982 C 654.604 4.8826 1.85472 0
M  V30 6983 H 656.298 2.88551 0.798672 0
M  V30 6984 H 653.844 1.3882 0.382743 0
M  V30 6985 H 655.797 2.70754 3.22909 0
M  V30 6986 H 654.521 1.5104 2.89576 0
M  V30 6987 H 653.18 3.2601 1.67669 0
M  V30 6988 H 652.828 2.88057 4.12349 0
M  V30 6989 H 652.528 4.57998 3.68119 0
M  V30 6990 H 654.052 4.12967 4.49767 0
M  V30 6991 H 655.466 5.16965 2.4783 0
M  V30 6992 H 653.863 5.69631 1.88787 0
M  V30 6993 H 654.933 4.78071 0.810935 0
M  V30 6994 N 656.276 -0.40816 1.52223 0
M  V30 6995 C 657.523 -1.15502 1.66329 0
M  V30 6996 C 657.851 -1.90474 0.393701 0
M  V30 6997 O 657.106 -1.85507 -0.623356 0
M  V30 6998 C 657.405 -2.17422 2.83659 0
M  V30 6999 C 657.071 -1.5925 4.21841 0
M  V30 7000 C 655.733 -1.4311 4.59427 0
M  V30 7001 C 658.085 -1.16776 5.0795 0
M  V30 7002 C 655.413 -0.830148 5.80797 0
M  V30 7003 C 657.765 -0.580988 6.29926 0
M  V30 7004 C 656.429 -0.406729 6.6626 0
M  V30 7005 H 655.699 -0.422653 0.608642 0
M  V30 7006 H 658.346 -0.442114 1.86327 0
M  V30 7007 H 656.651 -2.94861 2.58001 0
M  V30 7008 H 658.348 -2.75084 2.9177 0
M  V30 7009 H 654.938 -1.72796 3.92224 0
M  V30 7010 H 659.122 -1.28055 4.79495 0
M  V30 7011 H 654.378 -0.68316 6.07571 0
M  V30 7012 H 658.552 -0.243488 6.95974 0
M  V30 7013 H 656.179 0.0610366 7.60175 0
M  V30 7014 N 657.755 -1.42862 -0.66545 0
M  V30 7015 C 658.983 -1.47246 -1.45349 0
M  V30 7016 C 659.398 -0.0865944 -1.88601 0
M  V30 7017 O 658.755 0.900652 -1.58728 0
M  V30 7018 C 658.806 -2.40772 -2.6965 0
M  V30 7019 O 658.527 -3.73968 -2.2821 0
M  V30 7020 C 660.028 -2.54272 -3.63126 0
M  V30 7021 H 657.248 -0.500497 -0.446927 0
M  V30 7022 H 659.792 -1.87477 -0.816871 0
M  V30 7023 H 657.947 -2.0377 -3.29479 0
M  V30 7024 H 658.361 -4.24146 -3.08546 0
M  V30 7025 H 659.835 -3.23815 -4.47043 0
M  V30 7026 H 660.312 -1.58364 -4.09656 0
M  V30 7027 H 660.918 -2.92036 -3.09185 0
M  V30 7028 N 659.233 0.902656 -1.29189 0
M  V30 7029 C 660.48 1.65287 -1.16989 0
M  V30 7030 C 660.808 1.92485 0.279232 0
M  V30 7031 O 660.063 1.53143 1.21843 0
M  V30 7032 C 660.362 3.011 -1.92545 0
M  V30 7033 C 660.028 2.93521 -3.42281 0
M  V30 7034 C 658.69 2.91161 -3.83117 0
M  V30 7035 C 661.042 2.82947 -4.3771 0
M  V30 7036 C 658.37 2.76043 -5.17704 0
M  V30 7037 C 660.722 2.69368 -5.72384 0
M  V30 7038 C 659.386 2.65373 -6.12482 0
M  V30 7039 H 658.656 0.604828 -0.428094 0
M  V30 7040 H 661.303 1.05084 -1.60092 0
M  V30 7041 H 659.608 3.65153 -1.42024 0
M  V30 7042 H 661.305 3.58073 -1.80512 0
M  V30 7043 H 657.895 2.96158 -3.09819 0
M  V30 7044 H 662.079 2.83849 -4.07116 0
M  V30 7045 H 657.335 2.71352 -5.47885 0
M  V30 7046 H 661.509 2.60156 -6.45981 0
M  V30 7047 H 659.136 2.53415 -7.16718 0
M  V30 7048 N 660.711 1.11618 1.11262 0
M  V30 7049 C 661.959 0.864469 1.82678 0
M  V30 7050 C 662.28 -0.611564 1.85162 0
M  V30 7051 O 661.55 -1.44429 1.32352 0
M  V30 7052 H 660.13 0.316821 0.676486 0
M  V30 7053 H 662.792 1.40894 1.34666 0
M  V30 7054 H 661.888 1.23832 2.86482 0
M  V30 7055 N 662.189 -1.289 0.906776 0
M  V30 7056 C 663.435 -1.95558 0.53712 0
M  V30 7057 C 663.768 -1.71262 -0.915582 0
M  V30 7058 O 663.043 -1.02961 -1.65013 0
M  V30 7059 C 663.326 -3.50198 0.838645 0
M  V30 7060 C 663.179 -3.83923 2.34357 0
M  V30 7061 C 664.498 -4.38861 0.329988 0
M  V30 7062 H 661.617 -0.710289 0.196617 0
M  V30 7063 H 664.259 -1.52392 1.13475 0
M  V30 7064 H 662.409 -3.87096 0.330024 0
M  V30 7065 H 664.081 -3.56933 2.92227 0
M  V30 7066 H 662.324 -3.31215 2.80141 0
M  V30 7067 H 662.995 -4.91883 2.5051 0
M  V30 7068 H 665.471 -4.08996 0.765609 0
M  V30 7069 H 664.347 -5.45931 0.570105 0
M  V30 7070 H 664.608 -4.35352 -0.769511 0
M  V30 7071 N 663.667 -0.670007 -1.42649 0
M  V30 7072 C 664.895 -0.19854 -2.05945 0
M  V30 7073 C 665.31 1.14243 -1.50313 0
M  V30 7074 O 664.667 1.70872 -0.641027 0
M  V30 7075 C 664.718 -0.11966 -3.61302 0
M  V30 7076 O 664.439 -1.40764 -4.1487 0
M  V30 7077 C 665.94 0.375878 -4.41704 0
M  V30 7078 H 663.16 -0.0976894 -0.663851 0
M  V30 7079 H 665.704 -0.915392 -1.82868 0
M  V30 7080 H 663.859 0.547851 -3.83507 0
M  V30 7081 H 664.273 -1.27784 -5.08696 0
M  V30 7082 H 665.747 0.379988 -5.50691 0
M  V30 7083 H 666.224 1.41028 -4.15942 0
M  V30 7084 H 666.83 -0.259727 -4.24506 0
M  V30 7085 N 665.145 1.52092 -0.413018 0
M  V30 7086 C 666.392 2.01855 0.161497 0
M  V30 7087 C 666.72 1.29845 1.44812 0
M  V30 7088 O 665.975 0.394471 1.91683 0
M  V30 7089 C 666.274 3.54529 0.4521 0
M  V30 7090 C 665.94 4.4469 -0.745788 0
M  V30 7091 C 664.602 4.69053 -1.07435 0
M  V30 7092 C 666.954 4.97742 -1.54604 0
M  V30 7093 C 664.282 5.43717 -2.20429 0
M  V30 7094 C 666.634 5.73642 -2.66678 0
M  V30 7095 C 665.298 5.96277 -3.00016 0
M  V30 7096 H 664.568 0.73864 0.0590961 0
M  V30 7097 H 667.215 1.83274 -0.555234 0
M  V30 7098 H 665.52 3.7131 1.25045 0
M  V30 7099 H 667.217 3.90546 0.909647 0
M  V30 7100 H 663.807 4.25907 -0.479725 0
M  V30 7101 H 667.991 4.78824 -1.30543 0
M  V30 7102 H 663.247 5.59462 -2.46602 0
M  V30 7103 H 667.421 6.13746 -3.29072 0
M  V30 7104 H 665.048 6.53913 -3.87688 0
M  V30 7105 N 666.623 0.143563 1.56945 0
M  V30 7106 C 667.848 -0.518701 2.00809 0
M  V30 7107 C 668.273 -1.5785 1.02298 0
M  V30 7108 O 667.631 -1.813 -0.0017839 0
M  V30 7109 C 667.679 -1.09929 3.43436 0
M  V30 7110 O 666.783 -2.21425 3.47915 0
M  V30 7111 H 666.124 -0.127215 0.6517 0
M  V30 7112 H 668.654 0.239283 2.03196 0
M  V30 7113 H 668.664 -1.4288 3.82164 0
M  V30 7114 H 667.339 -0.323162 4.14643 0
M  V30 7115 H 665.916 -1.89728 3.21026 0
M  V30 7116 N 668.101 -1.57061 -0.130224 0
M  V30 7117 C 669.329 -1.88432 -0.854456 0
M  V30 7118 C 669.744 -0.733608 -1.73964 0
M  V30 7119 O 669.101 0.296029 -1.80083 0
M  V30 7120 C 669.152 -3.1918 -1.69724 0
M  V30 7121 O 668.873 -4.2982 -0.847705 0
M  V30 7122 C 670.374 -3.6418 -2.5276 0
M  V30 7123 H 667.594 -0.624193 -0.246221 0
M  V30 7124 H 670.138 -2.04159 -0.11798 0
M  V30 7125 H 668.293 -3.05156 -2.3866 0
M  V30 7126 H 668.707 -5.04689 -1.42792 0
M  V30 7127 H 670.181 -4.58457 -3.07443 0
M  V30 7128 H 670.658 -2.90285 -3.29592 0
M  V30 7129 H 671.264 -3.80954 -1.89087 0
M  V30 7130 N 669.579 0.400081 -1.52437 0
M  V30 7131 C 670.826 1.14619 -1.6694 0
M  V30 7132 C 671.154 1.90262 -0.403797 0
M  V30 7133 O 670.409 1.85835 0.61351 0
M  V30 7134 C 670.708 2.15914 -2.84808 0
M  V30 7135 C 670.374 1.57011 -4.2268 0
M  V30 7136 C 669.036 1.40672 -4.60179 0
M  V30 7137 C 671.388 1.14081 -5.08562 0
M  V30 7138 C 668.716 0.799335 -5.81229 0
M  V30 7139 C 671.068 0.547573 -6.30226 0
M  V30 7140 C 669.732 0.371389 -6.66466 0
M  V30 7141 H 669.002 0.419419 -0.610875 0
M  V30 7142 H 671.649 0.432227 -1.86558 0
M  V30 7143 H 669.954 2.93488 -2.59561 0
M  V30 7144 H 671.651 2.73533 -2.93225 0
M  V30 7145 H 668.241 1.70713 -3.93135 0
M  V30 7146 H 672.425 1.2551 -4.80168 0
M  V30 7147 H 667.681 0.65093 -6.07925 0
M  V30 7148 H 671.855 0.206575 -6.96094 0
M  V30 7149 H 669.482 -0.10135 -7.60132 0
M  V30 7150 N 671.057 1.43213 0.657864 0
M  V30 7151 C 671.987 1.50815 1.78262 0
M  V30 7152 C 672.968 0.363211 1.66177 0
M  V30 7153 O 674.153 0.579806 1.85343 0
M  V30 7154 C 671.283 1.42625 3.16663 0
M  V30 7155 C 670.237 2.5532 3.43505 0
M  V30 7156 C 669.563 2.32184 4.81658 0
M  V30 7157 C 670.863 3.97583 3.38711 0
M  V30 7158 H 672.557 2.44954 1.72157 0
M  V30 7159 H 670.103 1.17896 0.82683 0
M  V30 7160 H 672.056 1.46548 3.95097 0
M  V30 7161 H 670.78 0.449877 3.23487 0
M  V30 7162 H 669.439 2.50742 2.6744 0
M  V30 7163 H 669.087 1.32801 4.85153 0
M  V30 7164 H 668.787 3.07724 5.00579 0
M  V30 7165 H 670.311 2.37883 5.62356 0
M  V30 7166 H 671.725 4.03673 4.07089 0
M  V30 7167 H 670.122 4.73112 3.69168 0
M  V30 7168 H 671.192 4.23049 2.36976 0
M  V30 7169 N 672.536 -0.895792 1.29666 0
M  V30 7170 C 673.466 -2.01673 1.17688 0
M  V30 7171 C 674.447 -1.69955 0.0701317 0
M  V30 7172 O 675.632 -1.9258 0.250289 0
M  V30 7173 C 672.762 -3.36568 0.856681 0
M  V30 7174 C 671.716 -3.82509 1.92017 0
M  V30 7175 C 671.042 -5.14574 1.4532 0
M  V30 7176 C 672.342 -4.02409 3.32963 0
M  V30 7177 H 674.036 -2.11953 2.11463 0
M  V30 7178 H 671.582 -1.01839 1.01807 0
M  V30 7179 H 673.535 -4.14498 0.759577 0
M  V30 7180 H 672.259 -3.26391 -0.116763 0
M  V30 7181 H 670.918 -3.068 2.00673 0
M  V30 7182 H 670.566 -5.00815 0.468325 0
M  V30 7183 H 670.266 -5.46283 2.16447 0
M  V30 7184 H 671.79 -5.9504 1.36968 0
M  V30 7185 H 673.204 -4.70808 3.27127 0
M  V30 7186 H 671.601 -4.45478 4.02082 0
M  V30 7187 H 672.671 -3.06616 3.75652 0
M  V30 7188 N 674.014 -1.12206 -1.10668 0
M  V30 7189 C 674.977 -0.790867 -2.15123 0
M  V30 7190 C 675.977 0.193618 -1.5963 0
M  V30 7191 O 677.167 -0.0318728 -1.74171 0
M  V30 7192 C 674.299 -0.174797 -3.40452 0
M  V30 7193 H 675.492 -1.7163 -2.45933 0
M  V30 7194 H 673.045 -0.924993 -1.2599 0
M  V30 7195 H 673.78 0.760478 -3.15257 0
M  V30 7196 H 673.565 -0.88358 -3.82015 0
M  V30 7197 H 675.055 0.0405162 -4.1758 0
M  V30 7198 N 675.492 1.28418 -0.913599 0
M  V30 7199 C 676.422 2.29713 -0.418847 0
M  V30 7200 C 677.403 1.62165 0.513469 0
M  V30 7201 O 678.588 1.89576 0.421235 0
M  V30 7202 C 675.718 3.45612 0.342042 0
M  V30 7203 C 674.672 4.25056 -0.501123 0
M  V30 7204 C 673.998 5.3329 0.388097 0
M  V30 7205 C 675.298 4.91814 -1.75831 0
M  V30 7206 H 676.992 2.71346 -1.26538 0
M  V30 7207 H 674.538 1.30446 -0.609903 0
M  V30 7208 H 676.491 4.15562 0.699 0
M  V30 7209 H 675.215 3.02858 1.22248 0
M  V30 7210 H 673.874 3.56833 -0.840598 0
M  V30 7211 H 673.522 4.8678 1.26707 0
M  V30 7212 H 673.222 5.87347 -0.172459 0
M  V30 7213 H 674.746 6.06088 0.74094 0
M  V30 7214 H 676.16 5.54126 -1.47026 0
M  V30 7215 H 674.557 5.55866 -2.26126 0
M  V30 7216 H 675.627 4.16313 -2.4862 0
M  V30 7217 N 676.97 0.677563 1.42291 0
M  V30 7218 C 678.217 0.200975 2.015 0
M  V30 7219 C 678.545 -1.19342 1.53583 0
M  V30 7220 O 677.8 -1.81579 0.7299 0
M  V30 7221 C 678.099 0.187229 3.56909 0
M  V30 7222 C 677.765 1.52667 4.24268 0
M  V30 7223 C 676.427 1.89341 4.42384 0
M  V30 7224 C 678.779 2.40869 4.62203 0
M  V30 7225 C 676.107 3.13836 4.95705 0
M  V30 7226 C 678.459 3.64679 5.16906 0
M  V30 7227 C 677.123 4.01519 5.33234 0
M  V30 7228 H 676.393 0.0735418 0.737342 0
M  V30 7229 H 679.04 0.873095 1.70439 0
M  V30 7230 H 677.345 -0.568407 3.87655 0
M  V30 7231 H 679.042 -0.198773 4.00507 0
M  V30 7232 H 675.632 1.23138 4.1053 0
M  V30 7233 H 679.816 2.1382 4.47878 0
M  V30 7234 H 675.072 3.42396 5.06532 0
M  V30 7235 H 679.246 4.33224 5.45243 0
M  V30 7236 H 676.873 4.98062 5.74316 0
M  V30 7237 N 678.448 -1.51871 0.421078 0
M  V30 7238 C 679.688 -2.03848 -0.150167 0
M  V30 7239 C 680.052 -1.29925 -1.41363 0
M  V30 7240 O 681.253 -1.7219 -2.06408 0
M  V30 7241 C 679.524 -3.55374 -0.38003 0
M  V30 7242 S 681.083 -4.29111 -0.917011 0
M  V30 7243 H 677.901 -0.709904 -0.0394639 0
M  V30 7244 H 680.503 -1.86799 0.576746 0
M  V30 7245 H 679.207 -4.0675 0.546122 0
M  V30 7246 H 678.738 -3.76687 -1.13448 0
M  V30 7247 H 680.753 -4.44944 -2.19635 0
M  V30 7248 N 679.926 -0.151884 -1.56866 0
M  V30 7249 C 681.175 0.497992 -1.95456 0
M  V30 7250 C 681.488 1.6569 -1.03953 0
M  V30 7251 O 682.694 2.37173 -1.32142 0
M  V30 7252 C 681.15 0.93732 -3.4748 0
M  V30 7253 C 680.758 -0.194921 -4.47576 0
M  V30 7254 C 682.502 1.55671 -3.94926 0
M  V30 7255 C 680.409 0.26295 -5.90815 0
M  V30 7256 H 679.339 0.189811 -0.729717 0
M  V30 7257 H 681.99 -0.237011 -1.81963 0
M  V30 7258 H 680.372 1.72773 -3.56322 0
M  V30 7259 H 681.546 -0.971951 -4.50433 0
M  V30 7260 H 679.861 -0.72303 -4.10075 0
M  V30 7261 H 682.458 1.91099 -4.99385 0
M  V30 7262 H 682.801 2.44748 -3.36755 0
M  V30 7263 H 683.334 0.831109 -3.89021 0
M  V30 7264 H 680.073 -0.592568 -6.52816 0
M  V30 7265 H 679.593 1.00575 -5.91308 0
M  V30 7266 H 681.272 0.713333 -6.43056 0
M  V30 7267 N 681.404 1.57128 0.121893 0
M  V30 7268 C 682.632 1.88883 0.844451 0
M  V30 7269 C 683.047 0.742824 1.73573 0
M  V30 7270 O 682.404 -0.286475 1.80238 0
M  V30 7271 C 682.455 3.20076 1.68029 0
M  V30 7272 O 682.176 4.30264 0.824898 0
M  V30 7273 C 683.677 3.65515 2.50826 0
M  V30 7274 H 680.897 0.62549 0.242907 0
M  V30 7275 H 683.441 2.04219 0.107151 0
M  V30 7276 H 681.596 3.06418 2.37038 0
M  V30 7277 H 682.01 5.05439 1.40113 0
M  V30 7278 H 683.484 4.60081 3.05008 0
M  V30 7279 H 683.961 2.92029 3.28048 0
M  V30 7280 H 684.567 3.81952 1.87064 0
M  V30 7281 N 682.882 -0.391992 1.52647 0
M  V30 7282 C 683.829 -1.47866 1.77213 0
M  V30 7283 C 684.799 -1.54286 0.615223 0
M  V30 7284 O 685.984 -1.7059 0.854622 0
M  V30 7285 C 683.124 -2.85129 1.94411 0
M  V30 7286 C 682.237 -2.87883 3.22098 0
M  V30 7287 C 681.372 -4.16553 3.29631 0
M  V30 7288 C 680.411 -4.13348 4.51453 0
M  V30 7289 N 679.548 -5.33619 4.56284 0
M  V30 7290 H 684.388 -1.26219 2.6995 0
M  V30 7291 H 681.925 -0.612367 1.33748 0
M  V30 7292 H 683.883 -3.64833 2.02367 0
M  V30 7293 H 682.513 -3.05232 1.05038 0
M  V30 7294 H 681.565 -2.00567 3.23229 0
M  V30 7295 H 682.877 -2.81382 4.11856 0
M  V30 7296 H 682.031 -5.0466 3.36753 0
M  V30 7297 H 680.77 -4.25773 2.37842 0
M  V30 7298 H 679.775 -3.23629 4.44459 0
M  V30 7299 H 681 -4.05754 5.44555 0
M  V30 7300 H 678.946 -5.43474 3.67385 0
M  V30 7301 H 678.863 -5.29182 5.3991 0
M  V30 7302 H 680.131 -6.23632 4.67657 0
M  V30 7303 N 684.36 -1.4356 -0.65026 0
M  V30 7304 C 685.608 -1.45046 -1.40734 0
M  V30 7305 C 685.929 -0.0769822 -1.94848 0
M  V30 7306 O 685.199 0.888098 -1.74613 0
M  V30 7307 H 683.779 -0.534034 -0.522318 0
M  V30 7308 H 686.441 -1.79186 -0.766703 0
M  V30 7309 H 685.537 -2.16476 -2.24822 0
M  V30 7310 N 685.838 0.888903 -1.30139 0
M  V30 7311 C 687.086 1.63713 -1.18501 0
M  V30 7312 C 687.407 1.9324 0.261399 0
M  V30 7313 O 686.677 1.56608 1.17689 0
M  V30 7314 H 685.257 0.606861 -0.435579 0
M  V30 7315 H 687.919 1.06525 -1.63213 0
M  V30 7316 H 687.015 2.58894 -1.743 0
M  V30 7317 N 687.317 1.12792 1.10072 0
M  V30 7318 C 688.566 0.880232 1.81479 0
M  V30 7319 C 688.879 -0.595575 1.86312 0
M  V30 7320 O 690.085 -0.959979 2.53962 0
M  V30 7321 C 688.541 1.52514 3.25987 0
M  V30 7322 C 688.149 3.036 3.29441 0
M  V30 7323 C 689.893 1.35788 4.02196 0
M  V30 7324 C 687.8 3.61007 4.68431 0
M  V30 7325 H 686.73 0.325654 0.680048 0
M  V30 7326 H 689.381 1.35485 1.23758 0
M  V30 7327 H 687.763 0.978188 3.83728 0
M  V30 7328 H 688.937 3.64819 2.81502 0
M  V30 7329 H 687.252 3.19765 2.66719 0
M  V30 7330 H 689.849 1.76096 5.0487 0
M  V30 7331 H 690.192 0.301972 4.15203 0
M  V30 7332 H 690.725 1.87426 3.50879 0
M  V30 7333 H 687.464 4.66375 4.60625 0
M  V30 7334 H 686.984 3.04564 5.16721 0
M  V30 7335 H 688.663 3.60289 5.37402 0
M  V30 7336 N 688.795 -1.27931 0.920396 0
M  V30 7337 C 690.025 -1.98516 0.572256 0
M  V30 7338 C 690.433 -1.68912 -0.852375 0
M  V30 7339 O 689.776 -0.94203 -1.57707 0
M  V30 7340 C 689.838 -3.5243 0.709485 0
M  V30 7341 C 689.502 -4.0564 2.10489 0
M  V30 7342 C 690.499 -4.1897 3.07831 0
M  V30 7343 C 688.184 -4.40168 2.41986 0
M  V30 7344 C 690.178 -4.66093 4.34783 0
M  V30 7345 C 687.865 -4.86983 3.69176 0
M  V30 7346 C 688.863 -4.99903 4.65388 0
M  V30 7347 O 688.551 -5.45694 5.90316 0
M  V30 7348 H 688.283 -0.64047 0.216274 0
M  V30 7349 H 690.837 -1.6393 1.23758 0
M  V30 7350 H 689.067 -3.86698 -0.0129263 0
M  V30 7351 H 690.756 -4.04233 0.367474 0
M  V30 7352 H 691.522 -3.92562 2.84816 0
M  V30 7353 H 687.401 -4.29358 1.67846 0
M  V30 7354 H 690.945 -4.76092 5.09884 0
M  V30 7355 H 686.842 -5.12832 3.92012 0
M  V30 7356 H 687.61 -5.63965 5.932 0
M  V30 7357 N 690.273 -0.685099 -1.4193 0
M  V30 7358 C 691.519 -0.211971 -2.01689 0
M  V30 7359 C 691.852 1.18189 -1.54094 0
M  V30 7360 O 691.127 1.79559 -0.747572 0
M  V30 7361 C 691.41 -0.258019 -3.59174 0
M  V30 7362 C 691.263 -1.68807 -4.16922 0
M  V30 7363 C 692.582 0.388044 -4.38386 0
M  V30 7364 H 689.701 -0.0784987 -0.732808 0
M  V30 7365 H 692.343 -0.871837 -1.68816 0
M  V30 7366 H 690.493 0.303832 -3.8731 0
M  V30 7367 H 692.165 -2.30296 -3.99702 0
M  V30 7368 H 690.408 -2.22553 -3.72361 0
M  V30 7369 H 691.079 -1.6719 -5.26072 0
M  V30 7370 H 693.555 -0.0903432 -4.16002 0
M  V30 7371 H 692.431 0.325232 -5.47936 0
M  V30 7372 H 692.692 1.4672 -4.17044 0
M  V30 7373 N 691.751 1.51645 -0.429126 0
M  V30 7374 C 692.681 2.30434 0.377148 0
M  V30 7375 C 693.662 1.35493 1.02838 0
M  V30 7376 O 694.847 1.6441 1.03359 0
M  V30 7377 C 691.977 3.14038 1.48315 0
M  V30 7378 C 690.931 4.1719 0.955855 0
M  V30 7379 C 690.257 4.89263 2.15698 0
M  V30 7380 C 691.557 5.223 -0.00402136 0
M  V30 7381 H 693.251 2.98085 -0.280336 0
M  V30 7382 H 690.797 1.43354 -0.136265 0
M  V30 7383 H 692.75 3.67933 2.05435 0
M  V30 7384 H 691.474 2.44193 2.16881 0
M  V30 7385 H 690.133 3.64335 0.406929 0
M  V30 7386 H 689.781 4.15929 2.82864 0
M  V30 7387 H 689.481 5.59009 1.81059 0
M  V30 7388 H 691.005 5.45978 2.73387 0
M  V30 7389 H 692.419 5.71315 0.476607 0
M  V30 7390 H 690.816 5.99525 -0.26258 0
M  V30 7391 H 691.886 4.75638 -0.943236 0
M  V30 7392 N 693.229 0.160201 1.56784 0
M  V30 7393 C 694.457 -0.494165 2.00912 0
M  V30 7394 C 694.872 -1.57548 1.04038 0
M  V30 7395 O 694.229 -1.82457 0.0394581 0
M  V30 7396 C 694.28 -1.08271 3.44905 0
M  V30 7397 O 694.001 -0.0445704 4.38077 0
M  V30 7398 C 695.502 -1.8164 4.04378 0
M  V30 7399 H 692.722 -0.127498 0.658776 0
M  V30 7400 H 695.266 0.258665 2.02858 0
M  V30 7401 H 693.421 -1.78609 3.4377 0
M  V30 7402 H 693.835 -0.477544 5.22322 0
M  V30 7403 H 695.309 -2.18094 5.07089 0
M  V30 7404 H 695.786 -2.70727 3.45838 0
M  V30 7405 H 696.392 -1.15969 4.09184 0
M  V30 7406 N 694.707 -1.5719 -0.113559 0
M  V30 7407 C 695.637 -2.03772 -1.14013 0
M  V30 7408 C 696.618 -0.923176 -1.42869 0
M  V30 7409 O 697.803 -1.19325 -1.53216 0
M  V30 7410 C 694.933 -2.44663 -2.4649 0
M  V30 7411 C 693.887 -3.59612 -2.32085 0
M  V30 7412 C 693.213 -3.8642 -3.69573 0
M  V30 7413 C 694.513 -4.91149 -1.7768 0
M  V30 7414 H 696.207 -2.89785 -0.752665 0
M  V30 7415 H 693.753 -1.39412 -0.360609 0
M  V30 7416 H 695.706 -2.75857 -3.18561 0
M  V30 7417 H 694.43 -1.55628 -2.87137 0
M  V30 7418 H 693.089 -3.28636 -1.62461 0
M  V30 7419 H 692.737 -2.94581 -4.07715 0
M  V30 7420 H 692.437 -4.63797 -3.60786 0
M  V30 7421 H 693.961 -4.2007 -4.4314 0
M  V30 7422 H 695.375 -5.20843 -2.39574 0
M  V30 7423 H 693.772 -5.72562 -1.79701 0
M  V30 7424 H 694.842 -4.79301 -0.734776 0
M  V30 7425 N 696.185 0.383891 -1.52853 0
M  V30 7426 C 697.115 1.47559 -1.80965 0
M  V30 7427 C 698.096 1.5669 -0.661986 0
M  V30 7428 O 699.281 1.71556 -0.910072 0
M  V30 7429 C 696.411 2.85114 -1.98312 0
M  V30 7430 C 695.365 2.9082 -3.14019 0
M  V30 7431 C 694.691 4.30873 -3.16627 0
M  V30 7432 C 695.991 2.60001 -4.52986 0
M  V30 7433 H 697.685 1.24283 -2.72386 0
M  V30 7434 H 695.231 0.596445 -1.31067 0
M  V30 7435 H 697.184 3.61496 -2.16561 0
M  V30 7436 H 695.908 3.09738 -1.03585 0
M  V30 7437 H 694.567 2.16886 -2.9556 0
M  V30 7438 H 694.215 4.52545 -2.19573 0
M  V30 7439 H 693.915 4.3561 -3.94357 0
M  V30 7440 H 695.439 5.09154 -3.37038 0
M  V30 7441 H 696.853 3.261 -4.71521 0
M  V30 7442 H 695.25 2.76081 -5.32822 0
M  V30 7443 H 696.32 1.5532 -4.59351 0
M  V30 7444 N 697.663 1.43903 0.642637 0
M  V30 7445 C 698.94 1.36556 1.40043 0
M  V30 7446 C 699.32 0.0185588 2.11092 0
M  V30 7447 O 698.668 -0.998438 2.05532 0
M  V30 7448 C 698.878 2.55596 2.37638 0
M  V30 7449 C 700.226 2.99153 3.01318 0
M  V30 7450 O 701.25 2.55719 2.47965 0
M  V30 7451 O 700.109 3.74427 3.98078 0
M  V30 7452 H 697.203 0.540189 0.626198 0
M  V30 7453 H 699.749 1.55971 0.668657 0
M  V30 7454 H 698.521 3.45256 1.84158 0
M  V30 7455 H 698.144 2.38334 3.18249 0
M  V30 7456 N 699.141 -0.881989 1.30609 0
M  V30 7457 C 700.369 -1.66711 1.22536 0
M  V30 7458 C 700.784 -1.87614 -0.2113 0
M  V30 7459 O 700.141 -1.42576 -1.13923 0
M  V30 7460 C 700.192 -3.04182 1.95335 0
M  V30 7461 O 699.913 -2.8422 3.33393 0
M  V30 7462 C 701.414 -3.98617 1.93956 0
M  V30 7463 H 698.634 -0.520124 0.423925 0
M  V30 7464 H 701.178 -1.10174 1.72285 0
M  V30 7465 H 699.333 -3.57442 1.49378 0
M  V30 7466 H 699.747 -3.71452 3.70302 0
M  V30 7467 H 701.221 -4.92433 2.49426 0
M  V30 7468 H 701.698 -4.29473 0.919198 0
M  V30 7469 H 702.304 -3.51292 2.39738 0
M  V30 7470 N 700.619 -1.13374 -1.09472 0
M  V30 7471 C 701.866 -0.89519 -1.81639 0
M  V30 7472 C 702.194 0.57868 -1.85692 0
M  V30 7473 O 701.449 1.44426 -1.32059 0
M  V30 7474 C 701.748 -1.42759 -3.2765 0
M  V30 7475 C 701.414 -2.91822 -3.43731 0
M  V30 7476 C 700.076 -3.32521 -3.47827 0
M  V30 7477 C 702.428 -3.87727 -3.48307 0
M  V30 7478 C 699.756 -4.6781 -3.54078 0
M  V30 7479 C 702.108 -5.22859 -3.56091 0
M  V30 7480 C 700.772 -5.63086 -3.58456 0
M  V30 7481 H 700.042 -0.327573 -0.664663 0
M  V30 7482 H 702.689 -1.4156 -1.28969 0
M  V30 7483 H 700.994 -0.827871 -3.82954 0
M  V30 7484 H 702.691 -1.2191 -3.8202 0
M  V30 7485 H 699.281 -2.5935 -3.41226 0
M  V30 7486 H 703.465 -3.57371 -3.44383 0
M  V30 7487 H 698.721 -4.98353 -3.54195 0
M  V30 7488 H 702.895 -5.96989 -3.58577 0
M  V30 7489 H 700.522 -6.67905 -3.63052 0
M  V30 7490 N 702.098 1.27442 -0.927168 0
M  V30 7491 C 703.061 2.2512 -0.430525 0
M  V30 7492 C 704.061 1.54357 0.450619 0
M  V30 7493 O 705.251 1.72371 0.251774 0
M  V30 7494 C 702.383 3.38763 0.381144 0
M  V30 7495 H 703.576 2.70569 -1.29354 0
M  V30 7496 H 701.129 1.39355 -0.707806 0
M  V30 7497 H 701.864 2.98695 1.263 0
M  V30 7498 H 701.649 3.91298 -0.250618 0
M  V30 7499 H 703.139 4.11364 0.719012 0
M  V30 7500 N 703.576 0.692616 1.41565 0
M  V30 7501 C 704.539 0.0344174 2.29174 0
M  V30 7502 C 705.539 -0.710961 1.44229 0
M  V30 7503 O 706.729 -0.546293 1.65412 0
M  V30 7504 C 703.861 -0.961682 3.27054 0
M  V30 7505 H 705.054 0.805755 2.88873 0
M  V30 7506 H 702.607 0.455947 1.49502 0
M  V30 7507 H 703.342 -1.76089 2.72329 0
M  V30 7508 H 703.127 -0.430375 3.89731 0
M  V30 7509 H 704.617 -1.4201 3.92712 0
M  V30 7510 N 705.054 -1.51416 0.437162 0
M  V30 7511 C 706.302 -2.01687 -0.129108 0
M  V30 7512 C 706.623 -1.32329 -1.43227 0
M  V30 7513 O 705.893 -0.457796 -1.90476 0
M  V30 7514 H 704.473 -0.745277 -0.0507023 0
M  V30 7515 H 707.135 -1.86075 0.579828 0
M  V30 7516 H 706.231 -3.10605 -0.305141 0
M  V30 7517 N 706.532 -0.168513 -1.56696 0
M  V30 7518 C 707.76 0.483503 -2.01171 0
M  V30 7519 C 708.175 1.56994 -1.04872 0
M  V30 7520 O 707.532 1.82434 -0.0491337 0
M  V30 7521 C 707.583 1.0644 -3.45475 0
M  V30 7522 O 707.304 0.0213375 -4.38095 0
M  V30 7523 C 708.805 1.79493 -4.05336 0
M  V30 7524 H 706.025 0.124002 -0.659443 0
M  V30 7525 H 708.569 -0.269419 -2.02717 0
M  V30 7526 H 706.724 1.76784 -3.44712 0
M  V30 7527 H 707.138 0.449837 -5.22567 0
M  V30 7528 H 708.612 2.15401 -5.08238 0
M  V30 7529 H 709.089 2.68889 -3.47269 0
M  V30 7530 H 709.695 1.13798 -4.09793 0
M  V30 7531 N 708.01 1.57248 0.105221 0
M  V30 7532 C 709.235 1.90143 0.828264 0
M  V30 7533 C 709.66 0.761811 1.71983 0
M  V30 7534 O 709.018 -0.287086 1.79013 0
M  V30 7535 C 709.066 3.21856 1.62608 0
M  V30 7536 O 708.17 3.08732 2.7342 0
M  V30 7537 H 707.511 0.623558 0.228192 0
M  V30 7538 H 710.041 2.0443 0.0834826 0
M  V30 7539 H 710.051 3.54916 2.01243 0
M  V30 7540 H 708.726 4.0439 0.971687 0
M  V30 7541 H 707.303 2.87167 2.37886 0
M  V30 7542 N 709.488 -0.375779 1.53054 0
M  V30 7543 C 710.737 -1.11674 1.67964 0
M  V30 7544 C 711.05 -1.90755 0.432655 0
M  V30 7545 O 712.256 -2.67538 0.462109 0
M  V30 7546 C 710.712 -2.0344 2.96884 0
M  V30 7547 C 710.32 -1.29719 4.28809 0
M  V30 7548 C 712.064 -2.7759 3.2116 0
M  V30 7549 C 709.971 -2.20327 5.48826 0
M  V30 7550 H 708.901 -0.420597 0.625791 0
M  V30 7551 H 711.552 -0.378499 1.79554 0
M  V30 7552 H 709.934 -2.80953 2.79072 0
M  V30 7553 H 711.108 -0.573394 4.57219 0
M  V30 7554 H 709.423 -0.674735 4.10897 0
M  V30 7555 H 712.02 -3.4559 4.0801 0
M  V30 7556 H 712.363 -3.42399 2.36789 0
M  V30 7557 H 712.896 -2.07164 3.396 0
M  V30 7558 H 709.635 -1.60113 6.35645 0
M  V30 7559 H 709.155 -2.90585 5.2471 0
M  V30 7560 H 710.834 -2.80116 5.83219 0
M  V30 7561 N 710.966 -1.44241 -0.634997 0
M  V30 7562 C 711.896 -1.53632 -1.7584 0
M  V30 7563 C 712.877 -0.389603 -1.65578 0
M  V30 7564 O 714.062 -0.609219 -1.84397 0
M  V30 7565 C 711.192 -1.47644 -3.14354 0
M  V30 7566 C 710.146 -2.60752 -3.394 0
M  V30 7567 C 709.472 -2.39817 -4.77904 0
M  V30 7568 C 710.772 -4.02921 -3.32343 0
M  V30 7569 H 712.466 -2.47662 -1.68238 0
M  V30 7570 H 710.012 -1.19197 -0.807969 0
M  V30 7571 H 711.965 -1.52815 -3.92716 0
M  V30 7572 H 710.689 -0.501284 -3.2273 0
M  V30 7573 H 709.348 -2.54965 -2.63417 0
M  V30 7574 H 708.996 -1.40502 -4.82978 0
M  V30 7575 H 708.696 -3.15649 -4.9562 0
M  V30 7576 H 710.22 -2.46799 -5.585 0
M  V30 7577 H 711.634 -4.10098 -4.00615 0
M  V30 7578 H 710.031 -4.78925 -3.61595 0
M  V30 7579 H 711.101 -4.26766 -2.30215 0
M  V30 7580 N 712.444 0.87505 -1.31075 0
M  V30 7581 C 713.691 1.62768 -1.20469 0
M  V30 7582 C 714.019 1.93034 0.23834 0
M  V30 7583 O 713.274 1.55693 1.18567 0
M  V30 7584 C 713.573 2.96948 -1.98888 0
M  V30 7585 C 713.239 2.86195 -3.4843 0
M  V30 7586 C 711.901 2.82969 -3.89207 0
M  V30 7587 C 714.253 2.73599 -4.43614 0
M  V30 7588 C 711.581 2.64999 -5.23443 0
M  V30 7589 C 713.933 2.57166 -5.77969 0
M  V30 7590 C 712.597 2.52321 -6.17973 0
M  V30 7591 H 711.867 0.595611 -0.440827 0
M  V30 7592 H 714.514 1.01665 -1.62285 0
M  V30 7593 H 712.819 3.62058 -1.49737 0
M  V30 7594 H 714.516 3.54164 -1.88067 0
M  V30 7595 H 711.106 2.8952 -3.16032 0
M  V30 7596 H 715.29 2.7515 -4.13045 0
M  V30 7597 H 710.546 2.5967 -5.53517 0
M  V30 7598 H 714.72 2.46396 -6.51354 0
M  V30 7599 H 712.347 2.38156 -7.21932 0
M  V30 7600 N 713.922 1.13953 1.08869 0
M  V30 7601 C 714.885 0.824991 2.13838 0
M  V30 7602 C 715.885 -0.168198 1.59918 0
M  V30 7603 O 717.075 0.0595778 1.74098 0
M  V30 7604 C 714.207 0.228938 3.4013 0
M  V30 7605 H 715.4 1.75521 2.43171 0
M  V30 7606 H 712.953 0.94492 1.24503 0
M  V30 7607 H 713.688 -0.710227 3.16427 0
M  V30 7608 H 713.473 0.944243 3.80561 0
M  V30 7609 H 714.963 0.0259223 4.17592 0
M  V30 7610 N 715.4 -1.26948 0.933913 0
M  V30 7611 C 716.646 -1.94374 0.57848 0
M  V30 7612 C 716.979 -1.73166 -0.879048 0
M  V30 7613 O 716.254 -1.06438 -1.62792 0
M  V30 7614 C 716.537 -3.4834 0.912739 0
M  V30 7615 C 716.39 -3.78866 2.42448 0
M  V30 7616 C 717.709 -4.38062 0.423003 0
M  V30 7617 H 714.828 -0.705959 0.211639 0
M  V30 7618 H 717.47 -1.49951 1.16682 0
M  V30 7619 H 715.62 -3.86309 0.412058 0
M  V30 7620 H 717.292 -3.50654 2.99733 0
M  V30 7621 H 715.535 -3.25198 2.87104 0
M  V30 7622 H 716.206 -4.86458 2.60887 0
M  V30 7623 H 718.682 -4.0728 0.852191 0
M  V30 7624 H 717.558 -5.44599 0.685776 0
M  V30 7625 H 717.819 -4.36886 -0.676994 0
M  V30 7626 N 716.879 -0.700114 -1.41195 0
M  V30 7627 C 717.809 -0.0521132 -2.33442 0
M  V30 7628 C 718.79 0.76228 -1.52063 0
M  V30 7629 O 719.975 0.714336 -1.80585 0
M  V30 7630 C 717.105 0.881693 -3.35922 0
M  V30 7631 C 716.059 0.174062 -4.27646 0
M  V30 7632 C 715.385 1.22254 -5.20536 0
M  V30 7633 C 716.685 -0.962396 -5.13357 0
M  V30 7634 H 718.379 -0.822574 -2.87879 0
M  V30 7635 H 715.925 -0.397011 -1.38419 0
M  V30 7636 H 717.878 1.34429 -3.99383 0
M  V30 7637 H 716.602 1.68387 -2.79845 0
M  V30 7638 H 715.261 -0.268551 -3.65615 0
M  V30 7639 H 714.909 2.01736 -4.60773 0
M  V30 7640 H 714.609 0.754038 -5.82742 0
M  V30 7641 H 716.133 1.68555 -5.86874 0
M  V30 7642 H 717.547 -0.579875 -5.7036 0
M  V30 7643 H 715.944 -1.35828 -5.84526 0
M  V30 7644 H 717.014 -1.80003 -4.50252 0
M  V30 7645 N 718.357 1.51182 -0.445186 0
M  V30 7646 C 719.29 2.24528 0.4077 0
M  V30 7647 C 720.268 1.26778 1.01814 0
M  V30 7648 O 721.452 1.55934 1.05909 0
M  V30 7649 C 718.579 3.00171 1.56892 0
M  V30 7650 C 717.625 4.12641 1.0784 0
M  V30 7651 S 718.458 5.35498 0.014049 0
M  V30 7652 C 719.614 6.14681 1.17975 0
M  V30 7653 H 719.847 2.96522 -0.214987 0
M  V30 7654 H 717.38 1.52681 -0.229781 0
M  V30 7655 H 719.338 3.44349 2.23459 0
M  V30 7656 H 717.999 2.27752 2.16304 0
M  V30 7657 H 717.192 4.64875 1.94698 0
M  V30 7658 H 716.794 3.70765 0.490852 0
M  V30 7659 H 719.086 6.44244 2.09658 0
M  V30 7660 H 720.029 7.04659 0.697222 0
M  V30 7661 H 720.437 5.46299 1.42187 0
M  V30 7662 N 719.835 0.176821 1.56605 0
M  V30 7663 C 720.745 -0.763682 2.21822 0
M  V30 7664 C 721.761 -1.24889 1.21156 0
M  V30 7665 O 722.937 -1.29987 1.53836 0
M  V30 7666 C 720.002 -1.97352 2.8505 0
M  V30 7667 C 719.063 -1.53466 4.00932 0
M  V30 7668 C 718.296 -2.68682 4.61135 0
M  V30 7669 O 718.519 -3.85694 4.20234 0
M  V30 7670 O 717.453 -2.42442 5.50913 0
M  V30 7671 H 721.279 -0.238363 3.02763 0
M  V30 7672 H 718.864 -0.0516331 1.49311 0
M  V30 7673 H 720.746 -2.68096 3.25119 0
M  V30 7674 H 719.421 -2.48779 2.07101 0
M  V30 7675 H 718.328 -0.796551 3.65521 0
M  V30 7676 H 719.661 -1.06724 4.8049 0
M  V30 7677 N 721.313 -1.57302 -0.09688 0
M  V30 7678 C 722.276 -2.00976 -1.10188 0
M  V30 7679 C 723.276 -0.903009 -1.3305 0
M  V30 7680 O 724.466 -1.16853 -1.29194 0
M  V30 7681 C 721.598 -2.36893 -2.45142 0
M  V30 7682 H 722.791 -2.9098 -0.726003 0
M  V30 7683 H 720.344 -1.52515 -0.341872 0
M  V30 7684 H 721.079 -1.49837 -2.8761 0
M  V30 7685 H 720.864 -3.17632 -2.29897 0
M  V30 7686 H 722.354 -2.71345 -3.1743 0
M  V30 7687 N 722.791 0.367657 -1.53252 0
M  V30 7688 C 724.04 1.10782 -1.68554 0
M  V30 7689 C 724.353 1.90523 -0.442765 0
M  V30 7690 O 725.559 2.6729 -0.47629 0
M  V30 7691 C 724.015 2.01863 -2.97959 0
M  V30 7692 C 723.623 1.27443 -4.29491 0
M  V30 7693 C 725.367 2.75883 -3.22628 0
M  V30 7694 C 723.274 2.17414 -5.49987 0
M  V30 7695 H 722.204 0.417272 -0.628013 0
M  V30 7696 H 724.855 0.368971 -1.79752 0
M  V30 7697 H 723.237 2.7947 -2.80558 0
M  V30 7698 H 724.411 0.549138 -4.57516 0
M  V30 7699 H 722.726 0.652935 -4.11249 0
M  V30 7700 H 725.323 3.43421 -4.09837 0
M  V30 7701 H 725.666 3.41138 -2.38601 0
M  V30 7702 H 726.199 2.0536 -3.40693 0
M  V30 7703 H 722.938 1.5674 -6.36485 0
M  V30 7704 H 722.458 2.87799 -5.26243 0
M  V30 7705 H 724.137 2.77019 -5.84696 0
M  V30 7706 N 724.269 1.44576 0.627338 0
M  V30 7707 C 725.517 1.47267 1.38408 0
M  V30 7708 C 725.838 0.107971 1.94701 0
M  V30 7709 O 725.108 -0.860206 1.76004 0
M  V30 7710 H 723.688 0.542276 0.513756 0
M  V30 7711 H 726.35 1.80383 0.738099 0
M  V30 7712 H 725.446 2.20025 2.21349 0
M  V30 7713 N 725.747 -0.868086 1.31537 0
M  V30 7714 C 726.993 -1.62367 1.2151 0
M  V30 7715 C 727.326 -1.92883 -0.225819 0
M  V30 7716 O 726.601 -1.56176 -1.15927 0
M  V30 7717 C 726.884 -2.95268 2.06129 0
M  V30 7718 C 726.737 -2.71619 3.58529 0
M  V30 7719 C 728.056 -3.96391 1.91212 0
M  V30 7720 H 725.175 -0.589178 0.442762 0
M  V30 7721 H 727.817 -1.00336 1.61347 0
M  V30 7722 H 725.967 -3.4821 1.72284 0
M  V30 7723 H 727.639 -2.25334 4.0252 0
M  V30 7724 H 725.882 -2.05817 3.81866 0
M  V30 7725 H 726.553 -3.66192 4.13047 0
M  V30 7726 H 729.029 -3.52663 2.20834 0
M  V30 7727 H 727.905 -4.87263 2.52718 0
M  V30 7728 H 728.166 -4.33335 0.875953 0
M  V30 7729 N 727.225 -1.14528 -1.08264 0
M  V30 7730 C 728.45 -0.938381 -1.84957 0
M  V30 7731 C 728.875 0.508044 -1.81109 0
M  V30 7732 O 728.233 1.36146 -1.19724 0
M  V30 7733 C 728.281 -1.44568 -3.30352 0
M  V30 7734 O 727.385 -0.638745 -4.07423 0
M  V30 7735 H 726.726 -0.335394 -0.573068 0
M  V30 7736 H 729.256 -1.52287 -1.36637 0
M  V30 7737 H 729.266 -1.45449 -3.81194 0
M  V30 7738 H 727.941 -2.49876 -3.32468 0
M  V30 7739 H 726.518 -0.698801 -3.66294 0
M  V30 7740 N 728.703 1.26451 -0.940633 0
M  V30 7741 C 729.949 1.94401 -0.598303 0
M  V30 7742 C 730.304 1.72449 0.853178 0
M  V30 7743 O 729.597 1.0506 1.60228 0
M  V30 7744 C 729.791 3.46503 -0.875794 0
M  V30 7745 C 729.62 3.83247 -2.3527 0
M  V30 7746 C 728.39 4.06032 -3.00776 0
M  V30 7747 C 730.588 3.91841 -3.33114 0
M  V30 7748 N 728.57 4.29656 -4.38485 0
M  V30 7749 C 729.941 4.19991 -4.56078 0
M  V30 7750 C 731.996 3.74466 -3.28146 0
M  V30 7751 C 730.699 4.32574 -5.74693 0
M  V30 7752 C 732.725 3.88281 -4.46085 0
M  V30 7753 C 732.087 4.16829 -5.67831 0
M  V30 7754 H 728.186 0.734168 -0.269297 0
M  V30 7755 H 730.77 1.52541 -1.20992 0
M  V30 7756 H 728.941 3.87292 -0.293223 0
M  V30 7757 H 730.673 4.01664 -0.494788 0
M  V30 7758 H 727.428 4.01369 -2.51396 0
M  V30 7759 H 727.852 4.45501 -5.09762 0
M  V30 7760 H 732.494 3.51424 -2.35077 0
M  V30 7761 H 730.212 4.54438 -6.68215 0
M  V30 7762 H 733.798 3.76241 -4.43773 0
M  V30 7763 H 732.678 4.27284 -6.5757 0
M  V30 7764 N 730.181 0.707592 1.40822 0
M  V30 7765 C 731.428 0.243671 2.01029 0
M  V30 7766 C 731.756 -1.16057 1.5608 0
M  V30 7767 O 731.011 -1.7999 0.768251 0
M  V30 7768 C 731.31 0.262892 3.56432 0
M  V30 7769 C 730.976 1.61632 4.20935 0
M  V30 7770 C 729.638 1.98682 4.38268 0
M  V30 7771 C 731.99 2.50619 4.5699 0
M  V30 7772 C 729.318 3.2428 4.88937 0
M  V30 7773 C 731.67 3.75562 5.09054 0
M  V30 7774 C 730.334 4.12739 5.24598 0
M  V30 7775 H 729.604 0.0891654 0.735616 0
M  V30 7776 H 732.251 0.909051 1.68548 0
M  V30 7777 H 730.556 -0.486052 3.88773 0
M  V30 7778 H 732.253 -0.113775 4.00839 0
M  V30 7779 H 728.843 1.31818 4.07826 0
M  V30 7780 H 733.027 2.23272 4.43242 0
M  V30 7781 H 728.283 3.53064 4.99155 0
M  V30 7782 H 732.457 4.44692 5.35931 0
M  V30 7783 H 730.084 5.10132 5.63622 0
M  V30 7784 N 731.66 -1.50943 0.453197 0
M  V30 7785 C 732.89 -2.06328 -0.105981 0
M  V30 7786 C 733.298 -1.31909 -1.35634 0
M  V30 7787 O 732.641 -0.376607 -1.79798 0
M  V30 7788 C 732.703 -3.5631 -0.477868 0
M  V30 7789 C 732.367 -4.52093 0.667925 0
M  V30 7790 C 733.364 -4.96421 1.54475 0
M  V30 7791 C 731.049 -4.95001 0.853168 0
M  V30 7792 C 733.043 -5.82346 2.59138 0
M  V30 7793 C 730.73 -5.80713 1.90305 0
M  V30 7794 C 731.728 -6.24284 2.77053 0
M  V30 7795 O 731.416 -7.08291 3.80236 0
M  V30 7796 H 731.148 -0.675986 -0.00427247 0
M  V30 7797 H 733.702 -1.95314 0.635738 0
M  V30 7798 H 731.932 -3.65163 -1.27252 0
M  V30 7799 H 733.621 -3.94138 -0.970039 0
M  V30 7800 H 734.387 -4.63953 1.41324 0
M  V30 7801 H 730.266 -4.60619 0.187482 0
M  V30 7802 H 733.81 -6.16276 3.2688 0
M  V30 7803 H 729.707 -6.12593 2.03469 0
M  V30 7804 H 730.475 -7.26504 3.77007 0
M  V30 7805 N 733.138 -0.185124 -1.56509 0
M  V30 7806 C 734.386 0.455357 -1.96903 0
M  V30 7807 C 734.707 1.62839 -1.07277 0
M  V30 7808 O 733.977 1.95385 -0.141966 0
M  V30 7809 H 732.557 0.171218 -0.727113 0
M  V30 7810 H 735.219 -0.26953 -1.93027 0
M  V30 7811 H 734.315 0.80616 -3.01509 0
M  V30 7812 N 734.616 1.57351 0.0885366 0
M  V30 7813 C 735.862 1.86696 0.791996 0
M  V30 7814 C 736.195 0.775148 1.78059 0
M  V30 7815 O 735.47 -0.216247 1.93294 0
M  V30 7816 C 735.753 3.26684 1.51491 0
M  V30 7817 C 735.606 4.465 0.543858 0
M  V30 7818 C 736.925 3.64664 2.46391 0
M  V30 7819 H 734.044 0.679049 0.286463 0
M  V30 7820 H 736.686 1.89919 0.0554866 0
M  V30 7821 H 734.836 3.24067 2.14273 0
M  V30 7822 H 736.508 4.61235 -0.0774597 0
M  V30 7823 H 734.751 4.33567 -0.142228 0
M  V30 7824 H 735.422 5.41192 1.08696 0
M  V30 7825 H 737.898 3.68267 1.93698 0
M  V30 7826 H 736.774 4.63534 2.93986 0
M  V30 7827 H 737.035 2.93698 3.30445 0
M  V30 7828 N 736.094 -0.359525 1.53444 0
M  V30 7829 C 737.371 -1.11756 1.6053 0
M  V30 7830 C 737.751 -2.06949 0.416587 0
M  V30 7831 O 737.099 -2.20681 -0.592628 0
M  V30 7832 C 737.309 -1.85133 2.95849 0
M  V30 7833 C 738.657 -2.3945 3.50641 0
M  V30 7834 O 739.681 -1.95251 2.97918 0
M  V30 7835 O 738.54 -3.20266 4.42823 0
M  V30 7836 H 735.634 -0.513005 0.648656 0
M  V30 7837 H 738.18 -0.362301 1.65787 0
M  V30 7838 H 736.952 -1.15694 3.73806 0
M  V30 7839 H 736.575 -2.67554 2.9411 0
M  V30 7840 N 737.572 -1.44907 -0.619662 0
M  V30 7841 C 738.988 -1.29046 -0.939107 0
M  V30 7842 C 739.188 -0.23462 -2.00129 0
M  V30 7843 O 738.244 0.37558 -2.49691 0
M  V30 7844 C 739.557 -2.66567 -1.39149 0
M  V30 7845 C 741.105 -2.74368 -1.50635 0
M  V30 7846 C 741.58 -4.12386 -1.99253 0
M  V30 7847 N 743.071 -4.1462 -2.06506 0
M  V30 7848 C 743.806 -5.18272 -2.4532 0
M  V30 7849 N 743.302 -6.32278 -2.83189 0
M  V30 7850 N 745.095 -5.05628 -2.45554 0
M  V30 7851 H 737.246 -2.12239 0.0826135 0
M  V30 7852 H 739.509 -0.947652 -0.0256829 0
M  V30 7853 H 739.215 -3.4496 -0.685254 0
M  V30 7854 H 739.089 -2.94224 -2.36034 0
M  V30 7855 H 741.476 -1.96287 -2.20353 0
M  V30 7856 H 741.557 -2.50439 -0.520963 0
M  V30 7857 H 741.201 -4.90947 -1.30127 0
M  V30 7858 H 741.131 -4.33699 -2.98684 0
M  V30 7859 H 743.622 -3.32343 -1.79878 0
M  V30 7860 H 743.935 -7.07172 -3.11652 0
M  V30 7861 H 742.28 -6.35699 -2.80913 0
M  V30 7862 H 745.471 -4.15613 -2.15367 0
M  V30 7863 H 745.644 -5.86529 -2.75478 0
M  V30 7864 N 739.05 0.861098 -1.31996 0
M  V30 7865 C 740.297 1.61481 -1.22188 0
M  V30 7866 C 740.625 1.93276 0.217853 0
M  V30 7867 O 739.88 1.56942 1.16909 0
M  V30 7868 C 740.179 2.94822 -2.02027 0
M  V30 7869 C 739.845 2.82483 -3.51446 0
M  V30 7870 C 738.507 2.78825 -3.92186 0
M  V30 7871 C 740.859 2.68878 -4.46491 0
M  V30 7872 C 738.187 2.59433 -5.26224 0
M  V30 7873 C 740.539 2.51022 -5.80664 0
M  V30 7874 C 739.203 2.45753 -6.20614 0
M  V30 7875 H 738.473 0.590902 -0.447119 0
M  V30 7876 H 741.12 0.999376 -1.63355 0
M  V30 7877 H 739.425 3.6045 -1.53569 0
M  V30 7878 H 741.122 3.52149 -1.91812 0
M  V30 7879 H 737.712 2.86152 -3.19085 0
M  V30 7880 H 741.896 2.70754 -4.1594 0
M  V30 7881 H 737.152 2.53784 -5.5624 0
M  V30 7882 H 741.326 2.39473 -6.53931 0
M  V30 7883 H 738.953 2.30485 -7.24417 0
M  V30 7884 N 740.528 1.15101 1.07655 0
M  V30 7885 C 741.753 0.948177 1.84457 0
M  V30 7886 C 742.178 -0.498432 1.81376 0
M  V30 7887 O 741.536 -1.35509 1.20445 0
M  V30 7888 C 741.584 1.46318 3.29581 0
M  V30 7889 O 740.688 0.660342 4.07079 0
M  V30 7890 H 740.029 0.338428 0.571281 0
M  V30 7891 H 742.559 1.5301 1.35828 0
M  V30 7892 H 742.569 1.47468 3.80417 0
M  V30 7893 H 741.244 2.51635 3.31138 0
M  V30 7894 H 739.821 0.718216 3.65918 0
M  V30 7895 N 742.006 -1.2595 0.947325 0
M  V30 7896 C 742.954 -2.28152 0.452687 0
M  V30 7897 C 743.948 -1.62655 -0.473239 0
M  V30 7898 O 745.154 -1.76549 -0.350774 0
M  V30 7899 H 741.529 -0.741049 0.12787 0
M  V30 7900 H 743.5 -2.67267 1.32707 0
M  V30 7901 C 742.249 -3.46719 -0.26098 0
M  V30 7902 H 741.572 -3.97345 0.442352 0
M  V30 7903 H 743.012 -4.20135 -0.571208 0
M  V30 7904 C 741.471 -3.02605 -1.48094 0
M  V30 7905 O 742.001 -3.07979 -2.57899 0
M  V30 7906 N 740.207 -2.57877 -1.33969 0
M  V30 7907 H 739.754 -2.53704 -0.446295 0
M  V30 7908 H 739.712 -2.28725 -2.15713 0
M  V30 7909 N 743.484 -0.715051 -1.40445 0
M  V30 7910 C 744.761 -0.181503 -1.94756 0
M  V30 7911 C 745.141 1.31268 -1.65324 0
M  V30 7912 O 744.489 2.0686 -0.970631 0
M  V30 7913 C 744.699 -0.493663 -3.45491 0
M  V30 7914 C 746.047 -0.432032 -4.22396 0
M  V30 7915 O 747.071 -0.429692 -3.53599 0
M  V30 7916 O 745.93 -0.409091 -5.44967 0
M  V30 7917 H 743.024 -0.0263989 -0.826579 0
M  V30 7918 H 745.57 -0.792546 -1.50056 0
M  V30 7919 H 744.342 -1.52713 -3.6027 0
M  V30 7920 H 743.965 0.14737 -3.97327 0
M  V30 7921 N 744.962 1.50701 -0.461195 0
M  V30 7922 C 746.211 2.01458 0.0988277 0
M  V30 7923 C 746.524 1.34863 1.41673 0
M  V30 7924 O 747.73 1.76721 2.06111 0
M  V30 7925 C 746.186 3.59186 0.226648 0
M  V30 7926 C 745.794 4.34732 -1.08223 0
M  V30 7927 C 747.538 4.18015 0.73916 0
M  V30 7928 C 745.445 5.8422 -0.918747 0
M  V30 7929 H 744.375 0.7529 0.040709 0
M  V30 7930 H 747.026 1.736 -0.594589 0
M  V30 7931 H 745.408 3.83589 0.983621 0
M  V30 7932 H 746.582 4.22059 -1.84939 0
M  V30 7933 H 744.897 3.87466 -1.52509 0
M  V30 7934 H 747.494 5.27436 0.878347 0
M  V30 7935 H 747.837 3.78746 1.72793 0
M  V30 7936 H 748.37 3.9778 0.0398469 0
M  V30 7937 H 745.109 6.27944 -1.88059 0
M  V30 7938 H 744.629 5.99493 -0.191801 0
M  V30 7939 H 746.308 6.44382 -0.581405 0
M  V30 7940 N 746.441 0.193421 1.56409 0
M  V30 7941 C 747.373 -0.759944 2.16235 0
M  V30 7942 C 748.386 -1.17797 1.12373 0
M  V30 7943 O 749.575 -1.11399 1.39472 0
M  V30 7944 C 746.675 -2.03735 2.70823 0
M  V30 7945 C 745.848 -1.77939 3.9957 0
M  V30 7946 C 744.907 -2.90111 4.39001 0
M  V30 7947 O 743.933 -2.59791 5.06456 0
M  V30 7948 N 745.135 -4.18426 4.02368 0
M  V30 7949 H 747.9 -0.248348 2.98669 0
M  V30 7950 H 745.461 0.0113966 1.61896 0
M  V30 7951 H 747.453 -2.77914 2.94187 0
M  V30 7952 H 746.023 -2.46022 1.92852 0
M  V30 7953 H 745.243 -0.875491 3.84355 0
M  V30 7954 H 746.531 -1.58099 4.83614 0
M  V30 7955 H 745.929 -4.45913 3.48106 0
M  V30 7956 H 744.486 -4.89237 4.30686 0
M  V30 7957 N 747.919 -1.57396 -0.0801906 0
M  V30 7958 C 748.851 -1.9982 -1.12271 0
M  V30 7959 C 749.864 -0.902902 -1.35468 0
M  V30 7960 O 751.053 -1.18088 -1.33856 0
M  V30 7961 C 748.153 -2.31476 -2.47532 0
M  V30 7962 C 747.326 -3.62745 -2.44407 0
M  V30 7963 C 746.385 -3.82168 -3.6171 0
M  V30 7964 O 745.411 -4.53852 -3.43522 0
M  V30 7965 N 746.613 -3.2388 -4.81749 0
M  V30 7966 H 749.378 -2.89864 -0.761501 0
M  V30 7967 H 746.939 -1.5965 -0.268965 0
M  V30 7968 H 748.931 -2.4165 -3.24634 0
M  V30 7969 H 747.501 -1.47364 -2.75686 0
M  V30 7970 H 746.721 -3.63403 -1.52747 0
M  V30 7971 H 748.009 -4.48954 -2.39412 0
M  V30 7972 H 747.407 -2.6568 -4.9943 0
M  V30 7973 H 745.964 -3.39515 -5.56392 0
M  V30 7974 N 749.397 0.351382 -1.53633 0
M  V30 7975 C 750.33 1.45407 -1.75875 0
M  V30 7976 C 751.308 1.50822 -0.607566 0
M  V30 7977 O 752.492 1.68658 -0.841818 0
M  V30 7978 C 749.619 2.8369 -1.85034 0
M  V30 7979 C 748.665 2.95935 -3.07123 0
M  V30 7980 S 749.498 2.63215 -4.66345 0
M  V30 7981 C 750.654 4.03622 -4.78373 0
M  V30 7982 H 750.887 1.26322 -2.69128 0
M  V30 7983 H 748.42 0.546581 -1.44402 0
M  V30 7984 H 750.378 3.6336 -1.90996 0
M  V30 7985 H 749.039 3.00076 -0.928074 0
M  V30 7986 H 748.232 3.97243 -3.10183 0
M  V30 7987 H 747.834 2.24205 -2.99346 0
M  V30 7988 H 750.126 4.98046 -4.593 0
M  V30 7989 H 751.069 4.05559 -5.80454 0
M  V30 7990 H 751.477 3.91282 -4.06889 0
M  V30 7991 N 750.875 1.45233 0.611969 0
M  V30 7992 C 751.808 1.48056 1.73651 0
M  V30 7993 C 752.786 0.337373 1.59061 0
M  V30 7994 O 753.97 0.537222 1.80683 0
M  V30 7995 C 751.097 1.33144 3.11433 0
M  V30 7996 C 750.143 2.51272 3.44623 0
M  V30 7997 S 750.976 4.13754 3.39953 0
M  V30 7998 C 752.132 4.013 4.80322 0
M  V30 7999 H 752.365 2.43205 1.70993 0
M  V30 8000 H 749.898 1.32763 0.788246 0
M  V30 8001 H 751.856 1.25228 3.90932 0
M  V30 8002 H 750.517 0.394734 3.1161 0
M  V30 8003 H 749.71 2.36753 4.44932 0
M  V30 8004 H 749.312 2.56027 2.72629 0
M  V30 8005 H 751.604 3.66174 5.7002 0
M  V30 8006 H 752.547 5.01506 4.99897 0
M  V30 8007 H 752.955 3.3303 4.55797 0
M  V30 8008 N 752.353 -0.854086 1.3245 0
M  V30 8009 C 753.601 -1.60513 1.228 0
M  V30 8010 C 753.922 -1.93865 -0.210073 0
M  V30 8011 O 753.192 -1.59673 -1.13496 0
M  V30 8012 H 751.772 -0.595099 0.451516 0
M  V30 8013 H 754.434 -1.0216 1.6598 0
M  V30 8014 H 753.53 -2.54182 1.81102 0
M  V30 8015 N 753.831 -1.1567 -1.07043 0
M  V30 8016 C 755.078 -0.933517 -1.79699 0
M  V30 8017 C 755.406 0.539162 -1.86878 0
M  V30 8018 O 754.661 1.41592 -1.35093 0
M  V30 8019 C 754.96 -1.49677 -3.24548 0
M  V30 8020 C 754.626 -2.99047 -3.37463 0
M  V30 8021 C 753.288 -3.39824 -3.40695 0
M  V30 8022 C 755.64 -3.95027 -3.40004 0
M  V30 8023 C 752.968 -4.75215 -3.44075 0
M  V30 8024 C 755.32 -5.30295 -3.44921 0
M  V30 8025 C 753.984 -5.70562 -3.46432 0
M  V30 8026 H 753.254 -0.341598 -0.657565 0
M  V30 8027 H 755.901 -1.44263 -1.25938 0
M  V30 8028 H 754.206 -0.908915 -3.81111 0
M  V30 8029 H 755.903 -1.29986 -3.79348 0
M  V30 8030 H 752.493 -2.6653 -3.35648 0
M  V30 8031 H 756.677 -3.64596 -3.36725 0
M  V30 8032 H 751.933 -5.05754 -3.43545 0
M  V30 8033 H 756.107 -6.0446 -3.45833 0
M  V30 8034 H 753.734 -6.75456 -3.48803 0
M  V30 8035 N 755.309 1.25446 -0.953992 0
M  V30 8036 C 756.725 1.4539 -0.658316 0
M  V30 8037 C 756.925 1.85607 0.784356 0
M  V30 8038 O 755.981 1.98568 1.55972 0
M  V30 8039 C 757.294 2.52643 -1.6307 0
M  V30 8040 C 758.842 2.66484 -1.64181 0
M  V30 8041 C 759.317 3.76921 -2.60182 0
M  V30 8042 N 760.808 3.84331 -2.58542 0
M  V30 8043 C 761.543 4.69271 -3.29503 0
M  V30 8044 N 761.039 5.58503 -4.09934 0
M  V30 8045 N 762.832 4.6323 -3.18393 0
M  V30 8046 H 754.983 0.976337 -1.8863 0
M  V30 8047 H 757.246 0.490343 -0.811337 0
M  V30 8048 H 756.952 2.29949 -2.66114 0
M  V30 8049 H 756.826 3.50547 -1.39271 0
M  V30 8050 H 759.213 2.88545 -0.618552 0
M  V30 8051 H 759.294 1.68982 -1.92038 0
M  V30 8052 H 758.938 3.55612 -3.62633 0
M  V30 8053 H 758.868 4.73906 -2.29609 0
M  V30 8054 H 761.359 3.20544 -2.0015 0
M  V30 8055 H 761.672 6.20241 -4.61 0
M  V30 8056 H 760.017 5.58214 -4.14032 0
M  V30 8057 H 763.208 3.92527 -2.5503 0
M  V30 8058 H 763.381 5.29204 -3.73961 0
M  V30 8059 N 756.787 0.722489 1.40064 0
M  V30 8060 C 758.198 0.336507 1.83642 0
M  V30 8061 C 758.549 -1.13002 1.6039 0
M  V30 8062 O 757.674 -1.87036 1.08842 0
M  V30 8063 C 758.269 0.603985 3.33373 0
M  V30 8064 C 756.828 0.271637 3.75419 0
M  V30 8065 C 755.975 0.872898 2.63203 0
M  V30 8066 H 758.926 0.921108 1.29233 0
M  V30 8067 H 758.947 -0.128471 3.80283 0
M  V30 8068 H 758.459 1.67141 3.50265 0
M  V30 8069 H 756.56 -0.790455 3.64119 0
M  V30 8070 H 756.673 0.745457 4.73265 0
M  V30 8071 H 755.037 0.300431 2.52922 0
M  V30 8072 H 755.82 1.94473 2.82905 0
M  V30 8073 N 758.265 -1.50454 0.469181 0
M  V30 8074 C 759.513 -2.01916 -0.0862982 0
M  V30 8075 C 759.834 -1.35337 -1.40388 0
M  V30 8076 O 759.104 -0.498096 -1.89462 0
M  V30 8077 H 757.684 -0.746185 -0.0348825 0
M  V30 8078 H 760.346 -1.84804 0.619167 0
M  V30 8079 H 759.442 -3.11182 -0.239189 0
M  V30 8080 N 759.743 -0.201713 -1.56304 0
M  V30 8081 C 760.673 0.71155 -2.22394 0
M  V30 8082 C 761.654 1.21625 -1.18917 0
M  V30 8083 O 762.839 1.26388 -1.47444 0
M  V30 8084 C 759.969 1.92837 -2.88845 0
M  V30 8085 C 758.923 1.55831 -3.98623 0
M  V30 8086 C 758.249 2.85228 -4.52271 0
M  V30 8087 C 759.549 0.763249 -5.16693 0
M  V30 8088 H 761.243 0.160573 -2.98969 0
M  V30 8089 H 758.789 0.0757916 -1.438 0
M  V30 8090 H 760.742 2.57253 -3.33764 0
M  V30 8091 H 759.466 2.50398 -2.09686 0
M  V30 8092 H 758.125 0.9377 -3.54405 0
M  V30 8093 H 757.773 3.40893 -3.69866 0
M  V30 8094 H 757.473 2.6121 -5.26349 0
M  V30 8095 H 758.997 3.50622 -4.99897 0
M  V30 8096 H 760.411 1.31066 -5.58117 0
M  V30 8097 H 758.808 0.620935 -5.96879 0
M  V30 8098 H 759.878 -0.234322 -4.84334 0
M  V30 8099 N 761.222 1.57436 0.0718424 0
M  V30 8100 C 762.452 1.91196 0.782795 0
M  V30 8101 C 762.86 0.795927 1.71644 0
M  V30 8102 O 762.203 -0.239604 1.82131 0
M  V30 8103 C 762.265 3.20421 1.63005 0
M  V30 8104 C 761.929 4.48724 0.865782 0
M  V30 8105 C 762.926 5.19571 0.185051 0
M  V30 8106 C 760.611 4.95345 0.832971 0
M  V30 8107 C 762.605 6.3529 -0.518264 0
M  V30 8108 C 760.292 6.1097 0.125884 0
M  V30 8109 C 761.29 6.80794 -0.548533 0
M  V30 8110 O 760.978 7.94213 -1.24423 0
M  V30 8111 H 760.71 0.636486 0.227731 0
M  V30 8112 H 763.264 2.05348 0.0464187 0
M  V30 8113 H 761.494 3.02478 2.40923 0
M  V30 8114 H 763.183 3.39831 2.21968 0
M  V30 8115 H 763.949 4.8458 0.201707 0
M  V30 8116 H 759.828 4.40871 1.34737 0
M  V30 8117 H 763.372 6.89725 -1.04523 0
M  V30 8118 H 759.269 6.45411 0.107155 0
M  V30 8119 H 760.037 8.10331 -1.1535 0
M  V30 8120 N 762.7 -0.34323 1.53817 0
M  V30 8121 C 763.946 -1.08137 1.72273 0
M  V30 8122 C 764.301 -1.86311 0.480201 0
M  V30 8123 O 763.594 -1.84204 -0.527192 0
M  V30 8124 C 763.788 -2.05195 2.92626 0
M  V30 8125 C 763.617 -1.36561 4.28464 0
M  V30 8126 C 762.387 -1.11033 4.9295 0
M  V30 8127 C 764.585 -0.791663 5.0817 0
M  V30 8128 N 762.567 -0.389839 6.12661 0
M  V30 8129 C 763.938 -0.201742 6.19672 0
M  V30 8130 C 765.993 -0.692541 4.9306 0
M  V30 8131 C 764.696 0.477661 7.17712 0
M  V30 8132 C 766.722 -0.0268775 5.91394 0
M  V30 8133 C 766.084 0.552072 7.02233 0
M  V30 8134 H 762.183 -0.380078 0.683421 0
M  V30 8135 H 764.767 -0.364925 1.9125 0
M  V30 8136 H 762.938 -2.74131 2.75149 0
M  V30 8137 H 764.67 -2.7185 2.99799 0
M  V30 8138 H 761.425 -1.39752 4.52511 0
M  V30 8139 H 761.849 -0.0443076 6.76986 0
M  V30 8140 H 766.491 -1.12589 4.07534 0
M  V30 8141 H 764.209 0.922895 8.02813 0
M  V30 8142 H 767.795 0.0491921 5.81779 0
M  V30 8143 H 766.675 1.05899 7.77017 0
M  V30 8144 N 764.178 -1.45556 -0.604258 0
M  V30 8145 C 765.594 -1.30035 -0.925368 0
M  V30 8146 C 765.794 -0.255833 -1.99869 0
M  V30 8147 O 764.85 0.349076 -2.50075 0
M  V30 8148 C 766.163 -2.68028 -1.36314 0
M  V30 8149 C 767.711 -2.75951 -1.47717 0
M  V30 8150 C 768.186 -4.14476 -1.94868 0
M  V30 8151 N 769.677 -4.16787 -2.02097 0
M  V30 8152 C 770.412 -5.20845 -2.39809 0
M  V30 8153 N 769.908 -6.35246 -2.76467 0
M  V30 8154 N 771.701 -5.08204 -2.40177 0
M  V30 8155 H 763.852 -2.1214 0.10512 0
M  V30 8156 H 766.115 -0.947871 -0.0156303 0
M  V30 8157 H 765.821 -3.45667 -0.648628 0
M  V30 8158 H 765.695 -2.96711 -2.329 0
M  V30 8159 H 768.082 -1.98613 -2.18258 0
M  V30 8160 H 768.163 -2.50977 -0.494371 0
M  V30 8161 H 767.807 -4.923 -1.24912 0
M  V30 8162 H 767.737 -4.36843 -2.94068 0
M  V30 8163 H 770.228 -3.34233 -1.76343 0
M  V30 8164 H 770.541 -7.10438 -3.04134 0
M  V30 8165 H 768.886 -6.38642 -2.74155 0
M  V30 8166 H 772.077 -4.17874 -2.10947 0
M  V30 8167 H 772.25 -5.89417 -2.69242 0
M  V30 8168 N 765.656 0.84705 -1.32902 0
M  V30 8169 C 766.586 1.97166 -1.25091 0
M  V30 8170 C 767.567 1.69578 -0.133161 0
M  V30 8171 O 768.752 1.91519 -0.321591 0
M  V30 8172 C 765.882 3.33157 -0.981006 0
M  V30 8173 C 764.836 3.75119 -2.06082 0
M  V30 8174 C 764.162 5.08826 -1.64318 0
M  V30 8175 C 765.462 3.89774 -3.47669 0
M  V30 8176 H 767.156 2.03958 -2.19184 0
M  V30 8177 H 764.702 0.979907 -1.05517 0
M  V30 8178 H 766.655 4.11393 -0.912891 0
M  V30 8179 H 765.379 3.266 -0.00445559 0
M  V30 8180 H 764.038 2.9914 -2.11921 0
M  V30 8181 H 763.686 4.98732 -0.653876 0
M  V30 8182 H 763.386 5.37873 -2.36572 0
M  V30 8183 H 764.91 5.89546 -1.58958 0
M  V30 8184 H 766.324 4.58343 -3.44376 0
M  V30 8185 H 764.721 4.30248 -4.18338 0
M  V30 8186 H 765.791 2.92463 -3.86773 0
M  V30 8187 N 767.134 1.16236 1.06428 0
M  V30 8188 C 768.374 0.95369 1.80787 0
M  V30 8189 C 768.738 -0.509495 1.85117 0
M  V30 8190 O 769.939 -0.836822 2.55442 0
M  V30 8191 C 768.21 1.56235 3.21443 0
M  V30 8192 S 769.769 1.49812 4.12434 0
M  V30 8193 H 766.587 0.343004 0.622792 0
M  V30 8194 H 769.189 1.47957 1.27785 0
M  V30 8195 H 767.893 2.62 3.15886 0
M  V30 8196 H 767.424 1.03574 3.79521 0
M  V30 8197 H 769.439 0.49745 4.937 0
M  V30 8198 N 768.612 -1.24939 0.960631 0
M  V30 8199 C 769.858 -1.93425 0.629155 0
M  V30 8200 C 770.213 -1.73784 -0.825635 0
M  V30 8201 O 769.506 -1.07595 -1.58536 0
M  V30 8202 C 769.7 -3.45066 0.930809 0
M  V30 8203 C 769.529 -3.79455 2.41337 0
M  V30 8204 C 768.299 -4.01195 3.07197 0
M  V30 8205 C 770.497 -3.86492 3.39306 0
M  V30 8206 N 768.479 -4.22626 4.45265 0
M  V30 8207 C 769.85 -4.12682 4.62702 0
M  V30 8208 C 771.905 -3.69198 3.34061 0
M  V30 8209 C 770.608 -4.23376 5.81502 0
M  V30 8210 C 772.634 -3.81135 4.52206 0
M  V30 8211 C 771.996 -4.07743 5.74391 0
M  V30 8212 H 768.095 -0.729791 0.280943 0
M  V30 8213 H 770.679 -1.50597 1.23404 0
M  V30 8214 H 768.85 -3.86776 0.354801 0
M  V30 8215 H 770.582 -4.00826 0.558627 0
M  V30 8216 H 767.337 -3.97319 2.5775 0
M  V30 8217 H 767.761 -4.37335 5.16785 0
M  V30 8218 H 772.403 -3.47639 2.40638 0
M  V30 8219 H 770.121 -4.4375 6.75361 0
M  V30 8220 H 773.707 -3.69133 4.49702 0
M  V30 8221 H 772.587 -4.16768 6.64284 0
M  V30 8222 N 770.09 -0.729906 -1.39679 0
M  V30 8223 C 771.037 -0.0866063 -2.30637 0
M  V30 8224 C 772.007 0.735115 -1.48947 0
M  V30 8225 O 773.192 0.696125 -1.77648 0
M  V30 8226 C 770.332 0.818524 -3.35252 0
M  V30 8227 C 769.445 -0.0152635 -4.31997 0
M  V30 8228 C 768.58 0.890669 -5.2368 0
M  V30 8229 C 767.619 0.0518246 -6.12078 0
M  V30 8230 N 766.756 0.913411 -6.96133 0
M  V30 8231 H 771.596 -0.867925 -2.85081 0
M  V30 8232 H 769.133 -0.439673 -1.40376 0
M  V30 8233 H 771.091 1.3577 -3.9449 0
M  V30 8234 H 769.721 1.56587 -2.82277 0
M  V30 8235 H 768.773 -0.671794 -3.74421 0
M  V30 8236 H 770.085 -0.664086 -4.9436 0
M  V30 8237 H 769.239 1.49787 -5.87919 0
M  V30 8238 H 767.978 1.57328 -4.61627 0
M  V30 8239 H 766.983 -0.568209 -5.46856 0
M  V30 8240 H 768.208 -0.627497 -6.76195 0
M  V30 8241 H 766.154 1.58141 -6.36653 0
M  V30 8242 H 766.071 0.320952 -7.55318 0
M  V30 8243 H 767.339 1.50633 -7.64807 0
M  V30 8244 N 771.568 1.50203 -0.477153 0
M  V30 8245 C 772.815 2.02358 0.0757385 0
M  V30 8246 C 773.143 1.3587 1.39174 0
M  V30 8247 O 772.398 0.475415 1.89838 0
M  V30 8248 C 772.697 3.56127 0.301325 0
M  V30 8249 C 772.363 4.41126 -0.933725 0
M  V30 8250 C 771.025 4.64075 -1.27233 0
M  V30 8251 C 773.377 4.90737 -1.75576 0
M  V30 8252 C 770.705 5.33878 -2.43292 0
M  V30 8253 C 773.057 5.61816 -2.90768 0
M  V30 8254 C 771.721 5.83016 -3.25036 0
M  V30 8255 H 770.991 0.740482 0.0277147 0
M  V30 8256 H 773.638 1.80754 -0.632467 0
M  V30 8257 H 771.943 3.76279 1.09183 0
M  V30 8258 H 773.64 3.94053 0.743184 0
M  V30 8259 H 770.23 4.23489 -0.659935 0
M  V30 8260 H 774.414 4.72856 -1.50734 0
M  V30 8261 H 769.67 5.48499 -2.70109 0
M  V30 8262 H 773.844 5.99237 -3.54807 0
M  V30 8263 H 771.471 6.36881 -4.15074 0
M  V30 8264 N 773.046 0.209999 1.56195 0
M  V30 8265 C 774.292 -0.425442 1.98287 0
M  V30 8266 C 774.625 -1.60232 1.09724 0
M  V30 8267 O 773.9 -1.93902 0.152414 0
M  V30 8268 C 774.183 -0.871189 3.49403 0
M  V30 8269 C 774.036 0.308527 4.48741 0
M  V30 8270 C 775.355 -1.73146 4.04609 0
M  V30 8271 H 772.474 -0.153169 0.720908 0
M  V30 8272 H 775.116 0.303916 1.87554 0
M  V30 8273 H 773.266 -1.49266 3.58681 0
M  V30 8274 H 774.938 0.946487 4.51486 0
M  V30 8275 H 773.181 0.957878 4.23092 0
M  V30 8276 H 773.852 -0.0461143 5.51981 0
M  V30 8277 H 776.328 -1.2072 3.98203 0
M  V30 8278 H 775.204 -2.01228 5.10684 0
M  V30 8279 H 775.465 -2.69083 3.5078 0
M  V30 8280 N 774.524 -1.57472 -0.0634922 0
M  V30 8281 C 775.749 -1.92273 -0.77756 0
M  V30 8282 C 776.174 -0.807141 -1.69902 0
M  V30 8283 O 775.532 0.239523 -1.79711 0
M  V30 8284 C 775.58 -3.26054 -1.54017 0
M  V30 8285 O 774.684 -3.15873 -2.65138 0
M  V30 8286 H 774.025 -0.629389 -0.211579 0
M  V30 8287 H 776.555 -2.04579 -0.0292523 0
M  V30 8288 H 776.565 -3.60127 -1.91763 0
M  V30 8289 H 775.24 -4.06824 -0.864128 0
M  V30 8290 H 773.817 -2.93373 -2.30189 0
M  V30 8291 N 776.003 0.335068 -1.53997 0
M  V30 8292 C 777.414 0.910191 -1.6301 0
M  V30 8293 C 777.765 1.89271 -0.516809 0
M  V30 8294 O 776.89 2.13516 0.352123 0
M  V30 8295 C 777.485 1.65761 -2.9548 0
M  V30 8296 C 776.044 2.18163 -3.06728 0
M  V30 8297 C 775.191 1.00338 -2.5851 0
M  V30 8298 H 778.142 0.112965 -1.58297 0
M  V30 8299 H 778.163 2.52107 -2.84995 0
M  V30 8300 H 777.675 0.94227 -3.76488 0
M  V30 8301 H 775.776 2.92847 -2.30372 0
M  V30 8302 H 775.889 2.43952 -4.1234 0
M  V30 8303 H 774.253 1.37925 -2.14124 0
M  V30 8304 H 775.036 0.30254 -3.41964 0
M  V30 8305 N 777.481 1.45874 0.596531 0
M  V30 8306 C 778.444 1.54988 1.68853 0
M  V30 8307 C 779.444 0.428302 1.54991 0
M  V30 8308 O 780.634 0.692158 1.59859 0
M  V30 8309 C 777.766 1.457 3.08195 0
M  V30 8310 H 778.959 2.52294 1.62135 0
M  V30 8311 H 776.512 1.33479 0.813206 0
M  V30 8312 H 777.247 0.496204 3.20481 0
M  V30 8313 H 777.032 2.27061 3.19665 0
M  V30 8314 H 778.522 1.55133 3.87716 0
M  V30 8315 N 778.959 -0.83999 1.33349 0
M  V30 8316 C 780.206 -1.59517 1.24742 0
M  V30 8317 C 780.534 -1.93598 -0.187077 0
M  V30 8318 O 779.789 -1.58782 -1.14398 0
M  V30 8319 C 780.088 -2.91571 2.06691 0
M  V30 8320 C 779.754 -2.76856 3.55895 0
M  V30 8321 C 778.416 -2.72551 3.96572 0
M  V30 8322 C 780.768 -2.61741 4.50712 0
M  V30 8323 C 778.096 -2.51028 5.30285 0
M  V30 8324 C 780.448 -2.41752 5.84584 0
M  V30 8325 C 779.112 -2.35848 6.24445 0
M  V30 8326 H 778.382 -0.583714 0.456463 0
M  V30 8327 H 781.029 -0.973261 1.64924 0
M  V30 8328 H 779.334 -3.57961 1.59284 0
M  V30 8329 H 781.031 -3.49053 1.9739 0
M  V30 8330 H 777.621 -2.81039 3.23597 0
M  V30 8331 H 781.805 -2.64102 4.20195 0
M  V30 8332 H 777.061 -2.44903 5.60208 0
M  V30 8333 H 781.235 -2.2904 6.57658 0
M  V30 8334 H 778.862 -2.18931 7.27993 0
M  V30 8335 N 780.437 -1.16799 -1.0581 0
M  V30 8336 C 781.367 -0.902241 -2.15364 0
M  V30 8337 C 782.348 0.153351 -1.69407 0
M  V30 8338 O 783.533 0.00442032 -1.94199 0
M  V30 8339 C 780.663 -0.407911 -3.44896 0
M  V30 8340 C 779.617 -1.40197 -4.04387 0
M  V30 8341 C 778.943 -0.765848 -5.29187 0
M  V30 8342 C 780.243 -2.77316 -4.42598 0
M  V30 8343 H 781.937 -1.81841 -2.37853 0
M  V30 8344 H 779.483 -0.875731 -1.14311 0
M  V30 8345 H 781.436 -0.20945 -4.20879 0
M  V30 8346 H 780.16 0.54378 -3.22041 0
M  V30 8347 H 778.819 -1.58707 -3.30466 0
M  V30 8348 H 778.467 0.192482 -5.02632 0
M  V30 8349 H 778.167 -1.42939 -5.69949 0
M  V30 8350 H 779.691 -0.577519 -6.07863 0
M  V30 8351 H 781.105 -2.62561 -5.09642 0
M  V30 8352 H 779.502 -3.4019 -4.94359 0
M  V30 8353 H 780.572 -3.32199 -3.53231 0
M  V30 8354 N 781.915 1.24427 -0.967243 0
M  V30 8355 C 782.845 2.2773 -0.515899 0
M  V30 8356 C 783.826 1.64197 0.444227 0
M  V30 8357 O 785.011 1.91193 0.340451 0
M  V30 8358 C 782.141 3.46751 0.195149 0
M  V30 8359 C 781.095 4.22548 -0.680953 0
M  V30 8360 C 780.421 5.34456 0.161561 0
M  V30 8361 C 781.721 4.83914 -1.96532 0
M  V30 8362 H 783.415 2.65735 -1.37933 0
M  V30 8363 H 780.961 1.27742 -0.664681 0
M  V30 8364 H 782.914 4.18153 0.522117 0
M  V30 8365 H 781.638 3.07771 1.09292 0
M  V30 8366 H 780.297 3.52946 -0.991186 0
M  V30 8367 H 779.945 4.91716 1.05947 0
M  V30 8368 H 779.645 5.86087 -0.421418 0
M  V30 8369 H 781.169 6.08685 0.483211 0
M  V30 8370 H 782.583 5.47392 -1.70396 0
M  V30 8371 H 780.98 5.45775 -2.49499 0
M  V30 8372 H 782.05 4.05393 -2.66053 0
M  V30 8373 N 783.393 0.737304 1.3929 0
M  V30 8374 C 784.64 0.286257 2.00467 0
M  V30 8375 C 784.968 -1.1272 1.58507 0
M  V30 8376 O 784.223 -1.7832 0.806257 0
M  V30 8377 C 784.522 0.338438 3.55794 0
M  V30 8378 C 784.188 1.70524 4.17411 0
M  V30 8379 C 782.85 2.07934 4.33955 0
M  V30 8380 C 785.202 2.60256 4.51571 0
M  V30 8381 C 782.53 3.34578 4.81948 0
M  V30 8382 C 784.882 3.86275 5.00974 0
M  V30 8383 C 783.546 4.23774 5.15725 0
M  V30 8384 H 782.816 0.104749 0.733559 0
M  V30 8385 H 785.463 0.944598 1.66582 0
M  V30 8386 H 783.768 -0.403478 3.89717 0
M  V30 8387 H 785.465 -0.0287255 4.0099 0
M  V30 8388 H 782.055 1.40439 4.04938 0
M  V30 8389 H 786.239 2.32624 4.38406 0
M  V30 8390 H 781.495 3.63572 4.91554 0
M  V30 8391 H 785.669 4.5596 5.26378 0
M  V30 8392 H 783.296 5.21972 5.52674 0
M  V30 8393 N 784.871 -1.49948 0.485112 0
M  V30 8394 C 786.117 -2.02695 -0.0651022 0
M  V30 8395 C 786.45 -1.36534 -1.38102 0
M  V30 8396 O 785.725 -0.495677 -1.88078 0
M  V30 8397 C 786.008 -3.59337 -0.234285 0
M  V30 8398 C 785.861 -4.3605 1.10364 0
M  V30 8399 C 787.18 -4.28996 -0.982351 0
M  V30 8400 H 784.299 -0.736666 -0.0221856 0
M  V30 8401 H 786.941 -1.7913 0.633433 0
M  V30 8402 H 785.091 -3.79546 -0.829262 0
M  V30 8403 H 786.763 -4.27377 1.73627 0
M  V30 8404 H 785.006 -3.99236 1.69686 0
M  V30 8405 H 785.677 -5.43959 0.938743 0
M  V30 8406 H 788.153 -4.13346 -0.477904 0
M  V30 8407 H 787.029 -5.38379 -1.06955 0
M  V30 8408 H 787.29 -3.93135 -2.02231 0
M  V30 8409 N 786.349 -0.21828 -1.56081 0
M  V30 8410 C 787.595 0.414921 -1.9851 0
M  V30 8411 C 787.928 1.59648 -1.10573 0
M  V30 8412 O 787.203 1.93818 -0.162695 0
M  V30 8413 C 787.486 0.852647 -3.4986 0
M  V30 8414 C 787.339 -0.33232 -4.48571 0
M  V30 8415 C 788.658 1.70998 -4.05521 0
M  V30 8416 H 785.777 0.149344 -0.72171 0
M  V30 8417 H 788.419 -0.313858 -1.8739 0
M  V30 8418 H 786.569 1.47362 -3.59467 0
M  V30 8419 H 788.241 -0.970418 -4.50977 0
M  V30 8420 H 786.484 -0.980302 -4.22578 0
M  V30 8421 H 787.155 0.0168407 -5.51997 0
M  V30 8422 H 789.631 1.18606 -3.98838 0
M  V30 8423 H 788.507 1.98517 -5.11744 0
M  V30 8424 H 788.768 2.67219 -3.52202 0
M  V30 8425 N 787.827 1.57504 0.0551401 0
M  V30 8426 C 789.073 1.88334 0.752216 0
M  V30 8427 C 789.406 0.812742 1.76375 0
M  V30 8428 O 788.681 -0.175198 1.93709 0
M  V30 8429 C 788.964 3.29824 1.44528 0
M  V30 8430 C 788.817 4.47553 0.449026 0
M  V30 8431 C 790.136 3.69808 2.38601 0
M  V30 8432 H 787.255 0.684973 0.271995 0
M  V30 8433 H 789.897 1.89994 0.0151895 0
M  V30 8434 H 788.047 3.28539 2.07351 0
M  V30 8435 H 789.719 4.60967 -0.175277 0
M  V30 8436 H 787.962 4.33168 -0.234162 0
M  V30 8437 H 788.633 5.43376 0.971917 0
M  V30 8438 H 791.109 3.72293 1.85842 0
M  V30 8439 H 789.985 4.69665 2.84088 0
M  V30 8440 H 790.246 3.00641 3.24141 0
M  V30 8441 N 789.305 -0.326896 1.54172 0
M  V30 8442 C 790.551 -1.06681 1.72473 0
M  V30 8443 C 790.884 -1.87779 0.49523 0
M  V30 8444 O 790.159 -1.87754 -0.507803 0
M  V30 8445 C 790.442 -1.99429 2.99834 0
M  V30 8446 C 790.295 -1.21682 4.33028 0
M  V30 8447 C 791.614 -2.99002 3.22933 0
M  V30 8448 H 788.733 -0.386438 0.627563 0
M  V30 8449 H 791.375 -0.343779 1.86864 0
M  V30 8450 H 789.525 -2.61081 2.87696 0
M  V30 8451 H 791.197 -0.625153 4.57044 0
M  V30 8452 H 789.44 -0.519045 4.30684 0
M  V30 8453 H 790.111 -1.89766 5.18356 0
M  V30 8454 H 792.587 -2.4747 3.34511 0
M  V30 8455 H 791.463 -3.61085 4.13412 0
M  V30 8456 H 791.724 -3.71281 2.40006 0
M  V30 8457 N 790.784 -1.46188 -0.588786 0
M  V30 8458 C 792.009 -1.5498 -1.37826 0
M  V30 8459 C 792.434 -0.189498 -1.87143 0
M  V30 8460 O 791.792 0.829293 -1.61222 0
M  V30 8461 C 791.84 -2.55369 -2.54596 0
M  V30 8462 O 790.944 -2.08452 -3.55839 0
M  V30 8463 H 790.285 -0.521741 -0.41071 0
M  V30 8464 H 792.815 -1.91708 -0.714779 0
M  V30 8465 H 792.825 -2.74782 -3.01594 0
M  V30 8466 H 791.5 -3.54155 -2.18052 0
M  V30 8467 H 790.077 -1.98999 -3.15363 0
M  V30 8468 N 792.262 0.832906 -1.33792 0
M  V30 8469 C 793.511 1.58351 -1.24932 0
M  V30 8470 C 793.824 1.94754 0.181703 0
M  V30 8471 O 795.03 2.6865 0.392375 0
M  V30 8472 C 793.486 2.85643 -2.18943 0
M  V30 8473 C 793.094 2.56581 -3.67247 0
M  V30 8474 C 794.838 3.63667 -2.18968 0
M  V30 8475 C 792.745 3.80006 -4.53155 0
M  V30 8476 H 791.675 0.594278 -0.464058 0
M  V30 8477 H 794.326 0.91786 -1.58895 0
M  V30 8478 H 792.708 3.53781 -1.77919 0
M  V30 8479 H 793.882 1.96617 -4.16747 0
M  V30 8480 H 792.197 1.91851 -3.6957 0
M  V30 8481 H 794.794 4.55293 -2.80379 0
M  V30 8482 H 795.137 3.99039 -1.18631 0
M  V30 8483 H 795.67 3.0246 -2.58384 0
M  V30 8484 H 792.409 3.4976 -5.5439 0
M  V30 8485 H 791.929 4.39288 -4.08395 0
M  V30 8486 H 793.608 4.47523 -4.6726 0
M  V30 8487 N 793.74 1.17359 1.05189 0
M  V30 8488 C 794.989 0.956412 1.77583 0
M  V30 8489 C 795.302 -0.516018 1.88671 0
M  V30 8490 O 796.508 -0.851401 2.57805 0
M  V30 8491 C 794.964 1.66203 3.19225 0
M  V30 8492 C 794.572 3.17299 3.16267 0
M  V30 8493 C 796.316 1.52725 3.96075 0
M  V30 8494 C 794.223 3.8055 4.52698 0
M  V30 8495 H 793.153 0.354204 0.665624 0
M  V30 8496 H 795.804 1.40612 1.17901 0
M  V30 8497 H 794.186 1.14006 3.79234 0
M  V30 8498 H 795.36 3.76431 2.65776 0
M  V30 8499 H 793.675 3.3079 2.52917 0
M  V30 8500 H 796.272 1.97351 4.96947 0
M  V30 8501 H 796.615 0.477803 4.13549 0
M  V30 8502 H 797.148 2.02139 3.42614 0
M  V30 8503 H 793.887 4.85492 4.4043 0
M  V30 8504 H 793.407 3.26206 5.03339 0
M  V30 8505 H 795.086 3.82757 5.21638 0
M  V30 8506 N 795.218 -1.23913 0.973828 0
M  V30 8507 C 796.166 -2.27141 0.50098 0
M  V30 8508 C 797.16 -1.63623 -0.438631 0
M  V30 8509 O 798.366 -1.77253 -0.313247 0
M  V30 8510 H 794.741 -0.73817 0.14356 0
M  V30 8511 H 796.712 -2.64392 1.38346 0
M  V30 8512 C 795.461 -3.47195 -0.187377 0
M  V30 8513 H 794.784 -3.96318 0.526535 0
M  V30 8514 H 796.224 -4.21252 -0.481962 0
M  V30 8515 C 794.683 -3.05678 -1.41642 0
M  V30 8516 O 795.213 -3.1338 -2.51309 0
M  V30 8517 N 793.419 -2.60661 -1.28469 0
M  V30 8518 H 792.966 -2.54594 -0.39238 0
M  V30 8519 H 792.924 -2.33249 -2.10813 0
M  V30 8520 N 796.696 -0.74468 -1.38897 0
M  V30 8521 C 797.943 -0.296884 -2.00312 0
M  V30 8522 C 798.271 1.11878 -1.59102 0
M  V30 8523 O 797.526 1.7789 -0.815702 0
M  V30 8524 C 797.825 -0.357302 -3.55609 0
M  V30 8525 C 797.491 -1.72736 -4.16501 0
M  V30 8526 C 796.153 -2.10232 -4.32846 0
M  V30 8527 C 798.505 -2.62647 -4.50184 0
M  V30 8528 C 795.833 -3.3713 -4.80167 0
M  V30 8529 C 798.185 -3.88926 -4.98918 0
M  V30 8530 C 796.849 -4.26503 -5.1347 0
M  V30 8531 H 796.119 -0.108638 -0.732993 0
M  V30 8532 H 798.766 -0.953419 -1.66079 0
M  V30 8533 H 797.071 0.382805 -3.89925 0
M  V30 8534 H 798.768 0.0074596 -4.00999 0
M  V30 8535 H 795.358 -1.42585 -4.04187 0
M  V30 8536 H 799.542 -2.34945 -4.37166 0
M  V30 8537 H 794.798 -3.66174 -4.89619 0
M  V30 8538 H 798.972 -4.58745 -5.23952 0
M  V30 8539 H 796.599 -5.24896 -5.49898 0
M  V30 8540 N 798.174 1.49689 -0.493057 0
M  V30 8541 C 799.121 2.28976 0.28959 0
M  V30 8542 C 800.091 1.35011 0.967536 0
M  V30 8543 O 801.276 1.63964 0.975736 0
M  V30 8544 C 798.416 3.1748 1.35279 0
M  V30 8545 C 797.529 4.26496 0.687418 0
M  V30 8546 C 796.664 5.02226 1.73038 0
M  V30 8547 C 795.703 6.03089 1.04645 0
M  V30 8548 N 794.84 6.72014 2.03325 0
M  V30 8549 H 799.68 2.954 -0.392798 0
M  V30 8550 H 797.217 1.45657 -0.205554 0
M  V30 8551 H 799.175 3.67162 1.98111 0
M  V30 8552 H 797.805 2.53057 2.00405 0
M  V30 8553 H 796.857 3.80362 -0.0540001 0
M  V30 8554 H 798.169 4.98578 0.14864 0
M  V30 8555 H 797.323 5.55737 2.43395 0
M  V30 8556 H 796.062 4.29899 2.303 0
M  V30 8557 H 795.067 5.48817 0.328606 0
M  V30 8558 H 796.292 6.77398 0.480428 0
M  V30 8559 H 794.238 6.02464 2.59564 0
M  V30 8560 H 794.155 7.40046 1.54492 0
M  V30 8561 H 795.423 7.30133 2.72995 0
M  V30 8562 N 799.652 0.226554 1.55963 0
M  V30 8563 C 801.063 -0.280381 1.84583 0
M  V30 8564 C 801.414 -1.59105 1.14804 0
M  V30 8565 O 800.539 -2.12297 0.419414 0
M  V30 8566 C 801.134 -0.515499 3.34855 0
M  V30 8567 C 799.693 -0.966733 3.63774 0
M  V30 8568 C 798.84 -0.0325753 2.77281 0
M  V30 8569 H 801.791 0.449626 1.52197 0
M  V30 8570 H 801.812 -1.36085 3.55332 0
M  V30 8571 H 801.324 0.438594 3.85614 0
M  V30 8572 H 799.425 -1.93401 3.18476 0
M  V30 8573 H 799.538 -0.837679 4.7172 0
M  V30 8574 H 797.902 -0.540279 2.48904 0
M  V30 8575 H 798.685 0.916524 3.30839 0
M  V30 8576 N 801.13 -1.57531 -0.0467866 0
M  V30 8577 C 802.06 -2.08425 -1.05268 0
M  V30 8578 C 803.041 -0.982941 -1.38825 0
M  V30 8579 O 804.226 -1.25716 -1.48018 0
M  V30 8580 C 801.356 -2.54897 -2.35891 0
M  V30 8581 C 800.31 -3.69132 -2.16623 0
M  V30 8582 C 799.636 -4.01747 -3.52851 0
M  V30 8583 C 800.936 -4.98243 -1.56689 0
M  V30 8584 H 802.63 -2.92716 -0.62908 0
M  V30 8585 H 800.176 -1.40816 -0.301156 0
M  V30 8586 H 802.129 -2.8912 -3.06574 0
M  V30 8587 H 800.853 -1.67666 -2.80278 0
M  V30 8588 H 799.512 -3.35231 -1.48377 0
M  V30 8589 H 799.16 -3.11608 -3.94853 0
M  V30 8590 H 798.86 -4.78681 -3.4079 0
M  V30 8591 H 800.384 -4.38487 -4.24925 0
M  V30 8592 H 801.798 -5.30535 -2.17268 0
M  V30 8593 H 800.195 -5.79669 -1.55255 0
M  V30 8594 H 801.265 -4.81986 -0.530827 0
M  V30 8595 N 802.608 0.318715 -1.54344 0
M  V30 8596 C 803.836 1.0755 -1.7675 0
M  V30 8597 C 804.251 1.81543 -0.518422 0
M  V30 8598 O 803.608 1.75198 0.511078 0
M  V30 8599 C 803.659 2.06983 -2.96378 0
M  V30 8600 O 803.38 1.35995 -4.16458 0
M  V30 8601 C 804.881 2.94841 -3.31034 0
M  V30 8602 H 802.101 0.319711 -0.589937 0
M  V30 8603 H 804.645 0.363369 -2.01246 0
M  V30 8604 H 802.8 2.73724 -2.74142 0
M  V30 8605 H 803.214 2.02623 -4.83781 0
M  V30 8606 H 804.688 3.60496 -4.18027 0
M  V30 8607 H 805.165 3.62199 -2.48412 0
M  V30 8608 H 805.771 2.33656 -3.55366 0
M  V30 8609 N 804.086 1.46499 0.581025 0
M  V30 8610 C 805.316 1.55244 1.36319 0
M  V30 8611 C 805.724 0.193059 1.88212 0
M  V30 8612 O 805.067 -0.820109 1.64377 0
M  V30 8613 C 805.129 2.498 2.58535 0
M  V30 8614 C 804.793 3.96007 2.28096 0
M  V30 8615 C 805.79 4.85171 1.8683 0
M  V30 8616 C 803.475 4.41152 2.40189 0
M  V30 8617 C 805.469 6.17493 1.58053 0
M  V30 8618 C 803.156 5.73508 2.11024 0
M  V30 8619 C 804.154 6.615 1.70021 0
M  V30 8620 O 803.842 7.914 1.41215 0
M  V30 8621 H 803.574 0.527513 0.422736 0
M  V30 8622 H 806.128 1.92623 0.713139 0
M  V30 8623 H 804.358 2.07443 3.2635 0
M  V30 8624 H 806.047 2.48934 3.20604 0
M  V30 8625 H 806.813 4.51548 1.77001 0
M  V30 8626 H 802.692 3.72886 2.71066 0
M  V30 8627 H 806.236 6.86131 1.25974 0
M  V30 8628 H 802.133 6.06679 2.20478 0
M  V30 8629 H 802.901 8.03681 1.55046 0
M  V30 8630 N 805.565 -0.825799 1.34232 0
M  V30 8631 C 806.842 -1.56741 1.17011 0
M  V30 8632 C 807.222 -2.09512 -0.258425 0
M  V30 8633 O 806.57 -1.90664 -1.25935 0
M  V30 8634 C 806.78 -2.69104 2.22225 0
M  V30 8635 C 808.128 -3.37947 2.57055 0
M  V30 8636 O 809.152 -2.79358 2.20992 0
M  V30 8637 O 808.011 -4.43743 3.1899 0
M  V30 8638 H 805.105 -0.69163 0.453405 0
M  V30 8639 H 807.651 -0.867422 1.45856 0
M  V30 8640 H 806.423 -2.27844 3.18124 0
M  V30 8641 H 806.046 -3.46756 1.94541 0
M  V30 8642 N 807.043 -1.17915 -1.04565 0
M  V30 8643 C 808.32 -0.881187 -1.74627 0
M  V30 8644 C 808.7 0.617123 -2.01878 0
M  V30 8645 O 808.048 1.57032 -1.65991 0
M  V30 8646 C 808.258 -1.72299 -3.03503 0
M  V30 8647 C 809.606 -1.94688 -3.77335 0
M  V30 8648 O 810.63 -1.6931 -3.13389 0
M  V30 8649 O 809.489 -2.37379 -4.92253 0
M  V30 8650 H 806.583 -0.326864 -0.759664 0
M  V30 8651 H 809.129 -1.28642 -1.10676 0
M  V30 8652 H 807.901 -2.73891 -2.79462 0
M  V30 8653 H 807.524 -1.31593 -3.75192 0
M  V30 8654 N 808.521 1.23394 -0.980386 0
M  V30 8655 C 809.751 1.9556 -0.666319 0
M  V30 8656 C 810.159 1.72786 0.770815 0
M  V30 8657 O 809.502 1.0162 1.53033 0
M  V30 8658 C 809.564 3.48643 -0.876825 0
M  V30 8659 C 809.228 3.95135 -2.29602 0
M  V30 8660 C 810.225 4.03806 -3.2747 0
M  V30 8661 C 807.91 4.28122 -2.62711 0
M  V30 8662 C 809.904 4.44818 -4.56526 0
M  V30 8663 C 807.591 4.68814 -3.9199 0
M  V30 8664 C 808.589 4.77129 -4.88709 0
M  V30 8665 O 808.277 5.16908 -6.15679 0
M  V30 8666 H 808.009 0.629422 -0.246585 0
M  V30 8667 H 810.563 1.57839 -1.31438 0
M  V30 8668 H 808.793 3.86319 -0.171587 0
M  V30 8669 H 810.482 4.0202 -0.55992 0
M  V30 8670 H 811.248 3.78526 -3.03222 0
M  V30 8671 H 807.127 4.20861 -1.8814 0
M  V30 8672 H 810.671 4.51223 -5.32018 0
M  V30 8673 H 806.568 4.93545 -4.16033 0
M  V30 8674 H 807.336 5.3502 -6.19432 0
M  V30 8675 N 809.999 0.752036 1.385 0
M  V30 8676 C 811.248 0.304294 1.99391 0
M  V30 8677 C 811.561 -1.11982 1.60373 0
M  V30 8678 O 812.767 -1.66795 2.14223 0
M  V30 8679 C 811.223 0.493101 3.56506 0
M  V30 8680 C 810.831 1.9262 4.04477 0
M  V30 8681 C 812.575 0.107994 4.24363 0
M  V30 8682 C 810.482 2.06365 5.54227 0
M  V30 8683 H 809.412 0.110024 0.745929 0
M  V30 8684 H 812.063 0.928355 1.58284 0
M  V30 8685 H 810.445 -0.20012 3.95494 0
M  V30 8686 H 811.619 2.65276 3.76783 0
M  V30 8687 H 809.934 2.26608 3.49339 0
M  V30 8688 H 812.531 0.189474 5.34364 0
M  V30 8689 H 812.874 -0.939165 4.05568 0
M  V30 8690 H 813.407 0.753011 3.90608 0
M  V30 8691 H 810.146 3.0933 5.77923 0
M  V30 8692 H 809.666 1.38167 5.83669 0
M  V30 8693 H 811.345 1.85286 6.19902 0
M  V30 8694 N 811.477 -1.49425 0.500989 0
M  V30 8695 C 812.724 -2.02453 -0.0435355 0
M  V30 8696 C 813.052 -1.38067 -1.36995 0
M  V30 8697 O 812.307 -0.505557 -1.89057 0
M  V30 8698 C 812.606 -3.56562 -0.24463 0
M  V30 8699 C 812.272 -4.39585 1.00379 0
M  V30 8700 C 810.934 -4.61992 1.346 0
M  V30 8701 C 813.286 -4.87881 1.83361 0
M  V30 8702 C 810.614 -5.2994 2.51755 0
M  V30 8703 C 812.966 -5.57119 2.99669 0
M  V30 8704 C 811.63 -5.77771 3.3427 0
M  V30 8705 H 810.9 -0.740829 -0.0159308 0
M  V30 8706 H 813.547 -1.79725 0.661143 0
M  V30 8707 H 811.852 -3.77969 -1.03183 0
M  V30 8708 H 813.549 -3.95185 -0.6804 0
M  V30 8709 H 810.139 -4.22385 0.727225 0
M  V30 8710 H 814.323 -4.70398 1.58237 0
M  V30 8711 H 809.579 -5.44133 2.788 0
M  V30 8712 H 813.753 -5.93516 3.64296 0
M  V30 8713 H 811.38 -6.30197 4.25154 0
M  V30 8714 N 812.955 -0.234822 -1.55841 0
M  V30 8715 C 814.366 0.270588 -1.84729 0
M  V30 8716 C 814.717 1.58494 -1.15646 0
M  V30 8717 O 813.842 2.12071 -0.430667 0
M  V30 8718 C 814.437 0.497733 -3.35124 0
M  V30 8719 C 812.996 0.947428 -3.64281 0
M  V30 8720 C 812.143 0.01787 -2.77294 0
M  V30 8721 H 815.094 -0.457691 -1.51957 0
M  V30 8722 H 815.115 1.34199 -3.56049 0
M  V30 8723 H 814.627 -0.459037 -3.85376 0
M  V30 8724 H 812.728 1.91709 -3.19497 0
M  V30 8725 H 812.841 0.812651 -4.72158 0
M  V30 8726 H 811.205 0.527071 -2.49187 0
M  V30 8727 H 811.988 -0.934056 -3.30349 0
M  V30 8728 N 814.433 1.57553 0.0384317 0
M  V30 8729 C 815.844 1.77258 0.586211 0
M  V30 8730 C 816.195 0.864706 1.76117 0
M  V30 8731 O 815.32 0.057141 2.16325 0
M  V30 8732 C 815.915 3.21453 1.07021 0
M  V30 8733 C 814.474 3.42387 1.56358 0
M  V30 8734 C 813.621 2.72801 0.497508 0
M  V30 8735 H 816.572 1.57585 -0.187796 0
M  V30 8736 H 816.593 3.27451 1.93794 0
M  V30 8737 H 816.105 3.87505 0.214851 0
M  V30 8738 H 814.206 2.81497 2.44111 0
M  V30 8739 H 814.319 4.50968 1.61754 0
M  V30 8740 H 812.683 2.36305 0.95038 0
M  V30 8741 H 813.466 3.41529 -0.348234 0
M  V30 8742 N 815.911 -0.310526 1.54511 0
M  V30 8743 C 817.157 -1.04459 1.74528 0
M  V30 8744 C 817.512 -1.85251 0.519613 0
M  V30 8745 O 816.805 -1.85281 -0.488001 0
M  V30 8746 C 816.999 -1.98942 2.96912 0
M  V30 8747 C 816.828 -1.27442 4.31264 0
M  V30 8748 C 815.598 -1.00552 4.95194 0
M  V30 8749 C 817.796 -0.683695 5.09735 0
M  V30 8750 N 815.778 -0.259797 6.1335 0
M  V30 8751 C 817.149 -0.0702549 6.1996 0
M  V30 8752 C 819.204 -0.587799 4.94418 0
M  V30 8753 C 817.907 0.629791 7.16538 0
M  V30 8754 C 819.933 0.0985719 5.91318 0
M  V30 8755 C 819.295 0.700902 7.00904 0
M  V30 8756 H 815.394 -0.365496 0.69133 0
M  V30 8757 H 817.978 -0.324277 1.91981 0
M  V30 8758 H 816.149 -2.68233 2.80902 0
M  V30 8759 H 817.881 -2.6543 3.05498 0
M  V30 8760 H 814.636 -1.30123 4.55374 0
M  V30 8761 H 815.06 0.099301 6.76927 0
M  V30 8762 H 819.702 -1.03919 4.0983 0
M  V30 8763 H 817.42 1.09298 8.00674 0
M  V30 8764 H 821.006 0.172585 5.81544 0
M  V30 8765 H 819.886 1.22357 7.74596 0
M  V30 8766 N 817.389 -1.46805 -0.573248 0
M  V30 8767 C 818.352 -1.57655 -1.66366 0
M  V30 8768 C 819.352 -0.452905 -1.5429 0
M  V30 8769 O 820.542 -0.717502 -1.58737 0
M  V30 8770 C 817.674 -1.50584 -3.05839 0
M  V30 8771 H 818.867 -2.54842 -1.581 0
M  V30 8772 H 816.42 -1.34756 -0.791868 0
M  V30 8773 H 817.155 -0.547127 -3.19651 0
M  V30 8774 H 816.94 -2.32118 -3.16012 0
M  V30 8775 H 818.43 -1.61282 -3.85199 0
M  V30 8776 N 818.867 0.818669 -1.34668 0
M  V30 8777 C 819.815 1.95123 -1.26609 0
M  V30 8778 C 820.809 1.68611 -0.163348 0
M  V30 8779 O 822.015 1.76975 -0.328586 0
M  V30 8780 H 818.39 0.640871 -0.393431 0
M  V30 8781 H 820.361 1.99043 -2.22316 0
M  V30 8782 C 819.11 3.31697 -1.04272 0
M  V30 8783 H 818.433 3.52648 -1.8836 0
M  V30 8784 H 819.873 4.11382 -1.0267 0
M  V30 8785 C 818.332 3.35942 0.253858 0
M  V30 8786 O 818.862 3.81632 1.25378 0
M  V30 8787 N 817.068 2.89165 0.288447 0
M  V30 8788 H 816.615 2.52176 -0.525845 0
M  V30 8789 H 816.573 2.92387 1.15572 0
M  V30 8790 N 820.346 1.18468 1.03938 0
M  V30 8791 C 821.592 0.992302 1.77553 0
M  V30 8792 C 821.947 -0.472959 1.86496 0
M  V30 8793 O 821.24 -1.34662 1.36296 0
M  V30 8794 C 821.434 1.58229 3.20466 0
M  V30 8795 C 821.263 3.1034 3.25452 0
M  V30 8796 C 820.033 3.79166 3.34008 0
M  V30 8797 C 822.231 4.07814 3.13357 0
M  V30 8798 N 820.213 5.18768 3.28258 0
M  V30 8799 C 821.584 5.33946 3.15121 0
M  V30 8800 C 823.639 3.99315 2.97409 0
M  V30 8801 C 822.342 6.52565 3.02574 0
M  V30 8802 C 824.368 5.17532 2.86208 0
M  V30 8803 C 823.73 6.42557 2.88617 0
M  V30 8804 H 819.829 0.417131 0.661457 0
M  V30 8805 H 822.413 1.50265 1.23808 0
M  V30 8806 H 820.584 1.0981 3.72554 0
M  V30 8807 H 822.316 1.32531 3.82384 0
M  V30 8808 H 819.071 3.29905 3.39794 0
M  V30 8809 H 819.495 5.91783 3.28818 0
M  V30 8810 H 824.137 3.03485 2.94375 0
M  V30 8811 H 821.855 7.48592 3.0436 0
M  V30 8812 H 825.441 5.12748 2.7492 0
M  V30 8813 H 824.321 7.32494 2.80039 0
M  V30 8814 N 821.824 -1.22873 0.986916 0
M  V30 8815 C 823.07 -1.91746 0.660401 0
M  V30 8816 C 823.403 -1.76738 -0.804812 0
M  V30 8817 O 822.678 -1.13246 -1.58131 0
M  V30 8818 C 822.961 -3.44156 1.05966 0
M  V30 8819 C 822.814 -3.68242 2.58298 0
M  V30 8820 C 824.133 -4.35874 0.60842 0
M  V30 8821 H 821.252 -0.696347 0.241391 0
M  V30 8822 H 823.894 -1.44867 1.22937 0
M  V30 8823 H 822.044 -3.84213 0.575534 0
M  V30 8824 H 823.716 -3.37626 3.14335 0
M  V30 8825 H 821.959 -3.12728 3.00638 0
M  V30 8826 H 822.63 -4.74956 2.81285 0
M  V30 8827 H 825.106 -4.03299 1.02417 0
M  V30 8828 H 823.982 -5.41201 0.916142 0
M  V30 8829 H 824.243 -4.39364 -0.491086 0
M  V30 8830 N 823.302 -0.75937 -1.38099 0
M  V30 8831 C 824.55 -0.317485 -1.99591 0
M  V30 8832 C 824.871 1.10628 -1.60581 0
M  V30 8833 O 824.141 1.7575 -0.865378 0
M  V30 8834 H 822.721 -0.114397 -0.738189 0
M  V30 8835 H 825.383 -0.974749 -1.68774 0
M  V30 8836 H 824.479 -0.385227 -3.09713 0
M  V30 8837 N 824.78 1.49157 -0.508906 0
M  V30 8838 C 826.026 2.03385 0.0248089 0
M  V30 8839 C 826.381 1.381 1.33964 0
M  V30 8840 O 825.674 0.510317 1.84679 0
M  V30 8841 C 825.868 3.56687 0.225717 0
M  V30 8842 C 825.697 4.36832 -1.06809 0
M  V30 8843 C 824.467 4.78556 -1.6221 0
M  V30 8844 C 826.665 4.74934 -1.97338 0
M  V30 8845 N 824.647 5.43158 -2.86098 0
M  V30 8846 C 826.018 5.39336 -3.05805 0
M  V30 8847 C 828.073 4.56872 -1.97921 0
M  V30 8848 C 826.776 5.87587 -4.1489 0
M  V30 8849 C 828.802 5.06089 -3.05987 0
M  V30 8850 C 828.164 5.70499 -4.13172 0
M  V30 8851 H 824.263 0.781349 -0.0318988 0
M  V30 8852 H 826.847 1.82233 -0.685518 0
M  V30 8853 H 825.018 3.77707 0.905108 0
M  V30 8854 H 826.75 3.97554 0.757147 0
M  V30 8855 H 823.505 4.59017 -1.16621 0
M  V30 8856 H 823.929 5.8004 -3.49116 0
M  V30 8857 H 828.571 4.06474 -1.16357 0
M  V30 8858 H 826.289 6.37002 -4.97247 0
M  V30 8859 H 829.875 4.93919 -3.07466 0
M  V30 8860 H 828.755 6.07893 -4.95415 0
M  V30 8861 N 826.258 0.243083 1.55714 0
M  V30 8862 C 827.506 -0.381964 1.98458 0
M  V30 8863 C 827.827 -1.58745 1.13247 0
M  V30 8864 O 827.097 -1.94723 0.214384 0
M  V30 8865 H 825.677 -0.144114 0.732967 0
M  V30 8866 H 828.339 0.340985 1.91894 0
M  V30 8867 H 827.435 -0.693702 3.04293 0
M  V30 8868 N 827.736 -1.57571 -0.0300757 0
M  V30 8869 C 828.985 -1.88407 -0.720126 0
M  V30 8870 C 829.298 -0.841466 -1.76575 0
M  V30 8871 O 830.504 -1.03902 -2.50832 0
M  V30 8872 C 828.96 -3.34348 -1.33188 0
M  V30 8873 C 828.568 -4.46837 -0.32266 0
M  V30 8874 C 830.312 -3.74333 -2.00187 0
M  V30 8875 C 828.219 -5.83838 -0.942703 0
M  V30 8876 H 827.149 -0.702952 -0.272718 0
M  V30 8877 H 829.8 -1.83482 0.0255337 0
M  V30 8878 H 828.182 -3.34014 -2.12721 0
M  V30 8879 H 829.356 -4.58638 0.445887 0
M  V30 8880 H 827.671 -4.15678 0.245181 0
M  V30 8881 H 830.268 -4.74008 -2.47428 0
M  V30 8882 H 830.611 -3.06275 -2.81959 0
M  V30 8883 H 831.144 -3.76837 -1.2743 0
M  V30 8884 H 827.883 -6.55294 -0.164413 0
M  V30 8885 H 827.403 -5.75759 -1.68111 0
M  V30 8886 H 829.082 -6.30535 -1.45034 0
M  V30 8887 N 829.214 0.302327 -1.54673 0
M  V30 8888 C 830.177 1.35592 -1.8479 0
M  V30 8889 C 831.177 1.43743 -0.72073 0
M  V30 8890 O 832.367 1.43402 -0.989017 0
M  V30 8891 C 829.499 2.74091 -2.02699 0
M  V30 8892 H 830.692 1.10132 -2.78946 0
M  V30 8893 H 828.245 0.538926 -1.46715 0
M  V30 8894 H 828.98 3.04775 -1.10826 0
M  V30 8895 H 828.765 2.69565 -2.8474 0
M  V30 8896 H 830.255 3.50272 -2.27374 0
M  V30 8897 N 830.692 1.47107 0.565454 0
M  V30 8898 C 831.622 1.61846 1.68309 0
M  V30 8899 C 832.603 0.468159 1.63531 0
M  V30 8900 O 833.788 0.696504 1.8128 0
M  V30 8901 C 830.918 1.62474 3.06952 0
M  V30 8902 C 829.872 2.76649 3.26572 0
M  V30 8903 C 829.198 2.62345 4.65917 0
M  V30 8904 C 830.498 4.18319 3.12741 0
M  V30 8905 H 832.192 2.55407 1.5623 0
M  V30 8906 H 829.738 1.22916 0.750179 0
M  V30 8907 H 831.691 1.71378 3.84977 0
M  V30 8908 H 830.415 0.654692 3.19971 0
M  V30 8909 H 829.074 2.67242 2.50952 0
M  V30 8910 H 828.722 1.63386 4.75725 0
M  V30 8911 H 828.422 3.38936 4.79996 0
M  V30 8912 H 829.946 2.73165 5.46089 0
M  V30 8913 H 831.36 4.28745 3.80593 0
M  V30 8914 H 829.757 4.95632 3.38333 0
M  V30 8915 H 830.827 4.37263 2.09592 0
M  V30 8916 N 832.17 -0.811516 1.35101 0
M  V30 8917 C 833.395 -1.60499 1.31358 0
M  V30 8918 C 833.82 -1.87793 -0.107383 0
M  V30 8919 O 833.178 -1.46161 -1.07268 0
M  V30 8920 C 833.226 -2.91612 2.12119 0
M  V30 8921 O 832.33 -3.84211 1.49853 0
M  V30 8922 H 831.671 -0.487702 0.450603 0
M  V30 8923 H 834.201 -1.00758 1.7807 0
M  V30 8924 H 834.211 -3.4108 2.23894 0
M  V30 8925 H 832.886 -2.71071 3.15426 0
M  V30 8926 H 831.463 -3.42751 1.46889 0
M  V30 8927 N 833.648 -1.19017 -1.03309 0
M  V30 8928 C 834.873 -1.01598 -1.80811 0
M  V30 8929 C 835.298 0.430773 -1.83101 0
M  V30 8930 O 834.656 1.30946 -1.25391 0
M  V30 8931 C 834.704 -1.5845 -3.23923 0
M  V30 8932 O 833.808 -0.810972 -4.04348 0
M  V30 8933 H 833.149 -0.359398 -0.558327 0
M  V30 8934 H 835.679 -1.57945 -1.30055 0
M  V30 8935 H 835.689 -1.61486 -3.74682 0
M  V30 8936 H 834.364 -2.63752 -3.21571 0
M  V30 8937 H 832.941 -0.85353 -3.63 0
M  V30 8938 N 835.127 1.22348 -0.993418 0
M  V30 8939 C 836.06 2.22898 -0.489073 0
M  V30 8940 C 837.038 1.56222 0.450927 0
M  V30 8941 O 838.222 1.84705 0.376351 0
M  V30 8942 C 835.349 3.37448 0.290946 0
M  V30 8943 C 834.395 4.22328 -0.595123 0
M  V30 8944 S 835.228 4.94677 -2.05072 0
M  V30 8945 C 836.384 6.12667 -1.28021 0
M  V30 8946 H 836.617 2.65333 -1.34111 0
M  V30 8947 H 834.15 1.32032 -0.800429 0
M  V30 8948 H 836.108 4.03867 0.734944 0
M  V30 8949 H 834.769 2.93519 1.11826 0
M  V30 8950 H 833.962 5.04 0.00507413 0
M  V30 8951 H 833.564 3.61043 -0.975906 0
M  V30 8952 H 835.856 6.75279 -0.548129 0
M  V30 8953 H 836.799 6.771 -2.07223 0
M  V30 8954 H 837.207 5.58898 -0.793272 0
M  V30 8955 N 836.605 0.766683 1.37694 0
M  V30 8956 C 837.851 0.329201 2.0011 0
M  V30 8957 C 838.184 -1.09004 1.60723 0
M  V30 8958 O 837.459 -1.74895 0.850989 0
M  V30 8959 C 837.742 0.466989 3.57059 0
M  V30 8960 C 837.595 1.92828 4.06371 0
M  V30 8961 C 838.914 -0.131792 4.39903 0
M  V30 8962 H 836.033 0.12109 0.726984 0
M  V30 8963 H 838.675 0.968779 1.63446 0
M  V30 8964 H 836.825 -0.0775023 3.88423 0
M  V30 8965 H 838.497 2.53208 3.85595 0
M  V30 8966 H 836.74 2.43884 3.58752 0
M  V30 8967 H 837.411 1.97577 5.15429 0
M  V30 8968 H 839.887 0.332731 4.14768 0
M  V30 8969 H 838.763 -0.005217 5.489 0
M  V30 8970 H 839.024 -1.22156 4.24889 0
M  V30 8971 N 838.083 -1.48885 0.516809 0
M  V30 8972 C 839.013 -2.32241 -0.242157 0
M  V30 8973 C 839.994 -1.41258 -0.947633 0
M  V30 8974 O 841.179 -1.70156 -0.935973 0
M  V30 8975 C 838.309 -3.22151 -1.29754 0
M  V30 8976 C 837.263 -4.22053 -0.710995 0
M  V30 8977 C 836.589 -5.01007 -1.86806 0
M  V30 8978 C 837.889 -5.21388 0.30853 0
M  V30 8979 H 839.583 -2.95943 0.453651 0
M  V30 8980 H 837.129 -1.42316 0.219612 0
M  V30 8981 H 839.082 -3.79284 -1.83634 0
M  V30 8982 H 837.806 -2.56423 -2.02274 0
M  V30 8983 H 836.465 -3.66087 -0.193819 0
M  V30 8984 H 836.113 -4.31713 -2.58133 0
M  V30 8985 H 835.813 -5.68615 -1.48159 0
M  V30 8986 H 837.337 -5.60989 -2.4109 0
M  V30 8987 H 838.751 -5.73122 -0.142703 0
M  V30 8988 H 837.148 -5.96975 0.611673 0
M  V30 8989 H 838.218 -4.69329 1.21894 0
M  V30 8990 N 839.561 -0.251338 -1.55583 0
M  V30 8991 C 840.807 0.37272 -1.99346 0
M  V30 8992 C 841.14 1.57266 -1.13934 0
M  V30 8993 O 840.415 1.9343 -0.20377 0
M  V30 8994 C 840.698 0.778245 -3.5159 0
M  V30 8995 C 840.551 -0.427394 -4.47765 0
M  V30 8996 C 841.87 1.62358 -4.09057 0
M  V30 8997 H 838.989 0.134002 -0.724715 0
M  V30 8998 H 841.631 -0.353536 -1.86682 0
M  V30 8999 H 839.781 1.39704 -3.62512 0
M  V30 9000 H 841.453 -1.06586 -4.48818 0
M  V30 9001 H 839.696 -1.06972 -4.20404 0
M  V30 9002 H 840.367 -0.10025 -5.51909 0
M  V30 9003 H 842.843 1.1012 -4.01264 0
M  V30 9004 H 841.719 1.87617 -5.1584 0
M  V30 9005 H 841.98 2.59688 -3.57791 0
M  V30 9006 N 841.039 1.57585 0.0217189 0
M  V30 9007 C 842.45 1.7787 0.567377 0
M  V30 9008 C 842.801 0.883337 1.7519 0
M  V30 9009 O 841.926 0.0800819 2.16252 0
M  V30 9010 C 842.521 3.2257 1.03606 0
M  V30 9011 C 841.08 3.44026 1.52718 0
M  V30 9012 C 840.227 2.73313 0.468545 0
M  V30 9013 H 843.178 1.57377 -0.2045 0
M  V30 9014 H 843.199 3.29488 1.9031 0
M  V30 9015 H 842.711 3.87711 0.173739 0
M  V30 9016 H 840.812 2.8407 2.41111 0
M  V30 9017 H 840.925 4.52659 1.56962 0
M  V30 9018 H 839.289 2.37299 0.925263 0
M  V30 9019 H 840.072 3.41141 -0.384438 0
M  V30 9020 N 842.517 -0.29412 1.54831 0
M  V30 9021 C 843.766 -1.02614 1.73647 0
M  V30 9022 C 844.079 -1.88193 0.533162 0
M  V30 9023 O 845.285 -2.64713 0.603275 0
M  V30 9024 C 843.741 -1.87417 3.07251 0
M  V30 9025 C 843.349 -1.06806 4.35082 0
M  V30 9026 C 845.093 -2.60176 3.35423 0
M  V30 9027 C 843 -1.90926 5.59733 0
M  V30 9028 H 841.93 -0.386834 0.647206 0
M  V30 9029 H 844.581 -0.282789 1.81308 0
M  V30 9030 H 842.963 -2.65765 2.93572 0
M  V30 9031 H 844.137 -0.330226 4.59615 0
M  V30 9032 H 842.452 -0.455979 4.13896 0
M  V30 9033 H 845.049 -3.23476 4.25755 0
M  V30 9034 H 845.392 -3.29365 2.54606 0
M  V30 9035 H 845.925 -1.88871 3.50103 0
M  V30 9036 H 842.664 -1.26194 6.43238 0
M  V30 9037 H 842.184 -2.62363 5.39375 0
M  V30 9038 H 843.863 -2.48807 5.97247 0
M  V30 9039 N 843.995 -1.47404 -0.557645 0
M  V30 9040 C 845.225 -1.57393 -1.33832 0
M  V30 9041 C 845.633 -0.222978 -1.87881 0
M  V30 9042 O 844.976 0.793854 -1.65661 0
M  V30 9043 C 845.038 -2.53882 -2.54528 0
M  V30 9044 C 844.702 -3.99585 -2.21767 0
M  V30 9045 C 845.699 -4.88082 -1.79087 0
M  V30 9046 C 843.384 -4.44917 -2.3314 0
M  V30 9047 C 845.378 -6.1993 -1.48209 0
M  V30 9048 C 843.065 -5.76793 -2.01874 0
M  V30 9049 C 844.063 -6.64121 -1.59476 0
M  V30 9050 O 843.751 -7.93546 -1.28607 0
M  V30 9051 H 843.483 -0.534172 -0.41429 0
M  V30 9052 H 846.037 -1.93733 -0.682404 0
M  V30 9053 H 844.267 -2.12609 -3.23009 0
M  V30 9054 H 845.956 -2.54003 -3.16603 0
M  V30 9055 H 846.722 -4.54307 -1.69794 0
M  V30 9056 H 842.601 -3.77152 -2.65099 0
M  V30 9057 H 846.145 -6.88049 -1.15043 0
M  V30 9058 H 842.042 -6.1011 -2.10799 0
M  V30 9059 H 842.81 -8.06046 -1.42241 0
M  V30 9060 N 845.473 0.80434 -1.35529 0
M  V30 9061 C 846.719 1.56385 -1.29118 0
M  V30 9062 C 847.052 1.9374 0.133536 0
M  V30 9063 O 846.327 1.6153 1.08344 0
M  V30 9064 C 846.61 2.85097 -2.19981 0
M  V30 9065 C 846.463 2.54204 -3.7108 0
M  V30 9066 C 847.782 3.86817 -2.09907 0
M  V30 9067 H 844.901 0.567382 -0.470368 0
M  V30 9068 H 847.543 0.925235 -1.6595 0
M  V30 9069 H 845.693 3.39594 -1.88701 0
M  V30 9070 H 847.365 2.05872 -4.12813 0
M  V30 9071 H 845.608 1.87364 -3.91251 0
M  V30 9072 H 846.279 3.46068 -4.30048 0
M  V30 9073 H 848.755 3.41725 -2.37409 0
M  V30 9074 H 847.631 4.7465 -2.75678 0
M  V30 9075 H 847.892 4.28663 -1.08171 0
M  V30 9076 N 846.951 1.19563 1.02676 0
M  V30 9077 C 848.2 0.993864 1.75514 0
M  V30 9078 C 848.513 -0.475882 1.89723 0
M  V30 9079 O 849.719 -0.796525 2.59553 0
M  V30 9080 C 848.175 1.72937 3.15628 0
M  V30 9081 C 847.783 3.23937 3.09466 0
M  V30 9082 C 849.527 1.61092 3.92746 0
M  V30 9083 C 847.434 3.90067 4.44524 0
M  V30 9084 H 846.364 0.368244 0.657961 0
M  V30 9085 H 849.015 1.43081 1.14891 0
M  V30 9086 H 847.397 1.22025 3.76731 0
M  V30 9087 H 848.571 3.81983 2.57731 0
M  V30 9088 H 846.886 3.3608 2.45843 0
M  V30 9089 H 849.483 2.07848 4.92649 0
M  V30 9090 H 849.826 0.565415 4.12442 0
M  V30 9091 H 850.359 2.09361 3.3825 0
M  V30 9092 H 847.098 4.94725 4.30032 0
M  V30 9093 H 846.618 3.36809 4.96306 0
M  V30 9094 H 848.297 3.93736 5.13401 0
M  V30 9095 N 848.429 -1.21819 0.999893 0
M  V30 9096 C 849.659 -1.94475 0.697346 0
M  V30 9097 C 850.067 -1.73991 -0.743228 0
M  V30 9098 O 849.41 -1.04042 -1.51397 0
M  V30 9099 C 849.472 -3.47204 0.932181 0
M  V30 9100 C 849.136 -3.91432 2.3586 0
M  V30 9101 C 850.133 -3.98545 3.33853 0
M  V30 9102 C 847.818 -4.23888 2.69489 0
M  V30 9103 C 849.812 -4.37499 4.63545 0
M  V30 9104 C 847.499 -4.62519 3.99399 0
M  V30 9105 C 848.497 -4.69294 4.96238 0
M  V30 9106 O 848.185 -5.07048 6.23825 0
M  V30 9107 H 847.917 -0.625419 0.256567 0
M  V30 9108 H 850.471 -1.55728 1.33933 0
M  V30 9109 H 848.701 -3.85997 0.233025 0
M  V30 9110 H 850.39 -4.01078 0.623807 0
M  V30 9111 H 851.156 -3.73654 3.09205 0
M  V30 9112 H 847.035 -4.17815 1.94812 0
M  V30 9113 H 850.579 -4.42702 5.3913 0
M  V30 9114 H 846.476 -4.86864 4.23833 0
M  V30 9115 H 847.244 -5.25098 6.27865 0
M  V30 9116 N 849.908 -0.773975 -1.37286 0
M  V30 9117 C 850.855 -0.159938 -2.30245 0
M  V30 9118 C 851.825 0.687356 -1.51211 0
M  V30 9119 O 853.01 0.639255 -1.79773 0
M  V30 9120 C 850.15 0.711452 -3.37687 0
M  V30 9121 C 849.263 -0.152692 -4.3173 0
M  V30 9122 C 848.398 0.723613 -5.26248 0
M  V30 9123 C 847.437 -0.14293 -6.11933 0
M  V30 9124 N 846.574 0.691479 -6.98687 0
M  V30 9125 H 851.414 -0.958182 -2.82175 0
M  V30 9126 H 848.951 -0.48411 -1.38906 0
M  V30 9127 H 850.909 1.2315 -3.9861 0
M  V30 9128 H 849.539 1.47528 -2.87116 0
M  V30 9129 H 848.591 -0.790574 -3.72094 0
M  V30 9130 H 849.903 -0.821027 -4.91997 0
M  V30 9131 H 849.057 1.31006 -5.92387 0
M  V30 9132 H 847.796 1.42562 -4.66398 0
M  V30 9133 H 846.801 -0.7419 -5.44771 0
M  V30 9134 H 848.026 -0.842305 -6.73856 0
M  V30 9135 H 845.972 1.37806 -6.41362 0
M  V30 9136 H 845.889 0.0804911 -7.55957 0
M  V30 9137 H 847.157 1.26225 -7.69212 0
M  V30 9138 N 851.386 1.48609 -0.524698 0
M  V30 9139 C 852.633 2.02497 0.0113214 0
M  V30 9140 C 852.961 1.40229 1.34781 0
M  V30 9141 O 852.216 0.53557 1.88229 0
M  V30 9142 C 852.515 3.56906 0.187873 0
M  V30 9143 C 852.181 4.37932 -1.07359 0
M  V30 9144 C 850.843 4.59792 -1.41933 0
M  V30 9145 C 853.195 4.84902 -1.911 0
M  V30 9146 C 850.523 5.25868 -2.60154 0
M  V30 9147 C 852.875 5.52281 -3.08495 0
M  V30 9148 C 851.539 5.7238 -3.4342 0
M  V30 9149 H 850.809 0.740988 0.0041428 0
M  V30 9150 H 853.456 1.78651 -0.689652 0
M  V30 9151 H 851.761 3.79563 0.971572 0
M  V30 9152 H 853.458 3.96218 0.617443 0
M  V30 9153 H 850.048 4.21175 -0.794331 0
M  V30 9154 H 854.232 4.67821 -1.65701 0
M  V30 9155 H 849.488 5.39628 -2.87422 0
M  V30 9156 H 853.662 5.87645 -3.73692 0
M  V30 9157 H 851.289 6.23354 -4.35126 0
M  V30 9158 N 852.864 0.259585 1.55447 0
M  V30 9159 C 853.794 -0.62852 2.24882 0
M  V30 9160 C 854.775 -1.17128 1.23349 0
M  V30 9161 O 855.96 -1.20829 1.52033 0
M  V30 9162 C 853.09 -1.81983 2.95803 0
M  V30 9163 C 852.044 -1.40929 4.04132 0
M  V30 9164 C 851.37 -2.68246 4.62545 0
M  V30 9165 C 852.67 -0.570956 5.1917 0
M  V30 9166 H 854.364 -0.0495021 2.99359 0
M  V30 9167 H 851.91 -0.0223688 1.43983 0
M  V30 9168 H 853.863 -2.44689 3.43082 0
M  V30 9169 H 852.587 -2.42444 2.18835 0
M  V30 9170 H 851.246 -0.805519 3.57641 0
M  V30 9171 H 850.894 -3.26931 3.82263 0
M  V30 9172 H 850.594 -2.41495 5.35681 0
M  V30 9173 H 852.118 -3.31827 5.12565 0
M  V30 9174 H 853.532 -1.10262 5.62597 0
M  V30 9175 H 851.929 -0.398979 5.98772 0
M  V30 9176 H 852.999 0.413918 4.8313 0
M  V30 9177 N 854.342 -1.57594 -0.0133615 0
M  V30 9178 C 855.567 -1.94649 -0.715996 0
M  V30 9179 C 855.992 -0.860786 -1.67249 0
M  V30 9180 O 855.35 0.182228 -1.80382 0
M  V30 9181 C 855.398 -3.30789 -1.43566 0
M  V30 9182 O 854.502 -3.24148 -2.54955 0
M  V30 9183 H 853.843 -0.635801 -0.191449 0
M  V30 9184 H 856.373 -2.04569 0.0358478 0
M  V30 9185 H 856.383 -3.66045 -1.80208 0
M  V30 9186 H 855.058 -4.09367 -0.734263 0
M  V30 9187 H 853.635 -3.00548 -2.20739 0
M  V30 9188 N 855.82 0.285905 -1.54985 0
M  V30 9189 C 857.048 1.03776 -1.78992 0
M  V30 9190 C 857.463 1.80402 -0.556814 0
M  V30 9191 O 856.82 1.76242 0.473801 0
M  V30 9192 C 856.871 2.0065 -3.00702 0
M  V30 9193 O 856.592 1.27131 -4.19249 0
M  V30 9194 C 858.093 2.87753 -3.37214 0
M  V30 9195 H 855.313 0.307126 -0.596586 0
M  V30 9196 H 857.857 0.3206 -2.01971 0
M  V30 9197 H 856.012 2.67847 -2.79887 0
M  V30 9198 H 856.426 1.92316 -4.8797 0
M  V30 9199 H 857.9 3.51548 -4.2558 0
M  V30 9200 H 858.377 3.56848 -2.56039 0
M  V30 9201 H 858.983 2.26065 -3.60242 0
M  V30 9202 N 857.298 1.47698 0.54982 0
M  V30 9203 C 858.23 1.56806 1.67166 0
M  V30 9204 C 859.243 0.453709 1.5635 0
M  V30 9205 O 860.432 0.723663 1.63173 0
M  V30 9206 C 857.532 1.4632 3.05686 0
M  V30 9207 C 856.705 2.72452 3.42182 0
M  V30 9208 C 855.764 2.55698 4.59897 0
M  V30 9209 O 854.79 3.29534 4.64108 0
M  V30 9210 N 855.992 1.64009 5.56849 0
M  V30 9211 H 858.757 2.53545 1.59797 0
M  V30 9212 H 856.318 1.44171 0.736635 0
M  V30 9213 H 858.31 1.32835 3.82279 0
M  V30 9214 H 856.88 0.57634 3.07241 0
M  V30 9215 H 856.1 3.00644 2.54964 0
M  V30 9216 H 857.388 3.56172 3.63344 0
M  V30 9217 H 856.786 1.03186 5.5621 0
M  V30 9218 H 855.343 1.56473 6.3274 0
M  V30 9219 N 858.776 -0.797141 1.35954 0
M  V30 9220 C 860.024 -1.55161 1.29497 0
M  V30 9221 C 860.345 -1.94582 -0.127659 0
M  V30 9222 O 859.615 -1.64343 -1.06622 0
M  V30 9223 H 858.195 -0.575413 0.47635 0
M  V30 9224 H 860.857 -0.950282 1.70164 0
M  V30 9225 H 859.953 -2.46272 1.9172 0
M  V30 9226 N 860.254 -1.20106 -1.0204 0
M  V30 9227 C 861.479 -1.0351 -1.79723 0
M  V30 9228 C 861.904 0.411328 -1.83548 0
M  V30 9229 O 861.262 1.29608 -1.26773 0
M  V30 9230 C 861.31 -1.61876 -3.22224 0
M  V30 9231 O 860.414 -0.853813 -4.03465 0
M  V30 9232 H 859.755 -0.365299 -0.554484 0
M  V30 9233 H 862.285 -1.59316 -1.28373 0
M  V30 9234 H 862.295 -1.65451 -3.72948 0
M  V30 9235 H 860.97 -2.67148 -3.18755 0
M  V30 9236 H 859.547 -0.891983 -3.62075 0
M  V30 9237 N 861.732 1.21287 -1.00634 0
M  V30 9238 C 862.662 2.25973 -0.588089 0
M  V30 9239 C 863.643 1.65527 0.391764 0
M  V30 9240 O 864.828 1.92179 0.279452 0
M  V30 9241 C 861.958 3.47197 0.0847336 0
M  V30 9242 C 860.912 4.20168 -0.815039 0
M  V30 9243 C 860.238 5.34699 -0.00855393 0
M  V30 9244 C 861.538 4.77416 -2.11828 0
M  V30 9245 H 863.232 2.61212 -1.46317 0
M  V30 9246 H 860.778 1.25563 -0.704985 0
M  V30 9247 H 862.731 4.19602 0.388821 0
M  V30 9248 H 861.455 3.11092 0.994456 0
M  V30 9249 H 860.114 3.49614 -1.10297 0
M  V30 9250 H 859.762 4.94837 0.902499 0
M  V30 9251 H 859.462 5.84449 -0.607664 0
M  V30 9252 H 860.986 6.09914 0.289317 0
M  V30 9253 H 862.4 5.41694 -1.87725 0
M  V30 9254 H 860.797 5.37561 -2.66736 0
M  V30 9255 H 861.867 3.96724 -2.78816 0
M  V30 9256 N 863.21 0.781244 1.36873 0
M  V30 9257 C 864.456 0.359455 2.00199 0
M  V30 9258 C 864.811 -1.05495 1.60899 0
M  V30 9259 O 864.104 -1.7173 0.849664 0
M  V30 9260 C 864.298 0.45146 3.54537 0
M  V30 9261 C 864.127 1.87326 4.08826 0
M  V30 9262 C 862.897 2.49606 4.39346 0
M  V30 9263 C 865.095 2.8342 4.29159 0
M  V30 9264 N 863.077 3.8346 4.79408 0
M  V30 9265 C 864.448 4.02091 4.71935 0
M  V30 9266 C 866.503 2.80583 4.11312 0
M  V30 9267 C 865.206 5.18322 4.98733 0
M  V30 9268 C 867.232 3.95995 4.39251 0
M  V30 9269 C 866.594 5.13409 4.82276 0
M  V30 9270 H 862.693 0.178778 0.76129 0
M  V30 9271 H 865.277 1.0171 1.66022 0
M  V30 9272 H 863.448 -0.176055 3.88001 0
M  V30 9273 H 865.18 0.00670219 4.04699 0
M  V30 9274 H 861.935 2.01149 4.28761 0
M  V30 9275 H 862.359 4.52306 5.03735 0
M  V30 9276 H 867.001 1.90974 3.77212 0
M  V30 9277 H 864.719 6.08524 5.31718 0
M  V30 9278 H 868.305 3.95152 4.2702 0
M  V30 9279 H 867.185 6.01232 5.03478 0
M  V30 9280 N 864.689 -1.48329 0.532571 0
M  V30 9281 C 865.599 -2.33445 -0.232546 0
M  V30 9282 C 866.615 -1.46651 -0.93645 0
M  V30 9283 O 867.791 -1.79627 -0.910834 0
M  V30 9284 C 864.856 -3.22824 -1.26434 0
M  V30 9285 C 863.917 -4.25492 -0.570511 0
M  V30 9286 C 863.15 -5.10601 -1.55315 0
M  V30 9287 O 863.373 -4.97733 -2.78599 0
M  V30 9288 O 862.307 -5.91927 -1.09112 0
M  V30 9289 H 866.133 -3.00119 0.464988 0
M  V30 9290 H 863.718 -1.46489 0.293462 0
M  V30 9291 H 865.6 -3.78103 -1.86055 0
M  V30 9292 H 864.275 -2.58807 -1.94424 0
M  V30 9293 H 863.182 -3.74041 0.0662587 0
M  V30 9294 H 864.515 -4.92154 0.0674904 0
M  V30 9295 N 866.167 -0.267825 -1.55308 0
M  V30 9296 C 867.583 0.0865107 -1.59365 0
M  V30 9297 C 867.783 1.55205 -1.28505 0
M  V30 9298 O 866.839 2.29978 -1.04241 0
M  V30 9299 C 868.152 -0.28155 -2.99379 0
M  V30 9300 C 869.7 -0.227565 -3.12172 0
M  V30 9301 C 870.175 -0.569959 -4.5444 0
M  V30 9302 N 871.666 -0.521238 -4.60258 0
M  V30 9303 C 872.401 -0.759061 -5.68354 0
M  V30 9304 N 871.897 -1.06112 -6.84626 0
M  V30 9305 N 873.69 -0.688351 -5.57869 0
M  V30 9306 H 865.841 -1.22332 -1.73633 0
M  V30 9307 H 868.104 -0.493703 -0.809297 0
M  V30 9308 H 867.81 -1.3005 -3.26772 0
M  V30 9309 H 867.684 0.381192 -3.75269 0
M  V30 9310 H 870.071 0.782093 -2.84548 0
M  V30 9311 H 870.152 -0.924461 -2.38511 0
M  V30 9312 H 869.796 -1.57727 -4.82788 0
M  V30 9313 H 869.726 0.148646 -5.2639 0
M  V30 9314 H 872.217 -0.297359 -3.76728 0
M  V30 9315 H 872.53 -1.22945 -7.62958 0
M  V30 9316 H 870.875 -1.09881 -6.86259 0
M  V30 9317 H 874.066 -0.452268 -4.6591 0
M  V30 9318 H 874.239 -0.877081 -6.42037 0
M  V30 9319 N 867.645 1.57599 0.00500368 0
M  V30 9320 C 868.575 2.11143 0.99705 0
M  V30 9321 C 869.556 1.0194 1.3617 0
M  V30 9322 O 870.741 1.29596 1.44632 0
M  V30 9323 C 867.871 2.61062 2.2905 0
M  V30 9324 C 866.825 3.74745 2.0676 0
M  V30 9325 C 866.151 4.10961 3.42075 0
M  V30 9326 C 867.451 5.02222 1.43424 0
M  V30 9327 H 869.145 2.94281 0.551251 0
M  V30 9328 H 866.691 1.41565 0.263715 0
M  V30 9329 H 868.644 2.97146 2.98801 0
M  V30 9330 H 867.368 1.75038 2.75734 0
M  V30 9331 H 866.027 3.39047 1.39436 0
M  V30 9332 H 865.675 3.21968 3.86453 0
M  V30 9333 H 865.375 4.87549 3.27979 0
M  V30 9334 H 866.899 4.49599 4.1315 0
M  V30 9335 H 868.313 5.36109 2.03125 0
M  V30 9336 H 866.71 5.83581 1.39831 0
M  V30 9337 H 867.78 4.83224 0.40285 0
M  V30 9338 N 869.123 -0.277682 1.55134 0
M  V30 9339 C 870.086 -1.32635 1.86924 0
M  V30 9340 C 871.086 -1.42578 0.743507 0
M  V30 9341 O 872.276 -1.4181 1.01171 0
M  V30 9342 C 869.408 -2.70832 2.07034 0
M  V30 9343 H 870.601 -1.0568 2.80663 0
M  V30 9344 H 868.154 -0.515517 1.47554 0
M  V30 9345 H 868.889 -3.02974 1.15661 0
M  V30 9346 H 868.674 -2.65001 2.88993 0
M  V30 9347 H 870.164 -3.46611 2.32918 0
M  V30 9348 N 870.601 -1.47988 -0.541979 0
M  V30 9349 C 871.831 -1.58804 -1.32155 0
M  V30 9350 C 872.239 -0.242893 -1.87634 0
M  V30 9351 O 871.582 0.776239 -1.66494 0
M  V30 9352 C 871.644 -2.56567 -2.51821 0
M  V30 9353 C 871.308 -4.01915 -2.17517 0
M  V30 9354 C 872.305 -4.89954 -1.73901 0
M  V30 9355 C 869.99 -4.47365 -2.28408 0
M  V30 9356 C 871.984 -6.21467 -1.41625 0
M  V30 9357 C 869.671 -5.78902 -1.95745 0
M  V30 9358 C 870.669 -6.65775 -1.52423 0
M  V30 9359 O 870.357 -7.94866 -1.20183 0
M  V30 9360 H 870.089 -0.538536 -0.408601 0
M  V30 9361 H 872.643 -1.94446 -0.661818 0
M  V30 9362 H 870.873 -2.16023 -3.20735 0
M  V30 9363 H 872.562 -2.57347 -3.13891 0
M  V30 9364 H 873.328 -4.56082 -1.64966 0
M  V30 9365 H 869.207 -3.79942 -2.61084 0
M  V30 9366 H 872.751 -6.8923 -1.07738 0
M  V30 9367 H 868.648 -6.12311 -2.04316 0
M  V30 9368 H 869.416 -8.07509 -1.33683 0
M  V30 9369 N 872.079 0.78992 -1.36375 0
M  V30 9370 C 873.327 1.54472 -1.30319 0
M  V30 9371 C 873.648 1.94647 0.117338 0
M  V30 9372 O 872.918 1.64906 1.05748 0
M  V30 9373 H 871.498 0.572879 -0.479394 0
M  V30 9374 H 874.16 0.941245 -1.70665 0
M  V30 9375 H 873.256 2.45252 -1.93024 0
M  V30 9376 N 873.557 1.20646 1.01402 0
M  V30 9377 C 874.806 1.01242 1.7445 0
M  V30 9378 C 875.119 -0.455732 1.90217 0
M  V30 9379 O 876.325 -0.768951 2.60383 0
M  V30 9380 C 874.781 1.76275 3.13776 0
M  V30 9381 C 874.389 3.27201 3.06013 0
M  V30 9382 C 876.133 1.65248 3.91016 0
M  V30 9383 C 874.04 3.9476 4.40362 0
M  V30 9384 H 872.97 0.375202 0.654018 0
M  V30 9385 H 875.621 1.44292 1.13367 0
M  V30 9386 H 874.003 1.26013 3.75415 0
M  V30 9387 H 875.177 3.84695 2.53665 0
M  V30 9388 H 873.492 3.38669 2.42265 0
M  V30 9389 H 876.089 2.13061 4.90417 0
M  V30 9390 H 876.432 0.609128 4.1182 0
M  V30 9391 H 876.965 2.12937 3.3601 0
M  V30 9392 H 873.704 4.99258 4.24761 0
M  V30 9393 H 873.224 3.42054 4.92706 0
M  V30 9394 H 874.903 3.99159 5.09196 0
M  V30 9395 N 875.035 -1.20752 1.01276 0
M  V30 9396 C 876.263 -1.94006 0.718976 0
M  V30 9397 C 876.678 -1.74544 -0.719711 0
M  V30 9398 O 876.035 -1.05697 -1.48776 0
M  V30 9399 C 876.086 -3.46208 1.04031 0
M  V30 9400 O 875.807 -3.65031 2.42248 0
M  V30 9401 C 877.308 -4.36614 0.767032 0
M  V30 9402 H 874.528 -0.616743 0.264327 0
M  V30 9403 H 877.072 -1.53352 1.3529 0
M  V30 9404 H 875.227 -3.84756 0.451852 0
M  V30 9405 H 875.641 -4.59054 2.53712 0
M  V30 9406 H 877.115 -5.42076 1.04198 0
M  V30 9407 H 877.592 -4.38182 -0.298851 0
M  V30 9408 H 878.198 -4.03723 1.33746 0
M  V30 9409 N 876.513 -0.788492 -1.36457 0
M  V30 9410 C 877.924 -0.423742 -1.81828 0
M  V30 9411 C 878.275 1.05221 -1.65599 0
M  V30 9412 O 877.4 1.8163 -1.17641 0
M  V30 9413 C 877.995 -0.762354 -3.30112 0
M  V30 9414 C 876.554 -0.450445 -3.73695 0
M  V30 9415 C 875.701 -0.997482 -2.58738 0
M  V30 9416 H 878.652 -0.981718 -1.24692 0
M  V30 9417 H 878.673 -0.0531136 -3.80463 0
M  V30 9418 H 878.185 -1.83662 -3.41891 0
M  V30 9419 H 876.286 0.615829 -3.67476 0
M  V30 9420 H 876.399 -0.970408 -4.69169 0
M  V30 9421 H 874.763 -0.420761 -2.51201 0
M  V30 9422 H 875.546 -2.07749 -2.73304 0
M  V30 9423 N 877.991 1.48044 -0.54043 0
M  V30 9424 C 878.901 2.33565 0.220163 0
M  V30 9425 C 879.917 1.47146 0.928659 0
M  V30 9426 O 881.093 1.80107 0.901295 0
M  V30 9427 C 878.158 3.2349 1.2472 0
M  V30 9428 C 877.219 4.25789 0.547938 0
M  V30 9429 C 876.452 5.11417 1.52605 0
M  V30 9430 O 876.675 4.99204 2.75956 0
M  V30 9431 O 875.609 5.92498 1.05972 0
M  V30 9432 H 879.435 2.99868 -0.480898 0
M  V30 9433 H 877.02 1.46332 -0.301226 0
M  V30 9434 H 878.902 3.79084 1.84047 0
M  V30 9435 H 877.577 2.59835 1.93048 0
M  V30 9436 H 876.484 3.74001 -0.0860941 0
M  V30 9437 H 877.817 4.92111 -0.0935896 0
M  V30 9438 N 879.47 0.276058 1.55163 0
M  V30 9439 C 880.418 -0.626978 2.2399 0
M  V30 9440 C 881.412 -1.15708 1.23725 0
M  V30 9441 O 882.618 -1.1106 1.41653 0
M  V30 9442 H 878.993 -0.220742 0.718872 0
M  V30 9443 H 880.964 -0.0236569 2.98391 0
M  V30 9444 C 879.713 -1.79935 2.97521 0
M  V30 9445 H 879.036 -1.40064 3.74463 0
M  V30 9446 H 880.476 -2.40781 3.48999 0
M  V30 9447 C 878.935 -2.68838 2.03046 0
M  V30 9448 O 879.465 -3.69224 1.58229 0
M  V30 9449 N 877.671 -2.36028 1.69527 0
M  V30 9450 H 877.218 -1.54442 2.06169 0
M  V30 9451 H 877.176 -2.95782 1.06586 0
M  V30 9452 N 880.948 -1.576 0.00335426 0
M  V30 9453 C 881.858 -2.12067 -1.00322 0
M  V30 9454 C 882.874 -1.06672 -1.37467 0
M  V30 9455 O 884.05 -1.38592 -1.46131 0
M  V30 9456 C 881.115 -2.61593 -2.27531 0
M  V30 9457 C 880.176 -3.81602 -1.96668 0
M  V30 9458 C 879.409 -4.28756 -3.17811 0
M  V30 9459 O 879.632 -3.75222 -4.2961 0
M  V30 9460 O 878.566 -5.20877 -3.01613 0
M  V30 9461 H 882.392 -2.98299 -0.570199 0
M  V30 9462 H 879.977 -1.47835 -0.215682 0
M  V30 9463 H 881.859 -2.93631 -3.02256 0
M  V30 9464 H 880.534 -1.78457 -2.70065 0
M  V30 9465 H 879.441 -3.54531 -1.19408 0
M  V30 9466 H 880.774 -4.65822 -1.58968 0
M  V30 9467 N 882.426 0.269451 -1.5528 0
M  V30 9468 C 883.376 1.33553 -1.84791 0
M  V30 9469 C 884.36 1.44532 -0.707067 0
M  V30 9470 O 885.552 1.48153 -0.968493 0
M  V30 9471 C 882.681 2.69516 -2.12641 0
M  V30 9472 C 881.767 2.62633 -3.32993 0
M  V30 9473 N 882.158 2.25371 -4.52815 0
M  V30 9474 C 880.456 2.93688 -3.35654 0
M  V30 9475 C 881.157 2.28567 -5.34913 0
M  V30 9476 N 880.133 2.67181 -4.73408 0
M  V30 9477 H 883.935 1.03758 -2.74976 0
M  V30 9478 H 881.449 0.478087 -1.55203 0
M  V30 9479 H 883.446 3.46424 -2.3194 0
M  V30 9480 H 882.106 3.00197 -1.23742 0
M  V30 9481 H 883.117 1.9729 -4.7885 0
M  V30 9482 H 879.794 3.29057 -2.56958 0
M  V30 9483 H 881.184 2.02289 -6.40725 0
M  V30 9484 N 883.904 1.48273 0.534124 0
M  V30 9485 C 884.854 1.58889 1.63519 0
M  V30 9486 C 885.838 0.44626 1.54588 0
M  V30 9487 O 887.03 0.697474 1.62679 0
M  V30 9488 C 884.159 1.62787 3.0225 0
M  V30 9489 C 883.245 2.82515 3.16301 0
M  V30 9490 N 883.636 4.06977 3.00338 0
M  V30 9491 C 881.934 2.7976 3.47347 0
M  V30 9492 C 882.635 4.87283 3.17694 0
M  V30 9493 N 881.611 4.20024 3.45081 0
M  V30 9494 H 885.413 2.52869 1.49781 0
M  V30 9495 H 882.927 1.44587 0.739479 0
M  V30 9496 H 884.924 1.68486 3.81337 0
M  V30 9497 H 883.584 0.699201 3.17082 0
M  V30 9498 H 884.595 4.37479 2.77186 0
M  V30 9499 H 881.272 1.96132 3.68563 0
M  V30 9500 H 882.662 5.96047 3.10126 0
M  V30 9501 N 885.382 -0.782676 1.36792 0
M  V30 9502 C 886.312 -1.90973 1.34356 0
M  V30 9503 C 887.293 -1.6875 0.213917 0
M  V30 9504 O 888.478 -1.89766 0.412601 0
M  V30 9505 C 885.608 -3.28097 1.13884 0
M  V30 9506 C 884.562 -3.6486 2.23744 0
M  V30 9507 C 883.888 -5.00406 1.88408 0
M  V30 9508 C 885.188 -3.72742 3.6587 0
M  V30 9509 H 886.882 -1.93268 2.28665 0
M  V30 9510 H 884.428 -0.928447 1.10072 0
M  V30 9511 H 886.381 -4.06569 1.10813 0
M  V30 9512 H 885.105 -3.26206 0.160275 0
M  V30 9513 H 883.764 -2.88689 2.25952 0
M  V30 9514 H 883.412 -4.95044 0.891083 0
M  V30 9515 H 883.112 -5.25973 2.61966 0
M  V30 9516 H 884.636 -5.81291 1.86905 0
M  V30 9517 H 886.05 -4.4139 3.65852 0
M  V30 9518 H 884.447 -4.09798 4.38389 0
M  V30 9519 H 885.517 -2.73676 4.00287 0
M  V30 9520 N 886.86 -1.21182 -1.00761 0
M  V30 9521 C 888.106 -1.02898 -1.74756 0
M  V30 9522 C 888.439 0.436774 -1.89225 0
M  V30 9523 O 887.714 1.32415 -1.42466 0
M  V30 9524 C 887.997 -1.72372 -3.16164 0
M  V30 9525 C 887.85 -3.2645 -3.09435 0
M  V30 9526 C 889.169 -1.46415 -4.15031 0
M  V30 9527 H 886.288 -0.375214 -0.634337 0
M  V30 9528 H 888.93 -1.49321 -1.17487 0
M  V30 9529 H 887.08 -1.32906 -3.65059 0
M  V30 9530 H 888.752 -3.75269 -2.68274 0
M  V30 9531 H 886.995 -3.56889 -2.46603 0
M  V30 9532 H 887.666 -3.70226 -4.09435 0
M  V30 9533 H 890.142 -1.80671 -3.7483 0
M  V30 9534 H 889.018 -1.97544 -5.12121 0
M  V30 9535 H 889.279 -0.39361 -4.40344 0
M  V30 9536 N 888.338 1.20213 -1.01915 0
M  V30 9537 C 889.301 2.21307 -0.596327 0
M  V30 9538 C 890.301 1.57274 0.334879 0
M  V30 9539 O 891.491 1.73764 0.12322 0
M  V30 9540 C 888.623 3.40657 0.128808 0
M  V30 9541 H 889.816 2.60228 -1.49068 0
M  V30 9542 H 887.369 1.33721 -0.809226 0
M  V30 9543 H 888.104 3.07241 1.03796 0
M  V30 9544 H 887.889 3.88361 -0.540183 0
M  V30 9545 H 889.379 4.15564 0.411892 0
M  V30 9546 N 889.816 0.795718 1.36037 0
M  V30 9547 C 890.748 0.156336 2.28666 0
M  V30 9548 C 891.761 -0.638075 1.49775 0
M  V30 9549 O 892.95 -0.472222 1.7214 0
M  V30 9550 C 890.05 -0.801417 3.29288 0
M  V30 9551 C 889.223 -0.0557118 4.37365 0
M  V30 9552 C 888.282 -0.930338 5.1791 0
M  V30 9553 O 887.308 -0.385266 5.67895 0
M  V30 9554 N 888.51 -2.25382 5.34961 0
M  V30 9555 H 891.275 0.952033 2.84177 0
M  V30 9556 H 888.836 0.650189 1.48271 0
M  V30 9557 H 890.828 -1.39051 3.80062 0
M  V30 9558 H 889.398 -1.49796 2.74372 0
M  V30 9559 H 888.618 0.714508 3.87671 0
M  V30 9560 H 889.906 0.458633 5.06729 0
M  V30 9561 H 889.304 -2.72073 4.95977 0
M  V30 9562 H 887.861 -2.79241 5.88955 0
M  V30 9563 N 891.294 -1.47756 0.548274 0
M  V30 9564 C 892.71 -1.58247 0.207401 0
M  V30 9565 C 892.91 -1.54804 -1.28988 0
M  V30 9566 O 891.966 -1.44673 -2.06944 0
M  V30 9567 C 893.279 -2.89129 0.826142 0
M  V30 9568 C 894.827 -3.02695 0.79655 0
M  V30 9569 C 895.302 -4.36264 1.3942 0
M  V30 9570 N 896.793 -4.42877 1.35698 0
M  V30 9571 C 897.528 -5.44773 1.78913 0
M  V30 9572 N 897.024 -6.53528 2.29942 0
M  V30 9573 N 898.817 -5.35765 1.70038 0
M  V30 9574 H 890.968 -1.48236 1.52117 0
M  V30 9575 H 893.231 -0.704957 0.633829 0
M  V30 9576 H 892.937 -2.97358 1.87806 0
M  V30 9577 H 892.811 -3.75891 0.313916 0
M  V30 9578 H 895.198 -2.94067 -0.246655 0
M  V30 9579 H 895.279 -2.17496 1.34644 0
M  V30 9580 H 894.923 -4.45646 2.43642 0
M  V30 9581 H 894.853 -5.20179 0.819827 0
M  V30 9582 H 897.344 -3.64874 0.983623 0
M  V30 9583 H 897.657 -7.27441 2.60863 0
M  V30 9584 H 896.002 -6.54442 2.33947 0
M  V30 9585 H 899.193 -4.49699 1.29955 0
M  V30 9586 H 899.366 -6.1504 2.04035 0
M  V30 9587 N 892.772 -0.284283 -1.55015 0
M  V30 9588 C 894.049 0.382125 -1.91831 0
M  V30 9589 C 894.429 1.73007 -1.20962 0
M  V30 9590 O 893.777 2.25962 -0.339594 0
M  V30 9591 C 893.987 0.513341 -3.45204 0
M  V30 9592 C 895.335 0.791989 -4.17148 0
M  V30 9593 O 896.359 0.597799 -3.51148 0
M  V30 9594 O 895.218 1.16394 -5.33961 0
M  V30 9595 H 892.312 0.210707 -0.799707 0
M  V30 9596 H 894.858 -0.331111 -1.66438 0
M  V30 9597 H 893.63 -0.434911 -3.88876 0
M  V30 9598 H 893.253 1.27569 -3.76579 0
M  V30 9599 N 894.251 1.57596 -0.0117121 0
M  V30 9600 C 895.5 1.9025 0.669921 0
M  V30 9601 C 895.813 0.887986 1.74282 0
M  V30 9602 O 897.019 1.10516 2.47989 0
M  V30 9603 C 895.475 3.37762 1.24277 0
M  V30 9604 C 895.083 4.47535 0.204076 0
M  V30 9605 C 896.827 3.79509 1.90192 0
M  V30 9606 C 894.734 5.86132 0.787577 0
M  V30 9607 H 893.664 0.709935 0.253984 0
M  V30 9608 H 896.315 1.8335 -0.0741718 0
M  V30 9609 H 894.697 3.39537 2.03791 0
M  V30 9610 H 895.871 4.57294 -0.56733 0
M  V30 9611 H 894.186 4.14881 -0.355305 0
M  V30 9612 H 896.783 4.80402 2.34773 0
M  V30 9613 H 897.126 3.13643 2.7374 0
M  V30 9614 H 897.659 3.80084 1.17394 0
M  V30 9615 H 894.398 6.55499 -0.00938418 0
M  V30 9616 H 893.918 5.80014 1.52787 0
M  V30 9617 H 895.597 6.34158 1.28265 0
M  V30 9618 N 895.729 -0.261212 1.5542 0
M  V30 9619 C 897.145 -0.609012 1.47524 0
M  V30 9620 C 897.345 -1.88986 0.699042 0
M  V30 9621 O 896.401 -2.51517 0.222628 0
M  V30 9622 C 897.714 -0.725025 2.91828 0
M  V30 9623 C 899.262 -0.818302 3.02114 0
M  V30 9624 C 899.737 -0.965996 4.47697 0
M  V30 9625 N 901.228 -1.03123 4.51575 0
M  V30 9626 C 901.963 -1.16451 5.6145 0
M  V30 9627 N 901.459 -1.26425 6.81167 0
M  V30 9628 N 903.252 -1.19655 5.49217 0
M  V30 9629 H 895.403 0.579807 2.04333 0
M  V30 9630 H 897.666 0.198072 0.927077 0
M  V30 9631 H 897.372 0.145871 3.51397 0
M  V30 9632 H 897.246 -1.60156 3.41511 0
M  V30 9633 H 899.633 -1.67966 2.42634 0
M  V30 9634 H 899.714 0.0830895 2.55665 0
M  V30 9635 H 899.358 -0.109251 5.07782 0
M  V30 9636 H 899.288 -1.88221 4.91813 0
M  V30 9637 H 901.779 -0.966072 3.65343 0
M  V30 9638 H 902.092 -1.36462 7.60656 0
M  V30 9639 H 900.437 -1.23408 6.83956 0
M  V30 9640 H 903.628 -1.11501 4.54626 0
M  V30 9641 H 903.801 -1.29698 6.34888 0
M  V30 9642 N 897.207 -1.48554 -0.526253 0
M  V30 9643 C 898.139 -1.59446 -1.6465 0
M  V30 9644 C 899.152 -0.478525 -1.55608 0
M  V30 9645 O 900.341 -0.74953 -1.62001 0
M  V30 9646 C 897.441 -1.51164 -3.03319 0
M  V30 9647 C 896.614 -2.77861 -3.37805 0
M  V30 9648 C 895.673 -2.62982 -4.5577 0
M  V30 9649 O 894.699 -3.36876 -4.58806 0
M  V30 9650 N 895.901 -1.72847 -5.5417 0
M  V30 9651 H 898.666 -2.56055 -1.55743 0
M  V30 9652 H 896.227 -1.45325 -0.713606 0
M  V30 9653 H 898.219 -1.389 -3.80117 0
M  V30 9654 H 896.789 -0.625147 -3.06285 0
M  V30 9655 H 896.009 -3.04663 -2.50149 0
M  V30 9656 H 897.297 -3.61908 -3.57632 0
M  V30 9657 H 896.695 -1.12022 -5.54498 0
M  V30 9658 H 895.252 -1.6652 -6.3017 0
M  V30 9659 N 898.685 0.775411 -1.37205 0
M  V30 9660 C 899.932 1.53384 -1.32211 0
M  V30 9661 C 900.26 1.9427 0.0944958 0
M  V30 9662 O 899.515 1.64059 1.06692 0
M  V30 9663 C 899.814 2.81377 -2.20367 0
M  V30 9664 C 899.48 2.59561 -3.68699 0
M  V30 9665 C 898.142 2.53319 -4.09124 0
M  V30 9666 C 900.494 2.39939 -4.62686 0
M  V30 9667 C 897.822 2.25442 -5.41658 0
M  V30 9668 C 900.174 2.13586 -5.95453 0
M  V30 9669 C 898.838 2.05786 -6.34987 0
M  V30 9670 H 898.108 0.561271 -0.483793 0
M  V30 9671 H 900.755 0.893466 -1.6938 0
M  V30 9672 H 899.06 3.49954 -1.76181 0
M  V30 9673 H 900.757 3.39238 -2.13819 0
M  V30 9674 H 897.347 2.6528 -3.36637 0
M  V30 9675 H 901.531 2.43753 -4.32317 0
M  V30 9676 H 896.787 2.17896 -5.71254 0
M  V30 9677 H 900.961 1.97401 -6.67837 0
M  V30 9678 H 898.588 1.83948 -7.37609 0
M  V30 9679 N 900.163 1.21714 1.00117 0
M  V30 9680 C 901.095 0.937627 2.09144 0
M  V30 9681 C 902.108 -0.0806291 1.626 0
M  V30 9682 O 903.297 0.152348 1.77849 0
M  V30 9683 C 900.397 0.387036 3.36683 0
M  V30 9684 C 899.57 1.46054 4.12295 0
M  V30 9685 C 898.629 0.918505 5.18122 0
M  V30 9686 O 897.655 1.60282 5.46167 0
M  V30 9687 N 898.857 -0.264308 5.79898 0
M  V30 9688 H 901.622 1.87622 2.33705 0
M  V30 9689 H 899.183 1.12291 1.16629 0
M  V30 9690 H 901.175 0.00992825 4.04699 0
M  V30 9691 H 899.745 -0.456467 3.09249 0
M  V30 9692 H 898.965 2.01133 3.39027 0
M  V30 9693 H 900.253 2.18306 4.59587 0
M  V30 9694 H 899.651 -0.837242 5.5947 0
M  V30 9695 H 898.208 -0.582886 6.49188 0
M  V30 9696 N 901.641 -1.19671 1.02551 0
M  V30 9697 C 902.571 -2.25009 0.623965 0
M  V30 9698 C 903.552 -1.66129 -0.36538 0
M  V30 9699 O 904.737 -1.92599 -0.248842 0
M  V30 9700 C 901.867 -3.47287 -0.0294869 0
M  V30 9701 C 900.821 -4.18818 0.881781 0
M  V30 9702 C 900.147 -5.34618 0.0936189 0
M  V30 9703 C 901.447 -4.73986 2.19396 0
M  V30 9704 H 903.141 -2.58851 1.50454 0
M  V30 9705 H 900.687 -1.24425 0.724872 0
M  V30 9706 H 902.64 -4.20168 -0.322016 0
M  V30 9707 H 901.364 -3.12635 -0.944838 0
M  V30 9708 H 900.023 -3.47815 1.15845 0
M  V30 9709 H 899.671 -4.9621 -0.823661 0
M  V30 9710 H 899.371 -5.83409 0.700568 0
M  V30 9711 H 900.895 -6.10297 -0.192249 0
M  V30 9712 H 902.309 -5.38639 1.96319 0
M  V30 9713 H 900.706 -5.3325 2.75254 0
M  V30 9714 H 901.776 -3.92238 2.85092 0
M  V30 9715 N 903.119 -0.802921 -1.35613 0
M  V30 9716 C 904.051 -0.168461 -2.2858 0
M  V30 9717 C 905.064 0.630123 -1.50111 0
M  V30 9718 O 906.253 0.463086 -1.72388 0
M  V30 9719 C 903.353 0.783943 -3.29708 0
M  V30 9720 C 902.526 0.0325165 -4.37388 0
M  V30 9721 C 901.585 0.902859 -5.18396 0
M  V30 9722 O 900.611 0.355144 -5.68091 0
M  V30 9723 N 901.813 2.22542 -5.36149 0
M  V30 9724 H 904.578 -0.96709 -2.83668 0
M  V30 9725 H 902.139 -0.658043 -1.47924 0
M  V30 9726 H 904.131 1.37034 -3.80794 0
M  V30 9727 H 902.701 1.48339 -2.75162 0
M  V30 9728 H 901.921 -0.735057 -3.87286 0
M  V30 9729 H 903.209 -0.485499 -5.06478 0
M  V30 9730 H 902.607 2.69439 -4.97412 0
M  V30 9731 H 901.164 2.76113 -5.90428 0
M  V30 9732 N 904.597 1.47463 -0.556102 0
M  V30 9733 C 905.547 2.27007 0.212592 0
M  V30 9734 C 906.531 1.34288 0.886312 0
M  V30 9735 O 907.723 1.5865 0.784801 0
M  V30 9736 C 904.852 3.20021 1.24263 0
M  V30 9737 C 903.938 4.2022 0.572385 0
M  V30 9738 N 904.329 5.04539 -0.35691 0
M  V30 9739 C 902.627 4.38276 0.826441 0
M  V30 9740 C 903.328 5.76895 -0.746134 0
M  V30 9741 N 902.304 5.43506 -0.101225 0
M  V30 9742 H 906.106 2.89582 -0.501925 0
M  V30 9743 H 903.62 1.57988 -0.375961 0
M  V30 9744 H 905.617 3.7569 1.80728 0
M  V30 9745 H 904.277 2.59003 1.95826 0
M  V30 9746 H 905.288 5.12715 -0.731012 0
M  V30 9747 H 901.965 3.88429 1.53066 0
M  V30 9748 H 903.355 6.5472 -1.50967 0
M  V30 9749 N 906.075 0.2925 1.54862 0
M  V30 9750 C 907.321 -0.312645 2.00983 0
M  V30 9751 C 907.676 -1.52174 1.17732 0
M  V30 9752 O 906.969 -1.90045 0.243581 0
M  V30 9753 C 907.163 -0.728674 3.49893 0
M  V30 9754 C 906.992 0.438562 4.47556 0
M  V30 9755 C 905.762 0.927885 4.96708 0
M  V30 9756 C 907.96 1.28076 4.98097 0
M  V30 9757 N 905.942 2.06277 5.78207 0
M  V30 9758 C 907.313 2.26326 5.77214 0
M  V30 9759 C 909.368 1.31211 4.803 0
M  V30 9760 C 908.071 3.27478 6.4043 0
M  V30 9761 C 910.097 2.31216 5.44328 0
M  V30 9762 C 909.459 3.28197 6.23271 0
M  V30 9763 H 905.558 -0.0790979 0.777989 0
M  V30 9764 H 908.142 0.420481 1.90105 0
M  V30 9765 H 906.313 -1.43099 3.61078 0
M  V30 9766 H 908.045 -1.31263 3.82821 0
M  V30 9767 H 904.8 0.504272 4.70908 0
M  V30 9768 H 905.224 2.63436 6.23643 0
M  V30 9769 H 909.866 0.576079 4.18857 0
M  V30 9770 H 907.584 4.02005 7.01012 0
M  V30 9771 H 911.17 2.34405 5.3249 0
M  V30 9772 H 910.05 4.04314 6.71937 0
M  V30 9773 N 907.553 -1.57587 0.0200696 0
M  V30 9774 C 908.483 -2.12702 -0.963333 0
M  V30 9775 C 909.464 -1.04094 -1.34531 0
M  V30 9776 O 910.649 -1.31881 -1.42552 0
M  V30 9777 C 907.779 -2.64673 -2.24868 0
M  V30 9778 C 906.733 -3.77987 -2.00772 0
M  V30 9779 C 906.059 -4.16351 -3.35494 0
M  V30 9780 C 907.359 -5.0444 -1.35416 0
M  V30 9781 H 909.053 -2.95121 -0.504363 0
M  V30 9782 H 906.599 -1.41966 -0.24116 0
M  V30 9783 H 908.552 -3.01862 -2.94036 0
M  V30 9784 H 907.276 -1.79403 -2.72914 0
M  V30 9785 H 905.935 -3.41223 -1.34025 0
M  V30 9786 H 905.583 -3.28075 -3.81282 0
M  V30 9787 H 905.283 -4.92705 -3.20181 0
M  V30 9788 H 906.807 -4.56115 -4.05945 0
M  V30 9789 H 908.221 -5.39273 -1.94571 0
M  V30 9790 H 906.618 -5.85732 -1.30529 0
M  V30 9791 H 907.688 -4.83803 -0.325923 0
M  V30 9792 N 909.032 0.252966 -1.55557 0
M  V30 9793 C 909.995 1.29645 -1.8901 0
M  V30 9794 C 910.995 1.41378 -0.766096 0
M  V30 9795 O 912.185 1.40183 -1.03414 0
M  V30 9796 C 909.317 2.67504 -2.11316 0
M  V30 9797 H 910.51 1.01202 -2.82309 0
M  V30 9798 H 908.063 0.491977 -1.48355 0
M  V30 9799 H 908.798 3.01095 -1.20466 0
M  V30 9800 H 908.583 2.6037 -2.93172 0
M  V30 9801 H 910.073 3.42861 -2.38403 0
M  V30 9802 N 910.51 1.48831 0.518367 0
M  V30 9803 C 911.759 1.5669 1.27008 0
M  V30 9804 C 912.072 0.250934 1.93984 0
M  V30 9805 O 913.278 0.207884 2.70703 0
M  V30 9806 C 911.734 2.76387 2.30517 0
M  V30 9807 C 911.342 4.14673 1.69559 0
M  V30 9808 C 913.086 2.93566 3.06625 0
M  V30 9809 C 910.993 5.25616 2.71076 0
M  V30 9810 H 909.923 0.583362 0.477708 0
M  V30 9811 H 912.574 1.75187 0.546052 0
M  V30 9812 H 910.956 2.51348 3.06006 0
M  V30 9813 H 912.13 4.49779 1.00179 0
M  V30 9814 H 910.445 4.02708 1.05902 0
M  V30 9815 H 913.042 3.7362 3.82508 0
M  V30 9816 H 913.385 2.03462 3.63193 0
M  V30 9817 H 913.918 3.18562 2.38251 0
M  V30 9818 H 910.657 6.17723 2.19313 0
M  V30 9819 H 910.177 4.94985 3.38748 0
M  V30 9820 H 911.856 5.5422 3.3384 0
M  V30 9821 O 912.027 -0.663479 1.47242 0
M  V30 9822 H 912.718 -1.31658 1.42077 0
M  V30 END ATOM
M  V30 BEGIN BOND
M  V30 END BOND
M  V30 END CTAB
M  END
$$$$
