drugbank_target|P00775 Trypsin (DB03127)
 OpenBabel12092119573D

  0  0  0     0  0            999 V3000
M  V30 BEGIN CTAB
M  V30 COUNTS 3738 3775 0 0 0
M  V30 BEGIN ATOM
M  V30 1 H -0.908 1.98254 -0.117106 0
M  V30 2 N 0 1.576 0 0
M  V30 3 C 0.933 2.03868 1.02534 0
M  V30 4 C 1.911 0.928543 1.3348 0
M  V30 5 O 3.095 1.19667 1.45644 0
M  V30 6 C 0.222 2.43627 2.35294 0
M  V30 7 C -0.732 3.65373 2.2001 0
M  V30 8 S 0.101 5.13292 1.52614 0
M  V30 9 C 1.257 5.56322 2.86805 0
M  V30 10 H 1.49 2.90518 0.631377 0
M  V30 11 H -0.977 1.52953 0.210867 0
M  V30 12 H 0.981 2.67203 3.11629 0
M  V30 13 H -0.358 1.57376 2.7183 0
M  V30 14 H -1.165 3.90944 3.18086 0
M  V30 15 H -1.563 3.418 1.51819 0
M  V30 16 H 0.729 5.58782 3.83104 0
M  V30 17 H 1.672 6.56266 2.65933 0
M  V30 18 H 2.08 4.83886 2.90714 0
M  V30 19 N 1.4781 -0.272755 1.55222 0
M  V30 20 C 2.4251 -1.33716 1.88119 0
M  V30 21 C 3.3951 -1.49066 0.73271 0
M  V30 22 O 4.5801 -1.63469 0.984002 0
M  V30 23 C 1.7201 -2.69238 2.15882 0
M  V30 24 C 0.8331 -2.62108 3.43399 0
M  V30 25 C -0.0319 -3.89811 3.60861 0
M  V30 26 C -0.9929 -3.77193 4.8207 0
M  V30 27 N -1.8559 -4.9673 4.96189 0
M  V30 28 H 2.9841 -1.04962 2.78903 0
M  V30 29 H 0.5211 -0.507088 1.38083 0
M  V30 30 H 2.4791 -3.48089 2.29978 0
M  V30 31 H 1.1091 -2.96194 1.28331 0
M  V30 32 H 0.1611 -1.74967 3.37773 0
M  V30 33 H 1.4731 -2.48685 4.32386 0
M  V30 34 H 0.6271 -4.77103 3.74777 0
M  V30 35 H -0.6339 -4.06102 2.7006 0
M  V30 36 H -1.6289 -2.88284 4.68159 0
M  V30 37 H -0.4039 -3.62421 5.74307 0
M  V30 38 H -2.4579 -5.13431 4.08319 0
M  V30 39 H -2.5409 -4.85839 5.79221 0
M  V30 40 H -1.2729 -5.85594 5.1449 0
M  V30 41 N 2.9562 -1.48159 -0.537278 0
M  V30 42 C 3.9062 -1.5854 -1.63857 0
M  V30 43 C 4.8902 -0.442969 -1.54682 0
M  V30 44 O 6.0822 -0.69401 -1.62827 0
M  V30 45 C 3.2112 -1.62144 -3.02596 0
M  V30 46 C 2.2972 -2.81841 -3.16901 0
M  V30 47 N 2.6882 -4.06337 -3.01204 0
M  V30 48 C 0.9862 -2.79021 -3.47942 0
M  V30 49 C 1.6872 -4.86606 -3.18731 0
M  V30 50 N 0.6632 -4.19288 -3.45974 0
M  V30 51 H 4.4652 -2.5255 -1.50319 0
M  V30 52 H 1.9792 -1.4443 -0.742555 0
M  V30 53 H 3.9762 -1.67674 -3.81695 0
M  V30 54 H 2.6362 -0.69245 -3.17231 0
M  V30 55 H 3.6472 -4.36888 -2.78117 0
M  V30 56 H 0.3242 -1.95347 -3.6898 0
M  V30 57 H 1.7142 -5.95385 -3.11394 0
M  V30 58 N 4.4343 0.785586 -1.36625 0
M  V30 59 C 5.6813 1.54362 -1.31067 0
M  V30 60 C 6.0093 1.94195 0.10893 0
M  V30 61 O 5.2643 1.63262 1.07908 0
M  V30 62 C 5.5633 2.83007 -2.1827 0
M  V30 63 C 5.2293 2.62294 -3.6676 0
M  V30 64 C 3.8913 2.56353 -4.0723 0
M  V30 65 C 6.2433 2.43371 -4.6089 0
M  V30 66 C 3.5713 2.29461 -5.39967 0
M  V30 67 C 5.9233 2.18005 -5.93849 0
M  V30 68 C 4.5873 2.105 -6.3344 0
M  V30 69 H 3.8573 0.564851 -0.479609 0
M  V30 70 H 6.5043 0.906028 -1.68711 0
M  V30 71 H 4.8093 3.51253 -1.73576 0
M  V30 72 H 6.5063 3.40817 -2.11292 0
M  V30 73 H 3.0963 2.67774 -3.34656 0
M  V30 74 H 7.2803 2.46959 -4.30494 0
M  V30 75 H 2.5363 2.22135 -5.69619 0
M  V30 76 H 6.7103 2.02359 -6.66351 0
M  V30 77 H 4.3373 1.89425 -7.36222 0
M  V30 78 N 5.9124 1.20967 1.01018 0
M  V30 79 C 6.8424 0.988272 2.11555 0
M  V30 80 C 7.8234 -0.0849778 1.69888 0
M  V30 81 O 9.0084 0.0738202 1.9406 0
M  V30 82 C 6.1384 0.546528 3.42973 0
M  V30 83 C 5.0924 1.56375 3.9841 0
M  V30 84 C 4.4184 0.97842 5.25672 0
M  V30 85 C 5.7184 2.94922 4.31066 0
M  V30 86 H 7.4124 1.91276 2.30334 0
M  V30 87 H 4.9584 0.921073 1.1069 0
M  V30 88 H 6.9114 0.378839 4.19694 0
M  V30 89 H 5.6354 -0.413598 3.23971 0
M  V30 90 H 4.2944 1.71891 3.23804 0
M  V30 91 H 3.9424 0.0101688 5.02999 0
M  V30 92 H 3.6424 1.65784 5.63728 0
M  V30 93 H 5.1664 0.821939 6.05043 0
M  V30 94 H 6.5804 2.8288 4.9865 0
M  V30 95 H 4.9774 3.5983 4.80253 0
M  V30 96 H 6.0474 3.4616 3.39561 0
M  V30 97 N 7.3905 -1.2043 1.01659 0
M  V30 98 C 8.8065 -1.41852 0.731442 0
M  V30 99 C 9.0065 -1.89358 -0.688898 0
M  V30 100 O 8.0625 -2.06247 -1.45666 0
M  V30 101 C 9.3755 -2.44019 1.75714 0
M  V30 102 C 10.9235 -2.57785 1.77527 0
M  V30 103 C 11.3985 -3.63194 2.79023 0
M  V30 104 N 12.8895 -3.70678 2.77763 0
M  V30 105 C 13.6245 -4.51897 3.52954 0
M  V30 106 N 13.1205 -5.36921 4.37821 0
M  V30 107 N 14.9135 -4.4643 3.41551 0
M  V30 108 H 7.0645 -0.879093 1.93354 0
M  V30 109 H 9.3275 -0.448425 0.835236 0
M  V30 110 H 9.0335 -2.1611 2.77469 0
M  V30 111 H 8.9075 -3.43007 1.56927 0
M  V30 112 H 11.2945 -2.85023 0.764569 0
M  V30 113 H 11.3755 -1.58992 2.00387 0
M  V30 114 H 11.0195 -3.36699 3.80258 0
M  V30 115 H 10.9495 -4.61609 2.53425 0
M  V30 116 H 13.4405 -3.09944 2.16201 0
M  V30 117 H 13.7535 -5.95981 4.91962 0
M  V30 118 H 12.0985 -5.36424 4.41899 0
M  V30 119 H 15.2895 -3.79042 2.74672 0
M  V30 120 H 15.4625 -5.09491 4.00404 0
M  V30 121 N 8.8686 -0.792821 -1.36206 0
M  V30 122 C 9.8316 -0.199459 -2.2833 0
M  V30 123 C 10.8316 0.605189 -1.48977 0
M  V30 124 O 12.0216 0.425685 -1.68919 0
M  V30 125 C 9.1536 0.723523 -3.33134 0
M  V30 126 H 10.3466 -1.01181 -2.82316 0
M  V30 127 H 7.8996 -0.562485 -1.45828 0
M  V30 128 H 8.6346 1.56008 -2.84309 0
M  V30 129 H 8.4196 0.148436 -3.91819 0
M  V30 130 H 9.9096 1.13344 -4.01924 0
M  V30 131 N 10.3467 1.47872 -0.545128 0
M  V30 132 C 11.2767 2.32661 0.197793 0
M  V30 133 C 12.2577 1.43041 0.920504 0
M  V30 134 O 13.4427 1.71912 0.90333 0
M  V30 135 C 10.5727 3.24569 1.23582 0
M  V30 136 C 9.5267 4.23333 0.630323 0
M  V30 137 C 8.8527 5.0448 1.77211 0
M  V30 138 C 10.1527 5.20704 -0.407974 0
M  V30 139 H 11.8467 2.95024 -0.510045 0
M  V30 140 H 9.3927 1.4187 -0.246731 0
M  V30 141 H 11.3457 3.8272 1.76362 0
M  V30 142 H 10.0697 2.60236 1.97344 0
M  V30 143 H 8.7287 3.6639 0.123922 0
M  V30 144 H 8.3767 4.36561 2.49847 0
M  V30 145 H 8.0767 5.71339 1.37281 0
M  V30 146 H 9.6007 5.65487 2.3034 0
M  V30 147 H 11.0147 5.7329 0.033305 0
M  V30 148 H 9.4117 5.95699 -0.725486 0
M  V30 149 H 10.4817 4.66917 -1.30828 0
M  V30 150 N 11.8248 0.280983 1.55075 0
M  V30 151 C 12.7718 -0.603937 2.22758 0
M  V30 152 C 13.7418 -1.1452 1.20309 0
M  V30 153 O 14.9268 -1.19343 1.48869 0
M  V30 154 C 12.0668 -1.77947 2.95684 0
M  V30 155 C 11.1798 -1.2715 4.12864 0
M  V30 156 C 10.3148 -2.4093 4.7342 0
M  V30 157 C 9.3538 -1.87165 5.82783 0
M  V30 158 N 8.4908 -2.94441 6.37377 0
M  V30 159 H 13.3308 -0.020124 2.97993 0
M  V30 160 H 10.8678 0.00183425 1.471 0
M  V30 161 H 12.8258 -2.47055 3.36184 0
M  V30 162 H 11.4558 -2.33522 2.22861 0
M  V30 163 H 10.5078 -0.473331 3.77444 0
M  V30 164 H 11.8198 -0.837751 4.91715 0
M  V30 165 H 10.9738 -3.18021 5.1667 0
M  V30 166 H 9.7128 -2.87623 3.93859 0
M  V30 167 H 8.7178 -1.08556 5.38976 0
M  V30 168 H 9.9428 -1.41401 6.64216 0
M  V30 169 H 7.8888 -3.40505 5.60707 0
M  V30 170 H 7.8058 -2.55501 7.11516 0
M  V30 171 H 9.0738 -3.71489 6.85285 0
M  V30 172 N 13.3029 -1.57598 0.00835791 0
M  V30 173 C 14.7189 -1.55764 -0.347822 0
M  V30 174 C 14.9189 -1.01186 -1.74252 0
M  V30 175 O 13.9749 -0.649371 -2.44007 0
M  V30 176 C 15.2879 -2.99927 -0.215407 0
M  V30 177 C 16.8359 -3.11656 -0.289725 0
M  V30 178 C 17.3109 -4.57621 -0.18634 0
M  V30 179 N 18.8019 -4.62557 -0.243978 0
M  V30 180 C 19.5369 -5.73094 -0.18745 0
M  V30 181 N 19.0329 -6.92753 -0.0810331 0
M  V30 182 N 20.8259 -5.61588 -0.239925 0
M  V30 183 H 12.9769 -1.91411 0.92062 0
M  V30 184 H 15.2399 -0.879562 0.353659 0
M  V30 185 H 14.9459 -3.43729 0.744512 0
M  V30 186 H 14.8199 -3.63865 -0.994097 0
M  V30 187 H 17.2069 -2.67779 -1.24009 0
M  V30 188 H 17.2879 -2.5048 0.51898 0
M  V30 189 H 16.9319 -5.02174 0.760519 0
M  V30 190 H 16.8619 -5.16752 -1.01364 0
M  V30 191 H 19.3529 -3.76481 -0.327217 0
M  V30 192 H 19.6659 -7.72787 -0.0440241 0
M  V30 193 H 18.0109 -6.94984 -0.0465419 0
M  V30 194 H 21.2019 -4.66996 -0.321317 0
M  V30 195 H 21.3749 -6.47714 -0.192407 0
M  V30 196 N 14.781 0.264519 -1.55364 0
M  V30 197 C 16.021 1.00254 -1.78125 0
M  V30 198 C 16.385 1.83187 -0.575017 0
M  V30 199 O 17.586 2.60029 -0.681042 0
M  V30 200 C 15.857 1.85478 -3.05504 0
M  V30 201 S 17.416 2.6543 -3.49417 0
M  V30 202 H 14.234 0.337522 -0.625779 0
M  V30 203 H 16.836 0.272111 -1.93597 0
M  V30 204 H 15.54 1.23491 -3.9138 0
M  V30 205 H 15.071 2.62827 -2.92721 0
M  V30 206 H 17.086 3.87958 -3.09359 0
M  V30 207 N 16.2591 1.48442 0.529413 0
M  V30 208 C 17.4841 1.60406 1.31471 0
M  V30 209 C 17.9091 0.264738 1.86228 0
M  V30 210 O 17.2671 -0.763668 1.64432 0
M  V30 211 C 17.3151 2.65419 2.44101 0
M  V30 212 O 16.4191 2.22618 3.47153 0
M  V30 213 H 15.7601 0.537863 0.389357 0
M  V30 214 H 18.2901 1.94432 0.636965 0
M  V30 215 H 18.3001 2.86709 2.90279 0
M  V30 216 H 16.9751 3.62652 2.03608 0
M  V30 217 H 15.5521 2.11543 3.0709 0
M  V30 218 N 17.7372 -0.778329 1.37039 0
M  V30 219 C 18.9832 -1.53892 1.32079 0
M  V30 220 C 19.3162 -1.9396 -0.0965386 0
M  V30 221 O 18.5912 -1.63568 -1.05242 0
M  V30 222 C 18.8742 -2.80847 2.25382 0
M  V30 223 C 18.7272 -2.47076 3.75864 0
M  V30 224 C 20.0462 -3.82741 2.1725 0
M  V30 225 H 17.1652 -0.558303 0.48111 0
M  V30 226 H 19.8072 -0.893397 1.67685 0
M  V30 227 H 17.9572 -3.35931 1.95148 0
M  V30 228 H 19.6292 -1.97957 4.16666 0
M  V30 229 H 17.8722 -1.79863 3.94755 0
M  V30 230 H 18.5432 -3.37798 4.36574 0
M  V30 231 H 21.0192 -3.37133 2.43887 0
M  V30 232 H 19.8952 -4.69303 2.84686 0
M  V30 233 H 20.1562 -4.2652 1.16331 0
M  V30 234 N 19.2153 -1.21501 -1.00376 0
M  V30 235 C 20.1783 -0.976927 -2.07337 0
M  V30 236 C 21.1783 0.0525322 -1.60714 0
M  V30 237 O 22.3683 -0.184869 -1.73216 0
M  V30 238 C 19.5003 -0.473423 -3.37597 0
M  V30 239 H 20.6933 -1.92587 -2.29892 0
M  V30 240 H 18.2463 -1.03217 -1.17371 0
M  V30 241 H 18.9813 0.480379 -3.20722 0
M  V30 242 H 18.7663 -1.216 -3.72768 0
M  V30 243 H 20.2563 -0.32675 -4.1632 0
M  V30 244 N 20.6934 1.19889 -1.02296 0
M  V30 245 C 21.9394 1.89701 -0.717033 0
M  V30 246 C 22.2724 1.7905 0.751989 0
M  V30 247 O 21.5474 1.17891 1.547 0
M  V30 248 C 21.8304 3.40858 -1.16136 0
M  V30 249 C 21.6834 3.60411 -2.69117 0
M  V30 250 C 23.0024 4.33876 -0.737549 0
M  V30 251 H 20.1214 0.688874 -0.261957 0
M  V30 252 H 22.7634 1.41154 -1.27183 0
M  V30 253 H 20.9134 3.82335 -0.689342 0
M  V30 254 H 22.5854 3.28145 -3.2422 0
M  V30 255 H 20.8284 3.03665 -3.0979 0
M  V30 256 H 21.4994 4.66396 -2.95261 0
M  V30 257 H 23.9754 4.00081 -1.14344 0
M  V30 258 H 22.8514 5.38242 -1.0764 0
M  V30 259 H 23.1124 4.40628 0.360436 0
M  V30 260 N 22.1715 0.800033 1.35784 0
M  V30 261 C 23.1345 0.211565 2.28221 0
M  V30 262 C 24.1345 -0.59728 1.49296 0
M  V30 263 O 25.3245 -0.416721 1.69142 0
M  V30 264 C 22.4565 -0.705846 3.33513 0
M  V30 265 H 23.6495 1.02677 2.81776 0
M  V30 266 H 21.2025 0.570211 1.45528 0
M  V30 267 H 21.9375 -1.54498 2.85133 0
M  V30 268 H 21.7225 -0.127655 3.91892 0
M  V30 269 H 23.2125 -1.11211 4.02519 0
M  V30 270 N 23.6496 -1.47581 0.552962 0
M  V30 271 C 24.8776 -2.06875 0.0320556 0
M  V30 272 C 25.2926 -1.40625 -1.25976 0
M  V30 273 O 24.6496 -0.501349 -1.75479 0
M  V30 274 C 24.7006 -3.61092 -0.17167 0
M  V30 275 O 24.4216 -4.24858 1.06899 0
M  V30 276 C 25.9226 -4.37242 -0.730344 0
M  V30 277 H 23.1426 -0.669561 0.043915 0
M  V30 278 H 25.6866 -1.89646 0.765163 0
M  V30 279 H 23.8416 -3.7785 -0.854894 0
M  V30 280 H 24.2556 -5.17334 0.864059 0
M  V30 281 H 25.7296 -5.45842 -0.822203 0
M  V30 282 H 26.2066 -4.03235 -1.74064 0
M  V30 283 H 26.8126 -4.25219 -0.0829543 0
M  V30 284 N 25.1277 -0.289203 -1.54924 0
M  V30 285 C 26.3737 0.323998 -2.00195 0
M  V30 286 C 26.7067 1.54441 -1.17735 0
M  V30 287 O 25.9817 1.92875 -0.250878 0
M  V30 288 C 26.2647 0.692276 -3.53383 0
M  V30 289 C 26.1177 -0.536457 -4.46589 0
M  V30 290 C 27.4367 1.52335 -4.12895 0
M  V30 291 H 24.5557 0.116289 -0.727768 0
M  V30 292 H 27.1977 -0.398954 -1.85764 0
M  V30 293 H 25.3477 1.30822 -3.65811 0
M  V30 294 H 27.0197 -1.17499 -4.46085 0
M  V30 295 H 25.2627 -1.17192 -4.1767 0
M  V30 296 H 25.9337 -0.234806 -5.515 0
M  V30 297 H 28.4097 1.00302 -4.0383 0
M  V30 298 H 27.2857 1.74982 -5.20262 0
M  V30 299 H 27.5467 2.50886 -3.64018 0
M  V30 300 N 26.6058 1.57591 -0.0167156 0
M  V30 301 C 27.5688 2.08393 0.954204 0
M  V30 302 C 28.5688 0.996531 1.26198 0
M  V30 303 O 29.7588 1.25858 1.20438 0
M  V30 304 C 26.8908 2.5394 2.27436 0
M  V30 305 H 28.0838 2.95455 0.514451 0
M  V30 306 H 25.6368 1.54582 0.231089 0
M  V30 307 H 26.3718 1.70171 2.76066 0
M  V30 308 H 26.1568 3.33371 2.06412 0
M  V30 309 H 27.6468 2.93512 2.97053 0
M  V30 310 N 28.0839 -0.256276 1.55502 0
M  V30 311 C 29.3329 -0.983486 1.76098 0
M  V30 312 C 29.6459 -1.86837 0.578896 0
M  V30 313 O 30.8519 -2.63163 0.667648 0
M  V30 314 C 29.3079 -1.79868 3.1173 0
M  V30 315 C 28.9159 -0.961648 4.37557 0
M  V30 316 C 30.6599 -2.51919 3.41668 0
M  V30 317 C 28.5669 -1.77219 5.64223 0
M  V30 318 H 27.4969 -0.370936 0.656447 0
M  V30 319 H 30.1479 -0.238492 1.81944 0
M  V30 320 H 28.5299 -2.58527 2.99966 0
M  V30 321 H 29.7039 -0.218048 4.60284 0
M  V30 322 H 28.0189 -0.354913 4.14885 0
M  V30 323 H 30.6159 -3.12998 4.33516 0
M  V30 324 H 30.9589 -3.23059 2.62562 0
M  V30 325 H 31.4919 -1.80278 3.54605 0
M  V30 326 H 28.2309 -1.10471 6.46124 0
M  V30 327 H 27.7509 -2.49132 5.45613 0
M  V30 328 H 29.4299 -2.34169 6.03137 0
M  V30 329 N 29.562 -1.4872 -0.521534 0
M  V30 330 C 30.525 -1.63379 -1.60748 0
M  V30 331 C 31.525 -0.50661 -1.52611 0
M  V30 332 O 32.715 -0.772601 -1.5613 0
M  V30 333 C 29.847 -1.61192 -3.00383 0
M  V30 334 H 31.04 -2.60217 -1.49087 0
M  V30 335 H 28.593 -1.37444 -0.744235 0
M  V30 336 H 29.328 -0.65863 -3.17541 0
M  V30 337 H 29.113 -2.43032 -3.07698 0
M  V30 338 H 30.603 -1.7466 -3.7932 0
M  V30 339 N 31.0401 0.771051 -1.3745 0
M  V30 340 C 32.2861 1.5319 -1.32894 0
M  V30 341 C 32.6191 1.94008 0.0862511 0
M  V30 342 O 31.8941 1.64124 1.04373 0
M  V30 343 C 32.1771 2.79648 -2.26868 0
M  V30 344 C 32.0301 2.45079 -3.77169 0
M  V30 345 C 33.3491 3.81583 -2.19277 0
M  V30 346 H 30.4681 0.555744 -0.484064 0
M  V30 347 H 33.1101 0.884492 -1.68157 0
M  V30 348 H 31.2601 3.34891 -1.96926 0
M  V30 349 H 32.9321 1.95745 -4.1771 0
M  V30 350 H 31.1751 1.77767 -3.95704 0
M  V30 351 H 31.8461 3.35478 -4.38359 0
M  V30 352 H 34.3221 3.35835 -2.45671 0
M  V30 353 H 33.1981 4.67787 -2.87171 0
M  V30 354 H 33.4591 4.25897 -1.18592 0
M  V30 355 N 32.5182 1.22032 0.997298 0
M  V30 356 C 33.7642 1.04376 1.73878 0
M  V30 357 C 34.0972 -0.420716 1.89588 0
M  V30 358 O 33.3722 -1.31202 1.43583 0
M  V30 359 C 33.6552 1.75047 3.14691 0
M  V30 360 C 33.5082 3.29062 3.06656 0
M  V30 361 C 34.8272 1.49928 4.13775 0
M  V30 362 H 31.9462 0.380578 0.631133 0
M  V30 363 H 34.5882 1.50312 1.16217 0
M  V30 364 H 32.7382 1.35996 3.63919 0
M  V30 365 H 34.4102 3.7753 2.65083 0
M  V30 366 H 32.6532 3.58967 2.43568 0
M  V30 367 H 33.3242 3.73683 4.06282 0
M  V30 368 H 35.8002 1.83842 3.73285 0
M  V30 369 H 34.6762 2.01878 5.10428 0
M  V30 370 H 34.9372 0.430929 4.39995 0
M  V30 371 N 33.9963 -1.19345 1.0293 0
M  V30 372 C 35.2443 -1.88665 0.724574 0
M  V30 373 C 35.5653 -1.80036 -0.749144 0
M  V30 374 O 34.8353 -1.2111 -1.53978 0
M  V30 375 H 33.4153 -0.698406 0.265025 0
M  V30 376 H 36.0773 -1.44885 1.30362 0
M  V30 377 H 35.1733 -2.94987 1.01926 0
M  V30 378 N 35.4744 -0.807222 -1.35358 0
M  V30 379 C 36.4044 -0.232509 -2.3234 0
M  V30 380 C 37.3854 0.642386 -1.57504 0
M  V30 381 O 38.5704 0.572526 -1.85569 0
M  V30 382 C 35.7004 0.619238 -3.41735 0
M  V30 383 C 34.6544 -0.157215 -4.27711 0
M  V30 384 C 33.9804 0.816273 -5.28433 0
M  V30 385 C 35.2804 -1.35656 -5.04376 0
M  V30 386 H 36.9744 -1.04276 -2.80654 0
M  V30 387 H 34.5204 -0.50288 -1.34934 0
M  V30 388 H 36.4734 1.03137 -4.08584 0
M  V30 389 H 35.1974 1.46239 -2.92031 0
M  V30 390 H 33.8564 -0.550525 -3.62443 0
M  V30 391 H 33.5044 1.65494 -4.74996 0
M  V30 392 H 33.2044 0.301067 -5.86828 0
M  V30 393 H 34.7284 1.22659 -5.98153 0
M  V30 394 H 36.1424 -1.01927 -5.64166 0
M  V30 395 H 34.5394 -1.8063 -5.7227 0
M  V30 396 H 35.6094 -2.14288 -4.34981 0
M  V30 397 N 36.9525 1.47285 -0.560781 0
M  V30 398 C 37.8845 2.28118 0.222438 0
M  V30 399 C 38.8975 1.37219 0.876056 0
M  V30 400 O 40.0865 1.62011 0.749307 0
M  V30 401 C 37.1865 3.1159 1.33285 0
M  V30 402 C 36.3595 4.30473 0.77534 0
M  V30 403 C 35.4185 4.95513 1.77069 0
M  V30 404 O 34.4445 5.53792 1.31539 0
M  V30 405 N 35.6465 4.90531 3.10418 0
M  V30 406 H 38.4115 2.95976 -0.470958 0
M  V30 407 H 35.9725 1.56955 -0.39709 0
M  V30 408 H 37.9645 3.51967 1.99752 0
M  V30 409 H 36.5345 2.45951 1.92943 0
M  V30 410 H 35.7545 3.94144 -0.0662113 0
M  V30 411 H 37.0425 5.07362 0.382272 0
M  V30 412 H 36.4405 4.44389 3.5005 0
M  V30 413 H 34.9975 5.34917 3.72434 0
M  V30 414 N 38.4306 0.297415 1.54768 0
M  V30 415 C 39.8416 -0.195947 1.85669 0
M  V30 416 C 40.1926 -1.53707 1.21937 0
M  V30 417 O 39.3176 -2.10164 0.515754 0
M  V30 418 C 39.9126 -0.362318 3.36857 0
M  V30 419 C 38.4716 -0.799901 3.67802 0
M  V30 420 C 37.6186 0.0938578 2.77141 0
M  V30 421 H 40.5696 0.518538 1.4999 0
M  V30 422 H 40.5906 -1.19745 3.61167 0
M  V30 423 H 40.1026 0.613921 3.83214 0
M  V30 424 H 38.2036 -1.78682 3.26961 0
M  V30 425 H 38.3166 -0.621773 4.75048 0
M  V30 426 H 36.6806 -0.426254 2.51108 0
M  V30 427 H 37.4636 1.06639 3.26318 0
M  V30 428 N 39.9087 -1.5758 0.0250728 0
M  V30 429 C 41.1547 -1.91917 -0.655413 0
M  V30 430 C 41.4877 -0.901433 -1.72011 0
M  V30 431 O 40.7627 0.0764069 -1.9435 0
M  V30 432 C 41.0457 -3.36751 -1.27558 0
M  V30 433 C 40.8987 -4.49258 -0.220719 0
M  V30 434 C 42.2177 -3.81469 -2.19475 0
M  V30 435 H 39.3367 -0.697925 -0.23679 0
M  V30 436 H 41.9787 -1.89825 0.0815036 0
M  V30 437 H 40.1287 -3.38664 -1.90365 0
M  V30 438 H 41.8007 -4.59478 0.409601 0
M  V30 439 H 40.0437 -4.31415 0.454264 0
M  V30 440 H 40.7147 -5.47618 -0.694175 0
M  V30 441 H 43.1907 -3.81266 -1.66659 0
M  V30 442 H 42.0667 -4.83512 -2.59822 0
M  V30 443 H 42.3277 -3.16744 -3.08424 0
M  V30 444 N 41.3868 0.248026 -1.55636 0
M  V30 445 C 42.6148 0.993808 -1.81469 0
M  V30 446 C 43.0298 1.78991 -0.60064 0
M  V30 447 O 42.3868 1.77345 0.430682 0
M  V30 448 C 42.4378 1.93258 -3.05506 0
M  V30 449 O 42.1588 1.16869 -4.22224 0
M  V30 450 C 43.6598 2.79444 -3.4413 0
M  V30 451 H 40.8798 0.292486 -0.603898 0
M  V30 452 H 43.4238 0.271253 -2.02693 0
M  V30 453 H 41.5788 2.60943 -2.86335 0
M  V30 454 H 41.9928 1.80359 -4.92515 0
M  V30 455 H 43.4668 3.41066 -4.34026 0
M  V30 456 H 43.9438 3.50499 -2.64665 0
M  V30 457 H 44.5498 2.17214 -3.65648 0
M  V30 458 N 42.8649 1.48995 0.513639 0
M  V30 459 C 43.8279 1.64229 1.59879 0
M  V30 460 C 44.8279 0.514696 1.5234 0
M  V30 461 O 46.0179 0.78087 1.55718 0
M  V30 462 C 43.1499 1.62783 2.99524 0
M  V30 463 H 44.3429 2.61004 1.47705 0
M  V30 464 H 41.8959 1.37837 0.736936 0
M  V30 465 H 42.6309 0.675461 3.17188 0
M  V30 466 H 42.4159 2.4466 3.06404 0
M  V30 467 H 43.9059 1.76669 3.78388 0
M  V30 468 N 44.343 -0.763751 1.37857 0
M  V30 469 C 45.568 -1.55805 1.36893 0
M  V30 470 C 45.993 -1.88054 -0.0416135 0
M  V30 471 O 45.351 -1.49825 -1.02089 0
M  V30 472 C 45.399 -2.84012 2.22192 0
M  V30 473 O 44.503 -3.78732 1.63204 0
M  V30 474 H 43.844 -0.471638 0.46739 0
M  V30 475 H 46.374 -0.944657 1.81487 0
M  V30 476 H 46.384 -3.33037 2.35691 0
M  V30 477 H 45.059 -2.59869 3.24716 0
M  V30 478 H 43.636 -3.37402 1.58791 0
M  V30 479 N 45.8211 -1.22559 -0.990812 0
M  V30 480 C 46.7841 -0.998863 -2.0629 0
M  V30 481 C 47.7841 0.0354834 -1.60761 0
M  V30 482 O 48.9741 -0.203231 -1.7301 0
M  V30 483 C 46.1061 -0.509203 -3.37076 0
M  V30 484 H 47.2991 -1.95014 -2.27837 0
M  V30 485 H 44.8521 -1.04456 -1.16269 0
M  V30 486 H 45.5871 0.446335 -3.21214 0
M  V30 487 H 45.3721 -1.25547 -3.71457 0
M  V30 488 H 46.8621 -0.370888 -4.1595 0
M  V30 489 N 47.2992 1.18797 -1.03562 0
M  V30 490 C 48.2622 2.20464 -0.626769 0
M  V30 491 C 49.2622 1.57721 0.313173 0
M  V30 492 O 50.4522 1.73917 0.0992615 0
M  V30 493 C 47.5842 3.40802 0.0818498 0
M  V30 494 H 48.7772 2.58149 -1.5264 0
M  V30 495 H 46.3302 1.32593 -0.827578 0
M  V30 496 H 47.0652 3.08642 0.995518 0
M  V30 497 H 46.8502 3.8758 -0.593652 0
M  V30 498 H 48.3402 4.16092 0.354584 0
M  V30 499 N 48.7773 0.814389 1.34928 0
M  V30 500 C 50.1883 0.458364 1.80986 0
M  V30 501 C 50.5393 -1.02042 1.67577 0
M  V30 502 O 49.6643 -1.79352 1.21086 0
M  V30 503 C 50.2593 0.825212 3.28597 0
M  V30 504 C 48.8183 0.521677 3.72767 0
M  V30 505 C 47.9653 1.04668 2.56788 0
M  V30 506 H 50.9163 1.00533 1.22795 0
M  V30 507 H 50.9373 0.12571 3.80292 0
M  V30 508 H 50.4493 1.90154 3.38324 0
M  V30 509 H 48.5503 -0.545589 3.68584 0
M  V30 510 H 48.6633 1.05977 4.67232 0
M  V30 511 H 47.0273 0.468622 2.50352 0
M  V30 512 H 47.8103 2.12927 2.6929 0
M  V30 513 N 50.2554 -1.46986 0.568584 0
M  V30 514 C 51.2034 -2.31858 -0.185649 0
M  V30 515 C 52.1974 -1.43624 -0.898249 0
M  V30 516 O 53.4034 -1.60327 -0.818242 0
M  V30 517 H 49.7784 -0.747866 -0.0787399 0
M  V30 518 H 51.7494 -2.93303 0.549191 0
M  V30 519 C 50.4984 -3.26513 -1.19519 0
M  V30 520 H 49.8214 -3.94377 -0.656285 0
M  V30 521 H 51.2614 -3.88707 -1.6936 0
M  V30 522 C 49.7204 -2.50847 -2.24894 0
M  V30 523 O 50.2504 -2.26119 -3.32014 0
M  V30 524 N 48.4564 -2.11656 -1.99124 0
M  V30 525 H 48.0034 -2.31966 -1.12024 0
M  V30 526 H 47.9614 -1.61347 -2.69842 0
M  V30 527 N 51.7335 -0.305618 -1.54608 0
M  V30 528 C 53.1445 0.186098 -1.8577 0
M  V30 529 C 53.4955 1.53058 -1.22751 0
M  V30 530 O 52.6205 2.09888 -0.526893 0
M  V30 531 C 53.2155 0.344449 -3.37044 0
M  V30 532 C 51.7745 0.780384 -3.68221 0
M  V30 533 C 50.9215 -0.108554 -2.77087 0
M  V30 534 H 53.8725 -0.526485 -1.49712 0
M  V30 535 H 53.8935 1.17828 -3.61796 0
M  V30 536 H 53.4055 -0.634235 -3.82883 0
M  V30 537 H 51.5065 1.76945 -3.27904 0
M  V30 538 H 51.6195 0.596572 -4.75371 0
M  V30 539 H 49.9835 0.412931 -2.5133 0
M  V30 540 H 50.7665 -1.08368 -3.25747 0
M  V30 541 N 53.2116 1.57565 -0.0334293 0
M  V30 542 C 54.4576 1.92262 0.645226 0
M  V30 543 C 54.7906 0.910543 1.71531 0
M  V30 544 O 54.0656 -0.066099 1.94388 0
M  V30 545 C 54.3486 3.37422 1.2577 0
M  V30 546 C 54.2016 4.49369 0.196891 0
M  V30 547 C 55.5206 3.82628 2.17449 0
M  V30 548 H 52.6396 0.699171 0.233085 0
M  V30 549 H 55.2816 1.89779 -0.0915694 0
M  V30 550 H 53.4316 3.39669 1.88566 0
M  V30 551 H 55.1036 4.59254 -0.433962 0
M  V30 552 H 53.3466 4.31168 -0.477137 0
M  V30 553 H 54.0176 5.47978 0.665124 0
M  V30 554 H 56.4936 3.82145 1.64634 0
M  V30 555 H 55.3696 4.84883 2.57254 0
M  V30 556 H 55.6306 3.18376 3.0674 0
M  V30 557 N 54.6897 -0.239769 1.55765 0
M  V30 558 C 55.9357 -0.968234 1.78194 0
M  V30 559 C 56.2687 -1.84701 0.599938 0
M  V30 560 O 55.5437 -1.9031 -0.401524 0
M  V30 561 C 55.8267 -1.8227 3.10564 0
M  V30 562 C 55.6797 -0.971633 4.3918 0
M  V30 563 C 56.9987 -2.80388 3.39221 0
M  V30 564 H 54.1177 -0.350572 0.648281 0
M  V30 565 H 56.7597 -0.238259 1.885 0
M  V30 566 H 54.9097 -2.44507 3.01908 0
M  V30 567 H 56.5817 -0.367408 4.59835 0
M  V30 568 H 54.8247 -0.276276 4.32919 0
M  V30 569 H 55.4957 -1.60346 5.28198 0
M  V30 570 H 57.9717 -2.28287 3.47885 0
M  V30 571 H 56.8477 -3.3729 4.33044 0
M  V30 572 H 57.1087 -3.57212 2.60484 0
M  V30 573 N 56.1678 -1.49265 -0.50573 0
M  V30 574 C 57.4158 -1.582 -1.25766 0
M  V30 575 C 57.7368 -0.268482 -1.93143 0
M  V30 576 O 57.0068 0.711833 -1.8251 0
M  V30 577 H 55.5868 -0.582873 -0.467191 0
M  V30 578 H 58.2488 -1.85865 -0.586525 0
M  V30 579 H 57.3448 -2.37563 -2.02412 0
M  V30 580 N 57.6459 0.756429 -1.3826 0
M  V30 581 C 58.8939 1.51248 -1.34047 0
M  V30 582 C 59.2149 1.94875 0.0698372 0
M  V30 583 O 58.4849 1.67436 1.01696 0
M  V30 584 H 57.0649 0.561018 -0.493222 0
M  V30 585 H 59.7269 0.899347 -1.7291 0
M  V30 586 H 58.8229 2.40472 -1.98947 0
M  V30 587 N 59.124 1.23083 0.984299 0
M  V30 588 C 60.352 1.08714 1.76037 0
M  V30 589 C 60.767 -0.361691 1.85303 0
M  V30 590 O 60.124 -1.25034 1.32939 0
M  V30 591 C 60.175 1.70206 3.18923 0
M  V30 592 O 59.896 3.09423 3.10144 0
M  V30 593 C 61.397 1.61227 4.12941 0
M  V30 594 H 58.617 0.380664 0.552572 0
M  V30 595 H 61.161 1.62853 1.23689 0
M  V30 596 H 59.316 1.20109 3.6831 0
M  V30 597 H 59.73 3.39188 4.00065 0
M  V30 598 H 61.204 2.08962 5.10919 0
M  V30 599 H 61.681 0.570375 4.35481 0
M  V30 600 H 62.287 2.10671 3.69456 0
M  V30 601 N 60.6021 -1.18246 1.0419 0
M  V30 602 C 62.0181 -1.40269 0.761366 0
M  V30 603 C 62.2181 -1.90777 -0.648578 0
M  V30 604 O 61.2741 -2.0929 -1.41258 0
M  V30 605 C 62.5871 -2.40237 1.8085 0
M  V30 606 C 64.1351 -2.53961 1.82955 0
M  V30 607 C 64.6101 -3.57194 2.86664 0
M  V30 608 N 66.1011 -3.64702 2.85563 0
M  V30 609 C 66.8361 -4.44309 3.6246 0
M  V30 610 N 66.3321 -5.27514 4.49111 0
M  V30 611 N 68.1251 -4.39084 3.50944 0
M  V30 612 H 60.2761 -0.837882 1.95175 0
M  V30 613 H 62.5391 -0.430608 0.84456 0
M  V30 614 H 62.2451 -2.10176 2.81991 0
M  V30 615 H 62.1191 -3.39601 1.64168 0
M  V30 616 H 64.5061 -2.83338 0.824855 0
M  V30 617 H 64.5871 -1.54706 2.03715 0
M  V30 618 H 64.2311 -3.28558 3.87314 0
M  V30 619 H 64.1611 -4.5613 2.6316 0
M  V30 620 H 66.6521 -3.05289 2.22727 0
M  V30 621 H 66.9651 -5.85411 5.04493 0
M  V30 622 H 65.3101 -5.2693 4.53178 0
M  V30 623 H 68.5011 -3.7313 2.82651 0
M  V30 624 H 68.6741 -5.00883 4.11121 0
M  V30 625 N 62.0802 -0.821533 -1.34494 0
M  V30 626 C 63.0432 -0.247847 -2.27856 0
M  V30 627 C 64.0432 0.573453 -1.50227 0
M  V30 628 O 65.2332 0.389759 -1.69784 0
M  V30 629 C 62.3652 0.652698 -3.34593 0
M  V30 630 H 63.5582 -1.07146 -2.80107 0
M  V30 631 H 61.1112 -0.593291 -1.44602 0
M  V30 632 H 61.8462 1.49943 -2.87555 0
M  V30 633 H 61.6312 0.065292 -3.92046 0
M  V30 634 H 63.1212 1.04793 -4.04238 0
M  V30 635 N 63.5583 1.46682 -0.576371 0
M  V30 636 C 64.5213 2.28707 0.150239 0
M  V30 637 C 65.5213 1.38035 0.824794 0
M  V30 638 O 66.7113 1.60476 0.677719 0
M  V30 639 C 63.8433 3.18248 1.22192 0
M  V30 640 H 65.0363 2.94423 -0.570521 0
M  V30 641 H 62.5893 1.52688 -0.334078 0
M  V30 642 H 63.3243 2.57265 1.97447 0
M  V30 643 H 63.1093 3.85 0.742812 0
M  V30 644 H 64.5993 3.80001 1.73172 0
M  V30 645 N 65.0364 0.313813 1.54444 0
M  V30 646 C 65.9684 -0.590425 2.21465 0
M  V30 647 C 66.9814 -1.08753 1.21147 0
M  V30 648 O 68.1704 -1.00278 1.4767 0
M  V30 649 C 65.2704 -1.82179 2.85769 0
M  V30 650 C 64.4434 -1.46502 4.12136 0
M  V30 651 C 63.5024 -2.55288 4.60124 0
M  V30 652 O 62.5284 -2.19842 5.25032 0
M  V30 653 N 63.7304 -3.86053 4.33525 0
M  V30 654 H 66.4954 -0.0166033 2.99695 0
M  V30 655 H 64.0564 0.136578 1.61323 0
M  V30 656 H 66.0484 -2.54328 3.14801 0
M  V30 657 H 64.6184 -2.30369 2.11303 0
M  V30 658 H 63.8384 -0.575595 3.89975 0
M  V30 659 H 65.1264 -1.20221 4.94393 0
M  V30 660 H 64.5244 -4.17654 3.81552 0
M  V30 661 H 63.0814 -4.54461 4.67235 0
M  V30 662 N 66.5145 -1.57545 0.0417849 0
M  V30 663 C 67.7625 -1.91937 -0.632829 0
M  V30 664 C 68.0835 -0.919978 -1.71934 0
M  V30 665 O 67.3535 0.0366064 -1.95866 0
M  V30 666 H 65.9335 -0.708493 -0.236742 0
M  V30 667 H 68.5955 -1.9468 0.0925745 0
M  V30 668 H 67.6915 -2.92912 -1.07746 0
M  V30 669 N 67.9926 0.231505 -1.5589 0
M  V30 670 C 68.9026 1.308 -1.94752 0
M  V30 671 C 69.9186 1.51826 -0.849989 0
M  V30 672 O 71.0946 1.6515 -1.15271 0
M  V30 673 C 68.1596 2.63968 -2.24771 0
M  V30 674 C 67.2206 2.51331 -3.48039 0
M  V30 675 C 66.4536 3.78148 -3.76616 0
M  V30 676 O 66.6766 4.80722 -3.07022 0
M  V30 677 O 65.6106 3.75857 -4.70123 0
M  V30 678 H 69.4366 1.0083 -2.86474 0
M  V30 679 H 67.0216 0.433547 -1.42971 0
M  V30 680 H 68.9036 3.42633 -2.45318 0
M  V30 681 H 67.5786 2.9364 -1.36225 0
M  V30 682 H 66.4856 1.709 -3.32782 0
M  V30 683 H 67.8186 2.26601 -4.36936 0
M  V30 684 N 69.4707 1.49531 0.497807 0
M  V30 685 C 70.7177 1.59179 1.25173 0
M  V30 686 C 71.0457 0.279932 1.92475 0
M  V30 687 O 70.3007 -0.732383 1.81479 0
M  V30 688 C 70.5997 2.70252 2.33878 0
M  V30 689 C 70.2657 4.11644 1.84012 0
M  V30 690 C 68.9277 4.50121 1.70132 0
M  V30 691 C 71.2797 5.00121 1.46725 0
M  V30 692 C 68.6077 5.74845 1.17348 0
M  V30 693 C 70.9597 6.25366 0.95392 0
M  V30 694 C 69.6237 6.6267 0.801538 0
M  V30 695 H 68.8937 0.582478 0.45804 0
M  V30 696 H 71.5407 1.83373 0.551948 0
M  V30 697 H 69.8457 2.40041 3.09657 0
M  V30 698 H 71.5427 2.74925 2.9192 0
M  V30 699 H 68.1327 3.81274 1.95775 0
M  V30 700 H 72.3167 4.71048 1.56294 0
M  V30 701 H 67.5727 6.02444 1.04264 0
M  V30 702 H 71.7467 6.93301 0.656225 0
M  V30 703 H 69.3737 7.59197 0.390351 0
M  V30 704 N 70.9488 -0.749086 1.3866 0
M  V30 705 C 72.3598 -1.32664 1.31366 0
M  V30 706 C 72.7108 -1.96179 -0.028484 0
M  V30 707 O 71.8358 -1.9537 -0.93057 0
M  V30 708 C 72.4308 -2.41219 2.37905 0
M  V30 709 C 70.9898 -2.94684 2.34176 0
M  V30 710 C 70.1368 -1.68108 2.20533 0
M  V30 711 H 73.0878 -0.547628 1.48952 0
M  V30 712 H 73.1088 -3.21268 2.0388 0
M  V30 713 H 72.6208 -1.94962 3.35576 0
M  V30 714 H 70.7218 -3.45258 1.401 0
M  V30 715 H 70.8348 -3.48757 3.2849 0
M  V30 716 H 69.1988 -1.91907 1.67463 0
M  V30 717 H 69.9818 -1.23923 3.20153 0
M  V30 718 N 72.4269 -1.23603 -0.977757 0
M  V30 719 C 73.6739 -1.06971 -1.71941 0
M  V30 720 C 74.0019 0.393009 -1.90488 0
M  V30 721 O 73.2569 1.30719 -1.4564 0
M  V30 722 C 73.5559 -1.7433 -3.11999 0
M  V30 723 C 73.2219 -3.24252 -3.13323 0
M  V30 724 C 71.8839 -3.65156 -3.13392 0
M  V30 725 C 74.2359 -4.20141 -3.08433 0
M  V30 726 C 71.5639 -5.00403 -3.0629 0
M  V30 727 C 73.9159 -5.55384 -3.02873 0
M  V30 728 C 72.5799 -5.95647 -3.01265 0
M  V30 729 H 71.8499 -0.391433 -0.629175 0
M  V30 730 H 74.4969 -1.53572 -1.14403 0
M  V30 731 H 72.8019 -1.20096 -3.7294 0
M  V30 732 H 74.4989 -1.58936 -3.68158 0
M  V30 733 H 71.0889 -2.91692 -3.14029 0
M  V30 734 H 75.2729 -3.89547 -3.07517 0
M  V30 735 H 70.5289 -5.3081 -3.03399 0
M  V30 736 H 74.7029 -6.29398 -2.98046 0
M  V30 737 H 72.3299 -7.0041 -2.95516 0
M  V30 738 N 73.905 1.17692 -1.04816 0
M  V30 739 C 74.838 2.20436 -0.590173 0
M  V30 740 C 75.816 1.58115 0.379244 0
M  V30 741 O 77 1.86228 0.291762 0
M  V30 742 C 74.127 3.38424 0.136817 0
M  V30 743 C 73.173 4.19176 -0.787023 0
M  V30 744 S 74.006 4.84815 -2.27409 0
M  V30 745 C 75.162 6.06195 -1.55817 0
M  V30 746 H 75.395 2.58944 -1.46067 0
M  V30 747 H 72.928 1.28246 -0.859784 0
M  V30 748 H 74.886 4.06798 0.550076 0
M  V30 749 H 73.547 2.98312 0.983299 0
M  V30 750 H 72.74 5.03499 -0.224681 0
M  V30 751 H 72.342 3.56219 -1.13947 0
M  V30 752 H 74.634 6.72078 -0.855387 0
M  V30 753 H 75.577 6.6695 -2.37873 0
M  V30 754 H 75.985 5.54701 -1.04722 0
M  V30 755 N 75.3831 0.828654 1.34056 0
M  V30 756 C 76.6291 0.42008 1.98402 0
M  V30 757 C 76.9621 -1.01564 1.65525 0
M  V30 758 O 76.2371 -1.70834 0.929831 0
M  V30 759 C 76.5201 0.62927 3.54559 0
M  V30 760 C 76.3731 2.11152 3.97159 0
M  V30 761 C 77.6921 0.0688756 4.40046 0
M  V30 762 H 74.8111 0.154104 0.720709 0
M  V30 763 H 77.4531 1.04228 1.5886 0
M  V30 764 H 75.6031 0.0996418 3.88372 0
M  V30 765 H 77.2751 2.70522 3.73651 0
M  V30 766 H 75.5181 2.59985 3.47261 0
M  V30 767 H 76.1891 2.20868 5.05887 0
M  V30 768 H 78.6651 0.521458 4.1282 0
M  V30 769 H 77.5411 0.245006 5.48353 0
M  V30 770 H 77.8021 -1.0266 4.30015 0
M  V30 771 N 76.8612 -1.46375 0.584142 0
M  V30 772 C 78.2772 -1.57694 0.245929 0
M  V30 773 C 78.4772 -1.57903 -1.25175 0
M  V30 774 O 77.5332 -1.49676 -2.03355 0
M  V30 775 C 78.8462 -2.87028 0.896402 0
M  V30 776 C 80.3942 -3.00662 0.870127 0
M  V30 777 C 80.8692 -4.32734 1.50017 0
M  V30 778 N 82.3602 -4.39436 1.46458 0
M  V30 779 C 83.0952 -5.40248 1.92144 0
M  V30 780 N 82.5912 -6.47726 2.4581 0
M  V30 781 N 84.3842 -5.31459 1.83052 0
M  V30 782 H 76.5352 -1.44483 1.55687 0
M  V30 783 H 78.7982 -0.689291 0.650831 0
M  V30 784 H 78.5042 -2.9269 1.95002 0
M  V30 785 H 78.3782 -3.75014 0.405486 0
M  V30 786 H 80.7652 -2.94581 -0.174871 0
M  V30 787 H 80.8462 -2.14148 1.39908 0
M  V30 788 H 80.4902 -4.39573 2.54437 0
M  V30 789 H 80.4202 -5.18025 0.946432 0
M  V30 790 H 82.9112 -3.62367 1.07231 0
M  V30 791 H 83.2242 -7.20863 2.78525 0
M  V30 792 H 81.5692 -6.48542 2.49836 0
M  V30 793 H 84.7602 -4.46396 1.40883 0
M  V30 794 H 84.9332 -6.09881 2.18973 0
M  V30 795 N 78.3393 -0.321999 -1.54275 0
M  V30 796 C 79.2693 0.537411 -2.27231 0
M  V30 797 C 80.2503 1.12064 -1.27968 0
M  V30 798 O 81.4353 1.14606 -1.56777 0
M  V30 799 C 78.5653 1.69919 -3.02894 0
M  V30 800 C 77.5193 1.24534 -4.09482 0
M  V30 801 C 76.8453 2.49394 -4.72977 0
M  V30 802 C 78.1453 0.361335 -5.21049 0
M  V30 803 H 79.8393 -0.0711406 -2.99315 0
M  V30 804 H 77.3853 -0.0356555 -1.43956 0
M  V30 805 H 79.3383 2.30668 -3.52662 0
M  V30 806 H 78.0623 2.33431 -2.28424 0
M  V30 807 H 76.7213 0.660782 -3.60596 0
M  V30 808 H 76.3693 3.11265 -3.95124 0
M  V30 809 H 76.0693 2.19718 -5.44975 0
M  V30 810 H 77.5933 3.10908 -5.25517 0
M  V30 811 H 79.0073 0.875072 -5.66582 0
M  V30 812 H 77.4043 0.157428 -5.99893 0
M  V30 813 H 78.4743 -0.60822 -4.8107 0
M  V30 814 N 79.8174 1.5752 -0.0501392 0
M  V30 815 C 81.0424 1.97376 0.636997 0
M  V30 816 C 81.4674 0.927466 1.63645 0
M  V30 817 O 80.8254 -0.10941 1.8097 0
M  V30 818 C 80.8734 3.36304 1.30123 0
M  V30 819 O 79.9774 3.34156 2.41689 0
M  V30 820 H 79.3184 0.642998 0.165679 0
M  V30 821 H 81.8484 2.04258 -0.118233 0
M  V30 822 H 81.8584 3.73008 1.65315 0
M  V30 823 H 80.5334 4.11993 0.568746 0
M  V30 824 H 79.1104 3.09196 2.08451 0
M  V30 825 N 81.2955 -0.223234 1.56011 0
M  V30 826 C 82.2285 -1.30377 1.87289 0
M  V30 827 C 83.2065 -1.45286 0.730112 0
M  V30 828 O 84.3905 -1.61126 0.978302 0
M  V30 829 C 81.5175 -2.67431 2.07843 0
M  V30 830 C 80.5635 -2.69546 3.30526 0
M  V30 831 S 81.3965 -2.23781 4.865 0
M  V30 832 C 82.5525 -3.62714 5.10088 0
M  V30 833 H 82.7855 -1.03652 2.78646 0
M  V30 834 H 80.3185 -0.425393 1.48424 0
M  V30 835 H 82.2765 -3.46336 2.20368 0
M  V30 836 H 80.9375 -2.91381 1.17285 0
M  V30 837 H 80.1305 -3.70255 3.41947 0
M  V30 838 H 79.7325 -1.98703 3.16849 0
M  V30 839 H 82.0245 -4.58391 4.98883 0
M  V30 840 H 82.9675 -3.5621 6.11981 0
M  V30 841 H 83.3755 -3.56323 4.37829 0
M  V30 842 N 82.7736 -1.49793 -0.48987 0
M  V30 843 C 84.0216 -1.59525 -1.24081 0
M  V30 844 C 84.3426 -0.288953 -1.92847 0
M  V30 845 O 83.6126 0.692436 -1.83254 0
M  V30 846 H 82.1926 -0.587796 -0.460983 0
M  V30 847 H 84.8546 -1.86477 -0.566778 0
M  V30 848 H 83.9506 -2.39696 -1.99881 0
M  V30 849 N 84.2517 0.741722 -1.39055 0
M  V30 850 C 85.4917 1.51385 -1.37338 0
M  V30 851 C 85.8557 1.91972 0.0330513 0
M  V30 852 O 87.0567 2.68229 0.175174 0
M  V30 853 C 85.3277 2.72481 -2.31276 0
M  V30 854 S 86.8867 3.62211 -2.47687 0
M  V30 855 H 83.7047 0.517906 -0.487129 0
M  V30 856 H 86.3067 0.86969 -1.7509 0
M  V30 857 H 85.0107 2.40793 -3.32336 0
M  V30 858 H 84.5417 3.41832 -1.94716 0
M  V30 859 H 86.5567 4.65812 -1.70978 0
M  V30 860 N 85.7298 1.2412 0.971189 0
M  V30 861 C 86.9778 1.07668 1.71032 0
M  V30 862 C 87.2988 -0.385797 1.91146 0
M  V30 863 O 86.5688 -1.27569 1.4867 0
M  V30 864 H 85.1488 0.395429 0.633755 0
M  V30 865 H 87.8108 1.55984 1.16855 0
M  V30 866 H 86.9068 1.57195 2.69622 0
M  V30 867 N 87.2079 -1.17134 1.05439 0
M  V30 868 C 88.4559 -1.87085 0.764429 0
M  V30 869 C 88.7769 -1.81584 -0.710787 0
M  V30 870 O 88.0469 -1.24349 -1.51374 0
M  V30 871 H 86.6269 -0.692627 0.279779 0
M  V30 872 H 89.2889 -1.42087 1.33406 0
M  V30 873 H 88.3849 -2.92759 1.0816 0
M  V30 874 N 88.686 -0.835752 -1.33615 0
M  V30 875 C 89.649 -0.272 -2.2758 0
M  V30 876 C 90.649 0.557487 -1.50827 0
M  V30 877 O 91.839 0.37173 -1.70188 0
M  V30 878 C 88.971 0.617173 -3.35267 0
M  V30 879 H 90.164 -1.10111 -2.78954 0
M  V30 880 H 87.717 -0.608594 -1.43965 0
M  V30 881 H 88.452 1.46884 -2.89129 0
M  V30 882 H 88.237 0.0237066 -3.92093 0
M  V30 883 H 89.727 1.005 -4.05326 0
M  V30 884 N 90.1641 1.46063 -0.591896 0
M  V30 885 C 91.0941 2.33172 0.123673 0
M  V30 886 C 92.0751 1.45897 0.87453 0
M  V30 887 O 93.2601 1.74698 0.848181 0
M  V30 888 C 90.3901 3.28336 1.13194 0
M  V30 889 C 89.3441 4.25124 0.495324 0
M  V30 890 C 88.6701 5.09863 1.61071 0
M  V30 891 C 89.9701 5.19143 -0.573425 0
M  V30 892 H 91.6641 2.93252 -0.603646 0
M  V30 893 H 89.2101 1.41014 -0.291741 0
M  V30 894 H 91.1631 3.88137 1.64097 0
M  V30 895 H 89.8871 2.66383 1.88965 0
M  V30 896 H 88.5461 3.66599 0.00729452 0
M  V30 897 H 88.1941 4.44288 2.35832 0
M  V30 898 H 87.8941 5.75417 1.19035 0
M  V30 899 H 89.4181 5.72529 2.12233 0
M  V30 900 H 90.8321 5.73106 -0.1491 0
M  V30 901 H 89.2291 5.93089 -0.914636 0
M  V30 902 H 90.2991 4.62519 -1.45617 0
M  V30 903 N 91.6422 0.330177 1.54103 0
M  V30 904 C 92.8722 -0.271784 2.04805 0
M  V30 905 C 93.2802 -1.45816 1.20559 0
M  V30 906 O 92.6232 -1.82247 0.2306 0
M  V30 907 C 92.6852 -0.763238 3.51305 0
M  V30 908 C 92.3492 0.301705 4.56003 0
M  V30 909 C 93.3462 1.13999 5.07248 0
M  V30 910 C 91.0312 0.451793 5.00264 0
M  V30 911 C 93.0252 2.11402 6.01322 0
M  V30 912 C 90.7122 1.42924 5.94151 0
M  V30 913 C 91.7102 2.25882 6.44567 0
M  V30 914 O 91.3982 3.21965 7.3661 0
M  V30 915 H 91.1302 -0.058693 0.673447 0
M  V30 916 H 93.6842 0.476395 1.99799 0
M  V30 917 H 91.9142 -1.56244 3.5373 0
M  V30 918 H 93.6032 -1.28427 3.85047 0
M  V30 919 H 94.3692 1.03505 4.73827 0
M  V30 920 H 90.2482 -0.184044 4.60632 0
M  V30 921 H 93.7922 2.76192 6.40596 0
M  V30 922 H 89.6892 1.53479 6.26988 0
M  V30 923 H 90.4572 3.17281 7.54503 0
M  V30 924 N 93.1203 -1.57491 0.0584922 0
M  V30 925 C 94.0833 -2.1085 -0.898617 0
M  V30 926 C 95.0833 -1.02964 -1.23511 0
M  V30 927 O 96.2733 -1.29007 -1.17059 0
M  V30 928 C 93.4053 -2.59881 -2.20623 0
M  V30 929 H 94.5983 -2.96715 -0.435936 0
M  V30 930 H 92.1513 -1.55141 -0.190023 0
M  V30 931 H 92.8863 -1.77431 -2.71457 0
M  V30 932 H 92.6713 -3.38727 -1.97501 0
M  V30 933 H 94.1613 -3.01285 -2.89166 0
M  V30 934 N 94.5984 0.214957 -1.56127 0
M  V30 935 C 95.5304 1.29004 -1.89448 0
M  V30 936 C 96.5434 1.42716 -0.783326 0
M  V30 937 O 97.7324 1.43496 -1.06166 0
M  V30 938 C 94.8324 2.66482 -2.09381 0
M  V30 939 C 94.0054 2.74633 -3.40434 0
M  V30 940 C 93.0644 3.9317 -3.49719 0
M  V30 941 O 92.0904 3.812 -4.227 0
M  V30 942 N 93.2924 5.07765 -2.81346 0
M  V30 943 H 96.0574 1.00743 -2.82261 0
M  V30 944 H 93.6184 0.40497 -1.56753 0
M  V30 945 H 95.6104 3.44173 -2.12901 0
M  V30 946 H 94.1804 2.87314 -1.23163 0
M  V30 947 H 93.4004 1.83368 -3.48955 0
M  V30 948 H 94.6884 2.77054 -4.26754 0
M  V30 949 H 94.0864 5.20386 -2.21843 0
M  V30 950 H 92.6434 5.83474 -2.90519 0
M  V30 951 N 96.0765 1.50051 0.48192 0
M  V30 952 C 97.3535 1.51009 1.2432 0
M  V30 953 C 97.7335 0.248587 2.09631 0
M  V30 954 O 97.0815 -0.768409 2.15192 0
M  V30 955 C 97.2915 2.79981 2.08355 0
M  V30 956 C 98.6395 3.3022 2.66908 0
M  V30 957 O 99.6635 2.81228 2.18607 0
M  V30 958 O 98.5225 4.15595 3.54884 0
M  V30 959 H 95.6165 0.605239 0.563573 0
M  V30 960 H 98.1625 1.62332 0.494627 0
M  V30 961 H 96.9345 3.63275 1.45419 0
M  V30 962 H 96.5575 2.7161 2.90368 0
M  V30 963 N 97.5546 -0.734337 1.39446 0
M  V30 964 C 98.8036 -1.48937 1.36017 0
M  V30 965 C 99.1166 -1.95557 -0.0409005 0
M  V30 966 O 100.323 -2.70779 -0.19778 0
M  V30 967 C 98.7786 -2.69125 2.38955 0
M  V30 968 C 98.3866 -2.29452 3.8478 0
M  V30 969 C 100.131 -3.46944 2.44603 0
M  V30 970 C 98.0376 -3.46366 4.79358 0
M  V30 971 H 96.9676 -0.559296 0.505672 0
M  V30 972 H 99.6186 -0.800983 1.65095 0
M  V30 973 H 98.0006 -3.40041 2.02948 0
M  V30 974 H 99.1746 -1.66077 4.29831 0
M  V30 975 H 97.4896 -1.64723 3.82433 0
M  V30 976 H 100.087 -4.33907 3.12456 0
M  V30 977 H 100.43 -3.89454 1.47076 0
M  V30 978 H 100.963 -2.83056 2.79507 0
M  V30 979 H 97.7016 -3.08905 5.78151 0
M  V30 980 H 97.2216 -4.08719 4.38986 0
M  V30 981 H 98.9006 -4.12691 4.98292 0
M  V30 982 N 99.0327 -1.24633 -0.964593 0
M  V30 983 C 100.279 -1.08949 -1.71049 0
M  V30 984 C 100.612 0.370302 -1.90637 0
M  V30 985 O 99.8867 1.27349 -1.47011 0
M  V30 986 C 100.17 -1.83329 -3.0994 0
M  V30 987 C 100.023 -3.37077 -2.97824 0
M  V30 988 C 101.342 -1.60846 -4.09654 0
M  V30 989 H 98.4607 -0.397178 -0.620821 0
M  V30 990 H 101.103 -1.5334 -1.12191 0
M  V30 991 H 99.2527 -1.45597 -3.60186 0
M  V30 992 H 100.925 -3.84425 -2.5498 0
M  V30 993 H 99.1677 -3.65298 -2.33965 0
M  V30 994 H 99.8387 -3.84324 -3.96231 0
M  V30 995 H 102.315 -1.93674 -3.68279 0
M  V30 996 H 101.191 -2.1534 -5.04896 0
M  V30 997 H 101.452 -0.547434 -4.38698 0
M  V30 998 N 100.511 1.16574 -1.06058 0
M  V30 999 C 101.441 2.23057 -0.690488 0
M  V30 1000 C 102.422 1.67141 0.315901 0
M  V30 1001 O 103.607 1.93253 0.191556 0
M  V30 1002 C 100.737 3.47222 -0.073625 0
M  V30 1003 C 99.6908 4.16016 -1.00573 0
M  V30 1004 C 99.0168 5.34104 -0.252289 0
M  V30 1005 C 100.317 4.67264 -2.33371 0
M  V30 1006 H 102.011 2.54271 -1.58072 0
M  V30 1007 H 99.5568 1.22218 -0.76149 0
M  V30 1008 H 101.51 4.20939 0.19714 0
M  V30 1009 H 100.234 3.15302 0.85161 0
M  V30 1010 H 98.8928 3.44223 -1.2612 0
M  V30 1011 H 98.5408 4.98437 0.675988 0
M  V30 1012 H 98.2408 5.81072 -0.873455 0
M  V30 1013 H 99.7648 6.10599 0.0109857 0
M  V30 1014 H 101.179 5.32573 -2.12223 0
M  V30 1015 H 99.5758 5.24843 -2.90963 0
M  V30 1016 H 100.646 3.83602 -2.96611 0
M  V30 1017 N 101.989 0.842826 1.3317 0
M  V30 1018 C 103.217 0.454055 2.01856 0
M  V30 1019 C 103.632 -0.94587 1.63397 0
M  V30 1020 O 102.989 -1.61534 0.849302 0
M  V30 1021 C 103.04 0.569715 3.56982 0
M  V30 1022 O 102.761 1.91448 3.94055 0
M  V30 1023 C 104.262 0.178412 4.42941 0
M  V30 1024 H 101.482 0.17979 0.646465 0
M  V30 1025 H 104.026 1.1365 1.70012 0
M  V30 1026 H 102.181 -0.0648587 3.87346 0
M  V30 1027 H 102.595 1.90282 4.88767 0
M  V30 1028 H 104.069 0.310376 5.51127 0
M  V30 1029 H 104.546 -0.880056 4.30293 0
M  V30 1030 H 105.152 0.787579 4.17944 0
M  V30 1031 N 103.467 -1.45747 0.599634 0
M  V30 1032 C 104.43 -2.28917 -0.113835 0
M  V30 1033 C 105.43 -1.3933 -0.802729 0
M  V30 1034 O 106.62 -1.61534 -0.652103 0
M  V30 1035 C 103.752 -3.20152 -1.17114 0
M  V30 1036 H 104.945 -2.93478 0.617289 0
M  V30 1037 H 102.498 -1.52137 0.358327 0
M  V30 1038 H 103.233 -2.60374 -1.93329 0
M  V30 1039 H 103.018 -3.86133 -0.681468 0
M  V30 1040 H 104.508 -3.82708 -1.67105 0
M  V30 1041 N 104.945 -0.338344 -1.53925 0
M  V30 1042 C 105.908 0.508299 -2.23493 0
M  V30 1043 C 106.908 1.03175 -1.23335 0
M  V30 1044 O 108.098 0.921826 -1.47811 0
M  V30 1045 C 105.23 1.70754 -2.95052 0
M  V30 1046 H 106.423 -0.100058 -2.99733 0
M  V30 1047 H 103.976 -0.0896198 -1.56043 0
M  V30 1048 H 104.711 2.35474 -2.22986 0
M  V30 1049 H 104.496 1.33946 -3.68512 0
M  V30 1050 H 105.986 2.30818 -3.48013 0
M  V30 1051 N 106.423 1.57458 -0.0668435 0
M  V30 1052 C 107.373 2.0896 0.912119 0
M  V30 1053 C 108.357 0.998186 1.26195 0
M  V30 1054 O 109.549 1.26133 1.24175 0
M  V30 1055 C 106.678 2.6508 2.18145 0
M  V30 1056 C 105.764 3.81218 1.85832 0
M  V30 1057 N 106.155 4.90378 1.23948 0
M  V30 1058 C 104.453 3.9042 2.15612 0
M  V30 1059 C 105.154 5.71279 1.09616 0
M  V30 1060 N 104.13 5.19389 1.60423 0
M  V30 1061 H 107.932 2.90749 0.42924 0
M  V30 1062 H 105.446 1.6182 0.137184 0
M  V30 1063 H 107.443 3.0029 2.89192 0
M  V30 1064 H 106.103 1.84736 2.67025 0
M  V30 1065 H 107.114 5.09847 0.909731 0
M  V30 1066 H 103.791 3.21043 2.66903 0
M  V30 1067 H 105.181 6.69085 0.614425 0
M  V30 1068 N 107.901 -0.206675 1.56239 0
M  V30 1069 C 109.141 -0.93574 1.81723 0
M  V30 1070 C 109.505 -1.80927 0.642609 0
M  V30 1071 O 110.706 -2.57323 0.777081 0
M  V30 1072 C 108.977 -1.74012 3.12177 0
M  V30 1073 S 110.536 -2.52279 3.59028 0
M  V30 1074 H 107.354 -0.314065 0.637875 0
M  V30 1075 H 109.956 -0.200071 1.94474 0
M  V30 1076 H 108.66 -1.0888 3.95693 0
M  V30 1077 H 108.191 -2.51782 3.02274 0
M  V30 1078 H 110.206 -3.76209 3.23545 0
M  V30 1079 N 109.379 -1.50304 -0.473955 0
M  V30 1080 C 110.625 -1.61389 -1.22806 0
M  V30 1081 C 110.958 -0.311955 -1.91678 0
M  V30 1082 O 110.233 0.686384 -1.81986 0
M  V30 1083 C 110.516 -2.79219 -2.27396 0
M  V30 1084 C 110.369 -4.19286 -1.62848 0
M  V30 1085 C 111.688 -2.92614 -3.28732 0
M  V30 1086 H 108.807 -0.587399 -0.445119 0
M  V30 1087 H 111.449 -1.82681 -0.522265 0
M  V30 1088 H 109.599 -2.61195 -2.87592 0
M  V30 1089 H 111.271 -4.48892 -1.06271 0
M  V30 1090 H 109.514 -4.23677 -0.931693 0
M  V30 1091 H 110.185 -4.97655 -2.38838 0
M  V30 1092 H 112.661 -3.09105 -2.78556 0
M  V30 1093 H 111.537 -3.76688 -3.99246 0
M  V30 1094 H 111.798 -2.03107 -3.92683 0
M  V30 1095 N 110.857 0.726932 -1.39834 0
M  V30 1096 C 112.082 1.52121 -1.40976 0
M  V30 1097 C 112.507 1.88098 -0.00826029 0
M  V30 1098 O 111.865 1.52479 0.980807 0
M  V30 1099 C 111.913 2.78021 -2.29644 0
M  V30 1100 O 111.017 3.74272 -1.73188 0
M  V30 1101 H 110.358 0.45908 -0.479731 0
M  V30 1102 H 112.888 0.896207 -1.83927 0
M  V30 1103 H 112.898 3.26671 -2.44438 0
M  V30 1104 H 111.573 2.51169 -3.31492 0
M  V30 1105 H 110.15 3.33073 -1.6768 0
M  V30 1106 N 112.336 1.25143 0.95797 0
M  V30 1107 C 113.584 1.09476 1.69881 0
M  V30 1108 C 113.905 -0.365502 1.91544 0
M  V30 1109 O 113.175 -1.25985 1.50015 0
M  V30 1110 H 111.755 0.402128 0.629525 0
M  V30 1111 H 114.417 1.57214 1.15194 0
M  V30 1112 H 113.513 1.60046 2.6794 0
M  V30 1113 N 113.814 -1.1601 1.06675 0
M  V30 1114 C 115.039 -1.91068 0.806706 0
M  V30 1115 C 115.464 -1.77112 -0.633485 0
M  V30 1116 O 114.822 -1.09908 -1.44187 0
M  V30 1117 C 114.87 -3.39655 1.21106 0
M  V30 1118 O 113.974 -4.10893 0.352189 0
M  V30 1119 H 113.315 -0.595125 0.294486 0
M  V30 1120 H 115.845 -1.46955 1.42356 0
M  V30 1121 H 115.855 -3.90434 1.18428 0
M  V30 1122 H 114.53 -3.49132 2.26008 0
M  V30 1123 H 113.107 -3.70285 0.440868 0
M  V30 1124 N 115.292 -0.849877 -1.32721 0
M  V30 1125 C 116.54 -0.450032 -1.97026 0
M  V30 1126 C 116.861 0.996604 -1.67609 0
M  V30 1127 O 116.131 1.6958 -0.980786 0
M  V30 1128 H 114.711 -0.163426 -0.728904 0
M  V30 1129 H 117.373 -1.08526 -1.6189 0
M  V30 1130 H 116.469 -0.591146 -3.0645 0
M  V30 1131 N 116.77 1.45427 -0.607355 0
M  V30 1132 C 117.718 2.32269 0.12411 0
M  V30 1133 C 118.712 1.45955 0.859854 0
M  V30 1134 O 119.918 1.6244 0.775447 0
M  V30 1135 H 116.293 0.749691 0.0588839 0
M  V30 1136 H 118.264 2.91743 -0.626762 0
M  V30 1137 C 117.013 3.29567 1.1082 0
M  V30 1138 H 116.336 3.95978 0.551492 0
M  V30 1139 H 117.776 3.93061 1.58995 0
M  V30 1140 C 116.235 2.56722 2.18164 0
M  V30 1141 O 116.765 2.34842 3.25902 0
M  V30 1142 N 114.971 2.16861 1.93442 0
M  V30 1143 H 114.518 2.34855 1.05834 0
M  V30 1144 H 114.476 1.68444 2.65469 0
M  V30 1145 N 118.248 0.346503 1.53744 0
M  V30 1146 C 119.196 -0.52422 2.26616 0
M  V30 1147 C 120.19 -1.09948 1.28871 0
M  V30 1148 O 121.396 -1.04488 1.46568 0
M  V30 1149 H 117.771 -0.187743 0.728187 0
M  V30 1150 H 119.742 0.11239 2.98188 0
M  V30 1151 C 118.491 -1.66186 3.05414 0
M  V30 1152 H 117.814 -1.22848 3.80458 0
M  V30 1153 H 119.254 -2.24622 3.59612 0
M  V30 1154 C 117.713 -2.59302 2.1509 0
M  V30 1155 O 118.243 -3.61628 1.74895 0
M  V30 1156 N 116.449 -2.28055 1.8011 0
M  V30 1157 H 115.996 -1.44883 2.12994 0
M  V30 1158 H 115.954 -2.90615 1.19958 0
M  V30 1159 N 119.726 -1.57421 0.075193 0
M  V30 1160 C 120.954 -1.97946 -0.602076 0
M  V30 1161 C 121.369 -0.953674 -1.62943 0
M  V30 1162 O 120.726 0.0592551 -1.82404 0
M  V30 1163 C 120.777 -3.38546 -1.26762 0
M  V30 1164 O 120.498 -4.37195 -0.281376 0
M  V30 1165 C 121.999 -3.93966 -2.03239 0
M  V30 1166 H 119.219 -0.650918 -0.162931 0
M  V30 1167 H 121.763 -2.03959 0.148601 0
M  V30 1168 H 119.918 -3.33609 -1.96936 0
M  V30 1169 H 120.332 -5.18975 -0.759267 0
M  V30 1170 H 121.806 -4.94555 -2.45193 0
M  V30 1171 H 122.283 -3.30693 -2.8903 0
M  V30 1172 H 122.889 -4.02315 -1.37924 0
M  V30 1173 N 121.204 0.198386 -1.56346 0
M  V30 1174 C 122.429 0.939682 -1.84891 0
M  V30 1175 C 122.854 1.76202 -0.658369 0
M  V30 1176 O 122.212 1.76993 0.392851 0
M  V30 1177 C 122.26 1.81428 -3.11635 0
M  V30 1178 O 121.364 2.91265 -2.91956 0
M  V30 1179 H 120.705 0.264807 -0.608912 0
M  V30 1180 H 123.235 0.204695 -2.03573 0
M  V30 1181 H 123.245 2.21958 -3.42343 0
M  V30 1182 H 121.92 1.21004 -3.97908 0
M  V30 1183 H 120.497 2.54514 -2.72538 0
M  V30 1184 N 122.682 1.50554 0.465978 0
M  V30 1185 C 123.931 1.61038 1.21448 0
M  V30 1186 C 124.244 0.31865 1.92987 0
M  V30 1187 O 125.45 0.302469 2.6981 0
M  V30 1188 C 123.906 2.84283 2.20706 0
M  V30 1189 C 123.514 4.20352 1.54946 0
M  V30 1190 C 125.258 3.04115 2.96166 0
M  V30 1191 C 123.165 5.34778 2.5252 0
M  V30 1192 H 122.095 0.599718 0.457005 0
M  V30 1193 H 124.746 1.7699 0.484424 0
M  V30 1194 H 123.128 2.61901 2.97025 0
M  V30 1195 H 124.302 4.53008 0.843811 0
M  V30 1196 H 122.617 4.06167 0.917475 0
M  V30 1197 H 125.214 3.86774 3.69202 0
M  V30 1198 H 125.557 2.16045 3.55852 0
M  V30 1199 H 126.09 3.26702 2.26959 0
M  V30 1200 H 122.829 6.25018 1.97566 0
M  V30 1201 H 122.349 5.06534 3.21222 0
M  V30 1202 H 124.028 5.65561 3.14245 0
M  V30 1203 N 124.16 -0.719506 1.40217 0
M  V30 1204 C 125.388 -1.50864 1.41589 0
M  V30 1205 C 125.803 -1.88794 0.0145275 0
M  V30 1206 O 125.16 -1.55174 -0.960594 0
M  V30 1207 C 125.211 -2.78646 2.30302 0
M  V30 1208 O 124.932 -2.42321 3.64983 0
M  V30 1209 C 126.433 -3.72569 2.40224 0
M  V30 1210 H 123.653 -0.465709 0.48307 0
M  V30 1211 H 126.197 -0.88785 1.84221 0
M  V30 1212 H 124.352 -3.37019 1.91042 0
M  V30 1213 H 124.766 -3.24514 4.12057 0
M  V30 1214 H 126.24 -4.5908 3.06512 0
M  V30 1215 H 126.717 -4.15403 1.42608 0
M  V30 1216 H 127.323 -3.20109 2.80019 0
M  V30 1217 N 125.638 -1.25649 -0.95132 0
M  V30 1218 C 126.601 -1.06399 -2.03007 0
M  V30 1219 C 127.601 -0.0156794 -1.60792 0
M  V30 1220 O 128.791 -0.25817 -1.72276 0
M  V30 1221 C 125.923 -0.616184 -3.35285 0
M  V30 1222 H 127.116 -2.02164 -2.21517 0
M  V30 1223 H 124.669 -1.08103 -1.12887 0
M  V30 1224 H 125.404 0.343917 -3.22471 0
M  V30 1225 H 125.189 -1.37301 -3.67275 0
M  V30 1226 H 126.679 -0.503032 -4.14559 0
M  V30 1227 N 127.117 1.15442 -1.07289 0
M  V30 1228 C 128.345 1.90096 -0.81676 0
M  V30 1229 C 128.76 1.7798 0.629966 0
M  V30 1230 O 128.117 1.1313 1.43206 0
M  V30 1231 C 128.168 3.40466 -1.21512 0
M  V30 1232 O 127.889 3.52232 -2.60508 0
M  V30 1233 C 129.39 4.32145 -0.988198 0
M  V30 1234 H 126.61 0.602495 -0.295366 0
M  V30 1235 H 129.154 1.4627 -1.42918 0
M  V30 1236 H 127.309 3.81958 -0.647039 0
M  V30 1237 H 127.723 4.45549 -2.76742 0
M  V30 1238 H 129.197 5.36072 -1.31645 0
M  V30 1239 H 129.674 4.39135 0.0755063 0
M  V30 1240 H 130.28 3.96395 -1.54115 0
M  V30 1241 N 128.595 0.856903 1.32268 0
M  V30 1242 C 129.843 0.460474 1.96784 0
M  V30 1243 C 130.164 -0.987701 1.68135 0
M  V30 1244 O 129.434 -1.69058 0.989765 0
M  V30 1245 H 128.014 0.167289 0.728027 0
M  V30 1246 H 130.676 1.09383 1.61312 0
M  V30 1247 H 129.772 0.60739 3.06133 0
M  V30 1248 N 130.073 -1.45103 0.615059 0
M  V30 1249 C 131.321 -2.01784 0.112955 0
M  V30 1250 C 131.642 -1.48504 -1.26378 0
M  V30 1251 O 130.912 -0.682245 -1.83636 0
M  V30 1252 H 129.492 -0.745993 0.0387668 0
M  V30 1253 H 132.154 -1.77808 0.798141 0
M  V30 1254 H 131.25 -3.12025 0.0684069 0
M  V30 1255 N 131.551 -0.354651 -1.53558 0
M  V30 1256 C 132.797 0.238797 -2.01389 0
M  V30 1257 C 133.13 1.49309 -1.2418 0
M  V30 1258 O 132.405 1.91638 -0.332457 0
M  V30 1259 C 132.688 0.541771 -3.56001 0
M  V30 1260 C 132.541 -0.725388 -4.43912 0
M  V30 1261 C 133.86 1.34685 -4.18984 0
M  V30 1262 H 130.979 0.0853177 -0.732045 0
M  V30 1263 H 133.621 -0.477384 -1.83905 0
M  V30 1264 H 131.771 1.15189 -3.71031 0
M  V30 1265 H 133.443 -1.36313 -4.407 0
M  V30 1266 H 131.686 -1.34801 -4.12324 0
M  V30 1267 H 132.357 -0.468505 -5.50008 0
M  V30 1268 H 134.833 0.830837 -4.07721 0
M  V30 1269 H 133.709 1.52759 -5.27215 0
M  V30 1270 H 133.97 2.35221 -3.74331 0
M  V30 1271 N 133.029 1.57378 -0.0835403 0
M  V30 1272 C 134.275 1.94217 0.583733 0
M  V30 1273 C 134.608 0.964653 1.68547 0
M  V30 1274 O 133.883 -0.00422258 1.945 0
M  V30 1275 C 134.166 3.41253 1.14972 0
M  V30 1276 C 134.019 4.49768 0.0538277 0
M  V30 1277 C 135.338 3.89352 2.05166 0
M  V30 1278 H 132.457 0.706233 0.210724 0
M  V30 1279 H 135.099 1.89392 -0.1519 0
M  V30 1280 H 133.249 3.45496 1.77665 0
M  V30 1281 H 134.921 4.57641 -0.579851 0
M  V30 1282 H 133.164 4.29432 -0.614068 0
M  V30 1283 H 133.835 5.49817 0.490452 0
M  V30 1284 H 136.311 3.87189 1.52393 0
M  V30 1285 H 135.187 4.92822 2.41698 0
M  V30 1286 H 135.448 3.27973 2.96456 0
M  V30 1287 N 134.507 -0.190092 1.56449 0
M  V30 1288 C 135.784 -0.935886 1.71757 0
M  V30 1289 C 136.164 -2.01173 0.639726 0
M  V30 1290 O 135.512 -2.25827 -0.348502 0
M  V30 1291 C 135.722 -1.51775 3.1427 0
M  V30 1292 C 137.07 -1.99794 3.74656 0
M  V30 1293 O 138.094 -1.61607 3.1743 0
M  V30 1294 O 136.953 -2.70079 4.751 0
M  V30 1295 H 134.047 -0.439229 0.700719 0
M  V30 1296 H 136.593 -0.179395 1.68749 0
M  V30 1297 H 135.365 -0.742505 3.84191 0
M  V30 1298 H 134.988 -2.33894 3.21527 0
M  V30 1299 N 135.985 -1.50799 -0.457987 0
M  V30 1300 C 136.915 -1.73553 -1.5621 0
M  V30 1301 C 137.896 -0.584774 -1.59732 0
M  V30 1302 O 139.081 -0.825314 -1.7579 0
M  V30 1303 C 136.211 -1.84169 -2.94447 0
M  V30 1304 C 135.165 -2.99461 -3.0579 0
M  V30 1305 C 134.491 -2.95235 -4.45803 0
M  V30 1306 C 135.791 -4.39766 -2.81786 0
M  V30 1307 H 137.485 -2.66 -1.37421 0
M  V30 1308 H 135.031 -1.28002 -0.659662 0
M  V30 1309 H 136.984 -1.98672 -3.71628 0
M  V30 1310 H 135.708 -0.883545 -3.14422 0
M  V30 1311 H 134.367 -2.8463 -2.31044 0
M  V30 1312 H 134.015 -1.97239 -4.62715 0
M  V30 1313 H 133.715 -3.72642 -4.54326 0
M  V30 1314 H 135.239 -3.11803 -5.24987 0
M  V30 1315 H 136.653 -4.55054 -3.4871 0
M  V30 1316 H 135.05 -5.18722 -3.0174 0
M  V30 1317 H 136.12 -4.51229 -1.7754 0
M  V30 1318 N 137.463 0.71206 -1.40597 0
M  V30 1319 C 138.395 1.83704 -1.37061 0
M  V30 1320 C 139.408 1.60453 -0.275426 0
M  V30 1321 O 140.597 1.70262 -0.53602 0
M  V30 1322 C 137.697 3.20172 -1.11099 0
M  V30 1323 C 136.87 3.7059 -2.3234 0
M  V30 1324 C 135.929 4.85681 -2.02485 0
M  V30 1325 O 134.955 4.9815 -2.75382 0
M  V30 1326 N 136.157 5.71735 -1.00497 0
M  V30 1327 H 138.922 1.87235 -2.34016 0
M  V30 1328 H 136.483 0.893739 -1.34996 0
M  V30 1329 H 138.475 3.94768 -0.891064 0
M  V30 1330 H 137.045 3.11767 -0.227989 0
M  V30 1331 H 136.265 2.87085 -2.7014 0
M  V30 1332 H 137.553 4.01011 -3.13157 0
M  V30 1333 H 136.951 5.64275 -0.401298 0
M  V30 1334 H 135.508 6.463 -0.844942 0
M  V30 1335 N 138.941 1.26152 0.944643 0
M  V30 1336 C 140.166 1.14363 1.7302 0
M  V30 1337 C 140.591 -0.29772 1.85729 0
M  V30 1338 O 139.949 -1.2157 1.34501 0
M  V30 1339 C 139.997 1.81378 3.11664 0
M  V30 1340 O 139.101 1.10022 3.97453 0
M  V30 1341 H 138.442 0.398694 0.53098 0
M  V30 1342 H 140.972 1.66906 1.18337 0
M  V30 1343 H 140.982 1.88064 3.62072 0
M  V30 1344 H 139.657 2.86237 3.0173 0
M  V30 1345 H 138.234 1.11287 3.55907 0
M  V30 1346 N 140.419 -1.14872 1.07899 0
M  V30 1347 C 141.644 -1.90202 0.826926 0
M  V30 1348 C 142.069 -1.77774 -0.614664 0
M  V30 1349 O 141.427 -1.11431 -1.43013 0
M  V30 1350 C 141.475 -3.38352 1.24702 0
M  V30 1351 O 140.579 -4.10497 0.39575 0
M  V30 1352 H 139.92 -0.591968 0.300782 0
M  V30 1353 H 142.45 -1.45437 1.43907 0
M  V30 1354 H 142.46 -3.89156 1.22563 0
M  V30 1355 H 141.135 -3.46715 2.29698 0
M  V30 1356 H 139.712 -3.69796 0.480117 0
M  V30 1357 N 141.898 -0.863906 -1.31812 0
M  V30 1358 C 143.123 -0.48527 -2.01643 0
M  V30 1359 C 143.548 0.913058 -1.64453 0
M  V30 1360 O 142.906 1.6014 -0.849985 0
M  V30 1361 C 142.954 -0.642625 -3.54828 0
M  V30 1362 O 142.058 0.320659 -4.11151 0
M  V30 1363 H 141.399 -0.193793 -0.635091 0
M  V30 1364 H 143.929 -1.16565 -1.68148 0
M  V30 1365 H 143.939 -0.533628 -4.04495 0
M  V30 1366 H 142.614 -1.66227 -3.81237 0
M  V30 1367 H 141.191 0.167126 -3.72525 0
M  V30 1368 N 143.376 1.44774 -0.622745 0
M  V30 1369 C 144.339 2.29069 0.0774015 0
M  V30 1370 C 145.339 1.4059 0.780461 0
M  V30 1371 O 146.529 1.62551 0.626322 0
M  V30 1372 C 143.661 3.21974 1.12006 0
M  V30 1373 H 144.854 2.92459 -0.663901 0
M  V30 1374 H 142.407 1.51548 -0.382486 0
M  V30 1375 H 143.142 2.63417 1.89162 0
M  V30 1376 H 142.927 3.87168 0.619951 0
M  V30 1377 H 144.417 3.85318 1.60995 0
M  V30 1378 N 144.854 0.36279 1.53368 0
M  V30 1379 C 146.1 -0.228113 2.01513 0
M  V30 1380 C 146.433 -1.48648 1.2497 0
M  V30 1381 O 145.708 -1.91459 0.342616 0
M  V30 1382 C 145.991 -0.522884 3.56284 0
M  V30 1383 C 145.844 0.74892 4.43521 0
M  V30 1384 C 147.163 -1.32461 4.19693 0
M  V30 1385 H 144.282 -0.0814343 0.732487 0
M  V30 1386 H 146.924 0.48713 1.83649 0
M  V30 1387 H 145.074 -1.1322 3.71636 0
M  V30 1388 H 146.746 1.38648 4.39971 0
M  V30 1389 H 144.989 1.36986 4.11603 0
M  V30 1390 H 145.66 0.497667 5.49752 0
M  V30 1391 H 148.136 -0.809203 4.08156 0
M  V30 1392 H 147.012 -1.49961 5.28018 0
M  V30 1393 H 147.273 -2.33232 3.75573 0
M  V30 1394 N 146.332 -1.57332 0.0918853 0
M  V30 1395 C 147.279 -2.13847 -0.868211 0
M  V30 1396 C 148.249 -1.05618 -1.28196 0
M  V30 1397 O 149.434 -1.33387 -1.36427 0
M  V30 1398 C 146.574 -2.72062 -2.12312 0
M  V30 1399 C 145.687 -3.94514 -1.7602 0
M  V30 1400 C 144.822 -4.40903 -2.96273 0
M  V30 1401 C 143.861 -5.55953 -2.56092 0
M  V30 1402 N 142.998 -5.97209 -3.69169 0
M  V30 1403 H 147.838 -2.95575 -0.379406 0
M  V30 1404 H 145.375 -1.46048 -0.175606 0
M  V30 1405 H 147.333 -3.03931 -2.858 0
M  V30 1406 H 145.963 -1.93068 -2.58698 0
M  V30 1407 H 145.015 -3.68979 -0.925135 0
M  V30 1408 H 146.327 -4.7802 -1.42472 0
M  V30 1409 H 145.481 -4.74539 -3.78018 0
M  V30 1410 H 144.22 -3.56291 -3.33029 0
M  V30 1411 H 143.225 -5.21948 -1.72773 0
M  V30 1412 H 144.45 -6.42311 -2.20484 0
M  V30 1413 H 142.396 -5.15543 -4.05649 0
M  V30 1414 H 142.313 -6.75504 -3.39456 0
M  V30 1415 H 143.581 -6.35475 -4.51434 0
M  V30 1416 N 147.81 0.181792 -1.56548 0
M  V30 1417 C 149.056 0.901431 -1.81665 0
M  V30 1418 C 149.389 1.82347 -0.668075 0
M  V30 1419 O 148.664 1.91669 0.330615 0
M  V30 1420 C 148.947 1.70618 -3.17115 0
M  V30 1421 C 148.8 0.807964 -4.42484 0
M  V30 1422 C 150.119 2.67605 -3.49393 0
M  V30 1423 H 147.238 0.32627 -0.660846 0
M  V30 1424 H 149.88 0.168134 -1.89255 0
M  V30 1425 H 148.03 2.33133 -3.10775 0
M  V30 1426 H 149.702 0.19649 -4.60881 0
M  V30 1427 H 147.945 0.115411 -4.33646 0
M  V30 1428 H 148.616 1.40632 -5.33785 0
M  V30 1429 H 151.092 2.15218 -3.56118 0
M  V30 1430 H 149.968 3.20985 -4.45264 0
M  V30 1431 H 150.229 3.47298 -2.73563 0
M  V30 1432 N 149.288 1.51039 0.449983 0
M  V30 1433 C 150.704 1.38934 0.785462 0
M  V30 1434 C 150.904 0.461817 1.96136 0
M  V30 1435 O 149.96 -0.0877389 2.52348 0
M  V30 1436 C 151.273 2.80724 1.0777 0
M  V30 1437 C 152.821 2.89787 1.1829 0
M  V30 1438 C 153.296 4.32457 1.50815 0
M  V30 1439 N 154.787 4.35505 1.57764 0
M  V30 1440 C 155.522 5.42914 1.84477 0
M  V30 1441 N 155.018 6.60502 2.09068 0
M  V30 1442 N 156.811 5.3038 1.86155 0
M  V30 1443 H 148.962 2.09904 -0.324647 0
M  V30 1444 H 151.225 0.944378 -0.0827957 0
M  V30 1445 H 150.931 3.50531 0.286498 0
M  V30 1446 H 150.805 3.19273 2.00859 0
M  V30 1447 H 153.192 2.20186 1.96474 0
M  V30 1448 H 153.273 2.54752 0.231314 0
M  V30 1449 H 152.917 5.02603 0.731622 0
M  V30 1450 H 152.847 4.64995 2.47158 0
M  V30 1451 H 155.338 3.50724 1.40715 0
M  V30 1452 H 155.651 7.38158 2.28785 0
M  V30 1453 H 153.996 6.63639 2.06416 0
M  V30 1454 H 157.187 4.37505 1.66454 0
M  V30 1455 H 157.36 6.1417 2.06637 0
M  V30 1456 N 150.766 -0.704594 1.40972 0
M  V30 1457 C 151.991 -1.49858 1.43378 0
M  V30 1458 C 152.416 -1.88061 0.038184 0
M  V30 1459 O 151.774 -1.5402 -0.956425 0
M  V30 1460 C 151.822 -2.74333 2.34038 0
M  V30 1461 O 150.926 -3.7147 1.7912 0
M  V30 1462 H 150.267 -0.45139 0.486974 0
M  V30 1463 H 152.797 -0.866832 1.8533 0
M  V30 1464 H 152.807 -3.22741 2.49604 0
M  V30 1465 H 151.482 -2.45863 3.35446 0
M  V30 1466 H 150.059 -3.30363 1.72958 0
M  V30 1467 N 152.244 -1.26651 -0.937939 0
M  V30 1468 C 153.472 -1.15173 -1.7188 0
M  V30 1469 C 153.887 0.292668 -1.86518 0
M  V30 1470 O 153.244 1.20014 -1.37488 0
M  V30 1471 C 153.295 -1.81925 -3.12387 0
M  V30 1472 O 153.016 -3.2072 -2.98446 0
M  V30 1473 C 154.517 -1.76442 -4.06673 0
M  V30 1474 H 151.737 -0.400911 -0.538063 0
M  V30 1475 H 154.281 -1.67332 -1.1756 0
M  V30 1476 H 152.436 -1.33696 -3.63599 0
M  V30 1477 H 152.85 -3.53802 -3.872 0
M  V30 1478 H 154.324 -2.27781 -5.02812 0
M  V30 1479 H 154.801 -0.731608 -4.33064 0
M  V30 1480 H 155.407 -2.24238 -3.61382 0
M  V30 1481 N 153.722 1.14298 -1.08507 0
M  V30 1482 C 154.669 2.19414 -0.715965 0
M  V30 1483 C 155.639 1.63399 0.298326 0
M  V30 1484 O 156.824 1.89929 0.182101 0
M  V30 1485 C 153.964 3.44845 -0.132534 0
M  V30 1486 C 153.077 4.15007 -1.19973 0
M  V30 1487 C 152.212 5.28024 -0.580048 0
M  V30 1488 C 151.251 5.9002 -1.62921 0
M  V30 1489 N 150.388 6.94485 -1.03125 0
M  V30 1490 H 155.228 2.50336 -1.61666 0
M  V30 1491 H 152.765 1.2293 -0.807882 0
M  V30 1492 H 154.723 4.16601 0.223454 0
M  V30 1493 H 153.353 3.14403 0.731467 0
M  V30 1494 H 152.405 3.41629 -1.67313 0
M  V30 1495 H 153.717 4.57178 -1.99473 0
M  V30 1496 H 152.871 6.06455 -0.172364 0
M  V30 1497 H 151.61 4.87076 0.246603 0
M  V30 1498 H 150.615 5.10291 -2.04654 0
M  V30 1499 H 151.84 6.33042 -2.45835 0
M  V30 1500 H 149.786 6.55612 -0.225711 0
M  V30 1501 H 149.703 7.35148 -1.76334 0
M  V30 1502 H 150.971 7.7679 -0.649458 0
M  V30 1503 N 155.201 0.870884 1.31352 0
M  V30 1504 C 156.447 0.482987 1.96965 0
M  V30 1505 C 156.78 -0.962462 1.68672 0
M  V30 1506 O 156.055 -1.6779 0.98371 0
M  V30 1507 C 156.338 0.741752 3.52378 0
M  V30 1508 C 156.191 2.2368 3.9024 0
M  V30 1509 C 157.51 0.208838 4.39604 0
M  V30 1510 H 154.629 0.176955 0.715441 0
M  V30 1511 H 157.271 1.09229 1.55464 0
M  V30 1512 H 155.421 0.223149 3.87859 0
M  V30 1513 H 157.093 2.82273 3.64856 0
M  V30 1514 H 155.336 2.70901 3.38814 0
M  V30 1515 H 156.007 2.3685 4.98604 0
M  V30 1516 H 158.483 0.652529 4.10952 0
M  V30 1517 H 157.359 0.419336 5.47296 0
M  V30 1518 H 157.62 -0.889275 4.33064 0
M  V30 1519 N 156.679 -1.44442 0.630414 0
M  V30 1520 C 157.609 -2.33418 -0.0618083 0
M  V30 1521 C 158.59 -1.48165 -0.835541 0
M  V30 1522 O 159.775 -1.76886 -0.801564 0
M  V30 1523 C 156.905 -3.31222 -1.04449 0
M  V30 1524 C 155.859 -4.26288 -0.382436 0
M  V30 1525 C 155.185 -5.13954 -1.47497 0
M  V30 1526 C 156.485 -5.1744 0.710865 0
M  V30 1527 H 158.179 -2.91548 0.681184 0
M  V30 1528 H 155.725 -1.40191 0.329026 0
M  V30 1529 H 157.678 -3.92351 -1.53748 0
M  V30 1530 H 156.402 -2.71299 -1.81836 0
M  V30 1531 H 155.061 -3.6649 0.0899054 0
M  V30 1532 H 154.709 -4.50385 -2.2397 0
M  V30 1533 H 154.409 -5.7837 -1.03737 0
M  V30 1534 H 155.933 -5.77955 -1.96979 0
M  V30 1535 H 157.347 -5.72509 0.300996 0
M  V30 1536 H 155.744 -5.90455 1.07156 0
M  V30 1537 H 156.814 -4.58496 1.57829 0
M  V30 1538 N 158.157 -0.370918 -1.53173 0
M  V30 1539 C 159.089 0.507823 -2.23503 0
M  V30 1540 C 160.102 1.04182 -1.251 0
M  V30 1541 O 161.291 0.947286 -1.5129 0
M  V30 1542 C 158.391 1.71447 -2.92334 0
M  V30 1543 C 157.564 1.31105 -4.17289 0
M  V30 1544 C 156.623 2.38035 -4.69282 0
M  V30 1545 O 155.649 2.00204 -5.32829 0
M  V30 1546 N 156.851 3.69697 -4.47554 0
M  V30 1547 H 159.616 -0.0946382 -2.99551 0
M  V30 1548 H 157.177 -0.196358 -1.60705 0
M  V30 1549 H 159.169 2.42469 -3.24023 0
M  V30 1550 H 157.739 2.22368 -2.19707 0
M  V30 1551 H 156.959 0.430462 -3.91843 0
M  V30 1552 H 158.247 1.0179 -4.98514 0
M  V30 1553 H 157.645 4.03205 -3.9679 0
M  V30 1554 H 156.202 4.36807 -4.8378 0
M  V30 1555 N 159.635 1.57281 -0.100228 0
M  V30 1556 C 160.598 2.13158 0.842398 0
M  V30 1557 C 161.598 1.06202 1.20738 0
M  V30 1558 O 162.788 1.32066 1.13597 0
M  V30 1559 C 159.92 2.65639 2.13655 0
M  V30 1560 H 161.113 2.97766 0.357114 0
M  V30 1561 H 158.666 1.5559 0.148823 0
M  V30 1562 H 159.401 1.84566 2.66657 0
M  V30 1563 H 159.186 3.43844 1.88451 0
M  V30 1564 H 160.676 3.08846 2.81077 0
M  V30 1565 N 161.113 -0.173488 1.56642 0
M  V30 1566 C 162.524 -0.736155 1.71574 0
M  V30 1567 C 162.875 -1.82888 0.710389 0
M  V30 1568 O 162 -2.16017 -0.1287 0
M  V30 1569 C 162.595 -1.34211 3.11083 0
M  V30 1570 C 161.154 -1.85162 3.27707 0
M  V30 1571 C 160.301 -0.729765 2.67525 0
M  V30 1572 H 163.252 0.0518786 1.58615 0
M  V30 1573 H 163.273 -2.21178 3.09613 0
M  V30 1574 H 162.785 -0.546579 3.84232 0
M  V30 1575 H 160.886 -2.67366 2.59512 0
M  V30 1576 H 160.999 -1.99855 4.35425 0
M  V30 1577 H 159.363 -1.14965 2.27278 0
M  V30 1578 H 160.146 0.0538806 3.43258 0
M  V30 1579 N 162.591 -1.51276 -0.441967 0
M  V30 1580 C 163.839 -1.63392 -1.18943 0
M  V30 1581 C 164.16 -0.350159 -1.9183 0
M  V30 1582 O 163.43 0.633784 -1.85364 0
M  V30 1583 H 162.01 -0.602164 -0.442049 0
M  V30 1584 H 164.672 -1.88186 -0.507165 0
M  V30 1585 H 163.768 -2.45934 -1.92154 0
M  V30 1586 N 164.069 0.697108 -1.41344 0
M  V30 1587 C 165.299 1.48377 -1.43763 0
M  V30 1588 C 165.707 1.89156 -0.0408726 0
M  V30 1589 O 165.05 1.57239 0.949812 0
M  V30 1590 C 165.112 2.7781 -2.2817 0
M  V30 1591 C 164.776 2.59244 -3.76353 0
M  V30 1592 C 165.773 2.25292 -4.68551 0
M  V30 1593 C 163.458 2.74933 -4.20378 0
M  V30 1594 C 165.452 2.07264 -6.02761 0
M  V30 1595 C 163.139 2.56521 -5.54653 0
M  V30 1596 C 164.137 2.22737 -6.4566 0
M  V30 1597 O 163.825 2.04485 -7.77458 0
M  V30 1598 H 163.557 0.463842 -0.491759 0
M  V30 1599 H 166.111 0.865934 -1.86255 0
M  V30 1600 H 164.341 3.41995 -1.8049 0
M  V30 1601 H 166.03 3.39608 -2.22309 0
M  V30 1602 H 166.796 2.12787 -4.35829 0
M  V30 1603 H 162.675 3.00213 -3.49848 0
M  V30 1604 H 166.219 1.80817 -6.73759 0
M  V30 1605 H 162.116 2.68616 -5.86955 0
M  V30 1606 H 162.884 2.1926 -7.88586 0
M  V30 1607 N 165.547 1.27147 0.931209 0
M  V30 1608 C 166.495 1.09398 2.05268 0
M  V30 1609 C 167.489 0.0180591 1.6939 0
M  V30 1610 O 168.695 0.17551 1.79142 0
M  V30 1611 H 165.07 0.336986 0.672268 0
M  V30 1612 H 167.041 2.04416 2.17386 0
M  V30 1613 C 165.79 0.75424 3.39421 0
M  V30 1614 H 165.113 1.57404 3.67511 0
M  V30 1615 H 166.553 0.669903 4.18674 0
M  V30 1616 C 165.012 -0.541197 3.32525 0
M  V30 1617 O 165.542 -1.57664 3.69466 0
M  V30 1618 N 163.748 -0.535517 2.85623 0
M  V30 1619 H 163.295 0.307511 2.55758 0
M  V30 1620 H 163.253 -1.40236 2.81392 0
M  V30 1621 N 167.025 -1.13721 1.09112 0
M  V30 1622 C 168.273 -1.84559 0.823562 0
M  V30 1623 C 168.594 -1.83754 -0.652658 0
M  V30 1624 O 167.864 -1.29102 -1.47342 0
M  V30 1625 H 166.444 -0.683376 0.301673 0
M  V30 1626 H 169.106 -1.37771 1.37859 0
M  V30 1627 H 168.202 -2.8917 1.17419 0
M  V30 1628 N 168.503 -0.877838 -1.30888 0
M  V30 1629 C 169.731 -0.507414 -2.00581 0
M  V30 1630 C 170.146 0.902216 -1.65848 0
M  V30 1631 O 169.503 1.59225 -0.891831 0
M  V30 1632 C 169.554 -0.664162 -3.55347 0
M  V30 1633 O 169.275 -2.01829 -3.8884 0
M  V30 1634 C 170.776 -0.295787 -4.42312 0
M  V30 1635 H 167.996 -0.196866 -0.641471 0
M  V30 1636 H 170.54 -1.18117 -1.66939 0
M  V30 1637 H 168.695 -0.0378619 -3.87381 0
M  V30 1638 H 169.109 -2.03174 -4.8355 0
M  V30 1639 H 170.583 -0.456388 -5.5011 0
M  V30 1640 H 171.06 0.765663 -4.32475 0
M  V30 1641 H 171.666 -0.898113 -4.15709 0
M  V30 1642 N 169.982 1.44106 -0.638065 0
M  V30 1643 C 171.23 2.01579 -0.145043 0
M  V30 1644 C 171.551 1.50496 1.24 0
M  V30 1645 O 170.821 0.711374 1.82527 0
M  V30 1646 H 169.401 0.745282 -0.05063 0
M  V30 1647 H 172.063 1.76516 -0.826327 0
M  V30 1648 H 171.159 3.11877 -0.118039 0
M  V30 1649 N 171.46 0.379036 1.52974 0
M  V30 1650 C 172.407 -0.461048 2.26148 0
M  V30 1651 C 173.377 -1.06637 1.27349 0
M  V30 1652 O 174.562 -1.09633 1.56157 0
M  V30 1653 C 171.702 -1.58782 3.06402 0
M  V30 1654 C 170.815 -1.00636 4.20115 0
M  V30 1655 C 169.95 -2.10334 4.87784 0
M  V30 1656 C 168.989 -1.49724 5.93506 0
M  V30 1657 N 168.126 -2.5331 6.54812 0
M  V30 1658 H 172.966 0.169429 2.97518 0
M  V30 1659 H 170.503 0.0953806 1.4679 0
M  V30 1660 H 172.461 -2.25174 3.51215 0
M  V30 1661 H 171.091 -2.18876 2.37261 0
M  V30 1662 H 170.143 -0.232332 3.7969 0
M  V30 1663 H 171.455 -0.523343 4.96047 0
M  V30 1664 H 170.609 -2.84519 5.35849 0
M  V30 1665 H 169.348 -2.61992 4.11353 0
M  V30 1666 H 168.353 -0.740598 5.44789 0
M  V30 1667 H 169.578 -0.988732 6.71864 0
M  V30 1668 H 167.524 -3.04156 5.81227 0
M  V30 1669 H 167.441 -2.09734 7.26325 0
M  V30 1670 H 168.709 -3.27155 7.07524 0
M  V30 1671 N 172.938 -1.57226 0.108567 0
M  V30 1672 C 174.215 -1.86333 -0.594939 0
M  V30 1673 C 174.595 -1.00788 -1.85486 0
M  V30 1674 O 173.943 -0.0839293 -2.28346 0
M  V30 1675 C 174.153 -3.37265 -0.897405 0
M  V30 1676 C 175.501 -4.05629 -1.25501 0
M  V30 1677 O 176.525 -3.42224 -0.987998 0
M  V30 1678 O 175.384 -5.17531 -1.75567 0
M  V30 1679 H 172.478 -0.771018 -0.2991 0
M  V30 1680 H 175.024 -1.69102 0.142283 0
M  V30 1681 H 173.796 -3.913 -0.00413806 0
M  V30 1682 H 173.419 -3.59889 -1.69014 0
M  V30 1683 N 174.416 0.165178 -1.56732 0
M  V30 1684 C 175.662 0.877389 -1.83503 0
M  V30 1685 C 176.017 1.79602 -0.689996 0
M  V30 1686 O 175.31 1.89023 0.313205 0
M  V30 1687 C 175.504 1.70405 -3.1416 0
M  V30 1688 C 175.333 0.866961 -4.41264 0
M  V30 1689 C 174.103 0.539646 -5.0241 0
M  V30 1690 C 176.301 0.205671 -5.13889 0
M  V30 1691 N 174.283 -0.312946 -6.13102 0
M  V30 1692 C 175.654 -0.507823 -6.17917 0
M  V30 1693 C 177.709 0.124468 -4.97744 0
M  V30 1694 C 176.412 -1.29483 -7.0755 0
M  V30 1695 C 178.438 -0.649222 -5.87826 0
M  V30 1696 C 177.8 -1.35106 -6.91322 0
M  V30 1697 H 173.899 0.299477 -0.722383 0
M  V30 1698 H 176.483 0.143949 -1.94167 0
M  V30 1699 H 174.654 2.40887 -3.04677 0
M  V30 1700 H 176.386 2.35804 -3.28905 0
M  V30 1701 H 173.141 0.871176 -4.65519 0
M  V30 1702 H 173.565 -0.729731 -6.73056 0
M  V30 1703 H 178.207 0.652724 -4.17731 0
M  V30 1704 H 175.925 -1.83441 -7.87004 0
M  V30 1705 H 179.511 -0.713804 -5.77405 0
M  V30 1706 H 178.391 -1.94013 -7.59821 0
M  V30 1707 N 175.894 1.51508 0.433938 0
M  V30 1708 C 176.857 1.72473 1.50949 0
M  V30 1709 C 177.857 0.594725 1.49398 0
M  V30 1710 O 179.047 0.862315 1.5136 0
M  V30 1711 C 176.179 1.78431 2.90474 0
M  V30 1712 H 177.372 2.68467 1.33662 0
M  V30 1713 H 174.925 1.41549 0.662836 0
M  V30 1714 H 175.66 0.842645 3.13161 0
M  V30 1715 H 175.445 2.60558 2.93005 0
M  V30 1716 H 176.935 1.96479 3.68491 0
M  V30 1717 N 177.372 -0.689602 1.41712 0
M  V30 1718 C 178.302 -1.81577 1.46806 0
M  V30 1719 C 179.283 -1.66945 0.326105 0
M  V30 1720 O 180.468 -1.86588 0.538377 0
M  V30 1721 C 177.598 -3.19762 1.35535 0
M  V30 1722 C 176.552 -3.49107 2.47605 0
M  V30 1723 C 175.878 -4.86711 2.21397 0
M  V30 1724 C 177.178 -3.47483 3.89939 0
M  V30 1725 H 178.872 -1.7757 2.41058 0
M  V30 1726 H 176.418 -0.852887 1.16025 0
M  V30 1727 H 178.371 -3.98263 1.3771 0
M  V30 1728 H 177.095 -3.24409 0.377708 0
M  V30 1729 H 175.754 -2.72959 2.44722 0
M  V30 1730 H 175.402 -4.8799 1.21961 0
M  V30 1731 H 175.102 -5.0731 2.96497 0
M  V30 1732 H 176.626 -5.67515 2.25297 0
M  V30 1733 H 178.04 -4.1598 3.94505 0
M  V30 1734 H 176.437 -3.79615 4.64771 0
M  V30 1735 H 177.507 -2.46341 4.17665 0
M  V30 1736 N 178.85 -1.27639 -0.924453 0
M  V30 1737 C 180.099 -1.13549 -1.66702 0
M  V30 1738 C 180.412 0.317487 -1.93006 0
M  V30 1739 O 181.618 0.579333 -2.65247 0
M  V30 1740 C 180.074 -1.98426 -3.00259 0
M  V30 1741 C 179.682 -3.484 -2.81641 0
M  V30 1742 C 181.426 -1.92993 -3.78092 0
M  V30 1743 C 179.333 -4.25464 -4.10773 0
M  V30 1744 H 178.263 -0.421351 -0.625283 0
M  V30 1745 H 180.914 -1.52085 -1.02676 0
M  V30 1746 H 179.296 -1.52736 -3.6536 0
M  V30 1747 H 180.47 -4.01973 -2.25287 0
M  V30 1748 H 178.785 -3.55245 -2.17232 0
M  V30 1749 H 181.382 -2.47844 -4.7379 0
M  V30 1750 H 181.725 -0.904281 -4.0636 0
M  V30 1751 H 182.258 -2.36595 -3.19793 0
M  V30 1752 H 178.997 -5.28566 -3.87683 0
M  V30 1753 H 178.517 -3.76667 -4.66779 0
M  V30 1754 H 180.196 -4.34812 -4.79111 0
M  V30 1755 N 180.328 1.1314 -1.09713 0
M  V30 1756 C 181.275 2.18642 -0.739196 0
M  V30 1757 C 182.245 1.63706 0.280978 0
M  V30 1758 O 183.43 1.90111 0.161946 0
M  V30 1759 C 180.57 3.44685 -0.169102 0
M  V30 1760 C 179.683 4.13711 -1.24367 0
M  V30 1761 C 178.818 5.27379 -0.636019 0
M  V30 1762 C 177.857 5.88259 -1.69169 0
M  V30 1763 N 176.994 6.93352 -1.10485 0
M  V30 1764 H 181.834 2.48607 -1.64312 0
M  V30 1765 H 179.371 1.22066 -0.820875 0
M  V30 1766 H 181.329 4.16815 0.179256 0
M  V30 1767 H 179.959 3.15161 0.698079 0
M  V30 1768 H 179.011 3.39835 -1.70927 0
M  V30 1769 H 180.323 4.55037 -2.04311 0
M  V30 1770 H 179.477 6.06238 -0.236677 0
M  V30 1771 H 178.216 4.8731 0.194928 0
M  V30 1772 H 177.221 5.08092 -2.10055 0
M  V30 1773 H 178.446 6.30399 -2.52536 0
M  V30 1774 H 176.392 6.55335 -0.295234 0
M  V30 1775 H 176.309 7.33236 -1.84121 0
M  V30 1776 H 177.577 7.76057 -0.73181 0
M  V30 1777 N 181.806 0.884767 1.30421 0
M  V30 1778 C 182.736 0.367574 2.30589 0
M  V30 1779 C 183.717 -0.549464 1.60981 0
M  V30 1780 O 184.902 -0.46336 1.88591 0
M  V30 1781 C 182.032 -0.418944 3.44764 0
M  V30 1782 C 180.986 0.406316 4.26067 0
M  V30 1783 C 180.312 -0.506793 5.32293 0
M  V30 1784 C 181.612 1.64832 4.95608 0
M  V30 1785 H 183.306 1.20462 2.74097 0
M  V30 1786 H 180.852 0.580695 1.31772 0
M  V30 1787 H 182.805 -0.791395 4.13902 0
M  V30 1788 H 181.529 -1.28964 3.0006 0
M  V30 1789 H 180.188 0.760903 3.58617 0
M  V30 1790 H 179.836 -1.37519 4.83836 0
M  V30 1791 H 179.536 0.0415828 5.87585 0
M  V30 1792 H 181.06 -0.875764 6.04287 0
M  V30 1793 H 182.474 1.34646 5.57264 0
M  V30 1794 H 180.871 2.13688 5.60765 0
M  V30 1795 H 181.941 2.39284 4.21748 0
M  V30 1796 N 183.284 -1.43765 0.645699 0
M  V30 1797 C 184.247 -2.29163 -0.0409488 0
M  V30 1798 C 185.247 -1.41813 -0.757996 0
M  V30 1799 O 186.437 -1.63527 -0.600382 0
M  V30 1800 C 183.569 -3.23716 -1.06869 0
M  V30 1801 H 184.762 -2.91366 0.710345 0
M  V30 1802 H 182.315 -1.5092 0.406547 0
M  V30 1803 H 183.05 -2.66393 -1.84947 0
M  V30 1804 H 182.835 -3.88105 -0.558277 0
M  V30 1805 H 184.325 -3.87831 -1.54845 0
M  V30 1806 N 184.763 -0.387143 -1.52771 0
M  V30 1807 C 185.695 0.484089 -2.2403 0
M  V30 1808 C 186.708 1.02849 -1.26198 0
M  V30 1809 O 187.897 0.931186 -1.52286 0
M  V30 1810 C 184.997 1.68337 -2.94136 0
M  V30 1811 C 184.17 1.26672 -4.18656 0
M  V30 1812 C 183.229 2.33045 -4.7178 0
M  V30 1813 O 182.255 1.94541 -5.34923 0
M  V30 1814 N 183.457 3.64929 -4.5145 0
M  V30 1815 H 186.222 -0.126404 -2.99433 0
M  V30 1816 H 183.783 -0.213392 -1.60488 0
M  V30 1817 H 185.775 2.39019 -3.26577 0
M  V30 1818 H 184.345 2.20025 -2.22053 0
M  V30 1819 H 183.565 0.388878 -3.92277 0
M  V30 1820 H 184.853 0.964964 -4.99566 0
M  V30 1821 H 184.251 3.98974 -4.01044 0
M  V30 1822 H 182.808 4.31651 -4.88386 0
M  V30 1823 N 186.241 1.57166 -0.116904 0
M  V30 1824 C 187.652 1.82169 0.408809 0
M  V30 1825 C 188.003 1.03393 1.66746 0
M  V30 1826 O 187.128 0.269886 2.1471 0
M  V30 1827 C 187.723 3.30429 0.748466 0
M  V30 1828 C 186.282 3.5612 1.21882 0
M  V30 1829 C 185.429 2.76374 0.226452 0
M  V30 1830 H 188.38 1.5497 -0.342063 0
M  V30 1831 H 188.401 3.44943 1.60607 0
M  V30 1832 H 187.913 3.87737 -0.167784 0
M  V30 1833 H 186.014 3.04168 2.15204 0
M  V30 1834 H 186.127 4.64705 1.16559 0
M  V30 1835 H 184.491 2.44515 0.713063 0
M  V30 1836 H 185.274 3.3644 -0.682859 0
M  V30 1837 N 187.719 -0.156864 1.56817 0
M  V30 1838 C 188.968 -0.869504 1.81996 0
M  V30 1839 C 189.281 -1.82777 0.696545 0
M  V30 1840 O 190.487 -2.58384 0.833658 0
M  V30 1841 C 188.943 -1.59679 3.22538 0
M  V30 1842 C 188.551 -0.681431 4.42787 0
M  V30 1843 C 190.295 -2.2968 3.56997 0
M  V30 1844 C 188.202 -1.40978 5.74351 0
M  V30 1845 H 187.132 -0.328438 0.678708 0
M  V30 1846 H 189.783 -0.1223 1.83092 0
M  V30 1847 H 188.165 -2.38927 3.158 0
M  V30 1848 H 189.339 0.0751166 4.60739 0
M  V30 1849 H 187.654 -0.0903431 4.16302 0
M  V30 1850 H 190.251 -2.84794 4.52544 0
M  V30 1851 H 190.594 -3.05707 2.82576 0
M  V30 1852 H 191.127 -1.57361 3.65352 0
M  V30 1853 H 187.866 -0.691561 6.51842 0
M  V30 1854 H 187.386 -2.13929 5.60352 0
M  V30 1855 H 189.065 -1.95337 6.16808 0
M  V30 1856 N 189.197 -1.51736 -0.425897 0
M  V30 1857 C 190.145 -1.74464 -1.53834 0
M  V30 1858 C 191.139 -0.611241 -1.57988 0
M  V30 1859 O 192.345 -0.792899 -1.61596 0
M  V30 1860 H 188.72 -0.551437 -0.511293 0
M  V30 1861 H 190.691 -2.67694 -1.31843 0
M  V30 1862 C 189.44 -1.8972 -2.91379 0
M  V30 1863 H 188.763 -2.76344 -2.88919 0
M  V30 1864 H 190.203 -2.09629 -3.68553 0
M  V30 1865 C 188.662 -0.65992 -3.30374 0
M  V30 1866 O 189.192 0.180083 -4.01296 0
M  V30 1867 N 187.398 -0.500677 -2.86254 0
M  V30 1868 H 186.945 -1.18532 -2.28709 0
M  V30 1869 H 186.903 0.325903 -3.12706 0
M  V30 1870 N 190.675 0.682077 -1.42076 0
M  V30 1871 C 191.607 1.80755 -1.40926 0
M  V30 1872 C 192.62 1.59833 -0.309398 0
M  V30 1873 O 193.809 1.69087 -0.572014 0
M  V30 1874 C 190.909 3.17744 -1.17865 0
M  V30 1875 C 190.082 3.65578 -2.40149 0
M  V30 1876 C 189.141 4.81277 -2.12742 0
M  V30 1877 O 188.167 4.92197 -2.85887 0
M  V30 1878 N 189.369 5.69474 -1.12602 0
M  V30 1879 H 192.134 1.82229 -2.37935 0
M  V30 1880 H 189.695 0.864903 -1.36861 0
M  V30 1881 H 191.687 3.9279 -0.9746 0
M  V30 1882 H 190.257 3.11214 -0.294068 0
M  V30 1883 H 189.477 2.81291 -2.76169 0
M  V30 1884 H 190.765 3.94278 -3.21593 0
M  V30 1885 H 190.163 5.63297 -0.520899 0
M  V30 1886 H 188.72 6.44363 -0.981842 0
M  V30 1887 N 192.153 1.28127 0.917671 0
M  V30 1888 C 193.564 1.13622 1.48145 0
M  V30 1889 C 193.915 -0.275207 1.9426 0
M  V30 1890 O 193.04 -1.1691 1.82102 0
M  V30 1891 C 193.635 2.05648 2.69248 0
M  V30 1892 C 192.194 1.95219 3.21818 0
M  V30 1893 C 191.341 1.97618 1.94532 0
M  V30 1894 H 194.292 1.40874 0.730772 0
M  V30 1895 H 194.313 1.61818 3.44377 0
M  V30 1896 H 193.825 3.08365 2.35653 0
M  V30 1897 H 191.926 0.955244 3.60147 0
M  V30 1898 H 192.039 2.81976 3.87333 0
M  V30 1899 H 190.403 1.41973 2.11461 0
M  V30 1900 H 191.186 3.02007 1.63238 0
M  V30 1901 N 193.631 -1.12557 1.10312 0
M  V30 1902 C 194.859 -1.87864 0.866873 0
M  V30 1903 C 195.274 -1.79588 -0.582557 0
M  V30 1904 O 194.631 -1.16887 -1.40156 0
M  V30 1905 C 194.682 -3.37125 1.30496 0
M  V30 1906 O 194.403 -3.45201 2.69755 0
M  V30 1907 C 195.904 -4.29373 1.10243 0
M  V30 1908 H 193.124 -0.594452 0.311236 0
M  V30 1909 H 195.668 -1.42429 1.46745 0
M  V30 1910 H 193.823 -3.80109 0.748081 0
M  V30 1911 H 194.237 -4.38056 2.88457 0
M  V30 1912 H 195.711 -5.32394 1.45811 0
M  V30 1913 H 196.188 -4.39181 0.0409492 0
M  V30 1914 H 196.794 -3.92169 1.64571 0
M  V30 1915 N 195.109 -0.891671 -1.2995 0
M  V30 1916 C 196.039 -0.379797 -2.30391 0
M  V30 1917 C 197.02 0.540919 -1.6127 0
M  V30 1918 O 198.205 0.453352 -1.88834 0
M  V30 1919 C 195.335 0.400654 -3.44981 0
M  V30 1920 C 194.289 -0.428905 -4.25846 0
M  V30 1921 C 193.615 0.478557 -5.32554 0
M  V30 1922 C 194.915 -1.67458 -4.94727 0
M  V30 1923 H 196.609 -1.21914 -2.73454 0
M  V30 1924 H 194.155 -0.587675 -1.31462 0
M  V30 1925 H 196.108 0.769434 -4.14316 0
M  V30 1926 H 194.832 1.27371 -3.0074 0
M  V30 1927 H 193.491 -0.779911 -3.58208 0
M  V30 1928 H 193.139 1.34951 -4.84559 0
M  V30 1929 H 192.839 -0.0727433 -5.87555 0
M  V30 1930 H 194.363 0.843705 -6.04743 0
M  V30 1931 H 195.777 -1.376 -5.56542 0
M  V30 1932 H 194.174 -2.16659 -5.59624 0
M  V30 1933 H 195.244 -2.41518 -4.20473 0
M  V30 1934 N 196.587 1.43421 -0.653314 0
M  V30 1935 C 197.534 2.30768 0.0382271 0
M  V30 1936 C 198.504 1.44755 0.814576 0
M  V30 1937 O 199.689 1.73624 0.791162 0
M  V30 1938 C 196.829 3.30336 0.998599 0
M  V30 1939 C 195.942 4.31448 0.218342 0
M  V30 1940 C 195.077 5.18098 1.17252 0
M  V30 1941 C 194.116 6.10902 0.382702 0
M  V30 1942 N 193.253 6.90176 1.28848 0
M  V30 1943 H 198.093 2.89357 -0.712511 0
M  V30 1944 H 195.63 1.42548 -0.363128 0
M  V30 1945 H 197.588 3.86572 1.56901 0
M  V30 1946 H 196.218 2.73397 1.71621 0
M  V30 1947 H 195.27 3.77506 -0.46836 0
M  V30 1948 H 196.582 4.97227 -0.395812 0
M  V30 1949 H 195.736 5.7896 1.81356 0
M  V30 1950 H 194.475 4.52444 1.82058 0
M  V30 1951 H 193.48 5.49128 -0.27169 0
M  V30 1952 H 194.705 6.78598 -0.260957 0
M  V30 1953 H 192.651 6.27171 1.92334 0
M  V30 1954 H 192.568 7.52478 0.728887 0
M  V30 1955 H 193.836 7.55543 1.91766 0
M  V30 1956 N 198.065 0.39524 1.52563 0
M  V30 1957 C 199.314 -0.186321 2.00838 0
M  V30 1958 C 199.627 -1.47402 1.28577 0
M  V30 1959 O 200.833 -2.13599 1.67593 0
M  V30 1960 C 199.289 -0.382595 3.57861 0
M  V30 1961 C 198.897 0.892202 4.39026 0
M  V30 1962 C 200.641 -0.9202 4.14406 0
M  V30 1963 C 198.548 0.66388 5.87662 0
M  V30 1964 H 197.478 -0.0734041 0.750418 0
M  V30 1965 H 200.129 0.518552 1.76021 0
M  V30 1966 H 198.511 -1.14946 3.7895 0
M  V30 1967 H 199.685 1.66414 4.29701 0
M  V30 1968 H 198 1.35519 3.9373 0
M  V30 1969 H 200.597 -1.10683 5.23119 0
M  V30 1970 H 200.94 -1.89096 3.70875 0
M  V30 1971 H 201.473 -0.212751 3.97231 0
M  V30 1972 H 198.212 1.6058 6.35527 0
M  V30 1973 H 197.732 -0.0690193 5.9976 0
M  V30 1974 H 199.411 0.300699 6.46301 0
M  V30 1975 N 199.544 -1.57102 0.125237 0
M  V30 1976 C 200.507 -2.14471 -0.80838 0
M  V30 1977 C 201.507 -1.0811 -1.19033 0
M  V30 1978 O 202.697 -1.33856 -1.11482 0
M  V30 1979 C 199.829 -2.69005 -2.09402 0
M  V30 1980 H 201.022 -2.98297 -0.309696 0
M  V30 1981 H 198.575 -1.55807 -0.124051 0
M  V30 1982 H 199.31 -1.88785 -2.63687 0
M  V30 1983 H 199.095 -3.46799 -1.82957 0
M  V30 1984 H 200.585 -3.13278 -2.76128 0
M  V30 1985 N 201.022 0.148545 -1.56898 0
M  V30 1986 C 202.25 0.876389 -1.87422 0
M  V30 1987 C 202.665 1.74809 -0.713256 0
M  V30 1988 O 202.022 1.79725 0.317025 0
M  V30 1989 C 202.073 1.73438 -3.17178 0
M  V30 1990 O 201.794 0.897809 -4.28802 0
M  V30 1991 C 203.295 2.56993 -3.61205 0
M  V30 1992 H 200.515 0.253489 -0.621277 0
M  V30 1993 H 203.059 0.141798 -2.04008 0
M  V30 1994 H 201.214 2.42205 -3.0235 0
M  V30 1995 H 201.628 1.48672 -5.02988 0
M  V30 1996 H 203.102 3.12773 -4.54838 0
M  V30 1997 H 203.579 3.32958 -2.86419 0
M  V30 1998 H 204.185 1.9352 -3.78722 0
M  V30 1999 N 202.5 1.5196 0.417844 0
M  V30 2000 C 203.728 1.69426 1.18753 0
M  V30 2001 C 204.143 0.399955 1.84515 0
M  V30 2002 O 203.5 -0.623288 1.71527 0
M  V30 2003 C 203.551 2.82375 2.25714 0
M  V30 2004 O 203.272 4.06793 1.62638 0
M  V30 2005 C 204.773 3.11277 3.15628 0
M  V30 2006 H 201.993 0.568031 0.357186 0
M  V30 2007 H 204.537 1.98475 0.49273 0
M  V30 2008 H 202.692 2.5587 2.90877 0
M  V30 2009 H 203.106 4.69667 2.3348 0
M  V30 2010 H 204.58 3.93843 3.86771 0
M  V30 2011 H 205.057 2.24473 3.77503 0
M  V30 2012 H 205.663 3.39515 2.56144 0
M  V30 2013 N 203.978 -0.674533 1.42435 0
M  V30 2014 C 205.206 -1.46283 1.46317 0
M  V30 2015 C 205.621 -1.88653 0.0745836 0
M  V30 2016 O 204.978 -1.58151 -0.91074 0
M  V30 2017 C 205.029 -2.71178 2.3905 0
M  V30 2018 O 204.75 -2.30586 3.72507 0
M  V30 2019 C 206.251 -3.64738 2.51955 0
M  V30 2020 H 203.471 -0.450104 0.497642 0
M  V30 2021 H 206.015 -0.828792 1.86953 0
M  V30 2022 H 204.17 -3.3077 2.01667 0
M  V30 2023 H 204.584 -3.11241 4.22172 0
M  V30 2024 H 206.058 -4.49096 3.20962 0
M  V30 2025 H 206.535 -4.10656 1.55752 0
M  V30 2026 H 207.141 -3.11038 2.90061 0
M  V30 2027 N 205.456 -1.28612 -0.910864 0
M  V30 2028 C 206.419 -1.12803 -1.9952 0
M  V30 2029 C 207.419 -0.0668264 -1.60661 0
M  V30 2030 O 208.609 -0.312847 -1.71368 0
M  V30 2031 C 205.741 -0.72254 -3.33155 0
M  V30 2032 H 206.934 -2.09109 -2.14973 0
M  V30 2033 H 204.487 -1.11639 -1.09391 0
M  V30 2034 H 205.222 0.241152 -3.23402 0
M  V30 2035 H 205.007 -1.48916 -3.62721 0
M  V30 2036 H 206.497 -0.634666 -4.12749 0
M  V30 2037 N 206.934 1.1197 -1.10907 0
M  V30 2038 C 208.164 1.8713 -0.875553 0
M  V30 2039 C 208.572 1.8016 0.577843 0
M  V30 2040 O 207.915 1.17699 1.41042 0
M  V30 2041 C 207.977 3.37005 -1.2517 0
M  V30 2042 C 207.641 3.67748 -2.71313 0
M  V30 2043 C 208.638 3.65698 -3.69542 0
M  V30 2044 C 206.323 3.96928 -3.07821 0
M  V30 2045 C 208.317 3.92395 -5.023 0
M  V30 2046 C 206.004 4.23284 -4.40765 0
M  V30 2047 C 207.002 4.21005 -5.37814 0
M  V30 2048 O 206.69 4.46704 -6.68364 0
M  V30 2049 H 206.422 0.598786 -0.313737 0
M  V30 2050 H 208.976 1.42568 -1.47863 0
M  V30 2051 H 207.206 3.82146 -0.591741 0
M  V30 2052 H 208.895 3.93519 -0.994877 0
M  V30 2053 H 209.661 3.43211 -3.42682 0
M  V30 2054 H 205.54 3.97841 -2.32902 0
M  V30 2055 H 209.084 3.90531 -5.78041 0
M  V30 2056 H 204.981 4.45246 -4.67361 0
M  V30 2057 H 205.749 4.64299 -6.74069 0
M  V30 2058 N 208.412 0.89855 1.29475 0
M  V30 2059 C 209.36 0.365253 2.29714 0
M  V30 2060 C 210.354 -0.534993 1.6073 0
M  V30 2061 O 211.56 -0.417921 1.75081 0
M  V30 2062 H 207.935 0.0994853 0.74539 0
M  V30 2063 H 209.906 1.22406 2.72138 0
M  V30 2064 C 208.655 -0.393159 3.4547 0
M  V30 2065 H 207.978 0.290332 3.98744 0
M  V30 2066 H 209.418 -0.731189 4.17648 0
M  V30 2067 C 207.877 -1.59539 2.9673 0
M  V30 2068 O 208.407 -2.69469 2.97908 0
M  V30 2069 N 206.613 -1.43716 2.52575 0
M  V30 2070 H 206.16 -0.542828 2.51816 0
M  V30 2071 H 206.118 -2.24288 2.20323 0
M  V30 2072 N 209.89 -1.43072 0.660911 0
M  V30 2073 C 210.822 -2.29108 -0.0647641 0
M  V30 2074 C 211.835 -1.42928 -0.779448 0
M  V30 2075 O 213.024 -1.66788 -0.635921 0
M  V30 2076 C 210.124 -3.20032 -1.11503 0
M  V30 2077 C 209.297 -4.34792 -0.476955 0
M  V30 2078 C 208.356 -5.06534 -1.42513 0
M  V30 2079 O 207.382 -5.61538 -0.930771 0
M  V30 2080 N 208.584 -5.1075 -2.75889 0
M  V30 2081 H 211.349 -2.92029 0.673731 0
M  V30 2082 H 208.91 -1.53846 0.50427 0
M  V30 2083 H 210.902 -3.64892 -1.75032 0
M  V30 2084 H 209.472 -2.58658 -1.75541 0
M  V30 2085 H 208.692 -3.92752 0.337572 0
M  V30 2086 H 209.98 -5.0879 -0.0318525 0
M  V30 2087 H 209.378 -4.67447 -3.18606 0
M  V30 2088 H 207.935 -5.59302 -3.347 0
M  V30 2089 N 211.368 -0.403325 -1.52352 0
M  V30 2090 C 212.616 0.174003 -2.0135 0
M  V30 2091 C 212.937 1.46139 -1.29106 0
M  V30 2092 O 212.207 1.91448 -0.415253 0
M  V30 2093 H 210.787 0.0672911 -0.743963 0
M  V30 2094 H 213.449 -0.538235 -1.87321 0
M  V30 2095 H 212.545 0.374254 -3.09848 0
M  V30 2096 N 212.846 1.57033 -0.133567 0
M  V30 2097 C 214.074 2.00044 0.528195 0
M  V30 2098 C 214.489 1.01349 1.59291 0
M  V30 2099 O 213.846 0.00848369 1.82498 0
M  V30 2100 C 213.897 3.43018 1.1411 0
M  V30 2101 O 213.618 4.37939 0.11892 0
M  V30 2102 C 215.119 4.01237 1.88477 0
M  V30 2103 H 212.339 0.656517 0.138661 0
M  V30 2104 H 214.883 2.03267 -0.224196 0
M  V30 2105 H 213.038 3.40688 1.84418 0
M  V30 2106 H 213.452 5.21436 0.56613 0
M  V30 2107 H 214.926 5.03314 2.26669 0
M  V30 2108 H 215.403 3.41193 2.76558 0
M  V30 2109 H 216.009 4.07156 1.22898 0
M  V30 2110 N 214.325 -0.140222 1.56975 0
M  V30 2111 C 215.572 -0.851687 1.83719 0
M  V30 2112 C 215.9 -1.80862 0.715485 0
M  V30 2113 O 215.155 -1.93464 -0.294956 0
M  V30 2114 C 215.454 -1.65386 3.16832 0
M  V30 2115 C 215.12 -0.843112 4.42947 0
M  V30 2116 C 213.782 -0.619464 4.77196 0
M  V30 2117 C 216.134 -0.276582 5.20466 0
M  V30 2118 C 213.462 0.181312 5.8642 0
M  V30 2119 C 215.814 0.51127 6.30531 0
M  V30 2120 C 214.478 0.745432 6.63325 0
M  V30 2121 H 213.748 -0.311654 0.672274 0
M  V30 2122 H 216.395 -0.115006 1.91154 0
M  V30 2123 H 214.7 -2.46084 3.04877 0
M  V30 2124 H 216.397 -2.20793 3.34741 0
M  V30 2125 H 212.987 -1.0275 4.16101 0
M  V30 2126 H 217.171 -0.436632 4.94376 0
M  V30 2127 H 212.427 0.372165 6.10266 0
M  V30 2128 H 216.601 0.957354 6.89788 0
M  V30 2129 H 214.228 1.36778 7.47794 0
M  V30 2130 N 215.803 -1.52179 -0.40978 0
M  V30 2131 C 217.031 -1.70054 -1.17853 0
M  V30 2132 C 217.446 -0.409735 -1.843 0
M  V30 2133 O 216.803 0.614183 -1.71855 0
M  V30 2134 C 216.854 -2.83568 -2.24213 0
M  V30 2135 O 216.575 -4.0765 -1.60478 0
M  V30 2136 C 218.076 -3.12947 -3.13973 0
M  V30 2137 H 215.296 -0.569917 -0.354169 0
M  V30 2138 H 217.84 -1.98734 -0.482198 0
M  V30 2139 H 215.995 -2.57409 -2.89516 0
M  V30 2140 H 216.409 -4.70899 -2.30986 0
M  V30 2141 H 217.883 -3.95889 -3.84677 0
M  V30 2142 H 218.36 -2.26472 -3.76307 0
M  V30 2143 H 218.966 -3.40868 -2.5434 0
M  V30 2144 N 217.281 0.66697 -1.42791 0
M  V30 2145 C 218.527 1.4291 -1.43891 0
M  V30 2146 C 218.86 1.94114 -0.0578972 0
M  V30 2147 O 218.135 1.71414 0.91911 0
M  V30 2148 C 218.418 2.62049 -2.46987 0
M  V30 2149 C 218.271 2.16426 -3.94309 0
M  V30 2150 C 219.59 3.64266 -2.46978 0
M  V30 2151 H 216.709 0.518306 -0.523954 0
M  V30 2152 H 219.351 0.757321 -1.74255 0
M  V30 2153 H 217.501 3.19361 -2.21225 0
M  V30 2154 H 219.173 1.64221 -4.31079 0
M  V30 2155 H 217.416 1.47925 -4.078 0
M  V30 2156 H 218.087 3.02038 -4.62036 0
M  V30 2157 H 220.563 3.16686 -2.69906 0
M  V30 2158 H 219.439 4.45196 -3.21079 0
M  V30 2159 H 219.7 4.15927 -1.49857 0
M  V30 2160 N 218.759 1.29093 0.90403 0
M  V30 2161 C 219.722 1.1386 1.98919 0
M  V30 2162 C 220.722 0.0753457 1.60623 0
M  V30 2163 O 221.912 0.321931 1.71199 0
M  V30 2164 C 219.044 0.740198 3.32767 0
M  V30 2165 H 220.237 2.10246 2.13861 0
M  V30 2166 H 217.79 1.12218 1.08797 0
M  V30 2167 H 218.525 -0.223997 3.23525 0
M  V30 2168 H 218.31 1.50838 3.61926 0
M  V30 2169 H 219.8 0.656546 4.12407 0
M  V30 2170 N 220.237 -1.11381 1.11499 0
M  V30 2171 C 221.485 -1.8277 0.862524 0
M  V30 2172 C 221.806 -1.85097 -0.613534 0
M  V30 2173 O 221.076 -1.32198 -1.4457 0
M  V30 2174 H 219.656 -0.676823 0.316101 0
M  V30 2175 H 222.318 -1.34816 1.4075 0
M  V30 2176 H 221.414 -2.86614 1.23527 0
M  V30 2177 N 221.715 -0.905404 -1.28997 0
M  V30 2178 C 222.961 -0.544465 -1.95977 0
M  V30 2179 C 223.316 0.90041 -1.70031 0
M  V30 2180 O 222.609 1.63064 -1.00601 0
M  V30 2181 C 222.803 -0.779906 -3.48787 0
M  V30 2182 C 222.632 -2.24612 -3.89589 0
M  V30 2183 C 221.402 -2.89464 -4.14172 0
M  V30 2184 C 223.6 -3.22182 -4.00878 0
M  V30 2185 N 221.582 -4.26469 -4.41585 0
M  V30 2186 C 222.953 -4.44323 -4.32409 0
M  V30 2187 C 225.008 -3.17694 -3.83373 0
M  V30 2188 C 223.711 -5.62546 -4.48258 0
M  V30 2189 C 225.737 -4.35208 -4.00435 0
M  V30 2190 C 225.099 -5.56121 -4.3233 0
M  V30 2191 H 221.198 -0.248948 -0.741316 0
M  V30 2192 H 223.782 -1.1674 -1.5582 0
M  V30 2193 H 221.953 -0.186308 -3.87953 0
M  V30 2194 H 223.685 -0.383833 -4.02876 0
M  V30 2195 H 220.44 -2.40232 -4.08149 0
M  V30 2196 H 220.864 -4.97283 -4.5939 0
M  V30 2197 H 225.506 -2.25297 -3.57773 0
M  V30 2198 H 223.224 -6.55429 -4.72692 0
M  V30 2199 H 226.81 -4.33228 -3.88336 0
M  V30 2200 H 225.69 -6.45537 -4.45255 0
M  V30 2201 N 223.193 1.4272 -0.668489 0
M  V30 2202 C 224.441 2.01226 -0.187769 0
M  V30 2203 C 224.762 1.53092 1.2078 0
M  V30 2204 O 224.032 0.74993 1.80977 0
M  V30 2205 H 222.612 0.744041 -0.0664272 0
M  V30 2206 H 225.274 1.74723 -0.863583 0
M  V30 2207 H 224.37 3.11556 -0.184166 0
M  V30 2208 N 224.671 0.411399 1.52136 0
M  V30 2209 C 225.634 -0.401089 2.25663 0
M  V30 2210 C 226.634 -0.971732 1.28117 0
M  V30 2211 O 227.824 -0.850254 1.52041 0
M  V30 2212 C 224.956 -1.56483 3.02863 0
M  V30 2213 H 226.149 0.24295 2.98914 0
M  V30 2214 H 223.702 0.163968 1.55438 0
M  V30 2215 H 224.437 -2.24567 2.33967 0
M  V30 2216 H 224.222 -1.16211 3.74483 0
M  V30 2217 H 225.712 -2.13951 3.58629 0
M  V30 2218 N 226.149 -1.5696 0.141893 0
M  V30 2219 C 227.097 -2.17784 -0.816874 0
M  V30 2220 C 228.091 -1.1334 -1.25899 0
M  V30 2221 O 229.297 -1.316 -1.22806 0
M  V30 2222 H 225.672 -0.697278 -0.281615 0
M  V30 2223 H 227.643 -2.97087 -0.279621 0
M  V30 2224 C 226.392 -2.80983 -2.04802 0
M  V30 2225 H 225.715 -3.61062 -1.7168 0
M  V30 2226 H 227.155 -3.2705 -2.69841 0
M  V30 2227 C 225.614 -1.79228 -2.8527 0
M  V30 2228 O 226.144 -1.25962 -3.8144 0
M  V30 2229 N 224.35 -1.48647 -2.49704 0
M  V30 2230 H 223.897 -1.92155 -1.71564 0
M  V30 2231 H 223.855 -0.808115 -3.03837 0
M  V30 2232 N 227.627 0.131896 -1.57047 0
M  V30 2233 C 229.043 0.485031 -1.52051 0
M  V30 2234 C 229.243 1.82563 -0.85281 0
M  V30 2235 O 228.299 2.48817 -0.429694 0
M  V30 2236 C 229.612 0.481409 -2.96821 0
M  V30 2237 C 231.16 0.565868 -3.07842 0
M  V30 2238 C 231.635 0.592762 -4.54148 0
M  V30 2239 N 233.126 0.654564 -4.58552 0
M  V30 2240 C 233.861 0.696608 -5.69153 0
M  V30 2241 N 233.357 0.697078 -6.89284 0
M  V30 2242 N 235.15 0.738639 -5.57226 0
M  V30 2243 H 227.301 -0.746664 -1.98843 0
M  V30 2244 H 229.564 -0.273999 -0.90754 0
M  V30 2245 H 229.27 -0.435731 -3.4899 0
M  V30 2246 H 229.144 1.3139 -3.53577 0
M  V30 2247 H 231.531 1.47343 -2.55684 0
M  V30 2248 H 231.612 -0.29406 -2.54104 0
M  V30 2249 H 231.256 -0.310701 -5.06949 0
M  V30 2250 H 231.186 1.46939 -5.05684 0
M  V30 2251 H 233.677 0.660887 -3.72076 0
M  V30 2252 H 233.99 0.731426 -7.69331 0
M  V30 2253 H 232.335 0.66471 -6.91814 0
M  V30 2254 H 235.526 0.735545 -4.62285 0
M  V30 2255 H 235.699 0.767938 -6.43434 0
M  V30 2256 N 229.106 1.52395 0.401703 0
M  V30 2257 C 230.016 1.7917 1.51444 0
M  V30 2258 C 231.032 0.677691 1.6026 0
M  V30 2259 O 232.208 0.963909 1.76835 0
M  V30 2260 C 229.273 1.94347 2.87107 0
M  V30 2261 C 228.334 3.18257 2.88116 0
M  V30 2262 C 227.567 3.32701 4.17308 0
M  V30 2263 O 227.79 2.52238 5.11598 0
M  V30 2264 O 226.724 4.25891 4.25324 0
M  V30 2265 H 230.55 2.73633 1.31752 0
M  V30 2266 H 228.135 1.3733 0.588296 0
M  V30 2267 H 230.017 2.06109 3.67555 0
M  V30 2268 H 228.692 1.03073 3.06851 0
M  V30 2269 H 227.599 3.11947 2.06494 0
M  V30 2270 H 228.932 4.09336 2.73322 0
M  V30 2271 N 230.584 -0.659388 1.43143 0
M  V30 2272 C 231.832 -1.41654 1.44147 0
M  V30 2273 C 232.153 -1.94893 0.0645739 0
M  V30 2274 O 231.423 -1.74044 -0.899198 0
M  V30 2275 H 230.003 -0.525708 0.530697 0
M  V30 2276 H 232.665 -0.778097 1.78694 0
M  V30 2277 H 231.761 -2.26195 2.1504 0
M  V30 2278 N 232.062 -1.29571 -0.897171 0
M  V30 2279 C 233.31 -1.17456 -1.64464 0
M  V30 2280 C 233.631 0.273698 -1.9307 0
M  V30 2281 O 232.901 1.18684 -1.55855 0
M  V30 2282 H 231.481 -0.431706 -0.609622 0
M  V30 2283 H 234.143 -1.62531 -1.07562 0
M  V30 2284 H 233.239 -1.72648 -2.59998 0
M  V30 2285 N 233.54 1.10788 -1.12088 0
M  V30 2286 C 234.765 1.87002 -0.896949 0
M  V30 2287 C 235.19 1.79933 0.548261 0
M  V30 2288 O 234.548 1.16662 1.38779 0
M  V30 2289 C 234.596 3.3349 -1.37174 0
M  V30 2290 O 233.7 4.08745 -0.547831 0
M  V30 2291 H 233.041 0.580397 -0.322545 0
M  V30 2292 H 235.571 1.39996 -1.49206 0
M  V30 2293 H 235.581 3.84339 -1.36922 0
M  V30 2294 H 234.256 3.37951 -2.42408 0
M  V30 2295 H 232.833 3.6776 -0.617034 0
M  V30 2296 N 235.018 0.912232 1.28515 0
M  V30 2297 C 235.95 0.35676 2.26406 0
M  V30 2298 C 236.963 -0.503933 1.54804 0
M  V30 2299 O 238.152 -0.319059 1.75625 0
M  V30 2300 C 235.252 -0.508825 3.35058 0
M  V30 2301 C 234.425 0.329007 4.36161 0
M  V30 2302 C 233.484 -0.471422 5.24084 0
M  V30 2303 O 232.51 0.115482 5.69083 0
M  V30 2304 N 233.712 -1.77479 5.52704 0
M  V30 2305 H 236.477 1.19818 2.74707 0
M  V30 2306 H 234.038 0.778022 1.4198 0
M  V30 2307 H 236.03 -1.051 3.90815 0
M  V30 2308 H 234.6 -1.25095 2.86478 0
M  V30 2309 H 233.82 1.05256 3.79888 0
M  V30 2310 H 235.108 0.90234 5.00735 0
M  V30 2311 H 234.506 -2.27417 5.17975 0
M  V30 2312 H 233.063 -2.26382 6.11224 0
M  V30 2313 N 236.496 -1.42363 0.676048 0
M  V30 2314 C 237.428 -2.29164 -0.0404605 0
M  V30 2315 C 238.441 -1.43747 -0.764245 0
M  V30 2316 O 239.63 -1.67453 -0.618195 0
M  V30 2317 C 236.73 -3.21196 -1.08103 0
M  V30 2318 C 235.903 -4.35273 -0.430812 0
M  V30 2319 C 234.962 -5.08017 -1.37133 0
M  V30 2320 O 233.988 -5.62494 -0.87116 0
M  V30 2321 N 235.19 -5.13647 -2.70456 0
M  V30 2322 H 237.955 -2.91298 0.704667 0
M  V30 2323 H 235.516 -1.53303 0.520559 0
M  V30 2324 H 237.508 -3.66728 -1.71152 0
M  V30 2325 H 236.078 -2.60505 -1.72788 0
M  V30 2326 H 235.298 -3.92372 0.379209 0
M  V30 2327 H 236.586 -5.08795 0.0221132 0
M  V30 2328 H 235.984 -4.708 -3.1363 0
M  V30 2329 H 234.541 -5.62821 -3.28749 0
M  V30 2330 N 237.974 -0.419461 -1.51915 0
M  V30 2331 C 239.39 -0.0708431 -1.59443 0
M  V30 2332 C 239.59 1.41796 -1.43164 0
M  V30 2333 O 238.646 2.18596 -1.26381 0
M  V30 2334 C 239.959 -0.574991 -2.95151 0
M  V30 2335 C 241.507 -0.533867 -3.08413 0
M  V30 2336 C 241.982 -1.01469 -4.46618 0
M  V30 2337 N 243.473 -0.971939 -4.52888 0
M  V30 2338 C 244.208 -1.31505 -5.58116 0
M  V30 2339 N 243.704 -1.73014 -6.70849 0
M  V30 2340 N 245.497 -1.23436 -5.48379 0
M  V30 2341 H 237.648 -1.38836 -1.60743 0
M  V30 2342 H 239.911 -0.570998 -0.756747 0
M  V30 2343 H 239.617 -1.61597 -3.12377 0
M  V30 2344 H 239.491 0.00979777 -3.77199 0
M  V30 2345 H 241.878 0.498086 -2.90866 0
M  V30 2346 H 241.959 -1.15484 -2.28248 0
M  V30 2347 H 241.603 -2.04502 -4.6491 0
M  V30 2348 H 241.533 -0.370433 -5.25295 0
M  V30 2349 H 244.024 -0.666893 -3.71969 0
M  V30 2350 H 244.337 -1.97479 -7.47143 0
M  V30 2351 H 242.682 -1.76926 -6.72103 0
M  V30 2352 H 245.873 -0.908869 -4.59192 0
M  V30 2353 H 246.046 -1.50506 -6.30279 0
M  V30 2354 N 239.452 1.56882 -0.150215 0
M  V30 2355 C 240.682 2.00302 0.506213 0
M  V30 2356 C 241.09 1.02934 1.58749 0
M  V30 2357 O 240.433 0.0188384 1.8369 0
M  V30 2358 C 240.495 3.40156 1.16337 0
M  V30 2359 C 240.159 4.56439 0.226311 0
M  V30 2360 C 241.156 5.17012 -0.547265 0
M  V30 2361 C 238.841 5.02136 0.128279 0
M  V30 2362 C 240.835 6.21693 -1.40629 0
M  V30 2363 C 238.522 6.06672 -0.734345 0
M  V30 2364 C 239.52 6.6632 -1.50023 0
M  V30 2365 O 239.208 7.68831 -2.34848 0
M  V30 2366 H 238.94 0.662182 0.135984 0
M  V30 2367 H 241.494 2.03961 -0.242746 0
M  V30 2368 H 239.724 3.33346 1.96004 0
M  V30 2369 H 241.413 3.67663 1.71985 0
M  V30 2370 H 242.179 4.82603 -0.48158 0
M  V30 2371 H 238.058 4.55435 0.714157 0
M  V30 2372 H 241.602 6.68179 -2.00455 0
M  V30 2373 H 237.499 6.40507 -0.801309 0
M  V30 2374 H 238.267 7.86065 -2.28131 0
M  V30 2375 N 240.93 -0.123565 1.57115 0
M  V30 2376 C 241.86 -1.15309 2.03042 0
M  V30 2377 C 242.841 -1.43454 0.914061 0
M  V30 2378 O 244.026 -1.53973 1.18347 0
M  V30 2379 C 241.156 -2.48043 2.43089 0
M  V30 2380 C 240.11 -2.3437 3.58127 0
M  V30 2381 C 239.436 -3.72026 3.84059 0
M  V30 2382 C 240.736 -1.80804 4.90007 0
M  V30 2383 H 242.43 -0.771102 2.893 0
M  V30 2384 H 239.976 -0.369479 1.39179 0
M  V30 2385 H 241.929 -3.20311 2.73823 0
M  V30 2386 H 240.653 -2.88122 1.53796 0
M  V30 2387 H 239.312 -1.64551 3.27595 0
M  V30 2388 H 238.96 -4.09582 2.91979 0
M  V30 2389 H 238.66 -3.63732 4.6149 0
M  V30 2390 H 240.184 -4.45806 4.1724 0
M  V30 2391 H 241.598 -2.42886 5.19307 0
M  V30 2392 H 239.995 -1.83343 5.71407 0
M  V30 2393 H 241.065 -0.76528 4.78823 0
M  V30 2394 N 242.408 -1.52605 -0.393616 0
M  V30 2395 C 243.338 -1.80022 -1.48709 0
M  V30 2396 C 244.319 -0.651995 -1.57108 0
M  V30 2397 O 245.504 -0.89913 -1.72132 0
M  V30 2398 C 242.634 -1.96492 -2.86371 0
M  V30 2399 C 241.588 -3.12161 -2.92813 0
M  V30 2400 C 240.914 -3.13877 -4.3288 0
M  V30 2401 C 242.214 -4.51322 -2.6288 0
M  V30 2402 H 243.908 -2.71589 -1.26015 0
M  V30 2403 H 241.454 -1.30684 -0.604778 0
M  V30 2404 H 243.407 -2.14255 -3.62867 0
M  V30 2405 H 242.131 -1.01611 -3.10391 0
M  V30 2406 H 240.79 -2.94173 -2.18764 0
M  V30 2407 H 240.438 -2.16687 -4.53933 0
M  V30 2408 H 240.138 -3.91576 -4.38112 0
M  V30 2409 H 241.662 -3.33789 -5.1129 0
M  V30 2410 H 243.076 -4.69435 -3.29096 0
M  V30 2411 H 241.473 -5.31053 -2.79468 0
M  V30 2412 H 242.543 -4.58353 -1.58242 0
M  V30 2413 N 243.887 0.651787 -1.4349 0
M  V30 2414 C 244.834 1.76462 -1.4876 0
M  V30 2415 C 245.804 1.62641 -0.337189 0
M  V30 2416 O 246.989 1.82864 -0.544544 0
M  V30 2417 C 244.129 3.14623 -1.41796 0
M  V30 2418 C 243.242 3.39568 -2.67053 0
M  V30 2419 C 242.377 4.67585 -2.52068 0
M  V30 2420 C 241.416 4.85639 -3.72587 0
M  V30 2421 N 240.553 6.04915 -3.56402 0
M  V30 2422 H 245.393 1.71293 -2.43849 0
M  V30 2423 H 242.93 0.835889 -1.21043 0
M  V30 2424 H 244.888 3.94496 -1.35753 0
M  V30 2425 H 243.518 3.18859 -0.50288 0
M  V30 2426 H 242.57 2.53783 -2.8337 0
M  V30 2427 H 243.882 3.48795 -3.56572 0
M  V30 2428 H 243.036 5.55586 -2.4374 0
M  V30 2429 H 241.775 4.60681 -1.60075 0
M  V30 2430 H 240.78 3.96073 -3.81321 0
M  V30 2431 H 242.005 4.94372 -4.65589 0
M  V30 2432 H 239.951 5.9914 -2.67146 0
M  V30 2433 H 239.868 6.15106 -4.39524 0
M  V30 2434 H 241.136 6.95533 -3.51929 0
M  V30 2435 N 245.365 1.30045 0.890287 0
M  V30 2436 C 246.328 1.15963 1.977 0
M  V30 2437 C 247.328 0.0923777 1.60534 0
M  V30 2438 O 248.518 0.340071 1.70848 0
M  V30 2439 C 245.65 0.775451 3.31963 0
M  V30 2440 H 246.843 2.12502 2.11619 0
M  V30 2441 H 244.396 1.13366 1.07601 0
M  V30 2442 H 245.131 -0.189671 3.23745 0
M  V30 2443 H 244.916 1.54668 3.60306 0
M  V30 2444 H 246.406 0.700251 4.11687 0
M  V30 2445 N 246.843 -1.10192 1.12674 0
M  V30 2446 C 247.791 -2.18694 0.792196 0
M  V30 2447 C 248.785 -1.67938 -0.222058 0
M  V30 2448 O 249.991 -1.79822 -0.0800074 0
M  V30 2449 H 246.366 -0.713223 0.238364 0
M  V30 2450 H 248.337 -2.44149 1.71564 0
M  V30 2451 C 247.086 -3.46682 0.265859 0
M  V30 2452 H 246.409 -3.86101 1.03761 0
M  V30 2453 H 247.849 -4.23942 0.0701128 0
M  V30 2454 C 246.308 -3.21506 -1.00675 0
M  V30 2455 O 246.838 -3.43408 -2.08408 0
M  V30 2456 N 245.044 -2.75158 -0.934692 0
M  V30 2457 H 244.591 -2.57535 -0.0578604 0
M  V30 2458 H 244.549 -2.58691 -1.7868 0
M  V30 2459 N 248.321 -0.919034 -1.28029 0
M  V30 2460 C 249.567 -0.555757 -1.95036 0
M  V30 2461 C 249.9 0.899198 -1.72128 0
M  V30 2462 O 249.175 1.64023 -1.04531 0
M  V30 2463 C 249.458 -0.872024 -3.49382 0
M  V30 2464 C 249.311 -2.3801 -3.81669 0
M  V30 2465 C 250.63 -0.37185 -4.38526 0
M  V30 2466 H 247.749 -0.203386 -0.708381 0
M  V30 2467 H 250.391 -1.14924 -1.51303 0
M  V30 2468 H 248.541 -0.366946 -3.86763 0
M  V30 2469 H 250.213 -2.9562 -3.54128 0
M  V30 2470 H 248.456 -2.83289 -3.28526 0
M  V30 2471 H 249.127 -2.55192 -4.8947 0
M  V30 2472 H 251.603 -0.804602 -4.08247 0
M  V30 2473 H 250.479 -0.622173 -5.45362 0
M  V30 2474 H 250.74 0.727934 -4.36066 0
M  V30 2475 N 249.799 1.42003 -0.683588 0
M  V30 2476 C 251.21 1.84501 -0.285736 0
M  V30 2477 C 251.561 1.57213 1.17382 0
M  V30 2478 O 250.686 1.03642 1.89966 0
M  V30 2479 C 251.281 3.34912 -0.511821 0
M  V30 2480 C 249.84 3.76025 -0.168005 0
M  V30 2481 C 248.987 2.6551 -0.799983 0
M  V30 2482 H 251.938 1.31724 -0.885119 0
M  V30 2483 H 251.959 3.79784 0.233292 0
M  V30 2484 H 251.471 3.54741 -1.57418 0
M  V30 2485 H 249.572 3.61801 0.890567 0
M  V30 2486 H 249.685 4.75141 -0.614661 0
M  V30 2487 H 248.049 2.53654 -0.230568 0
M  V30 2488 H 248.832 2.8816 -1.86597 0
M  V30 2489 N 251.277 0.427512 1.51691 0
M  V30 2490 C 252.524 -0.142229 2.02 0
M  V30 2491 C 252.852 -1.43566 1.31221 0
M  V30 2492 O 252.107 -1.91298 0.412744 0
M  V30 2493 C 252.406 -0.418249 3.54944 0
M  V30 2494 C 252.072 0.788187 4.43958 0
M  V30 2495 C 250.734 1.11906 4.68007 0
M  V30 2496 C 253.086 1.59347 4.96244 0
M  V30 2497 C 250.414 2.25608 5.41588 0
M  V30 2498 C 252.766 2.7214 5.71072 0
M  V30 2499 C 251.43 3.05692 5.93387 0
M  V30 2500 H 250.7 -0.0520451 0.73917 0
M  V30 2501 H 253.347 0.572697 1.82736 0
M  V30 2502 H 251.652 -1.21496 3.72486 0
M  V30 2503 H 253.349 -0.872339 3.91397 0
M  V30 2504 H 249.939 0.520344 4.2543 0
M  V30 2505 H 254.123 1.35106 4.77556 0
M  V30 2506 H 249.379 2.51929 5.57083 0
M  V30 2507 H 253.553 3.34914 6.10578 0
M  V30 2508 H 251.18 3.9391 6.50184 0
M  V30 2509 N 252.755 -1.56801 0.158532 0
M  V30 2510 C 254.001 -1.96781 -0.490405 0
M  V30 2511 C 254.334 -1.04397 -1.63753 0
M  V30 2512 O 253.609 -0.0885805 -1.94298 0
M  V30 2513 C 253.892 -3.4635 -0.985594 0
M  V30 2514 C 253.745 -4.49512 0.160824 0
M  V30 2515 C 255.064 -3.98697 -1.86355 0
M  V30 2516 H 252.183 -0.715482 -0.176788 0
M  V30 2517 H 254.825 -1.88451 0.242088 0
M  V30 2518 H 252.975 -3.53579 -1.60978 0
M  V30 2519 H 254.647 -4.54353 0.797537 0
M  V30 2520 H 252.89 -4.26013 0.818256 0
M  V30 2521 H 253.561 -5.51531 -0.227569 0
M  V30 2522 H 256.037 -3.94019 -1.33746 0
M  V30 2523 H 254.913 -5.03792 -2.17909 0
M  V30 2524 H 255.174 -3.41744 -2.8047 0
M  V30 2525 N 254.233 0.115231 -1.57178 0
M  V30 2526 C 255.458 0.840354 -1.89612 0
M  V30 2527 C 255.883 1.72464 -0.750845 0
M  V30 2528 O 255.241 1.78826 0.298478 0
M  V30 2529 C 255.289 1.64654 -3.20814 0
M  V30 2530 O 254.393 2.7538 -3.06985 0
M  V30 2531 H 253.734 0.232158 -0.622092 0
M  V30 2532 H 256.264 0.0964977 -2.04372 0
M  V30 2533 H 256.274 2.03499 -3.53627 0
M  V30 2534 H 254.949 0.997416 -4.03763 0
M  V30 2535 H 253.526 2.3971 -2.85646 0
M  V30 2536 N 255.711 1.52812 0.385517 0
M  V30 2537 C 256.988 1.5861 1.14465 0
M  V30 2538 C 257.368 0.381402 2.07626 0
M  V30 2539 O 256.716 -0.629999 2.19643 0
M  V30 2540 C 256.926 2.92664 1.90128 0
M  V30 2541 C 258.274 3.46526 2.45367 0
M  V30 2542 O 259.298 2.94562 2.0028 0
M  V30 2543 O 258.157 4.37323 3.27736 0
M  V30 2544 H 255.251 0.639855 0.523941 0
M  V30 2545 H 257.797 1.65149 0.390389 0
M  V30 2546 H 256.569 3.71788 1.22022 0
M  V30 2547 H 256.192 2.89527 2.72507 0
M  V30 2548 N 257.189 -0.644168 1.43834 0
M  V30 2549 C 258.152 -1.73857 1.49353 0
M  V30 2550 C 259.152 -1.56315 0.377112 0
M  V30 2551 O 260.342 -1.62048 0.639226 0
M  V30 2552 C 257.474 -3.12819 1.35488 0
M  V30 2553 H 258.667 -1.70342 2.46827 0
M  V30 2554 H 256.22 -0.856652 1.30733 0
M  V30 2555 H 256.955 -3.2194 0.390569 0
M  V30 2556 H 256.74 -3.26958 2.16428 0
M  V30 2557 H 258.23 -3.92606 1.42302 0
M  V30 2558 N 258.668 -1.30515 -0.883378 0
M  V30 2559 C 259.631 -1.1701 -1.97082 0
M  V30 2560 C 260.631 -0.10089 -1.60483 0
M  V30 2561 O 261.821 -0.349127 -1.70666 0
M  V30 2562 C 258.953 -0.793045 -3.31547 0
M  V30 2563 H 260.146 -2.13622 -2.10489 0
M  V30 2564 H 257.699 -1.13935 -1.06998 0
M  V30 2565 H 258.434 0.172499 -3.23841 0
M  V30 2566 H 258.219 -1.56576 -3.5948 0
M  V30 2567 H 259.709 -0.722073 -4.1131 0
M  V30 2568 N 260.146 1.09593 -1.13257 0
M  V30 2569 C 261.386 1.83349 -0.903472 0
M  V30 2570 C 261.75 1.83641 0.560351 0
M  V30 2571 O 262.951 2.53037 0.906947 0
M  V30 2572 C 261.222 3.25629 -1.47311 0
M  V30 2573 S 262.781 4.16408 -1.38382 0
M  V30 2574 H 259.599 0.632014 -0.325699 0
M  V30 2575 H 262.201 1.31817 -1.44376 0
M  V30 2576 H 260.905 3.22991 -2.53189 0
M  V30 2577 H 260.436 3.82233 -0.930689 0
M  V30 2578 H 262.451 4.94884 -0.361113 0
M  V30 2579 N 261.624 0.925811 1.2754 0
M  V30 2580 C 263.04 0.625767 1.46821 0
M  V30 2581 C 263.24 -0.825506 1.83814 0
M  V30 2582 O 262.296 -1.60356 1.95044 0
M  V30 2583 C 263.609 1.57402 2.56213 0
M  V30 2584 C 265.157 1.58204 2.70075 0
M  V30 2585 C 265.632 2.51721 3.82623 0
M  V30 2586 N 267.123 2.49917 3.89994 0
M  V30 2587 C 267.858 3.18968 4.76494 0
M  V30 2588 N 267.354 3.97391 5.67496 0
M  V30 2589 N 269.147 3.07996 4.70208 0
M  V30 2590 H 261.298 1.86409 1.01811 0
M  V30 2591 H 263.561 0.800213 0.508295 0
M  V30 2592 H 263.267 2.60925 2.35819 0
M  V30 2593 H 263.141 1.31428 3.53563 0
M  V30 2594 H 265.528 0.554124 2.89851 0
M  V30 2595 H 265.609 1.88226 1.73218 0
M  V30 2596 H 265.253 3.54622 3.63601 0
M  V30 2597 H 265.183 2.18996 4.78903 0
M  V30 2598 H 267.674 1.9296 3.24923 0
M  V30 2599 H 267.987 4.4707 6.30356 0
M  V30 2600 H 266.332 4.01495 5.67298 0
M  V30 2601 H 269.523 2.46223 3.9811 0
M  V30 2602 H 269.696 3.6208 5.37403 0
M  V30 2603 N 263.102 -1.41638 0.69111 0
M  V30 2604 C 264.327 -2.06148 0.227583 0
M  V30 2605 C 264.752 -1.51652 -1.11281 0
M  V30 2606 O 264.11 -0.64164 -1.69566 0
M  V30 2607 C 264.158 -3.60095 0.190858 0
M  V30 2608 O 263.262 -4.03845 -0.835664 0
M  V30 2609 H 262.603 -0.654434 0.112306 0
M  V30 2610 H 265.133 -1.81484 0.944714 0
M  V30 2611 H 265.143 -4.07995 0.020207 0
M  V30 2612 H 263.818 -3.99129 1.16915 0
M  V30 2613 H 262.395 -3.67458 -0.63473 0
M  V30 2614 N 264.58 -0.43555 -1.51462 0
M  V30 2615 C 265.543 0.365137 -2.26273 0
M  V30 2616 C 266.543 0.951227 -1.29647 0
M  V30 2617 O 267.733 0.825958 -1.53374 0
M  V30 2618 C 264.865 1.51645 -3.05314 0
M  V30 2619 H 266.058 -0.290474 -2.9849 0
M  V30 2620 H 263.611 -0.188676 -1.55157 0
M  V30 2621 H 264.346 2.20816 -2.3751 0
M  V30 2622 H 264.131 1.10238 -3.76284 0
M  V30 2623 H 265.621 2.08218 -3.61987 0
M  V30 2624 N 266.058 1.56714 -0.166846 0
M  V30 2625 C 267.288 2.00828 0.48494 0
M  V30 2626 C 267.696 1.04612 1.57648 0
M  V30 2627 O 267.039 0.0383201 1.8366 0
M  V30 2628 C 267.101 3.4137 1.12723 0
M  V30 2629 C 266.765 4.56654 0.177886 0
M  V30 2630 C 267.762 5.16402 -0.60207 0
M  V30 2631 C 265.447 5.02244 0.0750139 0
M  V30 2632 C 267.441 6.20167 -1.47215 0
M  V30 2633 C 265.128 6.05859 -0.798649 0
M  V30 2634 C 266.126 6.64691 -1.57082 0
M  V30 2635 O 265.814 7.66297 -2.42989 0
M  V30 2636 H 265.546 0.663587 0.128953 0
M  V30 2637 H 268.1 2.03692 -0.264365 0
M  V30 2638 H 266.33 3.35406 1.92457 0
M  V30 2639 H 268.019 3.69466 1.68076 0
M  V30 2640 H 268.785 4.82065 -0.53274 0
M  V30 2641 H 264.664 4.56167 0.665812 0
M  V30 2642 H 268.208 6.66016 -2.07531 0
M  V30 2643 H 264.105 6.39621 -0.869199 0
M  V30 2644 H 264.873 7.83601 -2.36455 0
M  V30 2645 N 267.536 -0.106894 1.57237 0
M  V30 2646 C 268.784 -0.810921 1.85117 0
M  V30 2647 C 269.105 -1.7984 0.753827 0
M  V30 2648 O 268.375 -1.94649 -0.221056 0
M  V30 2649 H 266.955 -0.302466 0.683025 0
M  V30 2650 H 269.617 -0.0913324 1.94686 0
M  V30 2651 H 268.713 -1.34875 2.81452 0
M  V30 2652 N 269.014 -1.53014 -0.377408 0
M  V30 2653 C 269.962 -1.7927 -1.48206 0
M  V30 2654 C 270.956 -0.661195 -1.55963 0
M  V30 2655 O 272.162 -0.843908 -1.58991 0
M  V30 2656 H 268.537 -0.567425 -0.493491 0
M  V30 2657 H 270.508 -2.71753 -1.2326 0
M  V30 2658 C 269.257 -1.98894 -2.85196 0
M  V30 2659 H 268.58 -2.85395 -2.79981 0
M  V30 2660 H 270.02 -2.21249 -3.61698 0
M  V30 2661 C 268.479 -0.764691 -3.28107 0
M  V30 2662 O 269.009 0.0523226 -4.01666 0
M  V30 2663 N 267.215 -0.591493 -2.84517 0
M  V30 2664 H 266.762 -1.25749 -2.24822 0
M  V30 2665 H 266.72 0.226253 -3.13585 0
M  V30 2666 N 270.492 0.636531 -1.44174 0
M  V30 2667 C 271.402 1.77754 -1.53103 0
M  V30 2668 C 272.418 1.68928 -0.417034 0
M  V30 2669 O 273.594 1.89801 -0.6736 0
M  V30 2670 C 270.659 3.14115 -1.46741 0
M  V30 2671 C 269.72 3.34612 -2.68948 0
M  V30 2672 C 268.953 4.64467 -2.6288 0
M  V30 2673 O 269.176 5.44919 -1.68581 0
M  V30 2674 O 268.11 4.87049 -3.53648 0
M  V30 2675 H 271.936 1.73174 -2.49489 0
M  V30 2676 H 269.521 0.79709 -1.2636 0
M  V30 2677 H 271.403 3.95412 -1.45696 0
M  V30 2678 H 270.078 3.19249 -0.534975 0
M  V30 2679 H 268.985 2.53014 -2.75562 0
M  V30 2680 H 270.318 3.34336 -3.61221 0
M  V30 2681 N 271.97 1.30982 0.876444 0
M  V30 2682 C 272.9 1.20668 1.99903 0
M  V30 2683 C 273.881 0.095354 1.69833 0
M  V30 2684 O 275.066 0.27885 1.92188 0
M  V30 2685 C 272.196 0.90655 3.3526 0
M  V30 2686 C 271.15 1.97675 3.79617 0
M  V30 2687 C 270.476 1.52943 5.1236 0
M  V30 2688 C 271.776 3.389 3.97422 0
M  V30 2689 H 273.47 2.14586 2.0879 0
M  V30 2690 H 271.016 1.03308 1.00317 0
M  V30 2691 H 272.969 0.821025 4.13324 0
M  V30 2692 H 271.693 -0.0682969 3.26529 0
M  V30 2693 H 270.352 2.05205 3.03787 0
M  V30 2694 H 270 0.54262 5.00065 0
M  V30 2695 H 269.7 2.24532 5.43009 0
M  V30 2696 H 271.224 1.45786 5.92941 0
M  V30 2697 H 272.638 3.34081 4.659 0
M  V30 2698 H 271.035 4.0865 4.3946 0
M  V30 2699 H 272.105 3.80163 3.01006 0
M  V30 2700 N 273.449 -1.08991 1.13837 0
M  V30 2701 C 274.695 -1.81526 0.90422 0
M  V30 2702 C 275.028 -1.85706 -0.568066 0
M  V30 2703 O 274.303 -1.32855 -1.42056 0
M  V30 2704 C 274.586 -3.27447 1.49835 0
M  V30 2705 C 274.439 -3.31512 3.04006 0
M  V30 2706 C 275.758 -4.24256 1.17025 0
M  V30 2707 H 272.877 -0.659029 0.329923 0
M  V30 2708 H 275.519 -1.27644 1.40737 0
M  V30 2709 H 273.669 -3.73462 1.07044 0
M  V30 2710 H 275.341 -2.93867 3.55584 0
M  V30 2711 H 273.584 -2.70963 3.38765 0
M  V30 2712 H 274.255 -4.34329 3.40679 0
M  V30 2713 H 276.731 -3.86549 1.54009 0
M  V30 2714 H 275.607 -5.24684 1.61237 0
M  V30 2715 H 275.868 -4.42019 0.0846274 0
M  V30 2716 N 274.927 -0.932562 -1.27047 0
M  V30 2717 C 275.89 -0.440064 -2.24936 0
M  V30 2718 C 276.89 0.444071 -1.54547 0
M  V30 2719 O 278.08 0.244465 -1.72476 0
M  V30 2720 C 275.212 0.36678 -3.38921 0
M  V30 2721 H 276.405 -1.305 -2.70018 0
M  V30 2722 H 273.958 -0.713707 -1.39054 0
M  V30 2723 H 274.693 1.25033 -2.99228 0
M  V30 2724 H 274.478 -0.267204 -3.91188 0
M  V30 2725 H 275.968 0.701567 -4.11665 0
M  V30 2726 N 276.405 1.4127 -0.698611 0
M  V30 2727 C 277.353 2.32588 -0.023855 0
M  V30 2728 C 278.347 1.51128 0.765292 0
M  V30 2729 O 279.553 1.67043 0.670571 0
M  V30 2730 H 275.928 0.751918 0.0110871 0
M  V30 2731 H 277.899 2.87167 -0.811031 0
M  V30 2732 C 276.648 3.35947 0.896369 0
M  V30 2733 H 275.971 3.98684 0.298548 0
M  V30 2734 H 277.411 4.02376 1.33676 0
M  V30 2735 C 275.87 2.70076 2.01396 0
M  V30 2736 O 276.4 2.55093 3.10307 0
M  V30 2737 N 274.606 2.28724 1.79259 0
M  V30 2738 H 274.153 2.4111 0.906841 0
M  V30 2739 H 274.111 1.84986 2.54219 0
M  V30 2740 N 277.883 0.443576 1.51229 0
M  V30 2741 C 278.793 -0.370721 2.31652 0
M  V30 2742 C 279.809 -1.02186 1.40833 0
M  V30 2743 O 280.985 -1.01586 1.73903 0
M  V30 2744 C 278.05 -1.45376 3.14749 0
M  V30 2745 C 277.111 -0.822099 4.21355 0
M  V30 2746 C 276.344 -1.85353 5.0048 0
M  V30 2747 O 276.567 -3.07656 4.80316 0
M  V30 2748 O 275.501 -1.4406 5.84406 0
M  V30 2749 H 279.327 0.286002 3.0235 0
M  V30 2750 H 276.912 0.20598 1.47973 0
M  V30 2751 H 278.794 -2.08173 3.66391 0
M  V30 2752 H 277.469 -2.09445 2.46809 0
M  V30 2753 H 276.376 -0.155909 3.73775 0
M  V30 2754 H 277.709 -0.224797 4.91686 0
M  V30 2755 N 279.361 -1.56624 0.175154 0
M  V30 2756 C 280.271 -2.21741 -0.766042 0
M  V30 2757 C 281.287 -1.21023 -1.25018 0
M  V30 2758 O 282.463 -1.53697 -1.3015 0
M  V30 2759 C 279.528 -2.84839 -1.97655 0
M  V30 2760 C 278.589 -4.00769 -1.53892 0
M  V30 2761 C 277.822 -4.60849 -2.69173 0
M  V30 2762 O 278.045 -4.19823 -3.86141 0
M  V30 2763 O 276.979 -5.50655 -2.43028 0
M  V30 2764 H 280.805 -3.02738 -0.241585 0
M  V30 2765 H 278.39 -1.49305 -0.053222 0
M  V30 2766 H 280.272 -3.24834 -2.68442 0
M  V30 2767 H 278.947 -2.06836 -2.48999 0
M  V30 2768 H 277.854 -3.65436 -0.80044 0
M  V30 2769 H 279.187 -4.80376 -1.07236 0
M  V30 2770 N 280.839 0.0985539 -1.57292 0
M  V30 2771 C 282.088 0.801358 -1.85098 0
M  V30 2772 C 282.401 1.80066 -0.763902 0
M  V30 2773 O 283.607 2.55112 -0.928981 0
M  V30 2774 C 282.063 1.47599 -3.28242 0
M  V30 2775 C 281.671 0.516624 -4.45011 0
M  V30 2776 C 283.415 2.16272 -3.65276 0
M  V30 2777 C 281.322 1.19564 -5.79188 0
M  V30 2778 H 280.252 0.303022 -0.69043 0
M  V30 2779 H 282.903 0.0542623 -1.8342 0
M  V30 2780 H 281.285 2.27042 -3.2445 0
M  V30 2781 H 282.459 -0.246065 -4.60143 0
M  V30 2782 H 280.774 -0.064227 -4.1635 0
M  V30 2783 H 283.371 2.67802 -4.62803 0
M  V30 2784 H 283.714 2.95009 -2.93727 0
M  V30 2785 H 284.247 1.43693 -3.70941 0
M  V30 2786 H 280.986 0.449157 -6.53959 0
M  V30 2787 H 280.506 1.92984 -5.67906 0
M  V30 2788 H 282.185 1.7231 -6.23633 0
M  V30 2789 N 282.317 1.53212 0.369288 0
M  V30 2790 C 283.557 1.70915 1.12105 0
M  V30 2791 C 283.921 0.449444 1.86665 0
M  V30 2792 O 285.122 0.503105 2.6405 0
M  V30 2793 C 283.393 2.9222 2.05772 0
M  V30 2794 S 284.952 3.30609 2.88519 0
M  V30 2795 H 281.77 0.601445 0.379189 0
M  V30 2796 H 284.372 1.91306 0.402794 0
M  V30 2797 H 283.076 3.82103 1.49752 0
M  V30 2798 H 282.607 2.7422 2.82076 0
M  V30 2799 H 284.622 2.82333 4.08047 0
M  V30 2800 N 283.795 -0.628877 1.44509 0
M  V30 2801 C 284.758 -1.72263 1.51188 0
M  V30 2802 C 285.758 -1.55907 0.39367 0
M  V30 2803 O 286.948 -1.61361 0.656377 0
M  V30 2804 C 284.08 -3.11365 1.38798 0
M  V30 2805 H 285.273 -1.67714 2.4862 0
M  V30 2806 H 282.826 -0.842737 1.31634 0
M  V30 2807 H 283.561 -3.21507 0.424693 0
M  V30 2808 H 283.346 -3.24644 2.19884 0
M  V30 2809 H 284.836 -3.91075 1.46458 0
M  V30 2810 N 285.273 -1.31445 -0.869486 0
M  V30 2811 C 286.521 -1.20918 -1.61936 0
M  V30 2812 C 286.842 0.232683 -1.93607 0
M  V30 2813 O 286.112 1.15352 -1.58338 0
M  V30 2814 H 284.692 -0.44454 -0.600328 0
M  V30 2815 H 287.354 -1.64776 -1.0409 0
M  V30 2816 H 286.45 -1.78124 -2.56278 0
M  V30 2817 N 286.751 1.08385 -1.14413 0
M  V30 2818 C 287.981 1.8425 -0.934644 0
M  V30 2819 C 288.389 1.81907 0.520234 0
M  V30 2820 O 287.732 1.22126 1.37226 0
M  V30 2821 C 287.794 3.32853 -1.35828 0
M  V30 2822 C 287.458 3.5893 -2.82875 0
M  V30 2823 C 288.455 3.53756 -3.80989 0
M  V30 2824 C 286.14 3.86934 -3.20293 0
M  V30 2825 C 288.134 3.76216 -5.14529 0
M  V30 2826 C 285.821 4.09047 -4.54008 0
M  V30 2827 C 286.819 4.03682 -5.50936 0
M  V30 2828 O 286.507 4.25214 -6.82238 0
M  V30 2829 H 286.239 0.588502 -0.332628 0
M  V30 2830 H 288.793 1.37792 -1.52324 0
M  V30 2831 H 287.023 3.8007 -0.713019 0
M  V30 2832 H 288.712 3.90154 -1.11957 0
M  V30 2833 H 289.478 3.32135 -3.53428 0
M  V30 2834 H 285.357 3.9023 -2.45442 0
M  V30 2835 H 288.901 3.71943 -5.90173 0
M  V30 2836 H 284.798 4.30151 -4.8129 0
M  V30 2837 H 285.566 4.42619 -6.88499 0
M  V30 2838 N 288.23 0.939286 1.26551 0
M  V30 2839 C 289.641 0.628782 1.75793 0
M  V30 2840 C 289.992 -0.856046 1.7654 0
M  V30 2841 O 289.117 -1.66994 1.3763 0
M  V30 2842 C 289.712 1.13465 3.19235 0
M  V30 2843 C 288.271 0.874601 3.66098 0
M  V30 2844 C 287.418 1.28667 2.45642 0
M  V30 2845 H 290.369 1.1178 1.12654 0
M  V30 2846 H 290.39 0.487609 3.77363 0
M  V30 2847 H 289.902 2.21535 3.1866 0
M  V30 2848 H 288.003 -0.191793 3.72106 0
M  V30 2849 H 288.116 1.50028 4.55004 0
M  V30 2850 H 286.48 0.705109 2.44745 0
M  V30 2851 H 287.263 2.37625 2.47769 0
M  V30 2852 N 289.708 -1.40897 0.706093 0
M  V30 2853 C 290.985 -1.94868 0.169099 0
M  V30 2854 C 291.365 -1.64485 -1.32318 0
M  V30 2855 O 290.713 -0.95744 -2.07474 0
M  V30 2856 C 290.923 -3.45798 0.471654 0
M  V30 2857 C 292.271 -4.22663 0.405127 0
M  V30 2858 O 293.295 -3.53865 0.407168 0
M  V30 2859 O 292.154 -5.45216 0.374383 0
M  V30 2860 H 289.248 -0.82673 0.0211352 0
M  V30 2861 H 291.794 -1.50558 0.782976 0
M  V30 2862 H 290.566 -3.61235 1.50416 0
M  V30 2863 H 290.189 -3.97225 -0.172666 0
M  V30 2864 N 291.186 -0.45159 -1.50991 0
M  V30 2865 C 292.414 0.108334 -2.06616 0
M  V30 2866 C 292.829 1.35224 -1.31757 0
M  V30 2867 O 292.186 1.78475 -0.381174 0
M  V30 2868 C 292.237 0.41619 -3.59096 0
M  V30 2869 O 291.958 -0.778361 -4.3113 0
M  V30 2870 C 293.459 1.02523 -4.31282 0
M  V30 2871 H 290.679 0.00159995 -0.670998 0
M  V30 2872 H 293.223 -0.634771 -1.94399 0
M  V30 2873 H 291.378 1.10921 -3.71181 0
M  V30 2874 H 291.792 -0.511181 -5.22003 0
M  V30 2875 H 293.266 1.19053 -5.39009 0
M  V30 2876 H 293.743 2.01013 -3.905 0
M  V30 2877 H 294.349 0.371173 -4.23677 0
M  V30 2878 N 292.664 1.56529 -0.183458 0
M  V30 2879 C 293.912 1.96855 0.457452 0
M  V30 2880 C 294.233 1.07104 1.62953 0
M  V30 2881 O 293.503 0.139887 1.954 0
M  V30 2882 H 292.083 0.72693 0.171992 0
M  V30 2883 H 294.745 1.93056 -0.267476 0
M  V30 2884 H 293.841 3.01423 0.809368 0
M  V30 2885 N 294.142 -0.090211 1.57342 0
M  V30 2886 C 295.39 -0.791241 1.85967 0
M  V30 2887 C 295.711 -1.7903 0.772859 0
M  V30 2888 O 294.981 -1.94872 -0.200398 0
M  V30 2889 H 293.561 -0.295205 0.686195 0
M  V30 2890 H 296.223 -0.0706782 1.94772 0
M  V30 2891 H 295.319 -1.31882 2.82867 0
M  V30 2892 N 295.62 -1.53406 -0.361157 0
M  V30 2893 C 296.866 -1.70054 -1.10496 0
M  V30 2894 C 297.199 -0.453278 -1.88836 0
M  V30 2895 O 296.474 0.5495 -1.86576 0
M  V30 2896 C 296.757 -2.95317 -2.06058 0
M  V30 2897 C 296.61 -4.3021 -1.31298 0
M  V30 2898 C 297.929 -3.16193 -3.06121 0
M  V30 2899 H 295.048 -0.618799 -0.400321 0
M  V30 2900 H 297.69 -1.86052 -0.385318 0
M  V30 2901 H 295.84 -2.81809 -2.67425 0
M  V30 2902 H 297.512 -4.55538 -0.726807 0
M  V30 2903 H 295.755 -4.29421 -0.614853 0
M  V30 2904 H 296.426 -5.14 -2.01265 0
M  V30 2905 H 298.902 -3.28916 -2.5486 0
M  V30 2906 H 297.778 -4.05266 -3.70204 0
M  V30 2907 H 298.039 -2.31676 -3.76535 0
M  V30 2908 N 297.098 0.621204 -1.44841 0
M  V30 2909 C 298.375 1.38 -1.38619 0
M  V30 2910 C 298.755 2.11041 -0.0498935 0
M  V30 2911 O 298.103 2.06992 0.967816 0
M  V30 2912 C 298.313 2.33817 -2.59096 0
M  V30 2913 C 299.661 2.96844 -3.03593 0
M  V30 2914 O 300.685 2.44141 -2.59371 0
M  V30 2915 O 299.544 3.92476 -3.80296 0
M  V30 2916 H 296.638 0.61811 -0.549426 0
M  V30 2917 H 299.184 0.645429 -1.56947 0
M  V30 2918 H 297.956 1.79012 -3.47952 0
M  V30 2919 H 297.579 3.14676 -2.43032 0
M  V30 2920 N 298.576 1.31904 0.862503 0
M  V30 2921 C 299.804 1.24998 1.64873 0
M  V30 2922 C 300.219 -0.183425 1.87907 0
M  V30 2923 O 299.576 -1.11794 1.44251 0
M  V30 2924 C 299.627 1.99829 3.01248 0
M  V30 2925 O 299.348 3.37575 2.79239 0
M  V30 2926 C 300.849 1.99852 3.95694 0
M  V30 2927 H 298.069 0.431599 0.513773 0
M  V30 2928 H 300.613 1.73901 1.07604 0
M  V30 2929 H 298.768 1.54668 3.55185 0
M  V30 2930 H 299.182 3.75776 3.65914 0
M  V30 2931 H 300.656 2.56709 4.88676 0
M  V30 2932 H 301.133 0.982852 4.28062 0
M  V30 2933 H 301.739 2.44926 3.47694 0
M  V30 2934 N 300.054 -1.07777 1.14986 0
M  V30 2935 C 301.294 -1.81888 0.932527 0
M  V30 2936 C 301.658 -1.84509 -0.531064 0
M  V30 2937 O 302.859 -2.54448 -0.866577 0
M  V30 2938 C 301.13 -3.23244 1.52473 0
M  V30 2939 S 302.689 -4.14154 1.44989 0
M  V30 2940 H 299.507 -0.626752 0.335712 0
M  V30 2941 H 302.109 -1.29503 1.46455 0
M  V30 2942 H 300.813 -3.18922 2.58296 0
M  V30 2943 H 300.344 -3.80704 0.991381 0
M  V30 2944 H 302.359 -4.94247 0.439799 0
M  V30 2945 N 301.532 -0.945985 -1.26051 0
M  V30 2946 C 302.464 -0.416662 -2.25381 0
M  V30 2947 C 303.477 0.462712 -1.56086 0
M  V30 2948 O 304.666 0.272383 -1.7641 0
M  V30 2949 C 301.766 0.419812 -3.3629 0
M  V30 2950 C 300.939 -0.444531 -4.35135 0
M  V30 2951 C 299.998 0.332305 -5.2515 0
M  V30 2952 O 299.024 -0.266324 -5.68577 0
M  V30 2953 N 300.226 1.62763 -5.57215 0
M  V30 2954 H 302.991 -1.27059 -2.71433 0
M  V30 2955 H 300.552 -0.815392 -1.39868 0
M  V30 2956 H 302.544 0.947013 -3.93464 0
M  V30 2957 H 301.114 1.17456 -2.89694 0
M  V30 2958 H 300.334 -1.15291 -3.76964 0
M  V30 2959 H 301.622 -1.03478 -4.98166 0
M  V30 2960 H 301.02 2.13603 -5.23823 0
M  V30 2961 H 299.577 2.10097 -6.17011 0
M  V30 2962 N 303.011 1.40521 -0.713556 0
M  V30 2963 C 304.259 2.00527 -0.251692 0
M  V30 2964 C 304.58 1.56857 1.15848 0
M  V30 2965 O 303.85 0.807127 1.785 0
M  V30 2966 H 302.43 0.741551 -0.0900646 0
M  V30 2967 H 305.092 1.71887 -0.918733 0
M  V30 2968 H 304.188 3.10813 -0.283192 0
M  V30 2969 N 304.489 0.459591 1.5075 0
M  V30 2970 C 305.766 -0.160371 1.94941 0
M  V30 2971 C 306.146 -1.58048 1.39943 0
M  V30 2972 O 305.494 -2.206 0.595629 0
M  V30 2973 C 305.704 -0.115432 3.48809 0
M  V30 2974 C 307.052 -0.310026 4.23467 0
M  V30 2975 O 308.076 -0.192543 3.55679 0
M  V30 2976 O 306.935 -0.546031 5.43765 0
M  V30 2977 H 304.029 -0.117925 0.818549 0
M  V30 2978 H 306.575 0.519169 1.61563 0
M  V30 2979 H 305.347 0.87652 3.81357 0
M  V30 2980 H 304.97 -0.836928 3.88692 0
M  V30 2981 N 305.967 -1.56429 0.191757 0
M  V30 2982 C 307.192 -2.02309 -0.456706 0
M  V30 2983 C 307.617 -1.07103 -1.5463 0
M  V30 2984 O 306.975 -0.0539677 -1.8122 0
M  V30 2985 C 307.023 -3.46654 -0.993159 0
M  V30 2986 O 306.127 -3.54559 -2.10622 0
M  V30 2987 H 305.468 -0.655303 -0.107114 0
M  V30 2988 H 307.998 -2.02364 0.301653 0
M  V30 2989 H 308.008 -3.86377 -1.31061 0
M  V30 2990 H 306.683 -4.1544 -0.195504 0
M  V30 2991 H 305.26 -3.26708 -1.79767 0
M  V30 2992 N 307.445 0.0818655 -1.57387 0
M  V30 2993 C 308.693 0.781368 -1.86384 0
M  V30 2994 C 309.014 1.78618 -0.782342 0
M  V30 2995 O 308.284 1.94976 0.190061 0
M  V30 2996 H 306.864 0.291562 -0.687751 0
M  V30 2997 H 309.526 0.060348 -1.94807 0
M  V30 2998 H 308.622 1.3038 -2.83562 0
M  V30 2999 N 308.923 1.53595 0.353017 0
M  V30 3000 C 310.171 1.70049 1.09215 0
M  V30 3001 C 310.492 0.461406 1.89463 0
M  V30 3002 O 309.762 -0.524633 1.88744 0
M  V30 3003 H 308.342 0.626912 0.40619 0
M  V30 3004 H 311.004 1.90822 0.396585 0
M  V30 3005 H 310.1 2.56718 1.77488 0
M  V30 3006 N 310.401 -0.613514 1.45168 0
M  V30 3007 C 311.812 -1.19539 1.43413 0
M  V30 3008 C 312.163 -1.95558 0.158632 0
M  V30 3009 O 311.288 -2.0335 -0.740119 0
M  V30 3010 C 311.883 -2.17445 2.59813 0
M  V30 3011 C 310.442 -2.71022 2.61197 0
M  V30 3012 C 309.589 -1.46323 2.35552 0
M  V30 3013 H 312.54 -0.403163 1.53494 0
M  V30 3014 H 312.561 -3.00373 2.33574 0
M  V30 3015 H 312.073 -1.62089 3.52631 0
M  V30 3016 H 310.174 -3.30332 1.7237 0
M  V30 3017 H 310.287 -3.15859 3.60236 0
M  V30 3018 H 308.651 -1.75072 1.84992 0
M  V30 3019 H 309.434 -0.92844 3.30507 0
M  V30 3020 N 311.879 -1.3236 -0.855495 0
M  V30 3021 C 312.812 -1.15559 -1.96777 0
M  V30 3022 C 313.79 -0.0552681 -1.62506 0
M  V30 3023 O 314.974 -0.214419 -1.87277 0
M  V30 3024 C 312.101 -0.768851 -3.29858 0
M  V30 3025 C 311.147 -1.87429 -3.83109 0
M  V30 3026 S 311.98 -3.48243 -4.06801 0
M  V30 3027 C 313.136 -3.11539 -5.42858 0
M  V30 3028 H 313.369 -2.09717 -2.10727 0
M  V30 3029 H 310.902 -1.17011 -1.00737 0
M  V30 3030 H 312.86 -0.55248 -4.06765 0
M  V30 3031 H 311.521 0.153857 -3.13723 0
M  V30 3032 H 310.714 -1.55667 -4.79358 0
M  V30 3033 H 310.316 -2.04647 -3.13042 0
M  V30 3034 H 312.608 -2.61331 -6.2507 0
M  V30 3035 H 313.551 -4.06806 -5.79582 0
M  V30 3036 H 313.959 -2.48582 -5.06821 0
M  V30 3037 N 313.357 1.07166 -1.15556 0
M  V30 3038 C 314.604 1.79798 -0.931604 0
M  V30 3039 C 314.932 1.8682 0.54115 0
M  V30 3040 O 314.187 1.34942 1.41736 0
M  V30 3041 C 314.486 3.24707 -1.49332 0
M  V30 3042 C 314.152 3.37781 -2.98688 0
M  V30 3043 C 312.814 3.41057 -3.39461 0
M  V30 3044 C 315.166 3.40424 -3.94665 0
M  V30 3045 C 312.494 3.4458 -4.74849 0
M  V30 3046 C 314.846 3.45485 -5.29927 0
M  V30 3047 C 313.51 3.47039 -5.70193 0
M  V30 3048 H 312.78 0.657928 -0.340898 0
M  V30 3049 H 315.427 1.26091 -1.44129 0
M  V30 3050 H 313.732 3.81208 -0.904859 0
M  V30 3051 H 315.429 3.79486 -1.29582 0
M  V30 3052 H 312.019 3.35932 -2.66172 0
M  V30 3053 H 316.203 3.37113 -3.64237 0
M  V30 3054 H 311.459 3.44083 -5.05388 0
M  V30 3055 H 315.633 3.46476 -6.04092 0
M  V30 3056 H 313.26 3.49522 -6.75084 0
M  V30 3057 N 314.835 0.952656 1.25548 0
M  V30 3058 C 316.251 0.656769 1.4546 0
M  V30 3059 C 316.451 -0.78633 1.85524 0
M  V30 3060 O 315.507 -1.56183 1.98402 0
M  V30 3061 C 316.82 1.62801 2.52817 0
M  V30 3062 C 318.368 1.63897 2.66659 0
M  V30 3063 C 318.843 2.5978 3.77198 0
M  V30 3064 N 320.334 2.58133 3.84606 0
M  V30 3065 C 321.069 3.29003 4.69621 0
M  V30 3066 N 320.565 4.09339 5.58939 0
M  V30 3067 N 322.358 3.179 4.63569 0
M  V30 3068 H 314.509 1.88526 0.978344 0
M  V30 3069 H 316.772 0.810815 0.491206 0
M  V30 3070 H 316.478 2.65869 2.30232 0
M  V30 3071 H 316.352 1.38898 3.50695 0
M  V30 3072 H 318.739 0.615481 2.8861 0
M  V30 3073 H 318.82 1.91858 1.69187 0
M  V30 3074 H 318.464 3.62254 3.55997 0
M  V30 3075 H 318.394 2.29105 4.7415 0
M  V30 3076 H 320.885 1.99809 3.20757 0
M  V30 3077 H 321.198 4.6034 6.20731 0
M  V30 3078 H 319.543 4.13438 5.58654 0
M  V30 3079 H 322.734 2.54612 3.92798 0
M  V30 3080 H 322.907 3.73398 5.29602 0
M  V30 3081 N 316.313 -1.40141 0.720998 0
M  V30 3082 C 317.26 -2.30688 0.071919 0
M  V30 3083 C 318.23 -1.48476 -0.744584 0
M  V30 3084 O 319.415 -1.77201 -0.707423 0
M  V30 3085 C 316.555 -3.34724 -0.839855 0
M  V30 3086 C 315.668 -4.31998 -0.0122438 0
M  V30 3087 C 314.803 -5.23102 -0.923995 0
M  V30 3088 C 313.842 -6.12033 -0.0907969 0
M  V30 3089 N 312.979 -6.95537 -0.957718 0
M  V30 3090 H 317.819 -2.85628 0.849755 0
M  V30 3091 H 315.356 -1.40653 0.430726 0
M  V30 3092 H 317.314 -3.93618 -1.38279 0
M  V30 3093 H 315.944 -2.81274 -1.58381 0
M  V30 3094 H 314.996 -3.74841 0.64794 0
M  V30 3095 H 316.308 -4.94772 0.632595 0
M  V30 3096 H 315.462 -5.86953 -1.53527 0
M  V30 3097 H 314.201 -4.60615 -1.60264 0
M  V30 3098 H 313.206 -5.47207 0.533377 0
M  V30 3099 H 314.431 -6.76581 0.584428 0
M  V30 3100 H 312.377 -6.35633 -1.62192 0
M  V30 3101 H 312.294 -7.55099 -0.36904 0
M  V30 3102 H 313.562 -7.63832 -1.555 0
M  V30 3103 N 317.792 -0.46758 -1.50504 0
M  V30 3104 C 319.069 0.15003 -1.95024 0
M  V30 3105 C 319.449 1.57304 -1.40779 0
M  V30 3106 O 318.797 2.20281 -0.607319 0
M  V30 3107 C 319.007 0.0969324 -3.48865 0
M  V30 3108 C 320.355 0.287565 -4.23625 0
M  V30 3109 O 321.379 0.173678 -3.55776 0
M  V30 3110 O 320.238 0.517186 -5.44047 0
M  V30 3111 H 317.332 0.113582 -0.819163 0
M  V30 3112 H 319.878 -0.52773 -1.61286 0
M  V30 3113 H 318.65 -0.896732 -3.80886 0
M  V30 3114 H 318.273 0.816303 -3.8913 0
M  V30 3115 N 319.27 1.56325 -0.20005 0
M  V30 3116 C 320.218 2.20666 0.735482 0
M  V30 3117 C 321.212 1.17934 1.21605 0
M  V30 3118 O 322.418 1.36068 1.17837 0
M  V30 3119 H 318.793 0.70725 0.255542 0
M  V30 3120 H 320.764 2.9792 0.169166 0
M  V30 3121 C 319.513 2.88391 1.94232 0
M  V30 3122 H 318.836 3.67185 1.58161 0
M  V30 3123 H 320.276 3.3684 2.57517 0
M  V30 3124 C 318.735 1.89692 2.78421 0
M  V30 3125 O 319.265 1.40032 3.76502 0
M  V30 3126 N 317.471 1.57813 2.44015 0
M  V30 3127 H 317.018 1.9839 1.64314 0
M  V30 3128 H 316.976 0.920325 3.00628 0
M  V30 3129 N 320.748 -0.0735177 1.57428 0
M  V30 3130 C 321.711 -1.07192 2.02589 0
M  V30 3131 C 322.711 -1.31695 0.922661 0
M  V30 3132 O 323.901 -1.27445 1.18758 0
M  V30 3133 C 321.033 -2.41599 2.40506 0
M  V30 3134 H 322.226 -0.682727 2.92025 0
M  V30 3135 H 319.779 -0.319193 1.53006 0
M  V30 3136 H 320.514 -2.85354 1.5409 0
M  V30 3137 H 320.299 -2.25156 3.21009 0
M  V30 3138 H 321.789 -3.13367 2.76027 0
M  V30 3139 N 322.226 -1.5378 -0.344866 0
M  V30 3140 C 323.503 -1.61589 -1.10219 0
M  V30 3141 C 323.883 -0.436316 -2.06542 0
M  V30 3142 O 323.231 0.571543 -2.21237 0
M  V30 3143 C 323.441 -2.97602 -1.82301 0
M  V30 3144 C 324.789 -3.5291 -2.36093 0
M  V30 3145 O 325.813 -2.99768 -1.924 0
M  V30 3146 O 324.672 -4.45859 -3.16026 0
M  V30 3147 H 321.766 -0.653522 -0.506792 0
M  V30 3148 H 324.312 -1.66126 -0.346465 0
M  V30 3149 H 323.084 -3.74893 -1.12121 0
M  V30 3150 H 322.707 -2.9665 -2.64735 0
M  V30 3151 N 323.704 0.605807 -1.45491 0
M  V30 3152 C 324.614 1.74466 -1.56839 0
M  V30 3153 C 325.63 1.68006 -0.452772 0
M  V30 3154 O 326.806 1.8833 -0.713708 0
M  V30 3155 C 323.871 3.10931 -1.53371 0
M  V30 3156 C 322.932 3.28832 -2.75986 0
M  V30 3157 C 322.165 4.58787 -2.72673 0
M  V30 3158 O 322.388 5.4122 -1.80102 0
M  V30 3159 O 321.322 4.79438 -3.63899 0
M  V30 3160 H 325.148 1.67843 -2.53106 0
M  V30 3161 H 322.733 0.770108 -1.28022 0
M  V30 3162 H 324.615 3.92233 -1.54051 0
M  V30 3163 H 323.29 3.18042 -0.602572 0
M  V30 3164 H 322.197 2.47112 -2.80867 0
M  V30 3165 H 323.53 3.26599 -3.68231 0
M  V30 3166 N 325.182 1.32811 0.848464 0
M  V30 3167 C 326.428 1.24917 1.60522 0
M  V30 3168 C 326.783 -0.185761 1.91501 0
M  V30 3169 O 326.076 -1.12524 1.55077 0
M  V30 3170 C 326.27 2.04831 2.92881 0
M  V30 3171 C 326.099 3.55949 2.74828 0
M  V30 3172 C 324.869 4.25277 2.72887 0
M  V30 3173 C 327.067 4.50476 2.48145 0
M  V30 3174 N 325.049 5.62408 2.46111 0
M  V30 3175 C 326.42 5.75427 2.30832 0
M  V30 3176 C 328.475 4.39665 2.33664 0
M  V30 3177 C 327.178 6.90789 2.00508 0
M  V30 3178 C 329.204 5.54833 2.04731 0
M  V30 3179 C 328.566 6.78787 1.88223 0
M  V30 3180 H 324.665 0.512279 0.590842 0
M  V30 3181 H 327.249 1.67246 0.996839 0
M  V30 3182 H 325.42 1.64837 3.51686 0
M  V30 3183 H 327.152 1.88782 3.57971 0
M  V30 3184 H 323.907 3.77456 2.86049 0
M  V30 3185 H 324.331 6.3467 2.35634 0
M  V30 3186 H 328.973 3.44477 2.45144 0
M  V30 3187 H 326.691 7.85984 1.87765 0
M  V30 3188 H 330.277 5.48398 1.94295 0
M  V30 3189 H 329.157 7.66396 1.66155 0
M  V30 3190 N 326.66 -1.06551 1.16123 0
M  V30 3191 C 327.909 -1.78687 0.935622 0
M  V30 3192 C 328.222 -1.88056 -0.538001 0
M  V30 3193 O 329.428 -2.56794 -0.88143 0
M  V30 3194 C 327.884 -3.21143 1.62466 0
M  V30 3195 C 327.492 -3.19949 3.13587 0
M  V30 3196 C 329.236 -3.9783 1.48092 0
M  V30 3197 C 327.143 -4.57108 3.75241 0
M  V30 3198 H 326.073 -0.669712 0.346412 0
M  V30 3199 H 328.724 -1.19534 1.39226 0
M  V30 3200 H 327.106 -3.80539 1.09572 0
M  V30 3201 H 328.28 -2.70151 3.73303 0
M  V30 3202 H 326.595 -2.5676 3.27816 0
M  V30 3203 H 329.192 -4.99217 1.91538 0
M  V30 3204 H 329.535 -4.14078 0.429507 0
M  V30 3205 H 330.068 -3.4495 1.98127 0
M  V30 3206 H 326.807 -4.46065 4.80319 0
M  V30 3207 H 326.327 -5.07111 3.20309 0
M  V30 3208 H 328.006 -5.26069 3.76644 0
M  V30 3209 N 328.138 -0.959301 -1.25041 0
M  V30 3210 C 329.07 -0.440543 -2.24926 0
M  V30 3211 C 330.083 0.446131 -1.56568 0
M  V30 3212 O 331.272 0.253657 -1.76689 0
M  V30 3213 C 328.372 0.38412 -3.36716 0
M  V30 3214 C 327.545 -0.490658 -4.34639 0
M  V30 3215 C 326.604 0.276587 -5.25473 0
M  V30 3216 O 325.63 -0.326614 -5.68262 0
M  V30 3217 N 326.832 1.56844 -5.5891 0
M  V30 3218 H 329.597 -1.29931 -2.70071 0
M  V30 3219 H 327.158 -0.830181 -1.38995 0
M  V30 3220 H 329.15 0.905228 -3.94446 0
M  V30 3221 H 327.72 1.14377 -2.90924 0
M  V30 3222 H 326.94 -1.19282 -3.7572 0
M  V30 3223 H 328.228 -1.08756 -4.97041 0
M  V30 3224 H 327.626 2.08036 -5.26059 0
M  V30 3225 H 326.183 2.03541 -6.19205 0
M  V30 3226 N 329.616 1.39756 -0.72842 0
M  V30 3227 C 330.862 2.00942 -0.273892 0
M  V30 3228 C 331.195 1.57656 1.13394 0
M  V30 3229 O 330.47 0.802434 1.77176 0
M  V30 3230 C 330.753 3.58211 -0.368346 0
M  V30 3231 C 330.606 4.11534 -1.81548 0
M  V30 3232 C 331.925 4.39372 0.253054 0
M  V30 3233 H 329.044 0.730047 -0.100996 0
M  V30 3234 H 331.686 1.66056 -0.923337 0
M  V30 3235 H 329.836 3.88061 0.184588 0
M  V30 3236 H 331.508 3.92431 -2.42478 0
M  V30 3237 H 329.751 3.65341 -2.33898 0
M  V30 3238 H 330.422 5.20682 -1.83288 0
M  V30 3239 H 332.898 4.15527 -0.218224 0
M  V30 3240 H 331.774 5.48677 0.156585 0
M  V30 3241 H 332.035 4.21358 1.33826 0
M  V30 3242 N 331.094 0.475555 1.50254 0
M  V30 3243 C 332.342 -0.077738 2.0195 0
M  V30 3244 C 332.663 -1.39813 1.35931 0
M  V30 3245 O 331.933 -1.89249 0.506123 0
M  V30 3246 H 330.513 -0.031719 0.746326 0
M  V30 3247 H 333.175 0.626995 1.84539 0
M  V30 3248 H 332.271 -0.225995 3.11281 0
M  V30 3249 N 332.573 -1.56217 0.208337 0
M  V30 3250 C 333.822 -1.97124 -0.427204 0
M  V30 3251 C 334.135 -1.09859 -1.61835 0
M  V30 3252 O 335.341 -1.40606 -2.32255 0
M  V30 3253 C 333.797 -3.50633 -0.811442 0
M  V30 3254 C 333.405 -4.46582 0.35615 0
M  V30 3255 C 335.149 -4.00282 -1.41332 0
M  V30 3256 C 333.056 -5.91379 -0.0497852 0
M  V30 3257 H 331.986 -0.736086 -0.163381 0
M  V30 3258 H 334.637 -1.8099 0.302456 0
M  V30 3259 H 333.019 -3.62319 -1.59815 0
M  V30 3260 H 334.193 -4.46636 1.1337 0
M  V30 3261 H 332.508 -4.07202 0.870396 0
M  V30 3262 H 335.105 -5.0595 -1.72972 0
M  V30 3263 H 335.448 -3.45359 -2.32449 0
M  V30 3264 H 335.981 -3.91764 -0.690323 0
M  V30 3265 H 332.72 -6.50255 0.827529 0
M  V30 3266 H 332.24 -5.94549 -0.791926 0
M  V30 3267 H 333.919 -6.45209 -0.481042 0
M  V30 3268 N 334.051 0.0651679 -1.57465 0
M  V30 3269 C 335.297 0.764193 -1.87851 0
M  V30 3270 C 335.63 1.76889 -0.801495 0
M  V30 3271 O 334.905 1.93594 0.187528 0
M  V30 3272 C 335.188 1.46625 -3.28897 0
M  V30 3273 C 335.041 0.477515 -4.47258 0
M  V30 3274 C 336.36 2.4095 -3.68281 0
M  V30 3275 H 333.479 0.276351 -0.683227 0
M  V30 3276 H 336.121 0.0272868 -1.8998 0
M  V30 3277 H 334.271 2.09438 -3.27212 0
M  V30 3278 H 335.943 -0.145922 -4.61069 0
M  V30 3279 H 334.186 -0.206576 -4.33308 0
M  V30 3280 H 334.857 1.0065 -5.42746 0
M  V30 3281 H 337.333 1.88209 -3.71102 0
M  V30 3282 H 336.209 2.87072 -4.67847 0
M  V30 3283 H 336.47 3.26049 -2.98571 0
M  V30 3284 N 335.529 1.53961 0.336706 0
M  V30 3285 C 336.754 1.75797 1.10046 0
M  V30 3286 C 337.179 0.498985 1.81361 0
M  V30 3287 O 336.537 -0.548769 1.72795 0
M  V30 3288 C 336.585 2.94257 2.08436 0
M  V30 3289 O 335.689 2.64883 3.16087 0
M  V30 3290 H 335.03 0.582936 0.317934 0
M  V30 3291 H 337.56 2.00945 0.38501 0
M  V30 3292 H 337.57 3.21237 2.51537 0
M  V30 3293 H 336.245 3.85564 1.55927 0
M  V30 3294 H 334.822 2.48812 2.77753 0
M  V30 3295 N 337.007 -0.598083 1.45811 0
M  V30 3296 C 338.253 -1.35679 1.51535 0
M  V30 3297 C 338.608 -1.91745 0.15864 0
M  V30 3298 O 337.901 -1.72654 -0.830724 0
M  V30 3299 C 338.095 -2.51669 2.53766 0
M  V30 3300 C 337.924 -2.06963 3.99245 0
M  V30 3301 C 336.694 -1.92693 4.67116 0
M  V30 3302 C 338.892 -1.63855 4.875 0
M  V30 3303 N 336.874 -1.41897 5.97276 0
M  V30 3304 C 338.245 -1.24541 6.07363 0
M  V30 3305 C 340.3 -1.51533 4.74281 0
M  V30 3306 C 339.003 -0.741354 7.15469 0
M  V30 3307 C 341.029 -1.0253 5.82444 0
M  V30 3308 C 340.391 -0.641869 7.01469 0
M  V30 3309 H 336.49 -0.490042 0.609412 0
M  V30 3310 H 339.074 -0.682687 1.82339 0
M  V30 3311 H 337.245 -3.16663 2.24898 0
M  V30 3312 H 338.977 -3.18578 2.4958 0
M  V30 3313 H 335.732 -2.1417 4.22408 0
M  V30 3314 H 336.156 -1.18704 6.66512 0
M  V30 3315 H 340.798 -1.798 3.82664 0
M  V30 3316 H 338.516 -0.446243 8.06867 0
M  V30 3317 H 342.102 -0.934088 5.74253 0
M  V30 3318 H 340.982 -0.268531 7.8374 0
M  V30 3319 N 338.485 -1.33259 -0.841409 0
M  V30 3320 C 339.733 -1.24326 -1.59334 0
M  V30 3321 C 340.054 0.191564 -1.94057 0
M  V30 3322 O 339.324 1.11967 -1.60749 0
M  V30 3323 H 337.904 -0.457174 -0.590763 0
M  V30 3324 H 340.566 -1.66947 -1.00571 0
M  V30 3325 H 339.662 -1.8352 -2.52442 0
M  V30 3326 N 339.963 1.05934 -1.16686 0
M  V30 3327 C 341.193 1.82226 -0.973515 0
M  V30 3328 C 341.601 1.8297 0.481532 0
M  V30 3329 O 340.944 1.25009 1.34604 0
M  V30 3330 C 341.006 3.29897 -1.42858 0
M  V30 3331 C 340.67 3.52849 -2.90425 0
M  V30 3332 C 341.667 3.45595 -3.88407 0
M  V30 3333 C 339.352 3.80053 -3.28428 0
M  V30 3334 C 341.346 3.65217 -5.22394 0
M  V30 3335 C 339.033 3.99325 -4.62583 0
M  V30 3336 C 340.031 3.91905 -5.59374 0
M  V30 3337 O 339.719 4.10647 -6.91104 0
M  V30 3338 H 339.451 0.581314 -0.345036 0
M  V30 3339 H 342.005 1.3453 -1.55212 0
M  V30 3340 H 340.235 3.78472 -0.793477 0
M  V30 3341 H 341.924 3.87692 -1.20207 0
M  V30 3342 H 342.69 3.24564 -3.60393 0
M  V30 3343 H 338.569 3.84936 -2.53664 0
M  V30 3344 H 342.113 3.59341 -5.9793 0
M  V30 3345 H 338.01 4.19846 -4.90306 0
M  V30 3346 H 338.778 4.27915 -6.97733 0
M  V30 3347 N 341.441 0.965919 1.2453 0
M  V30 3348 C 342.689 0.625593 1.92174 0
M  V30 3349 C 343.01 -0.841652 1.75901 0
M  V30 3350 O 342.28 -1.60061 1.12948 0
M  V30 3351 H 340.86 0.228388 0.71123 0
M  V30 3352 H 343.522 1.2266 1.51461 0
M  V30 3353 H 342.618 0.864653 2.99884 0
M  V30 3354 N 342.919 -1.39368 0.735821 0
M  V30 3355 C 344.159 -2.02349 0.288813 0
M  V30 3356 C 344.523 -1.57127 -1.10341 0
M  V30 3357 O 345.724 -2.12312 -1.64854 0
M  V30 3358 C 343.995 -3.55288 0.387986 0
M  V30 3359 S 345.554 -4.38795 0.0209408 0
M  V30 3360 H 342.372 -0.701944 0.113115 0
M  V30 3361 H 344.974 -1.70164 0.962518 0
M  V30 3362 H 343.678 -3.85691 1.40252 0
M  V30 3363 H 343.209 -3.92227 -0.303512 0
M  V30 3364 H 345.224 -4.81595 -1.19503 0
M  V30 3365 N 344.397 -0.483516 -1.5 0
M  V30 3366 C 345.36 0.292965 -2.2732 0
M  V30 3367 C 346.36 0.909499 -1.32608 0
M  V30 3368 O 347.55 0.776745 -1.55924 0
M  V30 3369 C 344.682 1.41854 -3.09984 0
M  V30 3370 H 345.875 -0.385289 -2.97415 0
M  V30 3371 H 343.428 -0.237942 -1.54478 0
M  V30 3372 H 344.163 2.13148 -2.44414 0
M  V30 3373 H 343.948 0.982114 -3.79601 0
M  V30 3374 H 345.438 1.96597 -3.68429 0
M  V30 3375 N 345.875 1.56104 -0.216619 0
M  V30 3376 C 347.291 1.58995 0.13886 0
M  V30 3377 C 347.491 1.23333 1.59346 0
M  V30 3378 O 346.547 0.966234 2.33281 0
M  V30 3379 C 347.86 3.00143 -0.182968 0
M  V30 3380 C 349.408 3.12751 -0.124807 0
M  V30 3381 C 349.883 4.56068 -0.420241 0
M  V30 3382 N 351.374 4.61723 -0.369634 0
M  V30 3383 C 352.109 5.70542 -0.571789 0
M  V30 3384 N 351.605 6.87744 -0.835453 0
M  V30 3385 N 353.398 5.59831 -0.504563 0
M  V30 3386 H 345.549 1.77562 -1.16557 0
M  V30 3387 H 347.812 0.825091 -0.466828 0
M  V30 3388 H 347.518 3.30871 -1.19237 0
M  V30 3389 H 347.392 3.73813 0.504367 0
M  V30 3390 H 349.779 2.81822 0.875223 0
M  V30 3391 H 349.86 2.41421 -0.845544 0
M  V30 3392 H 349.504 4.87713 -1.41769 0
M  V30 3393 H 349.434 5.25617 0.321631 0
M  V30 3394 H 351.925 3.77502 -0.173338 0
M  V30 3395 H 352.238 7.66587 -0.977938 0
M  V30 3396 H 350.583 6.895 -0.872592 0
M  V30 3397 H 353.774 4.67145 -0.298842 0
M  V30 3398 H 353.947 6.44573 -0.665519 0
M  V30 3399 N 347.353 -0.0568162 1.57498 0
M  V30 3400 C 348.764 -0.606858 1.76562 0
M  V30 3401 C 349.115 -1.77114 0.844094 0
M  V30 3402 O 348.24 -2.16376 0.0318911 0
M  V30 3403 C 348.835 -1.10766 3.20182 0
M  V30 3404 C 347.394 -1.60344 3.40539 0
M  V30 3405 C 346.541 -0.529311 2.72201 0
M  V30 3406 H 349.492 0.169393 1.57793 0
M  V30 3407 H 349.513 -1.97602 3.25167 0
M  V30 3408 H 349.025 -0.26006 3.87228 0
M  V30 3409 H 347.126 -2.47379 2.78629 0
M  V30 3410 H 347.239 -1.67006 4.4905 0
M  V30 3411 H 345.603 -0.977893 2.35179 0
M  V30 3412 H 346.386 0.308352 3.41912 0
M  V30 3413 N 348.832 -1.54138 -0.328536 0
M  V30 3414 C 350.08 -1.71765 -1.06496 0
M  V30 3415 C 350.401 -0.49149 -1.88704 0
M  V30 3416 O 349.671 0.494539 -1.89555 0
M  V30 3417 H 348.251 -0.633295 -0.396164 0
M  V30 3418 H 350.913 -1.91429 -0.366176 0
M  V30 3419 H 350.009 -2.5951 -1.73381 0
M  V30 3420 N 350.31 0.590341 -1.46126 0
M  V30 3421 C 351.54 1.37304 -1.54373 0
M  V30 3422 C 351.948 1.88332 -0.181071 0
M  V30 3423 O 351.291 1.63852 0.830559 0
M  V30 3424 C 351.353 2.6012 -2.48149 0
M  V30 3425 C 351.017 2.30613 -3.94546 0
M  V30 3426 C 352.014 1.89915 -4.83971 0
M  V30 3427 C 349.699 2.42993 -4.39613 0
M  V30 3428 C 351.693 1.61981 -6.16475 0
M  V30 3429 C 349.38 2.14672 -5.72153 0
M  V30 3430 C 350.378 1.7423 -6.60404 0
M  V30 3431 O 350.066 1.46251 -7.90485 0
M  V30 3432 H 349.798 0.426086 -0.524811 0
M  V30 3433 H 352.352 0.72539 -1.92165 0
M  V30 3434 H 350.582 3.27664 -2.05361 0
M  V30 3435 H 352.271 3.22182 -2.46887 0
M  V30 3436 H 353.037 1.79872 -4.50412 0
M  V30 3437 H 348.916 2.73435 -3.71153 0
M  V30 3438 H 352.46 1.30341 -6.85315 0
M  V30 3439 H 348.357 2.24337 -6.05263 0
M  V30 3440 H 349.125 1.6016 -8.02677 0
M  V30 3441 N 351.788 1.33704 0.83433 0
M  V30 3442 C 353.199 1.22813 1.4062 0
M  V30 3443 C 353.55 -0.151107 1.95617 0
M  V30 3444 O 352.675 -1.05092 1.89168 0
M  V30 3445 C 353.27 2.22355 2.55624 0
M  V30 3446 C 351.829 2.1529 3.08751 0
M  V30 3447 C 350.976 2.09589 1.8157 0
M  V30 3448 H 353.927 1.45236 0.639702 0
M  V30 3449 H 353.948 1.83391 3.33389 0
M  V30 3450 H 353.46 3.22728 2.15566 0
M  V30 3451 H 351.561 1.18235 3.53343 0
M  V30 3452 H 351.674 3.06038 3.68616 0
M  V30 3453 H 350.038 1.55134 2.02004 0
M  V30 3454 H 350.821 3.11777 1.43701 0
M  V30 3455 N 353.266 -1.05314 1.17247 0
M  V30 3456 C 354.514 -1.77941 0.958194 0
M  V30 3457 C 354.835 -1.88089 -0.514556 0
M  V30 3458 O 354.105 -1.39676 -1.37359 0
M  V30 3459 H 352.685 -0.659116 0.351533 0
M  V30 3460 H 355.347 -1.27166 1.47699 0
M  V30 3461 H 354.443 -2.79663 1.38546 0
M  V30 3462 N 354.744 -0.972509 -1.24016 0
M  V30 3463 C 355.99 -0.637978 -1.92504 0
M  V30 3464 C 356.323 0.825383 -1.75787 0
M  V30 3465 O 355.598 1.59442 -1.11393 0
M  V30 3466 C 355.881 -1.01942 -3.45369 0
M  V30 3467 C 355.734 -2.53983 -3.71231 0
M  V30 3468 C 357.053 -0.55751 -4.36555 0
M  V30 3469 H 354.172 -0.233248 -0.699117 0
M  V30 3470 H 356.814 -1.21238 -1.46292 0
M  V30 3471 H 354.964 -0.530656 -3.84859 0
M  V30 3472 H 356.636 -3.10374 -3.41271 0
M  V30 3473 H 354.879 -2.96968 -3.16216 0
M  V30 3474 H 355.55 -2.75723 -4.78206 0
M  V30 3475 H 358.026 -0.977029 -4.04467 0
M  V30 3476 H 356.902 -0.85292 -5.42233 0
M  V30 3477 H 357.163 0.542328 -4.38761 0
M  V30 3478 N 356.222 1.38976 -0.743202 0
M  V30 3479 C 357.452 2.04339 -0.304807 0
M  V30 3480 C 357.86 1.56162 1.06819 0
M  V30 3481 O 357.203 0.725284 1.68776 0
M  V30 3482 C 357.265 3.58716 -0.237369 0
M  V30 3483 C 356.929 4.29905 -1.55018 0
M  V30 3484 C 357.926 4.55987 -2.49744 0
M  V30 3485 C 355.611 4.68294 -1.81675 0
M  V30 3486 C 357.605 5.19478 -3.69353 0
M  V30 3487 C 355.292 5.31512 -3.0156 0
M  V30 3488 C 356.29 5.57037 -3.9522 0
M  V30 3489 O 355.978 6.18941 -5.12998 0
M  V30 3490 H 355.71 0.663439 -0.12971 0
M  V30 3491 H 358.264 1.78852 -1.01001 0
M  V30 3492 H 356.494 3.83133 0.524003 0
M  V30 3493 H 358.183 4.05543 0.170121 0
M  V30 3494 H 358.949 4.26767 -2.30423 0
M  V30 3495 H 354.828 4.47779 -1.09615 0
M  V30 3496 H 358.372 5.39318 -4.42473 0
M  V30 3497 H 354.269 5.60153 -3.20778 0
M  V30 3498 H 355.037 6.37433 -5.13441 0
M  V30 3499 N 357.7 0.491464 1.49741 0
M  V30 3500 C 358.928 -0.0535151 2.06831 0
M  V30 3501 C 359.343 -1.31683 1.35296 0
M  V30 3502 O 358.7 -1.77402 0.42836 0
M  V30 3503 C 358.751 -0.320835 3.60073 0
M  V30 3504 O 358.472 0.892394 4.28915 0
M  V30 3505 C 359.973 -0.910519 4.33848 0
M  V30 3506 H 357.193 0.0161909 0.670805 0
M  V30 3507 H 359.737 0.68609 1.92647 0
M  V30 3508 H 357.892 -1.0104 3.73991 0
M  V30 3509 H 358.306 0.649401 5.20464 0
M  V30 3510 H 359.78 -1.04721 5.41976 0
M  V30 3511 H 360.257 -1.90589 3.95692 0
M  V30 3512 H 360.863 -0.258712 4.24512 0
M  V30 3513 N 359.178 -1.55987 0.224894 0
M  V30 3514 C 360.088 -2.24066 -0.69511 0
M  V30 3515 C 361.104 -1.24939 -1.21104 0
M  V30 3516 O 362.28 -1.5776 -1.25195 0
M  V30 3517 C 359.345 -2.90983 -1.88493 0
M  V30 3518 C 358.406 -4.05462 -1.41064 0
M  V30 3519 C 357.639 -4.69179 -2.54375 0
M  V30 3520 O 357.862 -4.31895 -3.72589 0
M  V30 3521 O 356.796 -5.58108 -2.25386 0
M  V30 3522 H 360.622 -3.03353 -0.145149 0
M  V30 3523 H 358.207 -1.49399 -0.00569476 0
M  V30 3524 H 360.089 -3.33209 -2.57972 0
M  V30 3525 H 358.764 -2.14653 -2.42293 0
M  V30 3526 H 357.671 -3.67798 -0.683774 0
M  V30 3527 H 359.004 -4.83545 -0.918985 0
M  V30 3528 N 360.656 0.0484629 -1.57525 0
M  V30 3529 C 361.902 0.744226 -1.88651 0
M  V30 3530 C 362.235 1.76029 -0.820212 0
M  V30 3531 O 361.51 1.93782 0.166985 0
M  V30 3532 C 361.793 1.43128 -3.30434 0
M  V30 3533 C 361.646 0.43005 -4.47739 0
M  V30 3534 C 362.965 2.37031 -3.70816 0
M  V30 3535 H 360.084 0.269089 -0.68612 0
M  V30 3536 H 362.726 0.00713532 -1.89999 0
M  V30 3537 H 360.876 2.05956 -3.29415 0
M  V30 3538 H 362.548 -0.194816 -4.60888 0
M  V30 3539 H 360.791 -0.252522 -4.33064 0
M  V30 3540 H 361.462 0.948874 -5.43783 0
M  V30 3541 H 363.938 1.84263 -3.73077 0
M  V30 3542 H 362.814 2.82094 -4.70865 0
M  V30 3543 H 363.075 3.22864 -3.02012 0
M  V30 3544 N 362.134 1.5431 0.320358 0
M  V30 3545 C 363.359 1.76954 1.08175 0
M  V30 3546 C 363.784 0.518193 1.80821 0
M  V30 3547 O 363.142 -0.530411 1.73368 0
M  V30 3548 C 363.19 2.96451 2.05303 0
M  V30 3549 O 362.294 2.68221 3.13259 0
M  V30 3550 H 361.635 0.586275 0.311733 0
M  V30 3551 H 364.165 2.01342 0.363676 0
M  V30 3552 H 364.175 3.23887 2.48116 0
M  V30 3553 H 362.85 3.87196 1.51829 0
M  V30 3554 H 361.427 2.51744 2.75099 0
M  V30 3555 N 363.613 -0.582584 1.46437 0
M  V30 3556 C 364.841 -1.36682 1.55324 0
M  V30 3557 C 365.256 -1.87796 0.194409 0
M  V30 3558 O 364.613 -1.63623 -0.808318 0
M  V30 3559 C 364.664 -2.55426 2.55812 0
M  V30 3560 O 364.385 -2.0643 3.86417 0
M  V30 3561 C 365.886 -3.47976 2.74641 0
M  V30 3562 H 363.106 -0.417545 0.525259 0
M  V30 3563 H 365.65 -0.708219 1.91845 0
M  V30 3564 H 363.805 -3.17275 2.22295 0
M  V30 3565 H 364.219 -2.83762 4.41111 0
M  V30 3566 H 365.693 -4.27775 3.48874 0
M  V30 3567 H 366.17 -3.99919 1.81553 0
M  V30 3568 H 366.776 -2.91962 3.09255 0
M  V30 3569 N 365.091 -1.34144 -0.827227 0
M  V30 3570 C 366.338 -1.26258 -1.58319 0
M  V30 3571 C 366.666 0.168595 -1.93768 0
M  V30 3572 O 365.921 1.12877 -1.59866 0
M  V30 3573 C 366.22 -2.09464 -2.89585 0
M  V30 3574 C 365.886 -3.58521 -2.73448 0
M  V30 3575 C 364.548 -3.99155 -2.68754 0
M  V30 3576 C 366.9 -4.53189 -2.57428 0
M  V30 3577 C 364.228 -5.32656 -2.45957 0
M  V30 3578 C 366.58 -5.86864 -2.36163 0
M  V30 3579 C 365.244 -6.26667 -2.29879 0
M  V30 3580 H 364.514 -0.462013 -0.579332 0
M  V30 3581 H 367.161 -1.65845 -0.95748 0
M  V30 3582 H 365.466 -1.62692 -3.56425 0
M  V30 3583 H 367.163 -2.00712 -3.47154 0
M  V30 3584 H 363.753 -3.26264 -2.77939 0
M  V30 3585 H 367.937 -4.22696 -2.60081 0
M  V30 3586 H 363.193 -5.62519 -2.39546 0
M  V30 3587 H 367.367 -6.59813 -2.22754 0
M  V30 3588 H 364.994 -7.30049 -2.11975 0
M  V30 3589 N 366.569 1.04691 -1.17803 0
M  V30 3590 C 367.532 2.10724 -0.901545 0
M  V30 3591 C 368.532 1.6042 0.110437 0
M  V30 3592 O 369.722 1.7377 -0.122303 0
M  V30 3593 C 366.854 3.39084 -0.351409 0
M  V30 3594 H 368.047 2.36686 -1.84174 0
M  V30 3595 H 365.6 1.21015 -0.98919 0
M  V30 3596 H 366.335 3.18782 0.59569 0
M  V30 3597 H 366.12 3.76909 -1.08083 0
M  V30 3598 H 367.61 4.17227 -0.176451 0
M  V30 3599 N 368.047 0.979072 1.23499 0
M  V30 3600 C 369.272 0.664845 1.96455 0
M  V30 3601 C 369.697 -0.761287 1.72006 0
M  V30 3602 O 369.055 -1.51837 0.990713 0
M  V30 3603 C 369.103 0.959479 3.47601 0
M  V30 3604 O 368.207 0.0508168 4.12369 0
M  V30 3605 H 367.548 0.250185 0.615064 0
M  V30 3606 H 370.078 1.31231 1.5697 0
M  V30 3607 H 370.088 0.895642 3.98048 0
M  V30 3608 H 368.763 1.99876 3.64723 0
M  V30 3609 H 367.34 0.16895 3.72517 0
M  V30 3610 N 369.525 -1.3858 0.750561 0
M  V30 3611 C 370.488 -2.28836 0.129152 0
M  V30 3612 C 371.488 -1.47045 -0.650714 0
M  V30 3613 O 372.678 -1.6753 -0.477428 0
M  V30 3614 C 369.81 -3.30751 -0.825622 0
M  V30 3615 H 371.003 -2.85294 0.924516 0
M  V30 3616 H 368.556 -1.47489 0.517376 0
M  V30 3617 H 369.291 -2.79378 -1.64677 0
M  V30 3618 H 369.076 -3.91177 -0.268852 0
M  V30 3619 H 370.566 -3.98249 -1.2565 0
M  V30 3620 N 371.003 -0.499398 -1.49478 0
M  V30 3621 C 372.252 0.0475259 -2.01644 0
M  V30 3622 C 372.565 1.38195 -1.38425 0
M  V30 3623 O 373.771 2.01547 -1.8191 0
M  V30 3624 C 372.227 0.135164 -3.59646 0
M  V30 3625 C 371.835 -1.19252 -4.31837 0
M  V30 3626 C 373.579 0.632538 -4.19761 0
M  V30 3627 C 371.486 -1.06713 -5.81693 0
M  V30 3628 H 370.416 0.0215349 -0.753692 0
M  V30 3629 H 373.067 -0.638577 -1.7203 0
M  V30 3630 H 371.449 0.885681 -3.85969 0
M  V30 3631 H 372.623 -1.9562 -4.17216 0
M  V30 3632 H 370.938 -1.62321 -3.83459 0
M  V30 3633 H 373.535 0.743833 -5.29501 0
M  V30 3634 H 373.878 1.63098 -3.83021 0
M  V30 3635 H 374.411 -0.0613987 -3.97753 0
M  V30 3636 H 371.15 -2.03979 -6.22955 0
M  V30 3637 H 370.67 -0.344307 -5.98811 0
M  V30 3638 H 372.349 -0.745208 -6.42694 0
M  V30 3639 N 372.481 1.55866 -0.233164 0
M  V30 3640 C 373.444 2.1953 0.658715 0
M  V30 3641 C 374.444 1.16053 1.11303 0
M  V30 3642 O 375.634 1.41218 1.01996 0
M  V30 3643 C 372.766 2.82791 1.90373 0
M  V30 3644 H 373.959 2.99721 0.10347 0
M  V30 3645 H 371.512 1.56291 0.0164245 0
M  V30 3646 H 372.247 2.06501 2.50056 0
M  V30 3647 H 372.032 3.58578 1.58632 0
M  V30 3648 H 373.522 3.31556 2.53891 0
M  V30 3649 N 373.959 -0.0401083 1.57549 0
M  V30 3650 C 375.184 -0.748931 1.93406 0
M  V30 3651 C 375.609 -1.68686 0.832274 0
M  V30 3652 O 374.967 -1.80047 -0.212818 0
M  V30 3653 C 375.015 -1.4916 3.28304 0
M  V30 3654 O 374.119 -2.6042 3.19774 0
M  V30 3655 H 373.46 -0.202212 0.63246 0
M  V30 3656 H 375.99 0.00112086 2.046 0
M  V30 3657 H 376 -1.86395 3.62934 0
M  V30 3658 H 374.675 -0.80364 4.08062 0
M  V30 3659 H 373.252 -2.25808 2.96758 0
M  V30 3660 N 375.437 -1.54477 -0.31217 0
M  V30 3661 C 376.4 -1.83923 -1.36766 0
M  V30 3662 C 377.4 -0.711563 -1.44199 0
M  V30 3663 O 378.59 -0.979866 -1.44029 0
M  V30 3664 C 375.722 -2.0095 -2.75376 0
M  V30 3665 H 376.915 -2.78239 -1.11906 0
M  V30 3666 H 374.468 -1.46369 -0.548257 0
M  V30 3667 H 375.203 -1.08883 -3.05475 0
M  V30 3668 H 374.988 -2.83018 -2.71373 0
M  V30 3669 H 376.478 -2.2514 -3.51713 0
M  V30 3670 N 376.915 0.57481 -1.46744 0
M  V30 3671 C 377.878 1.66533 -1.57478 0
M  V30 3672 C 378.878 1.54338 -0.451263 0
M  V30 3673 O 380.068 1.58814 -0.715813 0
M  V30 3674 C 377.2 3.05999 -1.50259 0
M  V30 3675 H 378.393 1.58372 -2.54673 0
M  V30 3676 H 375.946 0.793301 -1.34672 0
M  V30 3677 H 376.681 3.19709 -0.543725 0
M  V30 3678 H 376.466 3.16259 -2.31781 0
M  V30 3679 H 377.956 3.8537 -1.60872 0
M  V30 3680 N 378.394 1.34581 0.820102 0
M  V30 3681 C 379.81 1.14325 1.11364 0
M  V30 3682 C 380.01 -0.0533648 2.01429 0
M  V30 3683 O 379.066 -0.728044 2.41776 0
M  V30 3684 C 380.379 2.43983 1.75764 0
M  V30 3685 C 381.927 2.50065 1.88246 0
M  V30 3686 C 382.402 3.79732 2.56061 0
M  V30 3687 N 383.893 3.80908 2.63558 0
M  V30 3688 C 384.628 4.77961 3.16766 0
M  V30 3689 N 384.124 5.85397 3.70517 0
M  V30 3690 N 385.917 4.65413 3.15194 0
M  V30 3691 H 378.068 2.11246 0.221096 0
M  V30 3692 H 380.331 0.934289 0.160649 0
M  V30 3693 H 380.037 3.31651 1.1705 0
M  V30 3694 H 379.911 2.57531 2.75604 0
M  V30 3695 H 382.298 1.62834 2.46108 0
M  V30 3696 H 382.379 2.40442 0.873006 0
M  V30 3697 H 382.023 4.67354 1.98853 0
M  V30 3698 H 381.953 3.86639 3.57516 0
M  V30 3699 H 384.444 3.03274 2.25463 0
M  V30 3700 H 384.757 6.55463 4.09376 0
M  V30 3701 H 383.102 5.89107 3.68752 0
M  V30 3702 H 386.293 3.80627 2.72471 0
M  V30 3703 H 386.466 5.41216 3.56356 0
M  V30 3704 N 379.872 -1.04064 1.18357 0
M  V30 3705 C 381.1 -1.80916 1.00384 0
M  V30 3706 C 381.515 -1.83414 -0.447738 0
M  V30 3707 O 380.872 -1.26962 -1.31099 0
M  V30 3708 C 380.923 -3.26516 1.55144 0
M  V30 3709 O 380.644 -3.2424 2.94618 0
M  V30 3710 C 382.145 -4.20013 1.41789 0
M  V30 3711 H 379.365 -0.569728 0.354474 0
M  V30 3712 H 381.909 -1.31151 1.56906 0
M  V30 3713 H 380.064 -3.73512 1.02798 0
M  V30 3714 H 380.478 -4.15452 3.20156 0
M  V30 3715 H 381.952 -5.20111 1.84901 0
M  V30 3716 H 382.429 -4.37667 0.36661 0
M  V30 3717 H 383.035 -3.78881 1.93207 0
M  V30 3718 N 381.35 -0.985608 -1.22978 0
M  V30 3719 C 382.28 -0.549649 -2.26939 0
M  V30 3720 C 383.261 0.419803 -1.64838 0
M  V30 3721 O 384.446 0.31203 -1.91677 0
M  V30 3722 C 381.576 0.143652 -3.47003 0
M  V30 3723 C 380.53 -0.743606 -4.21491 0
M  V30 3724 C 379.856 0.0822027 -5.34637 0
M  V30 3725 C 381.156 -2.03694 -4.80943 0
M  V30 3726 H 382.85 -1.41862 -2.63658 0
M  V30 3727 H 380.396 -0.683571 -1.26741 0
M  V30 3728 H 382.349 0.459985 -4.18882 0
M  V30 3729 H 381.073 1.04711 -3.09359 0
M  V30 3730 H 379.732 -1.04347 -3.51436 0
M  V30 3731 H 379.38 0.986359 -4.93234 0
M  V30 3732 H 379.08 -0.508377 -5.85397 0
M  V30 3733 H 380.604 0.392797 -6.09335 0
M  V30 3734 H 382.018 -1.78504 -5.44802 0
M  V30 3735 H 380.415 -2.57573 -5.42011 0
M  V30 3736 H 381.485 -2.72042 -4.01399 0
M  V30 3737 O 382.867 1.34428 -0.895061 0
M  V30 3738 H 383.558 1.87018 -0.504368 0
M  V30 END ATOM
M  V30 BEGIN BOND
M  V30 END BOND
M  V30 END CTAB
M  END
$$$$
