5284592
  -OEChem-10051719163D

 63 65  0     1  0  0  0  0  0999 V2000
   -1.4225   -0.3203   -2.1181 O   0  0  0  0  0  0  0  0  0  0  0  0
   -5.1989    1.1389    2.7867 O   0  0  0  0  0  0  0  0  0  0  0  0
   -0.7808   -0.2158    2.7113 O   0  0  0  0  0  0  0  0  0  0  0  0
   -3.4139    0.3127   -0.8245 C   0  0  2  0  0  0  0  0  0  0  0  0
   -2.5893    0.4371    0.4797 C   0  0  1  0  0  0  0  0  0  0  0  0
   -2.5261    0.6075   -2.0615 C   0  0  0  0  0  0  0  0  0  0  0  0
   -4.6782    1.1844   -0.7182 C   0  0  0  0  0  0  0  0  0  0  0  0
   -3.4335   -0.0415    1.6725 C   0  0  0  0  0  0  0  0  0  0  0  0
   -1.2682   -0.2864    0.3260 C   0  0  0  0  0  0  0  0  0  0  0  0
   -5.5542    0.7534    0.4514 C   0  0  0  0  0  0  0  0  0  0  0  0
   -0.7778   -0.6099   -0.9465 C   0  0  0  0  0  0  0  0  0  0  0  0
   -4.7529    0.6972    1.7284 C   0  0  0  0  0  0  0  0  0  0  0  0
   -3.3058    0.3503   -3.3638 C   0  0  0  0  0  0  0  0  0  0  0  0
   -1.9631    2.0375   -2.1206 C   0  0  0  0  0  0  0  0  0  0  0  0
   -0.4722   -0.6007    1.4404 C   0  0  0  0  0  0  0  0  0  0  0  0
    2.5031   -2.3205   -0.1371 C   0  0  0  0  0  0  0  0  0  0  0  0
    1.2014   -1.6122    0.0252 C   0  0  0  0  0  0  0  0  0  0  0  0
    0.4404   -1.2842   -1.0930 C   0  0  0  0  0  0  0  0  0  0  0  0
    0.7484   -1.2631    1.2923 C   0  0  0  0  0  0  0  0  0  0  0  0
    3.7138   -1.5426    0.5180 C   0  0  0  0  0  0  0  0  0  0  0  0
    2.9147   -2.6458   -1.6150 C   0  0  0  0  0  0  0  0  0  0  0  0
    2.4445   -3.7168    0.5691 C   0  0  0  0  0  0  0  0  0  0  0  0
    3.9819   -0.1597   -0.0963 C   0  0  0  0  0  0  0  0  0  0  0  0
    5.1892    0.5526    0.5256 C   0  0  0  0  0  0  0  0  0  0  0  0
    5.4471    1.9410   -0.0645 C   0  0  0  0  0  0  0  0  0  0  0  0
    6.6551    2.6070    0.5958 C   0  0  0  0  0  0  0  0  0  0  0  0
    6.8978    4.0000    0.0368 C   0  0  0  0  0  0  0  0  0  0  0  0
   -3.7371   -0.7375   -0.9088 H   0  0  0  0  0  0  0  0  0  0  0  0
   -2.3521    1.4975    0.6462 H   0  0  0  0  0  0  0  0  0  0  0  0
   -5.2766    1.1208   -1.6323 H   0  0  0  0  0  0  0  0  0  0  0  0
   -4.3982    2.2366   -0.5871 H   0  0  0  0  0  0  0  0  0  0  0  0
   -2.9551    0.1582    2.6325 H   0  0  0  0  0  0  0  0  0  0  0  0
   -3.6415   -1.1161    1.6144 H   0  0  0  0  0  0  0  0  0  0  0  0
   -5.9812   -0.2397    0.2743 H   0  0  0  0  0  0  0  0  0  0  0  0
   -6.3798    1.4617    0.5771 H   0  0  0  0  0  0  0  0  0  0  0  0
   -2.6367    0.3928   -4.2318 H   0  0  0  0  0  0  0  0  0  0  0  0
   -3.7423   -0.6551   -3.3643 H   0  0  0  0  0  0  0  0  0  0  0  0
   -4.1063    1.0787   -3.5226 H   0  0  0  0  0  0  0  0  0  0  0  0
   -1.3259    2.2665   -1.2608 H   0  0  0  0  0  0  0  0  0  0  0  0
   -1.3244    2.1609   -3.0035 H   0  0  0  0  0  0  0  0  0  0  0  0
   -2.7577    2.7880   -2.1707 H   0  0  0  0  0  0  0  0  0  0  0  0
    0.7575   -1.5254   -2.1026 H   0  0  0  0  0  0  0  0  0  0  0  0
    1.3437   -1.4938    2.1719 H   0  0  0  0  0  0  0  0  0  0  0  0
    3.5509   -1.4234    1.5964 H   0  0  0  0  0  0  0  0  0  0  0  0
    4.6250   -2.1481    0.4195 H   0  0  0  0  0  0  0  0  0  0  0  0
    2.9745   -1.7491   -2.2401 H   0  0  0  0  0  0  0  0  0  0  0  0
    2.1988   -3.3322   -2.0835 H   0  0  0  0  0  0  0  0  0  0  0  0
    3.8965   -3.1331   -1.6513 H   0  0  0  0  0  0  0  0  0  0  0  0
    2.2849   -3.6215    1.6490 H   0  0  0  0  0  0  0  0  0  0  0  0
    1.6244   -4.3240    0.1672 H   0  0  0  0  0  0  0  0  0  0  0  0
    3.3770   -4.2754    0.4270 H   0  0  0  0  0  0  0  0  0  0  0  0
    4.1633   -0.2522   -1.1720 H   0  0  0  0  0  0  0  0  0  0  0  0
    3.0976    0.4765    0.0252 H   0  0  0  0  0  0  0  0  0  0  0  0
   -0.0968   -0.5221    3.3305 H   0  0  0  0  0  0  0  0  0  0  0  0
    6.0816   -0.0707    0.3885 H   0  0  0  0  0  0  0  0  0  0  0  0
    5.0299    0.6444    1.6072 H   0  0  0  0  0  0  0  0  0  0  0  0
    5.6165    1.8553   -1.1446 H   0  0  0  0  0  0  0  0  0  0  0  0
    4.5578    2.5674    0.0750 H   0  0  0  0  0  0  0  0  0  0  0  0
    6.4962    2.6782    1.6781 H   0  0  0  0  0  0  0  0  0  0  0  0
    7.5503    1.9942    0.4385 H   0  0  0  0  0  0  0  0  0  0  0  0
    7.7661    4.4571    0.5216 H   0  0  0  0  0  0  0  0  0  0  0  0
    7.0906    3.9623   -1.0401 H   0  0  0  0  0  0  0  0  0  0  0  0
    6.0324    4.6480    0.2087 H   0  0  0  0  0  0  0  0  0  0  0  0
  1  6  1  0  0  0  0
  1 11  1  0  0  0  0
  2 12  2  0  0  0  0
  3 15  1  0  0  0  0
  3 54  1  0  0  0  0
  4  5  1  0  0  0  0
  4  6  1  0  0  0  0
  4  7  1  0  0  0  0
  4 28  1  0  0  0  0
  5  8  1  0  0  0  0
  5  9  1  0  0  0  0
  5 29  1  0  0  0  0
  6 13  1  0  0  0  0
  6 14  1  0  0  0  0
  7 10  1  0  0  0  0
  7 30  1  0  0  0  0
  7 31  1  0  0  0  0
  8 12  1  0  0  0  0
  8 32  1  0  0  0  0
  8 33  1  0  0  0  0
  9 11  1  0  0  0  0
  9 15  2  0  0  0  0
 10 12  1  0  0  0  0
 10 34  1  0  0  0  0
 10 35  1  0  0  0  0
 11 18  2  0  0  0  0
 13 36  1  0  0  0  0
 13 37  1  0  0  0  0
 13 38  1  0  0  0  0
 14 39  1  0  0  0  0
 14 40  1  0  0  0  0
 14 41  1  0  0  0  0
 15 19  1  0  0  0  0
 16 17  1  0  0  0  0
 16 20  1  0  0  0  0
 16 21  1  0  0  0  0
 16 22  1  0  0  0  0
 17 18  1  0  0  0  0
 17 19  2  0  0  0  0
 18 42  1  0  0  0  0
 19 43  1  0  0  0  0
 20 23  1  0  0  0  0
 20 44  1  0  0  0  0
 20 45  1  0  0  0  0
 21 46  1  0  0  0  0
 21 47  1  0  0  0  0
 21 48  1  0  0  0  0
 22 49  1  0  0  0  0
 22 50  1  0  0  0  0
 22 51  1  0  0  0  0
 23 24  1  0  0  0  0
 23 52  1  0  0  0  0
 23 53  1  0  0  0  0
 24 25  1  0  0  0  0
 24 55  1  0  0  0  0
 24 56  1  0  0  0  0
 25 26  1  0  0  0  0
 25 57  1  0  0  0  0
 25 58  1  0  0  0  0
 26 27  1  0  0  0  0
 26 59  1  0  0  0  0
 26 60  1  0  0  0  0
 27 61  1  0  0  0  0
 27 62  1  0  0  0  0
 27 63  1  0  0  0  0
M  END
> <DATABASE_ID>
DB00486

> <DATABASE_NAME>
drugbank

> <ORIGINAL_SOURCE>
PUBCHEM

> <ORIGINAL_SOURCE_URL>
https://pubchem.ncbi.nlm.nih.gov/rest/pug/compound/inchikey/GECBBEABIDMGGL-RTBURBONSA-N/SDF?record_type=3d

> <SMILES>
[H][C@@]12CC(=O)CC[C@@]1([H])C(C)(C)OC1=CC(=CC(O)=C21)C(C)(C)CCCCCC

> <INCHI_IDENTIFIER>
InChI=1S/C24H36O3/c1-6-7-8-9-12-23(2,3)16-13-20(26)22-18-15-17(25)10-11-19(18)24(4,5)27-21(22)14-16/h13-14,18-19,26H,6-12,15H2,1-5H3/t18-,19-/m1/s1

> <INCHI_KEY>
GECBBEABIDMGGL-RTBURBONSA-N

> <FORMULA>
C24H36O3

> <MOLECULAR_WEIGHT>
372.5408

> <EXACT_MASS>
372.266445018

> <JCHEM_ACCEPTOR_COUNT>
3

> <JCHEM_AVERAGE_POLARIZABILITY>
44.91217962640465

> <JCHEM_BIOAVAILABILITY>
1

> <JCHEM_DONOR_COUNT>
1

> <JCHEM_FORMAL_CHARGE>
0

> <JCHEM_GHOSE_FILTER>
0

> <JCHEM_IUPAC>
(6aR,10aR)-1-hydroxy-6,6-dimethyl-3-(2-methyloctan-2-yl)-6H,6aH,7H,8H,9H,10H,10aH-benzo[c]isochromen-9-one

> <ALOGPS_LOGP>
7.50

> <JCHEM_LOGP>
6.359703313333332

> <ALOGPS_LOGS>
-5.88

> <JCHEM_MDDR_LIKE_RULE>
1

> <JCHEM_NUMBER_OF_RINGS>
3

> <JCHEM_PHYSIOLOGICAL_CHARGE>
0

> <JCHEM_PKA>
19.57023531728457

> <JCHEM_PKA_STRONGEST_ACIDIC>
9.32819225594924

> <JCHEM_PKA_STRONGEST_BASIC>
-4.890939401546244

> <JCHEM_POLAR_SURFACE_AREA>
46.53

> <JCHEM_REFRACTIVITY>
110.20200000000001

> <JCHEM_ROTATABLE_BOND_COUNT>
6

> <JCHEM_RULE_OF_FIVE>
0

> <ALOGPS_SOLUBILITY>
4.93e-04 g/l

> <JCHEM_TRADITIONAL_IUPAC>
nabilone

> <JCHEM_VEBER_RULE>
0

> <DRUGBANK_ID>
DB00486

> <SECONDARY_ACCESSION_NUMBERS>
APRD01127

> <DRUG_GROUPS>
approved; investigational

> <GENERIC_NAME>
Nabilone

> <SYNONYMS>
Nabilon; Nabilona; Nabilone; Nabilonum

> <PRODUCTS>
Act Nabilone; Apo-nabilone; Cesamet; PMS-nabilone; Ran-nabilone; Teva-nabilone

> <INTERNATIONAL_BRANDS>
Nabilone

$$$$