drugbank_target|P34972 Cannabinoid receptor 2 (DB00470; DB00486; DB02955; DB06202; DB09061; DB11755; DB14009; DB14011)
 OpenBabel12092119243D

  0  0  0     0  0            999 V3000
M  V30 BEGIN CTAB
M  V30 COUNTS 5640 5708 0 0 0
M  V30 BEGIN ATOM
M  V30 1 H -0.908 1.98254 -0.117106 0
M  V30 2 N 0 1.576 0 0
M  V30 3 C 0.933 2.03868 1.02534 0
M  V30 4 C 1.911 0.928543 1.3348 0
M  V30 5 O 3.095 1.19667 1.45644 0
M  V30 6 C 0.222 2.43627 2.35294 0
M  V30 7 C -0.732 3.65373 2.2001 0
M  V30 8 S 0.101 5.13292 1.52614 0
M  V30 9 C 1.257 5.56322 2.86805 0
M  V30 10 H 1.49 2.90518 0.631377 0
M  V30 11 H -0.977 1.52953 0.210867 0
M  V30 12 H 0.981 2.67203 3.11629 0
M  V30 13 H -0.358 1.57376 2.7183 0
M  V30 14 H -1.165 3.90944 3.18086 0
M  V30 15 H -1.563 3.418 1.51819 0
M  V30 16 H 0.729 5.58782 3.83104 0
M  V30 17 H 1.672 6.56266 2.65933 0
M  V30 18 H 2.08 4.83886 2.90714 0
M  V30 19 N 1.4781 -0.272755 1.55222 0
M  V30 20 C 2.3881 -1.35918 1.91216 0
M  V30 21 C 3.4041 -1.54026 0.809436 0
M  V30 22 O 4.5801 -1.68148 1.10852 0
M  V30 23 C 1.6451 -2.69834 2.17693 0
M  V30 24 C 0.7061 -2.6047 3.41253 0
M  V30 25 C -0.0609 -3.88 3.66458 0
M  V30 26 O 0.1621 -4.88693 2.94169 0
M  V30 27 O -0.9039 -3.88189 4.59992 0
M  V30 28 H 2.9221 -1.0839 2.83699 0
M  V30 29 H 0.5071 -0.471301 1.41771 0
M  V30 30 H 2.3891 -3.49017 2.36147 0
M  V30 31 H 1.0641 -2.97148 1.28392 0
M  V30 32 H -0.0289 -1.79663 3.28134 0
M  V30 33 H 1.3041 -2.38106 4.30774 0
M  V30 34 N 2.9562 -1.48159 -0.537278 0
M  V30 35 C 3.8662 -1.64807 -1.6696 0
M  V30 36 C 4.8822 -0.530651 -1.65711 0
M  V30 37 O 6.0582 -0.800784 -1.84796 0
M  V30 38 C 3.1232 -1.67708 -3.03438 0
M  V30 39 C 2.1842 -2.91025 -3.156 0
M  V30 40 C 1.4172 -2.93778 -4.45567 0
M  V30 41 O 1.6402 -2.05153 -5.3223 0
M  V30 42 O 0.5742 -3.85868 -4.61941 0
M  V30 43 H 4.4002 -2.6066 -1.55853 0
M  V30 44 H 1.9852 -1.31475 -0.709549 0
M  V30 45 H 3.8672 -1.7218 -3.84619 0
M  V30 46 H 2.5422 -0.750278 -3.14885 0
M  V30 47 H 1.4492 -2.92089 -2.33741 0
M  V30 48 H 2.7822 -3.83065 -3.09066 0
M  V30 49 N 4.4343 0.785586 -1.36625 0
M  V30 50 C 5.6743 1.55678 -1.32453 0
M  V30 51 C 6.0383 1.91769 0.0941089 0
M  V30 52 O 7.2393 2.67536 0.26042 0
M  V30 53 C 5.5103 2.79701 -2.22491 0
M  V30 54 S 7.0693 3.69907 -2.36038 0
M  V30 55 H 3.8873 0.533141 -0.470405 0
M  V30 56 H 6.4893 0.924953 -1.72235 0
M  V30 57 H 5.1933 2.51244 -3.24507 0
M  V30 58 H 4.7243 3.47854 -1.83742 0
M  V30 59 H 6.7393 4.71016 -1.56072 0
M  V30 60 N 5.9124 1.20967 1.01018 0
M  V30 61 C 7.1584 1.0353 1.7508 0
M  V30 62 C 7.5134 -0.42734 1.87594 0
M  V30 63 O 6.8064 -1.31298 1.3954 0
M  V30 64 C 7.0004 1.65997 3.16512 0
M  V30 65 C 6.8294 3.18184 3.17788 0
M  V30 66 C 5.5994 3.87198 3.24662 0
M  V30 67 C 7.7974 4.15334 3.03319 0
M  V30 68 N 5.7794 5.26618 3.15509 0
M  V30 69 C 7.1504 5.41472 3.02007 0
M  V30 70 C 9.2054 4.06449 2.87583 0
M  V30 71 C 7.9084 6.5975 2.86571 0
M  V30 72 C 9.9344 5.24357 2.73503 0
M  V30 73 C 9.2964 6.49404 2.72862 0
M  V30 74 H 5.3954 0.433137 0.651089 0
M  V30 75 H 7.9794 1.5324 1.20107 0
M  V30 76 H 6.1504 1.18863 3.69765 0
M  V30 77 H 7.8824 1.41816 3.79039 0
M  V30 78 H 4.6374 3.38093 3.31648 0
M  V30 79 H 5.0614 5.99626 3.14289 0
M  V30 80 H 9.7034 3.10573 2.86887 0
M  V30 81 H 7.4214 7.55792 2.86015 0
M  V30 82 H 11.0074 5.19299 2.62334 0
M  V30 83 H 9.8874 7.39105 2.62093 0
M  V30 84 N 7.3905 -1.2043 1.01659 0
M  V30 85 C 8.6365 -1.90079 0.706963 0
M  V30 86 C 8.9695 -1.78648 -0.761474 0
M  V30 87 O 8.2445 -1.17069 -1.55323 0
M  V30 88 C 8.5275 -3.41469 1.14327 0
M  V30 89 C 8.3805 -3.61833 2.67201 0
M  V30 90 C 9.6995 -4.34261 0.714529 0
M  V30 91 H 6.8185 -0.690254 0.2583 0
M  V30 92 H 9.4605 -1.41826 1.26433 0
M  V30 93 H 7.6105 -3.82696 0.669056 0
M  V30 94 H 9.2825 -3.2986 3.22475 0
M  V30 95 H 7.5255 -3.05304 3.08175 0
M  V30 96 H 8.1965 -4.67955 2.92783 0
M  V30 97 H 10.6725 -4.00682 1.12221 0
M  V30 98 H 9.5485 -5.38806 1.04784 0
M  V30 99 H 9.8095 -4.40431 -0.383799 0
M  V30 100 N 8.8686 -0.792821 -1.36206 0
M  V30 101 C 10.0966 -0.378825 -2.03402 0
M  V30 102 C 10.5116 1.00586 -1.59774 0
M  V30 103 O 9.8686 1.64574 -0.788764 0
M  V30 104 C 9.9196 -0.43683 -3.58851 0
M  V30 105 O 9.6406 -1.76691 -4.00889 0
M  V30 106 C 11.1416 -0.0138943 -4.43298 0
M  V30 107 H 8.3616 -0.155673 -0.652692 0
M  V30 108 H 10.9056 -1.07261 -1.74113 0
M  V30 109 H 9.0606 0.208575 -3.86838 0
M  V30 110 H 9.4746 -1.72011 -4.95492 0
M  V30 111 H 10.9486 -0.105615 -5.51899 0
M  V30 112 H 11.4256 1.03915 -4.2673 0
M  V30 113 H 12.0316 -0.63192 -4.20579 0
M  V30 114 N 10.3467 1.47872 -0.545128 0
M  V30 115 C 11.2567 2.33633 0.212746 0
M  V30 116 C 12.2727 1.4744 0.923983 0
M  V30 117 O 13.4487 1.80393 0.895572 0
M  V30 118 C 10.5137 3.23884 1.23693 0
M  V30 119 C 9.5747 4.25961 0.534417 0
M  V30 120 C 8.8077 5.11899 1.5098 0
M  V30 121 O 9.0307 5.00077 2.7437 0
M  V30 122 O 7.9647 5.92831 1.0409 0
M  V30 123 H 11.7907 2.99714 -0.490416 0
M  V30 124 H 9.3757 1.46235 -0.305871 0
M  V30 125 H 11.2577 3.79666 1.82843 0
M  V30 126 H 9.9327 2.60446 1.92222 0
M  V30 127 H 8.8397 3.73972 -0.0979679 0
M  V30 128 H 10.1727 4.92079 -0.109213 0
M  V30 129 N 11.8248 0.280983 1.55075 0
M  V30 130 C 13.0738 -0.334784 1.98902 0
M  V30 131 C 13.3868 -1.56534 1.17288 0
M  V30 132 O 14.5928 -2.25443 1.51287 0
M  V30 133 C 13.0488 -0.646994 3.54037 0
M  V30 134 C 12.6568 0.564085 4.44435 0
M  V30 135 C 14.4008 -1.22506 4.06439 0
M  V30 136 C 12.3078 0.226137 5.90967 0
M  V30 137 H 11.2378 -0.128866 0.742906 0
M  V30 138 H 13.8888 0.386556 1.79382 0
M  V30 139 H 12.2708 -1.42739 3.6938 0
M  V30 140 H 13.4448 1.34082 4.40861 0
M  V30 141 H 11.7598 1.0594 4.02698 0
M  V30 142 H 14.3568 -1.49182 5.13468 0
M  V30 143 H 14.6998 -2.16085 3.55827 0
M  V30 144 H 15.2328 -0.50682 3.94558 0
M  V30 145 H 11.9718 1.12996 6.45687 0
M  V30 146 H 11.4918 -0.513717 5.97596 0
M  V30 147 H 13.1708 -0.179539 6.46751 0
M  V30 148 N 13.3029 -1.57598 0.00835791 0
M  V30 149 C 14.2659 -2.07884 -0.965242 0
M  V30 150 C 15.2659 -0.989825 -1.26725 0
M  V30 151 O 16.4559 -1.25218 -1.21104 0
M  V30 152 C 13.5879 -2.52731 -2.28779 0
M  V30 153 H 14.7809 -2.95178 -0.530112 0
M  V30 154 H 12.3339 -1.54458 -0.239283 0
M  V30 155 H 13.0689 -1.68705 -2.76964 0
M  V30 156 H 12.8539 -3.32272 -2.08177 0
M  V30 157 H 14.3439 -2.91933 -2.98605 0
M  V30 158 N 14.781 0.264519 -1.55364 0
M  V30 159 C 15.729 1.34702 -1.89626 0
M  V30 160 C 16.723 1.50712 -0.773459 0
M  V30 161 O 17.929 1.52395 -0.957897 0
M  V30 162 H 14.304 0.450682 -0.601988 0
M  V30 163 H 16.275 1.0306 -2.80038 0
M  V30 164 C 15.024 2.6989 -2.19214 0
M  V30 165 H 14.347 2.58365 -3.05103 0
M  V30 166 H 15.787 3.44553 -2.47102 0
M  V30 167 C 14.246 3.21637 -1.00254 0
M  V30 168 O 14.776 4.00973 -0.241501 0
M  V30 169 N 12.982 2.7943 -0.797938 0
M  V30 170 H 12.529 2.15026 -1.4185 0
M  V30 171 H 12.487 3.144 -0.00363422 0
M  V30 172 N 16.2591 1.48442 0.529413 0
M  V30 173 C 17.5071 1.56179 1.28267 0
M  V30 174 C 17.8281 0.237721 1.93546 0
M  V30 175 O 17.0981 -0.740779 1.81354 0
M  V30 176 H 15.6781 0.575367 0.476405 0
M  V30 177 H 18.3401 1.84909 0.61602 0
M  V30 178 H 17.4361 2.34312 2.06165 0
M  V30 179 N 17.7372 -0.778329 1.37039 0
M  V30 180 C 18.9622 -1.57248 1.35233 0
M  V30 181 C 19.3872 -1.87999 -0.0615568 0
M  V30 182 O 18.7452 -1.48734 -1.03672 0
M  V30 183 C 18.7932 -2.86353 2.19167 0
M  V30 184 O 17.8972 -3.80442 1.59178 0
M  V30 185 H 17.2382 -0.476569 0.462362 0
M  V30 186 H 19.7682 -0.963853 1.80474 0
M  V30 187 H 19.7782 -3.35519 2.32145 0
M  V30 188 H 18.4532 -2.63299 3.21942 0
M  V30 189 H 17.0302 -3.39067 1.55203 0
M  V30 190 N 19.2153 -1.21501 -1.00376 0
M  V30 191 C 20.1623 -0.975387 -2.09177 0
M  V30 192 C 21.1323 0.0990615 -1.65804 0
M  V30 193 O 22.3173 -0.0483147 -1.90739 0
M  V30 194 C 19.4573 -0.547507 -3.40729 0
M  V30 195 C 18.5703 -1.69153 -3.97506 0
M  V30 196 C 17.7053 -1.2127 -5.17172 0
M  V30 197 C 16.7443 -2.32897 -5.66061 0
M  V30 198 N 15.8813 -1.86138 -6.76976 0
M  V30 199 H 20.7213 -1.9068 -2.29009 0
M  V30 200 H 18.2583 -0.950257 -1.12288 0
M  V30 201 H 20.2163 -0.280667 -4.16255 0
M  V30 202 H 18.8463 0.346904 -3.20931 0
M  V30 203 H 17.8983 -2.07298 -3.18954 0
M  V30 204 H 19.2103 -2.5316 -4.29781 0
M  V30 205 H 18.3643 -0.902591 -5.99948 0
M  V30 206 H 17.1033 -0.342692 -4.86495 0
M  V30 207 H 16.1083 -2.64709 -4.81881 0
M  V30 208 H 17.3333 -3.20396 -5.98768 0
M  V30 209 H 15.2793 -1.01484 -6.48103 0
M  V30 210 H 15.1963 -2.63717 -7.08512 0
M  V30 211 H 16.4643 -1.58165 -7.63285 0
M  V30 212 N 20.6934 1.19889 -1.02296 0
M  V30 213 C 21.9704 1.85148 -0.630832 0
M  V30 214 C 22.3504 1.91385 0.890782 0
M  V30 215 O 21.6984 1.42642 1.78509 0
M  V30 216 C 21.9084 3.24442 -1.28602 0
M  V30 217 C 23.2564 4.00663 -1.4055 0
M  V30 218 O 24.2804 3.33818 -1.24273 0
M  V30 219 O 23.1394 5.20387 -1.66913 0
M  V30 220 H 20.2334 0.797613 -0.218499 0
M  V30 221 H 22.7794 1.27427 -1.12074 0
M  V30 222 H 21.5514 3.14704 -2.32545 0
M  V30 223 H 21.1744 3.89802 -0.7836 0
M  V30 224 N 22.1715 0.800033 1.35784 0
M  V30 225 C 23.4195 0.376597 1.9856 0
M  V30 226 C 23.7405 -1.05812 1.63795 0
M  V30 227 O 23.0105 -1.73103 0.917171 0
M  V30 228 H 21.5905 0.136261 0.734467 0
M  V30 229 H 24.2525 1.02442 1.65806 0
M  V30 230 H 23.3485 0.477002 3.08433 0
M  V30 231 N 23.6496 -1.47581 0.552962 0
M  V30 232 C 24.5796 -2.32762 -0.185451 0
M  V30 233 C 25.5606 -1.43527 -0.912905 0
M  V30 234 O 26.7456 -1.72388 -0.894201 0
M  V30 235 C 23.8756 -3.25219 -1.21859 0
M  V30 236 C 22.8296 -4.23661 -0.607864 0
M  V30 237 C 22.1556 -5.05413 -1.74533 0
M  V30 238 C 23.4556 -5.20481 0.435582 0
M  V30 239 H 25.1496 -2.94749 0.525684 0
M  V30 240 H 22.6956 -1.41738 0.254251 0
M  V30 241 H 24.6486 -3.8365 -1.7433 0
M  V30 242 H 23.3726 -2.61279 -1.95961 0
M  V30 243 H 22.0316 -3.66451 -0.104489 0
M  V30 244 H 21.6796 -4.3788 -2.47529 0
M  V30 245 H 21.3796 -5.72059 -1.34249 0
M  V30 246 H 22.9036 -5.66701 -2.27338 0
M  V30 247 H 24.3176 -5.733 -0.00290157 0
M  V30 248 H 22.7146 -5.95305 0.757067 0
M  V30 249 H 23.7846 -4.66217 1.33303 0
M  V30 250 N 25.1277 -0.289203 -1.54924 0
M  V30 251 C 26.4047 0.376032 -1.91951 0
M  V30 252 C 26.7847 1.72622 -1.21511 0
M  V30 253 O 26.1327 2.25853 -0.346767 0
M  V30 254 C 26.3427 0.502378 -3.45365 0
M  V30 255 C 27.6907 0.778741 -4.17398 0
M  V30 256 O 28.7147 0.586647 -3.51336 0
M  V30 257 O 27.5737 1.14698 -5.34328 0
M  V30 258 H 24.6677 0.208167 -0.800372 0
M  V30 259 H 27.2137 -0.336394 -1.66332 0
M  V30 260 H 25.9857 -0.447255 -3.88736 0
M  V30 261 H 25.6087 1.26373 -3.76982 0
M  V30 262 N 26.6058 1.57591 -0.0167156 0
M  V30 263 C 27.8308 1.9598 0.67872 0
M  V30 264 C 28.2558 0.892546 1.65575 0
M  V30 265 O 27.6138 -0.147772 1.80697 0
M  V30 266 C 27.6618 3.33468 1.37227 0
M  V30 267 O 26.7658 3.28954 2.48722 0
M  V30 268 H 26.1068 0.639339 0.17928 0
M  V30 269 H 28.6368 2.04463 -0.0748802 0
M  V30 270 H 28.6468 3.69417 1.7319 0
M  V30 271 H 27.3218 4.10694 0.656007 0
M  V30 272 H 25.8988 3.04705 2.14963 0
M  V30 273 N 28.0839 -0.256276 1.55502 0
M  V30 274 C 29.0319 -1.33694 1.90338 0
M  V30 275 C 30.0259 -1.50299 0.781441 0
M  V30 276 O 31.2319 -1.51885 0.965966 0
M  V30 277 H 27.6069 -0.447483 0.60437 0
M  V30 278 H 29.5779 -1.01574 2.8058 0
M  V30 279 C 28.3269 -2.68724 2.20642 0
M  V30 280 H 27.6499 -2.56743 3.06469 0
M  V30 281 H 29.0899 -3.43237 2.48926 0
M  V30 282 C 27.5489 -3.21101 1.01959 0
M  V30 283 O 28.0789 -4.0084 0.262762 0
M  V30 284 N 26.2849 -2.79003 0.812746 0
M  V30 285 H 25.8319 -2.14271 1.42989 0
M  V30 286 H 25.7899 -3.14393 0.0203076 0
M  V30 287 N 29.562 -1.4872 -0.521534 0
M  V30 288 C 30.973 -1.50607 -1.10337 0
M  V30 289 C 31.324 -0.280612 -1.94183 0
M  V30 290 O 30.449 0.611507 -2.0758 0
M  V30 291 C 31.044 -2.72903 -2.00772 0
M  V30 292 C 29.603 -2.77634 -2.54158 0
M  V30 293 C 28.75 -2.44241 -1.31307 0
M  V30 294 H 31.701 -1.55714 -0.306388 0
M  V30 295 H 31.722 -2.519 -2.85178 0
M  V30 296 H 31.234 -3.62077 -1.39721 0
M  V30 297 H 29.335 -1.92689 -3.18907 0
M  V30 298 H 29.448 -3.79283 -2.92714 0
M  V30 299 H 27.812 -1.95577 -1.63161 0
M  V30 300 H 28.595 -3.35666 -0.719943 0
M  V30 301 N 31.0401 0.771051 -1.3745 0
M  V30 302 C 31.9731 1.89166 -1.27638 0
M  V30 303 C 32.9511 1.61842 -0.156782 0
M  V30 304 O 34.1351 1.85569 -0.331111 0
M  V30 305 C 31.2621 3.24405 -0.973621 0
M  V30 306 C 30.3081 3.70638 -2.1102 0
M  V30 307 S 31.1411 3.84228 -3.73 0
M  V30 308 C 32.2971 5.22313 -3.44876 0
M  V30 309 H 32.5301 1.972 -2.22485 0
M  V30 310 H 30.0631 0.932224 -1.23081 0
M  V30 311 H 32.0211 4.02514 -0.805766 0
M  V30 312 H 30.6821 3.14071 -0.0426279 0
M  V30 313 H 29.8751 4.68685 -1.85338 0
M  V30 314 H 29.4771 2.99632 -2.23822 0
M  V30 315 H 31.7691 6.07505 -2.99908 0
M  V30 316 H 32.7121 5.53008 -4.42253 0
M  V30 317 H 33.1201 4.90284 -2.79789 0
M  V30 318 N 32.5182 1.22032 0.997298 0
M  V30 319 C 33.4652 0.986467 2.08656 0
M  V30 320 C 34.4352 -0.0902671 1.65855 0
M  V30 321 O 35.6202 0.0584294 1.90711 0
M  V30 322 C 32.7602 0.565569 3.40434 0
M  V30 323 C 31.8732 1.71259 3.96604 0
M  V30 324 C 31.0082 1.24011 5.16522 0
M  V30 325 C 30.0472 2.35896 5.64818 0
M  V30 326 N 29.1842 1.89726 6.7598 0
M  V30 327 H 34.0242 1.91892 2.27994 0
M  V30 328 H 31.5612 0.956199 1.11782 0
M  V30 329 H 33.5192 0.302738 4.161 0
M  V30 330 H 32.1492 -0.329879 3.2111 0
M  V30 331 H 31.2012 2.08986 3.17851 0
M  V30 332 H 32.5132 2.55436 4.28432 0
M  V30 333 H 31.6672 0.934395 5.99461 0
M  V30 334 H 30.4062 0.368487 4.86306 0
M  V30 335 H 29.4112 2.67261 4.8047 0
M  V30 336 H 30.6362 3.23567 5.97061 0
M  V30 337 H 28.5822 1.0492 6.47555 0
M  V30 338 H 28.4992 2.67471 7.07103 0
M  V30 339 H 29.7672 1.62211 7.62435 0
M  V30 340 N 33.9963 -1.19345 1.0293 0
M  V30 341 C 35.2733 -1.84811 0.640642 0
M  V30 342 C 35.6533 -1.91855 -0.88062 0
M  V30 343 O 35.0013 -1.43587 -1.7775 0
M  V30 344 C 35.2113 -3.23755 1.30321 0
M  V30 345 C 36.5593 -3.99912 1.42673 0
M  V30 346 O 37.5833 -3.33155 1.26041 0
M  V30 347 O 36.4423 -5.19494 1.6967 0
M  V30 348 H 33.5363 -0.796443 0.222726 0
M  V30 349 H 36.0823 -1.26831 1.12748 0
M  V30 350 H 34.8543 -3.13466 2.34211 0
M  V30 351 H 34.4773 -3.89381 0.804261 0
M  V30 352 N 35.4744 -0.807222 -1.35358 0
M  V30 353 C 36.7044 -0.399796 -2.02695 0
M  V30 354 C 37.1124 0.994176 -1.60974 0
M  V30 355 O 36.4554 1.65209 -0.803226 0
M  V30 356 C 36.5174 -0.404445 -3.57218 0
M  V30 357 C 36.1814 -1.74904 -4.22206 0
M  V30 358 C 37.1784 -2.70743 -4.4384 0
M  V30 359 C 34.8634 -2.03322 -4.5931 0
M  V30 360 C 36.8574 -3.93183 -5.01683 0
M  V30 361 C 34.5444 -3.26026 -5.16866 0
M  V30 362 C 35.5424 -4.20774 -5.37994 0
M  V30 363 O 35.2304 -5.41312 -5.94337 0
M  V30 364 H 34.9624 -0.160517 -0.656666 0
M  V30 365 H 37.5164 -1.09235 -1.73945 0
M  V30 366 H 35.7464 0.344707 -3.85161 0
M  V30 367 H 37.4354 -0.0192429 -4.05895 0
M  V30 368 H 38.2014 -2.5008 -4.15554 0
M  V30 369 H 34.0804 -1.30384 -4.42178 0
M  V30 370 H 37.6244 -4.6715 -5.1809 0
M  V30 371 H 33.5214 -3.46559 -5.44579 0
M  V30 372 H 34.2894 -5.42618 -6.12787 0
M  V30 373 N 36.9525 1.47285 -0.560781 0
M  V30 374 C 37.8855 2.27009 0.232821 0
M  V30 375 C 38.8635 1.34273 0.917039 0
M  V30 376 O 40.0475 1.63659 0.935315 0
M  V30 377 C 37.1745 3.11406 1.33206 0
M  V30 378 C 36.2205 4.19746 0.756019 0
M  V30 379 S 37.0535 5.34003 -0.400165 0
M  V30 380 C 38.2095 6.21964 0.700805 0
M  V30 381 H 38.4425 2.93971 -0.443683 0
M  V30 382 H 35.9755 1.50446 -0.347181 0
M  V30 383 H 37.9335 3.60601 1.96156 0
M  V30 384 H 36.5945 2.438 1.98041 0
M  V30 385 H 35.7875 4.78541 1.5816 0
M  V30 386 H 35.3895 3.73451 0.202619 0
M  V30 387 H 37.6815 6.58529 1.59202 0
M  V30 388 H 38.6245 7.07941 0.150126 0
M  V30 389 H 39.0325 5.5566 0.995083 0
M  V30 390 N 38.4306 0.297415 1.54768 0
M  V30 391 C 39.6796 -0.313669 1.99246 0
M  V30 392 C 39.9926 -1.55281 1.18942 0
M  V30 393 O 41.1986 -2.23825 1.5367 0
M  V30 394 C 39.6546 -0.609407 3.54703 0
M  V30 395 C 39.2626 0.611192 4.43811 0
M  V30 396 C 41.0066 -1.18188 4.07715 0
M  V30 397 C 38.9136 0.288805 5.90694 0
M  V30 398 H 37.8436 -0.120979 0.744231 0
M  V30 399 H 40.4946 0.40556 1.78962 0
M  V30 400 H 38.8766 -1.38813 3.70873 0
M  V30 401 H 40.0506 1.3875 4.39414 0
M  V30 402 H 38.3656 1.10205 4.01552 0
M  V30 403 H 40.9626 -1.43727 5.15021 0
M  V30 404 H 41.3056 -2.12299 3.58099 0
M  V30 405 H 41.8386 -0.464944 3.95074 0
M  V30 406 H 38.5776 1.19838 6.44453 0
M  V30 407 H 38.0976 -0.450305 5.98107 0
M  V30 408 H 39.7766 -0.110933 6.46905 0
M  V30 409 N 39.9087 -1.5758 0.0250728 0
M  V30 410 C 40.8387 -2.13007 -0.956575 0
M  V30 411 C 41.8197 -1.0452 -1.342 0
M  V30 412 O 43.0047 -1.32332 -1.42133 0
M  V30 413 C 40.1347 -2.65386 -2.24026 0
M  V30 414 C 39.0887 -3.78623 -1.99571 0
M  V30 415 C 38.4147 -4.17414 -3.3417 0
M  V30 416 C 39.7147 -5.04867 -1.33814 0
M  V30 417 H 41.4087 -2.9528 -0.494991 0
M  V30 418 H 38.9547 -1.42042 -0.236651 0
M  V30 419 H 40.9077 -3.02794 -2.93076 0
M  V30 420 H 39.6317 -1.80268 -2.72343 0
M  V30 421 H 38.2907 -3.41646 -1.32941 0
M  V30 422 H 37.9387 -3.29284 -3.80238 0
M  V30 423 H 37.6387 -4.93719 -3.18615 0
M  V30 424 H 39.1627 -4.57402 -4.04495 0
M  V30 425 H 40.5767 -5.39888 -1.92857 0
M  V30 426 H 38.9737 -5.86144 -1.28669 0
M  V30 427 H 40.0437 -4.83904 -0.310561 0
M  V30 428 N 41.3868 0.248026 -1.55636 0
M  V30 429 C 42.6118 0.998028 -1.81808 0
M  V30 430 C 43.0368 1.78207 -0.601979 0
M  V30 431 O 42.3948 1.75653 0.448961 0
M  V30 432 C 42.4428 1.9125 -3.05705 0
M  V30 433 O 41.5468 3.00406 -2.82542 0
M  V30 434 H 40.8878 0.284045 -0.600179 0
M  V30 435 H 43.4178 0.269357 -2.02819 0
M  V30 436 H 43.4278 2.32737 -3.35108 0
M  V30 437 H 42.1028 1.33602 -3.93857 0
M  V30 438 H 40.6798 2.63056 -2.64303 0
M  V30 439 N 42.8649 1.48995 0.513639 0
M  V30 440 C 44.1129 1.57531 1.26604 0
M  V30 441 C 44.4339 0.258236 1.93283 0
M  V30 442 O 43.7039 -0.721502 1.8213 0
M  V30 443 H 42.2839 0.580387 0.470276 0
M  V30 444 H 44.9459 1.85552 0.596373 0
M  V30 445 H 44.0419 2.36486 2.03669 0
M  V30 446 N 44.343 -0.763751 1.37857 0
M  V30 447 C 45.754 -1.3405 1.29952 0
M  V30 448 C 46.105 -1.96138 -0.0492898 0
M  V30 449 O 45.23 -1.94372 -0.951239 0
M  V30 450 C 45.825 -2.43729 2.35333 0
M  V30 451 C 44.384 -2.97151 2.31037 0
M  V30 452 C 43.531 -1.70438 2.18738 0
M  V30 453 H 46.482 -0.563396 1.48363 0
M  V30 454 H 46.503 -3.23412 2.00462 0
M  V30 455 H 46.015 -1.9851 3.33489 0
M  V30 456 H 44.116 -3.46724 1.3643 0
M  V30 457 H 44.229 -3.52221 3.24772 0
M  V30 458 H 42.593 -1.93673 1.65418 0
M  V30 459 H 43.376 -1.27312 3.18821 0
M  V30 460 N 45.8211 -1.22559 -0.990812 0
M  V30 461 C 46.7531 -0.955325 -2.08342 0
M  V30 462 C 47.7661 0.0668408 -1.62663 0
M  V30 463 O 48.9551 -0.167421 -1.77713 0
M  V30 464 C 46.0551 -0.415566 -3.36342 0
M  V30 465 C 45.2281 -1.49544 -4.11042 0
M  V30 466 C 44.2871 -0.962399 -5.17324 0
M  V30 467 O 43.3131 -1.64907 -5.44788 0
M  V30 468 N 44.5151 0.215134 -5.80101 0
M  V30 469 H 47.2801 -1.89596 -2.32106 0
M  V30 470 H 44.8411 -1.13276 -1.15673 0
M  V30 471 H 46.8331 -0.0442386 -4.04676 0
M  V30 472 H 45.4031 0.430232 -3.09625 0
M  V30 473 H 44.6231 -2.04 -3.37309 0
M  V30 474 H 45.9111 -2.22195 -4.57719 0
M  V30 475 H 45.3091 0.789779 -5.6016 0
M  V30 476 H 43.8661 0.527826 -6.49659 0
M  V30 477 N 47.2992 1.18797 -1.03562 0
M  V30 478 C 48.2462 2.22253 -0.622259 0
M  V30 479 C 49.2162 1.61987 0.36736 0
M  V30 480 O 50.4012 1.88986 0.262492 0
M  V30 481 C 47.5412 3.45097 0.0138462 0
M  V30 482 C 46.6542 4.19722 -1.02263 0
M  V30 483 C 45.7892 5.30009 -0.355573 0
M  V30 484 C 44.8282 5.96399 -1.37749 0
M  V30 485 N 43.9652 6.98234 -0.735766 0
M  V30 486 H 48.8052 2.56968 -1.50903 0
M  V30 487 H 46.3422 1.26245 -0.755017 0
M  V30 488 H 48.3002 4.15279 0.399948 0
M  V30 489 H 46.9302 3.11018 0.864158 0
M  V30 490 H 45.9822 3.48418 -1.52673 0
M  V30 491 H 47.2942 4.65227 -1.79903 0
M  V30 492 H 46.4482 6.0664 0.0850095 0
M  V30 493 H 45.1872 4.85592 0.452967 0
M  V30 494 H 44.1922 5.18512 -1.82826 0
M  V30 495 H 45.4172 6.42899 -2.18764 0
M  V30 496 H 43.3632 6.55979 0.0525597 0
M  V30 497 H 43.2802 7.41965 -1.44995 0
M  V30 498 H 44.5482 7.78845 -0.31941 0
M  V30 499 N 48.7773 0.814389 1.34928 0
M  V30 500 C 50.0053 0.411136 2.02774 0
M  V30 501 C 50.4203 -0.980316 1.61354 0
M  V30 502 O 49.7773 -1.63299 0.814847 0
M  V30 503 C 49.8283 0.493865 3.58111 0
M  V30 504 O 49.5493 1.83047 3.98027 0
M  V30 505 C 51.0503 0.0844174 4.4322 0
M  V30 506 H 48.2703 0.166037 0.650133 0
M  V30 507 H 50.8143 1.10018 1.72384 0
M  V30 508 H 48.9693 -0.147006 3.87121 0
M  V30 509 H 49.3833 1.79872 4.92693 0
M  V30 510 H 50.8573 0.193404 5.51661 0
M  V30 511 H 51.3343 -0.97113 4.28329 0
M  V30 512 H 51.9403 0.69875 4.19521 0
M  V30 513 N 50.2554 -1.46986 0.568584 0
M  V30 514 C 51.2184 -2.28624 -0.162366 0
M  V30 515 C 52.2184 -1.37596 -0.832103 0
M  V30 516 O 53.4084 -1.60115 -0.68622 0
M  V30 517 C 50.5404 -3.17596 -1.23878 0
M  V30 518 H 51.7334 -2.94722 0.554899 0
M  V30 519 H 49.2864 -1.52863 0.325976 0
M  V30 520 H 50.0214 -2.56214 -1.98808 0
M  V30 521 H 49.8064 -3.846 -0.763219 0
M  V30 522 H 51.2964 -3.79078 -1.75185 0
M  V30 523 N 51.7335 -0.305618 -1.54608 0
M  V30 524 C 52.9795 0.302746 -2.00528 0
M  V30 525 C 53.3125 1.53184 -1.19367 0
M  V30 526 O 52.5875 1.92598 -0.271321 0
M  V30 527 C 52.8705 0.654756 -3.54097 0
M  V30 528 C 52.7235 -0.583793 -4.45995 0
M  V30 529 C 54.0425 1.47947 -4.14487 0
M  V30 530 H 51.1615 0.108564 -0.72896 0
M  V30 531 H 53.8035 -0.418634 -1.85331 0
M  V30 532 H 51.9535 1.26935 -3.67178 0
M  V30 533 H 53.6255 -1.22224 -4.44814 0
M  V30 534 H 51.8685 -1.21615 -4.16404 0
M  V30 535 H 52.5395 -0.293287 -5.5122 0
M  V30 536 H 55.0155 0.96013 -4.04871 0
M  V30 537 H 53.8915 1.69454 -5.22088 0
M  V30 538 H 54.1525 2.47011 -3.66658 0
M  V30 539 N 53.2116 1.57565 -0.0334293 0
M  V30 540 C 54.1746 2.09393 0.932048 0
M  V30 541 C 55.1746 1.00986 1.25134 0
M  V30 542 O 56.3646 1.27129 1.19096 0
M  V30 543 C 53.4966 2.56338 2.2473 0
M  V30 544 H 54.6896 2.95984 0.483085 0
M  V30 545 H 52.2426 1.54819 0.21468 0
M  V30 546 H 52.9776 1.7309 2.74245 0
M  V30 547 H 52.7626 3.35542 2.02865 0
M  V30 548 H 54.2526 2.96646 2.93923 0
M  V30 549 N 54.6897 -0.239769 1.55765 0
M  V30 550 C 55.9357 -0.968234 1.78194 0
M  V30 551 C 56.2687 -1.84701 0.599938 0
M  V30 552 O 55.5437 -1.9031 -0.401524 0
M  V30 553 C 55.8267 -1.8227 3.10564 0
M  V30 554 C 55.6797 -0.971633 4.3918 0
M  V30 555 C 56.9987 -2.80388 3.39221 0
M  V30 556 H 54.1177 -0.350572 0.648281 0
M  V30 557 H 56.7597 -0.238259 1.885 0
M  V30 558 H 54.9097 -2.44507 3.01908 0
M  V30 559 H 56.5817 -0.367408 4.59835 0
M  V30 560 H 54.8247 -0.276276 4.32919 0
M  V30 561 H 55.4957 -1.60346 5.28198 0
M  V30 562 H 57.9717 -2.28287 3.47885 0
M  V30 563 H 56.8477 -3.3729 4.33044 0
M  V30 564 H 57.1087 -3.57212 2.60484 0
M  V30 565 N 56.1678 -1.49265 -0.50573 0
M  V30 566 C 57.0978 -1.68495 -1.61653 0
M  V30 567 C 58.0788 -0.53366 -1.61512 0
M  V30 568 O 59.2638 -0.76897 -1.78327 0
M  V30 569 C 56.3938 -1.74709 -3.00157 0
M  V30 570 C 55.3478 -2.89581 -3.15162 0
M  V30 571 C 54.6738 -2.80903 -4.5497 0
M  V30 572 C 55.9738 -4.30578 -2.95634 0
M  V30 573 H 57.6678 -2.61493 -1.45814 0
M  V30 574 H 55.2138 -1.25838 -0.70005 0
M  V30 575 H 57.1668 -1.86748 -3.77761 0
M  V30 576 H 55.8908 -0.783067 -3.17074 0
M  V30 577 H 54.5498 -2.77136 -2.39982 0
M  V30 578 H 54.1978 -1.82419 -4.68756 0
M  V30 579 H 53.8978 -3.57999 -4.65951 0
M  V30 580 H 55.4218 -2.94944 -5.34641 0
M  V30 581 H 56.8358 -4.4373 -3.63011 0
M  V30 582 H 55.2328 -5.0886 -3.18091 0
M  V30 583 H 56.3028 -4.45352 -1.91806 0
M  V30 584 N 57.6459 0.756429 -1.3826 0
M  V30 585 C 58.8859 1.52833 -1.35725 0
M  V30 586 C 59.2499 1.91926 0.0534106 0
M  V30 587 O 60.4509 2.68028 0.203613 0
M  V30 588 C 58.7219 2.74919 -2.28373 0
M  V30 589 S 60.2809 3.64817 -2.43832 0
M  V30 590 H 57.0989 0.523043 -0.481608 0
M  V30 591 H 59.7009 0.888212 -1.74158 0
M  V30 592 H 58.4049 2.44304 -3.29763 0
M  V30 593 H 57.9359 3.43878 -1.91079 0
M  V30 594 H 59.9509 4.676 -1.66027 0
M  V30 595 N 59.124 1.23083 0.984299 0
M  V30 596 C 60.352 1.08714 1.76037 0
M  V30 597 C 60.767 -0.361691 1.85303 0
M  V30 598 O 60.124 -1.25034 1.32939 0
M  V30 599 C 60.175 1.70206 3.18923 0
M  V30 600 O 59.896 3.09423 3.10144 0
M  V30 601 C 61.397 1.61227 4.12941 0
M  V30 602 H 58.617 0.380664 0.552572 0
M  V30 603 H 61.161 1.62853 1.23689 0
M  V30 604 H 59.316 1.20109 3.6831 0
M  V30 605 H 59.73 3.39188 4.00065 0
M  V30 606 H 61.204 2.08962 5.10919 0
M  V30 607 H 61.681 0.570375 4.35481 0
M  V30 608 H 62.287 2.10671 3.69456 0
M  V30 609 N 60.6021 -1.18246 1.0419 0
M  V30 610 C 61.5321 -2.24127 0.654914 0
M  V30 611 C 62.5131 -1.66617 -0.342451 0
M  V30 612 O 63.6981 -1.92924 -0.222277 0
M  V30 613 C 60.8281 -3.47295 0.0183757 0
M  V30 614 C 59.7821 -4.17563 0.939414 0
M  V30 615 C 59.1081 -5.34438 0.167286 0
M  V30 616 C 60.4081 -4.70917 2.25908 0
M  V30 617 H 62.1021 -2.56753 1.54007 0
M  V30 618 H 59.6481 -1.23414 0.74195 0
M  V30 619 H 61.6011 -4.20572 -0.264082 0
M  V30 620 H 60.3251 -3.13907 -0.901664 0
M  V30 621 H 58.9841 -3.46186 1.20628 0
M  V30 622 H 58.6321 -4.97298 -0.7552 0
M  V30 623 H 58.3321 -5.82388 0.780901 0
M  V30 624 H 59.8561 -6.10504 -0.108125 0
M  V30 625 H 61.2701 -5.35882 2.03724 0
M  V30 626 H 59.6671 -5.29406 2.82577 0
M  V30 627 H 60.7371 -3.88272 2.9047 0
M  V30 628 N 62.0802 -0.821533 -1.34494 0
M  V30 629 C 63.0102 -0.257138 -2.3208 0
M  V30 630 C 63.9912 0.625645 -1.58176 0
M  V30 631 O 65.1762 0.552811 -1.86166 0
M  V30 632 C 62.3062 0.582958 -3.42372 0
M  V30 633 C 61.2602 -0.202571 -4.2752 0
M  V30 634 C 60.5862 0.760179 -5.29269 0
M  V30 635 C 61.8862 -1.40998 -5.02908 0
M  V30 636 H 63.5802 -1.07247 -2.79532 0
M  V30 637 H 61.1262 -0.517163 -1.34393 0
M  V30 638 H 63.0792 0.987972 -4.09655 0
M  V30 639 H 61.8032 1.43133 -2.93565 0
M  V30 640 H 60.4622 -0.588936 -3.61838 0
M  V30 641 H 60.1102 1.60447 -4.76724 0
M  V30 642 H 59.8102 0.238809 -5.87115 0
M  V30 643 H 61.3342 1.16308 -5.9942 0
M  V30 644 H 62.7482 -1.07905 -5.63054 0
M  V30 645 H 61.1452 -1.86689 -5.70322 0
M  V30 646 H 62.2152 -2.1889 -4.32684 0
M  V30 647 N 63.5583 1.46682 -0.576371 0
M  V30 648 C 64.8063 2.02013 -0.0594163 0
M  V30 649 C 65.1273 1.45101 1.30271 0
M  V30 650 O 64.3973 0.633317 1.8538 0
M  V30 651 H 62.9773 0.746759 -0.0189745 0
M  V30 652 H 65.6393 1.79862 -0.750717 0
M  V30 653 H 64.7353 3.12097 0.014345 0
M  V30 654 N 65.0364 0.313813 1.54444 0
M  V30 655 C 65.9664 -0.549454 2.26943 0
M  V30 656 C 66.9474 -1.12741 1.27372 0
M  V30 657 O 68.1324 -1.15436 1.56167 0
M  V30 658 C 65.2624 -1.71523 3.01989 0
M  V30 659 C 64.2164 -1.26703 4.08816 0
M  V30 660 C 63.5424 -2.51898 4.71647 0
M  V30 661 C 64.8424 -0.388962 5.2085 0
M  V30 662 H 66.5364 0.0552661 2.99349 0
M  V30 663 H 64.0824 0.0280207 1.43973 0
M  V30 664 H 66.0354 -2.32535 3.51433 0
M  V30 665 H 64.7594 -2.34639 2.27183 0
M  V30 666 H 63.4184 -0.679896 3.6024 0
M  V30 667 H 63.0664 -3.13356 3.93468 0
M  V30 668 H 62.7664 -2.22605 5.43802 0
M  V30 669 H 64.2904 -3.1369 5.23861 0
M  V30 670 H 65.7044 -0.905107 5.6611 0
M  V30 671 H 64.1014 -0.18924 5.99802 0
M  V30 672 H 65.1714 0.582699 4.81386 0
M  V30 673 N 66.5145 -1.57545 0.0417849 0
M  V30 674 C 67.4445 -2.14009 -0.933929 0
M  V30 675 C 68.4255 -1.05938 -1.33083 0
M  V30 676 O 69.6105 -1.33833 -1.40721 0
M  V30 677 C 66.7405 -2.67747 -2.21199 0
M  V30 678 C 65.6945 -3.80718 -1.95544 0
M  V30 679 C 65.0205 -4.20935 -3.29724 0
M  V30 680 C 66.3205 -5.06258 -1.28452 0
M  V30 681 H 68.0145 -2.95788 -0.463645 0
M  V30 682 H 65.5605 -1.42285 -0.221573 0
M  V30 683 H 67.5135 -3.05886 -2.89848 0
M  V30 684 H 66.2375 -1.83147 -2.70416 0
M  V30 685 H 64.8965 -3.43037 -1.2931 0
M  V30 686 H 64.5445 -3.33298 -3.76724 0
M  V30 687 H 64.2445 -4.9707 -3.13361 0
M  V30 688 H 65.7685 -4.61666 -3.9962 0
M  V30 689 H 67.1825 -5.41903 -1.8712 0
M  V30 690 H 65.5795 -5.87475 -1.22445 0
M  V30 691 H 66.6495 -4.84207 -0.259219 0
M  V30 692 N 67.9926 0.231505 -1.5589 0
M  V30 693 C 69.2176 0.978689 -1.82856 0
M  V30 694 C 69.6426 1.77559 -0.620846 0
M  V30 695 O 69.0006 1.76119 0.430305 0
M  V30 696 C 69.0486 1.87997 -3.07716 0
M  V30 697 O 68.1526 2.97393 -2.85712 0
M  V30 698 H 67.4936 0.277663 -0.603158 0
M  V30 699 H 70.0236 0.24783 -2.03093 0
M  V30 700 H 70.0336 2.2917 -3.37558 0
M  V30 701 H 68.7086 1.29417 -3.95252 0
M  V30 702 H 67.2856 2.60238 -2.67078 0
M  V30 703 N 69.4707 1.49531 0.497807 0
M  V30 704 C 70.4337 1.65916 1.58128 0
M  V30 705 C 71.4337 0.530825 1.51786 0
M  V30 706 O 72.6237 0.797342 1.54881 0
M  V30 707 C 69.7557 1.65951 2.9778 0
M  V30 708 H 70.9487 2.62556 1.44929 0
M  V30 709 H 68.5017 1.38611 0.722275 0
M  V30 710 H 69.2367 0.709065 3.16453 0
M  V30 711 H 69.0217 2.47897 3.03792 0
M  V30 712 H 70.5117 1.80673 3.76493 0
M  V30 713 N 70.9488 -0.749086 1.3866 0
M  V30 714 C 71.8788 -1.8764 1.38973 0
M  V30 715 C 72.8598 -1.68178 0.255004 0
M  V30 716 O 74.0448 -1.88704 0.458754 0
M  V30 717 C 71.1748 -3.25222 1.21851 0
M  V30 718 C 70.1288 -3.59295 2.32575 0
M  V30 719 C 69.4548 -4.95663 2.00555 0
M  V30 720 C 70.7548 -3.63709 3.7485 0
M  V30 721 H 72.4488 -1.87635 2.3331 0
M  V30 722 H 69.9948 -0.901329 1.12303 0
M  V30 723 H 71.9478 -4.03746 1.20695 0
M  V30 724 H 70.6718 -3.25719 0.239775 0
M  V30 725 H 69.3308 -2.83093 2.32925 0
M  V30 726 H 68.9788 -4.92724 1.01154 0
M  V30 727 H 68.6788 -5.19429 2.74714 0
M  V30 728 H 70.2028 -5.7656 2.01024 0
M  V30 729 H 71.6168 -4.32338 3.76506 0
M  V30 730 H 70.0138 -3.98986 4.48252 0
M  V30 731 H 71.0838 -2.63834 4.06841 0
M  V30 732 N 72.4269 -1.23603 -0.977757 0
M  V30 733 C 73.3369 -1.03632 -2.1047 0
M  V30 734 C 74.3529 0.0199435 -1.73989 0
M  V30 735 O 75.5289 -0.176076 -2.00629 0
M  V30 736 C 72.5939 -0.63276 -3.40877 0
M  V30 737 C 71.6549 -1.76437 -3.91367 0
M  V30 738 C 70.8879 -1.37997 -5.15551 0
M  V30 739 O 71.1109 -0.265357 -5.69782 0
M  V30 740 O 70.0449 -2.20201 -5.60174 0
M  V30 741 H 73.8709 -1.98086 -2.30208 0
M  V30 742 H 71.4559 -1.02332 -1.08851 0
M  V30 743 H 73.3379 -0.418761 -4.19314 0
M  V30 744 H 72.0129 0.282754 -3.22463 0
M  V30 745 H 70.9199 -2.03304 -3.14036 0
M  V30 746 H 72.2529 -2.6583 -4.14241 0
M  V30 747 N 73.905 1.17692 -1.04816 0
M  V30 748 C 74.853 2.23632 -0.63966 0
M  V30 749 C 75.847 1.6601 0.337219 0
M  V30 750 O 77.053 1.78844 0.203693 0
M  V30 751 H 73.428 0.727949 -0.188665 0
M  V30 752 H 75.399 2.55387 -1.54337 0
M  V30 753 C 74.148 3.4769 -0.0264051 0
M  V30 754 H 73.471 3.92331 -0.769164 0
M  V30 755 H 74.911 4.23418 0.222098 0
M  V30 756 C 73.37 3.13807 1.22584 0
M  V30 757 O 73.9 3.28236 2.31569 0
M  V30 758 N 72.106 2.68065 1.12202 0
M  V30 759 H 71.653 2.56525 0.235133 0
M  V30 760 H 71.611 2.45767 1.96076 0
M  V30 761 N 75.3831 0.828654 1.34056 0
M  V30 762 C 76.6291 0.42008 1.98402 0
M  V30 763 C 76.9621 -1.01564 1.65525 0
M  V30 764 O 76.2371 -1.70834 0.929831 0
M  V30 765 C 76.5201 0.62927 3.54559 0
M  V30 766 C 76.3731 2.11152 3.97159 0
M  V30 767 C 77.6921 0.0688756 4.40046 0
M  V30 768 H 74.8111 0.154104 0.720709 0
M  V30 769 H 77.4531 1.04228 1.5886 0
M  V30 770 H 75.6031 0.0996418 3.88372 0
M  V30 771 H 77.2751 2.70522 3.73651 0
M  V30 772 H 75.5181 2.59985 3.47261 0
M  V30 773 H 76.1891 2.20868 5.05887 0
M  V30 774 H 78.6651 0.521458 4.1282 0
M  V30 775 H 77.5411 0.245006 5.48353 0
M  V30 776 H 77.8021 -1.0266 4.30015 0
M  V30 777 N 76.8612 -1.46375 0.584142 0
M  V30 778 C 77.8242 -2.28784 -0.138108 0
M  V30 779 C 78.8242 -1.38471 -0.817462 0
M  V30 780 O 80.0142 -1.60833 -0.669199 0
M  V30 781 C 77.1462 -3.18892 -1.20503 0
M  V30 782 H 78.3392 -2.94117 0.586127 0
M  V30 783 H 75.8922 -1.52509 0.342171 0
M  V30 784 H 76.6272 -2.58309 -1.96079 0
M  V30 785 H 76.4122 -3.85388 -0.722384 0
M  V30 786 H 77.9022 -3.80914 -1.71155 0
M  V30 787 N 78.3393 -0.321999 -1.54275 0
M  V30 788 C 79.5853 0.281461 -2.00837 0
M  V30 789 C 79.9183 1.51909 -1.20985 0
M  V30 790 O 79.1933 1.923 -0.291733 0
M  V30 791 C 79.4763 0.617162 -3.54772 0
M  V30 792 C 79.3293 -0.631064 -4.45351 0
M  V30 793 C 80.6483 1.43542 -4.16033 0
M  V30 794 H 77.7673 0.100826 -0.730071 0
M  V30 795 H 80.4093 -0.438268 -1.84876 0
M  V30 796 H 78.5593 1.23034 -3.68504 0
M  V30 797 H 80.2313 -1.26934 -4.43492 0
M  V30 798 H 78.4743 -1.26025 -4.15091 0
M  V30 799 H 79.1453 -0.351735 -5.50878 0
M  V30 800 H 81.6213 0.917134 -4.05867 0
M  V30 801 H 80.4973 1.63907 -5.23856 0
M  V30 802 H 80.7583 2.43108 -3.69257 0
M  V30 803 N 79.8174 1.5752 -0.0501392 0
M  V30 804 C 80.7474 2.14502 0.922566 0
M  V30 805 C 81.7284 1.06642 1.3252 0
M  V30 806 O 82.9134 1.34577 1.4001 0
M  V30 807 C 80.0434 2.68916 2.19776 0
M  V30 808 C 78.9974 3.8175 1.93523 0
M  V30 809 C 78.3234 4.22677 3.27487 0
M  V30 810 C 79.6234 5.06932 1.25765 0
M  V30 811 H 81.3174 2.9603 0.447952 0
M  V30 812 H 78.8634 1.42401 0.214024 0
M  V30 813 H 80.8164 3.07419 2.88222 0
M  V30 814 H 79.5404 1.84578 2.69441 0
M  V30 815 H 78.1994 3.43718 1.27489 0
M  V30 816 H 77.8474 3.35291 3.74952 0
M  V30 817 H 77.5474 4.98725 3.1072 0
M  V30 818 H 79.0714 4.63779 3.97166 0
M  V30 819 H 80.4854 5.42888 1.84244 0
M  V30 820 H 78.8824 5.88116 1.19328 0
M  V30 821 H 79.9524 4.84337 0.233536 0
M  V30 822 N 81.2955 -0.223234 1.56011 0
M  V30 823 C 82.5255 -0.963413 1.82762 0
M  V30 824 C 82.9335 -1.78516 0.626804 0
M  V30 825 O 82.2765 -1.78974 -0.414014 0
M  V30 826 C 82.3385 -1.93126 3.0322 0
M  V30 827 C 82.0025 -1.2942 4.38291 0
M  V30 828 C 82.9995 -0.684916 5.15369 0
M  V30 829 C 80.6845 -1.30647 4.85012 0
M  V30 830 C 82.6785 -0.0963971 6.37327 0
M  V30 831 C 80.3655 -0.71411 6.06913 0
M  V30 832 C 81.3635 -0.110123 6.82911 0
M  V30 833 O 81.0515 0.47303 8.02507 0
M  V30 834 H 80.7835 -0.288011 0.611576 0
M  V30 835 H 83.3375 -0.244103 2.03944 0
M  V30 836 H 81.5675 -2.68952 2.77852 0
M  V30 837 H 83.2565 -2.53685 3.16857 0
M  V30 838 H 84.0225 -0.667774 4.80381 0
M  V30 839 H 79.9015 -1.76598 4.25833 0
M  V30 840 H 83.4455 0.375657 6.96588 0
M  V30 841 H 79.3425 -0.728659 6.41374 0
M  V30 842 H 80.1105 0.367186 8.17676 0
M  V30 843 N 82.7736 -1.49793 -0.48987 0
M  V30 844 C 83.7036 -1.70201 -1.59856 0
M  V30 845 C 84.6846 -0.55076 -1.60937 0
M  V30 846 O 85.8696 -0.787841 -1.77501 0
M  V30 847 C 82.9996 -1.77882 -2.98287 0
M  V30 848 C 81.9536 -2.92907 -3.12073 0
M  V30 849 C 81.2796 -2.85712 -4.51965 0
M  V30 850 C 82.5796 -4.3369 -2.91051 0
M  V30 851 H 84.2736 -2.63025 -1.43032 0
M  V30 852 H 81.8196 -1.26574 -0.686664 0
M  V30 853 H 83.7726 -1.90744 -3.75759 0
M  V30 854 H 82.4966 -0.816653 -3.16225 0
M  V30 855 H 81.1556 -2.79665 -2.37029 0
M  V30 856 H 80.8036 -1.8738 -4.66795 0
M  V30 857 H 80.5036 -3.62921 -4.62128 0
M  V30 858 H 82.0276 -3.00598 -5.31482 0
M  V30 859 H 83.4416 -4.47555 -3.58284 0
M  V30 860 H 81.8386 -5.12205 -3.12675 0
M  V30 861 H 82.9086 -4.47362 -1.87071 0
M  V30 862 N 84.2517 0.741722 -1.39055 0
M  V30 863 C 85.5007 1.49656 -1.35225 0
M  V30 864 C 85.8137 1.95533 0.0512708 0
M  V30 865 O 87.0197 2.7067 0.212138 0
M  V30 866 C 85.4757 2.70389 -2.37525 0
M  V30 867 C 85.0837 2.31489 -3.83558 0
M  V30 868 C 86.8277 3.48236 -2.42759 0
M  V30 869 C 84.7347 3.48903 -4.77515 0
M  V30 870 H 83.6647 0.56197 -0.502699 0
M  V30 871 H 86.3157 0.809727 -1.64668 0
M  V30 872 H 84.6977 3.41113 -2.01142 0
M  V30 873 H 85.8717 1.68354 -4.28945 0
M  V30 874 H 84.1867 1.66749 -3.81554 0
M  V30 875 H 86.7837 4.35558 -3.1015 0
M  V30 876 H 87.1267 3.90229 -1.45008 0
M  V30 877 H 87.6597 2.84535 -2.78002 0
M  V30 878 H 84.3987 3.11966 -5.76504 0
M  V30 879 H 83.9187 4.11041 -4.36813 0
M  V30 880 H 85.5977 4.15328 -4.96096 0
M  V30 881 N 85.7298 1.2412 0.971189 0
M  V30 882 C 86.6598 1.05508 2.08304 0
M  V30 883 C 87.6408 -0.0308864 1.70072 0
M  V30 884 O 88.8258 0.135521 1.93727 0
M  V30 885 C 85.9558 0.655365 3.4106 0
M  V30 886 C 84.9098 1.68971 3.93234 0
M  V30 887 C 84.2358 1.14516 5.22293 0
M  V30 888 C 85.5358 3.08487 4.21465 0
M  V30 889 H 87.2298 1.98507 2.24132 0
M  V30 890 H 84.7758 0.955821 1.07704 0
M  V30 891 H 86.7288 0.51217 4.18276 0
M  V30 892 H 85.4528 -0.31032 3.25122 0
M  V30 893 H 84.1118 1.82106 3.18171 0
M  V30 894 H 83.7598 0.170189 5.02712 0
M  V30 895 H 83.4598 1.83635 5.58168 0
M  V30 896 H 84.9838 1.01401 6.02121 0
M  V30 897 H 86.3978 2.98601 4.89398 0
M  V30 898 H 84.7948 3.74926 4.68562 0
M  V30 899 H 85.8648 3.56787 3.28376 0
M  V30 900 N 87.2079 -1.17134 1.05439 0
M  V30 901 C 88.4329 -1.91913 0.786396 0
M  V30 902 C 88.8579 -1.7643 -0.652234 0
M  V30 903 O 88.2159 -1.08372 -1.45345 0
M  V30 904 C 88.2639 -3.40921 1.17497 0
M  V30 905 O 87.3679 -4.11244 0.308589 0
M  V30 906 H 86.7089 -0.598215 0.288158 0
M  V30 907 H 89.2389 -1.48457 1.4079 0
M  V30 908 H 89.2489 -3.91668 1.14281 0
M  V30 909 H 87.9239 -3.5151 2.22292 0
M  V30 910 H 86.5009 -3.70731 0.40157 0
M  V30 911 N 88.686 -0.835752 -1.33615 0
M  V30 912 C 89.911 -0.442389 -2.02627 0
M  V30 913 C 90.336 0.947735 -1.62479 0
M  V30 914 O 89.694 1.61907 -0.815826 0
M  V30 915 C 89.742 -0.567216 -3.56111 0
M  V30 916 O 88.846 0.407799 -4.10379 0
M  V30 917 H 88.187 -0.180278 -0.639059 0
M  V30 918 H 90.717 -1.12972 -1.70583 0
M  V30 919 H 90.727 -0.447708 -4.05536 0
M  V30 920 H 89.402 -1.58103 -3.84677 0
M  V30 921 H 87.979 0.246107 -3.72087 0
M  V30 922 N 90.1641 1.46063 -0.591896 0
M  V30 923 C 91.1141 2.27458 0.157172 0
M  V30 924 C 92.0981 1.3641 0.853301 0
M  V30 925 O 93.2901 1.60517 0.74588 0
M  V30 926 C 90.4191 3.22956 1.16423 0
M  V30 927 C 89.5051 4.2149 0.469742 0
M  V30 928 N 89.8961 5.03519 -0.479839 0
M  V30 929 C 88.1941 4.40161 0.719319 0
M  V30 930 C 88.8951 5.74904 -0.886591 0
M  V30 931 N 87.8711 5.43097 -0.233731 0
M  V30 932 H 91.6731 2.88272 -0.572392 0
M  V30 933 H 89.1871 1.57024 -0.414375 0
M  V30 934 H 91.1841 3.79986 1.71513 0
M  V30 935 H 89.8441 2.63701 1.89451 0
M  V30 936 H 90.8551 5.1078 -0.855823 0
M  V30 937 H 87.5321 3.92046 1.43548 0
M  V30 938 H 88.9221 6.50844 -1.66888 0
M  V30 939 N 91.6422 0.330177 1.54103 0
M  V30 940 C 92.5742 -0.566902 2.22079 0
M  V30 941 C 93.5872 -1.07462 1.22294 0
M  V30 942 O 94.7762 -0.987065 1.48726 0
M  V30 943 C 91.8762 -1.79138 2.87685 0
M  V30 944 C 91.0492 -1.42123 4.13666 0
M  V30 945 C 90.1082 -2.50394 4.62806 0
M  V30 946 O 89.1342 -2.14261 5.27334 0
M  V30 947 N 90.3362 -3.81433 4.37595 0
M  V30 948 H 93.1012 0.0151844 2.99696 0
M  V30 949 H 90.6622 0.153681 1.61169 0
M  V30 950 H 92.6542 -2.50975 3.1748 0
M  V30 951 H 91.2242 -2.28115 2.13734 0
M  V30 952 H 90.4442 -0.534201 3.90564 0
M  V30 953 H 91.7322 -1.14971 4.9564 0
M  V30 954 H 91.1302 -4.13584 3.8596 0
M  V30 955 H 89.6872 -4.4948 4.72029 0
M  V30 956 N 93.1203 -1.57491 0.0584922 0
M  V30 957 C 94.0503 -2.14988 -0.911178 0
M  V30 958 C 95.0313 -1.07343 -1.31952 0
M  V30 959 O 96.2163 -1.35318 -1.39294 0
M  V30 960 C 93.3463 -2.70078 -2.18347 0
M  V30 961 C 92.3003 -3.82771 -1.91495 0
M  V30 962 C 91.6263 -4.24408 -3.25241 0
M  V30 963 C 92.9263 -5.07592 -1.23075 0
M  V30 964 H 94.6203 -2.96263 -0.432246 0
M  V30 965 H 92.1663 -1.42512 -0.206469 0
M  V30 966 H 94.1193 -3.08943 -2.86587 0
M  V30 967 H 92.8433 -1.86005 -2.68458 0
M  V30 968 H 91.5023 -3.44389 -1.25664 0
M  V30 969 H 91.1503 -3.37275 -3.73168 0
M  V30 970 H 90.8503 -5.00366 -3.08071 0
M  V30 971 H 92.3743 -4.65879 -3.94701 0
M  V30 972 H 93.7883 -5.43857 -1.81362 0
M  V30 973 H 92.1853 -5.88741 -1.16207 0
M  V30 974 H 93.2553 -4.84454 -0.207847 0
M  V30 975 N 94.5984 0.214957 -1.56127 0
M  V30 976 C 96.0144 0.564948 -1.49267 0
M  V30 977 C 96.2144 1.86827 -0.754838 0
M  V30 978 O 95.2704 2.50745 -0.297198 0
M  V30 979 C 96.5834 0.638071 -2.93852 0
M  V30 980 C 98.1314 0.728253 -3.0441 0
M  V30 981 C 98.6064 0.832663 -4.50367 0
M  V30 982 N 100.097 0.896712 -4.54437 0
M  V30 983 C 100.832 0.997324 -5.6466 0
M  V30 984 N 100.328 1.06147 -6.8462 0
M  V30 985 N 102.121 1.03297 -5.52527 0
M  V30 986 H 94.2724 -0.640211 -2.02522 0
M  V30 987 H 96.5354 -0.225507 -0.920788 0
M  V30 988 H 96.2414 -0.250126 -3.50809 0
M  V30 989 H 96.1154 1.49947 -3.46115 0
M  V30 990 H 98.5024 1.60689 -2.47514 0
M  V30 991 H 98.5834 -0.158952 -2.55306 0
M  V30 992 H 98.2274 -0.0415417 -5.07883 0
M  V30 993 H 98.1574 1.73538 -4.97184 0
M  V30 994 H 100.648 0.857188 -3.6805 0
M  V30 995 H 100.961 1.1382 -7.64372 0
M  V30 996 H 99.3064 1.03049 -6.87318 0
M  V30 997 H 102.497 0.979558 -4.57736 0
M  V30 998 H 102.67 1.10793 -6.38458 0
M  V30 999 N 96.0765 1.50051 0.48192 0
M  V30 1000 C 97.4925 1.37237 0.814756 0
M  V30 1001 C 97.6925 0.420109 1.97072 0
M  V30 1002 O 96.7485 -0.141246 2.52105 0
M  V30 1003 C 98.0615 2.78375 1.13701 0
M  V30 1004 C 99.6095 2.87213 1.2441 0
M  V30 1005 C 100.084 4.29161 1.59954 0
M  V30 1006 N 101.575 4.32061 1.66967 0
M  V30 1007 C 102.31 5.38879 1.95952 0
M  V30 1008 N 101.806 6.55918 2.23031 0
M  V30 1009 N 103.599 5.26312 1.97363 0
M  V30 1010 H 95.7505 2.10546 -0.28005 0
M  V30 1011 H 98.0135 0.945921 -0.0627454 0
M  V30 1012 H 97.7195 3.49845 0.360787 0
M  V30 1013 H 97.5935 3.14941 2.07586 0
M  V30 1014 H 99.9805 2.15969 2.01101 0
M  V30 1015 H 100.061 2.54204 0.285299 0
M  V30 1016 H 99.7055 5.00938 0.838067 0
M  V30 1017 H 99.6355 4.59648 2.56966 0
M  V30 1018 H 102.126 3.47661 1.48123 0
M  V30 1019 H 102.439 7.33139 2.44391 0
M  V30 1020 H 100.784 6.59112 2.20447 0
M  V30 1021 H 103.975 4.33876 1.75697 0
M  V30 1022 H 104.148 6.09649 2.19618 0
M  V30 1023 N 97.5546 -0.734337 1.39446 0
M  V30 1024 C 98.5016 -1.84835 1.38219 0
M  V30 1025 C 99.4716 -1.64331 0.24179 0
M  V30 1026 O 100.657 -1.85728 0.437002 0
M  V30 1027 C 97.7966 -3.22355 1.23212 0
M  V30 1028 C 96.9096 -3.5456 2.46801 0
M  V30 1029 C 96.0446 -4.81485 2.24377 0
M  V30 1030 C 95.0836 -5.06536 3.43639 0
M  V30 1031 N 94.2206 -6.24665 3.20528 0
M  V30 1032 H 99.0606 -1.85219 2.33448 0
M  V30 1033 H 96.5976 -0.905039 1.15963 0
M  V30 1034 H 98.5556 -4.0174 1.12522 0
M  V30 1035 H 97.1856 -3.21248 0.316121 0
M  V30 1036 H 96.2376 -2.69872 2.68092 0
M  V30 1037 H 97.5496 -3.6899 3.3563 0
M  V30 1038 H 96.7036 -5.68852 2.10933 0
M  V30 1039 H 95.4426 -4.6923 1.32944 0
M  V30 1040 H 94.4476 -4.17632 3.5758 0
M  V30 1041 H 95.6726 -5.20676 4.35974 0
M  V30 1042 H 93.6186 -6.13696 2.3176 0
M  V30 1043 H 93.5356 -6.39685 4.02913 0
M  V30 1044 H 94.8036 -7.14868 3.10779 0
M  V30 1045 N 99.0327 -1.24633 -0.964593 0
M  V30 1046 C 100.444 -1.08045 -1.5226 0
M  V30 1047 C 100.795 0.347116 -1.93105 0
M  V30 1048 O 99.9197 1.23588 -1.77637 0
M  V30 1049 C 100.515 -1.95514 -2.76695 0
M  V30 1050 C 99.0737 -1.8314 -3.28841 0
M  V30 1051 C 98.2207 -1.90262 -2.01732 0
M  V30 1052 H 101.172 -1.38064 -0.782553 0
M  V30 1053 H 101.193 -1.48925 -3.50145 0
M  V30 1054 H 100.705 -2.99407 -2.46936 0
M  V30 1055 H 98.8057 -0.82092 -3.63444 0
M  V30 1056 H 98.9187 -2.67406 -3.97531 0
M  V30 1057 H 97.2827 -1.34027 -2.16584 0
M  V30 1058 H 98.0657 -2.9574 -1.74334 0
M  V30 1059 N 100.511 1.16574 -1.06058 0
M  V30 1060 C 101.736 1.91493 -0.796562 0
M  V30 1061 C 102.161 1.76773 0.642868 0
M  V30 1062 O 101.519 1.09142 1.44768 0
M  V30 1063 C 101.567 3.40293 -1.19303 0
M  V30 1064 O 100.671 4.11074 -0.330394 0
M  V30 1065 H 100.012 0.596678 -0.291326 0
M  V30 1066 H 102.542 1.47708 -1.41575 0
M  V30 1067 H 102.552 3.91057 -1.16356 0
M  V30 1068 H 101.227 3.50326 -2.24153 0
M  V30 1069 H 99.8038 3.70513 -0.421225 0
M  V30 1070 N 101.989 0.842826 1.3317 0
M  V30 1071 C 103.219 0.453397 2.01564 0
M  V30 1072 C 103.627 -0.951147 1.63554 0
M  V30 1073 O 102.97 -1.63021 0.846746 0
M  V30 1074 C 103.032 0.499013 3.5602 0
M  V30 1075 C 102.696 1.86037 4.1742 0
M  V30 1076 C 103.693 2.82416 4.36506 0
M  V30 1077 C 101.378 2.15428 4.53757 0
M  V30 1078 C 103.372 4.06346 4.91082 0
M  V30 1079 C 101.059 3.39615 5.0804 0
M  V30 1080 C 102.057 4.3489 5.26649 0
M  V30 1081 O 101.745 5.5688 5.79776 0
M  V30 1082 H 101.477 0.177871 0.652179 0
M  V30 1083 H 104.031 1.13808 1.70988 0
M  V30 1084 H 102.261 -0.242467 3.85939 0
M  V30 1085 H 103.95 0.126852 4.05702 0
M  V30 1086 H 104.716 2.6101 4.08777 0
M  V30 1087 H 100.595 1.42061 4.38565 0
M  V30 1088 H 104.139 4.80722 5.05522 0
M  V30 1089 H 100.036 3.60876 5.352 0
M  V30 1090 H 100.804 5.58674 5.98185 0
M  V30 1091 N 103.467 -1.45747 0.599634 0
M  V30 1092 C 104.397 -2.33235 -0.111306 0
M  V30 1093 C 105.378 -1.46359 -0.866781 0
M  V30 1094 O 106.563 -1.75146 -0.838904 0
M  V30 1095 C 103.693 -3.28932 -1.11451 0
M  V30 1096 C 102.647 -4.25381 -0.472772 0
M  V30 1097 C 101.973 -5.1071 -1.58365 0
M  V30 1098 C 103.273 -5.18831 0.600948 0
M  V30 1099 H 104.967 -2.92927 0.61919 0
M  V30 1100 H 102.513 -1.40857 0.299215 0
M  V30 1101 H 104.466 -3.89002 -1.62036 0
M  V30 1102 H 103.19 -2.67381 -1.8755 0
M  V30 1103 H 101.849 -3.66598 0.0121472 0
M  V30 1104 H 101.497 -4.45533 -2.33473 0
M  V30 1105 H 101.197 -5.7604 -1.15982 0
M  V30 1106 H 102.721 -5.73647 -2.09194 0
M  V30 1107 H 104.135 -5.73019 0.179491 0
M  V30 1108 H 102.532 -5.92595 0.946076 0
M  V30 1109 H 103.602 -4.6174 1.48068 0
M  V30 1110 N 104.945 -0.338344 -1.53925 0
M  V30 1111 C 106.192 0.259758 -2.00827 0
M  V30 1112 C 106.52 1.50973 -1.22628 0
M  V30 1113 O 105.775 1.93379 -0.300509 0
M  V30 1114 C 106.074 0.62448 -3.51902 0
M  V30 1115 C 105.74 -0.528006 -4.47798 0
M  V30 1116 C 104.402 -0.844298 -4.73735 0
M  V30 1117 C 106.754 -1.30143 -5.0469 0
M  V30 1118 C 104.082 -1.93648 -5.53821 0
M  V30 1119 C 106.434 -2.38382 -5.85967 0
M  V30 1120 C 105.098 -2.70576 -6.10201 0
M  V30 1121 H 104.368 0.0950523 -0.734878 0
M  V30 1122 H 107.015 -0.465182 -1.85764 0
M  V30 1123 H 105.32 1.43006 -3.64769 0
M  V30 1124 H 107.017 1.09905 -3.85645 0
M  V30 1125 H 103.607 -0.271421 -4.2774 0
M  V30 1126 H 107.791 -1.07033 -4.84621 0
M  V30 1127 H 103.047 -2.19021 -5.70824 0
M  V30 1128 H 107.221 -2.98746 -6.29066 0
M  V30 1129 H 104.848 -3.55333 -6.72044 0
M  V30 1130 N 106.423 1.57458 -0.0668435 0
M  V30 1131 C 107.672 1.92477 0.602947 0
M  V30 1132 C 107.985 0.948419 1.71068 0
M  V30 1133 O 109.191 1.19124 2.43971 0
M  V30 1134 C 107.647 3.41903 1.12383 0
M  V30 1135 C 107.255 4.47975 0.04737 0
M  V30 1136 C 108.999 3.85931 1.76797 0
M  V30 1137 C 106.906 5.88529 0.582022 0
M  V30 1138 H 105.836 0.718387 0.22899 0
M  V30 1139 H 108.487 1.82978 -0.138276 0
M  V30 1140 H 106.869 3.46459 1.91787 0
M  V30 1141 H 108.043 4.55029 -0.726978 0
M  V30 1142 H 106.358 4.13384 -0.500243 0
M  V30 1143 H 108.955 4.88322 2.17821 0
M  V30 1144 H 109.298 3.23029 2.62599 0
M  V30 1145 H 109.831 3.83958 1.04024 0
M  V30 1146 H 106.57 6.55065 -0.238721 0
M  V30 1147 H 106.09 5.85004 1.324 0
M  V30 1148 H 107.769 6.38258 1.05999 0
M  V30 1149 N 107.901 -0.206675 1.56239 0
M  V30 1150 C 109.149 -0.927007 1.79586 0
M  V30 1151 C 109.47 -1.8427 0.637929 0
M  V30 1152 O 108.74 -1.92849 -0.344398 0
M  V30 1153 H 107.32 -0.345292 0.662407 0
M  V30 1154 H 109.982 -0.21496 1.93711 0
M  V30 1155 H 109.078 -1.52501 2.72305 0
M  V30 1156 N 109.379 -1.50304 -0.473955 0
M  V30 1157 C 110.604 -1.65175 -1.25427 0
M  V30 1158 C 111.029 -0.333673 -1.85117 0
M  V30 1159 O 110.387 0.702114 -1.67153 0
M  V30 1160 C 110.435 -2.74295 -2.34082 0
M  V30 1161 O 109.539 -2.35349 -3.38651 0
M  V30 1162 H 108.88 -0.551944 -0.369126 0
M  V30 1163 H 111.41 -1.96662 -0.564364 0
M  V30 1164 H 111.42 -2.97285 -2.79438 0
M  V30 1165 H 110.095 -3.69959 -1.90008 0
M  V30 1166 H 108.672 -2.22794 -2.99027 0
M  V30 1167 N 110.857 0.726932 -1.39834 0
M  V30 1168 C 111.787 1.85405 -1.41941 0
M  V30 1169 C 112.768 1.67751 -0.281728 0
M  V30 1170 O 113.953 1.8795 -0.488717 0
M  V30 1171 C 111.083 3.23243 -1.2701 0
M  V30 1172 C 110.037 3.55549 -2.38262 0
M  V30 1173 C 109.363 4.9241 -2.08415 0
M  V30 1174 C 110.663 3.577 -3.80589 0
M  V30 1175 H 112.357 1.83899 -2.36266 0
M  V30 1176 H 109.903 0.883349 -1.13723 0
M  V30 1177 H 111.856 4.01775 -1.27103 0
M  V30 1178 H 110.58 3.25296 -0.291564 0
M  V30 1179 H 109.239 2.79351 -2.37399 0
M  V30 1180 H 108.887 4.91052 -1.0898 0
M  V30 1181 H 108.587 5.14992 -2.82943 0
M  V30 1182 H 110.111 5.73289 -2.10171 0
M  V30 1183 H 111.525 4.26293 -3.83337 0
M  V30 1184 H 109.922 3.91804 -4.54543 0
M  V30 1185 H 110.992 2.57328 -4.10987 0
M  V30 1186 N 112.336 1.25143 0.95797 0
M  V30 1187 C 113.299 1.05321 2.03569 0
M  V30 1188 C 114.299 0.007152 1.60798 0
M  V30 1189 O 115.489 0.24903 1.72411 0
M  V30 1190 C 112.621 0.598394 3.35607 0
M  V30 1191 H 113.814 2.00986 2.22586 0
M  V30 1192 H 111.367 1.07502 1.13459 0
M  V30 1193 H 112.102 -0.361014 3.22284 0
M  V30 1194 H 111.887 1.35351 3.67998 0
M  V30 1195 H 113.377 0.48104 4.1482 0
M  V30 1196 N 113.814 -1.1601 1.06675 0
M  V30 1197 C 115.062 -1.86264 0.784229 0
M  V30 1198 C 115.383 -1.82328 -0.691488 0
M  V30 1199 O 114.653 -1.25947 -1.50047 0
M  V30 1200 H 113.233 -0.689621 0.28711 0
M  V30 1201 H 115.895 -1.40664 1.34906 0
M  V30 1202 H 114.991 -2.91595 1.11259 0
M  V30 1203 N 115.292 -0.849877 -1.32721 0
M  V30 1204 C 116.255 -0.296122 -2.27279 0
M  V30 1205 C 117.255 0.541458 -1.5141 0
M  V30 1206 O 118.445 0.353658 -1.70572 0
M  V30 1207 C 115.577 0.581579 -3.35902 0
M  V30 1208 H 116.77 -1.13064 -2.77771 0
M  V30 1209 H 114.323 -0.62383 -1.43311 0
M  V30 1210 H 115.058 1.43809 -2.9067 0
M  V30 1211 H 114.843 -0.0178814 -3.92096 0
M  V30 1212 H 116.333 0.961951 -4.0637 0
M  V30 1213 N 116.77 1.45427 -0.607355 0
M  V30 1214 C 118.047 1.9557 -0.0344566 0
M  V30 1215 C 118.427 1.54979 1.43334 0
M  V30 1216 O 117.775 0.812241 2.13576 0
M  V30 1217 C 117.985 3.48226 -0.232321 0
M  V30 1218 C 119.333 4.2445 -0.113001 0
M  V30 1219 O 120.357 3.55829 -0.162431 0
M  V30 1220 O 119.216 5.465 0.00209442 0
M  V30 1221 H 116.31 0.826222 0.0358667 0
M  V30 1222 H 118.856 1.55594 -0.6774 0
M  V30 1223 H 117.628 3.70739 -1.25174 0
M  V30 1224 H 117.251 3.95092 0.445896 0
M  V30 1225 N 118.248 0.346503 1.53744 0
M  V30 1226 C 119.495 -0.249104 2.00962 0
M  V30 1227 C 119.823 -1.5032 1.23426 0
M  V30 1228 O 119.078 -1.93217 0.310761 0
M  V30 1229 C 119.377 -0.605809 3.52228 0
M  V30 1230 C 119.043 0.551747 4.47512 0
M  V30 1231 C 117.705 0.86941 4.73281 0
M  V30 1232 C 120.057 1.32818 5.03993 0
M  V30 1233 C 117.385 1.96582 5.52786 0
M  V30 1234 C 119.737 2.41486 5.84694 0
M  V30 1235 C 118.401 2.73808 6.08757 0
M  V30 1236 H 117.671 -0.0911538 0.735372 0
M  V30 1237 H 120.318 0.475027 1.85515 0
M  V30 1238 H 118.623 -1.4107 3.65522 0
M  V30 1239 H 120.32 -1.07858 3.86222 0
M  V30 1240 H 116.91 0.294102 4.2759 0
M  V30 1241 H 121.094 1.09602 4.84047 0
M  V30 1242 H 116.35 2.22045 5.69654 0
M  V30 1243 H 120.524 3.02078 6.27473 0
M  V30 1244 H 118.151 3.58892 6.7015 0
M  V30 1245 N 119.726 -1.57421 0.075193 0
M  V30 1246 C 120.656 -2.15942 -0.888324 0
M  V30 1247 C 121.637 -1.08737 -1.30806 0
M  V30 1248 O 122.822 -1.36787 -1.37851 0
M  V30 1249 C 119.952 -2.72379 -2.1547 0
M  V30 1250 C 118.906 -3.8478 -1.87425 0
M  V30 1251 C 118.232 -4.27834 -3.20721 0
M  V30 1252 C 119.532 -5.08869 -1.17684 0
M  V30 1253 H 121.226 -2.96705 -0.400799 0
M  V30 1254 H 118.772 -1.42723 -0.191342 0
M  V30 1255 H 120.725 -3.11965 -2.83295 0
M  V30 1256 H 119.449 -1.88841 -2.6647 0
M  V30 1257 H 118.108 -3.45703 -1.22004 0
M  V30 1258 H 117.756 -3.41214 -3.6957 0
M  V30 1259 H 117.456 -5.03605 -3.02746 0
M  V30 1260 H 118.98 -4.70039 -3.89738 0
M  V30 1261 H 120.394 -5.4575 -1.75584 0
M  V30 1262 H 118.791 -5.8994 -1.09956 0
M  V30 1263 H 119.861 -4.84648 -0.156453 0
M  V30 1264 N 121.204 0.198386 -1.56346 0
M  V30 1265 C 122.167 1.22952 -1.93431 0
M  V30 1266 C 123.167 1.38611 -0.815092 0
M  V30 1267 O 124.357 1.36479 -1.08255 0
M  V30 1268 C 121.489 2.59946 -2.20546 0
M  V30 1269 H 122.682 0.912626 -2.85677 0
M  V30 1270 H 120.235 0.43977 -1.49986 0
M  V30 1271 H 120.97 2.96696 -1.30927 0
M  V30 1272 H 120.755 2.49953 -3.02102 0
M  V30 1273 H 122.245 3.3431 -2.50253 0
M  V30 1274 N 122.682 1.50554 0.465978 0
M  V30 1275 C 123.907 1.65838 1.24549 0
M  V30 1276 C 124.332 0.343486 1.84937 0
M  V30 1277 O 123.69 -0.69324 1.67523 0
M  V30 1278 C 123.738 2.75533 2.32624 0
M  V30 1279 O 122.842 2.37142 3.37398 0
M  V30 1280 H 122.183 0.553893 0.366194 0
M  V30 1281 H 124.713 1.96959 0.553927 0
M  V30 1282 H 124.723 2.98763 2.77857 0
M  V30 1283 H 123.398 3.70962 1.88043 0
M  V30 1284 H 121.975 2.24377 2.97841 0
M  V30 1285 N 124.16 -0.719506 1.40217 0
M  V30 1286 C 125.406 -1.48152 1.38488 0
M  V30 1287 C 125.739 -1.94195 -0.0141867 0
M  V30 1288 O 125.014 -1.67884 -0.982096 0
M  V30 1289 C 125.297 -2.71035 2.37091 0
M  V30 1290 C 125.15 -2.30912 3.86005 0
M  V30 1291 C 126.469 -3.73182 2.33288 0
M  V30 1292 H 123.588 -0.537395 0.504357 0
M  V30 1293 H 126.23 -0.821472 1.71324 0
M  V30 1294 H 124.38 -3.27352 2.0922 0
M  V30 1295 H 126.052 -1.80107 4.24687 0
M  V30 1296 H 124.295 -1.62958 4.02029 0
M  V30 1297 H 124.966 -3.18978 4.50508 0
M  V30 1298 H 127.442 -3.26485 2.57966 0
M  V30 1299 H 126.318 -4.56806 3.04334 0
M  V30 1300 H 126.579 -4.21202 1.34317 0
M  V30 1301 N 125.638 -1.25649 -0.95132 0
M  V30 1302 C 126.884 -1.10757 -1.69884 0
M  V30 1303 C 127.217 0.350061 -1.91019 0
M  V30 1304 O 126.492 1.25783 -1.48354 0
M  V30 1305 C 126.775 -1.86606 -3.07978 0
M  V30 1306 C 126.628 -3.40217 -2.94232 0
M  V30 1307 C 127.947 -1.65182 -4.07925 0
M  V30 1308 H 125.066 -0.40374 -0.616574 0
M  V30 1309 H 127.708 -1.54521 -1.10558 0
M  V30 1310 H 125.858 -1.49409 -3.58621 0
M  V30 1311 H 127.53 -3.87108 -2.50889 0
M  V30 1312 H 125.773 -3.67759 -2.30078 0
M  V30 1313 H 126.444 -3.88505 -3.92133 0
M  V30 1314 H 128.92 -1.9757 -3.66204 0
M  V30 1315 H 127.796 -2.20683 -5.02583 0
M  V30 1316 H 128.057 -0.593933 -4.38092 0
M  V30 1317 N 127.117 1.15442 -1.07289 0
M  V30 1318 C 128.364 1.86213 -0.795668 0
M  V30 1319 C 128.692 1.82291 0.678238 0
M  V30 1320 O 127.947 1.24057 1.51355 0
M  V30 1321 C 128.246 3.3489 -1.24834 0
M  V30 1322 C 127.912 3.59007 -2.72809 0
M  V30 1323 C 126.574 3.65298 -3.13227 0
M  V30 1324 C 128.926 3.68762 -3.68326 0
M  V30 1325 C 126.254 3.78854 -4.4798 0
M  V30 1326 C 128.606 3.83842 -5.0284 0
M  V30 1327 C 127.27 3.88378 -5.4288 0
M  V30 1328 H 126.54 0.681403 -0.291155 0
M  V30 1329 H 129.187 1.36435 -1.34379 0
M  V30 1330 H 127.492 3.8687 -0.619595 0
M  V30 1331 H 129.189 3.88052 -1.01076 0
M  V30 1332 H 125.779 3.5475 -2.40521 0
M  V30 1333 H 129.963 3.63202 -3.38227 0
M  V30 1334 H 125.219 3.80623 -4.78472 0
M  V30 1335 H 129.393 3.90332 -5.76727 0
M  V30 1336 H 127.02 3.98635 -6.47298 0
M  V30 1337 N 128.595 0.856903 1.32268 0
M  V30 1338 C 129.558 0.308171 2.27119 0
M  V30 1339 C 130.558 -0.533421 1.51695 0
M  V30 1340 O 131.748 -0.344607 1.70757 0
M  V30 1341 C 128.88 -0.563757 3.36206 0
M  V30 1342 H 130.073 1.14535 2.77167 0
M  V30 1343 H 127.626 0.631421 1.42978 0
M  V30 1344 H 128.361 -1.42266 2.91429 0
M  V30 1345 H 128.146 0.0386749 3.92081 0
M  V30 1346 H 129.636 -0.940386 4.06874 0
M  V30 1347 N 130.073 -1.45103 0.615059 0
M  V30 1348 C 131.313 -2.04069 0.116282 0
M  V30 1349 C 131.677 -1.4721 -1.2326 0
M  V30 1350 O 132.878 -1.97577 -1.82255 0
M  V30 1351 C 131.149 -3.57298 0.085482 0
M  V30 1352 S 132.708 -4.37394 -0.351015 0
M  V30 1353 H 129.526 -0.709006 0.0532183 0
M  V30 1354 H 132.128 -1.77709 0.81484 0
M  V30 1355 H 130.832 -3.9619 1.0706 0
M  V30 1356 H 130.363 -3.88244 -0.634835 0
M  V30 1357 H 132.378 -4.69734 -1.59889 0
M  V30 1358 N 131.551 -0.354651 -1.53558 0
M  V30 1359 C 132.776 0.242153 -2.05981 0
M  V30 1360 C 133.201 1.42553 -1.2272 0
M  V30 1361 O 132.559 1.79656 -0.243604 0
M  V30 1362 C 132.607 0.624367 -3.55154 0
M  V30 1363 O 131.711 1.72301 -3.74681 0
M  V30 1364 H 131.052 0.0378432 -0.662921 0
M  V30 1365 H 133.582 -0.512087 -1.98088 0
M  V30 1366 H 133.592 0.898433 -3.97985 0
M  V30 1367 H 132.267 -0.240989 -4.15201 0
M  V30 1368 H 130.844 1.44535 -3.4375 0
M  V30 1369 N 133.029 1.57378 -0.0835403 0
M  V30 1370 C 134.276 1.9393 0.58287 0
M  V30 1371 C 134.604 0.964455 1.68904 0
M  V30 1372 O 133.859 -0.0179474 1.95692 0
M  V30 1373 C 134.158 3.37063 1.1884 0
M  V30 1374 C 133.824 4.50424 0.207194 0
M  V30 1375 C 132.486 4.81159 -0.0627115 0
M  V30 1376 C 134.838 5.19136 -0.463426 0
M  V30 1377 C 132.166 5.77939 -1.01012 0
M  V30 1378 C 134.518 6.16931 -1.39924 0
M  V30 1379 C 133.182 6.46078 -1.67749 0
M  V30 1380 H 132.452 0.70964 0.213287 0
M  V30 1381 H 135.099 1.90856 -0.156916 0
M  V30 1382 H 133.404 3.3666 2.00418 0
M  V30 1383 H 135.101 3.6264 1.71153 0
M  V30 1384 H 131.691 4.2646 0.427747 0
M  V30 1385 H 135.875 4.95576 -0.268034 0
M  V30 1386 H 131.131 5.98842 -1.23283 0
M  V30 1387 H 135.305 6.69273 -1.92476 0
M  V30 1388 H 132.932 7.2088 -2.41321 0
M  V30 1389 N 134.507 -0.190092 1.56449 0
M  V30 1390 C 135.753 -0.911052 1.81184 0
M  V30 1391 C 136.086 -1.82699 0.658396 0
M  V30 1392 O 135.361 -1.91491 -0.340775 0
M  V30 1393 C 135.644 -1.72297 3.16205 0
M  V30 1394 C 135.497 -0.831419 4.42049 0
M  V30 1395 C 136.816 -2.69454 3.47969 0
M  V30 1396 H 133.935 -0.32977 0.659106 0
M  V30 1397 H 136.577 -0.178169 1.89163 0
M  V30 1398 H 134.727 -2.34778 3.09534 0
M  V30 1399 H 136.399 -0.220929 4.60771 0
M  V30 1400 H 134.642 -0.138406 4.33579 0
M  V30 1401 H 135.313 -1.43461 5.33032 0
M  V30 1402 H 137.789 -2.17104 3.54972 0
M  V30 1403 H 136.665 -3.23342 4.43555 0
M  V30 1404 H 136.926 -3.48744 2.71717 0
M  V30 1405 N 135.985 -1.50799 -0.457987 0
M  V30 1406 C 136.933 -1.71162 -1.575 0
M  V30 1407 C 137.927 -0.577592 -1.59249 0
M  V30 1408 O 139.133 -0.758443 -1.63241 0
M  V30 1409 H 135.508 -0.540468 -0.522875 0
M  V30 1410 H 137.479 -2.64837 -1.37492 0
M  V30 1411 C 136.228 -1.83496 -2.95338 0
M  V30 1412 H 135.551 -2.70153 -2.94716 0
M  V30 1413 H 136.991 -2.01765 -3.72917 0
M  V30 1414 C 135.45 -0.589694 -3.31699 0
M  V30 1415 O 135.98 0.265163 -4.00824 0
M  V30 1416 N 134.186 -0.439845 -2.87252 0
M  V30 1417 H 133.733 -1.13655 -2.31172 0
M  V30 1418 H 133.691 0.392159 -3.11945 0
M  V30 1419 N 137.463 0.71206 -1.40597 0
M  V30 1420 C 138.71 1.47197 -1.39065 0
M  V30 1421 C 139.038 1.94499 0.00583891 0
M  V30 1422 O 138.293 1.68752 0.99102 0
M  V30 1423 C 138.592 2.71039 -2.32965 0
M  V30 1424 C 138.258 2.42484 -3.80148 0
M  V30 1425 C 136.92 2.34406 -4.20247 0
M  V30 1426 C 139.272 2.18598 -4.73143 0
M  V30 1427 C 136.6 2.00516 -5.51371 0
M  V30 1428 C 138.952 1.8622 -6.0457 0
M  V30 1429 C 137.616 1.76626 -6.43708 0
M  V30 1430 H 136.886 0.538634 -0.508876 0
M  V30 1431 H 139.533 0.815325 -1.73276 0
M  V30 1432 H 137.838 3.41558 -1.91951 0
M  V30 1433 H 139.535 3.29138 -2.29061 0
M  V30 1434 H 136.125 2.49659 -3.4838 0
M  V30 1435 H 140.309 2.23793 -4.42979 0
M  V30 1436 H 135.565 1.91628 -5.80593 0
M  V30 1437 H 139.739 1.66752 -6.76141 0
M  V30 1438 H 137.366 1.50133 -7.45228 0
M  V30 1439 N 138.941 1.26152 0.944643 0
M  V30 1440 C 139.891 1.04081 2.02857 0
M  V30 1441 C 140.875 -0.0256555 1.6088 0
M  V30 1442 O 142.067 0.190884 1.75968 0
M  V30 1443 C 139.196 0.672118 3.36656 0
M  V30 1444 C 138.282 1.77586 3.85128 0
M  V30 1445 N 138.673 3.01272 4.06287 0
M  V30 1446 C 136.971 1.65867 4.1401 0
M  V30 1447 C 137.672 3.72983 4.46384 0
M  V30 1448 N 136.648 3.00653 4.52889 0
M  V30 1449 H 140.45 1.97968 2.17223 0
M  V30 1450 H 137.964 1.16618 1.13022 0
M  V30 1451 H 139.961 0.495166 4.13949 0
M  V30 1452 H 138.621 -0.259307 3.23663 0
M  V30 1453 H 139.632 3.37213 3.93075 0
M  V30 1454 H 136.309 0.796907 4.09824 0
M  V30 1455 H 137.699 4.792 4.70975 0
M  V30 1456 N 140.419 -1.14872 1.07899 0
M  V30 1457 C 141.665 -1.86064 0.806725 0
M  V30 1458 C 141.998 -1.82434 -0.665706 0
M  V30 1459 O 141.273 -1.25138 -1.48899 0
M  V30 1460 C 141.556 -3.34929 1.32267 0
M  V30 1461 C 141.409 -3.47161 2.86006 0
M  V30 1462 C 142.728 -4.29863 0.943717 0
M  V30 1463 H 139.847 -0.675591 0.294526 0
M  V30 1464 H 142.489 -1.34925 1.33773 0
M  V30 1465 H 140.639 -3.78611 0.870974 0
M  V30 1466 H 142.311 -3.12302 3.39507 0
M  V30 1467 H 140.554 -2.88539 3.23925 0
M  V30 1468 H 141.225 -4.51777 3.17177 0
M  V30 1469 H 143.701 -3.9417 1.33302 0
M  V30 1470 H 142.577 -5.32494 1.33198 0
M  V30 1471 H 142.838 -4.41846 -0.149796 0
M  V30 1472 N 141.898 -0.863906 -1.31812 0
M  V30 1473 C 143.145 -0.471836 -1.96926 0
M  V30 1474 C 143.473 0.974578 -1.68322 0
M  V30 1475 O 142.728 1.7003 -0.968933 0
M  V30 1476 C 143.027 -0.668547 -3.51091 0
M  V30 1477 C 142.693 -2.08683 -3.99703 0
M  V30 1478 C 141.355 -2.47471 -4.12688 0
M  V30 1479 C 143.707 -3.01207 -4.25351 0
M  V30 1480 C 141.035 -3.78037 -4.4867 0
M  V30 1481 C 143.387 -4.31282 -4.62794 0
M  V30 1482 C 142.051 -4.69992 -4.73987 0
M  V30 1483 H 141.321 -0.172657 -0.720604 0
M  V30 1484 H 143.968 -1.09573 -1.57054 0
M  V30 1485 H 142.273 0.0385252 -3.91781 0
M  V30 1486 H 143.97 -0.345102 -3.99512 0
M  V30 1487 H 140.56 -1.77566 -3.90087 0
M  V30 1488 H 144.744 -2.72469 -4.14819 0
M  V30 1489 H 140 -4.078 -4.55532 0
M  V30 1490 H 144.174 -5.03031 -4.81594 0
M  V30 1491 H 141.801 -5.71207 -5.01624 0
M  V30 1492 N 143.376 1.44774 -0.622745 0
M  V30 1493 C 144.326 2.2774 0.108889 0
M  V30 1494 C 145.31 1.38189 0.824175 0
M  V30 1495 O 146.502 1.62063 0.711664 0
M  V30 1496 C 143.631 3.25353 1.09546 0
M  V30 1497 C 142.717 4.22392 0.380232 0
M  V30 1498 N 143.108 5.02388 -0.586535 0
M  V30 1499 C 141.406 4.41588 0.625792 0
M  V30 1500 C 142.107 5.72894 -1.00834 0
M  V30 1501 N 141.083 5.42479 -0.348878 0
M  V30 1502 H 144.885 2.86993 -0.63341 0
M  V30 1503 H 142.399 1.5611 -0.447589 0
M  V30 1504 H 144.396 3.83538 1.63414 0
M  V30 1505 H 143.056 2.6766 1.83815 0
M  V30 1506 H 144.067 5.0885 -0.963975 0
M  V30 1507 H 140.744 3.95003 1.352 0
M  V30 1508 H 142.134 6.47158 -1.80656 0
M  V30 1509 N 144.854 0.36279 1.53368 0
M  V30 1510 C 146.102 -0.227326 2.00817 0
M  V30 1511 C 146.423 -1.49511 1.25186 0
M  V30 1512 O 145.693 -1.92482 0.364348 0
M  V30 1513 H 144.273 -0.0869923 0.741917 0
M  V30 1514 H 146.935 0.488381 1.88682 0
M  V30 1515 H 146.031 -0.456273 3.08747 0
M  V30 1516 N 146.332 -1.57332 0.0918853 0
M  V30 1517 C 147.578 -1.94524 -0.573425 0
M  V30 1518 C 147.911 -0.973578 -1.68033 0
M  V30 1519 O 147.186 -0.00609226 -1.94499 0
M  V30 1520 C 147.469 -3.41858 -1.13161 0
M  V30 1521 C 147.322 -4.4979 -0.0299747 0
M  V30 1522 C 148.641 -3.90435 -2.03098 0
M  V30 1523 H 145.76 -0.70734 -0.206975 0
M  V30 1524 H 148.402 -1.89309 0.161942 0
M  V30 1525 H 146.552 -3.46433 -1.7583 0
M  V30 1526 H 148.224 -4.57327 0.604112 0
M  V30 1527 H 146.467 -4.291 0.636833 0
M  V30 1528 H 147.138 -5.50069 -0.461287 0
M  V30 1529 H 149.614 -3.87992 -1.50338 0
M  V30 1530 H 148.49 -4.94097 -2.39081 0
M  V30 1531 H 148.751 -3.29541 -2.94712 0
M  V30 1532 N 147.81 0.181792 -1.56548 0
M  V30 1533 C 149.087 0.926765 -1.72251 0
M  V30 1534 C 149.467 2.00831 -0.650386 0
M  V30 1535 O 148.815 2.26008 0.336521 0
M  V30 1536 C 149.025 1.50106 -3.1507 0
M  V30 1537 C 150.373 1.97805 -3.75711 0
M  V30 1538 O 151.397 1.59922 -3.18282 0
M  V30 1539 O 150.256 2.67555 -4.76525 0
M  V30 1540 H 147.35 0.435506 -0.703039 0
M  V30 1541 H 149.896 0.170443 -1.68842 0
M  V30 1542 H 148.668 0.72212 -3.84579 0
M  V30 1543 H 148.291 2.32186 -3.22763 0
M  V30 1544 N 149.288 1.51039 0.449983 0
M  V30 1545 C 150.513 1.6715 1.22783 0
M  V30 1546 C 150.938 0.363081 1.84563 0
M  V30 1547 O 150.296 -0.675433 1.68249 0
M  V30 1548 C 150.344 2.77985 2.29689 0
M  V30 1549 O 149.448 2.40707 3.34864 0
M  V30 1550 H 148.789 0.557746 0.360299 0
M  V30 1551 H 151.319 1.97535 0.533005 0
M  V30 1552 H 151.329 3.01693 2.74673 0
M  V30 1553 H 150.004 3.72935 1.84098 0
M  V30 1554 H 148.581 2.27523 2.95445 0
M  V30 1555 N 150.766 -0.704594 1.40972 0
M  V30 1556 C 151.713 -1.81862 1.42109 0
M  V30 1557 C 152.683 -1.63781 0.276593 0
M  V30 1558 O 153.868 -1.84759 0.4763 0
M  V30 1559 C 151.008 -3.19669 1.30022 0
M  V30 1560 C 150.121 -3.49246 2.54267 0
M  V30 1561 C 149.256 -4.76618 2.3454 0
M  V30 1562 C 148.295 -4.99133 3.54306 0
M  V30 1563 N 147.432 -6.17726 3.33706 0
M  V30 1564 H 152.272 -1.80226 2.37324 0
M  V30 1565 H 149.809 -0.880238 1.17857 0
M  V30 1566 H 151.767 -3.99263 1.21018 0
M  V30 1567 H 150.397 -3.20506 0.384192 0
M  V30 1568 H 149.449 -2.64125 2.73756 0
M  V30 1569 H 150.761 -3.61788 3.43381 0
M  V30 1570 H 149.915 -5.64249 2.22952 0
M  V30 1571 H 148.654 -4.66305 1.42867 0
M  V30 1572 H 147.659 -4.09953 3.66359 0
M  V30 1573 H 148.884 -5.11311 4.4692 0
M  V30 1574 H 146.83 -6.08642 2.44725 0
M  V30 1575 H 146.747 -6.30995 4.16391 0
M  V30 1576 H 148.015 -7.08115 3.25873 0
M  V30 1577 N 152.244 -1.26651 -0.937939 0
M  V30 1578 C 153.207 -1.08546 -2.01867 0
M  V30 1579 C 154.207 -0.0327327 -1.60767 0
M  V30 1580 O 155.397 -0.276427 -1.71993 0
M  V30 1581 C 152.529 -0.651711 -3.34613 0
M  V30 1582 H 153.722 -2.04502 -2.1936 0
M  V30 1583 H 151.275 -1.09294 -1.11734 0
M  V30 1584 H 152.01 0.309696 -3.22818 0
M  V30 1585 H 151.795 -1.41189 -3.65798 0
M  V30 1586 H 153.285 -0.546973 -4.14002 0
M  V30 1587 N 153.722 1.14298 -1.08507 0
M  V30 1588 C 154.968 1.85633 -0.816581 0
M  V30 1589 C 155.301 1.82784 0.656021 0
M  V30 1590 O 154.576 1.25926 1.48233 0
M  V30 1591 C 154.859 3.34223 -1.34041 0
M  V30 1592 C 154.712 3.45639 -2.87843 0
M  V30 1593 C 156.031 4.29356 -0.9665 0
M  V30 1594 H 153.15 0.67402 -0.298104 0
M  V30 1595 H 155.792 1.34214 -1.34487 0
M  V30 1596 H 153.942 3.78144 -0.89104 0
M  V30 1597 H 155.614 3.10498 -3.41158 0
M  V30 1598 H 153.857 2.86817 -3.25451 0
M  V30 1599 H 154.528 4.50089 -3.19569 0
M  V30 1600 H 157.004 3.93457 -1.35391 0
M  V30 1601 H 155.88 5.3178 -1.3602 0
M  V30 1602 H 156.141 4.41919 0.126362 0
M  V30 1603 N 155.201 0.870884 1.31352 0
M  V30 1604 C 156.448 0.482273 1.96673 0
M  V30 1605 C 156.776 -0.965638 1.68836 0
M  V30 1606 O 156.031 -1.69514 0.977937 0
M  V30 1607 C 156.33 0.687157 3.50732 0
M  V30 1608 C 155.996 2.108 3.9859 0
M  V30 1609 C 154.658 2.49656 4.1137 0
M  V30 1610 C 157.01 3.03459 4.23748 0
M  V30 1611 C 154.338 3.80412 4.46659 0
M  V30 1612 C 156.69 4.3373 4.60501 0
M  V30 1613 C 155.354 4.725 4.71487 0
M  V30 1614 H 154.624 0.176476 0.719679 0
M  V30 1615 H 157.271 1.10405 1.56471 0
M  V30 1616 H 155.576 -0.0177476 3.91796 0
M  V30 1617 H 157.273 0.366284 3.99324 0
M  V30 1618 H 153.863 1.79633 3.8914 0
M  V30 1619 H 158.047 2.74665 4.13368 0
M  V30 1620 H 153.303 4.1021 4.53362 0
M  V30 1621 H 157.477 5.05578 4.78919 0
M  V30 1622 H 155.104 5.73859 4.98588 0
M  V30 1623 N 156.679 -1.44442 0.630414 0
M  V30 1624 C 157.609 -2.33418 -0.0618083 0
M  V30 1625 C 158.59 -1.48165 -0.835541 0
M  V30 1626 O 159.775 -1.76886 -0.801564 0
M  V30 1627 C 156.905 -3.31222 -1.04449 0
M  V30 1628 C 155.859 -4.26288 -0.382436 0
M  V30 1629 C 155.185 -5.13954 -1.47497 0
M  V30 1630 C 156.485 -5.1744 0.710865 0
M  V30 1631 H 158.179 -2.91548 0.681184 0
M  V30 1632 H 155.725 -1.40191 0.329026 0
M  V30 1633 H 157.678 -3.92351 -1.53748 0
M  V30 1634 H 156.402 -2.71299 -1.81836 0
M  V30 1635 H 155.061 -3.6649 0.0899054 0
M  V30 1636 H 154.709 -4.50385 -2.2397 0
M  V30 1637 H 154.409 -5.7837 -1.03737 0
M  V30 1638 H 155.933 -5.77955 -1.96979 0
M  V30 1639 H 157.347 -5.72509 0.300996 0
M  V30 1640 H 155.744 -5.90455 1.07156 0
M  V30 1641 H 156.814 -4.58496 1.57829 0
M  V30 1642 N 158.157 -0.370918 -1.53173 0
M  V30 1643 C 159.087 0.464847 -2.28826 0
M  V30 1644 C 160.068 1.07936 -1.31468 0
M  V30 1645 O 161.253 1.0956 -1.60344 0
M  V30 1646 C 158.383 1.60196 -3.08147 0
M  V30 1647 C 157.337 1.11443 -4.13237 0
M  V30 1648 C 156.663 2.3422 -4.80672 0
M  V30 1649 C 157.963 0.195384 -5.21934 0
M  V30 1650 H 159.657 -0.166329 -2.98938 0
M  V30 1651 H 157.203 -0.0814359 -1.4377 0
M  V30 1652 H 159.156 2.19332 -3.59822 0
M  V30 1653 H 157.88 2.26045 -2.35735 0
M  V30 1654 H 156.539 0.545727 -3.62515 0
M  V30 1655 H 156.187 2.98537 -4.04827 0
M  V30 1656 H 155.887 2.02269 -5.51689 0
M  V30 1657 H 157.411 2.94032 -5.35143 0
M  V30 1658 H 158.825 0.694375 -5.69079 0
M  V30 1659 H 157.222 -0.0335027 -6.00091 0
M  V30 1660 H 158.292 -0.760961 -4.78892 0
M  V30 1661 N 159.635 1.57281 -0.100228 0
M  V30 1662 C 160.582 2.14305 0.856858 0
M  V30 1663 C 161.552 1.06296 1.27634 0
M  V30 1664 O 162.737 1.34109 1.35718 0
M  V30 1665 C 159.877 2.73184 2.10866 0
M  V30 1666 C 158.99 3.95442 1.73925 0
M  V30 1667 C 158.125 4.42468 2.93931 0
M  V30 1668 C 157.164 5.57303 2.5314 0
M  V30 1669 N 156.301 5.99158 3.65997 0
M  V30 1670 H 161.141 2.95772 0.363726 0
M  V30 1671 H 158.678 1.46139 0.167858 0
M  V30 1672 H 160.636 3.05442 2.84185 0
M  V30 1673 H 159.266 1.94437 2.57671 0
M  V30 1674 H 158.318 3.69464 0.905554 0
M  V30 1675 H 159.63 4.78769 1.39935 0
M  V30 1676 H 158.784 4.76537 3.75496 0
M  V30 1677 H 157.523 3.58052 3.31134 0
M  V30 1678 H 156.528 5.22857 1.70003 0
M  V30 1679 H 157.753 6.43471 2.17075 0
M  V30 1680 H 155.699 5.17687 4.02909 0
M  V30 1681 H 155.616 6.77295 3.35869 0
M  V30 1682 H 156.884 6.3786 4.48057 0
M  V30 1683 N 161.113 -0.173488 1.56642 0
M  V30 1684 C 162.362 -0.888758 1.81063 0
M  V30 1685 C 162.675 -1.83506 0.67712 0
M  V30 1686 O 163.881 -2.59254 0.806206 0
M  V30 1687 C 162.337 -1.63091 3.20826 0
M  V30 1688 C 161.945 -0.728357 4.4204 0
M  V30 1689 C 163.689 -2.33454 3.54541 0
M  V30 1690 C 161.596 -1.47062 5.72823 0
M  V30 1691 H 160.526 -0.335618 0.675186 0
M  V30 1692 H 163.177 -0.141712 1.82952 0
M  V30 1693 H 161.559 -2.42263 3.13248 0
M  V30 1694 H 162.733 0.0262449 4.60793 0
M  V30 1695 H 161.048 -0.134492 4.16183 0
M  V30 1696 H 163.645 -2.89578 4.49498 0
M  V30 1697 H 163.988 -3.08687 2.79317 0
M  V30 1698 H 164.521 -1.61227 3.63663 0
M  V30 1699 H 161.26 -0.760658 6.51072 0
M  V30 1700 H 160.78 -2.1986 5.58052 0
M  V30 1701 H 162.459 -2.01868 6.14702 0
M  V30 1702 N 162.591 -1.51276 -0.441967 0
M  V30 1703 C 163.839 -1.63392 -1.18943 0
M  V30 1704 C 164.16 -0.350159 -1.9183 0
M  V30 1705 O 163.43 0.633784 -1.85364 0
M  V30 1706 H 162.01 -0.602164 -0.442049 0
M  V30 1707 H 164.672 -1.88186 -0.507165 0
M  V30 1708 H 163.768 -2.45934 -1.92154 0
M  V30 1709 N 164.069 0.697108 -1.41344 0
M  V30 1710 C 165.294 1.49096 -1.44171 0
M  V30 1711 C 165.719 1.88038 -0.0481568 0
M  V30 1712 O 165.077 1.54525 0.948243 0
M  V30 1713 C 165.125 2.73088 -2.3549 0
M  V30 1714 O 164.229 3.70514 -1.81088 0
M  V30 1715 H 163.57 0.448801 -0.489361 0
M  V30 1716 H 166.1 0.856992 -1.85787 0
M  V30 1717 H 166.11 3.21413 -2.51312 0
M  V30 1718 H 164.785 2.44081 -3.36745 0
M  V30 1719 H 163.362 3.29441 -1.74708 0
M  V30 1720 N 165.547 1.27147 0.931209 0
M  V30 1721 C 166.793 1.13446 1.68101 0
M  V30 1722 C 167.126 -0.319628 1.91552 0
M  V30 1723 O 166.401 -1.23407 1.50336 0
M  V30 1724 C 166.684 1.91482 3.0497 0
M  V30 1725 C 166.537 3.44855 2.88782 0
M  V30 1726 C 167.856 1.71651 4.05246 0
M  V30 1727 H 164.975 0.413498 0.610072 0
M  V30 1728 H 167.617 1.56261 1.08086 0
M  V30 1729 H 165.767 1.55095 3.56199 0
M  V30 1730 H 167.439 3.9105 2.44698 0
M  V30 1731 H 165.682 3.71373 2.24198 0
M  V30 1732 H 166.353 3.94694 3.85902 0
M  V30 1733 H 168.829 2.0337 3.63015 0
M  V30 1734 H 167.705 2.28651 4.99009 0
M  V30 1735 H 167.966 0.663555 4.37092 0
M  V30 1736 N 167.025 -1.13721 1.09112 0
M  V30 1737 C 168.253 -1.88773 0.846899 0
M  V30 1738 C 168.668 -1.7896 -0.601572 0
M  V30 1739 O 168.025 -1.15394 -1.41388 0
M  V30 1740 C 168.076 -3.3849 1.26913 0
M  V30 1741 O 167.797 -3.48043 2.66079 0
M  V30 1742 C 169.298 -4.30518 1.05682 0
M  V30 1743 H 166.518 -0.59772 0.304914 0
M  V30 1744 H 169.062 -1.43977 1.45227 0
M  V30 1745 H 167.217 -3.80881 0.707723 0
M  V30 1746 H 167.631 -4.4109 2.83795 0
M  V30 1747 H 169.105 -5.3391 1.40156 0
M  V30 1748 H 169.582 -4.392 -0.00563416 0
M  V30 1749 H 170.188 -3.93893 1.60402 0
M  V30 1750 N 168.503 -0.877838 -1.30888 0
M  V30 1751 C 169.436 -0.283995 -2.26426 0
M  V30 1752 C 170.414 0.591361 -1.51465 0
M  V30 1753 O 171.598 0.54304 -1.80509 0
M  V30 1754 C 168.725 0.597129 -3.33395 0
M  V30 1755 C 167.771 -0.207937 -4.25993 0
M  V30 1756 S 168.604 -1.59158 -5.11301 0
M  V30 1757 C 169.76 -0.716791 -6.21782 0
M  V30 1758 H 169.993 -1.09383 -2.76446 0
M  V30 1759 H 167.526 -0.676828 -1.38775 0
M  V30 1760 H 169.484 1.09978 -3.95493 0
M  V30 1761 H 168.145 1.38099 -2.82113 0
M  V30 1762 H 167.338 0.464163 -5.01858 0
M  V30 1763 H 166.94 -0.642963 -3.68432 0
M  V30 1764 H 169.232 0.0692833 -6.77465 0
M  V30 1765 H 170.175 -1.44682 -6.93161 0
M  V30 1766 H 170.583 -0.280855 -5.63801 0
M  V30 1767 N 169.982 1.44106 -0.638065 0
M  V30 1768 C 171.21 2.06336 -0.152615 0
M  V30 1769 C 171.625 1.47731 1.17563 0
M  V30 1770 O 170.982 0.602806 1.72257 0
M  V30 1771 C 171.033 3.61479 -0.0391491 0
M  V30 1772 O 170.754 4.17903 -1.31487 0
M  V30 1773 C 172.255 4.40757 0.474176 0
M  V30 1774 H 169.475 0.665862 -0.0828776 0
M  V30 1775 H 172.019 1.84862 -0.87443 0
M  V30 1776 H 170.174 3.82191 0.633142 0
M  V30 1777 H 170.588 5.11416 -1.16421 0
M  V30 1778 H 172.062 5.49707 0.502562 0
M  V30 1779 H 172.539 4.12697 1.50258 0
M  V30 1780 H 173.145 4.24979 -0.165102 0
M  V30 1781 N 171.46 0.379036 1.52974 0
M  V30 1782 C 172.707 -0.206421 2.01445 0
M  V30 1783 C 173.035 -1.47668 1.26587 0
M  V30 1784 O 172.29 -1.92514 0.351675 0
M  V30 1785 C 172.589 -0.53096 3.53434 0
M  V30 1786 C 172.255 0.646546 4.46241 0
M  V30 1787 C 170.917 0.969604 4.7133 0
M  V30 1788 C 173.269 1.43479 5.01062 0
M  V30 1789 C 170.597 2.08263 5.48492 0
M  V30 1790 C 172.949 2.53834 5.7944 0
M  V30 1791 C 171.613 2.86659 6.02812 0
M  V30 1792 H 170.883 -0.0755349 0.73714 0
M  V30 1793 H 173.53 0.514271 1.84465 0
M  V30 1794 H 171.835 -1.33285 3.68432 0
M  V30 1795 H 173.532 -0.996417 3.88423 0
M  V30 1796 H 170.122 0.384734 4.2687 0
M  V30 1797 H 174.306 1.19844 4.81613 0
M  V30 1798 H 169.562 2.34078 5.64816 0
M  V30 1799 H 173.736 3.15319 6.20924 0
M  V30 1800 H 171.363 3.73026 6.62387 0
M  V30 1801 N 172.938 -1.57226 0.108567 0
M  V30 1802 C 174.166 -1.99179 -0.559954 0
M  V30 1803 C 174.581 -0.988022 -1.60884 0
M  V30 1804 O 173.938 0.0205512 -1.82488 0
M  V30 1805 C 173.989 -3.41159 -1.19552 0
M  V30 1806 O 173.71 -4.37694 -0.188577 0
M  V30 1807 C 175.211 -3.98188 -1.94837 0
M  V30 1808 H 172.431 -0.654228 -0.149088 0
M  V30 1809 H 174.975 -2.03598 0.19183 0
M  V30 1810 H 173.13 -3.37711 -1.89815 0
M  V30 1811 H 173.544 -5.20469 -0.649014 0
M  V30 1812 H 175.018 -4.99644 -2.34648 0
M  V30 1813 H 175.495 -3.3675 -2.81951 0
M  V30 1814 H 176.101 -4.0515 -1.2936 0
M  V30 1815 N 174.416 0.165178 -1.56732 0
M  V30 1816 C 175.379 1.18822 -1.95995 0
M  V30 1817 C 176.379 1.3685 -0.84431 0
M  V30 1818 O 177.569 1.34152 -1.11126 0
M  V30 1819 C 174.701 2.5521 -2.26011 0
M  V30 1820 H 175.894 0.851825 -2.87548 0
M  V30 1821 H 173.447 0.407857 -1.50885 0
M  V30 1822 H 174.182 2.93852 -1.37191 0
M  V30 1823 H 173.967 2.43489 -3.07336 0
M  V30 1824 H 175.457 3.28927 -2.57288 0
M  V30 1825 N 175.894 1.51508 0.433938 0
M  V30 1826 C 177.119 1.68443 1.21003 0
M  V30 1827 C 177.544 0.382636 1.84167 0
M  V30 1828 O 176.902 -0.65755 1.68956 0
M  V30 1829 C 176.95 2.80405 2.26727 0
M  V30 1830 O 176.054 2.44245 3.32292 0
M  V30 1831 H 175.395 0.561536 0.354363 0
M  V30 1832 H 177.925 1.9809 0.512024 0
M  V30 1833 H 177.935 3.0459 2.71457 0
M  V30 1834 H 176.61 3.74867 1.80132 0
M  V30 1835 H 175.187 2.30644 2.93015 0
M  V30 1836 N 177.372 -0.689602 1.41712 0
M  V30 1837 C 178.618 -1.45181 1.41599 0
M  V30 1838 C 178.951 -1.94181 0.0270081 0
M  V30 1839 O 178.226 -1.6993 -0.946265 0
M  V30 1840 C 178.509 -2.65945 2.42787 0
M  V30 1841 C 178.362 -2.22672 3.90816 0
M  V30 1842 C 179.681 -3.68149 2.41151 0
M  V30 1843 H 176.8 -0.526576 0.515642 0
M  V30 1844 H 179.442 -0.784947 1.73028 0
M  V30 1845 H 177.592 -3.2284 2.16116 0
M  V30 1846 H 179.264 -1.71058 4.28412 0
M  V30 1847 H 177.507 -1.54394 4.05395 0
M  V30 1848 H 178.178 -3.0935 4.57172 0
M  V30 1849 H 180.654 -3.2094 2.64834 0
M  V30 1850 H 179.53 -4.50248 3.13955 0
M  V30 1851 H 179.791 -4.18259 1.43221 0
M  V30 1852 N 178.85 -1.27639 -0.924453 0
M  V30 1853 C 180.098 -1.13941 -1.66918 0
M  V30 1854 C 180.419 0.314589 -1.92446 0
M  V30 1855 O 179.689 1.21964 -1.53303 0
M  V30 1856 H 178.269 -0.418678 -0.618642 0
M  V30 1857 H 180.931 -1.60213 -1.10985 0
M  V30 1858 H 180.027 -1.67094 -2.63602 0
M  V30 1859 N 180.328 1.1314 -1.09713 0
M  V30 1860 C 181.553 1.88862 -0.857081 0
M  V30 1861 C 181.978 1.78729 0.586304 0
M  V30 1862 O 181.336 1.13692 1.41222 0
M  V30 1863 C 181.384 3.36325 -1.30069 0
M  V30 1864 O 180.488 4.09815 -0.461007 0
M  V30 1865 H 179.829 0.587108 -0.310162 0
M  V30 1866 H 182.359 1.43129 -1.46203 0
M  V30 1867 H 182.369 3.87157 -1.28738 0
M  V30 1868 H 181.044 3.43017 -2.35185 0
M  V30 1869 H 179.621 3.68986 -0.538888 0
M  V30 1870 N 181.806 0.884767 1.30421 0
M  V30 1871 C 182.736 0.367574 2.30589 0
M  V30 1872 C 183.717 -0.549464 1.60981 0
M  V30 1873 O 184.902 -0.46336 1.88591 0
M  V30 1874 C 182.032 -0.418944 3.44764 0
M  V30 1875 C 180.986 0.406316 4.26067 0
M  V30 1876 C 180.312 -0.506793 5.32293 0
M  V30 1877 C 181.612 1.64832 4.95608 0
M  V30 1878 H 183.306 1.20462 2.74097 0
M  V30 1879 H 180.852 0.580695 1.31772 0
M  V30 1880 H 182.805 -0.791395 4.13902 0
M  V30 1881 H 181.529 -1.28964 3.0006 0
M  V30 1882 H 180.188 0.760903 3.58617 0
M  V30 1883 H 179.836 -1.37519 4.83836 0
M  V30 1884 H 179.536 0.0415828 5.87585 0
M  V30 1885 H 181.06 -0.875764 6.04287 0
M  V30 1886 H 182.474 1.34646 5.57264 0
M  V30 1887 H 180.871 2.13688 5.60765 0
M  V30 1888 H 181.941 2.39284 4.21748 0
M  V30 1889 N 183.284 -1.43765 0.645699 0
M  V30 1890 C 184.214 -2.33471 -0.0370477 0
M  V30 1891 C 185.195 -1.49042 -0.819779 0
M  V30 1892 O 186.38 -1.77726 -0.782758 0
M  V30 1893 C 183.51 -3.32311 -1.0093 0
M  V30 1894 C 182.464 -4.2667 -0.337201 0
M  V30 1895 C 181.79 -5.1549 -1.42037 0
M  V30 1896 C 183.09 -5.16657 0.765706 0
M  V30 1897 H 184.784 -2.90809 0.712069 0
M  V30 1898 H 182.33 -1.39834 0.343876 0
M  V30 1899 H 184.283 -3.9396 -1.49578 0
M  V30 1900 H 183.007 -2.73213 -1.78948 0
M  V30 1901 H 181.666 -3.66374 0.128771 0
M  V30 1902 H 181.314 -4.52735 -2.1918 0
M  V30 1903 H 181.014 -5.79438 -0.975966 0
M  V30 1904 H 182.538 -5.80012 -1.90838 0
M  V30 1905 H 183.952 -5.72158 0.361702 0
M  V30 1906 H 182.349 -5.89286 1.13413 0
M  V30 1907 H 183.419 -4.56796 1.62683 0
M  V30 1908 N 184.763 -0.387143 -1.52771 0
M  V30 1909 C 185.693 0.440551 -2.29306 0
M  V30 1910 C 186.674 1.06535 -1.32606 0
M  V30 1911 O 187.859 1.07853 -1.61497 0
M  V30 1912 C 184.989 1.56919 -3.09829 0
M  V30 1913 C 183.943 1.07054 -4.14395 0
M  V30 1914 C 183.269 2.29109 -4.83129 0
M  V30 1915 C 184.569 0.140015 -5.22112 0
M  V30 1916 H 186.263 -0.198026 -2.98744 0
M  V30 1917 H 183.809 -0.09668 -1.43675 0
M  V30 1918 H 185.762 2.15503 -3.62128 0
M  V30 1919 H 184.486 2.23532 -2.3812 0
M  V30 1920 H 183.145 0.507247 -3.63074 0
M  V30 1921 H 182.793 2.94227 -4.0797 0
M  V30 1922 H 182.493 1.96406 -5.53804 0
M  V30 1923 H 184.017 2.88339 -5.38231 0
M  V30 1924 H 185.431 0.633978 -5.69784 0
M  V30 1925 H 183.828 -0.0971485 -6.00021 0
M  V30 1926 H 184.898 -0.811711 -4.78058 0
M  V30 1927 N 186.241 1.57166 -0.116904 0
M  V30 1928 C 187.469 1.99473 0.549383 0
M  V30 1929 C 187.884 0.996541 1.60357 0
M  V30 1930 O 187.241 -0.0108731 1.82497 0
M  V30 1931 C 187.292 3.41788 1.17741 0
M  V30 1932 O 187.013 4.37788 0.165362 0
M  V30 1933 C 188.514 3.99216 1.92722 0
M  V30 1934 H 185.734 0.655009 0.145616 0
M  V30 1935 H 188.278 2.03494 -0.202625 0
M  V30 1936 H 186.433 3.38713 1.88021 0
M  V30 1937 H 186.847 5.20806 0.621403 0
M  V30 1938 H 188.321 5.00882 2.31995 0
M  V30 1939 H 188.798 3.3824 2.80161 0
M  V30 1940 H 189.404 4.0583 1.27209 0
M  V30 1941 N 187.719 -0.156864 1.56817 0
M  V30 1942 C 188.682 -1.17781 1.96622 0
M  V30 1943 C 189.682 -1.36401 0.851555 0
M  V30 1944 O 190.872 -1.33561 1.11836 0
M  V30 1945 C 188.004 -2.54008 2.27361 0
M  V30 1946 H 189.197 -0.836564 2.87996 0
M  V30 1947 H 186.75 -0.39985 1.51099 0
M  V30 1948 H 187.485 -2.9312 1.38748 0
M  V30 1949 H 187.27 -2.41856 3.08623 0
M  V30 1950 H 188.76 -3.27558 2.59029 0
M  V30 1951 N 189.197 -1.51736 -0.425897 0
M  V30 1952 C 190.446 -1.64201 -1.17136 0
M  V30 1953 C 190.759 -0.369705 -1.92074 0
M  V30 1954 O 191.965 -0.373898 -2.68913 0
M  V30 1955 C 190.421 -2.90035 -2.13091 0
M  V30 1956 C 190.029 -4.24312 -1.43747 0
M  V30 1957 C 191.773 -3.1186 -2.87999 0
M  V30 1958 C 189.68 -5.41285 -2.38253 0
M  V30 1959 H 188.61 -0.611624 -0.440944 0
M  V30 1960 H 191.261 -1.78212 -0.437328 0
M  V30 1961 H 189.643 -2.69684 -2.89977 0
M  V30 1962 H 190.817 -4.55086 -0.723408 0
M  V30 1963 H 189.132 -4.08456 -0.809465 0
M  V30 1964 H 191.729 -3.96427 -3.58817 0
M  V30 1965 H 192.072 -2.25403 -3.49999 0
M  V30 1966 H 192.605 -3.32605 -2.18217 0
M  V30 1967 H 189.344 -6.30037 -1.80925 0
M  V30 1968 H 188.864 -5.14872 -3.0768 0
M  V30 1969 H 190.543 -5.73694 -2.99139 0
M  V30 1970 N 190.675 0.682077 -1.42076 0
M  V30 1971 C 191.952 1.43755 -1.32642 0
M  V30 1972 C 192.332 2.11063 0.0396611 0
M  V30 1973 O 191.68 2.02701 1.05474 0
M  V30 1974 C 191.89 2.44596 -2.48946 0
M  V30 1975 C 193.238 3.09454 -2.9073 0
M  V30 1976 O 194.262 2.54922 -2.48783 0
M  V30 1977 O 193.121 4.08253 -3.63307 0
M  V30 1978 H 190.215 0.640857 -0.522715 0
M  V30 1979 H 192.761 0.711415 -1.54068 0
M  V30 1980 H 191.533 1.93609 -3.40046 0
M  V30 1981 H 191.156 3.24701 -2.29467 0
M  V30 1982 N 192.153 1.28127 0.917671 0
M  V30 1983 C 193.569 1.05749 1.19538 0
M  V30 1984 C 193.769 -0.202633 2.00479 0
M  V30 1985 O 192.825 -0.905382 2.3571 0
M  V30 1986 C 194.138 2.30273 1.93378 0
M  V30 1987 C 195.686 2.35412 2.06277 0
M  V30 1988 C 196.161 3.59692 2.83524 0
M  V30 1989 N 197.652 3.60309 2.91087 0
M  V30 1990 C 198.387 4.53147 3.51348 0
M  V30 1991 N 197.883 5.563 4.12919 0
M  V30 1992 N 199.676 4.40751 3.48849 0
M  V30 1993 H 191.827 2.09024 0.377184 0
M  V30 1994 H 194.09 0.919798 0.22951 0
M  V30 1995 H 193.796 3.22055 1.41328 0
M  V30 1996 H 193.67 2.36378 2.93947 0
M  V30 1997 H 196.057 1.4413 2.57508 0
M  V30 1998 H 196.138 2.33304 1.04895 0
M  V30 1999 H 195.782 4.51316 2.32973 0
M  V30 2000 H 195.712 3.59054 3.85211 0
M  V30 2001 H 198.203 2.85714 2.47338 0
M  V30 2002 H 198.516 6.2329 4.56869 0
M  V30 2003 H 196.861 5.60131 4.11435 0
M  V30 2004 H 200.052 3.59367 2.99955 0
M  V30 2005 H 200.225 5.13291 3.9552 0
M  V30 2006 N 193.631 -1.12557 1.10312 0
M  V30 2007 C 194.861 -1.87592 0.865617 0
M  V30 2008 C 195.269 -1.79851 -0.587389 0
M  V30 2009 O 194.612 -1.16949 -1.41664 0
M  V30 2010 C 194.674 -3.37665 1.23381 0
M  V30 2011 C 194.338 -3.69181 2.69359 0
M  V30 2012 C 195.335 -3.67652 3.67597 0
M  V30 2013 C 193.02 -3.98555 3.05711 0
M  V30 2014 C 195.014 -3.95053 5.00212 0
M  V30 2015 C 192.701 -4.25616 4.38514 0
M  V30 2016 C 193.699 -4.23851 5.35574 0
M  V30 2017 O 193.387 -4.50242 6.65986 0
M  V30 2018 H 193.119 -0.600442 0.310557 0
M  V30 2019 H 195.673 -1.4335 1.47105 0
M  V30 2020 H 193.903 -3.82454 0.571467 0
M  V30 2021 H 195.592 -3.94041 0.973994 0
M  V30 2022 H 196.358 -3.45024 3.40857 0
M  V30 2023 H 192.237 -3.99071 2.30789 0
M  V30 2024 H 195.781 -3.93591 5.75962 0
M  V30 2025 H 191.678 -4.47718 4.64994 0
M  V30 2026 H 192.446 -4.67867 6.71597 0
M  V30 2027 N 195.109 -0.891671 -1.2995 0
M  V30 2028 C 196.039 -0.379797 -2.30391 0
M  V30 2029 C 197.02 0.540919 -1.6127 0
M  V30 2030 O 198.205 0.453352 -1.88834 0
M  V30 2031 C 195.335 0.400654 -3.44981 0
M  V30 2032 C 194.289 -0.428905 -4.25846 0
M  V30 2033 C 193.615 0.478557 -5.32554 0
M  V30 2034 C 194.915 -1.67458 -4.94727 0
M  V30 2035 H 196.609 -1.21914 -2.73454 0
M  V30 2036 H 194.155 -0.587675 -1.31462 0
M  V30 2037 H 196.108 0.769434 -4.14316 0
M  V30 2038 H 194.832 1.27371 -3.0074 0
M  V30 2039 H 193.491 -0.779911 -3.58208 0
M  V30 2040 H 193.139 1.34951 -4.84559 0
M  V30 2041 H 192.839 -0.0727433 -5.87555 0
M  V30 2042 H 194.363 0.843705 -6.04743 0
M  V30 2043 H 195.777 -1.376 -5.56542 0
M  V30 2044 H 194.174 -2.16659 -5.59624 0
M  V30 2045 H 195.244 -2.41518 -4.20473 0
M  V30 2046 N 196.587 1.43421 -0.653314 0
M  V30 2047 C 197.827 2.03689 -0.170346 0
M  V30 2048 C 198.191 1.50427 1.19314 0
M  V30 2049 O 199.392 2.0234 1.76952 0
M  V30 2050 C 197.663 3.56946 -0.180183 0
M  V30 2051 S 199.222 4.38171 0.234925 0
M  V30 2052 H 196.04 0.707345 -0.0719976 0
M  V30 2053 H 198.642 1.75486 -0.86167 0
M  V30 2054 H 197.346 3.93212 -1.17526 0
M  V30 2055 H 196.877 3.89791 0.531675 0
M  V30 2056 H 198.892 4.73808 1.47378 0
M  V30 2057 N 198.065 0.39524 1.52563 0
M  V30 2058 C 198.995 -0.428384 2.29537 0
M  V30 2059 C 199.976 -1.05831 1.33169 0
M  V30 2060 O 201.161 -1.06995 1.62067 0
M  V30 2061 C 198.291 -1.55274 3.10656 0
M  V30 2062 C 197.245 -1.04855 4.14957 0
M  V30 2063 C 196.571 -2.26543 4.84337 0
M  V30 2064 C 197.871 -0.112324 5.22179 0
M  V30 2065 H 199.565 0.213867 2.98635 0
M  V30 2066 H 197.111 0.104298 1.43622 0
M  V30 2067 H 199.064 -2.1358 3.63265 0
M  V30 2068 H 197.788 -2.22266 2.39302 0
M  V30 2069 H 196.447 -0.487985 3.63338 0
M  V30 2070 H 196.095 -2.92059 4.09525 0
M  V30 2071 H 195.795 -1.93466 5.54837 0
M  V30 2072 H 197.319 -2.85481 5.39753 0
M  V30 2073 H 198.733 -0.603752 5.70112 0
M  V30 2074 H 197.13 0.128968 5.99961 0
M  V30 2075 H 198.2 0.837052 4.77621 0
M  V30 2076 N 199.544 -1.57102 0.125237 0
M  V30 2077 C 200.96 -1.57915 -0.231322 0
M  V30 2078 C 201.16 -1.13833 -1.66266 0
M  V30 2079 O 200.216 -0.828581 -2.38518 0
M  V30 2080 C 201.529 -3.00699 0.00766489 0
M  V30 2081 C 203.077 -3.12947 -0.0577483 0
M  V30 2082 C 203.552 -4.57742 0.153626 0
M  V30 2083 N 205.043 -4.63092 0.0998073 0
M  V30 2084 C 205.778 -5.72905 0.238174 0
M  V30 2085 N 205.274 -6.91445 0.433057 0
M  V30 2086 N 207.067 -5.6182 0.177308 0
M  V30 2087 H 199.218 -1.84055 1.06007 0
M  V30 2088 H 201.481 -0.850905 0.417929 0
M  V30 2089 H 201.187 -3.3726 0.997431 0
M  V30 2090 H 201.061 -3.70236 -0.721452 0
M  V30 2091 H 203.448 -2.7624 -1.03804 0
M  V30 2092 H 203.529 -2.4594 0.70335 0
M  V30 2093 H 203.173 -4.95149 1.13092 0
M  V30 2094 H 203.103 -5.22848 -0.627534 0
M  V30 2095 H 205.594 -3.77871 -0.047051 0
M  V30 2096 H 205.907 -7.70985 0.529332 0
M  V30 2097 H 204.252 -6.93415 0.469109 0
M  V30 2098 H 207.443 -4.68093 0.0259748 0
M  V30 2099 H 207.616 -6.47357 0.288582 0
M  V30 2100 N 201.022 0.148545 -1.56898 0
M  V30 2101 C 202.252 0.875118 -1.8715 0
M  V30 2102 C 202.66 1.75322 -0.711262 0
M  V30 2103 O 202.003 1.80745 0.328151 0
M  V30 2104 C 202.065 1.7844 -3.12089 0
M  V30 2105 C 201.729 1.08361 -4.43967 0
M  V30 2106 C 202.726 0.438247 -5.1805 0
M  V30 2107 C 200.411 1.07358 -4.90693 0
M  V30 2108 C 202.405 -0.20779 -6.37061 0
M  V30 2109 C 200.092 0.42373 -6.09629 0
M  V30 2110 C 201.09 -0.215829 -6.82659 0
M  V30 2111 O 200.778 -0.855378 -7.99336 0
M  V30 2112 H 200.51 0.258504 -0.624621 0
M  V30 2113 H 203.064 0.14652 -2.04877 0
M  V30 2114 H 201.294 2.55389 -2.90367 0
M  V30 2115 H 202.983 2.38279 -3.286 0
M  V30 2116 H 203.749 0.437817 -4.8302 0
M  V30 2117 H 199.628 1.5608 -4.33774 0
M  V30 2118 H 203.172 -0.70758 -6.94002 0
M  V30 2119 H 199.069 0.421822 -6.4412 0
M  V30 2120 H 199.837 -0.756892 -8.14993 0
M  V30 2121 N 202.5 1.5196 0.417844 0
M  V30 2122 C 203.911 1.57851 0.997 0
M  V30 2123 C 204.262 0.413714 1.91789 0
M  V30 2124 O 203.387 -0.467057 2.113 0
M  V30 2125 C 203.982 2.86085 1.81496 0
M  V30 2126 C 202.541 2.94483 2.34428 0
M  V30 2127 C 201.688 2.52707 1.14169 0
M  V30 2128 H 204.639 1.57455 0.198392 0
M  V30 2129 H 204.66 2.70947 2.67148 0
M  V30 2130 H 204.172 3.70842 1.14446 0
M  V30 2131 H 202.273 2.142 3.04875 0
M  V30 2132 H 202.386 3.98546 2.65891 0
M  V30 2133 H 200.75 2.06353 1.49301 0
M  V30 2134 H 201.533 3.39828 0.486999 0
M  V30 2135 N 203.978 -0.674533 1.42435 0
M  V30 2136 C 205.389 -1.25514 1.38214 0
M  V30 2137 C 205.74 -1.96055 0.0755464 0
M  V30 2138 O 204.865 -2.00028 -0.8257 0
M  V30 2139 C 205.46 -2.28269 2.50357 0
M  V30 2140 C 204.019 -2.81856 2.49467 0
M  V30 2141 C 203.166 -1.56182 2.29134 0
M  V30 2142 H 206.117 -0.467902 1.51646 0
M  V30 2143 H 206.138 -3.10009 2.20624 0
M  V30 2144 H 205.65 -1.769 3.45439 0
M  V30 2145 H 203.751 -3.37346 1.58204 0
M  V30 2146 H 203.864 -3.30854 3.46515 0
M  V30 2147 H 202.228 -1.82761 1.774 0
M  V30 2148 H 203.011 -1.06778 3.26272 0
M  V30 2149 N 205.456 -1.28612 -0.910864 0
M  V30 2150 C 206.681 -1.1891 -1.69927 0
M  V30 2151 C 207.106 0.248372 -1.86453 0
M  V30 2152 O 206.464 1.17961 -1.37676 0
M  V30 2153 C 206.512 -1.89578 -3.06745 0
M  V30 2154 O 205.616 -1.20521 -3.94396 0
M  V30 2155 H 204.957 -0.412632 -0.520222 0
M  V30 2156 H 207.487 -1.69985 -1.1387 0
M  V30 2157 H 207.497 -1.97597 -3.56958 0
M  V30 2158 H 206.172 -2.94136 -2.94035 0
M  V30 2159 H 204.749 -1.20684 -3.52831 0
M  V30 2160 N 206.934 1.1197 -1.10907 0
M  V30 2161 C 208.164 1.8713 -0.875553 0
M  V30 2162 C 208.572 1.8016 0.577843 0
M  V30 2163 O 207.915 1.17699 1.41042 0
M  V30 2164 C 207.977 3.37005 -1.2517 0
M  V30 2165 C 207.641 3.67748 -2.71313 0
M  V30 2166 C 208.638 3.65698 -3.69542 0
M  V30 2167 C 206.323 3.96928 -3.07821 0
M  V30 2168 C 208.317 3.92395 -5.023 0
M  V30 2169 C 206.004 4.23284 -4.40765 0
M  V30 2170 C 207.002 4.21005 -5.37814 0
M  V30 2171 O 206.69 4.46704 -6.68364 0
M  V30 2172 H 206.422 0.598786 -0.313737 0
M  V30 2173 H 208.976 1.42568 -1.47863 0
M  V30 2174 H 207.206 3.82146 -0.591741 0
M  V30 2175 H 208.895 3.93519 -0.994877 0
M  V30 2176 H 209.661 3.43211 -3.42682 0
M  V30 2177 H 205.54 3.97841 -2.32902 0
M  V30 2178 H 209.084 3.90531 -5.78041 0
M  V30 2179 H 204.981 4.45246 -4.67361 0
M  V30 2180 H 205.749 4.64299 -6.74069 0
M  V30 2181 N 208.412 0.89855 1.29475 0
M  V30 2182 C 209.359 0.373819 2.27753 0
M  V30 2183 C 210.329 -0.543444 1.56958 0
M  V30 2184 O 211.514 -0.468934 1.84948 0
M  V30 2185 C 208.654 -0.393648 3.42848 0
M  V30 2186 C 207.767 0.554379 4.28428 0
M  V30 2187 C 206.902 -0.230026 5.30702 0
M  V30 2188 C 205.941 0.712599 6.07938 0
M  V30 2189 N 205.078 -0.0373283 7.0209 0
M  V30 2190 H 209.918 1.21699 2.72017 0
M  V30 2191 H 207.455 0.611456 1.33789 0
M  V30 2192 H 209.413 -0.85466 4.08352 0
M  V30 2193 H 208.043 -1.20128 2.99615 0
M  V30 2194 H 207.095 1.13391 3.63107 0
M  V30 2195 H 208.407 1.27597 4.82204 0
M  V30 2196 H 207.561 -0.752288 6.02018 0
M  V30 2197 H 206.3 -0.984758 4.77654 0
M  V30 2198 H 205.305 1.24637 5.35486 0
M  V30 2199 H 206.53 1.46664 6.63074 0
M  V30 2200 H 204.476 -0.774348 6.51414 0
M  V30 2201 H 204.393 0.624374 7.53417 0
M  V30 2202 H 205.661 -0.539891 7.77628 0
M  V30 2203 N 209.89 -1.43072 0.660911 0
M  V30 2204 C 210.853 -2.29194 -0.0166406 0
M  V30 2205 C 211.853 -1.42609 -0.742912 0
M  V30 2206 O 213.043 -1.64155 -0.583004 0
M  V30 2207 C 210.175 -3.24831 -1.0343 0
M  V30 2208 H 211.368 -2.90596 0.741208 0
M  V30 2209 H 208.921 -1.5048 0.422532 0
M  V30 2210 H 209.656 -2.68339 -1.82111 0
M  V30 2211 H 209.441 -3.88676 -0.517082 0
M  V30 2212 H 210.931 -3.89451 -1.50723 0
M  V30 2213 N 211.368 -0.403325 -1.52352 0
M  V30 2214 C 212.298 0.416205 -2.29761 0
M  V30 2215 C 213.279 1.05123 -1.33728 0
M  V30 2216 O 214.464 1.06134 -1.62632 0
M  V30 2217 C 211.594 1.53624 -3.11475 0
M  V30 2218 C 210.548 1.02653 -4.15507 0
M  V30 2219 C 209.874 2.23971 -4.85532 0
M  V30 2220 C 211.174 0.08463 -5.22231 0
M  V30 2221 H 212.868 -0.229701 -2.98518 0
M  V30 2222 H 210.414 -0.111913 -1.43564 0
M  V30 2223 H 212.367 2.1165 -3.64393 0
M  V30 2224 H 211.091 2.20994 -2.40477 0
M  V30 2225 H 209.75 0.46871 -3.63591 0
M  V30 2226 H 209.398 2.89883 -4.11068 0
M  V30 2227 H 209.098 1.90521 -5.55856 0
M  V30 2228 H 210.622 2.82614 -5.41259 0
M  V30 2229 H 212.036 0.573509 -5.70424 0
M  V30 2230 H 210.433 -0.160783 -5.99885 0
M  V30 2231 H 211.503 -0.86237 -4.7717 0
M  V30 2232 N 212.846 1.57033 -0.133567 0
M  V30 2233 C 213.776 2.1909 0.807567 0
M  V30 2234 C 214.757 1.13517 1.26681 0
M  V30 2235 O 215.942 1.41809 1.32679 0
M  V30 2236 C 213.072 2.80188 2.05212 0
M  V30 2237 C 212.026 3.91471 1.73015 0
M  V30 2238 C 211.352 4.39443 3.04622 0
M  V30 2239 C 212.652 5.12886 0.987168 0
M  V30 2240 H 214.346 2.97988 0.290403 0
M  V30 2241 H 211.892 1.43335 0.138239 0
M  V30 2242 H 213.845 3.22264 2.71521 0
M  V30 2243 H 212.569 1.98601 2.59278 0
M  V30 2244 H 211.228 3.49993 1.0909 0
M  V30 2245 H 210.876 3.54695 3.56651 0
M  V30 2246 H 210.576 5.14495 2.83847 0
M  V30 2247 H 212.1 4.8418 3.72024 0
M  V30 2248 H 213.514 5.51891 1.55208 0
M  V30 2249 H 211.911 5.93615 0.87985 0
M  V30 2250 H 212.981 4.84894 -0.0235286 0
M  V30 2251 N 214.325 -0.140222 1.56975 0
M  V30 2252 C 215.553 -0.866437 1.87884 0
M  V30 2253 C 215.968 -1.74428 0.722517 0
M  V30 2254 O 215.325 -1.79891 -0.30749 0
M  V30 2255 C 215.376 -1.71753 3.18093 0
M  V30 2256 O 215.097 -0.875056 4.29272 0
M  V30 2257 C 216.598 -2.55074 3.62563 0
M  V30 2258 H 213.818 -0.25019 0.622612 0
M  V30 2259 H 216.362 -0.130977 2.0408 0
M  V30 2260 H 214.517 -2.40598 3.03631 0
M  V30 2261 H 214.931 -1.46002 5.03769 0
M  V30 2262 H 216.405 -3.10356 4.5649 0
M  V30 2263 H 216.882 -3.31434 2.88181 0
M  V30 2264 H 217.488 -1.91509 3.79743 0
M  V30 2265 N 215.803 -1.52179 -0.40978 0
M  V30 2266 C 217.219 -1.40968 -0.74835 0
M  V30 2267 C 217.419 -0.513657 -1.94843 0
M  V30 2268 O 216.475 0.0208026 -2.52491 0
M  V30 2269 C 217.788 -2.83483 -1.0029 0
M  V30 2270 C 219.336 -2.92821 -1.10565 0
M  V30 2271 C 219.811 -4.36303 -1.39296 0
M  V30 2272 N 221.302 -4.39535 -1.46162 0
M  V30 2273 C 222.037 -5.47614 -1.70018 0
M  V30 2274 N 221.533 -6.65812 -1.91483 0
M  V30 2275 N 223.326 -5.35129 -1.72027 0
M  V30 2276 H 215.477 -2.0897 0.380186 0
M  V30 2277 H 217.74 -0.94185 0.107805 0
M  V30 2278 H 217.446 -3.51168 -0.193461 0
M  V30 2279 H 217.32 -3.24487 -1.92323 0
M  V30 2280 H 219.707 -2.25318 -1.90568 0
M  V30 2281 H 219.788 -2.55276 -0.16369 0
M  V30 2282 H 219.432 -5.04366 -0.598109 0
M  V30 2283 H 219.362 -4.71385 -2.34743 0
M  V30 2284 H 221.853 -3.54332 -1.31367 0
M  V30 2285 H 222.166 -7.43964 -2.09134 0
M  V30 2286 H 220.511 -6.68879 -1.88749 0
M  V30 2287 H 223.702 -4.41764 -1.54796 0
M  V30 2288 H 223.875 -6.19433 -1.9028 0
M  V30 2289 N 217.281 0.66697 -1.42791 0
M  V30 2290 C 218.529 1.42417 -1.43394 0
M  V30 2291 C 218.85 1.94925 -0.0542373 0
M  V30 2292 O 218.12 1.73564 0.908415 0
M  V30 2293 H 216.7 0.528515 -0.527902 0
M  V30 2294 H 219.362 0.787562 -1.78279 0
M  V30 2295 H 218.458 2.27333 -2.13837 0
M  V30 2296 N 218.759 1.29093 0.90403 0
M  V30 2297 C 220.175 1.07011 1.1841 0
M  V30 2298 C 220.375 -0.181358 2.00682 0
M  V30 2299 O 219.431 -0.880331 2.36657 0
M  V30 2300 C 220.744 2.32311 1.90924 0
M  V30 2301 C 222.292 2.37587 2.03768 0
M  V30 2302 C 222.767 3.62679 2.79693 0
M  V30 2303 N 224.258 3.63376 2.87249 0
M  V30 2304 C 224.993 4.56848 3.46522 0
M  V30 2305 N 224.489 5.60648 4.06996 0
M  V30 2306 N 226.282 4.44426 3.44154 0
M  V30 2307 H 218.433 2.09412 0.354993 0
M  V30 2308 H 220.696 0.922181 0.219742 0
M  V30 2309 H 220.402 3.23536 1.37905 0
M  V30 2310 H 220.276 2.39483 2.91424 0
M  V30 2311 H 222.663 1.46853 2.55965 0
M  V30 2312 H 222.744 2.34403 1.02415 0
M  V30 2313 H 222.388 4.53762 2.28173 0
M  V30 2314 H 222.318 3.63119 3.81381 0
M  V30 2315 H 224.809 2.88321 2.44293 0
M  V30 2316 H 225.122 6.28101 4.50232 0
M  V30 2317 H 223.467 5.64463 4.05471 0
M  V30 2318 H 226.658 3.62529 2.96126 0
M  V30 2319 H 226.831 5.17457 3.90054 0
M  V30 2320 N 220.237 -1.11381 1.11499 0
M  V30 2321 C 221.2 -2.15622 0.777153 0
M  V30 2322 C 222.2 -1.59504 -0.203779 0
M  V30 2323 O 223.39 -1.74188 0.020782 0
M  V30 2324 C 220.522 -3.40556 0.153116 0
M  V30 2325 H 221.715 -2.47021 1.70061 0
M  V30 2326 H 219.268 -1.26577 0.916952 0
M  V30 2327 H 220.003 -3.14767 -0.780536 0
M  V30 2328 H 219.788 -3.8257 0.859238 0
M  V30 2329 H 221.278 -4.17546 -0.0671044 0
M  V30 2330 N 221.715 -0.905404 -1.28997 0
M  V30 2331 C 222.645 -0.404212 -2.29975 0
M  V30 2332 C 223.626 0.523784 -1.61835 0
M  V30 2333 O 224.811 0.433298 -1.89304 0
M  V30 2334 C 221.941 0.364042 -3.45387 0
M  V30 2335 C 220.895 -0.474048 -4.25367 0
M  V30 2336 C 220.221 0.422045 -5.33032 0
M  V30 2337 C 221.521 -1.72696 -4.92923 0
M  V30 2338 H 223.215 -1.24807 -2.72146 0
M  V30 2339 H 220.761 -0.601585 -1.30832 0
M  V30 2340 H 222.714 0.725447 -4.15109 0
M  V30 2341 H 221.438 1.24174 -3.02074 0
M  V30 2342 H 220.097 -0.81786 -3.57361 0
M  V30 2343 H 219.745 1.29804 -4.85963 0
M  V30 2344 H 219.445 -0.135057 -5.87445 0
M  V30 2345 H 220.969 0.779517 -6.05604 0
M  V30 2346 H 222.383 -1.43495 -5.55051 0
M  V30 2347 H 220.78 -2.22582 -5.57295 0
M  V30 2348 H 221.85 -2.45964 -4.17887 0
M  V30 2349 N 223.193 1.4272 -0.668489 0
M  V30 2350 C 224.439 2.01923 -0.188419 0
M  V30 2351 C 224.772 1.52704 1.19979 0
M  V30 2352 O 224.047 0.726566 1.8042 0
M  V30 2353 C 224.33 3.59451 -0.216085 0
M  V30 2354 C 224.183 4.18864 -1.6393 0
M  V30 2355 C 225.502 4.37903 0.439179 0
M  V30 2356 H 222.621 0.733674 -0.0699412 0
M  V30 2357 H 225.263 1.69822 -0.852076 0
M  V30 2358 H 223.413 3.86929 0.349012 0
M  V30 2359 H 225.085 4.02362 -2.25616 0
M  V30 2360 H 223.328 3.74933 -2.18193 0
M  V30 2361 H 223.999 5.27987 -1.61039 0
M  V30 2362 H 226.475 4.16079 -0.0417878 0
M  V30 2363 H 225.351 5.47519 0.389157 0
M  V30 2364 H 225.612 4.15303 1.51577 0
M  V30 2365 N 224.671 0.411399 1.52136 0
M  V30 2366 C 225.899 -0.163076 2.06256 0
M  V30 2367 C 226.314 -1.3867 1.28125 0
M  V30 2368 O 225.671 -1.79423 0.333721 0
M  V30 2369 C 225.722 -0.511252 3.57867 0
M  V30 2370 O 225.443 0.66378 4.33042 0
M  V30 2371 C 226.944 -1.13921 4.28412 0
M  V30 2372 H 224.164 -0.0193897 0.67072 0
M  V30 2373 H 226.708 0.583007 1.96013 0
M  V30 2374 H 224.863 -1.20723 3.6811 0
M  V30 2375 H 225.277 0.372601 5.23175 0
M  V30 2376 H 226.751 -1.33302 5.35663 0
M  V30 2377 H 227.228 -2.11296 3.85033 0
M  V30 2378 H 227.834 -0.483373 4.22544 0
M  V30 2379 N 226.149 -1.5696 0.141893 0
M  V30 2380 C 227.079 -2.19516 -0.795936 0
M  V30 2381 C 228.06 -1.14187 -1.26077 0
M  V30 2382 O 229.245 -1.42511 -1.31925 0
M  V30 2383 C 226.375 -2.81272 -2.03723 0
M  V30 2384 C 225.329 -3.92384 -1.70936 0
M  V30 2385 C 224.655 -4.41052 -3.02287 0
M  V30 2386 C 225.955 -5.13403 -0.959954 0
M  V30 2387 H 227.649 -2.98138 -0.274596 0
M  V30 2388 H 225.195 -1.43406 -0.130636 0
M  V30 2389 H 227.148 -3.237 -2.69808 0
M  V30 2390 H 225.872 -1.99973 -2.58221 0
M  V30 2391 H 224.531 -3.50566 -1.07232 0
M  V30 2392 H 224.179 -3.56582 -3.54765 0
M  V30 2393 H 223.879 -5.15993 -2.81114 0
M  V30 2394 H 225.403 -4.86146 -3.69451 0
M  V30 2395 H 226.817 -5.52706 -1.52279 0
M  V30 2396 H 225.214 -5.94073 -0.848357 0
M  V30 2397 H 226.284 -4.84875 0.0492434 0
M  V30 2398 N 227.627 0.131896 -1.57047 0
M  V30 2399 C 228.875 0.840269 -1.83804 0
M  V30 2400 C 229.196 1.81017 -0.72512 0
M  V30 2401 O 228.466 1.94272 0.251995 0
M  V30 2402 H 227.046 0.313294 -0.678127 0
M  V30 2403 H 229.708 0.122294 -1.94516 0
M  V30 2404 H 228.804 1.39335 -2.79271 0
M  V30 2405 N 229.106 1.52395 0.401703 0
M  V30 2406 C 230.355 1.66044 1.14509 0
M  V30 2407 C 230.668 0.400216 1.91462 0
M  V30 2408 O 231.874 0.416632 2.68284 0
M  V30 2409 C 230.33 2.93388 2.0845 0
M  V30 2410 C 229.938 4.26545 1.36978 0
M  V30 2411 C 231.682 3.16402 2.83001 0
M  V30 2412 C 229.589 5.45007 2.29611 0
M  V30 2413 H 228.519 0.618562 0.431158 0
M  V30 2414 H 231.17 1.78886 0.40892 0
M  V30 2415 H 229.552 2.74263 2.8565 0
M  V30 2416 H 230.726 4.56179 0.650916 0
M  V30 2417 H 229.041 4.09692 0.74438 0
M  V30 2418 H 231.638 4.02085 3.52465 0
M  V30 2419 H 231.981 2.30943 3.46368 0
M  V30 2420 H 232.514 3.36034 2.12898 0
M  V30 2421 H 229.253 6.32835 1.70879 0
M  V30 2422 H 228.773 5.19702 2.9945 0
M  V30 2423 H 230.452 5.7838 2.89974 0
M  V30 2424 N 230.584 -0.659388 1.43143 0
M  V30 2425 C 231.517 -1.78425 1.42267 0
M  V30 2426 C 232.495 -1.60085 0.284894 0
M  V30 2427 O 233.679 -1.82351 0.477527 0
M  V30 2428 C 230.806 -3.15642 1.22833 0
M  V30 2429 C 229.852 -3.52698 2.39806 0
M  V30 2430 S 230.685 -3.53372 4.02353 0
M  V30 2431 C 231.841 -4.93256 3.85291 0
M  V30 2432 H 232.074 -1.78897 2.37452 0
M  V30 2433 H 229.607 -0.831469 1.301 0
M  V30 2434 H 231.565 -3.94838 1.12308 0
M  V30 2435 H 230.226 -3.12739 0.29207 0
M  V30 2436 H 229.419 -4.52475 2.21996 0
M  V30 2437 H 229.021 -2.80899 2.46925 0
M  V30 2438 H 231.313 -5.81751 3.47235 0
M  V30 2439 H 232.256 -5.16115 4.84799 0
M  V30 2440 H 232.664 -4.665 3.17865 0
M  V30 2441 N 232.062 -1.29571 -0.897171 0
M  V30 2442 C 233.308 -1.18873 -1.65048 0
M  V30 2443 C 233.663 0.256707 -1.9068 0
M  V30 2444 O 232.956 1.18202 -1.50794 0
M  V30 2445 C 233.15 -1.9382 -3.00281 0
M  V30 2446 C 232.979 -3.45503 -2.8785 0
M  V30 2447 C 231.749 -4.14856 -2.88483 0
M  V30 2448 C 233.947 -4.40956 -2.64693 0
M  V30 2449 N 231.929 -5.52886 -2.66815 0
M  V30 2450 C 233.3 -5.66464 -2.5203 0
M  V30 2451 C 235.355 -4.3069 -2.49821 0
M  V30 2452 C 234.058 -6.82871 -2.26008 0
M  V30 2453 C 236.084 -5.46852 -2.25182 0
M  V30 2454 C 235.446 -6.71333 -2.13286 0
M  V30 2455 H 231.545 -0.489998 -0.609447 0
M  V30 2456 H 234.129 -1.63431 -1.05822 0
M  V30 2457 H 232.3 -1.51671 -3.57562 0
M  V30 2458 H 234.032 -1.75366 -3.64731 0
M  V30 2459 H 230.787 -3.66579 -2.99861 0
M  V30 2460 H 231.211 -6.25487 -2.59027 0
M  V30 2461 H 235.853 -3.35141 -2.5776 0
M  V30 2462 H 233.571 -7.78473 -2.16806 0
M  V30 2463 H 237.157 -5.40809 -2.14515 0
M  V30 2464 H 236.037 -7.59701 -1.94485 0
M  V30 2465 N 233.54 1.10788 -1.12088 0
M  V30 2466 C 234.786 1.82942 -0.875226 0
M  V30 2467 C 235.119 1.84779 0.597538 0
M  V30 2468 O 234.394 1.30578 1.44152 0
M  V30 2469 C 234.677 3.29789 -1.44606 0
M  V30 2470 C 234.53 3.36307 -2.98693 0
M  V30 2471 C 235.849 4.26064 -1.10261 0
M  V30 2472 H 232.968 0.664195 -0.319397 0
M  V30 2473 H 235.61 1.29867 -1.38689 0
M  V30 2474 H 233.76 3.75118 -1.01089 0
M  V30 2475 H 235.432 2.99487 -3.50864 0
M  V30 2476 H 233.675 2.76318 -3.34411 0
M  V30 2477 H 234.346 4.39694 -3.33726 0
M  V30 2478 H 236.822 3.88951 -1.4784 0
M  V30 2479 H 235.698 5.27183 -1.52869 0
M  V30 2480 H 235.959 4.42098 -0.0142953 0
M  V30 2481 N 235.018 0.912232 1.28515 0
M  V30 2482 C 235.948 0.416403 2.29757 0
M  V30 2483 C 236.929 -0.515194 1.6211 0
M  V30 2484 O 238.114 -0.423253 1.89532 0
M  V30 2485 C 235.244 -0.34572 3.45575 0
M  V30 2486 C 234.198 0.496599 4.25109 0
M  V30 2487 C 233.524 -0.393771 5.33248 0
M  V30 2488 C 234.824 1.75307 4.92001 0
M  V30 2489 H 236.518 1.26249 2.7148 0
M  V30 2490 H 234.064 0.608515 1.30511 0
M  V30 2491 H 236.017 -0.703422 4.15488 0
M  V30 2492 H 234.741 -1.2257 3.02728 0
M  V30 2493 H 233.4 0.8368 3.56922 0
M  V30 2494 H 233.048 -1.27225 4.86644 0
M  V30 2495 H 232.748 0.166209 5.87365 0
M  V30 2496 H 234.272 -0.747389 6.06009 0
M  V30 2497 H 235.686 1.46437 5.54283 0
M  V30 2498 H 234.083 2.25534 5.56106 0
M  V30 2499 H 235.153 2.48176 4.16577 0
M  V30 2500 N 236.496 -1.42363 0.676048 0
M  V30 2501 C 237.721 -2.06377 0.205705 0
M  V30 2502 C 238.146 -1.50463 -1.12883 0
M  V30 2503 O 237.504 -0.623619 -1.70237 0
M  V30 2504 C 237.552 -3.60277 0.152655 0
M  V30 2505 O 236.656 -4.02935 -0.87845 0
M  V30 2506 H 235.997 -0.655588 0.105359 0
M  V30 2507 H 238.527 -1.82475 0.925412 0
M  V30 2508 H 238.537 -4.07993 -0.0230675 0
M  V30 2509 H 237.212 -4.00346 1.12675 0
M  V30 2510 H 235.789 -3.66764 -0.673668 0
M  V30 2511 N 237.974 -0.419461 -1.51915 0
M  V30 2512 C 238.937 0.389116 -2.25873 0
M  V30 2513 C 239.937 0.964924 -1.28631 0
M  V30 2514 O 241.127 0.842179 -1.52489 0
M  V30 2515 C 238.259 1.54874 -3.03689 0
M  V30 2516 H 239.452 -0.258799 -2.98781 0
M  V30 2517 H 237.005 -0.172209 -1.55348 0
M  V30 2518 H 237.74 2.23323 -2.35154 0
M  V30 2519 H 237.525 1.14223 -3.75094 0
M  V30 2520 H 239.015 2.12046 -3.59759 0
M  V30 2521 N 239.452 1.56882 -0.150215 0
M  V30 2522 C 240.382 2.19935 0.784284 0
M  V30 2523 C 241.363 1.14854 1.25469 0
M  V30 2524 O 242.548 1.43209 1.31168 0
M  V30 2525 C 239.678 2.82349 2.02229 0
M  V30 2526 C 238.632 3.93285 1.68853 0
M  V30 2527 C 237.958 4.42649 2.99944 0
M  V30 2528 C 239.258 5.13904 0.932714 0
M  V30 2529 H 240.952 2.9828 0.258781 0
M  V30 2530 H 238.498 1.43473 0.123029 0
M  V30 2531 H 240.451 3.25126 2.68088 0
M  V30 2532 H 239.175 2.0134 2.57157 0
M  V30 2533 H 237.834 3.5113 1.05371 0
M  V30 2534 H 237.482 3.58458 3.52869 0
M  V30 2535 H 237.182 5.17476 2.78374 0
M  V30 2536 H 238.706 4.88099 3.66868 0
M  V30 2537 H 240.12 5.53506 1.49345 0
M  V30 2538 H 238.517 5.94515 0.81684 0
M  V30 2539 H 239.587 4.84842 -0.0749568 0
M  V30 2540 N 240.93 -0.123565 1.57115 0
M  V30 2541 C 242.176 -0.833386 1.84885 0
M  V30 2542 C 242.509 -1.79742 0.735292 0
M  V30 2543 O 241.784 -1.92764 -0.25925 0
M  V30 2544 C 242.067 -1.5873 3.23228 0
M  V30 2545 C 241.92 -0.643183 4.45178 0
M  V30 2546 C 243.239 -2.54453 3.59085 0
M  V30 2547 H 240.358 -0.301518 0.6725 0
M  V30 2548 H 243 -0.097778 1.89748 0
M  V30 2549 H 241.15 -2.21438 3.19214 0
M  V30 2550 H 242.822 -0.0253015 4.61293 0
M  V30 2551 H 241.065 0.0456139 4.33776 0
M  V30 2552 H 241.736 -1.20724 5.38637 0
M  V30 2553 H 244.212 -2.01853 3.63861 0
M  V30 2554 H 243.088 -3.04238 4.5687 0
M  V30 2555 H 243.349 -3.36906 2.86264 0
M  V30 2556 N 242.408 -1.52605 -0.393616 0
M  V30 2557 C 243.633 -1.71592 -1.16495 0
M  V30 2558 C 244.058 -0.43133 -1.83088 0
M  V30 2559 O 243.416 0.612523 -1.7064 0
M  V30 2560 C 243.464 -2.86318 -2.19213 0
M  V30 2561 O 242.568 -2.52969 -3.257 0
M  V30 2562 H 241.909 -0.570734 -0.33935 0
M  V30 2563 H 244.439 -1.99377 -0.459324 0
M  V30 2564 H 244.449 -3.1168 -2.63286 0
M  V30 2565 H 243.124 -3.79511 -1.7013 0
M  V30 2566 H 241.701 -2.38332 -2.86797 0
M  V30 2567 N 243.887 0.651787 -1.4349 0
M  V30 2568 C 245.117 1.43728 -1.48411 0
M  V30 2569 C 245.525 1.8893 -0.10103 0
M  V30 2570 O 244.868 1.60182 0.899307 0
M  V30 2571 C 244.93 2.70411 -2.36893 0
M  V30 2572 C 244.594 2.4714 -3.8441 0
M  V30 2573 C 245.591 2.10271 -4.75481 0
M  V30 2574 C 243.276 2.6142 -4.28912 0
M  V30 2575 C 245.27 1.87982 -6.0905 0
M  V30 2576 C 242.957 2.38746 -5.62533 0
M  V30 2577 C 243.955 2.02083 -6.5242 0
M  V30 2578 O 243.643 1.79647 -7.8357 0
M  V30 2579 H 243.375 0.447962 -0.506267 0
M  V30 2580 H 245.929 0.80624 -1.88915 0
M  V30 2581 H 244.159 3.36079 -1.91278 0
M  V30 2582 H 245.848 3.32364 -2.33 0
M  V30 2583 H 246.614 1.98814 -4.42378 0
M  V30 2584 H 242.493 2.88931 -3.59222 0
M  V30 2585 H 246.037 1.5929 -6.7917 0
M  V30 2586 H 241.934 2.49806 -5.95203 0
M  V30 2587 H 242.702 1.9406 -7.95162 0
M  V30 2588 N 245.365 1.30045 0.890287 0
M  V30 2589 C 246.295 1.18541 2.01172 0
M  V30 2590 C 247.276 0.0773356 1.69924 0
M  V30 2591 O 248.461 0.25845 1.92473 0
M  V30 2592 C 245.591 0.870941 3.36202 0
M  V30 2593 C 244.545 1.93637 3.81692 0
M  V30 2594 C 243.871 1.475 5.13953 0
M  V30 2595 C 245.171 3.34666 4.00994 0
M  V30 2596 H 246.865 2.12359 2.11054 0
M  V30 2597 H 244.411 1.02238 1.01407 0
M  V30 2598 H 246.364 0.777141 4.14172 0
M  V30 2599 H 245.088 -0.102926 3.26438 0
M  V30 2600 H 243.747 2.01972 3.05946 0
M  V30 2601 H 243.395 0.489551 5.00612 0
M  V30 2602 H 243.095 2.1876 5.4536 0
M  V30 2603 H 244.619 1.39489 5.94454 0
M  V30 2604 H 246.033 3.2912 4.69417 0
M  V30 2605 H 244.43 4.03966 4.43769 0
M  V30 2606 H 245.5 3.76949 3.05021 0
M  V30 2607 N 246.843 -1.10192 1.12674 0
M  V30 2608 C 248.254 -1.63707 0.897604 0
M  V30 2609 C 248.605 -1.87812 -0.567546 0
M  V30 2610 O 247.73 -1.62196 -1.43253 0
M  V30 2611 C 248.325 -2.974 1.62292 0
M  V30 2612 C 246.884 -3.47772 1.43986 0
M  V30 2613 C 246.031 -2.22332 1.65722 0
M  V30 2614 H 248.982 -0.936587 1.28116 0
M  V30 2615 H 249.003 -3.64986 1.07541 0
M  V30 2616 H 248.515 -2.79824 2.68924 0
M  V30 2617 H 246.616 -3.70487 0.396206 0
M  V30 2618 H 246.729 -4.25723 2.19765 0
M  V30 2619 H 245.093 -2.30599 1.08149 0
M  V30 2620 H 245.876 -2.07285 2.73657 0
M  V30 2621 N 248.321 -0.919034 -1.28029 0
M  V30 2622 C 249.251 -0.428581 -2.29533 0
M  V30 2623 C 250.232 0.50659 -1.62381 0
M  V30 2624 O 251.417 0.413195 -1.89753 0
M  V30 2625 C 248.547 0.327388 -3.45753 0
M  V30 2626 C 247.501 -0.519137 -4.2484 0
M  V30 2627 C 246.827 0.365486 -5.33449 0
M  V30 2628 C 248.127 -1.77914 -4.91064 0
M  V30 2629 H 249.821 -1.27687 -2.70807 0
M  V30 2630 H 247.367 -0.615428 -1.30186 0
M  V30 2631 H 249.32 0.681378 -4.15855 0
M  V30 2632 H 248.044 1.20963 -3.03374 0
M  V30 2633 H 246.703 -0.855717 -3.56473 0
M  V30 2634 H 246.351 1.24642 -4.87312 0
M  V30 2635 H 246.051 -0.197356 -5.87268 0
M  V30 2636 H 247.575 0.715241 -6.06396 0
M  V30 2637 H 248.989 -1.49374 -5.53498 0
M  V30 2638 H 247.386 -2.2848 -5.54903 0
M  V30 2639 H 248.456 -2.50382 -4.15255 0
M  V30 2640 N 249.799 1.42003 -0.683588 0
M  V30 2641 C 250.732 2.28166 0.039592 0
M  V30 2642 C 251.71 1.41562 0.799942 0
M  V30 2643 O 252.894 1.70997 0.793248 0
M  V30 2644 C 250.021 3.21575 1.06335 0
M  V30 2645 C 249.067 4.24643 0.397562 0
M  V30 2646 S 249.9 5.2869 -0.851296 0
M  V30 2647 C 251.056 6.25666 0.171166 0
M  V30 2648 H 251.289 2.89153 -0.691229 0
M  V30 2649 H 248.822 1.46962 -0.473435 0
M  V30 2650 H 250.78 3.75928 1.6489 0
M  V30 2651 H 249.441 2.59707 1.76667 0
M  V30 2652 H 248.634 4.90223 1.17035 0
M  V30 2653 H 248.236 3.73824 -0.114611 0
M  V30 2654 H 250.528 6.69653 1.02819 0
M  V30 2655 H 251.471 7.06666 -0.450397 0
M  V30 2656 H 251.879 5.62095 0.520578 0
M  V30 2657 N 251.277 0.427512 1.51691 0
M  V30 2658 C 252.525 -0.141948 2.01601 0
M  V30 2659 C 252.846 -1.44067 1.31414 0
M  V30 2660 O 252.116 -1.90763 0.445658 0
M  V30 2661 H 250.696 -0.0554468 0.744939 0
M  V30 2662 H 253.358 0.567968 1.86441 0
M  V30 2663 H 252.454 -0.324913 3.10404 0
M  V30 2664 N 252.755 -1.56801 0.158532 0
M  V30 2665 C 254.001 -1.97559 -0.483957 0
M  V30 2666 C 254.356 -1.04239 -1.61716 0
M  V30 2667 O 253.649 -0.079603 -1.91435 0
M  V30 2668 C 253.843 -3.4235 -1.02623 0
M  V30 2669 C 253.672 -4.49669 0.0528929 0
M  V30 2670 C 252.442 -5.02838 0.498234 0
M  V30 2671 C 254.64 -5.0725 0.848616 0
M  V30 2672 N 252.622 -5.93775 1.559 0
M  V30 2673 C 253.993 -5.94506 1.7596 0
M  V30 2674 C 256.048 -4.89788 0.895121 0
M  V30 2675 C 254.751 -6.66169 2.71314 0
M  V30 2676 C 256.777 -5.62161 1.83654 0
M  V30 2677 C 256.139 -6.49134 2.73503 0
M  V30 2678 H 252.238 -0.768332 -0.145566 0
M  V30 2679 H 254.822 -1.93012 0.255799 0
M  V30 2680 H 252.993 -3.47467 -1.73555 0
M  V30 2681 H 254.725 -3.70145 -1.63629 0
M  V30 2682 H 251.48 -4.73498 0.0983222 0
M  V30 2683 H 251.904 -6.43948 2.08949 0
M  V30 2684 H 256.546 -4.22255 0.21453 0
M  V30 2685 H 254.264 -7.32923 3.40367 0
M  V30 2686 H 257.85 -5.5064 1.87847 0
M  V30 2687 H 256.73 -7.04153 3.45163 0
M  V30 2688 N 254.233 0.115231 -1.57178 0
M  V30 2689 C 255.461 0.836437 -1.89239 0
M  V30 2690 C 255.876 1.73256 -0.750175 0
M  V30 2691 O 255.233 1.80357 0.278832 0
M  V30 2692 C 255.284 1.66671 -3.20785 0
M  V30 2693 O 255.005 0.806652 -4.3061 0
M  V30 2694 C 256.506 2.49274 -3.66575 0
M  V30 2695 H 253.726 0.240253 -0.626514 0
M  V30 2696 H 256.27 0.0984932 -2.04263 0
M  V30 2697 H 254.425 2.35737 -3.0742 0
M  V30 2698 H 254.839 1.37969 -5.06028 0
M  V30 2699 H 256.313 3.03055 -4.6137 0
M  V30 2700 H 256.79 3.26807 -2.93417 0
M  V30 2701 H 257.396 1.85443 -3.82741 0
M  V30 2702 N 255.711 1.52812 0.385517 0
M  V30 2703 C 256.951 1.69716 1.13911 0
M  V30 2704 C 257.315 0.42962 1.87132 0
M  V30 2705 O 258.516 0.475071 2.64569 0
M  V30 2706 C 256.787 2.90021 2.0886 0
M  V30 2707 S 258.346 3.27531 2.92009 0
M  V30 2708 H 255.164 0.59739 0.385547 0
M  V30 2709 H 257.766 1.90868 0.423061 0
M  V30 2710 H 256.47 3.80493 1.53797 0
M  V30 2711 H 256.001 2.71213 2.84969 0
M  V30 2712 H 258.016 2.77989 4.11019 0
M  V30 2713 N 257.189 -0.644168 1.43834 0
M  V30 2714 C 258.429 -1.41565 1.47441 0
M  V30 2715 C 258.793 -1.91743 0.0992723 0
M  V30 2716 O 259.994 -2.68798 0.0100192 0
M  V30 2717 C 258.265 -2.55902 2.49498 0
M  V30 2718 S 259.824 -3.44287 2.72051 0
M  V30 2719 H 256.642 -0.483118 0.521649 0
M  V30 2720 H 259.244 -0.747008 1.80666 0
M  V30 2721 H 257.948 -2.17327 3.48134 0
M  V30 2722 H 257.479 -3.27607 2.17801 0
M  V30 2723 H 259.494 -4.52927 2.0266 0
M  V30 2724 N 258.668 -1.30515 -0.883378 0
M  V30 2725 C 260.079 -1.17509 -1.45081 0
M  V30 2726 C 260.43 0.223605 -1.94922 0
M  V30 2727 O 259.555 1.12041 -1.85137 0
M  V30 2728 C 260.15 -2.12715 -2.63701 0
M  V30 2729 C 258.709 -2.03682 -3.16529 0
M  V30 2730 C 257.856 -2.02706 -1.89224 0
M  V30 2731 H 260.807 -1.42762 -0.693165 0
M  V30 2732 H 260.828 -1.70891 -3.39965 0
M  V30 2733 H 260.34 -3.14505 -2.27395 0
M  V30 2734 H 258.441 -1.05039 -3.57488 0
M  V30 2735 H 258.554 -2.92146 -3.7972 0
M  V30 2736 H 256.918 -1.4753 -2.07622 0
M  V30 2737 H 257.701 -3.06229 -1.55174 0
M  V30 2738 N 260.146 1.09593 -1.13257 0
M  V30 2739 C 261.562 1.33775 -0.870423 0
M  V30 2740 C 261.762 1.95327 0.494926 0
M  V30 2741 O 260.818 2.19853 1.2418 0
M  V30 2742 C 262.131 2.25106 -1.99369 0
M  V30 2743 C 263.679 2.3862 -2.02558 0
M  V30 2744 C 264.154 3.33285 -3.14142 0
M  V30 2745 N 265.645 3.40857 -3.13641 0
M  V30 2746 C 266.38 4.14101 -3.96621 0
M  V30 2747 N 265.876 4.90157 -4.8961 0
M  V30 2748 N 267.669 4.09808 -3.84726 0
M  V30 2749 H 259.82 0.680136 -2.01216 0
M  V30 2750 H 262.083 0.362133 -0.876107 0
M  V30 2751 H 261.789 1.87103 -2.97801 0
M  V30 2752 H 261.663 3.25481 -1.90635 0
M  V30 2753 H 264.05 2.75887 -1.0474 0
M  V30 2754 H 264.131 1.38028 -2.15364 0
M  V30 2755 H 263.775 2.96741 -4.12198 0
M  V30 2756 H 263.705 4.33776 -2.98574 0
M  V30 2757 H 266.196 2.86624 -2.46282 0
M  V30 2758 H 266.509 5.4347 -5.49418 0
M  V30 2759 H 264.854 4.89251 -4.93617 0
M  V30 2760 H 268.045 3.4949 -3.11408 0
M  V30 2761 H 268.218 4.66629 -4.49623 0
M  V30 2762 N 261.624 0.925811 1.2754 0
M  V30 2763 C 263.035 0.610102 1.7645 0
M  V30 2764 C 263.386 -0.874723 1.75622 0
M  V30 2765 O 262.511 -1.68444 1.35851 0
M  V30 2766 C 263.106 1.10073 3.20421 0
M  V30 2767 C 261.665 0.835723 3.67005 0
M  V30 2768 C 260.812 1.26054 2.46993 0
M  V30 2769 H 263.763 1.10579 1.13833 0
M  V30 2770 H 263.784 0.447557 3.77859 0
M  V30 2771 H 263.296 2.18143 3.20991 0
M  V30 2772 H 261.397 -0.231249 3.71882 0
M  V30 2773 H 261.51 1.45193 4.56569 0
M  V30 2774 H 259.874 0.679111 2.45479 0
M  V30 2775 H 260.657 2.34984 2.50275 0
M  V30 2776 N 263.102 -1.41638 0.69111 0
M  V30 2777 C 264.342 -2.03166 0.224291 0
M  V30 2778 C 264.706 -1.53537 -1.15284 0
M  V30 2779 O 265.907 -2.0696 -1.71525 0
M  V30 2780 C 264.178 -3.56342 0.274758 0
M  V30 2781 S 265.737 -4.3864 -0.118669 0
M  V30 2782 H 262.555 -0.705188 0.0907263 0
M  V30 2783 H 265.157 -1.7314 0.907895 0
M  V30 2784 H 263.861 -3.89958 1.2791 0
M  V30 2785 H 263.392 -3.91063 -0.428142 0
M  V30 2786 H 265.407 -4.77549 -1.34764 0
M  V30 2787 N 264.58 -0.43555 -1.51462 0
M  V30 2788 C 265.805 0.132627 -2.06976 0
M  V30 2789 C 266.23 1.35848 -1.30104 0
M  V30 2790 O 265.588 1.78112 -0.338493 0
M  V30 2791 C 265.636 0.43523 -3.57964 0
M  V30 2792 O 264.74 1.52198 -3.83288 0
M  V30 2793 H 264.081 0.00265 -0.663995 0
M  V30 2794 H 266.611 -0.616369 -1.95095 0
M  V30 2795 H 266.621 0.686206 -4.02188 0
M  V30 2796 H 265.296 -0.460739 -4.1334 0
M  V30 2797 H 263.873 1.2611 -3.50928 0
M  V30 2798 N 266.058 1.56714 -0.166846 0
M  V30 2799 C 266.968 2.21331 0.777791 0
M  V30 2800 C 267.984 1.20358 1.25658 0
M  V30 2801 O 269.16 1.53005 1.30964 0
M  V30 2802 C 266.225 2.83787 1.99163 0
M  V30 2803 C 265.286 3.99947 1.56016 0
M  V30 2804 C 264.519 4.59415 2.71613 0
M  V30 2805 O 264.742 4.17769 3.88362 0
M  V30 2806 O 263.676 5.49359 2.45945 0
M  V30 2807 H 267.502 3.02605 0.257636 0
M  V30 2808 H 265.087 1.49275 0.0611393 0
M  V30 2809 H 266.969 3.23405 2.70161 0
M  V30 2810 H 265.644 2.05513 2.50092 0
M  V30 2811 H 264.551 3.65007 0.819809 0
M  V30 2812 H 265.884 4.79801 1.09782 0
M  V30 2813 N 267.536 -0.106894 1.57237 0
M  V30 2814 C 268.466 -1.13148 2.04254 0
M  V30 2815 C 269.447 -1.42476 0.929224 0
M  V30 2816 O 270.632 -1.52709 1.19973 0
M  V30 2817 C 267.762 -2.4545 2.45706 0
M  V30 2818 C 266.716 -2.30558 3.60592 0
M  V30 2819 C 266.042 -3.67931 3.87983 0
M  V30 2820 C 267.342 -1.75597 4.91897 0
M  V30 2821 H 269.036 -0.740374 2.90101 0
M  V30 2822 H 266.582 -0.354696 1.39563 0
M  V30 2823 H 268.535 -3.17389 2.77205 0
M  V30 2824 H 267.259 -2.86475 1.56843 0
M  V30 2825 H 265.918 -1.61067 3.29322 0
M  V30 2826 H 265.566 -4.06462 2.96306 0
M  V30 2827 H 265.266 -3.58817 4.65322 0
M  V30 2828 H 266.79 -4.41356 4.21945 0
M  V30 2829 H 268.204 -2.37364 5.21854 0
M  V30 2830 H 266.601 -1.77272 5.73319 0
M  V30 2831 H 267.671 -0.714451 4.79608 0
M  V30 2832 N 269.014 -1.53014 -0.377408 0
M  V30 2833 C 270.261 -1.68623 -1.12128 0
M  V30 2834 C 270.589 -0.431997 -1.89642 0
M  V30 2835 O 269.844 0.585855 -1.86725 0
M  V30 2836 C 270.143 -2.87982 -2.11663 0
M  V30 2837 C 269.809 -4.24964 -1.50719 0
M  V30 2838 C 268.471 -4.62217 -1.33825 0
M  V30 2839 C 270.823 -5.10199 -1.06519 0
M  V30 2840 C 268.151 -5.82352 -0.712963 0
M  V30 2841 C 270.503 -6.30969 -0.453955 0
M  V30 2842 C 269.167 -6.66944 -0.272411 0
M  V30 2843 H 268.437 -0.617034 -0.410305 0
M  V30 2844 H 271.084 -1.8718 -0.404484 0
M  V30 2845 H 269.389 -2.63889 -2.89603 0
M  V30 2846 H 271.086 -2.97253 -2.6915 0
M  V30 2847 H 267.676 -3.95626 -1.64858 0
M  V30 2848 H 271.86 -4.81978 -1.18368 0
M  V30 2849 H 267.116 -6.08824 -0.560611 0
M  V30 2850 H 271.29 -6.96324 -0.103217 0
M  V30 2851 H 268.917 -7.59898 0.214181 0
M  V30 2852 N 270.492 0.636531 -1.44174 0
M  V30 2853 C 271.903 1.21806 -1.41493 0
M  V30 2854 C 272.254 1.95785 -0.1275 0
M  V30 2855 O 271.379 2.02147 0.772376 0
M  V30 2856 C 271.974 2.21551 -2.56321 0
M  V30 2857 C 270.533 2.75143 -2.56853 0
M  V30 2858 C 269.68 1.50052 -2.33195 0
M  V30 2859 H 272.631 0.427531 -1.52833 0
M  V30 2860 H 272.652 3.0405 -2.28765 0
M  V30 2861 H 272.164 1.67679 -3.50008 0
M  V30 2862 H 270.265 3.33033 -1.67093 0
M  V30 2863 H 270.378 3.2155 -3.55165 0
M  V30 2864 H 268.742 1.77993 -1.82183 0
M  V30 2865 H 269.525 0.980903 -3.28988 0
M  V30 2866 N 271.97 1.30982 0.876444 0
M  V30 2867 C 272.9 1.20668 1.99903 0
M  V30 2868 C 273.881 0.095354 1.69833 0
M  V30 2869 O 275.066 0.27885 1.92188 0
M  V30 2870 C 272.196 0.90655 3.3526 0
M  V30 2871 C 271.15 1.97675 3.79617 0
M  V30 2872 C 270.476 1.52943 5.1236 0
M  V30 2873 C 271.776 3.389 3.97422 0
M  V30 2874 H 273.47 2.14586 2.0879 0
M  V30 2875 H 271.016 1.03308 1.00317 0
M  V30 2876 H 272.969 0.821025 4.13324 0
M  V30 2877 H 271.693 -0.0682969 3.26529 0
M  V30 2878 H 270.352 2.05205 3.03787 0
M  V30 2879 H 270 0.54262 5.00065 0
M  V30 2880 H 269.7 2.24532 5.43009 0
M  V30 2881 H 271.224 1.45786 5.92941 0
M  V30 2882 H 272.638 3.34081 4.659 0
M  V30 2883 H 271.035 4.0865 4.3946 0
M  V30 2884 H 272.105 3.80163 3.01006 0
M  V30 2885 N 273.449 -1.08991 1.13837 0
M  V30 2886 C 274.698 -1.80631 0.897509 0
M  V30 2887 C 275.011 -1.86872 -0.57777 0
M  V30 2888 O 276.217 -2.54866 -0.935701 0
M  V30 2889 C 274.673 -3.24517 1.55618 0
M  V30 2890 C 274.281 -3.26529 3.0673 0
M  V30 2891 C 276.025 -4.00882 1.3962 0
M  V30 2892 C 273.932 -4.64965 3.65461 0
M  V30 2893 H 272.862 -0.67691 0.332129 0
M  V30 2894 H 275.513 -1.2246 1.3666 0
M  V30 2895 H 273.895 -3.82778 1.01476 0
M  V30 2896 H 275.069 -2.78008 3.67489 0
M  V30 2897 H 273.384 -2.63656 3.22296 0
M  V30 2898 H 275.981 -5.03167 1.80906 0
M  V30 2899 H 276.324 -4.14896 0.341578 0
M  V30 2900 H 276.857 -3.49075 1.90766 0
M  V30 2901 H 273.596 -4.56153 4.70749 0
M  V30 2902 H 273.116 -5.13792 3.09481 0
M  V30 2903 H 274.795 -5.3394 3.654 0
M  V30 2904 N 274.927 -0.932562 -1.27047 0
M  V30 2905 C 276.338 -0.619451 -1.76124 0
M  V30 2906 C 276.689 0.865397 -1.76083 0
M  V30 2907 O 275.814 1.67722 -1.36742 0
M  V30 2908 C 276.409 -1.11771 -3.19832 0
M  V30 2909 C 274.968 -0.855174 -3.66557 0
M  V30 2910 C 274.115 -1.27362 -2.46321 0
M  V30 2911 H 277.066 -1.11181 -1.13245 0
M  V30 2912 H 277.087 -0.46759 -3.77616 0
M  V30 2913 H 276.599 -2.19842 -3.1983 0
M  V30 2914 H 274.7 0.211524 -3.71999 0
M  V30 2915 H 274.813 -1.47613 -4.55793 0
M  V30 2916 H 273.177 -0.692119 -2.45116 0
M  V30 2917 H 273.96 -2.36307 -2.49025 0
M  V30 2918 N 276.405 1.4127 -0.698611 0
M  V30 2919 C 277.353 2.32588 -0.023855 0
M  V30 2920 C 278.347 1.51128 0.765292 0
M  V30 2921 O 279.553 1.67043 0.670571 0
M  V30 2922 H 275.928 0.751918 0.0110871 0
M  V30 2923 H 277.899 2.87167 -0.811031 0
M  V30 2924 C 276.648 3.35947 0.896369 0
M  V30 2925 H 275.971 3.98684 0.298548 0
M  V30 2926 H 277.411 4.02376 1.33676 0
M  V30 2927 C 275.87 2.70076 2.01396 0
M  V30 2928 O 276.4 2.55093 3.10307 0
M  V30 2929 N 274.606 2.28724 1.79259 0
M  V30 2930 H 274.153 2.4111 0.906841 0
M  V30 2931 H 274.111 1.84986 2.54219 0
M  V30 2932 N 277.883 0.443576 1.51229 0
M  V30 2933 C 279.16 -0.181038 1.9476 0
M  V30 2934 C 279.54 -1.59523 1.38259 0
M  V30 2935 O 278.888 -2.2122 0.572198 0
M  V30 2936 C 279.098 -0.152422 3.48667 0
M  V30 2937 C 280.446 -0.354923 4.23114 0
M  V30 2938 O 281.47 -0.230257 3.55455 0
M  V30 2939 O 280.329 -0.603674 5.43156 0
M  V30 2940 H 277.423 -0.1266 0.817252 0
M  V30 2941 H 279.969 0.502004 1.62105 0
M  V30 2942 H 278.741 0.836022 3.82265 0
M  V30 2943 H 278.364 -0.878107 3.87782 0
M  V30 2944 N 279.361 -1.56624 0.175154 0
M  V30 2945 C 280.591 -2.01082 -0.474283 0
M  V30 2946 C 280.999 -1.05447 -1.57091 0
M  V30 2947 O 280.342 -0.0480595 -1.83637 0
M  V30 2948 C 280.404 -3.41963 -1.10911 0
M  V30 2949 C 280.068 -4.56742 -0.153666 0
M  V30 2950 C 281.065 -5.16076 0.629448 0
M  V30 2951 C 278.75 -5.02277 -0.0483776 0
M  V30 2952 C 280.744 -6.19377 1.50501 0
M  V30 2953 C 278.431 -6.05427 0.830768 0
M  V30 2954 C 279.429 -6.63849 1.60605 0
M  V30 2955 O 279.117 -7.64998 2.47049 0
M  V30 2956 H 278.849 -0.664261 -0.125432 0
M  V30 2957 H 281.403 -2.03549 0.275163 0
M  V30 2958 H 279.633 -3.36422 -1.90676 0
M  V30 2959 H 281.322 -3.70352 -1.66114 0
M  V30 2960 H 282.088 -4.81776 0.558297 0
M  V30 2961 H 277.967 -4.56513 -0.641611 0
M  V30 2962 H 281.511 -6.64906 2.1106 0
M  V30 2963 H 277.408 -6.39151 0.903107 0
M  V30 2964 H 278.176 -7.82336 2.40607 0
M  V30 2965 N 280.839 0.0985539 -1.57292 0
M  V30 2966 C 281.769 1.12064 -2.04851 0
M  V30 2967 C 282.75 1.41981 -0.936767 0
M  V30 2968 O 283.935 1.52071 -1.20781 0
M  V30 2969 C 281.065 2.44144 -2.47004 0
M  V30 2970 C 280.019 2.28643 -3.6181 0
M  V30 2971 C 279.345 3.65869 -3.89929 0
M  V30 2972 C 280.645 1.72986 -4.92822 0
M  V30 2973 H 282.339 0.724979 -2.9049 0
M  V30 2974 H 279.885 0.34729 -1.39749 0
M  V30 2975 H 281.838 3.15914 -2.78884 0
M  V30 2976 H 280.562 2.85639 -1.5836 0
M  V30 2977 H 279.221 1.59318 -3.30172 0
M  V30 2978 H 278.869 4.04885 -2.98458 0
M  V30 2979 H 278.569 3.56344 -4.67218 0
M  V30 2980 H 280.093 4.39112 -4.2428 0
M  V30 2981 H 281.507 2.34593 -5.23105 0
M  V30 2982 H 279.904 1.74229 -5.74251 0
M  V30 2983 H 280.974 0.689007 -4.7998 0
M  V30 2984 N 282.317 1.53212 0.369288 0
M  V30 2985 C 283.247 1.82365 1.45826 0
M  V30 2986 C 284.228 0.676907 1.56051 0
M  V30 2987 O 285.413 0.926401 1.70679 0
M  V30 2988 C 282.543 2.01023 2.83208 0
M  V30 2989 C 281.497 3.1678 2.8781 0
M  V30 2990 C 280.823 3.20724 4.27832 0
M  V30 2991 C 282.123 4.55447 2.55667 0
M  V30 2992 H 283.817 2.73559 1.21678 0
M  V30 2993 H 281.363 1.3163 0.583911 0
M  V30 2994 H 283.316 2.20001 3.59413 0
M  V30 2995 H 282.04 1.06536 3.08736 0
M  V30 2996 H 280.699 2.97616 2.14056 0
M  V30 2997 H 280.347 2.23882 4.50429 0
M  V30 2998 H 280.047 3.98496 4.31827 0
M  V30 2999 H 281.571 3.41881 5.05915 0
M  V30 3000 H 282.985 4.74611 3.21586 0
M  V30 3001 H 281.382 5.35432 2.70984 0
M  V30 3002 H 282.452 4.60812 1.5093 0
M  V30 3003 N 283.795 -0.628877 1.44509 0
M  V30 3004 C 285.02 -1.42048 1.5112 0
M  V30 3005 C 285.445 -1.87594 0.137818 0
M  V30 3006 O 284.803 -1.58873 -0.873437 0
M  V30 3007 C 284.851 -2.61541 2.48251 0
M  V30 3008 O 283.955 -3.61453 1.98559 0
M  V30 3009 H 283.296 -0.424942 0.510216 0
M  V30 3010 H 285.826 -0.767374 1.89664 0
M  V30 3011 H 285.836 -3.09057 2.66361 0
M  V30 3012 H 284.511 -2.27736 3.48007 0
M  V30 3013 H 283.088 -3.20731 1.90227 0
M  V30 3014 N 285.273 -1.31445 -0.869486 0
M  V30 3015 C 286.519 -1.22347 -1.62489 0
M  V30 3016 C 286.874 0.216204 -1.91181 0
M  V30 3017 O 286.167 1.14977 -1.53268 0
M  V30 3018 C 286.361 -2.00145 -2.96102 0
M  V30 3019 C 286.19 -3.51531 -2.80456 0
M  V30 3020 C 284.96 -4.20882 -2.79618 0
M  V30 3021 C 287.158 -4.46471 -2.5528 0
M  V30 3022 N 285.14 -5.58421 -2.55027 0
M  V30 3023 C 286.511 -5.71682 -2.39957 0
M  V30 3024 C 288.566 -4.35892 -2.40629 0
M  V30 3025 C 287.269 -6.87511 -2.11472 0
M  V30 3026 C 289.295 -5.51505 -2.13532 0
M  V30 3027 C 288.657 -6.75707 -1.98998 0
M  V30 3028 H 284.756 -0.502815 -0.598917 0
M  V30 3029 H 287.34 -1.65639 -1.02332 0
M  V30 3030 H 285.511 -1.59221 -3.54264 0
M  V30 3031 H 287.243 -1.83063 -3.60929 0
M  V30 3032 H 283.998 -3.72857 -2.92018 0
M  V30 3033 H 284.422 -6.30841 -2.45701 0
M  V30 3034 H 289.064 -3.40533 -2.50593 0
M  V30 3035 H 286.782 -7.82897 -2.00245 0
M  V30 3036 H 290.368 -5.45238 -2.02995 0
M  V30 3037 H 289.248 -7.63655 -1.78326 0
M  V30 3038 N 286.751 1.08385 -1.14413 0
M  V30 3039 C 287.681 2.17321 -0.854044 0
M  V30 3040 C 288.662 1.69024 0.191049 0
M  V30 3041 O 289.847 1.94141 0.0476779 0
M  V30 3042 C 286.977 3.45719 -0.330983 0
M  V30 3043 C 285.931 4.07409 -1.31155 0
M  V30 3044 C 285.257 5.30762 -0.64778 0
M  V30 3045 C 286.557 4.48665 -2.67388 0
M  V30 3046 H 288.251 2.41845 -1.76498 0
M  V30 3047 H 285.797 1.16233 -0.850051 0
M  V30 3048 H 287.75 4.21241 -0.115645 0
M  V30 3049 H 286.474 3.2075 0.615381 0
M  V30 3050 H 285.133 3.33919 -1.51306 0
M  V30 3051 H 284.781 5.02078 0.304398 0
M  V30 3052 H 284.481 5.72992 -1.30207 0
M  V30 3053 H 286.005 6.08998 -0.441972 0
M  V30 3054 H 287.419 5.15364 -2.51143 0
M  V30 3055 H 285.816 5.01814 -3.29093 0
M  V30 3056 H 286.886 3.60543 -3.24248 0
M  V30 3057 N 288.23 0.939286 1.26551 0
M  V30 3058 C 289.16 0.465044 2.28822 0
M  V30 3059 C 290.141 -0.480692 1.63167 0
M  V30 3060 O 291.326 -0.382955 1.90387 0
M  V30 3061 C 288.456 -0.27234 3.46231 0
M  V30 3062 C 287.41 0.58666 4.2396 0
M  V30 3063 C 286.736 -0.280573 5.33963 0
M  V30 3064 C 288.036 1.85704 4.88171 0
M  V30 3065 H 289.73 1.31979 2.68741 0
M  V30 3066 H 287.276 0.636061 1.29191 0
M  V30 3067 H 289.229 -0.615133 4.16886 0
M  V30 3068 H 287.953 -1.16121 3.0526 0
M  V30 3069 H 286.612 0.91232 3.55067 0
M  V30 3070 H 286.26 -1.16874 4.89234 0
M  V30 3071 H 285.96 0.29076 5.8688 0
M  V30 3072 H 287.484 -0.618678 6.07458 0
M  V30 3073 H 288.898 1.58161 5.51052 0
M  V30 3074 H 287.295 2.37279 5.51197 0
M  V30 3075 H 288.365 2.56957 4.11219 0
M  V30 3076 N 289.708 -1.40897 0.706093 0
M  V30 3077 C 290.955 -2.01054 0.241531 0
M  V30 3078 C 291.283 -1.55956 -1.16223 0
M  V30 3079 O 290.538 -0.766336 -1.80072 0
M  V30 3080 C 290.837 -3.5646 0.259099 0
M  V30 3081 C 290.503 -4.21106 1.61184 0
M  V30 3082 C 289.165 -4.38479 1.98216 0
M  V30 3083 C 291.517 -4.57256 2.50132 0
M  V30 3084 C 288.845 -4.89282 3.2376 0
M  V30 3085 C 291.197 -5.09454 3.7502 0
M  V30 3086 C 289.861 -5.25037 4.12181 0
M  V30 3087 H 289.131 -0.73571 0.0883825 0
M  V30 3088 H 291.778 -1.68645 0.907257 0
M  V30 3089 H 290.083 -3.88721 -0.490189 0
M  V30 3090 H 291.78 -4.00826 -0.11804 0
M  V30 3091 H 288.37 -4.07966 1.31384 0
M  V30 3092 H 292.554 -4.43479 2.228 0
M  V30 3093 H 287.81 -4.99531 3.52532 0
M  V30 3094 H 291.984 -5.36404 4.44121 0
M  V30 3095 H 289.611 -5.64164 5.09532 0
M  V30 3096 N 291.186 -0.45159 -1.50991 0
M  V30 3097 C 292.435 0.111653 -2.01391 0
M  V30 3098 C 292.748 1.42529 -1.33959 0
M  V30 3099 O 293.954 2.07232 -1.75405 0
M  V30 3100 C 292.41 0.249514 -3.59034 0
M  V30 3101 C 292.018 -1.05453 -4.35412 0
M  V30 3102 C 293.762 0.765762 -4.17536 0
M  V30 3103 C 291.669 -0.881529 -5.84793 0
M  V30 3104 H 290.599 0.0455022 -0.752626 0
M  V30 3105 H 293.25 -0.583524 -1.73975 0
M  V30 3106 H 291.632 1.00803 -3.82955 0
M  V30 3107 H 292.806 -1.82248 -4.23229 0
M  V30 3108 H 291.121 -1.50039 -3.88429 0
M  V30 3109 H 293.718 0.911913 -5.26866 0
M  V30 3110 H 294.061 1.75201 -3.77638 0
M  V30 3111 H 294.594 0.0651744 -3.97747 0
M  V30 3112 H 291.333 -1.84057 -6.29129 0
M  V30 3113 H 290.853 -0.153625 -5.99603 0
M  V30 3114 H 292.532 -0.540363 -6.4474 0
M  V30 3115 N 292.664 1.56529 -0.183458 0
M  V30 3116 C 293.627 2.17324 0.728223 0
M  V30 3117 C 294.627 1.12453 1.14939 0
M  V30 3118 O 295.817 1.37902 1.06437 0
M  V30 3119 C 292.949 2.76591 1.99274 0
M  V30 3120 H 294.142 2.99241 0.198772 0
M  V30 3121 H 291.695 1.5616 0.0661391 0
M  V30 3122 H 292.43 1.98441 2.56499 0
M  V30 3123 H 292.215 3.5335 1.69959 0
M  V30 3124 H 293.705 3.23311 2.6431 0
M  V30 3125 N 294.142 -0.090211 1.57342 0
M  V30 3126 C 295.389 -0.792807 1.86335 0
M  V30 3127 C 295.717 -1.78494 0.772662 0
M  V30 3128 O 294.972 -1.94305 -0.233258 0
M  V30 3129 C 295.271 -1.55222 3.21933 0
M  V30 3130 C 294.937 -0.701765 4.45406 0
M  V30 3131 C 293.599 -0.467334 4.78925 0
M  V30 3132 C 295.951 -0.11086 5.21082 0
M  V30 3133 C 293.279 0.367785 5.85546 0
M  V30 3134 C 295.631 0.711609 6.28585 0
M  V30 3135 C 294.295 0.956086 6.60617 0
M  V30 3136 H 293.565 -0.290109 0.681849 0
M  V30 3137 H 296.212 -0.0541332 1.91423 0
M  V30 3138 H 294.517 -2.3626 3.12551 0
M  V30 3139 H 296.214 -2.10032 3.41595 0
M  V30 3140 H 292.804 -0.894598 4.1916 0
M  V30 3141 H 296.988 -0.279129 4.95514 0
M  V30 3142 H 292.244 0.566128 6.08773 0
M  V30 3143 H 296.418 1.17632 6.86393 0
M  V30 3144 H 294.045 1.60499 7.43064 0
M  V30 3145 N 295.62 -1.53406 -0.361157 0
M  V30 3146 C 296.55 -1.83136 -1.44857 0
M  V30 3147 C 297.531 -0.685174 -1.5569 0
M  V30 3148 O 298.716 -0.93544 -1.70186 0
M  V30 3149 C 295.846 -2.02522 -2.82138 0
M  V30 3150 C 294.8 -3.18302 -2.86126 0
M  V30 3151 C 294.126 -3.22989 -4.26125 0
M  V30 3152 C 295.426 -4.56796 -2.53248 0
M  V30 3153 H 297.12 -2.74201 -1.20226 0
M  V30 3154 H 294.666 -1.31938 -0.576922 0
M  V30 3155 H 296.619 -2.21904 -3.58241 0
M  V30 3156 H 295.343 -1.08172 -3.08166 0
M  V30 3157 H 294.002 -2.98747 -2.12475 0
M  V30 3158 H 293.65 -2.26267 -4.49235 0
M  V30 3159 H 293.35 -4.00781 -4.29708 0
M  V30 3160 H 294.874 -3.44559 -5.04094 0
M  V30 3161 H 296.288 -4.7631 -3.19064 0
M  V30 3162 H 294.685 -5.36862 -2.68141 0
M  V30 3163 H 295.755 -4.61606 -1.48484 0
M  V30 3164 N 297.098 0.621204 -1.44841 0
M  V30 3165 C 298.345 1.38055 -1.48145 0
M  V30 3166 C 298.673 1.94143 -0.117867 0
M  V30 3167 O 297.928 1.74713 0.881694 0
M  V30 3168 C 298.227 2.55675 -2.4973 0
M  V30 3169 C 297.893 2.17817 -3.94799 0
M  V30 3170 C 296.555 2.07205 -4.34303 0
M  V30 3171 C 298.907 1.88065 -4.86087 0
M  V30 3172 C 296.235 1.65045 -5.63007 0
M  V30 3173 C 298.587 1.47394 -6.15189 0
M  V30 3174 C 297.251 1.35331 -6.53637 0
M  V30 3175 H 296.521 0.505181 -0.542101 0
M  V30 3176 H 299.168 0.703477 -1.78111 0
M  V30 3177 H 297.473 3.2866 -2.13284 0
M  V30 3178 H 299.17 3.13904 -2.4953 0
M  V30 3179 H 295.76 2.26998 -3.63552 0
M  V30 3180 H 299.944 1.95168 -4.56315 0
M  V30 3181 H 295.2 1.54317 -5.91605 0
M  V30 3182 H 299.374 1.23415 -6.85377 0
M  V30 3183 H 297.001 1.02435 -7.53267 0
M  V30 3184 N 298.576 1.31904 0.862503 0
M  V30 3185 C 299.801 1.25135 1.65397 0
M  V30 3186 C 300.226 -0.179 1.87246 0
M  V30 3187 O 299.584 -1.1277 1.4196 0
M  V30 3188 C 299.632 2.00832 2.99498 0
M  V30 3189 O 298.736 1.35075 3.89652 0
M  V30 3190 H 298.077 0.431655 0.504549 0
M  V30 3191 H 300.607 1.74094 1.07483 0
M  V30 3192 H 300.617 2.10709 3.49379 0
M  V30 3193 H 299.292 3.04847 2.82916 0
M  V30 3194 H 297.869 1.33696 3.48109 0
M  V30 3195 N 300.054 -1.07777 1.14986 0
M  V30 3196 C 301.302 -1.79934 0.920235 0
M  V30 3197 C 301.623 -1.86955 -0.554336 0
M  V30 3198 O 300.893 -1.36731 -1.40291 0
M  V30 3199 H 299.473 -0.666424 0.337473 0
M  V30 3200 H 302.135 -1.3027 1.44968 0
M  V30 3201 H 301.231 -2.82539 1.32583 0
M  V30 3202 N 301.532 -0.945985 -1.26051 0
M  V30 3203 C 302.781 -0.591836 -1.92822 0
M  V30 3204 C 303.094 0.873956 -1.7499 0
M  V30 3205 O 304.3 1.33769 -2.36259 0
M  V30 3206 C 302.756 -1.00776 -3.45503 0
M  V30 3207 C 302.364 -2.4955 -3.7206 0
M  V30 3208 C 304.108 -0.725735 -4.1825 0
M  V30 3209 C 302.015 -2.84988 -5.18205 0
M  V30 3210 H 300.945 -0.217635 -0.721908 0
M  V30 3211 H 303.596 -1.14927 -1.43052 0
M  V30 3212 H 301.978 -0.378812 -3.94184 0
M  V30 3213 H 303.152 -3.1739 -3.34066 0
M  V30 3214 H 301.467 -2.75133 -3.12555 0
M  V30 3215 H 304.064 -0.966771 -5.25887 0
M  V30 3216 H 304.407 0.337639 -4.14929 0
M  V30 3217 H 304.94 -1.31463 -3.7545 0
M  V30 3218 H 301.679 -3.90307 -5.26631 0
M  V30 3219 H 301.199 -2.21813 -5.57278 0
M  V30 3220 H 302.878 -2.73712 -5.86252 0
M  V30 3221 N 303.011 1.40521 -0.713556 0
M  V30 3222 C 304.26 2.00155 -0.249192 0
M  V30 3223 C 304.573 1.57224 1.16362 0
M  V30 3224 O 305.779 2.09542 1.72639 0
M  V30 3225 C 304.235 3.5773 -0.3946 0
M  V30 3226 C 303.843 4.09635 -1.81392 0
M  V30 3227 C 305.587 4.24499 0.00907364 0
M  V30 3228 C 303.494 5.59707 -1.91003 0
M  V30 3229 H 302.424 0.74868 -0.0894114 0
M  V30 3230 H 305.075 1.60784 -0.884352 0
M  V30 3231 H 303.457 3.94792 0.30911 0
M  V30 3232 H 304.631 3.83955 -2.54785 0
M  V30 3233 H 302.946 3.55456 -2.16888 0
M  V30 3234 H 305.543 5.34683 -0.0420404 0
M  V30 3235 H 305.886 4.02824 1.05065 0
M  V30 3236 H 306.419 3.92536 -0.645007 0
M  V30 3237 H 303.158 5.86234 -2.93275 0
M  V30 3238 H 302.678 5.87258 -1.22019 0
M  V30 3239 H 304.357 6.24776 -1.6812 0
M  V30 3240 N 304.489 0.459591 1.5075 0
M  V30 3241 C 305.719 -0.0972338 2.06371 0
M  V30 3242 C 306.127 -1.35074 1.32483 0
M  V30 3243 O 305.47 -1.79637 0.384226 0
M  V30 3244 C 305.532 -0.462759 3.56509 0
M  V30 3245 C 305.196 0.687084 4.51805 0
M  V30 3246 C 306.193 1.56578 4.95761 0
M  V30 3247 C 303.878 0.874144 4.94635 0
M  V30 3248 C 305.872 2.61604 5.81242 0
M  V30 3249 C 303.559 1.92765 5.79901 0
M  V30 3250 C 304.557 2.79697 6.23104 0
M  V30 3251 O 304.245 3.83235 7.06673 0
M  V30 3252 H 303.977 -0.00140687 0.675999 0
M  V30 3253 H 306.531 0.644011 1.95043 0
M  V30 3254 H 304.761 -1.25703 3.65699 0
M  V30 3255 H 306.45 -0.953323 3.94546 0
M  V30 3256 H 307.216 1.4329 4.6335 0
M  V30 3257 H 303.095 0.207006 4.60535 0
M  V30 3258 H 306.639 3.29489 6.14884 0
M  V30 3259 H 302.536 2.06064 6.11725 0
M  V30 3260 H 303.304 3.80084 7.24899 0
M  V30 3261 N 305.967 -1.56429 0.191757 0
M  V30 3262 C 307.195 -2.01867 -0.453586 0
M  V30 3263 C 307.61 -1.07191 -1.5542 0
M  V30 3264 O 306.967 -0.0762108 -1.82341 0
M  V30 3265 C 307.018 -3.47017 -1.013 0
M  V30 3266 O 306.739 -4.38078 0.0437005 0
M  V30 3267 C 308.24 -4.07956 -1.73456 0
M  V30 3268 H 305.46 -0.661211 -0.114199 0
M  V30 3269 H 308.004 -2.02295 0.299483 0
M  V30 3270 H 306.159 -3.47298 -1.71647 0
M  V30 3271 H 306.573 -5.23178 -0.372212 0
M  V30 3272 H 308.047 -5.1138 -2.07833 0
M  V30 3273 H 308.524 -3.51222 -2.63704 0
M  V30 3274 H 309.13 -4.11437 -1.07702 0
M  V30 3275 N 307.445 0.0818655 -1.57387 0
M  V30 3276 C 308.675 0.794954 -1.90694 0
M  V30 3277 C 309.083 1.72147 -0.784982 0
M  V30 3278 O 308.426 1.81974 0.251196 0
M  V30 3279 C 308.488 1.65042 -3.19376 0
M  V30 3280 C 308.152 0.894337 -4.48164 0
M  V30 3281 C 309.149 0.21813 -5.19442 0
M  V30 3282 C 306.834 0.864495 -4.94805 0
M  V30 3283 C 308.828 -0.477802 -6.35607 0
M  V30 3284 C 306.515 0.164785 -6.10878 0
M  V30 3285 C 307.513 -0.505173 -6.81129 0
M  V30 3286 O 307.201 -1.19363 -7.94989 0
M  V30 3287 H 306.933 0.231779 -0.635023 0
M  V30 3288 H 309.487 0.059493 -2.05314 0
M  V30 3289 H 307.717 2.42844 -3.00938 0
M  V30 3290 H 309.406 2.24127 -3.38411 0
M  V30 3291 H 310.172 0.232558 -4.84442 0
M  V30 3292 H 306.051 1.37542 -4.40004 0
M  V30 3293 H 309.595 -1.00129 -6.90377 0
M  V30 3294 H 305.492 0.148249 -6.4533 0
M  V30 3295 H 306.26 -1.10188 -8.11049 0
M  V30 3296 N 308.923 1.53595 0.353017 0
M  V30 3297 C 310.171 1.70049 1.09215 0
M  V30 3298 C 310.492 0.461406 1.89463 0
M  V30 3299 O 309.762 -0.524633 1.88744 0
M  V30 3300 H 308.342 0.626912 0.40619 0
M  V30 3301 H 311.004 1.90822 0.396585 0
M  V30 3302 H 310.1 2.56718 1.77488 0
M  V30 3303 N 310.401 -0.613514 1.45168 0
M  V30 3304 C 311.351 -1.71871 1.49815 0
M  V30 3305 C 312.335 -1.56774 0.362021 0
M  V30 3306 O 313.527 -1.66212 0.608493 0
M  V30 3307 C 310.656 -3.1061 1.46207 0
M  V30 3308 C 309.742 -3.31114 2.64999 0
M  V30 3309 N 310.133 -3.21904 3.90143 0
M  V30 3310 C 308.431 -3.61966 2.6057 0
M  V30 3311 C 309.132 -3.43577 4.69393 0
M  V30 3312 N 308.108 -3.67287 4.00751 0
M  V30 3313 H 311.91 -1.63235 2.444 0
M  V30 3314 H 309.424 -0.816577 1.40377 0
M  V30 3315 H 311.421 -3.8989 1.4762 0
M  V30 3316 H 310.081 -3.20399 0.52673 0
M  V30 3317 H 311.092 -3.00436 4.21852 0
M  V30 3318 H 307.769 -3.78629 1.75916 0
M  V30 3319 H 309.159 -3.41901 5.78406 0
M  V30 3320 N 311.879 -1.3236 -0.855495 0
M  V30 3321 C 313.125 -1.23054 -1.612 0
M  V30 3322 C 313.458 0.207404 -1.93089 0
M  V30 3323 O 312.733 1.14432 -1.57275 0
M  V30 3324 C 313.016 -2.08937 -2.93287 0
M  V30 3325 C 312.869 -3.61105 -2.68185 0
M  V30 3326 C 314.188 -1.94986 -3.94549 0
M  V30 3327 H 311.307 -0.448364 -0.584926 0
M  V30 3328 H 313.949 -1.62297 -0.987917 0
M  V30 3329 H 312.099 -1.75599 -3.46551 0
M  V30 3330 H 313.771 -4.04652 -2.21483 0
M  V30 3331 H 312.014 -3.83813 -2.02164 0
M  V30 3332 H 312.685 -4.16522 -3.62234 0
M  V30 3333 H 315.161 -2.24189 -3.5054 0
M  V30 3334 H 314.037 -2.57356 -4.84829 0
M  V30 3335 H 314.298 -0.917263 -4.3248 0
M  V30 3336 N 313.357 1.07166 -1.15556 0
M  V30 3337 C 314.287 2.16403 -0.877046 0
M  V30 3338 C 315.268 1.69217 0.173111 0
M  V30 3339 O 316.453 1.94181 0.027084 0
M  V30 3340 C 313.583 3.45349 -0.367632 0
M  V30 3341 C 312.537 4.05995 -1.35468 0
M  V30 3342 C 311.863 5.30045 -0.704038 0
M  V30 3343 C 313.163 4.45804 -2.72132 0
M  V30 3344 H 314.857 2.39959 -1.79053 0
M  V30 3345 H 312.403 1.15325 -0.862331 0
M  V30 3346 H 314.356 4.21095 -0.160317 0
M  V30 3347 H 313.08 3.21385 0.581326 0
M  V30 3348 H 311.739 3.32296 -1.54839 0
M  V30 3349 H 311.387 5.02373 0.251128 0
M  V30 3350 H 311.087 5.71579 -1.36277 0
M  V30 3351 H 312.611 6.08495 -0.50654 0
M  V30 3352 H 314.025 5.12671 -2.56595 0
M  V30 3353 H 312.422 4.98296 -3.34397 0
M  V30 3354 H 313.492 3.57083 -3.28054 0
M  V30 3355 N 314.835 0.952656 1.25548 0
M  V30 3356 C 316.081 0.616826 1.93822 0
M  V30 3357 C 316.436 -0.836684 1.73255 0
M  V30 3358 O 315.729 -1.59218 1.06584 0
M  V30 3359 C 315.923 0.908818 3.45652 0
M  V30 3360 C 315.752 2.38916 3.80984 0
M  V30 3361 C 314.522 3.04637 4.03143 0
M  V30 3362 C 316.72 3.36838 3.88645 0
M  V30 3363 N 314.702 4.42565 4.25453 0
M  V30 3364 C 316.073 4.60065 4.1562 0
M  V30 3365 C 318.128 3.31704 3.71318 0
M  V30 3366 C 316.831 5.78795 4.2707 0
M  V30 3367 C 318.857 4.4977 3.84006 0
M  V30 3368 C 318.219 5.71783 4.11392 0
M  V30 3369 H 314.318 0.27629 0.731565 0
M  V30 3370 H 316.902 1.22443 1.5138 0
M  V30 3371 H 315.073 0.330166 3.86994 0
M  V30 3372 H 316.805 0.533093 4.01174 0
M  V30 3373 H 313.56 2.55215 3.98952 0
M  V30 3374 H 313.984 5.1399 4.40617 0
M  V30 3375 H 318.626 2.3842 3.49164 0
M  V30 3376 H 316.344 6.72521 4.48041 0
M  V30 3377 H 319.93 4.47342 3.71989 0
M  V30 3378 H 318.81 6.61617 4.2099 0
M  V30 3379 N 316.313 -1.40141 0.720998 0
M  V30 3380 C 317.26 -2.30688 0.071919 0
M  V30 3381 C 318.23 -1.48476 -0.744584 0
M  V30 3382 O 319.415 -1.77201 -0.707423 0
M  V30 3383 C 316.555 -3.34724 -0.839855 0
M  V30 3384 C 315.668 -4.31998 -0.0122438 0
M  V30 3385 C 314.803 -5.23102 -0.923995 0
M  V30 3386 C 313.842 -6.12033 -0.0907969 0
M  V30 3387 N 312.979 -6.95537 -0.957718 0
M  V30 3388 H 317.819 -2.85628 0.849755 0
M  V30 3389 H 315.356 -1.40653 0.430726 0
M  V30 3390 H 317.314 -3.93618 -1.38279 0
M  V30 3391 H 315.944 -2.81274 -1.58381 0
M  V30 3392 H 314.996 -3.74841 0.64794 0
M  V30 3393 H 316.308 -4.94772 0.632595 0
M  V30 3394 H 315.462 -5.86953 -1.53527 0
M  V30 3395 H 314.201 -4.60615 -1.60264 0
M  V30 3396 H 313.206 -5.47207 0.533377 0
M  V30 3397 H 314.431 -6.76581 0.584428 0
M  V30 3398 H 312.377 -6.35633 -1.62192 0
M  V30 3399 H 312.294 -7.55099 -0.36904 0
M  V30 3400 H 313.562 -7.63832 -1.555 0
M  V30 3401 N 317.792 -0.46758 -1.50504 0
M  V30 3402 C 318.755 0.317059 -2.26996 0
M  V30 3403 C 319.755 0.923513 -1.31635 0
M  V30 3404 O 320.945 0.793239 -1.55091 0
M  V30 3405 C 318.077 1.45134 -3.08462 0
M  V30 3406 H 319.27 -0.353723 -2.97807 0
M  V30 3407 H 316.823 -0.221545 -1.54722 0
M  V30 3408 H 317.558 2.15728 -2.4214 0
M  V30 3409 H 317.343 1.02232 -3.78538 0
M  V30 3410 H 318.833 2.00493 -3.66323 0
M  V30 3411 N 319.27 1.56325 -0.20005 0
M  V30 3412 C 320.22 2.15939 0.731743 0
M  V30 3413 C 321.204 1.10154 1.17281 0
M  V30 3414 O 322.396 1.36203 1.13038 0
M  V30 3415 C 319.525 2.82614 1.94895 0
M  V30 3416 C 318.611 3.95596 1.52855 0
M  V30 3417 N 319.002 4.99118 0.819418 0
M  V30 3418 C 317.3 4.07288 1.81748 0
M  V30 3419 C 318.001 5.78513 0.608053 0
M  V30 3420 N 316.977 5.31117 1.15828 0
M  V30 3421 H 320.779 2.9334 0.181285 0
M  V30 3422 H 318.293 1.624 -0.000452172 0
M  V30 3423 H 320.29 3.23718 2.62702 0
M  V30 3424 H 318.95 2.06702 2.50408 0
M  V30 3425 H 319.961 5.15723 0.47436 0
M  V30 3426 H 316.638 3.42509 2.38734 0
M  V30 3427 H 318.028 6.71885 0.0451619 0
M  V30 3428 N 320.748 -0.0735177 1.57428 0
M  V30 3429 C 321.68 -1.11423 2.00294 0
M  V30 3430 C 322.693 -1.35084 0.908637 0
M  V30 3431 O 323.882 -1.33355 1.18654 0
M  V30 3432 C 320.982 -2.46548 2.32523 0
M  V30 3433 C 320.155 -2.42867 3.63778 0
M  V30 3434 C 319.214 -3.60087 3.83697 0
M  V30 3435 O 318.24 -3.41595 4.55304 0
M  V30 3436 N 319.442 -4.80372 3.25919 0
M  V30 3437 H 322.207 -0.749206 2.90184 0
M  V30 3438 H 319.768 -0.262195 1.59763 0
M  V30 3439 H 321.76 -3.23607 2.43024 0
M  V30 3440 H 320.33 -2.75059 1.48531 0
M  V30 3441 H 319.55 -1.51206 3.64047 0
M  V30 3442 H 320.838 -2.37506 4.49965 0
M  V30 3443 H 320.236 -4.983 2.67795 0
M  V30 3444 H 318.793 -5.54948 3.41871 0
M  V30 3445 N 322.226 -1.5378 -0.344866 0
M  V30 3446 C 323.176 -1.78057 -1.42407 0
M  V30 3447 C 324.16 -0.635732 -1.47808 0
M  V30 3448 O 325.352 -0.89508 -1.527 0
M  V30 3449 C 322.481 -1.99242 -2.79566 0
M  V30 3450 C 321.567 -3.19787 -2.78562 0
M  V30 3451 N 321.958 -4.41284 -2.47189 0
M  V30 3452 C 320.256 -3.2093 -3.0971 0
M  V30 3453 C 320.957 -5.23128 -2.54385 0
M  V30 3454 N 319.933 -4.59813 -2.89953 0
M  V30 3455 H 323.735 -2.69588 -1.17046 0
M  V30 3456 H 321.249 -1.52687 -0.553217 0
M  V30 3457 H 323.246 -2.14768 -3.57324 0
M  V30 3458 H 321.906 -1.08953 -3.05875 0
M  V30 3459 H 322.917 -4.68657 -2.20411 0
M  V30 3460 H 319.594 -2.40603 -3.41199 0
M  V30 3461 H 320.984 -6.30096 -2.333 0
M  V30 3462 N 323.704 0.605807 -1.45491 0
M  V30 3463 C 324.95 1.36679 -1.49823 0
M  V30 3464 C 325.283 1.93693 -0.140175 0
M  V30 3465 O 324.558 1.75158 0.845581 0
M  V30 3466 C 324.841 2.51337 -2.57879 0
M  V30 3467 C 324.694 1.99508 -4.03134 0
M  V30 3468 C 326.013 3.53463 -2.62205 0
M  V30 3469 H 323.132 0.495617 -0.545466 0
M  V30 3470 H 325.774 0.682732 -1.7731 0
M  V30 3471 H 323.924 3.09691 -2.34571 0
M  V30 3472 H 325.596 1.45789 -4.37656 0
M  V30 3473 H 323.839 1.30496 -4.13707 0
M  V30 3474 H 324.51 2.82169 -4.74431 0
M  V30 3475 H 326.986 3.04953 -2.83095 0
M  V30 3476 H 325.862 4.31178 -3.39672 0
M  V30 3477 H 326.123 4.09197 -1.67363 0
M  V30 3478 N 325.182 1.32811 0.848464 0
M  V30 3479 C 326.145 1.22194 1.9391 0
M  V30 3480 C 327.145 0.143404 1.60159 0
M  V30 3481 O 328.335 0.394253 1.6968 0
M  V30 3482 C 325.467 0.88067 3.29328 0
M  V30 3483 H 326.66 2.19127 2.04752 0
M  V30 3484 H 324.213 1.16731 1.0394 0
M  V30 3485 H 324.948 -0.0865776 3.24184 0
M  V30 3486 H 324.733 1.66052 3.55203 0
M  V30 3487 H 326.223 0.830871 4.09251 0
M  V30 3488 N 326.66 -1.06551 1.16123 0
M  V30 3489 C 327.885 -1.83544 0.965735 0
M  V30 3490 C 328.31 -1.81843 -0.481102 0
M  V30 3491 O 327.668 -1.21732 -1.34354 0
M  V30 3492 C 327.716 -3.28169 1.49457 0
M  V30 3493 O 326.82 -4.0643 0.699157 0
M  V30 3494 H 326.161 -0.568026 0.343864 0
M  V30 3495 H 328.691 -1.34362 1.54299 0
M  V30 3496 H 328.701 -3.78992 1.51092 0
M  V30 3497 H 327.376 -3.28722 2.54784 0
M  V30 3498 H 325.953 -3.65216 0.7531 0
M  V30 3499 N 328.138 -0.959301 -1.25041 0
M  V30 3500 C 329.068 -0.501388 -2.28053 0
M  V30 3501 C 330.049 0.454673 -1.63911 0
M  V30 3502 O 331.234 0.352618 -1.90972 0
M  V30 3503 C 328.364 0.217224 -3.4662 0
M  V30 3504 C 327.318 -0.654034 -4.22973 0
M  V30 3505 C 326.644 0.195589 -5.34342 0
M  V30 3506 C 327.944 -1.93447 -4.85155 0
M  V30 3507 H 329.638 -1.36238 -2.66608 0
M  V30 3508 H 327.184 -0.656534 -1.28163 0
M  V30 3509 H 329.137 0.548732 -4.17812 0
M  V30 3510 H 327.861 1.1125 -3.07068 0
M  V30 3511 H 326.52 -0.968693 -3.5357 0
M  V30 3512 H 326.168 1.09076 -4.91031 0
M  V30 3513 H 325.868 -0.384091 -5.86343 0
M  V30 3514 H 327.392 0.521958 -6.08365 0
M  V30 3515 H 328.806 -1.66908 -5.48466 0
M  V30 3516 H 327.203 -2.46018 -5.47353 0
M  V30 3517 H 328.273 -2.63466 -4.07079 0
M  V30 3518 N 329.616 1.39756 -0.72842 0
M  V30 3519 C 330.841 2.05472 -0.282159 0
M  V30 3520 C 331.266 1.54549 1.07221 0
M  V30 3521 O 330.624 0.686372 1.67805 0
M  V30 3522 C 330.672 3.59462 -0.286264 0
M  V30 3523 O 329.776 4.05918 0.728298 0
M  V30 3524 H 329.117 0.651226 -0.129618 0
M  V30 3525 H 331.647 1.78915 -0.992499 0
M  V30 3526 H 331.657 4.07798 -0.128373 0
M  V30 3527 H 330.332 3.95889 -1.27456 0
M  V30 3528 H 328.909 3.69012 0.537081 0
M  V30 3529 N 331.094 0.475555 1.50254 0
M  V30 3530 C 332.342 -0.077738 2.0195 0
M  V30 3531 C 332.663 -1.39813 1.35931 0
M  V30 3532 O 331.933 -1.89249 0.506123 0
M  V30 3533 H 330.513 -0.031719 0.746326 0
M  V30 3534 H 333.175 0.626995 1.84539 0
M  V30 3535 H 332.271 -0.225995 3.11281 0
M  V30 3536 N 332.573 -1.56217 0.208337 0
M  V30 3537 C 333.523 -2.16324 -0.720281 0
M  V30 3538 C 334.507 -1.10775 -1.16695 0
M  V30 3539 O 335.699 -1.36801 -1.12314 0
M  V30 3540 C 332.828 -2.83644 -1.93393 0
M  V30 3541 C 331.914 -3.96401 -1.50755 0
M  V30 3542 N 332.305 -4.99546 -0.792937 0
M  V30 3543 C 330.603 -4.08246 -1.79585 0
M  V30 3544 C 331.304 -5.78828 -0.577364 0
M  V30 3545 N 330.28 -5.31723 -1.1301 0
M  V30 3546 H 334.082 -2.93432 -0.165725 0
M  V30 3547 H 331.596 -1.62397 0.00906463 0
M  V30 3548 H 333.593 -3.25107 -2.60981 0
M  V30 3549 H 332.253 -2.08027 -2.49308 0
M  V30 3550 H 333.264 -5.15967 -0.447004 0
M  V30 3551 H 329.941 -3.4377 -2.36915 0
M  V30 3552 H 331.331 -6.71899 -0.00952956 0
M  V30 3553 N 334.051 0.0651679 -1.57465 0
M  V30 3554 C 334.983 1.10359 -2.00882 0
M  V30 3555 C 335.996 1.346 -0.915788 0
M  V30 3556 O 337.185 1.32723 -1.1936 0
M  V30 3557 C 334.285 2.45312 -2.33828 0
M  V30 3558 C 333.458 2.40934 -3.65061 0
M  V30 3559 C 332.517 3.58047 -3.85602 0
M  V30 3560 O 331.543 3.39175 -4.57109 0
M  V30 3561 N 332.745 4.78637 -3.28462 0
M  V30 3562 H 335.51 0.733807 -2.90578 0
M  V30 3563 H 333.071 0.253719 -1.599 0
M  V30 3564 H 335.063 3.22314 -2.44737 0
M  V30 3565 H 333.633 2.74267 -1.49988 0
M  V30 3566 H 332.853 1.49273 -3.64844 0
M  V30 3567 H 334.141 2.35117 -4.51218 0
M  V30 3568 H 333.539 4.96872 -2.70433 0
M  V30 3569 H 332.096 5.53127 -3.44809 0
M  V30 3570 N 335.529 1.53961 0.336706 0
M  V30 3571 C 336.806 1.62171 1.09361 0
M  V30 3572 C 337.186 0.447263 2.06307 0
M  V30 3573 O 336.534 -0.559802 2.21537 0
M  V30 3574 C 336.744 2.98565 1.80721 0
M  V30 3575 C 338.092 3.54157 2.34218 0
M  V30 3576 O 339.116 3.00784 1.90807 0
M  V30 3577 O 337.975 4.47528 3.13657 0
M  V30 3578 H 335.069 0.6562 0.503319 0
M  V30 3579 H 337.615 1.66307 0.33765 0
M  V30 3580 H 336.387 3.75482 1.10132 0
M  V30 3581 H 336.01 2.9805 2.63158 0
M  V30 3582 N 337.007 -0.598083 1.45811 0
M  V30 3583 C 338.423 -0.919847 1.30426 0
M  V30 3584 C 338.623 -1.99759 0.264303 0
M  V30 3585 O 337.679 -2.50221 -0.338472 0
M  V30 3586 C 338.992 -1.35176 2.68603 0
M  V30 3587 C 340.54 -1.46546 2.76574 0
M  V30 3588 C 341.015 -1.9311 4.15298 0
M  V30 3589 N 342.506 -2.00328 4.1764 0
M  V30 3590 C 343.241 -2.37599 5.21856 0
M  V30 3591 N 342.737 -2.73771 6.36413 0
M  V30 3592 N 344.53 -2.38021 5.09218 0
M  V30 3593 H 336.681 0.114111 2.12093 0
M  V30 3594 H 338.944 -0.0116121 0.947929 0
M  V30 3595 H 338.65 -0.633969 3.45939 0
M  V30 3596 H 338.524 -2.3164 2.97696 0
M  V30 3597 H 340.911 -2.17415 1.99537 0
M  V30 3598 H 340.992 -0.483727 2.51185 0
M  V30 3599 H 340.636 -1.22824 4.92825 0
M  V30 3600 H 340.566 -2.92213 4.38086 0
M  V30 3601 H 343.057 -1.74925 3.34977 0
M  V30 3602 H 343.37 -3.0112 7.11721 0
M  V30 3603 H 341.715 -2.71445 6.39799 0
M  V30 3604 H 344.906 -2.09174 4.18765 0
M  V30 3605 H 345.079 -2.66741 5.90554 0
M  V30 3606 N 338.485 -1.33259 -0.841409 0
M  V30 3607 C 339.417 -1.19136 -1.95804 0
M  V30 3608 C 340.43 -0.122965 -1.62335 0
M  V30 3609 O 341.619 -0.373154 -1.74556 0
M  V30 3610 C 338.719 -0.804268 -3.29218 0
M  V30 3611 C 337.892 -1.96376 -3.90839 0
M  V30 3612 C 336.951 -1.55806 -5.02604 0
M  V30 3613 O 335.977 -2.27203 -5.21888 0
M  V30 3614 N 337.179 -0.461609 -5.78662 0
M  V30 3615 H 339.944 -2.15326 -2.08458 0
M  V30 3616 H 337.505 -1.25971 -1.017 0
M  V30 3617 H 339.497 -0.51501 -4.0141 0
M  V30 3618 H 338.067 0.0668809 -3.12528 0
M  V30 3619 H 337.287 -2.41879 -3.11269 0
M  V30 3620 H 338.575 -2.73966 -4.28742 0
M  V30 3621 H 337.973 0.132343 -5.65545 0
M  V30 3622 H 336.53 -0.232013 -6.51387 0
M  V30 3623 N 339.963 1.05934 -1.16686 0
M  V30 3624 C 341.209 1.79065 -0.95203 0
M  V30 3625 C 341.542 1.87147 0.518629 0
M  V30 3626 O 340.817 1.36574 1.38484 0
M  V30 3627 C 341.1 3.23359 -1.58464 0
M  V30 3628 C 340.953 3.23336 -3.12689 0
M  V30 3629 C 342.272 4.21004 -1.28232 0
M  V30 3630 H 339.391 0.65005 -0.34728 0
M  V30 3631 H 342.033 1.23868 -1.44072 0
M  V30 3632 H 340.183 3.70493 -1.16908 0
M  V30 3633 H 341.855 2.84336 -3.6325 0
M  V30 3634 H 340.098 2.61886 -3.4583 0
M  V30 3635 H 340.769 4.25144 -3.52075 0
M  V30 3636 H 343.245 3.8233 -1.64203 0
M  V30 3637 H 342.121 5.20225 -1.75092 0
M  V30 3638 H 342.382 4.41639 -0.201791 0
M  V30 3639 N 341.441 0.965919 1.2453 0
M  V30 3640 C 342.852 0.665929 1.7442 0
M  V30 3641 C 343.203 -0.818407 1.78316 0
M  V30 3642 O 342.328 -1.64037 1.41141 0
M  V30 3643 C 342.923 1.20211 3.16757 0
M  V30 3644 C 341.482 0.952059 3.6416 0
M  V30 3645 C 340.629 1.33848 2.42858 0
M  V30 3646 H 343.58 1.14144 1.10258 0
M  V30 3647 H 343.601 0.567544 3.76244 0
M  V30 3648 H 343.113 2.28244 3.13889 0
M  V30 3649 H 341.214 -0.112821 3.72429 0
M  V30 3650 H 341.327 1.59645 4.51719 0
M  V30 3651 H 339.691 0.756864 2.43195 0
M  V30 3652 H 340.474 2.42827 2.42673 0
M  V30 3653 N 342.919 -1.39368 0.735821 0
M  V30 3654 C 344.167 -2.00101 0.283562 0
M  V30 3655 C 344.488 -1.5868 -1.13338 0
M  V30 3656 O 343.758 -0.835423 -1.77193 0
M  V30 3657 H 342.338 -0.740024 0.101851 0
M  V30 3658 H 345 -1.70404 0.945962 0
M  V30 3659 H 344.096 -3.10323 0.332604 0
M  V30 3660 N 344.397 -0.483516 -1.5 0
M  V30 3661 C 345.33 0.350427 -2.25493 0
M  V30 3662 C 346.308 0.985549 -1.29328 0
M  V30 3663 O 347.492 1.01906 -1.58579 0
M  V30 3664 C 344.619 1.49202 -3.04066 0
M  V30 3665 C 343.665 0.973036 -4.15252 0
M  V30 3666 S 344.498 -0.122237 -5.3536 0
M  V30 3667 C 345.654 1.02294 -6.17484 0
M  V30 3668 H 345.887 -0.290381 -2.95878 0
M  V30 3669 H 343.42 -0.268562 -1.52046 0
M  V30 3670 H 345.378 2.14623 -3.49925 0
M  V30 3671 H 344.039 2.10438 -2.33183 0
M  V30 3672 H 343.232 1.82804 -4.69679 0
M  V30 3673 H 342.834 0.396335 -3.71894 0
M  V30 3674 H 345.126 1.93195 -6.49371 0
M  V30 3675 H 346.069 0.517664 -7.06205 0
M  V30 3676 H 346.477 1.28238 -5.49741 0
M  V30 3677 N 345.875 1.56104 -0.216619 0
M  V30 3678 C 346.838 2.18819 0.681962 0
M  V30 3679 C 347.838 1.14866 1.12528 0
M  V30 3680 O 349.028 1.40128 1.03488 0
M  V30 3681 C 346.16 2.80756 1.93362 0
M  V30 3682 H 347.353 2.99595 0.135254 0
M  V30 3683 H 344.906 1.56265 0.0330003 0
M  V30 3684 H 345.641 2.03837 2.52232 0
M  V30 3685 H 345.426 3.56876 1.62426 0
M  V30 3686 H 346.916 3.28844 2.57393 0
M  V30 3687 N 347.353 -0.0568162 1.57498 0
M  V30 3688 C 348.769 -0.411933 1.54192 0
M  V30 3689 C 348.969 -1.78287 0.938942 0
M  V30 3690 O 348.025 -2.46483 0.547919 0
M  V30 3691 C 349.338 -0.339244 2.9878 0
M  V30 3692 C 350.886 -0.418348 3.10192 0
M  V30 3693 C 351.361 -0.375407 4.56459 0
M  V30 3694 N 352.852 -0.435038 4.61153 0
M  V30 3695 C 353.587 -0.424265 5.71828 0
M  V30 3696 N 353.083 -0.367418 6.91825 0
M  V30 3697 N 354.876 -0.471938 5.60115 0
M  V30 3698 H 347.027 0.840684 1.95055 0
M  V30 3699 H 349.29 0.316987 0.893433 0
M  V30 3700 H 348.996 0.601742 3.46514 0
M  V30 3701 H 348.87 -1.14371 3.59443 0
M  V30 3702 H 351.257 -1.34976 2.62422 0
M  V30 3703 H 351.338 0.414962 2.52412 0
M  V30 3704 H 350.982 0.552219 5.04889 0
M  V30 3705 H 350.912 -1.22645 5.12119 0
M  V30 3706 H 353.403 -0.482612 3.74806 0
M  V30 3707 H 353.716 -0.363535 7.71944 0
M  V30 3708 H 352.061 -0.333879 6.94198 0
M  V30 3709 H 355.252 -0.514145 4.65268 0
M  V30 3710 H 355.425 -0.460073 6.46365 0
M  V30 3711 N 348.832 -1.54138 -0.328536 0
M  V30 3712 C 349.765 -1.78014 -1.4278 0
M  V30 3713 C 350.743 -0.629889 -1.49904 0
M  V30 3714 O 351.927 -0.866763 -1.6739 0
M  V30 3715 C 349.054 -1.89225 -2.80912 0
M  V30 3716 C 348.1 -3.11483 -2.91343 0
M  V30 3717 S 348.933 -4.70201 -2.56263 0
M  V30 3718 C 350.089 -4.84312 -3.96476 0
M  V30 3719 H 350.322 -2.70974 -1.22313 0
M  V30 3720 H 347.855 -1.45197 -0.525084 0
M  V30 3721 H 349.813 -1.9637 -3.60485 0
M  V30 3722 H 348.474 -0.972518 -2.98665 0
M  V30 3723 H 347.667 -3.16046 -3.92595 0
M  V30 3724 H 347.269 -3.02642 -2.19736 0
M  V30 3725 H 349.561 -4.66643 -4.91173 0
M  V30 3726 H 350.504 -5.86411 -3.96898 0
M  V30 3727 H 350.912 -4.12652 -3.85199 0
M  V30 3728 N 350.31 0.590341 -1.46126 0
M  V30 3729 C 351.726 0.912917 -1.30912 0
M  V30 3730 C 351.926 1.99616 -0.274893 0
M  V30 3731 O 350.982 2.50397 0.325197 0
M  V30 3732 C 352.295 1.3375 -2.69317 0
M  V30 3733 C 353.843 1.45077 -2.77348 0
M  V30 3734 C 354.318 1.90904 -4.16317 0
M  V30 3735 N 355.809 1.9811 -4.18696 0
M  V30 3736 C 356.544 2.34828 -5.23109 0
M  V30 3737 N 356.04 2.70393 -6.37856 0
M  V30 3738 N 357.833 2.35317 -5.10473 0
M  V30 3739 H 349.984 -0.125358 -2.1203 0
M  V30 3740 H 352.247 0.00658481 -0.947977 0
M  V30 3741 H 351.953 0.615614 -3.4627 0
M  V30 3742 H 351.827 2.30058 -2.9892 0
M  V30 3743 H 354.214 2.16353 -2.00687 0
M  V30 3744 H 354.295 0.4704 -2.51438 0
M  V30 3745 H 353.939 1.20209 -4.9347 0
M  V30 3746 H 353.869 2.89886 -4.39629 0
M  V30 3747 H 356.36 1.73146 -3.359 0
M  V30 3748 H 356.673 2.97341 -7.13308 0
M  V30 3749 H 355.018 2.68048 -6.41229 0
M  V30 3750 H 358.209 2.0695 -4.19868 0
M  V30 3751 H 358.382 2.63605 -5.9196 0
M  V30 3752 N 351.788 1.33704 0.83433 0
M  V30 3753 C 352.718 1.26967 1.95963 0
M  V30 3754 C 353.699 0.149337 1.69443 0
M  V30 3755 O 354.884 0.339852 1.91203 0
M  V30 3756 C 352.014 1.01275 3.32206 0
M  V30 3757 C 350.968 2.09652 3.73136 0
M  V30 3758 C 350.294 1.69166 5.07235 0
M  V30 3759 C 351.594 3.51372 3.86439 0
M  V30 3760 H 353.288 2.2112 2.01857 0
M  V30 3761 H 350.834 1.06447 0.969793 0
M  V30 3762 H 352.787 0.952106 4.10503 0
M  V30 3763 H 351.511 0.0356203 3.26581 0
M  V30 3764 H 350.17 2.14766 2.97104 0
M  V30 3765 H 349.818 0.701437 4.98085 0
M  V30 3766 H 349.518 2.41694 5.35591 0
M  V30 3767 H 351.042 1.64576 5.88003 0
M  V30 3768 H 352.456 3.48734 4.55036 0
M  V30 3769 H 350.853 4.22425 4.26236 0
M  V30 3770 H 351.923 3.89546 2.88759 0
M  V30 3771 N 353.266 -1.05314 1.17247 0
M  V30 3772 C 354.543 -1.75184 0.87005 0
M  V30 3773 C 354.923 -2.01481 -0.629965 0
M  V30 3774 O 354.271 -1.64988 -1.58086 0
M  V30 3775 C 354.481 -3.04594 1.70363 0
M  V30 3776 C 355.829 -3.78567 1.92281 0
M  V30 3777 O 356.853 -3.14461 1.67311 0
M  V30 3778 O 355.712 -4.93755 2.3424 0
M  V30 3779 H 352.806 -0.761729 0.322021 0
M  V30 3780 H 355.352 -1.11493 1.27935 0
M  V30 3781 H 354.124 -2.81201 2.72106 0
M  V30 3782 H 353.747 -3.76022 1.29202 0
M  V30 3783 N 354.744 -0.972509 -1.24016 0
M  V30 3784 C 355.99 -0.637978 -1.92504 0
M  V30 3785 C 356.323 0.825383 -1.75787 0
M  V30 3786 O 355.598 1.59442 -1.11393 0
M  V30 3787 C 355.881 -1.01942 -3.45369 0
M  V30 3788 C 355.734 -2.53983 -3.71231 0
M  V30 3789 C 357.053 -0.55751 -4.36555 0
M  V30 3790 H 354.172 -0.233248 -0.699117 0
M  V30 3791 H 356.814 -1.21238 -1.46292 0
M  V30 3792 H 354.964 -0.530656 -3.84859 0
M  V30 3793 H 356.636 -3.10374 -3.41271 0
M  V30 3794 H 354.879 -2.96968 -3.16216 0
M  V30 3795 H 355.55 -2.75723 -4.78206 0
M  V30 3796 H 358.026 -0.977029 -4.04467 0
M  V30 3797 H 356.902 -0.85292 -5.42233 0
M  V30 3798 H 357.163 0.542328 -4.38761 0
M  V30 3799 N 356.222 1.38976 -0.743202 0
M  V30 3800 C 357.638 1.53984 -0.419664 0
M  V30 3801 C 357.838 1.70837 1.0685 0
M  V30 3802 O 356.894 1.7135 1.8546 0
M  V30 3803 C 358.207 2.75287 -1.20985 0
M  V30 3804 C 359.755 2.89129 -1.19889 0
M  V30 3805 C 360.23 4.13381 -1.97181 0
M  V30 3806 N 361.721 4.20437 -1.94389 0
M  V30 3807 C 362.456 5.15547 -2.50996 0
M  V30 3808 N 361.952 6.16395 -3.16274 0
M  V30 3809 N 363.745 5.07822 -2.40984 0
M  V30 3810 H 355.896 1.26285 -1.7078 0
M  V30 3811 H 358.159 0.612689 -0.723406 0
M  V30 3812 H 357.865 2.69204 -2.26323 0
M  V30 3813 H 357.739 3.68184 -0.819759 0
M  V30 3814 H 360.126 2.947 -0.153606 0
M  V30 3815 H 360.207 1.97272 -1.62841 0
M  V30 3816 H 359.851 4.08572 -3.01714 0
M  V30 3817 H 359.781 5.04298 -1.51629 0
M  V30 3818 H 362.272 3.48205 -1.46839 0
M  V30 3819 H 362.585 6.85443 -3.56915 0
M  V30 3820 H 360.93 6.16758 -3.20367 0
M  V30 3821 H 364.121 4.27973 -1.89622 0
M  V30 3822 H 364.294 5.81767 -2.85397 0
M  V30 3823 N 357.7 0.491464 1.49741 0
M  V30 3824 C 358.63 -0.28154 2.31796 0
M  V30 3825 C 359.611 -0.971473 1.3963 0
M  V30 3826 O 360.796 -0.964719 1.68543 0
M  V30 3827 C 357.926 -1.35203 3.19902 0
M  V30 3828 C 356.88 -0.782529 4.20786 0
M  V30 3829 C 356.206 -1.95283 4.97764 0
M  V30 3830 C 357.506 0.21999 5.21837 0
M  V30 3831 H 359.2 0.403355 2.96671 0
M  V30 3832 H 356.746 0.195425 1.42668 0
M  V30 3833 H 358.699 -1.90045 3.76113 0
M  V30 3834 H 357.423 -2.06598 2.52953 0
M  V30 3835 H 356.082 -0.255928 3.65706 0
M  V30 3836 H 355.73 -2.65423 4.2727 0
M  V30 3837 H 355.43 -1.57789 5.66018 0
M  V30 3838 H 356.954 -2.50577 5.56816 0
M  V30 3839 H 358.368 -0.23996 5.72798 0
M  V30 3840 H 356.765 0.51026 5.97927 0
M  V30 3841 H 357.835 1.13911 4.7133 0
M  V30 3842 N 359.178 -1.55987 0.224894 0
M  V30 3843 C 360.141 -2.19178 -0.670348 0
M  V30 3844 C 361.141 -1.15461 -1.11917 0
M  V30 3845 O 362.331 -1.40675 -1.02743 0
M  V30 3846 C 359.463 -2.81777 -1.9187 0
M  V30 3847 H 360.656 -2.99662 -0.119364 0
M  V30 3848 H 358.209 -1.5628 -0.0247128 0
M  V30 3849 H 358.944 -2.05172 -2.51147 0
M  V30 3850 H 358.729 -3.57732 -1.60531 0
M  V30 3851 H 360.219 -3.30205 -2.55645 0
M  V30 3852 N 360.656 0.0484629 -1.57525 0
M  V30 3853 C 361.603 1.05504 -2.05275 0
M  V30 3854 C 362.573 1.37084 -0.937927 0
M  V30 3855 O 363.758 1.47754 -1.2072 0
M  V30 3856 C 360.898 2.35676 -2.52093 0
M  V30 3857 C 360.011 2.10423 -3.77288 0
M  V30 3858 C 359.146 3.34327 -4.12794 0
M  V30 3859 C 358.185 3.04542 -5.30962 0
M  V30 3860 N 357.322 4.20841 -5.61994 0
M  V30 3861 H 362.162 0.640885 -2.91027 0
M  V30 3862 H 359.699 0.304854 -1.43906 0
M  V30 3863 H 361.657 3.11709 -2.77297 0
M  V30 3864 H 360.287 2.7485 -1.69285 0
M  V30 3865 H 359.339 1.24976 -3.59284 0
M  V30 3866 H 360.651 1.84438 -4.63448 0
M  V30 3867 H 359.805 4.1874 -4.39024 0
M  V30 3868 H 358.544 3.63408 -3.25247 0
M  V30 3869 H 357.549 2.18528 -5.04505 0
M  V30 3870 H 358.774 2.76758 -6.20146 0
M  V30 3871 H 356.72 4.4991 -4.77406 0
M  V30 3872 H 356.637 3.98212 -6.42622 0
M  V30 3873 H 357.905 5.06184 -5.92789 0
M  V30 3874 N 362.134 1.5431 0.320358 0
M  V30 3875 C 363.362 1.76636 1.07738 0
M  V30 3876 C 363.777 0.51649 1.81598 0
M  V30 3877 O 363.134 -0.512942 1.75143 0
M  V30 3878 C 363.185 2.96158 2.07299 0
M  V30 3879 O 362.906 4.16313 1.36438 0
M  V30 3880 C 364.407 3.3072 2.95193 0
M  V30 3881 H 361.627 0.589597 0.320339 0
M  V30 3882 H 364.171 2.01207 0.36551 0
M  V30 3883 H 362.326 2.73851 2.74016 0
M  V30 3884 H 362.74 4.83565 2.03138 0
M  V30 3885 H 364.214 4.17643 3.60941 0
M  V30 3886 H 364.691 2.48026 3.62463 0
M  V30 3887 H 365.297 3.55117 2.34034 0
M  V30 3888 N 363.613 -0.582584 1.46437 0
M  V30 3889 C 364.543 -1.70187 1.59871 0
M  V30 3890 C 365.524 -1.64066 0.449042 0
M  V30 3891 O 366.709 -1.82081 0.6753 0
M  V30 3892 C 363.839 -3.08827 1.58881 0
M  V30 3893 C 362.793 -3.29779 2.72819 0
M  V30 3894 C 362.119 -4.68947 2.5689 0
M  V30 3895 C 363.419 -3.17601 4.1464 0
M  V30 3896 H 365.113 -1.592 2.53566 0
M  V30 3897 H 362.659 -0.764472 1.22032 0
M  V30 3898 H 364.612 -3.86951 1.66873 0
M  V30 3899 H 363.336 -3.20713 0.617306 0
M  V30 3900 H 361.995 -2.54054 2.64296 0
M  V30 3901 H 361.643 -4.77599 1.57823 0
M  V30 3902 H 361.343 -4.83919 3.33312 0
M  V30 3903 H 362.867 -5.4924 2.66773 0
M  V30 3904 H 364.281 -3.8557 4.24274 0
M  V30 3905 H 362.678 -3.44094 4.9165 0
M  V30 3906 H 363.748 -2.14681 4.34788 0
M  V30 3907 N 365.091 -1.34144 -0.827227 0
M  V30 3908 C 366.339 -1.26009 -1.58007 0
M  V30 3909 C 366.66 0.170971 -1.94249 0
M  V30 3910 O 365.93 1.10256 -1.61927 0
M  V30 3911 H 364.51 -0.463414 -0.585881 0
M  V30 3912 H 367.172 -1.68005 -0.987951 0
M  V30 3913 H 366.268 -1.86187 -2.50481 0
M  V30 3914 N 366.569 1.04691 -1.17803 0
M  V30 3915 C 367.499 2.14494 -0.92275 0
M  V30 3916 C 368.48 1.69546 0.137179 0
M  V30 3917 O 369.665 1.94195 -0.0141108 0
M  V30 3918 C 366.795 3.44491 -0.440803 0
M  V30 3919 C 365.749 4.03031 -1.4405 0
M  V30 3920 C 365.075 5.28432 -0.81631 0
M  V30 3921 C 366.375 4.39932 -2.81527 0
M  V30 3922 H 368.069 2.36107 -1.84103 0
M  V30 3923 H 365.615 1.1347 -0.886599 0
M  V30 3924 H 367.568 4.2066 -0.249602 0
M  V30 3925 H 366.292 3.22546 0.513025 0
M  V30 3926 H 364.951 3.28937 -1.61853 0
M  V30 3927 H 364.599 5.02792 0.144511 0
M  V30 3928 H 364.299 5.68559 -1.48371 0
M  V30 3929 H 365.823 6.07284 -0.635496 0
M  V30 3930 H 367.237 5.07113 -2.67412 0
M  V30 3931 H 365.634 4.9109 -3.44892 0
M  V30 3932 H 366.704 3.50045 -3.35554 0
M  V30 3933 N 368.047 0.979072 1.23499 0
M  V30 3934 C 369.293 0.648178 1.92163 0
M  V30 3935 C 369.626 -0.816049 1.76222 0
M  V30 3936 O 368.901 -1.58849 1.12237 0
M  V30 3937 C 369.184 1.03773 3.44824 0
M  V30 3938 C 369.037 2.55948 3.69879 0
M  V30 3939 C 370.356 0.580653 4.36253 0
M  V30 3940 H 367.475 0.236952 0.69787 0
M  V30 3941 H 370.117 1.22012 1.45647 0
M  V30 3942 H 368.267 0.551058 3.84572 0
M  V30 3943 H 369.939 3.12179 3.3962 0
M  V30 3944 H 368.182 2.98641 3.14636 0
M  V30 3945 H 368.853 2.78255 4.76737 0
M  V30 3946 H 371.329 0.998465 4.03943 0
M  V30 3947 H 370.205 0.881663 5.41773 0
M  V30 3948 H 370.466 -0.519052 4.39042 0
M  V30 3949 N 369.525 -1.3858 0.750561 0
M  V30 3950 C 370.455 -2.33102 0.136237 0
M  V30 3951 C 371.436 -1.54713 -0.706965 0
M  V30 3952 O 372.621 -1.83043 -0.648769 0
M  V30 3953 C 369.751 -3.38882 -0.760017 0
M  V30 3954 C 368.705 -4.27995 -0.0197785 0
M  V30 3955 C 368.031 -5.24605 -1.03408 0
M  V30 3956 C 369.331 -5.09554 1.14684 0
M  V30 3957 H 371.025 -2.84726 0.925822 0
M  V30 3958 H 368.571 -1.36898 0.446654 0
M  V30 3959 H 370.524 -4.0397 -1.19943 0
M  V30 3960 H 369.248 -2.85734 -1.58189 0
M  V30 3961 H 367.907 -3.64409 0.400184 0
M  V30 3962 H 367.555 -4.67746 -1.84994 0
M  V30 3963 H 367.255 -5.85081 -0.543464 0
M  V30 3964 H 368.779 -5.9257 -1.47288 0
M  V30 3965 H 370.193 -5.67899 0.785118 0
M  V30 3966 H 368.59 -5.7925 1.56812 0
M  V30 3967 H 369.66 -4.4347 1.96118 0
M  V30 3968 N 371.003 -0.499398 -1.49478 0
M  V30 3969 C 371.966 0.268838 -2.27618 0
M  V30 3970 C 372.966 0.895383 -1.33565 0
M  V30 3971 O 374.156 0.760164 -1.56739 0
M  V30 3972 C 371.288 1.38559 -3.11471 0
M  V30 3973 H 372.481 -0.416812 -2.96989 0
M  V30 3974 H 370.034 -0.254313 -1.54217 0
M  V30 3975 H 370.769 2.10544 -2.46661 0
M  V30 3976 H 370.554 0.941797 -3.80621 0
M  V30 3977 H 372.044 1.92678 -3.70493 0
M  V30 3978 N 372.481 1.55866 -0.233164 0
M  V30 3979 C 373.727 1.98897 0.395959 0
M  V30 3980 C 374.06 1.12091 1.58585 0
M  V30 3981 O 373.335 0.181182 1.93654 0
M  V30 3982 C 373.618 3.50658 0.819224 0
M  V30 3983 C 373.471 4.48233 -0.375109 0
M  V30 3984 C 374.79 4.07135 1.67121 0
M  V30 3985 H 371.909 0.723102 0.142451 0
M  V30 3986 H 374.551 1.87082 -0.331725 0
M  V30 3987 H 372.701 3.60857 1.43925 0
M  V30 3988 H 374.373 4.50031 -1.01341 0
M  V30 3989 H 372.616 4.21624 -1.02058 0
M  V30 3990 H 373.287 5.51988 -0.0358328 0
M  V30 3991 H 375.763 3.99952 1.14795 0
M  V30 3992 H 374.639 5.13615 1.93625 0
M  V30 3993 H 374.9 3.54736 2.63846 0
M  V30 3994 N 373.959 -0.0401083 1.57549 0
M  V30 3995 C 374.889 -1.04384 2.08869 0
M  V30 3996 C 375.87 -1.38407 0.988817 0
M  V30 3997 O 377.055 -1.47483 1.26342 0
M  V30 3998 C 374.185 -2.34808 2.55895 0
M  V30 3999 C 373.139 -2.15057 3.70047 0
M  V30 4000 C 372.465 -3.51145 4.03239 0
M  V30 4001 C 373.765 -1.54576 4.98902 0
M  V30 4002 H 375.459 -0.616666 2.92981 0
M  V30 4003 H 373.005 -0.295184 1.40942 0
M  V30 4004 H 374.958 -3.05346 2.90417 0
M  V30 4005 H 373.682 -2.79565 1.68853 0
M  V30 4006 H 372.341 -1.46954 3.35857 0
M  V30 4007 H 371.989 -3.93529 3.13279 0
M  V30 4008 H 371.689 -3.38758 4.80122 0
M  V30 4009 H 373.213 -4.23062 4.40285 0
M  V30 4010 H 374.627 -2.15017 5.31451 0
M  V30 4011 H 373.024 -1.52796 5.80322 0
M  V30 4012 H 374.094 -0.51039 4.82206 0
M  V30 4013 N 375.437 -1.54477 -0.31217 0
M  V30 4014 C 376.367 -1.87652 -1.38957 0
M  V30 4015 C 377.348 -0.734358 -1.53431 0
M  V30 4016 O 378.533 -0.98911 -1.67123 0
M  V30 4017 C 375.663 -2.11396 -2.75552 0
M  V30 4018 C 374.617 -3.27243 -2.75855 0
M  V30 4019 C 373.943 -3.36382 -4.15633 0
M  V30 4020 C 375.243 -4.64622 -2.38587 0
M  V30 4021 H 376.937 -2.77887 -1.11442 0
M  V30 4022 H 374.483 -1.33707 -0.534655 0
M  V30 4023 H 376.436 -2.33189 -3.51 0
M  V30 4024 H 375.16 -1.17921 -3.04569 0
M  V30 4025 H 373.819 -3.05356 -2.02863 0
M  V30 4026 H 373.467 -2.40445 -4.41809 0
M  V30 4027 H 373.167 -4.14249 -4.1674 0
M  V30 4028 H 374.691 -3.60422 -4.92877 0
M  V30 4029 H 376.105 -4.86219 -3.03749 0
M  V30 4030 H 374.502 -5.45121 -2.50925 0
M  V30 4031 H 375.572 -4.66097 -1.33723 0
M  V30 4032 N 376.915 0.57481 -1.46744 0
M  V30 4033 C 378.164 1.32898 -1.51727 0
M  V30 4034 C 378.477 1.948 -0.176692 0
M  V30 4035 O 379.683 2.71299 -0.104385 0
M  V30 4036 C 378.139 2.40901 -2.67385 0
M  V30 4037 C 377.747 1.85266 -4.07898 0
M  V30 4038 C 379.491 3.17609 -2.81646 0
M  V30 4039 C 377.398 2.90945 -5.14883 0
M  V30 4040 H 376.328 0.499631 -0.564699 0
M  V30 4041 H 378.979 0.612536 -1.72975 0
M  V30 4042 H 377.361 3.15379 -2.39483 0
M  V30 4043 H 378.535 1.17278 -4.45626 0
M  V30 4044 H 376.85 1.21199 -3.98371 0
M  V30 4045 H 379.447 3.96493 -3.58744 0
M  V30 4046 H 379.79 3.70696 -1.89448 0
M  V30 4047 H 380.323 2.50239 -3.09233 0
M  V30 4048 H 377.062 2.42736 -6.089 0
M  V30 4049 H 376.582 3.57398 -4.81691 0
M  V30 4050 H 378.261 3.54755 -5.41071 0
M  V30 4051 N 378.394 1.34581 0.820102 0
M  V30 4052 C 379.634 1.28448 1.58998 0
M  V30 4053 C 379.998 -0.142883 1.91468 0
M  V30 4054 O 381.199 -0.328422 2.66786 0
M  V30 4055 C 379.47 2.153 2.85273 0
M  V30 4056 S 381.029 2.26548 3.75794 0
M  V30 4057 H 377.847 0.456685 0.54494 0
M  V30 4058 H 380.449 1.69825 0.968487 0
M  V30 4059 H 379.153 3.18008 2.59421 0
M  V30 4060 H 378.684 1.7483 3.52417 0
M  V30 4061 H 380.699 1.44034 4.74835 0
M  V30 4062 N 379.872 -1.04064 1.18357 0
M  V30 4063 C 381.118 -1.77658 0.990412 0
M  V30 4064 C 381.473 -1.86446 -0.474944 0
M  V30 4065 O 380.766 -1.36153 -1.34807 0
M  V30 4066 C 380.96 -3.20634 1.57888 0
M  V30 4067 C 380.789 -3.25782 3.09994 0
M  V30 4068 C 379.559 -3.34411 3.7881 0
M  V30 4069 C 381.757 -3.13791 4.0748 0
M  V30 4070 N 379.739 -3.28809 5.18418 0
M  V30 4071 C 381.11 -3.15689 5.33611 0
M  V30 4072 C 383.165 -2.97833 3.98998 0
M  V30 4073 C 381.868 -3.03268 6.52243 0
M  V30 4074 C 383.894 -2.86759 5.17227 0
M  V30 4075 C 383.256 -2.893 6.4225 0
M  V30 4076 H 379.355 -0.661901 0.416427 0
M  V30 4077 H 381.939 -1.23968 1.50133 0
M  V30 4078 H 380.11 -3.7267 1.09414 0
M  V30 4079 H 381.842 -3.82525 1.32124 0
M  V30 4080 H 378.597 -3.40144 3.29543 0
M  V30 4081 H 379.021 -3.29448 5.91433 0
M  V30 4082 H 383.663 -2.94698 3.03171 0
M  V30 4083 H 381.381 -3.05156 7.48268 0
M  V30 4084 H 384.967 -2.75465 5.12455 0
M  V30 4085 H 383.847 -2.80818 7.32196 0
M  V30 4086 N 381.35 -0.985608 -1.22978 0
M  V30 4087 C 382.597 -0.657386 -1.91532 0
M  V30 4088 C 382.925 0.809707 -1.76845 0
M  V30 4089 O 382.18 1.60021 -1.12658 0
M  V30 4090 C 382.479 -1.00014 -3.43121 0
M  V30 4091 C 382.145 -2.4583 -3.77993 0
M  V30 4092 C 380.807 -2.85679 -3.87222 0
M  V30 4093 C 383.159 -3.40378 -3.94705 0
M  V30 4094 C 380.487 -4.19081 -4.10595 0
M  V30 4095 C 382.839 -4.73429 -4.1958 0
M  V30 4096 C 381.503 -5.1303 -4.27032 0
M  V30 4097 H 380.773 -0.240555 -0.700867 0
M  V30 4098 H 383.42 -1.24044 -1.45895 0
M  V30 4099 H 381.725 -0.335072 -3.90365 0
M  V30 4100 H 383.422 -0.724322 -3.94404 0
M  V30 4101 H 380.012 -2.13939 -3.71387 0
M  V30 4102 H 384.196 -3.10766 -3.8696 0
M  V30 4103 H 379.452 -4.49362 -4.14589 0
M  V30 4104 H 383.626 -5.46644 -4.31455 0
M  V30 4105 H 381.253 -6.16418 -4.44896 0
M  V30 4106 N 382.828 1.3818 -0.7579 0
M  V30 4107 C 384.239 1.82726 -0.383134 0
M  V30 4108 C 384.59 1.63214 1.08884 0
M  V30 4109 O 383.715 1.13566 1.84205 0
M  V30 4110 C 384.31 3.31728 -0.688631 0
M  V30 4111 C 382.869 3.74606 -0.367091 0
M  V30 4112 C 382.016 2.60896 -0.939599 0
M  V30 4113 H 384.967 1.26847 -0.953699 0
M  V30 4114 H 384.988 3.80487 0.0316492 0
M  V30 4115 H 384.5 3.45898 -1.76001 0
M  V30 4116 H 382.601 3.66013 0.697532 0
M  V30 4117 H 382.714 4.71215 -0.865658 0
M  V30 4118 H 381.078 2.52075 -0.3647 0
M  V30 4119 H 381.861 2.77864 -2.0161 0
M  V30 4120 N 384.306 0.507319 1.49211 0
M  V30 4121 C 385.552 -0.0350047 2.0277 0
M  V30 4122 C 385.885 -1.3606 1.38569 0
M  V30 4123 O 385.16 -1.87321 0.523542 0
M  V30 4124 C 385.443 -0.180916 3.59645 0
M  V30 4125 C 385.296 1.16825 4.34364 0
M  V30 4126 C 386.615 -0.918558 4.30407 0
M  V30 4127 H 383.734 -0.0112473 0.736914 0
M  V30 4128 H 386.376 0.659956 1.7817 0
M  V30 4129 H 384.526 -0.772826 3.80736 0
M  V30 4130 H 386.198 1.79952 4.24753 0
M  V30 4131 H 384.441 1.75594 3.96673 0
M  V30 4132 H 385.112 1.01939 5.42506 0
M  V30 4133 H 387.588 -0.41649 4.1401 0
M  V30 4134 H 386.464 -0.989505 5.39907 0
M  V30 4135 H 386.725 -1.96373 3.96093 0
M  V30 4136 N 385.784 -1.5574 0.241426 0
M  V30 4137 C 386.714 -2.24133 -0.654722 0
M  V30 4138 C 387.695 -1.21974 -1.1856 0
M  V30 4139 O 388.88 -1.50612 -1.22595 0
M  V30 4140 C 386.01 -2.93659 -1.85423 0
M  V30 4141 C 384.964 -4.0246 -1.45636 0
M  V30 4142 C 384.29 -4.59383 -2.73626 0
M  V30 4143 C 385.59 -5.18468 -0.631506 0
M  V30 4144 H 387.284 -2.99281 -0.0844353 0
M  V30 4145 H 384.83 -1.43947 -0.0391707 0
M  V30 4146 H 386.783 -3.40203 -2.48676 0
M  V30 4147 H 385.507 -2.15991 -2.44981 0
M  V30 4148 H 384.166 -3.56676 -0.847202 0
M  V30 4149 H 383.814 -3.78422 -3.3137 0
M  V30 4150 H 383.514 -5.32826 -2.4773 0
M  V30 4151 H 385.038 -5.08658 -3.37786 0
M  V30 4152 H 386.452 -5.61272 -1.1682 0
M  V30 4153 H 384.849 -5.98266 -0.468831 0
M  V30 4154 H 385.919 -4.8358 0.357506 0
M  V30 4155 N 387.262 0.0317525 -1.57568 0
M  V30 4156 C 388.225 1.01783 -2.0536 0
M  V30 4157 C 389.225 1.29203 -0.957253 0
M  V30 4158 O 390.415 1.24251 -1.22095 0
M  V30 4159 C 387.547 2.35137 -2.46827 0
M  V30 4160 H 388.74 0.605062 -2.93733 0
M  V30 4161 H 386.293 0.278514 -1.53799 0
M  V30 4162 H 387.028 2.81168 -1.61602 0
M  V30 4163 H 386.813 2.16566 -3.26866 0
M  V30 4164 H 388.303 3.05938 -2.84239 0
M  V30 4165 N 388.74 1.54641 0.303973 0
M  V30 4166 C 389.67 1.88386 1.3796 0
M  V30 4167 C 390.651 0.742485 1.5304 0
M  V30 4168 O 391.836 0.997959 1.66597 0
M  V30 4169 C 388.966 2.12854 2.74427 0
M  V30 4170 C 387.92 3.28702 2.74115 0
M  V30 4171 C 387.246 3.38582 4.13844 0
M  V30 4172 C 388.546 4.65881 2.3612 0
M  V30 4173 H 390.24 2.78474 1.09966 0
M  V30 4174 H 387.786 1.33988 0.527556 0
M  V30 4175 H 389.739 2.35047 3.49758 0
M  V30 4176 H 388.463 1.19535 3.03939 0
M  V30 4177 H 387.122 3.06428 2.0124 0
M  V30 4178 H 386.77 2.42784 4.40528 0
M  V30 4179 H 386.47 4.16453 4.14537 0
M  V30 4180 H 387.994 3.63031 4.90959 0
M  V30 4181 H 389.408 4.87823 3.01167 0
M  V30 4182 H 387.805 5.46444 2.48031 0
M  V30 4183 H 388.875 4.66799 1.3125 0
M  V30 4184 N 390.218 -0.567019 1.47046 0
M  V30 4185 C 391.151 -1.69016 1.53326 0
M  V30 4186 C 392.129 -1.57949 0.386126 0
M  V30 4187 O 393.313 -1.78945 0.592529 0
M  V30 4188 C 390.44 -3.07191 1.42658 0
M  V30 4189 C 389.486 -3.36733 2.6175 0
M  V30 4190 S 390.319 -3.27069 4.24012 0
M  V30 4191 C 391.475 -4.67755 4.1588 0
M  V30 4192 H 391.708 -1.63434 2.48348 0
M  V30 4193 H 389.241 -0.747048 1.35124 0
M  V30 4194 H 391.199 -3.86897 1.37191 0
M  V30 4195 H 389.86 -3.10249 0.490369 0
M  V30 4196 H 389.053 -4.37441 2.50323 0
M  V30 4197 H 388.655 -2.64627 2.64289 0
M  V30 4198 H 390.947 -5.58491 3.83529 0
M  V30 4199 H 391.89 -4.84239 5.16641 0
M  V30 4200 H 392.298 -4.45341 3.46889 0
M  V30 4201 N 391.696 -1.35014 -0.812953 0
M  V30 4202 C 392.659 -1.27292 -1.90602 0
M  V30 4203 C 393.659 -0.185817 -1.59723 0
M  V30 4204 O 394.849 -0.439102 -1.68575 0
M  V30 4205 C 391.981 -0.967676 -3.26877 0
M  V30 4206 H 393.174 -2.24479 -1.9887 0
M  V30 4207 H 390.727 -1.19446 -1.00808 0
M  V30 4208 H 391.462 0.0005954 -3.243 0
M  V30 4209 H 391.247 -1.75412 -3.50675 0
M  V30 4210 H 392.737 -0.939085 -4.06904 0
M  V30 4211 N 393.175 1.03435 -1.18907 0
M  V30 4212 C 394.125 2.09924 -0.889706 0
M  V30 4213 C 395.109 1.60261 0.143216 0
M  V30 4214 O 396.301 1.76892 -0.0617122 0
M  V30 4215 C 393.43 3.40669 -0.424168 0
M  V30 4216 C 392.516 3.97082 -1.48952 0
M  V30 4217 N 392.907 4.27227 -2.70759 0
M  V30 4218 C 391.205 4.25029 -1.35152 0
M  V30 4219 C 391.906 4.7246 -3.39347 0
M  V30 4220 N 390.882 4.7366 -2.66735 0
M  V30 4221 H 394.684 2.31116 -1.81555 0
M  V30 4222 H 392.198 1.21246 -1.08042 0
M  V30 4223 H 394.195 4.16461 -0.191176 0
M  V30 4224 H 392.855 3.20901 0.495263 0
M  V30 4225 H 393.866 4.16678 -3.0757 0
M  V30 4226 H 390.543 4.14554 -0.495126 0
M  V30 4227 H 391.933 5.04751 -4.43481 0
M  V30 4228 N 394.653 0.992116 1.22453 0
M  V30 4229 C 395.878 0.685644 1.95739 0
M  V30 4230 C 396.303 -0.743 1.72804 0
M  V30 4231 O 395.661 -1.50778 1.00676 0
M  V30 4232 C 395.709 0.996293 3.46564 0
M  V30 4233 O 394.813 0.0945512 4.12292 0
M  V30 4234 H 394.154 0.256694 0.612376 0
M  V30 4235 H 396.684 1.32888 1.5557 0
M  V30 4236 H 396.694 0.93781 3.97076 0
M  V30 4237 H 395.369 2.03733 3.62582 0
M  V30 4238 H 393.946 0.208451 3.72317 0
M  V30 4239 N 396.131 -1.37776 0.765217 0
M  V30 4240 C 397.061 -2.32945 0.160953 0
M  V30 4241 C 398.042 -1.55454 -0.690516 0
M  V30 4242 O 399.227 -1.83721 -0.629318 0
M  V30 4243 C 396.357 -3.39669 -0.724031 0
M  V30 4244 C 395.311 -4.27992 0.0256173 0
M  V30 4245 C 394.637 -5.25673 -0.978383 0
M  V30 4246 C 395.937 -5.08309 1.20082 0
M  V30 4247 H 397.631 -2.83728 0.955969 0
M  V30 4248 H 395.177 -1.36416 0.461149 0
M  V30 4249 H 397.13 -4.05219 -1.15652 0
M  V30 4250 H 395.854 -2.87396 -1.5515 0
M  V30 4251 H 394.513 -3.63964 0.438812 0
M  V30 4252 H 394.161 -4.69682 -1.80022 0
M  V30 4253 H 393.861 -5.85625 -0.481378 0
M  V30 4254 H 395.385 -5.94098 -1.40995 0
M  V30 4255 H 396.799 -5.67034 0.845307 0
M  V30 4256 H 395.196 -5.77554 1.62947 0
M  V30 4257 H 396.266 -4.41365 2.00811 0
M  V30 4258 N 397.609 -0.515225 -1.4894 0
M  V30 4259 C 398.572 0.244681 -2.2789 0
M  V30 4260 C 399.572 0.881166 -1.34507 0
M  V30 4261 O 400.762 0.743497 -1.57537 0
M  V30 4262 C 397.894 1.35247 -3.12923 0
M  V30 4263 H 399.087 -0.448289 -2.96531 0
M  V30 4264 H 396.64 -0.270656 -1.53939 0
M  V30 4265 H 397.375 2.07916 -2.48881 0
M  V30 4266 H 397.16 0.901374 -3.81599 0
M  V30 4267 H 398.65 1.88737 -3.72516 0
M  V30 4268 N 399.087 1.5561 -0.249682 0
M  V30 4269 C 400.315 2.03411 0.378352 0
M  V30 4270 C 400.73 1.12886 1.51335 0
M  V30 4271 O 400.087 0.143833 1.81932 0
M  V30 4272 C 400.138 3.50537 0.88351 0
M  V30 4273 O 399.859 4.37614 -0.20626 0
M  V30 4274 C 401.36 4.14113 1.58195 0
M  V30 4275 H 398.58 0.664994 0.08958 0
M  V30 4276 H 401.124 2.01044 -0.374357 0
M  V30 4277 H 399.279 3.5343 1.58639 0
M  V30 4278 H 399.693 5.24199 0.177782 0
M  V30 4279 H 401.167 5.18741 1.8871 0
M  V30 4280 H 401.644 3.60767 2.50487 0
M  V30 4281 H 402.25 4.15151 0.923573 0
M  V30 4282 N 400.565 -0.0233959 1.57583 0
M  V30 4283 C 401.793 -0.724682 1.93794 0
M  V30 4284 C 402.208 -1.68588 0.849912 0
M  V30 4285 O 401.565 -1.81676 -0.173204 0
M  V30 4286 C 401.616 -1.47684 3.29957 0
M  V30 4287 O 401.337 -0.554222 4.3458 0
M  V30 4288 C 402.838 -2.27477 3.80485 0
M  V30 4289 H 400.058 -0.203317 0.639455 0
M  V30 4290 H 402.602 0.0207653 2.04489 0
M  V30 4291 H 400.757 -2.17412 3.20641 0
M  V30 4292 H 401.171 -1.08232 5.13212 0
M  V30 4293 H 402.645 -2.7564 4.78254 0
M  V30 4294 H 403.122 -3.09144 3.11972 0
M  V30 4295 H 403.728 -1.62813 3.92902 0
M  V30 4296 N 402.043 -1.548 -0.295768 0
M  V30 4297 C 402.973 -1.89115 -1.36959 0
M  V30 4298 C 403.954 -0.75059 -1.52644 0
M  V30 4299 O 405.139 -1.00678 -1.66065 0
M  V30 4300 C 402.269 -2.14307 -2.73295 0
M  V30 4301 C 401.223 -3.30151 -2.72368 0
M  V30 4302 C 400.549 -3.40772 -4.12042 0
M  V30 4303 C 401.849 -4.67126 -2.33646 0
M  V30 4304 H 403.543 -2.79053 -1.08488 0
M  V30 4305 H 401.089 -1.34266 -0.520443 0
M  V30 4306 H 403.042 -2.36898 -3.48507 0
M  V30 4307 H 401.766 -1.21145 -3.03301 0
M  V30 4308 H 400.425 -3.0749 -1.99613 0
M  V30 4309 H 400.073 -2.45117 -4.39234 0
M  V30 4310 H 399.773 -4.18645 -4.12322 0
M  V30 4311 H 401.297 -3.6563 -4.89027 0
M  V30 4312 H 402.711 -4.89414 -2.98575 0
M  V30 4313 H 401.108 -5.47751 -2.45129 0
M  V30 4314 H 402.178 -4.67489 -1.28772 0
M  V30 4315 N 403.521 0.559213 -1.47345 0
M  V30 4316 C 404.746 1.34676 -1.57725 0
M  V30 4317 C 405.171 1.86723 -0.227164 0
M  V30 4318 O 404.529 1.6286 0.796642 0
M  V30 4319 C 404.577 2.49399 -2.60447 0
M  V30 4320 O 403.681 3.51567 -2.15578 0
M  V30 4321 H 403.022 0.400115 -0.52991 0
M  V30 4322 H 405.552 0.676009 -1.93109 0
M  V30 4323 H 405.562 2.95996 -2.80803 0
M  V30 4324 H 404.237 2.10873 -3.58477 0
M  V30 4325 H 402.814 3.11289 -2.05313 0
M  V30 4326 N 404.999 1.35443 0.805782 0
M  V30 4327 C 406.276 1.19325 1.54987 0
M  V30 4328 C 406.656 -0.227294 2.09873 0
M  V30 4329 O 406.004 -1.2309 1.92512 0
M  V30 4330 C 406.214 2.26196 2.65775 0
M  V30 4331 C 407.562 2.62043 3.34094 0
M  V30 4332 O 408.586 2.25115 2.76046 0
M  V30 4333 O 407.445 3.25542 4.38958 0
M  V30 4334 H 404.539 0.463623 0.684823 0
M  V30 4335 H 407.085 1.47127 0.845674 0
M  V30 4336 H 405.857 3.21471 2.23096 0
M  V30 4337 H 405.48 1.99667 3.43829 0
M  V30 4338 N 406.477 -1.02803 1.19454 0
M  V30 4339 C 407.409 -2.11181 0.890807 0
M  V30 4340 C 408.422 -1.6238 -0.116829 0
M  V30 4341 O 409.611 -1.78144 0.112694 0
M  V30 4342 C 406.711 -3.37461 0.311942 0
M  V30 4343 C 405.884 -4.15446 1.36834 0
M  V30 4344 C 404.943 -5.20039 0.802864 0
M  V30 4345 O 403.969 -5.49602 1.48077 0
M  V30 4346 N 405.171 -5.79165 -0.393417 0
M  V30 4347 H 407.936 -2.37827 1.82369 0
M  V30 4348 H 405.497 -1.19101 1.09666 0
M  V30 4349 H 407.489 -4.0462 -0.0802225 0
M  V30 4350 H 406.059 -3.08156 -0.52524 0
M  V30 4351 H 405.279 -3.43423 1.93531 0
M  V30 4352 H 406.567 -4.64335 2.08015 0
M  V30 4353 H 405.965 -5.57466 -0.961658 0
M  V30 4354 H 404.522 -6.47729 -0.727351 0
M  V30 4355 N 407.956 -0.998596 -1.21925 0
M  V30 4356 C 409.202 -0.678667 -1.91107 0
M  V30 4357 C 409.535 0.78791 -1.77498 0
M  V30 4358 O 408.81 1.57043 -1.1475 0
M  V30 4359 C 409.093 -1.09245 -3.43129 0
M  V30 4360 C 408.946 -2.61801 -3.6576 0
M  V30 4361 C 410.265 -0.649984 -4.35274 0
M  V30 4362 H 407.384 -0.248025 -0.694012 0
M  V30 4363 H 410.026 -1.24314 -1.43688 0
M  V30 4364 H 408.176 -0.612171 -3.83647 0
M  V30 4365 H 409.848 -3.17543 -3.34611 0
M  V30 4366 H 408.091 -3.03609 -3.09845 0
M  V30 4367 H 408.762 -2.85804 -4.7225 0
M  V30 4368 H 411.238 -1.0626 -4.02303 0
M  V30 4369 H 410.114 -0.967743 -5.40302 0
M  V30 4370 H 410.375 0.449139 -4.39813 0
M  V30 4371 N 409.434 1.37368 -0.772513 0
M  V30 4372 C 410.381 2.30262 -0.157488 0
M  V30 4373 C 411.351 1.51137 0.688965 0
M  V30 4374 O 412.536 1.79704 0.641168 0
M  V30 4375 C 409.676 3.37611 0.715045 0
M  V30 4376 C 408.789 4.31746 -0.148098 0
M  V30 4377 C 407.924 5.26171 0.729213 0
M  V30 4378 C 406.963 6.11948 -0.136418 0
M  V30 4379 N 406.1 6.98613 0.698914 0
M  V30 4380 H 410.94 2.82277 -0.955179 0
M  V30 4381 H 408.477 1.38957 -0.482631 0
M  V30 4382 H 410.435 3.98479 1.23575 0
M  V30 4383 H 409.065 2.86959 1.47833 0
M  V30 4384 H 408.117 3.72178 -0.786613 0
M  V30 4385 H 409.429 4.92084 -0.81579 0
M  V30 4386 H 408.583 5.92247 1.31637 0
M  V30 4387 H 407.322 4.66246 1.43059 0
M  V30 4388 H 406.327 5.4485 -0.736102 0
M  V30 4389 H 407.552 6.73945 -0.835134 0
M  V30 4390 H 405.498 6.41215 1.38489 0
M  V30 4391 H 405.415 7.55948 0.0885358 0
M  V30 4392 H 406.683 7.69077 1.27044 0
M  V30 4393 N 410.912 0.523116 1.48665 0
M  V30 4394 C 411.859 -0.243398 2.29513 0
M  V30 4395 C 412.829 -0.940139 1.36933 0
M  V30 4396 O 414.014 -0.942503 1.65896 0
M  V30 4397 C 411.154 -1.28855 3.20141 0
M  V30 4398 C 410.267 -0.60135 4.27794 0
M  V30 4399 C 409.402 -1.62884 5.05611 0
M  V30 4400 C 408.441 -0.924726 6.05075 0
M  V30 4401 N 407.578 -1.89744 6.75975 0
M  V30 4402 H 412.418 0.452234 2.94549 0
M  V30 4403 H 409.955 0.234858 1.45213 0
M  V30 4404 H 411.913 -1.90674 3.71079 0
M  V30 4405 H 410.543 -1.95266 2.57043 0
M  V30 4406 H 409.595 0.130623 3.80176 0
M  V30 4407 H 410.907 -0.0481585 4.98777 0
M  V30 4408 H 410.061 -2.32149 5.60528 0
M  V30 4409 H 408.8 -2.21592 4.34452 0
M  V30 4410 H 407.805 -0.217966 5.49368 0
M  V30 4411 H 409.03 -0.343851 6.78229 0
M  V30 4412 H 406.976 -2.47373 6.07571 0
M  V30 4413 H 406.893 -1.3955 7.43009 0
M  V30 4414 H 408.161 -2.58229 7.35485 0
M  V30 4415 N 412.39 -1.55475 0.257931 0
M  V30 4416 C 413.353 -2.20551 -0.623706 0
M  V30 4417 C 414.353 -1.17809 -1.09443 0
M  V30 4418 O 415.543 -1.42823 -0.997362 0
M  V30 4419 C 412.675 -2.85784 -1.8585 0
M  V30 4420 H 413.868 -2.99848 -0.0557743 0
M  V30 4421 H 411.421 -1.56298 0.0084422 0
M  V30 4422 H 412.156 -2.10453 -2.46739 0
M  V30 4423 H 411.941 -3.61057 -1.52907 0
M  V30 4424 H 413.431 -3.35553 -2.48584 0
M  V30 4425 N 413.868 0.0150385 -1.57593 0
M  V30 4426 C 415.115 0.703001 -1.89906 0
M  V30 4427 C 415.443 1.74604 -0.856944 0
M  V30 4428 O 414.698 1.95197 0.140287 0
M  V30 4429 C 414.997 1.39686 -3.28972 0
M  V30 4430 C 414.663 0.488457 -4.48246 0
M  V30 4431 C 413.325 0.2383 -4.8061 0
M  V30 4432 C 415.677 -0.137881 -5.21018 0
M  V30 4433 C 413.005 -0.646738 -5.83125 0
M  V30 4434 C 415.357 -1.0107 -6.24474 0
M  V30 4435 C 414.021 -1.27019 -6.55303 0
M  V30 4436 H 413.291 0.257246 -0.694914 0
M  V30 4437 H 415.938 -0.037259 -1.91464 0
M  V30 4438 H 414.243 2.21079 -3.23468 0
M  V30 4439 H 415.94 1.93495 -3.51227 0
M  V30 4440 H 412.53 0.693593 -4.22951 0
M  V30 4441 H 416.714 0.0423953 -4.96282 0
M  V30 4442 H 411.97 -0.855937 -6.05379 0
M  V30 4443 H 416.144 -1.50247 -6.79999 0
M  V30 4444 H 413.771 -1.95769 -7.3456 0
M  V30 4445 N 415.346 1.54954 0.287554 0
M  V30 4446 C 416.309 1.86076 1.33823 0
M  V30 4447 C 417.309 0.734414 1.43049 0
M  V30 4448 O 418.499 1.00266 1.42452 0
M  V30 4449 C 415.631 2.05305 2.72144 0
M  V30 4450 H 416.824 2.79984 1.07465 0
M  V30 4451 H 414.377 1.47223 0.524902 0
M  V30 4452 H 415.112 1.1373 3.03704 0
M  V30 4453 H 414.897 2.873 2.66836 0
M  V30 4454 H 416.387 2.30706 3.48087 0
M  V30 4455 N 416.824 -0.551391 1.4764 0
M  V30 4456 C 418.071 -1.3083 1.54563 0
M  V30 4457 C 418.399 -1.93359 0.210361 0
M  V30 4458 O 417.654 -1.78721 -0.797332 0
M  V30 4459 C 417.953 -2.43469 2.61644 0
M  V30 4460 C 417.619 -1.98732 4.04742 0
M  V30 4461 C 416.281 -1.86248 4.43695 0
M  V30 4462 C 418.633 -1.64659 4.94507 0
M  V30 4463 C 415.961 -1.37995 5.70241 0
M  V30 4464 C 418.313 -1.17875 6.21521 0
M  V30 4465 C 416.977 -1.03992 6.5935 0
M  V30 4466 H 416.247 -0.478741 0.565587 0
M  V30 4467 H 418.894 -0.617697 1.81264 0
M  V30 4468 H 417.199 -3.18109 2.28722 0
M  V30 4469 H 418.896 -3.01642 2.64222 0
M  V30 4470 H 415.486 -2.09393 3.73968 0
M  V30 4471 H 419.67 -1.73174 4.65107 0
M  V30 4472 H 414.926 -1.25915 5.98294 0
M  V30 4473 H 419.1 -0.905739 6.90485 0
M  V30 4474 H 416.727 -0.663794 7.57296 0
M  V30 4475 N 418.302 -1.35869 -0.798587 0
M  V30 4476 C 419.542 -1.30961 -1.56935 0
M  V30 4477 C 419.906 0.112404 -1.91671 0
M  V30 4478 O 421.107 0.285937 -2.67275 0
M  V30 4479 C 419.378 -2.19811 -2.81811 0
M  V30 4480 S 420.937 -2.32498 -3.72143 0
M  V30 4481 H 417.755 -0.465297 -0.537606 0
M  V30 4482 H 420.357 -1.71344 -0.941346 0
M  V30 4483 H 419.061 -3.22095 -2.54329 0
M  V30 4484 H 418.592 -1.80415 -3.49591 0
M  V30 4485 H 420.607 -1.5157 -4.72484 0
M  V30 4486 N 419.78 1.02168 -1.19998 0
M  V30 4487 C 421.005 1.79833 -1.03319 0
M  V30 4488 C 421.43 1.83504 0.413281 0
M  V30 4489 O 420.788 1.26635 1.29743 0
M  V30 4490 C 420.836 3.22396 -1.61533 0
M  V30 4491 O 419.94 4.03555 -0.849519 0
M  V30 4492 H 419.281 0.554872 -0.364709 0
M  V30 4493 H 421.811 1.28542 -1.59179 0
M  V30 4494 H 421.821 3.73124 -1.65054 0
M  V30 4495 H 420.496 3.19039 -2.66809 0
M  V30 4496 H 419.073 3.62169 -0.888129 0
M  V30 4497 N 421.258 1.00505 1.21394 0
M  V30 4498 C 422.191 0.51032 2.22421 0
M  V30 4499 C 423.169 -0.436 1.56645 0
M  V30 4500 O 424.353 -0.358709 1.85055 0
M  V30 4501 C 421.48 -0.258733 3.3771 0
M  V30 4502 C 420.526 0.635395 4.2174 0
M  V30 4503 S 421.359 2.09783 4.92698 0
M  V30 4504 C 422.515 1.33862 6.11418 0
M  V30 4505 H 422.748 1.36637 2.64041 0
M  V30 4506 H 420.281 0.812991 1.31262 0
M  V30 4507 H 422.239 -0.696372 4.0455 0
M  V30 4508 H 420.9 -1.0902 2.94573 0
M  V30 4509 H 420.093 0.0430189 5.03982 0
M  V30 4510 H 419.695 1.01031 3.60095 0
M  V30 4511 H 421.987 0.612541 6.74725 0
M  V30 4512 H 422.93 2.13675 6.75092 0
M  V30 4513 H 423.338 0.846568 5.58116 0
M  V30 4514 N 422.737 -1.36956 0.779787 0
M  V30 4515 C 423.667 -2.32761 0.185651 0
M  V30 4516 C 424.648 -1.56177 -0.673989 0
M  V30 4517 O 425.833 -1.84378 -0.609797 0
M  V30 4518 C 422.963 -3.40418 -0.687964 0
M  V30 4519 C 421.917 -4.27941 0.0710102 0
M  V30 4520 C 421.243 -5.26681 -0.922573 0
M  V30 4521 C 422.543 -5.07006 1.25467 0
M  V30 4522 H 424.237 -2.82698 0.986008 0
M  V30 4523 H 421.783 -1.3592 0.475592 0
M  V30 4524 H 423.736 -4.06423 -1.11348 0
M  V30 4525 H 422.46 -2.89025 -1.52093 0
M  V30 4526 H 421.119 -3.63478 0.47739 0
M  V30 4527 H 420.767 -4.71565 -1.7503 0
M  V30 4528 H 420.467 -5.86103 -0.419237 0
M  V30 4529 H 421.991 -5.9556 -1.34686 0
M  V30 4530 H 423.405 -5.66105 0.905401 0
M  V30 4531 H 421.802 -5.75793 1.69063 0
M  V30 4532 H 422.872 -4.3921 2.05481 0
M  V30 4533 N 424.215 -0.530993 -1.48385 0
M  V30 4534 C 425.455 0.000718982 -2.044 0
M  V30 4535 C 425.819 1.31485 -1.39913 0
M  V30 4536 O 427.02 1.93265 -1.86821 0
M  V30 4537 C 425.291 0.119177 -3.57201 0
M  V30 4538 S 426.85 0.600806 -4.34667 0
M  V30 4539 H 423.668 -0.0125473 -0.710889 0
M  V30 4540 H 426.27 -0.711783 -1.82082 0
M  V30 4541 H 424.974 -0.842061 -4.01668 0
M  V30 4542 H 424.505 0.856026 -3.83974 0
M  V30 4543 H 426.52 1.86514 -4.59812 0
M  V30 4544 N 425.693 1.55336 -0.266172 0
M  V30 4545 C 426.623 2.25146 0.618981 0
M  V30 4546 C 427.604 1.23845 1.16604 0
M  V30 4547 O 428.789 1.52544 1.20183 0
M  V30 4548 C 425.919 2.96572 1.80728 0
M  V30 4549 C 424.873 4.04726 1.39215 0
M  V30 4550 C 424.199 4.63678 2.66283 0
M  V30 4551 C 425.499 5.19407 0.548942 0
M  V30 4552 H 427.193 2.99377 0.0368116 0
M  V30 4553 H 424.739 1.43991 0.0162651 0
M  V30 4554 H 426.692 3.44116 2.43232 0
M  V30 4555 H 425.416 2.19861 2.41514 0
M  V30 4556 H 424.075 3.57979 0.790351 0
M  V30 4557 H 423.723 3.83646 3.25308 0
M  V30 4558 H 423.423 5.367 2.39222 0
M  V30 4559 H 424.947 5.13967 3.29651 0
M  V30 4560 H 426.361 5.63059 1.07876 0
M  V30 4561 H 424.758 5.98936 0.373593 0
M  V30 4562 H 425.828 4.8295 -0.434394 0
M  V30 4563 N 427.171 -0.0066808 1.57599 0
M  V30 4564 C 428.42 -0.692078 1.89455 0
M  V30 4565 C 428.733 -1.75306 0.867586 0
M  V30 4566 O 429.939 -2.49262 1.07614 0
M  V30 4567 C 428.395 -1.2821 3.36289 0
M  V30 4568 C 428.003 -0.256291 4.47266 0
M  V30 4569 C 429.747 -1.94608 3.77264 0
M  V30 4570 C 427.654 -0.855927 5.85173 0
M  V30 4571 H 426.584 -0.262252 0.706923 0
M  V30 4572 H 429.235 0.052769 1.83424 0
M  V30 4573 H 427.617 -2.0774 3.37135 0
M  V30 4574 H 428.791 0.513923 4.57925 0
M  V30 4575 H 427.106 0.306862 4.15268 0
M  V30 4576 H 429.703 -2.40364 4.77629 0
M  V30 4577 H 430.046 -2.77382 3.10427 0
M  V30 4578 H 430.579 -1.21822 3.78688 0
M  V30 4579 H 427.318 -0.0671161 6.55466 0
M  V30 4580 H 426.838 -1.59546 5.78191 0
M  V30 4581 H 428.517 -1.35658 6.32618 0
M  V30 4582 N 428.649 -1.55105 -0.279332 0
M  V30 4583 C 429.597 -1.88333 -1.36505 0
M  V30 4584 C 430.591 -0.759043 -1.51443 0
M  V30 4585 O 431.797 -0.943312 -1.53302 0
M  V30 4586 H 428.172 -0.59766 -0.456406 0
M  V30 4587 H 430.143 -2.79041 -1.05728 0
M  V30 4588 C 428.892 -2.16628 -2.7197 0
M  V30 4589 H 428.215 -3.02624 -2.61264 0
M  V30 4590 H 429.655 -2.43803 -3.46895 0
M  V30 4591 C 428.114 -0.971807 -3.22579 0
M  V30 4592 O 428.644 -0.203228 -4.01186 0
M  V30 4593 N 426.85 -0.771238 -2.80179 0
M  V30 4594 H 426.397 -1.39792 -2.1637 0
M  V30 4595 H 426.355 0.0263667 -3.14389 0
M  V30 4596 N 430.127 0.543554 -1.4793 0
M  V30 4597 C 431.352 1.32995 -1.59145 0
M  V30 4598 C 431.777 1.86472 -0.246956 0
M  V30 4599 O 431.135 1.63696 0.779324 0
M  V30 4600 C 431.183 2.46623 -2.63077 0
M  V30 4601 O 430.287 3.49261 -2.19295 0
M  V30 4602 H 429.628 0.394472 -0.534124 0
M  V30 4603 H 432.158 0.655489 -1.93816 0
M  V30 4604 H 432.168 2.93001 -2.83926 0
M  V30 4605 H 430.843 2.07059 -3.60693 0
M  V30 4606 H 429.42 3.09094 -2.08603 0
M  V30 4607 N 431.605 1.3629 0.791371 0
M  V30 4608 C 432.538 1.24816 1.9104 0
M  V30 4609 C 433.516 0.132739 1.62057 0
M  V30 4610 O 434.7 0.303527 1.8604 0
M  V30 4611 C 431.827 0.925355 3.25814 0
M  V30 4612 C 430.873 2.05495 3.7373 0
M  V30 4613 S 431.706 3.67255 3.89723 0
M  V30 4614 C 432.862 3.37084 5.27376 0
M  V30 4615 H 433.095 2.19533 2.00481 0
M  V30 4616 H 430.628 1.21684 0.950393 0
M  V30 4617 H 432.586 0.745924 4.03666 0
M  V30 4618 H 431.247 -0.00400098 3.141 0
M  V30 4619 H 430.44 1.7836 4.71385 0
M  V30 4620 H 430.042 2.1935 3.02922 0
M  V30 4621 H 432.334 2.90856 6.1189 0
M  V30 4622 H 433.277 4.33995 5.59512 0
M  V30 4623 H 433.685 2.7248 4.94383 0
M  V30 4624 N 433.083 -1.0153 1.20538 0
M  V30 4625 C 434.329 -1.75408 1.01783 0
M  V30 4626 C 434.662 -1.88943 -0.448814 0
M  V30 4627 O 433.937 -1.4162 -1.33319 0
M  V30 4628 C 434.22 -3.17255 1.70356 0
M  V30 4629 C 434.073 -3.11508 3.24473 0
M  V30 4630 C 435.392 -4.15955 1.43769 0
M  V30 4631 H 432.511 -0.636713 0.371167 0
M  V30 4632 H 435.153 -1.18436 1.4857 0
M  V30 4633 H 433.303 -3.65898 1.30578 0
M  V30 4634 H 434.975 -2.70658 3.73553 0
M  V30 4635 H 433.218 -2.4887 3.55311 0
M  V30 4636 H 433.889 -4.11784 3.67611 0
M  V30 4637 H 436.365 -3.75973 1.7828 0
M  V30 4638 H 435.241 -5.13368 1.94279 0
M  V30 4639 H 435.502 -4.40586 0.365564 0
M  V30 4640 N 434.561 -1.01147 -1.20859 0
M  V30 4641 C 435.509 -0.57059 -2.25493 0
M  V30 4642 C 436.503 0.388109 -1.64894 0
M  V30 4643 O 437.709 0.258592 -1.78133 0
M  V30 4644 H 434.084 -0.166191 -0.733406 0
M  V30 4645 H 436.055 -1.46411 -2.60012 0
M  V30 4646 C 434.804 0.0805241 -3.47607 0
M  V30 4647 H 434.127 -0.648156 -3.94511 0
M  V30 4648 H 435.567 0.352197 -4.22535 0
M  V30 4649 C 434.026 1.32175 -3.09889 0
M  V30 4650 O 434.556 2.41553 -3.20959 0
M  V30 4651 N 432.762 1.20392 -2.64488 0
M  V30 4652 H 432.309 0.313905 -2.5568 0
M  V30 4653 H 432.267 2.03541 -2.39621 0
M  V30 4654 N 436.039 1.36541 -0.78704 0
M  V30 4655 C 437.45 1.81873 -0.421807 0
M  V30 4656 C 437.801 1.65487 1.05397 0
M  V30 4657 O 436.926 1.17448 1.81755 0
M  V30 4658 C 437.521 3.30192 -0.758841 0
M  V30 4659 C 436.08 3.73743 -0.446468 0
M  V30 4660 C 435.227 2.58844 -0.994728 0
M  V30 4661 H 438.178 1.24796 -0.98039 0
M  V30 4662 H 438.199 3.80468 -0.0490648 0
M  V30 4663 H 437.711 3.42087 -1.83299 0
M  V30 4664 H 435.812 3.6741 0.619739 0
M  V30 4665 H 435.925 4.69272 -0.965415 0
M  V30 4666 H 434.289 2.51245 -0.418087 0
M  V30 4667 H 435.072 2.73525 -2.07458 0
M  V30 4668 N 437.518 0.538854 1.48102 0
M  V30 4669 C 438.764 0.00801365 2.02798 0
M  V30 4670 C 439.097 -1.3309 1.41424 0
M  V30 4671 O 438.372 -1.86169 0.563158 0
M  V30 4672 C 438.655 -0.104589 3.59948 0
M  V30 4673 C 438.508 1.26012 4.31788 0
M  V30 4674 C 439.827 -0.827055 4.32259 0
M  V30 4675 H 436.946 0.00438624 0.736987 0
M  V30 4676 H 439.588 0.6976 1.7673 0
M  V30 4677 H 437.738 -0.691893 3.82289 0
M  V30 4678 H 439.41 1.88922 4.2084 0
M  V30 4679 H 437.653 1.83968 3.92859 0
M  V30 4680 H 438.324 1.13424 5.40221 0
M  V30 4681 H 440.8 -0.328578 4.14801 0
M  V30 4682 H 439.676 -0.87476 5.41885 0
M  V30 4683 H 439.937 -1.87927 4.0017 0
M  V30 4684 N 438.996 -1.55193 0.274407 0
M  V30 4685 C 440.245 -1.98758 -0.343213 0
M  V30 4686 C 440.558 -1.16624 -1.5703 0
M  V30 4687 O 441.764 -1.5033 -2.26082 0
M  V30 4688 C 440.22 -3.53759 -0.661996 0
M  V30 4689 C 439.828 -4.4467 0.54524 0
M  V30 4690 C 441.572 -4.05916 -1.24228 0
M  V30 4691 C 439.479 -5.91058 0.201084 0
M  V30 4692 H 438.409 -0.742353 -0.132014 0
M  V30 4693 H 441.06 -1.79545 0.378948 0
M  V30 4694 H 439.442 -3.68772 -1.44304 0
M  V30 4695 H 440.616 -4.41426 1.32212 0
M  V30 4696 H 438.931 -4.03143 1.04232 0
M  V30 4697 H 441.528 -5.12831 -1.51357 0
M  V30 4698 H 441.871 -3.54908 -2.17592 0
M  V30 4699 H 442.404 -3.9434 -0.523542 0
M  V30 4700 H 439.143 -6.46161 1.10258 0
M  V30 4701 H 438.663 -5.97373 -0.539045 0
M  V30 4702 H 440.342 -6.46669 -0.206954 0
M  V30 4703 N 440.474 -0.00167713 -1.576 0
M  V30 4704 C 441.704 0.692754 -1.94639 0
M  V30 4705 C 442.112 1.67744 -0.87513 0
M  V30 4706 O 441.455 1.8305 0.154382 0
M  V30 4707 C 441.517 1.47881 -3.27676 0
M  V30 4708 C 441.181 0.655518 -4.52274 0
M  V30 4709 C 442.178 -0.0575214 -5.19868 0
M  V30 4710 C 439.863 0.600994 -4.98692 0
M  V30 4711 C 441.857 -0.814052 -6.3218 0
M  V30 4712 C 439.544 -0.15926 -6.10892 0
M  V30 4713 C 440.542 -0.865515 -6.77494 0
M  V30 4714 O 440.23 -1.61336 -7.87544 0
M  V30 4715 H 439.962 0.197792 -0.646417 0
M  V30 4716 H 442.516 -0.049423 -2.05341 0
M  V30 4717 H 440.746 2.2655 -3.13388 0
M  V30 4718 H 442.435 2.05874 -3.49816 0
M  V30 4719 H 443.201 -0.0245611 -4.84994 0
M  V30 4720 H 439.08 1.14025 -4.46676 0
M  V30 4721 H 442.624 -1.36584 -6.84098 0
M  V30 4722 H 438.521 -0.194035 -6.45208 0
M  V30 4723 H 439.289 -1.53025 -8.04068 0
M  V30 4724 N 441.952 1.55251 0.271103 0
M  V30 4725 C 442.915 1.87484 1.31842 0
M  V30 4726 C 443.915 0.749545 1.42262 0
M  V30 4727 O 445.105 1.01771 1.4138 0
M  V30 4728 C 442.237 2.0818 2.69951 0
M  V30 4729 H 443.43 2.81108 1.0449 0
M  V30 4730 H 440.983 1.47771 0.509258 0
M  V30 4731 H 441.718 1.16944 3.02481 0
M  V30 4732 H 441.503 2.90114 2.63774 0
M  V30 4733 H 442.993 2.34385 3.4562 0
M  V30 4734 N 443.43 -0.535701 1.48216 0
M  V30 4735 C 444.36 -1.65014 1.65204 0
M  V30 4736 C 445.341 -1.62554 0.501011 0
M  V30 4737 O 446.526 -1.7984 0.732886 0
M  V30 4738 C 443.656 -3.03616 1.68626 0
M  V30 4739 C 442.61 -3.20932 2.83172 0
M  V30 4740 C 441.936 -4.60537 2.71679 0
M  V30 4741 C 443.236 -3.04249 4.24535 0
M  V30 4742 H 444.93 -1.51053 2.58502 0
M  V30 4743 H 442.476 -0.725262 1.24402 0
M  V30 4744 H 444.429 -3.81446 1.79099 0
M  V30 4745 H 443.153 -3.18587 0.719026 0
M  V30 4746 H 441.812 -2.45517 2.72244 0
M  V30 4747 H 441.46 -4.72336 1.72937 0
M  V30 4748 H 441.16 -4.73069 3.48538 0
M  V30 4749 H 442.684 -5.40475 2.84112 0
M  V30 4750 H 444.098 -3.71877 4.36326 0
M  V30 4751 H 442.495 -3.28278 5.02348 0
M  V30 4752 H 443.565 -2.00739 4.41397 0
M  V30 4753 N 444.908 -1.36708 -0.784132 0
M  V30 4754 C 446.324 -1.17237 -1.08294 0
M  V30 4755 C 446.524 -5.93947e-05 -2.015 0
M  V30 4756 O 445.58 0.663686 -2.43622 0
M  V30 4757 C 446.893 -2.48557 -1.69233 0
M  V30 4758 C 448.441 -2.54968 -1.8155 0
M  V30 4759 C 448.916 -3.86388 -2.45904 0
M  V30 4760 N 450.407 -3.87762 -2.53367 0
M  V30 4761 C 451.142 -4.86191 -3.03983 0
M  V30 4762 N 450.638 -5.95015 -3.54866 0
M  V30 4763 N 452.431 -4.73606 -3.02743 0
M  V30 4764 H 444.582 -2.11758 -0.16501 0
M  V30 4765 H 446.845 -0.93822 -0.135822 0
M  V30 4766 H 446.551 -3.34638 -1.08215 0
M  V30 4767 H 446.425 -2.64748 -2.68679 0
M  V30 4768 H 448.812 -1.69302 -2.41704 0
M  V30 4769 H 448.893 -2.42672 -0.80895 0
M  V30 4770 H 448.537 -4.72462 -1.86392 0
M  V30 4771 H 448.467 -3.95982 -3.4714 0
M  V30 4772 H 450.958 -3.09145 -2.17343 0
M  V30 4773 H 451.271 -6.66086 -3.91854 0
M  V30 4774 H 449.616 -5.98676 -3.53003 0
M  V30 4775 H 452.807 -3.87717 -2.62284 0
M  V30 4776 H 452.98 -5.50473 -3.41881 0
M  V30 4777 N 446.386 1.0089 -1.21074 0
M  V30 4778 C 447.611 1.78727 -1.05221 0
M  V30 4779 C 448.036 1.83932 0.393795 0
M  V30 4780 O 447.394 1.28004 1.28393 0
M  V30 4781 C 447.442 3.20665 -1.64944 0
M  V30 4782 O 446.546 4.02632 -0.892273 0
M  V30 4783 H 445.887 0.550973 -0.370574 0
M  V30 4784 H 448.417 1.26847 -1.60534 0
M  V30 4785 H 448.427 3.71352 -1.69002 0
M  V30 4786 H 447.102 3.16191 -2.70177 0
M  V30 4787 H 445.679 3.61207 -0.926492 0
M  V30 4788 N 447.864 1.01787 1.20321 0
M  V30 4789 C 449.112 0.706538 1.89347 0
M  V30 4790 C 449.433 -0.766289 1.79313 0
M  V30 4791 O 448.703 -1.55126 1.19635 0
M  V30 4792 H 447.283 0.258348 0.700903 0
M  V30 4793 H 449.945 1.28974 1.46122 0
M  V30 4794 H 449.041 0.991066 2.95946 0
M  V30 4795 N 449.342 -1.36122 0.79427 0
M  V30 4796 C 450.252 -2.33769 0.197296 0
M  V30 4797 C 451.268 -1.61276 -0.653153 0
M  V30 4798 O 452.444 -1.9323 -0.5678 0
M  V30 4799 C 449.509 -3.40474 -0.654098 0
M  V30 4800 C 448.57 -4.28759 0.215411 0
M  V30 4801 C 447.803 -5.30368 -0.595443 0
M  V30 4802 O 448.026 -5.40211 -1.83107 0
M  V30 4803 O 446.96 -6.019 0.00721351 0
M  V30 4804 H 450.786 -2.86597 1.00478 0
M  V30 4805 H 448.371 -1.38676 0.555818 0
M  V30 4806 H 450.253 -4.05703 -1.13944 0
M  V30 4807 H 448.928 -2.89937 -1.43938 0
M  V30 4808 H 447.835 -3.66554 0.747615 0
M  V30 4809 H 449.168 -4.82661 0.964332 0
M  V30 4810 N 450.82 -0.546701 -1.47814 0
M  V30 4811 C 452.069 -0.0166497 -2.01693 0
M  V30 4812 C 452.382 1.33721 -1.42752 0
M  V30 4813 O 453.588 1.95658 -1.8823 0
M  V30 4814 C 452.044 0.0206769 -3.59894 0
M  V30 4815 C 451.652 -1.3293 -4.27824 0
M  V30 4816 C 453.396 0.498674 -4.21561 0
M  V30 4817 C 451.303 -1.25165 -5.78003 0
M  V30 4818 H 450.233 -0.0024541 -0.753996 0
M  V30 4819 H 452.884 -0.692984 -1.69912 0
M  V30 4820 H 451.266 0.76244 -3.88591 0
M  V30 4821 H 452.44 -2.08795 -4.10781 0
M  V30 4822 H 450.755 -1.74438 -3.78101 0
M  V30 4823 H 453.352 0.575 -5.31599 0
M  V30 4824 H 453.695 1.5083 -3.88016 0
M  V30 4825 H 454.228 -0.18791 -3.97356 0
M  V30 4826 H 450.967 -2.23695 -6.1615 0
M  V30 4827 H 450.487 -0.53464 -5.97412 0
M  V30 4828 H 452.166 -0.949299 -6.39998 0
M  V30 4829 N 452.299 1.55045 -0.282633 0
M  V30 4830 C 453.715 1.59441 0.0712997 0
M  V30 4831 C 453.915 1.2998 1.53972 0
M  V30 4832 O 452.971 1.06431 2.28973 0
M  V30 4833 C 454.284 2.99097 -0.310104 0
M  V30 4834 C 455.832 3.1194 -0.257343 0
M  V30 4835 C 456.307 4.53875 -0.613297 0
M  V30 4836 N 457.798 4.5974 -0.565134 0
M  V30 4837 C 458.533 5.67603 -0.81326 0
M  V30 4838 N 458.029 6.83582 -1.1264 0
M  V30 4839 N 459.822 5.57187 -0.741553 0
M  V30 4840 H 451.973 1.72458 -1.23984 0
M  V30 4841 H 454.236 0.804549 -0.501403 0
M  V30 4842 H 453.942 3.25516 -1.33163 0
M  V30 4843 H 453.816 3.75616 0.345366 0
M  V30 4844 H 456.203 2.85281 0.754905 0
M  V30 4845 H 456.284 2.37618 -0.947178 0
M  V30 4846 H 455.928 4.81261 -1.62327 0
M  V30 4847 H 455.858 5.26508 0.09841 0
M  V30 4848 H 458.349 3.76427 -0.333294 0
M  V30 4849 H 458.662 7.6175 -1.30219 0
M  V30 4850 H 457.007 6.85179 -1.16425 0
M  V30 4851 H 460.198 4.65457 -0.496705 0
M  V30 4852 H 460.371 6.41171 -0.938306 0
M  V30 4853 N 453.777 0.010035 1.57597 0
M  V30 4854 C 455.002 -0.687021 1.95691 0
M  V30 4855 C 455.427 -1.65952 0.885519 0
M  V30 4856 O 454.785 -1.80633 -0.15543 0
M  V30 4857 C 454.833 -1.3864 3.32884 0
M  V30 4858 O 453.937 -2.50115 3.27897 0
M  V30 4859 H 453.278 -0.181989 0.638573 0
M  V30 4860 H 455.808 0.0662122 2.04493 0
M  V30 4861 H 455.818 -1.74754 3.6868 0
M  V30 4862 H 454.493 -0.673411 4.10412 0
M  V30 4863 H 453.07 -2.16253 3.03791 0
M  V30 4864 N 455.255 -1.55392 -0.262866 0
M  V30 4865 C 456.48 -1.80847 -1.01533 0
M  V30 4866 C 456.905 -0.584946 -1.78774 0
M  V30 4867 O 456.263 0.465701 -1.75217 0
M  V30 4868 C 456.311 -3.03866 -1.94159 0
M  V30 4869 O 455.415 -2.79662 -3.03089 0
M  V30 4870 H 454.756 -0.597441 -0.289759 0
M  V30 4871 H 457.286 -2.02553 -0.288698 0
M  V30 4872 H 457.296 -3.32872 -2.35924 0
M  V30 4873 H 455.971 -3.92564 -1.37354 0
M  V30 4874 H 454.548 -2.61781 -2.65566 0
M  V30 4875 N 456.733 0.527833 -1.48498 0
M  V30 4876 C 457.696 1.61439 -1.62696 0
M  V30 4877 C 458.696 1.52824 -0.500136 0
M  V30 4878 O 459.886 1.56456 -0.765976 0
M  V30 4879 C 457.018 3.01063 -1.59918 0
M  V30 4880 H 458.211 1.50189 -2.59583 0
M  V30 4881 H 455.764 0.750055 -1.37127 0
M  V30 4882 H 456.499 3.17818 -0.645163 0
M  V30 4883 H 456.284 3.08725 -2.41726 0
M  V30 4884 H 457.774 3.80057 -1.73051 0
M  V30 4885 N 458.211 1.37122 0.776871 0
M  V30 4886 C 459.161 1.28989 1.88005 0
M  V30 4887 C 460.145 0.178765 1.59904 0
M  V30 4888 O 461.337 0.412705 1.72121 0
M  V30 4889 C 458.466 1.09402 3.25402 0
M  V30 4890 C 457.552 2.25036 3.59471 0
M  V30 4891 N 457.943 3.50407 3.64759 0
M  V30 4892 C 456.241 2.17078 3.89607 0
M  V30 4893 C 456.942 4.26628 3.95428 0
M  V30 4894 N 455.918 3.55709 4.11062 0
M  V30 4895 H 459.72 2.2394 1.90337 0
M  V30 4896 H 457.234 1.30021 0.973052 0
M  V30 4897 H 459.231 1.01661 4.04315 0
M  V30 4898 H 457.891 0.153632 3.24336 0
M  V30 4899 H 458.902 3.8438 3.47091 0
M  V30 4900 H 455.579 1.31067 3.96393 0
M  V30 4901 H 456.969 5.35107 4.06338 0
M  V30 4902 N 459.689 -1.00246 1.21608 0
M  V30 4903 C 460.639 -2.07492 0.945051 0
M  V30 4904 C 461.623 -1.60585 -0.100675 0
M  V30 4905 O 462.815 -1.76667 0.10859 0
M  V30 4906 C 459.944 -3.39425 0.514342 0
M  V30 4907 C 459.03 -3.92993 1.59428 0
M  V30 4908 N 459.421 -4.19898 2.81991 0
M  V30 4909 C 457.719 -4.21297 1.46374 0
M  V30 4910 C 458.42 -4.63297 3.51754 0
M  V30 4911 N 457.396 -4.66421 2.79199 0
M  V30 4912 H 461.198 -2.26222 1.87619 0
M  V30 4913 H 458.712 -1.18339 1.11219 0
M  V30 4914 H 460.709 -4.15808 0.301527 0
M  V30 4915 H 459.369 -3.22101 -0.410008 0
M  V30 4916 H 460.38 -4.08377 3.1851 0
M  V30 4917 H 457.057 -4.13095 0.604863 0
M  V30 4918 H 458.447 -4.92816 4.56708 0
M  V30 4919 N 461.167 -1.02423 -1.1978 0
M  V30 4920 C 462.407 -0.726635 -1.91048 0
M  V30 4921 C 462.771 0.730947 -1.77542 0
M  V30 4922 O 463.972 1.14141 -2.43362 0
M  V30 4923 C 462.243 -1.15964 -3.38064 0
M  V30 4924 S 463.802 -0.985172 -4.27598 0
M  V30 4925 H 460.62 -0.264679 -0.659899 0
M  V30 4926 H 463.222 -1.31309 -1.44838 0
M  V30 4927 H 461.926 -2.21619 -3.45417 0
M  V30 4928 H 461.457 -0.566274 -3.89303 0
M  V30 4929 H 463.472 0.106946 -4.96085 0
M  V30 4930 N 462.645 1.35699 -0.801477 0
M  V30 4931 C 463.575 2.32436 -0.222658 0
M  V30 4932 C 464.556 1.5723 0.649057 0
M  V30 4933 O 465.741 1.85324 0.580387 0
M  V30 4934 C 462.871 3.41469 0.633719 0
M  V30 4935 C 461.825 4.27774 -0.139083 0
M  V30 4936 C 461.151 5.28082 0.838666 0
M  V30 4937 C 462.451 5.04946 -1.33517 0
M  V30 4938 H 464.145 2.81094 -1.03086 0
M  V30 4939 H 461.691 1.35146 -0.497155 0
M  V30 4940 H 463.644 4.08143 1.04868 0
M  V30 4941 H 462.368 2.91408 1.47475 0
M  V30 4942 H 461.027 3.62673 -0.535156 0
M  V30 4943 H 460.675 4.7429 1.67506 0
M  V30 4944 H 460.375 5.86695 0.32594 0
M  V30 4945 H 461.899 5.97628 1.25194 0
M  V30 4946 H 463.313 5.64593 -0.995349 0
M  V30 4947 H 461.71 5.7303 -1.78202 0
M  V30 4948 H 462.78 4.35886 -2.12442 0
M  V30 4949 N 464.123 0.554532 1.47522 0
M  V30 4950 C 465.086 -0.184174 2.28459 0
M  V30 4951 C 466.086 -0.845195 1.36796 0
M  V30 4952 O 467.276 -0.701467 1.59452 0
M  V30 4953 C 464.408 -1.26903 3.16399 0
M  V30 4954 H 465.601 0.526751 2.95238 0
M  V30 4955 H 463.154 0.311375 1.53167 0
M  V30 4956 H 463.889 -2.01244 2.54306 0
M  V30 4957 H 463.674 -0.799883 3.83854 0
M  V30 4958 H 465.164 -1.78794 3.77389 0
M  V30 4959 N 465.601 -1.54893 0.290851 0
M  V30 4960 C 466.551 -2.19838 -0.604599 0
M  V30 4961 C 467.535 -1.16805 -1.10659 0
M  V30 4962 O 468.727 -1.42562 -1.04905 0
M  V30 4963 C 465.856 -2.93497 -1.78086 0
M  V30 4964 C 464.942 -4.03835 -1.29531 0
M  V30 4965 N 465.333 -5.03047 -0.527024 0
M  V30 4966 C 463.631 -4.17192 -1.57693 0
M  V30 4967 C 464.332 -5.81074 -0.269728 0
M  V30 4968 N 463.308 -5.36966 -0.846651 0
M  V30 4969 H 467.11 -2.93898 -0.00995032 0
M  V30 4970 H 464.624 -1.62121 0.0951353 0
M  V30 4971 H 466.621 -3.38484 -2.43381 0
M  V30 4972 H 465.281 -2.2095 -2.37931 0
M  V30 4973 H 466.292 -5.17611 -0.172872 0
M  V30 4974 H 462.969 -3.55845 -2.18359 0
M  V30 4975 H 464.359 -6.71005 0.346643 0
M  V30 4976 N 467.08 -0.0183926 -1.57589 0
M  V30 4977 C 468.326 0.657813 -1.92469 0
M  V30 4978 C 468.681 1.70349 -0.894375 0
M  V30 4979 O 467.974 1.91384 0.0910389 0
M  V30 4980 C 468.168 1.32676 -3.31861 0
M  V30 4981 C 467.997 0.347403 -4.48356 0
M  V30 4982 C 466.767 -0.0488653 -5.05276 0
M  V30 4983 C 468.965 -0.393931 -5.12789 0
M  V30 4984 N 466.947 -1.02451 -6.05291 0
M  V30 4985 C 468.318 -1.22367 -6.07804 0
M  V30 4986 C 470.373 -0.455789 -4.95809 0
M  V30 4987 C 469.076 -2.10966 -6.87667 0
M  V30 4988 C 471.102 -1.32908 -5.76272 0
M  V30 4989 C 470.464 -2.14662 -6.70894 0
M  V30 4990 H 466.563 0.21335 -0.752334 0
M  V30 4991 H 469.147 -0.0830547 -1.94523 0
M  V30 4992 H 467.318 2.03782 -3.30647 0
M  V30 4993 H 469.05 1.95913 -3.54119 0
M  V30 4994 H 465.805 0.323356 -4.72495 0
M  V30 4995 H 466.229 -1.50826 -6.59985 0
M  V30 4996 H 470.871 0.162017 -4.22489 0
M  V30 4997 H 468.589 -2.73807 -7.603 0
M  V30 4998 H 472.175 -1.38109 -5.6517 0
M  V30 4999 H 471.055 -2.81143 -7.32071 0
M  V30 5000 N 468.558 1.5553 0.254621 0
M  V30 5001 C 469.505 1.89666 1.31512 0
M  V30 5002 C 470.475 0.750057 1.482 0
M  V30 5003 O 471.66 1.00301 1.62309 0
M  V30 5004 C 468.8 2.19009 2.667 0
M  V30 5005 C 467.913 3.46435 2.58083 0
M  V30 5006 C 467.048 3.65386 3.85573 0
M  V30 5007 C 466.087 4.8644 3.71541 0
M  V30 5008 N 465.224 5.01952 4.90906 0
M  V30 5009 H 470.064 2.80109 1.017 0
M  V30 5010 H 467.601 1.38666 0.490938 0
M  V30 5011 H 469.559 2.34025 3.45381 0
M  V30 5012 H 468.189 1.31779 2.94676 0
M  V30 5013 H 467.241 3.39792 1.71013 0
M  V30 5014 H 468.553 4.35258 2.43622 0
M  V30 5015 H 467.707 3.80319 4.72697 0
M  V30 5016 H 466.446 2.74781 4.02922 0
M  V30 5017 H 465.451 4.71491 2.82801 0
M  V30 5018 H 466.676 5.78497 3.55694 0
M  V30 5019 H 464.622 4.14283 5.08631 0
M  V30 5020 H 464.539 5.84851 4.79046 0
M  V30 5021 H 465.807 5.21289 5.7955 0
M  V30 5022 N 470.036 -0.519951 1.48776 0
M  V30 5023 C 470.983 -1.62352 1.64044 0
M  V30 5024 C 471.953 -1.58945 0.482251 0
M  V30 5025 O 473.138 -1.77219 0.706971 0
M  V30 5026 C 470.278 -3.00579 1.69547 0
M  V30 5027 C 469.391 -3.14145 2.96541 0
M  V30 5028 C 468.526 -4.42991 2.93142 0
M  V30 5029 C 467.565 -4.50122 4.14797 0
M  V30 5030 N 466.702 -5.7037 4.09418 0
M  V30 5031 H 471.542 -1.48643 2.58281 0
M  V30 5032 H 469.079 -0.723516 1.28077 0
M  V30 5033 H 471.037 -3.80671 1.70719 0
M  V30 5034 H 469.667 -3.13036 0.787918 0
M  V30 5035 H 468.719 -2.27239 3.05068 0
M  V30 5036 H 470.031 -3.15275 3.86527 0
M  V30 5037 H 469.185 -5.31385 2.92772 0
M  V30 5038 H 467.924 -4.44398 2.00902 0
M  V30 5039 H 466.929 -3.60133 4.15433 0
M  V30 5040 H 468.154 -4.50445 5.08208 0
M  V30 5041 H 466.1 -5.72655 3.20004 0
M  V30 5042 H 466.017 -5.73036 4.93119 0
M  V30 5043 H 467.285 -6.61023 4.13121 0
M  V30 5044 N 471.514 -1.37532 -0.769588 0
M  V30 5045 C 472.754 -1.34261 -1.54122 0
M  V30 5046 C 473.118 0.0717222 -1.91866 0
M  V30 5047 O 474.319 0.22918 -2.67821 0
M  V30 5048 C 472.59 -2.2574 -2.77086 0
M  V30 5049 S 474.149 -2.40339 -3.67127 0
M  V30 5050 H 470.967 -0.476595 -0.527615 0
M  V30 5051 H 473.569 -1.73303 -0.90479 0
M  V30 5052 H 472.273 -3.27417 -2.4744 0
M  V30 5053 H 471.804 -1.87789 -3.45686 0
M  V30 5054 H 473.819 -1.61558 -4.69163 0
M  V30 5055 N 472.992 0.995999 -1.22138 0
M  V30 5056 C 474.238 1.73767 -1.04561 0
M  V30 5057 C 474.571 1.89633 0.418698 0
M  V30 5058 O 473.846 1.43723 1.3105 0
M  V30 5059 C 474.129 3.14505 -1.75382 0
M  V30 5060 C 473.982 3.06306 -3.29388 0
M  V30 5061 C 475.301 4.13615 -1.50369 0
M  V30 5062 H 472.42 0.630728 -0.38125 0
M  V30 5063 H 475.062 1.16057 -1.50435 0
M  V30 5064 H 473.212 3.63775 -1.36383 0
M  V30 5065 H 474.884 2.64681 -3.77812 0
M  V30 5066 H 473.127 2.43186 -3.59226 0
M  V30 5067 H 473.798 4.05884 -3.74116 0
M  V30 5068 H 476.274 3.73089 -1.84239 0
M  V30 5069 H 475.15 5.10212 -2.02421 0
M  V30 5070 H 475.411 4.39949 -0.435611 0
M  V30 5071 N 474.47 1.03057 1.19235 0
M  V30 5072 C 475.886 0.747947 1.40989 0
M  V30 5073 C 476.086 -0.666752 1.90149 0
M  V30 5074 O 475.142 -1.43249 2.07933 0
M  V30 5075 C 476.455 1.7855 2.41951 0
M  V30 5076 C 478.003 1.80524 2.55695 0
M  V30 5077 C 478.478 2.83243 3.59913 0
M  V30 5078 N 479.969 2.8207 3.67411 0
M  V30 5079 C 480.704 3.58204 4.47747 0
M  V30 5080 N 480.2 4.44057 5.31775 0
M  V30 5081 N 481.993 3.46738 4.42413 0
M  V30 5082 H 474.144 1.94367 0.856468 0
M  V30 5083 H 476.407 0.840412 0.438647 0
M  V30 5084 H 476.113 2.79973 2.12857 0
M  V30 5085 H 475.987 1.6092 3.41152 0
M  V30 5086 H 478.374 0.79778 2.84112 0
M  V30 5087 H 478.455 2.02229 1.56643 0
M  V30 5088 H 478.099 3.84161 3.32239 0
M  V30 5089 H 478.029 2.58795 4.5862 0
M  V30 5090 H 480.52 2.19803 3.074 0
M  V30 5091 H 480.833 4.98884 5.90199 0
M  V30 5092 H 479.178 4.48129 5.3123 0
M  V30 5093 H 482.369 2.79077 3.75811 0
M  V30 5094 H 482.542 4.06322 5.04783 0
M  V30 5095 N 475.948 -1.35272 0.808662 0
M  V30 5096 C 477.196 -1.98316 0.389233 0
M  V30 5097 C 477.517 -1.64465 -1.04767 0
M  V30 5098 O 476.787 -0.928175 -1.72516 0
M  V30 5099 H 475.367 -0.733585 0.140935 0
M  V30 5100 H 478.029 -1.6515 1.03496 0
M  V30 5101 H 477.125 -3.08123 0.496631 0
M  V30 5102 N 477.426 -0.562348 -1.47226 0
M  V30 5103 C 478.356 0.170627 -2.32876 0
M  V30 5104 C 479.337 0.903748 -1.44106 0
M  V30 5105 O 480.522 0.883206 -1.72954 0
M  V30 5106 C 477.652 1.19786 -3.25989 0
M  V30 5107 C 476.606 0.580875 -4.2404 0
M  V30 5108 C 475.932 1.71311 -5.06514 0
M  V30 5109 C 477.232 -0.468714 -5.20193 0
M  V30 5110 H 478.926 -0.544441 -2.94408 0
M  V30 5111 H 476.472 -0.263271 -1.41573 0
M  V30 5112 H 478.425 1.71884 -3.84752 0
M  V30 5113 H 477.149 1.94294 -2.62521 0
M  V30 5114 H 475.808 0.0811538 -3.6651 0
M  V30 5115 H 475.456 2.44736 -4.39447 0
M  V30 5116 H 475.156 1.30604 -5.72902 0
M  V30 5117 H 476.68 2.23725 -5.68137 0
M  V30 5118 H 478.094 -0.0336028 -5.7329 0
M  V30 5119 H 476.491 -0.794957 -5.94811 0
M  V30 5120 H 477.561 -1.36269 -4.65359 0
M  V30 5121 N 478.904 1.54736 -0.299062 0
M  V30 5122 C 480.152 1.99706 0.31017 0
M  V30 5123 C 480.473 1.18896 1.54559 0
M  V30 5124 O 479.743 0.284445 1.93824 0
M  V30 5125 H 478.323 0.737686 0.117596 0
M  V30 5126 H 480.985 1.9054 -0.409943 0
M  V30 5127 H 480.081 3.06596 0.58355 0
M  V30 5128 N 480.382 0.0267497 1.57577 0
M  V30 5129 C 481.607 -0.666227 1.96408 0
M  V30 5130 C 482.032 -1.65004 0.903071 0
M  V30 5131 O 481.39 -1.80787 -0.136263 0
M  V30 5132 C 481.438 -1.35101 3.34335 0
M  V30 5133 O 480.542 -2.46623 3.30531 0
M  V30 5134 H 479.883 -0.175206 0.640468 0
M  V30 5135 H 482.413 0.0878977 2.04411 0
M  V30 5136 H 482.423 -1.70834 3.70513 0
M  V30 5137 H 481.098 -0.629844 4.11103 0
M  V30 5138 H 479.675 -2.13019 3.06068 0
M  V30 5139 N 481.861 -1.55662 -0.24637 0
M  V30 5140 C 482.771 -1.93495 -1.32653 0
M  V30 5141 C 483.787 -0.835462 -1.5263 0
M  V30 5142 O 484.963 -1.1369 -1.66242 0
M  V30 5143 C 482.028 -2.22242 -2.66101 0
M  V30 5144 C 481.089 -3.45625 -2.54641 0
M  V30 5145 C 480.322 -3.72991 -3.81724 0
M  V30 5146 O 480.545 -3.02421 -4.8363 0
M  V30 5147 O 479.479 -4.66515 -3.80325 0
M  V30 5148 H 483.305 -2.85498 -1.03559 0
M  V30 5149 H 480.89 -1.42551 -0.44717 0
M  V30 5150 H 482.772 -2.42037 -3.44958 0
M  V30 5151 H 481.447 -1.33417 -2.94926 0
M  V30 5152 H 480.354 -3.31136 -1.74067 0
M  V30 5153 H 481.687 -4.34754 -2.3076 0
M  V30 5154 N 483.339 0.512053 -1.4905 0
M  V30 5155 C 484.302 1.59704 -1.64399 0
M  V30 5156 C 485.302 1.52285 -0.516317 0
M  V30 5157 O 486.492 1.55635 -0.782527 0
M  V30 5158 C 483.624 2.9935 -1.63102 0
M  V30 5159 H 484.817 1.47428 -2.61161 0
M  V30 5160 H 482.37 0.735469 -1.37915 0
M  V30 5161 H 483.105 3.17116 -0.678836 0
M  V30 5162 H 482.89 3.06144 -2.44986 0
M  V30 5163 H 484.38 3.782 -1.77072 0
M  V30 5164 N 484.817 1.37938 0.762283 0
M  V30 5165 C 485.764 1.34467 1.87583 0
M  V30 5166 C 486.734 0.208633 1.64785 0
M  V30 5167 O 487.919 0.399494 1.86571 0
M  V30 5168 C 485.059 1.16692 3.24772 0
M  V30 5169 C 484.172 2.39608 3.59461 0
M  V30 5170 C 483.307 2.14631 4.85908 0
M  V30 5171 C 482.346 3.33364 5.13357 0
M  V30 5172 N 481.483 3.07877 6.30996 0
M  V30 5173 H 486.323 2.29669 1.89885 0
M  V30 5174 H 483.86 1.14116 0.928219 0
M  V30 5175 H 485.818 1.04405 4.03925 0
M  V30 5176 H 484.448 0.251333 3.2182 0
M  V30 5177 H 483.5 2.626 2.75219 0
M  V30 5178 H 484.812 3.28128 3.75678 0
M  V30 5179 H 483.966 1.99429 5.72986 0
M  V30 5180 H 482.705 1.23463 4.71814 0
M  V30 5181 H 481.71 3.49094 4.24751 0
M  V30 5182 H 482.935 4.25395 5.29354 0
M  V30 5183 H 480.881 2.19348 6.18241 0
M  V30 5184 H 480.798 3.89944 6.47673 0
M  V30 5185 H 482.066 2.96313 7.20985 0
M  V30 5186 N 486.295 -0.989507 1.22664 0
M  V30 5187 C 487.205 -2.11449 1.01619 0
M  V30 5188 C 488.221 -1.73962 -0.036545 0
M  V30 5189 O 489.397 -2.00788 0.156924 0
M  V30 5190 C 486.462 -3.41465 0.600204 0
M  V30 5191 C 485.523 -3.93033 1.72695 0
M  V30 5192 C 484.756 -5.16844 1.33071 0
M  V30 5193 O 484.979 -5.7001 0.210975 0
M  V30 5194 O 483.913 -5.6225 2.14845 0
M  V30 5195 H 487.739 -2.32088 1.9588 0
M  V30 5196 H 485.324 -1.09823 1.01289 0
M  V30 5197 H 487.206 -4.19695 0.37873 0
M  V30 5198 H 485.881 -3.22178 -0.313511 0
M  V30 5199 H 484.788 -3.15961 2.00298 0
M  V30 5200 H 486.121 -4.16758 2.61865 0
M  V30 5201 N 487.773 -1.03688 -1.18687 0
M  V30 5202 C 488.683 -0.634908 -2.25845 0
M  V30 5203 C 489.699 0.337065 -1.70704 0
M  V30 5204 O 490.875 0.192943 -2.00474 0
M  V30 5205 C 487.94 -0.000180054 -3.467 0
M  V30 5206 C 487.001 -1.02067 -4.1699 0
M  V30 5207 C 486.234 -0.41614 -5.32075 0
M  V30 5208 O 486.457 0.778712 -5.65059 0
M  V30 5209 O 485.391 -1.14296 -5.90948 0
M  V30 5210 H 489.217 -1.52757 -2.62486 0
M  V30 5211 H 486.802 -0.807533 -1.25695 0
M  V30 5212 H 488.684 0.353342 -4.19916 0
M  V30 5213 H 487.359 0.866367 -3.11891 0
M  V30 5214 H 486.266 -1.42592 -3.45859 0
M  V30 5215 H 487.599 -1.85786 -4.5579 0
M  V30 5216 N 489.251 1.34841 -0.815825 0
M  V30 5217 C 490.214 2.27959 -0.238185 0
M  V30 5218 C 491.214 1.49983 0.579816 0
M  V30 5219 O 492.404 1.69617 0.396953 0
M  V30 5220 C 489.536 3.34314 0.666876 0
M  V30 5221 H 490.729 2.80558 -1.05958 0
M  V30 5222 H 488.282 1.44852 -0.587156 0
M  V30 5223 H 489.017 2.86916 1.5116 0
M  V30 5224 H 488.802 3.92014 0.0819106 0
M  V30 5225 H 490.292 4.0379 1.06506 0
M  V30 5226 N 490.729 0.570148 1.46925 0
M  V30 5227 C 492.14 0.1402 1.86173 0
M  V30 5228 C 492.491 -1.29347 1.47526 0
M  V30 5229 O 491.616 -1.97508 0.884292 0
M  V30 5230 C 492.211 0.247661 3.37894 0
M  V30 5231 C 490.77 -0.127332 3.76185 0
M  V30 5232 C 489.917 0.589349 2.70965 0
M  V30 5233 H 492.868 0.779117 1.38259 0
M  V30 5234 H 492.889 -0.530341 3.76786 0
M  V30 5235 H 492.401 1.29121 3.65991 0
M  V30 5236 H 490.502 -1.17149 3.53704 0
M  V30 5237 H 490.615 0.240238 4.78497 0
M  V30 5238 H 488.979 0.0309824 2.54681 0
M  V30 5239 H 489.762 1.6343 3.01903 0
M  V30 5240 N 492.207 -1.54576 0.307264 0
M  V30 5241 C 493.623 -1.59534 -0.0459251 0
M  V30 5242 C 493.823 -1.32414 -1.51884 0
M  V30 5243 O 492.879 -1.1006 -2.27251 0
M  V30 5244 C 494.192 -2.98566 0.357649 0
M  V30 5245 C 495.74 -3.11491 0.306937 0
M  V30 5246 C 496.215 -4.52842 0.685427 0
M  V30 5247 N 497.706 -4.58782 0.638203 0
M  V30 5248 C 498.441 -5.66238 0.903458 0
M  V30 5249 N 497.937 -6.81703 1.23501 0
M  V30 5250 N 499.73 -5.55937 0.830102 0
M  V30 5251 H 491.881 -1.70464 1.26712 0
M  V30 5252 H 494.144 -0.79647 0.514139 0
M  V30 5253 H 493.85 -3.23356 1.38325 0
M  V30 5254 H 493.724 -3.76117 -0.285565 0
M  V30 5255 H 496.111 -2.86446 -0.709424 0
M  V30 5256 H 496.192 -2.36081 0.984861 0
M  V30 5257 H 495.836 -4.78618 1.69963 0
M  V30 5258 H 495.766 -5.26598 -0.0146346 0
M  V30 5259 H 498.257 -3.75849 0.393138 0
M  V30 5260 H 498.57 -7.59582 1.42322 0
M  V30 5261 H 496.915 -6.8324 1.27311 0
M  V30 5262 H 500.106 -4.64608 0.570693 0
M  V30 5263 H 500.279 -6.39597 1.04019 0
M  V30 5264 N 493.685 -0.035106 -1.57561 0
M  V30 5265 C 494.91 0.655802 -1.96759 0
M  V30 5266 C 495.335 1.64523 -0.911809 0
M  V30 5267 O 494.693 1.80857 0.126673 0
M  V30 5268 C 494.741 1.33326 -3.35047 0
M  V30 5269 O 493.845 2.44866 -3.31835 0
M  V30 5270 H 493.186 0.171807 -0.641388 0
M  V30 5271 H 495.716 -0.0987369 -2.04362 0
M  V30 5272 H 495.726 1.68867 -3.71413 0
M  V30 5273 H 494.401 0.608033 -4.11431 0
M  V30 5274 H 492.978 2.11392 -3.07193 0
M  V30 5275 N 495.163 1.55791 0.238111 0
M  V30 5276 C 496.388 1.8244 0.986432 0
M  V30 5277 C 496.813 0.613314 1.7782 0
M  V30 5278 O 496.171 -0.437767 1.75935 0
M  V30 5279 C 496.219 3.06917 1.893 0
M  V30 5280 O 495.323 2.84449 2.98601 0
M  V30 5281 H 494.664 0.601975 0.280218 0
M  V30 5282 H 497.194 2.02987 0.256437 0
M  V30 5283 H 497.204 3.36583 2.30598 0
M  V30 5284 H 495.879 3.947 1.31091 0
M  V30 5285 H 494.456 2.65972 2.61368 0
M  V30 5286 N 496.642 -0.504142 1.49319 0
M  V30 5287 C 497.888 -1.26033 1.58882 0
M  V30 5288 C 498.221 -1.92268 0.273274 0
M  V30 5289 O 497.496 -1.80567 -0.72291 0
M  V30 5290 C 497.779 -2.32976 2.7458 0
M  V30 5291 C 497.632 -1.71263 4.1592 0
M  V30 5292 C 498.951 -3.34561 2.85932 0
M  V30 5293 H 496.07 -0.456863 0.578312 0
M  V30 5294 H 498.712 -0.558965 1.81592 0
M  V30 5295 H 496.862 -2.92796 2.55348 0
M  V30 5296 H 498.534 -1.15294 4.4666 0
M  V30 5297 H 496.777 -1.01686 4.21714 0
M  V30 5298 H 497.448 -2.48816 4.92742 0
M  V30 5299 H 499.924 -2.84727 3.0343 0
M  V30 5300 H 498.8 -4.06754 3.68568 0
M  V30 5301 H 499.061 -3.96695 1.95154 0
M  V30 5302 N 498.12 -1.38341 -0.754957 0
M  V30 5303 C 499.348 -1.37704 -1.54419 0
M  V30 5304 C 499.763 0.0335243 -1.8877 0
M  V30 5305 O 499.12 0.999773 -1.52679 0
M  V30 5306 C 499.171 -2.23136 -2.84416 0
M  V30 5307 O 498.892 -3.58697 -2.51531 0
M  V30 5308 C 500.393 -2.30664 -3.78562 0
M  V30 5309 H 497.613 -0.471061 -0.477852 0
M  V30 5310 H 500.157 -1.81902 -0.934446 0
M  V30 5311 H 498.312 -1.82403 -3.41772 0
M  V30 5312 H 498.726 -4.03665 -3.34896 0
M  V30 5313 H 500.2 -2.9473 -4.66732 0
M  V30 5314 H 500.677 -1.3199 -4.18898 0
M  V30 5315 H 501.283 -2.71781 -3.27131 0
M  V30 5316 N 499.598 0.982988 -1.23187 0
M  V30 5317 C 500.508 2.10907 -1.02739 0
M  V30 5318 C 501.524 1.73979 0.0273188 0
M  V30 5319 O 502.7 2.00702 -0.16757 0
M  V30 5320 C 499.765 3.41142 -0.618304 0
M  V30 5321 C 498.826 3.92112 -1.74777 0
M  V30 5322 C 498.059 5.16131 -1.3581 0
M  V30 5323 O 498.282 5.6989 -0.241201 0
M  V30 5324 O 497.216 5.61103 -2.17824 0
M  V30 5325 H 501.042 2.31046 -1.97108 0
M  V30 5326 H 498.627 1.09284 -1.01869 0
M  V30 5327 H 500.509 4.19488 -0.400982 0
M  V30 5328 H 499.184 3.2234 0.296421 0
M  V30 5329 H 498.091 3.14895 -2.0197 0
M  V30 5330 H 499.424 4.15364 -2.64071 0
M  V30 5331 N 501.076 1.04316 1.18135 0
M  V30 5332 C 502.304 0.768117 1.92113 0
M  V30 5333 C 502.719 -0.675057 1.76319 0
M  V30 5334 O 502.076 -1.46038 1.09449 0
M  V30 5335 C 502.127 1.12808 3.43448 0
M  V30 5336 O 501.848 2.5146 3.58747 0
M  V30 5337 C 503.349 0.8779 4.3452 0
M  V30 5338 H 500.569 0.279937 0.609817 0
M  V30 5339 H 503.113 1.39149 1.49859 0
M  V30 5340 H 501.268 0.549623 3.83481 0
M  V30 5341 H 501.682 2.65313 4.52448 0
M  V30 5342 H 503.156 1.17959 5.39249 0
M  V30 5343 H 503.633 -0.187239 4.38801 0
M  V30 5344 H 504.239 1.43977 4.00188 0
M  V30 5345 N 502.554 -1.34406 0.822964 0
M  V30 5346 C 503.464 -2.33298 0.246838 0
M  V30 5347 C 504.48 -1.62625 -0.618797 0
M  V30 5348 O 505.656 -1.94391 -0.526685 0
M  V30 5349 C 502.721 -3.41785 -0.581731 0
M  V30 5350 C 501.782 -4.28206 0.306309 0
M  V30 5351 C 501.015 -5.31512 -0.48281 0
M  V30 5352 O 501.238 -5.43973 -1.71607 0
M  V30 5353 O 500.172 -6.01749 0.134884 0
M  V30 5354 H 503.998 -2.84401 1.06534 0
M  V30 5355 H 501.583 -1.37466 0.585108 0
M  V30 5356 H 503.465 -4.08028 -1.05313 0
M  V30 5357 H 502.14 -2.92925 -1.37756 0
M  V30 5358 H 501.047 -3.64885 0.825199 0
M  V30 5359 H 502.38 -4.80507 1.06649 0
M  V30 5360 N 504.032 -0.577932 -1.46621 0
M  V30 5361 C 504.995 0.147805 -2.28723 0
M  V30 5362 C 505.995 0.823325 -1.38123 0
M  V30 5363 O 507.185 0.676011 -1.60548 0
M  V30 5364 C 504.317 1.21853 -3.18378 0
M  V30 5365 H 505.51 -0.573654 -2.94362 0
M  V30 5366 H 503.063 -0.335703 -1.52652 0
M  V30 5367 H 503.798 1.97173 -2.57475 0
M  V30 5368 H 503.583 0.738714 -3.85078 0
M  V30 5369 H 505.073 1.72768 -3.80186 0
M  V30 5370 N 505.51 1.54411 -0.315457 0
M  V30 5371 C 506.787 1.92562 0.343398 0
M  V30 5372 C 507.167 1.24423 1.70535 0
M  V30 5373 O 506.515 0.385051 2.25232 0
M  V30 5374 C 506.725 3.46168 0.443687 0
M  V30 5375 C 508.073 4.18659 0.707783 0
M  V30 5376 O 509.097 3.52281 0.52693 0
M  V30 5377 O 507.956 5.36198 1.05612 0
M  V30 5378 H 505.05 0.80379 0.194552 0
M  V30 5379 H 507.596 1.65738 -0.364577 0
M  V30 5380 H 506.368 3.8792 -0.513172 0
M  V30 5381 H 505.991 3.79073 1.19956 0
M  V30 5382 N 506.988 0.0434614 1.5754 0
M  V30 5383 C 508.236 -0.630786 1.92004 0
M  V30 5384 C 508.557 -1.71836 0.921807 0
M  V30 5385 O 507.827 -1.9587 -0.034522 0
M  V30 5386 H 506.407 -0.235988 0.708745 0
M  V30 5387 H 509.069 0.0946462 1.9467 0
M  V30 5388 H 508.165 -1.07434 2.93026 0
M  V30 5389 N 508.466 -1.55915 -0.229846 0
M  V30 5390 C 509.413 -1.91734 -1.28478 0
M  V30 5391 C 510.383 -0.773539 -1.46988 0
M  V30 5392 O 511.568 -1.02871 -1.60693 0
M  V30 5393 C 508.708 -2.23224 -2.63182 0
M  V30 5394 C 507.821 -3.50497 -2.52539 0
M  V30 5395 C 506.956 -3.71474 -3.79711 0
M  V30 5396 C 505.995 -4.92289 -3.63755 0
M  V30 5397 N 505.132 -5.09698 -4.82858 0
M  V30 5398 H 509.972 -2.81692 -0.972308 0
M  V30 5399 H 507.509 -1.39429 -0.468815 0
M  V30 5400 H 509.467 -2.3949 -3.41614 0
M  V30 5401 H 508.097 -1.36451 -2.92542 0
M  V30 5402 H 507.149 -3.4247 -1.65585 0
M  V30 5403 H 508.461 -4.39079 -2.36666 0
M  V30 5404 H 507.615 -3.87791 -4.66586 0
M  V30 5405 H 506.354 -2.81157 -3.985 0
M  V30 5406 H 505.359 -4.7593 -2.75264 0
M  V30 5407 H 506.584 -5.84083 -3.46445 0
M  V30 5408 H 504.53 -4.22322 -5.01976 0
M  V30 5409 H 504.447 -5.92399 -4.69681 0
M  V30 5410 H 505.715 -5.30443 -5.71183 0
M  V30 5411 N 509.944 0.496216 -1.49584 0
M  V30 5412 C 511.193 1.24668 -1.58558 0
M  V30 5413 C 511.506 1.9359 -0.279703 0
M  V30 5414 O 512.712 2.70365 -0.248048 0
M  V30 5415 C 511.168 2.26388 -2.79779 0
M  V30 5416 C 510.776 1.63384 -4.17145 0
M  V30 5417 C 512.52 3.02233 -2.98086 0
M  V30 5418 C 510.427 2.63243 -5.29582 0
M  V30 5419 H 509.357 0.468995 -0.590389 0
M  V30 5420 H 512.008 0.519985 -1.75978 0
M  V30 5421 H 510.39 3.02241 -2.55863 0
M  V30 5422 H 511.564 0.93491 -4.51216 0
M  V30 5423 H 509.879 0.999121 -4.04236 0
M  V30 5424 H 512.476 3.76919 -3.79257 0
M  V30 5425 H 512.819 3.60132 -2.08831 0
M  V30 5426 H 513.352 2.33495 -3.22063 0
M  V30 5427 H 510.091 2.10119 -6.20911 0
M  V30 5428 H 509.611 3.31363 -4.99959 0
M  V30 5429 H 511.29 3.25575 -5.59115 0
M  V30 5430 N 511.423 1.38739 0.74761 0
M  V30 5431 C 512.651 1.38521 1.53686 0
M  V30 5432 C 513.066 -0.0235129 1.88785 0
M  V30 5433 O 512.423 -0.991662 1.53207 0
M  V30 5434 C 512.474 2.24641 2.83229 0
M  V30 5435 O 512.195 3.60026 2.49625 0
M  V30 5436 C 513.696 2.32669 3.77333 0
M  V30 5437 H 510.916 0.473589 0.475347 0
M  V30 5438 H 513.46 1.82395 0.924786 0
M  V30 5439 H 511.615 1.84213 3.40799 0
M  V30 5440 H 512.029 4.05435 3.3275 0
M  V30 5441 H 513.503 2.97201 4.65162 0
M  V30 5442 H 513.98 1.3421 4.18192 0
M  V30 5443 H 514.586 2.73512 3.25685 0
M  V30 5444 N 512.901 -0.976442 1.23707 0
M  V30 5445 C 514.312 -1.53284 1.06587 0
M  V30 5446 C 514.663 -1.92765 -0.365526 0
M  V30 5447 O 513.788 -1.7645 -1.25277 0
M  V30 5448 C 514.383 -2.78548 1.92864 0
M  V30 5449 C 512.942 -3.30574 1.79994 0
M  V30 5450 C 512.089 -2.03538 1.88328 0
M  V30 5451 H 515.04 -0.795692 1.37311 0
M  V30 5452 H 515.061 -3.5155 1.45577 0
M  V30 5453 H 514.573 -2.49782 2.97037 0
M  V30 5454 H 512.674 -3.64211 0.786202 0
M  V30 5455 H 512.787 -4.00065 2.636 0
M  V30 5456 H 511.151 -2.17853 1.31954 0
M  V30 5457 H 511.934 -1.77149 2.94063 0
M  V30 5458 N 514.379 -1.04941 -1.1758 0
M  V30 5459 C 515.625 -0.768896 -1.88307 0
M  V30 5460 C 515.98 0.696361 -1.79356 0
M  V30 5461 O 515.273 1.50245 -1.18899 0
M  V30 5462 C 515.467 -1.18062 -3.37337 0
M  V30 5463 C 515.296 -2.68436 -3.60794 0
M  V30 5464 C 514.066 -3.35709 -3.77661 0
M  V30 5465 C 516.264 -3.66657 -3.60649 0
M  V30 5466 N 514.246 -4.74974 -3.88939 0
M  V30 5467 C 515.617 -4.91638 -3.77747 0
M  V30 5468 C 517.672 -3.60162 -3.43785 0
M  V30 5469 C 516.375 -6.10902 -3.79726 0
M  V30 5470 C 518.401 -4.78863 -3.47051 0
M  V30 5471 C 517.763 -6.02666 -3.64654 0
M  V30 5472 H 513.862 -0.33355 -0.707296 0
M  V30 5473 H 516.446 -1.34085 -1.41171 0
M  V30 5474 H 514.617 -0.636648 -3.83147 0
M  V30 5475 H 516.349 -0.8502 -3.95669 0
M  V30 5476 H 513.104 -2.8611 -3.77409 0
M  V30 5477 H 513.528 -5.47378 -3.98379 0
M  V30 5478 H 518.17 -2.65412 -3.29114 0
M  V30 5479 H 515.888 -7.05998 -3.93182 0
M  V30 5480 H 519.474 -4.75488 -3.35265 0
M  V30 5481 H 518.354 -6.92979 -3.67083 0
M  V30 5482 N 515.857 1.33968 -0.830081 0
M  V30 5483 C 517.268 1.80439 -0.479455 0
M  V30 5484 C 517.619 1.68756 1.00079 0
M  V30 5485 O 516.744 1.23171 1.77927 0
M  V30 5486 C 517.339 3.27611 -0.863505 0
M  V30 5487 C 515.898 3.72133 -0.565145 0
M  V30 5488 C 515.045 2.55549 -1.07657 0
M  V30 5489 H 517.996 1.21614 -1.0196 0
M  V30 5490 H 518.017 3.8012 -0.170083 0
M  V30 5491 H 517.529 3.36082 -1.94089 0
M  V30 5492 H 515.63 3.69196 0.502536 0
M  V30 5493 H 515.743 4.65963 -1.11422 0
M  V30 5494 H 514.107 2.49788 -0.497807 0
M  V30 5495 H 514.89 2.66786 -2.16055 0
M  V30 5496 N 517.335 0.585699 1.46312 0
M  V30 5497 C 518.612 0.00542031 1.95599 0
M  V30 5498 C 518.992 -1.45619 1.52834 0
M  V30 5499 O 518.34 -2.14759 0.780446 0
M  V30 5500 C 518.55 0.180601 3.48532 0
M  V30 5501 C 519.898 0.049979 4.24571 0
M  V30 5502 O 520.922 0.109589 3.56031 0
M  V30 5503 O 519.781 -0.0832226 5.46437 0
M  V30 5504 H 516.875 -0.0481281 0.825598 0
M  V30 5505 H 519.421 0.654227 1.56582 0
M  V30 5506 H 518.193 1.19657 3.72556 0
M  V30 5507 H 517.816 -0.504498 3.94386 0
M  V30 5508 N 518.813 -1.54241 0.323641 0
M  V30 5509 C 520.038 -2.05452 -0.283605 0
M  V30 5510 C 520.463 -1.19823 -1.44997 0
M  V30 5511 O 519.821 -0.207358 -1.8011 0
M  V30 5512 C 519.869 -3.53823 -0.695795 0
M  V30 5513 O 518.973 -3.71134 -1.79815 0
M  V30 5514 H 518.314 -0.662024 -0.0511917 0
M  V30 5515 H 520.844 -1.99079 0.472073 0
M  V30 5516 H 520.854 -3.96094 -0.978434 0
M  V30 5517 H 519.529 -4.15602 0.157287 0
M  V30 5518 H 518.106 -3.40768 -1.51431 0
M  V30 5519 N 520.291 -0.0518155 -1.57515 0
M  V30 5520 C 521.707 0.304735 -1.56664 0
M  V30 5521 C 521.907 1.71395 -1.05953 0
M  V30 5522 O 520.963 2.42123 -0.716414 0
M  V30 5523 C 522.276 0.132614 -3.00407 0
M  V30 5524 C 523.824 0.20367 -3.12337 0
M  V30 5525 C 524.299 0.0600706 -4.57961 0
M  V30 5526 N 525.79 0.116326 -4.63054 0
M  V30 5527 C 526.525 0.0293363 -5.73392 0
M  V30 5528 N 526.021 -0.110038 -6.92713 0
M  V30 5529 N 527.814 0.0849651 -5.62036 0
M  V30 5530 H 519.965 -0.973056 -1.888 0
M  V30 5531 H 522.228 -0.377781 -0.869474 0
M  V30 5532 H 521.934 -0.839019 -3.41546 0
M  V30 5533 H 521.808 0.893376 -3.66468 0
M  V30 5534 H 524.195 1.16578 -2.71097 0
M  V30 5535 H 524.276 -0.587857 -2.48954 0
M  V30 5536 H 523.92 -0.898715 -4.99886 0
M  V30 5537 H 523.85 0.87075 -5.19351 0
M  V30 5538 H 526.341 0.22327 -3.7724 0
M  V30 5539 H 526.654 -0.169104 -7.72615 0
M  V30 5540 H 524.999 -0.145132 -6.94848 0
M  V30 5541 H 528.19 0.192411 -4.67704 0
M  V30 5542 H 528.363 0.0137131 -6.47999 0
M  V30 5543 N 521.769 1.56035 0.221574 0
M  V30 5544 C 523.046 1.69837 0.970301 0
M  V30 5545 C 523.426 0.599065 2.02421 0
M  V30 5546 O 522.774 -0.393929 2.25079 0
M  V30 5547 C 522.984 3.11148 1.58076 0
M  V30 5548 C 524.332 3.70555 2.07302 0
M  V30 5549 O 525.356 3.14109 1.6797 0
M  V30 5550 O 524.215 4.69562 2.79596 0
M  V30 5551 H 521.309 0.691727 0.453257 0
M  V30 5552 H 523.855 1.68353 0.213358 0
M  V30 5553 H 522.627 3.82617 0.819759 0
M  V30 5554 H 522.25 3.16749 2.40324 0
M  V30 5555 N 523.247 -0.488276 1.49845 0
M  V30 5556 C 524.177 -1.59675 1.70371 0
M  V30 5557 C 525.158 -1.60878 0.552473 0
M  V30 5558 O 526.343 -1.77417 0.78973 0
M  V30 5559 C 523.473 -2.98098 1.782 0
M  V30 5560 C 522.427 -3.11761 2.93239 0
M  V30 5561 C 521.753 -4.51661 2.86193 0
M  V30 5562 C 523.053 -2.90589 4.33999 0
M  V30 5563 H 524.747 -1.42752 2.63177 0
M  V30 5564 H 522.293 -0.685317 1.26647 0
M  V30 5565 H 524.246 -3.75555 1.91144 0
M  V30 5566 H 522.97 -3.16138 0.820018 0
M  V30 5567 H 521.629 -2.36732 2.79917 0
M  V30 5568 H 521.277 -4.66595 1.87877 0
M  V30 5569 H 520.977 -4.61742 3.63412 0
M  V30 5570 H 522.501 -5.31162 3.01163 0
M  V30 5571 H 523.915 -3.57807 4.47936 0
M  V30 5572 H 522.312 -3.1213 5.12538 0
M  V30 5573 H 523.382 -1.86595 4.4756 0
M  V30 5574 N 524.725 -1.39134 -0.740242 0
M  V30 5575 C 526.002 -1.26584 -1.49117 0
M  V30 5576 C 526.382 0.126902 -2.10718 0
M  V30 5577 O 525.73 1.13765 -1.98166 0
M  V30 5578 C 525.94 -2.38619 -2.54681 0
M  V30 5579 C 527.288 -2.77685 -3.21211 0
M  V30 5580 O 528.312 -2.38029 -2.64991 0
M  V30 5581 O 527.171 -3.46115 -4.22926 0
M  V30 5582 H 524.265 -0.495769 -0.661923 0
M  V30 5583 H 526.811 -1.50995 -0.774514 0
M  V30 5584 H 525.583 -3.3175 -2.07504 0
M  V30 5585 H 525.206 -2.15845 -3.33911 0
M  V30 5586 N 526.204 0.969867 -1.24223 0
M  V30 5587 C 527.134 2.08191 -1.05729 0
M  V30 5588 C 528.115 1.70075 0.0290765 0
M  V30 5589 O 529.3 1.93712 -0.137583 0
M  V30 5590 C 526.43 3.40991 -0.658995 0
M  V30 5591 C 525.384 3.93054 -1.69389 0
M  V30 5592 C 524.71 5.22171 -1.15072 0
M  V30 5593 C 526.01 4.21137 -3.08935 0
M  V30 5594 H 527.704 2.23921 -1.98746 0
M  V30 5595 H 525.25 1.07602 -0.956967 0
M  V30 5596 H 527.203 4.18221 -0.51662 0
M  V30 5597 H 525.927 3.25155 0.30686 0
M  V30 5598 H 524.586 3.17977 -1.82444 0
M  V30 5599 H 524.234 5.02694 -0.175539 0
M  V30 5600 H 523.934 5.57973 -1.84229 0
M  V30 5601 H 525.458 6.02013 -1.02042 0
M  V30 5602 H 526.872 4.8908 -2.99121 0
M  V30 5603 H 525.269 4.68163 -3.75425 0
M  V30 5604 H 526.339 3.27996 -3.57137 0
M  V30 5605 N 527.682 1.05563 1.17022 0
M  V30 5606 C 528.907 0.788437 1.91829 0
M  V30 5607 C 529.332 -0.650356 1.76499 0
M  V30 5608 O 528.69 -1.45229 1.08527 0
M  V30 5609 C 528.738 1.1786 3.40795 0
M  V30 5610 O 527.842 0.312965 4.11211 0
M  V30 5611 H 527.183 0.288794 0.597908 0
M  V30 5612 H 529.713 1.40948 1.48307 0
M  V30 5613 H 529.723 1.14697 3.91546 0
M  V30 5614 H 528.398 2.22666 3.51273 0
M  V30 5615 H 526.975 0.405515 3.70689 0
M  V30 5616 N 529.16 -1.33526 0.837174 0
M  V30 5617 C 530.437 -1.92369 0.354065 0
M  V30 5618 C 530.817 -1.76348 -1.16038 0
M  V30 5619 O 530.165 -1.15083 -1.97403 0
M  V30 5620 C 530.375 -3.39728 0.799101 0
M  V30 5621 C 531.723 -4.16877 0.806139 0
M  V30 5622 O 532.747 -3.48373 0.742597 0
M  V30 5623 O 531.606 -5.39166 0.892345 0
M  V30 5624 H 528.7 -0.820952 0.0998378 0
M  V30 5625 H 531.246 -1.42409 0.922913 0
M  V30 5626 H 530.018 -3.45254 1.84162 0
M  V30 5627 H 529.641 -3.97062 0.206731 0
M  V30 5628 N 530.638 -0.59345 -1.46 0
M  V30 5629 C 531.878 -0.0859747 -2.04219 0
M  V30 5630 C 532.242 1.25432 -1.45364 0
M  V30 5631 O 533.443 1.85168 -1.9485 0
M  V30 5632 C 531.714 -0.0324314 -3.57385 0
M  V30 5633 S 533.273 0.415908 -4.36824 0
M  V30 5634 H 530.091 -0.0426872 -0.709717 0
M  V30 5635 H 532.693 -0.788369 -1.78899 0
M  V30 5636 H 531.397 -1.01166 -3.97735 0
M  V30 5637 H 530.928 0.6924 -3.87259 0
M  V30 5638 H 532.943 1.66844 -4.67309 0
M  V30 5639 O 532.155 1.54388 -0.473979 0
M  V30 5640 H 532.846 1.93634 0.0506067 0
M  V30 END ATOM
M  V30 BEGIN BOND
M  V30 END BOND
M  V30 END CTAB
M  END
$$$$
