drugbank_target|P51698 Haloalkane dehalogenase (DB01701; DB02145; DB02302; DB02774; DB03335; DB03733; DB04320)
 OpenBabel12092119503D

  0  0  0     0  0            999 V3000
M  V30 BEGIN CTAB
M  V30 COUNTS 4610 4673 0 0 0
M  V30 BEGIN ATOM
M  V30 1 H -0.908 1.98254 -0.117106 0
M  V30 2 N 0 1.576 0 0
M  V30 3 C 0.933 2.03868 1.02534 0
M  V30 4 C 1.911 0.928543 1.3348 0
M  V30 5 O 3.095 1.19667 1.45644 0
M  V30 6 C 0.222 2.43627 2.35294 0
M  V30 7 C -0.732 3.65373 2.2001 0
M  V30 8 S 0.101 5.13292 1.52614 0
M  V30 9 C 1.257 5.56322 2.86805 0
M  V30 10 H 1.49 2.90518 0.631377 0
M  V30 11 H -0.977 1.52953 0.210867 0
M  V30 12 H 0.981 2.67203 3.11629 0
M  V30 13 H -0.358 1.57376 2.7183 0
M  V30 14 H -1.165 3.90944 3.18086 0
M  V30 15 H -1.563 3.418 1.51819 0
M  V30 16 H 0.729 5.58782 3.83104 0
M  V30 17 H 1.672 6.56266 2.65933 0
M  V30 18 H 2.08 4.83886 2.90714 0
M  V30 19 N 1.4781 -0.272755 1.55222 0
M  V30 20 C 2.7031 -1.02683 1.80197 0
M  V30 21 C 3.1281 -1.79142 0.573551 0
M  V30 22 O 2.4861 -1.74917 -0.476849 0
M  V30 23 C 2.5341 -1.9609 3.02624 0
M  V30 24 O 1.6381 -3.04863 2.77727 0
M  V30 25 H 0.9791 -0.293557 0.595584 0
M  V30 26 H 3.5091 -0.30159 2.02365 0
M  V30 27 H 3.5191 -2.38039 3.31363 0
M  V30 28 H 2.1941 -1.39851 3.91682 0
M  V30 29 H 0.7711 -2.67228 2.60084 0
M  V30 30 N 2.9562 -1.48159 -0.537278 0
M  V30 31 C 3.8862 -1.65029 -1.6519 0
M  V30 32 C 4.8672 -0.499281 -1.62607 0
M  V30 33 O 6.0522 -0.730972 -1.79918 0
M  V30 34 C 3.1822 -1.68303 -3.03795 0
M  V30 35 C 2.1362 -2.8283 -3.21234 0
M  V30 36 C 1.4622 -2.71189 -4.60826 0
M  V30 37 C 2.7622 -4.24211 -3.04701 0
M  V30 38 H 4.4562 -2.58341 -1.51328 0
M  V30 39 H 2.0022 -1.24325 -0.726585 0
M  V30 40 H 3.9552 -1.78693 -3.81637 0
M  V30 41 H 2.6792 -0.715635 -3.18663 0
M  V30 42 H 1.3382 -2.71983 -2.45807 0
M  V30 43 H 0.9862 -1.72435 -4.7252 0
M  V30 44 H 0.6862 -3.48035 -4.7344 0
M  V30 45 H 2.2102 -2.83537 -5.40777 0
M  V30 46 H 3.6242 -4.3593 -3.72341 0
M  V30 47 H 2.0212 -5.01998 -3.28813 0
M  V30 48 H 3.0912 -4.41184 -2.01209 0
M  V30 49 N 4.4343 0.785586 -1.36625 0
M  V30 50 C 5.6823 1.54057 -1.30808 0
M  V30 51 C 6.0033 1.94683 0.111157 0
M  V30 52 O 5.2733 1.65241 1.05224 0
M  V30 53 H 3.8533 0.571354 -0.481211 0
M  V30 54 H 6.5153 0.935821 -1.70963 0
M  V30 55 H 5.6113 2.44637 -1.93801 0
M  V30 56 N 5.9124 1.20967 1.01018 0
M  V30 57 C 6.8754 0.965918 2.07853 0
M  V30 58 C 7.8754 -0.0610545 1.60684 0
M  V30 59 O 9.0654 0.175681 1.73312 0
M  V30 60 C 6.1974 0.455513 3.37843 0
M  V30 61 H 7.3904 1.91365 2.3091 0
M  V30 62 H 4.9434 1.02594 1.17916 0
M  V30 63 H 5.6784 -0.497381 3.20463 0
M  V30 64 H 5.4634 1.19622 3.73407 0
M  V30 65 H 6.9534 0.304667 4.16487 0
M  V30 66 N 7.3905 -1.2043 1.01659 0
M  V30 67 C 8.3375 -2.23215 0.586822 0
M  V30 68 C 9.3075 -1.61382 -0.393085 0
M  V30 69 O 10.4925 -1.88544 -0.292525 0
M  V30 70 C 7.6325 -3.45032 -0.0687464 0
M  V30 71 C 6.7455 -4.21296 0.955724 0
M  V30 72 C 5.8805 -5.30507 0.271208 0
M  V30 73 C 4.9195 -5.98515 1.28244 0
M  V30 74 N 4.0565 -6.99316 0.62459 0
M  V30 75 H 8.8965 -2.59336 1.46796 0
M  V30 76 H 6.4335 -1.27431 0.734836 0
M  V30 77 H 8.3915 -4.1459 -0.465965 0
M  V30 78 H 7.0215 -3.09604 -0.913529 0
M  V30 79 H 6.0735 -3.50803 1.4711 0
M  V30 80 H 7.3855 -4.6803 1.72479 0
M  V30 81 H 6.5395 -6.06428 -0.18151 0
M  V30 82 H 5.2785 -4.8481 -0.530163 0
M  V30 83 H 4.2835 -5.21355 1.74554 0
M  V30 84 H 5.5085 -6.46298 2.08509 0
M  V30 85 H 3.4545 -6.55812 -0.156914 0
M  V30 86 H 3.3715 -7.44178 1.33172 0
M  V30 87 H 4.6395 -7.79255 0.195462 0
M  V30 88 N 8.8686 -0.792821 -1.36206 0
M  V30 89 C 10.2796 -0.429513 -1.81692 0
M  V30 90 C 10.6306 1.04695 -1.65932 0
M  V30 91 O 9.7556 1.81256 -1.18218 0
M  V30 92 C 10.3506 -0.772831 -3.29868 0
M  V30 93 C 8.9096 -0.462307 -3.7355 0
M  V30 94 C 8.0566 -1.00569 -2.5842 0
M  V30 95 H 11.0076 -0.985672 -1.24379 0
M  V30 96 H 11.0286 -0.0651928 -3.80444 0
M  V30 97 H 10.5406 -1.84747 -3.41307 0
M  V30 98 H 8.6416 0.604158 -3.67669 0
M  V30 99 H 8.7546 -0.985299 -4.68859 0
M  V30 100 H 7.1186 -0.428734 -2.51066 0
M  V30 101 H 7.9016 -2.08616 -2.72643 0
M  V30 102 N 10.3467 1.47872 -0.545128 0
M  V30 103 C 11.5937 2.02493 -0.0165858 0
M  V30 104 C 11.9217 1.42073 1.32836 0
M  V30 105 O 11.1767 0.561459 1.87473 0
M  V30 106 C 11.4757 3.57131 0.13867 0
M  V30 107 C 11.1417 4.36411 -1.13384 0
M  V30 108 C 9.8037 4.57792 -1.48256 0
M  V30 109 C 12.1557 4.82223 -1.97764 0
M  V30 110 C 9.4837 5.22233 -2.67376 0
M  V30 111 C 11.8357 5.47977 -3.16076 0
M  V30 112 C 10.4997 5.67593 -3.51275 0
M  V30 113 H 9.7697 0.740975 -0.00606918 0
M  V30 114 H 12.4167 1.77683 -0.714207 0
M  V30 115 H 10.7217 3.80865 0.919172 0
M  V30 116 H 12.4187 3.97031 0.562782 0
M  V30 117 H 9.0087 4.2004 -0.852297 0
M  V30 118 H 13.1927 4.65493 -1.72132 0
M  V30 119 H 8.4487 5.35616 -2.94831 0
M  V30 120 H 12.6227 5.8244 -3.81755 0
M  V30 121 H 10.2497 6.17298 -4.43675 0
M  V30 122 N 11.8248 0.280983 1.55075 0
M  V30 123 C 13.0728 -0.333455 1.9933 0
M  V30 124 C 13.3938 -1.55937 1.17085 0
M  V30 125 O 12.6638 -1.94143 0.261805 0
M  V30 126 H 11.2438 -0.126197 0.736263 0
M  V30 127 H 13.9058 0.387678 1.91005 0
M  V30 128 H 13.0018 -0.619292 3.05894 0
M  V30 129 N 13.3029 -1.57598 0.00835791 0
M  V30 130 C 14.2129 -2.12385 -0.996487 0
M  V30 131 C 15.2289 -1.07108 -1.37127 0
M  V30 132 O 16.4049 -1.39055 -1.4569 0
M  V30 133 C 13.4699 -2.62314 -2.26699 0
M  V30 134 C 12.5309 -3.82225 -1.95456 0
M  V30 135 C 11.7639 -4.29763 -3.16449 0
M  V30 136 O 11.9869 -3.76584 -4.28416 0
M  V30 137 O 10.9209 -5.21832 -2.99958 0
M  V30 138 H 14.7469 -2.98479 -0.560725 0
M  V30 139 H 12.3319 -1.47903 -0.210987 0
M  V30 140 H 14.2139 -2.94589 -3.01322 0
M  V30 141 H 12.8889 -1.79313 -2.69497 0
M  V30 142 H 11.7959 -3.54909 -1.18282 0
M  V30 143 H 13.1289 -4.66324 -1.57489 0
M  V30 144 N 14.781 0.264519 -1.55364 0
M  V30 145 C 15.728 1.32717 -1.88825 0
M  V30 146 C 16.698 1.48675 -0.740605 0
M  V30 147 O 17.883 1.62945 -0.992657 0
M  V30 148 C 15.023 2.68089 -2.17307 0
M  V30 149 C 14.136 2.60284 -3.44785 0
M  V30 150 C 13.271 3.87892 -3.62924 0
M  V30 151 C 12.31 3.74631 -4.84064 0
M  V30 152 N 11.447 4.94092 -4.98816 0
M  V30 153 H 16.287 1.03481 -2.79456 0
M  V30 154 H 13.824 0.499757 -1.3835 0
M  V30 155 H 15.782 3.46864 -2.31821 0
M  V30 156 H 14.412 2.95509 -1.299 0
M  V30 157 H 13.464 1.73173 -3.38697 0
M  V30 158 H 14.776 2.46388 -4.33698 0
M  V30 159 H 13.93 4.75109 -3.77302 0
M  V30 160 H 12.669 4.04664 -2.7221 0
M  V30 161 H 11.674 2.85797 -4.69681 0
M  V30 162 H 12.899 3.5937 -5.76221 0
M  V30 163 H 10.845 5.11259 -4.11036 0
M  V30 164 H 10.762 4.8276 -5.81789 0
M  V30 165 H 12.03 5.82857 -5.17588 0
M  V30 166 N 16.2591 1.48442 0.529413 0
M  V30 167 C 17.2061 1.63007 1.63394 0
M  V30 168 C 18.1761 0.47212 1.59249 0
M  V30 169 O 19.3611 0.695673 1.77666 0
M  V30 170 C 16.5011 1.6763 3.01653 0
M  V30 171 C 15.6141 2.94535 3.16027 0
M  V30 172 C 14.7491 2.90316 4.44849 0
M  V30 173 C 13.7881 4.11923 4.52754 0
M  V30 174 N 12.9251 4.05777 5.72965 0
M  V30 175 H 17.7651 2.5733 1.50285 0
M  V30 176 H 15.3021 1.27613 0.731656 0
M  V30 177 H 17.2601 1.68292 3.81751 0
M  V30 178 H 15.8901 0.76797 3.13532 0
M  V30 179 H 14.9421 3.03615 2.29177 0
M  V30 180 H 16.2541 3.84512 3.17729 0
M  V30 181 H 15.4081 2.89382 5.33238 0
M  V30 182 H 14.1471 1.98068 4.45668 0
M  V30 183 H 13.1521 4.13131 3.62771 0
M  V30 184 H 14.3771 5.0533 4.53672 0
M  V30 185 H 12.3231 3.16351 5.74681 0
M  V30 186 H 12.2401 4.8946 5.76164 0
M  V30 187 H 13.5081 4.08904 6.6364 0
M  V30 188 N 17.7372 -0.778329 1.37039 0
M  V30 189 C 18.9842 -1.53665 1.31884 0
M  V30 190 C 19.3122 -1.9425 -0.0986303 0
M  V30 191 O 18.5672 -1.63832 -1.07041 0
M  V30 192 C 18.8662 -2.81845 2.19768 0
M  V30 193 C 18.5322 -2.60345 3.68146 0
M  V30 194 C 17.1942 -2.5419 4.08584 0
M  V30 195 C 19.5462 -2.40923 4.62175 0
M  V30 196 C 16.8742 -2.26594 5.41177 0
M  V30 197 C 19.2262 -2.14852 5.94997 0
M  V30 198 C 17.8902 -2.07137 6.34547 0
M  V30 199 H 17.1602 -0.562299 0.482598 0
M  V30 200 H 19.8072 -0.897069 1.69189 0
M  V30 201 H 18.1122 -3.50328 1.75436 0
M  V30 202 H 19.8092 -3.39692 2.13097 0
M  V30 203 H 16.3992 -2.65996 3.36072 0
M  V30 204 H 20.5832 -2.44673 4.31797 0
M  V30 205 H 15.8392 -2.19111 5.70789 0
M  V30 206 H 20.0132 -1.98822 6.67415 0
M  V30 207 H 17.6402 -1.85518 7.37216 0
M  V30 208 N 19.2153 -1.21501 -1.00376 0
M  V30 209 C 20.4643 -1.02718 -1.73586 0
M  V30 210 C 20.7773 0.439589 -1.90596 0
M  V30 211 O 21.9833 0.746848 -2.61026 0
M  V30 212 C 20.4393 -1.78929 -3.1227 0
M  V30 213 C 20.0473 -3.29783 -3.03228 0
M  V30 214 C 21.7913 -1.68557 -3.89601 0
M  V30 215 C 19.6983 -3.98479 -4.36999 0
M  V30 216 H 18.6283 -0.380733 -0.650814 0
M  V30 217 H 21.2793 -1.45248 -1.1214 0
M  V30 218 H 19.6613 -1.29192 -3.74333 0
M  V30 219 H 20.8353 -3.86832 -2.50395 0
M  V30 220 H 19.1503 -3.40711 -2.39385 0
M  V30 221 H 21.7473 -2.17211 -4.88593 0
M  V30 222 H 22.0903 -0.644021 -4.11288 0
M  V30 223 H 22.6233 -2.15778 -3.34193 0
M  V30 224 H 19.3623 -5.02841 -4.20513 0
M  V30 225 H 18.8823 -3.46219 -4.89788 0
M  V30 226 H 20.5613 -4.03462 -5.05794 0
M  V30 227 N 20.6934 1.19889 -1.02296 0
M  V30 228 C 21.6034 2.26571 -0.608508 0
M  V30 229 C 22.6194 1.70299 0.356964 0
M  V30 230 O 23.7954 2.00235 0.216326 0
M  V30 231 C 20.8604 3.46677 0.0402814 0
M  V30 232 C 19.9214 4.18153 -0.97194 0
M  V30 233 C 19.1544 5.32525 -0.354016 0
M  V30 234 O 19.3774 5.64112 0.844604 0
M  V30 235 O 18.3114 5.92242 -1.07391 0
M  V30 236 H 22.1374 2.64251 -1.49684 0
M  V30 237 H 19.7224 1.26629 -0.792809 0
M  V30 238 H 21.6044 4.19475 0.402324 0
M  V30 239 H 20.2794 3.10858 0.902707 0
M  V30 240 H 19.1864 3.47499 -1.38546 0
M  V30 241 H 20.5194 4.57927 -1.80454 0
M  V30 242 N 22.1715 0.800033 1.35784 0
M  V30 243 C 23.4205 0.37387 1.98205 0
M  V30 244 C 23.7335 -1.06302 1.64193 0
M  V30 245 O 24.9395 -1.59198 2.19928 0
M  V30 246 C 23.3955 0.617532 3.54562 0
M  V30 247 C 23.0035 2.06654 3.9749 0
M  V30 248 C 24.7475 0.256401 4.23725 0
M  V30 249 C 22.6545 2.2563 5.46667 0
M  V30 250 H 21.5845 0.136055 0.741623 0
M  V30 251 H 24.2355 0.983166 1.54939 0
M  V30 252 H 22.6175 -0.0616248 3.95952 0
M  V30 253 H 23.7915 2.78296 3.67271 0
M  V30 254 H 22.1065 2.38691 3.41197 0
M  V30 255 H 24.7035 0.376318 5.33374 0
M  V30 256 H 25.0465 -0.796692 4.08606 0
M  V30 257 H 25.5795 0.889214 3.87734 0
M  V30 258 H 22.3185 3.2936 5.66747 0
M  V30 259 H 21.8385 1.58504 5.78478 0
M  V30 260 H 23.5175 2.06861 6.1304 0
M  V30 261 N 23.6496 -1.47581 0.552962 0
M  V30 262 C 24.5966 -2.29957 -0.197108 0
M  V30 263 C 25.5666 -1.38799 -0.912359 0
M  V30 264 O 26.7516 -1.67761 -0.908888 0
M  V30 265 C 23.8916 -3.22672 -1.22379 0
M  V30 266 C 23.0046 -4.28919 -0.515038 0
M  V30 267 C 22.1396 -5.0879 -1.52664 0
M  V30 268 C 21.1786 -6.06815 -0.802631 0
M  V30 269 N 20.3156 -6.7966 -1.76086 0
M  V30 270 H 25.1556 -2.93578 0.511486 0
M  V30 271 H 22.6926 -1.4471 0.264067 0
M  V30 272 H 24.6506 -3.74845 -1.83159 0
M  V30 273 H 23.2806 -2.60925 -1.90047 0
M  V30 274 H 22.3326 -3.79835 0.207192 0
M  V30 275 H 23.6446 -4.98773 0.0523425 0
M  V30 276 H 22.7986 -5.65091 -2.20809 0
M  V30 277 H 21.5376 -4.38828 -2.12794 0
M  V30 278 H 20.5426 -5.49695 -0.107238 0
M  V30 279 H 21.7676 -6.78784 -0.207135 0
M  V30 280 H 19.7136 -6.12432 -2.35081 0
M  V30 281 H 19.6306 -7.45669 -1.24552 0
M  V30 282 H 20.8986 -7.40538 -2.43359 0
M  V30 283 N 25.1277 -0.289203 -1.54924 0
M  V30 284 C 26.3757 0.322879 -1.99504 0
M  V30 285 C 26.6967 1.55313 -1.1791 0
M  V30 286 O 25.9667 1.94001 -0.272097 0
M  V30 287 H 24.5467 0.122291 -0.736922 0
M  V30 288 H 27.2087 -0.397802 -1.90797 0
M  V30 289 H 26.3047 0.603061 -3.06218 0
M  V30 290 N 26.6058 1.57591 -0.0167156 0
M  V30 291 C 28.0218 1.55946 0.339557 0
M  V30 292 C 28.2218 1.02109 1.73713 0
M  V30 293 O 27.2778 0.662303 2.43659 0
M  V30 294 C 28.5908 3.00037 0.199499 0
M  V30 295 C 30.1388 3.11805 0.273193 0
M  V30 296 C 30.6138 4.57713 0.162068 0
M  V30 297 N 32.1048 4.6268 0.219444 0
M  V30 298 C 32.8398 5.73185 0.157054 0
M  V30 299 N 32.3358 6.92786 0.0442936 0
M  V30 300 N 34.1288 5.61707 0.21014 0
M  V30 301 H 26.2798 1.90921 -0.930758 0
M  V30 302 H 28.5428 0.877674 -0.358319 0
M  V30 303 H 28.2488 3.4333 -0.76273 0
M  V30 304 H 28.1228 3.64387 0.974786 0
M  V30 305 H 30.5098 2.68433 1.22587 0
M  V30 306 H 30.5908 2.50201 -0.532256 0
M  V30 307 H 30.2348 5.01763 -0.78714 0
M  V30 308 H 30.1648 5.17283 0.986222 0
M  V30 309 H 32.6558 3.76649 0.307246 0
M  V30 310 H 32.9688 7.728 0.00304069 0
M  V30 311 H 31.3138 6.94999 0.00968457 0
M  V30 312 H 34.5048 4.6716 0.296546 0
M  V30 313 H 34.6778 6.47807 0.158054 0
M  V30 314 N 28.0839 -0.256276 1.55502 0
M  V30 315 C 29.4999 -0.604325 1.47716 0
M  V30 316 C 29.6999 -1.88763 0.705039 0
M  V30 317 O 28.7559 -2.51445 0.230613 0
M  V30 318 C 30.0689 -0.715756 2.92057 0
M  V30 319 C 31.6169 -0.808706 3.02372 0
M  V30 320 C 32.0919 -0.951777 4.48001 0
M  V30 321 N 33.5829 -1.01688 4.519 0
M  V30 322 C 34.3179 -1.14668 5.61817 0
M  V30 323 N 33.8139 -1.24261 6.81565 0
M  V30 324 N 35.6069 -1.1791 5.49594 0
M  V30 325 H 27.7579 0.586291 2.04148 0
M  V30 326 H 30.0209 0.201015 0.926443 0
M  V30 327 H 29.7269 0.157027 3.51349 0
M  V30 328 H 29.6009 -1.59071 3.42018 0
M  V30 329 H 31.9879 -1.67195 2.43166 0
M  V30 330 H 32.0689 0.0912063 2.55637 0
M  V30 331 H 31.7129 -0.0931291 5.07815 0
M  V30 332 H 31.6429 -1.86659 4.92408 0
M  V30 333 H 34.1339 -0.954468 3.65648 0
M  V30 334 H 34.4469 -1.34046 7.61086 0
M  V30 335 H 32.7919 -1.21236 6.84344 0
M  V30 336 H 35.9829 -1.10057 4.54978 0
M  V30 337 H 36.1559 -1.27681 6.35296 0
M  V30 338 N 29.562 -1.4872 -0.521534 0
M  V30 339 C 30.495 -1.58451 -1.64221 0
M  V30 340 C 31.473 -0.434513 -1.56687 0
M  V30 341 O 32.657 -0.647275 -1.77038 0
M  V30 342 C 29.784 -1.52037 -3.02659 0
M  V30 343 C 28.83 -2.71981 -3.28525 0
M  V30 344 S 29.663 -4.33869 -3.13876 0
M  V30 345 C 30.819 -4.30067 -4.54745 0
M  V30 346 H 31.052 -2.53256 -1.55719 0
M  V30 347 H 28.585 -1.37358 -0.705143 0
M  V30 348 H 30.543 -1.49023 -3.82495 0
M  V30 349 H 29.204 -0.585541 -3.08594 0
M  V30 350 H 28.397 -2.63656 -4.29536 0
M  V30 351 H 27.999 -2.72302 -2.56374 0
M  V30 352 H 30.291 -4.00521 -5.46433 0
M  V30 353 H 31.234 -5.31287 -4.68123 0
M  V30 354 H 31.642 -3.60419 -4.34463 0
M  V30 355 N 31.0401 0.771051 -1.3745 0
M  V30 356 C 32.0031 1.86598 -1.33093 0
M  V30 357 C 33.0031 1.59076 -0.234845 0
M  V30 358 O 34.1931 1.67145 -0.490732 0
M  V30 359 C 31.3251 3.23747 -1.06773 0
M  V30 360 H 32.5181 1.91873 -2.30488 0
M  V30 361 H 30.0711 0.970876 -1.2249 0
M  V30 362 H 30.8061 3.24148 -0.099129 0
M  V30 363 H 30.5911 3.45115 -1.86112 0
M  V30 364 H 32.0811 4.03824 -1.06377 0
M  V30 365 N 32.5182 1.22032 0.997298 0
M  V30 366 C 33.7482 1.06686 1.76923 0
M  V30 367 C 34.1562 -0.385838 1.85224 0
M  V30 368 O 33.4992 -1.27929 1.31833 0
M  V30 369 C 33.5612 1.59802 3.22031 0
M  V30 370 C 33.2252 3.08362 3.37286 0
M  V30 371 C 34.2222 4.05835 3.24952 0
M  V30 372 C 31.9072 3.47727 3.6248 0
M  V30 373 C 33.9012 5.4066 3.37588 0
M  V30 374 C 31.5882 4.82701 3.74757 0
M  V30 375 C 32.5862 5.78977 3.62319 0
M  V30 376 O 32.2742 7.11502 3.74193 0
M  V30 377 H 32.0062 0.374767 0.562606 0
M  V30 378 H 34.5602 1.61991 1.26286 0
M  V30 379 H 32.7902 0.989003 3.73839 0
M  V30 380 H 34.4792 1.40184 3.80924 0
M  V30 381 H 35.2452 3.76766 3.05405 0
M  V30 382 H 31.1242 2.73317 3.7124 0
M  V30 383 H 34.6682 6.15788 3.27796 0
M  V30 384 H 30.5652 5.11453 3.9381 0
M  V30 385 H 31.3332 7.19019 3.91093 0
M  V30 386 N 33.9963 -1.19345 1.0293 0
M  V30 387 C 35.2453 -1.88363 0.721256 0
M  V30 388 C 35.5583 -1.80514 -0.753254 0
M  V30 389 O 36.7643 -2.44788 -1.17436 0
M  V30 390 C 35.2203 -3.37872 1.23978 0
M  V30 391 C 34.8283 -3.54278 2.74211 0
M  V30 392 C 36.5723 -4.12365 1.00775 0
M  V30 393 C 34.4793 -4.97682 3.19479 0
M  V30 394 H 33.4093 -0.705484 0.266098 0
M  V30 395 H 36.0603 -1.34928 1.24365 0
M  V30 396 H 34.4423 -3.90707 0.6453 0
M  V30 397 H 35.6163 -3.11769 3.39318 0
M  V30 398 H 33.9313 -2.93174 2.95699 0
M  V30 399 H 36.5283 -5.18119 1.32123 0
M  V30 400 H 36.8713 -4.16263 -0.0554308 0
M  V30 401 H 37.4043 -3.65668 1.56625 0
M  V30 402 H 34.1433 -4.98945 4.25128 0
M  V30 403 H 33.6633 -5.4095 2.591 0
M  V30 404 H 35.3423 -5.66337 3.12845 0
M  V30 405 N 35.4744 -0.807222 -1.35358 0
M  V30 406 C 36.7514 -0.311126 -1.9311 0
M  V30 407 C 37.1314 1.19937 -1.73719 0
M  V30 408 O 36.4794 1.99918 -1.10657 0
M  V30 409 C 36.6894 -0.723226 -3.41424 0
M  V30 410 C 38.0374 -0.713078 -4.18569 0
M  V30 411 O 39.0614 -0.664811 -3.49941 0
M  V30 412 O 37.9204 -0.772022 -5.41019 0
M  V30 413 H 35.0144 -0.081526 -0.822972 0
M  V30 414 H 37.5604 -0.890962 -1.4443 0
M  V30 415 H 36.3324 -1.76426 -3.4927 0
M  V30 416 H 35.9554 -0.118232 -3.97424 0
M  V30 417 N 36.9525 1.47285 -0.560781 0
M  V30 418 C 37.8625 2.33846 0.187954 0
M  V30 419 C 38.8785 1.48412 0.908293 0
M  V30 420 O 40.0545 1.81332 0.876388 0
M  V30 421 C 37.1195 3.25178 1.2025 0
M  V30 422 C 36.1805 4.26504 0.489208 0
M  V30 423 C 35.4135 5.13472 1.45542 0
M  V30 424 O 35.6365 5.02959 2.6905 0
M  V30 425 O 34.5705 5.93902 0.977963 0
M  V30 426 H 38.3965 2.99177 -0.522177 0
M  V30 427 H 35.9815 1.45903 -0.321364 0
M  V30 428 H 37.8635 3.81584 1.78805 0
M  V30 429 H 36.5385 2.6247 1.89449 0
M  V30 430 H 35.4455 3.73847 -0.137627 0
M  V30 431 H 36.7785 4.91935 -0.161399 0
M  V30 432 N 38.4306 0.297415 1.54768 0
M  V30 433 C 39.6786 -0.312295 1.99673 0
M  V30 434 C 39.9996 -1.54686 1.18732 0
M  V30 435 O 39.2696 -1.93854 0.282382 0
M  V30 436 H 37.8496 -0.118381 0.73756 0
M  V30 437 H 40.5116 0.407915 1.90583 0
M  V30 438 H 39.6076 -0.586813 3.06534 0
M  V30 439 N 39.9087 -1.5758 0.0250728 0
M  V30 440 C 41.1367 -1.9593 -0.664747 0
M  V30 441 C 41.5517 -0.901352 -1.65895 0
M  V30 442 O 40.9087 0.117255 -1.82123 0
M  V30 443 C 40.9597 -3.34342 -1.37468 0
M  V30 444 O 40.6807 -4.36079 -0.420324 0
M  V30 445 C 42.1817 -3.873 -2.1567 0
M  V30 446 H 39.4017 -0.645405 -0.183557 0
M  V30 447 H 41.9457 -2.04329 0.0836372 0
M  V30 448 H 40.1007 -3.27175 -2.0745 0
M  V30 449 H 40.5147 -5.16297 -0.923991 0
M  V30 450 H 41.9887 -4.86504 -2.60803 0
M  V30 451 H 42.4657 -3.21331 -2.99405 0
M  V30 452 H 43.0717 -3.97723 -1.50654 0
M  V30 453 N 41.3868 0.248026 -1.55636 0
M  V30 454 C 42.6348 0.974295 -1.77065 0
M  V30 455 C 42.9558 1.85897 -0.588849 0
M  V30 456 O 42.2258 1.91868 0.395407 0
M  V30 457 H 40.8058 0.362733 -0.653019 0
M  V30 458 H 43.4678 0.266244 -1.93073 0
M  V30 459 H 42.5638 1.59667 -2.68166 0
M  V30 460 N 42.8649 1.48995 0.513639 0
M  V30 461 C 44.1419 1.48338 1.27495 0
M  V30 462 C 44.5219 0.204065 2.10111 0
M  V30 463 O 43.8699 -0.813881 2.13514 0
M  V30 464 C 44.0799 2.75498 2.14247 0
M  V30 465 C 45.4279 3.24484 2.73852 0
M  V30 466 O 46.4519 2.76528 2.24523 0
M  V30 467 O 45.3109 4.07974 3.6362 0
M  V30 468 H 42.4049 0.593149 0.576284 0
M  V30 469 H 44.9509 1.61246 0.528948 0
M  V30 470 H 43.7229 3.60109 1.53092 0
M  V30 471 H 43.3459 2.6539 2.96064 0
M  V30 472 N 44.343 -0.763751 1.37857 0
M  V30 473 C 45.754 -1.3405 1.29952 0
M  V30 474 C 46.105 -1.96138 -0.0492898 0
M  V30 475 O 45.23 -1.94372 -0.951239 0
M  V30 476 C 45.825 -2.43729 2.35333 0
M  V30 477 C 44.384 -2.97151 2.31037 0
M  V30 478 C 43.531 -1.70438 2.18738 0
M  V30 479 H 46.482 -0.563396 1.48363 0
M  V30 480 H 46.503 -3.23412 2.00462 0
M  V30 481 H 46.015 -1.9851 3.33489 0
M  V30 482 H 44.116 -3.46724 1.3643 0
M  V30 483 H 44.229 -3.52221 3.24772 0
M  V30 484 H 42.593 -1.93673 1.65418 0
M  V30 485 H 43.376 -1.27312 3.18821 0
M  V30 486 N 45.8211 -1.22559 -0.990812 0
M  V30 487 C 47.0701 -1.04553 -1.72486 0
M  V30 488 C 47.3831 0.419349 -1.91052 0
M  V30 489 O 48.5891 0.719121 -2.61803 0
M  V30 490 C 47.0451 -1.82231 -3.10355 0
M  V30 491 C 46.6531 -3.32981 -2.99713 0
M  V30 492 C 48.3971 -1.7268 -3.87791 0
M  V30 493 C 46.3041 -4.03091 -4.32748 0
M  V30 494 H 45.2341 -0.387614 -0.646739 0
M  V30 495 H 47.8851 -1.46429 -1.10593 0
M  V30 496 H 46.2671 -1.33155 -3.72942 0
M  V30 497 H 47.4411 -3.89466 -2.46278 0
M  V30 498 H 45.7561 -3.43231 -2.35758 0
M  V30 499 H 48.3531 -2.22381 -4.86262 0
M  V30 500 H 48.6961 -0.687607 -4.10582 0
M  V30 501 H 49.2291 -2.1931 -3.31885 0
M  V30 502 H 45.9681 -5.07273 -4.15156 0
M  V30 503 H 45.4881 -3.51394 -4.86089 0
M  V30 504 H 47.1671 -4.08804 -5.01486 0
M  V30 505 N 47.2992 1.18797 -1.03562 0
M  V30 506 C 48.2292 2.24472 -0.643019 0
M  V30 507 C 49.2102 1.66433 0.351283 0
M  V30 508 O 50.3952 1.92803 0.232505 0
M  V30 509 C 47.5252 3.473 4.24935e-05 0
M  V30 510 C 46.4792 4.18055 -0.917257 0
M  V30 511 C 45.8052 5.34519 -0.138941 0
M  V30 512 C 47.1052 4.72109 -2.23407 0
M  V30 513 H 48.7992 2.57566 -1.52643 0
M  V30 514 H 46.3452 1.23806 -0.735394 0
M  V30 515 H 48.2982 4.20426 0.286383 0
M  V30 516 H 47.0222 3.13424 0.918299 0
M  V30 517 H 45.6812 3.46821 -1.1879 0
M  V30 518 H 45.3292 4.96891 0.781562 0
M  V30 519 H 45.0292 5.82794 -0.750005 0
M  V30 520 H 46.5532 6.10438 0.1405 0
M  V30 521 H 47.9672 5.36955 -2.00879 0
M  V30 522 H 46.3642 5.30897 -2.79765 0
M  V30 523 H 47.4342 3.89807 -2.88407 0
M  V30 524 N 48.7773 0.814389 1.34928 0
M  V30 525 C 50.0243 0.398423 1.98542 0
M  V30 526 C 50.3523 -1.03638 1.64589 0
M  V30 527 O 49.6073 -1.73509 0.90516 0
M  V30 528 C 49.9063 0.537781 3.53331 0
M  V30 529 C 49.5723 1.93704 4.07172 0
M  V30 530 C 48.2343 2.31984 4.21589 0
M  V30 531 C 50.5863 2.85213 4.36237 0
M  V30 532 C 47.9143 3.61125 4.62391 0
M  V30 533 C 50.2663 4.13809 4.78482 0
M  V30 534 C 48.9303 4.52077 4.91104 0
M  V30 535 H 48.2003 0.145793 0.726516 0
M  V30 536 H 50.8473 1.03669 1.61012 0
M  V30 537 H 49.1523 -0.183906 3.91368 0
M  V30 538 H 50.8493 0.196588 4.00518 0
M  V30 539 H 47.4393 1.62966 3.96409 0
M  V30 540 H 51.6233 2.56885 4.24645 0
M  V30 541 H 46.8793 3.90612 4.70353 0
M  V30 542 H 51.0533 4.84811 4.99932 0
M  V30 543 H 48.6803 5.52196 5.22478 0
M  V30 544 N 50.2554 -1.46986 0.568584 0
M  V30 545 C 51.1874 -2.28233 -0.210337 0
M  V30 546 C 52.2004 -1.37682 -0.868767 0
M  V30 547 O 53.3894 -1.62406 -0.740705 0
M  V30 548 C 50.4894 -3.12293 -1.3163 0
M  V30 549 C 49.6624 -4.30878 -0.7525 0
M  V30 550 C 48.7214 -4.96445 -1.74439 0
M  V30 551 O 47.7474 -5.54482 -1.286 0
M  V30 552 N 48.9494 -4.92171 -3.07812 0
M  V30 553 H 51.7144 -2.95723 0.486648 0
M  V30 554 H 49.2754 -1.56742 0.405409 0
M  V30 555 H 51.2674 -3.53022 -1.97883 0
M  V30 556 H 49.8374 -2.46971 -1.91636 0
M  V30 557 H 49.0574 -3.94104 0.0871128 0
M  V30 558 H 50.3454 -5.07558 -0.35536 0
M  V30 559 H 49.7434 -4.46239 -3.47688 0
M  V30 560 H 48.3004 -5.36884 -3.69592 0
M  V30 561 N 51.7335 -0.305618 -1.54608 0
M  V30 562 C 52.6835 0.583595 -2.20405 0
M  V30 563 C 53.6675 1.09539 -1.17856 0
M  V30 564 O 54.8595 1.0354 -1.43557 0
M  V30 565 C 51.9885 1.75277 -2.95183 0
M  V30 566 C 51.0745 1.25672 -4.05052 0
M  V30 567 N 51.4655 0.478998 -5.03527 0
M  V30 568 C 49.7635 1.53704 -4.18678 0
M  V30 569 C 50.4645 0.214269 -5.81305 0
M  V30 570 N 49.4405 0.795374 -5.3775 0
M  V30 571 H 53.2425 -0.0180946 -2.93894 0
M  V30 572 H 50.7565 -0.110601 -1.62023 0
M  V30 573 H 52.7535 2.4014 -3.40791 0
M  V30 574 H 51.4135 2.35812 -2.23211 0
M  V30 575 H 52.4245 0.123473 -5.17753 0
M  V30 576 H 49.1015 2.14954 -3.57912 0
M  V30 577 H 50.4915 -0.410656 -6.70644 0
M  V30 578 N 53.2116 1.57565 -0.0334293 0
M  V30 579 C 54.4596 1.91598 0.642999 0
M  V30 580 C 54.7806 0.910847 1.7242 0
M  V30 581 O 54.0506 -0.0469931 1.95844 0
M  V30 582 H 52.6306 0.707228 0.240496 0
M  V30 583 H 55.2926 1.94726 -0.0822488 0
M  V30 584 H 54.3886 2.92336 1.09298 0
M  V30 585 N 54.6897 -0.239769 1.55765 0
M  V30 586 C 55.6377 -1.31668 1.91745 0
M  V30 587 C 56.6317 -1.49462 0.797338 0
M  V30 588 O 57.8377 -1.50852 0.982021 0
M  V30 589 H 54.2127 -0.441048 0.609082 0
M  V30 590 H 56.1837 -0.985923 2.81642 0
M  V30 591 C 54.9327 -2.66368 2.2348 0
M  V30 592 H 54.2557 -2.53478 3.09175 0
M  V30 593 H 55.6957 -3.40578 2.52553 0
M  V30 594 C 54.1547 -3.20002 1.05359 0
M  V30 595 O 54.6847 -4.00538 0.305261 0
M  V30 596 N 52.8907 -2.78126 0.842292 0
M  V30 597 H 52.4377 -2.12742 1.45253 0
M  V30 598 H 52.3957 -3.14354 0.053652 0
M  V30 599 N 56.1678 -1.49265 -0.50573 0
M  V30 600 C 57.5788 -1.51769 -1.08734 0
M  V30 601 C 57.9298 -0.301192 -1.93874 0
M  V30 602 O 57.0548 0.589456 -2.08217 0
M  V30 603 C 57.6498 -2.75017 -1.97867 0
M  V30 604 C 56.2088 -2.80314 -2.51199 0
M  V30 605 C 55.3558 -2.4562 -1.28709 0
M  V30 606 H 58.3068 -1.56031 -0.289855 0
M  V30 607 H 58.3278 -2.5491 -2.82491 0
M  V30 608 H 57.8398 -3.63539 -1.35873 0
M  V30 609 H 55.9408 -1.96061 -3.16845 0
M  V30 610 H 56.0538 -3.82366 -2.88675 0
M  V30 611 H 54.4178 -1.97297 -1.61078 0
M  V30 612 H 55.2008 -3.36411 -0.6843 0
M  V30 613 N 57.6459 0.756429 -1.3826 0
M  V30 614 C 58.8739 1.54565 -1.3754 0
M  V30 615 C 59.2889 1.88767 0.0355331 0
M  V30 616 O 58.6459 1.52572 1.0014 0
M  V30 617 C 58.6969 2.84654 -2.22833 0
M  V30 618 O 58.4179 2.51912 -3.5843 0
M  V30 619 C 59.9189 3.78807 -2.30261 0
M  V30 620 H 57.1389 0.478353 -0.470553 0
M  V30 621 H 59.6829 0.936381 -1.81803 0
M  V30 622 H 57.8379 3.41965 -1.8204 0
M  V30 623 H 58.2519 3.35325 -4.03308 0
M  V30 624 H 59.7259 4.67045 -2.94233 0
M  V30 625 H 60.2029 4.19038 -1.31545 0
M  V30 626 H 60.8089 3.2742 -2.71433 0
M  V30 627 N 59.124 1.23083 0.984299 0
M  V30 628 C 60.349 1.088 1.76571 0
M  V30 629 C 60.774 -0.356657 1.84688 0
M  V30 630 O 60.132 -1.25788 1.30565 0
M  V30 631 C 60.18 1.71371 3.17277 0
M  V30 632 O 59.284 0.973213 4.00752 0
M  V30 633 H 58.625 0.381599 0.543395 0
M  V30 634 H 61.155 1.63057 1.23587 0
M  V30 635 H 61.165 1.76449 3.67872 0
M  V30 636 H 59.84 2.76493 3.10684 0
M  V30 637 H 58.417 0.999078 3.59267 0
M  V30 638 N 60.6021 -1.18246 1.0419 0
M  V30 639 C 61.8271 -1.92736 0.765996 0
M  V30 640 C 62.2521 -1.75728 -0.67091 0
M  V30 641 O 61.6101 -1.06825 -1.46486 0
M  V30 642 C 61.6581 -3.42148 1.13875 0
M  V30 643 O 60.7621 -4.11548 0.264954 0
M  V30 644 H 60.1031 -0.601238 0.281797 0
M  V30 645 H 62.6331 -1.49942 1.39207 0
M  V30 646 H 62.6431 -3.92858 1.1012 0
M  V30 647 H 61.3181 -3.53848 2.18551 0
M  V30 648 H 59.8951 -3.71137 0.362226 0
M  V30 649 N 62.0802 -0.821533 -1.34494 0
M  V30 650 C 63.3102 -0.421272 -2.02259 0
M  V30 651 C 63.7182 0.977047 -1.6202 0
M  V30 652 O 63.0612 1.64348 -0.820703 0
M  V30 653 C 63.1232 -0.44231 -3.56769 0
M  V30 654 C 62.7872 -1.79372 -4.20327 0
M  V30 655 C 63.7842 -2.75435 -4.40944 0
M  V30 656 C 61.4692 -2.08182 -4.57127 0
M  V30 657 C 63.4632 -3.98482 -4.97484 0
M  V30 658 C 61.1502 -3.31489 -5.13379 0
M  V30 659 C 62.1482 -4.26457 -5.33501 0
M  V30 660 O 61.8362 -5.47585 -5.88562 0
M  V30 661 H 61.5682 -0.167473 -0.654927 0
M  V30 662 H 64.1222 -1.11073 -1.72777 0
M  V30 663 H 62.3522 0.303836 -3.85505 0
M  V30 664 H 64.0412 -0.0622925 -4.05852 0
M  V30 665 H 64.8072 -2.54473 -4.12878 0
M  V30 666 H 60.6862 -1.35066 -4.4077 0
M  V30 667 H 64.2302 -4.72618 -5.13106 0
M  V30 668 H 60.1272 -3.52316 -5.40873 0
M  V30 669 H 60.8952 -5.49086 -6.06998 0
M  V30 670 N 63.5583 1.46682 -0.576371 0
M  V30 671 C 64.4883 2.33028 0.148397 0
M  V30 672 C 65.4693 1.44961 0.889956 0
M  V30 673 O 66.6543 1.73789 0.866662 0
M  V30 674 C 63.7843 3.27117 1.1667 0
M  V30 675 C 62.7383 4.24575 0.540386 0
M  V30 676 C 62.0643 5.08126 1.6647 0
M  V30 677 C 63.3643 5.19722 -0.518331 0
M  V30 678 H 65.0583 2.93875 -0.572509 0
M  V30 679 H 62.6043 1.41315 -0.276768 0
M  V30 680 H 64.5573 3.86374 1.68204 0
M  V30 681 H 63.2813 2.64364 1.9178 0
M  V30 682 H 61.9403 3.66571 0.0461769 0
M  V30 683 H 61.5883 4.41762 2.40531 0
M  V30 684 H 61.2883 5.74122 1.25131 0
M  V30 685 H 62.8123 5.70246 2.18293 0
M  V30 686 H 64.2263 5.73232 -0.0883058 0
M  V30 687 H 62.6233 5.94026 -0.851679 0
M  V30 688 H 63.6933 4.64037 -1.40703 0
M  V30 689 N 65.0364 0.313813 1.54444 0
M  V30 690 C 66.2824 -0.284918 2.01395 0
M  V30 691 C 66.6374 -1.50537 1.19818 0
M  V30 692 O 65.9304 -1.89692 0.269748 0
M  V30 693 C 66.1244 -0.680386 3.50864 0
M  V30 694 C 65.9534 0.500198 4.4691 0
M  V30 695 C 64.7234 0.996248 4.95382 0
M  V30 696 C 66.9214 1.34928 4.96285 0
M  V30 697 N 64.9034 2.14226 5.75309 0
M  V30 698 C 66.2744 2.3426 5.7404 0
M  V30 699 C 68.3294 1.37818 4.78446 0
M  V30 700 C 67.0324 3.36272 6.35856 0
M  V30 701 C 69.0584 2.38695 5.4109 0
M  V30 702 C 68.4204 3.36755 6.18688 0
M  V30 703 H 64.5194 -0.0683689 0.779006 0
M  V30 704 H 67.1034 0.44664 1.89508 0
M  V30 705 H 65.2744 -1.38109 3.63016 0
M  V30 706 H 67.0064 -1.25975 3.84594 0
M  V30 707 H 63.7614 0.56912 4.70168 0
M  V30 708 H 64.1854 2.72005 6.19953 0
M  V30 709 H 68.8274 0.633747 4.18023 0
M  V30 710 H 66.5454 4.11627 6.95405 0
M  V30 711 H 70.1314 2.41721 5.29209 0
M  V30 712 H 69.0114 4.13535 6.66302 0
M  V30 713 N 66.5145 -1.57545 0.0417849 0
M  V30 714 C 67.9305 -1.56467 -0.314704 0
M  V30 715 C 68.1305 -1.04859 -1.72066 0
M  V30 716 O 67.1865 -0.700983 -2.42575 0
M  V30 717 C 68.4995 -3.00317 -0.15174 0
M  V30 718 C 70.0475 -3.12201 -0.223553 0
M  V30 719 C 70.5225 -4.57913 -0.0892295 0
M  V30 720 N 72.0135 -4.6297 -0.145808 0
M  V30 721 C 72.7485 -5.73362 -0.0658459 0
M  V30 722 N 72.2445 -6.92769 0.0659282 0
M  V30 723 N 74.0375 -5.6197 -0.12075 0
M  V30 724 H 66.1885 -1.89416 0.961014 0
M  V30 725 H 68.4515 -0.871862 0.372237 0
M  V30 726 H 68.1575 -3.42073 0.817254 0
M  V30 727 H 68.0315 -3.65892 -0.916692 0
M  V30 728 H 70.4185 -2.70349 -1.18301 0
M  V30 729 H 70.4995 -2.49323 0.571994 0
M  V30 730 H 70.1435 -5.00448 0.866867 0
M  V30 731 H 70.0735 -5.18786 -0.903802 0
M  V30 732 H 72.5645 -3.7709 -0.247286 0
M  V30 733 H 72.8775 -7.72707 0.119905 0
M  V30 734 H 71.2225 -6.94927 0.100885 0
M  V30 735 H 74.4135 -4.67572 -0.222187 0
M  V30 736 H 74.5865 -6.47977 -0.0549735 0
M  V30 737 N 67.9926 0.231505 -1.5589 0
M  V30 738 C 68.9406 1.30649 -1.92441 0
M  V30 739 C 69.9346 1.49037 -0.805254 0
M  V30 740 O 71.1406 1.50329 -0.990007 0
M  V30 741 H 67.5156 0.437812 -0.611412 0
M  V30 742 H 69.4866 0.970973 -2.82161 0
M  V30 743 C 68.2356 2.65179 -2.24889 0
M  V30 744 H 67.5586 2.51835 -3.10514 0
M  V30 745 H 68.9986 3.39234 -2.54355 0
M  V30 746 C 67.4576 3.19439 -1.07054 0
M  V30 747 O 67.9876 4.00371 -0.326499 0
M  V30 748 N 66.1936 2.77675 -0.85703 0
M  V30 749 H 65.7406 2.11969 -1.46379 0
M  V30 750 H 65.6986 3.14321 -0.0703223 0
M  V30 751 N 69.4707 1.49531 0.497807 0
M  V30 752 C 70.7197 1.58426 1.24837 0
M  V30 753 C 71.0327 0.277643 1.93619 0
M  V30 754 O 72.2387 0.24517 2.70391 0
M  V30 755 C 70.6947 2.79538 2.26686 0
M  V30 756 C 70.3027 4.16971 1.63828 0
M  V30 757 C 72.0467 2.97764 3.0255 0
M  V30 758 C 69.9537 5.29301 2.63807 0
M  V30 759 H 68.8837 0.58989 0.469623 0
M  V30 760 H 71.5347 1.75923 0.521857 0
M  V30 761 H 69.9167 2.55542 3.02514 0
M  V30 762 H 71.0907 4.51116 0.939711 0
M  V30 763 H 69.4057 4.04129 1.00342 0
M  V30 764 H 72.0027 3.78856 3.77323 0
M  V30 765 H 72.3457 2.08448 3.60354 0
M  V30 766 H 72.8787 3.21815 2.33838 0
M  V30 767 H 69.6177 6.20687 2.10779 0
M  V30 768 H 69.1377 4.99606 3.31894 0
M  V30 769 H 70.8167 5.58768 3.2617 0
M  V30 770 N 70.9488 -0.749086 1.3866 0
M  V30 771 C 71.8818 -1.87111 1.30631 0
M  V30 772 C 72.8598 -1.61572 0.18251 0
M  V30 773 O 74.0438 -1.85019 0.360592 0
M  V30 774 C 71.1708 -3.22815 1.02511 0
M  V30 775 C 70.2168 -3.67234 2.1689 0
M  V30 776 S 71.0498 -3.78245 3.79066 0
M  V30 777 C 72.2058 -5.16761 3.53142 0
M  V30 778 H 72.4388 -1.93636 2.25594 0
M  V30 779 H 69.9718 -0.912525 1.24549 0
M  V30 780 H 71.9298 -4.01181 0.869701 0
M  V30 781 H 70.5908 -3.13964 0.0925884 0
M  V30 782 H 69.7838 -4.65677 1.92771 0
M  V30 783 H 69.3858 -2.96034 2.28561 0
M  V30 784 H 71.6778 -6.02656 3.09534 0
M  V30 785 H 72.6208 -5.45902 4.50995 0
M  V30 786 H 73.0288 -4.85771 2.87554 0
M  V30 787 N 72.4269 -1.23603 -0.977757 0
M  V30 788 C 73.8379 -1.06424 -1.53398 0
M  V30 789 C 74.1889 0.367578 -1.92726 0
M  V30 790 O 73.3139 1.25465 -1.76316 0
M  V30 791 C 73.9089 -1.92568 -2.78753 0
M  V30 792 C 72.4679 -1.79642 -3.30765 0
M  V30 793 C 71.6149 -1.88111 -2.03739 0
M  V30 794 H 74.5659 -1.37227 -0.797152 0
M  V30 795 H 74.5869 -1.45203 -3.51705 0
M  V30 796 H 74.0989 -2.96771 -2.50098 0
M  V30 797 H 72.1999 -0.782325 -3.64294 0
M  V30 798 H 72.3129 -2.63174 -4.00345 0
M  V30 799 H 70.6769 -1.31723 -2.17994 0
M  V30 800 H 71.4599 -2.93875 -1.77461 0
M  V30 801 N 73.905 1.17692 -1.04816 0
M  V30 802 C 74.855 2.1952 -0.616042 0
M  V30 803 C 75.839 1.57147 0.345485 0
M  V30 804 O 77.031 1.76245 0.163325 0
M  V30 805 C 74.16 3.43298 0.0116917 0
M  V30 806 C 73.246 4.12777 -0.973435 0
M  V30 807 N 73.637 4.5814 -2.14339 0
M  V30 808 C 71.935 4.38747 -0.80108 0
M  V30 809 C 72.636 5.11713 -2.7663 0
M  V30 810 N 71.612 5.03686 -2.04453 0
M  V30 811 H 75.414 2.52293 -1.5075 0
M  V30 812 H 72.928 1.3398 -0.917776 0
M  V30 813 H 74.925 4.15519 0.339006 0
M  V30 814 H 73.585 3.12018 0.898593 0
M  V30 815 H 74.596 4.52349 -2.52191 0
M  V30 816 H 71.273 4.17485 0.0350934 0
M  V30 817 H 72.663 5.56962 -3.75823 0
M  V30 818 N 75.3831 0.828654 1.34056 0
M  V30 819 C 76.6231 0.425394 1.99924 0
M  V30 820 C 76.9871 -0.994294 1.64249 0
M  V30 821 O 78.1881 -1.50074 2.23005 0
M  V30 822 C 76.4591 0.628071 3.51838 0
M  V30 823 S 78.0181 0.318511 4.37642 0
M  V30 824 H 74.8361 0.160465 0.692656 0
M  V30 825 H 77.4381 1.07572 1.63244 0
M  V30 826 H 76.1421 1.66089 3.7529 0
M  V30 827 H 75.6731 -0.0367799 3.93383 0
M  V30 828 H 77.6881 -0.865632 4.88591 0
M  V30 829 N 76.8612 -1.46375 0.584142 0
M  V30 830 C 77.8242 -2.28784 -0.138108 0
M  V30 831 C 78.8242 -1.38471 -0.817462 0
M  V30 832 O 80.0142 -1.60833 -0.669199 0
M  V30 833 C 77.1462 -3.18892 -1.20503 0
M  V30 834 H 78.3392 -2.94117 0.586127 0
M  V30 835 H 75.8922 -1.52509 0.342171 0
M  V30 836 H 76.6272 -2.58309 -1.96079 0
M  V30 837 H 76.4122 -3.85388 -0.722384 0
M  V30 838 H 77.9022 -3.80914 -1.71155 0
M  V30 839 N 78.3393 -0.321999 -1.54275 0
M  V30 840 C 79.5873 0.280489 -2.00144 0
M  V30 841 C 79.9083 1.52777 -1.21178 0
M  V30 842 O 79.1783 1.9338 -0.313187 0
M  V30 843 H 77.7583 0.106632 -0.73935 0
M  V30 844 H 80.4203 -0.438184 -1.8991 0
M  V30 845 H 79.5163 0.537972 -3.07428 0
M  V30 846 N 79.8174 1.5752 -0.0501392 0
M  V30 847 C 80.7474 2.14502 0.922566 0
M  V30 848 C 81.7284 1.06642 1.3252 0
M  V30 849 O 82.9134 1.34577 1.4001 0
M  V30 850 C 80.0434 2.68916 2.19776 0
M  V30 851 C 78.9974 3.8175 1.93523 0
M  V30 852 C 78.3234 4.22677 3.27487 0
M  V30 853 C 79.6234 5.06932 1.25765 0
M  V30 854 H 81.3174 2.9603 0.447952 0
M  V30 855 H 78.8634 1.42401 0.214024 0
M  V30 856 H 80.8164 3.07419 2.88222 0
M  V30 857 H 79.5404 1.84578 2.69441 0
M  V30 858 H 78.1994 3.43718 1.27489 0
M  V30 859 H 77.8474 3.35291 3.74952 0
M  V30 860 H 77.5474 4.98725 3.1072 0
M  V30 861 H 79.0714 4.63779 3.97166 0
M  V30 862 H 80.4854 5.42888 1.84244 0
M  V30 863 H 78.8824 5.88116 1.19328 0
M  V30 864 H 79.9524 4.84337 0.233536 0
M  V30 865 N 81.2955 -0.223234 1.56011 0
M  V30 866 C 82.5435 -0.946003 1.78592 0
M  V30 867 C 82.8645 -1.84936 0.618349 0
M  V30 868 O 82.1345 -1.92473 -0.364833 0
M  V30 869 H 80.7145 -0.352298 0.658707 0
M  V30 870 H 83.3765 -0.235494 1.93472 0
M  V30 871 H 82.4725 -1.55381 2.70672 0
M  V30 872 N 82.7736 -1.49793 -0.48987 0
M  V30 873 C 84.1896 -1.36803 -0.822022 0
M  V30 874 C 84.3896 -0.409652 -1.97292 0
M  V30 875 O 83.4456 0.154614 -2.52026 0
M  V30 876 C 84.7586 -2.77768 -1.15175 0
M  V30 877 C 86.3066 -2.86549 -1.25931 0
M  V30 878 C 86.7816 -4.28306 -1.62228 0
M  V30 879 N 88.2726 -4.31169 -1.69256 0
M  V30 880 C 89.0076 -5.37832 -1.98807 0
M  V30 881 N 88.5036 -6.54726 -2.26507 0
M  V30 882 N 90.2966 -5.25258 -2.00152 0
M  V30 883 H 82.4476 -2.10691 0.268881 0
M  V30 884 H 84.7106 -0.946241 0.057728 0
M  V30 885 H 84.4166 -3.49648 -0.379335 0
M  V30 886 H 84.2906 -3.13836 -2.09253 0
M  V30 887 H 86.6776 -2.14899 -2.02243 0
M  V30 888 H 86.7586 -2.54049 -0.298776 0
M  V30 889 H 86.4026 -5.00486 -0.864622 0
M  V30 890 H 86.3326 -4.58279 -2.594 0
M  V30 891 H 88.8236 -3.4687 -1.49965 0
M  V30 892 H 89.1366 -7.31833 -2.48276 0
M  V30 893 H 87.4816 -6.57933 -2.23939 0
M  V30 894 H 90.6726 -4.32938 -1.77996 0
M  V30 895 H 90.8456 -6.08476 -2.22848 0
M  V30 896 N 84.2517 0.741722 -1.39055 0
M  V30 897 C 85.1817 1.869 -1.39966 0
M  V30 898 C 86.1627 1.6804 -0.26392 0
M  V30 899 O 87.3477 1.88458 -0.468755 0
M  V30 900 C 84.4777 3.24572 -1.23574 0
M  V30 901 C 83.4317 3.58056 -2.34477 0
M  V30 902 C 82.7577 4.94593 -2.0318 0
M  V30 903 C 84.0577 3.61716 -3.76774 0
M  V30 904 H 85.7517 1.86395 -2.34302 0
M  V30 905 H 83.2977 0.895361 -1.1278 0
M  V30 906 H 85.2507 4.031 -1.22834 0
M  V30 907 H 83.9747 3.25587 -0.257045 0
M  V30 908 H 82.6337 2.81854 -2.34423 0
M  V30 909 H 82.2817 4.92181 -1.03765 0
M  V30 910 H 81.9817 5.17964 -2.77465 0
M  V30 911 H 83.5057 5.75486 -2.04079 0
M  V30 912 H 84.9197 4.30335 -3.78794 0
M  V30 913 H 83.3167 3.96603 -4.50362 0
M  V30 914 H 84.3867 2.61672 -4.08235 0
M  V30 915 N 85.7298 1.2412 0.971189 0
M  V30 916 C 86.9788 1.07284 1.70801 0
M  V30 917 C 87.2918 -0.388902 1.91695 0
M  V30 918 O 88.4978 -0.677379 2.62914 0
M  V30 919 C 86.9538 1.87145 3.07416 0
M  V30 920 C 86.5618 3.37707 2.94377 0
M  V30 921 C 88.3058 1.78828 3.84995 0
M  V30 922 C 86.2128 4.09925 4.26281 0
M  V30 923 H 85.1428 0.397854 0.64049 0
M  V30 924 H 87.7938 1.4817 1.0825 0
M  V30 925 H 86.1758 1.39071 3.70777 0
M  V30 926 H 87.3498 3.93335 2.4005 0
M  V30 927 H 85.6648 3.46938 2.30267 0
M  V30 928 H 88.2618 2.30089 4.82662 0
M  V30 929 H 88.6048 0.75284 4.09436 0
M  V30 930 H 89.1378 2.24563 3.28354 0
M  V30 931 H 85.8768 5.13813 4.07033 0
M  V30 932 H 85.3968 3.59083 4.80437 0
M  V30 933 H 87.0758 4.1673 4.94919 0
M  V30 934 N 87.2079 -1.17134 1.05439 0
M  V30 935 C 88.1709 -2.19439 0.661764 0
M  V30 936 C 89.1709 -1.58199 -0.288042 0
M  V30 937 O 90.3609 -1.74053 -0.0715803 0
M  V30 938 C 87.4929 -3.40889 -0.0276209 0
M  V30 939 H 88.6859 -2.55688 1.56728 0
M  V30 940 H 86.2389 -1.31259 0.848567 0
M  V30 941 H 86.9739 -3.10187 -0.94629 0
M  V30 942 H 86.7589 -3.86586 0.655238 0
M  V30 943 H 88.2489 -4.16603 -0.288342 0
M  V30 944 N 88.686 -0.835752 -1.33615 0
M  V30 945 C 89.926 -0.43599 -1.99696 0
M  V30 946 C 90.29 0.98557 -1.64774 0
M  V30 947 O 91.491 1.48889 -2.23798 0
M  V30 948 C 89.762 -0.646721 -3.515 0
M  V30 949 S 91.321 -0.341715 -4.37467 0
M  V30 950 H 88.139 -0.164136 -0.691795 0
M  V30 951 H 90.741 -1.08436 -1.62671 0
M  V30 952 H 89.445 -1.68077 -3.74404 0
M  V30 953 H 88.976 0.0159173 -3.93397 0
M  V30 954 H 90.991 0.839708 -4.89043 0
M  V30 955 N 90.1641 1.46063 -0.591896 0
M  V30 956 C 91.4411 1.95595 -0.0137119 0
M  V30 957 C 91.8211 1.5345 1.4497 0
M  V30 958 O 91.1691 0.789543 2.14426 0
M  V30 959 C 91.3791 3.48453 -0.195373 0
M  V30 960 C 92.7271 4.24546 -0.0679765 0
M  V30 961 O 93.7511 3.55982 -0.124681 0
M  V30 962 O 92.6101 5.46467 0.0600579 0
M  V30 963 H 89.7041 0.825795 0.0446279 0
M  V30 964 H 92.2501 1.56303 -0.660859 0
M  V30 965 H 91.0221 3.72045 -1.21235 0
M  V30 966 H 90.6451 3.94597 0.487775 0
M  V30 967 N 91.6422 0.330177 1.54103 0
M  V30 968 C 92.5722 -0.525353 2.27513 0
M  V30 969 C 93.5532 -1.11383 1.2856 0
M  V30 970 O 94.7382 -1.13773 1.57383 0
M  V30 971 C 91.8682 -1.6831 3.03791 0
M  V30 972 C 90.8222 -1.2236 4.10137 0
M  V30 973 C 90.1482 -2.46882 4.74293 0
M  V30 974 C 91.4482 -0.333697 5.21233 0
M  V30 975 H 93.1422 0.087013 2.99274 0
M  V30 976 H 90.6882 0.0432893 1.43935 0
M  V30 977 H 92.6412 -2.28795 3.5388 0
M  V30 978 H 91.3652 -2.32216 2.29659 0
M  V30 979 H 90.0242 -0.64165 3.60941 0
M  V30 980 H 89.6722 -3.09165 3.96769 0
M  V30 981 H 89.3722 -2.16825 5.46133 0
M  V30 982 H 90.8962 -3.08117 5.27159 0
M  V30 983 H 92.3102 -0.845013 5.67038 0
M  V30 984 H 90.7072 -0.125612 5.99969 0
M  V30 985 H 91.7772 0.633724 4.80741 0
M  V30 986 N 93.1203 -1.57491 0.0584922 0
M  V30 987 C 94.3693 -1.92155 -0.613146 0
M  V30 988 C 94.6823 -0.939334 -1.71569 0
M  V30 989 O 95.8883 -1.17829 -2.44599 0
M  V30 990 C 94.3443 -3.41303 -1.14195 0
M  V30 991 C 93.9523 -4.47944 -0.0711265 0
M  V30 992 C 95.6963 -3.84988 -1.78841 0
M  V30 993 C 93.6033 -5.88212 -0.613225 0
M  V30 994 H 92.5333 -0.717162 -0.232796 0
M  V30 995 H 95.1843 -1.83049 0.12857 0
M  V30 996 H 93.5663 -3.45437 -1.93621 0
M  V30 997 H 94.7403 -4.55408 0.702836 0
M  V30 998 H 93.0553 -4.13644 0.478313 0
M  V30 999 H 95.6523 -4.87159 -2.20408 0
M  V30 1000 H 95.9953 -3.21632 -2.64308 0
M  V30 1001 H 96.5283 -3.83401 -1.06059 0
M  V30 1002 H 93.2673 -6.55183 0.203978 0
M  V30 1003 H 92.7873 -5.84294 -1.35501 0
M  V30 1004 H 94.4663 -6.37687 -1.09383 0
M  V30 1005 N 94.5984 0.214957 -1.56127 0
M  V30 1006 C 95.8464 0.936518 -1.79091 0
M  V30 1007 C 96.1674 1.84606 -0.628148 0
M  V30 1008 O 95.4374 1.92664 0.35462 0
M  V30 1009 H 94.0174 0.3488 -0.660566 0
M  V30 1010 H 96.6794 0.22523 -1.93594 0
M  V30 1011 H 95.7754 1.53943 -2.71492 0
M  V30 1012 N 96.0765 1.50051 0.48192 0
M  V30 1013 C 97.0095 1.62749 1.59963 0
M  V30 1014 C 97.9875 0.475903 1.5548 0
M  V30 1015 O 99.1715 0.693986 1.7526 0
M  V30 1016 C 96.2985 1.60008 2.98522 0
M  V30 1017 C 95.3445 2.80596 3.21198 0
M  V30 1018 S 96.1775 4.42038 3.02262 0
M  V30 1019 C 97.3335 4.41973 4.43182 0
M  V30 1020 H 97.5665 2.57296 1.4895 0
M  V30 1021 H 95.0995 1.39179 0.668477 0
M  V30 1022 H 97.0575 1.59112 3.78409 0
M  V30 1023 H 95.7185 0.667153 3.06933 0
M  V30 1024 H 94.9115 2.74952 4.22395 0
M  V30 1025 H 94.5135 2.79003 2.49065 0
M  V30 1026 H 96.8055 4.14868 5.35622 0
M  V30 1027 H 97.7485 5.43512 4.53873 0
M  V30 1028 H 98.1565 3.71812 4.24755 0
M  V30 1029 N 97.5546 -0.734337 1.39446 0
M  V30 1030 C 98.8026 -1.49096 1.36436 0
M  V30 1031 C 99.1236 -1.94961 -0.0388255 0
M  V30 1032 O 98.3936 -1.69033 -0.990191 0
M  V30 1033 H 96.9736 -0.5531 0.502085 0
M  V30 1034 H 99.6356 -0.871725 1.74319 0
M  V30 1035 H 98.7316 -2.37276 2.02747 0
M  V30 1036 N 99.0327 -1.24633 -0.964593 0
M  V30 1037 C 100.31 -0.995809 -1.68354 0
M  V30 1038 C 100.69 0.480964 -2.05548 0
M  V30 1039 O 100.038 1.45599 -1.76105 0
M  V30 1040 C 100.248 -1.92177 -2.91323 0
M  V30 1041 C 101.596 -2.19446 -3.63495 0
M  V30 1042 O 102.62 -1.89855 -3.01386 0
M  V30 1043 O 101.479 -2.69714 -4.75307 0
M  V30 1044 H 98.5727 -0.376854 -0.736146 0
M  V30 1045 H 101.119 -1.35745 -1.0184 0
M  V30 1046 H 99.8907 -2.91938 -2.60553 0
M  V30 1047 H 99.5137 -1.56349 -3.65569 0
M  V30 1048 N 100.511 1.16574 -1.06058 0
M  V30 1049 C 101.736 1.91493 -0.796562 0
M  V30 1050 C 102.161 1.76773 0.642868 0
M  V30 1051 O 101.519 1.09142 1.44768 0
M  V30 1052 C 101.567 3.40293 -1.19303 0
M  V30 1053 O 100.671 4.11074 -0.330394 0
M  V30 1054 H 100.012 0.596678 -0.291326 0
M  V30 1055 H 102.542 1.47708 -1.41575 0
M  V30 1056 H 102.552 3.91057 -1.16356 0
M  V30 1057 H 101.227 3.50326 -2.24153 0
M  V30 1058 H 99.8038 3.70513 -0.421225 0
M  V30 1059 N 101.989 0.842826 1.3317 0
M  V30 1060 C 103.266 0.362216 1.92217 0
M  V30 1061 C 103.646 -1.15289 1.76838 0
M  V30 1062 O 102.994 -1.96914 1.15919 0
M  V30 1063 C 103.204 0.813495 3.39387 0
M  V30 1064 C 104.552 0.823804 4.16532 0
M  V30 1065 O 105.576 0.757358 3.48055 0
M  V30 1066 O 104.435 0.915193 5.38782 0
M  V30 1067 H 101.529 0.103317 0.820521 0
M  V30 1068 H 104.075 0.928942 1.42017 0
M  V30 1069 H 102.847 1.85624 3.4447 0
M  V30 1070 H 102.47 0.223561 3.96971 0
M  V30 1071 N 103.467 -1.45747 0.599634 0
M  V30 1072 C 104.414 -2.30467 -0.123849 0
M  V30 1073 C 105.384 -1.41632 -0.86774 0
M  V30 1074 O 106.569 -1.70568 -0.855056 0
M  V30 1075 C 103.709 -3.26402 -1.12051 0
M  V30 1076 C 102.822 -4.3034 -0.37832 0
M  V30 1077 C 101.957 -5.13389 -1.364 0
M  V30 1078 C 100.996 -6.09061 -0.609171 0
M  V30 1079 N 100.133 -6.84918 -1.54374 0
M  V30 1080 H 104.973 -2.91802 0.604627 0
M  V30 1081 H 102.51 -1.43797 0.309972 0
M  V30 1082 H 104.468 -3.80482 -1.7114 0
M  V30 1083 H 103.098 -2.66839 -1.8165 0
M  V30 1084 H 102.15 -3.78984 0.327929 0
M  V30 1085 H 103.462 -4.98354 0.210997 0
M  V30 1086 H 102.616 -5.7183 -2.02719 0
M  V30 1087 H 101.355 -4.45376 -1.98725 0
M  V30 1088 H 100.36 -5.49758 0.0676979 0
M  V30 1089 H 101.585 -6.79099 0.00891991 0
M  V30 1090 H 99.531 -6.19601 -2.15478 0
M  V30 1091 H 99.448 -7.49254 -1.00766 0
M  V30 1092 H 100.716 -7.47906 -2.19676 0
M  V30 1093 N 104.945 -0.338344 -1.53925 0
M  V30 1094 C 105.875 0.51328 -2.27789 0
M  V30 1095 C 106.856 1.107 -1.29149 0
M  V30 1096 O 108.041 1.12937 -1.57984 0
M  V30 1097 C 105.171 1.66697 -3.04679 0
M  V30 1098 C 104.125 1.20183 -4.1078 0
M  V30 1099 C 103.451 2.44363 -4.75595 0
M  V30 1100 C 104.751 0.30605 -5.21403 0
M  V30 1101 H 106.445 -0.102883 -2.99223 0
M  V30 1102 H 103.991 -0.0509219 -1.4391 0
M  V30 1103 H 105.944 2.26915 -3.55088 0
M  V30 1104 H 104.668 2.30995 -2.30887 0
M  V30 1105 H 103.327 0.622499 -3.61276 0
M  V30 1106 H 102.975 3.07057 -3.98403 0
M  V30 1107 H 102.675 2.13925 -5.47275 0
M  V30 1108 H 104.199 3.05317 -5.28786 0
M  V30 1109 H 105.613 0.814929 -5.67478 0
M  V30 1110 H 104.01 0.0937929 -6.00027 0
M  V30 1111 H 105.08 -0.65921 -4.80398 0
M  V30 1112 N 106.423 1.57458 -0.0668435 0
M  V30 1113 C 107.7 1.8469 0.644132 0
M  V30 1114 C 108.08 0.958343 1.88093 0
M  V30 1115 O 107.428 0.0233579 2.28488 0
M  V30 1116 C 107.638 3.34767 0.986509 0
M  V30 1117 C 108.986 4.02159 1.36212 0
M  V30 1118 O 110.01 3.39484 1.07839 0
M  V30 1119 O 108.869 5.12694 1.89227 0
M  V30 1120 H 105.963 0.762816 0.319437 0
M  V30 1121 H 108.509 1.6942 -0.0973986 0
M  V30 1122 H 107.281 3.91151 0.107883 0
M  V30 1123 H 106.904 3.55281 1.78497 0
M  V30 1124 N 107.901 -0.206675 1.56239 0
M  V30 1125 C 109.312 -0.772383 1.69974 0
M  V30 1126 C 109.663 -1.84353 0.671436 0
M  V30 1127 O 108.788 -2.15695 -0.174491 0
M  V30 1128 C 109.383 -1.40779 3.08167 0
M  V30 1129 C 107.942 -1.92072 3.23706 0
M  V30 1130 C 107.089 -0.786347 2.65917 0
M  V30 1131 H 110.04 0.0182223 1.5869 0
M  V30 1132 H 110.061 -2.27696 3.04852 0
M  V30 1133 H 109.573 -0.627958 3.82986 0
M  V30 1134 H 107.674 -2.7281 2.53782 0
M  V30 1135 H 107.787 -2.09046 4.31087 0
M  V30 1136 H 106.151 -1.1976 2.24788 0
M  V30 1137 H 106.934 -0.0189416 3.43295 0
M  V30 1138 N 109.379 -1.50304 -0.473955 0
M  V30 1139 C 110.604 -1.65175 -1.25427 0
M  V30 1140 C 111.029 -0.333673 -1.85117 0
M  V30 1141 O 110.387 0.702114 -1.67153 0
M  V30 1142 C 110.435 -2.74295 -2.34082 0
M  V30 1143 O 109.539 -2.35349 -3.38651 0
M  V30 1144 H 108.88 -0.551944 -0.369126 0
M  V30 1145 H 111.41 -1.96662 -0.564364 0
M  V30 1146 H 111.42 -2.97285 -2.79438 0
M  V30 1147 H 110.095 -3.69959 -1.90008 0
M  V30 1148 H 108.672 -2.22794 -2.99027 0
M  V30 1149 N 110.857 0.726932 -1.39834 0
M  V30 1150 C 112.105 1.4837 -1.37225 0
M  V30 1151 C 112.426 1.94979 0.0284857 0
M  V30 1152 O 111.696 1.69555 0.981213 0
M  V30 1153 H 110.276 0.55043 -0.505011 0
M  V30 1154 H 112.938 0.862468 -1.74778 0
M  V30 1155 H 112.034 2.36198 -2.04003 0
M  V30 1156 N 112.336 1.25143 0.95797 0
M  V30 1157 C 113.747 1.08851 1.51685 0
M  V30 1158 C 114.098 -0.33687 1.93286 0
M  V30 1159 O 113.223 -1.22644 1.7829 0
M  V30 1160 C 113.818 1.96978 2.75654 0
M  V30 1161 C 112.377 1.84881 3.27866 0
M  V30 1162 C 111.524 1.91329 2.0072 0
M  V30 1163 H 114.475 1.38478 0.77522 0
M  V30 1164 H 114.496 1.5078 3.4935 0
M  V30 1165 H 114.008 3.00712 2.45345 0
M  V30 1166 H 112.109 0.840182 3.63004 0
M  V30 1167 H 112.222 2.6951 3.96107 0
M  V30 1168 H 110.586 1.35174 2.15871 0
M  V30 1169 H 111.369 2.96661 1.72764 0
M  V30 1170 N 113.814 -1.1601 1.06675 0
M  V30 1171 C 114.724 -2.24156 0.692179 0
M  V30 1172 C 115.74 -1.71507 -0.293513 0
M  V30 1173 O 116.916 -2.009 -0.141861 0
M  V30 1174 C 113.981 -3.46587 0.0884131 0
M  V30 1175 C 113.042 -4.14257 1.12646 0
M  V30 1176 C 112.275 -5.30844 0.551416 0
M  V30 1177 O 112.498 -5.66858 -0.634656 0
M  V30 1178 O 111.432 -5.87848 1.29298 0
M  V30 1179 H 115.258 -2.58513 1.59388 0
M  V30 1180 H 112.843 -1.23599 0.83926 0
M  V30 1181 H 114.725 -4.20679 -0.246361 0
M  V30 1182 H 113.4 -3.13994 -0.786712 0
M  V30 1183 H 112.307 -3.42118 1.51348 0
M  V30 1184 H 113.64 -4.50914 1.97325 0
M  V30 1185 N 115.292 -0.849877 -1.32721 0
M  V30 1186 C 116.708 -0.539102 -1.50219 0
M  V30 1187 C 116.908 0.931271 -1.78689 0
M  V30 1188 O 115.964 1.71455 -1.85363 0
M  V30 1189 C 117.277 -1.42196 -2.64954 0
M  V30 1190 C 118.825 -1.42189 -2.78839 0
M  V30 1191 C 119.3 -2.28985 -3.96648 0
M  V30 1192 N 120.791 -2.26754 -4.03902 0
M  V30 1193 C 121.526 -2.90644 -4.94281 0
M  V30 1194 N 121.022 -3.63629 -5.897 0
M  V30 1195 N 122.815 -2.80057 -4.87365 0
M  V30 1196 H 114.966 -1.80156 -1.12506 0
M  V30 1197 H 117.229 -0.769217 -0.554085 0
M  V30 1198 H 116.935 -2.46733 -2.50631 0
M  V30 1199 H 116.809 -1.10591 -3.60624 0
M  V30 1200 H 119.196 -0.38419 -2.92588 0
M  V30 1201 H 119.277 -1.77807 -1.83898 0
M  V30 1202 H 118.921 -3.32819 -3.83658 0
M  V30 1203 H 118.851 -1.90702 -4.90857 0
M  V30 1204 H 121.342 -1.73688 -3.3562 0
M  V30 1205 H 121.655 -4.09558 -6.55349 0
M  V30 1206 H 120 -3.67737 -5.89741 0
M  V30 1207 H 123.191 -2.22593 -4.11789 0
M  V30 1208 H 123.364 -3.30132 -5.57599 0
M  V30 1209 N 116.77 1.45427 -0.607355 0
M  V30 1210 C 118 2.06314 -0.108656 0
M  V30 1211 C 118.408 1.45269 1.21217 0
M  V30 1212 O 117.751 0.561115 1.74921 0
M  V30 1213 C 117.813 3.59345 0.105618 0
M  V30 1214 C 117.477 4.42723 -1.13337 0
M  V30 1215 C 118.474 4.77715 -2.05145 0
M  V30 1216 C 116.159 4.83478 -1.36213 0
M  V30 1217 C 118.153 5.52317 -3.18158 0
M  V30 1218 C 115.84 5.57835 -2.49527 0
M  V30 1219 C 116.838 5.92171 -3.40327 0
M  V30 1220 O 116.526 6.65019 -4.51669 0
M  V30 1221 H 116.258 0.672782 -0.0658842 0
M  V30 1222 H 118.812 1.87664 -0.834945 0
M  V30 1223 H 117.042 3.76394 0.886796 0
M  V30 1224 H 118.731 4.02076 0.555886 0
M  V30 1225 H 119.497 4.46787 -1.88697 0
M  V30 1226 H 115.376 4.56188 -0.664362 0
M  V30 1227 H 118.92 5.79036 -3.89054 0
M  V30 1228 H 114.817 5.88177 -2.65928 0
M  V30 1229 H 115.585 6.83469 -4.50348 0
M  V30 1230 N 118.248 0.346503 1.53744 0
M  V30 1231 C 119.211 -0.496439 2.23759 0
M  V30 1232 C 120.211 -1.0252 1.2388 0
M  V30 1233 O 121.401 -0.913974 1.48297 0
M  V30 1234 C 118.533 -1.69187 2.95954 0
M  V30 1235 H 119.726 0.115952 2.99676 0
M  V30 1236 H 117.279 0.0978939 1.55993 0
M  V30 1237 H 118.014 -2.34288 2.24231 0
M  V30 1238 H 117.799 -1.31989 3.69217 0
M  V30 1239 H 119.289 -2.28969 3.49232 0
M  V30 1240 N 119.726 -1.57421 0.075193 0
M  V30 1241 C 120.956 -1.97659 -0.601203 0
M  V30 1242 C 121.364 -0.952427 -1.63479 0
M  V30 1243 O 120.707 0.0688241 -1.83571 0
M  V30 1244 C 120.769 -3.34218 -1.32434 0
M  V30 1245 C 120.433 -4.5484 -0.443826 0
M  V30 1246 C 121.43 -5.19034 0.299969 0
M  V30 1247 C 119.115 -5.00952 -0.367709 0
M  V30 1248 C 121.109 -6.27695 1.10807 0
M  V30 1249 C 118.796 -6.09484 0.444058 0
M  V30 1250 C 119.794 -6.72719 1.18061 0
M  V30 1251 O 119.482 -7.79161 1.97898 0
M  V30 1252 H 119.214 -0.65494 -0.167422 0
M  V30 1253 H 121.768 -2.04886 0.145157 0
M  V30 1254 H 119.998 -3.23615 -2.11685 0
M  V30 1255 H 121.687 -3.59038 -1.89331 0
M  V30 1256 H 122.453 -4.84351 0.250776 0
M  V30 1257 H 118.332 -4.51509 -0.930638 0
M  V30 1258 H 121.876 -6.76982 1.68347 0
M  V30 1259 H 117.773 -6.43601 0.494803 0
M  V30 1260 H 118.541 -7.96055 1.90367 0
M  V30 1261 N 121.204 0.198386 -1.56346 0
M  V30 1262 C 122.167 1.22952 -1.93431 0
M  V30 1263 C 123.167 1.38611 -0.815092 0
M  V30 1264 O 124.357 1.36479 -1.08255 0
M  V30 1265 C 121.489 2.59946 -2.20546 0
M  V30 1266 H 122.682 0.912626 -2.85677 0
M  V30 1267 H 120.235 0.43977 -1.49986 0
M  V30 1268 H 120.97 2.96696 -1.30927 0
M  V30 1269 H 120.755 2.49953 -3.02102 0
M  V30 1270 H 122.245 3.3431 -2.50253 0
M  V30 1271 N 122.682 1.50554 0.465978 0
M  V30 1272 C 123.592 1.72585 1.58907 0
M  V30 1273 C 124.608 0.60911 1.6299 0
M  V30 1274 O 125.784 0.88804 1.80765 0
M  V30 1275 C 122.849 1.81995 2.95091 0
M  V30 1276 C 121.91 3.05751 3.01355 0
M  V30 1277 C 121.143 3.14702 4.31043 0
M  V30 1278 O 121.366 2.30313 5.21835 0
M  V30 1279 O 120.3 4.07468 4.43005 0
M  V30 1280 H 124.126 2.67799 1.43239 0
M  V30 1281 H 121.711 1.34711 0.646013 0
M  V30 1282 H 123.593 1.90335 3.75966 0
M  V30 1283 H 122.268 0.899659 3.10947 0
M  V30 1284 H 121.175 3.02908 2.19539 0
M  V30 1285 H 122.508 3.97375 2.90437 0
M  V30 1286 N 124.16 -0.719506 1.40217 0
M  V30 1287 C 125.11 -1.8251 1.36653 0
M  V30 1288 C 126.094 -1.59028 0.244732 0
M  V30 1289 O 127.286 -1.70268 0.483524 0
M  V30 1290 C 124.415 -3.20599 1.22763 0
M  V30 1291 C 123.501 -3.49858 2.39708 0
M  V30 1292 N 123.892 -3.49957 3.6519 0
M  V30 1293 C 122.19 -3.80297 2.33002 0
M  V30 1294 C 122.891 -3.77449 4.42614 0
M  V30 1295 N 121.867 -3.96002 3.72402 0
M  V30 1296 H 125.669 -1.80914 2.31619 0
M  V30 1297 H 123.183 -0.918455 1.33933 0
M  V30 1298 H 125.18 -3.99766 1.18292 0
M  V30 1299 H 123.84 -3.23424 0.287614 0
M  V30 1300 H 124.851 -3.309 3.98404 0
M  V30 1301 H 121.528 -3.90635 1.47346 0
M  V30 1302 H 122.918 -3.83863 5.51451 0
M  V30 1303 N 125.638 -1.25649 -0.95132 0
M  V30 1304 C 127.054 -1.02542 -1.223 0
M  V30 1305 C 127.254 0.255715 -1.99871 0
M  V30 1306 O 126.31 0.967558 -2.33226 0
M  V30 1307 C 127.623 -2.25065 -1.99415 0
M  V30 1308 C 129.171 -2.29861 -2.12446 0
M  V30 1309 C 129.646 -3.52048 -2.92961 0
M  V30 1310 N 131.137 -3.52465 -3.00538 0
M  V30 1311 C 131.872 -4.43672 -3.63239 0
M  V30 1312 N 131.368 -5.45157 -4.27523 0
M  V30 1313 N 133.161 -4.31346 -3.60412 0
M  V30 1314 H 125.312 -2.07951 -0.432471 0
M  V30 1315 H 127.575 -0.91339 -0.253816 0
M  V30 1316 H 127.281 -3.18194 -1.49817 0
M  V30 1317 H 127.155 -2.28502 -3.00111 0
M  V30 1318 H 129.542 -1.37252 -2.61239 0
M  V30 1319 H 129.623 -2.3044 -1.11044 0
M  V30 1320 H 129.267 -4.44981 -2.44856 0
M  V30 1321 H 129.197 -3.48715 -3.94596 0
M  V30 1322 H 131.688 -2.79056 -2.54826 0
M  V30 1323 H 132.001 -6.10958 -4.73234 0
M  V30 1324 H 130.346 -5.49025 -4.26141 0
M  V30 1325 H 133.537 -3.51288 -3.09377 0
M  V30 1326 H 133.71 -5.02624 -4.0899 0
M  V30 1327 N 127.117 1.15442 -1.07289 0
M  V30 1328 C 128.394 1.82306 -0.708792 0
M  V30 1329 C 128.774 1.94991 0.808807 0
M  V30 1330 O 128.122 1.50085 1.72298 0
M  V30 1331 C 128.332 3.18695 -1.42247 0
M  V30 1332 C 129.68 3.94341 -1.57417 0
M  V30 1333 O 130.704 3.28247 -1.38319 0
M  V30 1334 O 129.563 5.12839 -1.88834 0
M  V30 1335 H 126.657 0.787628 -0.252132 0
M  V30 1336 H 129.203 1.22559 -1.17377 0
M  V30 1337 H 127.975 3.04557 -2.45684 0
M  V30 1338 H 127.598 3.86128 -0.948223 0
M  V30 1339 N 128.595 0.856903 1.32268 0
M  V30 1340 C 129.825 0.47475 2.01071 0
M  V30 1341 C 130.233 -0.933746 1.64553 0
M  V30 1342 O 129.576 -1.62114 0.863989 0
M  V30 1343 C 129.638 0.536746 3.55471 0
M  V30 1344 C 129.302 1.90453 4.15423 0
M  V30 1345 C 130.299 2.87029 4.33486 0
M  V30 1346 C 127.984 2.20229 4.51447 0
M  V30 1347 C 129.978 4.11532 4.86744 0
M  V30 1348 C 127.665 3.44984 5.0441 0
M  V30 1349 C 128.663 4.40452 5.22007 0
M  V30 1350 O 128.351 5.62998 5.73837 0
M  V30 1351 H 128.083 0.184778 0.650256 0
M  V30 1352 H 130.637 1.15615 1.69771 0
M  V30 1353 H 128.867 -0.20152 3.86175 0
M  V30 1354 H 130.556 0.169875 4.05544 0
M  V30 1355 H 131.322 2.6533 4.05986 0
M  V30 1356 H 127.201 1.46705 4.37034 0
M  V30 1357 H 130.745 4.86056 5.00395 0
M  V30 1358 H 126.642 3.66532 5.31342 0
M  V30 1359 H 127.41 5.64987 5.92226 0
M  V30 1360 N 130.073 -1.45103 0.615059 0
M  V30 1361 C 131.003 -2.33339 -0.0865619 0
M  V30 1362 C 131.984 -1.4727 -0.851209 0
M  V30 1363 O 133.169 -1.76026 -0.820281 0
M  V30 1364 C 130.299 -3.30095 -1.07956 0
M  V30 1365 C 129.253 -4.25858 -0.427628 0
M  V30 1366 C 128.579 -5.12361 -1.5294 0
M  V30 1367 C 129.879 -5.18165 0.655944 0
M  V30 1368 H 131.573 -2.92254 0.650224 0
M  V30 1369 H 129.119 -1.40532 0.314138 0
M  V30 1370 H 131.072 -3.90698 -1.57901 0
M  V30 1371 H 129.796 -2.69355 -1.84703 0
M  V30 1372 H 128.455 -3.66564 0.0510292 0
M  V30 1373 H 128.103 -4.47984 -2.28734 0
M  V30 1374 H 127.803 -5.77238 -1.09865 0
M  V30 1375 H 129.327 -5.75833 -2.03098 0
M  V30 1376 H 130.741 -5.72796 0.240257 0
M  V30 1377 H 129.138 -5.91559 1.00888 0
M  V30 1378 H 130.208 -4.60144 1.52957 0
M  V30 1379 N 131.551 -0.354651 -1.53558 0
M  V30 1380 C 132.828 0.294281 -1.93374 0
M  V30 1381 C 133.208 1.67313 -1.28723 0
M  V30 1382 O 132.556 2.24179 -0.442247 0
M  V30 1383 C 132.766 0.355445 -3.47185 0
M  V30 1384 C 134.114 0.601007 -4.20325 0
M  V30 1385 O 135.138 0.437106 -3.53508 0
M  V30 1386 O 133.997 0.919322 -5.38712 0
M  V30 1387 H 131.091 0.174033 -0.808481 0
M  V30 1388 H 133.637 -0.406638 -1.64756 0
M  V30 1389 H 132.409 -0.611729 -3.86489 0
M  V30 1390 H 132.032 1.1027 -3.82003 0
M  V30 1391 N 133.029 1.57378 -0.0835403 0
M  V30 1392 C 133.992 2.12252 0.864959 0
M  V30 1393 C 134.992 1.04916 1.21858 0
M  V30 1394 O 136.182 1.30853 1.14991 0
M  V30 1395 C 133.314 2.63358 2.16461 0
M  V30 1396 H 134.507 2.97371 0.388676 0
M  V30 1397 H 132.06 1.55423 0.165317 0
M  V30 1398 H 132.795 1.81727 2.686 0
M  V30 1399 H 132.58 3.41826 1.92087 0
M  V30 1400 H 134.07 3.05847 2.84337 0
M  V30 1401 N 134.507 -0.190092 1.56449 0
M  V30 1402 C 135.437 -1.23816 1.97969 0
M  V30 1403 C 136.418 -1.47201 0.852395 0
M  V30 1404 O 137.603 -1.58854 1.1171 0
M  V30 1405 C 134.733 -2.5813 2.3235 0
M  V30 1406 C 133.687 -2.49348 3.47864 0
M  V30 1407 C 133.013 -3.8798 3.67934 0
M  V30 1408 C 134.313 -2.01424 4.81898 0
M  V30 1409 H 136.007 -0.89311 2.85769 0
M  V30 1410 H 133.553 -0.428177 1.37487 0
M  V30 1411 H 135.506 -3.31637 2.59991 0
M  V30 1412 H 134.23 -2.94386 1.41438 0
M  V30 1413 H 132.889 -1.78297 3.20321 0
M  V30 1414 H 132.537 -4.21597 2.74344 0
M  V30 1415 H 132.237 -3.82978 4.45648 0
M  V30 1416 H 133.761 -4.63101 3.97957 0
M  V30 1417 H 135.175 -2.64693 5.08538 0
M  V30 1418 H 133.572 -2.07413 5.63116 0
M  V30 1419 H 134.642 -0.967677 4.75146 0
M  V30 1420 N 135.985 -1.50799 -0.457987 0
M  V30 1421 C 137.231 -1.63648 -1.20792 0
M  V30 1422 C 137.586 -0.338662 -1.89396 0
M  V30 1423 O 136.879 0.664291 -1.79716 0
M  V30 1424 C 137.073 -2.76358 -2.2663 0
M  V30 1425 C 136.902 -4.16974 -1.68411 0
M  V30 1426 C 135.672 -4.83199 -1.47807 0
M  V30 1427 C 137.87 -5.00774 -1.17176 0
M  V30 1428 N 135.852 -6.07991 -0.849692 0
M  V30 1429 C 137.223 -6.16397 -0.667403 0
M  V30 1430 C 139.278 -4.86452 -1.06155 0
M  V30 1431 C 137.981 -7.19272 -0.0636908 0
M  V30 1432 C 140.007 -5.89515 -0.471759 0
M  V30 1433 C 139.369 -7.04397 0.0221557 0
M  V30 1434 H 135.468 -0.652888 -0.43042 0
M  V30 1435 H 138.052 -1.87962 -0.507785 0
M  V30 1436 H 136.223 -2.53744 -2.94056 0
M  V30 1437 H 137.955 -2.78496 -2.93636 0
M  V30 1438 H 134.71 -4.40714 -1.73403 0
M  V30 1439 H 135.134 -6.74733 -0.553537 0
M  V30 1440 H 139.776 -3.97907 -1.42932 0
M  V30 1441 H 137.494 -8.07481 0.316253 0
M  V30 1442 H 141.08 -5.805 -0.388671 0
M  V30 1443 H 139.96 -7.82782 0.471375 0
M  V30 1444 N 137.463 0.71206 -1.40597 0
M  V30 1445 C 138.373 1.8562 -1.43466 0
M  V30 1446 C 139.389 1.70902 -0.326902 0
M  V30 1447 O 140.565 1.93105 -0.572043 0
M  V30 1448 C 137.63 3.21451 -1.29884 0
M  V30 1449 C 136.691 3.48398 -2.50833 0
M  V30 1450 C 135.924 4.77749 -2.3789 0
M  V30 1451 O 136.147 5.53089 -1.39459 0
M  V30 1452 O 135.081 5.05111 -3.27333 0
M  V30 1453 H 138.907 1.86155 -2.39958 0
M  V30 1454 H 136.492 0.86295 -1.21957 0
M  V30 1455 H 138.374 4.02579 -1.24531 0
M  V30 1456 H 137.049 3.21636 -0.364997 0
M  V30 1457 H 135.956 2.67265 -2.61763 0
M  V30 1458 H 137.289 3.53014 -3.4299 0
M  V30 1459 N 138.941 1.26152 0.944643 0
M  V30 1460 C 139.904 1.07474 2.0244 0
M  V30 1461 C 140.904 0.0242064 1.60782 0
M  V30 1462 O 142.094 0.267302 1.72137 0
M  V30 1463 C 139.226 0.633956 3.34953 0
M  V30 1464 H 140.419 2.03336 2.20442 0
M  V30 1465 H 137.972 1.087 1.12312 0
M  V30 1466 H 138.707 -0.326811 3.22649 0
M  V30 1467 H 138.492 1.39247 3.66542 0
M  V30 1468 H 139.982 0.52501 4.14287 0
M  V30 1469 N 140.419 -1.14872 1.07899 0
M  V30 1470 C 141.349 -2.2193 0.725887 0
M  V30 1471 C 142.33 -1.67622 -0.28927 0
M  V30 1472 O 143.515 -1.93533 -0.160787 0
M  V30 1473 C 140.645 -3.47061 0.128856 0
M  V30 1474 C 139.599 -4.14363 1.07178 0
M  V30 1475 C 138.925 -5.33636 0.337229 0
M  V30 1476 C 140.225 -4.63492 2.40775 0
M  V30 1477 H 141.919 -2.51724 1.62097 0
M  V30 1478 H 139.465 -1.20991 0.780838 0
M  V30 1479 H 141.418 -4.21199 -0.130147 0
M  V30 1480 H 140.142 -3.16617 -0.80134 0
M  V30 1481 H 138.801 -3.42173 1.3158 0
M  V30 1482 H 138.449 -4.99449 -0.596606 0
M  V30 1483 H 138.149 -5.79609 0.965788 0
M  V30 1484 H 139.673 -6.10539 0.0861567 0
M  V30 1485 H 141.087 -5.2913 2.20669 0
M  V30 1486 H 139.484 -5.20148 2.99276 0
M  V30 1487 H 140.554 -3.78834 3.02676 0
M  V30 1488 N 141.898 -0.863906 -1.31812 0
M  V30 1489 C 143.175 -0.39275 -1.91616 0
M  V30 1490 C 143.555 1.12461 -1.7865 0
M  V30 1491 O 142.903 1.95045 -1.19037 0
M  V30 1492 C 143.113 -0.867385 -3.38049 0
M  V30 1493 C 144.461 -0.889966 -4.15168 0
M  V30 1494 O 145.485 -0.812635 -3.46806 0
M  V30 1495 O 144.344 -1.00079 -5.37258 0
M  V30 1496 H 141.438 -0.116358 -0.818773 0
M  V30 1497 H 143.984 -0.951418 -1.40521 0
M  V30 1498 H 142.756 -1.91081 -3.41473 0
M  V30 1499 H 142.379 -0.286687 -3.96565 0
M  V30 1500 N 143.376 1.44774 -0.622745 0
M  V30 1501 C 144.306 2.33382 0.0741861 0
M  V30 1502 C 145.287 1.47719 0.843387 0
M  V30 1503 O 146.472 1.76458 0.810934 0
M  V30 1504 C 143.602 3.30663 1.06204 0
M  V30 1505 C 142.556 4.26079 0.405037 0
M  V30 1506 C 141.882 5.13165 1.5022 0
M  V30 1507 C 143.182 5.1781 -0.683414 0
M  V30 1508 H 144.876 2.91905 -0.665713 0
M  V30 1509 H 142.422 1.40363 -0.321587 0
M  V30 1510 H 144.375 3.9153 1.55827 0
M  V30 1511 H 143.099 2.70331 1.83272 0
M  V30 1512 H 141.758 3.66532 -0.0704683 0
M  V30 1513 H 141.406 4.49191 2.26355 0
M  V30 1514 H 141.106 5.77812 1.06803 0
M  V30 1515 H 142.63 5.76902 2.00041 0
M  V30 1516 H 144.044 5.72661 -0.270631 0
M  V30 1517 H 142.441 5.91015 -1.04023 0
M  V30 1518 H 143.511 4.59326 -1.55395 0
M  V30 1519 N 144.854 0.36279 1.53368 0
M  V30 1520 C 146.102 -0.227326 2.00817 0
M  V30 1521 C 146.423 -1.49511 1.25186 0
M  V30 1522 O 145.693 -1.92482 0.364348 0
M  V30 1523 H 144.273 -0.0869923 0.741917 0
M  V30 1524 H 146.935 0.488381 1.88682 0
M  V30 1525 H 146.031 -0.456273 3.08747 0
M  V30 1526 N 146.332 -1.57332 0.0918853 0
M  V30 1527 C 147.609 -1.85691 -0.614668 0
M  V30 1528 C 147.989 -0.988146 -1.86545 0
M  V30 1529 O 147.337 -0.0597055 -2.28422 0
M  V30 1530 C 147.547 -3.36294 -0.933126 0
M  V30 1531 C 148.895 -4.04275 -1.29796 0
M  V30 1532 O 149.919 -3.41157 -1.02424 0
M  V30 1533 O 148.778 -5.1564 -1.81047 0
M  V30 1534 H 145.872 -0.767802 -0.307261 0
M  V30 1535 H 148.418 -1.69244 0.12434 0
M  V30 1536 H 147.19 -3.91273 -0.0456404 0
M  V30 1537 H 146.813 -3.58076 -1.72822 0
M  V30 1538 N 147.81 0.181792 -1.56548 0
M  V30 1539 C 149.226 0.53316 -1.50431 0
M  V30 1540 C 149.426 1.85184 -0.794297 0
M  V30 1541 O 148.482 2.50058 -0.350318 0
M  V30 1542 C 149.795 0.575597 -2.9514 0
M  V30 1543 C 151.343 0.663519 -3.05886 0
M  V30 1544 C 151.818 0.736946 -4.52032 0
M  V30 1545 N 153.309 0.800118 -4.56237 0
M  V30 1546 C 154.044 0.877327 -5.66649 0
M  V30 1547 N 153.54 0.916016 -6.86718 0
M  V30 1548 N 155.333 0.915542 -5.54594 0
M  V30 1549 H 147.484 -0.683025 -2.01118 0
M  V30 1550 H 149.747 -0.244988 -0.915797 0
M  V30 1551 H 149.453 -0.324482 -3.502 0
M  V30 1552 H 149.327 1.42572 -3.49218 0
M  V30 1553 H 151.714 1.55403 -2.50867 0
M  V30 1554 H 151.795 -0.21307 -2.54911 0
M  V30 1555 H 151.439 -0.149262 -5.07681 0
M  V30 1556 H 151.369 1.62953 -5.00753 0
M  V30 1557 H 153.86 0.778926 -3.69785 0
M  V30 1558 H 154.173 0.975813 -7.66614 0
M  V30 1559 H 152.518 0.884469 -6.89349 0
M  V30 1560 H 155.709 0.882245 -4.59711 0
M  V30 1561 H 155.882 0.972253 -6.40665 0
M  V30 1562 N 149.288 1.51039 0.449983 0
M  V30 1563 C 150.534 1.63322 1.20223 0
M  V30 1564 C 150.867 0.34241 1.91158 0
M  V30 1565 O 150.142 -0.657344 1.83055 0
M  V30 1566 C 150.425 2.82801 2.22925 0
M  V30 1567 C 150.278 4.21823 1.56157 0
M  V30 1568 C 151.597 2.97807 3.24035 0
M  V30 1569 H 148.716 0.594407 0.435718 0
M  V30 1570 H 151.358 1.83489 0.493136 0
M  V30 1571 H 149.508 2.65738 2.834 0
M  V30 1572 H 151.18 4.50526 0.991162 0
M  V30 1573 H 149.423 4.25105 0.864172 0
M  V30 1574 H 150.094 5.01391 2.30891 0
M  V30 1575 H 152.57 3.13497 2.73603 0
M  V30 1576 H 151.446 3.82992 3.93202 0
M  V30 1577 H 151.707 2.09328 3.89402 0
M  V30 1578 N 150.766 -0.704594 1.40972 0
M  V30 1579 C 152.012 -1.46675 1.40051 0
M  V30 1580 C 152.345 -1.94199 0.00641102 0
M  V30 1581 O 151.62 -1.68916 -0.964235 0
M  V30 1582 C 151.903 -2.68505 2.39952 0
M  V30 1583 C 151.756 -2.26805 3.88432 0
M  V30 1584 C 153.075 -3.70686 2.37233 0
M  V30 1585 H 150.194 -0.532015 0.510028 0
M  V30 1586 H 152.836 -0.803255 1.72185 0
M  V30 1587 H 150.986 -3.25114 2.1268 0
M  V30 1588 H 152.658 -1.75592 4.26574 0
M  V30 1589 H 150.901 -1.58685 4.03734 0
M  V30 1590 H 151.572 -3.14181 4.53866 0
M  V30 1591 H 154.048 -3.23731 2.61415 0
M  V30 1592 H 152.924 -4.53553 3.09162 0
M  V30 1593 H 153.185 -4.19754 1.38777 0
M  V30 1594 N 152.244 -1.26651 -0.937939 0
M  V30 1595 C 153.174 -1.10993 -2.05433 0
M  V30 1596 C 154.155 -0.0142161 -1.70094 0
M  V30 1597 O 155.34 -0.186837 -1.93299 0
M  V30 1598 C 152.47 -0.745561 -3.39203 0
M  V30 1599 C 151.424 -1.79337 -3.88616 0
M  V30 1600 C 150.75 -1.28324 -5.19073 0
M  V30 1601 C 152.05 -3.19553 -4.13138 0
M  V30 1602 H 153.744 -2.0438 -2.1879 0
M  V30 1603 H 151.29 -0.984041 -1.05131 0
M  V30 1604 H 153.243 -0.622888 -4.16771 0
M  V30 1605 H 151.967 0.22401 -3.25831 0
M  V30 1606 H 150.626 -1.90477 -3.13231 0
M  V30 1607 H 150.274 -0.303414 -5.02084 0
M  V30 1608 H 149.974 -1.98369 -5.53103 0
M  V30 1609 H 151.498 -1.1733 -5.99221 0
M  V30 1610 H 152.912 -3.11471 -4.81309 0
M  V30 1611 H 151.309 -3.87218 -4.58457 0
M  V30 1612 H 152.379 -3.65368 -3.18801 0
M  V30 1613 N 153.722 1.14298 -1.08507 0
M  V30 1614 C 154.968 1.85633 -0.816581 0
M  V30 1615 C 155.301 1.82784 0.656021 0
M  V30 1616 O 154.576 1.25926 1.48233 0
M  V30 1617 C 154.859 3.34223 -1.34041 0
M  V30 1618 C 154.712 3.45639 -2.87843 0
M  V30 1619 C 156.031 4.29356 -0.9665 0
M  V30 1620 H 153.15 0.67402 -0.298104 0
M  V30 1621 H 155.792 1.34214 -1.34487 0
M  V30 1622 H 153.942 3.78144 -0.89104 0
M  V30 1623 H 155.614 3.10498 -3.41158 0
M  V30 1624 H 153.857 2.86817 -3.25451 0
M  V30 1625 H 154.528 4.50089 -3.19569 0
M  V30 1626 H 157.004 3.93457 -1.35391 0
M  V30 1627 H 155.88 5.3178 -1.3602 0
M  V30 1628 H 156.141 4.41919 0.126362 0
M  V30 1629 N 155.201 0.870884 1.31352 0
M  V30 1630 C 156.447 0.482987 1.96965 0
M  V30 1631 C 156.78 -0.962462 1.68672 0
M  V30 1632 O 156.055 -1.6779 0.98371 0
M  V30 1633 C 156.338 0.741752 3.52378 0
M  V30 1634 C 156.191 2.2368 3.9024 0
M  V30 1635 C 157.51 0.208838 4.39604 0
M  V30 1636 H 154.629 0.176955 0.715441 0
M  V30 1637 H 157.271 1.09229 1.55464 0
M  V30 1638 H 155.421 0.223149 3.87859 0
M  V30 1639 H 157.093 2.82273 3.64856 0
M  V30 1640 H 155.336 2.70901 3.38814 0
M  V30 1641 H 156.007 2.3685 4.98604 0
M  V30 1642 H 158.483 0.652529 4.10952 0
M  V30 1643 H 157.359 0.419336 5.47296 0
M  V30 1644 H 157.62 -0.889275 4.33064 0
M  V30 1645 N 156.679 -1.44442 0.630414 0
M  V30 1646 C 157.629 -2.27794 -0.0968103 0
M  V30 1647 C 158.613 -1.38624 -0.816834 0
M  V30 1648 O 159.805 -1.62438 -0.70306 0
M  V30 1649 C 156.934 -3.25929 -1.07819 0
M  V30 1650 C 156.02 -4.22588 -0.357826 0
M  V30 1651 N 156.411 -5.0207 0.613169 0
M  V30 1652 C 154.709 -4.41914 -0.602365 0
M  V30 1653 C 155.41 -5.72351 1.03871 0
M  V30 1654 N 154.386 -5.42287 0.377642 0
M  V30 1655 H 158.188 -2.86653 0.648621 0
M  V30 1656 H 155.702 -1.55871 0.455862 0
M  V30 1657 H 157.699 -3.84399 -1.61378 0
M  V30 1658 H 156.359 -2.68631 -1.82393 0
M  V30 1659 H 157.37 -5.08331 0.990947 0
M  V30 1660 H 154.047 -3.95714 -1.33103 0
M  V30 1661 H 155.437 -6.4619 1.84086 0
M  V30 1662 N 158.157 -0.370918 -1.53173 0
M  V30 1663 C 159.434 0.273754 -1.93675 0
M  V30 1664 C 159.814 1.65938 -1.3049 0
M  V30 1665 O 159.162 2.23698 -0.465999 0
M  V30 1666 C 159.372 0.318602 -3.47543 0
M  V30 1667 C 160.72 0.556392 -4.20939 0
M  V30 1668 O 161.744 0.399587 -3.53952 0
M  V30 1669 O 160.603 0.862133 -5.39657 0
M  V30 1670 H 157.697 0.165448 -0.810281 0
M  V30 1671 H 160.243 -0.42409 -1.64315 0
M  V30 1672 H 159.015 -0.652687 -3.85818 0
M  V30 1673 H 158.638 1.06212 -3.83151 0
M  V30 1674 N 159.635 1.57281 -0.100228 0
M  V30 1675 C 160.881 1.95626 0.556946 0
M  V30 1676 C 161.236 0.981655 1.65473 0
M  V30 1677 O 160.529 0.00849847 1.91598 0
M  V30 1678 C 160.723 3.38305 1.15259 0
M  V30 1679 C 160.552 4.49555 0.114035 0
M  V30 1680 C 159.322 5.0434 -0.311266 0
M  V30 1681 C 161.52 5.10051 -0.659768 0
M  V30 1682 N 159.502 5.99152 -1.33755 0
M  V30 1683 C 160.873 6.00628 -1.53774 0
M  V30 1684 C 162.928 4.92772 -0.712723 0
M  V30 1685 C 161.631 6.7578 -2.46403 0
M  V30 1686 C 163.657 5.6859 -1.62663 0
M  V30 1687 C 163.019 6.58838 -2.49222 0
M  V30 1688 H 159.118 0.7624 0.173982 0
M  V30 1689 H 161.702 1.93829 -0.183988 0
M  V30 1690 H 159.873 3.40786 1.86332 0
M  V30 1691 H 161.605 3.63817 1.77254 0
M  V30 1692 H 158.36 4.73537 0.0774812 0
M  V30 1693 H 158.784 6.5126 -1.84905 0
M  V30 1694 H 163.426 4.22761 -0.0576648 0
M  V30 1695 H 161.144 7.4505 -3.12931 0
M  V30 1696 H 164.73 5.57233 -1.67281 0
M  V30 1697 H 163.61 7.16479 -3.18791 0
M  V30 1698 N 161.113 -0.173488 1.56642 0
M  V30 1699 C 162.361 -0.888706 1.81512 0
M  V30 1700 C 162.682 -1.82875 0.676872 0
M  V30 1701 O 161.952 -1.93536 -0.303414 0
M  V30 1702 H 160.532 -0.331164 0.669582 0
M  V30 1703 H 163.194 -0.173823 1.94123 0
M  V30 1704 H 162.29 -1.46691 2.75478 0
M  V30 1705 N 162.591 -1.51276 -0.441967 0
M  V30 1706 C 163.816 -1.67799 -1.21895 0
M  V30 1707 C 164.241 -0.372864 -1.84367 0
M  V30 1708 O 163.599 0.666501 -1.68604 0
M  V30 1709 C 163.647 -2.79199 -2.28211 0
M  V30 1710 O 162.751 -2.42479 -3.33583 0
M  V30 1711 H 162.092 -0.559649 -0.357336 0
M  V30 1712 H 164.622 -1.97815 -0.522522 0
M  V30 1713 H 164.632 -3.03146 -2.73069 0
M  V30 1714 H 163.307 -3.73906 -1.82118 0
M  V30 1715 H 161.884 -2.29087 -2.94234 0
M  V30 1716 N 164.069 0.697108 -1.41344 0
M  V30 1717 C 165.032 1.79281 -1.42797 0
M  V30 1718 C 166.032 1.57607 -0.318837 0
M  V30 1719 O 167.222 1.64309 -0.578642 0
M  V30 1720 C 164.354 3.17632 -1.23785 0
M  V30 1721 H 165.547 1.79385 -2.40335 0
M  V30 1722 H 163.1 0.904582 -1.27464 0
M  V30 1723 H 163.835 3.23167 -0.270814 0
M  V30 1724 H 163.62 3.34765 -2.04144 0
M  V30 1725 H 165.11 3.97617 -1.27633 0
M  V30 1726 N 165.547 1.27147 0.931209 0
M  V30 1727 C 166.477 1.12081 2.04842 0
M  V30 1728 C 167.458 0.0232364 1.70084 0
M  V30 1729 O 168.643 0.197085 1.93197 0
M  V30 1730 C 165.773 0.76354 3.38803 0
M  V30 1731 C 164.727 1.81396 3.87659 0
M  V30 1732 C 164.053 1.31075 5.18385 0
M  V30 1733 C 165.353 3.21739 4.11438 0
M  V30 1734 H 167.047 2.05537 2.17703 0
M  V30 1735 H 164.593 0.989603 1.04608 0
M  V30 1736 H 166.546 0.644982 4.16435 0
M  V30 1737 H 165.27 -0.206727 3.25945 0
M  V30 1738 H 163.929 1.92136 3.12217 0
M  V30 1739 H 163.577 0.330037 5.01916 0
M  V30 1740 H 163.277 2.013 5.52044 0
M  V30 1741 H 164.801 1.20506 5.98591 0
M  V30 1742 H 166.215 3.14019 4.79651 0
M  V30 1743 H 164.612 3.89644 4.56397 0
M  V30 1744 H 165.682 3.67054 3.16859 0
M  V30 1745 N 167.025 -1.13721 1.09112 0
M  V30 1746 C 168.273 -1.84559 0.823562 0
M  V30 1747 C 168.594 -1.83754 -0.652658 0
M  V30 1748 O 167.864 -1.29102 -1.47342 0
M  V30 1749 H 166.444 -0.683376 0.301673 0
M  V30 1750 H 169.106 -1.37771 1.37859 0
M  V30 1751 H 168.202 -2.8917 1.17419 0
M  V30 1752 N 168.503 -0.877838 -1.30888 0
M  V30 1753 C 169.75 -0.492696 -1.96415 0
M  V30 1754 C 170.078 0.956671 -1.69346 0
M  V30 1755 O 169.333 1.68993 -0.986913 0
M  V30 1756 C 169.632 -0.705748 -3.50363 0
M  V30 1757 C 169.298 -2.1291 -3.97467 0
M  V30 1758 C 167.96 -2.51834 -4.1004 0
M  V30 1759 C 170.312 -3.05702 -4.22132 0
M  V30 1760 C 167.64 -3.82775 -4.44635 0
M  V30 1761 C 169.992 -4.36166 -4.58194 0
M  V30 1762 C 168.656 -4.74993 -4.68975 0
M  V30 1763 H 167.926 -0.18029 -0.718733 0
M  V30 1764 H 170.573 -1.11233 -1.55883 0
M  V30 1765 H 168.878 -0.00303058 -3.918 0
M  V30 1766 H 170.575 -0.387456 -3.99124 0
M  V30 1767 H 167.165 -1.81694 -3.88182 0
M  V30 1768 H 171.349 -2.76853 -4.11906 0
M  V30 1769 H 166.605 -4.12609 -4.51181 0
M  V30 1770 H 170.779 -5.08111 -4.76231 0
M  V30 1771 H 168.406 -5.76495 -4.95537 0
M  V30 1772 N 169.982 1.44106 -0.638065 0
M  V30 1773 C 171.259 1.95453 -0.0759321 0
M  V30 1774 C 171.639 1.57984 1.40015 0
M  V30 1775 O 170.987 0.857361 2.11806 0
M  V30 1776 C 171.197 3.47655 -0.306132 0
M  V30 1777 C 172.545 4.24114 -0.203008 0
M  V30 1778 O 173.569 3.55405 -0.237871 0
M  V30 1779 O 172.428 5.46381 -0.113827 0
M  V30 1780 H 169.522 0.826797 0.0183332 0
M  V30 1781 H 172.068 1.54122 -0.710251 0
M  V30 1782 H 170.84 3.68 -1.3301 0
M  V30 1783 H 170.463 3.95949 0.361991 0
M  V30 1784 N 171.46 0.379036 1.52974 0
M  V30 1785 C 172.706 -0.199244 2.02422 0
M  V30 1786 C 173.061 -1.4532 1.26095 0
M  V30 1787 O 172.354 -1.88377 0.34996 0
M  V30 1788 C 172.548 -0.53096 3.53434 0
M  V30 1789 C 172.377 0.689298 4.44386 0
M  V30 1790 C 171.147 1.20546 4.9071 0
M  V30 1791 C 173.345 1.55856 4.90116 0
M  V30 1792 N 171.327 2.38434 5.65705 0
M  V30 1793 C 172.698 2.58396 5.63588 0
M  V30 1794 C 174.753 1.57986 4.7217 0
M  V30 1795 C 173.456 3.62939 6.21022 0
M  V30 1796 C 175.482 2.6143 5.30479 0
M  V30 1797 C 174.844 3.62693 6.03849 0
M  V30 1798 H 170.943 -0.0352671 0.781204 0
M  V30 1799 H 173.527 0.526614 1.87443 0
M  V30 1800 H 171.698 -1.22588 3.68547 0
M  V30 1801 H 173.43 -1.0955 3.89591 0
M  V30 1802 H 170.185 0.768022 4.67331 0
M  V30 1803 H 170.609 2.98055 6.07859 0
M  V30 1804 H 175.251 0.810475 4.14959 0
M  V30 1805 H 172.969 4.40751 6.77321 0
M  V30 1806 H 176.555 2.63949 5.18481 0
M  V30 1807 H 175.435 4.41424 6.48163 0
M  V30 1808 N 172.938 -1.57226 0.108567 0
M  V30 1809 C 173.901 -2.13602 -0.831082 0
M  V30 1810 C 174.901 -1.06841 -1.20173 0
M  V30 1811 O 176.091 -1.32666 -1.12895 0
M  V30 1812 C 173.223 -2.66769 -2.12243 0
M  V30 1813 H 174.416 -2.97951 -0.341317 0
M  V30 1814 H 171.969 -1.55667 -0.14057 0
M  V30 1815 H 172.704 -1.85977 -2.65675 0
M  V30 1816 H 172.489 -3.44839 -1.86625 0
M  V30 1817 H 173.979 -3.10332 -2.79435 0
M  V30 1818 N 174.416 0.165178 -1.56732 0
M  V30 1819 C 175.832 0.517174 -1.50988 0
M  V30 1820 C 176.032 1.84331 -0.813894 0
M  V30 1821 O 175.088 2.49672 -0.37682 0
M  V30 1822 C 176.401 0.544261 -2.95733 0
M  V30 1823 C 177.949 0.631039 -3.06573 0
M  V30 1824 C 178.424 0.68896 -4.52788 0
M  V30 1825 N 179.915 0.751683 -4.5706 0
M  V30 1826 C 180.65 0.817177 -5.67547 0
M  V30 1827 N 180.146 0.843129 -6.8765 0
M  V30 1828 N 181.939 0.856668 -5.55534 0
M  V30 1829 H 174.09 -0.704318 -2.00382 0
M  V30 1830 H 176.353 -0.254687 -0.913148 0
M  V30 1831 H 176.059 -0.361607 -3.49836 0
M  V30 1832 H 175.933 1.3886 -3.5071 0
M  V30 1833 H 178.32 1.52733 -2.52501 0
M  V30 1834 H 178.401 -0.240095 -2.54671 0
M  V30 1835 H 178.045 -0.2031 -5.07494 0
M  V30 1836 H 177.975 1.57633 -5.02454 0
M  V30 1837 H 180.466 0.739661 -3.70591 0
M  V30 1838 H 180.779 0.894448 -7.67606 0
M  V30 1839 H 179.124 0.811304 -6.90248 0
M  V30 1840 H 182.315 0.833437 -4.60621 0
M  V30 1841 H 182.488 0.904247 -6.4166 0
M  V30 1842 N 175.894 1.51508 0.433938 0
M  V30 1843 C 177.31 1.39759 0.770682 0
M  V30 1844 C 177.51 0.482594 1.95636 0
M  V30 1845 O 176.566 -0.0609691 2.52426 0
M  V30 1846 C 177.879 2.81851 1.04787 0
M  V30 1847 C 179.427 2.91025 1.1521 0
M  V30 1848 C 179.902 4.34032 1.46219 0
M  V30 1849 N 181.393 4.37154 1.53136 0
M  V30 1850 C 182.128 5.4484 1.78709 0
M  V30 1851 N 181.624 6.62682 2.02051 0
M  V30 1852 N 183.417 5.32324 1.80519 0
M  V30 1853 H 175.568 2.09548 -0.346892 0
M  V30 1854 H 177.831 0.943446 -0.0928074 0
M  V30 1855 H 177.537 3.50815 0.249304 0
M  V30 1856 H 177.411 3.21386 1.97461 0
M  V30 1857 H 179.798 2.22257 1.94128 0
M  V30 1858 H 179.879 2.54983 0.204281 0
M  V30 1859 H 179.523 5.03351 0.678274 0
M  V30 1860 H 179.453 4.6759 2.42212 0
M  V30 1861 H 181.944 3.52197 1.36987 0
M  V30 1862 H 182.257 7.40543 2.20943 0
M  V30 1863 H 180.602 6.65791 1.99366 0
M  V30 1864 H 183.793 4.39246 1.61805 0
M  V30 1865 H 183.966 6.16328 2.00111 0
M  V30 1866 N 177.372 -0.689602 1.41712 0
M  V30 1867 C 178.322 -1.79571 1.40493 0
M  V30 1868 C 179.306 -1.58473 0.278409 0
M  V30 1869 O 180.498 -1.69204 0.519532 0
M  V30 1870 C 177.627 -3.17923 1.29536 0
M  V30 1871 C 176.713 -3.44695 2.47075 0
M  V30 1872 N 177.104 -3.42132 3.72531 0
M  V30 1873 C 175.402 -3.75269 2.41017 0
M  V30 1874 C 176.103 -3.67976 4.50521 0
M  V30 1875 N 175.079 -3.88014 3.80718 0
M  V30 1876 H 178.881 -1.75961 2.35404 0
M  V30 1877 H 176.395 -0.889839 1.35851 0
M  V30 1878 H 178.392 -3.97167 1.26745 0
M  V30 1879 H 177.052 -3.22741 0.356153 0
M  V30 1880 H 178.063 -3.22375 4.05333 0
M  V30 1881 H 174.74 -3.87421 1.55599 0
M  V30 1882 H 176.13 -3.7208 5.59469 0
M  V30 1883 N 178.85 -1.27639 -0.924453 0
M  V30 1884 C 180.266 -1.05113 -1.20097 0
M  V30 1885 C 180.466 0.213262 -2.00368 0
M  V30 1886 O 179.522 0.91787 -2.35226 0
M  V30 1887 C 180.835 -2.29244 -1.94596 0
M  V30 1888 C 182.383 -2.34315 -2.07522 0
M  V30 1889 C 182.858 -3.58183 -2.85427 0
M  V30 1890 N 184.349 -3.5876 -2.92994 0
M  V30 1891 C 185.084 -4.51277 -3.53746 0
M  V30 1892 N 184.58 -5.54102 -4.15863 0
M  V30 1893 N 186.373 -4.38894 -3.51181 0
M  V30 1894 H 178.524 -2.08821 -0.388264 0
M  V30 1895 H 180.787 -0.918568 -0.234385 0
M  V30 1896 H 180.493 -3.21301 -1.43034 0
M  V30 1897 H 180.367 -2.34816 -2.95197 0
M  V30 1898 H 182.754 -1.42762 -2.58269 0
M  V30 1899 H 182.835 -2.32744 -1.06131 0
M  V30 1900 H 182.479 -4.50074 -2.35363 0
M  V30 1901 H 182.409 -3.57006 -3.8711 0
M  V30 1902 H 184.9 -2.84398 -2.4885 0
M  V30 1903 H 185.213 -6.20859 -4.60168 0
M  V30 1904 H 183.558 -5.57941 -4.144 0
M  V30 1905 H 186.749 -3.57772 -3.01856 0
M  V30 1906 H 186.922 -5.11186 -3.98237 0
M  V30 1907 N 180.328 1.1314 -1.09713 0
M  V30 1908 C 181.238 2.22242 -0.751367 0
M  V30 1909 C 182.254 1.72224 0.247938 0
M  V30 1910 O 183.43 2.01205 0.0885463 0
M  V30 1911 C 180.495 3.46231 -0.180274 0
M  V30 1912 C 179.556 4.11125 -1.2359 0
M  V30 1913 C 178.789 5.29195 -0.691966 0
M  V30 1914 O 179.012 5.68342 0.48414 0
M  V30 1915 O 177.946 5.84214 -1.44838 0
M  V30 1916 H 181.772 2.54197 -1.66186 0
M  V30 1917 H 179.357 1.21331 -0.871735 0
M  V30 1918 H 181.239 4.21185 0.134739 0
M  V30 1919 H 179.914 3.1597 0.703185 0
M  V30 1920 H 178.821 3.37985 -1.60366 0
M  V30 1921 H 180.154 4.45524 -2.09211 0
M  V30 1922 N 181.806 0.884767 1.30421 0
M  V30 1923 C 183.222 0.57874 1.48737 0
M  V30 1924 C 183.422 -0.883567 1.81095 0
M  V30 1925 O 182.478 -1.6648 1.89844 0
M  V30 1926 C 183.791 1.49171 2.61091 0
M  V30 1927 C 185.339 1.49532 2.74971 0
M  V30 1928 C 185.814 2.39421 3.90438 0
M  V30 1929 N 187.305 2.37383 3.97748 0
M  V30 1930 C 188.04 3.03647 4.86401 0
M  V30 1931 N 187.536 3.79136 5.79852 0
M  V30 1932 N 189.329 2.9288 4.79768 0
M  V30 1933 H 181.48 1.83075 1.0769 0
M  V30 1934 H 183.743 0.783637 0.533495 0
M  V30 1935 H 183.449 2.53291 2.44001 0
M  V30 1936 H 183.323 1.20113 3.57565 0
M  V30 1937 H 185.71 0.46163 2.91467 0
M  V30 1938 H 185.791 1.8262 1.79119 0
M  V30 1939 H 185.435 3.42874 3.74699 0
M  V30 1940 H 185.365 2.03649 4.85628 0
M  V30 1941 H 187.856 1.82525 3.30897 0
M  V30 1942 H 188.169 4.26789 6.4426 0
M  V30 1943 H 186.514 3.83243 5.79784 0
M  V30 1944 H 189.705 2.33433 4.05742 0
M  V30 1945 H 189.878 3.448 5.4865 0
M  V30 1946 N 183.284 -1.43765 0.645699 0
M  V30 1947 C 184.53 -2.02197 0.156271 0
M  V30 1948 C 184.863 -1.50776 -1.22393 0
M  V30 1949 O 184.138 -0.697771 -1.81553 0
M  V30 1950 C 184.421 -3.59749 0.158872 0
M  V30 1951 C 184.274 -4.21419 1.57245 0
M  V30 1952 C 185.593 -4.37149 -0.50879 0
M  V30 1953 H 182.712 -0.734694 0.0582602 0
M  V30 1954 H 185.354 -1.71157 0.824951 0
M  V30 1955 H 183.504 -3.86325 -0.410525 0
M  V30 1956 H 185.176 -4.059 2.19186 0
M  V30 1957 H 183.419 -3.78356 2.122 0
M  V30 1958 H 184.09 -5.30482 1.52619 0
M  V30 1959 H 186.566 -4.16093 -0.024412 0
M  V30 1960 H 185.442 -5.4683 -0.476213 0
M  V30 1961 H 185.703 -4.12839 -1.58165 0
M  V30 1962 N 184.763 -0.387143 -1.52771 0
M  V30 1963 C 185.695 0.484089 -2.2403 0
M  V30 1964 C 186.708 1.02849 -1.26198 0
M  V30 1965 O 187.897 0.931186 -1.52286 0
M  V30 1966 C 184.997 1.68337 -2.94136 0
M  V30 1967 C 184.17 1.26672 -4.18656 0
M  V30 1968 C 183.229 2.33045 -4.7178 0
M  V30 1969 O 182.255 1.94541 -5.34923 0
M  V30 1970 N 183.457 3.64929 -4.5145 0
M  V30 1971 H 186.222 -0.126404 -2.99433 0
M  V30 1972 H 183.783 -0.213392 -1.60488 0
M  V30 1973 H 185.775 2.39019 -3.26577 0
M  V30 1974 H 184.345 2.20025 -2.22053 0
M  V30 1975 H 183.565 0.388878 -3.92277 0
M  V30 1976 H 184.853 0.964964 -4.99566 0
M  V30 1977 H 184.251 3.98974 -4.01044 0
M  V30 1978 H 182.808 4.31651 -4.88386 0
M  V30 1979 N 186.241 1.57166 -0.116904 0
M  V30 1980 C 187.489 1.94737 0.540533 0
M  V30 1981 C 187.81 1.00096 1.67349 0
M  V30 1982 O 187.08 0.0568854 1.95817 0
M  V30 1983 H 185.66 0.718981 0.202669 0
M  V30 1984 H 188.322 1.94017 -0.185353 0
M  V30 1985 H 187.418 2.97719 0.936483 0
M  V30 1986 N 187.719 -0.156864 1.56817 0
M  V30 1987 C 188.968 -0.869504 1.81996 0
M  V30 1988 C 189.281 -1.82777 0.696545 0
M  V30 1989 O 190.487 -2.58384 0.833658 0
M  V30 1990 C 188.943 -1.59679 3.22538 0
M  V30 1991 C 188.551 -0.681431 4.42787 0
M  V30 1992 C 190.295 -2.2968 3.56997 0
M  V30 1993 C 188.202 -1.40978 5.74351 0
M  V30 1994 H 187.132 -0.328438 0.678708 0
M  V30 1995 H 189.783 -0.1223 1.83092 0
M  V30 1996 H 188.165 -2.38927 3.158 0
M  V30 1997 H 189.339 0.0751166 4.60739 0
M  V30 1998 H 187.654 -0.0903431 4.16302 0
M  V30 1999 H 190.251 -2.84794 4.52544 0
M  V30 2000 H 190.594 -3.05707 2.82576 0
M  V30 2001 H 191.127 -1.57361 3.65352 0
M  V30 2002 H 187.866 -0.691561 6.51842 0
M  V30 2003 H 187.386 -2.13929 5.60352 0
M  V30 2004 H 189.065 -1.95337 6.16808 0
M  V30 2005 N 189.197 -1.51736 -0.425897 0
M  V30 2006 C 190.16 -1.73271 -1.50032 0
M  V30 2007 C 191.16 -0.602639 -1.4908 0
M  V30 2008 O 192.35 -0.87033 -1.509 0
M  V30 2009 C 189.482 -1.79969 -2.89523 0
M  V30 2010 H 190.675 -2.69172 -1.32237 0
M  V30 2011 H 188.228 -1.41899 -0.65532 0
M  V30 2012 H 188.963 -0.859241 -3.1271 0
M  V30 2013 H 188.748 -2.62109 -2.91619 0
M  V30 2014 H 190.238 -1.9843 -3.67444 0
M  V30 2015 N 190.675 0.682077 -1.42076 0
M  V30 2016 C 191.905 1.46844 -1.45329 0
M  V30 2017 C 192.313 1.89102 -0.0609328 0
M  V30 2018 O 191.656 1.58238 0.933082 0
M  V30 2019 C 191.718 2.75375 -2.31104 0
M  V30 2020 C 191.382 2.55238 -3.79081 0
M  V30 2021 C 192.379 2.20309 -4.70914 0
M  V30 2022 C 190.064 2.70459 -4.2327 0
M  V30 2023 C 192.058 2.00859 -6.04925 0
M  V30 2024 C 189.745 2.50624 -5.57343 0
M  V30 2025 C 190.743 2.15876 -6.47986 0
M  V30 2026 O 190.431 1.96227 -7.79583 0
M  V30 2027 H 190.163 0.4586 -0.496651 0
M  V30 2028 H 192.717 0.846131 -1.87162 0
M  V30 2029 H 190.947 3.40061 -1.84107 0
M  V30 2030 H 192.636 3.37231 -2.25898 0
M  V30 2031 H 193.402 2.08153 -4.38061 0
M  V30 2032 H 189.281 2.96485 -3.53012 0
M  V30 2033 H 192.825 1.7366 -6.75639 0
M  V30 2034 H 188.722 2.62375 -5.89771 0
M  V30 2035 H 189.49 2.10883 -7.90867 0
M  V30 2036 N 192.153 1.28127 0.917671 0
M  V30 2037 C 193.086 1.06039 2.02067 0
M  V30 2038 C 194.064 -0.0223285 1.62585 0
M  V30 2039 O 195.248 0.124823 1.88086 0
M  V30 2040 C 192.375 0.610596 3.33151 0
M  V30 2041 C 191.421 1.68937 3.91615 0
M  V30 2042 S 192.254 3.28437 4.22953 0
M  V30 2043 C 193.41 2.85283 5.57103 0
M  V30 2044 H 193.643 1.99425 2.20493 0
M  V30 2045 H 191.176 1.12071 1.06205 0
M  V30 2046 H 193.134 0.357778 4.08938 0
M  V30 2047 H 191.795 -0.303364 3.12632 0
M  V30 2048 H 190.988 1.32619 4.86239 0
M  V30 2049 H 190.59 1.89478 3.2245 0
M  V30 2050 H 192.882 2.3121 6.36827 0
M  V30 2051 H 193.825 3.7869 5.98331 0
M  V30 2052 H 194.233 2.24118 5.18104 0
M  V30 2053 N 193.631 -1.12557 1.10312 0
M  V30 2054 C 194.541 -2.21841 0.763142 0
M  V30 2055 C 195.557 -1.72354 -0.238801 0
M  V30 2056 O 196.733 -2.01249 -0.0778746 0
M  V30 2057 C 193.798 -3.46131 0.198632 0
M  V30 2058 C 192.859 -4.10464 1.25769 0
M  V30 2059 C 192.092 -5.28821 0.72002 0
M  V30 2060 O 192.315 -5.6859 -0.453993 0
M  V30 2061 O 191.249 -5.83437 1.47935 0
M  V30 2062 H 195.075 -2.53312 1.67532 0
M  V30 2063 H 192.66 -1.20867 0.878157 0
M  V30 2064 H 194.542 -4.2125 -0.112401 0
M  V30 2065 H 193.217 -3.16338 -0.686419 0
M  V30 2066 H 192.124 -3.3713 1.62156 0
M  V30 2067 H 193.457 -4.44408 2.11571 0
M  V30 2068 N 195.109 -0.891671 -1.2995 0
M  V30 2069 C 196.072 -0.36828 -2.26222 0
M  V30 2070 C 197.072 0.493014 -1.53056 0
M  V30 2071 O 198.262 0.299213 -1.71611 0
M  V30 2072 C 195.394 0.47442 -3.37583 0
M  V30 2073 H 196.587 -1.21844 -2.74033 0
M  V30 2074 H 194.14 -0.669107 -1.41254 0
M  V30 2075 H 194.875 1.34489 -2.95099 0
M  V30 2076 H 194.66 -0.142615 -3.91841 0
M  V30 2077 H 196.15 0.83218 -4.09224 0
M  V30 2078 N 196.587 1.43421 -0.653314 0
M  V30 2079 C 197.836 2.01032 -0.164076 0
M  V30 2080 C 198.149 1.52147 1.22926 0
M  V30 2081 O 199.355 2.02031 1.81371 0
M  V30 2082 C 197.811 3.59082 -0.24252 0
M  V30 2083 C 197.419 4.1696 -1.63855 0
M  V30 2084 C 199.163 4.24079 0.18911 0
M  V30 2085 C 197.07 5.67304 -1.67092 0
M  V30 2086 H 196 0.751798 -0.0575769 0
M  V30 2087 H 198.651 1.6439 -0.815362 0
M  V30 2088 H 197.033 3.93125 0.476276 0
M  V30 2089 H 198.207 3.94416 -2.38271 0
M  V30 2090 H 196.522 3.64335 -2.01616 0
M  V30 2091 H 199.119 5.34381 0.184775 0
M  V30 2092 H 199.462 3.98005 1.22056 0
M  V30 2093 H 199.995 3.94918 -0.477938 0
M  V30 2094 H 196.734 5.98145 -2.68146 0
M  V30 2095 H 196.254 5.91904 -0.970014 0
M  V30 2096 H 197.933 6.31344 -1.4147 0
M  V30 2097 N 198.065 0.39524 1.52563 0
M  V30 2098 C 199.028 -0.425001 2.25225 0
M  V30 2099 C 200.028 -0.985266 1.27079 0
M  V30 2100 O 201.218 -0.866332 1.5113 0
M  V30 2101 C 198.35 -1.59686 3.01186 0
M  V30 2102 H 199.543 0.211233 2.99155 0
M  V30 2103 H 197.096 0.147472 1.55603 0
M  V30 2104 H 197.831 -2.27035 2.31572 0
M  V30 2105 H 197.616 -1.20176 3.73229 0
M  V30 2106 H 199.106 -2.17743 3.5634 0
M  V30 2107 N 199.544 -1.57102 0.125237 0
M  V30 2108 C 200.477 -2.11371 -0.860094 0
M  V30 2109 C 201.455 -1.03168 -1.25679 0
M  V30 2110 O 202.639 -1.30862 -1.35674 0
M  V30 2111 C 199.766 -2.61555 -2.1519 0
M  V30 2112 C 198.812 -3.81701 -1.9028 0
M  V30 2113 S 199.645 -5.23797 -1.11343 0
M  V30 2114 C 200.801 -5.77353 -2.41689 0
M  V30 2115 H 201.034 -2.94617 -0.39852 0
M  V30 2116 H 198.567 -1.54145 -0.0886555 0
M  V30 2117 H 200.525 -2.91122 -2.89411 0
M  V30 2118 H 199.186 -1.78479 -2.58465 0
M  V30 2119 H 198.379 -4.14985 -2.86014 0
M  V30 2120 H 197.981 -3.52783 -1.24178 0
M  V30 2121 H 200.273 -5.87458 -3.37489 0
M  V30 2122 H 201.216 -6.75323 -2.12942 0
M  V30 2123 H 201.624 -5.05457 -2.51342 0
M  V30 2124 N 201.022 0.148545 -1.56898 0
M  V30 2125 C 202.433 0.708766 -1.72723 0
M  V30 2126 C 202.784 1.81734 -0.739395 0
M  V30 2127 O 201.909 2.16194 0.0943169 0
M  V30 2128 C 202.504 1.29245 -3.13179 0
M  V30 2129 C 201.063 1.79925 -3.30611 0
M  V30 2130 C 200.21 0.687111 -2.68652 0
M  V30 2131 H 203.161 -0.0771063 -1.58513 0
M  V30 2132 H 203.182 2.16224 -3.13093 0
M  V30 2133 H 202.694 0.485382 -3.85053 0
M  V30 2134 H 200.795 2.63203 -2.63732 0
M  V30 2135 H 200.908 1.92903 -4.38549 0
M  V30 2136 H 199.272 1.11335 -2.29078 0
M  V30 2137 H 200.055 -0.108483 -3.43129 0
M  V30 2138 N 202.5 1.5196 0.417844 0
M  V30 2139 C 203.749 1.6482 1.16264 0
M  V30 2140 C 204.062 0.379886 1.91876 0
M  V30 2141 O 205.268 0.388154 2.68711 0
M  V30 2142 C 203.724 2.91161 2.1155 0
M  V30 2143 C 203.332 4.25068 1.41495 0
M  V30 2144 C 205.076 3.13383 2.86341 0
M  V30 2145 C 202.983 5.42541 2.35379 0
M  V30 2146 H 201.913 0.613954 0.437694 0
M  V30 2147 H 204.564 1.78442 0.427871 0
M  V30 2148 H 202.946 2.71218 2.88543 0
M  V30 2149 H 204.12 4.55463 0.699263 0
M  V30 2150 H 202.435 4.0888 0.787792 0
M  V30 2151 H 205.032 3.98324 3.5671 0
M  V30 2152 H 205.375 2.27256 3.48798 0
M  V30 2153 H 205.908 3.33757 2.1645 0
M  V30 2154 H 202.647 6.30987 1.77582 0
M  V30 2155 H 202.167 5.16497 3.04945 0
M  V30 2156 H 203.846 5.75272 2.96093 0
M  V30 2157 N 203.978 -0.674533 1.42435 0
M  V30 2158 C 204.888 -1.81751 1.48337 0
M  V30 2159 C 205.904 -1.69975 0.372099 0
M  V30 2160 O 207.08 -1.91521 0.62304 0
M  V30 2161 C 204.145 -3.17895 1.38361 0
M  V30 2162 C 203.206 -3.41625 2.59982 0
M  V30 2163 C 202.439 -4.71274 2.50473 0
M  V30 2164 O 202.662 -5.49197 1.54075 0
M  V30 2165 O 201.596 -4.96254 3.4061 0
M  V30 2166 H 205.422 -1.79728 2.44809 0
M  V30 2167 H 203.007 -0.830312 1.24202 0
M  V30 2168 H 204.889 -3.99136 1.35161 0
M  V30 2169 H 203.564 -3.20555 0.450144 0
M  V30 2170 H 202.471 -2.60231 2.68757 0
M  V30 2171 H 203.804 -3.43796 3.52229 0
M  V30 2172 N 205.456 -1.28612 -0.910864 0
M  V30 2173 C 206.702 -1.17116 -1.66299 0
M  V30 2174 C 207.057 0.276917 -1.90397 0
M  V30 2175 O 206.35 1.19795 -1.49532 0
M  V30 2176 C 206.544 -1.90624 -3.0232 0
M  V30 2177 C 206.373 -3.42431 -2.91498 0
M  V30 2178 C 205.143 -4.11773 -2.92867 0
M  V30 2179 C 207.341 -4.38124 -2.69355 0
M  V30 2180 N 205.323 -5.50025 -2.72664 0
M  V30 2181 C 206.694 -5.63759 -2.58023 0
M  V30 2182 C 208.749 -4.28016 -2.54375 0
M  V30 2183 C 207.452 -6.80436 -2.33238 0
M  V30 2184 C 209.478 -5.44433 -2.30969 0
M  V30 2185 C 208.84 -6.69034 -2.20394 0
M  V30 2186 H 204.939 -0.483506 -0.61461 0
M  V30 2187 H 207.523 -1.62299 -1.0755 0
M  V30 2188 H 205.694 -1.4787 -3.5915 0
M  V30 2189 H 207.426 -1.71488 -3.66571 0
M  V30 2190 H 204.181 -3.63378 -3.03732 0
M  V30 2191 H 204.605 -6.22705 -2.65646 0
M  V30 2192 H 209.247 -3.32388 -2.613 0
M  V30 2193 H 206.965 -7.7613 -2.25051 0
M  V30 2194 H 210.551 -5.38504 -2.20238 0
M  V30 2195 H 209.431 -7.57595 -2.02531 0
M  V30 2196 N 206.934 1.1197 -1.10907 0
M  V30 2197 C 207.897 2.16031 -0.765707 0
M  V30 2198 C 208.897 1.59393 0.212235 0
M  V30 2199 O 210.087 1.74196 -0.0115441 0
M  V30 2200 C 207.219 3.40632 -0.135053 0
M  V30 2201 H 208.412 2.47919 -1.68748 0
M  V30 2202 H 205.965 1.27061 -0.910226 0
M  V30 2203 H 206.7 3.14348 0.797218 0
M  V30 2204 H 206.485 3.8302 -0.838937 0
M  V30 2205 H 207.975 4.17505 0.0892469 0
M  V30 2206 N 208.412 0.89855 1.29475 0
M  V30 2207 C 209.689 0.443416 1.90508 0
M  V30 2208 C 210.069 -1.07685 1.81569 0
M  V30 2209 O 209.417 -1.9182 1.24166 0
M  V30 2210 C 209.627 0.956708 3.35631 0
M  V30 2211 C 210.975 0.999728 4.12663 0
M  V30 2212 O 211.999 0.904299 3.4453 0
M  V30 2213 O 210.858 1.14289 5.34416 0
M  V30 2214 H 207.952 0.138025 0.815401 0
M  V30 2215 H 210.498 0.98834 1.37949 0
M  V30 2216 H 209.27 2.00067 3.36287 0
M  V30 2217 H 208.893 0.391728 3.95666 0
M  V30 2218 N 209.89 -1.43072 0.660911 0
M  V30 2219 C 211.137 -2.01721 0.177445 0
M  V30 2220 C 211.465 -1.5218 -1.21126 0
M  V30 2221 O 210.72 -0.708659 -1.82419 0
M  V30 2222 C 211.019 -3.57103 0.145563 0
M  V30 2223 C 210.685 -4.26021 1.47705 0
M  V30 2224 C 209.347 -4.44563 1.84165 0
M  V30 2225 C 211.699 -4.64983 2.35458 0
M  V30 2226 C 209.027 -4.99334 3.0803 0
M  V30 2227 C 211.379 -5.21127 3.58622 0
M  V30 2228 C 210.043 -5.37884 3.95268 0
M  V30 2229 H 209.313 -0.73815 0.0649317 0
M  V30 2230 H 211.96 -1.71446 0.853144 0
M  V30 2231 H 210.265 -3.86965 -0.61361 0
M  V30 2232 H 211.962 -4.00248 -0.2455 0
M  V30 2233 H 208.552 -4.11939 1.18339 0
M  V30 2234 H 212.736 -4.50343 2.08579 0
M  V30 2235 H 207.992 -5.10493 3.36462 0
M  V30 2236 H 212.166 -5.50262 4.26831 0
M  V30 2237 H 209.793 -5.80089 4.91325 0
M  V30 2238 N 211.368 -0.403325 -1.52352 0
M  V30 2239 C 212.779 0.0675782 -1.86578 0
M  V30 2240 C 213.13 1.44941 -1.32236 0
M  V30 2241 O 212.255 2.06112 -0.659307 0
M  V30 2242 C 212.85 0.129404 -3.38553 0
M  V30 2243 C 211.409 0.544629 -3.72439 0
M  V30 2244 C 210.556 -0.284551 -2.75836 0
M  V30 2245 H 213.507 -0.620631 -1.46061 0
M  V30 2246 H 213.528 0.94581 -3.68558 0
M  V30 2247 H 213.04 -0.87645 -3.78074 0
M  V30 2248 H 211.141 1.55734 -3.38493 0
M  V30 2249 H 211.254 0.293046 -4.78203 0
M  V30 2250 H 209.618 0.252258 -2.53448 0
M  V30 2251 H 210.401 -1.28865 -3.18196 0
M  V30 2252 N 212.846 1.57033 -0.133567 0
M  V30 2253 C 213.756 2.19632 0.824564 0
M  V30 2254 C 214.772 1.17666 1.28182 0
M  V30 2255 O 215.948 1.50193 1.3418 0
M  V30 2256 C 213.013 2.79499 2.05137 0
M  V30 2257 C 212.074 3.96548 1.64464 0
M  V30 2258 C 211.307 4.5355 2.81297 0
M  V30 2259 O 211.53 4.09438 3.97136 0
M  V30 2260 O 210.464 5.44018 2.57542 0
M  V30 2261 H 214.29 3.01991 0.321766 0
M  V30 2262 H 211.875 1.49112 0.0927889 0
M  V30 2263 H 213.757 3.17602 2.7696 0
M  V30 2264 H 212.432 2.00162 2.54395 0
M  V30 2265 H 211.339 3.63186 0.897048 0
M  V30 2266 H 212.672 4.77364 1.19934 0
M  V30 2267 N 214.325 -0.140222 1.56975 0
M  V30 2268 C 215.257 -1.19818 1.95388 0
M  V30 2269 C 216.27 -1.38816 0.850525 0
M  V30 2270 O 217.459 -1.38267 1.12891 0
M  V30 2271 C 214.559 -2.56189 2.21857 0
M  V30 2272 C 213.732 -2.58077 3.5315 0
M  V30 2273 C 212.791 -3.76037 3.6808 0
M  V30 2274 O 211.817 -3.60598 4.40406 0
M  V30 2275 N 213.019 -4.93763 3.05251 0
M  V30 2276 H 215.784 -0.871609 2.86746 0
M  V30 2277 H 213.345 -0.32972 1.58507 0
M  V30 2278 H 215.337 -3.33623 2.2908 0
M  V30 2279 H 213.907 -2.81111 1.36731 0
M  V30 2280 H 213.127 -1.6651 3.57307 0
M  V30 2281 H 214.415 -2.56377 4.39486 0
M  V30 2282 H 213.813 -5.09209 2.46419 0
M  V30 2283 H 212.37 -5.68949 3.18026 0
M  V30 2284 N 215.803 -1.52179 -0.40978 0
M  V30 2285 C 217.08 -1.56769 -1.16974 0
M  V30 2286 C 217.46 -0.348322 -2.08206 0
M  V30 2287 O 216.808 0.664862 -2.18613 0
M  V30 2288 C 217.018 -2.89603 -1.9476 0
M  V30 2289 C 218.366 -3.42579 -2.50849 0
M  V30 2290 O 219.39 -2.91338 -2.04941 0
M  V30 2291 O 218.249 -4.32054 -3.34652 0
M  V30 2292 H 215.343 -0.631439 -0.534054 0
M  V30 2293 H 217.889 -1.64507 -0.416613 0
M  V30 2294 H 216.661 -3.698 -1.27921 0
M  V30 2295 H 216.284 -2.85155 -2.77079 0
M  V30 2296 N 217.281 0.66697 -1.42791 0
M  V30 2297 C 218.697 0.981027 -1.25889 0
M  V30 2298 C 218.897 2.00793 -0.168695 0
M  V30 2299 O 217.953 2.48321 0.45747 0
M  V30 2300 C 219.266 1.47838 -2.61848 0
M  V30 2301 C 220.814 1.59575 -2.69267 0
M  V30 2302 C 221.289 2.12704 -4.05612 0
M  V30 2303 N 222.78 2.20026 -4.07606 0
M  V30 2304 C 223.515 2.62227 -5.09926 0
M  V30 2305 N 223.011 3.03824 -6.22626 0
M  V30 2306 N 224.804 2.62045 -4.97281 0
M  V30 2307 H 216.955 -0.0127891 -2.12396 0
M  V30 2308 H 219.218 0.0568258 -0.946295 0
M  V30 2309 H 218.924 0.798299 -3.4252 0
M  V30 2310 H 218.798 2.45579 -2.86305 0
M  V30 2311 H 221.185 2.26687 -1.88936 0
M  V30 2312 H 221.266 0.60302 -2.48591 0
M  V30 2313 H 220.91 1.46198 -4.86404 0
M  V30 2314 H 220.84 3.12782 -4.23645 0
M  V30 2315 H 223.331 1.90708 -3.2625 0
M  V30 2316 H 223.644 3.34734 -6.96544 0
M  V30 2317 H 221.989 3.01662 -6.26119 0
M  V30 2318 H 225.18 2.28916 -4.08308 0
M  V30 2319 H 225.353 2.94613 -5.77154 0
M  V30 2320 N 218.759 1.29093 0.90403 0
M  V30 2321 C 220.036 1.075 1.63411 0
M  V30 2322 C 220.416 -0.382346 2.07609 0
M  V30 2323 O 219.764 -1.37031 1.82851 0
M  V30 2324 C 219.974 2.05858 2.81822 0
M  V30 2325 C 221.322 2.36539 3.52611 0
M  V30 2326 O 222.346 2.04019 2.91984 0
M  V30 2327 O 221.205 2.92085 4.61897 0
M  V30 2328 H 218.299 0.411547 0.717327 0
M  V30 2329 H 220.845 1.40449 0.952479 0
M  V30 2330 H 219.617 3.04037 2.46327 0
M  V30 2331 H 219.24 1.73613 3.57693 0
M  V30 2332 N 220.237 -1.11381 1.11499 0
M  V30 2333 C 221.167 -2.19509 0.796125 0
M  V30 2334 C 222.148 -1.68458 -0.235796 0
M  V30 2335 O 223.333 -1.93947 -0.0991344 0
M  V30 2336 C 220.463 -3.46475 0.239205 0
M  V30 2337 C 219.417 -4.10744 1.20307 0
M  V30 2338 C 218.743 -5.32293 0.50683 0
M  V30 2339 C 220.043 -4.55597 2.55399 0
M  V30 2340 H 221.737 -2.46439 1.70024 0
M  V30 2341 H 219.283 -1.18446 0.818935 0
M  V30 2342 H 221.236 -4.214 0.00392006 0
M  V30 2343 H 219.96 -3.19006 -0.700206 0
M  V30 2344 H 218.619 -3.37813 1.42399 0
M  V30 2345 H 218.267 -5.01095 -0.437408 0
M  V30 2346 H 217.967 -5.76243 1.1497 0
M  V30 2347 H 219.491 -6.09956 0.280351 0
M  V30 2348 H 220.905 -5.21841 2.37391 0
M  V30 2349 H 219.302 -5.10363 3.15673 0
M  V30 2350 H 220.372 -3.69013 3.14575 0
M  V30 2351 N 221.715 -0.905404 -1.28997 0
M  V30 2352 C 222.962 -0.534248 -1.95325 0
M  V30 2353 C 223.29 0.920535 -1.71337 0
M  V30 2354 O 222.545 1.66861 -1.02254 0
M  V30 2355 C 222.844 -0.779906 -3.48787 0
M  V30 2356 C 222.51 -2.21293 -3.92861 0
M  V30 2357 C 221.172 -2.60475 -4.04606 0
M  V30 2358 C 223.524 -3.14587 -4.15553 0
M  V30 2359 C 220.852 -3.9212 -4.36416 0
M  V30 2360 C 223.204 -4.45787 -4.48839 0
M  V30 2361 C 221.868 -4.84834 -4.58794 0
M  V30 2362 H 221.138 -0.195495 -0.714747 0
M  V30 2363 H 223.785 -1.14514 -1.53488 0
M  V30 2364 H 222.09 -0.0861365 -3.91705 0
M  V30 2365 H 223.787 -0.472029 -3.98212 0
M  V30 2366 H 220.377 -1.89887 -3.84241 0
M  V30 2367 H 224.561 -2.85528 -4.0594 0
M  V30 2368 H 219.817 -4.22086 -4.42327 0
M  V30 2369 H 223.991 -5.18098 -4.65346 0
M  V30 2370 H 221.618 -5.86877 -4.83197 0
M  V30 2371 N 223.193 1.4272 -0.668489 0
M  V30 2372 C 224.125 2.2914 0.052613 0
M  V30 2373 C 225.138 1.43339 0.771857 0
M  V30 2374 O 226.327 1.67123 0.627067 0
M  V30 2375 C 223.427 3.20618 1.09804 0
M  V30 2376 C 222.6 4.35039 0.45389 0
M  V30 2377 C 221.659 5.07282 1.39825 0
M  V30 2378 O 220.685 5.62024 0.900978 0
M  V30 2379 N 221.887 5.12206 2.73176 0
M  V30 2380 H 224.652 2.91668 -0.689209 0
M  V30 2381 H 222.213 1.53577 -0.512422 0
M  V30 2382 H 224.205 3.65815 1.73094 0
M  V30 2383 H 222.775 2.59585 1.74167 0
M  V30 2384 H 221.995 3.92567 -0.358396 0
M  V30 2385 H 223.283 5.088 0.00486972 0
M  V30 2386 H 222.681 4.6913 3.16122 0
M  V30 2387 H 221.238 5.61069 3.31729 0
M  V30 2388 N 224.671 0.411399 1.52136 0
M  V30 2389 C 225.634 -0.401089 2.25663 0
M  V30 2390 C 226.634 -0.971732 1.28117 0
M  V30 2391 O 227.824 -0.850254 1.52041 0
M  V30 2392 C 224.956 -1.56483 3.02863 0
M  V30 2393 H 226.149 0.24295 2.98914 0
M  V30 2394 H 223.702 0.163968 1.55438 0
M  V30 2395 H 224.437 -2.24567 2.33967 0
M  V30 2396 H 224.222 -1.16211 3.74483 0
M  V30 2397 H 225.712 -2.13951 3.58629 0
M  V30 2398 N 226.149 -1.5696 0.141893 0
M  V30 2399 C 227.396 -1.9596 -0.510492 0
M  V30 2400 C 227.724 -1.02648 -1.65208 0
M  V30 2401 O 226.979 -0.0546947 -1.95624 0
M  V30 2402 C 227.278 -3.41242 -1.06249 0
M  V30 2403 C 226.944 -4.50882 -0.0398791 0
M  V30 2404 C 225.606 -4.80595 0.241247 0
M  V30 2405 C 227.958 -5.17058 0.65578 0
M  V30 2406 C 225.286 -5.73792 1.22393 0
M  V30 2407 C 227.638 -6.11313 1.62724 0
M  V30 2408 C 226.302 -6.39407 1.91612 0
M  V30 2409 H 225.572 -0.717068 -0.186802 0
M  V30 2410 H 228.219 -1.90142 0.227643 0
M  V30 2411 H 226.524 -3.43866 -1.87785 0
M  V30 2412 H 228.221 -3.68742 -1.57576 0
M  V30 2413 H 224.811 -4.27754 -0.269174 0
M  V30 2414 H 228.995 -4.94239 0.451779 0
M  V30 2415 H 224.251 -5.93853 1.45424 0
M  V30 2416 H 228.425 -6.61668 2.17183 0
M  V30 2417 H 226.052 -7.11427 2.6791 0
M  V30 2418 N 227.627 0.131896 -1.57047 0
M  V30 2419 C 229.043 0.485031 -1.52051 0
M  V30 2420 C 229.243 1.82563 -0.85281 0
M  V30 2421 O 228.299 2.48817 -0.429694 0
M  V30 2422 C 229.612 0.481409 -2.96821 0
M  V30 2423 C 231.16 0.565868 -3.07842 0
M  V30 2424 C 231.635 0.592762 -4.54148 0
M  V30 2425 N 233.126 0.654564 -4.58552 0
M  V30 2426 C 233.861 0.696608 -5.69153 0
M  V30 2427 N 233.357 0.697078 -6.89284 0
M  V30 2428 N 235.15 0.738639 -5.57226 0
M  V30 2429 H 227.301 -0.746664 -1.98843 0
M  V30 2430 H 229.564 -0.273999 -0.90754 0
M  V30 2431 H 229.27 -0.435731 -3.4899 0
M  V30 2432 H 229.144 1.3139 -3.53577 0
M  V30 2433 H 231.531 1.47343 -2.55684 0
M  V30 2434 H 231.612 -0.29406 -2.54104 0
M  V30 2435 H 231.256 -0.310701 -5.06949 0
M  V30 2436 H 231.186 1.46939 -5.05684 0
M  V30 2437 H 233.677 0.660887 -3.72076 0
M  V30 2438 H 233.99 0.731426 -7.69331 0
M  V30 2439 H 232.335 0.66471 -6.91814 0
M  V30 2440 H 235.526 0.735545 -4.62285 0
M  V30 2441 H 235.699 0.767938 -6.43434 0
M  V30 2442 N 229.106 1.52395 0.401703 0
M  V30 2443 C 230.331 1.70972 1.17403 0
M  V30 2444 C 230.756 0.421615 1.83314 0
M  V30 2445 O 230.114 -0.621564 1.70312 0
M  V30 2446 C 230.162 2.85151 2.20728 0
M  V30 2447 O 229.266 2.51238 3.27037 0
M  V30 2448 H 228.607 0.568927 0.342372 0
M  V30 2449 H 231.137 1.99131 0.469891 0
M  V30 2450 H 231.147 3.10279 2.64936 0
M  V30 2451 H 229.822 3.78603 1.7214 0
M  V30 2452 H 228.399 2.36808 2.88057 0
M  V30 2453 N 230.584 -0.659388 1.43143 0
M  V30 2454 C 231.516 -1.7849 1.43784 0
M  V30 2455 C 232.529 -1.5932 0.334787 0
M  V30 2456 O 233.718 -1.68155 0.598842 0
M  V30 2457 C 230.818 -3.15828 1.22906 0
M  V30 2458 C 229.991 -3.61711 2.45934 0
M  V30 2459 C 229.05 -4.77831 2.20371 0
M  V30 2460 O 228.076 -4.87586 2.93681 0
M  V30 2461 N 229.278 -5.67611 1.21647 0
M  V30 2462 H 232.043 -1.7842 2.40803 0
M  V30 2463 H 229.604 -0.84302 1.3822 0
M  V30 2464 H 231.596 -3.91189 1.03697 0
M  V30 2465 H 230.166 -3.10707 0.343542 0
M  V30 2466 H 229.386 -2.76861 2.80609 0
M  V30 2467 H 230.674 -3.89112 3.27825 0
M  V30 2468 H 230.072 -5.62397 0.610449 0
M  V30 2469 H 228.629 -6.42719 1.08423 0
M  V30 2470 N 232.062 -1.29571 -0.897171 0
M  V30 2471 C 233.025 -1.14913 -1.98312 0
M  V30 2472 C 234.025 -0.0838629 -1.60581 0
M  V30 2473 O 235.215 -0.331006 -1.71026 0
M  V30 2474 C 232.347 -0.757835 -3.3237 0
M  V30 2475 H 233.54 -2.11377 -2.12743 0
M  V30 2476 H 231.093 -1.12793 -1.08201 0
M  V30 2477 H 231.828 0.206837 -3.2364 0
M  V30 2478 H 231.613 -1.52755 -3.61121 0
M  V30 2479 H 233.103 -0.678408 -4.12053 0
M  V30 2480 N 233.54 1.10788 -1.12088 0
M  V30 2481 C 234.788 1.8231 -0.872205 0
M  V30 2482 C 235.109 1.85419 0.603709 0
M  V30 2483 O 234.379 1.32963 1.43867 0
M  V30 2484 H 232.959 0.675137 -0.319686 0
M  V30 2485 H 235.621 1.34068 -1.41463 0
M  V30 2486 H 234.717 2.85955 -1.25045 0
M  V30 2487 N 235.018 0.912232 1.28515 0
M  V30 2488 C 235.928 0.404506 2.31086 0
M  V30 2489 C 236.944 -0.50707 1.66448 0
M  V30 2490 O 238.12 -0.393624 1.97516 0
M  V30 2491 C 235.185 -0.348572 3.44943 0
M  V30 2492 C 234.246 0.59604 4.25142 0
M  V30 2493 C 233.479 -0.121194 5.33562 0
M  V30 2494 O 233.702 -1.34317 5.5436 0
M  V30 2495 O 232.636 0.542716 5.99448 0
M  V30 2496 H 236.462 1.25579 2.76521 0
M  V30 2497 H 234.047 0.676998 1.33181 0
M  V30 2498 H 235.929 -0.77395 4.14232 0
M  V30 2499 H 234.604 -1.17571 3.01594 0
M  V30 2500 H 233.511 1.07079 3.58448 0
M  V30 2501 H 234.844 1.38995 4.72167 0
M  V30 2502 N 236.496 -1.42363 0.676048 0
M  V30 2503 C 237.406 -2.346 -0.00153389 0
M  V30 2504 C 238.422 -1.5516 -0.787485 0
M  V30 2505 O 239.598 -1.87723 -0.729521 0
M  V30 2506 C 236.663 -3.33705 -0.940298 0
M  V30 2507 C 235.724 -4.29042 -0.148739 0
M  V30 2508 C 234.957 -5.23413 -1.04279 0
M  V30 2509 O 235.18 -5.22749 -2.28232 0
M  V30 2510 O 234.114 -5.99795 -0.502925 0
M  V30 2511 H 237.94 -2.94082 0.758268 0
M  V30 2512 H 235.525 -1.42888 0.436289 0
M  V30 2513 H 237.407 -3.94586 -1.47917 0
M  V30 2514 H 236.082 -2.76695 -1.67993 0
M  V30 2515 H 234.989 -3.71571 0.43427 0
M  V30 2516 H 236.322 -4.89097 0.551805 0
M  V30 2517 N 237.974 -0.419461 -1.51915 0
M  V30 2518 C 238.904 0.391813 -2.30189 0
M  V30 2519 C 239.885 1.03699 -1.34836 0
M  V30 2520 O 241.07 1.04403 -1.63748 0
M  V30 2521 C 238.2 1.50312 -3.13087 0
M  V30 2522 C 237.154 0.9824 -4.16573 0
M  V30 2523 C 236.48 2.18809 -4.8788 0
M  V30 2524 C 237.78 0.0292356 -5.22292 0
M  V30 2525 H 239.474 -0.26135 -2.98257 0
M  V30 2526 H 237.02 -0.127134 -1.43438 0
M  V30 2527 H 238.973 2.07773 -3.66617 0
M  V30 2528 H 237.697 2.18431 -2.42807 0
M  V30 2529 H 236.356 0.430119 -3.64068 0
M  V30 2530 H 236.004 2.85507 -4.14119 0
M  V30 2531 H 235.704 1.84615 -5.57845 0
M  V30 2532 H 237.228 2.76858 -5.44226 0
M  V30 2533 H 238.642 0.512976 -5.71 0
M  V30 2534 H 237.039 -0.2244 -5.9968 0
M  V30 2535 H 238.109 -0.912931 -4.76228 0
M  V30 2536 N 239.452 1.56882 -0.150215 0
M  V30 2537 C 240.698 1.96518 0.500834 0
M  V30 2538 C 241.031 1.03527 1.64304 0
M  V30 2539 O 240.306 0.0782751 1.94342 0
M  V30 2540 C 240.589 3.45822 1.00395 0
M  V30 2541 C 240.442 4.49591 -0.136983 0
M  V30 2542 C 241.761 3.97704 1.88467 0
M  V30 2543 H 238.88 0.714535 0.18058 0
M  V30 2544 H 241.522 1.88577 -0.232091 0
M  V30 2545 H 239.672 3.5272 1.62851 0
M  V30 2546 H 241.344 4.5477 -0.77343 0
M  V30 2547 H 239.587 4.26441 -0.795652 0
M  V30 2548 H 240.258 5.51402 0.256815 0
M  V30 2549 H 242.734 3.93304 1.35834 0
M  V30 2550 H 241.61 5.0263 2.20578 0
M  V30 2551 H 241.871 3.40252 2.82279 0
M  V30 2552 N 240.93 -0.123565 1.57115 0
M  V30 2553 C 241.86 -1.15309 2.03042 0
M  V30 2554 C 242.841 -1.43454 0.914061 0
M  V30 2555 O 244.026 -1.53973 1.18347 0
M  V30 2556 C 241.156 -2.48043 2.43089 0
M  V30 2557 C 240.11 -2.3437 3.58127 0
M  V30 2558 C 239.436 -3.72026 3.84059 0
M  V30 2559 C 240.736 -1.80804 4.90007 0
M  V30 2560 H 242.43 -0.771102 2.893 0
M  V30 2561 H 239.976 -0.369479 1.39179 0
M  V30 2562 H 241.929 -3.20311 2.73823 0
M  V30 2563 H 240.653 -2.88122 1.53796 0
M  V30 2564 H 239.312 -1.64551 3.27595 0
M  V30 2565 H 238.96 -4.09582 2.91979 0
M  V30 2566 H 238.66 -3.63732 4.6149 0
M  V30 2567 H 240.184 -4.45806 4.1724 0
M  V30 2568 H 241.598 -2.42886 5.19307 0
M  V30 2569 H 239.995 -1.83343 5.71407 0
M  V30 2570 H 241.065 -0.76528 4.78823 0
M  V30 2571 N 242.408 -1.52605 -0.393616 0
M  V30 2572 C 243.34 -1.73303 -1.49995 0
M  V30 2573 C 244.353 -0.613473 -1.50799 0
M  V30 2574 O 245.542 -0.889049 -1.54784 0
M  V30 2575 C 242.642 -1.77245 -2.88855 0
M  V30 2576 C 241.815 -3.06483 -3.12069 0
M  V30 2577 C 240.874 -3.02033 -4.30886 0
M  V30 2578 O 239.9 -3.75907 -4.27414 0
M  V30 2579 N 241.102 -2.20897 -5.36828 0
M  V30 2580 H 243.867 -2.68756 -1.32629 0
M  V30 2581 H 241.428 -1.51036 -0.583083 0
M  V30 2582 H 243.42 -1.7178 -3.66434 0
M  V30 2583 H 241.99 -0.891993 -2.99603 0
M  V30 2584 H 241.21 -3.25474 -2.22396 0
M  V30 2585 H 242.498 -3.91947 -3.2443 0
M  V30 2586 H 241.896 -1.60336 -5.42502 0
M  V30 2587 H 240.453 -2.21275 -6.13091 0
M  V30 2588 N 243.887 0.651787 -1.4349 0
M  V30 2589 C 245.164 1.40909 -1.35661 0
M  V30 2590 C 245.544 2.11099 -0.00511733 0
M  V30 2591 O 244.892 2.04892 1.0115 0
M  V30 2592 C 245.102 2.3926 -2.54078 0
M  V30 2593 C 246.45 3.03217 -2.97228 0
M  V30 2594 O 247.474 2.49588 -2.54135 0
M  V30 2595 O 246.333 4.00455 -3.71885 0
M  V30 2596 H 243.427 0.629625 -0.536191 0
M  V30 2597 H 245.973 0.678575 -1.55542 0
M  V30 2598 H 244.745 1.86352 -3.44076 0
M  V30 2599 H 244.368 3.1976 -2.36303 0
M  V30 2600 N 245.365 1.30045 0.890287 0
M  V30 2601 C 246.313 1.15873 2.01683 0
M  V30 2602 C 247.307 0.0719403 1.69247 0
M  V30 2603 O 248.513 0.232414 1.78493 0
M  V30 2604 H 244.888 0.358203 0.661207 0
M  V30 2605 H 246.859 2.11229 2.10772 0
M  V30 2606 C 245.608 0.861842 3.36849 0
M  V30 2607 H 244.931 1.69016 3.62317 0
M  V30 2608 H 246.371 0.802762 4.16331 0
M  V30 2609 C 244.83 -0.435132 3.34078 0
M  V30 2610 O 245.36 -1.4583 3.74295 0
M  V30 2611 N 243.566 -0.444377 2.87182 0
M  V30 2612 H 243.113 0.388723 2.5465 0
M  V30 2613 H 243.071 -1.31213 2.85711 0
M  V30 2614 N 246.843 -1.10192 1.12674 0
M  V30 2615 C 248.089 -1.82475 0.884915 0
M  V30 2616 C 248.422 -1.85093 -0.58773 0
M  V30 2617 O 247.697 -1.3134 -1.43457 0
M  V30 2618 C 247.98 -3.29018 1.46353 0
M  V30 2619 C 247.833 -3.34718 3.00473 0
M  V30 2620 C 249.152 -4.25473 1.12519 0
M  V30 2621 H 246.271 -0.662492 0.322915 0
M  V30 2622 H 248.913 -1.2913 1.39375 0
M  V30 2623 H 247.063 -3.74576 1.03077 0
M  V30 2624 H 248.735 -2.97622 3.52447 0
M  V30 2625 H 246.978 -2.74541 3.35872 0
M  V30 2626 H 247.649 -4.37918 3.36053 0
M  V30 2627 H 250.125 -3.88161 1.499 0
M  V30 2628 H 249.001 -5.26365 1.55663 0
M  V30 2629 H 249.262 -4.42084 0.0377407 0
M  V30 2630 N 248.321 -0.919034 -1.28029 0
M  V30 2631 C 249.568 -0.554934 -1.94748 0
M  V30 2632 C 249.896 0.90231 -1.72304 0
M  V30 2633 O 249.151 1.65767 -1.04018 0
M  V30 2634 C 249.45 -0.816855 -3.4794 0
M  V30 2635 C 249.116 -2.25448 -3.90492 0
M  V30 2636 C 247.778 -2.64752 -4.01821 0
M  V30 2637 C 250.13 -3.18977 -4.12193 0
M  V30 2638 C 247.458 -3.96727 -4.32232 0
M  V30 2639 C 249.81 -4.50523 -4.44086 0
M  V30 2640 C 248.474 -4.89673 -4.53626 0
M  V30 2641 H 247.744 -0.203065 -0.712633 0
M  V30 2642 H 250.391 -1.16136 -1.52265 0
M  V30 2643 H 248.696 -0.127677 -3.91592 0
M  V30 2644 H 250.393 -0.514238 -3.97689 0
M  V30 2645 H 246.983 -1.93952 -3.82205 0
M  V30 2646 H 251.167 -2.89817 -4.02889 0
M  V30 2647 H 246.423 -4.26754 -4.37825 0
M  V30 2648 H 250.597 -5.23005 -4.59825 0
M  V30 2649 H 248.224 -5.91969 -4.76946 0
M  V30 2650 N 249.799 1.42003 -0.683588 0
M  V30 2651 C 251.045 2.01712 -0.209825 0
M  V30 2652 C 251.378 1.53968 1.18353 0
M  V30 2653 O 250.653 0.745661 1.79639 0
M  V30 2654 C 250.936 3.59202 -0.254197 0
M  V30 2655 C 250.789 4.17102 -1.68363 0
M  V30 2656 C 252.108 4.38344 0.392709 0
M  V30 2657 H 249.227 0.732891 -0.0777189 0
M  V30 2658 H 251.869 1.68909 -0.87004 0
M  V30 2659 H 250.019 3.87278 0.307954 0
M  V30 2660 H 251.691 3.99946 -2.29871 0
M  V30 2661 H 249.934 3.72597 -2.22157 0
M  V30 2662 H 250.605 5.26249 -1.6663 0
M  V30 2663 H 253.081 4.16011 -0.0859162 0
M  V30 2664 H 251.957 5.47901 0.331063 0
M  V30 2665 H 252.218 4.16887 1.47164 0
M  V30 2666 N 251.277 0.427512 1.51691 0
M  V30 2667 C 252.187 -0.39527 2.31246 0
M  V30 2668 C 253.203 -1.03674 1.39742 0
M  V30 2669 O 254.379 -1.03425 1.72816 0
M  V30 2670 C 251.444 -1.48706 3.13189 0
M  V30 2671 C 250.505 -0.866743 4.20459 0
M  V30 2672 C 249.738 -1.90651 4.98486 0
M  V30 2673 O 249.961 -3.12733 4.77026 0
M  V30 2674 O 248.895 -1.5025 5.82845 0
M  V30 2675 H 252.721 0.253918 3.02637 0
M  V30 2676 H 250.306 0.190274 1.48183 0
M  V30 2677 H 252.188 -2.12047 3.64162 0
M  V30 2678 H 250.863 -2.12051 2.44573 0
M  V30 2679 H 249.77 -0.195544 3.73589 0
M  V30 2680 H 251.103 -0.276934 4.9142 0
M  V30 2681 N 252.755 -1.56801 0.158532 0
M  V30 2682 C 253.687 -2.14488 -0.807923 0
M  V30 2683 C 254.7 -1.09721 -1.20271 0
M  V30 2684 O 255.889 -1.36956 -1.14478 0
M  V30 2685 C 252.989 -2.66217 -2.09718 0
M  V30 2686 C 252.162 -3.95507 -1.86796 0
M  V30 2687 C 251.221 -4.3243 -2.99818 0
M  V30 2688 O 250.247 -5.00543 -2.71008 0
M  V30 2689 N 251.449 -3.92947 -4.27285 0
M  V30 2690 H 254.214 -2.98042 -0.314816 0
M  V30 2691 H 251.775 -1.61881 -0.0246692 0
M  V30 2692 H 253.767 -2.87924 -2.84398 0
M  V30 2693 H 252.337 -1.87324 -2.50257 0
M  V30 2694 H 251.557 -3.82309 -0.96089 0
M  V30 2695 H 252.845 -4.79972 -1.68833 0
M  V30 2696 H 252.243 -3.38087 -4.53557 0
M  V30 2697 H 250.8 -4.19681 -4.9871 0
M  V30 2698 N 254.233 0.115231 -1.57178 0
M  V30 2699 C 255.479 0.82357 -1.85325 0
M  V30 2700 C 255.812 1.79349 -0.744814 0
M  V30 2701 O 255.087 1.92899 0.249024 0
M  V30 2702 C 255.37 1.57014 -3.24066 0
M  V30 2703 C 255.223 0.619565 -4.45513 0
M  V30 2704 C 256.542 2.52545 -3.60429 0
M  V30 2705 H 253.661 0.297948 -0.674089 0
M  V30 2706 H 256.303 0.0877138 -1.89797 0
M  V30 2707 H 254.453 2.19742 -3.20383 0
M  V30 2708 H 256.125 0.000837639 -4.613 0
M  V30 2709 H 254.368 -0.0686174 -4.33746 0
M  V30 2710 H 255.039 1.17866 -5.3927 0
M  V30 2711 H 257.515 1.9992 -3.64926 0
M  V30 2712 H 256.391 3.01811 -4.58477 0
M  V30 2713 H 256.652 3.35383 -2.88047 0
M  V30 2714 N 255.711 1.52812 0.385517 0
M  V30 2715 C 256.641 1.80808 1.47752 0
M  V30 2716 C 257.622 0.660318 1.5676 0
M  V30 2717 O 258.807 0.908246 1.71652 0
M  V30 2718 C 255.937 1.98008 2.85324 0
M  V30 2719 C 254.891 3.13709 2.91154 0
M  V30 2720 C 254.217 3.16169 4.31209 0
M  V30 2721 C 255.517 4.52709 2.60483 0
M  V30 2722 H 257.211 2.72253 1.24573 0
M  V30 2723 H 254.757 1.31003 0.597839 0
M  V30 2724 H 256.71 2.16176 3.61726 0
M  V30 2725 H 255.434 1.03255 3.09848 0
M  V30 2726 H 254.093 2.95329 2.17201 0
M  V30 2727 H 253.741 2.19092 4.52778 0
M  V30 2728 H 253.441 3.93894 4.36029 0
M  V30 2729 H 254.965 3.36496 5.09512 0
M  V30 2730 H 256.379 4.71173 3.26602 0
M  V30 2731 H 254.776 5.32528 2.76648 0
M  V30 2732 H 255.846 4.59186 1.55809 0
M  V30 2733 N 257.189 -0.644168 1.43834 0
M  V30 2734 C 258.6 -1.22554 1.40845 0
M  V30 2735 C 258.951 -1.9585 0.117115 0
M  V30 2736 O 258.076 -2.01734 -0.783086 0
M  V30 2737 C 258.671 -2.22907 2.55143 0
M  V30 2738 C 257.23 -2.76501 2.5539 0
M  V30 2739 C 256.377 -1.51287 2.32396 0
M  V30 2740 H 259.328 -0.43563 1.52604 0
M  V30 2741 H 259.349 -3.05259 2.2715 0
M  V30 2742 H 258.861 -1.69533 3.49114 0
M  V30 2743 H 256.962 -3.33914 1.65324 0
M  V30 2744 H 257.075 -3.23429 3.53455 0
M  V30 2745 H 255.439 -1.78957 1.81236 0
M  V30 2746 H 256.222 -0.998336 3.28463 0
M  V30 2747 N 258.668 -1.30515 -0.883378 0
M  V30 2748 C 259.916 -1.19194 -1.63209 0
M  V30 2749 C 260.237 0.253205 -1.93349 0
M  V30 2750 O 259.507 1.17025 -1.57105 0
M  V30 2751 H 258.087 -0.438148 -0.605009 0
M  V30 2752 H 260.749 -1.63663 -1.05832 0
M  V30 2753 H 259.845 -1.75396 -2.58153 0
M  V30 2754 N 260.146 1.09593 -1.13257 0
M  V30 2755 C 261.076 2.18214 -0.830946 0
M  V30 2756 C 262.057 1.68812 0.208966 0
M  V30 2757 O 263.242 1.9408 0.0682666 0
M  V30 2758 C 260.372 3.46051 -0.294296 0
M  V30 2759 C 259.326 4.08778 -1.26826 0
M  V30 2760 C 258.652 5.31419 -0.591449 0
M  V30 2761 C 259.952 4.51476 -2.62615 0
M  V30 2762 H 261.646 2.43703 -1.73923 0
M  V30 2763 H 259.192 1.17128 -0.837675 0
M  V30 2764 H 261.145 4.2134 -0.0709606 0
M  V30 2765 H 259.869 3.20079 0.649366 0
M  V30 2766 H 258.528 3.35505 -1.47756 0
M  V30 2767 H 258.176 5.01727 0.357633 0
M  V30 2768 H 257.876 5.74341 -1.24123 0
M  V30 2769 H 259.4 6.09433 -0.377355 0
M  V30 2770 H 260.814 5.17999 -2.45663 0
M  V30 2771 H 259.211 5.05277 -3.23752 0
M  V30 2772 H 260.281 3.63962 -3.20406 0
M  V30 2773 N 261.624 0.925811 1.2754 0
M  V30 2774 C 262.873 0.561084 1.93739 0
M  V30 2775 C 263.186 -0.901685 1.73577 0
M  V30 2776 O 264.392 -1.37511 2.34101 0
M  V30 2777 C 262.848 0.952668 3.47062 0
M  V30 2778 C 262.456 2.43599 3.75983 0
M  V30 2779 C 264.2 0.659103 4.19352 0
M  V30 2780 C 262.107 2.76707 5.22673 0
M  V30 2781 H 261.037 0.206122 0.725279 0
M  V30 2782 H 263.688 1.12637 1.44863 0
M  V30 2783 H 262.07 0.316053 3.94737 0
M  V30 2784 H 263.244 3.12035 3.39073 0
M  V30 2785 H 261.559 2.70125 3.16893 0
M  V30 2786 H 264.156 0.882985 5.27359 0
M  V30 2787 H 264.499 -0.403607 4.14339 0
M  V30 2788 H 265.032 1.25473 3.77494 0
M  V30 2789 H 261.771 3.8188 5.32774 0
M  V30 2790 H 261.291 2.12919 5.60737 0
M  V30 2791 H 262.97 2.6435 5.90532 0
M  V30 2792 N 263.102 -1.41638 0.69111 0
M  V30 2793 C 264.032 -2.3347 0.037248 0
M  V30 2794 C 265.013 -1.51575 -0.771947 0
M  V30 2795 O 266.198 -1.80126 -0.72582 0
M  V30 2796 C 263.328 -3.35354 -0.903064 0
M  V30 2797 C 262.282 -4.27526 -0.201288 0
M  V30 2798 C 261.608 -5.19747 -1.25565 0
M  V30 2799 C 262.908 -5.13959 0.929689 0
M  V30 2800 H 264.602 -2.88397 0.804227 0
M  V30 2801 H 262.148 -1.38669 0.388189 0
M  V30 2802 H 264.101 -3.98519 -1.36969 0
M  V30 2803 H 262.825 -2.78767 -1.70166 0
M  V30 2804 H 261.484 -3.65779 0.245265 0
M  V30 2805 H 261.132 -4.59479 -2.04666 0
M  V30 2806 H 260.832 -5.8225 -0.791128 0
M  V30 2807 H 262.356 -5.85789 -1.72288 0
M  V30 2808 H 263.77 -5.70718 0.543546 0
M  V30 2809 H 262.167 -5.85379 1.32103 0
M  V30 2810 H 263.237 -4.51389 1.77133 0
M  V30 2811 N 264.58 -0.43555 -1.51462 0
M  V30 2812 C 265.996 -0.0877501 -1.59359 0
M  V30 2813 C 266.196 1.4027 -1.4466 0
M  V30 2814 O 265.252 2.17243 -1.28693 0
M  V30 2815 C 266.565 -0.606264 -2.94525 0
M  V30 2816 C 268.113 -0.566548 -3.0783 0
M  V30 2817 C 268.588 -1.06201 -4.45517 0
M  V30 2818 N 270.079 -1.01992 -4.51832 0
M  V30 2819 C 270.814 -1.37417 -5.5669 0
M  V30 2820 N 270.31 -1.80119 -6.68976 0
M  V30 2821 N 272.103 -1.29245 -5.47039 0
M  V30 2822 H 264.254 -1.40533 -1.59261 0
M  V30 2823 H 266.517 -0.578992 -0.750648 0
M  V30 2824 H 266.223 -1.64901 -3.10645 0
M  V30 2825 H 266.097 -0.0302097 -3.77188 0
M  V30 2826 H 268.484 0.467208 -2.91378 0
M  V30 2827 H 268.565 -1.17898 -2.2701 0
M  V30 2828 H 268.209 -2.09422 -4.62715 0
M  V30 2829 H 268.139 -0.426127 -5.24873 0
M  V30 2830 H 270.63 -0.706308 -3.71241 0
M  V30 2831 H 270.943 -2.05392 -7.45006 0
M  V30 2832 H 269.288 -1.84044 -6.70189 0
M  V30 2833 H 272.479 -0.957522 -4.58202 0
M  V30 2834 H 272.652 -1.57182 -6.28648 0
M  V30 2835 N 266.058 1.56714 -0.166846 0
M  V30 2836 C 267.469 1.83378 0.350646 0
M  V30 2837 C 267.82 1.08646 1.63372 0
M  V30 2838 O 266.945 0.338058 2.13743 0
M  V30 2839 C 267.54 3.32643 0.642963 0
M  V30 2840 C 266.099 3.59818 1.10491 0
M  V30 2841 C 265.246 2.76954 0.138411 0
M  V30 2842 H 268.197 1.53803 -0.391193 0
M  V30 2843 H 268.218 3.49878 1.49551 0
M  V30 2844 H 267.73 3.87007 -0.291055 0
M  V30 2845 H 265.831 3.1086 2.05418 0
M  V30 2846 H 265.944 4.68178 1.01716 0
M  V30 2847 H 264.308 2.4666 0.634911 0
M  V30 2848 H 265.091 3.34097 -0.789549 0
M  V30 2849 N 267.536 -0.106894 1.57237 0
M  V30 2850 C 268.466 -1.13148 2.04254 0
M  V30 2851 C 269.447 -1.42476 0.929224 0
M  V30 2852 O 270.632 -1.52709 1.19973 0
M  V30 2853 C 267.762 -2.4545 2.45706 0
M  V30 2854 C 266.716 -2.30558 3.60592 0
M  V30 2855 C 266.042 -3.67931 3.87983 0
M  V30 2856 C 267.342 -1.75597 4.91897 0
M  V30 2857 H 269.036 -0.740374 2.90101 0
M  V30 2858 H 266.582 -0.354696 1.39563 0
M  V30 2859 H 268.535 -3.17389 2.77205 0
M  V30 2860 H 267.259 -2.86475 1.56843 0
M  V30 2861 H 265.918 -1.61067 3.29322 0
M  V30 2862 H 265.566 -4.06462 2.96306 0
M  V30 2863 H 265.266 -3.58817 4.65322 0
M  V30 2864 H 266.79 -4.41356 4.21945 0
M  V30 2865 H 268.204 -2.37364 5.21854 0
M  V30 2866 H 266.601 -1.77272 5.73319 0
M  V30 2867 H 267.671 -0.714451 4.79608 0
M  V30 2868 N 269.014 -1.53014 -0.377408 0
M  V30 2869 C 270.239 -1.72818 -1.14668 0
M  V30 2870 C 270.664 -0.450725 -1.8262 0
M  V30 2871 O 270.022 0.59439 -1.7128 0
M  V30 2872 C 270.07 -2.88627 -2.16164 0
M  V30 2873 O 269.174 -2.56409 -3.22998 0
M  V30 2874 H 268.515 -0.574301 -0.333278 0
M  V30 2875 H 271.045 -1.99853 -0.438152 0
M  V30 2876 H 271.055 -3.14455 -2.59966 0
M  V30 2877 H 269.73 -3.81294 -1.66095 0
M  V30 2878 H 268.307 -2.4136 -2.84253 0
M  V30 2879 N 270.492 0.636531 -1.44174 0
M  V30 2880 C 271.402 1.77754 -1.53103 0
M  V30 2881 C 272.418 1.68928 -0.417034 0
M  V30 2882 O 273.594 1.89801 -0.6736 0
M  V30 2883 C 270.659 3.14115 -1.46741 0
M  V30 2884 C 269.72 3.34612 -2.68948 0
M  V30 2885 C 268.953 4.64467 -2.6288 0
M  V30 2886 O 269.176 5.44919 -1.68581 0
M  V30 2887 O 268.11 4.87049 -3.53648 0
M  V30 2888 H 271.936 1.73174 -2.49489 0
M  V30 2889 H 269.521 0.79709 -1.2636 0
M  V30 2890 H 271.403 3.95412 -1.45696 0
M  V30 2891 H 270.078 3.19249 -0.534975 0
M  V30 2892 H 268.985 2.53014 -2.75562 0
M  V30 2893 H 270.318 3.34336 -3.61221 0
M  V30 2894 N 271.97 1.30982 0.876444 0
M  V30 2895 C 272.933 1.18054 1.96459 0
M  V30 2896 C 273.933 0.109399 1.60427 0
M  V30 2897 O 275.123 0.358173 1.70478 0
M  V30 2898 C 272.255 0.810616 3.31122 0
M  V30 2899 H 273.448 2.14735 2.09354 0
M  V30 2900 H 271.001 1.145 1.06392 0
M  V30 2901 H 271.736 -0.155322 3.23928 0
M  V30 2902 H 271.521 1.58481 3.58645 0
M  V30 2903 H 273.011 0.743876 4.10921 0
M  V30 2904 N 273.449 -1.08991 1.13837 0
M  V30 2905 C 274.359 -2.19301 0.833333 0
M  V30 2906 C 275.375 -1.73026 -0.183847 0
M  V30 2907 O 276.551 -2.01395 -0.0138092 0
M  V30 2908 C 273.616 -3.45323 0.308651 0
M  V30 2909 C 272.677 -4.06255 1.38764 0
M  V30 2910 C 271.91 -5.26262 0.887896 0
M  V30 2911 O 272.133 -5.69747 -0.27287 0
M  V30 2912 O 271.067 -5.78435 1.66421 0
M  V30 2913 H 274.893 -2.47854 1.75506 0
M  V30 2914 H 272.478 -1.18012 0.916166 0
M  V30 2915 H 274.36 -4.21394 0.0216739 0
M  V30 2916 H 273.035 -3.18362 -0.585431 0
M  V30 2917 H 271.942 -3.318 1.72799 0
M  V30 2918 H 273.275 -4.37452 2.25602 0
M  V30 2919 N 274.927 -0.932562 -1.27047 0
M  V30 2920 C 275.86 -0.379774 -2.25018 0
M  V30 2921 C 276.838 0.526587 -1.53837 0
M  V30 2922 O 278.022 0.465992 -1.82649 0
M  V30 2923 C 275.149 0.455187 -3.35627 0
M  V30 2924 C 274.195 -0.388428 -4.24728 0
M  V30 2925 S 275.028 -1.80701 -5.04091 0
M  V30 2926 C 276.184 -0.979865 -6.18182 0
M  V30 2927 H 276.417 -1.2101 -2.71558 0
M  V30 2928 H 273.95 -0.735078 -1.35779 0
M  V30 2929 H 275.908 0.931052 -3.99802 0
M  V30 2930 H 274.569 1.26009 -2.87716 0
M  V30 2931 H 273.762 0.25089 -5.03375 0
M  V30 2932 H 273.364 -0.798649 -3.65373 0
M  V30 2933 H 275.656 -0.218115 -6.77149 0
M  V30 2934 H 276.599 -1.73951 -6.86401 0
M  V30 2935 H 277.007 -0.51973 -5.62102 0
M  V30 2936 N 276.405 1.4127 -0.698611 0
M  V30 2937 C 277.368 2.29158 -0.044132 0
M  V30 2938 C 278.368 1.44529 0.704841 0
M  V30 2939 O 279.558 1.65643 0.539276 0
M  V30 2940 C 276.69 3.27459 0.947809 0
M  V30 2941 H 277.883 2.88529 -0.817994 0
M  V30 2942 H 275.436 1.49307 -0.46228 0
M  V30 2943 H 276.171 2.73073 1.74933 0
M  V30 2944 H 275.956 3.8991 0.41385 0
M  V30 2945 H 277.446 3.93311 1.40344 0
M  V30 2946 N 277.883 0.443576 1.51229 0
M  V30 2947 C 278.846 -0.353132 2.26463 0
M  V30 2948 C 279.846 -0.944338 1.3015 0
M  V30 2949 O 281.036 -0.817813 1.5381 0
M  V30 2950 C 278.168 -1.50023 3.06114 0
M  V30 2951 H 279.361 0.3063 2.98332 0
M  V30 2952 H 276.914 0.196902 1.55055 0
M  V30 2953 H 277.649 -2.19553 2.38677 0
M  V30 2954 H 277.434 -1.08241 3.76864 0
M  V30 2955 H 278.924 -2.06296 3.63087 0
M  V30 2956 N 279.361 -1.56624 0.175154 0
M  V30 2957 C 280.591 -2.01082 -0.474283 0
M  V30 2958 C 280.999 -1.05447 -1.57091 0
M  V30 2959 O 280.342 -0.0480595 -1.83637 0
M  V30 2960 C 280.404 -3.41963 -1.10911 0
M  V30 2961 C 280.068 -4.56742 -0.153666 0
M  V30 2962 C 281.065 -5.16076 0.629448 0
M  V30 2963 C 278.75 -5.02277 -0.0483776 0
M  V30 2964 C 280.744 -6.19377 1.50501 0
M  V30 2965 C 278.431 -6.05427 0.830768 0
M  V30 2966 C 279.429 -6.63849 1.60605 0
M  V30 2967 O 279.117 -7.64998 2.47049 0
M  V30 2968 H 278.849 -0.664261 -0.125432 0
M  V30 2969 H 281.403 -2.03549 0.275163 0
M  V30 2970 H 279.633 -3.36422 -1.90676 0
M  V30 2971 H 281.322 -3.70352 -1.66114 0
M  V30 2972 H 282.088 -4.81776 0.558297 0
M  V30 2973 H 277.967 -4.56513 -0.641611 0
M  V30 2974 H 281.511 -6.64906 2.1106 0
M  V30 2975 H 277.408 -6.39151 0.903107 0
M  V30 2976 H 278.176 -7.82336 2.40607 0
M  V30 2977 N 280.839 0.0985539 -1.57292 0
M  V30 2978 C 282.255 0.45267 -1.53046 0
M  V30 2979 C 282.455 1.80713 -0.891342 0
M  V30 2980 O 281.511 2.4785 -0.482375 0
M  V30 2981 C 282.824 0.418341 -2.97776 0
M  V30 2982 C 284.372 0.500443 -3.08973 0
M  V30 2983 C 284.847 0.496297 -4.55303 0
M  V30 2984 N 286.338 0.557151 -4.59837 0
M  V30 2985 C 287.073 0.575726 -5.70502 0
M  V30 2986 N 286.569 0.550714 -6.90608 0
M  V30 2987 N 288.362 0.620277 -5.58667 0
M  V30 2988 H 280.513 -0.788673 -1.97215 0
M  V30 2989 H 282.776 -0.293188 -0.901524 0
M  V30 2990 H 282.482 -0.509659 -3.47988 0
M  V30 2991 H 282.356 1.2386 -3.56284 0
M  V30 2992 H 284.743 1.41886 -2.58751 0
M  V30 2993 H 284.824 -0.347894 -2.53423 0
M  V30 2994 H 284.468 -0.418162 -5.06176 0
M  V30 2995 H 284.398 1.3618 -5.08687 0
M  V30 2996 H 286.889 0.581816 -3.73394 0
M  V30 2997 H 287.202 0.568075 -7.70709 0
M  V30 2998 H 285.547 0.517816 -6.93068 0
M  V30 2999 H 288.738 0.637322 -4.63741 0
M  V30 3000 H 288.911 0.631283 -6.44918 0
M  V30 3001 N 282.317 1.53212 0.369288 0
M  V30 3002 C 283.227 1.82342 1.47609 0
M  V30 3003 C 284.243 0.711532 1.58787 0
M  V30 3004 O 285.419 1.0012 1.74751 0
M  V30 3005 C 282.484 2.00393 2.8292 0
M  V30 3006 C 281.545 3.24297 2.81301 0
M  V30 3007 C 280.778 3.41478 4.10157 0
M  V30 3008 O 281.001 2.63033 5.06132 0
M  V30 3009 O 279.935 4.34817 4.16194 0
M  V30 3010 H 283.761 2.76366 1.25918 0
M  V30 3011 H 281.346 1.38547 0.559034 0
M  V30 3012 H 283.228 2.13859 3.63101 0
M  V30 3013 H 281.903 1.09559 3.04596 0
M  V30 3014 H 280.81 3.16257 1.99831 0
M  V30 3015 H 282.143 4.15041 2.64578 0
M  V30 3016 N 283.795 -0.628877 1.44509 0
M  V30 3017 C 285.206 -1.21054 1.42137 0
M  V30 3018 C 285.557 -1.95715 0.137881 0
M  V30 3019 O 284.682 -2.02554 -0.761645 0
M  V30 3020 C 285.277 -2.20189 2.57493 0
M  V30 3021 C 283.836 -2.73777 2.58308 0
M  V30 3022 C 282.983 -1.48813 2.33987 0
M  V30 3023 H 285.934 -0.41942 1.53057 0
M  V30 3024 H 285.955 -3.02833 2.30375 0
M  V30 3025 H 285.467 -1.6582 3.50892 0
M  V30 3026 H 283.568 -3.32142 1.68856 0
M  V30 3027 H 283.681 -3.19662 3.56865 0
M  V30 3028 H 282.045 -1.77024 1.83124 0
M  V30 3029 H 282.828 -0.963442 3.29504 0
M  V30 3030 N 285.273 -1.31445 -0.869486 0
M  V30 3031 C 286.52 -1.21158 -1.62256 0
M  V30 3032 C 286.848 0.230155 -1.93133 0
M  V30 3033 O 286.103 1.17906 -1.56194 0
M  V30 3034 C 286.402 -2.00145 -2.96102 0
M  V30 3035 C 286.068 -3.4964 -2.84715 0
M  V30 3036 C 284.73 -3.90403 -2.81317 0
M  V30 3037 C 287.082 -4.44769 -2.71716 0
M  V30 3038 C 284.41 -5.24561 -2.62778 0
M  V30 3039 C 286.762 -5.79054 -2.54714 0
M  V30 3040 C 285.426 -6.19037 -2.49699 0
M  V30 3041 H 284.696 -0.443348 -0.593737 0
M  V30 3042 H 287.343 -1.62715 -1.00976 0
M  V30 3043 H 285.648 -1.5127 -3.6142 0
M  V30 3044 H 287.345 -1.89566 -3.53363 0
M  V30 3045 H 283.935 -3.17256 -2.88178 0
M  V30 3046 H 288.119 -4.14208 -2.73397 0
M  V30 3047 H 283.375 -5.54613 -2.57321 0
M  V30 3048 H 287.549 -6.52393 -2.43632 0
M  V30 3049 H 285.176 -7.22935 -2.35093 0
M  V30 3050 N 286.751 1.08385 -1.14413 0
M  V30 3051 C 287.681 2.17321 -0.854044 0
M  V30 3052 C 288.662 1.69024 0.191049 0
M  V30 3053 O 289.847 1.94141 0.0476779 0
M  V30 3054 C 286.977 3.45719 -0.330983 0
M  V30 3055 C 285.931 4.07409 -1.31155 0
M  V30 3056 C 285.257 5.30762 -0.64778 0
M  V30 3057 C 286.557 4.48665 -2.67388 0
M  V30 3058 H 288.251 2.41845 -1.76498 0
M  V30 3059 H 285.797 1.16233 -0.850051 0
M  V30 3060 H 287.75 4.21241 -0.115645 0
M  V30 3061 H 286.474 3.2075 0.615381 0
M  V30 3062 H 285.133 3.33919 -1.51306 0
M  V30 3063 H 284.781 5.02078 0.304398 0
M  V30 3064 H 284.481 5.72992 -1.30207 0
M  V30 3065 H 286.005 6.08998 -0.441972 0
M  V30 3066 H 287.419 5.15364 -2.51143 0
M  V30 3067 H 285.816 5.01814 -3.29093 0
M  V30 3068 H 286.886 3.60543 -3.24248 0
M  V30 3069 N 288.23 0.939286 1.26551 0
M  V30 3070 C 289.193 0.451987 2.24699 0
M  V30 3071 C 290.193 -0.435869 1.5478 0
M  V30 3072 O 291.383 -0.235314 1.72603 0
M  V30 3073 C 288.515 -0.348801 3.39111 0
M  V30 3074 H 289.708 1.3193 2.69322 0
M  V30 3075 H 287.261 0.721072 1.38673 0
M  V30 3076 H 287.996 -1.23444 2.99887 0
M  V30 3077 H 287.781 0.287945 3.91041 0
M  V30 3078 H 289.271 -0.679726 4.12031 0
M  V30 3079 N 289.708 -1.40897 0.706093 0
M  V30 3080 C 290.671 -2.29131 0.0562841 0
M  V30 3081 C 291.671 -1.44901 -0.697166 0
M  V30 3082 O 292.861 -1.65926 -0.530484 0
M  V30 3083 C 289.993 -3.27957 -0.93043 0
M  V30 3084 H 291.186 -2.88091 0.833284 0
M  V30 3085 H 288.739 -1.4906 0.470192 0
M  V30 3086 H 289.474 -2.73997 -1.73482 0
M  V30 3087 H 289.259 -3.90124 -0.393166 0
M  V30 3088 H 290.749 -3.94049 -1.38256 0
M  V30 3089 N 291.186 -0.45159 -1.50991 0
M  V30 3090 C 292.434 0.109857 -2.01801 0
M  V30 3091 C 292.755 1.41958 -1.3369 0
M  V30 3092 O 292.025 1.9003 -0.475951 0
M  V30 3093 H 290.605 0.0435884 -0.745727 0
M  V30 3094 H 293.267 -0.597557 -1.85514 0
M  V30 3095 H 292.363 0.275489 -3.10882 0
M  V30 3096 N 292.664 1.56529 -0.183458 0
M  V30 3097 C 293.574 2.22144 0.754272 0
M  V30 3098 C 294.59 1.21684 1.24374 0
M  V30 3099 O 295.766 1.54385 1.29333 0
M  V30 3100 C 292.831 2.85884 1.96141 0
M  V30 3101 C 291.892 4.01579 1.51765 0
M  V30 3102 C 291.125 4.6227 2.66725 0
M  V30 3103 O 291.348 4.21865 3.83909 0
M  V30 3104 O 290.282 5.51936 2.40104 0
M  V30 3105 H 294.108 3.02861 0.225527 0
M  V30 3106 H 291.693 1.49331 0.0453032 0
M  V30 3107 H 293.575 3.26253 2.66715 0
M  V30 3108 H 292.25 2.08154 2.47899 0
M  V30 3109 H 291.157 3.65856 0.781049 0
M  V30 3110 H 292.49 4.80938 1.04686 0
M  V30 3111 N 294.142 -0.090211 1.57342 0
M  V30 3112 C 295.105 -1.09335 2.01441 0
M  V30 3113 C 296.105 -1.32666 0.908641 0
M  V30 3114 O 297.295 -1.28697 1.174 0
M  V30 3115 C 294.427 -2.44136 2.3793 0
M  V30 3116 H 295.62 -0.713662 2.91285 0
M  V30 3117 H 293.173 -0.335404 1.52659 0
M  V30 3118 H 293.908 -2.86972 1.51055 0
M  V30 3119 H 293.693 -2.28548 3.18603 0
M  V30 3120 H 295.183 -3.16277 2.72688 0
M  V30 3121 N 295.62 -1.53406 -0.361157 0
M  V30 3122 C 297.036 -1.43277 -0.703124 0
M  V30 3123 C 297.236 -0.575384 -1.9311 0
M  V30 3124 O 296.292 -0.0595362 -2.5243 0
M  V30 3125 C 297.605 -2.8653 -0.9122 0
M  V30 3126 C 299.153 -2.96191 -1.01193 0
M  V30 3127 C 299.628 -4.40514 -1.25345 0
M  V30 3128 N 301.119 -4.43962 -1.32105 0
M  V30 3129 C 301.854 -5.52746 -1.5251 0
M  V30 3130 N 301.35 -6.71567 -1.70203 0
M  V30 3131 N 303.143 -5.40331 -1.54916 0
M  V30 3132 H 295.294 -2.07654 0.446475 0
M  V30 3133 H 297.557 -0.937944 0.137715 0
M  V30 3134 H 297.263 -3.51605 -0.0816414 0
M  V30 3135 H 297.137 -3.30441 -1.81903 0
M  V30 3136 H 299.524 -2.31266 -1.83303 0
M  V30 3137 H 299.605 -2.55667 -0.0823929 0
M  V30 3138 H 299.249 -5.06014 -0.437346 0
M  V30 3139 H 299.179 -4.78614 -2.19627 0
M  V30 3140 H 301.67 -3.58332 -1.20028 0
M  V30 3141 H 301.983 -7.50241 -1.85359 0
M  V30 3142 H 300.328 -6.74545 -1.67373 0
M  V30 3143 H 303.519 -4.46465 -1.40663 0
M  V30 3144 H 303.692 -6.25173 -1.70477 0
M  V30 3145 N 297.098 0.621204 -1.44841 0
M  V30 3146 C 298.514 0.94048 -1.28946 0
M  V30 3147 C 298.714 2.00154 -0.23249 0
M  V30 3148 O 297.77 2.49651 0.378237 0
M  V30 3149 C 299.083 1.39433 -2.66419 0
M  V30 3150 C 300.631 1.50927 -2.74208 0
M  V30 3151 C 301.106 1.99692 -4.12174 0
M  V30 3152 N 302.597 2.06947 -4.144 0
M  V30 3153 C 303.332 2.45871 -5.1801 0
M  V30 3154 N 302.828 2.83862 -6.31977 0
M  V30 3155 N 304.621 2.46092 -5.05366 0
M  V30 3156 H 296.772 -0.0803548 -2.12248 0
M  V30 3157 H 299.035 0.0266913 -0.947624 0
M  V30 3158 H 298.741 0.688925 -3.44887 0
M  V30 3159 H 298.615 2.36347 -2.93973 0
M  V30 3160 H 301.002 2.20561 -1.96053 0
M  V30 3161 H 301.083 0.523627 -2.50383 0
M  V30 3162 H 300.727 1.30649 -4.90809 0
M  V30 3163 H 300.657 2.99146 -4.33381 0
M  V30 3164 H 303.148 1.80232 -3.32152 0
M  V30 3165 H 303.461 3.12405 -7.0684 0
M  V30 3166 H 301.806 2.8159 -6.35399 0
M  V30 3167 H 304.997 2.1581 -4.15384 0
M  V30 3168 H 305.17 2.76102 -5.86235 0
M  V30 3169 N 298.576 1.31904 0.862503 0
M  V30 3170 C 299.987 1.19803 1.43193 0
M  V30 3171 C 300.338 -0.192567 1.95253 0
M  V30 3172 O 299.463 -1.09081 1.86896 0
M  V30 3173 C 300.058 2.16883 2.60283 0
M  V30 3174 C 298.617 2.08692 3.13248 0
M  V30 3175 C 297.764 2.05691 1.85975 0
M  V30 3176 H 300.715 1.43846 0.670365 0
M  V30 3177 H 300.736 1.76278 3.37204 0
M  V30 3178 H 300.248 3.18083 2.22363 0
M  V30 3179 H 298.349 1.10713 3.55771 0
M  V30 3180 H 298.462 2.9815 3.75025 0
M  V30 3181 H 296.826 1.50814 2.05249 0
M  V30 3182 H 297.609 3.08659 1.50282 0
M  V30 3183 N 300.054 -1.07777 1.14986 0
M  V30 3184 C 301.282 -1.84018 0.945773 0
M  V30 3185 C 301.697 -1.81897 -0.505863 0
M  V30 3186 O 301.054 -1.22726 -1.35072 0
M  V30 3187 C 301.105 -3.31287 1.44677 0
M  V30 3188 O 300.826 -3.33449 2.84154 0
M  V30 3189 C 302.327 -4.24311 1.28355 0
M  V30 3190 H 299.547 -0.580716 0.336169 0
M  V30 3191 H 302.091 -1.36077 1.52654 0
M  V30 3192 H 300.246 -3.76594 0.908625 0
M  V30 3193 H 300.66 -4.25427 3.06777 0
M  V30 3194 H 302.134 -5.2573 1.68261 0
M  V30 3195 H 302.611 -4.38612 0.227184 0
M  V30 3196 H 303.217 -3.84836 1.81056 0
M  V30 3197 N 301.532 -0.945985 -1.26051 0
M  V30 3198 C 302.462 -0.477172 -2.28572 0
M  V30 3199 C 303.443 0.472032 -1.63419 0
M  V30 3200 O 304.628 0.372853 -1.90587 0
M  V30 3201 C 301.758 0.253975 -3.4637 0
M  V30 3202 C 300.712 -0.609135 -4.23643 0
M  V30 3203 C 300.038 0.252252 -5.34105 0
M  V30 3204 C 301.338 -1.8829 -4.8718 0
M  V30 3205 H 303.032 -1.33402 -2.68038 0
M  V30 3206 H 300.578 -0.642904 -1.28852 0
M  V30 3207 H 302.531 0.593016 -4.17207 0
M  V30 3208 H 301.255 1.145 -3.05871 0
M  V30 3209 H 299.914 -0.931138 -3.54578 0
M  V30 3210 H 299.562 1.14278 -4.89846 0
M  V30 3211 H 299.262 -0.32188 -5.86718 0
M  V30 3212 H 300.786 0.586454 -6.07777 0
M  V30 3213 H 302.2 -1.61081 -5.50205 0
M  V30 3214 H 300.597 -2.40199 -5.49931 0
M  V30 3215 H 301.667 -2.59134 -4.09851 0
M  V30 3216 N 303.011 1.40521 -0.713556 0
M  V30 3217 C 304.236 2.05759 -0.26035 0
M  V30 3218 C 304.661 1.53403 1.08854 0
M  V30 3219 O 304.019 0.668535 1.68524 0
M  V30 3220 C 304.067 3.59745 -0.248122 0
M  V30 3221 O 303.171 4.05123 0.77131 0
M  V30 3222 H 302.512 0.652564 -0.122703 0
M  V30 3223 H 305.042 1.79958 -0.973467 0
M  V30 3224 H 305.052 4.07911 -0.0851129 0
M  V30 3225 H 303.727 3.97218 -1.2325 0
M  V30 3226 H 302.304 3.68422 0.57619 0
M  V30 3227 N 304.489 0.459591 1.5075 0
M  V30 3228 C 305.735 -0.091664 2.03193 0
M  V30 3229 C 306.09 -1.38432 1.3362 0
M  V30 3230 O 305.383 -1.86257 0.449322 0
M  V30 3231 C 305.577 -0.342866 3.55752 0
M  V30 3232 C 305.406 0.923888 4.40107 0
M  V30 3233 C 304.176 1.46388 4.83631 0
M  V30 3234 C 306.374 1.81617 4.81165 0
M  V30 3235 N 304.356 2.68086 5.52271 0
M  V30 3236 C 305.727 2.87907 5.49099 0
M  V30 3237 C 307.782 1.82793 4.63132 0
M  V30 3238 C 306.485 3.95347 6.0091 0
M  V30 3239 C 308.511 2.89182 5.15876 0
M  V30 3240 C 307.873 3.94191 5.83774 0
M  V30 3241 H 303.972 0.00619247 0.781975 0
M  V30 3242 H 306.556 0.625233 1.84388 0
M  V30 3243 H 304.727 -1.0288 3.74527 0
M  V30 3244 H 306.459 -0.887445 3.9485 0
M  V30 3245 H 303.214 1.01466 4.62603 0
M  V30 3246 H 303.638 3.29857 5.91205 0
M  V30 3247 H 308.28 1.0293 4.1008 0
M  V30 3248 H 305.998 4.76035 6.53006 0
M  V30 3249 H 309.584 2.91061 5.0376 0
M  V30 3250 H 308.464 4.75161 6.23853 0
M  V30 3251 N 305.967 -1.56429 0.191757 0
M  V30 3252 C 307.378 -1.83912 -0.321428 0
M  V30 3253 C 307.729 -1.11231 -1.61623 0
M  V30 3254 O 306.854 -0.37202 -2.13178 0
M  V30 3255 C 307.449 -3.33624 -0.589961 0
M  V30 3256 C 306.008 -3.6153 -1.04753 0
M  V30 3257 C 305.155 -2.7714 -0.0943327 0
M  V30 3258 H 308.106 -1.53161 0.415612 0
M  V30 3259 H 308.127 -3.52213 -1.43966 0
M  V30 3260 H 307.639 -3.86495 0.352588 0
M  V30 3261 H 305.74 -3.14089 -2.00447 0
M  V30 3262 H 305.853 -4.69737 -0.942549 0
M  V30 3263 H 304.217 -2.47638 -0.595589 0
M  V30 3264 H 305 -3.32799 0.842601 0
M  V30 3265 N 307.445 0.0818655 -1.57387 0
M  V30 3266 C 308.861 0.436412 -1.53517 0
M  V30 3267 C 309.061 1.79758 -0.910459 0
M  V30 3268 O 308.117 2.47324 -0.508636 0
M  V30 3269 C 309.43 0.386734 -2.98203 0
M  V30 3270 C 310.978 0.467644 -3.09487 0
M  V30 3271 C 311.453 0.447978 -4.55804 0
M  V30 3272 N 312.944 0.508348 -4.60402 0
M  V30 3273 C 313.679 0.515184 -5.71081 0
M  V30 3274 N 313.175 0.477435 -6.91153 0
M  V30 3275 N 314.968 0.560988 -5.59294 0
M  V30 3276 H 307.119 -0.809546 -1.96367 0
M  V30 3277 H 309.382 -0.302733 -0.898363 0
M  V30 3278 H 309.088 -0.546539 -3.47427 0
M  V30 3279 H 308.962 1.20075 -3.57578 0
M  V30 3280 H 311.349 1.39134 -2.60242 0
M  V30 3281 H 311.43 -0.374753 -2.5304 0
M  V30 3282 H 311.074 -0.471826 -5.05704 0
M  V30 3283 H 311.004 1.30777 -5.10103 0
M  V30 3284 H 313.495 0.54218 -3.7399 0
M  V30 3285 H 313.808 0.486299 -7.71268 0
M  V30 3286 H 312.153 0.444278 -6.93579 0
M  V30 3287 H 315.344 0.5881 -4.64391 0
M  V30 3288 H 315.517 0.562846 -6.45551 0
M  V30 3289 N 308.923 1.53595 0.353017 0
M  V30 3290 C 309.855 1.77219 1.45348 0
M  V30 3291 C 310.868 0.65324 1.49119 0
M  V30 3292 O 312.057 0.929775 1.52373 0
M  V30 3293 C 309.157 1.84841 2.84055 0
M  V30 3294 C 308.33 3.14649 3.03833 0
M  V30 3295 C 307.389 3.13351 4.22727 0
M  V30 3296 O 306.415 3.87107 4.17297 0
M  V30 3297 N 307.617 2.35052 5.30783 0
M  V30 3298 H 310.382 2.72178 1.25457 0
M  V30 3299 H 307.943 1.52528 0.542833 0
M  V30 3300 H 309.935 1.81435 3.61751 0
M  V30 3301 H 308.505 0.971114 2.97133 0
M  V30 3302 H 307.725 3.31256 2.13689 0
M  V30 3303 H 309.013 4.00411 3.13925 0
M  V30 3304 H 308.411 1.74663 5.38061 0
M  V30 3305 H 306.968 2.37453 6.07009 0
M  V30 3306 N 310.401 -0.613514 1.45168 0
M  V30 3307 C 311.65 -1.36874 1.4815 0
M  V30 3308 C 311.963 -1.952 0.124982 0
M  V30 3309 O 313.169 -2.71481 0.0324176 0
M  V30 3310 C 311.625 -2.47905 2.60904 0
M  V30 3311 C 311.233 -1.96016 4.02842 0
M  V30 3312 C 312.977 -3.24965 2.73126 0
M  V30 3313 C 310.884 -3.04494 5.06988 0
M  V30 3314 H 309.814 -0.514428 0.551253 0
M  V30 3315 H 312.465 -0.658182 1.7129 0
M  V30 3316 H 310.847 -3.21618 2.31037 0
M  V30 3317 H 312.021 -1.29051 4.4236 0
M  V30 3318 H 310.336 -1.31719 3.95018 0
M  V30 3319 H 312.933 -4.05865 3.48106 0
M  V30 3320 H 313.276 -3.75588 1.79553 0
M  V30 3321 H 313.809 -2.5835 3.0249 0
M  V30 3322 H 310.548 -2.58795 6.0225 0
M  V30 3323 H 310.068 -3.70044 4.72046 0
M  V30 3324 H 311.747 -3.68976 5.31475 0
M  V30 3325 N 311.879 -1.3236 -0.855495 0
M  V30 3326 C 313.29 -1.2056 -1.42556 0
M  V30 3327 C 313.641 0.182209 -1.95352 0
M  V30 3328 O 312.766 1.08088 -1.87472 0
M  V30 3329 C 313.361 -2.1826 -2.59129 0
M  V30 3330 C 311.92 -2.10351 -3.12137 0
M  V30 3331 C 311.067 -2.06674 -1.84882 0
M  V30 3332 H 314.018 -1.442 -0.662727 0
M  V30 3333 H 314.039 -1.78064 -3.36264 0
M  V30 3334 H 313.551 -3.19257 -2.20673 0
M  V30 3335 H 311.652 -1.12599 -3.55179 0
M  V30 3336 H 311.765 -3.00135 -3.73438 0
M  V30 3337 H 310.129 -1.51901 -2.04446 0
M  V30 3338 H 310.912 -3.09451 -1.48643 0
M  V30 3339 N 313.357 1.07166 -1.15556 0
M  V30 3340 C 314.606 1.79181 -0.926132 0
M  V30 3341 C 314.919 1.87768 0.547967 0
M  V30 3342 O 316.125 2.56323 0.895036 0
M  V30 3343 C 314.581 3.22 -1.60761 0
M  V30 3344 C 314.189 3.21607 -3.11886 0
M  V30 3345 C 315.933 3.9861 -1.4598 0
M  V30 3346 C 313.84 4.59092 -3.72812 0
M  V30 3347 H 312.77 0.67154 -0.342856 0
M  V30 3348 H 315.421 1.2027 -1.3859 0
M  V30 3349 H 313.803 3.81115 -1.07553 0
M  V30 3350 H 314.977 2.72127 -3.71865 0
M  V30 3351 H 313.292 2.58495 -3.2645 0
M  V30 3352 H 315.889 5.00225 -1.88888 0
M  V30 3353 H 316.232 4.143 -0.407541 0
M  V30 3354 H 316.765 3.45996 -1.96295 0
M  V30 3355 H 313.504 4.48606 -4.77946 0
M  V30 3356 H 313.024 5.08803 -3.17616 0
M  V30 3357 H 314.703 5.28059 -3.73848 0
M  V30 3358 N 314.835 0.952656 1.25548 0
M  V30 3359 C 315.798 0.475794 2.24207 0
M  V30 3360 C 316.798 -0.419428 1.55234 0
M  V30 3361 O 317.988 -0.216994 1.72843 0
M  V30 3362 C 315.12 -0.312814 3.39462 0
M  V30 3363 H 316.313 1.34779 2.67908 0
M  V30 3364 H 313.866 0.735739 1.37901 0
M  V30 3365 H 314.601 -1.20257 3.01179 0
M  V30 3366 H 314.386 0.329404 3.90714 0
M  V30 3367 H 315.876 -0.635986 4.12729 0
M  V30 3368 N 316.313 -1.40141 0.720998 0
M  V30 3369 C 317.561 -2.0039 0.262323 0
M  V30 3370 C 317.882 -1.57469 -1.15015 0
M  V30 3371 O 317.152 -0.816582 -1.78069 0
M  V30 3372 H 315.732 -0.741063 0.093996 0
M  V30 3373 H 318.394 -1.71398 0.927835 0
M  V30 3374 H 317.49 -3.10658 0.299671 0
M  V30 3375 N 317.792 -0.46758 -1.50504 0
M  V30 3376 C 319.02 0.0864133 -2.06719 0
M  V30 3377 C 319.435 1.33819 -1.33184 0
M  V30 3378 O 318.792 1.78061 -0.400083 0
M  V30 3379 C 318.843 0.378079 -3.59517 0
M  V30 3380 O 318.564 -0.824044 -4.3028 0
M  V30 3381 C 320.065 0.979426 -4.32345 0
M  V30 3382 H 317.285 -0.00551697 -0.670977 0
M  V30 3383 H 319.829 -0.655354 -1.93715 0
M  V30 3384 H 317.984 1.06977 -3.72337 0
M  V30 3385 H 318.398 -0.566518 -5.21432 0
M  V30 3386 H 319.872 1.1333 -5.40241 0
M  V30 3387 H 320.349 1.9686 -3.9261 0
M  V30 3388 H 320.955 0.326216 -4.24047 0
M  V30 3389 N 319.27 1.56325 -0.20005 0
M  V30 3390 C 320.681 1.8408 0.31167 0
M  V30 3391 C 321.032 1.12087 1.61031 0
M  V30 3392 O 320.157 0.38332 2.12978 0
M  V30 3393 C 320.752 3.33932 0.57226 0
M  V30 3394 C 319.311 3.6208 1.02834 0
M  V30 3395 C 318.458 2.77186 0.079634 0
M  V30 3396 H 321.409 1.52939 -0.423729 0
M  V30 3397 H 321.43 3.52971 1.42096 0
M  V30 3398 H 320.942 3.86303 -0.37308 0
M  V30 3399 H 319.043 3.15147 1.98778 0
M  V30 3400 H 319.156 4.7023 0.917624 0
M  V30 3401 H 317.52 2.47951 0.582448 0
M  V30 3402 H 318.303 3.32347 -0.860238 0
M  V30 3403 N 320.748 -0.0735177 1.57428 0
M  V30 3404 C 321.711 -1.07192 2.02589 0
M  V30 3405 C 322.711 -1.31695 0.922661 0
M  V30 3406 O 323.901 -1.27445 1.18758 0
M  V30 3407 C 321.033 -2.41599 2.40506 0
M  V30 3408 H 322.226 -0.682727 2.92025 0
M  V30 3409 H 319.779 -0.319193 1.53006 0
M  V30 3410 H 320.514 -2.85354 1.5409 0
M  V30 3411 H 320.299 -2.25156 3.21009 0
M  V30 3412 H 321.789 -3.13367 2.76027 0
M  V30 3413 N 322.226 -1.5378 -0.344866 0
M  V30 3414 C 323.503 -1.61589 -1.10219 0
M  V30 3415 C 323.883 -0.436316 -2.06542 0
M  V30 3416 O 323.231 0.571543 -2.21237 0
M  V30 3417 C 323.441 -2.97602 -1.82301 0
M  V30 3418 C 324.789 -3.5291 -2.36093 0
M  V30 3419 O 325.813 -2.99768 -1.924 0
M  V30 3420 O 324.672 -4.45859 -3.16026 0
M  V30 3421 H 321.766 -0.653522 -0.506792 0
M  V30 3422 H 324.312 -1.66126 -0.346465 0
M  V30 3423 H 323.084 -3.74893 -1.12121 0
M  V30 3424 H 322.707 -2.9665 -2.64735 0
M  V30 3425 N 323.704 0.605807 -1.45491 0
M  V30 3426 C 324.95 1.36679 -1.49823 0
M  V30 3427 C 325.283 1.93693 -0.140175 0
M  V30 3428 O 324.558 1.75158 0.845581 0
M  V30 3429 C 324.841 2.51337 -2.57879 0
M  V30 3430 C 324.694 1.99508 -4.03134 0
M  V30 3431 C 326.013 3.53463 -2.62205 0
M  V30 3432 H 323.132 0.495617 -0.545466 0
M  V30 3433 H 325.774 0.682732 -1.7731 0
M  V30 3434 H 323.924 3.09691 -2.34571 0
M  V30 3435 H 325.596 1.45789 -4.37656 0
M  V30 3436 H 323.839 1.30496 -4.13707 0
M  V30 3437 H 324.51 2.82169 -4.74431 0
M  V30 3438 H 326.986 3.04953 -2.83095 0
M  V30 3439 H 325.862 4.31178 -3.39672 0
M  V30 3440 H 326.123 4.09197 -1.67363 0
M  V30 3441 N 325.182 1.32811 0.848464 0
M  V30 3442 C 326.428 1.23907 1.60546 0
M  V30 3443 C 326.761 -0.197161 1.93197 0
M  V30 3444 O 326.036 -1.13596 1.5788 0
M  V30 3445 C 326.319 2.10489 2.92175 0
M  V30 3446 C 326.172 3.62522 2.66266 0
M  V30 3447 C 327.491 1.97075 3.93509 0
M  V30 3448 H 324.61 0.451459 0.58254 0
M  V30 3449 H 327.252 1.62818 0.979296 0
M  V30 3450 H 325.402 1.77434 3.45614 0
M  V30 3451 H 327.074 4.05821 2.19334 0
M  V30 3452 H 325.317 3.84879 2.00126 0
M  V30 3453 H 325.988 4.18437 3.6002 0
M  V30 3454 H 328.464 2.26045 3.49346 0
M  V30 3455 H 327.34 2.59923 4.83457 0
M  V30 3456 H 327.601 0.940186 4.31987 0
M  V30 3457 N 326.66 -1.06551 1.16123 0
M  V30 3458 C 327.623 -2.12132 0.867906 0
M  V30 3459 C 328.623 -1.60224 -0.135944 0
M  V30 3460 O 329.813 -1.73943 0.0946422 0
M  V30 3461 C 326.945 -3.396 0.297419 0
M  V30 3462 H 328.138 -2.39586 1.80385 0
M  V30 3463 H 325.691 -1.22574 0.969812 0
M  V30 3464 H 326.426 -3.17794 -0.64633 0
M  V30 3465 H 326.211 -3.78581 1.02073 0
M  V30 3466 H 327.701 -4.17455 0.110052 0
M  V30 3467 N 328.138 -0.959301 -1.25041 0
M  V30 3468 C 329.387 -0.612254 -1.92183 0
M  V30 3469 C 329.7 0.855347 -1.75907 0
M  V30 3470 O 330.906 1.31256 -2.37664 0
M  V30 3471 C 329.362 -1.04435 -3.44414 0
M  V30 3472 C 328.97 -2.53482 -3.69393 0
M  V30 3473 C 330.714 -0.770055 -4.17457 0
M  V30 3474 C 328.621 -2.90468 -5.15153 0
M  V30 3475 H 327.551 -0.225279 -0.719559 0
M  V30 3476 H 330.202 -1.16438 -1.41825 0
M  V30 3477 H 328.584 -0.4206 -3.9376 0
M  V30 3478 H 329.758 -3.20916 -3.30681 0
M  V30 3479 H 328.073 -2.78432 -3.0962 0
M  V30 3480 H 330.67 -1.02249 -5.24832 0
M  V30 3481 H 331.013 0.293611 -4.15263 0
M  V30 3482 H 331.546 -1.35437 -3.74034 0
M  V30 3483 H 328.285 -3.95871 -5.22462 0
M  V30 3484 H 327.805 -2.27711 -5.54894 0
M  V30 3485 H 329.484 -2.79914 -5.83315 0
M  V30 3486 N 329.616 1.39756 -0.72842 0
M  V30 3487 C 330.579 2.29012 -0.0927297 0
M  V30 3488 C 331.579 1.45992 0.674025 0
M  V30 3489 O 332.769 1.66749 0.50402 0
M  V30 3490 C 329.901 3.29396 0.878137 0
M  V30 3491 H 331.094 2.86729 -0.879011 0
M  V30 3492 H 328.647 1.48293 -0.493847 0
M  V30 3493 H 329.382 2.76722 1.69101 0
M  V30 3494 H 329.167 3.907 0.331051 0
M  V30 3495 H 330.657 3.96199 1.3197 0
M  V30 3496 N 331.094 0.475555 1.50254 0
M  V30 3497 C 332.51 0.12997 1.5907 0
M  V30 3498 C 332.71 -1.36385 1.48328 0
M  V30 3499 O 331.766 -2.13754 1.34407 0
M  V30 3500 C 333.079 0.684139 2.92814 0
M  V30 3501 C 334.627 0.647965 3.0622 0
M  V30 3502 C 335.102 1.17975 4.42545 0
M  V30 3503 N 336.593 1.13936 4.48969 0
M  V30 3504 C 337.328 1.52129 5.52851 0
M  V30 3505 N 336.824 1.97793 6.63965 0
M  V30 3506 N 338.617 1.43704 5.4342 0
M  V30 3507 H 330.768 1.44706 1.55479 0
M  V30 3508 H 333.031 0.598691 0.735033 0
M  V30 3509 H 332.737 1.73079 3.06164 0
M  V30 3510 H 332.611 0.130204 3.76975 0
M  V30 3511 H 334.998 -0.38979 2.92514 0
M  V30 3512 H 335.079 1.23876 2.23805 0
M  V30 3513 H 334.723 2.21616 4.57 0
M  V30 3514 H 334.653 0.565138 5.23559 0
M  V30 3515 H 337.144 0.804488 3.69238 0
M  V30 3516 H 337.457 2.25072 7.39299 0
M  V30 3517 H 335.802 2.01749 6.65073 0
M  V30 3518 H 338.993 1.07867 4.55502 0
M  V30 3519 H 339.166 1.73794 6.24259 0
M  V30 3520 N 332.573 -1.56217 0.208337 0
M  V30 3521 C 333.85 -1.89739 -0.475234 0
M  V30 3522 C 334.23 -1.1238 -1.78701 0
M  V30 3523 O 333.578 -0.228979 -2.2735 0
M  V30 3524 C 333.788 -3.42289 -0.681101 0
M  V30 3525 C 335.136 -4.12789 -0.994507 0
M  V30 3526 O 336.16 -3.47814 -0.768357 0
M  V30 3527 O 335.019 -5.27649 -1.42299 0
M  V30 3528 H 332.113 -0.788478 -0.249461 0
M  V30 3529 H 334.659 -1.67855 0.249538 0
M  V30 3530 H 333.431 -3.90534 0.244722 0
M  V30 3531 H 333.054 -3.69909 -1.45785 0
M  V30 3532 N 334.051 0.0651679 -1.57465 0
M  V30 3533 C 335.281 0.774683 -1.91526 0
M  V30 3534 C 335.689 1.71305 -0.803196 0
M  V30 3535 O 335.032 1.82231 0.231881 0
M  V30 3536 C 335.094 1.61645 -3.21109 0
M  V30 3537 C 334.758 0.846753 -4.49087 0
M  V30 3538 C 335.755 0.163024 -5.19644 0
M  V30 3539 C 333.44 0.811966 -4.95694 0
M  V30 3540 C 335.434 -0.54519 -6.35064 0
M  V30 3541 C 333.121 0.0999836 -6.11018 0
M  V30 3542 C 334.119 -0.577388 -6.80555 0
M  V30 3543 O 333.807 -1.27789 -7.93678 0
M  V30 3544 H 333.539 0.225031 -0.637446 0
M  V30 3545 H 336.093 0.0377134 -2.05365 0
M  V30 3546 H 334.323 2.39638 -3.03497 0
M  V30 3547 H 336.012 2.20525 -3.40769 0
M  V30 3548 H 336.778 0.181163 -4.84662 0
M  V30 3549 H 332.657 1.32867 -4.41438 0
M  V30 3550 H 336.201 -1.07446 -6.89276 0
M  V30 3551 H 332.098 0.0797945 -6.45451 0
M  V30 3552 H 332.866 -1.18784 -8.09835 0
M  V30 3553 N 335.529 1.53961 0.336706 0
M  V30 3554 C 336.492 1.81724 1.39675 0
M  V30 3555 C 337.492 0.688532 1.45313 0
M  V30 3556 O 338.682 0.956829 1.45569 0
M  V30 3557 C 335.814 1.96543 2.78538 0
M  V30 3558 H 337.007 2.76424 1.16318 0
M  V30 3559 H 334.56 1.45478 0.571474 0
M  V30 3560 H 335.295 1.0401 3.07168 0
M  V30 3561 H 335.08 2.78665 2.75841 0
M  V30 3562 H 336.57 2.19516 3.5525 0
M  V30 3563 N 337.007 -0.598083 1.45811 0
M  V30 3564 C 338.255 -1.35413 1.50026 0
M  V30 3565 C 338.576 -1.94444 0.147177 0
M  V30 3566 O 337.846 -1.77701 -0.824571 0
M  V30 3567 H 336.426 -0.502727 0.552517 0
M  V30 3568 H 339.088 -0.701606 1.81834 0
M  V30 3569 H 338.184 -2.16871 2.2444 0
M  V30 3570 N 338.485 -1.33259 -0.841409 0
M  V30 3571 C 339.731 -1.25766 -1.59857 0
M  V30 3572 C 340.086 0.175602 -1.91597 0
M  V30 3573 O 339.379 1.117 -1.55672 0
M  V30 3574 C 339.573 -2.06381 -2.9179 0
M  V30 3575 C 339.402 -3.57401 -2.72937 0
M  V30 3576 C 338.172 -4.26718 -2.70628 0
M  V30 3577 C 340.37 -4.51786 -2.45753 0
M  V30 3578 N 338.352 -5.63705 -2.43125 0
M  V30 3579 C 339.723 -5.76643 -2.27777 0
M  V30 3580 C 341.778 -4.40898 -2.31329 0
M  V30 3581 C 340.481 -6.91842 -1.96841 0
M  V30 3582 C 342.507 -5.55911 -2.01786 0
M  V30 3583 C 341.869 -6.79776 -1.8462 0
M  V30 3584 H 337.968 -0.515406 -0.588117 0
M  V30 3585 H 340.552 -1.67772 -0.987955 0
M  V30 3586 H 338.723 -1.667 -3.50807 0
M  V30 3587 H 340.455 -1.90678 -3.56965 0
M  V30 3588 H 337.21 -3.78968 -2.84043 0
M  V30 3589 H 337.634 -6.35911 -2.32265 0
M  V30 3590 H 342.276 -3.45772 -2.43314 0
M  V30 3591 H 339.994 -7.86968 -1.83594 0
M  V30 3592 H 343.58 -5.49421 -1.91384 0
M  V30 3593 H 342.46 -7.67266 -1.62088 0
M  V30 3594 N 339.963 1.05934 -1.16686 0
M  V30 3595 C 340.893 2.1546 -0.899949 0
M  V30 3596 C 341.874 1.69391 0.155154 0
M  V30 3597 O 343.059 1.94199 0.00648693 0
M  V30 3598 C 340.189 3.44939 -0.404241 0
M  V30 3599 C 339.143 4.04536 -1.39767 0
M  V30 3600 C 338.469 5.29268 -0.760216 0
M  V30 3601 C 339.769 4.42893 -2.76845 0
M  V30 3602 H 341.463 2.38046 -1.81588 0
M  V30 3603 H 339.009 1.14404 -0.874514 0
M  V30 3604 H 340.962 4.20901 -0.204971 0
M  V30 3605 H 339.686 3.21983 0.547206 0
M  V30 3606 H 338.345 3.30635 -1.58355 0
M  V30 3607 H 337.993 5.02611 0.197831 0
M  V30 3608 H 337.693 5.70101 -1.42332 0
M  V30 3609 H 339.217 6.07924 -0.57105 0
M  V30 3610 H 340.631 5.09921 -2.62019 0
M  V30 3611 H 339.028 4.94721 -3.39663 0
M  V30 3612 H 340.098 3.53584 -3.31823 0
M  V30 3613 N 341.441 0.965919 1.2453 0
M  V30 3614 C 342.666 0.643971 1.97149 0
M  V30 3615 C 343.091 -0.779487 1.71189 0
M  V30 3616 O 342.449 -1.5288 0.974553 0
M  V30 3617 C 342.497 0.922557 3.48599 0
M  V30 3618 O 341.601 0.00707672 4.12399 0
M  V30 3619 H 340.942 0.243647 0.617683 0
M  V30 3620 H 343.472 1.29558 1.58353 0
M  V30 3621 H 343.482 0.853373 3.98976 0
M  V30 3622 H 342.157 1.95996 3.66822 0
M  V30 3623 H 340.734 0.12943 3.72675 0
M  V30 3624 N 342.919 -1.39368 0.735821 0
M  V30 3625 C 343.829 -2.34395 0.0979693 0
M  V30 3626 C 344.845 -1.58361 -0.720968 0
M  V30 3627 O 346.021 -1.90648 -0.649245 0
M  V30 3628 C 343.086 -3.37393 -0.797916 0
M  V30 3629 C 342.147 -4.29287 0.0333662 0
M  V30 3630 C 341.38 -5.27365 -0.819854 0
M  V30 3631 O 341.603 -5.31959 -2.05855 0
M  V30 3632 O 340.537 -6.01389 -0.248079 0
M  V30 3633 H 344.363 -2.90601 0.882315 0
M  V30 3634 H 341.948 -1.40909 0.4965 0
M  V30 3635 H 343.83 -4.00505 -1.31048 0
M  V30 3636 H 342.505 -2.83571 -1.56106 0
M  V30 3637 H 341.412 -3.69395 0.591475 0
M  V30 3638 H 342.745 -4.86317 0.758752 0
M  V30 3639 N 344.397 -0.483516 -1.5 0
M  V30 3640 C 345.622 0.0667119 -2.07293 0
M  V30 3641 C 346.047 1.3164 -1.3436 0
M  V30 3642 O 345.405 1.76945 -0.394987 0
M  V30 3643 C 345.453 0.321126 -3.59167 0
M  V30 3644 O 344.557 1.39927 -3.87936 0
M  V30 3645 H 343.898 -0.0184758 -0.663743 0
M  V30 3646 H 346.428 -0.678125 -1.93035 0
M  V30 3647 H 346.438 0.557906 -4.04168 0
M  V30 3648 H 345.113 -0.592007 -4.11665 0
M  V30 3649 H 343.69 1.14882 -3.54763 0
M  V30 3650 N 345.875 1.56104 -0.216619 0
M  V30 3651 C 347.286 1.844 0.292128 0
M  V30 3652 C 347.637 1.13788 1.59833 0
M  V30 3653 O 346.762 0.405888 2.12559 0
M  V30 3654 C 347.357 3.3452 0.53681 0
M  V30 3655 C 345.916 3.63151 0.989876 0
M  V30 3656 C 345.063 2.77255 0.0502302 0
M  V30 3657 H 348.014 1.52481 -0.439926 0
M  V30 3658 H 348.035 3.54459 1.38345 0
M  V30 3659 H 347.547 3.85885 -0.414031 0
M  V30 3660 H 345.648 3.17238 1.95425 0
M  V30 3661 H 345.761 4.71177 0.867698 0
M  V30 3662 H 344.125 2.48555 0.556117 0
M  V30 3663 H 344.908 3.31416 -0.89544 0
M  V30 3664 N 347.353 -0.0568162 1.57498 0
M  V30 3665 C 348.602 -0.752001 1.87157 0
M  V30 3666 C 348.915 -1.77978 0.811375 0
M  V30 3667 O 350.121 -2.52559 0.996293 0
M  V30 3668 C 348.577 -1.38844 3.3204 0
M  V30 3669 C 348.185 -0.398456 4.46225 0
M  V30 3670 C 349.929 -2.06512 3.70882 0
M  V30 3671 C 347.836 -1.04166 5.82154 0
M  V30 3672 H 346.766 -0.28461 0.698222 0
M  V30 3673 H 349.417 -0.00561272 1.83499 0
M  V30 3674 H 347.799 -2.1836 3.30356 0
M  V30 3675 H 348.973 0.367977 4.59328 0
M  V30 3676 H 347.288 0.174592 4.16034 0
M  V30 3677 H 349.885 -2.55437 4.6974 0
M  V30 3678 H 350.228 -2.87117 3.01445 0
M  V30 3679 H 350.761 -1.33808 3.7462 0
M  V30 3680 H 347.5 -0.275614 6.5492 0
M  V30 3681 H 347.02 -1.7786 5.72823 0
M  V30 3682 H 348.699 -1.55715 6.27982 0
M  V30 3683 N 348.832 -1.54138 -0.328536 0
M  V30 3684 C 350.243 -1.63395 -0.903272 0
M  V30 3685 C 350.594 -0.524828 -1.8905 0
M  V30 3686 O 349.719 0.343068 -2.13663 0
M  V30 3687 C 350.314 -2.9618 -1.64507 0
M  V30 3688 C 348.873 -3.0765 -2.1686 0
M  V30 3689 C 348.02 -2.58933 -0.992416 0
M  V30 3690 H 350.971 -1.58344 -0.106253 0
M  V30 3691 H 350.992 -2.86061 -2.50897 0
M  V30 3692 H 350.504 -3.76884 -0.926302 0
M  V30 3693 H 348.605 -2.31611 -2.91868 0
M  V30 3694 H 348.718 -4.1337 -2.42202 0
M  V30 3695 H 347.082 -2.14706 -1.37016 0
M  V30 3696 H 347.865 -3.42089 -0.288041 0
M  V30 3697 N 350.31 0.590341 -1.46126 0
M  V30 3698 C 351.257 1.69994 -1.56111 0
M  V30 3699 C 352.227 1.61065 -0.405867 0
M  V30 3700 O 353.412 1.8039 -0.621613 0
M  V30 3701 C 350.552 3.08326 -1.55013 0
M  V30 3702 C 349.665 3.27936 -2.81215 0
M  V30 3703 C 348.8 4.56473 -2.71673 0
M  V30 3704 C 347.839 4.694 -3.92849 0
M  V30 3705 N 346.976 5.89254 -3.81738 0
M  V30 3706 H 351.816 1.60797 -2.50895 0
M  V30 3707 H 349.353 0.783799 -1.24479 0
M  V30 3708 H 351.311 3.88383 -1.52362 0
M  V30 3709 H 349.941 3.16439 -0.637667 0
M  V30 3710 H 348.993 2.41536 -2.93879 0
M  V30 3711 H 350.305 3.33357 -3.71045 0
M  V30 3712 H 349.459 5.44748 -2.67085 0
M  V30 3713 H 348.198 4.53477 -1.7947 0
M  V30 3714 H 347.203 3.79544 -3.97777 0
M  V30 3715 H 348.428 4.7418 -4.86138 0
M  V30 3716 H 346.374 5.87271 -2.92317 0
M  V30 3717 H 346.291 5.95911 -4.65217 0
M  V30 3718 H 347.559 6.79981 -3.81112 0
M  V30 3719 N 351.788 1.33704 0.83433 0
M  V30 3720 C 352.718 1.26967 1.95963 0
M  V30 3721 C 353.699 0.149337 1.69443 0
M  V30 3722 O 354.884 0.339852 1.91203 0
M  V30 3723 C 352.014 1.01275 3.32206 0
M  V30 3724 C 350.968 2.09652 3.73136 0
M  V30 3725 C 350.294 1.69166 5.07235 0
M  V30 3726 C 351.594 3.51372 3.86439 0
M  V30 3727 H 353.288 2.2112 2.01857 0
M  V30 3728 H 350.834 1.06447 0.969793 0
M  V30 3729 H 352.787 0.952106 4.10503 0
M  V30 3730 H 351.511 0.0356203 3.26581 0
M  V30 3731 H 350.17 2.14766 2.97104 0
M  V30 3732 H 349.818 0.701437 4.98085 0
M  V30 3733 H 349.518 2.41694 5.35591 0
M  V30 3734 H 351.042 1.64576 5.88003 0
M  V30 3735 H 352.456 3.48734 4.55036 0
M  V30 3736 H 350.853 4.22425 4.26236 0
M  V30 3737 H 351.923 3.89546 2.88759 0
M  V30 3738 N 353.266 -1.05314 1.17247 0
M  V30 3739 C 354.513 -1.78293 0.960091 0
M  V30 3740 C 354.841 -1.87658 -0.51136 0
M  V30 3741 O 354.096 -1.3718 -1.39571 0
M  V30 3742 C 354.395 -3.2229 1.54479 0
M  V30 3743 C 354.061 -3.32987 3.04024 0
M  V30 3744 C 352.723 -3.35613 3.44844 0
M  V30 3745 C 355.075 -3.34102 4.00031 0
M  V30 3746 C 352.403 -3.36982 4.8027 0
M  V30 3747 C 354.755 -3.3701 5.35357 0
M  V30 3748 C 353.419 -3.37923 5.75642 0
M  V30 3749 H 352.689 -0.652422 0.351322 0
M  V30 3750 H 355.336 -1.23782 1.46117 0
M  V30 3751 H 353.641 -3.7972 0.965391 0
M  V30 3752 H 355.338 -3.77376 1.35603 0
M  V30 3753 H 351.928 -3.31655 2.71483 0
M  V30 3754 H 356.112 -3.31276 3.69554 0
M  V30 3755 H 351.368 -3.35999 5.10798 0
M  V30 3756 H 355.542 -3.36822 6.09528 0
M  V30 3757 H 353.169 -3.38738 6.80559 0
M  V30 3758 N 354.744 -0.972509 -1.24016 0
M  V30 3759 C 355.993 -0.632603 -1.91523 0
M  V30 3760 C 356.306 0.836641 -1.76804 0
M  V30 3761 O 357.512 1.28728 -2.39043 0
M  V30 3762 C 355.968 -1.08082 -3.43287 0
M  V30 3763 C 355.576 -2.57386 -3.66683 0
M  V30 3764 C 357.32 -0.814288 -4.16617 0
M  V30 3765 C 355.227 -2.95915 -5.12043 0
M  V30 3766 H 354.157 -0.232898 -0.717129 0
M  V30 3767 H 356.808 -1.17936 -1.40582 0
M  V30 3768 H 355.19 -0.462339 -3.93292 0
M  V30 3769 H 356.364 -3.24405 -3.27258 0
M  V30 3770 H 354.679 -2.81701 -3.06649 0
M  V30 3771 H 357.276 -1.0781 -5.23718 0
M  V30 3772 H 357.619 0.24955 -4.15551 0
M  V30 3773 H 358.152 -1.39397 -3.72577 0
M  V30 3774 H 354.891 -4.0139 -5.18234 0
M  V30 3775 H 354.411 -2.33584 -5.52448 0
M  V30 3776 H 356.09 -2.86086 -5.80314 0
M  V30 3777 N 356.222 1.38976 -0.743202 0
M  V30 3778 C 357.17 2.32394 -0.0978389 0
M  V30 3779 C 358.164 1.53486 0.716824 0
M  V30 3780 O 359.37 1.69092 0.617088 0
M  V30 3781 H 355.745 0.75189 -0.0128402 0
M  V30 3782 H 357.716 2.84441 -0.901981 0
M  V30 3783 C 356.465 3.38629 0.789036 0
M  V30 3784 H 355.788 3.99432 0.171559 0
M  V30 3785 H 357.228 4.06426 1.20807 0
M  V30 3786 C 355.687 2.76347 1.92702 0
M  V30 3787 O 356.217 2.64836 3.02034 0
M  V30 3788 N 354.423 2.34311 1.71891 0
M  V30 3789 H 353.97 2.43873 0.829675 0
M  V30 3790 H 353.928 1.9298 2.48205 0
M  V30 3791 N 357.7 0.491464 1.49741 0
M  V30 3792 C 358.663 -0.280906 2.27472 0
M  V30 3793 C 359.663 -0.902454 1.33088 0
M  V30 3794 O 360.853 -0.768465 1.56334 0
M  V30 3795 C 357.985 -1.40209 3.10732 0
M  V30 3796 H 359.178 0.401056 2.97206 0
M  V30 3797 H 356.731 0.246131 1.5435 0
M  V30 3798 H 357.466 -2.11849 2.45541 0
M  V30 3799 H 357.251 -0.961969 3.80117 0
M  V30 3800 H 358.741 -1.9464 3.69466 0
M  V30 3801 N 359.178 -1.55987 0.224894 0
M  V30 3802 C 360.088 -2.24066 -0.69511 0
M  V30 3803 C 361.104 -1.24939 -1.21104 0
M  V30 3804 O 362.28 -1.5776 -1.25195 0
M  V30 3805 C 359.345 -2.90983 -1.88493 0
M  V30 3806 C 358.406 -4.05462 -1.41064 0
M  V30 3807 C 357.639 -4.69179 -2.54375 0
M  V30 3808 O 357.862 -4.31895 -3.72589 0
M  V30 3809 O 356.796 -5.58108 -2.25386 0
M  V30 3810 H 360.622 -3.03353 -0.145149 0
M  V30 3811 H 358.207 -1.49399 -0.00569476 0
M  V30 3812 H 360.089 -3.33209 -2.57972 0
M  V30 3813 H 358.764 -2.14653 -2.42293 0
M  V30 3814 H 357.671 -3.67798 -0.683774 0
M  V30 3815 H 359.004 -4.83545 -0.918985 0
M  V30 3816 N 360.656 0.0484629 -1.57525 0
M  V30 3817 C 362.067 0.597486 -1.76881 0
M  V30 3818 C 362.418 1.76664 -0.853475 0
M  V30 3819 O 361.543 2.16357 -0.0433656 0
M  V30 3820 C 362.138 1.09066 -3.20765 0
M  V30 3821 C 360.697 1.58535 -3.41385 0
M  V30 3822 C 359.844 0.514868 -2.72478 0
M  V30 3823 H 362.795 -0.177758 -1.57701 0
M  V30 3824 H 362.816 1.95875 -3.2621 0
M  V30 3825 H 362.328 0.239521 -3.8736 0
M  V30 3826 H 360.429 2.45898 -2.79937 0
M  V30 3827 H 360.542 1.64622 -4.49929 0
M  V30 3828 H 358.906 0.965407 -2.35695 0
M  V30 3829 H 359.689 -0.32648 -3.41744 0
M  V30 3830 N 362.134 1.5431 0.320358 0
M  V30 3831 C 363.382 1.72327 1.05583 0
M  V30 3832 C 363.703 0.50149 1.88441 0
M  V30 3833 O 362.973 -0.48448 1.89815 0
M  V30 3834 H 361.553 0.635387 0.3928 0
M  V30 3835 H 364.215 1.91621 0.356019 0
M  V30 3836 H 363.311 2.60426 1.72003 0
M  V30 3837 N 363.613 -0.582584 1.46437 0
M  V30 3838 C 364.576 -1.67366 1.56592 0
M  V30 3839 C 365.576 -1.54575 0.443072 0
M  V30 3840 O 366.766 -1.59191 0.707381 0
M  V30 3841 C 363.898 -3.06791 1.48634 0
M  V30 3842 H 365.091 -1.5972 2.5383 0
M  V30 3843 H 362.644 -0.800432 1.34249 0
M  V30 3844 H 363.379 -3.19993 0.526763 0
M  V30 3845 H 363.164 -3.17484 2.30101 0
M  V30 3846 H 364.654 -3.86218 1.58826 0
M  V30 3847 N 365.091 -1.34144 -0.827227 0
M  V30 3848 C 366.021 -1.28005 -1.95287 0
M  V30 3849 C 367.002 -0.158321 -1.69362 0
M  V30 3850 O 368.187 -0.349987 -1.9102 0
M  V30 3851 C 365.317 -1.03036 -3.31664 0
M  V30 3852 C 364.271 -2.11628 -3.72019 0
M  V30 3853 C 363.597 -1.71854 -5.0633 0
M  V30 3854 C 364.897 -3.53417 -3.8457 0
M  V30 3855 H 366.591 -2.22187 -2.00682 0
M  V30 3856 H 364.137 -1.0696 -0.964135 0
M  V30 3857 H 366.09 -0.973863 -4.09993 0
M  V30 3858 H 364.814 -0.0529391 -3.26557 0
M  V30 3859 H 363.473 -2.16339 -2.95961 0
M  V30 3860 H 363.121 -0.727841 -4.97706 0
M  V30 3861 H 362.821 -2.44531 -5.34302 0
M  V30 3862 H 364.345 -1.67692 -5.87122 0
M  V30 3863 H 365.759 -3.51142 -4.5318 0
M  V30 3864 H 364.156 -4.24679 -4.2399 0
M  V30 3865 H 365.226 -3.91072 -2.86689 0
M  V30 3866 N 366.569 1.04691 -1.17803 0
M  V30 3867 C 367.797 1.81446 -0.99423 0
M  V30 3868 C 368.212 1.83174 0.457459 0
M  V30 3869 O 367.569 1.26265 1.31771 0
M  V30 3870 C 367.62 3.27334 -1.5341 0
M  V30 3871 O 367.341 3.25798 -2.92895 0
M  V30 3872 C 368.842 4.20759 -1.39559 0
M  V30 3873 H 366.062 0.571599 -0.351447 0
M  V30 3874 H 368.606 1.31982 -1.56208 0
M  V30 3875 H 366.761 3.74052 -1.00815 0
M  V30 3876 H 367.175 4.17144 -3.17949 0
M  V30 3877 H 368.649 5.21084 -1.82141 0
M  V30 3878 H 369.126 4.37856 -0.343394 0
M  V30 3879 H 369.732 3.79901 -1.91195 0
M  V30 3880 N 368.047 0.979072 1.23499 0
M  V30 3881 C 369.275 0.665202 1.95915 0
M  V30 3882 C 369.69 -0.767571 1.72493 0
M  V30 3883 O 369.047 -1.51635 1.01554 0
M  V30 3884 C 369.098 0.944438 3.48945 0
M  V30 3885 O 368.819 2.3209 3.71572 0
M  V30 3886 C 370.32 0.646336 4.38563 0
M  V30 3887 H 367.54 0.247218 0.623798 0
M  V30 3888 H 370.084 1.31009 1.57025 0
M  V30 3889 H 368.239 0.345575 3.85856 0
M  V30 3890 H 368.653 2.40957 4.65876 0
M  V30 3891 H 370.127 0.892091 5.44744 0
M  V30 3892 H 370.604 -0.419575 4.37191 0
M  V30 3893 H 371.21 1.22562 4.07258 0
M  V30 3894 N 369.525 -1.3858 0.750561 0
M  V30 3895 C 370.773 -1.99789 0.30477 0
M  V30 3896 C 371.094 -1.59874 -1.11649 0
M  V30 3897 O 370.364 -0.85417 -1.76297 0
M  V30 3898 H 368.944 -0.738902 0.109694 0
M  V30 3899 H 371.606 -1.69391 0.963983 0
M  V30 3900 H 370.702 -3.09952 0.365499 0
M  V30 3901 N 371.003 -0.499398 -1.49478 0
M  V30 3902 C 372.419 -0.155261 -1.58843 0
M  V30 3903 C 372.619 1.34008 -1.50479 0
M  V30 3904 O 371.675 2.11589 -1.37791 0
M  V30 3905 C 372.988 -0.730636 -2.91689 0
M  V30 3906 C 374.536 -0.696599 -3.0515 0
M  V30 3907 C 375.011 -1.25001 -4.40612 0
M  V30 3908 N 376.502 -1.21064 -4.47099 0
M  V30 3909 C 377.237 -1.60905 -5.50361 0
M  V30 3910 N 376.733 -2.08331 -6.60735 0
M  V30 3911 N 378.526 -1.52331 -5.41065 0
M  V30 3912 H 370.677 -1.47162 -1.53158 0
M  V30 3913 H 372.94 -0.610309 -0.725415 0
M  V30 3914 H 372.646 -1.77928 -3.03372 0
M  V30 3915 H 372.52 -0.190161 -3.7672 0
M  V30 3916 H 374.907 0.343204 -2.93097 0
M  V30 3917 H 374.988 -1.2742 -2.21806 0
M  V30 3918 H 374.632 -2.28859 -4.53416 0
M  V30 3919 H 374.562 -0.64836 -5.22593 0
M  V30 3920 H 377.053 -0.863128 -3.67911 0
M  V30 3921 H 377.366 -2.36805 -7.35624 0
M  V30 3922 H 375.711 -2.12304 -6.6178 0
M  V30 3923 H 378.902 -1.151 -4.53729 0
M  V30 3924 H 379.075 -1.83704 -6.21415 0
M  V30 3925 N 372.481 1.55866 -0.233164 0
M  V30 3926 C 373.414 2.16794 0.712442 0
M  V30 3927 C 374.392 1.1158 1.18273 0
M  V30 3928 O 375.576 1.39897 1.26337 0
M  V30 3929 C 372.703 2.75757 1.96661 0
M  V30 3930 C 371.749 3.93902 1.63533 0
M  V30 3931 S 372.582 5.30223 0.74995 0
M  V30 3932 C 373.738 5.92631 2.01343 0
M  V30 3933 H 373.971 2.96662 0.194617 0
M  V30 3934 H 371.504 1.5439 -0.0177425 0
M  V30 3935 H 373.462 3.10367 2.68668 0
M  V30 3936 H 372.123 1.9586 2.45556 0
M  V30 3937 H 371.316 4.33702 2.56747 0
M  V30 3938 H 370.918 3.60499 0.995804 0
M  V30 3939 H 373.21 6.09312 2.96219 0
M  V30 3940 H 374.153 6.88388 1.65915 0
M  V30 3941 H 374.561 5.21571 2.15925 0
M  V30 3942 N 373.959 -0.0401083 1.57549 0
M  V30 3943 C 375.375 -0.395556 1.54621 0
M  V30 3944 C 375.575 -1.77281 0.957799 0
M  V30 3945 O 374.631 -2.45888 0.574031 0
M  V30 3946 C 375.944 -0.307535 2.99123 0
M  V30 3947 C 377.492 -0.385425 3.10618 0
M  V30 3948 C 377.967 -0.326973 4.56831 0
M  V30 3949 N 379.458 -0.386102 4.61588 0
M  V30 3950 C 380.193 -0.363591 5.72246 0
M  V30 3951 N 379.689 -0.29402 6.92176 0
M  V30 3952 N 381.482 -0.412503 5.60584 0
M  V30 3953 H 373.633 0.861325 1.94152 0
M  V30 3954 H 375.896 0.326445 0.890021 0
M  V30 3955 H 375.602 0.638461 3.45856 0
M  V30 3956 H 375.476 -1.10552 3.60636 0
M  V30 3957 H 377.863 -1.32185 2.63839 0
M  V30 3958 H 377.944 0.44171 2.51957 0
M  V30 3959 H 377.588 0.605738 5.04275 0
M  V30 3960 H 377.518 -1.17207 5.13391 0
M  V30 3961 H 380.009 -0.442832 3.75296 0
M  V30 3962 H 380.322 -0.28164 7.72287 0
M  V30 3963 H 378.667 -0.260232 6.94513 0
M  V30 3964 H 381.858 -0.464769 4.65787 0
M  V30 3965 H 382.031 -0.391492 6.46816 0
M  V30 3966 N 375.437 -1.54477 -0.31217 0
M  V30 3967 C 376.714 -1.63891 -1.06767 0
M  V30 3968 C 377.094 -0.480028 -2.0557 0
M  V30 3969 O 376.442 0.524487 -2.22399 0
M  V30 3970 C 376.652 -3.01402 -1.75948 0
M  V30 3971 C 378 -3.57838 -2.28554 0
M  V30 3972 O 379.024 -3.03782 -1.85998 0
M  V30 3973 O 377.883 -4.52462 -3.06497 0
M  V30 3974 H 374.977 -0.664125 -0.492816 0
M  V30 3975 H 377.523 -1.66823 -0.311149 0
M  V30 3976 H 376.295 -3.77187 -1.04144 0
M  V30 3977 H 375.918 -3.02199 -2.58383 0
M  V30 3978 N 376.915 0.57481 -1.46744 0
M  V30 3979 C 378.162 1.33272 -1.52462 0
M  V30 3980 C 378.49 1.93669 -0.179572 0
M  V30 3981 O 377.745 1.7743 0.825664 0
M  V30 3982 C 378.044 2.476 -2.57738 0
M  V30 3983 C 377.71 2.05146 -4.01529 0
M  V30 3984 C 376.372 1.93284 -4.40676 0
M  V30 3985 C 378.724 1.72506 -4.91824 0
M  V30 3986 C 376.052 1.47049 -5.67973 0
M  V30 3987 C 378.404 1.27748 -6.19567 0
M  V30 3988 C 377.068 1.14468 -6.57612 0
M  V30 3989 H 376.338 0.487678 -0.557899 0
M  V30 3990 H 378.985 0.646456 -1.80259 0
M  V30 3991 H 377.29 3.21708 -2.23632 0
M  V30 3992 H 378.987 3.05807 -2.5939 0
M  V30 3993 H 375.577 2.15316 -3.7059 0
M  V30 3994 H 379.761 1.80552 -4.62293 0
M  V30 3995 H 375.017 1.35417 -5.96215 0
M  V30 3996 H 379.191 1.01547 -6.88957 0
M  V30 3997 H 376.818 0.78419 -7.56145 0
M  V30 3998 N 378.394 1.34581 0.820102 0
M  V30 3999 C 379.634 1.28448 1.58998 0
M  V30 4000 C 379.998 -0.142883 1.91468 0
M  V30 4001 O 381.199 -0.328422 2.66786 0
M  V30 4002 C 379.47 2.153 2.85273 0
M  V30 4003 S 381.029 2.26548 3.75794 0
M  V30 4004 H 377.847 0.456685 0.54494 0
M  V30 4005 H 380.449 1.69825 0.968487 0
M  V30 4006 H 379.153 3.18008 2.59421 0
M  V30 4007 H 378.684 1.7483 3.52417 0
M  V30 4008 H 380.699 1.44034 4.74835 0
M  V30 4009 N 379.872 -1.04064 1.18357 0
M  V30 4010 C 381.288 -1.2947 0.933258 0
M  V30 4011 C 381.488 -1.97466 -0.401169 0
M  V30 4012 O 380.544 -2.25528 -1.13549 0
M  V30 4013 C 381.857 -2.15337 2.09882 0
M  V30 4014 C 383.405 -2.28683 2.13712 0
M  V30 4015 C 383.88 -3.17917 3.29686 0
M  V30 4016 N 385.371 -3.25504 3.29547 0
M  V30 4017 C 386.106 -3.94706 4.15926 0
M  V30 4018 N 385.602 -4.66239 5.12439 0
M  V30 4019 N 387.395 -3.90986 4.0384 0
M  V30 4020 H 379.546 -0.583359 2.04232 0
M  V30 4021 H 381.809 -0.319921 0.892387 0
M  V30 4022 H 381.515 -1.72682 3.06389 0
M  V30 4023 H 381.389 -3.16015 2.05947 0
M  V30 4024 H 383.776 -2.70575 1.17784 0
M  V30 4025 H 383.857 -1.27596 2.21705 0
M  V30 4026 H 383.501 -2.76736 4.25887 0
M  V30 4027 H 383.431 -4.19036 3.1893 0
M  V30 4028 H 385.922 -2.74547 2.59677 0
M  V30 4029 H 386.235 -5.16638 5.74722 0
M  V30 4030 H 384.58 -4.65143 5.16398 0
M  V30 4031 H 387.771 -3.34234 3.27727 0
M  V30 4032 H 387.944 -4.44646 4.71375 0
M  V30 4033 N 381.35 -0.985608 -1.22978 0
M  V30 4034 C 382.578 -0.675582 -1.95559 0
M  V30 4035 C 382.993 0.758413 -1.72897 0
M  V30 4036 O 382.35 1.51094 -1.02357 0
M  V30 4037 C 382.401 -0.96293 -3.48439 0
M  V30 4038 O 382.122 -2.34057 -3.70336 0
M  V30 4039 C 383.623 -0.669585 -4.38214 0
M  V30 4040 H 380.843 -0.250523 -0.622478 0
M  V30 4041 H 383.387 -1.3184 -1.56328 0
M  V30 4042 H 381.542 -0.366033 -3.85667 0
M  V30 4043 H 381.956 -2.43424 -4.64591 0
M  V30 4044 H 383.43 -0.920967 -5.44263 0
M  V30 4045 H 383.907 0.396383 -4.37408 0
M  V30 4046 H 384.513 -1.2472 -4.06602 0
M  V30 4047 N 382.828 1.3818 -0.7579 0
M  V30 4048 C 384.074 2.0078 -0.325423 0
M  V30 4049 C 384.429 1.59085 1.08211 0
M  V30 4050 O 383.722 0.820394 1.73148 0
M  V30 4051 C 383.916 3.55252 -0.391218 0
M  V30 4052 C 383.745 4.11947 -1.8036 0
M  V30 4053 C 382.515 4.43519 -2.42113 0
M  V30 4054 C 384.713 4.33908 -2.76095 0
M  V30 4055 N 382.695 4.85847 -3.75267 0
M  V30 4056 C 384.066 4.78692 -3.94023 0
M  V30 4057 C 386.121 4.16015 -2.73561 0
M  V30 4058 C 384.824 5.07459 -5.09782 0
M  V30 4059 C 386.85 4.45909 -3.88483 0
M  V30 4060 C 386.212 4.90921 -5.0515 0
M  V30 4061 H 382.311 0.764215 -0.165831 0
M  V30 4062 H 384.895 1.67724 -0.988776 0
M  V30 4063 H 383.066 3.87646 0.241886 0
M  V30 4064 H 384.798 4.04653 0.061989 0
M  V30 4065 H 381.553 4.32113 -1.93842 0
M  V30 4066 H 381.977 5.11339 -4.4369 0
M  V30 4067 H 386.619 3.80399 -1.84544 0
M  V30 4068 H 384.337 5.4197 -5.99412 0
M  V30 4069 H 387.923 4.33666 -3.87847 0
M  V30 4070 H 386.803 5.1361 -5.92599 0
M  V30 4071 N 384.306 0.507319 1.49211 0
M  V30 4072 C 385.717 0.0611118 1.866 0
M  V30 4073 C 386.068 -1.35488 1.41907 0
M  V30 4074 O 385.193 -2.0108 0.799726 0
M  V30 4075 C 385.788 0.104125 3.3864 0
M  V30 4076 C 384.347 -0.28677 3.75306 0
M  V30 4077 C 383.494 0.473893 2.73221 0
M  V30 4078 H 386.445 0.719775 1.41439 0
M  V30 4079 H 386.466 -0.689672 3.74198 0
M  V30 4080 H 385.978 1.13482 3.71138 0
M  V30 4081 H 384.079 -1.32046 3.48417 0
M  V30 4082 H 384.192 0.0370745 4.79086 0
M  V30 4083 H 382.556 -0.0770644 2.54583 0
M  V30 4084 H 383.339 1.50478 3.08563 0
M  V30 4085 N 385.784 -1.5574 0.241426 0
M  V30 4086 C 386.732 -2.22538 -0.676718 0
M  V30 4087 C 387.726 -1.21117 -1.18436 0
M  V30 4088 O 388.932 -1.39144 -1.14188 0
M  V30 4089 H 385.307 -0.713776 -0.236701 0
M  V30 4090 H 387.278 -2.98264 -0.0901187 0
M  V30 4091 C 386.027 -2.93439 -1.86518 0
M  V30 4092 H 385.35 -3.7125 -1.4837 0
M  V30 4093 H 386.79 -3.43549 -2.48495 0
M  V30 4094 C 385.249 -1.97008 -2.73294 0
M  V30 4095 O 385.779 -1.49965 -3.72657 0
M  V30 4096 N 383.985 -1.64227 -2.39745 0
M  V30 4097 H 383.532 -2.02677 -1.58996 0
M  V30 4098 H 383.49 -0.999708 -2.98083 0
M  V30 4099 N 387.262 0.0317525 -1.57568 0
M  V30 4100 C 388.194 1.06073 -2.03178 0
M  V30 4101 C 389.207 1.32627 -0.944132 0
M  V30 4102 O 390.396 1.30162 -1.22148 0
M  V30 4103 C 387.496 2.40297 -2.38978 0
M  V30 4104 C 386.669 2.33137 -3.70089 0
M  V30 4105 C 385.728 3.49787 -3.9311 0
M  V30 4106 O 384.754 3.29403 -4.64201 0
M  V30 4107 N 385.956 4.71562 -3.38541 0
M  V30 4108 H 388.721 0.672006 -2.92069 0
M  V30 4109 H 386.282 0.219745 -1.60402 0
M  V30 4110 H 388.274 3.1705 -2.51518 0
M  V30 4111 H 386.844 2.71024 -1.55771 0
M  V30 4112 H 386.064 1.415 -3.67928 0
M  V30 4113 H 387.352 2.25493 -4.56104 0
M  V30 4114 H 386.75 4.91024 -2.80912 0
M  V30 4115 H 385.307 5.45689 -3.56464 0
M  V30 4116 N 388.74 1.54641 0.303973 0
M  V30 4117 C 389.968 1.77768 1.05858 0
M  V30 4118 C 390.383 0.535722 1.8104 0
M  V30 4119 O 389.74 -0.494337 1.75677 0
M  V30 4120 C 389.791 2.9834 2.04146 0
M  V30 4121 O 389.512 4.17736 1.32015 0
M  V30 4122 C 391.013 3.33832 2.91669 0
M  V30 4123 H 388.233 0.592961 0.314067 0
M  V30 4124 H 390.777 2.01583 0.344149 0
M  V30 4125 H 388.932 2.76742 2.71096 0
M  V30 4126 H 389.346 4.85693 1.97998 0
M  V30 4127 H 390.82 4.21448 3.56491 0
M  V30 4128 H 391.297 2.51857 3.59812 0
M  V30 4129 H 391.903 3.57579 2.30254 0
M  V30 4130 N 390.218 -0.567019 1.47046 0
M  V30 4131 C 391.128 -1.70247 1.6141 0
M  V30 4132 C 392.144 -1.66746 0.497157 0
M  V30 4133 O 393.32 -1.86371 0.763389 0
M  V30 4134 C 390.385 -3.06756 1.61561 0
M  V30 4135 C 389.446 -3.21399 2.84607 0
M  V30 4136 C 388.679 -4.51396 2.84741 0
M  V30 4137 O 388.902 -5.36255 1.94388 0
M  V30 4138 O 387.836 -4.69621 3.76483 0
M  V30 4139 H 391.662 -1.61073 2.57467 0
M  V30 4140 H 389.247 -0.735894 1.30019 0
M  V30 4141 H 391.129 -3.8801 1.64396 0
M  V30 4142 H 389.804 -3.16333 0.686684 0
M  V30 4143 H 388.711 -2.39579 2.8732 0
M  V30 4144 H 390.044 -3.16721 3.76761 0
M  V30 4145 N 391.696 -1.35014 -0.812953 0
M  V30 4146 C 392.945 -1.27269 -1.56479 0
M  V30 4147 C 393.258 0.152771 -1.95002 0
M  V30 4148 O 394.464 0.352451 -2.69203 0
M  V30 4149 C 392.92 -2.23159 -2.82362 0
M  V30 4150 C 392.528 -3.71016 -2.511 0
M  V30 4151 C 394.272 -2.24342 -3.60376 0
M  V30 4152 C 392.179 -4.58746 -3.73237 0
M  V30 4153 H 391.109 -0.472829 -0.587324 0
M  V30 4154 H 393.76 -1.6024 -0.894171 0
M  V30 4155 H 392.142 -1.83151 -3.51101 0
M  V30 4156 H 393.316 -4.1962 -1.90409 0
M  V30 4157 H 391.631 -3.72378 -1.86343 0
M  V30 4158 H 394.228 -2.87107 -4.51081 0
M  V30 4159 H 394.571 -1.24542 -3.97234 0
M  V30 4160 H 395.104 -2.62846 -2.98591 0
M  V30 4161 H 391.843 -5.59521 -3.41492 0
M  V30 4162 H 391.363 -4.14871 -4.33176 0
M  V30 4163 H 393.042 -4.73852 -4.40537 0
M  V30 4164 N 393.175 1.03435 -1.18907 0
M  V30 4165 C 394.403 1.80381 -1.01342 0
M  V30 4166 C 394.818 1.83649 0.438005 0
M  V30 4167 O 394.175 1.27655 1.30424 0
M  V30 4168 C 394.226 3.25689 -1.56873 0
M  V30 4169 O 393.947 3.22673 -2.96334 0
M  V30 4170 C 395.448 4.19255 -1.44014 0
M  V30 4171 H 392.668 0.56784 -0.35749 0
M  V30 4172 H 395.212 1.30317 -1.576 0
M  V30 4173 H 393.367 3.72962 -1.04777 0
M  V30 4174 H 393.781 4.13748 -3.22355 0
M  V30 4175 H 395.255 5.19123 -1.87657 0
M  V30 4176 H 395.732 4.37467 -0.389815 0
M  V30 4177 H 396.338 3.77851 -1.95214 0
M  V30 4178 N 394.653 0.992116 1.22453 0
M  V30 4179 C 395.899 0.668523 1.91464 0
M  V30 4180 C 396.232 -0.797313 1.77078 0
M  V30 4181 O 395.507 -1.5765 1.13916 0
M  V30 4182 C 395.79 1.07424 3.43703 0
M  V30 4183 C 395.643 2.59857 3.67143 0
M  V30 4184 C 396.962 0.626891 4.35612 0
M  V30 4185 H 394.081 0.244341 0.695318 0
M  V30 4186 H 396.723 1.2355 1.44345 0
M  V30 4187 H 394.873 0.591816 3.83966 0
M  V30 4188 H 396.545 3.15764 3.3629 0
M  V30 4189 H 394.788 3.01961 3.11451 0
M  V30 4190 H 395.459 2.83296 4.73759 0
M  V30 4191 H 397.935 1.04125 4.02861 0
M  V30 4192 H 396.811 0.939076 5.40807 0
M  V30 4193 H 397.072 -0.472457 4.39568 0
M  V30 4194 N 396.131 -1.37776 0.765217 0
M  V30 4195 C 397.094 -2.28686 0.153416 0
M  V30 4196 C 398.094 -1.47727 -0.635081 0
M  V30 4197 O 399.284 -1.68027 -0.459632 0
M  V30 4198 C 396.416 -3.31608 -0.790495 0
M  V30 4199 H 397.609 -2.84297 0.954723 0
M  V30 4200 H 395.162 -1.46932 0.53299 0
M  V30 4201 H 395.897 -2.81109 -1.61705 0
M  V30 4202 H 395.682 -3.9144 -0.227348 0
M  V30 4203 H 397.172 -3.99559 -1.21419 0
M  V30 4204 N 397.609 -0.515225 -1.4894 0
M  V30 4205 C 398.857 0.0241671 -2.02086 0
M  V30 4206 C 399.178 1.3616 -1.3959 0
M  V30 4207 O 398.448 1.87841 -0.556121 0
M  V30 4208 H 397.028 0.0119203 -0.746905 0
M  V30 4209 H 399.69 -0.675702 -1.82812 0
M  V30 4210 H 398.786 0.143385 -3.1177 0
M  V30 4211 N 399.087 1.5561 -0.249682 0
M  V30 4212 C 400.05 2.20217 0.635394 0
M  V30 4213 C 401.05 1.17227 1.10066 0
M  V30 4214 O 402.24 1.42292 1.00492 0
M  V30 4215 C 399.372 2.84794 1.87363 0
M  V30 4216 H 400.565 2.99814 0.0716752 0
M  V30 4217 H 398.118 1.563 -0.000153234 0
M  V30 4218 H 398.853 2.09142 2.47851 0
M  V30 4219 H 398.638 3.60241 1.5482 0
M  V30 4220 H 400.128 3.3423 2.5036 0
M  V30 4221 N 400.565 -0.0233959 1.57583 0
M  V30 4222 C 401.515 -1.03023 2.03397 0
M  V30 4223 C 402.499 -1.31701 0.924315 0
M  V30 4224 O 403.691 -1.31191 1.18819 0
M  V30 4225 C 400.82 -2.32961 2.52159 0
M  V30 4226 C 399.906 -2.07349 3.69956 0
M  V30 4227 N 400.297 -1.51814 4.82479 0
M  V30 4228 C 398.595 -2.37606 3.77438 0
M  V30 4229 C 399.296 -1.42136 5.64068 0
M  V30 4230 N 398.272 -1.89891 5.09355 0
M  V30 4231 H 402.074 -0.594962 2.87815 0
M  V30 4232 H 399.588 -0.229586 1.60769 0
M  V30 4233 H 401.585 -3.05906 2.83244 0
M  V30 4234 H 400.245 -2.77162 1.69149 0
M  V30 4235 H 401.256 -1.20008 5.03804 0
M  V30 4236 H 397.933 -2.84842 3.05239 0
M  V30 4237 H 399.323 -0.996405 6.64471 0
M  V30 4238 N 402.043 -1.548 -0.295768 0
M  V30 4239 C 403.29 -1.74329 -1.03032 0
M  V30 4240 C 403.618 -0.531915 -1.87085 0
M  V30 4241 O 402.873 0.486052 -1.89568 0
M  V30 4242 C 403.172 -2.98797 -1.961 0
M  V30 4243 C 402.838 -4.32356 -1.2798 0
M  V30 4244 C 401.5 -4.68661 -1.09135 0
M  V30 4245 C 403.852 -5.15128 -0.793243 0
M  V30 4246 C 401.18 -5.85312 -0.403269 0
M  V30 4247 C 403.532 -6.32488 -0.118854 0
M  V30 4248 C 402.196 -6.6745 0.0815043 0
M  V30 4249 H 401.466 -0.637916 -0.37702 0
M  V30 4250 H 404.113 -1.8906 -0.304696 0
M  V30 4251 H 402.418 -2.78869 -2.75207 0
M  V30 4252 H 404.115 -3.11102 -2.53015 0
M  V30 4253 H 400.705 -4.03808 -1.43655 0
M  V30 4254 H 404.889 -4.87575 -0.92653 0
M  V30 4255 H 400.145 -6.1094 -0.237098 0
M  V30 4256 H 404.319 -6.95892 0.266035 0
M  V30 4257 H 401.946 -7.57695 0.616685 0
M  V30 4258 N 403.521 0.559213 -1.47345 0
M  V30 4259 C 404.77 1.31281 -1.53128 0
M  V30 4260 C 405.083 1.94602 -0.197344 0
M  V30 4261 O 406.289 2.71173 -0.133154 0
M  V30 4262 C 404.745 2.38051 -2.69925 0
M  V30 4263 C 404.353 1.8093 -4.0984 0
M  V30 4264 C 406.097 3.14604 -2.84999 0
M  V30 4265 C 404.004 2.85468 -5.1794 0
M  V30 4266 H 402.934 0.493614 -0.569966 0
M  V30 4267 H 405.585 0.594155 -1.73615 0
M  V30 4268 H 403.967 3.12822 -2.42814 0
M  V30 4269 H 405.141 1.12544 -4.46845 0
M  V30 4270 H 403.456 1.16967 -3.99634 0
M  V30 4271 H 406.053 3.92666 -3.62929 0
M  V30 4272 H 406.396 3.68665 -1.93369 0
M  V30 4273 H 406.929 2.46945 -3.1187 0
M  V30 4274 H 403.668 2.36264 -6.1144 0
M  V30 4275 H 403.188 3.52269 -4.85455 0
M  V30 4276 H 404.867 3.48996 -5.44803 0
M  V30 4277 N 404.999 1.35443 0.805782 0
M  V30 4278 C 405.931 1.24285 1.92577 0
M  V30 4279 C 406.944 0.165962 1.61952 0
M  V30 4280 O 408.133 0.419303 1.73505 0
M  V30 4281 C 405.233 0.891272 3.2697 0
M  V30 4282 C 404.406 2.06669 3.85495 0
M  V30 4283 C 403.465 1.69077 4.98297 0
M  V30 4284 O 402.491 2.4096 5.15681 0
M  V30 4285 N 403.693 0.614869 5.77234 0
M  V30 4286 H 406.458 2.20777 2.02676 0
M  V30 4287 H 404.019 1.28623 0.983243 0
M  V30 4288 H 406.011 0.621256 3.99903 0
M  V30 4289 H 404.581 0.016004 3.12596 0
M  V30 4290 H 403.801 2.50046 3.04747 0
M  V30 4291 H 405.089 2.85237 4.21328 0
M  V30 4292 H 404.487 0.017648 5.65697 0
M  V30 4293 H 403.044 0.404636 6.50543 0
M  V30 4294 N 406.477 -1.02803 1.19454 0
M  V30 4295 C 407.387 -2.14575 0.948408 0
M  V30 4296 C 408.403 -1.73757 -0.091871 0
M  V30 4297 O 409.579 -2.01185 0.0929654 0
M  V30 4298 C 406.644 -3.43202 0.491265 0
M  V30 4299 C 405.705 -3.98328 1.60103 0
M  V30 4300 C 404.938 -5.20816 1.16561 0
M  V30 4301 O 405.161 -5.70392 0.0295238 0
M  V30 4302 O 404.095 -5.68801 1.96849 0
M  V30 4303 H 407.921 -2.38202 1.88397 0
M  V30 4304 H 405.506 -1.12989 0.977433 0
M  V30 4305 H 407.388 -4.20687 0.245015 0
M  V30 4306 H 406.063 -3.21018 -0.415851 0
M  V30 4307 H 404.97 -3.22174 1.90144 0
M  V30 4308 H 406.303 -4.24879 2.48473 0
M  V30 4309 N 407.956 -0.998596 -1.21925 0
M  V30 4310 C 409.233 -0.593401 -1.86382 0
M  V30 4311 C 409.613 0.92916 -1.89552 0
M  V30 4312 O 408.961 1.81347 -1.39017 0
M  V30 4313 C 409.171 -1.22039 -3.26967 0
M  V30 4314 C 410.519 -1.32449 -4.03413 0
M  V30 4315 O 411.543 -1.17522 -3.36254 0
M  V30 4316 O 410.402 -1.56395 -5.23644 0
M  V30 4317 H 407.496 -0.202385 -0.801854 0
M  V30 4318 H 410.042 -1.09484 -1.29659 0
M  V30 4319 H 408.814 -2.26158 -3.19325 0
M  V30 4320 H 408.437 -0.704906 -3.91301 0
M  V30 4321 N 409.434 1.37368 -0.772513 0
M  V30 4322 C 410.659 2.0447 -0.347386 0
M  V30 4323 C 411.084 1.57882 1.0225 0
M  V30 4324 O 410.442 0.73941 1.65537 0
M  V30 4325 C 410.49 3.58369 -0.400479 0
M  V30 4326 O 409.594 4.0803 0.598789 0
M  V30 4327 H 408.935 0.646773 -0.15027 0
M  V30 4328 H 411.465 1.75667 -1.04892 0
M  V30 4329 H 411.475 4.07183 -0.258045 0
M  V30 4330 H 410.15 3.91633 -1.39986 0
M  V30 4331 H 408.727 3.70534 0.419411 0
M  V30 4332 N 410.912 0.523116 1.48665 0
M  V30 4333 C 412.323 0.0808997 1.86525 0
M  V30 4334 C 412.674 -1.33975 1.43336 0
M  V30 4335 O 411.799 -2.00221 0.821009 0
M  V30 4336 C 412.394 0.140037 3.3851 0
M  V30 4337 C 410.953 -0.246948 3.75589 0
M  V30 4338 C 410.1 0.502845 2.72703 0
M  V30 4339 H 413.051 0.734736 1.40667 0
M  V30 4340 H 413.072 -0.649945 3.74908 0
M  V30 4341 H 412.584 1.17412 3.69914 0
M  V30 4342 H 410.685 -1.28343 3.49798 0
M  V30 4343 H 410.798 0.0878859 4.79019 0
M  V30 4344 H 409.162 -0.0500581 2.54651 0
M  V30 4345 H 409.945 1.53743 3.0695 0
M  V30 4346 N 412.39 -1.55475 0.257931 0
M  V30 4347 C 413.667 -1.91155 -0.414629 0
M  V30 4348 C 414.047 -1.18008 -1.75035 0
M  V30 4349 O 413.395 -0.301193 -2.26506 0
M  V30 4350 C 413.605 -3.44283 -0.571859 0
M  V30 4351 C 414.953 -4.15744 -0.862678 0
M  V30 4352 O 415.977 -3.50083 -0.657314 0
M  V30 4353 O 414.836 -5.31909 -1.2544 0
M  V30 4354 H 411.93 -0.796016 -0.22425 0
M  V30 4355 H 414.476 -1.66976 0.302814 0
M  V30 4356 H 413.248 -3.89558 0.368844 0
M  V30 4357 H 412.871 -3.7436 -1.33943 0
M  V30 4358 N 413.868 0.0150385 -1.57593 0
M  V30 4359 C 414.778 1.02791 -2.10882 0
M  V30 4360 C 415.794 1.38702 -1.0506 0
M  V30 4361 O 416.97 1.47739 -1.36877 0
M  V30 4362 C 414.035 2.30568 -2.58919 0
M  V30 4363 C 413.096 2.01108 -3.79281 0
M  V30 4364 C 412.329 3.22794 -4.25018 0
M  V30 4365 O 412.552 4.33959 -3.70183 0
M  V30 4366 O 411.486 3.07672 -5.17322 0
M  V30 4367 H 415.312 0.604973 -2.97613 0
M  V30 4368 H 412.897 0.23292 -1.47573 0
M  V30 4369 H 414.779 3.05662 -2.90084 0
M  V30 4370 H 413.454 2.72129 -1.75293 0
M  V30 4371 H 412.361 1.23537 -3.53114 0
M  V30 4372 H 413.694 1.64394 -4.63935 0
M  V30 4373 N 415.346 1.54954 0.287554 0
M  V30 4374 C 416.595 1.74081 1.01877 0
M  V30 4375 C 416.908 0.541135 1.87966 0
M  V30 4376 O 418.114 0.614491 2.64455 0
M  V30 4377 C 416.57 3.08042 1.86113 0
M  V30 4378 C 416.178 4.35531 1.04961 0
M  V30 4379 C 417.922 3.36523 2.58752 0
M  V30 4380 C 415.829 5.60538 1.88551 0
M  V30 4381 H 414.759 0.64884 0.384087 0
M  V30 4382 H 417.41 1.81426 0.275101 0
M  V30 4383 H 415.792 2.94696 2.64519 0
M  V30 4384 H 416.966 4.59751 0.31074 0
M  V30 4385 H 415.281 4.14085 0.43843 0
M  V30 4386 H 417.878 4.27122 3.21668 0
M  V30 4387 H 418.221 2.56 3.28283 0
M  V30 4388 H 418.754 3.50901 1.87386 0
M  V30 4389 H 415.493 6.43767 1.23466 0
M  V30 4390 H 415.013 5.40483 2.60074 0
M  V30 4391 H 416.692 5.98297 2.46273 0
M  V30 4392 N 416.824 -0.551391 1.4764 0
M  V30 4393 C 418.072 -1.30572 1.54258 0
M  V30 4394 C 418.393 -1.93877 0.208963 0
M  V30 4395 O 417.663 -1.80234 -0.767619 0
M  V30 4396 H 416.243 -0.484894 0.568231 0
M  V30 4397 H 418.905 -0.643402 1.83974 0
M  V30 4398 H 418.001 -2.09621 2.31226 0
M  V30 4399 N 418.302 -1.35869 -0.798587 0
M  V30 4400 C 419.265 -1.29307 -1.89242 0
M  V30 4401 C 420.265 -0.202747 -1.59517 0
M  V30 4402 O 421.455 -0.456957 -1.681 0
M  V30 4403 C 418.587 -1.00229 -3.25833 0
M  V30 4404 H 419.78 -2.26576 -1.96478 0
M  V30 4405 H 417.333 -1.20509 -0.995358 0
M  V30 4406 H 418.068 -0.033801 -3.24282 0
M  V30 4407 H 417.853 -1.79121 -3.48795 0
M  V30 4408 H 419.343 -0.98219 -4.05885 0
M  V30 4409 N 419.78 1.02168 -1.19998 0
M  V30 4410 C 420.743 2.08765 -0.94604 0
M  V30 4411 C 421.743 1.60618 0.0763846 0
M  V30 4412 O 422.933 1.73472 -0.159135 0
M  V30 4413 C 420.065 3.38262 -0.423255 0
M  V30 4414 H 421.258 2.32726 -1.89153 0
M  V30 4415 H 418.811 1.1889 -1.01464 0
M  V30 4416 H 419.546 3.19974 0.527938 0
M  V30 4417 H 419.331 3.74532 -1.16053 0
M  V30 4418 H 420.821 4.16759 -0.264911 0
M  V30 4419 N 421.258 1.00505 1.21394 0
M  V30 4420 C 422.507 0.683159 1.89778 0
M  V30 4421 C 422.82 -0.789471 1.7896 0
M  V30 4422 O 424.026 -1.22344 2.42372 0
M  V30 4423 C 422.482 1.17146 3.40301 0
M  V30 4424 C 422.09 2.67017 3.5973 0
M  V30 4425 C 423.834 0.924461 4.14311 0
M  V30 4426 C 421.741 3.09387 5.04017 0
M  V30 4427 H 420.671 0.25183 0.710702 0
M  V30 4428 H 423.322 1.21622 1.37406 0
M  V30 4429 H 421.704 0.566451 3.91928 0
M  V30 4430 H 422.878 3.32968 3.18542 0
M  V30 4431 H 421.193 2.89732 2.99073 0
M  V30 4432 H 423.79 1.21658 5.20676 0
M  V30 4433 H 424.133 -0.139286 4.16067 0
M  V30 4434 H 424.666 1.49226 3.6875 0
M  V30 4435 H 421.405 4.14989 5.07409 0
M  V30 4436 H 420.925 2.48149 5.46061 0
M  V30 4437 H 422.604 3.01371 5.72525 0
M  V30 4438 N 422.737 -1.36956 0.779787 0
M  V30 4439 C 423.7 -2.2851 0.177662 0
M  V30 4440 C 424.7 -1.48393 -0.619377 0
M  V30 4441 O 425.89 -1.68505 -0.441785 0
M  V30 4442 C 423.022 -3.32428 -0.755279 0
M  V30 4443 H 424.215 -2.83269 0.984823 0
M  V30 4444 H 421.768 -1.46358 0.548544 0
M  V30 4445 H 422.503 -2.82808 -1.58714 0
M  V30 4446 H 422.288 -3.91659 -0.185817 0
M  V30 4447 H 423.778 -4.00824 -1.17174 0
M  V30 4448 N 424.215 -0.530993 -1.48385 0
M  V30 4449 C 425.178 0.220497 -2.28137 0
M  V30 4450 C 426.178 0.866851 -1.35434 0
M  V30 4451 O 427.368 0.726746 -1.58316 0
M  V30 4452 C 424.5 1.31921 -3.1434 0
M  V30 4453 H 425.693 -0.479714 -2.96038 0
M  V30 4454 H 423.246 -0.286968 -1.53643 0
M  V30 4455 H 423.981 2.05264 -2.51072 0
M  V30 4456 H 423.766 0.86085 -3.82533 0
M  V30 4457 H 425.256 1.84776 -3.74497 0
M  V30 4458 N 425.693 1.55336 -0.266172 0
M  V30 4459 C 426.94 1.99397 0.353158 0
M  V30 4460 C 427.268 1.15451 1.56529 0
M  V30 4461 O 426.523 0.209974 1.9457 0
M  V30 4462 C 426.822 3.48606 0.787957 0
M  V30 4463 C 426.488 4.49773 -0.318541 0
M  V30 4464 C 425.15 4.77158 -0.62239 0
M  V30 4465 C 427.502 5.10212 -1.06459 0
M  V30 4466 C 424.83 5.62251 -1.67602 0
M  V30 4467 C 427.182 5.96449 -2.10788 0
M  V30 4468 C 425.846 6.22158 -2.41817 0
M  V30 4469 H 425.116 0.729644 0.12923 0
M  V30 4470 H 427.763 1.87732 -0.37802 0
M  V30 4471 H 426.068 3.57701 1.59866 0
M  V30 4472 H 427.765 3.80098 1.27775 0
M  V30 4473 H 424.355 4.2854 -0.0715925 0
M  V30 4474 H 428.539 4.89086 -0.843098 0
M  V30 4475 H 423.795 5.80419 -1.92155 0
M  V30 4476 H 427.969 6.42317 -2.69076 0
M  V30 4477 H 425.596 6.87888 -3.23596 0
M  V30 4478 N 427.171 -0.0066808 1.57599 0
M  V30 4479 C 428.417 -0.693947 1.90558 0
M  V30 4480 C 428.75 -1.73792 0.866594 0
M  V30 4481 O 428.025 -1.94156 -0.115548 0
M  V30 4482 C 428.308 -1.34317 3.34112 0
M  V30 4483 C 428.161 -0.311189 4.48722 0
M  V30 4484 C 429.48 -2.27116 3.7697 0
M  V30 4485 H 426.599 -0.250803 0.693013 0
M  V30 4486 H 429.241 0.043242 1.89951 0
M  V30 4487 H 427.391 -1.9715 3.3476 0
M  V30 4488 H 429.063 0.316944 4.6021 0
M  V30 4489 H 427.306 0.367253 4.32243 0
M  V30 4490 H 427.977 -0.804366 5.46108 0
M  V30 4491 H 430.453 -1.74306 3.77831 0
M  V30 4492 H 429.329 -2.69511 4.78179 0
M  V30 4493 H 429.59 -3.14743 3.10466 0
M  V30 4494 N 428.649 -1.55105 -0.279332 0
M  V30 4495 C 430.065 -1.46803 -0.626187 0
M  V30 4496 C 430.265 -0.676939 -1.89789 0
M  V30 4497 O 429.321 -0.19326 -2.51759 0
M  V30 4498 C 430.634 -2.90962 -0.759034 0
M  V30 4499 C 432.182 -3.01138 -0.853504 0
M  V30 4500 C 432.657 -4.46539 -1.01818 0
M  V30 4501 N 434.148 -4.50341 -1.08386 0
M  V30 4502 C 434.883 -5.60053 -1.22996 0
M  V30 4503 N 434.379 -6.79645 -1.34366 0
M  V30 4504 N 436.172 -5.47783 -1.26056 0
M  V30 4505 H 428.323 -2.04996 0.555921 0
M  V30 4506 H 430.586 -0.929325 0.187239 0
M  V30 4507 H 430.292 -3.51544 0.104852 0
M  V30 4508 H 430.166 -3.39619 -1.64131 0
M  V30 4509 H 432.553 -2.40658 -1.70786 0
M  V30 4510 H 432.634 -2.55745 0.0532466 0
M  V30 4511 H 432.278 -5.0762 -0.168504 0
M  V30 4512 H 432.208 -4.89583 -1.93948 0
M  V30 4513 H 434.699 -3.64191 -1.00864 0
M  V30 4514 H 435.012 -7.59012 -1.4533 0
M  V30 4515 H 433.357 -6.82469 -1.31382 0
M  V30 4516 H 436.548 -4.53294 -1.168 0
M  V30 4517 H 436.721 -6.33331 -1.37098 0
M  V30 4518 N 430.127 0.543554 -1.4793 0
M  V30 4519 C 431.543 0.870806 -1.3375 0
M  V30 4520 C 431.743 1.9864 -0.338261 0
M  V30 4521 O 430.799 2.51305 0.245371 0
M  V30 4522 C 432.112 1.25114 -2.73435 0
M  V30 4523 C 433.66 1.3618 -2.81823 0
M  V30 4524 C 434.135 1.77563 -4.22179 0
M  V30 4525 N 435.626 1.8469 -4.24787 0
M  V30 4526 C 436.361 2.18067 -5.30315 0
M  V30 4527 N 435.857 2.49963 -6.46135 0
M  V30 4528 N 437.65 2.18958 -5.17701 0
M  V30 4529 H 429.801 -0.19275 -2.11524 0
M  V30 4530 H 432.064 -0.0235777 -0.947707 0
M  V30 4531 H 431.77 0.50514 -3.48053 0
M  V30 4532 H 431.644 2.20431 -3.06088 0
M  V30 4533 H 434.031 2.09859 -2.07468 0
M  V30 4534 H 434.112 0.390169 -2.52807 0
M  V30 4535 H 433.756 1.04449 -4.97044 0
M  V30 4536 H 433.686 2.75753 -4.48629 0
M  V30 4537 H 436.177 1.62372 -3.41239 0
M  V30 4538 H 436.49 2.74497 -7.22406 0
M  V30 4539 H 434.835 2.47513 -6.49432 0
M  V30 4540 H 438.026 1.93488 -4.2624 0
M  V30 4541 H 438.199 2.44639 -6.00047 0
M  V30 4542 N 431.605 1.3629 0.791371 0
M  V30 4543 C 432.535 1.33137 1.91825 0
M  V30 4544 C 433.516 0.203168 1.68882 0
M  V30 4545 O 434.701 0.400509 1.90025 0
M  V30 4546 C 431.831 1.11793 3.28816 0
M  V30 4547 C 430.785 2.21417 3.66277 0
M  V30 4548 C 430.111 1.85218 5.01596 0
M  V30 4549 C 431.411 3.63489 3.75064 0
M  V30 4550 H 433.105 2.2743 1.9472 0
M  V30 4551 H 430.651 1.09479 0.935437 0
M  V30 4552 H 432.604 1.08222 4.07266 0
M  V30 4553 H 431.328 0.139501 3.26302 0
M  V30 4554 H 429.987 2.2411 2.90121 0
M  V30 4555 H 429.635 0.859544 4.95602 0
M  V30 4556 H 429.335 2.58611 5.27631 0
M  V30 4557 H 430.859 1.832 5.82469 0
M  V30 4558 H 432.273 3.63034 4.43711 0
M  V30 4559 H 430.67 4.35771 4.12582 0
M  V30 4560 H 431.74 3.98536 2.76219 0
M  V30 4561 N 433.083 -1.0153 1.20538 0
M  V30 4562 C 434.499 -1.27461 0.96051 0
M  V30 4563 C 434.699 -1.98273 -0.359193 0
M  V30 4564 O 433.755 -2.27886 -1.0874 0
M  V30 4565 C 435.068 -2.10837 2.14402 0
M  V30 4566 C 436.616 -2.24099 2.18515 0
M  V30 4567 C 437.091 -3.10852 3.36355 0
M  V30 4568 N 438.582 -3.18441 3.36377 0
M  V30 4569 C 439.317 -3.85795 4.24205 0
M  V30 4570 N 438.813 -4.55264 5.22213 0
M  V30 4571 N 440.606 -3.82331 4.12043 0
M  V30 4572 H 432.757 -0.539907 2.05423 0
M  V30 4573 H 435.02 -0.30092 0.898972 0
M  V30 4574 H 434.726 -1.66144 3.09983 0
M  V30 4575 H 434.6 -3.11576 2.12604 0
M  V30 4576 H 436.987 -2.68016 1.23497 0
M  V30 4577 H 437.068 -1.22865 2.24361 0
M  V30 4578 H 436.712 -2.6764 4.31661 0
M  V30 4579 H 436.642 -4.12177 3.27746 0
M  V30 4580 H 439.133 -2.68978 2.65442 0
M  V30 4581 H 439.446 -5.04331 5.85551 0
M  V30 4582 H 437.791 -4.54085 5.26148 0
M  V30 4583 H 440.982 -3.27207 3.34743 0
M  V30 4584 H 441.155 -4.34547 4.807 0
M  V30 4585 N 434.561 -1.01147 -1.20859 0
M  V30 4586 C 435.972 -0.730205 -1.71828 0
M  V30 4587 C 436.323 0.751662 -1.8123 0
M  V30 4588 O 435.448 1.58686 -1.47132 0
M  V30 4589 C 436.043 -1.31885 -3.12077 0
M  V30 4590 C 434.602 -1.08656 -3.60376 0
M  V30 4591 C 433.749 -1.42769 -2.37723 0
M  V30 4592 H 436.7 -1.18158 -1.05945 0
M  V30 4593 H 436.721 -0.706793 -3.73878 0
M  V30 4594 H 436.233 -2.39737 -3.05201 0
M  V30 4595 H 434.334 -0.0254814 -3.72591 0
M  V30 4596 H 434.447 -1.76301 -4.45483 0
M  V30 4597 H 432.811 -0.846603 -2.40218 0
M  V30 4598 H 433.594 -2.51666 -2.33493 0
M  V30 4599 N 436.039 1.36541 -0.78704 0
M  V30 4600 C 437.002 2.28413 -0.189778 0
M  V30 4601 C 438.002 1.48719 0.611499 0
M  V30 4602 O 439.192 1.68737 0.432842 0
M  V30 4603 C 436.324 3.32824 0.737638 0
M  V30 4604 H 437.517 2.82743 -0.999831 0
M  V30 4605 H 435.07 1.46065 -0.556298 0
M  V30 4606 H 435.805 2.83646 1.57212 0
M  V30 4607 H 435.59 3.91752 0.165044 0
M  V30 4608 H 437.08 4.0144 1.15047 0
M  V30 4609 O 437.556 0.680126 1.4648 0
M  V30 4610 H 438.247 0.213972 1.92515 0
M  V30 END ATOM
M  V30 BEGIN BOND
M  V30 END BOND
M  V30 END CTAB
M  END
$$$$
