drugbank_target|Q99870 Vesicle monoamine transporter type 2 (DB00182; DB11915; DB12010)
 OpenBabel12092121043D

  0  0  0     0  0            999 V3000
M  V30 BEGIN CTAB
M  V30 COUNTS 2425 2451 0 0 0
M  V30 BEGIN ATOM
M  V30 1 H -0.908 1.98254 -0.117106 0
M  V30 2 N 0 1.576 0 0
M  V30 3 C 1.411 1.78635 0.542811 0
M  V30 4 C 1.762 0.907396 1.73956 0
M  V30 5 O 0.887 0.109876 2.16121 0
M  V30 6 C 1.482 3.23967 0.991508 0
M  V30 7 C 0.041 3.46098 1.47963 0
M  V30 8 C -0.812 2.73933 0.430836 0
M  V30 9 H 2.139 1.5708 -0.226168 0
M  V30 10 H 2.16 3.32079 1.85751 0
M  V30 11 H 1.672 3.87914 0.120292 0
M  V30 12 H -0.227 2.87366 2.37174 0
M  V30 13 H -0.114 4.54779 1.50709 0
M  V30 14 H -1.75 2.38552 0.892473 0
M  V30 15 H -0.967 3.40578 -0.431414 0
M  V30 16 N 1.4781 -0.272755 1.55222 0
M  V30 17 C 2.7271 -1.00211 1.75045 0
M  V30 18 C 3.0401 -1.87441 0.559046 0
M  V30 19 O 4.2461 -2.63856 0.639698 0
M  V30 20 C 2.7021 -1.83165 3.09804 0
M  V30 21 C 2.3101 -1.008 4.36513 0
M  V30 22 C 4.0541 -2.55529 3.38977 0
M  V30 23 C 1.9611 -1.83194 5.62311 0
M  V30 24 H 0.8911 -0.377878 0.652476 0
M  V30 25 H 3.5421 -0.257776 1.8168 0
M  V30 26 H 1.9241 -2.61694 2.97207 0
M  V30 27 H 3.0981 -0.266855 4.60027 0
M  V30 28 H 1.4131 -0.398897 4.14485 0
M  V30 29 H 4.0101 -3.17578 4.30172 0
M  V30 30 H 4.3531 -3.25825 2.59121 0
M  V30 31 H 4.8861 -1.84029 3.52673 0
M  V30 32 H 1.6251 -1.17318 6.44916 0
M  V30 33 H 1.1451 -2.54905 5.4294 0
M  V30 34 H 2.8241 -2.40552 6.00619 0
M  V30 35 N 2.9562 -1.48159 -0.537278 0
M  V30 36 C 4.2052 -1.5506 -1.28993 0
M  V30 37 C 4.5182 -0.226211 -1.94288 0
M  V30 38 O 5.7242 -0.173395 -2.70946 0
M  V30 39 C 4.1802 -2.73429 -2.34018 0
M  V30 40 C 3.7882 -4.1248 -1.74825 0
M  V30 41 C 5.5322 -2.89638 -3.10339 0
M  V30 42 C 3.4392 -5.22121 -2.77747 0
M  V30 43 H 2.3692 -0.577231 -0.485098 0
M  V30 44 H 5.0202 -1.74478 -0.568317 0
M  V30 45 H 3.4022 -2.47431 -3.09182 0
M  V30 46 H 4.5762 -4.48466 -1.05899 0
M  V30 47 H 2.8912 -4.01327 -1.11022 0
M  V30 48 H 5.4882 -3.68718 -3.87235 0
M  V30 49 H 5.8312 -1.9882 -3.65754 0
M  V30 50 H 6.3642 -3.15502 -2.42288 0
M  V30 51 H 3.1032 -6.1488 -2.27161 0
M  V30 52 H 2.6232 -4.90631 -3.45024 0
M  V30 53 H 4.3022 -5.49924 -3.4087 0
M  V30 54 N 4.4343 0.785586 -1.36625 0
M  V30 55 C 5.8453 1.36101 -1.27803 0
M  V30 56 C 6.1963 1.96035 0.0804875 0
M  V30 57 O 5.3213 1.92834 0.982042 0
M  V30 58 C 5.9163 2.47442 -2.31426 0
M  V30 59 C 4.4753 3.00789 -2.26281 0
M  V30 60 C 3.6223 1.73896 -2.15999 0
M  V30 61 H 6.5733 0.586928 -1.47448 0
M  V30 62 H 6.5943 3.2656 -1.95291 0
M  V30 63 H 6.1063 2.03791 -3.30289 0
M  V30 64 H 4.2073 3.48851 -1.30896 0
M  V30 65 H 4.3203 3.57343 -3.19128 0
M  V30 66 H 2.6843 1.9628 -1.62316 0
M  V30 67 H 3.4673 1.32368 -3.16755 0
M  V30 68 N 5.9124 1.20967 1.01018 0
M  V30 69 C 7.1374 1.0503 1.78839 0
M  V30 70 C 7.5624 -0.395752 1.8389 0
M  V30 71 O 6.9204 -1.28529 1.27867 0
M  V30 72 C 6.9684 1.64602 3.2084 0
M  V30 73 O 6.0724 0.887988 4.02726 0
M  V30 74 H 5.4134 0.369987 0.551367 0
M  V30 75 H 7.9434 1.60399 1.27018 0
M  V30 76 H 7.9534 1.68607 3.71532 0
M  V30 77 H 6.6284 2.69841 3.16479 0
M  V30 78 H 5.2054 0.922648 3.61305 0
M  V30 79 N 7.3905 -1.2043 1.01659 0
M  V30 80 C 8.6205 -1.93496 0.724081 0
M  V30 81 C 9.0285 -1.74998 -0.71918 0
M  V30 82 O 8.3715 -1.06118 -1.49949 0
M  V30 83 C 8.4335 -3.45886 0.97994 0
M  V30 84 C 8.0975 -3.88145 2.41232 0
M  V30 85 C 9.0945 -3.93907 3.39313 0
M  V30 86 C 6.7795 -4.20134 2.75305 0
M  V30 87 C 8.7735 -4.31069 4.6953 0
M  V30 88 C 6.4605 -4.56971 4.05735 0
M  V30 89 C 7.4585 -4.62411 5.02658 0
M  V30 90 O 7.1465 -4.98403 6.30754 0
M  V30 91 H 6.8785 -0.621824 0.265162 0
M  V30 92 H 9.4325 -1.53867 1.36066 0
M  V30 93 H 7.6625 -3.85639 0.286198 0
M  V30 94 H 9.3515 -4.0018 0.679021 0
M  V30 95 H 10.1175 -3.69357 3.14325 0
M  V30 96 H 5.9965 -4.1509 2.00551 0
M  V30 97 H 9.5405 -4.3523 5.45179 0
M  V30 98 H 5.4375 -4.80977 4.30502 0
M  V30 99 H 6.2055 -5.16395 6.35042 0
M  V30 100 N 8.8686 -0.792821 -1.36206 0
M  V30 101 C 9.7986 -0.207853 -2.32573 0
M  V30 102 C 10.7796 0.659055 -1.56813 0
M  V30 103 O 11.9646 0.592176 -1.84951 0
M  V30 104 C 9.0946 0.655449 -3.41059 0
M  V30 105 C 8.0486 -0.111842 -4.27854 0
M  V30 106 C 7.3746 0.872274 -5.27537 0
M  V30 107 C 8.6746 -1.30299 -5.05786 0
M  V30 108 H 10.3686 -1.01294 -2.81744 0
M  V30 109 H 7.9146 -0.48854 -1.3546 0
M  V30 110 H 9.8676 1.07464 -4.07467 0
M  V30 111 H 8.5916 1.49328 -2.90463 0
M  V30 112 H 7.2506 -0.512053 -3.63006 0
M  V30 113 H 6.8986 1.70523 -4.73214 0
M  V30 114 H 6.5986 0.363291 -5.86476 0
M  V30 115 H 8.1226 1.28996 -5.96818 0
M  V30 116 H 9.5366 -0.959379 -5.65216 0
M  V30 117 H 7.9336 -1.7455 -5.74154 0
M  V30 118 H 9.0036 -2.09663 -4.37229 0
M  V30 119 N 10.3467 1.47872 -0.545128 0
M  V30 120 C 11.5767 2.06589 -0.0210534 0
M  V30 121 C 11.9847 1.39997 1.27269 0
M  V30 122 O 11.3277 0.486421 1.77143 0
M  V30 123 C 11.3897 3.58574 0.257933 0
M  V30 124 C 11.0537 4.47132 -0.944573 0
M  V30 125 C 12.0507 4.85986 -1.84699 0
M  V30 126 C 9.7357 4.88821 -1.15584 0
M  V30 127 C 11.7297 5.65314 -2.94446 0
M  V30 128 C 9.4167 5.67916 -2.25642 0
M  V30 129 C 10.4147 6.06073 -3.14905 0
M  V30 130 O 10.1027 6.83578 -4.23057 0
M  V30 131 H 9.8347 0.674971 -0.0372899 0
M  V30 132 H 12.3887 1.91037 -0.754599 0
M  V30 133 H 10.6187 3.72295 1.04564 0
M  V30 134 H 12.3077 3.99356 0.72592 0
M  V30 135 H 13.0737 4.54388 -1.69577 0
M  V30 136 H 8.9527 4.58595 -0.470279 0
M  V30 137 H 12.4967 5.95016 -3.64145 0
M  V30 138 H 8.3937 5.98927 -2.40742 0
M  V30 139 H 9.1617 7.01954 -4.20954 0
M  V30 140 N 11.8248 0.280983 1.55075 0
M  V30 141 C 13.0498 -0.340154 2.04592 0
M  V30 142 C 13.4748 -1.48246 1.15779 0
M  V30 143 O 12.8328 -1.80614 0.15761 0
M  V30 144 C 12.8808 -0.793104 3.5177 0
M  V30 145 O 11.9848 -1.89981 3.66034 0
M  V30 146 H 11.3258 -0.0694289 0.66036 0
M  V30 147 H 13.8558 0.416993 2.00306 0
M  V30 148 H 13.8658 -1.08729 3.93245 0
M  V30 149 H 12.5408 0.0426163 4.15878 0
M  V30 150 H 11.1178 -1.60771 3.36463 0
M  V30 151 N 13.3029 -1.57598 0.00835791 0
M  V30 152 C 14.5519 -1.90107 -0.673968 0
M  V30 153 C 14.8649 -0.884275 -1.7447 0
M  V30 154 O 16.0709 -1.09987 -2.48224 0
M  V30 155 C 14.5269 -3.37497 -1.24995 0
M  V30 156 C 14.1349 -4.47491 -0.2136 0
M  V30 157 C 15.8789 -3.79104 -1.90999 0
M  V30 158 C 13.7859 -5.85963 -0.80005 0
M  V30 159 H 12.7159 -0.709393 -0.255495 0
M  V30 160 H 15.3669 -1.83365 0.0702693 0
M  V30 161 H 13.7489 -3.39102 -2.04513 0
M  V30 162 H 14.9229 -4.57414 0.557596 0
M  V30 163 H 13.2379 -4.14956 0.346474 0
M  V30 164 H 15.8349 -4.79901 -2.35795 0
M  V30 165 H 16.1779 -3.1306 -2.74407 0
M  V30 166 H 16.7109 -3.79833 -1.18203 0
M  V30 167 H 13.4499 -6.555 -0.00456708 0
M  V30 168 H 12.9699 -5.79687 -1.54021 0
M  V30 169 H 14.6489 -6.33884 -1.29615 0
M  V30 170 N 14.781 0.264519 -1.55364 0
M  V30 171 C 15.728 1.32717 -1.88825 0
M  V30 172 C 16.698 1.48675 -0.740605 0
M  V30 173 O 17.883 1.62945 -0.992657 0
M  V30 174 C 15.023 2.68089 -2.17307 0
M  V30 175 C 14.136 2.60284 -3.44785 0
M  V30 176 C 13.271 3.87892 -3.62924 0
M  V30 177 C 12.31 3.74631 -4.84064 0
M  V30 178 N 11.447 4.94092 -4.98816 0
M  V30 179 H 16.287 1.03481 -2.79456 0
M  V30 180 H 13.824 0.499757 -1.3835 0
M  V30 181 H 15.782 3.46864 -2.31821 0
M  V30 182 H 14.412 2.95509 -1.299 0
M  V30 183 H 13.464 1.73173 -3.38697 0
M  V30 184 H 14.776 2.46388 -4.33698 0
M  V30 185 H 13.93 4.75109 -3.77302 0
M  V30 186 H 12.669 4.04664 -2.7221 0
M  V30 187 H 11.674 2.85797 -4.69681 0
M  V30 188 H 12.899 3.5937 -5.76221 0
M  V30 189 H 10.845 5.11259 -4.11036 0
M  V30 190 H 10.762 4.8276 -5.81789 0
M  V30 191 H 12.03 5.82857 -5.17588 0
M  V30 192 N 16.2591 1.48442 0.529413 0
M  V30 193 C 17.2091 1.59407 1.63014 0
M  V30 194 C 18.1931 0.451166 1.54445 0
M  V30 195 O 19.3851 0.702635 1.62456 0
M  V30 196 C 16.5141 1.63746 3.01732 0
M  V30 197 C 15.6001 2.83518 3.15402 0
M  V30 198 N 15.9911 4.07929 2.99045 0
M  V30 199 C 14.2891 2.80862 3.46457 0
M  V30 200 C 14.9901 4.8829 3.16146 0
M  V30 201 N 13.9661 4.21117 3.43746 0
M  V30 202 H 17.7681 2.53343 1.48978 0
M  V30 203 H 15.2821 1.44821 0.734885 0
M  V30 204 H 17.2791 1.69695 3.80801 0
M  V30 205 H 15.9391 0.709264 3.16859 0
M  V30 206 H 16.9501 4.38357 2.75796 0
M  V30 207 H 13.6271 1.97301 3.67938 0
M  V30 208 H 15.0171 5.97028 3.08232 0
M  V30 209 N 17.7372 -0.778329 1.37039 0
M  V30 210 C 18.6472 -1.92253 1.34446 0
M  V30 211 C 19.6632 -1.72267 0.244991 0
M  V30 212 O 20.8392 -1.95615 0.479258 0
M  V30 213 C 17.9042 -3.27282 1.144 0
M  V30 214 C 16.9652 -3.59969 2.33925 0
M  V30 215 C 16.1982 -4.88555 2.14825 0
M  V30 216 O 16.4212 -5.59113 1.12912 0
M  V30 217 O 15.3552 -5.20153 3.02861 0
M  V30 218 H 19.1812 -1.97392 2.30803 0
M  V30 219 H 16.7662 -0.920154 1.17701 0
M  V30 220 H 18.6482 -4.08062 1.05182 0
M  V30 221 H 17.3232 -3.23011 0.211124 0
M  V30 222 H 16.2302 -2.7945 2.48714 0
M  V30 223 H 17.5632 -3.68976 3.25757 0
M  V30 224 N 19.2153 -1.21501 -1.00376 0
M  V30 225 C 20.1623 -0.975387 -2.09177 0
M  V30 226 C 21.1323 0.0990615 -1.65804 0
M  V30 227 O 22.3173 -0.0483147 -1.90739 0
M  V30 228 C 19.4573 -0.547507 -3.40729 0
M  V30 229 C 18.5703 -1.69153 -3.97506 0
M  V30 230 C 17.7053 -1.2127 -5.17172 0
M  V30 231 C 16.7443 -2.32897 -5.66061 0
M  V30 232 N 15.8813 -1.86138 -6.76976 0
M  V30 233 H 20.7213 -1.9068 -2.29009 0
M  V30 234 H 18.2583 -0.950257 -1.12288 0
M  V30 235 H 20.2163 -0.280667 -4.16255 0
M  V30 236 H 18.8463 0.346904 -3.20931 0
M  V30 237 H 17.8983 -2.07298 -3.18954 0
M  V30 238 H 19.2103 -2.5316 -4.29781 0
M  V30 239 H 18.3643 -0.902591 -5.99948 0
M  V30 240 H 17.1033 -0.342692 -4.86495 0
M  V30 241 H 16.1083 -2.64709 -4.81881 0
M  V30 242 H 17.3333 -3.20396 -5.98768 0
M  V30 243 H 15.2793 -1.01484 -6.48103 0
M  V30 244 H 15.1963 -2.63717 -7.08512 0
M  V30 245 H 16.4643 -1.58165 -7.63285 0
M  V30 246 N 20.6934 1.19889 -1.02296 0
M  V30 247 C 21.6414 2.24938 -0.592081 0
M  V30 248 C 22.6354 1.65257 0.372357 0
M  V30 249 O 23.8414 1.78371 0.241583 0
M  V30 250 H 20.2164 0.731787 -0.173182 0
M  V30 251 H 22.1874 2.58603 -1.48885 0
M  V30 252 C 20.9364 3.47668 0.047351 0
M  V30 253 H 20.2594 3.93875 -0.685772 0
M  V30 254 H 21.6994 4.22852 0.311862 0
M  V30 255 C 20.1584 3.11136 1.29212 0
M  V30 256 O 20.6884 3.2325 2.38479 0
M  V30 257 N 18.8944 2.65625 1.17863 0
M  V30 258 H 18.4414 2.55968 0.289493 0
M  V30 259 H 18.3994 2.41553 2.01245 0
M  V30 260 N 22.1715 0.800033 1.35784 0
M  V30 261 C 23.1345 0.211565 2.28221 0
M  V30 262 C 24.1345 -0.59728 1.49296 0
M  V30 263 O 25.3245 -0.416721 1.69142 0
M  V30 264 C 22.4565 -0.705846 3.33513 0
M  V30 265 H 23.6495 1.02677 2.81776 0
M  V30 266 H 21.2025 0.570211 1.45528 0
M  V30 267 H 21.9375 -1.54498 2.85133 0
M  V30 268 H 21.7225 -0.127655 3.91892 0
M  V30 269 H 23.2125 -1.11211 4.02519 0
M  V30 270 N 23.6496 -1.47581 0.552962 0
M  V30 271 C 24.8776 -2.06875 0.0320556 0
M  V30 272 C 25.2926 -1.40625 -1.25976 0
M  V30 273 O 24.6496 -0.501349 -1.75479 0
M  V30 274 C 24.7006 -3.61092 -0.17167 0
M  V30 275 O 24.4216 -4.24858 1.06899 0
M  V30 276 C 25.9226 -4.37242 -0.730344 0
M  V30 277 H 23.1426 -0.669561 0.043915 0
M  V30 278 H 25.6866 -1.89646 0.765163 0
M  V30 279 H 23.8416 -3.7785 -0.854894 0
M  V30 280 H 24.2556 -5.17334 0.864059 0
M  V30 281 H 25.7296 -5.45842 -0.822203 0
M  V30 282 H 26.2066 -4.03235 -1.74064 0
M  V30 283 H 26.8126 -4.25219 -0.0829543 0
M  V30 284 N 25.1277 -0.289203 -1.54924 0
M  V30 285 C 26.0377 0.601863 -2.26748 0
M  V30 286 C 27.0537 1.15834 -1.2984 0
M  V30 287 O 28.2297 1.18564 -1.62802 0
M  V30 288 C 25.2947 1.76299 -2.98529 0
M  V30 289 C 24.3557 1.24178 -4.10948 0
M  V30 290 C 23.5887 2.34757 -4.79296 0
M  V30 291 O 23.8117 3.54411 -4.46933 0
M  V30 292 O 22.7457 2.02115 -5.66951 0
M  V30 293 H 26.5717 0.0195879 -3.03694 0
M  V30 294 H 24.1567 -0.0560868 -1.49295 0
M  V30 295 H 26.0387 2.43973 -3.43592 0
M  V30 296 H 24.7137 2.33209 -2.24488 0
M  V30 297 H 23.6207 0.531104 -3.70311 0
M  V30 298 H 24.9537 0.718252 -4.86931 0
M  V30 299 N 26.6058 1.57591 -0.0167156 0
M  V30 300 C 27.8548 1.90461 0.663877 0
M  V30 301 C 28.1678 0.893515 1.73999 0
M  V30 302 O 29.3738 1.11302 2.47637 0
M  V30 303 C 27.8298 3.38155 1.23204 0
M  V30 304 C 27.4378 4.47597 0.189866 0
M  V30 305 C 29.1818 3.80111 1.88986 0
M  V30 306 C 27.0888 5.86379 0.768964 0
M  V30 307 H 26.0188 0.710738 0.251729 0
M  V30 308 H 28.6698 1.83326 -0.0799926 0
M  V30 309 H 27.0518 3.40182 2.02712 0
M  V30 310 H 28.2258 4.57112 -0.581846 0
M  V30 311 H 26.5408 4.14766 -0.368475 0
M  V30 312 H 29.1378 4.81145 2.33247 0
M  V30 313 H 29.4808 3.14511 2.72743 0
M  V30 314 H 30.0138 3.80454 1.16187 0
M  V30 315 H 26.7528 6.55493 -0.0301957 0
M  V30 316 H 26.2728 5.80496 1.50945 0
M  V30 317 H 27.9518 6.34563 1.26251 0
M  V30 318 N 28.0839 -0.256276 1.55502 0
M  V30 319 C 29.0159 -1.33981 1.85962 0
M  V30 320 C 30.0289 -1.44743 0.745212 0
M  V30 321 O 31.2179 -1.4626 1.02324 0
M  V30 322 C 28.3179 -2.7194 2.02242 0
M  V30 323 C 27.4909 -2.83562 3.33033 0
M  V30 324 C 26.5499 -4.02304 3.39172 0
M  V30 325 O 25.5759 -3.92273 4.12444 0
M  V30 326 N 26.7779 -5.15045 2.67784 0
M  V30 327 H 29.5429 -1.08191 2.7949 0
M  V30 328 H 27.1039 -0.446388 1.55624 0
M  V30 329 H 29.0959 -3.49697 2.03701 0
M  V30 330 H 27.6659 -2.90479 1.15502 0
M  V30 331 H 26.8859 -1.92555 3.43971 0
M  V30 332 H 28.1739 -2.88271 4.19258 0
M  V30 333 H 27.5719 -5.26085 2.07968 0
M  V30 334 H 26.1289 -5.90972 2.74947 0
M  V30 335 N 29.562 -1.4872 -0.521534 0
M  V30 336 C 30.79 -1.60843 -1.30142 0
M  V30 337 C 31.205 -0.271897 -1.86832 0
M  V30 338 O 30.562 0.739969 -1.66825 0
M  V30 339 C 30.613 -2.66155 -2.4463 0
M  V30 340 O 30.334 -3.94623 -1.90275 0
M  V30 341 C 31.835 -2.88795 -3.36322 0
M  V30 342 H 29.055 -0.542075 -0.395468 0
M  V30 343 H 31.599 -1.94609 -0.628285 0
M  V30 344 H 29.754 -2.35224 -3.07812 0
M  V30 345 H 30.168 -4.52468 -2.65279 0
M  V30 346 H 31.642 -3.66264 -4.12983 0
M  V30 347 H 32.119 -1.97934 -3.9207 0
M  V30 348 H 32.725 -3.21063 -2.78924 0
M  V30 349 N 31.0401 0.771051 -1.3745 0
M  V30 350 C 32.0031 1.86598 -1.33093 0
M  V30 351 C 33.0031 1.59076 -0.234845 0
M  V30 352 O 34.1931 1.67145 -0.490732 0
M  V30 353 C 31.3251 3.23747 -1.06773 0
M  V30 354 H 32.5181 1.91873 -2.30488 0
M  V30 355 H 30.0711 0.970876 -1.2249 0
M  V30 356 H 30.8061 3.24148 -0.099129 0
M  V30 357 H 30.5911 3.45115 -1.86112 0
M  V30 358 H 32.0811 4.03824 -1.06377 0
M  V30 359 N 32.5182 1.22032 0.997298 0
M  V30 360 C 33.9342 0.979326 1.26021 0
M  V30 361 C 34.1342 -0.32972 1.98784 0
M  V30 362 O 33.1902 -1.05345 2.29475 0
M  V30 363 C 34.5032 2.17509 2.07631 0
M  V30 364 C 36.0512 2.21817 2.2083 0
M  V30 365 C 36.5262 3.40933 3.05825 0
M  V30 366 N 38.0172 3.41067 3.13412 0
M  V30 367 C 38.7522 4.29885 3.79455 0
M  V30 368 N 38.2482 5.28914 4.47462 0
M  V30 369 N 40.0412 4.17673 3.76173 0
M  V30 370 H 32.1922 2.06202 0.509352 0
M  V30 371 H 34.4552 0.90334 0.287541 0
M  V30 372 H 34.1612 3.12415 1.61524 0
M  V30 373 H 34.0352 2.17206 3.08385 0
M  V30 374 H 36.4222 1.27462 2.66153 0
M  V30 375 H 36.5032 2.2616 1.1952 0
M  V30 376 H 36.1472 4.35586 2.61203 0
M  V30 377 H 36.0772 3.33829 4.07266 0
M  V30 378 H 38.5682 2.69406 2.65007 0
M  V30 379 H 38.8812 5.92973 4.95583 0
M  V30 380 H 37.2262 5.32831 4.46224 0
M  V30 381 H 40.4172 3.39564 3.22202 0
M  V30 382 H 40.5902 4.87098 4.27363 0
M  V30 383 N 33.9963 -1.19345 1.0293 0
M  V30 384 C 35.4073 -1.70725 0.755633 0
M  V30 385 C 35.7583 -1.82326 -0.724676 0
M  V30 386 O 34.8833 -1.49471 -1.56484 0
M  V30 387 C 35.4783 -3.10084 1.36503 0
M  V30 388 C 34.0373 -3.58723 1.13994 0
M  V30 389 C 33.1843 -2.35577 1.46283 0
M  V30 390 H 36.1353 -1.0418 1.19718 0
M  V30 391 H 36.1563 -3.72787 0.762217 0
M  V30 392 H 35.6683 -3.01609 2.44241 0
M  V30 393 H 33.7693 -3.72512 0.0807901 0
M  V30 394 H 33.8823 -4.42816 1.82894 0
M  V30 395 H 32.2463 -2.38935 0.88217 0
M  V30 396 H 33.0293 -2.29731 2.55105 0
M  V30 397 N 35.4744 -0.807222 -1.35358 0
M  V30 398 C 36.7204 -0.388463 -1.99045 0
M  V30 399 C 37.0534 1.04184 -1.63888 0
M  V30 400 O 36.3284 1.72292 -0.902535 0
M  V30 401 C 36.6114 -0.572783 -3.55515 0
M  V30 402 C 36.4644 -2.04807 -4.00468 0
M  V30 403 C 37.7834 0.00114064 -4.401 0
M  V30 404 H 34.9024 -0.142619 -0.723069 0
M  V30 405 H 37.5444 -1.01687 -1.60498 0
M  V30 406 H 35.6944 -0.0378425 -3.88482 0
M  V30 407 H 37.3664 -2.64544 -3.77908 0
M  V30 408 H 35.6094 -2.54427 -3.51353 0
M  V30 409 H 36.2804 -2.12792 -5.09337 0
M  V30 410 H 38.7564 -0.455716 -4.13597 0
M  V30 411 H 37.6324 -0.157737 -5.48673 0
M  V30 412 H 37.8934 1.09488 -4.28328 0
M  V30 413 N 36.9525 1.47285 -0.560781 0
M  V30 414 C 37.9025 2.27073 0.205384 0
M  V30 415 C 38.8865 1.34569 0.882044 0
M  V30 416 O 40.0785 1.58899 0.77976 0
M  V30 417 C 37.2075 3.20414 1.23247 0
M  V30 418 C 36.2935 4.20399 0.559041 0
M  V30 419 N 36.6845 5.04423 -0.372927 0
M  V30 420 C 34.9825 4.38536 0.812522 0
M  V30 421 C 35.6835 5.76655 -0.764446 0
M  V30 422 N 34.6595 5.43471 -0.11848 0
M  V30 423 H 38.4615 2.89422 -0.511117 0
M  V30 424 H 35.9755 1.57868 -0.380975 0
M  V30 425 H 37.9725 3.76262 1.79534 0
M  V30 426 H 36.6325 2.59623 1.95002 0
M  V30 427 H 37.6435 5.1248 -0.747287 0
M  V30 428 H 34.3205 3.88913 1.51832 0
M  V30 429 H 35.7105 6.54238 -1.53045 0
M  V30 430 N 38.4306 0.297415 1.54768 0
M  V30 431 C 39.6586 -0.315623 2.04478 0
M  V30 432 C 40.0736 -1.47792 1.17486 0
M  V30 433 O 39.4306 -1.81404 0.19971 0
M  V30 434 C 39.4816 -0.7753 3.53088 0
M  V30 435 O 39.2026 0.340732 4.36773 0
M  V30 436 C 40.7036 -1.45386 4.18781 0
M  V30 437 H 37.9236 -0.0690887 0.667434 0
M  V30 438 H 40.4676 0.436003 1.99798 0
M  V30 439 H 38.6226 -1.47696 3.58141 0
M  V30 440 H 39.0366 -0.0165035 5.24497 0
M  V30 441 H 40.5106 -1.72669 5.24299 0
M  V30 442 H 40.9876 -2.39275 3.68299 0
M  V30 443 H 41.5936 -0.795475 4.17795 0
M  V30 444 N 39.9087 -1.5758 0.0250728 0
M  V30 445 C 40.8717 -2.08896 -0.943139 0
M  V30 446 C 41.8717 -1.00321 -1.25668 0
M  V30 447 O 43.0617 -1.26495 -1.19769 0
M  V30 448 C 40.1937 -2.55143 -2.26086 0
M  V30 449 H 41.3867 -2.95723 -0.498775 0
M  V30 450 H 38.9397 -1.54703 -0.222888 0
M  V30 451 H 39.6747 -1.71633 -2.75159 0
M  V30 452 H 39.4597 -3.34461 -2.04641 0
M  V30 453 H 40.9497 -2.95083 -2.95492 0
M  V30 454 N 41.3868 0.248026 -1.55636 0
M  V30 455 C 42.6118 0.998028 -1.81808 0
M  V30 456 C 43.0368 1.78207 -0.601979 0
M  V30 457 O 42.3948 1.75653 0.448961 0
M  V30 458 C 42.4428 1.9125 -3.05705 0
M  V30 459 O 41.5468 3.00406 -2.82542 0
M  V30 460 H 40.8878 0.284045 -0.600179 0
M  V30 461 H 43.4178 0.269357 -2.02819 0
M  V30 462 H 43.4278 2.32737 -3.35108 0
M  V30 463 H 42.1028 1.33602 -3.93857 0
M  V30 464 H 40.6798 2.63056 -2.64303 0
M  V30 465 N 42.8649 1.48995 0.513639 0
M  V30 466 C 44.1139 1.57093 1.2651 0
M  V30 467 C 44.4269 0.257091 1.93903 0
M  V30 468 O 45.6329 0.216478 2.70636 0
M  V30 469 C 44.0889 2.77118 2.29638 0
M  V30 470 C 43.6969 4.15209 1.68241 0
M  V30 471 C 45.4409 2.94538 3.05692 0
M  V30 472 C 43.3479 5.26474 2.69406 0
M  V30 473 H 42.2779 0.584876 0.475854 0
M  V30 474 H 44.9289 1.7536 0.540487 0
M  V30 475 H 43.3109 2.52319 3.05207 0
M  V30 476 H 44.4849 4.50094 0.987505 0
M  V30 477 H 42.7999 4.03042 1.04623 0
M  V30 478 H 45.3969 3.74832 3.8132 0
M  V30 479 H 45.7399 2.04614 3.62545 0
M  V30 480 H 46.2729 3.19316 2.37238 0
M  V30 481 H 43.0119 6.18417 2.17351 0
M  V30 482 H 42.5319 4.96058 3.37175 0
M  V30 483 H 44.2109 5.55277 3.32078 0
M  V30 484 N 44.343 -0.763751 1.37857 0
M  V30 485 C 45.568 -1.55805 1.36893 0
M  V30 486 C 45.993 -1.88054 -0.0416135 0
M  V30 487 O 45.351 -1.49825 -1.02089 0
M  V30 488 C 45.399 -2.84012 2.22192 0
M  V30 489 O 44.503 -3.78732 1.63204 0
M  V30 490 H 43.844 -0.471638 0.46739 0
M  V30 491 H 46.374 -0.944657 1.81487 0
M  V30 492 H 46.384 -3.33037 2.35691 0
M  V30 493 H 45.059 -2.59869 3.24716 0
M  V30 494 H 43.636 -3.37402 1.58791 0
M  V30 495 N 45.8211 -1.22559 -0.990812 0
M  V30 496 C 47.0981 -0.959875 -1.70428 0
M  V30 497 C 47.4781 0.524455 -2.04481 0
M  V30 498 O 46.8261 1.49302 -1.72977 0
M  V30 499 C 47.0361 -1.85955 -2.95333 0
M  V30 500 C 48.3841 -2.11687 -3.68068 0
M  V30 501 O 49.4081 -1.8342 -3.05345 0
M  V30 502 O 48.2671 -2.59572 -4.80921 0
M  V30 503 H 45.3611 -0.361154 -0.743974 0
M  V30 504 H 47.9071 -1.33554 -1.04697 0
M  V30 505 H 46.6791 -2.86346 -2.66687 0
M  V30 506 H 46.3021 -1.4856 -3.68803 0
M  V30 507 N 47.2992 1.18797 -1.03562 0
M  V30 508 C 48.5242 1.9314 -0.755764 0
M  V30 509 C 48.9492 1.7537 0.68022 0
M  V30 510 O 48.3072 1.06046 1.47051 0
M  V30 511 C 48.3552 3.42747 -1.12058 0
M  V30 512 O 47.4592 4.11683 -0.243124 0
M  V30 513 H 46.8002 0.602724 -0.278604 0
M  V30 514 H 49.3302 1.50678 -1.3841 0
M  V30 515 H 49.3402 3.93437 -1.08035 0
M  V30 516 H 48.0152 3.55002 -2.16672 0
M  V30 517 H 46.5922 3.71323 -0.342539 0
M  V30 518 N 48.7773 0.814389 1.34928 0
M  V30 519 C 50.0243 0.398423 1.98542 0
M  V30 520 C 50.3523 -1.03638 1.64589 0
M  V30 521 O 49.6073 -1.73509 0.90516 0
M  V30 522 C 49.9063 0.537781 3.53331 0
M  V30 523 C 49.5723 1.93704 4.07172 0
M  V30 524 C 48.2343 2.31984 4.21589 0
M  V30 525 C 50.5863 2.85213 4.36237 0
M  V30 526 C 47.9143 3.61125 4.62391 0
M  V30 527 C 50.2663 4.13809 4.78482 0
M  V30 528 C 48.9303 4.52077 4.91104 0
M  V30 529 H 48.2003 0.145793 0.726516 0
M  V30 530 H 50.8473 1.03669 1.61012 0
M  V30 531 H 49.1523 -0.183906 3.91368 0
M  V30 532 H 50.8493 0.196588 4.00518 0
M  V30 533 H 47.4393 1.62966 3.96409 0
M  V30 534 H 51.6233 2.56885 4.24645 0
M  V30 535 H 46.8793 3.90612 4.70353 0
M  V30 536 H 51.0533 4.84811 4.99932 0
M  V30 537 H 48.6803 5.52196 5.22478 0
M  V30 538 N 50.2554 -1.46986 0.568584 0
M  V30 539 C 51.1874 -2.28233 -0.210337 0
M  V30 540 C 52.2004 -1.37682 -0.868767 0
M  V30 541 O 53.3894 -1.62406 -0.740705 0
M  V30 542 C 50.4894 -3.12293 -1.3163 0
M  V30 543 C 49.6624 -4.30878 -0.7525 0
M  V30 544 C 48.7214 -4.96445 -1.74439 0
M  V30 545 O 47.7474 -5.54482 -1.286 0
M  V30 546 N 48.9494 -4.92171 -3.07812 0
M  V30 547 H 51.7144 -2.95723 0.486648 0
M  V30 548 H 49.2754 -1.56742 0.405409 0
M  V30 549 H 51.2674 -3.53022 -1.97883 0
M  V30 550 H 49.8374 -2.46971 -1.91636 0
M  V30 551 H 49.0574 -3.94104 0.0871128 0
M  V30 552 H 50.3454 -5.07558 -0.35536 0
M  V30 553 H 49.7434 -4.46239 -3.47688 0
M  V30 554 H 48.3004 -5.36884 -3.69592 0
M  V30 555 N 51.7335 -0.305618 -1.54608 0
M  V30 556 C 52.9585 0.307562 -2.05107 0
M  V30 557 C 53.3835 1.46385 -1.18123 0
M  V30 558 O 52.7415 1.8034 -0.186324 0
M  V30 559 C 52.7895 0.73704 -3.52987 0
M  V30 560 O 51.8935 1.84134 -3.6901 0
M  V30 561 H 51.2345 0.0589143 -0.661381 0
M  V30 562 H 53.7645 -0.448807 -1.99617 0
M  V30 563 H 53.7745 1.02459 -3.94925 0
M  V30 564 H 52.4495 -0.108773 -4.15758 0
M  V30 565 H 51.0265 1.55398 -3.38978 0
M  V30 566 N 53.2116 1.57565 -0.0334293 0
M  V30 567 C 54.4606 1.91155 0.643639 0
M  V30 568 C 54.7736 0.91192 1.73042 0
M  V30 569 O 55.9796 1.13923 2.46442 0
M  V30 570 C 54.4356 3.39443 1.1961 0
M  V30 571 C 54.0436 4.47774 0.142381 0
M  V30 572 C 55.7876 3.82094 1.84944 0
M  V30 573 C 53.6946 5.87162 0.706727 0
M  V30 574 H 52.6246 0.713368 0.244176 0
M  V30 575 H 55.2756 1.8323 -0.0994323 0
M  V30 576 H 53.6576 3.42313 1.99092 0
M  V30 577 H 54.8316 4.56469 -0.630296 0
M  V30 578 H 53.1466 4.14352 -0.412446 0
M  V30 579 H 55.7436 4.83591 2.2813 0
M  V30 580 H 56.0866 3.17386 2.69392 0
M  V30 581 H 56.6196 3.81665 1.12145 0
M  V30 582 H 53.3586 6.55424 -0.0997178 0
M  V30 583 H 52.8786 5.82064 1.44779 0
M  V30 584 H 54.5576 6.35866 1.19514 0
M  V30 585 N 54.6897 -0.239769 1.55765 0
M  V30 586 C 55.9367 -0.966801 1.7793 0
M  V30 587 C 56.2647 -1.85046 0.599015 0
M  V30 588 O 55.5197 -1.91197 -0.417395 0
M  V30 589 C 55.8187 -1.852 3.05672 0
M  V30 590 C 55.4847 -1.1231 4.36689 0
M  V30 591 C 54.1467 -0.921689 4.72291 0
M  V30 592 C 56.4987 -0.607019 5.17653 0
M  V30 593 C 53.8267 -0.191996 5.86386 0
M  V30 594 C 56.1787 0.109241 6.32506 0
M  V30 595 C 54.8427 0.322073 6.66723 0
M  V30 596 H 54.1127 -0.353778 0.651093 0
M  V30 597 H 56.7597 -0.23634 1.90036 0
M  V30 598 H 55.0647 -2.64975 2.8861 0
M  V30 599 H 56.7617 -2.41635 3.20021 0
M  V30 600 H 53.3517 -1.29004 4.08725 0
M  V30 601 H 57.5357 -0.750153 4.90598 0
M  V30 602 H 52.7917 -0.0166949 6.11398 0
M  V30 603 H 56.9657 0.516737 6.9448 0
M  V30 604 H 54.5927 0.88944 7.54979 0
M  V30 605 N 56.1678 -1.49265 -0.50573 0
M  V30 606 C 57.3928 -1.62478 -1.28902 0
M  V30 607 C 57.8178 -0.294332 -1.85783 0
M  V30 608 O 57.1758 0.737412 -1.65626 0
M  V30 609 C 57.2238 -2.69268 -2.39848 0
M  V30 610 O 56.3278 -2.28113 -3.43567 0
M  V30 611 H 55.6688 -0.54399 -0.380751 0
M  V30 612 H 58.1988 -1.95421 -0.605952 0
M  V30 613 H 58.2088 -2.91291 -2.85681 0
M  V30 614 H 56.8838 -3.65846 -1.97812 0
M  V30 615 H 55.4608 -2.16401 -3.03685 0
M  V30 616 N 57.6459 0.756429 -1.3826 0
M  V30 617 C 58.8759 1.54341 -1.3734 0
M  V30 618 C 59.2839 1.89159 0.0393917 0
M  V30 619 O 58.6269 1.5307 1.01565 0
M  V30 620 C 58.6889 2.87238 -2.16182 0
M  V30 621 C 58.3529 2.74973 -3.65019 0
M  V30 622 C 59.3499 2.44962 -4.58574 0
M  V30 623 C 57.0349 2.92515 -4.08338 0
M  V30 624 C 59.0289 2.32642 -5.93428 0
M  V30 625 C 56.7159 2.79815 -5.43274 0
M  V30 626 C 57.7139 2.49921 -6.35632 0
M  V30 627 O 57.4019 2.37275 -7.68086 0
M  V30 628 H 57.1339 0.484281 -0.471643 0
M  V30 629 H 59.6879 0.944152 -1.82414 0
M  V30 630 H 57.9179 3.49342 -1.65822 0
M  V30 631 H 59.6069 3.48731 -2.07705 0
M  V30 632 H 60.3729 2.31081 -4.26412 0
M  V30 633 H 56.2519 3.14781 -3.368 0
M  V30 634 H 59.7959 2.0923 -6.65484 0
M  V30 635 H 55.6929 2.93269 -5.75034 0
M  V30 636 H 56.4609 2.52509 -7.78577 0
M  V30 637 N 59.124 1.23083 0.984299 0
M  V30 638 C 60.401 0.9689 1.69917 0
M  V30 639 C 60.781 -0.513604 2.04757 0
M  V30 640 O 60.129 -1.48383 1.73767 0
M  V30 641 C 60.339 1.87518 2.94343 0
M  V30 642 C 61.687 2.13636 3.6694 0
M  V30 643 O 62.711 1.85036 3.04368 0
M  V30 644 O 61.57 2.62119 4.79537 0
M  V30 645 H 58.664 0.365095 0.742048 0
M  V30 646 H 61.21 1.34107 1.03987 0
M  V30 647 H 59.982 2.87756 2.65164 0
M  V30 648 H 59.605 1.50514 3.6801 0
M  V30 649 N 60.6021 -1.18246 1.0419 0
M  V30 650 C 61.5501 -2.23968 0.627792 0
M  V30 651 C 62.5441 -1.65828 -0.346019 0
M  V30 652 O 63.7501 -1.78733 -0.213175 0
M  V30 653 H 60.1251 -0.728939 0.184802 0
M  V30 654 H 62.0961 -2.56202 1.52981 0
M  V30 655 C 60.8451 -3.47699 0.00796591 0
M  V30 656 H 60.1681 -3.92734 0.748347 0
M  V30 657 H 61.6081 -4.23294 -0.24455 0
M  V30 658 C 60.0671 -3.13153 -1.24246 0
M  V30 659 O 60.5971 -3.27003 -2.33307 0
M  V30 660 N 58.8031 -2.67467 -1.13622 0
M  V30 661 H 58.3501 -2.56396 -0.248734 0
M  V30 662 H 58.3081 -2.44724 -1.97377 0
M  V30 663 N 62.0802 -0.821533 -1.34494 0
M  V30 664 C 63.3052 -0.420873 -2.03085 0
M  V30 665 C 63.7302 0.964915 -1.61465 0
M  V30 666 O 63.0882 1.62763 -0.798607 0
M  V30 667 C 63.1362 -0.529414 -3.56693 0
M  V30 668 O 62.2402 0.451302 -4.09923 0
M  V30 669 H 61.5812 -0.173489 -0.640935 0
M  V30 670 H 64.1112 -1.11157 -1.71771 0
M  V30 671 H 64.1212 -0.404671 -4.05988 0
M  V30 672 H 62.7962 -1.54014 -3.86332 0
M  V30 673 H 61.3732 0.285558 -3.71805 0
M  V30 674 N 63.5583 1.46682 -0.576371 0
M  V30 675 C 64.7863 2.06798 -0.0649635 0
M  V30 676 C 65.2013 1.42612 1.23723 0
M  V30 677 O 64.5583 0.529203 1.74659 0
M  V30 678 C 64.6093 3.6132 0.114202 0
M  V30 679 O 64.3303 4.23104 -1.13644 0
M  V30 680 C 65.8313 4.38349 0.66069 0
M  V30 681 H 63.0513 0.668778 -0.0545616 0
M  V30 682 H 65.5953 1.88404 -0.795237 0
M  V30 683 H 63.7503 3.79162 0.794673 0
M  V30 684 H 64.1643 5.15894 -0.946253 0
M  V30 685 H 65.6383 5.47081 0.73526 0
M  V30 686 H 66.1153 4.05953 1.67627 0
M  V30 687 H 66.7213 4.25297 0.0152951 0
M  V30 688 N 65.0364 0.313813 1.54444 0
M  V30 689 C 65.9694 -0.598866 2.20202 0
M  V30 690 C 66.9474 -1.12318 1.17573 0
M  V30 691 O 68.1314 -1.18899 1.46271 0
M  V30 692 C 65.2584 -1.82071 2.85601 0
M  V30 693 C 64.3044 -1.42851 4.01865 0
M  V30 694 S 65.1374 -0.473512 5.33402 0
M  V30 695 C 66.2934 -1.70286 6.0229 0
M  V30 696 H 66.5264 -0.0402532 2.97273 0
M  V30 697 H 64.0594 0.0979165 1.54089 0
M  V30 698 H 66.0174 -2.52184 3.23904 0
M  V30 699 H 64.6784 -2.3505 2.08351 0
M  V30 700 H 63.8714 -2.33871 4.46453 0
M  V30 701 H 63.4734 -0.807198 3.65185 0
M  V30 702 H 65.7654 -2.64168 6.23876 0
M  V30 703 H 66.7084 -1.29932 6.96077 0
M  V30 704 H 67.1164 -1.88541 5.32083 0
M  V30 705 N 66.5145 -1.57545 0.0417849 0
M  V30 706 C 67.7605 -1.92601 -0.635021 0
M  V30 707 C 68.0935 -0.919627 -1.71045 0
M  V30 708 O 67.3685 0.0557892 -1.9442 0
M  V30 709 C 67.6515 -3.38085 -1.23979 0
M  V30 710 C 67.5045 -4.49467 -0.173057 0
M  V30 711 C 68.8235 -3.83776 -2.15416 0
M  V30 712 H 65.9425 -0.700397 -0.229374 0
M  V30 713 H 68.5845 -1.89728 0.101633 0
M  V30 714 H 66.7345 -3.40664 -1.86762 0
M  V30 715 H 68.4065 -4.59018 0.458312 0
M  V30 716 H 66.6495 -4.30909 0.499996 0
M  V30 717 H 67.3205 -5.48323 -0.636054 0
M  V30 718 H 69.7965 -3.83013 -1.62605 0
M  V30 719 H 68.6725 -4.8624 -2.54679 0
M  V30 720 H 68.9335 -3.19998 -3.05047 0
M  V30 721 N 67.9926 0.231505 -1.5589 0
M  V30 722 C 69.2206 0.974505 -1.82513 0
M  V30 723 C 69.6356 1.78344 -0.619591 0
M  V30 724 O 68.9926 1.77792 0.411848 0
M  V30 725 C 69.0436 1.90007 -3.07538 0
M  V30 726 O 68.7646 1.12385 -4.2344 0
M  V30 727 C 70.2656 2.75779 -3.47075 0
M  V30 728 H 67.4856 0.286065 -0.606966 0
M  V30 729 H 70.0296 0.249739 -2.02969 0
M  V30 730 H 68.1846 2.57891 -2.89086 0
M  V30 731 H 68.5986 1.75125 -4.944 0
M  V30 732 H 70.0726 3.36443 -4.37619 0
M  V30 733 H 70.5496 3.47672 -2.68367 0
M  V30 734 H 71.1556 2.13323 -3.67931 0
M  V30 735 N 69.4707 1.49531 0.497807 0
M  V30 736 C 70.7187 1.58865 1.24926 0
M  V30 737 C 71.0397 0.278721 1.92998 0
M  V30 738 O 70.3097 -0.702144 1.82885 0
M  V30 739 H 68.8897 0.585343 0.464094 0
M  V30 740 H 71.5517 1.86174 0.57666 0
M  V30 741 H 70.6477 2.38633 2.01149 0
M  V30 742 N 70.9488 -0.749086 1.3866 0
M  V30 743 C 71.8968 -1.88428 1.36373 0
M  V30 744 C 72.8908 -1.67561 0.248929 0
M  V30 745 O 74.0968 -1.75074 0.41821 0
M  V30 746 H 70.4718 -0.620023 0.42553 0
M  V30 747 H 72.4428 -1.87473 2.32156 0
M  V30 748 C 71.1918 -3.25961 1.21014 0
M  V30 749 H 70.5148 -3.42607 2.06059 0
M  V30 750 H 71.9548 -4.05625 1.23469 0
M  V30 751 C 70.4138 -3.36799 -0.0825941 0
M  V30 752 O 70.9438 -3.87517 -1.05797 0
M  V30 753 N 69.1498 -2.90258 -0.140939 0
M  V30 754 H 68.6968 -2.49174 0.653477 0
M  V30 755 H 68.6548 -2.97889 -1.00545 0
M  V30 756 N 72.4269 -1.23603 -0.977757 0
M  V30 757 C 73.3899 -1.02069 -2.05218 0
M  V30 758 C 74.3899 0.0184305 -1.60789 0
M  V30 759 O 75.5799 -0.221569 -1.72785 0
M  V30 760 C 72.7119 -0.544926 -3.36517 0
M  V30 761 H 73.9049 -1.9742 -2.25755 0
M  V30 762 H 71.4579 -1.05684 -1.15155 0
M  V30 763 H 72.1929 0.412241 -3.21669 0
M  V30 764 H 71.9779 -1.2948 -3.70105 0
M  V30 765 H 73.4679 -0.414985 -4.15533 0
M  V30 766 N 73.905 1.17692 -1.04816 0
M  V30 767 C 75.133 1.91786 -0.776254 0
M  V30 768 C 75.548 1.76604 0.667577 0
M  V30 769 O 74.905 1.10067 1.45573 0
M  V30 770 C 74.956 3.42967 -1.14263 0
M  V30 771 O 74.677 3.57678 -2.52978 0
M  V30 772 C 76.178 4.34144 -0.896311 0
M  V30 773 H 73.398 0.608624 -0.282519 0
M  V30 774 H 75.942 1.49268 -1.39783 0
M  V30 775 H 74.097 3.83245 -0.565874 0
M  V30 776 H 74.511 4.51319 -2.67229 0
M  V30 777 H 75.985 5.38744 -1.20244 0
M  V30 778 H 76.462 4.38876 0.168636 0
M  V30 779 H 77.068 3.99574 -1.45672 0
M  V30 780 N 75.3831 0.828654 1.34056 0
M  V30 781 C 76.7991 0.515135 1.51058 0
M  V30 782 C 76.9991 -0.959581 1.77184 0
M  V30 783 O 76.0551 -1.74382 1.82612 0
M  V30 784 C 77.3681 1.37963 2.67183 0
M  V30 785 C 78.9161 1.37735 2.81066 0
M  V30 786 C 79.3911 2.22645 4.00241 0
M  V30 787 N 80.8821 2.203 4.07458 0
M  V30 788 C 81.6171 2.82744 4.98842 0
M  V30 789 N 81.1131 3.54201 5.9541 0
M  V30 790 N 82.9061 2.72268 4.91759 0
M  V30 791 H 75.0571 1.78343 1.15358 0
M  V30 792 H 77.3201 0.760304 0.566252 0
M  V30 793 H 77.0261 2.42714 2.54525 0
M  V30 794 H 76.9001 1.0484 3.62338 0
M  V30 795 H 79.2871 0.337593 2.93163 0
M  V30 796 H 79.3681 1.74859 1.86703 0
M  V30 797 H 79.0121 3.26674 3.88905 0
M  V30 798 H 78.9421 1.82869 4.93829 0
M  V30 799 H 81.4331 1.68327 3.38341 0
M  V30 800 H 81.7461 3.9908 6.61782 0
M  V30 801 H 80.0911 3.58308 5.95517 0
M  V30 802 H 83.2821 2.16014 4.15278 0
M  V30 803 H 83.4551 3.21219 5.62781 0
M  V30 804 N 76.8612 -1.46375 0.584142 0
M  V30 805 C 78.1382 -1.956 0.0033388 0
M  V30 806 C 78.5182 -1.52679 -1.45782 0
M  V30 807 O 77.8662 -0.77816 -2.14842 0
M  V30 808 C 78.0762 -3.48551 0.176891 0
M  V30 809 C 79.4242 -4.24576 0.0454609 0
M  V30 810 O 80.4482 -3.56043 0.105801 0
M  V30 811 O 79.3072 -5.46427 -0.0890376 0
M  V30 812 H 76.4012 -0.825547 -0.0490066 0
M  V30 813 H 78.9472 -1.56652 0.65256 0
M  V30 814 H 77.7192 -3.72683 1.1926 0
M  V30 815 H 77.3422 -3.94332 -0.508695 0
M  V30 816 N 78.3393 -0.321999 -1.54275 0
M  V30 817 C 79.2693 0.537411 -2.27231 0
M  V30 818 C 80.2503 1.12064 -1.27968 0
M  V30 819 O 81.4353 1.14606 -1.56777 0
M  V30 820 C 78.5653 1.69919 -3.02894 0
M  V30 821 C 77.5193 1.24534 -4.09482 0
M  V30 822 C 76.8453 2.49394 -4.72977 0
M  V30 823 C 78.1453 0.361335 -5.21049 0
M  V30 824 H 79.8393 -0.0711406 -2.99315 0
M  V30 825 H 77.3853 -0.0356555 -1.43956 0
M  V30 826 H 79.3383 2.30668 -3.52662 0
M  V30 827 H 78.0623 2.33431 -2.28424 0
M  V30 828 H 76.7213 0.660782 -3.60596 0
M  V30 829 H 76.3693 3.11265 -3.95124 0
M  V30 830 H 76.0693 2.19718 -5.44975 0
M  V30 831 H 77.5933 3.10908 -5.25517 0
M  V30 832 H 79.0073 0.875072 -5.66582 0
M  V30 833 H 77.4043 0.157428 -5.99893 0
M  V30 834 H 78.4743 -0.60822 -4.8107 0
M  V30 835 N 79.8174 1.5752 -0.0501392 0
M  V30 836 C 81.0454 1.96963 0.633492 0
M  V30 837 C 81.4604 0.927631 1.6444 0
M  V30 838 O 80.8174 -0.0882665 1.82286 0
M  V30 839 C 80.8684 3.36487 1.32132 0
M  V30 840 O 80.5894 4.36693 0.350894 0
M  V30 841 C 82.0904 3.90682 2.09481 0
M  V30 842 H 79.3104 0.648244 0.173266 0
M  V30 843 H 81.8544 2.0417 -0.116134 0
M  V30 844 H 80.0094 3.30434 2.02218 0
M  V30 845 H 80.4234 5.17702 0.841735 0
M  V30 846 H 81.8974 4.90591 2.5303 0
M  V30 847 H 82.3744 3.26053 2.94255 0
M  V30 848 H 82.9804 4.00069 1.44307 0
M  V30 849 N 81.2955 -0.223234 1.56011 0
M  V30 850 C 82.2255 -1.27988 1.95298 0
M  V30 851 C 83.2065 -1.48976 0.820979 0
M  V30 852 O 84.3915 -1.61188 1.08315 0
M  V30 853 C 81.5215 -2.63 2.26822 0
M  V30 854 C 80.4755 -2.56671 3.42497 0
M  V30 855 C 79.8015 -3.95697 3.59622 0
M  V30 856 C 81.1015 -2.11601 4.77517 0
M  V30 857 H 82.7955 -0.953525 2.8381 0
M  V30 858 H 80.3415 -0.457244 1.36548 0
M  V30 859 H 82.2945 -3.37077 2.52898 0
M  V30 860 H 81.0185 -2.9732 1.35161 0
M  V30 861 H 79.6775 -1.85051 3.16467 0
M  V30 862 H 79.3255 -4.27322 2.6534 0
M  V30 863 H 79.0255 -3.92345 4.37424 0
M  V30 864 H 80.5495 -4.71438 3.88044 0
M  V30 865 H 81.9635 -2.7542 5.02809 0
M  V30 866 H 80.3605 -2.19311 5.5859 0
M  V30 867 H 81.4305 -1.06824 4.72987 0
M  V30 868 N 82.7736 -1.49793 -0.48987 0
M  V30 869 C 83.7236 -1.63673 -1.5873 0
M  V30 870 C 84.7076 -0.491956 -1.53195 0
M  V30 871 O 85.8996 -0.745461 -1.60536 0
M  V30 872 C 83.0286 -1.71689 -2.97284 0
M  V30 873 C 82.1146 -2.91781 -3.07774 0
M  V30 874 N 82.5056 -4.15714 -2.88124 0
M  V30 875 C 80.8036 -2.89949 -3.38889 0
M  V30 876 C 81.5046 -4.965 -3.03088 0
M  V30 877 N 80.4806 -4.30083 -3.3246 0
M  V30 878 H 84.2826 -2.57204 -1.42208 0
M  V30 879 H 81.7966 -1.46719 -0.69623 0
M  V30 880 H 83.7936 -1.79732 -3.76168 0
M  V30 881 H 82.4536 -0.793024 -3.14867 0
M  V30 882 H 83.4646 -4.45515 -2.64077 0
M  V30 883 H 80.1416 -2.06987 -3.62578 0
M  V30 884 H 81.5316 -6.04991 -2.92294 0
M  V30 885 N 84.2517 0.741722 -1.39055 0
M  V30 886 C 85.1837 1.8657 -1.33133 0
M  V30 887 C 86.1967 1.61001 -0.241329 0
M  V30 888 O 87.3857 1.7136 -0.499784 0
M  V30 889 C 84.4857 3.22457 -1.04283 0
M  V30 890 C 83.6587 3.75435 -2.24427 0
M  V30 891 C 82.7177 4.89867 -1.92138 0
M  V30 892 O 81.7437 5.03879 -2.64754 0
M  V30 893 N 82.9457 5.73738 -0.88347 0
M  V30 894 H 85.7107 1.92156 -2.29991 0
M  V30 895 H 83.2717 0.922172 -1.3307 0
M  V30 896 H 85.2637 3.9657 -0.807128 0
M  V30 897 H 83.8337 3.12181 -0.161807 0
M  V30 898 H 83.0537 2.92751 -2.6399 0
M  V30 899 H 84.3417 4.07563 -3.04581 0
M  V30 900 H 83.7397 5.64999 -0.281517 0
M  V30 901 H 82.2967 6.47947 -0.707662 0
M  V30 902 N 85.7298 1.2412 0.971189 0
M  V30 903 C 86.9578 1.10575 1.74874 0
M  V30 904 C 87.3728 -0.342017 1.85676 0
M  V30 905 O 86.7298 -1.23617 1.34258 0
M  V30 906 C 86.7808 1.73579 3.171 0
M  V30 907 O 86.5018 3.12695 3.06844 0
M  V30 908 C 88.0028 1.65598 4.11208 0
M  V30 909 H 85.2228 0.386504 0.548503 0
M  V30 910 H 87.7668 1.64156 1.21955 0
M  V30 911 H 85.9218 1.24009 3.67016 0
M  V30 912 H 86.3358 3.43412 3.96445 0
M  V30 913 H 87.8098 2.1437 5.08674 0
M  V30 914 H 88.2868 0.616532 4.34851 0
M  V30 915 H 88.8928 2.14578 3.67201 0
M  V30 916 N 87.2079 -1.17134 1.05439 0
M  V30 917 C 88.1709 -2.19439 0.661764 0
M  V30 918 C 89.1709 -1.58199 -0.288042 0
M  V30 919 O 90.3609 -1.74053 -0.0715803 0
M  V30 920 C 87.4929 -3.40889 -0.0276209 0
M  V30 921 H 88.6859 -2.55688 1.56728 0
M  V30 922 H 86.2389 -1.31259 0.848567 0
M  V30 923 H 86.9739 -3.10187 -0.94629 0
M  V30 924 H 86.7589 -3.86586 0.655238 0
M  V30 925 H 88.2489 -4.16603 -0.288342 0
M  V30 926 N 88.686 -0.835752 -1.33615 0
M  V30 927 C 89.914 -0.443344 -2.02094 0
M  V30 928 C 90.329 0.954522 -1.62894 0
M  V30 929 O 89.686 1.61982 -0.840723 0
M  V30 930 C 89.737 -0.550775 -3.5728 0
M  V30 931 O 89.458 -1.89356 -3.95065 0
M  V30 932 C 90.959 -0.154919 -4.43029 0
M  V30 933 H 88.179 -0.176359 -0.647409 0
M  V30 934 H 90.723 -1.12746 -1.70612 0
M  V30 935 H 88.878 0.0853997 -3.87306 0
M  V30 936 H 89.292 -1.87687 -4.89769 0
M  V30 937 H 90.766 -0.281144 -5.51284 0
M  V30 938 H 91.243 0.902863 -4.2982 0
M  V30 939 H 91.849 -0.765404 -4.18356 0
M  V30 940 N 90.1641 1.46063 -0.591896 0
M  V30 941 C 91.0961 2.28539 0.174001 0
M  V30 942 C 92.1091 1.39047 0.846753 0
M  V30 943 O 93.2981 1.63564 0.714774 0
M  V30 944 C 90.3981 3.14347 1.26645 0
M  V30 945 C 89.5711 4.32021 0.683856 0
M  V30 946 C 88.6301 4.99157 1.66518 0
M  V30 947 O 87.6561 5.56458 1.19763 0
M  V30 948 N 88.8581 4.97005 2.99943 0
M  V30 949 H 91.6231 2.94911 -0.533633 0
M  V30 950 H 89.1841 1.56077 -0.430294 0
M  V30 951 H 91.1761 3.56125 1.92242 0
M  V30 952 H 89.7461 2.49988 1.87682 0
M  V30 953 H 88.9661 3.93915 -0.1498 0
M  V30 954 H 90.2541 5.08059 0.274567 0
M  V30 955 H 89.6521 4.51714 3.40545 0
M  V30 956 H 88.2091 5.42696 3.61004 0
M  V30 957 N 91.6422 0.330177 1.54103 0
M  V30 958 C 92.5922 -0.548456 2.21305 0
M  V30 959 C 93.5762 -1.07651 1.19583 0
M  V30 960 O 94.7682 -1.01243 1.45186 0
M  V30 961 C 91.8972 -1.70559 2.97934 0
M  V30 962 C 90.9832 -1.19212 4.07 0
M  V30 963 N 91.3742 -0.398831 5.04225 0
M  V30 964 C 89.6722 -1.47024 4.2107 0
M  V30 965 C 90.3732 -0.121761 5.81573 0
M  V30 966 N 89.3492 -0.709722 5.38947 0
M  V30 967 H 93.1512 0.0648483 2.93828 0
M  V30 968 H 90.6652 0.136363 1.61826 0
M  V30 969 H 92.6622 -2.34688 3.44568 0
M  V30 970 H 91.3222 -2.32231 2.26934 0
M  V30 971 H 92.3332 -0.0410869 5.17884 0
M  V30 972 H 89.0102 -2.09232 3.61287 0
M  V30 973 H 90.4002 0.517298 6.69906 0
M  V30 974 N 93.1203 -1.57491 0.0584922 0
M  V30 975 C 94.0533 -2.07533 -0.948969 0
M  V30 976 C 95.0313 -0.977444 -1.29942 0
M  V30 977 O 96.2153 -1.2499 -1.41102 0
M  V30 978 C 93.3423 -2.52192 -2.2609 0
M  V30 979 C 92.3883 -3.73287 -2.06298 0
M  V30 980 S 93.2213 -5.18603 -1.33459 0
M  V30 981 C 94.3773 -5.66583 -2.65959 0
M  V30 982 H 94.6103 -2.92662 -0.523118 0
M  V30 983 H 92.1433 -1.53631 -0.153954 0
M  V30 984 H 94.1013 -2.78585 -3.01498 0
M  V30 985 H 92.7623 -1.67356 -2.65802 0
M  V30 986 H 91.9553 -4.0248 -3.03357 0
M  V30 987 H 91.5573 -3.47199 -1.39029 0
M  V30 988 H 93.8493 -5.72616 -3.62101 0
M  V30 989 H 94.7923 -6.65684 -2.41393 0
M  V30 990 H 95.2003 -4.94342 -2.72554 0
M  V30 991 N 94.5984 0.214957 -1.56127 0
M  V30 992 C 95.8444 0.939762 -1.79712 0
M  V30 993 C 96.1774 1.83723 -0.629247 0
M  V30 994 O 95.4524 1.90925 0.371197 0
M  V30 995 C 95.7354 1.77306 -3.13424 0
M  V30 996 C 95.5884 0.90164 -4.40671 0
M  V30 997 C 96.9074 2.74956 -3.43638 0
M  V30 998 H 94.0264 0.340214 -0.653776 0
M  V30 999 H 96.6684 0.20824 -1.88855 0
M  V30 1000 H 94.8184 2.39673 -3.0576 0
M  V30 1001 H 96.4904 0.294206 -4.60361 0
M  V30 1002 H 94.7334 0.207368 -4.33304 0
M  V30 1003 H 95.4044 1.51923 -5.30682 0
M  V30 1004 H 97.8804 2.22724 -3.51473 0
M  V30 1005 H 96.7564 3.30358 -4.38355 0
M  V30 1006 H 97.0174 3.53023 -2.66134 0
M  V30 1007 N 96.0765 1.50051 0.48192 0
M  V30 1008 C 97.3045 1.64237 1.25832 0
M  V30 1009 C 97.7195 0.321336 1.86045 0
M  V30 1010 O 97.0765 -0.695478 1.68729 0
M  V30 1011 C 97.1275 2.72548 2.37487 0
M  V30 1012 O 96.8485 3.99529 1.79745 0
M  V30 1013 C 98.3495 2.9761 3.28547 0
M  V30 1014 H 95.5695 0.55237 0.380957 0
M  V30 1015 H 98.1135 1.96207 0.576467 0
M  V30 1016 H 96.2685 2.43303 3.01467 0
M  V30 1017 H 96.6825 4.59342 2.5319 0
M  V30 1018 H 98.1565 3.77084 4.03127 0
M  V30 1019 H 98.6335 2.0826 3.86684 0
M  V30 1020 H 99.2395 3.28345 2.70314 0
M  V30 1021 N 97.5546 -0.734337 1.39446 0
M  V30 1022 C 98.5026 -1.86971 1.38364 0
M  V30 1023 C 99.4966 -1.67288 0.266687 0
M  V30 1024 O 100.703 -1.74621 0.436755 0
M  V30 1025 H 97.0776 -0.615474 0.432082 0
M  V30 1026 H 99.0486 -1.85 2.34132 0
M  V30 1027 C 97.7976 -3.2466 1.24465 0
M  V30 1028 H 97.1206 -3.40402 2.09682 0
M  V30 1029 H 98.5606 -4.04292 1.27764 0
M  V30 1030 C 97.0196 -3.36867 -0.0468674 0
M  V30 1031 O 97.5496 -3.88618 -1.01681 0
M  V30 1032 N 95.7556 -2.90391 -0.110145 0
M  V30 1033 H 95.3026 -2.48466 0.679868 0
M  V30 1034 H 95.2606 -2.98939 -0.973799 0
M  V30 1035 N 99.0327 -1.24633 -0.964593 0
M  V30 1036 C 99.9957 -1.0424 -2.04124 0
M  V30 1037 C 100.996 0.00137563 -1.608 0
M  V30 1038 O 102.186 -0.239883 -1.7254 0
M  V30 1039 C 99.3177 -0.580588 -3.3592 0
M  V30 1040 H 100.511 -1.99803 -2.23649 0
M  V30 1041 H 98.0637 -1.06899 -1.14027 0
M  V30 1042 H 98.7987 0.3781 -3.22088 0
M  V30 1043 H 98.5837 -1.33398 -3.6871 0
M  V30 1044 H 100.074 -0.459034 -4.15069 0
M  V30 1045 N 100.511 1.16574 -1.06058 0
M  V30 1046 C 101.736 1.91493 -0.796562 0
M  V30 1047 C 102.161 1.76773 0.642868 0
M  V30 1048 O 101.519 1.09142 1.44768 0
M  V30 1049 C 101.567 3.40293 -1.19303 0
M  V30 1050 O 100.671 4.11074 -0.330394 0
M  V30 1051 H 100.012 0.596678 -0.291326 0
M  V30 1052 H 102.542 1.47708 -1.41575 0
M  V30 1053 H 102.552 3.91057 -1.16356 0
M  V30 1054 H 101.227 3.50326 -2.24153 0
M  V30 1055 H 99.8038 3.70513 -0.421225 0
M  V30 1056 N 101.989 0.842826 1.3317 0
M  V30 1057 C 102.952 0.284065 2.27433 0
M  V30 1058 C 103.952 -0.54948 1.5112 0
M  V30 1059 O 105.142 -0.362699 1.70382 0
M  V30 1060 C 102.274 -0.599384 3.35589 0
M  V30 1061 H 103.467 1.11589 2.78366 0
M  V30 1062 H 101.02 0.616221 1.4364 0
M  V30 1063 H 101.755 -1.45349 2.89904 0
M  V30 1064 H 101.54 -0.00291266 3.921 0
M  V30 1065 H 103.03 -0.983488 4.05854 0
M  V30 1066 N 103.467 -1.45747 0.599634 0
M  V30 1067 C 104.713 -2.02592 0.0918643 0
M  V30 1068 C 105.046 -1.46806 -1.27128 0
M  V30 1069 O 104.321 -0.639658 -1.83681 0
M  V30 1070 C 104.604 -3.60073 0.0443398 0
M  V30 1071 C 104.457 -4.26208 1.43759 0
M  V30 1072 C 105.776 -4.35309 -0.647608 0
M  V30 1073 H 102.895 -0.736175 0.034857 0
M  V30 1074 H 105.537 -1.73694 0.770081 0
M  V30 1075 H 103.687 -3.84823 -0.533224 0
M  V30 1076 H 105.359 -4.12668 2.06162 0
M  V30 1077 H 103.602 -3.84916 2.00056 0
M  V30 1078 H 104.273 -5.35069 1.35665 0
M  V30 1079 H 106.749 -4.15805 -0.156776 0
M  V30 1080 H 105.625 -5.45038 -0.649942 0
M  V30 1081 H 105.886 -4.07598 -1.71219 0
M  V30 1082 N 104.945 -0.338344 -1.53925 0
M  V30 1083 C 106.356 0.146651 -1.86123 0
M  V30 1084 C 106.707 1.5042 -1.2597 0
M  V30 1085 O 105.832 2.08723 -0.571294 0
M  V30 1086 C 106.427 0.272879 -3.37699 0
M  V30 1087 C 104.986 0.702103 -3.69794 0
M  V30 1088 C 104.133 -0.167304 -2.76795 0
M  V30 1089 H 107.084 -0.558123 -1.48562 0
M  V30 1090 H 107.105 1.10128 -3.64214 0
M  V30 1091 H 106.617 -0.715307 -3.81451 0
M  V30 1092 H 104.718 1.6995 -3.31584 0
M  V30 1093 H 104.831 0.495604 -4.7653 0
M  V30 1094 H 103.195 0.359527 -2.5215 0
M  V30 1095 H 103.978 -1.15253 -3.23375 0
M  V30 1096 N 106.423 1.57458 -0.0668435 0
M  V30 1097 C 107.648 1.9804 0.616027 0
M  V30 1098 C 108.073 0.944771 1.62652 0
M  V30 1099 O 107.431 -0.0902094 1.81075 0
M  V30 1100 C 107.479 3.37665 1.26549 0
M  V30 1101 O 106.583 3.36701 2.38131 0
M  V30 1102 H 105.924 0.644719 0.158849 0
M  V30 1103 H 108.454 2.04121 -0.139891 0
M  V30 1104 H 108.464 3.7474 1.6135 0
M  V30 1105 H 107.139 4.12573 0.525016 0
M  V30 1106 H 105.716 3.1139 2.0516 0
M  V30 1107 N 107.901 -0.206675 1.56239 0
M  V30 1108 C 109.178 -0.954051 1.70755 0
M  V30 1109 C 109.558 -2.01841 0.618353 0
M  V30 1110 O 108.906 -2.25444 -0.372434 0
M  V30 1111 C 109.116 -1.551 3.12642 0
M  V30 1112 C 110.464 -2.03757 3.72516 0
M  V30 1113 O 111.488 -1.64965 3.15698 0
M  V30 1114 O 110.347 -2.75103 4.72208 0
M  V30 1115 H 107.441 -0.446636 0.696021 0
M  V30 1116 H 109.987 -0.197283 1.68549 0
M  V30 1117 H 108.759 -0.783212 3.83382 0
M  V30 1118 H 108.382 -2.37291 3.19028 0
M  V30 1119 N 109.379 -1.50304 -0.473955 0
M  V30 1120 C 110.619 -1.62786 -1.23612 0
M  V30 1121 C 110.983 -0.319786 -1.89318 0
M  V30 1122 O 112.184 -0.320012 -2.66888 0
M  V30 1123 C 110.455 -2.77351 -2.25414 0
M  V30 1124 S 112.014 -3.09948 -3.10608 0
M  V30 1125 H 108.832 -0.573895 -0.419721 0
M  V30 1126 H 111.434 -1.88076 -0.533623 0
M  V30 1127 H 110.138 -3.70879 -1.75719 0
M  V30 1128 H 109.669 -2.54137 -3.00296 0
M  V30 1129 H 111.684 -2.53553 -4.26527 0
M  V30 1130 N 110.857 0.726932 -1.39834 0
M  V30 1131 C 112.268 1.30558 -1.3346 0
M  V30 1132 C 112.619 1.962 -0.00273003 0
M  V30 1133 O 111.744 1.96826 0.899371 0
M  V30 1134 C 112.339 2.37404 -2.41713 0
M  V30 1135 C 110.898 2.90921 -2.38835 0
M  V30 1136 C 110.045 1.64578 -2.2318 0
M  V30 1137 H 112.996 0.523862 -1.49804 0
M  V30 1138 H 113.017 3.17984 -2.08966 0
M  V30 1139 H 112.529 1.89599 -3.38635 0
M  V30 1140 H 110.63 3.42985 -1.45575 0
M  V30 1141 H 110.743 3.43487 -3.33997 0
M  V30 1142 H 109.107 1.89219 -1.70494 0
M  V30 1143 H 109.89 1.18814 -3.22084 0
M  V30 1144 N 112.336 1.25143 0.95797 0
M  V30 1145 C 113.561 1.12521 1.74223 0
M  V30 1146 C 113.986 -0.317402 1.85403 0
M  V30 1147 O 113.344 -1.2299 1.33204 0
M  V30 1148 C 113.392 1.78062 3.1357 0
M  V30 1149 O 112.496 1.058 3.98598 0
M  V30 1150 H 111.837 0.39304 0.535178 0
M  V30 1151 H 114.367 1.65641 1.201 0
M  V30 1152 H 114.377 1.84213 3.64046 0
M  V30 1153 H 113.052 2.83021 3.04749 0
M  V30 1154 H 111.629 1.07506 3.57067 0
M  V30 1155 N 113.814 -1.1601 1.06675 0
M  V30 1156 C 114.724 -2.24156 0.692179 0
M  V30 1157 C 115.74 -1.71507 -0.293513 0
M  V30 1158 O 116.916 -2.009 -0.141861 0
M  V30 1159 C 113.981 -3.46587 0.0884131 0
M  V30 1160 C 113.042 -4.14257 1.12646 0
M  V30 1161 C 112.275 -5.30844 0.551416 0
M  V30 1162 O 112.498 -5.66858 -0.634656 0
M  V30 1163 O 111.432 -5.87848 1.29298 0
M  V30 1164 H 115.258 -2.58513 1.59388 0
M  V30 1165 H 112.843 -1.23599 0.83926 0
M  V30 1166 H 114.725 -4.20679 -0.246361 0
M  V30 1167 H 113.4 -3.13994 -0.786712 0
M  V30 1168 H 112.307 -3.42118 1.51348 0
M  V30 1169 H 113.64 -4.50914 1.97325 0
M  V30 1170 N 115.292 -0.849877 -1.32721 0
M  V30 1171 C 116.569 -0.372405 -1.92022 0
M  V30 1172 C 116.949 1.1435 -1.77447 0
M  V30 1173 O 116.297 1.96296 -1.16962 0
M  V30 1174 C 116.507 -0.831482 -3.3895 0
M  V30 1175 C 117.855 -0.845882 -4.16089 0
M  V30 1176 O 118.879 -0.775806 -3.47649 0
M  V30 1177 O 117.738 -0.943753 -5.38289 0
M  V30 1178 H 114.832 -0.107667 -0.819961 0
M  V30 1179 H 117.378 -0.93646 -1.41522 0
M  V30 1180 H 116.15 -1.87448 -3.4348 0
M  V30 1181 H 115.773 -0.24461 -3.96847 0
M  V30 1182 N 116.77 1.45427 -0.607355 0
M  V30 1183 C 117.717 2.3053 0.111625 0
M  V30 1184 C 118.687 1.4209 0.860216 0
M  V30 1185 O 119.872 1.71019 0.845998 0
M  V30 1186 C 117.012 3.26992 1.10319 0
M  V30 1187 C 116.125 4.30535 0.355493 0
M  V30 1188 C 115.26 5.14105 1.33676 0
M  V30 1189 C 114.299 6.09376 0.576862 0
M  V30 1190 N 113.436 6.85727 1.5074 0
M  V30 1191 H 118.276 2.91477 -0.620093 0
M  V30 1192 H 115.813 1.43631 -0.317594 0
M  V30 1193 H 117.771 3.81385 1.6912 0
M  V30 1194 H 116.401 2.67799 1.80232 0
M  V30 1195 H 115.453 3.78805 -0.348023 0
M  V30 1196 H 116.765 4.98235 -0.237423 0
M  V30 1197 H 115.919 5.72897 1.99684 0
M  V30 1198 H 114.658 4.46423 1.9636 0
M  V30 1199 H 113.663 5.49715 -0.0968519 0
M  V30 1200 H 114.888 6.79085 -0.0449341 0
M  V30 1201 H 112.834 6.20735 2.12189 0
M  V30 1202 H 112.751 7.49778 0.967913 0
M  V30 1203 H 114.019 7.4906 2.15706 0
M  V30 1204 N 118.248 0.346503 1.53744 0
M  V30 1205 C 119.525 -0.304532 1.93215 0
M  V30 1206 C 119.905 -1.67993 1.27834 0
M  V30 1207 O 119.253 -2.24411 0.430352 0
M  V30 1208 C 119.463 -0.373852 3.46992 0
M  V30 1209 C 120.811 -0.62329 4.2 0
M  V30 1210 O 121.835 -0.455847 3.53271 0
M  V30 1211 O 120.694 -0.947879 5.38217 0
M  V30 1212 H 117.788 -0.178318 0.807547 0
M  V30 1213 H 120.334 0.397895 1.64969 0
M  V30 1214 H 119.106 0.591224 3.86808 0
M  V30 1215 H 118.729 -1.12294 3.81413 0
M  V30 1216 N 119.726 -1.57421 0.075193 0
M  V30 1217 C 120.656 -2.15942 -0.888324 0
M  V30 1218 C 121.637 -1.08737 -1.30806 0
M  V30 1219 O 122.822 -1.36787 -1.37851 0
M  V30 1220 C 119.952 -2.72379 -2.1547 0
M  V30 1221 C 118.906 -3.8478 -1.87425 0
M  V30 1222 C 118.232 -4.27834 -3.20721 0
M  V30 1223 C 119.532 -5.08869 -1.17684 0
M  V30 1224 H 121.226 -2.96705 -0.400799 0
M  V30 1225 H 118.772 -1.42723 -0.191342 0
M  V30 1226 H 120.725 -3.11965 -2.83295 0
M  V30 1227 H 119.449 -1.88841 -2.6647 0
M  V30 1228 H 118.108 -3.45703 -1.22004 0
M  V30 1229 H 117.756 -3.41214 -3.6957 0
M  V30 1230 H 117.456 -5.03605 -3.02746 0
M  V30 1231 H 118.98 -4.70039 -3.89738 0
M  V30 1232 H 120.394 -5.4575 -1.75584 0
M  V30 1233 H 118.791 -5.8994 -1.09956 0
M  V30 1234 H 119.861 -4.84648 -0.156453 0
M  V30 1235 N 121.204 0.198386 -1.56346 0
M  V30 1236 C 122.134 1.24865 -1.9731 0
M  V30 1237 C 123.115 1.47651 -0.844576 0
M  V30 1238 O 124.3 1.59444 -1.10866 0
M  V30 1239 C 121.43 2.59358 -2.30977 0
M  V30 1240 C 120.384 2.5119 -3.46537 0
M  V30 1241 C 119.71 3.89926 -3.65871 0
M  V30 1242 C 121.01 2.03977 -4.80823 0
M  V30 1243 H 122.704 0.908252 -2.85291 0
M  V30 1244 H 120.25 0.435462 -1.37258 0
M  V30 1245 H 122.203 3.33011 -2.58228 0
M  V30 1246 H 120.927 2.95132 -1.39874 0
M  V30 1247 H 119.586 1.79993 -3.19371 0
M  V30 1248 H 119.234 4.23046 -2.72105 0
M  V30 1249 H 118.934 3.85336 -4.4361 0
M  V30 1250 H 120.458 4.65205 -3.95495 0
M  V30 1251 H 121.872 2.67386 -5.07127 0
M  V30 1252 H 120.269 2.10397 -5.62008 0
M  V30 1253 H 121.339 0.992861 -4.74626 0
M  V30 1254 N 122.682 1.50554 0.465978 0
M  V30 1255 C 123.63 1.70324 1.58406 0
M  V30 1256 C 124.624 0.569139 1.59553 0
M  V30 1257 O 125.83 0.749776 1.63641 0
M  V30 1258 H 122.205 0.537688 0.525734 0
M  V30 1259 H 124.176 2.64104 1.38894 0
M  V30 1260 C 122.925 1.81928 2.96307 0
M  V30 1261 H 122.248 2.68586 2.96144 0
M  V30 1262 H 123.688 1.99784 3.73982 0
M  V30 1263 C 122.147 0.572095 3.32007 0
M  V30 1264 O 122.677 -0.286416 4.00678 0
M  V30 1265 N 120.883 0.424606 2.87481 0
M  V30 1266 H 120.43 1.12427 2.31771 0
M  V30 1267 H 120.388 -0.408697 3.11732 0
M  V30 1268 N 124.16 -0.719506 1.40217 0
M  V30 1269 C 125.07 -1.86378 1.42479 0
M  V30 1270 C 126.086 -1.71073 0.317834 0
M  V30 1271 O 127.262 -1.93406 0.561794 0
M  V30 1272 C 124.327 -3.22136 1.28178 0
M  V30 1273 C 123.388 -3.49723 2.48982 0
M  V30 1274 C 122.621 -4.79004 2.35353 0
M  V30 1275 O 122.844 -5.53821 1.36524 0
M  V30 1276 O 121.778 -5.06839 3.2465 0
M  V30 1277 H 125.604 -1.87425 2.38968 0
M  V30 1278 H 123.189 -0.869405 1.21498 0
M  V30 1279 H 125.071 -4.03234 1.22395 0
M  V30 1280 H 123.746 -3.21825 0.347934 0
M  V30 1281 H 122.653 -2.6865 2.60342 0
M  V30 1282 H 123.986 -3.54828 3.41113 0
M  V30 1283 N 125.638 -1.25649 -0.95132 0
M  V30 1284 C 126.586 -1.06118 -2.06982 0
M  V30 1285 C 127.58 0.00889169 -1.69398 0
M  V30 1286 O 128.786 -0.146988 -1.79399 0
M  V30 1287 H 125.161 -0.326248 -0.677544 0
M  V30 1288 H 127.132 -2.00932 -2.2061 0
M  V30 1289 C 125.881 -0.700145 -3.40578 0
M  V30 1290 H 125.204 -1.51537 -3.69968 0
M  V30 1291 H 126.644 -0.603211 -4.19687 0
M  V30 1292 C 125.103 0.59403 -3.31622 0
M  V30 1293 O 125.633 1.63522 -3.66911 0
M  V30 1294 N 123.839 0.58089 -2.84735 0
M  V30 1295 H 123.386 -0.266783 -2.56215 0
M  V30 1296 H 123.344 1.44695 -2.79125 0
M  V30 1297 N 127.117 1.15442 -1.07289 0
M  V30 1298 C 128.363 1.86489 -0.796846 0
M  V30 1299 C 128.696 1.82078 0.675371 0
M  V30 1300 O 127.971 1.24346 1.4956 0
M  V30 1301 C 128.254 3.35626 -1.30489 0
M  V30 1302 C 128.107 3.48673 -2.84161 0
M  V30 1303 C 129.426 4.30357 -0.920907 0
M  V30 1304 H 126.545 0.677144 -0.290939 0
M  V30 1305 H 129.187 1.35633 -1.33056 0
M  V30 1306 H 127.337 3.79068 -0.850883 0
M  V30 1307 H 129.009 3.14099 -3.37846 0
M  V30 1308 H 127.252 2.90253 -3.22391 0
M  V30 1309 H 127.923 4.53453 -3.14777 0
M  V30 1310 H 130.399 3.94871 -1.3121 0
M  V30 1311 H 129.275 5.33193 -1.30372 0
M  V30 1312 H 129.536 4.4176 0.173226 0
M  V30 1313 N 128.595 0.856903 1.32268 0
M  V30 1314 C 129.527 0.260412 2.27716 0
M  V30 1315 C 130.54 -0.569137 1.52528 0
M  V30 1316 O 131.729 -0.39326 1.74114 0
M  V30 1317 C 128.829 -0.650477 3.32599 0
M  V30 1318 C 128.002 0.14372 4.37164 0
M  V30 1319 C 127.061 -0.69328 5.21613 0
M  V30 1320 O 126.087 -0.12599 5.69061 0
M  V30 1321 N 127.289 -2.00761 5.44679 0
M  V30 1322 H 130.054 1.08059 2.79541 0
M  V30 1323 H 127.615 0.717103 1.45152 0
M  V30 1324 H 129.607 -1.21581 3.86005 0
M  V30 1325 H 128.177 -1.37133 2.80915 0
M  V30 1326 H 127.397 0.890486 3.8401 0
M  V30 1327 H 128.685 0.68915 5.04111 0
M  V30 1328 H 128.083 -2.49181 5.07863 0
M  V30 1329 H 126.64 -2.52103 6.01072 0
M  V30 1330 N 130.073 -1.45103 0.615059 0
M  V30 1331 C 131.319 -2.02483 0.113347 0
M  V30 1332 C 131.652 -1.48146 -1.25564 0
M  V30 1333 O 130.927 -0.659104 -1.82992 0
M  V30 1334 C 131.21 -3.60005 0.0825278 0
M  V30 1335 C 131.063 -4.2466 1.48271 0
M  V30 1336 C 132.382 -4.35972 -0.601401 0
M  V30 1337 H 129.501 -0.735764 0.0426632 0
M  V30 1338 H 132.143 -1.72868 0.788461 0
M  V30 1339 H 130.293 -3.85367 -0.492378 0
M  V30 1340 H 131.965 -4.10458 2.10527 0
M  V30 1341 H 130.208 -3.82772 2.04127 0
M  V30 1342 H 130.879 -5.336 1.41332 0
M  V30 1343 H 133.355 -4.15947 -0.112666 0
M  V30 1344 H 132.231 -5.45697 -0.592097 0
M  V30 1345 H 132.492 -4.09391 -1.66887 0
M  V30 1346 N 131.551 -0.354651 -1.53558 0
M  V30 1347 C 132.799 0.237972 -2.00694 0
M  V30 1348 C 133.12 1.50173 -1.24391 0
M  V30 1349 O 132.39 1.92673 -0.354135 0
M  V30 1350 H 130.97 0.0909256 -0.741446 0
M  V30 1351 H 133.632 -0.478368 -1.88938 0
M  V30 1352 H 132.728 0.47264 -3.085 0
M  V30 1353 N 133.029 1.57378 -0.0835403 0
M  V30 1354 C 133.959 2.1641 0.87686 0
M  V30 1355 C 134.94 1.09429 1.30228 0
M  V30 1356 O 136.125 1.37516 1.37124 0
M  V30 1357 C 133.255 2.73517 2.14022 0
M  V30 1358 C 132.209 3.85769 1.85381 0
M  V30 1359 C 131.535 4.29529 3.18448 0
M  V30 1360 C 132.835 5.09486 1.14984 0
M  V30 1361 H 134.529 2.96914 0.385059 0
M  V30 1362 H 132.075 1.42823 0.18377 0
M  V30 1363 H 134.028 3.13463 2.81636 0
M  V30 1364 H 132.752 1.90252 2.65465 0
M  V30 1365 H 131.411 3.46345 1.20169 0
M  V30 1366 H 131.059 3.43169 3.67755 0
M  V30 1367 H 130.759 5.05204 3.00071 0
M  V30 1368 H 132.283 4.72099 3.8724 0
M  V30 1369 H 133.697 5.46674 1.72687 0
M  V30 1370 H 132.094 5.90515 1.06826 0
M  V30 1371 H 133.164 4.84724 0.130749 0
M  V30 1372 N 134.507 -0.190092 1.56449 0
M  V30 1373 C 135.437 -1.23816 1.97969 0
M  V30 1374 C 136.418 -1.47201 0.852395 0
M  V30 1375 O 137.603 -1.58854 1.1171 0
M  V30 1376 C 134.733 -2.5813 2.3235 0
M  V30 1377 C 133.687 -2.49348 3.47864 0
M  V30 1378 C 133.013 -3.8798 3.67934 0
M  V30 1379 C 134.313 -2.01424 4.81898 0
M  V30 1380 H 136.007 -0.89311 2.85769 0
M  V30 1381 H 133.553 -0.428177 1.37487 0
M  V30 1382 H 135.506 -3.31637 2.59991 0
M  V30 1383 H 134.23 -2.94386 1.41438 0
M  V30 1384 H 132.889 -1.78297 3.20321 0
M  V30 1385 H 132.537 -4.21597 2.74344 0
M  V30 1386 H 132.237 -3.82978 4.45648 0
M  V30 1387 H 133.761 -4.63101 3.97957 0
M  V30 1388 H 135.175 -2.64693 5.08538 0
M  V30 1389 H 133.572 -2.07413 5.63116 0
M  V30 1390 H 134.642 -0.967677 4.75146 0
M  V30 1391 N 135.985 -1.50799 -0.457987 0
M  V30 1392 C 137.232 -1.62442 -1.20908 0
M  V30 1393 C 137.56 -0.330865 -1.91665 0
M  V30 1394 O 136.815 0.68401 -1.83357 0
M  V30 1395 C 137.114 -2.76358 -2.2663 0
M  V30 1396 C 136.78 -4.16378 -1.73033 0
M  V30 1397 C 135.442 -4.54473 -1.58138 0
M  V30 1398 C 137.794 -5.03836 -1.33413 0
M  V30 1399 C 135.122 -5.77754 -1.02065 0
M  V30 1400 C 137.474 -6.27676 -0.78778 0
M  V30 1401 C 136.138 -6.64562 -0.625561 0
M  V30 1402 H 135.408 -0.594417 -0.442435 0
M  V30 1403 H 138.055 -1.84772 -0.503136 0
M  V30 1404 H 136.36 -2.48167 -3.03184 0
M  V30 1405 H 138.057 -2.82568 -2.84528 0
M  V30 1406 H 134.647 -3.86331 -1.85598 0
M  V30 1407 H 138.831 -4.75026 -1.4375 0
M  V30 1408 H 134.087 -6.04997 -0.882547 0
M  V30 1409 H 138.261 -6.94797 -0.472177 0
M  V30 1410 H 135.888 -7.59965 -0.188926 0
M  V30 1411 N 137.463 0.71206 -1.40597 0
M  V30 1412 C 138.426 1.80785 -1.40888 0
M  V30 1413 C 139.426 1.57937 -0.302103 0
M  V30 1414 O 140.616 1.64913 -0.561182 0
M  V30 1415 C 137.748 3.18927 -1.20409 0
M  V30 1416 H 138.941 1.81924 -2.38419 0
M  V30 1417 H 136.494 0.91805 -1.26497 0
M  V30 1418 H 137.229 3.23436 -0.236522 0
M  V30 1419 H 137.014 3.36911 -2.00582 0
M  V30 1420 H 138.504 3.98949 -1.23408 0
M  V30 1421 N 138.941 1.26152 0.944643 0
M  V30 1422 C 140.166 1.14363 1.7302 0
M  V30 1423 C 140.591 -0.29772 1.85729 0
M  V30 1424 O 139.949 -1.2157 1.34501 0
M  V30 1425 C 139.997 1.81378 3.11664 0
M  V30 1426 O 139.101 1.10022 3.97453 0
M  V30 1427 H 138.442 0.398694 0.53098 0
M  V30 1428 H 140.972 1.66906 1.18337 0
M  V30 1429 H 140.982 1.88064 3.62072 0
M  V30 1430 H 139.657 2.86237 3.0173 0
M  V30 1431 H 138.234 1.11287 3.55907 0
M  V30 1432 N 140.419 -1.14872 1.07899 0
M  V30 1433 C 141.366 -2.19791 0.704319 0
M  V30 1434 C 142.336 -1.63238 -0.306987 0
M  V30 1435 O 143.521 -1.8983 -0.192171 0
M  V30 1436 C 140.661 -3.44911 0.114244 0
M  V30 1437 C 139.774 -4.15637 1.1777 0
M  V30 1438 C 138.909 -5.28324 0.552037 0
M  V30 1439 C 137.948 -5.90875 1.59789 0
M  V30 1440 N 137.085 -6.95022 0.994404 0
M  V30 1441 H 141.925 -2.5119 1.60336 0
M  V30 1442 H 139.462 -1.23356 0.801352 0
M  V30 1443 H 141.42 -4.16477 -0.245544 0
M  V30 1444 H 140.05 -3.14011 -0.74813 0
M  V30 1445 H 139.102 -3.42512 1.65499 0
M  V30 1446 H 140.414 -4.5823 1.97046 0
M  V30 1447 H 139.568 -6.06538 0.1402 0
M  V30 1448 H 138.307 -4.86939 -0.272431 0
M  V30 1449 H 137.312 -5.11369 2.01945 0
M  V30 1450 H 138.537 -6.34337 2.42474 0
M  V30 1451 H 136.483 -6.55722 0.190939 0
M  V30 1452 H 136.4 -7.36073 1.72432 0
M  V30 1453 H 137.668 -7.77123 0.608253 0
M  V30 1454 N 141.898 -0.863906 -1.31812 0
M  V30 1455 C 142.861 -0.320212 -2.26952 0
M  V30 1456 C 143.861 0.525369 -1.51975 0
M  V30 1457 O 145.051 0.335547 -1.70938 0
M  V30 1458 C 142.183 0.545919 -3.365 0
M  V30 1459 H 143.376 -1.16004 -2.76556 0
M  V30 1460 H 140.929 -0.638995 -1.42641 0
M  V30 1461 H 141.664 1.40718 -2.92179 0
M  V30 1462 H 141.449 -0.0594674 -3.92055 0
M  V30 1463 H 142.939 0.918796 -4.07367 0
M  V30 1464 N 143.376 1.44774 -0.622745 0
M  V30 1465 C 144.604 2.06487 -0.130722 0
M  V30 1466 C 145.019 1.46476 1.19123 0
M  V30 1467 O 144.376 0.584502 1.72887 0
M  V30 1468 C 144.427 3.615 -0.000807207 0
M  V30 1469 O 144.148 4.19274 -1.27048 0
M  V30 1470 C 145.649 4.40229 0.520898 0
M  V30 1471 H 142.869 0.666704 -0.0758106 0
M  V30 1472 H 145.413 1.85779 -0.854774 0
M  V30 1473 H 143.568 3.81498 0.673643 0
M  V30 1474 H 143.982 5.12622 -1.1099 0
M  V30 1475 H 145.456 5.49144 0.560838 0
M  V30 1476 H 145.933 4.1108 1.54627 0
M  V30 1477 H 146.539 4.25131 -0.120018 0
M  V30 1478 N 144.854 0.36279 1.53368 0
M  V30 1479 C 146.1 -0.228113 2.01513 0
M  V30 1480 C 146.433 -1.48648 1.2497 0
M  V30 1481 O 145.708 -1.91459 0.342616 0
M  V30 1482 C 145.991 -0.522884 3.56284 0
M  V30 1483 C 145.844 0.74892 4.43521 0
M  V30 1484 C 147.163 -1.32461 4.19693 0
M  V30 1485 H 144.282 -0.0814343 0.732487 0
M  V30 1486 H 146.924 0.48713 1.83649 0
M  V30 1487 H 145.074 -1.1322 3.71636 0
M  V30 1488 H 146.746 1.38648 4.39971 0
M  V30 1489 H 144.989 1.36986 4.11603 0
M  V30 1490 H 145.66 0.497667 5.49752 0
M  V30 1491 H 148.136 -0.809203 4.08156 0
M  V30 1492 H 147.012 -1.49961 5.28018 0
M  V30 1493 H 147.273 -2.33232 3.75573 0
M  V30 1494 N 146.332 -1.57332 0.0918853 0
M  V30 1495 C 147.264 -2.10869 -0.898168 0
M  V30 1496 C 148.277 -1.04521 -1.24817 0
M  V30 1497 O 149.466 -1.31977 -1.20184 0
M  V30 1498 C 146.566 -2.57083 -2.2082 0
M  V30 1499 C 145.739 -3.87229 -2.03402 0
M  V30 1500 C 144.798 -4.19324 -3.17889 0
M  V30 1501 O 143.824 -4.88598 -2.91994 0
M  V30 1502 N 145.026 -3.74471 -4.43567 0
M  V30 1503 H 147.791 -2.96439 -0.440943 0
M  V30 1504 H 145.352 -1.61631 -0.0933064 0
M  V30 1505 H 147.344 -2.75602 -2.96354 0
M  V30 1506 H 145.914 -1.76541 -2.57977 0
M  V30 1507 H 145.134 -3.7789 -1.12218 0
M  V30 1508 H 146.422 -4.72379 -1.89038 0
M  V30 1509 H 145.82 -3.18546 -4.67488 0
M  V30 1510 H 144.377 -3.98151 -5.16061 0
M  V30 1511 N 147.81 0.181792 -1.56548 0
M  V30 1512 C 148.74 1.22765 -1.98623 0
M  V30 1513 C 149.721 1.46747 -0.860189 0
M  V30 1514 O 150.906 1.58259 -1.12551 0
M  V30 1515 C 148.036 2.56894 -2.33715 0
M  V30 1516 C 146.99 2.475 -3.49182 0
M  V30 1517 C 146.316 3.86023 -3.69986 0
M  V30 1518 C 147.616 1.98866 -4.82959 0
M  V30 1519 H 149.31 0.877942 -2.86239 0
M  V30 1520 H 146.856 0.42088 -1.37712 0
M  V30 1521 H 148.809 3.30253 -2.61746 0
M  V30 1522 H 147.533 2.93632 -1.42997 0
M  V30 1523 H 146.192 1.76596 -3.21262 0
M  V30 1524 H 145.84 4.20136 -2.76576 0
M  V30 1525 H 145.54 3.80609 -4.47672 0
M  V30 1526 H 147.064 4.60984 -4.00407 0
M  V30 1527 H 148.478 2.61992 -5.09934 0
M  V30 1528 H 146.875 2.04424 -5.64208 0
M  V30 1529 H 147.945 0.942465 -4.75653 0
M  V30 1530 N 149.288 1.51039 0.449983 0
M  V30 1531 C 150.537 1.62317 1.19733 0
M  V30 1532 C 150.85 0.339101 1.92638 0
M  V30 1533 O 152.056 0.331069 2.69474 0
M  V30 1534 C 150.512 2.86608 2.17678 0
M  V30 1535 C 150.12 4.21972 1.50479 0
M  V30 1536 C 151.864 3.07239 2.92924 0
M  V30 1537 C 149.771 5.37426 2.46834 0
M  V30 1538 H 148.701 0.604532 0.450619 0
M  V30 1539 H 151.352 1.77494 0.465625 0
M  V30 1540 H 149.734 2.65037 2.94231 0
M  V30 1541 H 150.908 4.53878 0.795716 0
M  V30 1542 H 149.223 4.07117 0.874344 0
M  V30 1543 H 151.82 3.90668 3.65079 0
M  V30 1544 H 152.163 2.19807 3.5354 0
M  V30 1545 H 152.696 3.29091 2.23481 0
M  V30 1546 H 149.435 6.27079 1.90926 0
M  V30 1547 H 148.955 5.09912 3.15832 0
M  V30 1548 H 150.634 5.68862 3.08228 0
M  V30 1549 N 150.766 -0.704594 1.40972 0
M  V30 1550 C 151.994 -1.49354 1.43182 0
M  V30 1551 C 152.409 -1.88768 0.0345508 0
M  V30 1552 O 151.766 -1.56184 -0.944081 0
M  V30 1553 C 151.817 -2.76187 2.33244 0
M  V30 1554 O 151.538 -2.38436 3.67532 0
M  V30 1555 C 153.039 -3.7 2.44162 0
M  V30 1556 H 150.259 -0.460559 0.487982 0
M  V30 1557 H 152.803 -0.868261 1.85153 0
M  V30 1558 H 150.958 -3.34974 1.94606 0
M  V30 1559 H 151.372 -3.20126 4.15475 0
M  V30 1560 H 152.846 -4.55803 3.11364 0
M  V30 1561 H 153.323 -4.13867 1.47006 0
M  V30 1562 H 153.929 -3.17121 2.83398 0
M  V30 1563 N 152.244 -1.26651 -0.937939 0
M  V30 1564 C 153.192 -1.08308 -2.05845 0
M  V30 1565 C 154.186 -0.0090757 -1.69398 0
M  V30 1566 O 155.392 -0.166007 -1.79233 0
M  V30 1567 H 151.767 -0.333416 -0.674046 0
M  V30 1568 H 153.738 -2.03261 -2.18467 0
M  V30 1569 C 152.487 -0.736229 -3.39816 0
M  V30 1570 H 151.81 -1.55453 -3.6834 0
M  V30 1571 H 153.25 -0.64769 -4.19024 0
M  V30 1572 C 151.709 0.558824 -3.32233 0
M  V30 1573 O 152.239 1.59621 -3.68624 0
M  V30 1574 N 150.445 0.550657 -2.85335 0
M  V30 1575 H 149.992 -0.293943 -2.55917 0
M  V30 1576 H 149.95 1.41726 -2.80644 0
M  V30 1577 N 153.722 1.14298 -1.08507 0
M  V30 1578 C 155.133 1.66926 -0.836227 0
M  V30 1579 C 155.484 1.85576 0.63686 0
M  V30 1580 O 154.609 1.56767 1.49175 0
M  V30 1581 C 155.204 3.03219 -1.51142 0
M  V30 1582 C 153.763 3.52876 -1.30979 0
M  V30 1583 C 152.91 2.2833 -1.57356 0
M  V30 1584 H 155.861 0.983491 -1.24552 0
M  V30 1585 H 155.882 3.68726 -0.939211 0
M  V30 1586 H 155.394 2.89612 -2.58353 0
M  V30 1587 H 153.495 3.71703 -0.258429 0
M  V30 1588 H 153.608 4.33586 -2.03814 0
M  V30 1589 H 151.972 2.34454 -0.995164 0
M  V30 1590 H 152.755 2.17298 -2.65775 0
M  V30 1591 N 155.201 0.870884 1.31352 0
M  V30 1592 C 156.448 0.482273 1.96673 0
M  V30 1593 C 156.776 -0.965638 1.68836 0
M  V30 1594 O 156.031 -1.69514 0.977937 0
M  V30 1595 C 156.33 0.687157 3.50732 0
M  V30 1596 C 155.996 2.108 3.9859 0
M  V30 1597 C 154.658 2.49656 4.1137 0
M  V30 1598 C 157.01 3.03459 4.23748 0
M  V30 1599 C 154.338 3.80412 4.46659 0
M  V30 1600 C 156.69 4.3373 4.60501 0
M  V30 1601 C 155.354 4.725 4.71487 0
M  V30 1602 H 154.624 0.176476 0.719679 0
M  V30 1603 H 157.271 1.10405 1.56471 0
M  V30 1604 H 155.576 -0.0177476 3.91796 0
M  V30 1605 H 157.273 0.366284 3.99324 0
M  V30 1606 H 153.863 1.79633 3.8914 0
M  V30 1607 H 158.047 2.74665 4.13368 0
M  V30 1608 H 153.303 4.1021 4.53362 0
M  V30 1609 H 157.477 5.05578 4.78919 0
M  V30 1610 H 155.104 5.73859 4.98588 0
M  V30 1611 N 156.679 -1.44442 0.630414 0
M  V30 1612 C 157.928 -2.01267 0.132073 0
M  V30 1613 C 158.241 -1.50172 -1.25331 0
M  V30 1614 O 159.447 -1.9912 -1.84562 0
M  V30 1615 C 157.903 -3.59422 0.185362 0
M  V30 1616 C 157.511 -4.19514 1.57201 0
M  V30 1617 C 159.255 -4.23724 -0.256553 0
M  V30 1618 C 157.162 -5.69891 1.58045 0
M  V30 1619 H 156.092 -0.752619 0.0456092 0
M  V30 1620 H 158.743 -1.65666 0.789106 0
M  V30 1621 H 157.125 -3.92318 -0.538759 0
M  V30 1622 H 158.299 -3.98156 2.31966 0
M  V30 1623 H 156.614 -3.67496 1.95795 0
M  V30 1624 H 159.211 -5.34019 -0.269767 0
M  V30 1625 H 159.554 -3.96013 -1.28372 0
M  V30 1626 H 160.087 -3.95629 0.41505 0
M  V30 1627 H 156.826 -6.02336 2.58597 0
M  V30 1628 H 156.346 -5.93373 0.875725 0
M  V30 1629 H 158.025 -6.33515 1.31408 0
M  V30 1630 N 158.157 -0.370918 -1.53173 0
M  V30 1631 C 159.405 0.216673 -2.00935 0
M  V30 1632 C 159.726 1.48845 -1.25977 0
M  V30 1633 O 158.996 1.92286 -0.374551 0
M  V30 1634 H 157.576 0.0830565 -0.742368 0
M  V30 1635 H 160.238 -0.49838 -1.8842 0
M  V30 1636 H 159.334 0.439893 -3.08984 0
M  V30 1637 N 159.635 1.57281 -0.100228 0
M  V30 1638 C 160.565 2.17328 0.853857 0
M  V30 1639 C 161.546 1.10804 1.2906 0
M  V30 1640 O 162.731 1.38963 1.35657 0
M  V30 1641 C 159.861 2.75772 2.11109 0
M  V30 1642 C 158.815 3.87713 1.81279 0
M  V30 1643 C 158.141 4.32882 3.13874 0
M  V30 1644 C 159.441 5.10677 1.09574 0
M  V30 1645 H 161.135 2.97305 0.353545 0
M  V30 1646 H 158.681 1.43009 0.168612 0
M  V30 1647 H 160.634 3.16433 2.78296 0
M  V30 1648 H 159.358 1.93057 2.63432 0
M  V30 1649 H 158.017 3.476 1.16489 0
M  V30 1650 H 157.665 3.47051 3.64095 0
M  V30 1651 H 157.365 5.08358 2.94696 0
M  V30 1652 H 158.889 4.7618 3.82211 0
M  V30 1653 H 160.303 5.48474 1.66879 0
M  V30 1654 H 158.7 5.91615 1.00557 0
M  V30 1655 H 159.77 4.84835 0.0793299 0
M  V30 1656 N 161.113 -0.173488 1.56642 0
M  V30 1657 C 162.043 -1.2171 1.99271 0
M  V30 1658 C 163.024 -1.46289 0.867959 0
M  V30 1659 O 164.209 -1.5766 1.13388 0
M  V30 1660 C 161.339 -2.55651 2.35074 0
M  V30 1661 C 160.293 -2.45645 3.50489 0
M  V30 1662 C 159.619 -3.84056 3.72028 0
M  V30 1663 C 160.919 -1.96302 4.84007 0
M  V30 1664 H 162.613 -0.86275 2.867 0
M  V30 1665 H 160.159 -0.413571 1.37933 0
M  V30 1666 H 162.112 -3.2886 2.63494 0
M  V30 1667 H 160.836 -2.92869 1.44552 0
M  V30 1668 H 159.495 -1.7489 3.22194 0
M  V30 1669 H 159.143 -4.18664 2.788 0
M  V30 1670 H 158.843 -3.7823 4.49684 0
M  V30 1671 H 160.367 -4.58854 4.02846 0
M  V30 1672 H 161.781 -2.59284 5.11317 0
M  V30 1673 H 160.178 -2.01429 5.65284 0
M  V30 1674 H 161.248 -0.917226 4.76146 0
M  V30 1675 N 162.591 -1.51276 -0.441967 0
M  V30 1676 C 163.819 -1.67516 -1.21434 0
M  V30 1677 C 164.234 -0.37055 -1.85128 0
M  V30 1678 O 163.591 0.650498 -1.70513 0
M  V30 1679 C 163.642 -2.78748 -2.30177 0
M  V30 1680 O 163.363 -4.04154 -1.69089 0
M  V30 1681 C 164.864 -3.06217 -3.20541 0
M  V30 1682 H 162.084 -0.562276 -0.366178 0
M  V30 1683 H 164.628 -1.97666 -0.524244 0
M  V30 1684 H 162.783 -2.5121 -2.94911 0
M  V30 1685 H 163.197 -4.65894 -2.40922 0
M  V30 1686 H 164.671 -3.8764 -3.92987 0
M  V30 1687 H 165.148 -2.18439 -3.81026 0
M  V30 1688 H 165.754 -3.35397 -2.61513 0
M  V30 1689 N 164.069 0.697108 -1.41344 0
M  V30 1690 C 165.294 1.49096 -1.44171 0
M  V30 1691 C 165.719 1.88038 -0.0481568 0
M  V30 1692 O 165.077 1.54525 0.948243 0
M  V30 1693 C 165.125 2.73088 -2.3549 0
M  V30 1694 O 164.229 3.70514 -1.81088 0
M  V30 1695 H 163.57 0.448801 -0.489361 0
M  V30 1696 H 166.1 0.856992 -1.85787 0
M  V30 1697 H 166.11 3.21413 -2.51312 0
M  V30 1698 H 164.785 2.44081 -3.36745 0
M  V30 1699 H 163.362 3.29441 -1.74708 0
M  V30 1700 N 165.547 1.27147 0.931209 0
M  V30 1701 C 166.963 1.04475 1.20653 0
M  V30 1702 C 167.163 -0.223885 2.00252 0
M  V30 1703 O 166.219 -0.930332 2.34736 0
M  V30 1704 C 167.532 2.28209 1.95809 0
M  V30 1705 C 169.08 2.33211 2.08762 0
M  V30 1706 C 169.555 3.56665 2.87323 0
M  V30 1707 N 171.046 3.57201 2.94892 0
M  V30 1708 C 171.781 4.49395 3.56134 0
M  V30 1709 N 171.277 5.51889 4.18796 0
M  V30 1710 N 173.07 4.37026 3.53504 0
M  V30 1711 H 165.221 2.08612 0.399333 0
M  V30 1712 H 167.484 0.917312 0.239253 0
M  V30 1713 H 167.19 3.20538 1.44736 0
M  V30 1714 H 167.064 2.33247 2.96438 0
M  V30 1715 H 169.451 1.41391 2.59023 0
M  V30 1716 H 169.532 2.32178 1.07364 0
M  V30 1717 H 169.176 4.4882 2.37746 0
M  V30 1718 H 169.106 3.54948 3.88998 0
M  V30 1719 H 171.597 2.83074 2.50354 0
M  V30 1720 H 171.91 6.18409 4.63454 0
M  V30 1721 H 170.255 5.55735 4.17353 0
M  V30 1722 H 173.446 3.56166 3.03749 0
M  V30 1723 H 173.619 5.09067 4.00942 0
M  V30 1724 N 167.025 -1.13721 1.09112 0
M  V30 1725 C 168.274 -1.84275 0.82009 0
M  V30 1726 C 168.587 -1.84253 -0.656509 0
M  V30 1727 O 169.793 -2.50668 -1.04296 0
M  V30 1728 C 168.249 -3.30825 1.41714 0
M  V30 1729 C 167.857 -3.39244 2.92605 0
M  V30 1730 C 169.601 -4.06443 1.22492 0
M  V30 1731 C 167.508 -4.80047 3.45411 0
M  V30 1732 H 166.438 -0.690387 0.30312 0
M  V30 1733 H 169.089 -1.28146 1.31343 0
M  V30 1734 H 167.471 -3.86737 0.851498 0
M  V30 1735 H 168.645 -2.93344 3.55367 0
M  V30 1736 H 166.96 -2.77088 3.10823 0
M  V30 1737 H 169.557 -5.10387 1.59402 0
M  V30 1738 H 169.9 -4.15972 0.165299 0
M  V30 1739 H 170.433 -3.56852 1.75788 0
M  V30 1740 H 167.172 -4.75709 4.50978 0
M  V30 1741 H 166.692 -5.26455 2.87411 0
M  V30 1742 H 168.371 -5.48957 3.42425 0
M  V30 1743 N 168.503 -0.877838 -1.30888 0
M  V30 1744 C 169.751 -0.491723 -1.96027 0
M  V30 1745 C 170.072 0.960827 -1.69685 0
M  V30 1746 O 169.342 1.67462 -1.01654 0
M  V30 1747 H 167.922 -0.17885 -0.725273 0
M  V30 1748 H 170.584 -1.11935 -1.59551 0
M  V30 1749 H 169.68 -0.656016 -3.05128 0
M  V30 1750 N 169.982 1.44106 -0.638065 0
M  V30 1751 C 171.212 2.06037 -0.152394 0
M  V30 1752 C 171.62 1.47808 1.18108 0
M  V30 1753 O 170.963 0.598092 1.73691 0
M  V30 1754 C 171.025 3.59488 0.0293714 0
M  V30 1755 C 170.689 4.4022 -1.22702 0
M  V30 1756 C 171.686 4.73256 -2.15232 0
M  V30 1757 C 169.371 4.8048 -1.46437 0
M  V30 1758 C 171.365 5.45444 -3.29802 0
M  V30 1759 C 169.052 5.52417 -2.61303 0
M  V30 1760 C 170.05 5.84819 -3.52811 0
M  V30 1761 O 169.738 6.55289 -4.65673 0
M  V30 1762 H 169.47 0.671233 -0.0801401 0
M  V30 1763 H 172.024 1.85851 -0.874563 0
M  V30 1764 H 170.254 3.78191 0.806758 0
M  V30 1765 H 171.943 4.03164 0.470475 0
M  V30 1766 H 172.709 4.42684 -1.98131 0
M  V30 1767 H 168.588 4.54676 -0.760977 0
M  V30 1768 H 172.132 5.70653 -4.01249 0
M  V30 1769 H 168.029 5.82404 -2.78344 0
M  V30 1770 H 168.797 6.73762 -4.64744 0
M  V30 1771 N 171.46 0.379036 1.52974 0
M  V30 1772 C 172.871 -0.0972525 1.86447 0
M  V30 1773 C 173.222 -1.47027 1.29914 0
M  V30 1774 O 172.347 -2.07135 0.626433 0
M  V30 1775 C 172.942 -0.183248 3.38304 0
M  V30 1776 C 171.501 -0.603812 3.71525 0
M  V30 1777 C 170.648 0.240632 2.76254 0
M  V30 1778 H 173.599 0.597316 1.4703 0
M  V30 1779 H 173.62 -1.00432 3.67006 0
M  V30 1780 H 173.132 0.816191 3.79421 0
M  V30 1781 H 171.233 -1.61099 3.35973 0
M  V30 1782 H 171.346 -0.369086 4.77676 0
M  V30 1783 H 169.71 -0.292548 2.53014 0
M  V30 1784 H 170.493 1.23786 3.20206 0
M  V30 1785 N 172.938 -1.57226 0.108567 0
M  V30 1786 C 174.187 -1.94008 -0.551703 0
M  V30 1787 C 174.5 -0.993442 -1.68494 0
M  V30 1788 O 175.706 -1.25551 -2.40726 0
M  V30 1789 C 174.162 -3.44763 -1.03279 0
M  V30 1790 C 173.77 -4.47943 0.0714193 0
M  V30 1791 C 175.514 -3.90483 -1.66503 0
M  V30 1792 C 173.421 -5.89865 -0.425779 0
M  V30 1793 H 172.351 -0.724206 -0.209863 0
M  V30 1794 H 175.002 -1.82547 0.186741 0
M  V30 1795 H 173.384 -3.51422 -1.82533 0
M  V30 1796 H 174.558 -4.52942 0.847365 0
M  V30 1797 H 172.873 -4.11913 0.609669 0
M  V30 1798 H 175.47 -4.93925 -2.04798 0
M  V30 1799 H 175.813 -3.29877 -2.53942 0
M  V30 1800 H 176.346 -3.86581 -0.938074 0
M  V30 1801 H 173.085 -6.54202 0.412316 0
M  V30 1802 H 172.605 -5.88309 -1.16843 0
M  V30 1803 H 174.284 -6.40844 -0.890397 0
M  V30 1804 N 174.416 0.165178 -1.56732 0
M  V30 1805 C 175.827 0.727046 -1.71962 0
M  V30 1806 C 176.178 1.82508 -0.720078 0
M  V30 1807 O 175.303 2.16082 0.117242 0
M  V30 1808 C 175.898 1.32559 -3.11791 0
M  V30 1809 C 174.457 1.83422 -3.28684 0
M  V30 1810 C 173.604 0.715567 -2.67908 0
M  V30 1811 H 176.555 -0.0602896 -1.58585 0
M  V30 1812 H 176.576 2.19533 -3.10782 0
M  V30 1813 H 176.088 0.526195 -3.84516 0
M  V30 1814 H 174.189 2.65986 -2.60926 0
M  V30 1815 H 174.302 1.97543 -4.36478 0
M  V30 1816 H 172.666 1.13758 -2.27884 0
M  V30 1817 H 173.449 -0.0720836 -3.43224 0
M  V30 1818 N 175.894 1.51508 0.433938 0
M  V30 1819 C 177.143 1.63578 1.18005 0
M  V30 1820 C 177.456 0.359514 1.92268 0
M  V30 1821 O 178.662 0.359632 2.69108 0
M  V30 1822 C 177.118 2.88901 2.14626 0
M  V30 1823 C 176.726 4.23544 1.45995 0
M  V30 1824 C 178.47 3.10328 2.89649 0
M  V30 1825 C 176.377 5.40014 2.4112 0
M  V30 1826 H 175.307 0.609277 0.444182 0
M  V30 1827 H 177.958 1.77978 0.446773 0
M  V30 1828 H 176.34 2.68142 2.91403 0
M  V30 1829 H 177.514 4.54696 0.747532 0
M  V30 1830 H 175.829 4.08021 0.831115 0
M  V30 1831 H 178.426 3.94518 3.60915 0
M  V30 1832 H 178.769 2.23544 3.51189 0
M  V30 1833 H 179.302 3.31443 2.19978 0
M  V30 1834 H 176.041 6.29068 1.84264 0
M  V30 1835 H 175.561 5.13233 3.10406 0
M  V30 1836 H 177.24 5.72099 3.02177 0
M  V30 1837 N 177.372 -0.689602 1.41712 0
M  V30 1838 C 178.619 -1.44966 1.4139 0
M  V30 1839 C 178.947 -1.94484 0.025105 0
M  V30 1840 O 178.202 -1.70307 -0.964048 0
M  V30 1841 C 178.501 -2.67298 2.37247 0
M  V30 1842 C 178.167 -2.36405 3.83958 0
M  V30 1843 C 176.829 -2.27691 4.23923 0
M  V30 1844 C 179.181 -2.11043 4.76561 0
M  V30 1845 C 176.509 -1.91719 5.54492 0
M  V30 1846 C 178.861 -1.76578 6.07456 0
M  V30 1847 C 177.525 -1.66363 6.46436 0
M  V30 1848 H 176.795 -0.53047 0.517381 0
M  V30 1849 H 179.442 -0.787655 1.74552 0
M  V30 1850 H 177.747 -3.38461 1.9736 0
M  V30 1851 H 179.444 -3.25452 2.34269 0
M  V30 1852 H 176.034 -2.44085 3.52308 0
M  V30 1853 H 180.218 -2.16717 4.46483 0
M  V30 1854 H 175.474 -1.82367 5.83568 0
M  V30 1855 H 179.648 -1.55974 6.78708 0
M  V30 1856 H 177.275 -1.38258 7.47522 0
M  V30 1857 N 178.85 -1.27639 -0.924453 0
M  V30 1858 C 179.813 -1.10681 -2.00705 0
M  V30 1859 C 180.813 -0.0497823 -1.60723 0
M  V30 1860 O 182.003 -0.294654 -1.7169 0
M  V30 1861 C 179.135 -0.687164 -3.33902 0
M  V30 1862 H 180.328 -2.06817 -2.17179 0
M  V30 1863 H 177.881 -1.10473 -1.10569 0
M  V30 1864 H 178.616 0.275439 -3.23128 0
M  V30 1865 H 178.401 -1.45061 -3.6428 0
M  V30 1866 H 179.891 -0.590853 -4.13399 0
M  V30 1867 N 180.328 1.1314 -1.09713 0
M  V30 1868 C 181.576 1.84119 -0.833338 0
M  V30 1869 C 181.897 1.84097 0.642904 0
M  V30 1870 O 181.167 1.29881 1.46655 0
M  V30 1871 H 179.747 0.681766 -0.305293 0
M  V30 1872 H 182.409 1.37038 -1.38588 0
M  V30 1873 H 181.505 2.88543 -1.18951 0
M  V30 1874 N 181.806 0.884767 1.30421 0
M  V30 1875 C 183.053 0.503105 1.96151 0
M  V30 1876 C 183.381 -0.947676 1.69851 0
M  V30 1877 O 182.636 -1.68467 0.995861 0
M  V30 1878 C 182.935 0.724318 3.49983 0
M  V30 1879 C 182.601 2.15015 3.96332 0
M  V30 1880 C 181.263 2.54005 4.08699 0
M  V30 1881 C 183.615 3.07936 4.20505 0
M  V30 1882 C 180.943 3.85128 4.42599 0
M  V30 1883 C 183.295 4.3859 4.55874 0
M  V30 1884 C 181.959 4.77474 4.66449 0
M  V30 1885 H 181.229 0.184099 0.717766 0
M  V30 1886 H 183.876 1.12058 1.55291 0
M  V30 1887 H 182.181 0.0238086 3.91793 0
M  V30 1888 H 183.878 0.408617 3.98913 0
M  V30 1889 H 180.468 1.8375 3.87213 0
M  V30 1890 H 184.652 2.79033 4.10431 0
M  V30 1891 H 179.908 4.14996 4.48986 0
M  V30 1892 H 184.082 5.10629 4.7353 0
M  V30 1893 H 181.709 5.79115 4.92473 0
M  V30 1894 N 183.284 -1.43765 0.645699 0
M  V30 1895 C 184.524 -2.03776 0.159542 0
M  V30 1896 C 184.888 -1.49792 -1.2011 0
M  V30 1897 O 186.089 -2.01398 -1.78023 0
M  V30 1898 C 184.36 -3.57036 0.161251 0
M  V30 1899 S 185.919 -4.3804 -0.258159 0
M  V30 1900 H 182.737 -0.707717 0.0682454 0
M  V30 1901 H 185.339 -1.75941 0.852352 0
M  V30 1902 H 184.043 -3.9383 1.15439 0
M  V30 1903 H 183.574 -3.89503 -0.552339 0
M  V30 1904 H 185.589 -4.7302 -1.49889 0
M  V30 1905 N 184.763 -0.387143 -1.52771 0
M  V30 1906 C 186.012 0.19697 -2.00736 0
M  V30 1907 C 186.325 1.48082 -1.27793 0
M  V30 1908 O 187.531 2.14485 -1.66458 0
M  V30 1909 C 185.987 0.401568 -3.57653 0
M  V30 1910 C 185.595 -0.868907 -4.39493 0
M  V30 1911 C 187.339 0.942164 -4.13912 0
M  V30 1912 C 185.246 -0.632705 -5.88006 0
M  V30 1913 H 184.176 0.0773827 -0.750019 0
M  V30 1914 H 186.827 -0.50921 -1.76293 0
M  V30 1915 H 185.209 1.16954 -3.78335 0
M  V30 1916 H 186.383 -1.64133 -4.30577 0
M  V30 1917 H 184.698 -1.33429 -3.94443 0
M  V30 1918 H 187.295 1.13455 -5.22525 0
M  V30 1919 H 187.638 1.9106 -3.69867 0
M  V30 1920 H 188.171 0.233814 -3.97112 0
M  V30 1921 H 184.91 -1.57208 -6.36369 0
M  V30 1922 H 184.43 0.100825 -5.99715 0
M  V30 1923 H 186.109 -0.26642 -6.46451 0
M  V30 1924 N 186.241 1.57166 -0.116904 0
M  V30 1925 C 187.174 2.10912 0.871291 0
M  V30 1926 C 188.152 1.025 1.26224 0
M  V30 1927 O 189.336 1.3014 1.36366 0
M  V30 1928 C 186.463 2.6041 2.16574 0
M  V30 1929 C 185.509 3.80687 1.92302 0
M  V30 1930 S 186.342 5.23199 1.14119 0
M  V30 1931 C 187.498 5.76064 2.44748 0
M  V30 1932 H 187.731 2.94401 0.414138 0
M  V30 1933 H 185.264 1.54096 0.096829 0
M  V30 1934 H 187.222 2.89583 2.9095 0
M  V30 1935 H 185.883 1.77106 2.59408 0
M  V30 1936 H 185.076 4.13462 2.8821 0
M  V30 1937 H 184.678 3.5212 1.26047 0
M  V30 1938 H 186.97 5.8566 3.406 0
M  V30 1939 H 187.913 6.74184 2.16521 0
M  V30 1940 H 188.321 5.04117 2.54019 0
M  V30 1941 N 187.719 -0.156864 1.56817 0
M  V30 1942 C 188.966 -0.871125 1.82805 0
M  V30 1943 C 189.294 -1.81611 0.696262 0
M  V30 1944 O 188.549 -1.93141 -0.315459 0
M  V30 1945 C 188.848 -1.68737 3.1506 0
M  V30 1946 C 188.514 -0.890045 4.42028 0
M  V30 1947 C 187.176 -0.670042 4.76512 0
M  V30 1948 C 189.528 -0.331769 5.20143 0
M  V30 1949 C 186.856 0.119104 5.86579 0
M  V30 1950 C 189.208 0.444365 6.31037 0
M  V30 1951 C 187.872 0.675035 6.64078 0
M  V30 1952 H 187.142 -0.318767 0.668931 0
M  V30 1953 H 189.789 -0.135274 1.91022 0
M  V30 1954 H 188.094 -2.49304 3.0225 0
M  V30 1955 H 189.791 -2.24331 3.3238 0
M  V30 1956 H 186.381 -1.07157 4.14988 0
M  V30 1957 H 190.565 -0.489043 4.93885 0
M  V30 1958 H 185.821 0.307417 6.10627 0
M  V30 1959 H 189.995 0.884139 6.90765 0
M  V30 1960 H 187.622 1.28839 7.49203 0
M  V30 1961 N 189.197 -1.51736 -0.425897 0
M  V30 1962 C 190.443 -1.65214 -1.1761 0
M  V30 1963 C 190.776 -0.372778 -1.90589 0
M  V30 1964 O 190.051 0.628139 -1.84078 0
M  V30 1965 C 190.334 -2.86312 -2.18398 0
M  V30 1966 C 190.187 -4.24254 -1.49426 0
M  V30 1967 C 191.506 -3.02925 -3.19256 0
M  V30 1968 H 188.625 -0.601263 -0.426206 0
M  V30 1969 H 191.267 -1.8425 -0.463882 0
M  V30 1970 H 189.417 -2.70213 -2.79137 0
M  V30 1971 H 191.089 -4.52046 -0.919362 0
M  V30 1972 H 189.332 -4.26426 -0.796432 0
M  V30 1973 H 190.003 -5.05001 -2.22885 0
M  V30 1974 H 192.479 -3.1781 -2.68581 0
M  V30 1975 H 191.355 -3.89199 -3.8706 0
M  V30 1976 H 191.616 -2.15497 -3.86023 0
M  V30 1977 N 190.675 0.682077 -1.42076 0
M  V30 1978 C 191.9 1.47558 -1.45744 0
M  V30 1979 C 192.325 1.87977 -0.0680981 0
M  V30 1980 O 191.683 1.55522 0.9318 0
M  V30 1981 C 191.731 2.70575 -2.38373 0
M  V30 1982 O 190.835 3.68573 -1.85007 0
M  V30 1983 H 190.176 0.443585 -0.494093 0
M  V30 1984 H 192.706 0.837238 -1.86686 0
M  V30 1985 H 192.716 3.18729 -2.54707 0
M  V30 1986 H 191.391 2.40495 -3.39315 0
M  V30 1987 H 189.968 3.2757 -1.78192 0
M  V30 1988 N 192.153 1.28127 0.917671 0
M  V30 1989 C 193.381 1.17892 1.70026 0
M  V30 1990 C 193.796 -0.262958 1.8696 0
M  V30 1991 O 193.153 -1.17811 1.3938 0
M  V30 1992 C 193.204 1.86872 3.09453 0
M  V30 1993 O 192.925 3.25428 2.93306 0
M  V30 1994 C 194.426 1.8289 4.03815 0
M  V30 1995 H 191.646 0.40942 0.531617 0
M  V30 1996 H 194.19 1.69181 1.14883 0
M  V30 1997 H 192.345 1.39464 3.61426 0
M  V30 1998 H 192.759 3.59918 3.81523 0
M  V30 1999 H 194.233 2.35751 4.99125 0
M  V30 2000 H 194.71 0.800412 4.31845 0
M  V30 2001 H 195.316 2.29959 3.57769 0
M  V30 2002 N 193.631 -1.12557 1.10312 0
M  V30 2003 C 194.88 -1.83395 0.839588 0
M  V30 2004 C 195.193 -1.84939 -0.636929 0
M  V30 2005 O 196.399 -2.51761 -1.01631 0
M  V30 2006 C 194.855 -3.29303 1.45215 0
M  V30 2007 C 194.463 -3.36122 2.96186 0
M  V30 2008 C 196.207 -4.05121 1.26796 0
M  V30 2009 C 194.114 -4.76357 3.50483 0
M  V30 2010 H 193.044 -0.687133 0.310425 0
M  V30 2011 H 195.695 -1.26746 1.32694 0
M  V30 2012 H 194.077 -3.85812 0.892469 0
M  V30 2013 H 195.251 -2.89559 3.58458 0
M  V30 2014 H 193.566 -2.73776 3.13745 0
M  V30 2015 H 196.163 -5.08668 1.64806 0
M  V30 2016 H 196.506 -4.15773 0.209409 0
M  V30 2017 H 197.039 -3.54967 1.79563 0
M  V30 2018 H 193.778 -4.70899 4.55998 0
M  V30 2019 H 193.298 -5.23377 2.92978 0
M  V30 2020 H 194.977 -5.45294 3.48228 0
M  V30 2021 N 195.109 -0.891671 -1.2995 0
M  V30 2022 C 196.042 -0.307994 -2.26112 0
M  V30 2023 C 197.02 0.575262 -1.52084 0
M  V30 2024 O 198.204 0.523864 -1.81074 0
M  V30 2025 C 195.331 0.561734 -3.34009 0
M  V30 2026 C 194.377 -0.253107 -4.25748 0
M  V30 2027 S 195.21 -1.64572 -5.09584 0
M  V30 2028 C 196.366 -0.782699 -6.20987 0
M  V30 2029 H 196.599 -1.12309 -2.75271 0
M  V30 2030 H 194.132 -0.691509 -1.38049 0
M  V30 2031 H 196.09 1.05777 -3.96638 0
M  V30 2032 H 194.751 1.35099 -2.83561 0
M  V30 2033 H 193.944 0.410908 -5.02322 0
M  V30 2034 H 193.546 -0.682004 -3.67729 0
M  V30 2035 H 195.838 -0.00257476 -6.775 0
M  V30 2036 H 196.781 -1.52026 -6.91588 0
M  V30 2037 H 197.189 -0.340638 -5.63471 0
M  V30 2038 N 196.587 1.43421 -0.653314 0
M  V30 2039 C 197.834 2.01812 -0.166745 0
M  V30 2040 C 198.162 1.51535 1.21931 0
M  V30 2041 O 197.417 0.698975 1.82792 0
M  V30 2042 C 197.716 3.57176 -0.126623 0
M  V30 2043 C 197.382 4.26798 -1.45444 0
M  V30 2044 C 196.044 4.45534 -1.81805 0
M  V30 2045 C 198.396 4.66225 -2.32989 0
M  V30 2046 C 195.724 5.00961 -3.05377 0
M  V30 2047 C 198.076 5.23021 -3.55853 0
M  V30 2048 C 196.74 5.39973 -3.9241 0
M  V30 2049 H 196.01 0.738484 -0.0610162 0
M  V30 2050 H 198.657 1.71896 -0.84404 0
M  V30 2051 H 196.962 3.86634 0.634123 0
M  V30 2052 H 198.659 4.00112 0.266723 0
M  V30 2053 H 195.249 4.12561 -1.16153 0
M  V30 2054 H 199.433 4.51443 -2.06187 0
M  V30 2055 H 194.689 5.12271 -3.3375 0
M  V30 2056 H 198.863 5.52518 -4.23907 0
M  V30 2057 H 196.49 5.82687 -4.88242 0
M  V30 2058 N 198.065 0.39524 1.52563 0
M  V30 2059 C 199.028 -0.425001 2.25225 0
M  V30 2060 C 200.028 -0.985266 1.27079 0
M  V30 2061 O 201.218 -0.866332 1.5113 0
M  V30 2062 C 198.35 -1.59686 3.01186 0
M  V30 2063 H 199.543 0.211233 2.99155 0
M  V30 2064 H 197.096 0.147472 1.55603 0
M  V30 2065 H 197.831 -2.27035 2.31572 0
M  V30 2066 H 197.616 -1.20176 3.73229 0
M  V30 2067 H 199.106 -2.17743 3.5634 0
M  V30 2068 N 199.544 -1.57102 0.125237 0
M  V30 2069 C 200.791 -1.95407 -0.531248 0
M  V30 2070 C 201.119 -1.0089 -1.66287 0
M  V30 2071 O 200.374 -0.0339431 -1.95671 0
M  V30 2072 C 200.673 -3.40096 -1.09862 0
M  V30 2073 C 200.339 -4.50815 -0.0876989 0
M  V30 2074 C 199.001 -4.80824 0.19026 0
M  V30 2075 C 201.353 -5.17724 0.600902 0
M  V30 2076 C 198.681 -5.75058 1.163 0
M  V30 2077 C 201.033 -6.13005 1.56231 0
M  V30 2078 C 199.697 -6.41403 1.8482 0
M  V30 2079 H 198.967 -0.715046 -0.194397 0
M  V30 2080 H 201.614 -1.90373 0.207463 0
M  V30 2081 H 199.919 -3.41855 -1.91422 0
M  V30 2082 H 201.616 -3.6705 -1.61478 0
M  V30 2083 H 198.206 -4.27444 -0.314528 0
M  V30 2084 H 202.39 -4.94691 0.399333 0
M  V30 2085 H 197.646 -5.95362 1.39117 0
M  V30 2086 H 201.82 -6.63934 2.10153 0
M  V30 2087 H 199.447 -7.14229 2.60349 0
M  V30 2088 N 201.022 0.148545 -1.56898 0
M  V30 2089 C 202.247 0.880385 -1.87787 0
M  V30 2090 C 202.672 1.74018 -0.714093 0
M  V30 2091 O 202.03 1.78153 0.336343 0
M  V30 2092 C 202.078 1.71422 -3.17249 0
M  V30 2093 O 201.182 2.8183 -3.01074 0
M  V30 2094 H 200.523 0.245301 -0.617028 0
M  V30 2095 H 203.053 0.139826 -2.04122 0
M  V30 2096 H 203.063 2.10954 -3.49231 0
M  V30 2097 H 201.738 1.08284 -4.01556 0
M  V30 2098 H 200.315 2.45715 -2.80497 0
M  V30 2099 N 202.5 1.5196 0.417844 0
M  V30 2100 C 203.725 1.69717 1.1921 0
M  V30 2101 C 204.15 0.402148 1.83751 0
M  V30 2102 O 203.508 -0.639593 1.69643 0
M  V30 2103 C 203.556 2.82794 2.2374 0
M  V30 2104 O 202.66 2.47756 3.29683 0
M  V30 2105 H 202.001 0.565263 0.348387 0
M  V30 2106 H 204.531 1.98621 0.490985 0
M  V30 2107 H 204.541 3.07452 2.68212 0
M  V30 2108 H 203.216 3.76756 1.76146 0
M  V30 2109 H 201.793 2.33739 2.90552 0
M  V30 2110 N 203.978 -0.674533 1.42435 0
M  V30 2111 C 205.203 -1.46784 1.46524 0
M  V30 2112 C 205.628 -1.87938 0.078066 0
M  V30 2113 O 204.986 -1.56014 -0.92354 0
M  V30 2114 C 205.034 -2.69307 2.39805 0
M  V30 2115 O 204.138 -3.67587 1.86959 0
M  V30 2116 H 203.479 -0.440959 0.496439 0
M  V30 2117 H 206.009 -0.827326 1.87127 0
M  V30 2118 H 206.019 -3.17374 2.56393 0
M  V30 2119 H 204.694 -2.38692 3.40586 0
M  V30 2120 H 203.271 -3.2662 1.79927 0
M  V30 2121 N 205.456 -1.28612 -0.910864 0
M  V30 2122 C 206.686 -1.1862 -1.69153 0
M  V30 2123 C 207.094 0.257324 -1.87442 0
M  V30 2124 O 206.437 1.18543 -1.40332 0
M  V30 2125 C 206.499 -1.81606 -3.10257 0
M  V30 2126 C 206.163 -3.30864 -3.15243 0
M  V30 2127 C 207.16 -4.27256 -2.96223 0
M  V30 2128 C 204.845 -3.71871 -3.37664 0
M  V30 2129 C 206.839 -5.62631 -2.99541 0
M  V30 2130 C 204.526 -5.07371 -3.40614 0
M  V30 2131 C 205.524 -6.02561 -3.21573 0
M  V30 2132 O 205.212 -7.35589 -3.2429 0
M  V30 2133 H 204.944 -0.412633 -0.535453 0
M  V30 2134 H 207.498 -1.70306 -1.14827 0
M  V30 2135 H 205.728 -1.24418 -3.66138 0
M  V30 2136 H 207.417 -1.66092 -3.70362 0
M  V30 2137 H 208.183 -3.9691 -2.78725 0
M  V30 2138 H 204.062 -2.98241 -3.5153 0
M  V30 2139 H 207.606 -6.36907 -2.84597 0
M  V30 2140 H 203.503 -5.37366 -3.57642 0
M  V30 2141 H 204.271 -7.44252 -3.40633 0
M  V30 2142 N 206.934 1.1197 -1.10907 0
M  V30 2143 C 207.897 2.16031 -0.765707 0
M  V30 2144 C 208.897 1.59393 0.212235 0
M  V30 2145 O 210.087 1.74196 -0.0115441 0
M  V30 2146 C 207.219 3.40632 -0.135053 0
M  V30 2147 H 208.412 2.47919 -1.68748 0
M  V30 2148 H 205.965 1.27061 -0.910226 0
M  V30 2149 H 206.7 3.14348 0.797218 0
M  V30 2150 H 206.485 3.8302 -0.838937 0
M  V30 2151 H 207.975 4.17505 0.0892469 0
M  V30 2152 N 208.412 0.89855 1.29475 0
M  V30 2153 C 209.659 0.523882 1.95606 0
M  V30 2154 C 209.987 -0.929608 1.70847 0
M  V30 2155 O 209.242 -1.67401 1.01367 0
M  V30 2156 C 209.541 0.761398 3.49195 0
M  V30 2157 C 209.207 2.19207 3.94029 0
M  V30 2158 C 207.869 2.58326 4.05982 0
M  V30 2159 C 210.221 3.12379 4.17216 0
M  V30 2160 C 207.549 3.898 4.38489 0
M  V30 2161 C 209.901 4.43401 4.51197 0
M  V30 2162 C 208.565 4.82394 4.61359 0
M  V30 2163 H 207.835 0.191702 0.715773 0
M  V30 2164 H 210.482 1.13699 1.54094 0
M  V30 2165 H 208.787 0.0653622 3.91745 0
M  V30 2166 H 210.484 0.450904 3.98457 0
M  V30 2167 H 207.074 1.87846 3.85242 0
M  V30 2168 H 211.258 2.83371 4.07449 0
M  V30 2169 H 206.514 4.19734 4.44559 0
M  V30 2170 H 210.688 5.15623 4.68087 0
M  V30 2171 H 208.315 5.84306 4.86303 0
M  V30 2172 N 209.89 -1.43072 0.660911 0
M  V30 2173 C 210.82 -2.33497 -0.0122829 0
M  V30 2174 C 211.801 -1.49903 -0.803925 0
M  V30 2175 O 212.986 -1.78546 -0.763864 0
M  V30 2176 C 210.116 -3.33363 -0.973994 0
M  V30 2177 C 209.07 -4.27003 -0.291928 0
M  V30 2178 C 208.396 -5.16967 -1.36562 0
M  V30 2179 C 209.696 -5.15816 0.820462 0
M  V30 2180 H 211.39 -2.90038 0.742873 0
M  V30 2181 H 208.936 -1.39461 0.358688 0
M  V30 2182 H 210.889 -3.95524 -1.45392 0
M  V30 2183 H 209.613 -2.75095 -1.7604 0
M  V30 2184 H 208.272 -3.66217 0.167623 0
M  V30 2185 H 207.92 -4.55034 -2.14366 0
M  V30 2186 H 207.62 -5.80441 -0.914454 0
M  V30 2187 H 209.144 -5.82003 -1.84675 0
M  V30 2188 H 210.558 -5.71742 0.422366 0
M  V30 2189 H 208.955 -5.8805 1.19656 0
M  V30 2190 H 210.025 -4.55045 1.67518 0
M  V30 2191 N 211.368 -0.403325 -1.52352 0
M  V30 2192 C 212.298 0.416205 -2.29761 0
M  V30 2193 C 213.279 1.05123 -1.33728 0
M  V30 2194 O 214.464 1.06134 -1.62632 0
M  V30 2195 C 211.594 1.53624 -3.11475 0
M  V30 2196 C 210.548 1.02653 -4.15507 0
M  V30 2197 C 209.874 2.23971 -4.85532 0
M  V30 2198 C 211.174 0.08463 -5.22231 0
M  V30 2199 H 212.868 -0.229701 -2.98518 0
M  V30 2200 H 210.414 -0.111913 -1.43564 0
M  V30 2201 H 212.367 2.1165 -3.64393 0
M  V30 2202 H 211.091 2.20994 -2.40477 0
M  V30 2203 H 209.75 0.46871 -3.63591 0
M  V30 2204 H 209.398 2.89883 -4.11068 0
M  V30 2205 H 209.098 1.90521 -5.55856 0
M  V30 2206 H 210.622 2.82614 -5.41259 0
M  V30 2207 H 212.036 0.573509 -5.70424 0
M  V30 2208 H 210.433 -0.160783 -5.99885 0
M  V30 2209 H 211.503 -0.86237 -4.7717 0
M  V30 2210 N 212.846 1.57033 -0.133567 0
M  V30 2211 C 214.095 1.94861 0.520768 0
M  V30 2212 C 214.408 1.02012 1.66892 0
M  V30 2213 O 215.614 1.29365 2.38699 0
M  V30 2214 C 214.07 3.46362 0.977809 0
M  V30 2215 C 213.678 4.47773 -0.142674 0
M  V30 2216 C 215.422 3.93083 1.60269 0
M  V30 2217 C 213.329 5.90468 0.331883 0
M  V30 2218 H 212.259 0.727453 0.198315 0
M  V30 2219 H 214.91 1.82227 -0.215759 0
M  V30 2220 H 213.292 3.54282 1.7692 0
M  V30 2221 H 214.466 4.51536 -0.919317 0
M  V30 2222 H 212.781 4.10891 -0.675124 0
M  V30 2223 H 215.378 4.97121 1.96914 0
M  V30 2224 H 215.721 3.33876 2.48662 0
M  V30 2225 H 216.254 3.88025 0.876453 0
M  V30 2226 H 212.993 6.53463 -0.516341 0
M  V30 2227 H 212.513 5.90094 1.07469 0
M  V30 2228 H 214.192 6.42179 0.788332 0
M  V30 2229 N 214.325 -0.140222 1.56975 0
M  V30 2230 C 215.288 -1.15689 1.97861 0
M  V30 2231 C 216.288 -1.3549 0.865974 0
M  V30 2232 O 217.478 -1.32367 1.13246 0
M  V30 2233 C 214.61 -2.51582 2.30042 0
M  V30 2234 H 215.803 -0.805971 2.88867 0
M  V30 2235 H 213.356 -0.383801 1.51515 0
M  V30 2236 H 214.091 -2.91632 1.41849 0
M  V30 2237 H 213.876 -2.38569 3.11171 0
M  V30 2238 H 215.366 -3.24792 2.62488 0
M  V30 2239 N 215.803 -1.52179 -0.40978 0
M  V30 2240 C 217.219 -1.40968 -0.74835 0
M  V30 2241 C 217.419 -0.513657 -1.94843 0
M  V30 2242 O 216.475 0.0208026 -2.52491 0
M  V30 2243 C 217.788 -2.83483 -1.0029 0
M  V30 2244 C 219.336 -2.92821 -1.10565 0
M  V30 2245 C 219.811 -4.36303 -1.39296 0
M  V30 2246 N 221.302 -4.39535 -1.46162 0
M  V30 2247 C 222.037 -5.47614 -1.70018 0
M  V30 2248 N 221.533 -6.65812 -1.91483 0
M  V30 2249 N 223.326 -5.35129 -1.72027 0
M  V30 2250 H 215.477 -2.0897 0.380186 0
M  V30 2251 H 217.74 -0.94185 0.107805 0
M  V30 2252 H 217.446 -3.51168 -0.193461 0
M  V30 2253 H 217.32 -3.24487 -1.92323 0
M  V30 2254 H 219.707 -2.25318 -1.90568 0
M  V30 2255 H 219.788 -2.55276 -0.16369 0
M  V30 2256 H 219.432 -5.04366 -0.598109 0
M  V30 2257 H 219.362 -4.71385 -2.34743 0
M  V30 2258 H 221.853 -3.54332 -1.31367 0
M  V30 2259 H 222.166 -7.43964 -2.09134 0
M  V30 2260 H 220.511 -6.68879 -1.88749 0
M  V30 2261 H 223.702 -4.41764 -1.54796 0
M  V30 2262 H 223.875 -6.19433 -1.9028 0
M  V30 2263 N 217.281 0.66697 -1.42791 0
M  V30 2264 C 218.506 1.46004 -1.47301 0
M  V30 2265 C 218.931 1.87894 -0.0880317 0
M  V30 2266 O 218.289 1.56502 0.915253 0
M  V30 2267 C 218.337 2.68031 -2.41229 0
M  V30 2268 O 217.441 3.6659 -1.88906 0
M  V30 2269 H 216.782 0.43832 -0.49877 0
M  V30 2270 H 219.312 0.817391 -1.87563 0
M  V30 2271 H 219.322 3.1601 -2.58073 0
M  V30 2272 H 217.997 2.36883 -3.41847 0
M  V30 2273 H 216.574 3.25661 -1.81656 0
M  V30 2274 N 218.759 1.29093 0.90403 0
M  V30 2275 C 219.689 1.16401 2.02418 0
M  V30 2276 C 220.67 0.0593085 1.69997 0
M  V30 2277 O 221.855 0.238021 1.92736 0
M  V30 2278 C 218.985 0.835233 3.37107 0
M  V30 2279 C 217.939 1.89578 3.83724 0
M  V30 2280 C 217.265 1.42041 5.15489 0
M  V30 2281 C 218.565 3.30394 4.04521 0
M  V30 2282 H 220.259 2.10109 2.13295 0
M  V30 2283 H 217.805 1.01157 1.02486 0
M  V30 2284 H 219.758 0.733169 4.14973 0
M  V30 2285 H 218.482 -0.137543 3.2631 0
M  V30 2286 H 217.141 1.98715 3.08071 0
M  V30 2287 H 216.789 0.436426 5.01103 0
M  V30 2288 H 216.489 2.12964 5.4765 0
M  V30 2289 H 218.013 1.33176 5.959 0
M  V30 2290 H 219.427 3.24123 4.72882 0
M  V30 2291 H 217.824 3.99237 4.48029 0
M  V30 2292 H 218.894 3.73692 3.09002 0
M  V30 2293 N 220.237 -1.11381 1.11499 0
M  V30 2294 C 221.169 -2.17207 0.731704 0
M  V30 2295 C 222.182 -1.61066 -0.236957 0
M  V30 2296 O 223.371 -1.78489 -0.0197591 0
M  V30 2297 C 220.471 -3.38846 0.0607624 0
M  V30 2298 C 219.644 -4.24451 1.0564 0
M  V30 2299 C 218.703 -5.24562 0.4149 0
M  V30 2300 O 217.729 -5.59071 1.069 0
M  V30 2301 N 218.931 -5.74651 -0.821943 0
M  V30 2302 H 221.696 -2.50699 1.64225 0
M  V30 2303 H 219.257 -1.26908 1.00529 0
M  V30 2304 H 221.249 -4.02911 -0.380139 0
M  V30 2305 H 219.819 -3.03411 -0.752376 0
M  V30 2306 H 219.039 -3.56833 1.67524 0
M  V30 2307 H 220.327 -4.78486 1.72998 0
M  V30 2308 H 219.725 -5.48797 -1.37252 0
M  V30 2309 H 218.282 -6.40549 -1.20582 0
M  V30 2310 N 221.715 -0.905404 -1.28997 0
M  V30 2311 C 222.963 -0.533192 -1.9494 0
M  V30 2312 C 223.284 0.924618 -1.71685 0
M  V30 2313 O 222.554 1.65268 -1.05183 0
M  V30 2314 H 221.134 -0.194194 -0.721317 0
M  V30 2315 H 223.796 -1.15294 -1.57141 0
M  V30 2316 H 222.892 -0.72059 -3.03667 0
M  V30 2317 N 223.193 1.4272 -0.668489 0
M  V30 2318 C 224.442 2.00846 -0.185389 0
M  V30 2319 C 224.755 1.53442 1.21305 0
M  V30 2320 O 225.961 2.03944 1.79218 0
M  V30 2321 C 224.417 3.58805 -0.280591 0
M  V30 2322 C 224.025 4.15198 -1.68268 0
M  V30 2323 C 225.769 4.24255 0.14412 0
M  V30 2324 C 223.676 5.655 -1.73099 0
M  V30 2325 H 222.606 0.751145 -0.0655475 0
M  V30 2326 H 225.257 1.63516 -0.832752 0
M  V30 2327 H 223.639 3.93608 0.434553 0
M  V30 2328 H 224.813 3.91866 -2.42441 0
M  V30 2329 H 223.128 3.62176 -2.05469 0
M  V30 2330 H 225.725 5.34547 0.128086 0
M  V30 2331 H 226.068 3.99277 1.17827 0
M  V30 2332 H 226.601 3.94389 -0.519798 0
M  V30 2333 H 223.34 5.95268 -2.74475 0
M  V30 2334 H 222.86 5.90842 -1.03274 0
M  V30 2335 H 224.539 6.29808 -1.48158 0
M  V30 2336 N 224.671 0.411399 1.52136 0
M  V30 2337 C 225.919 -0.163322 2.01439 0
M  V30 2338 C 226.24 -1.45453 1.29879 0
M  V30 2339 O 225.51 -1.91225 0.4254 0
M  V30 2340 H 224.09 -0.0633447 0.744309 0
M  V30 2341 H 226.752 0.548161 1.87033 0
M  V30 2342 H 225.848 -0.357817 3.10042 0
M  V30 2343 N 226.149 -1.5696 0.141893 0
M  V30 2344 C 227.374 -2.00754 -0.520838 0
M  V30 2345 C 227.799 -1.0213 -1.57959 0
M  V30 2346 O 227.157 0.00371324 -1.813 0
M  V30 2347 C 227.205 -3.43318 -1.10294 0
M  V30 2348 O 226.309 -3.47679 -2.21795 0
M  V30 2349 H 225.65 -0.651564 -0.127908 0
M  V30 2350 H 228.18 -2.03221 0.23712 0
M  V30 2351 H 228.19 -3.82012 -1.43287 0
M  V30 2352 H 226.865 -4.14608 -0.327574 0
M  V30 2353 H 225.442 -3.20824 -1.9007 0
M  V30 2354 N 227.627 0.131896 -1.57047 0
M  V30 2355 C 228.852 0.860418 -1.8871 0
M  V30 2356 C 229.277 1.73251 -0.73251 0
M  V30 2357 O 228.635 1.785 0.317429 0
M  V30 2358 C 228.683 1.68047 -3.19049 0
M  V30 2359 O 227.787 2.7862 -3.04047 0
M  V30 2360 H 227.128 0.238743 -0.619595 0
M  V30 2361 H 229.658 0.118169 -2.04258 0
M  V30 2362 H 229.668 2.07238 -3.51449 0
M  V30 2363 H 228.343 1.04018 -4.02682 0
M  V30 2364 H 226.92 2.42726 -2.83088 0
M  V30 2365 N 229.106 1.52395 0.401703 0
M  V30 2366 C 230.346 1.68498 1.15705 0
M  V30 2367 C 230.71 0.409748 1.87577 0
M  V30 2368 O 231.911 0.446983 2.65058 0
M  V30 2369 C 230.182 2.87789 2.11924 0
M  V30 2370 S 231.741 3.24415 2.95466 0
M  V30 2371 H 228.559 0.593267 0.391862 0
M  V30 2372 H 231.161 1.90408 0.443282 0
M  V30 2373 H 229.865 3.7884 1.57824 0
M  V30 2374 H 229.396 2.68175 2.87829 0
M  V30 2375 H 231.411 2.73614 4.13944 0
M  V30 2376 N 230.584 -0.659388 1.43143 0
M  V30 2377 C 231.809 -1.45221 1.48073 0
M  V30 2378 C 232.234 -1.87845 0.097995 0
M  V30 2379 O 231.592 -1.56985 -0.90694 0
M  V30 2380 C 231.64 -2.66748 2.42647 0
M  V30 2381 O 230.744 -3.65583 1.90848 0
M  V30 2382 H 230.085 -0.435669 0.501088 0
M  V30 2383 H 232.615 -0.807432 1.87994 0
M  V30 2384 H 232.625 -3.14637 2.59745 0
M  V30 2385 H 231.3 -2.35067 3.43098 0
M  V30 2386 H 229.877 -3.24693 1.83381 0
M  V30 2387 N 232.062 -1.29571 -0.897171 0
M  V30 2388 C 233.287 -1.20705 -1.68656 0
M  V30 2389 C 233.712 0.228582 -1.86706 0
M  V30 2390 O 233.07 1.16494 -1.3892 0
M  V30 2391 C 233.118 -1.9282 -3.04717 0
M  V30 2392 O 232.222 -1.24697 -3.93096 0
M  V30 2393 H 231.563 -0.418126 -0.515816 0
M  V30 2394 H 234.093 -1.71183 -1.12061 0
M  V30 2395 H 234.103 -2.01372 -3.54843 0
M  V30 2396 H 232.778 -2.97239 -2.90899 0
M  V30 2397 H 231.355 -1.2442 -3.51531 0
M  V30 2398 N 233.54 1.10788 -1.12088 0
M  V30 2399 C 234.786 1.82942 -0.875226 0
M  V30 2400 C 235.119 1.84779 0.597538 0
M  V30 2401 O 234.394 1.30578 1.44152 0
M  V30 2402 C 234.677 3.29789 -1.44606 0
M  V30 2403 C 234.53 3.36307 -2.98693 0
M  V30 2404 C 235.849 4.26064 -1.10261 0
M  V30 2405 H 232.968 0.664195 -0.319397 0
M  V30 2406 H 235.61 1.29867 -1.38689 0
M  V30 2407 H 233.76 3.75118 -1.01089 0
M  V30 2408 H 235.432 2.99487 -3.50864 0
M  V30 2409 H 233.675 2.76318 -3.34411 0
M  V30 2410 H 234.346 4.39694 -3.33726 0
M  V30 2411 H 236.822 3.88951 -1.4784 0
M  V30 2412 H 235.698 5.27183 -1.52869 0
M  V30 2413 H 235.959 4.42098 -0.0142953 0
M  V30 2414 N 235.018 0.912232 1.28515 0
M  V30 2415 C 235.981 0.404223 2.25607 0
M  V30 2416 C 236.981 -0.468602 1.53821 0
M  V30 2417 O 238.171 -0.271873 1.72065 0
M  V30 2418 C 235.303 -0.420653 3.38295 0
M  V30 2419 H 236.496 1.26188 2.7206 0
M  V30 2420 H 234.049 0.691495 1.40171 0
M  V30 2421 H 234.784 -1.29777 2.97201 0
M  V30 2422 H 234.569 0.204935 3.91564 0
M  V30 2423 H 236.059 -0.766971 4.10496 0
M  V30 2424 O 236.535 -1.39418 0.815163 0
M  V30 2425 H 237.226 -1.89641 0.394473 0
M  V30 END ATOM
M  V30 BEGIN BOND
M  V30 END BOND
M  V30 END CTAB
M  END
$$$$
