drugbank_target|Q13630 GDP-L-fucose synthase (DB00157)
 OpenBabel12092119363D

  0  0  0     0  0            999 V3000
M  V30 BEGIN CTAB
M  V30 COUNTS 5000 5064 0 0 0
M  V30 BEGIN ATOM
M  V30 1 H -0.908 1.98254 -0.117106 0
M  V30 2 N 0 1.576 0 0
M  V30 3 C 0.933 2.03868 1.02534 0
M  V30 4 C 1.911 0.928543 1.3348 0
M  V30 5 O 3.095 1.19667 1.45644 0
M  V30 6 C 0.222 2.43627 2.35294 0
M  V30 7 C -0.732 3.65373 2.2001 0
M  V30 8 S 0.101 5.13292 1.52614 0
M  V30 9 C 1.257 5.56322 2.86805 0
M  V30 10 H 1.49 2.90518 0.631377 0
M  V30 11 H -0.977 1.52953 0.210867 0
M  V30 12 H 0.981 2.67203 3.11629 0
M  V30 13 H -0.358 1.57376 2.7183 0
M  V30 14 H -1.165 3.90944 3.18086 0
M  V30 15 H -1.563 3.418 1.51819 0
M  V30 16 H 0.729 5.58782 3.83104 0
M  V30 17 H 1.672 6.56266 2.65933 0
M  V30 18 H 2.08 4.83886 2.90714 0
M  V30 19 N 1.4781 -0.272755 1.55222 0
M  V30 20 C 2.7261 -1.00234 1.75492 0
M  V30 21 C 3.0471 -1.8681 0.5592 0
M  V30 22 O 2.3171 -1.91215 -0.425882 0
M  V30 23 H 0.8971 -0.373076 0.647166 0
M  V30 24 H 3.5591 -0.296926 1.92625 0
M  V30 25 H 2.6551 -1.63913 2.65592 0
M  V30 26 N 2.9562 -1.48159 -0.537278 0
M  V30 27 C 3.8662 -1.64807 -1.6696 0
M  V30 28 C 4.8822 -0.530651 -1.65711 0
M  V30 29 O 6.0582 -0.800784 -1.84796 0
M  V30 30 C 3.1232 -1.67708 -3.03438 0
M  V30 31 C 2.1842 -2.91025 -3.156 0
M  V30 32 C 1.4172 -2.93778 -4.45567 0
M  V30 33 O 1.6402 -2.05153 -5.3223 0
M  V30 34 O 0.5742 -3.85868 -4.61941 0
M  V30 35 H 4.4002 -2.6066 -1.55853 0
M  V30 36 H 1.9852 -1.31475 -0.709549 0
M  V30 37 H 3.8672 -1.7218 -3.84619 0
M  V30 38 H 2.5422 -0.750278 -3.14885 0
M  V30 39 H 1.4492 -2.92089 -2.33741 0
M  V30 40 H 2.7822 -3.83065 -3.09066 0
M  V30 41 N 4.4343 0.785586 -1.36625 0
M  V30 42 C 5.8453 1.36101 -1.27803 0
M  V30 43 C 6.1963 1.96035 0.0804875 0
M  V30 44 O 5.3213 1.92834 0.982042 0
M  V30 45 C 5.9163 2.47442 -2.31426 0
M  V30 46 C 4.4753 3.00789 -2.26281 0
M  V30 47 C 3.6223 1.73896 -2.15999 0
M  V30 48 H 6.5733 0.586928 -1.47448 0
M  V30 49 H 6.5943 3.2656 -1.95291 0
M  V30 50 H 6.1063 2.03791 -3.30289 0
M  V30 51 H 4.2073 3.48851 -1.30896 0
M  V30 52 H 4.3203 3.57343 -3.19128 0
M  V30 53 H 2.6843 1.9628 -1.62316 0
M  V30 54 H 3.4673 1.32368 -3.16755 0
M  V30 55 N 5.9124 1.20967 1.01018 0
M  V30 56 C 6.8444 0.922059 2.09835 0
M  V30 57 C 7.8574 -0.0927106 1.62536 0
M  V30 58 O 9.0464 0.139127 1.77957 0
M  V30 59 C 6.1464 0.362004 3.36961 0
M  V30 60 C 5.3194 1.42986 4.13369 0
M  V30 61 C 4.3784 0.879976 5.1879 0
M  V30 62 O 3.4044 1.56219 5.47343 0
M  V30 63 N 4.6064 -0.307396 5.79686 0
M  V30 64 H 7.3714 1.8588 2.35093 0
M  V30 65 H 4.9324 1.11422 1.1746 0
M  V30 66 H 6.9244 -0.0201474 4.04695 0
M  V30 67 H 5.4944 -0.479437 3.08902 0
M  V30 68 H 4.7144 1.98608 3.40512 0
M  V30 69 H 6.0024 2.14885 4.61196 0
M  V30 70 H 5.4004 -0.878796 5.58832 0
M  V30 71 H 3.9574 -0.631115 6.48737 0
M  V30 72 N 7.3905 -1.2043 1.01659 0
M  V30 73 C 8.6385 -1.89423 0.704522 0
M  V30 74 C 8.9595 -1.79231 -0.768197 0
M  V30 75 O 8.2295 -1.1947 -1.55254 0
M  V30 76 H 6.8095 -0.701178 0.257602 0
M  V30 77 H 9.4715 -1.4626 1.28818 0
M  V30 78 H 8.5675 -2.96052 0.987916 0
M  V30 79 N 8.8686 -0.792821 -1.36206 0
M  V30 80 C 10.0936 -0.377701 -2.03932 0
M  V30 81 C 10.5186 0.998947 -1.59382 0
M  V30 82 O 9.8766 1.64421 -0.763903 0
M  V30 83 C 9.9246 -0.453635 -3.57735 0
M  V30 84 O 9.0286 0.538151 -4.08874 0
M  V30 85 H 8.3696 -0.159855 -0.644471 0
M  V30 86 H 10.8996 -1.07488 -1.7409 0
M  V30 87 H 10.9096 -0.318464 -4.06755 0
M  V30 88 H 9.5846 -1.45784 -3.89512 0
M  V30 89 H 8.1616 0.364359 -3.71116 0
M  V30 90 N 10.3467 1.47872 -0.545128 0
M  V30 91 C 11.2797 2.2675 0.256885 0
M  V30 92 C 12.2577 1.33293 0.931228 0
M  V30 93 O 13.4417 1.62657 0.95262 0
M  V30 94 C 10.5687 3.09976 1.36501 0
M  V30 95 C 9.6147 4.1892 0.800496 0
M  V30 96 S 10.4477 5.34397 -0.343505 0
M  V30 97 C 11.6037 6.21186 0.766733 0
M  V30 98 H 11.8367 2.94425 -0.412479 0
M  V30 99 H 9.3697 1.50806 -0.331204 0
M  V30 100 H 11.3277 3.585 1.9997 0
M  V30 101 H 9.9887 2.41686 2.00616 0
M  V30 102 H 9.1817 4.76836 1.63227 0
M  V30 103 H 8.7837 3.73215 0.242217 0
M  V30 104 H 11.0757 6.56804 1.66178 0
M  V30 105 H 12.0187 7.07742 0.225204 0
M  V30 106 H 12.4267 5.54574 1.05396 0
M  V30 107 N 11.8248 0.280983 1.55075 0
M  V30 108 C 13.2408 -0.0729964 1.59433 0
M  V30 109 C 13.4408 -1.5411 1.29817 0
M  V30 110 O 12.4968 -2.29086 1.06187 0
M  V30 111 C 13.8098 0.306921 2.9913 0
M  V30 112 C 15.3578 0.254023 3.11968 0
M  V30 113 C 15.8328 0.608467 4.5394 0
M  V30 114 N 17.3238 0.560241 4.59799 0
M  V30 115 C 18.0588 0.80722 5.6769 0
M  V30 116 N 17.5548 1.11912 6.83701 0
M  V30 117 N 19.3478 0.735623 5.57266 0
M  V30 118 H 11.4988 1.238 1.7259 0
M  V30 119 H 13.7618 0.500547 0.805082 0
M  V30 120 H 13.4678 1.32816 3.25657 0
M  V30 121 H 13.3418 -0.349363 3.75579 0
M  V30 122 H 15.7288 -0.75794 2.852 0
M  V30 123 H 15.8098 0.944649 2.37718 0
M  V30 124 H 15.4538 1.61814 4.81434 0
M  V30 125 H 15.3838 -0.104013 5.26497 0
M  V30 126 H 17.8748 0.329288 3.76463 0
M  V30 127 H 18.1878 1.29409 7.61888 0
M  V30 128 H 16.5328 1.15695 6.85303 0
M  V30 129 H 19.7238 0.491752 4.6551 0
M  V30 130 H 19.8968 0.931482 6.4127 0
M  V30 131 N 13.3029 -1.57598 0.00835791 0
M  V30 132 C 14.5519 -1.90107 -0.673968 0
M  V30 133 C 14.8649 -0.884275 -1.7447 0
M  V30 134 O 16.0709 -1.09987 -2.48224 0
M  V30 135 C 14.5269 -3.37497 -1.24995 0
M  V30 136 C 14.1349 -4.47491 -0.2136 0
M  V30 137 C 15.8789 -3.79104 -1.90999 0
M  V30 138 C 13.7859 -5.85963 -0.80005 0
M  V30 139 H 12.7159 -0.709393 -0.255495 0
M  V30 140 H 15.3669 -1.83365 0.0702693 0
M  V30 141 H 13.7489 -3.39102 -2.04513 0
M  V30 142 H 14.9229 -4.57414 0.557596 0
M  V30 143 H 13.2379 -4.14956 0.346474 0
M  V30 144 H 15.8349 -4.79901 -2.35795 0
M  V30 145 H 16.1779 -3.1306 -2.74407 0
M  V30 146 H 16.7109 -3.79833 -1.18203 0
M  V30 147 H 13.4499 -6.555 -0.00456708 0
M  V30 148 H 12.9699 -5.79687 -1.54021 0
M  V30 149 H 14.6489 -6.33884 -1.29615 0
M  V30 150 N 14.781 0.264519 -1.55364 0
M  V30 151 C 15.711 1.33121 -1.91836 0
M  V30 152 C 16.692 1.51101 -0.781192 0
M  V30 153 O 17.877 1.64003 -1.04003 0
M  V30 154 C 15.007 2.68921 -2.19769 0
M  V30 155 C 13.961 2.65661 -3.35571 0
M  V30 156 C 13.287 4.05093 -3.49004 0
M  V30 157 C 14.587 2.24187 -4.71739 0
M  V30 158 H 16.281 1.02844 -2.81182 0
M  V30 159 H 13.827 0.493286 -1.35287 0
M  V30 160 H 15.78 3.43663 -2.43872 0
M  V30 161 H 14.504 3.00799 -1.27231 0
M  V30 162 H 13.163 1.93377 -3.1145 0
M  V30 163 H 12.811 4.34206 -2.53917 0
M  V30 164 H 12.511 4.03804 -4.26868 0
M  V30 165 H 14.035 4.81561 -3.75408 0
M  V30 166 H 15.449 2.88654 -4.9533 0
M  V30 167 H 13.846 2.34044 -5.52579 0
M  V30 168 H 14.916 1.19327 -4.69988 0
M  V30 169 N 16.2591 1.48442 0.529413 0
M  V30 170 C 17.5051 1.5672 1.28711 0
M  V30 171 C 17.8381 0.2406 1.92704 0
M  V30 172 O 17.1131 -0.753454 1.79313 0
M  V30 173 C 17.3961 2.70587 2.37603 0
M  V30 174 C 17.2491 4.12953 1.78297 0
M  V30 175 C 18.5681 2.80212 3.39366 0
M  V30 176 H 15.6871 0.570474 0.466613 0
M  V30 177 H 18.3291 1.80617 0.589706 0
M  V30 178 H 16.4791 2.50342 2.97088 0
M  V30 179 H 18.1511 4.44639 1.22858 0
M  V30 180 H 16.3941 4.19927 1.0883 0
M  V30 181 H 17.0651 4.88448 2.57144 0
M  V30 182 H 19.5411 2.98553 2.89836 0
M  V30 183 H 18.4171 3.61611 4.12951 0
M  V30 184 H 18.6781 1.88393 3.99951 0
M  V30 185 N 17.7372 -0.778329 1.37039 0
M  V30 186 C 18.9652 -1.56734 1.35063 0
M  V30 187 C 19.3802 -1.88686 -0.0655597 0
M  V30 188 O 18.7372 -1.5096 -1.02554 0
M  V30 189 C 18.7882 -2.88163 2.18276 0
M  V30 190 O 18.5092 -2.57583 3.54376 0
M  V30 191 C 20.0102 -3.82422 2.24206 0
M  V30 192 H 17.2302 -0.485778 0.462883 0
M  V30 193 H 19.7742 -0.965185 1.8029 0
M  V30 194 H 17.9292 -3.44818 1.76576 0
M  V30 195 H 18.3432 -3.41699 3.97922 0
M  V30 196 H 19.8172 -4.71667 2.86765 0
M  V30 197 H 20.2942 -4.21078 1.24861 0
M  V30 198 H 20.9002 -3.31697 2.6619 0
M  V30 199 N 19.2153 -1.21501 -1.00376 0
M  V30 200 C 20.4633 -1.03095 -1.73827 0
M  V30 201 C 20.7843 0.436341 -1.90055 0
M  V30 202 O 20.0543 1.31466 -1.45236 0
M  V30 203 H 18.6343 -0.378487 -0.644016 0
M  V30 204 H 21.2963 -1.52831 -1.20949 0
M  V30 205 H 20.3923 -1.49991 -2.73695 0
M  V30 206 N 20.6934 1.19889 -1.02296 0
M  V30 207 C 21.9414 1.89046 -0.714558 0
M  V30 208 C 22.2624 1.79636 0.758681 0
M  V30 209 O 21.5324 1.20292 1.54618 0
M  V30 210 H 20.1124 0.699802 -0.261317 0
M  V30 211 H 22.7744 1.45574 -1.29592 0
M  V30 212 H 21.8704 2.95524 -1.0036 0
M  V30 213 N 22.1715 0.800033 1.35784 0
M  V30 214 C 23.3965 0.388511 2.03729 0
M  V30 215 C 23.8215 -0.990481 1.5991 0
M  V30 216 O 23.1795 -1.64013 0.772612 0
M  V30 217 C 23.2275 0.4726 3.5749 0
M  V30 218 O 22.3315 -0.51646 4.09153 0
M  V30 219 H 21.6725 0.163271 0.643614 0
M  V30 220 H 24.2025 1.0841 1.73518 0
M  V30 221 H 24.2125 0.34003 4.06581 0
M  V30 222 H 22.8875 1.47848 3.88734 0
M  V30 223 H 21.4645 -0.344673 3.71304 0
M  V30 224 N 23.6496 -1.47581 0.552962 0
M  V30 225 C 24.8976 -2.02082 0.0272703 0
M  V30 226 C 25.2186 -1.4301 -1.32563 0
M  V30 227 O 24.4886 -0.603745 -1.86365 0
M  V30 228 H 23.0686 -0.746966 0.00709182 0
M  V30 229 H 25.7306 -1.81033 0.722008 0
M  V30 230 H 24.8266 -3.12034 -0.0639951 0
M  V30 231 N 25.1277 -0.289203 -1.54924 0
M  V30 232 C 26.0577 0.58549 -2.2604 0
M  V30 233 C 27.0387 1.14753 -1.25562 0
M  V30 234 O 28.2237 1.17906 -1.54311 0
M  V30 235 C 25.3537 1.76305 -2.99222 0
M  V30 236 C 24.3077 1.33191 -4.06748 0
M  V30 237 C 23.6337 2.5937 -4.6758 0
M  V30 238 C 24.9337 0.471775 -5.20165 0
M  V30 239 H 26.6277 -0.00763532 -2.99399 0
M  V30 240 H 24.1737 -0.00511229 -1.43999 0
M  V30 241 H 26.1267 2.38097 -3.47689 0
M  V30 242 H 24.8507 2.38223 -2.23422 0
M  V30 243 H 23.5097 0.737121 -3.59113 0
M  V30 244 H 23.1577 3.19576 -3.88433 0
M  V30 245 H 22.8577 2.31228 -5.40192 0
M  V30 246 H 24.3817 3.21985 -5.18804 0
M  V30 247 H 25.7957 0.995056 -5.64599 0
M  V30 248 H 24.1927 0.284639 -5.99425 0
M  V30 249 H 25.2627 -0.506041 -4.82252 0
M  V30 250 N 26.6058 1.57591 -0.0167156 0
M  V30 251 C 27.8518 1.91567 0.665582 0
M  V30 252 C 28.1848 0.892298 1.72487 0
M  V30 253 O 27.4598 -0.0867127 1.94307 0
M  V30 254 C 27.7428 3.36069 1.29342 0
M  V30 255 C 27.5958 4.49135 0.244541 0
M  V30 256 C 28.9148 3.803 2.21495 0
M  V30 257 H 26.0338 0.69666 0.240488 0
M  V30 258 H 28.6758 1.89866 -0.0714356 0
M  V30 259 H 26.8258 3.3765 1.92158 0
M  V30 260 H 28.4978 4.59689 -0.385228 0
M  V30 261 H 26.7408 4.3165 -0.431379 0
M  V30 262 H 27.4118 5.47242 0.723207 0
M  V30 263 H 29.8878 3.80377 1.68678 0
M  V30 264 H 28.7638 4.82127 2.62382 0
M  V30 265 H 29.0248 3.15104 3.101 0
M  V30 266 N 28.0839 -0.256276 1.55502 0
M  V30 267 C 29.3319 -0.983672 1.76545 0
M  V30 268 C 29.6529 -1.86206 0.578982 0
M  V30 269 O 28.9229 -1.91656 -0.405577 0
M  V30 270 H 27.5029 -0.366191 0.651086 0
M  V30 271 H 30.1649 -0.276479 1.92929 0
M  V30 272 H 29.2609 -1.61087 2.67315 0
M  V30 273 N 29.562 -1.4872 -0.521534 0
M  V30 274 C 30.509 -1.63871 -1.62527 0
M  V30 275 C 31.479 -0.480559 -1.58996 0
M  V30 276 O 32.664 -0.705085 -1.77294 0
M  V30 277 C 29.804 -1.69227 -3.00759 0
M  V30 278 C 28.917 -2.96207 -3.14461 0
M  V30 279 C 28.052 -2.92671 -4.43303 0
M  V30 280 C 27.091 -4.14318 -4.50563 0
M  V30 281 N 26.228 -4.0881 -5.70805 0
M  V30 282 H 31.068 -2.58123 -1.48918 0
M  V30 283 H 28.605 -1.28 -0.724878 0
M  V30 284 H 30.563 -1.70314 -3.80853 0
M  V30 285 H 29.193 -0.784586 -3.1312 0
M  V30 286 H 28.245 -3.04826 -2.27564 0
M  V30 287 H 29.557 -3.86192 -3.15686 0
M  V30 288 H 28.711 -2.92206 -5.31696 0
M  V30 289 H 27.45 -2.00429 -4.44612 0
M  V30 290 H 26.455 -4.15049 -3.60575 0
M  V30 291 H 27.68 -5.07729 -4.50986 0
M  V30 292 H 25.626 -3.19394 -5.72995 0
M  V30 293 H 25.543 -4.92509 -5.7356 0
M  V30 294 H 26.811 -4.12418 -6.61462 0
M  V30 295 N 31.0401 0.771051 -1.3745 0
M  V30 296 C 32.0031 1.86598 -1.33093 0
M  V30 297 C 33.0031 1.59076 -0.234845 0
M  V30 298 O 34.1931 1.67145 -0.490732 0
M  V30 299 C 31.3251 3.23747 -1.06773 0
M  V30 300 H 32.5181 1.91873 -2.30488 0
M  V30 301 H 30.0711 0.970876 -1.2249 0
M  V30 302 H 30.8061 3.24148 -0.099129 0
M  V30 303 H 30.5911 3.45115 -1.86112 0
M  V30 304 H 32.0811 4.03824 -1.06377 0
M  V30 305 N 32.5182 1.22032 0.997298 0
M  V30 306 C 33.7672 1.03637 1.73038 0
M  V30 307 C 34.0802 -0.429475 1.90827 0
M  V30 308 O 35.2862 -0.732995 2.61418 0
M  V30 309 C 33.7422 1.80582 3.11317 0
M  V30 310 C 33.3502 3.31387 3.01474 0
M  V30 311 C 35.0942 1.70621 3.88701 0
M  V30 312 C 33.0012 4.00791 4.3488 0
M  V30 313 H 31.9312 0.384179 0.648785 0
M  V30 314 H 34.5822 1.4584 1.11368 0
M  V30 315 H 32.9642 1.31175 3.73643 0
M  V30 316 H 34.1382 3.88155 2.4834 0
M  V30 317 H 32.4532 3.41976 2.37575 0
M  V30 318 H 35.0502 2.19799 4.87434 0
M  V30 319 H 35.3932 0.665823 4.10941 0
M  V30 320 H 35.9262 2.17547 3.33044 0
M  V30 321 H 32.6652 5.05064 4.1784 0
M  V30 322 H 32.1852 3.48811 4.87945 0
M  V30 323 H 33.8642 4.06139 5.03647 0
M  V30 324 N 33.9963 -1.19345 1.0293 0
M  V30 325 C 34.9283 -2.22036 0.56857 0
M  V30 326 C 35.9413 -1.58865 -0.355779 0
M  V30 327 O 37.1303 -1.77851 -0.152103 0
M  V30 328 C 34.2303 -3.38363 -0.190752 0
M  V30 329 C 33.4033 -4.31118 0.738643 0
M  V30 330 C 32.4623 -5.26194 0.0246497 0
M  V30 331 O 31.4883 -5.65461 0.651354 0
M  V30 332 N 32.6903 -5.66971 -1.24594 0
M  V30 333 H 35.4553 -2.6219 1.45177 0
M  V30 334 H 33.0163 -1.34015 0.908381 0
M  V30 335 H 35.0083 -3.98981 -0.677961 0
M  V30 336 H 33.5783 -2.96994 -0.975366 0
M  V30 337 H 32.7983 -3.68276 1.40593 0
M  V30 338 H 34.0863 -4.90001 1.37029 0
M  V30 339 H 33.4843 -5.37104 -1.77583 0
M  V30 340 H 32.0413 -6.2984 -1.67764 0
M  V30 341 N 35.4744 -0.807222 -1.35358 0
M  V30 342 C 36.4214 -0.216037 -2.29787 0
M  V30 343 C 37.3914 0.650278 -1.52842 0
M  V30 344 O 38.5764 0.595227 -1.81278 0
M  V30 345 C 35.7164 0.628893 -3.39321 0
M  V30 346 C 34.8294 -0.257927 -4.31229 0
M  V30 347 C 33.9644 0.595069 -5.27856 0
M  V30 348 C 33.0034 -0.292111 -6.11403 0
M  V30 349 N 32.1404 0.520895 -7.00165 0
M  V30 350 H 36.9804 -1.02671 -2.79755 0
M  V30 351 H 34.5174 -0.517839 -1.37684 0
M  V30 352 H 36.4754 1.13393 -4.01494 0
M  V30 353 H 35.1054 1.40482 -2.90628 0
M  V30 354 H 34.1574 -0.881076 -3.70056 0
M  V30 355 H 35.4694 -0.940759 -4.89848 0
M  V30 356 H 34.6234 1.16522 -5.95405 0
M  V30 357 H 33.3624 1.31146 -4.69736 0
M  V30 358 H 32.3674 -0.874525 -5.428 0
M  V30 359 H 33.5924 -1.00638 -6.71602 0
M  V30 360 H 31.5384 1.22125 -6.44532 0
M  V30 361 H 31.4554 -0.103877 -7.55929 0
M  V30 362 H 32.7234 1.0743 -7.72062 0
M  V30 363 N 36.9525 1.47285 -0.560781 0
M  V30 364 C 38.1985 2.02764 -0.0381184 0
M  V30 365 C 38.5315 1.43384 1.30976 0
M  V30 366 O 37.8065 0.590733 1.85312 0
M  V30 367 C 38.0895 3.60064 0.0511427 0
M  V30 368 C 37.9425 4.2987 -1.32408 0
M  V30 369 C 39.2615 4.33439 0.762795 0
M  V30 370 H 36.3805 0.736841 -0.0153264 0
M  V30 371 H 39.0225 1.75675 -0.723759 0
M  V30 372 H 37.1725 3.83274 0.635065 0
M  V30 373 H 38.8445 4.17989 -1.95148 0
M  V30 374 H 37.0875 3.90085 -1.8978 0
M  V30 375 H 37.7585 5.38478 -1.21431 0
M  V30 376 H 40.2345 4.15243 0.266965 0
M  V30 377 H 39.1105 5.43124 0.794221 0
M  V30 378 H 39.3715 4.02915 1.81966 0
M  V30 379 N 38.4306 0.297415 1.54768 0
M  V30 380 C 39.6766 -0.313376 2.00364 0
M  V30 381 C 40.0096 -1.53815 1.18553 0
M  V30 382 O 39.2846 -1.92739 0.261103 0
M  V30 383 C 39.5676 -0.673525 3.53745 0
M  V30 384 C 39.4206 0.560133 4.46299 0
M  V30 385 C 40.7396 -1.50143 4.13697 0
M  V30 386 H 37.8586 -0.112428 0.728374 0
M  V30 387 H 40.5006 0.4088 1.8555 0
M  V30 388 H 38.6506 -1.28881 3.665 0
M  V30 389 H 40.3226 1.19863 4.45455 0
M  V30 390 H 38.5656 1.19405 4.17043 0
M  V30 391 H 39.2366 0.26405 5.51368 0
M  V30 392 H 41.7126 -0.981588 4.04356 0
M  V30 393 H 40.5886 -1.72221 5.21182 0
M  V30 394 H 40.8496 -2.48952 3.65343 0
M  V30 395 N 39.9087 -1.5758 0.0250728 0
M  V30 396 C 40.8717 -2.08896 -0.943139 0
M  V30 397 C 41.8717 -1.00321 -1.25668 0
M  V30 398 O 43.0617 -1.26495 -1.19769 0
M  V30 399 C 40.1937 -2.55143 -2.26086 0
M  V30 400 H 41.3867 -2.95723 -0.498775 0
M  V30 401 H 38.9397 -1.54703 -0.222888 0
M  V30 402 H 39.6747 -1.71633 -2.75159 0
M  V30 403 H 39.4597 -3.34461 -2.04641 0
M  V30 404 H 40.9497 -2.95083 -2.95492 0
M  V30 405 N 41.3868 0.248026 -1.55636 0
M  V30 406 C 42.6638 0.998988 -1.68165 0
M  V30 407 C 43.0438 2.03409 -0.564621 0
M  V30 408 O 42.3918 2.24378 0.432076 0
M  V30 409 C 42.6018 1.63334 -3.0842 0
M  V30 410 C 43.9498 2.13562 -3.66983 0
M  V30 411 O 44.9738 1.73277 -3.11213 0
M  V30 412 O 43.8328 2.87526 -4.64749 0
M  V30 413 H 40.9268 0.464933 -0.683935 0
M  V30 414 H 43.4728 0.241902 -1.67967 0
M  V30 415 H 42.2448 0.884583 -3.8117 0
M  V30 416 H 41.8678 2.45666 -3.12624 0
M  V30 417 N 42.8649 1.48995 0.513639 0
M  V30 418 C 44.1129 1.57531 1.26604 0
M  V30 419 C 44.4339 0.258236 1.93283 0
M  V30 420 O 43.7039 -0.721502 1.8213 0
M  V30 421 H 42.2839 0.580387 0.470276 0
M  V30 422 H 44.9459 1.85552 0.596373 0
M  V30 423 H 44.0419 2.36486 2.03669 0
M  V30 424 N 44.343 -0.763751 1.37857 0
M  V30 425 C 45.306 -1.85889 1.34081 0
M  V30 426 C 46.306 -1.58949 0.243277 0
M  V30 427 O 47.496 -1.66882 0.499589 0
M  V30 428 C 44.628 -3.23176 1.08489 0
M  V30 429 H 45.821 -1.90648 2.31502 0
M  V30 430 H 43.374 -0.964367 1.23003 0
M  V30 431 H 44.109 -3.24091 0.116318 0
M  V30 432 H 43.894 -3.44124 1.8794 0
M  V30 433 H 45.384 -4.03254 1.08517 0
M  V30 434 N 45.8211 -1.22559 -0.990812 0
M  V30 435 C 47.0691 -1.04933 -1.72724 0
M  V30 436 C 47.3901 0.416158 -1.90508 0
M  V30 437 O 46.6601 1.29918 -1.46622 0
M  V30 438 H 45.2401 -0.385296 -0.639965 0
M  V30 439 H 47.9021 -1.54105 -1.19322 0
M  V30 440 H 46.9981 -1.52886 -2.72089 0
M  V30 441 N 47.2992 1.18797 -1.03562 0
M  V30 442 C 48.2292 2.24472 -0.643019 0
M  V30 443 C 49.2102 1.66433 0.351283 0
M  V30 444 O 50.3952 1.92803 0.232505 0
M  V30 445 C 47.5252 3.473 4.24935e-05 0
M  V30 446 C 46.4792 4.18055 -0.917257 0
M  V30 447 C 45.8052 5.34519 -0.138941 0
M  V30 448 C 47.1052 4.72109 -2.23407 0
M  V30 449 H 48.7992 2.57566 -1.52643 0
M  V30 450 H 46.3452 1.23806 -0.735394 0
M  V30 451 H 48.2982 4.20426 0.286383 0
M  V30 452 H 47.0222 3.13424 0.918299 0
M  V30 453 H 45.6812 3.46821 -1.1879 0
M  V30 454 H 45.3292 4.96891 0.781562 0
M  V30 455 H 45.0292 5.82794 -0.750005 0
M  V30 456 H 46.5532 6.10438 0.1405 0
M  V30 457 H 47.9672 5.36955 -2.00879 0
M  V30 458 H 46.3642 5.30897 -2.79765 0
M  V30 459 H 47.4342 3.89807 -2.88407 0
M  V30 460 N 48.7773 0.814389 1.34928 0
M  V30 461 C 50.1883 0.458364 1.80986 0
M  V30 462 C 50.5393 -1.02042 1.67577 0
M  V30 463 O 49.6643 -1.79352 1.21086 0
M  V30 464 C 50.2593 0.825212 3.28597 0
M  V30 465 C 48.8183 0.521677 3.72767 0
M  V30 466 C 47.9653 1.04668 2.56788 0
M  V30 467 H 50.9163 1.00533 1.22795 0
M  V30 468 H 50.9373 0.12571 3.80292 0
M  V30 469 H 50.4493 1.90154 3.38324 0
M  V30 470 H 48.5503 -0.545589 3.68584 0
M  V30 471 H 48.6633 1.05977 4.67232 0
M  V30 472 H 47.0273 0.468622 2.50352 0
M  V30 473 H 47.8103 2.12927 2.6929 0
M  V30 474 N 50.2554 -1.46986 0.568584 0
M  V30 475 C 51.5034 -2.02041 0.0487022 0
M  V30 476 C 51.8244 -1.44408 -1.31039 0
M  V30 477 O 51.0944 -0.623477 -1.85714 0
M  V30 478 H 49.6744 -0.746849 0.015014 0
M  V30 479 H 52.3364 -1.80257 0.741168 0
M  V30 480 H 51.4324 -3.12085 -0.0308961 0
M  V30 481 N 51.7335 -0.305618 -1.54608 0
M  V30 482 C 52.6435 0.57778 -2.27374 0
M  V30 483 C 53.6595 1.14451 -1.31061 0
M  V30 484 O 54.8355 1.16831 -1.6405 0
M  V30 485 C 51.9005 1.73123 -3.00382 0
M  V30 486 C 50.9615 1.19812 -4.12242 0
M  V30 487 C 50.1945 2.2966 -4.81759 0
M  V30 488 O 50.4175 3.49651 -4.50666 0
M  V30 489 O 49.3515 1.96091 -5.69062 0
M  V30 490 H 53.1775 -0.012624 -3.03697 0
M  V30 491 H 50.7625 -0.0719184 -1.49227 0
M  V30 492 H 52.6445 2.40315 -3.4616 0
M  V30 493 H 51.3195 2.30815 -2.26949 0
M  V30 494 H 50.2265 0.491798 -3.70853 0
M  V30 495 H 51.5595 0.666566 -4.87666 0
M  V30 496 N 53.2116 1.57565 -0.0334293 0
M  V30 497 C 54.4886 1.83282 0.683163 0
M  V30 498 C 54.8686 0.91823 1.90084 0
M  V30 499 O 54.2166 -0.025113 2.28486 0
M  V30 500 C 54.4266 3.32599 1.0573 0
M  V30 501 C 55.7746 3.99179 1.44711 0
M  V30 502 O 56.7986 3.3712 1.15015 0
M  V30 503 O 55.6576 5.08565 2.0006 0
M  V30 504 H 52.7516 0.755869 0.335546 0
M  V30 505 H 55.2976 1.69589 -0.0614402 0
M  V30 506 H 54.0696 3.90834 0.190828 0
M  V30 507 H 53.6926 3.51415 1.85993 0
M  V30 508 N 54.6897 -0.239769 1.55765 0
M  V30 509 C 55.9357 -0.963942 1.79108 0
M  V30 510 C 56.2907 -1.82689 0.60352 0
M  V30 511 O 55.5837 -1.87313 -0.403033 0
M  V30 512 C 55.7777 -1.852 3.05672 0
M  V30 513 C 55.6067 -1.07651 4.36625 0
M  V30 514 C 54.3767 -0.778738 4.99263 0
M  V30 515 C 56.5747 -0.45062 5.12322 0
M  V30 516 N 54.5567 0.0200708 6.13897 0
M  V30 517 C 55.9277 0.212429 6.19636 0
M  V30 518 C 57.9827 -0.361806 4.96584 0
M  V30 519 C 56.6857 0.955772 7.12922 0
M  V30 520 C 58.7117 0.368023 5.90254 0
M  V30 521 C 58.0737 1.01968 6.96981 0
M  V30 522 H 54.1727 -0.333601 0.707272 0
M  V30 523 H 56.7567 -0.236425 1.93259 0
M  V30 524 H 54.9277 -2.55149 2.92837 0
M  V30 525 H 56.6597 -2.51228 3.1728 0
M  V30 526 H 53.4147 -1.09229 4.60832 0
M  V30 527 H 53.8387 0.407777 6.75771 0
M  V30 528 H 58.4807 -0.851286 4.14141 0
M  V30 529 H 56.1987 1.45683 7.9486 0
M  V30 530 H 59.7847 0.437504 5.80153 0
M  V30 531 H 58.6647 1.5754 7.68213 0
M  V30 532 N 56.1678 -1.49265 -0.50573 0
M  V30 533 C 57.4138 -1.58748 -1.26202 0
M  V30 534 C 57.7468 -0.271227 -1.92297 0
M  V30 535 O 57.0218 0.724831 -1.80489 0
M  V30 536 C 57.3048 -2.74332 -2.33268 0
M  V30 537 C 57.1578 -4.15737 -1.71705 0
M  V30 538 C 58.4768 -2.85576 -3.34865 0
M  V30 539 H 55.5958 -0.577826 -0.457478 0
M  V30 540 H 58.2378 -1.81532 -0.560897 0
M  V30 541 H 56.3878 -2.55036 -2.93068 0
M  V30 542 H 58.0598 -4.46537 -1.15769 0
M  V30 543 H 56.3028 -4.21605 -1.02135 0
M  V30 544 H 56.9738 -4.92477 -2.49341 0
M  V30 545 H 59.4498 -3.03127 -2.8505 0
M  V30 546 H 58.3258 -3.68135 -4.07146 0
M  V30 547 H 58.5868 -1.94732 -3.96903 0
M  V30 548 N 57.6459 0.756429 -1.3826 0
M  V30 549 C 58.8929 1.51547 -1.34312 0
M  V30 550 C 59.2209 1.94382 0.0677144 0
M  V30 551 O 58.4759 1.65514 1.04421 0
M  V30 552 C 58.7749 2.78313 -2.24224 0
M  V30 553 C 58.4409 2.54455 -3.72241 0
M  V30 554 C 57.1029 2.47657 -4.12576 0
M  V30 555 C 59.4549 2.3354 -4.65949 0
M  V30 556 C 56.7829 2.17956 -5.44713 0
M  V30 557 C 59.1349 2.05359 -5.9834 0
M  V30 558 C 57.7989 1.97016 -6.37762 0
M  V30 559 H 57.0689 0.55455 -0.491482 0
M  V30 560 H 59.7159 0.870039 -1.70595 0
M  V30 561 H 58.0209 3.47492 -1.80987 0
M  V30 562 H 59.7179 3.36259 -2.18474 0
M  V30 563 H 56.3079 2.60616 -3.40261 0
M  V30 564 H 60.4919 2.37772 -4.35635 0
M  V30 565 H 55.7479 2.10003 -5.74203 0
M  V30 566 H 59.9219 1.88179 -6.70494 0
M  V30 567 H 57.5489 1.73766 -7.40074 0
M  V30 568 N 59.124 1.23083 0.984299 0
M  V30 569 C 60.37 1.06214 1.72761 0
M  V30 570 C 60.703 -0.400584 1.90024 0
M  V30 571 O 59.978 -1.29672 1.44967 0
M  V30 572 C 60.261 1.78375 3.12817 0
M  V30 573 C 60.114 3.32296 3.03149 0
M  V30 574 C 61.433 1.54309 4.12161 0
M  V30 575 H 58.552 0.387251 0.627061 0
M  V30 576 H 61.194 1.51536 1.14616 0
M  V30 577 H 59.344 1.39848 3.62457 0
M  V30 578 H 61.016 3.8032 2.61064 0
M  V30 579 H 59.259 3.6153 2.39747 0
M  V30 580 H 59.93 3.77972 4.02295 0
M  V30 581 H 62.406 1.87791 3.71314 0
M  V30 582 H 61.282 2.07281 5.08258 0
M  V30 583 H 61.543 0.477572 4.39513 0
M  V30 584 N 60.6021 -1.18246 1.0419 0
M  V30 585 C 61.8271 -1.92736 0.765996 0
M  V30 586 C 62.2521 -1.75728 -0.67091 0
M  V30 587 O 61.6101 -1.06825 -1.46486 0
M  V30 588 C 61.6581 -3.42148 1.13875 0
M  V30 589 O 60.7621 -4.11548 0.264954 0
M  V30 590 H 60.1031 -0.601238 0.281797 0
M  V30 591 H 62.6331 -1.49942 1.39207 0
M  V30 592 H 62.6431 -3.92858 1.1012 0
M  V30 593 H 61.3181 -3.53848 2.18551 0
M  V30 594 H 59.8951 -3.71137 0.362226 0
M  V30 595 N 62.0802 -0.821533 -1.34494 0
M  V30 596 C 63.3052 -0.420873 -2.03085 0
M  V30 597 C 63.7302 0.964915 -1.61465 0
M  V30 598 O 63.0882 1.62763 -0.798607 0
M  V30 599 C 63.1362 -0.529414 -3.56693 0
M  V30 600 O 62.2402 0.451302 -4.09923 0
M  V30 601 H 61.5812 -0.173489 -0.640935 0
M  V30 602 H 64.1112 -1.11157 -1.71771 0
M  V30 603 H 64.1212 -0.404671 -4.05988 0
M  V30 604 H 62.7962 -1.54014 -3.86332 0
M  V30 605 H 61.3732 0.285558 -3.71805 0
M  V30 606 N 63.5583 1.46682 -0.576371 0
M  V30 607 C 64.5053 2.30241 0.160499 0
M  V30 608 C 65.4753 1.40233 0.890162 0
M  V30 609 O 66.6603 1.69186 0.882084 0
M  V30 610 C 63.8003 3.24578 1.1723 0
M  V30 611 C 62.9133 4.29684 0.446736 0
M  V30 612 C 62.0483 5.11154 1.44551 0
M  V30 613 C 61.0873 6.08015 0.70599 0
M  V30 614 N 60.2243 6.82376 1.65251 0
M  V30 615 H 65.0643 2.92727 -0.558127 0
M  V30 616 H 62.6013 1.44272 -0.287056 0
M  V30 617 H 64.5593 3.77711 1.77172 0
M  V30 618 H 63.1893 2.63916 1.85872 0
M  V30 619 H 62.2413 3.79458 -0.267594 0
M  V30 620 H 63.5533 4.98626 -0.131686 0
M  V30 621 H 62.7073 5.68533 2.11791 0
M  V30 622 H 61.4463 4.42158 2.05786 0
M  V30 623 H 60.4513 5.49796 0.0197725 0
M  V30 624 H 61.6763 6.79028 0.09912 0
M  V30 625 H 59.6223 6.16094 2.25308 0
M  V30 626 H 59.5393 7.47556 1.12673 0
M  V30 627 H 60.8073 7.44316 2.31546 0
M  V30 628 N 65.0364 0.313813 1.54444 0
M  V30 629 C 66.3134 -0.345447 1.92525 0
M  V30 630 C 66.6934 -1.70667 1.24242 0
M  V30 631 O 66.0414 -2.25273 0.382654 0
M  V30 632 C 66.2514 -0.44737 3.46121 0
M  V30 633 C 67.5994 -0.712238 4.18584 0
M  V30 634 O 68.6234 -0.530678 3.52225 0
M  V30 635 O 67.4824 -1.06183 5.36085 0
M  V30 636 H 64.5764 -0.195407 0.803583 0
M  V30 637 H 67.1224 0.362813 1.65776 0
M  V30 638 H 65.8944 0.509043 3.87975 0
M  V30 639 H 65.5174 -1.20359 3.78945 0
M  V30 640 N 66.5145 -1.57545 0.0417849 0
M  V30 641 C 67.4775 -2.09885 -0.92093 0
M  V30 642 C 68.4775 -1.01648 -1.24596 0
M  V30 643 O 69.6675 -1.27759 -1.1842 0
M  V30 644 C 66.7995 -2.57527 -2.23367 0
M  V30 645 H 67.9925 -2.96236 -0.467382 0
M  V30 646 H 65.5455 -1.5493 -0.206467 0
M  V30 647 H 66.2805 -1.74542 -2.73323 0
M  V30 648 H 66.0655 -3.36613 -2.01083 0
M  V30 649 H 67.5555 -2.98201 -2.92346 0
M  V30 650 N 67.9926 0.231505 -1.5589 0
M  V30 651 C 69.2696 0.981096 -1.69215 0
M  V30 652 C 69.6496 2.02799 -0.586164 0
M  V30 653 O 68.9976 2.24823 0.408253 0
M  V30 654 C 69.2076 1.60054 -3.10135 0
M  V30 655 C 70.5556 2.09658 -3.69227 0
M  V30 656 O 71.5796 1.69967 -3.13033 0
M  V30 657 O 70.4386 2.8258 -4.67772 0
M  V30 658 H 67.5326 0.457653 -0.688827 0
M  V30 659 H 70.0786 0.224073 -1.68214 0
M  V30 660 H 68.8506 0.844105 -3.82087 0
M  V30 661 H 68.4736 2.42336 -3.15212 0
M  V30 662 N 69.4707 1.49531 0.497807 0
M  V30 663 C 70.4007 1.6935 1.60757 0
M  V30 664 C 71.3817 0.542218 1.61227 0
M  V30 665 O 72.5667 0.778417 1.77917 0
M  V30 666 C 69.6967 1.76298 2.99226 0
M  V30 667 C 68.6507 2.91248 3.13622 0
M  V30 668 C 67.9767 2.83312 4.53474 0
M  V30 669 C 69.2767 4.3214 2.93346 0
M  V30 670 H 70.9707 2.62263 1.44425 0
M  V30 671 H 68.5167 1.26208 0.693367 0
M  V30 672 H 70.4697 1.88749 3.76765 0
M  V30 673 H 69.1937 0.799871 3.16654 0
M  V30 674 H 67.8527 2.78404 2.38509 0
M  V30 675 H 67.5007 1.84902 4.67782 0
M  V30 676 H 67.2007 3.60465 4.64046 0
M  V30 677 H 68.7247 2.97775 5.33069 0
M  V30 678 H 70.1387 4.45649 3.60652 0
M  V30 679 H 68.5357 5.1054 3.15387 0
M  V30 680 H 69.6057 4.46363 1.89441 0
M  V30 681 N 70.9488 -0.749086 1.3866 0
M  V30 682 C 72.1768 -1.53834 1.38358 0
M  V30 683 C 72.5918 -1.88783 -0.0255219 0
M  V30 684 O 71.9488 -1.53101 -0.993292 0
M  V30 685 C 71.9998 -2.83468 2.2434 0
M  V30 686 O 71.7208 -2.50008 3.5976 0
M  V30 687 C 73.2218 -3.7758 2.32267 0
M  V30 688 H 70.4418 -0.47585 0.473083 0
M  V30 689 H 72.9858 -0.926726 1.82297 0
M  V30 690 H 71.1408 -3.40995 1.83851 0
M  V30 691 H 71.5548 -3.33182 4.05081 0
M  V30 692 H 73.0288 -4.65478 2.96706 0
M  V30 693 H 73.5058 -4.18334 1.33765 0
M  V30 694 H 74.1118 -3.25976 2.73166 0
M  V30 695 N 72.4269 -1.23603 -0.977757 0
M  V30 696 C 73.7039 -0.977897 -1.69401 0
M  V30 697 C 74.0839 0.502738 -2.05026 0
M  V30 698 O 73.4319 1.47459 -1.74551 0
M  V30 699 C 73.6419 -1.89077 -2.93345 0
M  V30 700 C 74.9899 -2.15579 -3.65802 0
M  V30 701 O 76.0139 -1.86648 -3.03383 0
M  V30 702 O 74.8729 -2.64658 -4.78141 0
M  V30 703 H 71.9669 -0.369025 -0.740101 0
M  V30 704 H 74.5129 -1.34657 -1.03274 0
M  V30 705 H 73.2849 -2.89158 -2.63634 0
M  V30 706 H 72.9079 -1.52463 -3.67207 0
M  V30 707 N 73.905 1.17692 -1.04816 0
M  V30 708 C 75.133 1.91786 -0.776254 0
M  V30 709 C 75.548 1.76604 0.667577 0
M  V30 710 O 74.905 1.10067 1.45573 0
M  V30 711 C 74.956 3.42967 -1.14263 0
M  V30 712 O 74.677 3.57678 -2.52978 0
M  V30 713 C 76.178 4.34144 -0.896311 0
M  V30 714 H 73.398 0.608624 -0.282519 0
M  V30 715 H 75.942 1.49268 -1.39783 0
M  V30 716 H 74.097 3.83245 -0.565874 0
M  V30 717 H 74.511 4.51319 -2.67229 0
M  V30 718 H 75.985 5.38744 -1.20244 0
M  V30 719 H 76.462 4.38876 0.168636 0
M  V30 720 H 77.068 3.99574 -1.45672 0
M  V30 721 N 75.3831 0.828654 1.34056 0
M  V30 722 C 76.3461 0.259927 2.27721 0
M  V30 723 C 77.3461 -0.565478 1.50529 0
M  V30 724 O 78.5361 -0.38075 1.69988 0
M  V30 725 C 75.6681 -0.634944 3.34935 0
M  V30 726 H 76.8611 1.0863 2.79534 0
M  V30 727 H 74.4141 0.600951 1.44285 0
M  V30 728 H 75.1491 -1.48416 2.88346 0
M  V30 729 H 74.9341 -0.0444999 3.92075 0
M  V30 730 H 76.4241 -1.02648 4.04788 0
M  V30 731 N 76.8612 -1.46375 0.584142 0
M  V30 732 C 77.7932 -2.28443 -0.186119 0
M  V30 733 C 78.8062 -1.38596 -0.854115 0
M  V30 734 O 79.9952 -1.63183 -0.723438 0
M  V30 735 C 77.0952 -3.13671 -1.28311 0
M  V30 736 C 76.2682 -4.31652 -0.706758 0
M  V30 737 C 75.3272 -4.98267 -1.69163 0
M  V30 738 O 74.3532 -5.55815 -1.22712 0
M  V30 739 N 75.5552 -4.95408 -3.02575 0
M  V30 740 H 78.3202 -2.9519 0.517986 0
M  V30 741 H 75.8812 -1.56303 0.42201 0
M  V30 742 H 77.8732 -3.55101 -1.94128 0
M  V30 743 H 76.4432 -2.48989 -1.89005 0
M  V30 744 H 75.6632 -3.93989 0.128908 0
M  V30 745 H 76.9512 -5.07906 -0.301506 0
M  V30 746 H 76.3492 -4.49902 -3.42936 0
M  V30 747 H 74.9062 -5.40774 -3.63877 0
M  V30 748 N 78.3393 -0.321999 -1.54275 0
M  V30 749 C 79.5673 0.283052 -2.04955 0
M  V30 750 C 79.9823 1.45904 -1.19823 0
M  V30 751 O 79.3393 1.81063 -0.228545 0
M  V30 752 C 79.3903 0.719028 -3.54277 0
M  V30 753 O 79.1113 -0.410175 -4.36176 0
M  V30 754 C 80.6123 1.38705 -4.21041 0
M  V30 755 H 77.8323 0.0584616 -0.668448 0
M  V30 756 H 80.3763 -0.467734 -1.99079 0
M  V30 757 H 78.5313 1.41979 -3.60445 0
M  V30 758 H 78.9453 -0.0669416 -5.24457 0
M  V30 759 H 80.4193 1.64306 -5.2698 0
M  V30 760 H 80.8963 2.33385 -3.72059 0
M  V30 761 H 81.5023 0.728906 -4.19007 0
M  V30 762 N 79.8174 1.5752 -0.0501392 0
M  V30 763 C 81.2334 1.56631 0.306402 0
M  V30 764 C 81.4334 1.0577 1.71508 0
M  V30 765 O 80.4894 0.713837 2.422 0
M  V30 766 C 81.8024 3.00393 0.135811 0
M  V30 767 C 83.3504 3.12315 0.206993 0
M  V30 768 C 83.8254 4.57954 0.064944 0
M  V30 769 N 85.3164 4.63041 0.121254 0
M  V30 770 C 86.0514 5.73389 0.0354381 0
M  V30 771 N 85.5474 6.92724 -0.102666 0
M  V30 772 N 87.3404 5.62026 0.090946 0
M  V30 773 H 79.4914 1.88903 -0.971046 0
M  V30 774 H 81.7544 0.869876 -0.376855 0
M  V30 775 H 81.4604 3.41635 -0.835384 0
M  V30 776 H 81.3344 3.66373 0.897275 0
M  V30 777 H 83.7214 2.70973 1.16866 0
M  V30 778 H 83.8024 2.49016 -0.585208 0
M  V30 779 H 83.4464 4.99981 -0.893394 0
M  V30 780 H 83.3764 5.19258 0.876277 0
M  V30 781 H 85.8674 3.77216 0.227284 0
M  V30 782 H 86.1804 7.72633 -0.160882 0
M  V30 783 H 84.5254 6.94864 -0.137737 0
M  V30 784 H 87.7164 4.67684 0.197388 0
M  V30 785 H 87.8894 6.47997 0.0206089 0
M  V30 786 N 81.2955 -0.223234 1.56011 0
M  V30 787 C 82.2585 -1.26014 1.9145 0
M  V30 788 C 83.2585 -1.3989 0.792937 0
M  V30 789 O 84.4485 -1.38184 1.0607 0
M  V30 790 C 81.5805 -2.63422 2.16383 0
M  V30 791 H 82.7735 -0.95796 2.84189 0
M  V30 792 H 80.3265 -0.463576 1.49267 0
M  V30 793 H 81.0615 -2.98741 1.2619 0
M  V30 794 H 80.8465 -2.54728 2.98088 0
M  V30 795 H 82.3365 -3.38249 2.44903 0
M  V30 796 N 82.7736 -1.49793 -0.48987 0
M  V30 797 C 83.7036 -1.70201 -1.59856 0
M  V30 798 C 84.6846 -0.55076 -1.60937 0
M  V30 799 O 85.8696 -0.787841 -1.77501 0
M  V30 800 C 82.9996 -1.77882 -2.98287 0
M  V30 801 C 81.9536 -2.92907 -3.12073 0
M  V30 802 C 81.2796 -2.85712 -4.51965 0
M  V30 803 C 82.5796 -4.3369 -2.91051 0
M  V30 804 H 84.2736 -2.63025 -1.43032 0
M  V30 805 H 81.8196 -1.26574 -0.686664 0
M  V30 806 H 83.7726 -1.90744 -3.75759 0
M  V30 807 H 82.4966 -0.816653 -3.16225 0
M  V30 808 H 81.1556 -2.79665 -2.37029 0
M  V30 809 H 80.8036 -1.8738 -4.66795 0
M  V30 810 H 80.5036 -3.62921 -4.62128 0
M  V30 811 H 82.0276 -3.00598 -5.31482 0
M  V30 812 H 83.4416 -4.47555 -3.58284 0
M  V30 813 H 81.8386 -5.12205 -3.12675 0
M  V30 814 H 82.9086 -4.47362 -1.87071 0
M  V30 815 N 84.2517 0.741722 -1.39055 0
M  V30 816 C 85.4987 1.50114 -1.35912 0
M  V30 817 C 85.8267 1.94443 0.0470937 0
M  V30 818 O 85.0817 1.66612 1.02659 0
M  V30 819 C 85.3807 2.7592 -2.27163 0
M  V30 820 C 85.0467 2.50493 -3.74919 0
M  V30 821 C 83.7087 2.43267 -4.1518 0
M  V30 822 C 86.0607 2.28585 -4.684 0
M  V30 823 C 83.3887 2.12166 -5.46994 0
M  V30 824 C 85.7407 1.99002 -6.00484 0
M  V30 825 C 84.4047 1.90241 -6.39816 0
M  V30 826 H 83.6747 0.549306 -0.497336 0
M  V30 827 H 86.3217 0.851896 -1.71508 0
M  V30 828 H 84.6267 3.45553 -1.84663 0
M  V30 829 H 86.3237 3.33923 -2.22028 0
M  V30 830 H 82.9137 2.56992 -3.43006 0
M  V30 831 H 87.0977 2.33139 -4.38132 0
M  V30 832 H 82.3537 2.03901 -5.76398 0
M  V30 833 H 86.5277 1.81057 -6.72452 0
M  V30 834 H 84.1547 1.65907 -7.41875 0
M  V30 835 N 85.7298 1.2412 0.971189 0
M  V30 836 C 86.6398 1.04747 2.09917 0
M  V30 837 C 87.6558 -0.0107162 1.73997 0
M  V30 838 O 88.8318 0.186714 2.00533 0
M  V30 839 C 85.8968 0.650828 3.40537 0
M  V30 840 C 84.9578 1.7851 3.90426 0
M  V30 841 C 84.1908 1.40729 5.14812 0
M  V30 842 O 84.4138 0.29557 5.69634 0
M  V30 843 O 83.3478 2.23168 5.58999 0
M  V30 844 H 87.1738 1.99304 2.29154 0
M  V30 845 H 84.7588 1.02908 1.08307 0
M  V30 846 H 86.6408 0.440992 4.19086 0
M  V30 847 H 85.3158 -0.265649 3.22608 0
M  V30 848 H 84.2228 2.04966 3.12953 0
M  V30 849 H 85.5558 2.68023 4.12825 0
M  V30 850 N 87.2079 -1.17134 1.05439 0
M  V30 851 C 88.1549 -2.21235 0.657539 0
M  V30 852 C 89.1249 -1.62551 -0.341543 0
M  V30 853 O 90.3099 -1.89379 -0.232393 0
M  V30 854 C 87.4499 -3.45076 0.0410575 0
M  V30 855 C 86.5629 -4.18042 1.08927 0
M  V30 856 C 85.6979 -5.29376 0.439848 0
M  V30 857 C 84.7369 -5.94132 1.4722 0
M  V30 858 N 83.8739 -6.96975 0.846756 0
M  V30 859 H 88.7139 -2.54534 1.54972 0
M  V30 860 H 86.2509 -1.25028 0.775006 0
M  V30 861 H 88.2089 -4.15862 -0.33383 0
M  V30 862 H 86.8389 -3.12353 -0.814568 0
M  V30 863 H 85.8909 -3.45945 1.58196 0
M  V30 864 H 87.2029 -4.62306 1.87282 0
M  V30 865 H 86.3569 -6.06699 0.0115125 0
M  V30 866 H 85.0959 -4.86251 -0.375656 0
M  V30 867 H 84.1009 -5.15538 1.91052 0
M  V30 868 H 85.3259 -6.39337 2.28965 0
M  V30 869 H 83.2719 -6.5598 0.0518075 0
M  V30 870 H 83.1889 -7.39565 1.5678 0
M  V30 871 H 84.4569 -7.78239 0.443277 0
M  V30 872 N 88.686 -0.835752 -1.33615 0
M  V30 873 C 89.932 -0.430596 -1.98176 0
M  V30 874 C 90.265 1.00684 -1.66061 0
M  V30 875 O 89.54 1.70339 -0.938877 0
M  V30 876 C 89.823 -0.648065 -3.5422 0
M  V30 877 C 89.676 -2.13255 -3.96033 0
M  V30 878 C 90.995 -0.0922113 -4.40003 0
M  V30 879 H 88.114 -0.157924 -0.719881 0
M  V30 880 H 90.756 -1.05069 -1.58305 0
M  V30 881 H 88.906 -0.120237 -3.88314 0
M  V30 882 H 90.578 -2.725 -3.72211 0
M  V30 883 H 88.821 -2.61823 -3.45878 0
M  V30 884 H 89.492 -2.23547 -5.04708 0
M  V30 885 H 91.968 -0.543343 -4.12537 0
M  V30 886 H 90.844 -0.274083 -5.48215 0
M  V30 887 H 91.105 1.00378 -4.30554 0
M  V30 888 N 90.1641 1.46063 -0.591896 0
M  V30 889 C 91.0961 2.28539 0.174001 0
M  V30 890 C 92.1091 1.39047 0.846753 0
M  V30 891 O 93.2981 1.63564 0.714774 0
M  V30 892 C 90.3981 3.14347 1.26645 0
M  V30 893 C 89.5711 4.32021 0.683856 0
M  V30 894 C 88.6301 4.99157 1.66518 0
M  V30 895 O 87.6561 5.56458 1.19763 0
M  V30 896 N 88.8581 4.97005 2.99943 0
M  V30 897 H 91.6231 2.94911 -0.533633 0
M  V30 898 H 89.1841 1.56077 -0.430294 0
M  V30 899 H 91.1761 3.56125 1.92242 0
M  V30 900 H 89.7461 2.49988 1.87682 0
M  V30 901 H 88.9661 3.93915 -0.1498 0
M  V30 902 H 90.2541 5.08059 0.274567 0
M  V30 903 H 89.6521 4.51714 3.40545 0
M  V30 904 H 88.2091 5.42696 3.61004 0
M  V30 905 N 91.6422 0.330177 1.54103 0
M  V30 906 C 93.0532 -0.15652 1.86043 0
M  V30 907 C 93.4042 -1.51086 1.2517 0
M  V30 908 O 92.5292 -2.09023 0.560217 0
M  V30 909 C 93.1242 -0.290784 3.3755 0
M  V30 910 C 91.6832 -0.721705 3.69416 0
M  V30 911 C 90.8302 0.152622 2.7688 0
M  V30 912 H 93.7812 0.550237 1.48856 0
M  V30 913 H 93.8022 -1.12058 3.63625 0
M  V30 914 H 93.3142 0.695068 3.81825 0
M  V30 915 H 91.4152 -1.71706 3.30678 0
M  V30 916 H 91.5282 -0.520869 4.7626 0
M  V30 917 H 89.8922 -0.372894 2.51956 0
M  V30 918 H 90.6752 1.13536 3.23982 0
M  V30 919 N 93.1203 -1.57491 0.0584922 0
M  V30 920 C 94.3483 -1.97296 -0.623037 0
M  V30 921 C 94.7633 -0.936338 -1.63946 0
M  V30 922 O 94.1203 0.0785981 -1.82331 0
M  V30 923 C 94.1713 -3.37183 -1.30345 0
M  V30 924 O 93.8923 -4.36872 -0.32773 0
M  V30 925 C 95.3933 -3.91788 -2.07406 0
M  V30 926 H 92.6133 -0.649153 -0.169826 0
M  V30 927 H 95.1573 -2.04106 0.12696 0
M  V30 928 H 93.3123 -3.31502 -2.00463 0
M  V30 929 H 93.7263 -5.18141 -0.814269 0
M  V30 930 H 95.2003 -4.91926 -2.50425 0
M  V30 931 H 95.6773 -3.27609 -2.92521 0
M  V30 932 H 96.2833 -4.00829 -1.42184 0
M  V30 933 N 94.5984 0.214957 -1.56127 0
M  V30 934 C 95.5484 1.27006 -1.8935 0
M  V30 935 C 96.5324 1.41969 -0.757202 0
M  V30 936 O 97.7244 1.44673 -1.01973 0
M  V30 937 C 94.8534 2.61911 -2.2194 0
M  V30 938 C 93.9394 2.50822 -3.41978 0
M  V30 939 N 94.3304 2.09391 -4.60423 0
M  V30 940 C 92.6284 2.81765 -3.45723 0
M  V30 941 C 93.3294 2.09712 -5.42582 0
M  V30 942 N 92.3054 2.50454 -4.82466 0
M  V30 943 H 96.1074 0.940734 -2.78437 0
M  V30 944 H 93.6214 0.423492 -1.56781 0
M  V30 945 H 95.6184 3.38096 -2.43919 0
M  V30 946 H 94.2784 2.95684 -1.34169 0
M  V30 947 H 95.2894 1.80416 -4.85459 0
M  V30 948 H 91.9664 3.19865 -2.68314 0
M  V30 949 H 93.3564 1.79748 -6.4741 0
M  V30 950 N 96.0765 1.50051 0.48192 0
M  V30 951 C 97.3225 1.60736 1.2366 0
M  V30 952 C 97.6555 0.301786 1.91841 0
M  V30 953 O 96.9305 -0.696025 1.8162 0
M  V30 954 C 97.2135 2.78009 2.28874 0
M  V30 955 C 97.0665 4.18416 1.65069 0
M  V30 956 C 98.3855 2.90867 3.30279 0
M  V30 957 H 95.5045 0.585031 0.448228 0
M  V30 958 H 98.1465 1.82402 0.531946 0
M  V30 959 H 96.2965 2.59667 2.88973 0
M  V30 960 H 97.9685 4.48322 1.0865 0
M  V30 961 H 96.2115 4.23177 0.954148 0
M  V30 962 H 96.8825 4.96381 2.41474 0
M  V30 963 H 99.3585 3.07623 2.80191 0
M  V30 964 H 98.2345 3.74566 4.01238 0
M  V30 965 H 98.4955 2.01021 3.93755 0
M  V30 966 N 97.5546 -0.734337 1.39446 0
M  V30 967 C 98.8036 -1.48937 1.36017 0
M  V30 968 C 99.1166 -1.95557 -0.0409005 0
M  V30 969 O 100.323 -2.70779 -0.19778 0
M  V30 970 C 98.7786 -2.69125 2.38955 0
M  V30 971 C 98.3866 -2.29452 3.8478 0
M  V30 972 C 100.131 -3.46944 2.44603 0
M  V30 973 C 98.0376 -3.46366 4.79358 0
M  V30 974 H 96.9676 -0.559296 0.505672 0
M  V30 975 H 99.6186 -0.800983 1.65095 0
M  V30 976 H 98.0006 -3.40041 2.02948 0
M  V30 977 H 99.1746 -1.66077 4.29831 0
M  V30 978 H 97.4896 -1.64723 3.82433 0
M  V30 979 H 100.087 -4.33907 3.12456 0
M  V30 980 H 100.43 -3.89454 1.47076 0
M  V30 981 H 100.963 -2.83056 2.79507 0
M  V30 982 H 97.7016 -3.08905 5.78151 0
M  V30 983 H 97.2216 -4.08719 4.38986 0
M  V30 984 H 98.9006 -4.12691 4.98292 0
M  V30 985 N 99.0327 -1.24633 -0.964593 0
M  V30 986 C 99.9827 -1.00841 -2.04487 0
M  V30 987 C 100.967 0.0512468 -1.60818 0
M  V30 988 O 102.159 -0.162865 -1.76249 0
M  V30 989 C 99.2877 -0.618474 -3.37683 0
M  V30 990 C 98.3737 -1.71437 -3.87905 0
M  V30 991 N 98.7647 -2.9477 -4.11029 0
M  V30 992 C 97.0627 -1.5926 -4.16596 0
M  V30 993 C 97.7637 -3.65834 -4.52261 0
M  V30 994 N 96.7397 -2.9341 -4.57615 0
M  V30 995 H 100.542 -1.94487 -2.20345 0
M  V30 996 H 98.0557 -1.14805 -1.14863 0
M  V30 997 H 100.053 -0.429247 -4.14684 0
M  V30 998 H 98.7127 0.310766 -3.23209 0
M  V30 999 H 99.7237 -3.30917 -3.9839 0
M  V30 1000 H 96.4007 -0.731606 -4.1104 0
M  V30 1001 H 97.7907 -4.71646 -4.78539 0
M  V30 1002 N 100.511 1.16574 -1.06058 0
M  V30 1003 C 101.441 2.23057 -0.690488 0
M  V30 1004 C 102.422 1.67141 0.315901 0
M  V30 1005 O 103.607 1.93253 0.191556 0
M  V30 1006 C 100.737 3.47222 -0.073625 0
M  V30 1007 C 99.6908 4.16016 -1.00573 0
M  V30 1008 C 99.0168 5.34104 -0.252289 0
M  V30 1009 C 100.317 4.67264 -2.33371 0
M  V30 1010 H 102.011 2.54271 -1.58072 0
M  V30 1011 H 99.5568 1.22218 -0.76149 0
M  V30 1012 H 101.51 4.20939 0.19714 0
M  V30 1013 H 100.234 3.15302 0.85161 0
M  V30 1014 H 98.8928 3.44223 -1.2612 0
M  V30 1015 H 98.5408 4.98437 0.675988 0
M  V30 1016 H 98.2408 5.81072 -0.873455 0
M  V30 1017 H 99.7648 6.10599 0.0109857 0
M  V30 1018 H 101.179 5.32573 -2.12223 0
M  V30 1019 H 99.5758 5.24843 -2.90963 0
M  V30 1020 H 100.646 3.83602 -2.96611 0
M  V30 1021 N 101.989 0.842826 1.3317 0
M  V30 1022 C 102.952 0.284065 2.27433 0
M  V30 1023 C 103.952 -0.54948 1.5112 0
M  V30 1024 O 105.142 -0.362699 1.70382 0
M  V30 1025 C 102.274 -0.599384 3.35589 0
M  V30 1026 H 103.467 1.11589 2.78366 0
M  V30 1027 H 101.02 0.616221 1.4364 0
M  V30 1028 H 101.755 -1.45349 2.89904 0
M  V30 1029 H 101.54 -0.00291266 3.921 0
M  V30 1030 H 103.03 -0.983488 4.05854 0
M  V30 1031 N 103.467 -1.45747 0.599634 0
M  V30 1032 C 104.43 -2.28917 -0.113835 0
M  V30 1033 C 105.43 -1.3933 -0.802729 0
M  V30 1034 O 106.62 -1.61534 -0.652103 0
M  V30 1035 C 103.752 -3.20152 -1.17114 0
M  V30 1036 H 104.945 -2.93478 0.617289 0
M  V30 1037 H 102.498 -1.52137 0.358327 0
M  V30 1038 H 103.233 -2.60374 -1.93329 0
M  V30 1039 H 103.018 -3.86133 -0.681468 0
M  V30 1040 H 104.508 -3.82708 -1.67105 0
M  V30 1041 N 104.945 -0.338344 -1.53925 0
M  V30 1042 C 105.878 0.563758 -2.21127 0
M  V30 1043 C 106.856 1.10433 -1.19345 0
M  V30 1044 O 108.04 1.16557 -1.48144 0
M  V30 1045 C 105.167 1.77505 -2.88461 0
M  V30 1046 C 104.213 1.3644 -4.04087 0
M  V30 1047 S 105.046 0.388593 -5.34088 0
M  V30 1048 C 106.202 1.60683 -6.04923 0
M  V30 1049 H 106.435 -0.00704546 -2.97299 0
M  V30 1050 H 103.968 -0.122418 -1.53914 0
M  V30 1051 H 105.926 2.46999 -3.27875 0
M  V30 1052 H 104.587 2.31706 -2.12064 0
M  V30 1053 H 103.78 2.26739 -4.50117 0
M  V30 1054 H 103.382 0.748998 -3.66423 0
M  V30 1055 H 105.674 2.54209 -6.28 0
M  V30 1056 H 106.617 1.18842 -6.98056 0
M  V30 1057 H 107.025 1.80052 -5.35015 0
M  V30 1058 N 106.423 1.57458 -0.0668435 0
M  V30 1059 C 107.669 1.93587 0.6043 0
M  V30 1060 C 108.002 0.946722 1.69561 0
M  V30 1061 O 107.277 -0.0248516 1.94484 0
M  V30 1062 C 107.56 3.40014 1.18585 0
M  V30 1063 C 107.413 4.49685 0.101529 0
M  V30 1064 C 108.732 3.87154 2.09284 0
M  V30 1065 H 105.851 0.703958 0.218202 0
M  V30 1066 H 108.493 1.89542 -0.131804 0
M  V30 1067 H 106.643 3.43592 1.81319 0
M  V30 1068 H 108.315 4.5823 -0.531279 0
M  V30 1069 H 106.558 4.30059 -0.568487 0
M  V30 1070 H 107.229 5.49266 0.54874 0
M  V30 1071 H 109.705 3.85551 1.56491 0
M  V30 1072 H 108.581 4.90231 2.46911 0
M  V30 1073 H 108.842 3.2481 2.99918 0
M  V30 1074 N 107.901 -0.206675 1.56239 0
M  V30 1075 C 109.149 -0.927007 1.79586 0
M  V30 1076 C 109.47 -1.8427 0.637929 0
M  V30 1077 O 108.74 -1.92849 -0.344398 0
M  V30 1078 H 107.32 -0.345292 0.662407 0
M  V30 1079 H 109.982 -0.21496 1.93711 0
M  V30 1080 H 109.078 -1.52501 2.72305 0
M  V30 1081 N 109.379 -1.50304 -0.473955 0
M  V30 1082 C 110.627 -1.60832 -1.22382 0
M  V30 1083 C 110.948 -0.30939 -1.9253 0
M  V30 1084 O 110.218 0.67296 -1.83978 0
M  V30 1085 H 108.798 -0.592652 -0.454723 0
M  V30 1086 H 111.46 -1.87068 -0.546968 0
M  V30 1087 H 110.556 -2.41803 -1.97327 0
M  V30 1088 N 110.857 0.726932 -1.39834 0
M  V30 1089 C 111.787 1.85405 -1.41941 0
M  V30 1090 C 112.768 1.67751 -0.281728 0
M  V30 1091 O 113.953 1.8795 -0.488717 0
M  V30 1092 C 111.083 3.23243 -1.2701 0
M  V30 1093 C 110.037 3.55549 -2.38262 0
M  V30 1094 C 109.363 4.9241 -2.08415 0
M  V30 1095 C 110.663 3.577 -3.80589 0
M  V30 1096 H 112.357 1.83899 -2.36266 0
M  V30 1097 H 109.903 0.883349 -1.13723 0
M  V30 1098 H 111.856 4.01775 -1.27103 0
M  V30 1099 H 110.58 3.25296 -0.291564 0
M  V30 1100 H 109.239 2.79351 -2.37399 0
M  V30 1101 H 108.887 4.91052 -1.0898 0
M  V30 1102 H 108.587 5.14992 -2.82943 0
M  V30 1103 H 110.111 5.73289 -2.10171 0
M  V30 1104 H 111.525 4.26293 -3.83337 0
M  V30 1105 H 109.922 3.91804 -4.54543 0
M  V30 1106 H 110.992 2.57328 -4.10987 0
M  V30 1107 N 112.336 1.25143 0.95797 0
M  V30 1108 C 113.583 1.09692 1.70217 0
M  V30 1109 C 113.911 -0.362654 1.91089 0
M  V30 1110 O 113.166 -1.28386 1.47701 0
M  V30 1111 C 113.465 1.79272 3.09187 0
M  V30 1112 C 113.131 3.29196 3.08125 0
M  V30 1113 C 111.793 3.70096 3.07543 0
M  V30 1114 C 114.145 4.24995 3.0171 0
M  V30 1115 C 111.473 5.05213 2.9829 0
M  V30 1116 C 113.825 5.60132 2.93999 0
M  V30 1117 C 112.489 6.00365 2.9175 0
M  V30 1118 H 111.759 0.401393 0.622868 0
M  V30 1119 H 114.406 1.55372 1.11945 0
M  V30 1120 H 112.711 1.26014 3.70982 0
M  V30 1121 H 114.408 1.64773 3.65583 0
M  V30 1122 H 110.998 2.96651 3.09348 0
M  V30 1123 H 115.182 3.9439 3.01281 0
M  V30 1124 H 110.438 5.35569 2.94916 0
M  V30 1125 H 114.612 6.3406 2.87996 0
M  V30 1126 H 112.239 7.05023 2.84336 0
M  V30 1127 N 113.814 -1.1601 1.06675 0
M  V30 1128 C 115.23 -1.38622 0.790948 0
M  V30 1129 C 115.43 -1.92109 -0.607965 0
M  V30 1130 O 114.486 -2.12239 -1.36787 0
M  V30 1131 C 115.799 -2.36347 1.85905 0
M  V30 1132 C 117.347 -2.50023 1.88301 0
M  V30 1133 C 117.822 -3.51033 2.94176 0
M  V30 1134 N 119.313 -3.58563 2.93235 0
M  V30 1135 C 120.048 -4.36521 3.71803 0
M  V30 1136 N 119.544 -5.17869 4.602 0
M  V30 1137 N 121.337 -4.31541 3.60178 0
M  V30 1138 H 113.488 -0.796294 1.96908 0
M  V30 1139 H 115.751 -0.412597 0.853503 0
M  V30 1140 H 115.457 -2.04147 2.86386 0
M  V30 1141 H 115.331 -3.36042 1.71334 0
M  V30 1142 H 117.718 -2.81524 0.884769 0
M  V30 1143 H 117.799 -1.5035 2.06951 0
M  V30 1144 H 117.443 -3.20268 3.94196 0
M  V30 1145 H 117.373 -4.50445 2.72776 0
M  V30 1146 H 119.864 -3.00496 2.29152 0
M  V30 1147 H 120.177 -5.74578 5.16797 0
M  V30 1148 H 118.522 -5.17199 4.64253 0
M  V30 1149 H 121.713 -3.67051 2.90502 0
M  V30 1150 H 121.886 -4.9205 4.21653 0
M  V30 1151 N 115.292 -0.849877 -1.32721 0
M  V30 1152 C 116.24 -0.279745 -2.30912 0
M  V30 1153 C 117.234 0.594278 -1.58634 0
M  V30 1154 O 118.44 0.482613 -1.73409 0
M  V30 1155 H 114.815 -0.0717521 -0.748569 0
M  V30 1156 H 116.786 -1.12222 -2.76494 0
M  V30 1157 C 115.535 0.521108 -3.43773 0
M  V30 1158 H 114.858 -0.142141 -3.99547 0
M  V30 1159 H 116.298 0.885693 -4.14646 0
M  V30 1160 C 114.757 1.70442 -2.90605 0
M  V30 1161 O 115.287 2.8034 -2.87702 0
M  V30 1162 N 113.493 1.52991 -2.47067 0
M  V30 1163 H 113.04 0.635914 -2.49628 0
M  V30 1164 H 112.998 2.32311 -2.11847 0
M  V30 1165 N 116.77 1.45427 -0.607355 0
M  V30 1166 C 118.019 2.01452 -0.100036 0
M  V30 1167 C 118.332 1.48159 1.27704 0
M  V30 1168 O 119.538 1.96159 1.87707 0
M  V30 1169 C 117.994 3.59672 -0.128158 0
M  V30 1170 C 117.602 4.21962 -1.50507 0
M  V30 1171 C 119.346 4.23262 0.323932 0
M  V30 1172 C 117.253 5.72333 -1.48959 0
M  V30 1173 H 116.183 0.75325 -0.0336299 0
M  V30 1174 H 118.834 1.66901 -0.76265 0
M  V30 1175 H 117.216 3.91411 0.601105 0
M  V30 1176 H 118.39 4.01796 -2.25602 0
M  V30 1177 H 116.705 3.70565 -1.89923 0
M  V30 1178 H 119.302 5.33522 0.354691 0
M  V30 1179 H 119.645 3.93921 1.34656 0
M  V30 1180 H 120.178 3.96239 -0.352056 0
M  V30 1181 H 116.917 6.06373 -2.48981 0
M  V30 1182 H 116.437 5.94691 -0.781214 0
M  V30 1183 H 118.116 6.35525 -1.21313 0
M  V30 1184 N 118.248 0.346503 1.53744 0
M  V30 1185 C 119.195 -0.508914 2.25119 0
M  V30 1186 C 120.165 -1.09315 1.25058 0
M  V30 1187 O 121.35 -1.12921 1.53797 0
M  V30 1188 C 118.49 -1.65246 3.02965 0
M  V30 1189 C 117.603 -1.09525 4.17886 0
M  V30 1190 C 116.738 -2.20634 4.83212 0
M  V30 1191 C 115.777 -1.62279 5.90196 0
M  V30 1192 N 114.914 -2.67143 6.49291 0
M  V30 1193 H 119.754 0.106283 2.9781 0
M  V30 1194 H 117.291 0.0642227 1.4696 0
M  V30 1195 H 119.249 -2.32574 3.4636 0
M  V30 1196 H 117.879 -2.2386 2.32565 0
M  V30 1197 H 116.931 -0.312818 3.79112 0
M  V30 1198 H 118.243 -0.628444 4.94825 0
M  V30 1199 H 117.397 -2.95821 5.29693 0
M  V30 1200 H 116.136 -2.70659 4.05703 0
M  V30 1201 H 115.141 -0.855989 5.43096 0
M  V30 1202 H 116.366 -1.13102 6.69615 0
M  V30 1203 H 114.312 -3.16417 5.74645 0
M  V30 1204 H 114.229 -2.25093 7.21713 0
M  V30 1205 H 115.497 -3.4209 7.00425 0
M  V30 1206 N 119.726 -1.57421 0.075193 0
M  V30 1207 C 120.956 -1.97659 -0.601203 0
M  V30 1208 C 121.364 -0.952427 -1.63479 0
M  V30 1209 O 120.707 0.0688241 -1.83571 0
M  V30 1210 C 120.769 -3.34218 -1.32434 0
M  V30 1211 C 120.433 -4.5484 -0.443826 0
M  V30 1212 C 121.43 -5.19034 0.299969 0
M  V30 1213 C 119.115 -5.00952 -0.367709 0
M  V30 1214 C 121.109 -6.27695 1.10807 0
M  V30 1215 C 118.796 -6.09484 0.444058 0
M  V30 1216 C 119.794 -6.72719 1.18061 0
M  V30 1217 O 119.482 -7.79161 1.97898 0
M  V30 1218 H 119.214 -0.65494 -0.167422 0
M  V30 1219 H 121.768 -2.04886 0.145157 0
M  V30 1220 H 119.998 -3.23615 -2.11685 0
M  V30 1221 H 121.687 -3.59038 -1.89331 0
M  V30 1222 H 122.453 -4.84351 0.250776 0
M  V30 1223 H 118.332 -4.51509 -0.930638 0
M  V30 1224 H 121.876 -6.76982 1.68347 0
M  V30 1225 H 117.773 -6.43601 0.494803 0
M  V30 1226 H 118.541 -7.96055 1.90367 0
M  V30 1227 N 121.204 0.198386 -1.56346 0
M  V30 1228 C 122.152 1.26538 -1.95169 0
M  V30 1229 C 123.146 1.47295 -0.836685 0
M  V30 1230 O 124.352 1.48195 -1.02167 0
M  V30 1231 H 120.727 0.424744 -0.620561 0
M  V30 1232 H 122.698 0.910904 -2.84157 0
M  V30 1233 C 121.447 2.6035 -2.30463 0
M  V30 1234 H 120.77 2.45192 -3.15786 0
M  V30 1235 H 122.21 3.33762 -2.61494 0
M  V30 1236 C 120.669 3.17096 -1.13806 0
M  V30 1237 O 121.199 3.99588 -0.41135 0
M  V30 1238 N 119.405 2.75795 -0.915736 0
M  V30 1239 H 118.952 2.08816 -1.50843 0
M  V30 1240 H 118.91 3.14101 -0.136979 0
M  V30 1241 N 122.682 1.50554 0.465978 0
M  V30 1242 C 123.612 1.72722 1.57128 0
M  V30 1243 C 124.593 0.576294 1.6004 0
M  V30 1244 O 125.778 0.81598 1.76225 0
M  V30 1245 C 122.908 1.82605 2.95419 0
M  V30 1246 C 121.862 2.97835 3.07373 0
M  V30 1247 C 121.188 2.92867 4.47363 0
M  V30 1248 C 122.488 4.38265 2.84114 0
M  V30 1249 H 124.182 2.65267 1.38829 0
M  V30 1250 H 121.728 1.2765 0.666441 0
M  V30 1251 H 123.681 1.96698 3.72677 0
M  V30 1252 H 122.405 0.866858 3.14886 0
M  V30 1253 H 121.064 2.83401 2.3255 0
M  V30 1254 H 120.712 1.94783 4.63755 0
M  V30 1255 H 120.412 3.70227 4.56296 0
M  V30 1256 H 121.936 3.09015 5.26633 0
M  V30 1257 H 123.35 4.53198 3.51118 0
M  V30 1258 H 121.747 5.17115 3.04487 0
M  V30 1259 H 122.817 4.50281 1.7993 0
M  V30 1260 N 124.16 -0.719506 1.40217 0
M  V30 1261 C 125.437 -1.47221 1.28784 0
M  V30 1262 C 125.817 -2.10883 -0.0956067 0
M  V30 1263 O 125.165 -1.99833 -1.10811 0
M  V30 1264 C 125.375 -2.5111 2.42373 0
M  V30 1265 C 126.723 -3.17053 2.82423 0
M  V30 1266 O 127.747 -2.61429 2.41937 0
M  V30 1267 O 126.606 -4.17742 3.52355 0
M  V30 1268 H 123.7 -0.654491 0.50554 0
M  V30 1269 H 126.246 -0.752014 1.52128 0
M  V30 1270 H 125.018 -2.02556 3.34793 0
M  V30 1271 H 124.641 -3.3067 2.20778 0
M  V30 1272 N 125.638 -1.25649 -0.95132 0
M  V30 1273 C 126.885 -1.10594 -1.69633 0
M  V30 1274 C 127.213 0.352515 -1.91279 0
M  V30 1275 O 126.468 1.27601 -1.4838 0
M  V30 1276 C 126.767 -1.80909 -3.08231 0
M  V30 1277 C 126.433 -3.30825 -3.06375 0
M  V30 1278 C 125.095 -3.71722 -3.05576 0
M  V30 1279 C 127.447 -4.26589 -2.99452 0
M  V30 1280 C 124.775 -5.06788 -2.95606 0
M  V30 1281 C 127.127 -5.61683 -2.91024 0
M  V30 1282 C 125.791 -6.01904 -2.88562 0
M  V30 1283 H 125.061 -0.404691 -0.620731 0
M  V30 1284 H 127.708 -1.55964 -1.11119 0
M  V30 1285 H 126.013 -1.27979 -3.70309 0
M  V30 1286 H 127.71 -1.6671 -3.64704 0
M  V30 1287 H 124.3 -2.98287 -3.07771 0
M  V30 1288 H 128.484 -3.95982 -2.99185 0
M  V30 1289 H 123.74 -5.37126 -2.92071 0
M  V30 1290 H 127.914 -6.35578 -2.84629 0
M  V30 1291 H 125.541 -7.06521 -2.80593 0
M  V30 1292 N 127.117 1.15442 -1.07289 0
M  V30 1293 C 128.363 1.8672 -0.806679 0
M  V30 1294 C 128.718 1.80723 0.660084 0
M  V30 1295 O 128.011 1.21902 1.47819 0
M  V30 1296 C 128.205 3.3489 -1.24834 0
M  V30 1297 C 128.034 3.55313 -2.7565 0
M  V30 1298 C 126.804 3.7082 -3.4325 0
M  V30 1299 C 129.002 3.53188 -3.73848 0
M  V30 1300 N 126.984 3.7929 -4.82713 0
M  V30 1301 C 128.355 3.67765 -4.99149 0
M  V30 1302 C 130.41 3.36459 -3.67015 0
M  V30 1303 C 129.113 3.6734 -6.18428 0
M  V30 1304 C 131.139 3.37333 -4.85758 0
M  V30 1305 C 130.501 3.52438 -6.09891 0
M  V30 1306 H 126.6 0.700433 -0.347733 0
M  V30 1307 H 129.184 1.38441 -1.36902 0
M  V30 1308 H 127.355 3.81786 -0.713713 0
M  V30 1309 H 129.087 3.93875 -0.929745 0
M  V30 1310 H 125.842 3.71568 -2.93656 0
M  V30 1311 H 126.266 3.8727 -5.55294 0
M  V30 1312 H 130.908 3.237 -2.71989 0
M  V30 1313 H 128.626 3.78878 -7.13777 0
M  V30 1314 H 132.212 3.25617 -4.82146 0
M  V30 1315 H 131.092 3.53047 -7.00234 0
M  V30 1316 N 128.595 0.856903 1.32268 0
M  V30 1317 C 130.011 0.547061 1.49931 0
M  V30 1318 C 130.211 -0.921781 1.7918 0
M  V30 1319 O 129.267 -1.70469 1.8627 0
M  V30 1320 C 130.58 1.43599 2.64196 0
M  V30 1321 C 132.128 1.43665 2.78081 0
M  V30 1322 C 132.603 2.31085 3.95428 0
M  V30 1323 N 134.094 2.28893 4.02694 0
M  V30 1324 C 134.829 2.93262 4.92732 0
M  V30 1325 N 134.325 3.66751 5.87763 0
M  V30 1326 N 136.118 2.82638 4.85873 0
M  V30 1327 H 128.269 1.8075 1.11549 0
M  V30 1328 H 130.532 0.772144 0.549997 0
M  V30 1329 H 130.238 2.48058 2.49319 0
M  V30 1330 H 130.112 1.12502 3.60032 0
M  V30 1331 H 132.499 0.399701 2.92381 0
M  V30 1332 H 132.58 1.7878 1.82952 0
M  V30 1333 H 132.224 3.34849 3.81888 0
M  V30 1334 H 132.154 1.93302 4.89839 0
M  V30 1335 H 134.645 1.75466 3.34694 0
M  V30 1336 H 134.958 4.13027 6.53168 0
M  V30 1337 H 133.303 3.70859 5.87783 0
M  V30 1338 H 136.494 2.24774 4.10602 0
M  V30 1339 H 136.667 3.33084 5.55841 0
M  V30 1340 N 130.073 -1.45103 0.615059 0
M  V30 1341 C 131.02 -2.30586 -0.0993978 0
M  V30 1342 C 131.99 -1.42544 -0.852669 0
M  V30 1343 O 133.175 -1.71465 -0.836917 0
M  V30 1344 C 130.315 -3.27572 -1.08583 0
M  V30 1345 C 129.428 -4.30717 -0.332656 0
M  V30 1346 C 128.563 -5.14807 -1.30947 0
M  V30 1347 C 127.602 -6.09673 -0.544538 0
M  V30 1348 N 126.739 -6.86517 -1.47101 0
M  V30 1349 H 131.579 -2.91144 0.635542 0
M  V30 1350 H 129.116 -1.4346 0.325206 0
M  V30 1351 H 131.074 -3.82276 -1.67095 0
M  V30 1352 H 129.704 -2.68751 -1.78809 0
M  V30 1353 H 128.756 -3.78615 0.368107 0
M  V30 1354 H 130.068 -4.98102 0.263842 0
M  V30 1355 H 129.222 -5.73948 -1.96643 0
M  V30 1356 H 127.961 -4.47458 -1.9399 0
M  V30 1357 H 126.966 -5.49656 0.126003 0
M  V30 1358 H 128.191 -6.79052 0.080947 0
M  V30 1359 H 126.137 -6.21851 -2.08895 0
M  V30 1360 H 126.054 -7.50281 -0.928137 0
M  V30 1361 H 127.322 -7.50194 -2.11731 0
M  V30 1362 N 131.551 -0.354651 -1.53558 0
M  V30 1363 C 132.499 0.512195 -2.26891 0
M  V30 1364 C 133.493 1.09263 -1.29452 0
M  V30 1365 O 134.699 1.03709 -1.47121 0
M  V30 1366 H 131.074 0.183878 -0.729173 0
M  V30 1367 H 133.045 -0.128202 -2.98124 0
M  V30 1368 C 131.794 1.64563 -3.06291 0
M  V30 1369 H 131.117 1.20829 -3.81104 0
M  V30 1370 H 132.557 2.22711 -3.60799 0
M  V30 1371 C 131.016 2.58158 -2.16462 0
M  V30 1372 O 131.546 3.60695 -1.76811 0
M  V30 1373 N 129.752 2.27096 -1.81317 0
M  V30 1374 H 129.299 1.43751 -2.1376 0
M  V30 1375 H 129.257 2.89975 -1.21498 0
M  V30 1376 N 133.029 1.57378 -0.0835403 0
M  V30 1377 C 134.275 1.94217 0.583733 0
M  V30 1378 C 134.608 0.964653 1.68547 0
M  V30 1379 O 133.883 -0.00422258 1.945 0
M  V30 1380 C 134.166 3.41253 1.14972 0
M  V30 1381 C 134.019 4.49768 0.0538277 0
M  V30 1382 C 135.338 3.89352 2.05166 0
M  V30 1383 H 132.457 0.706233 0.210724 0
M  V30 1384 H 135.099 1.89392 -0.1519 0
M  V30 1385 H 133.249 3.45496 1.77665 0
M  V30 1386 H 134.921 4.57641 -0.579851 0
M  V30 1387 H 133.164 4.29432 -0.614068 0
M  V30 1388 H 133.835 5.49817 0.490452 0
M  V30 1389 H 136.311 3.87189 1.52393 0
M  V30 1390 H 135.187 4.92822 2.41698 0
M  V30 1391 H 135.448 3.27973 2.96456 0
M  V30 1392 N 134.507 -0.190092 1.56449 0
M  V30 1393 C 135.457 -1.23977 1.91347 0
M  V30 1394 C 136.441 -1.40747 0.779693 0
M  V30 1395 O 137.633 -1.43033 1.04262 0
M  V30 1396 C 134.762 -2.58347 2.26079 0
M  V30 1397 C 133.848 -2.4535 3.45925 0
M  V30 1398 N 134.239 -2.02039 4.63696 0
M  V30 1399 C 132.537 -2.76229 3.50162 0
M  V30 1400 C 133.238 -2.01053 5.4585 0
M  V30 1401 N 132.214 -2.42747 4.8639 0
M  V30 1402 H 136.016 -0.896318 2.79899 0
M  V30 1403 H 133.53 -0.398496 1.57435 0
M  V30 1404 H 135.527 -3.34173 2.49267 0
M  V30 1405 H 134.187 -2.93512 1.38856 0
M  V30 1406 H 135.198 -1.7267 4.88268 0
M  V30 1407 H 131.875 -3.15556 2.73369 0
M  V30 1408 H 133.265 -1.69426 6.50188 0
M  V30 1409 N 135.985 -1.50799 -0.457987 0
M  V30 1410 C 136.918 -1.65273 -1.57353 0
M  V30 1411 C 137.896 -0.500578 -1.54703 0
M  V30 1412 O 139.08 -0.721781 -1.74134 0
M  V30 1413 C 136.207 -1.64737 -2.95938 0
M  V30 1414 C 135.253 -2.8567 -3.16693 0
M  V30 1415 S 136.086 -4.46791 -2.95191 0
M  V30 1416 C 137.242 -4.48968 -4.36095 0
M  V30 1417 H 137.475 -2.59633 -1.44838 0
M  V30 1418 H 135.008 -1.40225 -0.64625 0
M  V30 1419 H 136.966 -1.65112 -3.7583 0
M  V30 1420 H 135.627 -0.715899 -3.05833 0
M  V30 1421 H 134.82 -2.81637 -4.17967 0
M  V30 1422 H 134.422 -2.8293 -2.44594 0
M  V30 1423 H 136.714 -4.23337 -5.28954 0
M  V30 1424 H 137.657 -5.50664 -4.45168 0
M  V30 1425 H 138.065 -3.78522 -4.18786 0
M  V30 1426 N 137.463 0.71206 -1.40597 0
M  V30 1427 C 138.411 1.84746 -1.41321 0
M  V30 1428 C 139.405 1.66842 -0.293268 0
M  V30 1429 O 140.611 1.73904 -0.464481 0
M  V30 1430 H 136.986 0.608522 -0.441819 0
M  V30 1431 H 138.957 1.81252 -2.37045 0
M  V30 1432 C 137.706 3.22638 -1.29614 0
M  V30 1433 H 137.029 3.37023 -2.15071 0
M  V30 1434 H 138.469 4.02209 -1.3418 0
M  V30 1435 C 136.928 3.36899 -0.00673121 0
M  V30 1436 O 137.458 3.90186 0.954859 0
M  V30 1437 N 135.664 2.9053 0.0639327 0
M  V30 1438 H 135.211 2.47353 -0.719311 0
M  V30 1439 H 135.169 3.0045 0.926118 0
M  V30 1440 N 138.941 1.26152 0.944643 0
M  V30 1441 C 140.218 1.02247 1.66748 0
M  V30 1442 C 140.598 -0.448202 2.06287 0
M  V30 1443 O 139.946 -1.42779 1.78399 0
M  V30 1444 C 140.156 1.96788 2.88228 0
M  V30 1445 C 141.504 2.25201 3.59958 0
M  V30 1446 O 142.528 1.94626 2.98327 0
M  V30 1447 O 141.387 2.77242 4.70956 0
M  V30 1448 H 138.481 0.388517 0.730057 0
M  V30 1449 H 141.027 1.37348 0.99668 0
M  V30 1450 H 139.799 2.96047 2.55875 0
M  V30 1451 H 139.422 1.62145 3.63035 0
M  V30 1452 N 140.419 -1.14872 1.07899 0
M  V30 1453 C 141.367 -2.21857 0.698727 0
M  V30 1454 C 142.361 -1.66845 -0.293086 0
M  V30 1455 O 143.567 -1.79321 -0.156204 0
M  V30 1456 H 139.942 -0.722691 0.207899 0
M  V30 1457 H 141.913 -2.51205 1.61054 0
M  V30 1458 C 140.662 -3.47498 0.11858 0
M  V30 1459 H 139.985 -3.90154 0.872914 0
M  V30 1460 H 141.425 -4.23858 -0.109759 0
M  V30 1461 C 139.884 -3.16947 -1.1422 0
M  V30 1462 O 140.414 -3.3426 -2.22785 0
M  V30 1463 N 138.62 -2.70946 -1.05055 0
M  V30 1464 H 138.167 -2.57058 -0.167038 0
M  V30 1465 H 138.125 -2.50879 -1.89491 0
M  V30 1466 N 141.898 -0.863906 -1.31812 0
M  V30 1467 C 143.144 -0.472535 -1.97218 0
M  V30 1468 C 143.477 0.971394 -1.68159 0
M  V30 1469 O 142.752 1.68309 -0.974798 0
M  V30 1470 C 143.035 -0.723054 -3.52766 0
M  V30 1471 C 142.888 -2.21608 -3.91421 0
M  V30 1472 C 144.207 -0.185522 -4.39709 0
M  V30 1473 H 141.326 -0.173158 -0.71637 0
M  V30 1474 H 143.968 -1.08403 -1.56041 0
M  V30 1475 H 142.118 -0.202577 -3.87971 0
M  V30 1476 H 143.79 -2.80334 -3.66347 0
M  V30 1477 H 142.033 -2.691 -3.40246 0
M  V30 1478 H 142.704 -2.34203 -4.99853 0
M  V30 1479 H 145.18 -0.630726 -4.11292 0
M  V30 1480 H 144.056 -0.390306 -5.47511 0
M  V30 1481 H 144.317 0.912229 -4.32586 0
M  V30 1482 N 143.376 1.44774 -0.622745 0
M  V30 1483 C 144.306 2.33382 0.0741861 0
M  V30 1484 C 145.287 1.47719 0.843387 0
M  V30 1485 O 146.472 1.76458 0.810934 0
M  V30 1486 C 143.602 3.30663 1.06204 0
M  V30 1487 C 142.556 4.26079 0.405037 0
M  V30 1488 C 141.882 5.13165 1.5022 0
M  V30 1489 C 143.182 5.1781 -0.683414 0
M  V30 1490 H 144.876 2.91905 -0.665713 0
M  V30 1491 H 142.422 1.40363 -0.321587 0
M  V30 1492 H 144.375 3.9153 1.55827 0
M  V30 1493 H 143.099 2.70331 1.83272 0
M  V30 1494 H 141.758 3.66532 -0.0704683 0
M  V30 1495 H 141.406 4.49191 2.26355 0
M  V30 1496 H 141.106 5.77812 1.06803 0
M  V30 1497 H 142.63 5.76902 2.00041 0
M  V30 1498 H 144.044 5.72661 -0.270631 0
M  V30 1499 H 142.441 5.91015 -1.04023 0
M  V30 1500 H 143.511 4.59326 -1.55395 0
M  V30 1501 N 144.854 0.36279 1.53368 0
M  V30 1502 C 145.804 -0.501391 2.22419 0
M  V30 1503 C 146.788 -1.0509 1.2184 0
M  V30 1504 O 147.98 -0.981404 1.47301 0
M  V30 1505 C 145.109 -1.64201 3.01484 0
M  V30 1506 C 144.195 -1.10552 4.09438 0
M  V30 1507 N 144.586 -0.291788 5.04958 0
M  V30 1508 C 142.884 -1.3806 4.24094 0
M  V30 1509 C 143.585 0.00162655 5.817 0
M  V30 1510 N 142.561 -0.595244 5.40331 0
M  V30 1511 H 146.363 0.127159 2.93625 0
M  V30 1512 H 143.877 0.170658 1.61501 0
M  V30 1513 H 145.874 -2.27326 3.49469 0
M  V30 1514 H 144.534 -2.27365 2.31809 0
M  V30 1515 H 145.545 0.0687731 5.17854 0
M  V30 1516 H 142.222 -2.01522 3.65644 0
M  V30 1517 H 143.612 0.659278 6.68658 0
M  V30 1518 N 146.332 -1.57332 0.0918853 0
M  V30 1519 C 147.557 -1.98995 -0.584442 0
M  V30 1520 C 147.982 -0.970528 -1.61128 0
M  V30 1521 O 147.34 0.0613904 -1.81196 0
M  V30 1522 C 147.388 -3.39636 -1.21161 0
M  V30 1523 O 146.492 -3.40447 -2.32744 0
M  V30 1524 H 145.833 -0.647165 -0.148572 0
M  V30 1525 H 148.363 -2.03873 0.172347 0
M  V30 1526 H 148.373 -3.7726 -1.55367 0
M  V30 1527 H 147.048 -4.13356 -0.459313 0
M  V30 1528 H 145.625 -3.14614 -2.0018 0
M  V30 1529 N 147.81 0.181792 -1.56548 0
M  V30 1530 C 148.773 1.20894 -1.94724 0
M  V30 1531 C 149.773 1.37738 -0.829747 0
M  V30 1532 O 150.963 1.35323 -1.09697 0
M  V30 1533 C 148.095 2.57593 -2.23291 0
M  V30 1534 H 149.288 0.882275 -2.86629 0
M  V30 1535 H 146.841 0.423838 -1.50444 0
M  V30 1536 H 147.576 2.95291 -1.34067 0
M  V30 1537 H 147.361 2.46735 -3.04736 0
M  V30 1538 H 148.851 3.31637 -2.53785 0
M  V30 1539 N 149.288 1.51039 0.449983 0
M  V30 1540 C 150.535 1.63081 1.20045 0
M  V30 1541 C 150.863 0.341024 1.91487 0
M  V30 1542 O 150.118 -0.674276 1.83717 0
M  V30 1543 C 150.417 2.77556 2.25161 0
M  V30 1544 C 150.083 4.17289 1.70823 0
M  V30 1545 C 148.745 4.55305 1.55725 0
M  V30 1546 C 151.097 5.04536 1.3074 0
M  V30 1547 C 148.425 5.78287 0.989999 0
M  V30 1548 C 150.777 6.28085 0.754482 0
M  V30 1549 C 149.441 6.64885 0.590308 0
M  V30 1550 H 148.711 0.596755 0.439277 0
M  V30 1551 H 151.358 1.85037 0.49333 0
M  V30 1552 H 149.663 2.49771 3.01863 0
M  V30 1553 H 151.36 2.84073 2.83026 0
M  V30 1554 H 147.95 3.8731 1.83546 0
M  V30 1555 H 152.134 4.75782 1.41229 0
M  V30 1556 H 147.39 6.05456 0.850451 0
M  V30 1557 H 151.564 6.95038 0.435324 0
M  V30 1558 H 149.191 7.60055 0.14862 0
M  V30 1559 N 150.766 -0.704594 1.40972 0
M  V30 1560 C 151.676 -1.84856 1.44448 0
M  V30 1561 C 152.692 -1.70726 0.335961 0
M  V30 1562 O 153.868 -1.92799 0.582276 0
M  V30 1563 C 150.933 -3.20758 1.31587 0
M  V30 1564 C 149.994 -3.47063 2.52677 0
M  V30 1565 C 149.227 -4.76481 2.4042 0
M  V30 1566 O 149.45 -5.52341 1.42391 0
M  V30 1567 O 148.384 -5.03367 3.30007 0
M  V30 1568 H 152.21 -1.8488 2.40942 0
M  V30 1569 H 149.795 -0.85647 1.22413 0
M  V30 1570 H 151.677 -4.01913 1.26665 0
M  V30 1571 H 150.352 -3.21438 0.382049 0
M  V30 1572 H 149.259 -2.65873 2.63177 0
M  V30 1573 H 150.592 -3.5119 3.44858 0
M  V30 1574 N 152.244 -1.26651 -0.937939 0
M  V30 1575 C 153.49 -1.12553 -1.687 0
M  V30 1576 C 153.823 0.329782 -1.91379 0
M  V30 1577 O 153.098 1.24202 -1.4968 0
M  V30 1578 C 153.381 -1.89862 -3.05981 0
M  V30 1579 C 153.234 -3.43318 -2.90607 0
M  V30 1580 C 154.553 -1.69499 -4.0615 0
M  V30 1581 H 151.672 -0.410257 -0.612257 0
M  V30 1582 H 154.314 -1.55685 -1.08913 0
M  V30 1583 H 152.464 -1.53204 -3.57017 0
M  V30 1584 H 154.136 -3.89747 -2.46769 0
M  V30 1585 H 152.379 -3.70179 -2.26164 0
M  V30 1586 H 153.05 -3.92642 -3.8799 0
M  V30 1587 H 155.526 -2.01442 -3.64088 0
M  V30 1588 H 154.402 -2.26002 -5.00214 0
M  V30 1589 H 154.663 -0.640365 -4.37438 0
M  V30 1590 N 153.722 1.14298 -1.08507 0
M  V30 1591 C 154.97 1.84993 -0.813763 0
M  V30 1592 C 155.291 1.83405 0.662393 0
M  V30 1593 O 154.561 1.28319 1.48024 0
M  V30 1594 H 153.141 0.684966 -0.298045 0
M  V30 1595 H 155.803 1.385 -1.37126 0
M  V30 1596 H 154.899 2.89788 -1.15884 0
M  V30 1597 N 155.201 0.870884 1.31352 0
M  V30 1598 C 156.164 0.332243 2.26779 0
M  V30 1599 C 157.164 -0.517302 1.52252 0
M  V30 1600 O 158.354 -0.326477 1.71113 0
M  V30 1601 C 155.486 -0.528066 3.36785 0
M  V30 1602 H 156.679 1.17469 2.75937 0
M  V30 1603 H 154.232 0.64655 1.423 0
M  V30 1604 H 154.967 -1.39167 2.92922 0
M  V30 1605 H 154.752 0.0802582 3.92018 0
M  V30 1606 H 156.242 -0.897179 4.07849 0
M  V30 1607 N 156.679 -1.44442 0.630414 0
M  V30 1608 C 158.095 -1.56832 0.295973 0
M  V30 1609 C 158.295 -1.61806 -1.20088 0
M  V30 1610 O 157.351 -1.5607 -1.9849 0
M  V30 1611 C 158.664 -2.84031 0.987264 0
M  V30 1612 C 160.212 -2.97742 0.96534 0
M  V30 1613 C 160.687 -4.27743 1.63708 0
M  V30 1614 N 162.178 -4.34555 1.60364 0
M  V30 1615 C 162.913 -5.33862 2.09234 0
M  V30 1616 N 162.409 -6.39578 2.66292 0
M  V30 1617 N 164.202 -5.25366 1.99867 0
M  V30 1618 H 156.353 -1.39457 1.60205 0
M  V30 1619 H 158.616 -0.668237 0.672431 0
M  V30 1620 H 158.322 -2.86338 2.04215 0
M  V30 1621 H 158.196 -3.73534 0.524588 0
M  V30 1622 H 160.583 -2.94989 -0.0810639 0
M  V30 1623 H 160.664 -2.09589 1.4665 0
M  V30 1624 H 160.308 -4.31255 2.68293 0
M  V30 1625 H 160.238 -5.14752 1.11076 0
M  V30 1626 H 162.729 -3.58772 1.18705 0
M  V30 1627 H 163.042 -7.11637 3.01317 0
M  V30 1628 H 161.387 -6.40265 2.70343 0
M  V30 1629 H 164.578 -4.41688 1.55013 0
M  V30 1630 H 164.751 -6.02606 2.38265 0
M  V30 1631 N 158.157 -0.370918 -1.53173 0
M  V30 1632 C 159.104 0.473035 -2.259 0
M  V30 1633 C 160.074 1.07311 -1.26781 0
M  V30 1634 O 161.259 1.1046 -1.55574 0
M  V30 1635 C 158.399 1.60405 -3.05556 0
M  V30 1636 C 157.512 1.02863 -4.19575 0
M  V30 1637 C 156.647 2.12918 -4.86661 0
M  V30 1638 C 155.686 1.52869 -5.92704 0
M  V30 1639 N 154.823 2.56779 -6.53459 0
M  V30 1640 H 159.663 -0.153649 -2.97604 0
M  V30 1641 H 157.2 -0.0875946 -1.46839 0
M  V30 1642 H 159.158 2.27034 -3.50016 0
M  V30 1643 H 157.788 2.20131 -2.36097 0
M  V30 1644 H 156.84 0.252465 -3.79561 0
M  V30 1645 H 158.152 0.549642 -4.95762 0
M  V30 1646 H 157.306 2.87356 -5.34333 0
M  V30 1647 H 156.045 2.6417 -4.09958 0
M  V30 1648 H 155.05 0.769479 -5.44389 0
M  V30 1649 H 156.275 1.02435 -6.7133 0
M  V30 1650 H 154.221 3.07235 -5.79606 0
M  V30 1651 H 154.138 2.13583 -7.25202 0
M  V30 1652 H 155.406 3.30903 -7.05779 0
M  V30 1653 N 159.635 1.57281 -0.100228 0
M  V30 1654 C 160.881 1.94826 0.563101 0
M  V30 1655 C 161.214 0.982475 1.67514 0
M  V30 1656 O 160.489 0.0164069 1.94493 0
M  V30 1657 C 160.772 3.42453 1.11346 0
M  V30 1658 C 160.625 4.498 0.00612081 0
M  V30 1659 C 161.944 3.91506 2.01024 0
M  V30 1660 H 159.063 0.708428 0.203221 0
M  V30 1661 H 161.705 1.8922 -0.171979 0
M  V30 1662 H 159.855 3.47361 1.7399 0
M  V30 1663 H 161.527 4.57 -0.628357 0
M  V30 1664 H 159.77 4.28756 -0.659581 0
M  V30 1665 H 160.441 5.50306 0.432109 0
M  V30 1666 H 162.917 3.88784 1.48278 0
M  V30 1667 H 161.793 4.95358 2.36457 0
M  V30 1668 H 162.054 3.31099 2.92961 0
M  V30 1669 N 161.113 -0.173488 1.56642 0
M  V30 1670 C 162.359 -0.891784 1.8214 0
M  V30 1671 C 162.692 -1.8199 0.677736 0
M  V30 1672 O 161.967 -1.91842 -0.320446 0
M  V30 1673 C 162.25 -1.68933 3.18015 0
M  V30 1674 C 162.103 -0.784487 4.42906 0
M  V30 1675 C 163.422 -2.65748 3.50808 0
M  V30 1676 H 160.541 -0.322761 0.662567 0
M  V30 1677 H 163.183 -0.158095 1.89341 0
M  V30 1678 H 161.333 -2.31482 3.12007 0
M  V30 1679 H 163.005 -0.172046 4.60979 0
M  V30 1680 H 161.248 -0.0924117 4.33702 0
M  V30 1681 H 161.919 -1.37799 5.34524 0
M  V30 1682 H 164.395 -2.13327 3.57255 0
M  V30 1683 H 163.271 -3.18619 4.4696 0
M  V30 1684 H 163.532 -3.45842 2.75401 0
M  V30 1685 N 162.591 -1.51276 -0.441967 0
M  V30 1686 C 163.816 -1.67799 -1.21895 0
M  V30 1687 C 164.241 -0.372864 -1.84367 0
M  V30 1688 O 163.599 0.666501 -1.68604 0
M  V30 1689 C 163.647 -2.79199 -2.28211 0
M  V30 1690 O 162.751 -2.42479 -3.33583 0
M  V30 1691 H 162.092 -0.559649 -0.357336 0
M  V30 1692 H 164.622 -1.97815 -0.522522 0
M  V30 1693 H 164.632 -3.03146 -2.73069 0
M  V30 1694 H 163.307 -3.73906 -1.82118 0
M  V30 1695 H 161.884 -2.29087 -2.94234 0
M  V30 1696 N 164.069 0.697108 -1.41344 0
M  V30 1697 C 165.309 1.46939 -1.42085 0
M  V30 1698 C 165.673 1.9198 -0.0280397 0
M  V30 1699 O 166.874 2.6865 0.0897504 0
M  V30 1700 C 165.145 2.64985 -2.39828 0
M  V30 1701 S 166.704 3.54147 -2.59085 0
M  V30 1702 H 163.522 0.502146 -0.503359 0
M  V30 1703 H 166.124 0.813546 -1.77769 0
M  V30 1704 H 164.828 2.30098 -3.39828 0
M  V30 1705 H 164.359 3.35464 -2.05493 0
M  V30 1706 H 166.374 4.60137 -1.85711 0
M  V30 1707 N 165.547 1.27147 0.931209 0
M  V30 1708 C 166.477 1.12081 2.04842 0
M  V30 1709 C 167.458 0.0232364 1.70084 0
M  V30 1710 O 168.643 0.197085 1.93197 0
M  V30 1711 C 165.773 0.76354 3.38803 0
M  V30 1712 C 164.727 1.81396 3.87659 0
M  V30 1713 C 164.053 1.31075 5.18385 0
M  V30 1714 C 165.353 3.21739 4.11438 0
M  V30 1715 H 167.047 2.05537 2.17703 0
M  V30 1716 H 164.593 0.989603 1.04608 0
M  V30 1717 H 166.546 0.644982 4.16435 0
M  V30 1718 H 165.27 -0.206727 3.25945 0
M  V30 1719 H 163.929 1.92136 3.12217 0
M  V30 1720 H 163.577 0.330037 5.01916 0
M  V30 1721 H 163.277 2.013 5.52044 0
M  V30 1722 H 164.801 1.20506 5.98591 0
M  V30 1723 H 166.215 3.14019 4.79651 0
M  V30 1724 H 164.612 3.89644 4.56397 0
M  V30 1725 H 165.682 3.67054 3.16859 0
M  V30 1726 N 167.025 -1.13721 1.09112 0
M  V30 1727 C 168.25 -1.89314 0.847053 0
M  V30 1728 C 168.675 -1.78416 -0.595774 0
M  V30 1729 O 168.033 -1.12942 -1.41823 0
M  V30 1730 C 168.081 -3.3701 1.28284 0
M  V30 1731 O 167.185 -4.10054 0.439267 0
M  V30 1732 H 166.526 -0.588745 0.307044 0
M  V30 1733 H 169.056 -1.43902 1.45442 0
M  V30 1734 H 169.066 -3.87834 1.26683 0
M  V30 1735 H 167.741 -3.4426 2.33363 0
M  V30 1736 H 166.318 -3.69266 0.519312 0
M  V30 1737 N 168.503 -0.877838 -1.30888 0
M  V30 1738 C 169.731 -0.507414 -2.00581 0
M  V30 1739 C 170.146 0.902216 -1.65848 0
M  V30 1740 O 169.503 1.59225 -0.891831 0
M  V30 1741 C 169.554 -0.664162 -3.55347 0
M  V30 1742 O 169.275 -2.01829 -3.8884 0
M  V30 1743 C 170.776 -0.295787 -4.42312 0
M  V30 1744 H 167.996 -0.196866 -0.641471 0
M  V30 1745 H 170.54 -1.18117 -1.66939 0
M  V30 1746 H 168.695 -0.0378619 -3.87381 0
M  V30 1747 H 169.109 -2.03174 -4.8355 0
M  V30 1748 H 170.583 -0.456388 -5.5011 0
M  V30 1749 H 171.06 0.765663 -4.32475 0
M  V30 1750 H 171.666 -0.898113 -4.15709 0
M  V30 1751 N 169.982 1.44106 -0.638065 0
M  V30 1752 C 171.222 2.03858 -0.148733 0
M  V30 1753 C 171.586 1.49153 1.20903 0
M  V30 1754 O 172.787 2.00452 1.79088 0
M  V30 1755 C 171.058 3.57117 -0.142314 0
M  V30 1756 S 172.617 4.37897 0.281385 0
M  V30 1757 H 169.435 0.708069 -0.0644912 0
M  V30 1758 H 172.037 1.7639 -0.843009 0
M  V30 1759 H 170.741 3.94436 -1.13349 0
M  V30 1760 H 170.272 3.89205 0.572988 0
M  V30 1761 H 172.287 4.72218 1.52395 0
M  V30 1762 N 171.46 0.379036 1.52974 0
M  V30 1763 C 172.709 -0.207612 2.00629 0
M  V30 1764 C 173.022 -1.48758 1.27006 0
M  V30 1765 O 174.228 -2.15365 1.65318 0
M  V30 1766 C 172.684 -0.42053 3.57435 0
M  V30 1767 C 172.292 0.845587 4.39948 0
M  V30 1768 C 174.036 -0.964102 4.13407 0
M  V30 1769 C 171.943 0.601513 5.88333 0
M  V30 1770 H 170.873 -0.0813591 0.749598 0
M  V30 1771 H 173.524 0.499853 1.76561 0
M  V30 1772 H 171.906 -1.18959 3.7771 0
M  V30 1773 H 173.08 1.61848 4.31442 0
M  V30 1774 H 171.395 1.31336 3.95145 0
M  V30 1775 H 173.992 -1.16225 5.21916 0
M  V30 1776 H 174.335 -1.93019 3.68849 0
M  V30 1777 H 174.868 -0.25487 3.96983 0
M  V30 1778 H 171.607 1.53831 6.37194 0
M  V30 1779 H 171.127 -0.132628 5.99653 0
M  V30 1780 H 172.806 0.232134 6.46583 0
M  V30 1781 N 172.938 -1.57226 0.108567 0
M  V30 1782 C 174.185 -1.94833 -0.551943 0
M  V30 1783 C 174.513 -0.991204 -1.67348 0
M  V30 1784 O 173.768 -0.0131878 -1.95696 0
M  V30 1785 C 174.067 -3.38911 -1.13463 0
M  V30 1786 C 173.733 -4.50696 -0.135509 0
M  V30 1787 C 172.395 -4.80998 0.139252 0
M  V30 1788 C 174.747 -5.18333 0.545957 0
M  V30 1789 C 172.075 -5.76259 1.10194 0
M  V30 1790 C 174.427 -6.14627 1.49721 0
M  V30 1791 C 173.091 -6.43327 1.78006 0
M  V30 1792 H 172.361 -0.712944 -0.20197 0
M  V30 1793 H 175.008 -1.90582 0.18726 0
M  V30 1794 H 173.313 -3.39805 -1.95037 0
M  V30 1795 H 175.01 -3.65317 -1.65362 0
M  V30 1796 H 171.6 -4.27087 -0.359846 0
M  V30 1797 H 175.784 -4.95087 0.346842 0
M  V30 1798 H 171.04 -5.96804 1.32795 0
M  V30 1799 H 175.214 -6.66126 2.03099 0
M  V30 1800 H 172.841 -7.1695 2.52759 0
M  V30 1801 N 174.416 0.165178 -1.56732 0
M  V30 1802 C 175.827 0.727046 -1.71962 0
M  V30 1803 C 176.178 1.82508 -0.720078 0
M  V30 1804 O 175.303 2.16082 0.117242 0
M  V30 1805 C 175.898 1.32559 -3.11791 0
M  V30 1806 C 174.457 1.83422 -3.28684 0
M  V30 1807 C 173.604 0.715567 -2.67908 0
M  V30 1808 H 176.555 -0.0602896 -1.58585 0
M  V30 1809 H 176.576 2.19533 -3.10782 0
M  V30 1810 H 176.088 0.526195 -3.84516 0
M  V30 1811 H 174.189 2.65986 -2.60926 0
M  V30 1812 H 174.302 1.97543 -4.36478 0
M  V30 1813 H 172.666 1.13758 -2.27884 0
M  V30 1814 H 173.449 -0.0720836 -3.43224 0
M  V30 1815 N 175.894 1.51508 0.433938 0
M  V30 1816 C 177.171 1.54888 1.19453 0
M  V30 1817 C 177.551 0.315154 2.08734 0
M  V30 1818 O 176.899 -0.699558 2.17528 0
M  V30 1819 C 177.109 2.86467 1.99342 0
M  V30 1820 C 178.457 3.38545 2.56267 0
M  V30 1821 O 179.481 2.88041 2.0955 0
M  V30 1822 O 178.34 4.26675 3.41483 0
M  V30 1823 H 175.434 0.622863 0.544032 0
M  V30 1824 H 177.98 1.63823 0.442732 0
M  V30 1825 H 176.752 3.67718 1.33788 0
M  V30 1826 H 176.375 2.8071 2.8158 0
M  V30 1827 N 177.372 -0.689602 1.41712 0
M  V30 1828 C 178.319 -1.80345 1.44029 0
M  V30 1829 C 179.289 -1.63478 0.293948 0
M  V30 1830 O 180.474 -1.84244 0.495869 0
M  V30 1831 C 177.614 -3.18272 1.33405 0
M  V30 1832 C 176.727 -3.46529 2.57956 0
M  V30 1833 C 175.862 -4.74103 2.39582 0
M  V30 1834 C 174.901 -4.95347 3.5958 0
M  V30 1835 N 174.038 -6.14151 3.40239 0
M  V30 1836 H 178.878 -1.77698 2.39222 0
M  V30 1837 H 176.415 -0.867688 1.18784 0
M  V30 1838 H 178.373 -3.97956 1.25246 0
M  V30 1839 H 177.003 -3.2008 0.418164 0
M  V30 1840 H 176.055 -2.61207 2.76542 0
M  V30 1841 H 177.367 -3.58126 3.47199 0
M  V30 1842 H 176.521 -5.61853 2.28924 0
M  V30 1843 H 175.26 -4.64763 1.47805 0
M  V30 1844 H 174.265 -4.06044 3.70686 0
M  V30 1845 H 175.49 -5.06542 4.52318 0
M  V30 1846 H 173.436 -6.06013 2.51167 0
M  V30 1847 H 173.353 -6.26543 4.23061 0
M  V30 1848 H 174.621 -7.04619 3.33365 0
M  V30 1849 N 178.85 -1.27639 -0.924453 0
M  V30 1850 C 180.078 -1.16989 -1.70649 0
M  V30 1851 C 180.493 0.272869 -1.86818 0
M  V30 1852 O 179.85 1.18549 -1.38753 0
M  V30 1853 C 179.901 -1.85229 -3.10439 0
M  V30 1854 O 179.622 -3.23868 -2.95028 0
M  V30 1855 C 181.123 -1.80746 -4.04779 0
M  V30 1856 H 178.343 -0.406595 -0.53378 0
M  V30 1857 H 180.887 -1.68569 -1.15778 0
M  V30 1858 H 179.042 -1.37545 -3.6216 0
M  V30 1859 H 179.456 -3.57889 -3.83426 0
M  V30 1860 H 180.93 -2.33101 -5.00368 0
M  V30 1861 H 181.407 -0.777499 -4.32263 0
M  V30 1862 H 182.013 -2.28059 -3.58984 0
M  V30 1863 N 180.328 1.1314 -1.09713 0
M  V30 1864 C 181.556 1.88321 -0.856898 0
M  V30 1865 C 181.971 1.79276 0.592073 0
M  V30 1866 O 181.328 1.16142 1.40774 0
M  V30 1867 C 181.379 3.37812 -1.28706 0
M  V30 1868 O 181.1 3.46627 -2.67921 0
M  V30 1869 C 182.601 4.29952 -1.07964 0
M  V30 1870 H 179.821 0.596094 -0.308079 0
M  V30 1871 H 182.365 1.43205 -1.45988 0
M  V30 1872 H 180.52 3.805 -0.727912 0
M  V30 1873 H 180.934 4.39579 -2.8613 0
M  V30 1874 H 182.408 5.33159 -1.42986 0
M  V30 1875 H 182.885 4.39196 -0.0176577 0
M  V30 1876 H 183.491 3.93036 -1.62489 0
M  V30 1877 N 181.806 0.884767 1.30421 0
M  V30 1878 C 183.036 0.517293 2.00019 0
M  V30 1879 C 183.444 -0.898632 1.66497 0
M  V30 1880 O 182.787 -1.60245 0.898181 0
M  V30 1881 C 182.849 0.612025 3.54252 0
M  V30 1882 C 182.513 1.99222 4.1129 0
M  V30 1883 C 183.51 2.9616 4.273 0
M  V30 1884 C 181.195 2.29755 4.46674 0
M  V30 1885 C 183.189 4.21764 4.77906 0
M  V30 1886 C 180.876 3.55606 4.96979 0
M  V30 1887 C 181.874 4.51425 5.12547 0
M  V30 1888 O 181.562 5.75043 5.61766 0
M  V30 1889 H 181.294 0.198529 0.64619 0
M  V30 1890 H 183.848 1.1919 1.67281 0
M  V30 1891 H 182.078 -0.119561 3.86515 0
M  V30 1892 H 183.767 0.255859 4.05093 0
M  V30 1893 H 184.533 2.73882 4.00267 0
M  V30 1894 H 180.412 1.55942 4.33824 0
M  V30 1895 H 183.956 4.96561 4.89972 0
M  V30 1896 H 179.853 3.7772 5.23448 0
M  V30 1897 H 180.621 5.77422 5.80109 0
M  V30 1898 N 183.284 -1.43765 0.645699 0
M  V30 1899 C 184.695 -1.85193 0.236719 0
M  V30 1900 C 185.046 -1.54045 -1.21509 0
M  V30 1901 O 184.171 -0.985694 -1.92647 0
M  V30 1902 C 184.766 -3.36151 0.422845 0
M  V30 1903 C 183.325 -3.76338 0.0682492 0
M  V30 1904 C 182.472 -2.67538 0.729306 0
M  V30 1905 H 185.423 -1.34025 0.849883 0
M  V30 1906 H 185.444 -3.79032 -0.333904 0
M  V30 1907 H 184.956 -3.5879 1.47958 0
M  V30 1908 H 183.057 -3.59312 -0.986179 0
M  V30 1909 H 183.17 -4.76603 0.488469 0
M  V30 1910 H 181.534 -2.54176 0.163235 0
M  V30 1911 H 182.317 -2.93006 1.78892 0
M  V30 1912 N 184.763 -0.387143 -1.52771 0
M  V30 1913 C 186.012 0.19697 -2.00736 0
M  V30 1914 C 186.325 1.48082 -1.27793 0
M  V30 1915 O 187.531 2.14485 -1.66458 0
M  V30 1916 C 185.987 0.401568 -3.57653 0
M  V30 1917 C 185.595 -0.868907 -4.39493 0
M  V30 1918 C 187.339 0.942164 -4.13912 0
M  V30 1919 C 185.246 -0.632705 -5.88006 0
M  V30 1920 H 184.176 0.0773827 -0.750019 0
M  V30 1921 H 186.827 -0.50921 -1.76293 0
M  V30 1922 H 185.209 1.16954 -3.78335 0
M  V30 1923 H 186.383 -1.64133 -4.30577 0
M  V30 1924 H 184.698 -1.33429 -3.94443 0
M  V30 1925 H 187.295 1.13455 -5.22525 0
M  V30 1926 H 187.638 1.9106 -3.69867 0
M  V30 1927 H 188.171 0.233814 -3.97112 0
M  V30 1928 H 184.91 -1.57208 -6.36369 0
M  V30 1929 H 184.43 0.100825 -5.99715 0
M  V30 1930 H 186.109 -0.26642 -6.46451 0
M  V30 1931 N 186.241 1.57166 -0.116904 0
M  V30 1932 C 187.518 1.86645 0.585049 0
M  V30 1933 C 187.898 1.0177 1.84949 0
M  V30 1934 O 187.246 0.0960379 2.28298 0
M  V30 1935 C 187.456 3.37736 0.879507 0
M  V30 1936 C 188.804 4.06289 1.23348 0
M  V30 1937 O 189.828 3.42743 0.969836 0
M  V30 1938 O 188.687 5.18455 1.7282 0
M  V30 1939 H 185.781 0.772593 0.295007 0
M  V30 1940 H 188.327 1.69025 -0.151249 0
M  V30 1941 H 187.099 3.91296 -0.0166136 0
M  V30 1942 H 186.722 3.6078 1.67103 0
M  V30 1943 N 187.719 -0.156864 1.56817 0
M  V30 1944 C 188.629 -1.2136 2.00771 0
M  V30 1945 C 189.645 -1.47598 0.921459 0
M  V30 1946 O 190.821 -1.59462 1.2302 0
M  V30 1947 C 187.886 -2.52943 2.37109 0
M  V30 1948 C 186.947 -2.34439 3.59634 0
M  V30 1949 C 186.18 -3.59748 3.94229 0
M  V30 1950 O 186.403 -4.65526 3.29609 0
M  V30 1951 O 185.337 -3.52998 4.8752 0
M  V30 1952 H 189.163 -0.870468 2.90958 0
M  V30 1953 H 186.748 -0.36484 1.44877 0
M  V30 1954 H 188.63 -3.30538 2.61386 0
M  V30 1955 H 187.305 -2.86806 1.5008 0
M  V30 1956 H 186.212 -1.54828 3.40557 0
M  V30 1957 H 187.545 -2.05496 4.4725 0
M  V30 1958 N 189.197 -1.51736 -0.425897 0
M  V30 1959 C 190.425 -1.68794 -1.1965 0
M  V30 1960 C 190.84 -0.390164 -1.84725 0
M  V30 1961 O 190.197 0.632376 -1.71194 0
M  V30 1962 C 190.248 -2.81174 -2.27208 0
M  V30 1963 O 189.969 -4.05925 -1.64793 0
M  V30 1964 C 191.47 -3.09599 -3.17275 0
M  V30 1965 H 188.69 -0.566128 -0.360194 0
M  V30 1966 H 191.234 -1.98211 -0.503249 0
M  V30 1967 H 189.389 -2.54324 -2.9223 0
M  V30 1968 H 189.803 -4.68423 -2.35967 0
M  V30 1969 H 191.277 -3.91786 -3.88854 0
M  V30 1970 H 191.754 -2.22468 -3.78688 0
M  V30 1971 H 192.36 -3.38151 -2.57941 0
M  V30 1972 N 190.675 0.682077 -1.42076 0
M  V30 1973 C 191.608 1.80666 -1.3941 0
M  V30 1974 C 192.586 1.60518 -0.25939 0
M  V30 1975 O 193.77 1.83088 -0.448456 0
M  V30 1976 C 190.897 3.17556 -1.17796 0
M  V30 1977 C 189.943 3.56468 -2.34164 0
M  V30 1978 S 190.776 3.59729 -3.96681 0
M  V30 1979 C 191.932 4.99323 -3.77395 0
M  V30 1980 H 192.165 1.82652 -2.34575 0
M  V30 1981 H 189.698 0.852062 -1.2876 0
M  V30 1982 H 191.656 3.96575 -1.06012 0
M  V30 1983 H 190.317 3.13164 -0.242279 0
M  V30 1984 H 189.51 4.5595 -2.1477 0
M  V30 1985 H 189.112 2.84792 -2.42425 0
M  V30 1986 H 191.404 5.87202 -3.37935 0
M  V30 1987 H 192.347 5.23763 -4.76527 0
M  V30 1988 H 192.755 4.71498 -3.10403 0
M  V30 1989 N 192.153 1.28127 0.917671 0
M  V30 1990 C 193.402 1.14432 1.66097 0
M  V30 1991 C 193.715 -0.307247 1.93172 0
M  V30 1992 O 194.921 -0.565259 2.65551 0
M  V30 1993 C 193.377 2.00015 2.99202 0
M  V30 1994 C 192.985 3.49889 2.79789 0
M  V30 1995 C 194.729 1.94996 3.77064 0
M  V30 1996 C 192.636 4.27636 4.08511 0
M  V30 1997 H 191.566 0.424662 0.62304 0
M  V30 1998 H 194.217 1.52628 1.01868 0
M  V30 1999 H 192.599 1.54672 3.64544 0
M  V30 2000 H 193.773 4.03162 2.23152 0
M  V30 2001 H 192.088 3.56392 2.15345 0
M  V30 2002 H 194.685 2.50354 4.72469 0
M  V30 2003 H 195.028 0.925819 4.05875 0
M  V30 2004 H 195.561 2.38287 3.18534 0
M  V30 2005 H 192.3 5.30615 3.84874 0
M  V30 2006 H 191.82 3.79137 4.64774 0
M  V30 2007 H 193.499 4.37346 4.76799 0
M  V30 2008 N 193.631 -1.12557 1.10312 0
M  V30 2009 C 194.581 -2.16331 0.720076 0
M  V30 2010 C 195.565 -1.58616 -0.270115 0
M  V30 2011 O 196.757 -1.76823 -0.0790507 0
M  V30 2012 C 193.886 -3.42963 0.152113 0
M  V30 2013 C 192.972 -4.07663 1.16927 0
M  V30 2014 N 193.363 -4.47392 2.35953 0
M  V30 2015 C 191.661 -4.34425 1.0095 0
M  V30 2016 C 192.362 -4.97932 3.0073 0
M  V30 2017 N 191.338 -4.93358 2.28252 0
M  V30 2018 H 195.14 -2.44813 1.62616 0
M  V30 2019 H 192.654 -1.29449 0.980654 0
M  V30 2020 H 194.651 -4.16664 -0.14037 0
M  V30 2021 H 193.311 -3.1595 -0.748701 0
M  V30 2022 H 194.322 -4.39802 2.73486 0
M  V30 2023 H 190.999 -4.17177 0.164134 0
M  V30 2024 H 192.389 -5.38397 4.01969 0
M  V30 2025 N 195.109 -0.891671 -1.2995 0
M  V30 2026 C 196.057 -0.353066 -2.29905 0
M  V30 2027 C 197.051 0.543509 -1.60444 0
M  V30 2028 O 198.257 0.4272 -1.74857 0
M  V30 2029 H 194.632 -0.095531 -0.745907 0
M  V30 2030 H 196.603 -1.20961 -2.72784 0
M  V30 2031 C 195.352 0.411475 -3.45257 0
M  V30 2032 H 194.675 -0.269182 -3.98893 0
M  V30 2033 H 196.115 0.753328 -4.17254 0
M  V30 2034 C 194.574 1.6111 -2.9588 0
M  V30 2035 O 195.104 2.71045 -2.96475 0
M  V30 2036 N 193.31 1.45054 -2.51809 0
M  V30 2037 H 192.857 0.556175 -2.51524 0
M  V30 2038 H 192.815 2.25453 -2.1913 0
M  V30 2039 N 196.587 1.43421 -0.653314 0
M  V30 2040 C 197.835 2.01414 -0.166415 0
M  V30 2041 C 198.156 1.51803 1.22397 0
M  V30 2042 O 197.426 0.730693 1.81763 0
M  V30 2043 H 196.006 0.744703 -0.0585319 0
M  V30 2044 H 198.668 1.75629 -0.845003 0
M  V30 2045 H 197.764 3.11734 -0.151111 0
M  V30 2046 N 198.065 0.39524 1.52563 0
M  V30 2047 C 199.476 -0.0774719 1.86539 0
M  V30 2048 C 199.827 -1.45641 1.31466 0
M  V30 2049 O 198.952 -2.06459 0.648367 0
M  V30 2050 C 199.547 -0.147356 3.38479 0
M  V30 2051 C 198.106 -0.564373 3.72145 0
M  V30 2052 C 197.253 0.269919 2.75983 0
M  V30 2053 H 200.204 0.612876 1.46388 0
M  V30 2054 H 200.225 -0.965343 3.68051 0
M  V30 2055 H 199.737 0.856387 3.78534 0
M  V30 2056 H 197.838 -1.57527 3.37663 0
M  V30 2057 H 197.951 -0.318402 4.78041 0
M  V30 2058 H 196.315 -0.265696 2.5331 0
M  V30 2059 H 197.098 1.27175 3.18875 0
M  V30 2060 N 199.544 -1.57102 0.125237 0
M  V30 2061 C 200.955 -1.82384 -0.399142 0
M  V30 2062 C 201.306 -1.04276 -1.66195 0
M  V30 2063 O 200.431 -0.281269 -2.14564 0
M  V30 2064 C 201.026 -3.30821 -0.730932 0
M  V30 2065 C 199.585 -3.56762 -1.19992 0
M  V30 2066 C 198.732 -2.7649 -0.211792 0
M  V30 2067 H 201.683 -1.54786 0.350277 0
M  V30 2068 H 201.704 -3.4579 -1.58775 0
M  V30 2069 H 201.216 -3.87643 0.188345 0
M  V30 2070 H 199.317 -3.05305 -2.13588 0
M  V30 2071 H 199.43 -4.65317 -1.14093 0
M  V30 2072 H 197.794 -2.4489 -0.700085 0
M  V30 2073 H 198.577 -3.36073 0.700691 0
M  V30 2074 N 201.022 0.148545 -1.56898 0
M  V30 2075 C 201.972 1.1886 -1.94567 0
M  V30 2076 C 202.956 1.3863 -0.816735 0
M  V30 2077 O 204.148 1.40218 -1.08018 0
M  V30 2078 C 201.277 2.52262 -2.32849 0
M  V30 2079 C 200.363 2.36092 -3.52309 0
M  V30 2080 N 200.754 1.89674 -4.6889 0
M  V30 2081 C 199.052 2.66848 -3.57363 0
M  V30 2082 C 199.753 1.86511 -5.50989 0
M  V30 2083 N 198.729 2.29766 -4.92655 0
M  V30 2084 H 202.531 0.821793 -2.82177 0
M  V30 2085 H 200.045 0.356615 -1.58436 0
M  V30 2086 H 202.042 3.27447 -2.58039 0
M  V30 2087 H 200.702 2.89727 -1.46589 0
M  V30 2088 H 201.713 1.59663 -4.92674 0
M  V30 2089 H 198.39 3.08198 -2.81639 0
M  V30 2090 H 199.78 1.52128 -6.54452 0
M  V30 2091 N 202.5 1.5196 0.417844 0
M  V30 2092 C 203.448 1.75278 1.52907 0
M  V30 2093 C 204.442 0.619611 1.57662 0
M  V30 2094 O 205.648 0.801457 1.61173 0
M  V30 2095 H 202.023 0.554141 0.508362 0
M  V30 2096 H 203.994 2.68389 1.30422 0
M  V30 2097 C 202.743 1.91262 2.90369 0
M  V30 2098 H 202.066 2.77872 2.8745 0
M  V30 2099 H 203.506 2.11581 3.67436 0
M  V30 2100 C 201.965 0.677431 3.30019 0
M  V30 2101 O 202.495 -0.158799 4.01386 0
M  V30 2102 N 200.701 0.515851 2.85985 0
M  V30 2103 H 200.248 1.19744 2.28077 0
M  V30 2104 H 200.206 -0.309315 3.12875 0
M  V30 2105 N 203.978 -0.674533 1.42435 0
M  V30 2106 C 205.203 -1.46784 1.46524 0
M  V30 2107 C 205.628 -1.87938 0.078066 0
M  V30 2108 O 204.986 -1.56014 -0.92354 0
M  V30 2109 C 205.034 -2.69307 2.39805 0
M  V30 2110 O 204.138 -3.67587 1.86959 0
M  V30 2111 H 203.479 -0.440959 0.496439 0
M  V30 2112 H 206.009 -0.827326 1.87127 0
M  V30 2113 H 206.019 -3.17374 2.56393 0
M  V30 2114 H 204.694 -2.38692 3.40586 0
M  V30 2115 H 203.271 -3.2662 1.79927 0
M  V30 2116 N 205.456 -1.28612 -0.910864 0
M  V30 2117 C 206.404 -1.1265 -2.03501 0
M  V30 2118 C 207.398 -0.0450054 -1.6934 0
M  V30 2119 O 208.604 -0.203988 -1.7884 0
M  V30 2120 H 204.979 -0.347639 -0.666822 0
M  V30 2121 H 206.95 -2.07849 -2.14106 0
M  V30 2122 C 205.699 -0.808143 -3.38178 0
M  V30 2123 H 205.022 -1.63231 -3.6496 0
M  V30 2124 H 206.462 -0.736426 -4.17556 0
M  V30 2125 C 204.921 0.488226 -3.33344 0
M  V30 2126 O 205.451 1.51766 -3.71927 0
M  V30 2127 N 203.657 0.490009 -2.86439 0
M  V30 2128 H 203.204 -0.348161 -2.55236 0
M  V30 2129 H 203.162 1.35741 -2.83587 0
M  V30 2130 N 206.934 1.1197 -1.10907 0
M  V30 2131 C 208.181 1.83588 -0.854507 0
M  V30 2132 C 208.509 1.84357 0.6199 0
M  V30 2133 O 207.764 1.28809 1.47332 0
M  V30 2134 C 208.063 3.30749 -1.35425 0
M  V30 2135 C 207.729 3.50146 -2.84093 0
M  V30 2136 C 206.391 3.55148 -3.2469 0
M  V30 2137 C 208.743 3.56857 -3.79872 0
M  V30 2138 C 206.071 3.6441 -4.59806 0
M  V30 2139 C 208.423 3.6765 -5.14797 0
M  V30 2140 C 207.087 3.7091 -5.54961 0
M  V30 2141 H 206.357 0.671795 -0.312686 0
M  V30 2142 H 209.004 1.32091 -1.38652 0
M  V30 2143 H 207.309 3.84703 -0.742361 0
M  V30 2144 H 209.006 3.8464 -1.1337 0
M  V30 2145 H 205.596 3.46919 -2.51685 0
M  V30 2146 H 209.78 3.52258 -3.49611 0
M  V30 2147 H 205.036 3.65208 -4.9034 0
M  V30 2148 H 209.21 3.71786 -5.88853 0
M  V30 2149 H 206.837 3.7784 -6.59652 0
M  V30 2150 N 208.412 0.89855 1.29475 0
M  V30 2151 C 209.66 0.522847 1.9522 0
M  V30 2152 C 209.981 -0.93371 1.71192 0
M  V30 2153 O 209.251 -1.65823 1.04305 0
M  V30 2154 H 207.831 0.190366 0.722336 0
M  V30 2155 H 210.493 1.14459 1.5775 0
M  V30 2156 H 209.589 0.704476 3.04045 0
M  V30 2157 N 209.89 -1.43072 0.660911 0
M  V30 2158 C 211.12 -2.05769 0.185153 0
M  V30 2159 C 211.528 -1.49668 -1.15742 0
M  V30 2160 O 210.871 -0.625649 -1.72717 0
M  V30 2161 C 210.933 -3.59489 0.0278237 0
M  V30 2162 C 210.597 -4.38212 1.2969 0
M  V30 2163 C 211.594 -4.69772 2.22734 0
M  V30 2164 C 209.279 -4.7809 1.54063 0
M  V30 2165 C 211.273 -5.40129 3.38437 0
M  V30 2166 C 208.96 -5.4819 2.70058 0
M  V30 2167 C 209.958 -5.79132 3.62071 0
M  V30 2168 O 209.646 -6.47798 4.76039 0
M  V30 2169 H 209.378 -0.669873 0.0908086 0
M  V30 2170 H 211.932 -1.84436 0.90402 0
M  V30 2171 H 210.162 -3.79426 -0.746489 0
M  V30 2172 H 211.851 -4.03862 -0.406275 0
M  V30 2173 H 212.617 -4.39476 2.05149 0
M  V30 2174 H 208.496 -4.53408 0.833215 0
M  V30 2175 H 212.04 -5.64198 4.10277 0
M  V30 2176 H 207.937 -5.77902 2.87574 0
M  V30 2177 H 208.705 -6.66283 4.75404 0
M  V30 2178 N 211.368 -0.403325 -1.52352 0
M  V30 2179 C 212.593 0.176499 -2.06648 0
M  V30 2180 C 213.018 1.38577 -1.27193 0
M  V30 2181 O 212.376 1.7879 -0.300637 0
M  V30 2182 C 212.424 0.511061 -3.5696 0
M  V30 2183 O 211.528 1.60294 -3.79973 0
M  V30 2184 H 210.869 0.0167337 -0.663789 0
M  V30 2185 H 213.399 -0.574848 -1.96359 0
M  V30 2186 H 213.409 0.771362 -4.00642 0
M  V30 2187 H 212.084 -0.37296 -4.14224 0
M  V30 2188 H 210.661 1.33526 -3.48174 0
M  V30 2189 N 212.846 1.57033 -0.133567 0
M  V30 2190 C 214.076 1.99754 0.527429 0
M  V30 2191 C 214.484 1.01245 1.59832 0
M  V30 2192 O 213.827 -0.000645496 1.837 0
M  V30 2193 C 213.889 3.38903 1.19939 0
M  V30 2194 C 213.553 4.56174 0.274709 0
M  V30 2195 C 214.55 5.17563 -0.492398 0
M  V30 2196 C 212.235 5.01972 0.18153 0
M  V30 2197 C 214.229 6.2315 -1.34027 0
M  V30 2198 C 211.916 6.07416 -0.669958 0
M  V30 2199 C 212.914 6.67874 -1.42947 0
M  V30 2200 O 212.602 7.71279 -2.2668 0
M  V30 2201 H 212.334 0.660702 0.142999 0
M  V30 2202 H 214.888 2.04207 -0.221099 0
M  V30 2203 H 213.118 3.31248 1.99528 0
M  V30 2204 H 214.807 3.65818 1.75875 0
M  V30 2205 H 215.573 4.83087 -0.430367 0
M  V30 2206 H 211.452 4.54652 0.762422 0
M  V30 2207 H 214.996 6.70268 -1.93357 0
M  V30 2208 H 210.893 6.41321 -0.73333 0
M  V30 2209 H 211.661 7.88441 -2.1978 0
M  V30 2210 N 214.325 -0.140222 1.56975 0
M  V30 2211 C 215.288 -1.15689 1.97861 0
M  V30 2212 C 216.288 -1.3549 0.865974 0
M  V30 2213 O 217.478 -1.32367 1.13246 0
M  V30 2214 C 214.61 -2.51582 2.30042 0
M  V30 2215 H 215.803 -0.805971 2.88867 0
M  V30 2216 H 213.356 -0.383801 1.51515 0
M  V30 2217 H 214.091 -2.91632 1.41849 0
M  V30 2218 H 213.876 -2.38569 3.11171 0
M  V30 2219 H 215.366 -3.24792 2.62488 0
M  V30 2220 N 215.803 -1.52179 -0.40978 0
M  V30 2221 C 216.75 -1.75475 -1.49924 0
M  V30 2222 C 217.72 -0.597175 -1.54994 0
M  V30 2223 O 218.905 -0.834655 -1.71575 0
M  V30 2224 C 216.045 -1.9107 -2.87378 0
M  V30 2225 C 215.158 -3.18717 -2.91622 0
M  V30 2226 C 214.293 -3.24747 -4.20372 0
M  V30 2227 C 213.332 -4.46598 -4.18588 0
M  V30 2228 N 212.469 -4.50025 -5.38908 0
M  V30 2229 H 217.309 -2.68458 -1.29361 0
M  V30 2230 H 214.846 -1.33024 -0.627934 0
M  V30 2231 H 216.804 -1.98096 -3.6717 0
M  V30 2232 H 215.434 -1.01469 -3.06437 0
M  V30 2233 H 214.486 -3.20866 -2.04326 0
M  V30 2234 H 215.798 -4.08544 -2.86169 0
M  V30 2235 H 214.952 -3.30841 -5.08556 0
M  V30 2236 H 213.691 -2.32857 -4.28519 0
M  V30 2237 H 212.696 -4.40652 -3.28794 0
M  V30 2238 H 213.921 -5.39783 -4.12081 0
M  V30 2239 H 211.867 -3.61017 -5.47725 0
M  V30 2240 H 211.784 -5.33697 -5.35447 0
M  V30 2241 H 213.052 -4.60347 -6.29048 0
M  V30 2242 N 217.281 0.66697 -1.42791 0
M  V30 2243 C 218.697 0.981027 -1.25889 0
M  V30 2244 C 218.897 2.00793 -0.168695 0
M  V30 2245 O 217.953 2.48321 0.45747 0
M  V30 2246 C 219.266 1.47838 -2.61848 0
M  V30 2247 C 220.814 1.59575 -2.69267 0
M  V30 2248 C 221.289 2.12704 -4.05612 0
M  V30 2249 N 222.78 2.20026 -4.07606 0
M  V30 2250 C 223.515 2.62227 -5.09926 0
M  V30 2251 N 223.011 3.03824 -6.22626 0
M  V30 2252 N 224.804 2.62045 -4.97281 0
M  V30 2253 H 216.955 -0.0127891 -2.12396 0
M  V30 2254 H 219.218 0.0568258 -0.946295 0
M  V30 2255 H 218.924 0.798299 -3.4252 0
M  V30 2256 H 218.798 2.45579 -2.86305 0
M  V30 2257 H 221.185 2.26687 -1.88936 0
M  V30 2258 H 221.266 0.60302 -2.48591 0
M  V30 2259 H 220.91 1.46198 -4.86404 0
M  V30 2260 H 220.84 3.12782 -4.23645 0
M  V30 2261 H 223.331 1.90708 -3.2625 0
M  V30 2262 H 223.644 3.34734 -6.96544 0
M  V30 2263 H 221.989 3.01662 -6.26119 0
M  V30 2264 H 225.18 2.28916 -4.08308 0
M  V30 2265 H 225.353 2.94613 -5.77154 0
M  V30 2266 N 218.759 1.29093 0.90403 0
M  V30 2267 C 219.692 1.08176 2.00931 0
M  V30 2268 C 220.67 -0.005083 1.62599 0
M  V30 2269 O 221.854 0.144765 1.87943 0
M  V30 2270 C 218.981 0.645897 3.32484 0
M  V30 2271 C 218.027 1.73081 3.89801 0
M  V30 2272 S 218.86 3.32905 4.19446 0
M  V30 2273 C 220.016 2.91176 5.54046 0
M  V30 2274 H 220.249 2.01752 2.18365 0
M  V30 2275 H 217.782 1.13191 1.0501 0
M  V30 2276 H 219.74 0.401131 4.08535 0
M  V30 2277 H 218.401 -0.270188 3.12936 0
M  V30 2278 H 217.594 1.37768 4.84805 0
M  V30 2279 H 217.196 1.92888 3.20422 0
M  V30 2280 H 219.488 2.37952 6.34338 0
M  V30 2281 H 220.431 3.85014 5.94281 0
M  V30 2282 H 220.839 2.296 5.15698 0
M  V30 2283 N 220.237 -1.11381 1.11499 0
M  V30 2284 C 221.486 -1.82494 0.858993 0
M  V30 2285 C 221.799 -1.85605 -0.617278 0
M  V30 2286 O 223.005 -2.52824 -0.989552 0
M  V30 2287 C 221.461 -3.27745 1.48699 0
M  V30 2288 C 221.069 -3.32961 2.99735 0
M  V30 2289 C 222.813 -4.03754 1.31085 0
M  V30 2290 C 220.72 -4.72612 3.55516 0
M  V30 2291 H 219.65 -0.683802 0.317696 0
M  V30 2292 H 222.301 -1.25331 1.34031 0
M  V30 2293 H 220.683 -3.84844 0.933339 0
M  V30 2294 H 221.857 -2.85741 3.61509 0
M  V30 2295 H 220.172 -2.70433 3.16631 0
M  V30 2296 H 222.769 -5.06891 1.70192 0
M  V30 2297 H 223.112 -4.15527 0.253496 0
M  V30 2298 H 223.645 -3.53043 1.83318 0
M  V30 2299 H 220.384 -4.66036 4.60967 0
M  V30 2300 H 219.904 -5.2024 2.98513 0
M  V30 2301 H 221.583 -5.4157 3.53992 0
M  V30 2302 N 221.715 -0.905404 -1.28997 0
M  V30 2303 C 222.992 -0.453513 -1.9027 0
M  V30 2304 C 223.372 1.06721 -1.82137 0
M  V30 2305 O 222.72 1.91159 -1.25182 0
M  V30 2306 C 222.93 -0.974494 -3.35119 0
M  V30 2307 C 224.278 -1.0216 -4.12127 0
M  V30 2308 O 225.302 -0.922557 -3.44046 0
M  V30 2309 O 224.161 -1.17121 -5.33802 0
M  V30 2310 H 221.255 -0.142347 -0.814657 0
M  V30 2311 H 223.801 -0.995642 -1.37423 0
M  V30 2312 H 222.573 -2.01848 -3.35221 0
M  V30 2313 H 222.196 -0.412706 -3.95452 0
M  V30 2314 N 223.193 1.4272 -0.668489 0
M  V30 2315 C 224.439 2.01923 -0.188419 0
M  V30 2316 C 224.772 1.52704 1.19979 0
M  V30 2317 O 224.047 0.726566 1.8042 0
M  V30 2318 C 224.33 3.59451 -0.216085 0
M  V30 2319 C 224.183 4.18864 -1.6393 0
M  V30 2320 C 225.502 4.37903 0.439179 0
M  V30 2321 H 222.621 0.733674 -0.0699412 0
M  V30 2322 H 225.263 1.69822 -0.852076 0
M  V30 2323 H 223.413 3.86929 0.349012 0
M  V30 2324 H 225.085 4.02362 -2.25616 0
M  V30 2325 H 223.328 3.74933 -2.18193 0
M  V30 2326 H 223.999 5.27987 -1.61039 0
M  V30 2327 H 226.475 4.16079 -0.0417878 0
M  V30 2328 H 225.351 5.47519 0.389157 0
M  V30 2329 H 225.612 4.15303 1.51577 0
M  V30 2330 N 224.671 0.411399 1.52136 0
M  V30 2331 C 225.603 -0.448386 2.24771 0
M  V30 2332 C 226.616 -1.00828 1.27818 0
M  V30 2333 O 227.805 -0.906841 1.53749 0
M  V30 2334 C 224.905 -1.63636 2.96777 0
M  V30 2335 C 224.078 -1.19995 4.20618 0
M  V30 2336 C 223.137 -2.25509 4.75428 0
M  V30 2337 O 222.163 -1.86007 5.3795 0
M  V30 2338 N 223.365 -3.577 4.57199 0
M  V30 2339 H 226.13 0.174025 2.99194 0
M  V30 2340 H 223.691 0.238897 1.60128 0
M  V30 2341 H 225.683 -2.33793 3.30338 0
M  V30 2342 H 224.253 -2.16465 2.25526 0
M  V30 2343 H 223.473 -0.326421 3.92846 0
M  V30 2344 H 224.761 -0.885365 5.01038 0
M  V30 2345 H 224.159 -3.92543 4.07341 0
M  V30 2346 H 222.716 -4.23827 4.95191 0
M  V30 2347 N 226.149 -1.5696 0.141893 0
M  V30 2348 C 227.097 -2.17784 -0.816874 0
M  V30 2349 C 228.091 -1.1334 -1.25899 0
M  V30 2350 O 229.297 -1.316 -1.22806 0
M  V30 2351 H 225.672 -0.697278 -0.281615 0
M  V30 2352 H 227.643 -2.97087 -0.279621 0
M  V30 2353 C 226.392 -2.80983 -2.04802 0
M  V30 2354 H 225.715 -3.61062 -1.7168 0
M  V30 2355 H 227.155 -3.2705 -2.69841 0
M  V30 2356 C 225.614 -1.79228 -2.8527 0
M  V30 2357 O 226.144 -1.25962 -3.8144 0
M  V30 2358 N 224.35 -1.48647 -2.49704 0
M  V30 2359 H 223.897 -1.92155 -1.71564 0
M  V30 2360 H 223.855 -0.808115 -3.03837 0
M  V30 2361 N 227.627 0.131896 -1.57047 0
M  V30 2362 C 229.043 0.485031 -1.52051 0
M  V30 2363 C 229.243 1.82563 -0.85281 0
M  V30 2364 O 228.299 2.48817 -0.429694 0
M  V30 2365 C 229.612 0.481409 -2.96821 0
M  V30 2366 C 231.16 0.565868 -3.07842 0
M  V30 2367 C 231.635 0.592762 -4.54148 0
M  V30 2368 N 233.126 0.654564 -4.58552 0
M  V30 2369 C 233.861 0.696608 -5.69153 0
M  V30 2370 N 233.357 0.697078 -6.89284 0
M  V30 2371 N 235.15 0.738639 -5.57226 0
M  V30 2372 H 227.301 -0.746664 -1.98843 0
M  V30 2373 H 229.564 -0.273999 -0.90754 0
M  V30 2374 H 229.27 -0.435731 -3.4899 0
M  V30 2375 H 229.144 1.3139 -3.53577 0
M  V30 2376 H 231.531 1.47343 -2.55684 0
M  V30 2377 H 231.612 -0.29406 -2.54104 0
M  V30 2378 H 231.256 -0.310701 -5.06949 0
M  V30 2379 H 231.186 1.46939 -5.05684 0
M  V30 2380 H 233.677 0.660887 -3.72076 0
M  V30 2381 H 233.99 0.731426 -7.69331 0
M  V30 2382 H 232.335 0.66471 -6.91814 0
M  V30 2383 H 235.526 0.735545 -4.62285 0
M  V30 2384 H 235.699 0.767938 -6.43434 0
M  V30 2385 N 229.106 1.52395 0.401703 0
M  V30 2386 C 230.069 1.75636 1.47257 0
M  V30 2387 C 231.069 0.62628 1.48103 0
M  V30 2388 O 232.259 0.894227 1.49497 0
M  V30 2389 C 229.391 1.84553 2.86624 0
M  V30 2390 H 230.584 2.71241 1.27938 0
M  V30 2391 H 228.137 1.42923 0.632662 0
M  V30 2392 H 228.872 0.908882 3.11303 0
M  V30 2393 H 228.657 2.66715 2.87412 0
M  V30 2394 H 230.147 2.04251 3.64241 0
M  V30 2395 N 230.584 -0.659388 1.43143 0
M  V30 2396 C 231.814 -1.44513 1.47646 0
M  V30 2397 C 232.222 -1.88981 0.0910095 0
M  V30 2398 O 231.565 -1.59702 -0.907789 0
M  V30 2399 C 231.627 -2.71663 2.35456 0
M  V30 2400 C 231.291 -2.49175 3.83094 0
M  V30 2401 C 232.288 -2.1279 4.74359 0
M  V30 2402 C 229.973 -2.63691 4.27519 0
M  V30 2403 C 231.967 -1.9121 6.08044 0
M  V30 2404 C 229.654 -2.41726 5.61259 0
M  V30 2405 C 230.652 -2.0554 6.51339 0
M  V30 2406 O 230.34 -1.838 7.82606 0
M  V30 2407 H 230.072 -0.45064 0.503884 0
M  V30 2408 H 232.626 -0.816248 1.88485 0
M  V30 2409 H 230.856 -3.37089 1.89493 0
M  V30 2410 H 232.545 -3.33595 2.31235 0
M  V30 2411 H 233.311 -2.01157 4.41317 0
M  V30 2412 H 229.19 -2.90832 3.57684 0
M  V30 2413 H 232.734 -1.62889 6.78316 0
M  V30 2414 H 228.631 -2.52959 5.9387 0
M  V30 2415 H 229.399 -1.98275 7.94122 0
M  V30 2416 N 232.062 -1.29571 -0.897171 0
M  V30 2417 C 233.309 -1.17689 -1.6479 0
M  V30 2418 C 233.637 0.27107 -1.92602 0
M  V30 2419 O 232.892 1.21193 -1.53658 0
M  V30 2420 C 233.191 -1.9382 -3.00281 0
M  V30 2421 C 232.857 -3.43522 -2.92068 0
M  V30 2422 C 231.519 -3.84348 -2.89535 0
M  V30 2423 C 233.871 -4.38906 -2.81089 0
M  V30 2424 C 231.199 -5.18869 -2.73846 0
M  V30 2425 C 233.551 -5.73521 -2.66939 0
M  V30 2426 C 232.215 -6.13601 -2.62774 0
M  V30 2427 H 231.485 -0.430654 -0.603008 0
M  V30 2428 H 234.132 -1.60536 -1.04404 0
M  V30 2429 H 232.437 -1.4357 -3.64547 0
M  V30 2430 H 234.134 -1.82028 -3.57305 0
M  V30 2431 H 230.724 -3.11072 -2.94842 0
M  V30 2432 H 234.908 -4.08315 -2.82121 0
M  V30 2433 H 230.164 -5.4903 -2.69027 0
M  V30 2434 H 234.338 -6.47078 -2.57416 0
M  V30 2435 H 231.965 -7.17786 -2.50375 0
M  V30 2436 N 233.54 1.10788 -1.12088 0
M  V30 2437 C 234.472 2.16816 -0.743213 0
M  V30 2438 C 235.485 1.6119 0.228412 0
M  V30 2439 O 236.674 1.78497 0.0102931 0
M  V30 2440 C 233.774 3.38809 -0.0787313 0
M  V30 2441 C 232.947 4.23885 -1.0789 0
M  V30 2442 C 232.006 5.24334 -0.442713 0
M  V30 2443 O 231.032 5.58497 -1.09864 0
M  V30 2444 N 232.234 5.75079 0.791457 0
M  V30 2445 H 234.999 2.49825 -1.65552 0
M  V30 2446 H 232.56 1.26373 -1.012 0
M  V30 2447 H 234.552 4.03107 0.358766 0
M  V30 2448 H 233.122 3.03805 0.736275 0
M  V30 2449 H 232.342 3.55939 -1.69414 0
M  V30 2450 H 233.63 4.77562 -1.75533 0
M  V30 2451 H 233.028 5.49517 1.3434 0
M  V30 2452 H 231.585 6.4118 1.17183 0
M  V30 2453 N 235.018 0.912232 1.28515 0
M  V30 2454 C 235.95 0.35676 2.26406 0
M  V30 2455 C 236.963 -0.503933 1.54804 0
M  V30 2456 O 238.152 -0.319059 1.75625 0
M  V30 2457 C 235.252 -0.508825 3.35058 0
M  V30 2458 C 234.425 0.329007 4.36161 0
M  V30 2459 C 233.484 -0.471422 5.24084 0
M  V30 2460 O 232.51 0.115482 5.69083 0
M  V30 2461 N 233.712 -1.77479 5.52704 0
M  V30 2462 H 236.477 1.19818 2.74707 0
M  V30 2463 H 234.038 0.778022 1.4198 0
M  V30 2464 H 236.03 -1.051 3.90815 0
M  V30 2465 H 234.6 -1.25095 2.86478 0
M  V30 2466 H 233.82 1.05256 3.79888 0
M  V30 2467 H 235.108 0.90234 5.00735 0
M  V30 2468 H 234.506 -2.27417 5.17975 0
M  V30 2469 H 233.063 -2.26382 6.11224 0
M  V30 2470 N 236.496 -1.42363 0.676048 0
M  V30 2471 C 237.726 -2.05561 0.206967 0
M  V30 2472 C 238.134 -1.50887 -1.14148 0
M  V30 2473 O 237.477 -0.643933 -1.72044 0
M  V30 2474 C 237.539 -3.5944 0.0659508 0
M  V30 2475 C 237.203 -4.36812 1.34331 0
M  V30 2476 C 238.2 -4.67383 2.27704 0
M  V30 2477 C 235.885 -4.76429 1.59125 0
M  V30 2478 C 237.879 -5.36509 3.44147 0
M  V30 2479 C 235.566 -5.45294 2.75857 0
M  V30 2480 C 236.564 -5.75259 3.68193 0
M  V30 2481 O 236.252 -6.42712 4.82883 0
M  V30 2482 H 235.984 -0.668872 0.0979084 0
M  V30 2483 H 238.538 -1.83467 0.923531 0
M  V30 2484 H 236.768 -3.80197 -0.706204 0
M  V30 2485 H 238.457 -4.0427 -0.363418 0
M  V30 2486 H 239.223 -4.37275 2.09799 0
M  V30 2487 H 235.102 -4.52498 0.881258 0
M  V30 2488 H 238.646 -5.59814 4.16238 0
M  V30 2489 H 234.543 -5.7482 2.93688 0
M  V30 2490 H 235.311 -6.61204 4.82444 0
M  V30 2491 N 237.974 -0.419461 -1.51915 0
M  V30 2492 C 239.222 0.152637 -2.01523 0
M  V30 2493 C 239.543 1.44762 -1.30649 0
M  V30 2494 O 238.813 1.90997 -0.435535 0
M  V30 2495 H 237.393 0.0593966 -0.744635 0
M  V30 2496 H 240.055 -0.558073 -1.86739 0
M  V30 2497 H 239.151 0.341369 -3.10227 0
M  V30 2498 N 239.452 1.56882 -0.150215 0
M  V30 2499 C 240.692 1.98119 0.502804 0
M  V30 2500 C 241.056 1.03327 1.61826 0
M  V30 2501 O 242.257 1.33621 2.33236 0
M  V30 2502 C 240.528 3.43329 0.992988 0
M  V30 2503 S 242.087 4.0659 1.65015 0
M  V30 2504 H 238.905 0.692189 0.162467 0
M  V30 2505 H 241.507 1.93988 -0.242689 0
M  V30 2506 H 240.211 4.10046 0.170436 0
M  V30 2507 H 239.742 3.5118 1.77303 0
M  V30 2508 H 241.757 3.99906 2.93752 0
M  V30 2509 N 240.93 -0.123565 1.57115 0
M  V30 2510 C 242.158 -0.846461 1.88793 0
M  V30 2511 C 242.573 -1.73652 0.740976 0
M  V30 2512 O 241.93 -1.80207 -0.288393 0
M  V30 2513 C 241.981 -1.6837 3.19897 0
M  V30 2514 O 241.702 -0.829477 4.30176 0
M  V30 2515 C 243.203 -2.51214 3.65248 0
M  V30 2516 H 240.423 -0.243573 0.625231 0
M  V30 2517 H 242.967 -0.109324 2.04208 0
M  V30 2518 H 241.122 -2.37364 3.06165 0
M  V30 2519 H 241.536 -1.40651 5.0529 0
M  V30 2520 H 243.01 -3.05497 4.59756 0
M  V30 2521 H 243.487 -3.28359 2.9168 0
M  V30 2522 H 244.093 -1.8747 3.81752 0
M  V30 2523 N 242.408 -1.52605 -0.393616 0
M  V30 2524 C 243.655 -1.67424 -1.1391 0
M  V30 2525 C 243.983 -0.411859 -1.90089 0
M  V30 2526 O 243.238 0.605626 -1.86093 0
M  V30 2527 C 243.537 -2.85721 -2.14705 0
M  V30 2528 C 243.203 -4.23342 -1.55218 0
M  V30 2529 C 241.865 -4.60771 -1.3872 0
M  V30 2530 C 244.217 -5.09041 -1.11924 0
M  V30 2531 C 241.545 -5.81563 -0.774689 0
M  V30 2532 C 243.897 -6.30452 -0.520853 0
M  V30 2533 C 242.561 -6.66617 -0.343134 0
M  V30 2534 H 241.831 -0.612648 -0.416826 0
M  V30 2535 H 244.478 -1.8674 -0.424315 0
M  V30 2536 H 242.783 -2.60803 -2.92385 0
M  V30 2537 H 244.48 -2.94382 -2.72288 0
M  V30 2538 H 241.07 -3.93855 -1.69045 0
M  V30 2539 H 245.254 -4.80695 -1.23473 0
M  V30 2540 H 240.51 -6.08196 -0.625154 0
M  V30 2541 H 244.684 -6.96175 -0.177065 0
M  V30 2542 H 242.311 -7.60083 0.133571 0
M  V30 2543 N 243.887 0.651787 -1.4349 0
M  V30 2544 C 245.115 1.43937 -1.48626 0
M  V30 2545 C 245.53 1.8851 -0.104587 0
M  V30 2546 O 244.887 1.5958 0.885464 0
M  V30 2547 C 244.938 2.6734 -2.43334 0
M  V30 2548 O 244.659 2.24631 -3.76128 0
M  V30 2549 C 246.16 3.60683 -2.57726 0
M  V30 2550 H 243.38 0.44213 -0.504739 0
M  V30 2551 H 245.924 0.798944 -1.88248 0
M  V30 2552 H 244.079 3.2752 -2.06904 0
M  V30 2553 H 244.493 3.04485 -4.2707 0
M  V30 2554 H 245.967 4.43933 -3.28067 0
M  V30 2555 H 246.444 4.08126 -1.62265 0
M  V30 2556 H 247.05 3.06384 -2.94973 0
M  V30 2557 N 245.365 1.30045 0.890287 0
M  V30 2558 C 246.328 1.15963 1.977 0
M  V30 2559 C 247.328 0.0923777 1.60534 0
M  V30 2560 O 248.518 0.340071 1.70848 0
M  V30 2561 C 245.65 0.775451 3.31963 0
M  V30 2562 H 246.843 2.12502 2.11619 0
M  V30 2563 H 244.396 1.13366 1.07601 0
M  V30 2564 H 245.131 -0.189671 3.23745 0
M  V30 2565 H 244.916 1.54668 3.60306 0
M  V30 2566 H 246.406 0.700251 4.11687 0
M  V30 2567 N 246.843 -1.10192 1.12674 0
M  V30 2568 C 248.089 -1.82475 0.884915 0
M  V30 2569 C 248.422 -1.85093 -0.58773 0
M  V30 2570 O 247.697 -1.3134 -1.43457 0
M  V30 2571 C 247.98 -3.29018 1.46353 0
M  V30 2572 C 247.833 -3.34718 3.00473 0
M  V30 2573 C 249.152 -4.25473 1.12519 0
M  V30 2574 H 246.271 -0.662492 0.322915 0
M  V30 2575 H 248.913 -1.2913 1.39375 0
M  V30 2576 H 247.063 -3.74576 1.03077 0
M  V30 2577 H 248.735 -2.97622 3.52447 0
M  V30 2578 H 246.978 -2.74541 3.35872 0
M  V30 2579 H 247.649 -4.37918 3.36053 0
M  V30 2580 H 250.125 -3.88161 1.499 0
M  V30 2581 H 249.001 -5.26365 1.55663 0
M  V30 2582 H 249.262 -4.42084 0.0377407 0
M  V30 2583 N 248.321 -0.919034 -1.28029 0
M  V30 2584 C 249.57 -0.550802 -1.94034 0
M  V30 2585 C 249.883 0.910877 -1.73096 0
M  V30 2586 O 251.089 1.3875 -2.33368 0
M  V30 2587 C 249.545 -0.934249 -3.47563 0
M  V30 2588 C 249.153 -2.41602 -3.7727 0
M  V30 2589 C 250.897 -0.636854 -4.19696 0
M  V30 2590 C 248.804 -2.73932 -5.24133 0
M  V30 2591 H 247.734 -0.202273 -0.726362 0
M  V30 2592 H 250.385 -1.11867 -1.45458 0
M  V30 2593 H 248.767 -0.295115 -3.94899 0
M  V30 2594 H 249.941 -3.10233 -3.40723 0
M  V30 2595 H 248.256 -2.68441 -3.18321 0
M  V30 2596 H 250.853 -0.855005 -5.2782 0
M  V30 2597 H 251.196 0.425575 -4.14119 0
M  V30 2598 H 251.729 -1.23469 -3.78154 0
M  V30 2599 H 248.468 -3.79049 -5.34792 0
M  V30 2600 H 247.988 -2.09942 -5.61858 0
M  V30 2601 H 249.667 -2.61215 -5.91925 0
M  V30 2602 N 249.799 1.42003 -0.683588 0
M  V30 2603 C 251.21 1.84501 -0.285736 0
M  V30 2604 C 251.561 1.57213 1.17382 0
M  V30 2605 O 250.686 1.03642 1.89966 0
M  V30 2606 C 251.281 3.34912 -0.511821 0
M  V30 2607 C 249.84 3.76025 -0.168005 0
M  V30 2608 C 248.987 2.6551 -0.799983 0
M  V30 2609 H 251.938 1.31724 -0.885119 0
M  V30 2610 H 251.959 3.79784 0.233292 0
M  V30 2611 H 251.471 3.54741 -1.57418 0
M  V30 2612 H 249.572 3.61801 0.890567 0
M  V30 2613 H 249.685 4.75141 -0.614661 0
M  V30 2614 H 248.049 2.53654 -0.230568 0
M  V30 2615 H 248.832 2.8816 -1.86597 0
M  V30 2616 N 251.277 0.427512 1.51691 0
M  V30 2617 C 252.505 -0.141191 2.06418 0
M  V30 2618 C 252.92 -1.37303 1.29589 0
M  V30 2619 O 252.277 -1.79059 0.352732 0
M  V30 2620 C 252.328 -0.473266 3.58389 0
M  V30 2621 O 252.049 0.709673 4.32314 0
M  V30 2622 C 253.55 -1.09371 4.29596 0
M  V30 2623 H 250.77 -0.0122747 0.670888 0
M  V30 2624 H 253.314 0.603764 1.95384 0
M  V30 2625 H 251.469 -1.16812 3.69369 0
M  V30 2626 H 251.883 0.42807 5.2275 0
M  V30 2627 H 253.357 -1.27613 5.37046 0
M  V30 2628 H 253.834 -2.072 3.87253 0
M  V30 2629 H 254.44 -0.43853 4.23033 0
M  V30 2630 N 252.755 -1.56801 0.158532 0
M  V30 2631 C 253.703 -2.18638 -0.793729 0
M  V30 2632 C 254.697 -1.14669 -1.24689 0
M  V30 2633 O 255.903 -1.32895 -1.21403 0
M  V30 2634 H 252.278 -0.700226 -0.274204 0
M  V30 2635 H 254.249 -2.97367 -0.248095 0
M  V30 2636 C 252.998 -2.83139 -2.0181 0
M  V30 2637 H 252.321 -3.62863 -1.67841 0
M  V30 2638 H 253.761 -3.29894 -2.66357 0
M  V30 2639 C 252.22 -1.82244 -2.83353 0
M  V30 2640 O 252.75 -1.3 -3.80083 0
M  V30 2641 N 250.956 -1.51288 -2.48114 0
M  V30 2642 H 250.503 -1.93964 -1.69516 0
M  V30 2643 H 250.461 -0.840296 -3.02963 0
M  V30 2644 N 254.233 0.115231 -1.57178 0
M  V30 2645 C 255.479 0.82357 -1.85325 0
M  V30 2646 C 255.812 1.79349 -0.744814 0
M  V30 2647 O 255.087 1.92899 0.249024 0
M  V30 2648 C 255.37 1.57014 -3.24066 0
M  V30 2649 C 255.223 0.619565 -4.45513 0
M  V30 2650 C 256.542 2.52545 -3.60429 0
M  V30 2651 H 253.661 0.297948 -0.674089 0
M  V30 2652 H 256.303 0.0877138 -1.89797 0
M  V30 2653 H 254.453 2.19742 -3.20383 0
M  V30 2654 H 256.125 0.000837639 -4.613 0
M  V30 2655 H 254.368 -0.0686174 -4.33746 0
M  V30 2656 H 255.039 1.17866 -5.3927 0
M  V30 2657 H 257.515 1.9992 -3.64926 0
M  V30 2658 H 256.391 3.01811 -4.58477 0
M  V30 2659 H 256.652 3.35383 -2.88047 0
M  V30 2660 N 255.711 1.52812 0.385517 0
M  V30 2661 C 256.958 1.68026 1.1302 0
M  V30 2662 C 257.286 0.421934 1.89868 0
M  V30 2663 O 256.541 -0.595749 1.86412 0
M  V30 2664 C 256.84 2.86856 2.13187 0
M  V30 2665 C 256.506 4.24159 1.5297 0
M  V30 2666 C 255.168 4.61501 1.36274 0
M  V30 2667 C 257.52 5.09627 1.09223 0
M  V30 2668 C 254.848 5.81966 0.743837 0
M  V30 2669 C 257.2 6.30719 0.487411 0
M  V30 2670 C 255.864 6.6679 0.307777 0
M  V30 2671 H 255.134 0.614849 0.413571 0
M  V30 2672 H 257.781 1.86962 0.414405 0
M  V30 2673 H 256.086 2.6235 2.90998 0
M  V30 2674 H 257.783 2.95821 2.70722 0
M  V30 2675 H 254.373 3.94746 1.66954 0
M  V30 2676 H 258.557 4.81343 1.20922 0
M  V30 2677 H 253.813 6.08519 0.592891 0
M  V30 2678 H 257.987 6.96259 0.140143 0
M  V30 2679 H 255.614 7.60001 -0.173879 0
M  V30 2680 N 257.189 -0.644168 1.43834 0
M  V30 2681 C 258.437 -1.40117 1.45642 0
M  V30 2682 C 258.758 -1.94814 0.0852413 0
M  V30 2683 O 258.028 -1.74988 -0.880688 0
M  V30 2684 H 256.608 -0.52005 0.536243 0
M  V30 2685 H 259.27 -0.7591 1.7951 0
M  V30 2686 H 258.366 -2.23902 2.17427 0
M  V30 2687 N 258.668 -1.30515 -0.883378 0
M  V30 2688 C 260.079 -1.17509 -1.45081 0
M  V30 2689 C 260.43 0.223605 -1.94922 0
M  V30 2690 O 259.555 1.12041 -1.85137 0
M  V30 2691 C 260.15 -2.12715 -2.63701 0
M  V30 2692 C 258.709 -2.03682 -3.16529 0
M  V30 2693 C 257.856 -2.02706 -1.89224 0
M  V30 2694 H 260.807 -1.42762 -0.693165 0
M  V30 2695 H 260.828 -1.70891 -3.39965 0
M  V30 2696 H 260.34 -3.14505 -2.27395 0
M  V30 2697 H 258.441 -1.05039 -3.57488 0
M  V30 2698 H 258.554 -2.92146 -3.7972 0
M  V30 2699 H 256.918 -1.4753 -2.07622 0
M  V30 2700 H 257.701 -3.06229 -1.55174 0
M  V30 2701 N 260.146 1.09593 -1.13257 0
M  V30 2702 C 261.096 2.14345 -0.777179 0
M  V30 2703 C 262.08 1.59277 0.227966 0
M  V30 2704 O 263.272 1.76971 0.0321413 0
M  V30 2705 C 260.401 3.42439 -0.242991 0
M  V30 2706 C 259.487 4.04419 -1.27694 0
M  V30 2707 N 259.878 4.40979 -2.47732 0
M  V30 2708 C 258.176 4.31596 -1.12432 0
M  V30 2709 C 258.877 4.89784 -3.13826 0
M  V30 2710 N 257.853 4.87133 -2.41252 0
M  V30 2711 H 261.655 2.40415 -1.69049 0
M  V30 2712 H 259.169 1.26803 -1.01463 0
M  V30 2713 H 261.166 4.16889 0.0298496 0
M  V30 2714 H 259.826 3.17824 0.66467 0
M  V30 2715 H 260.837 4.32396 -2.85051 0
M  V30 2716 H 257.514 4.16595 -0.274684 0
M  V30 2717 H 258.904 5.2755 -4.16102 0
M  V30 2718 N 261.624 0.925811 1.2754 0
M  V30 2719 C 262.901 0.483726 1.89524 0
M  V30 2720 C 263.281 -1.03809 1.83812 0
M  V30 2721 O 262.629 -1.89143 1.28207 0
M  V30 2722 C 262.839 1.02769 3.33526 0
M  V30 2723 C 264.187 1.08703 4.10449 0
M  V30 2724 O 265.211 0.977175 3.42534 0
M  V30 2725 O 264.07 1.25599 5.31871 0
M  V30 2726 H 261.164 0.15529 0.812289 0
M  V30 2727 H 263.71 1.01738 1.35822 0
M  V30 2728 H 262.482 2.07155 3.31967 0
M  V30 2729 H 262.105 0.475567 3.94746 0
M  V30 2730 N 263.102 -1.41638 0.69111 0
M  V30 2731 C 264.05 -2.32597 0.0115199 0
M  V30 2732 C 265.044 -1.5072 -0.773296 0
M  V30 2733 O 266.25 -1.66685 -0.67942 0
M  V30 2734 H 262.625 -0.751849 -0.0150746 0
M  V30 2735 H 264.596 -2.87593 0.795791 0
M  V30 2736 C 263.345 -3.35467 -0.914172 0
M  V30 2737 H 262.668 -3.9852 -0.319687 0
M  V30 2738 H 264.108 -4.01662 -1.35808 0
M  V30 2739 C 262.567 -2.69004 -2.02826 0
M  V30 2740 O 263.097 -2.53444 -3.11655 0
M  V30 2741 N 261.303 -2.2777 -1.80469 0
M  V30 2742 H 260.85 -2.40626 -0.919615 0
M  V30 2743 H 260.808 -1.83635 -2.55197 0
M  V30 2744 N 264.58 -0.43555 -1.51462 0
M  V30 2745 C 265.827 0.131514 -2.02072 0
M  V30 2746 C 266.155 1.42868 -1.31981 0
M  V30 2747 O 265.41 1.91076 -0.422883 0
M  V30 2748 C 265.709 0.39942 -3.55161 0
M  V30 2749 C 265.375 -0.81172 -4.43533 0
M  V30 2750 C 264.037 -1.14387 -4.67407 0
M  V30 2751 C 266.389 -1.61976 -4.95392 0
M  V30 2752 C 263.717 -2.28477 -5.40384 0
M  V30 2753 C 266.069 -2.75164 -5.6962 0
M  V30 2754 C 264.733 -3.08835 -5.91758 0
M  V30 2755 H 264.003 0.0481244 -0.739436 0
M  V30 2756 H 266.65 -0.58238 -1.8243 0
M  V30 2757 H 264.955 1.19519 -3.73125 0
M  V30 2758 H 266.652 0.85157 -3.91854 0
M  V30 2759 H 263.242 -0.542898 -4.25148 0
M  V30 2760 H 267.426 -1.37637 -4.76833 0
M  V30 2761 H 262.682 -2.5488 -5.55739 0
M  V30 2762 H 266.856 -3.38147 -6.08793 0
M  V30 2763 H 264.483 -3.97353 -6.48086 0
M  V30 2764 N 266.058 1.56714 -0.166846 0
M  V30 2765 C 267.006 2.19056 0.782123 0
M  V30 2766 C 268 1.15328 1.24079 0
M  V30 2767 O 269.206 1.33537 1.20697 0
M  V30 2768 H 265.581 0.70167 0.270486 0
M  V30 2769 H 267.552 2.97494 0.232322 0
M  V30 2770 C 266.301 2.84206 2.00306 0
M  V30 2771 H 265.624 3.63748 1.65914 0
M  V30 2772 H 267.064 3.31302 2.64604 0
M  V30 2773 C 265.523 1.83744 2.82382 0
M  V30 2774 O 266.053 1.32014 3.79388 0
M  V30 2775 N 264.259 1.52601 2.47308 0
M  V30 2776 H 263.806 1.9486 1.68485 0
M  V30 2777 H 263.764 0.856351 3.02513 0
M  V30 2778 N 267.536 -0.106894 1.57237 0
M  V30 2779 C 268.785 -0.811163 1.8467 0
M  V30 2780 C 269.098 -1.80469 0.754342 0
M  V30 2781 O 270.304 -2.55601 0.915439 0
M  V30 2782 C 268.76 -1.49337 3.27454 0
M  V30 2783 C 268.368 -0.540217 4.44731 0
M  V30 2784 C 270.112 -2.18206 3.64124 0
M  V30 2785 C 268.019 -1.22634 5.78545 0
M  V30 2786 H 266.949 -0.306679 0.688813 0
M  V30 2787 H 269.6 -0.0639887 1.83388 0
M  V30 2788 H 267.982 -2.2876 3.23241 0
M  V30 2789 H 269.156 0.221659 4.60267 0
M  V30 2790 H 267.471 0.042146 4.16379 0
M  V30 2791 H 270.068 -2.70253 4.61376 0
M  V30 2792 H 270.411 -2.96562 2.92158 0
M  V30 2793 H 270.944 -1.45658 3.70174 0
M  V30 2794 H 267.683 -0.483832 6.53712 0
M  V30 2795 H 267.203 -1.95993 5.66874 0
M  V30 2796 H 268.882 -1.75615 6.2271 0
M  V30 2797 N 269.014 -1.53014 -0.377408 0
M  V30 2798 C 269.924 -1.81557 -1.48574 0
M  V30 2799 C 270.94 -0.703102 -1.59162 0
M  V30 2800 O 272.116 -0.99192 -1.75279 0
M  V30 2801 C 269.181 -1.9889 -2.83978 0
M  V30 2802 C 268.242 -3.22801 -2.83016 0
M  V30 2803 C 267.475 -3.39298 -4.11962 0
M  V30 2804 O 267.698 -2.60345 -5.0752 0
M  V30 2805 O 266.632 -4.32604 -4.18494 0
M  V30 2806 H 270.458 -2.75695 -1.27382 0
M  V30 2807 H 268.043 -1.38248 -0.566373 0
M  V30 2808 H 269.925 -2.11931 -3.6423 0
M  V30 2809 H 268.6 -1.07942 -3.05172 0
M  V30 2810 H 267.507 -3.15193 -2.01505 0
M  V30 2811 H 268.84 -4.13632 -2.66775 0
M  V30 2812 N 270.492 0.636531 -1.44174 0
M  V30 2813 C 271.769 1.39463 -1.37148 0
M  V30 2814 C 272.149 2.11082 -0.027507 0
M  V30 2815 O 271.497 2.05954 0.989716 0
M  V30 2816 C 271.707 2.36552 -2.56601 0
M  V30 2817 C 273.055 3.00048 -3.00427 0
M  V30 2818 O 274.079 2.46878 -2.56767 0
M  V30 2819 O 272.938 3.96488 -3.76111 0
M  V30 2820 H 270.032 0.623903 -0.542839 0
M  V30 2821 H 272.578 0.662039 -1.56253 0
M  V30 2822 H 271.35 1.82692 -3.46034 0
M  V30 2823 H 270.973 3.17236 -2.39681 0
M  V30 2824 N 271.97 1.30982 0.876444 0
M  V30 2825 C 273.218 1.20058 1.62575 0
M  V30 2826 C 273.539 -0.242947 1.93481 0
M  V30 2827 O 272.809 -1.1619 1.57724 0
M  V30 2828 H 271.389 0.44135 0.602677 0
M  V30 2829 H 274.051 1.64222 1.04962 0
M  V30 2830 H 273.147 1.76762 2.57219 0
M  V30 2831 N 273.449 -1.08991 1.13837 0
M  V30 2832 C 274.399 -2.1393 0.788535 0
M  V30 2833 C 275.383 -1.59396 -0.219516 0
M  V30 2834 O 276.575 -1.76985 -0.0227557 0
M  V30 2835 C 273.704 -3.42305 0.261147 0
M  V30 2836 C 272.79 -4.03736 1.29837 0
M  V30 2837 N 273.181 -4.39659 2.50067 0
M  V30 2838 C 271.479 -4.30993 1.1472 0
M  V30 2839 C 272.18 -4.88113 3.16419 0
M  V30 2840 N 271.156 -4.85846 2.43832 0
M  V30 2841 H 274.958 -2.39516 1.70322 0
M  V30 2842 H 272.472 -1.26263 1.02134 0
M  V30 2843 H 274.469 -4.16899 -0.0077405 0
M  V30 2844 H 273.129 -3.18172 -0.647805 0
M  V30 2845 H 274.14 -4.30878 2.8734 0
M  V30 2846 H 270.817 -4.16444 0.296773 0
M  V30 2847 H 272.207 -5.25336 4.18894 0
M  V30 2848 N 274.927 -0.932562 -1.27047 0
M  V30 2849 C 276.173 -0.576412 -1.94436 0
M  V30 2850 C 276.506 0.880891 -1.73072 0
M  V30 2851 O 275.781 1.62905 -1.06264 0
M  V30 2852 C 276.064 -0.909031 -3.48437 0
M  V30 2853 C 275.917 -2.42044 -3.79123 0
M  V30 2854 C 277.236 -0.418341 -4.38107 0
M  V30 2855 H 274.355 -0.210888 -0.706184 0
M  V30 2856 H 276.997 -1.16522 -1.50075 0
M  V30 2857 H 275.147 -0.407947 -3.86352 0
M  V30 2858 H 276.819 -2.99359 -3.50973 0
M  V30 2859 H 275.062 -2.86758 -3.25503 0
M  V30 2860 H 275.733 -2.6037 -4.86736 0
M  V30 2861 H 278.209 -0.847856 -4.0737 0
M  V30 2862 H 277.085 -0.679981 -5.44672 0
M  V30 2863 H 277.346 0.681642 -4.36814 0
M  V30 2864 N 276.405 1.4127 -0.698611 0
M  V30 2865 C 277.335 2.33447 -0.049629 0
M  V30 2866 C 278.316 1.51982 0.763898 0
M  V30 2867 O 279.501 1.80509 0.716257 0
M  V30 2868 C 276.631 3.35828 0.885267 0
M  V30 2869 C 275.585 4.27627 0.178613 0
M  V30 2870 C 274.911 5.20406 1.22807 0
M  V30 2871 C 276.211 5.13459 -0.956933 0
M  V30 2872 H 277.905 2.87966 -0.81951 0
M  V30 2873 H 275.451 1.38461 -0.395538 0
M  V30 2874 H 277.404 3.9924 1.34854 0
M  V30 2875 H 276.128 2.79666 1.68685 0
M  V30 2876 H 274.787 3.65643 -0.26466 0
M  V30 2877 H 274.435 4.60558 2.02226 0
M  V30 2878 H 274.135 5.82661 0.760239 0
M  V30 2879 H 275.659 5.86695 1.69179 0
M  V30 2880 H 277.073 5.70421 -0.573805 0
M  V30 2881 H 275.47 5.8467 -1.35205 0
M  V30 2882 H 276.54 4.50443 -1.79524 0
M  V30 2883 N 277.883 0.443576 1.51229 0
M  V30 2884 C 279.294 -0.0180867 1.86691 0
M  V30 2885 C 279.645 -1.41384 1.36033 0
M  V30 2886 O 278.77 -2.04291 0.713722 0
M  V30 2887 C 279.365 -0.039597 3.38777 0
M  V30 2888 C 277.924 -0.445692 3.73752 0
M  V30 2889 C 277.071 0.357584 2.74985 0
M  V30 2890 H 280.022 0.659138 1.44364 0
M  V30 2891 H 280.043 -0.847761 3.70936 0
M  V30 2892 H 279.555 0.976382 3.75617 0
M  V30 2893 H 277.656 -1.46704 3.42503 0
M  V30 2894 H 277.769 -0.166155 4.78812 0
M  V30 2895 H 276.133 -0.184973 2.54027 0
M  V30 2896 H 276.916 1.37256 3.14668 0
M  V30 2897 N 279.361 -1.56624 0.175154 0
M  V30 2898 C 280.609 -1.96609 -0.467885 0
M  V30 2899 C 280.93 -1.06238 -1.63519 0
M  V30 2900 O 280.2 -0.129523 -1.95471 0
M  V30 2901 H 278.78 -0.726008 -0.175845 0
M  V30 2902 H 281.442 -1.93195 0.257234 0
M  V30 2903 H 280.538 -3.00989 -0.825342 0
M  V30 2904 N 280.839 0.0985539 -1.57292 0
M  V30 2905 C 281.769 1.12064 -2.04851 0
M  V30 2906 C 282.75 1.41981 -0.936767 0
M  V30 2907 O 283.935 1.52071 -1.20781 0
M  V30 2908 C 281.065 2.44144 -2.47004 0
M  V30 2909 C 280.019 2.28643 -3.6181 0
M  V30 2910 C 279.345 3.65869 -3.89929 0
M  V30 2911 C 280.645 1.72986 -4.92822 0
M  V30 2912 H 282.339 0.724979 -2.9049 0
M  V30 2913 H 279.885 0.34729 -1.39749 0
M  V30 2914 H 281.838 3.15914 -2.78884 0
M  V30 2915 H 280.562 2.85639 -1.5836 0
M  V30 2916 H 279.221 1.59318 -3.30172 0
M  V30 2917 H 278.869 4.04885 -2.98458 0
M  V30 2918 H 278.569 3.56344 -4.67218 0
M  V30 2919 H 280.093 4.39112 -4.2428 0
M  V30 2920 H 281.507 2.34593 -5.23105 0
M  V30 2921 H 279.904 1.74229 -5.74251 0
M  V30 2922 H 280.974 0.689007 -4.7998 0
M  V30 2923 N 282.317 1.53212 0.369288 0
M  V30 2924 C 283.566 1.68436 1.10961 0
M  V30 2925 C 283.879 0.440738 1.9057 0
M  V30 2926 O 285.085 0.473446 2.6734 0
M  V30 2927 C 283.541 2.97744 2.0218 0
M  V30 2928 C 283.149 4.29355 1.279 0
M  V30 2929 C 284.893 3.22334 2.76226 0
M  V30 2930 C 282.8 5.49755 2.17999 0
M  V30 2931 H 281.73 0.627568 0.41794 0
M  V30 2932 H 284.381 1.79713 0.370884 0
M  V30 2933 H 282.763 2.8026 2.79768 0
M  V30 2934 H 283.937 4.57458 0.554007 0
M  V30 2935 H 282.252 4.11179 0.657311 0
M  V30 2936 H 284.849 4.09471 3.43857 0
M  V30 2937 H 285.192 2.38238 3.41392 0
M  V30 2938 H 285.725 3.40475 2.05723 0
M  V30 2939 H 282.464 6.36318 1.57417 0
M  V30 2940 H 281.984 5.25937 2.88359 0
M  V30 2941 H 283.663 5.84401 2.77641 0
M  V30 2942 N 283.795 -0.628877 1.44509 0
M  V30 2943 C 284.745 -1.7345 1.47983 0
M  V30 2944 C 285.729 -1.5715 0.345373 0
M  V30 2945 O 286.921 -1.66848 0.590829 0
M  V30 2946 C 284.05 -3.12143 1.42904 0
M  V30 2947 C 283.136 -3.33906 2.61472 0
M  V30 2948 N 283.527 -3.26024 3.86706 0
M  V30 2949 C 281.825 -3.64709 2.56716 0
M  V30 2950 C 282.526 -3.48536 4.65722 0
M  V30 2951 N 281.502 -3.71517 3.96832 0
M  V30 2952 H 285.304 -1.65818 2.42655 0
M  V30 2953 H 282.818 -0.831419 1.39503 0
M  V30 2954 H 284.815 -3.91433 1.43476 0
M  V30 2955 H 283.475 -3.2094 0.492717 0
M  V30 2956 H 284.486 -3.04893 4.18641 0
M  V30 2957 H 281.163 -3.80473 1.71891 0
M  V30 2958 H 282.553 -3.48016 5.74747 0
M  V30 2959 N 285.273 -1.31445 -0.869486 0
M  V30 2960 C 286.22 -1.19135 -1.97675 0
M  V30 2961 C 287.19 -0.0770266 -1.65921 0
M  V30 2962 O 288.375 -0.249972 -1.89155 0
M  V30 2963 C 285.515 -0.905149 -3.33018 0
M  V30 2964 C 284.628 -2.10285 -3.77365 0
M  V30 2965 C 283.763 -1.75339 -5.01427 0
M  V30 2966 C 282.802 -2.91515 -5.38224 0
M  V30 2967 N 281.939 -2.56762 -6.53466 0
M  V30 2968 H 286.779 -2.13853 -2.07535 0
M  V30 2969 H 284.316 -1.06379 -1.01597 0
M  V30 2970 H 286.274 -0.719765 -4.10944 0
M  V30 2971 H 284.904 0.00519624 -3.228 0
M  V30 2972 H 283.956 -2.39899 -2.95216 0
M  V30 2973 H 285.268 -2.97237 -4.00564 0
M  V30 2974 H 284.422 -1.53266 -5.87022 0
M  V30 2975 H 283.161 -0.855801 -4.80133 0
M  V30 2976 H 282.166 -3.14237 -4.51149 0
M  V30 2977 H 283.391 -3.81985 -5.61484 0
M  V30 2978 H 281.337 -1.69526 -6.33717 0
M  V30 2979 H 281.254 -3.37243 -6.76612 0
M  V30 2980 H 282.522 -2.38083 -7.42251 0
M  V30 2981 N 286.751 1.08385 -1.14413 0
M  V30 2982 C 287.997 1.81044 -0.913834 0
M  V30 2983 C 288.33 1.86004 0.558209 0
M  V30 2984 O 287.605 1.33606 1.4135 0
M  V30 2985 C 287.888 3.26648 -1.51569 0
M  V30 2986 C 287.741 3.29895 -3.0576 0
M  V30 2987 C 289.06 4.23629 -1.19273 0
M  V30 2988 H 286.179 0.65727 -0.333414 0
M  V30 2989 H 288.821 1.26896 -1.41412 0
M  V30 2990 H 286.971 3.72889 -1.09023 0
M  V30 2991 H 288.643 2.91977 -3.57137 0
M  V30 2992 H 286.886 2.69163 -3.40197 0
M  V30 2993 H 287.557 4.32516 -3.42977 0
M  V30 2994 H 290.033 3.85727 -1.56057 0
M  V30 2995 H 288.909 5.23822 -1.64017 0
M  V30 2996 H 289.17 4.41968 -0.108068 0
M  V30 2997 N 288.23 0.939286 1.26551 0
M  V30 2998 C 289.18 0.418284 2.2413 0
M  V30 2999 C 290.164 -0.483935 1.5345 0
M  V30 3000 O 291.356 -0.319489 1.74093 0
M  V30 3001 C 288.485 -0.31709 3.41832 0
M  V30 3002 C 287.571 0.602311 4.19801 0
M  V30 3003 N 287.962 1.72726 4.75394 0
M  V30 3004 C 286.26 0.407534 4.44134 0
M  V30 3005 C 286.961 2.30004 5.34297 0
M  V30 3006 N 285.937 1.58828 5.1988 0
M  V30 3007 H 289.739 1.27705 2.64705 0
M  V30 3008 H 287.253 0.794929 1.41614 0
M  V30 3009 H 289.25 -0.707364 4.10855 0
M  V30 3010 H 287.91 -1.17264 3.02786 0
M  V30 3011 H 288.921 2.10944 4.72994 0
M  V30 3012 H 285.598 -0.406406 4.15517 0
M  V30 3013 H 286.988 3.24778 5.88191 0
M  V30 3014 N 289.708 -1.40897 0.706093 0
M  V30 3015 C 290.638 -2.33418 0.0620085 0
M  V30 3016 C 291.619 -1.52385 -0.755827 0
M  V30 3017 O 292.804 -1.80886 -0.706674 0
M  V30 3018 C 289.934 -3.36293 -0.867445 0
M  V30 3019 C 288.888 -4.27716 -0.155932 0
M  V30 3020 C 288.214 -5.2105 -1.20046 0
M  V30 3021 C 289.514 -5.12944 0.984149 0
M  V30 3022 H 291.208 -2.87527 0.83477 0
M  V30 3023 H 288.754 -1.38249 0.402875 0
M  V30 3024 H 290.707 -3.99949 -1.32735 0
M  V30 3025 H 289.431 -2.80556 -1.67199 0
M  V30 3026 H 288.09 -3.65498 0.284047 0
M  V30 3027 H 287.738 -4.61624 -1.99781 0
M  V30 3028 H 287.438 -5.83056 -0.729328 0
M  V30 3029 H 288.962 -5.87584 -1.66066 0
M  V30 3030 H 290.376 -5.70109 0.604048 0
M  V30 3031 H 288.773 -5.83945 1.38304 0
M  V30 3032 H 289.843 -4.49485 1.81911 0
M  V30 3033 N 291.186 -0.45159 -1.50991 0
M  V30 3034 C 292.149 0.341117 -2.26647 0
M  V30 3035 C 293.149 0.937422 -1.30649 0
M  V30 3036 O 294.339 0.809644 -1.54241 0
M  V30 3037 C 291.471 1.48398 -3.06905 0
M  V30 3038 H 292.664 -0.322117 -2.98165 0
M  V30 3039 H 290.217 -0.205122 -1.54948 0
M  V30 3040 H 290.952 2.18284 -2.39838 0
M  V30 3041 H 290.737 1.06241 -3.77432 0
M  V30 3042 H 292.227 2.04367 -3.64176 0
M  V30 3043 N 292.664 1.56529 -0.183458 0
M  V30 3044 C 293.611 2.18546 0.742055 0
M  V30 3045 C 294.581 1.12912 1.2182 0
M  V30 3046 O 295.766 1.41115 1.28418 0
M  V30 3047 C 292.906 2.83977 1.96089 0
M  V30 3048 C 292.019 4.04105 1.52719 0
M  V30 3049 C 291.154 4.57427 2.70063 0
M  V30 3050 C 290.193 5.69938 2.23243 0
M  V30 3051 N 289.33 6.17717 3.33722 0
M  V30 3052 H 294.17 2.97284 0.206432 0
M  V30 3053 H 291.707 1.46823 0.0901571 0
M  V30 3054 H 293.665 3.20077 2.67594 0
M  V30 3055 H 292.295 2.07822 2.47002 0
M  V30 3056 H 291.347 3.73745 0.708436 0
M  V30 3057 H 292.659 4.85513 1.1436 0
M  V30 3058 H 291.813 4.95772 3.49708 0
M  V30 3059 H 290.552 3.75101 3.11689 0
M  V30 3060 H 289.557 5.31133 1.42048 0
M  V30 3061 H 290.782 6.54073 1.82661 0
M  V30 3062 H 288.728 5.38317 3.74902 0
M  V30 3063 H 288.645 6.94146 2.99495 0
M  V30 3064 H 289.913 6.60713 4.13616 0
M  V30 3065 N 294.142 -0.090211 1.57342 0
M  V30 3066 C 295.367 -0.810082 1.90925 0
M  V30 3067 C 295.792 -1.71248 0.778187 0
M  V30 3068 O 295.15 -1.79278 -0.269991 0
M  V30 3069 C 295.198 -1.59529 3.23393 0
M  V30 3070 O 294.302 -2.70461 3.11327 0
M  V30 3071 H 293.643 -0.222231 0.625707 0
M  V30 3072 H 296.173 -0.0639716 2.045 0
M  V30 3073 H 296.183 -1.97847 3.5682 0
M  V30 3074 H 294.858 -0.933055 4.05299 0
M  V30 3075 H 293.435 -2.35135 2.89423 0
M  V30 3076 N 295.62 -1.53406 -0.361157 0
M  V30 3077 C 296.845 -1.74024 -1.12829 0
M  V30 3078 C 297.27 -0.470069 -1.82132 0
M  V30 3079 O 296.628 0.57619 -1.719 0
M  V30 3080 C 296.676 -2.90903 -2.13091 0
M  V30 3081 O 295.78 -2.59821 -3.20261 0
M  V30 3082 H 295.121 -0.577804 -0.327168 0
M  V30 3083 H 297.651 -2.00307 -0.41693 0
M  V30 3084 H 297.661 -3.17194 -2.56616 0
M  V30 3085 H 296.336 -3.83034 -1.62042 0
M  V30 3086 H 294.913 -2.44362 -2.81677 0
M  V30 3087 N 297.098 0.621204 -1.44841 0
M  V30 3088 C 298.346 1.37783 -1.47852 0
M  V30 3089 C 298.667 1.94653 -0.116224 0
M  V30 3090 O 297.937 1.76367 0.852737 0
M  V30 3091 H 296.517 0.511453 -0.544449 0
M  V30 3092 H 299.179 0.730446 -1.80694 0
M  V30 3093 H 298.275 2.20414 -2.20961 0
M  V30 3094 N 298.576 1.31904 0.862503 0
M  V30 3095 C 299.801 1.25135 1.65397 0
M  V30 3096 C 300.226 -0.179 1.87246 0
M  V30 3097 O 299.584 -1.1277 1.4196 0
M  V30 3098 C 299.632 2.00832 2.99498 0
M  V30 3099 O 298.736 1.35075 3.89652 0
M  V30 3100 H 298.077 0.431655 0.504549 0
M  V30 3101 H 300.607 1.74094 1.07483 0
M  V30 3102 H 300.617 2.10709 3.49379 0
M  V30 3103 H 299.292 3.04847 2.82916 0
M  V30 3104 H 297.869 1.33696 3.48109 0
M  V30 3105 N 300.054 -1.07777 1.14986 0
M  V30 3106 C 301.017 -2.13041 0.845358 0
M  V30 3107 C 302.017 -1.60071 -0.152931 0
M  V30 3108 O 303.207 -1.74033 0.0761879 0
M  V30 3109 C 300.339 -3.39896 0.261383 0
M  V30 3110 H 301.532 -2.41485 1.77834 0
M  V30 3111 H 299.085 -1.23595 0.956757 0
M  V30 3112 H 299.82 -3.17091 -0.68 0
M  V30 3113 H 299.605 -3.79642 0.980514 0
M  V30 3114 H 301.095 -4.17548 0.0657687 0
M  V30 3115 N 301.532 -0.945985 -1.26051 0
M  V30 3116 C 302.462 -0.477172 -2.28572 0
M  V30 3117 C 303.443 0.472032 -1.63419 0
M  V30 3118 O 304.628 0.372853 -1.90587 0
M  V30 3119 C 301.758 0.253975 -3.4637 0
M  V30 3120 C 300.712 -0.609135 -4.23643 0
M  V30 3121 C 300.038 0.252252 -5.34105 0
M  V30 3122 C 301.338 -1.8829 -4.8718 0
M  V30 3123 H 303.032 -1.33402 -2.68038 0
M  V30 3124 H 300.578 -0.642904 -1.28852 0
M  V30 3125 H 302.531 0.593016 -4.17207 0
M  V30 3126 H 301.255 1.145 -3.05871 0
M  V30 3127 H 299.914 -0.931138 -3.54578 0
M  V30 3128 H 299.562 1.14278 -4.89846 0
M  V30 3129 H 299.262 -0.32188 -5.86718 0
M  V30 3130 H 300.786 0.586454 -6.07777 0
M  V30 3131 H 302.2 -1.61081 -5.50205 0
M  V30 3132 H 300.597 -2.40199 -5.49931 0
M  V30 3133 H 301.667 -2.59134 -4.09851 0
M  V30 3134 N 303.011 1.40521 -0.713556 0
M  V30 3135 C 304.239 2.05237 -0.261775 0
M  V30 3136 C 304.654 1.53755 1.09567 0
M  V30 3137 O 304.011 0.693268 1.6882 0
M  V30 3138 C 304.062 3.60763 -0.230706 0
M  V30 3139 O 303.783 4.10345 -1.53455 0
M  V30 3140 C 305.284 4.42651 0.239874 0
M  V30 3141 H 302.504 0.660533 -0.118057 0
M  V30 3142 H 305.048 1.79967 -0.971192 0
M  V30 3143 H 303.203 3.8501 0.429661 0
M  V30 3144 H 303.617 5.04526 -1.43366 0
M  V30 3145 H 305.091 5.51599 0.210468 0
M  V30 3146 H 305.568 4.20082 1.28171 0
M  V30 3147 H 306.174 4.23507 -0.390142 0
M  V30 3148 N 304.489 0.459591 1.5075 0
M  V30 3149 C 305.735 -0.0994966 2.02556 0
M  V30 3150 C 306.068 -1.40399 1.3417 0
M  V30 3151 O 305.343 -1.88892 0.463683 0
M  V30 3152 C 305.626 -0.295242 3.58888 0
M  V30 3153 C 305.479 1.02947 4.37861 0
M  V30 3154 C 306.798 -1.05502 4.27267 0
M  V30 3155 H 303.917 -0.034686 0.736183 0
M  V30 3156 H 306.559 0.602938 1.8018 0
M  V30 3157 H 304.709 -0.893563 3.78084 0
M  V30 3158 H 306.381 1.66348 4.30263 0
M  V30 3159 H 304.624 1.62885 4.02058 0
M  V30 3160 H 305.295 0.846281 5.45474 0
M  V30 3161 H 307.771 -0.547993 4.12476 0
M  V30 3162 H 306.647 -1.16077 5.36486 0
M  V30 3163 H 306.908 -2.08875 3.89645 0
M  V30 3164 N 305.967 -1.56429 0.191757 0
M  V30 3165 C 307.213 -1.98541 -0.441943 0
M  V30 3166 C 307.568 -1.07646 -1.59468 0
M  V30 3167 O 306.861 -0.120191 -1.91223 0
M  V30 3168 C 307.055 -3.44449 -0.953384 0
M  V30 3169 C 306.884 -4.49456 0.148262 0
M  V30 3170 C 305.654 -5.01668 0.604781 0
M  V30 3171 C 307.852 -5.05336 0.95602 0
M  V30 3172 N 305.834 -5.90334 1.6846 0
M  V30 3173 C 307.205 -5.9064 1.88531 0
M  V30 3174 C 309.26 -4.87779 0.998811 0
M  V30 3175 C 307.963 -6.60264 2.85383 0
M  V30 3176 C 309.989 -5.58139 1.95537 0
M  V30 3177 C 309.351 -6.43187 2.8721 0
M  V30 3178 H 305.45 -0.771247 -0.129236 0
M  V30 3179 H 308.034 -1.92426 0.296682 0
M  V30 3180 H 306.205 -3.5107 -1.66146 0
M  V30 3181 H 307.937 -3.73533 -1.55741 0
M  V30 3182 H 304.692 -4.73183 0.198736 0
M  V30 3183 H 305.116 -6.39371 2.22561 0
M  V30 3184 H 309.758 -4.21705 0.304048 0
M  V30 3185 H 307.476 -7.25538 3.55837 0
M  V30 3186 H 311.062 -5.46532 1.99484 0
M  V30 3187 H 309.942 -6.96674 3.60022 0
M  V30 3188 N 307.445 0.0818655 -1.57387 0
M  V30 3189 C 308.693 0.781368 -1.86384 0
M  V30 3190 C 309.014 1.78618 -0.782342 0
M  V30 3191 O 308.284 1.94976 0.190061 0
M  V30 3192 H 306.864 0.291562 -0.687751 0
M  V30 3193 H 309.526 0.060348 -1.94807 0
M  V30 3194 H 308.622 1.3038 -2.83562 0
M  V30 3195 N 308.923 1.53595 0.353017 0
M  V30 3196 C 310.151 1.74311 1.1146 0
M  V30 3197 C 310.566 0.477854 1.82653 0
M  V30 3198 O 309.923 -0.549977 1.74016 0
M  V30 3199 C 309.974 2.91694 2.13534 0
M  V30 3200 O 309.695 4.13325 1.45238 0
M  V30 3201 C 311.196 3.24384 3.02142 0
M  V30 3202 H 308.416 0.582669 0.332773 0
M  V30 3203 H 310.96 2.00386 0.408107 0
M  V30 3204 H 309.115 2.67977 2.79763 0
M  V30 3205 H 309.529 4.79148 2.13349 0
M  V30 3206 H 311.003 4.09893 3.69718 0
M  V30 3207 H 311.48 2.40282 3.67643 0
M  V30 3208 H 312.086 3.50073 2.41514 0
M  V30 3209 N 310.401 -0.613514 1.45168 0
M  V30 3210 C 311.649 -1.36997 1.48581 0
M  V30 3211 C 311.97 -1.94589 0.126545 0
M  V30 3212 O 311.24 -1.76816 -0.843372 0
M  V30 3213 H 309.82 -0.508558 0.547154 0
M  V30 3214 H 312.482 -0.720853 1.81079 0
M  V30 3215 H 311.578 -2.1924 2.22127 0
M  V30 3216 N 311.879 -1.3236 -0.855495 0
M  V30 3217 C 312.827 -1.2118 -1.9854 0
M  V30 3218 C 313.821 -0.116788 -1.68997 0
M  V30 3219 O 315.027 -0.279657 -1.77814 0
M  V30 3220 H 311.402 -0.375608 -0.651477 0
M  V30 3221 H 313.373 -2.16743 -2.05098 0
M  V30 3222 C 312.122 -0.950849 -3.34446 0
M  V30 3223 H 311.445 -1.78563 -3.57708 0
M  V30 3224 H 312.885 -0.912863 -4.14057 0
M  V30 3225 C 311.344 0.346404 -3.35114 0
M  V30 3226 O 311.874 1.35855 -3.7803 0
M  V30 3227 N 310.08 0.36808 -2.88259 0
M  V30 3228 H 309.627 -0.456102 -2.5353 0
M  V30 3229 H 309.585 1.23591 -2.89089 0
M  V30 3230 N 313.357 1.07166 -1.15556 0
M  V30 3231 C 314.768 1.6127 -0.940693 0
M  V30 3232 C 315.119 1.89251 0.517551 0
M  V30 3233 O 314.244 1.65937 1.38903 0
M  V30 3234 C 314.839 2.92993 -1.7012 0
M  V30 3235 C 313.398 3.43832 -1.53156 0
M  V30 3236 C 312.545 2.1786 -1.71558 0
M  V30 3237 H 315.496 0.90229 -1.30554 0
M  V30 3238 H 315.517 3.62007 -1.17181 0
M  V30 3239 H 315.029 2.72596 -2.76248 0
M  V30 3240 H 313.13 3.69307 -0.494294 0
M  V30 3241 H 313.243 4.19747 -2.30975 0
M  V30 3242 H 311.607 2.2765 -1.14225 0
M  V30 3243 H 312.39 1.99956 -2.79056 0
M  V30 3244 N 314.835 0.952656 1.25548 0
M  V30 3245 C 316.251 0.656769 1.4546 0
M  V30 3246 C 316.451 -0.78633 1.85524 0
M  V30 3247 O 315.507 -1.56183 1.98402 0
M  V30 3248 C 316.82 1.62801 2.52817 0
M  V30 3249 C 318.368 1.63897 2.66659 0
M  V30 3250 C 318.843 2.5978 3.77198 0
M  V30 3251 N 320.334 2.58133 3.84606 0
M  V30 3252 C 321.069 3.29003 4.69621 0
M  V30 3253 N 320.565 4.09339 5.58939 0
M  V30 3254 N 322.358 3.179 4.63569 0
M  V30 3255 H 314.509 1.88526 0.978344 0
M  V30 3256 H 316.772 0.810815 0.491206 0
M  V30 3257 H 316.478 2.65869 2.30232 0
M  V30 3258 H 316.352 1.38898 3.50695 0
M  V30 3259 H 318.739 0.615481 2.8861 0
M  V30 3260 H 318.82 1.91858 1.69187 0
M  V30 3261 H 318.464 3.62254 3.55997 0
M  V30 3262 H 318.394 2.29105 4.7415 0
M  V30 3263 H 320.885 1.99809 3.20757 0
M  V30 3264 H 321.198 4.6034 6.20731 0
M  V30 3265 H 319.543 4.13438 5.58654 0
M  V30 3266 H 322.734 2.54612 3.92798 0
M  V30 3267 H 322.907 3.73398 5.29602 0
M  V30 3268 N 316.313 -1.40141 0.720998 0
M  V30 3269 C 317.729 -1.54632 0.395113 0
M  V30 3270 C 317.929 -1.69115 -1.09555 0
M  V30 3271 O 316.985 -1.68377 -1.88163 0
M  V30 3272 C 318.298 -2.77177 1.1659 0
M  V30 3273 C 319.846 -2.91 1.15274 0
M  V30 3274 C 320.321 -4.16465 1.90579 0
M  V30 3275 N 321.812 -4.23476 1.87675 0
M  V30 3276 C 322.547 -5.19475 2.42762 0
M  V30 3277 N 322.043 -6.21348 3.06428 0
M  V30 3278 N 323.836 -5.11592 2.32874 0
M  V30 3279 H 315.987 -1.28986 1.68749 0
M  V30 3280 H 318.25 -0.62412 0.713567 0
M  V30 3281 H 317.956 -2.72771 2.22011 0
M  V30 3282 H 317.83 -3.69442 0.76108 0
M  V30 3283 H 320.217 -2.94907 0.106702 0
M  V30 3284 H 320.298 -1.99838 1.59682 0
M  V30 3285 H 319.942 -4.1332 2.95176 0
M  V30 3286 H 319.872 -5.06646 1.43587 0
M  V30 3287 H 322.363 -3.50497 1.41281 0
M  V30 3288 H 322.676 -6.91034 3.45965 0
M  V30 3289 H 321.021 -6.21777 3.10514 0
M  V30 3290 H 324.212 -4.30936 1.82789 0
M  V30 3291 H 324.385 -5.86233 2.76106 0
M  V30 3292 N 317.792 -0.46758 -1.50504 0
M  V30 3293 C 318.724 0.364655 -2.26281 0
M  V30 3294 C 319.737 0.960151 -1.31472 0
M  V30 3295 O 320.926 0.849153 -1.57008 0
M  V30 3296 C 318.026 1.52509 -3.02645 0
M  V30 3297 C 317.199 1.04302 -4.24782 0
M  V30 3298 C 316.258 2.07709 -4.8347 0
M  V30 3299 O 315.284 1.65913 -5.44483 0
M  V30 3300 N 316.486 3.40485 -4.70159 0
M  V30 3301 H 319.251 -0.28495 -2.98342 0
M  V30 3302 H 316.812 -0.298163 -1.59131 0
M  V30 3303 H 318.804 2.21371 -3.38787 0
M  V30 3304 H 317.374 2.07945 -2.33404 0
M  V30 3305 H 316.594 0.180393 -3.93787 0
M  V30 3306 H 317.882 0.698798 -5.03978 0
M  V30 3307 H 317.28 3.77155 -4.21629 0
M  V30 3308 H 315.837 4.05156 -5.1058 0
M  V30 3309 N 319.27 1.56325 -0.20005 0
M  V30 3310 C 320.517 1.97719 0.437411 0
M  V30 3311 C 320.845 1.08709 1.61284 0
M  V30 3312 O 320.1 0.127261 1.95286 0
M  V30 3313 C 320.399 3.4495 0.935103 0
M  V30 3314 C 320.065 4.5072 -0.12749 0
M  V30 3315 C 318.727 4.79368 -0.419451 0
M  V30 3316 C 321.079 5.14268 -0.847231 0
M  V30 3317 C 318.407 5.68854 -1.43604 0
M  V30 3318 C 320.759 6.04852 -1.85301 0
M  V30 3319 C 319.423 6.31855 -2.15211 0
M  V30 3320 H 318.693 0.723507 0.16006 0
M  V30 3321 H 321.34 1.89166 -0.298056 0
M  V30 3322 H 319.645 3.50599 1.74894 0
M  V30 3323 H 321.342 3.74337 1.43781 0
M  V30 3324 H 317.932 4.28458 0.11023 0
M  V30 3325 H 322.116 4.92222 -0.634901 0
M  V30 3326 H 317.372 5.88047 -1.67364 0
M  V30 3327 H 321.546 6.53152 -2.41591 0
M  V30 3328 H 319.173 7.00994 -2.94129 0
M  V30 3329 N 320.748 -0.0735177 1.57428 0
M  V30 3330 C 321.997 -0.771809 1.86349 0
M  V30 3331 C 322.31 -1.78828 0.792452 0
M  V30 3332 O 323.516 -2.53602 0.96945 0
M  V30 3333 C 321.972 -1.42358 3.30548 0
M  V30 3334 C 321.58 -0.445761 4.45777 0
M  V30 3335 C 323.324 -2.10434 3.6867 0
M  V30 3336 C 321.231 -1.10335 5.81016 0
M  V30 3337 H 320.161 -0.291999 0.695164 0
M  V30 3338 H 322.812 -0.0250749 1.83483 0
M  V30 3339 H 321.194 -2.21852 3.28021 0
M  V30 3340 H 322.368 0.319239 4.59693 0
M  V30 3341 H 320.683 0.130457 4.16196 0
M  V30 3342 H 323.28 -2.60405 4.67004 0
M  V30 3343 H 323.623 -2.90298 2.98383 0
M  V30 3344 H 324.156 -1.37773 3.7318 0
M  V30 3345 H 320.895 -0.345061 6.54591 0
M  V30 3346 H 320.415 -1.83925 5.70904 0
M  V30 3347 H 322.094 -1.62367 6.26295 0
M  V30 3348 N 322.226 -1.5378 -0.344866 0
M  V30 3349 C 323.456 -1.74646 -1.10374 0
M  V30 3350 C 323.864 -0.48491 -1.8288 0
M  V30 3351 O 323.207 0.553062 -1.75177 0
M  V30 3352 C 323.269 -2.87145 -2.16306 0
M  V30 3353 C 322.933 -4.26795 -1.63386 0
M  V30 3354 C 323.93 -5.08412 -1.08688 0
M  V30 3355 C 321.615 -4.73276 -1.68272 0
M  V30 3356 C 323.609 -6.34609 -0.595792 0
M  V30 3357 C 321.296 -5.99446 -1.18776 0
M  V30 3358 C 322.294 -6.79946 -0.645215 0
M  V30 3359 O 321.982 -8.03745 -0.157626 0
M  V30 3360 H 321.714 -0.587112 -0.335075 0
M  V30 3361 H 324.268 -2.01403 -0.403252 0
M  V30 3362 H 322.498 -2.55909 -2.89909 0
M  V30 3363 H 324.187 -2.95992 -2.77747 0
M  V30 3364 H 324.953 -4.73666 -1.04236 0
M  V30 3365 H 320.832 -4.10677 -2.09442 0
M  V30 3366 H 324.376 -6.97389 -0.171654 0
M  V30 3367 H 320.273 -6.33687 -1.22928 0
M  V30 3368 H 321.041 -8.18038 -0.275037 0
M  V30 3369 N 323.704 0.605807 -1.45491 0
M  V30 3370 C 324.929 1.39625 -1.53361 0
M  V30 3371 C 325.354 1.87351 -0.167645 0
M  V30 3372 O 324.712 1.60243 0.848051 0
M  V30 3373 C 324.76 2.57559 -2.5238 0
M  V30 3374 O 323.864 3.58248 -2.04285 0
M  V30 3375 H 323.205 0.416771 -0.516912 0
M  V30 3376 H 325.735 0.737103 -1.90861 0
M  V30 3377 H 325.745 3.0478 -2.71244 0
M  V30 3378 H 324.42 2.22171 -3.51586 0
M  V30 3379 H 322.997 3.17664 -1.95305 0
M  V30 3380 N 325.182 1.32811 0.848464 0
M  V30 3381 C 326.112 1.24882 1.97299 0
M  V30 3382 C 327.093 0.131357 1.69592 0
M  V30 3383 O 328.278 0.319553 1.91553 0
M  V30 3384 C 325.408 0.97746 3.33261 0
M  V30 3385 C 324.362 2.05682 3.75338 0
M  V30 3386 C 323.688 1.63777 5.09 0
M  V30 3387 C 324.988 3.47254 3.90144 0
M  V30 3388 H 326.682 2.18966 2.04191 0
M  V30 3389 H 324.228 1.05413 0.981029 0
M  V30 3390 H 326.181 0.908513 4.1149 0
M  V30 3391 H 324.905 0.000980011 3.266 0
M  V30 3392 H 323.564 2.11603 2.99366 0
M  V30 3393 H 323.212 0.648569 4.98801 0
M  V30 3394 H 322.912 2.36 5.38124 0
M  V30 3395 H 324.436 1.5833 5.89715 0
M  V30 3396 H 325.85 3.43888 4.58709 0
M  V30 3397 H 324.247 4.1788 4.30693 0
M  V30 3398 H 325.317 3.86462 2.92874 0
M  V30 3399 N 326.66 -1.06551 1.16123 0
M  V30 3400 C 327.937 -1.76097 0.85142 0
M  V30 3401 C 328.317 -2.00802 -0.6513 0
M  V30 3402 O 327.665 -1.63302 -1.59827 0
M  V30 3403 C 327.875 -3.06384 1.67122 0
M  V30 3404 C 329.223 -3.80585 1.88255 0
M  V30 3405 O 330.247 -3.16218 1.63966 0
M  V30 3406 O 329.106 -4.96212 2.2899 0
M  V30 3407 H 326.2 -0.765102 0.313923 0
M  V30 3408 H 328.746 -1.12844 1.26745 0
M  V30 3409 H 327.518 -2.84071 2.69108 0
M  V30 3410 H 327.141 -3.77371 1.25206 0
M  V30 3411 N 328.138 -0.959301 -1.25041 0
M  V30 3412 C 329.068 -0.501388 -2.28053 0
M  V30 3413 C 330.049 0.454673 -1.63911 0
M  V30 3414 O 331.234 0.352618 -1.90972 0
M  V30 3415 C 328.364 0.217224 -3.4662 0
M  V30 3416 C 327.318 -0.654034 -4.22973 0
M  V30 3417 C 326.644 0.195589 -5.34342 0
M  V30 3418 C 327.944 -1.93447 -4.85155 0
M  V30 3419 H 329.638 -1.36238 -2.66608 0
M  V30 3420 H 327.184 -0.656534 -1.28163 0
M  V30 3421 H 329.137 0.548732 -4.17812 0
M  V30 3422 H 327.861 1.1125 -3.07068 0
M  V30 3423 H 326.52 -0.968693 -3.5357 0
M  V30 3424 H 326.168 1.09076 -4.91031 0
M  V30 3425 H 325.868 -0.384091 -5.86343 0
M  V30 3426 H 327.392 0.521958 -6.08365 0
M  V30 3427 H 328.806 -1.66908 -5.48466 0
M  V30 3428 H 327.203 -2.46018 -5.47353 0
M  V30 3429 H 328.273 -2.63466 -4.07079 0
M  V30 3430 N 329.616 1.39756 -0.72842 0
M  V30 3431 C 330.579 2.29012 -0.0927297 0
M  V30 3432 C 331.579 1.45992 0.674025 0
M  V30 3433 O 332.769 1.66749 0.50402 0
M  V30 3434 C 329.901 3.29396 0.878137 0
M  V30 3435 H 331.094 2.86729 -0.879011 0
M  V30 3436 H 328.647 1.48293 -0.493847 0
M  V30 3437 H 329.382 2.76722 1.69101 0
M  V30 3438 H 329.167 3.907 0.331051 0
M  V30 3439 H 330.657 3.96199 1.3197 0
M  V30 3440 N 331.094 0.475555 1.50254 0
M  V30 3441 C 332.026 -0.352649 2.26471 0
M  V30 3442 C 333.039 -0.953165 1.3198 0
M  V30 3443 O 334.228 -0.840815 1.57457 0
M  V30 3444 C 331.328 -1.50902 3.0345 0
M  V30 3445 C 330.501 -1.02047 4.25329 0
M  V30 3446 C 329.56 -2.05142 4.84565 0
M  V30 3447 O 328.586 -1.63023 5.45355 0
M  V30 3448 N 329.788 -3.37987 4.71959 0
M  V30 3449 H 332.553 0.300767 2.98187 0
M  V30 3450 H 330.114 0.306598 1.5897 0
M  V30 3451 H 332.106 -2.19572 3.39956 0
M  V30 3452 H 330.676 -2.06705 2.34504 0
M  V30 3453 H 329.896 -0.159507 3.93877 0
M  V30 3454 H 331.184 -0.672061 5.04342 0
M  V30 3455 H 330.582 -3.74913 4.23623 0
M  V30 3456 H 329.139 -4.02443 5.12721 0
M  V30 3457 N 332.573 -1.56217 0.208337 0
M  V30 3458 C 333.503 -2.22694 -0.702116 0
M  V30 3459 C 334.484 -1.19432 -1.2112 0
M  V30 3460 O 335.669 -1.47978 -1.25762 0
M  V30 3461 C 332.799 -2.8966 -1.9161 0
M  V30 3462 C 331.753 -3.9928 -1.5414 0
M  V30 3463 C 331.079 -4.53476 -2.83308 0
M  V30 3464 C 332.379 -5.17012 -0.741339 0
M  V30 3465 H 334.073 -2.99034 -0.147898 0
M  V30 3466 H 331.619 -1.43831 -0.0696951 0
M  V30 3467 H 333.572 -3.34852 -2.55836 0
M  V30 3468 H 332.296 -2.10746 -2.49507 0
M  V30 3469 H 330.955 -3.54799 -0.922668 0
M  V30 3470 H 330.603 -3.71308 -3.39322 0
M  V30 3471 H 330.303 -5.27451 -2.58976 0
M  V30 3472 H 331.827 -5.01378 -3.485 0
M  V30 3473 H 333.241 -5.58667 -1.28699 0
M  V30 3474 H 331.638 -5.97137 -0.595627 0
M  V30 3475 H 332.708 -4.8423 0.254851 0
M  V30 3476 N 334.051 0.0651679 -1.57465 0
M  V30 3477 C 335.298 0.763063 -1.87573 0
M  V30 3478 C 335.626 1.77242 -0.800961 0
M  V30 3479 O 334.881 1.94651 0.202316 0
M  V30 3480 C 335.18 1.50081 -3.24362 0
M  V30 3481 C 334.846 0.630816 -4.46466 0
M  V30 3482 C 333.508 0.391082 -4.79608 0
M  V30 3483 C 335.86 0.0279465 -5.21193 0
M  V30 3484 C 333.188 -0.460894 -5.84887 0
M  V30 3485 C 335.54 -0.811522 -6.27373 0
M  V30 3486 C 334.204 -1.06106 -6.59013 0
M  V30 3487 H 333.474 0.279224 -0.686378 0
M  V30 3488 H 336.121 0.0236726 -1.91485 0
M  V30 3489 H 334.426 2.31258 -3.16271 0
M  V30 3490 H 336.123 2.04571 -3.44894 0
M  V30 3491 H 332.713 0.8278 -4.2053 0
M  V30 3492 H 336.897 0.200262 -4.95896 0
M  V30 3493 H 332.153 -0.662907 -6.07796 0
M  V30 3494 H 336.327 -1.28537 -6.84435 0
M  V30 3495 H 333.954 -1.723 -7.40417 0
M  V30 3496 N 335.529 1.53961 0.336706 0
M  V30 3497 C 336.778 1.70751 1.07363 0
M  V30 3498 C 337.091 0.481061 1.89592 0
M  V30 3499 O 338.297 0.530046 2.66276 0
M  V30 3500 C 336.753 3.01965 1.95818 0
M  V30 3501 C 336.361 4.31971 1.18764 0
M  V30 3502 C 338.105 3.28121 2.69327 0
M  V30 3503 C 336.012 5.54255 2.06289 0
M  V30 3504 H 334.942 0.636292 0.404535 0
M  V30 3505 H 337.593 1.80459 0.332681 0
M  V30 3506 H 335.975 2.86132 2.7376 0
M  V30 3507 H 337.149 4.5853 0.456849 0
M  V30 3508 H 335.464 4.12481 0.569946 0
M  V30 3509 H 338.061 4.16673 3.35094 0
M  V30 3510 H 338.404 2.45426 3.36261 0
M  V30 3511 H 338.937 3.44762 1.98454 0
M  V30 3512 H 335.676 6.39513 1.43885 0
M  V30 3513 H 335.196 5.31935 2.77138 0
M  V30 3514 H 336.875 5.90159 2.65182 0
M  V30 3515 N 337.007 -0.598083 1.45811 0
M  V30 3516 C 338.253 -1.35679 1.51535 0
M  V30 3517 C 338.608 -1.91745 0.15864 0
M  V30 3518 O 337.901 -1.72654 -0.830724 0
M  V30 3519 C 338.095 -2.51669 2.53766 0
M  V30 3520 C 337.924 -2.06963 3.99245 0
M  V30 3521 C 336.694 -1.92693 4.67116 0
M  V30 3522 C 338.892 -1.63855 4.875 0
M  V30 3523 N 336.874 -1.41897 5.97276 0
M  V30 3524 C 338.245 -1.24541 6.07363 0
M  V30 3525 C 340.3 -1.51533 4.74281 0
M  V30 3526 C 339.003 -0.741354 7.15469 0
M  V30 3527 C 341.029 -1.0253 5.82444 0
M  V30 3528 C 340.391 -0.641869 7.01469 0
M  V30 3529 H 336.49 -0.490042 0.609412 0
M  V30 3530 H 339.074 -0.682687 1.82339 0
M  V30 3531 H 337.245 -3.16663 2.24898 0
M  V30 3532 H 338.977 -3.18578 2.4958 0
M  V30 3533 H 335.732 -2.1417 4.22408 0
M  V30 3534 H 336.156 -1.18704 6.66512 0
M  V30 3535 H 340.798 -1.798 3.82664 0
M  V30 3536 H 338.516 -0.446243 8.06867 0
M  V30 3537 H 342.102 -0.934088 5.74253 0
M  V30 3538 H 340.982 -0.268531 7.8374 0
M  V30 3539 N 338.485 -1.33259 -0.841409 0
M  V30 3540 C 339.731 -1.24757 -1.59886 0
M  V30 3541 C 340.064 0.186913 -1.93298 0
M  V30 3542 O 339.339 1.12757 -1.5848 0
M  V30 3543 C 339.622 -2.12036 -2.91055 0
M  V30 3544 C 339.475 -3.63929 -2.6434 0
M  V30 3545 C 340.794 -1.9916 -3.92458 0
M  V30 3546 H 337.913 -0.454542 -0.580138 0
M  V30 3547 H 340.555 -1.63335 -0.970647 0
M  V30 3548 H 338.705 -1.79265 -3.44669 0
M  V30 3549 H 340.377 -4.06978 -2.17178 0
M  V30 3550 H 338.62 -3.85935 -1.98082 0
M  V30 3551 H 339.291 -4.20341 -3.57796 0
M  V30 3552 H 341.767 -2.27895 -3.48143 0
M  V30 3553 H 340.643 -2.62484 -4.82072 0
M  V30 3554 H 340.904 -0.963082 -4.31482 0
M  V30 3555 N 339.963 1.05934 -1.16686 0
M  V30 3556 C 340.893 2.1546 -0.899949 0
M  V30 3557 C 341.874 1.69391 0.155154 0
M  V30 3558 O 343.059 1.94199 0.00648693 0
M  V30 3559 C 340.189 3.44939 -0.404241 0
M  V30 3560 C 339.143 4.04536 -1.39767 0
M  V30 3561 C 338.469 5.29268 -0.760216 0
M  V30 3562 C 339.769 4.42893 -2.76845 0
M  V30 3563 H 341.463 2.38046 -1.81588 0
M  V30 3564 H 339.009 1.14404 -0.874514 0
M  V30 3565 H 340.962 4.20901 -0.204971 0
M  V30 3566 H 339.686 3.21983 0.547206 0
M  V30 3567 H 338.345 3.30635 -1.58355 0
M  V30 3568 H 337.993 5.02611 0.197831 0
M  V30 3569 H 337.693 5.70101 -1.42332 0
M  V30 3570 H 339.217 6.07924 -0.57105 0
M  V30 3571 H 340.631 5.09921 -2.62019 0
M  V30 3572 H 339.028 4.94721 -3.39663 0
M  V30 3573 H 340.098 3.53584 -3.31823 0
M  V30 3574 N 341.441 0.965919 1.2453 0
M  V30 3575 C 342.857 0.67216 1.44756 0
M  V30 3576 C 343.057 -0.766609 1.86347 0
M  V30 3577 O 342.113 -1.5407 2.00047 0
M  V30 3578 C 343.426 1.65473 2.51076 0
M  V30 3579 C 344.974 1.66716 2.64905 0
M  V30 3580 C 345.449 2.63766 3.74421 0
M  V30 3581 N 346.94 2.62198 3.81846 0
M  V30 3582 C 347.675 3.33966 4.66106 0
M  V30 3583 N 347.171 4.15245 5.54566 0
M  V30 3584 N 348.964 3.22799 4.60171 0
M  V30 3585 H 341.115 1.89553 0.958293 0
M  V30 3586 H 343.378 0.815979 0.482579 0
M  V30 3587 H 343.084 2.68296 2.27399 0
M  V30 3588 H 342.958 1.4261 3.49202 0
M  V30 3589 H 345.345 0.646057 2.87941 0
M  V30 3590 H 345.426 1.93642 1.67142 0
M  V30 3591 H 345.07 3.6601 3.52135 0
M  V30 3592 H 345 2.34121 4.71694 0
M  V30 3593 H 347.491 2.032 3.18619 0
M  V30 3594 H 347.804 4.66898 6.15814 0
M  V30 3595 H 346.149 4.1934 5.54237 0
M  V30 3596 H 349.34 2.58764 3.90075 0
M  V30 3597 H 349.513 3.78994 5.25612 0
M  V30 3598 N 342.919 -1.39368 0.735821 0
M  V30 3599 C 343.829 -2.34395 0.0979693 0
M  V30 3600 C 344.845 -1.58361 -0.720968 0
M  V30 3601 O 346.021 -1.90648 -0.649245 0
M  V30 3602 C 343.086 -3.37393 -0.797916 0
M  V30 3603 C 342.147 -4.29287 0.0333662 0
M  V30 3604 C 341.38 -5.27365 -0.819854 0
M  V30 3605 O 341.603 -5.31959 -2.05855 0
M  V30 3606 O 340.537 -6.01389 -0.248079 0
M  V30 3607 H 344.363 -2.90601 0.882315 0
M  V30 3608 H 341.948 -1.40909 0.4965 0
M  V30 3609 H 343.83 -4.00505 -1.31048 0
M  V30 3610 H 342.505 -2.83571 -1.56106 0
M  V30 3611 H 341.412 -3.69395 0.591475 0
M  V30 3612 H 342.745 -4.86317 0.758752 0
M  V30 3613 N 344.397 -0.483516 -1.5 0
M  V30 3614 C 345.627 0.0643896 -2.065 0
M  V30 3615 C 346.035 1.32949 -1.34615 0
M  V30 3616 O 345.378 1.79003 -0.412756 0
M  V30 3617 C 345.44 0.405983 -3.572 0
M  V30 3618 C 345.104 -0.758875 -4.50655 0
M  V30 3619 C 346.101 -1.64445 -4.93208 0
M  V30 3620 C 343.786 -0.952725 -4.93182 0
M  V30 3621 C 345.78 -2.70818 -5.77006 0
M  V30 3622 C 343.467 -2.01966 -5.76761 0
M  V30 3623 C 344.465 -2.89574 -6.18576 0
M  V30 3624 O 344.153 -3.94429 -7.00486 0
M  V30 3625 H 343.885 -0.00934786 -0.675935 0
M  V30 3626 H 346.439 -0.674959 -1.93993 0
M  V30 3627 H 344.669 1.19869 -3.67652 0
M  V30 3628 H 346.358 0.890433 -3.96013 0
M  V30 3629 H 347.124 -1.50643 -4.61012 0
M  V30 3630 H 343.003 -0.280247 -4.60147 0
M  V30 3631 H 346.547 -3.3923 -6.09565 0
M  V30 3632 H 342.444 -2.1577 -6.0837 0
M  V30 3633 H 343.212 -3.91568 -7.1876 0
M  V30 3634 N 345.875 1.56104 -0.216619 0
M  V30 3635 C 346.823 2.21434 0.712036 0
M  V30 3636 C 347.817 1.19218 1.20348 0
M  V30 3637 O 349.023 1.3731 1.16387 0
M  V30 3638 H 345.398 0.70992 0.248026 0
M  V30 3639 H 347.369 2.98083 0.137558 0
M  V30 3640 C 346.118 2.90434 1.91163 0
M  V30 3641 H 345.441 3.68842 1.54258 0
M  V30 3642 H 346.881 3.39552 2.5393 0
M  V30 3643 C 345.34 1.92635 2.76394 0
M  V30 3644 O 345.87 1.44017 3.74996 0
M  V30 3645 N 344.076 1.60392 2.42328 0
M  V30 3646 H 343.623 2.00122 1.622 0
M  V30 3647 H 343.581 0.952159 2.99635 0
M  V30 3648 N 347.353 -0.0568162 1.57498 0
M  V30 3649 C 348.263 -1.08346 2.08083 0
M  V30 3650 C 349.279 -1.41439 1.01346 0
M  V30 3651 O 350.455 -1.51316 1.32912 0
M  V30 3652 C 347.52 -2.37352 2.52715 0
M  V30 3653 C 346.581 -2.11093 3.73816 0
M  V30 3654 C 345.814 -3.33949 4.1631 0
M  V30 3655 O 346.037 -4.43622 3.58547 0
M  V30 3656 O 344.971 -3.21279 5.08983 0
M  V30 3657 H 348.797 -0.683667 2.95905 0
M  V30 3658 H 346.382 -0.271965 1.46904 0
M  V30 3659 H 348.264 -3.13246 2.81877 0
M  V30 3660 H 346.939 -2.76681 1.68016 0
M  V30 3661 H 345.846 -1.32856 3.49714 0
M  V30 3662 H 347.179 -1.76637 4.59413 0
M  V30 3663 N 348.832 -1.54138 -0.328536 0
M  V30 3664 C 350.078 -1.7236 -1.06865 0
M  V30 3665 C 350.411 -0.493231 -1.87832 0
M  V30 3666 O 349.686 0.5098 -1.877 0
M  V30 3667 C 349.969 -2.99621 -1.99747 0
M  V30 3668 C 349.822 -4.32899 -1.22143 0
M  V30 3669 C 351.141 -3.22615 -2.99345 0
M  V30 3670 H 348.26 -0.627151 -0.387105 0
M  V30 3671 H 350.902 -1.86827 -0.345767 0
M  V30 3672 H 349.052 -2.87418 -2.61387 0
M  V30 3673 H 350.724 -4.56978 -0.630017 0
M  V30 3674 H 348.967 -4.30628 -0.523628 0
M  V30 3675 H 349.638 -5.18154 -1.90318 0
M  V30 3676 H 352.114 -3.34248 -2.47826 0
M  V30 3677 H 350.99 -4.13027 -3.61524 0
M  V30 3678 H 351.251 -2.3961 -3.71536 0
M  V30 3679 N 350.31 0.590341 -1.46126 0
M  V30 3680 C 351.22 1.72793 -1.58681 0
M  V30 3681 C 352.236 1.67516 -0.470566 0
M  V30 3682 O 353.412 1.87562 -0.733642 0
M  V30 3683 C 350.477 3.09287 -1.5666 0
M  V30 3684 C 349.538 3.25886 -2.79458 0
M  V30 3685 C 348.771 4.55869 -2.77524 0
M  V30 3686 O 348.994 5.3928 -1.85832 0
M  V30 3687 O 347.928 4.75552 -3.68964 0
M  V30 3688 H 351.754 1.65149 -2.54872 0
M  V30 3689 H 349.339 0.756486 -1.28832 0
M  V30 3690 H 351.221 3.90577 -1.58202 0
M  V30 3691 H 349.896 3.17385 -0.636271 0
M  V30 3692 H 348.803 2.44119 -2.83472 0
M  V30 3693 H 350.136 3.22675 -3.71674 0
M  V30 3694 N 351.788 1.33704 0.83433 0
M  V30 3695 C 353.199 1.22813 1.4062 0
M  V30 3696 C 353.55 -0.151107 1.95617 0
M  V30 3697 O 352.675 -1.05092 1.89168 0
M  V30 3698 C 353.27 2.22355 2.55624 0
M  V30 3699 C 351.829 2.1529 3.08751 0
M  V30 3700 C 350.976 2.09589 1.8157 0
M  V30 3701 H 353.927 1.45236 0.639702 0
M  V30 3702 H 353.948 1.83391 3.33389 0
M  V30 3703 H 353.46 3.22728 2.15566 0
M  V30 3704 H 351.561 1.18235 3.53343 0
M  V30 3705 H 351.674 3.06038 3.68616 0
M  V30 3706 H 350.038 1.55134 2.02004 0
M  V30 3707 H 350.821 3.11777 1.43701 0
M  V30 3708 N 353.266 -1.05314 1.17247 0
M  V30 3709 C 354.515 -1.77685 0.954521 0
M  V30 3710 C 354.828 -1.88616 -0.518025 0
M  V30 3711 O 356.034 -2.57714 -0.854144 0
M  V30 3712 C 354.49 -3.19402 1.65863 0
M  V30 3713 C 354.098 -3.16605 3.16963 0
M  V30 3714 C 355.842 -3.96237 1.52303 0
M  V30 3715 C 353.749 -4.53103 3.80068 0
M  V30 3716 H 352.679 -0.666 0.353496 0
M  V30 3717 H 355.33 -1.1805 1.40486 0
M  V30 3718 H 353.712 -3.79355 1.13602 0
M  V30 3719 H 354.886 -2.66176 3.76148 0
M  V30 3720 H 353.201 -2.53268 3.30521 0
M  V30 3721 H 355.798 -4.97157 1.96822 0
M  V30 3722 H 356.141 -4.136 0.473401 0
M  V30 3723 H 356.674 -3.42829 2.01775 0
M  V30 3724 H 353.413 -4.40946 4.85023 0
M  V30 3725 H 352.933 -5.03686 3.2567 0
M  V30 3726 H 354.612 -5.22045 3.82202 0
M  V30 3727 N 354.744 -0.972509 -1.24016 0
M  V30 3728 C 355.993 -0.632603 -1.91523 0
M  V30 3729 C 356.306 0.836641 -1.76804 0
M  V30 3730 O 357.512 1.28728 -2.39043 0
M  V30 3731 C 355.968 -1.08082 -3.43287 0
M  V30 3732 C 355.576 -2.57386 -3.66683 0
M  V30 3733 C 357.32 -0.814288 -4.16617 0
M  V30 3734 C 355.227 -2.95915 -5.12043 0
M  V30 3735 H 354.157 -0.232898 -0.717129 0
M  V30 3736 H 356.808 -1.17936 -1.40582 0
M  V30 3737 H 355.19 -0.462339 -3.93292 0
M  V30 3738 H 356.364 -3.24405 -3.27258 0
M  V30 3739 H 354.679 -2.81701 -3.06649 0
M  V30 3740 H 357.276 -1.0781 -5.23718 0
M  V30 3741 H 357.619 0.24955 -4.15551 0
M  V30 3742 H 358.152 -1.39397 -3.72577 0
M  V30 3743 H 354.891 -4.0139 -5.18234 0
M  V30 3744 H 354.411 -2.33584 -5.52448 0
M  V30 3745 H 356.09 -2.86086 -5.80314 0
M  V30 3746 N 356.222 1.38976 -0.743202 0
M  V30 3747 C 357.152 2.33171 -0.123873 0
M  V30 3748 C 358.133 1.54336 0.71516 0
M  V30 3749 O 359.318 1.82696 0.658467 0
M  V30 3750 C 356.448 3.38474 0.777978 0
M  V30 3751 C 355.402 4.27979 0.0424758 0
M  V30 3752 C 354.728 5.2405 1.06189 0
M  V30 3753 C 356.028 5.10155 -1.1198 0
M  V30 3754 H 357.722 2.85213 -0.910709 0
M  V30 3755 H 355.268 1.37133 -0.439388 0
M  V30 3756 H 357.221 4.03328 1.22084 0
M  V30 3757 H 355.945 2.84891 1.59702 0
M  V30 3758 H 354.604 3.64616 -0.380853 0
M  V30 3759 H 354.252 4.66758 1.87472 0
M  V30 3760 H 353.952 5.84785 0.574485 0
M  V30 3761 H 355.476 5.9178 1.50428 0
M  V30 3762 H 356.89 5.68307 -0.75499 0
M  V30 3763 H 355.287 5.80073 -1.53738 0
M  V30 3764 H 356.357 4.44504 -1.93764 0
M  V30 3765 N 357.7 0.491464 1.49741 0
M  V30 3766 C 358.925 -0.0557177 2.07325 0
M  V30 3767 C 359.35 -1.30925 1.35056 0
M  V30 3768 O 358.708 -1.76733 0.404365 0
M  V30 3769 C 358.756 -0.302074 3.59333 0
M  V30 3770 O 357.86 -1.37868 3.88672 0
M  V30 3771 H 357.201 0.0219956 0.663636 0
M  V30 3772 H 359.731 0.688352 1.92673 0
M  V30 3773 H 359.741 -0.536464 4.04458 0
M  V30 3774 H 358.416 0.61383 4.11345 0
M  V30 3775 H 356.993 -1.12999 3.55367 0
M  V30 3776 N 359.178 -1.55987 0.224894 0
M  V30 3777 C 360.424 -1.98684 -0.406502 0
M  V30 3778 C 360.757 -1.11248 -1.59177 0
M  V30 3779 O 360.032 -0.170909 -1.93748 0
M  V30 3780 C 360.315 -3.50218 -0.837808 0
M  V30 3781 C 360.168 -4.48426 0.351332 0
M  V30 3782 C 361.487 -4.06243 -1.69278 0
M  V30 3783 H 358.606 -0.722337 -0.146283 0
M  V30 3784 H 361.248 -1.87255 0.321799 0
M  V30 3785 H 359.398 -3.60089 -1.45837 0
M  V30 3786 H 361.07 -4.50562 0.989526 0
M  V30 3787 H 359.313 -4.22159 0.998207 0
M  V30 3788 H 359.984 -5.52 0.00655905 0
M  V30 3789 H 362.46 -3.99337 -1.16914 0
M  V30 3790 H 361.336 -5.12581 -1.96346 0
M  V30 3791 H 361.597 -3.53332 -2.65723 0
M  V30 3792 N 360.656 0.0484629 -1.57525 0
M  V30 3793 C 361.904 0.741657 -1.88 0
M  V30 3794 C 362.225 1.76918 -0.820054 0
M  V30 3795 O 361.495 1.95335 0.148661 0
M  V30 3796 H 360.075 0.276908 -0.69378 0
M  V30 3797 H 362.737 0.019013 -1.94891 0
M  V30 3798 H 361.833 1.24336 -2.86264 0
M  V30 3799 N 362.134 1.5431 0.320358 0
M  V30 3800 C 363.044 1.86946 1.41734 0
M  V30 3801 C 364.06 0.761689 1.56443 0
M  V30 3802 O 365.236 1.05629 1.71477 0
M  V30 3803 C 362.301 2.09293 2.76401 0
M  V30 3804 C 361.362 3.33082 2.70841 0
M  V30 3805 C 360.595 3.54353 3.99086 0
M  V30 3806 O 360.818 2.79002 4.97508 0
M  V30 3807 O 359.752 4.47838 4.0215 0
M  V30 3808 H 363.578 2.80232 1.17062 0
M  V30 3809 H 361.163 1.40255 0.514673 0
M  V30 3810 H 363.045 2.25303 3.56113 0
M  V30 3811 H 361.72 1.19194 3.00956 0
M  V30 3812 H 360.627 3.22454 1.89668 0
M  V30 3813 H 361.96 4.23249 2.5124 0
M  V30 3814 N 363.613 -0.582584 1.46437 0
M  V30 3815 C 364.523 -1.71949 1.59595 0
M  V30 3816 C 365.539 -1.67264 0.479443 0
M  V30 3817 O 366.715 -1.87171 0.743579 0
M  V30 3818 C 363.78 -3.08452 1.58298 0
M  V30 3819 C 362.841 -3.244 2.81182 0
M  V30 3820 C 362.074 -4.54391 2.79937 0
M  V30 3821 O 362.297 -5.38287 1.8869 0
M  V30 3822 O 361.231 -4.73588 3.71481 0
M  V30 3823 H 365.057 -1.63795 2.55744 0
M  V30 3824 H 362.642 -0.749643 1.29231 0
M  V30 3825 H 364.524 -3.89732 1.60271 0
M  V30 3826 H 363.199 -3.17043 0.653094 0
M  V30 3827 H 362.106 -2.42613 2.84763 0
M  V30 3828 H 363.439 -3.20699 3.7338 0
M  V30 3829 N 365.091 -1.34144 -0.827227 0
M  V30 3830 C 366.368 -1.16844 -1.56865 0
M  V30 3831 C 366.748 0.260654 -2.09485 0
M  V30 3832 O 366.096 1.26138 -1.9053 0
M  V30 3833 C 366.306 -2.21939 -2.6934 0
M  V30 3834 C 367.654 -2.56695 -3.3822 0
M  V30 3835 O 368.678 -2.20695 -2.79593 0
M  V30 3836 O 367.537 -3.18518 -4.44082 0
M  V30 3837 H 364.631 -0.452669 -0.692112 0
M  V30 3838 H 367.177 -1.45763 -0.868973 0
M  V30 3839 H 365.949 -3.17882 -2.28182 0
M  V30 3840 H 365.572 -1.94172 -3.46962 0
M  V30 3841 N 366.569 1.04691 -1.17803 0
M  V30 3842 C 367.479 2.16057 -0.914151 0
M  V30 3843 C 368.495 1.73589 0.119503 0
M  V30 3844 O 369.671 2.01308 -0.0609468 0
M  V30 3845 C 366.736 3.4394 -0.436603 0
M  V30 3846 C 365.797 4.00825 -1.53746 0
M  V30 3847 C 365.03 5.22604 -1.0826 0
M  V30 3848 O 365.253 5.70367 0.0612244 0
M  V30 3849 O 364.187 5.7186 -1.87775 0
M  V30 3850 H 368.013 2.41169 -1.84584 0
M  V30 3851 H 365.598 1.1453 -0.959334 0
M  V30 3852 H 367.48 4.21024 -0.178057 0
M  V30 3853 H 366.155 3.20316 0.466869 0
M  V30 3854 H 365.062 3.25158 -1.84995 0
M  V30 3855 H 366.395 4.28778 -2.41683 0
M  V30 3856 N 368.047 0.979072 1.23499 0
M  V30 3857 C 369.293 0.648178 1.92163 0
M  V30 3858 C 369.626 -0.816049 1.76222 0
M  V30 3859 O 368.901 -1.58849 1.12237 0
M  V30 3860 C 369.184 1.03773 3.44824 0
M  V30 3861 C 369.037 2.55948 3.69879 0
M  V30 3862 C 370.356 0.580653 4.36253 0
M  V30 3863 H 367.475 0.236952 0.69787 0
M  V30 3864 H 370.117 1.22012 1.45647 0
M  V30 3865 H 368.267 0.551058 3.84572 0
M  V30 3866 H 369.939 3.12179 3.3962 0
M  V30 3867 H 368.182 2.98641 3.14636 0
M  V30 3868 H 368.853 2.78255 4.76737 0
M  V30 3869 H 371.329 0.998465 4.03943 0
M  V30 3870 H 370.205 0.881663 5.41773 0
M  V30 3871 H 370.466 -0.519052 4.39042 0
M  V30 3872 N 369.525 -1.3858 0.750561 0
M  V30 3873 C 370.75 -2.04997 0.314812 0
M  V30 3874 C 371.175 -1.56235 -1.04749 0
M  V30 3875 O 370.533 -0.712981 -1.66692 0
M  V30 3876 C 370.581 -3.58961 0.343415 0
M  V30 3877 O 369.685 -4.07025 -0.663628 0
M  V30 3878 H 369.026 -0.649081 0.139962 0
M  V30 3879 H 371.556 -1.77313 1.02084 0
M  V30 3880 H 371.566 -4.07542 0.193233 0
M  V30 3881 H 370.241 -3.93811 1.33738 0
M  V30 3882 H 368.818 -3.6982 -0.478307 0
M  V30 3883 N 371.003 -0.499398 -1.49478 0
M  V30 3884 C 372.252 0.0475259 -2.01644 0
M  V30 3885 C 372.565 1.38195 -1.38425 0
M  V30 3886 O 373.771 2.01547 -1.8191 0
M  V30 3887 C 372.227 0.135164 -3.59646 0
M  V30 3888 C 371.835 -1.19252 -4.31837 0
M  V30 3889 C 373.579 0.632538 -4.19761 0
M  V30 3890 C 371.486 -1.06713 -5.81693 0
M  V30 3891 H 370.416 0.0215349 -0.753692 0
M  V30 3892 H 373.067 -0.638577 -1.7203 0
M  V30 3893 H 371.449 0.885681 -3.85969 0
M  V30 3894 H 372.623 -1.9562 -4.17216 0
M  V30 3895 H 370.938 -1.62321 -3.83459 0
M  V30 3896 H 373.535 0.743833 -5.29501 0
M  V30 3897 H 373.878 1.63098 -3.83021 0
M  V30 3898 H 374.411 -0.0613987 -3.97753 0
M  V30 3899 H 371.15 -2.03979 -6.22955 0
M  V30 3900 H 370.67 -0.344307 -5.98811 0
M  V30 3901 H 372.349 -0.745208 -6.42694 0
M  V30 3902 N 372.481 1.55866 -0.233164 0
M  V30 3903 C 373.428 2.20796 0.67215 0
M  V30 3904 C 374.398 1.16731 1.18166 0
M  V30 3905 O 375.583 1.45129 1.23864 0
M  V30 3906 C 372.723 2.90072 1.86955 0
M  V30 3907 C 371.836 4.08759 1.39786 0
M  V30 3908 C 370.971 4.65787 2.55374 0
M  V30 3909 C 370.01 5.76752 2.04998 0
M  V30 3910 N 369.147 6.28021 3.13901 0
M  V30 3911 H 373.987 2.9779 0.111749 0
M  V30 3912 H 371.524 1.47036 0.0434007 0
M  V30 3913 H 373.482 3.28428 2.57276 0
M  V30 3914 H 372.112 2.15575 2.40265 0
M  V30 3915 H 371.164 3.7581 0.589173 0
M  V30 3916 H 372.476 4.88906 0.98856 0
M  V30 3917 H 371.63 5.06646 3.33758 0
M  V30 3918 H 370.369 3.84828 2.99598 0
M  V30 3919 H 369.374 5.35383 1.25079 0
M  V30 3920 H 370.599 6.59553 1.61759 0
M  V30 3921 H 368.545 5.49971 3.57586 0
M  V30 3922 H 368.462 7.03323 2.7726 0
M  V30 3923 H 369.73 6.73538 3.92386 0
M  V30 3924 N 373.959 -0.0401083 1.57549 0
M  V30 3925 C 374.869 -1.06133 2.0922 0
M  V30 3926 C 375.885 -1.40356 1.0284 0
M  V30 3927 O 377.061 -1.49897 1.34509 0
M  V30 3928 C 374.126 -2.34658 2.55218 0
M  V30 3929 C 373.187 -2.07117 3.76033 0
M  V30 3930 C 372.42 -3.29514 4.19829 0
M  V30 3931 O 372.643 -4.39794 3.63232 0
M  V30 3932 O 371.577 -3.15863 5.12362 0
M  V30 3933 H 375.403 -0.652244 2.96613 0
M  V30 3934 H 372.988 -0.256368 1.47184 0
M  V30 3935 H 374.87 -3.10239 2.85184 0
M  V30 3936 H 373.545 -2.74883 1.70941 0
M  V30 3937 H 372.452 -1.29139 3.51104 0
M  V30 3938 H 373.785 -1.71754 4.61261 0
M  V30 3939 N 375.437 -1.54477 -0.31217 0
M  V30 3940 C 376.4 -1.83923 -1.36766 0
M  V30 3941 C 377.4 -0.711563 -1.44199 0
M  V30 3942 O 378.59 -0.979866 -1.44029 0
M  V30 3943 C 375.722 -2.0095 -2.75376 0
M  V30 3944 H 376.915 -2.78239 -1.11906 0
M  V30 3945 H 374.468 -1.46369 -0.548257 0
M  V30 3946 H 375.203 -1.08883 -3.05475 0
M  V30 3947 H 374.988 -2.83018 -2.71373 0
M  V30 3948 H 376.478 -2.2514 -3.51713 0
M  V30 3949 N 376.915 0.57481 -1.46744 0
M  V30 3950 C 377.878 1.66533 -1.57478 0
M  V30 3951 C 378.878 1.54338 -0.451263 0
M  V30 3952 O 380.068 1.58814 -0.715813 0
M  V30 3953 C 377.2 3.05999 -1.50259 0
M  V30 3954 H 378.393 1.58372 -2.54673 0
M  V30 3955 H 375.946 0.793301 -1.34672 0
M  V30 3956 H 376.681 3.19709 -0.543725 0
M  V30 3957 H 376.466 3.16259 -2.31781 0
M  V30 3958 H 377.956 3.8537 -1.60872 0
M  V30 3959 N 378.394 1.34581 0.820102 0
M  V30 3960 C 379.304 1.28471 1.96297 0
M  V30 3961 C 380.32 0.191902 1.72939 0
M  V30 3962 O 381.496 0.418879 1.96996 0
M  V30 3963 C 378.561 1.04281 3.30645 0
M  V30 3964 C 377.622 2.22745 3.66992 0
M  V30 3965 C 376.855 1.997 4.9493 0
M  V30 3966 O 377.078 0.956656 5.6232 0
M  V30 3967 O 376.012 2.86723 5.2922 0
M  V30 3968 H 379.838 2.24624 2.04396 0
M  V30 3969 H 377.423 1.14816 0.955913 0
M  V30 3970 H 379.305 0.925841 4.11104 0
M  V30 3971 H 377.98 0.111697 3.23507 0
M  V30 3972 H 376.887 2.40003 2.86966 0
M  V30 3973 H 378.22 3.14257 3.78819 0
M  V30 3974 N 379.872 -1.04064 1.18357 0
M  V30 3975 C 380.835 -2.10243 0.912707 0
M  V30 3976 C 381.835 -1.60477 -0.101928 0
M  V30 3977 O 383.025 -1.73703 0.131517 0
M  V30 3978 C 380.157 -3.38893 0.369387 0
M  V30 3979 H 381.35 -2.35706 1.85426 0
M  V30 3980 H 378.903 -1.20489 0.995594 0
M  V30 3981 H 379.638 -3.19094 -0.578776 0
M  V30 3982 H 379.423 -3.76331 1.1008 0
M  V30 3983 H 380.913 -4.17128 0.198575 0
M  V30 3984 N 381.35 -0.985608 -1.22978 0
M  V30 3985 C 382.596 -0.65836 -1.91816 0
M  V30 3986 C 382.929 0.806692 -1.76653 0
M  V30 3987 O 382.204 1.58252 -1.13078 0
M  V30 3988 C 382.487 -1.056 -3.44268 0
M  V30 3989 C 382.34 -2.57906 -3.68516 0
M  V30 3990 C 383.659 -0.603781 -4.35939 0
M  V30 3991 H 380.778 -0.24065 -0.696604 0
M  V30 3992 H 383.42 -1.22783 -1.44998 0
M  V30 3993 H 381.57 -0.571445 -3.84274 0
M  V30 3994 H 383.242 -3.13976 -3.3796 0
M  V30 3995 H 381.485 -3.00305 -3.13048 0
M  V30 3996 H 382.156 -2.80779 -4.75255 0
M  V30 3997 H 384.632 -1.01987 -4.03408 0
M  V30 3998 H 383.508 -0.910383 -5.41298 0
M  V30 3999 H 383.769 0.495761 -4.39312 0
M  V30 4000 N 382.828 1.3818 -0.7579 0
M  V30 4001 C 384.074 2.00316 -0.316453 0
M  V30 4002 C 384.407 1.60026 1.10025 0
M  V30 4003 O 383.682 0.839835 1.75434 0
M  V30 4004 C 383.965 3.57349 -0.444245 0
M  V30 4005 C 383.818 4.07591 -1.90236 0
M  V30 4006 C 385.137 4.3981 0.1598 0
M  V30 4007 H 382.256 0.727741 -0.116459 0
M  V30 4008 H 384.898 1.6406 -0.958352 0
M  V30 4009 H 383.048 3.88365 0.102233 0
M  V30 4010 H 384.72 3.87199 -2.50748 0
M  V30 4011 H 382.963 3.60297 -2.41595 0
M  V30 4012 H 383.634 5.16677 -1.94291 0
M  V30 4013 H 386.11 4.14971 -0.306314 0
M  V30 4014 H 384.986 5.48885 0.0401675 0
M  V30 4015 H 385.247 4.24102 1.24859 0
M  V30 4016 N 384.306 0.507319 1.49211 0
M  V30 4017 C 385.216 -0.272136 2.33016 0
M  V30 4018 C 386.232 -0.961206 1.45041 0
M  V30 4019 O 387.408 -0.941191 1.78055 0
M  V30 4020 C 384.473 -1.31895 3.20631 0
M  V30 4021 C 383.534 -0.642648 4.24463 0
M  V30 4022 C 382.767 -1.63959 5.07891 0
M  V30 4023 O 382.99 -2.87007 4.92933 0
M  V30 4024 O 381.924 -1.19143 5.8999 0
M  V30 4025 H 385.75 0.413982 3.00865 0
M  V30 4026 H 383.335 0.268556 1.46966 0
M  V30 4027 H 385.217 -1.92446 3.7489 0
M  V30 4028 H 383.892 -1.98788 2.5547 0
M  V30 4029 H 382.799 0.00276252 3.741 0
M  V30 4030 H 384.132 -0.0160534 4.92197 0
M  V30 4031 N 385.784 -1.5574 0.241426 0
M  V30 4032 C 386.747 -2.19877 -0.647063 0
M  V30 4033 C 387.747 -1.16642 -1.10686 0
M  V30 4034 O 388.937 -1.41757 -1.01245 0
M  V30 4035 C 386.069 -2.83797 -1.88871 0
M  V30 4036 H 387.262 -2.99772 -0.087574 0
M  V30 4037 H 384.815 -1.56298 -0.00813574 0
M  V30 4038 H 385.55 -2.07824 -2.48957 0
M  V30 4039 H 385.335 -3.59414 -1.56728 0
M  V30 4040 H 386.825 -3.32898 -2.52129 0
M  V30 4041 N 387.262 0.0317525 -1.57568 0
M  V30 4042 C 388.195 1.06621 -2.0176 0
M  V30 4043 C 389.173 1.35323 -0.901462 0
M  V30 4044 O 390.357 1.48025 -1.16708 0
M  V30 4045 C 387.484 2.40155 -2.38837 0
M  V30 4046 C 386.53 2.27327 -3.60867 0
M  V30 4047 S 387.363 1.62925 -5.10113 0
M  V30 4048 C 388.519 2.97955 -5.5043 0
M  V30 4049 H 388.752 0.689781 -2.89187 0
M  V30 4050 H 386.285 0.24164 -1.52497 0
M  V30 4051 H 388.243 3.1695 -2.6087 0
M  V30 4052 H 386.904 2.74946 -1.51867 0
M  V30 4053 H 386.097 3.25898 -3.84456 0
M  V30 4054 H 385.699 1.58675 -3.38671 0
M  V30 4055 H 387.991 3.94285 -5.5095 0
M  V30 4056 H 388.934 2.79102 -6.50775 0
M  V30 4057 H 389.342 3.00404 -4.77931 0
M  V30 4058 N 388.74 1.54641 0.303973 0
M  V30 4059 C 390.017 1.64455 1.05896 0
M  V30 4060 C 390.397 0.490923 2.05312 0
M  V30 4061 O 389.745 -0.512685 2.22674 0
M  V30 4062 C 389.955 3.02331 1.74347 0
M  V30 4063 C 391.303 3.59045 2.26653 0
M  V30 4064 O 392.327 3.04764 1.84384 0
M  V30 4065 O 391.186 4.54081 3.04093 0
M  V30 4066 H 388.28 0.666729 0.489287 0
M  V30 4067 H 390.826 1.66986 0.302298 0
M  V30 4068 H 389.598 3.77734 1.02142 0
M  V30 4069 H 389.221 3.03565 2.56777 0
M  V30 4070 N 390.218 -0.567019 1.47046 0
M  V30 4071 C 391.465 -1.32462 1.53167 0
M  V30 4072 C 391.793 -1.93571 0.189841 0
M  V30 4073 O 391.048 -1.77865 -0.816243 0
M  V30 4074 C 391.347 -2.4623 2.59047 0
M  V30 4075 C 391.013 -2.03014 4.02612 0
M  V30 4076 C 389.675 -1.90944 4.41694 0
M  V30 4077 C 392.027 -1.69895 4.92732 0
M  V30 4078 C 389.355 -1.44035 5.68745 0
M  V30 4079 C 391.707 -1.2446 6.20236 0
M  V30 4080 C 390.371 -1.10979 6.5821 0
M  V30 4081 H 389.641 -0.484713 0.560477 0
M  V30 4082 H 392.288 -0.636888 1.80599 0
M  V30 4083 H 390.593 -3.20517 2.25335 0
M  V30 4084 H 392.29 -3.04427 2.61008 0
M  V30 4085 H 388.88 -2.13348 3.71726 0
M  V30 4086 H 393.064 -1.78098 4.63244 0
M  V30 4087 H 388.32 -1.32254 5.96925 0
M  V30 4088 H 392.494 -0.978924 6.89485 0
M  V30 4089 H 390.121 -0.744078 7.5655 0
M  V30 4090 N 391.696 -1.35014 -0.812953 0
M  V30 4091 C 392.646 -1.23959 -1.91359 0
M  V30 4092 C 393.63 -0.136306 -1.60322 0
M  V30 4093 O 394.822 -0.366925 -1.73155 0
M  V30 4094 C 391.951 -1.00736 -3.28188 0
M  V30 4095 C 391.037 -2.15426 -3.65311 0
M  V30 4096 N 391.428 -3.40612 -3.73921 0
M  V30 4097 C 389.726 -2.06672 -3.95225 0
M  V30 4098 C 390.427 -4.15994 -4.06601 0
M  V30 4099 N 389.403 -3.44685 -4.20349 0
M  V30 4100 H 393.205 -2.18815 -1.96208 0
M  V30 4101 H 390.719 -1.27395 -1.00718 0
M  V30 4102 H 392.716 -0.909052 -4.06868 0
M  V30 4103 H 391.376 -0.067586 -3.2463 0
M  V30 4104 H 392.387 -3.75043 -3.5716 0
M  V30 4105 H 389.064 -1.20511 -3.99729 0
M  V30 4106 H 390.454 -5.24145 -4.20382 0
M  V30 4107 N 393.175 1.03435 -1.18907 0
M  V30 4108 C 394.423 1.76394 -0.986382 0
M  V30 4109 C 394.744 1.88883 0.484567 0
M  V30 4110 O 394.014 1.41843 1.3512 0
M  V30 4111 H 392.594 0.65344 -0.361975 0
M  V30 4112 H 395.256 1.248 -1.49703 0
M  V30 4113 H 394.352 2.77424 -1.42978 0
M  V30 4114 N 394.653 0.992116 1.22453 0
M  V30 4115 C 395.563 0.55065 2.28046 0
M  V30 4116 C 396.579 -0.400189 1.69335 0
M  V30 4117 O 397.755 -0.267215 1.99619 0
M  V30 4118 C 394.82 -0.128496 3.46462 0
M  V30 4119 C 393.881 0.865208 4.20491 0
M  V30 4120 C 393.114 0.218377 5.33253 0
M  V30 4121 O 393.337 -0.987894 5.6178 0
M  V30 4122 O 392.271 0.922845 5.94783 0
M  V30 4123 H 396.097 1.4291 2.67975 0
M  V30 4124 H 393.682 0.760326 1.28606 0
M  V30 4125 H 395.564 -0.508947 4.18315 0
M  V30 4126 H 394.239 -0.981526 3.0846 0
M  V30 4127 H 393.146 1.29658 3.50913 0
M  V30 4128 H 394.479 1.68741 4.62371 0
M  V30 4129 N 396.131 -1.37776 0.765217 0
M  V30 4130 C 397.377 -2.00145 0.327072 0
M  V30 4131 C 397.71 -1.60607 -1.09175 0
M  V30 4132 O 396.985 -0.849127 -1.74986 0
M  V30 4133 C 397.268 -3.57109 0.46319 0
M  V30 4134 C 397.121 -4.06576 1.92395 0
M  V30 4135 C 398.44 -4.39888 -0.136473 0
M  V30 4136 H 395.559 -0.727113 0.120316 0
M  V30 4137 H 398.201 -1.63549 0.967039 0
M  V30 4138 H 396.351 -3.88414 -0.0816358 0
M  V30 4139 H 398.023 -3.85864 2.52798 0
M  V30 4140 H 396.266 -3.59011 2.43503 0
M  V30 4141 H 396.937 -5.15639 1.97028 0
M  V30 4142 H 399.413 -4.14803 0.328317 0
M  V30 4143 H 398.289 -5.48899 -0.0110582 0
M  V30 4144 H 398.55 -4.24758 -1.22608 0
M  V30 4145 N 397.609 -0.515225 -1.4894 0
M  V30 4146 C 398.837 0.0206034 -2.0689 0
M  V30 4147 C 399.252 1.29514 -1.37374 0
M  V30 4148 O 398.609 1.76698 -0.456529 0
M  V30 4149 C 398.66 0.26351 -3.60538 0
M  V30 4150 O 398.381 -0.960517 -4.27441 0
M  V30 4151 C 399.882 0.841383 -4.35242 0
M  V30 4152 H 397.102 -0.0268608 -0.670462 0
M  V30 4153 H 399.646 -0.716651 -1.91532 0
M  V30 4154 H 397.801 0.950777 -3.75552 0
M  V30 4155 H 398.215 -0.73212 -5.19365 0
M  V30 4156 H 399.689 0.96085 -5.43573 0
M  V30 4157 H 400.166 1.8427 -3.98674 0
M  V30 4158 H 400.772 0.191143 -4.2487 0
M  V30 4159 N 399.087 1.5561 -0.249682 0
M  V30 4160 C 400.334 1.99011 0.374287 0
M  V30 4161 C 400.662 1.13785 1.57744 0
M  V30 4162 O 399.917 0.189326 1.94782 0
M  V30 4163 C 400.216 3.4775 0.824887 0
M  V30 4164 C 399.882 4.50086 -0.270819 0
M  V30 4165 C 398.544 4.77791 -0.571746 0
M  V30 4166 C 400.896 5.11312 -1.01041 0
M  V30 4167 C 398.224 5.63997 -1.61629 0
M  V30 4168 C 400.576 5.98651 -2.0445 0
M  V30 4169 C 399.24 6.24688 -2.35204 0
M  V30 4170 H 398.51 0.728233 0.136961 0
M  V30 4171 H 401.157 1.88122 -0.358087 0
M  V30 4172 H 399.462 3.55985 1.63651 0
M  V30 4173 H 401.159 3.78721 1.31799 0
M  V30 4174 H 397.749 4.28592 -0.026136 0
M  V30 4175 H 401.933 4.89953 -0.791177 0
M  V30 4176 H 397.189 5.82425 -1.85988 0
M  V30 4177 H 401.363 6.45135 -2.62248 0
M  V30 4178 H 398.99 6.91281 -3.16282 0
M  V30 4179 N 400.565 -0.0233959 1.57583 0
M  V30 4180 C 401.842 -0.748794 1.807 0
M  V30 4181 C 402.222 -1.9327 0.849106 0
M  V30 4182 O 401.57 -2.28247 -0.107468 0
M  V30 4183 C 401.78 -1.17651 3.28571 0
M  V30 4184 C 403.128 -1.59008 3.93702 0
M  V30 4185 O 404.152 -1.27094 3.32755 0
M  V30 4186 O 403.011 -2.18264 5.01022 0
M  V30 4187 H 400.105 -0.362578 0.743281 0
M  V30 4188 H 402.651 0.000261958 1.697 0
M  V30 4189 H 401.423 -0.331603 3.89892 0
M  V30 4190 H 401.046 -1.98541 3.44481 0
M  V30 4191 N 402.043 -1.548 -0.295768 0
M  V30 4192 C 403.271 -1.78327 -1.04914 0
M  V30 4193 C 403.686 -0.545316 -1.80753 0
M  V30 4194 O 403.043 0.485013 -1.75937 0
M  V30 4195 C 403.094 -2.99418 -2.02561 0
M  V30 4196 O 402.815 -4.18431 -1.29798 0
M  V30 4197 C 404.316 -3.35375 -2.89895 0
M  V30 4198 H 401.536 -0.594618 -0.310918 0
M  V30 4199 H 404.08 -2.01763 -0.333454 0
M  V30 4200 H 402.235 -2.78175 -2.69624 0
M  V30 4201 H 402.649 -4.86736 -1.95419 0
M  V30 4202 H 404.123 -4.23332 -3.54251 0
M  V30 4203 H 404.6 -2.53761 -3.58472 0
M  V30 4204 H 405.206 -3.58796 -2.28355 0
M  V30 4205 N 403.521 0.559213 -1.47345 0
M  V30 4206 C 404.749 1.34194 -1.57479 0
M  V30 4207 C 405.164 1.87463 -0.224261 0
M  V30 4208 O 404.521 1.64888 0.782185 0
M  V30 4209 C 404.572 2.51324 -2.59843 0
M  V30 4210 O 404.293 2.00256 -3.89653 0
M  V30 4211 C 405.794 3.43563 -2.80142 0
M  V30 4212 H 403.014 0.409136 -0.531835 0
M  V30 4213 H 405.558 0.677609 -1.92947 0
M  V30 4214 H 403.713 3.13699 -2.27314 0
M  V30 4215 H 404.127 2.76708 -4.4557 0
M  V30 4216 H 405.601 4.2217 -3.55635 0
M  V30 4217 H 406.078 3.9698 -1.87892 0
M  V30 4218 H 406.684 2.87005 -3.1386 0
M  V30 4219 N 404.999 1.35443 0.805782 0
M  V30 4220 C 405.946 1.28431 1.91766 0
M  V30 4221 C 406.916 0.156102 1.65365 0
M  V30 4222 O 408.101 0.339936 1.87747 0
M  V30 4223 C 405.241 1.06301 3.2832 0
M  V30 4224 C 404.354 2.2805 3.66902 0
M  V30 4225 C 403.489 1.99064 4.92491 0
M  V30 4226 C 402.528 3.16863 5.23703 0
M  V30 4227 N 401.665 2.87647 6.40471 0
M  V30 4228 H 406.505 2.23511 1.97096 0
M  V30 4229 H 404.042 1.11105 0.964054 0
M  V30 4230 H 406 0.915012 4.07042 0
M  V30 4231 H 404.63 0.148822 3.22457 0
M  V30 4232 H 403.682 2.53711 2.83434 0
M  V30 4233 H 404.994 3.1601 3.85927 0
M  V30 4234 H 404.148 1.81099 5.7904 0
M  V30 4235 H 402.887 1.0839 4.75503 0
M  V30 4236 H 401.892 3.35404 4.35642 0
M  V30 4237 H 403.117 4.08339 5.4262 0
M  V30 4238 H 401.063 1.99568 6.24907 0
M  V30 4239 H 400.98 3.69141 6.59751 0
M  V30 4240 H 402.248 2.73226 7.30047 0
M  V30 4241 N 406.477 -1.02803 1.19454 0
M  V30 4242 C 407.702 -1.80378 1.02364 0
M  V30 4243 C 408.127 -1.83282 -0.423007 0
M  V30 4244 O 407.485 -1.25945 -1.30413 0
M  V30 4245 C 407.533 -3.23248 1.59821 0
M  V30 4246 O 406.637 -4.04 0.828105 0
M  V30 4247 H 405.978 -0.556799 0.361761 0
M  V30 4248 H 408.508 -1.29385 1.58495 0
M  V30 4249 H 408.518 -3.73994 1.63073 0
M  V30 4250 H 407.193 -3.2045 2.65113 0
M  V30 4251 H 405.77 -3.62635 0.86891 0
M  V30 4252 N 407.956 -0.998596 -1.21925 0
M  V30 4253 C 409.233 -0.593401 -1.86382 0
M  V30 4254 C 409.613 0.92916 -1.89552 0
M  V30 4255 O 408.961 1.81347 -1.39017 0
M  V30 4256 C 409.171 -1.22039 -3.26967 0
M  V30 4257 C 410.519 -1.32449 -4.03413 0
M  V30 4258 O 411.543 -1.17522 -3.36254 0
M  V30 4259 O 410.402 -1.56395 -5.23644 0
M  V30 4260 H 407.496 -0.202385 -0.801854 0
M  V30 4261 H 410.042 -1.09484 -1.29659 0
M  V30 4262 H 408.814 -2.26158 -3.19325 0
M  V30 4263 H 408.437 -0.704906 -3.91301 0
M  V30 4264 N 409.434 1.37368 -0.772513 0
M  V30 4265 C 410.682 1.99279 -0.336516 0
M  V30 4266 C 411.003 1.6163 1.09091 0
M  V30 4267 O 410.273 0.882109 1.74916 0
M  V30 4268 H 408.853 0.737063 -0.121435 0
M  V30 4269 H 411.515 1.67836 -0.990809 0
M  V30 4270 H 410.611 3.09332 -0.414763 0
M  V30 4271 N 410.912 0.523116 1.48665 0
M  V30 4272 C 411.844 -0.280421 2.27478 0
M  V30 4273 C 412.857 -0.910694 1.34945 0
M  V30 4274 O 414.046 -0.790295 1.60052 0
M  V30 4275 C 411.146 -1.41171 3.08097 0
M  V30 4276 C 410.319 -0.884642 4.28361 0
M  V30 4277 C 409.378 -1.89622 4.90846 0
M  V30 4278 O 408.404 -1.4559 5.50265 0
M  V30 4279 N 409.606 -3.22801 4.82472 0
M  V30 4280 H 412.371 0.395481 2.97079 0
M  V30 4281 H 409.932 0.357018 1.57915 0
M  V30 4282 H 411.924 -2.08645 3.4677 0
M  V30 4283 H 410.494 -1.99139 2.40961 0
M  V30 4284 H 409.714 -0.0341177 3.94185 0
M  V30 4285 H 411.002 -0.511268 5.06225 0
M  V30 4286 H 410.4 -3.61246 4.35336 0
M  V30 4287 H 408.957 -3.85927 5.25265 0
M  V30 4288 N 412.39 -1.55475 0.257931 0
M  V30 4289 C 413.637 -1.99207 -0.363728 0
M  V30 4290 C 413.965 -1.1462 -1.57139 0
M  V30 4291 O 413.22 -0.199653 -1.94679 0
M  V30 4292 C 413.519 -3.48183 -0.806433 0
M  V30 4293 C 413.185 -4.49936 0.294684 0
M  V30 4294 C 411.847 -4.77481 0.597076 0
M  V30 4295 C 414.199 -5.10769 1.03751 0
M  V30 4296 C 411.527 -5.63132 1.64618 0
M  V30 4297 C 413.879 -5.97558 2.07622 0
M  V30 4298 C 412.543 -6.23432 2.38514 0
M  V30 4299 H 411.813 -0.728949 -0.133097 0
M  V30 4300 H 414.46 -1.8793 0.368059 0
M  V30 4301 H 412.765 -3.56848 -1.61761 0
M  V30 4302 H 414.462 -3.79415 -1.29789 0
M  V30 4303 H 411.052 -4.28572 0.0488649 0
M  V30 4304 H 415.236 -4.89527 0.817149 0
M  V30 4305 H 410.492 -5.8143 1.89074 0
M  V30 4306 H 414.666 -6.43735 2.65666 0
M  V30 4307 H 412.293 -6.89594 3.19943 0
M  V30 4308 N 413.868 0.0150385 -1.57593 0
M  V30 4309 C 414.815 1.01126 -2.07466 0
M  V30 4310 C 415.785 1.35064 -0.966794 0
M  V30 4311 O 416.97 1.4516 -1.23827 0
M  V30 4312 C 414.11 2.30276 -2.57035 0
M  V30 4313 C 413.223 2.02373 -3.81666 0
M  V30 4314 C 412.358 3.25496 -4.19793 0
M  V30 4315 C 411.397 2.93211 -5.37303 0
M  V30 4316 N 410.534 4.08826 -5.70794 0
M  V30 4317 H 415.374 0.57901 -2.92321 0
M  V30 4318 H 412.911 0.27426 -1.44521 0
M  V30 4319 H 414.869 3.05757 -2.83846 0
M  V30 4320 H 413.499 2.71197 -1.75077 0
M  V30 4321 H 412.551 1.17327 -3.61854 0
M  V30 4322 H 413.863 1.74567 -4.67256 0
M  V30 4323 H 413.017 4.09333 -4.47807 0
M  V30 4324 H 411.756 3.56428 -3.32882 0
M  V30 4325 H 410.761 2.07777 -5.09027 0
M  V30 4326 H 411.986 2.63542 -6.25877 0
M  V30 4327 H 409.932 4.39682 -4.86842 0
M  V30 4328 H 409.849 3.84491 -6.50924 0
M  V30 4329 H 411.117 4.93496 -6.03392 0
M  V30 4330 N 415.346 1.54954 0.287554 0
M  V30 4331 C 416.293 1.86834 1.35505 0
M  V30 4332 C 417.263 0.718452 1.49758 0
M  V30 4333 O 418.448 0.968358 1.644 0
M  V30 4334 C 415.588 2.13303 2.71286 0
M  V30 4335 C 414.701 3.40883 2.65373 0
M  V30 4336 C 413.836 3.57125 3.93236 0
M  V30 4337 C 412.875 4.78449 3.81776 0
M  V30 4338 N 412.012 4.91426 5.01443 0
M  V30 4339 H 416.852 2.77889 1.07619 0
M  V30 4340 H 414.389 1.37593 0.520241 0
M  V30 4341 H 416.347 2.26646 3.50267 0
M  V30 4342 H 414.977 1.25499 2.97405 0
M  V30 4343 H 414.029 3.36088 1.78182 0
M  V30 4344 H 415.341 4.29993 2.52799 0
M  V30 4345 H 414.495 3.70207 4.80658 0
M  V30 4346 H 413.234 2.66173 4.0866 0
M  V30 4347 H 412.239 4.65386 2.92738 0
M  V30 4348 H 413.464 5.70822 3.67884 0
M  V30 4349 H 411.41 4.03401 5.17304 0
M  V30 4350 H 411.327 5.74559 4.91343 0
M  V30 4351 H 412.595 5.08879 5.90477 0
M  V30 4352 N 416.824 -0.551391 1.4764 0
M  V30 4353 C 418.052 -1.33357 1.58189 0
M  V30 4354 C 418.467 -1.87342 0.234199 0
M  V30 4355 O 417.824 -1.65301 -0.77343 0
M  V30 4356 C 417.875 -2.49942 2.61173 0
M  V30 4357 O 417.596 -1.98187 3.90709 0
M  V30 4358 C 419.097 -3.42072 2.8196 0
M  V30 4359 H 416.317 -0.40631 0.533998 0
M  V30 4360 H 418.861 -0.667367 1.93304 0
M  V30 4361 H 417.016 -3.12489 2.28975 0
M  V30 4362 H 417.43 -2.74342 4.47031 0
M  V30 4363 H 418.904 -4.20278 3.57869 0
M  V30 4364 H 419.381 -3.95978 1.89995 0
M  V30 4365 H 419.987 -2.85336 3.15378 0
M  V30 4366 N 418.302 -1.35869 -0.798587 0
M  V30 4367 C 419.265 -1.29307 -1.89242 0
M  V30 4368 C 420.265 -0.202747 -1.59517 0
M  V30 4369 O 421.455 -0.456957 -1.681 0
M  V30 4370 C 418.587 -1.00229 -3.25833 0
M  V30 4371 H 419.78 -2.26576 -1.96478 0
M  V30 4372 H 417.333 -1.20509 -0.995358 0
M  V30 4373 H 418.068 -0.033801 -3.24282 0
M  V30 4374 H 417.853 -1.79121 -3.48795 0
M  V30 4375 H 419.343 -0.98219 -4.05885 0
M  V30 4376 N 419.78 1.02168 -1.19998 0
M  V30 4377 C 421.005 1.79833 -1.03319 0
M  V30 4378 C 421.43 1.83504 0.413281 0
M  V30 4379 O 420.788 1.26635 1.29743 0
M  V30 4380 C 420.836 3.22396 -1.61533 0
M  V30 4381 O 419.94 4.03555 -0.849519 0
M  V30 4382 H 419.281 0.554872 -0.364709 0
M  V30 4383 H 421.811 1.28542 -1.59179 0
M  V30 4384 H 421.821 3.73124 -1.65054 0
M  V30 4385 H 420.496 3.19039 -2.66809 0
M  V30 4386 H 419.073 3.62169 -0.888129 0
M  V30 4387 N 421.258 1.00505 1.21394 0
M  V30 4388 C 422.206 0.558623 2.25792 0
M  V30 4389 C 423.2 -0.396848 1.64686 0
M  V30 4390 O 424.406 -0.268035 1.77993 0
M  V30 4391 H 420.781 0.1623 0.734277 0
M  V30 4392 H 422.752 1.4503 2.60785 0
M  V30 4393 C 421.501 -0.0989574 3.47559 0
M  V30 4394 H 420.824 0.627225 3.94849 0
M  V30 4395 H 422.264 -0.3746 4.22342 0
M  V30 4396 C 420.723 -1.33817 3.09184 0
M  V30 4397 O 421.253 -2.43252 3.19674 0
M  V30 4398 N 419.459 -1.21793 2.63846 0
M  V30 4399 H 419.006 -0.32746 2.5551 0
M  V30 4400 H 418.964 -2.04809 2.38539 0
M  V30 4401 N 422.737 -1.36956 0.779787 0
M  V30 4402 C 423.962 -2.04283 0.358224 0
M  V30 4403 C 424.387 -1.58422 -1.01411 0
M  V30 4404 O 423.745 -0.748179 -1.65142 0
M  V30 4405 C 423.793 -3.58152 0.419479 0
M  V30 4406 O 422.897 -4.08342 -0.577142 0
M  V30 4407 H 422.238 -0.645967 0.153698 0
M  V30 4408 H 424.768 -1.75108 1.05822 0
M  V30 4409 H 424.778 -4.07041 0.279636 0
M  V30 4410 H 423.453 -3.90886 1.42061 0
M  V30 4411 H 422.03 -3.70751 -0.399755 0
M  V30 4412 N 424.215 -0.530993 -1.48385 0
M  V30 4413 C 425.162 0.231223 -2.29639 0
M  V30 4414 C 426.132 0.932864 -1.37429 0
M  V30 4415 O 427.317 0.933692 -1.66394 0
M  V30 4416 C 424.457 1.27155 -3.2082 0
M  V30 4417 C 423.57 0.578655 -4.28107 0
M  V30 4418 C 422.705 1.602 -5.06467 0
M  V30 4419 C 421.744 0.892625 -6.05556 0
M  V30 4420 N 420.881 1.86157 -6.76971 0
M  V30 4421 H 425.721 -0.467848 -2.94305 0
M  V30 4422 H 423.258 -0.242556 -1.45086 0
M  V30 4423 H 425.216 1.88703 -3.72085 0
M  V30 4424 H 423.846 1.939 -2.58075 0
M  V30 4425 H 422.898 -0.150782 -3.80101 0
M  V30 4426 H 424.21 0.0217065 -4.98795 0
M  V30 4427 H 423.364 2.29173 -5.61751 0
M  V30 4428 H 422.103 2.19285 -4.35621 0
M  V30 4429 H 421.108 0.188829 -5.49476 0
M  V30 4430 H 422.333 0.307878 -6.78402 0
M  V30 4431 H 420.279 2.44147 -6.08875 0
M  V30 4432 H 420.196 1.35608 -7.43738 0
M  V30 4433 H 421.464 2.54325 -7.36844 0
M  V30 4434 N 425.693 1.55336 -0.266172 0
M  V30 4435 C 426.623 2.25146 0.618981 0
M  V30 4436 C 427.604 1.23845 1.16604 0
M  V30 4437 O 428.789 1.52544 1.20183 0
M  V30 4438 C 425.919 2.96572 1.80728 0
M  V30 4439 C 424.873 4.04726 1.39215 0
M  V30 4440 C 424.199 4.63678 2.66283 0
M  V30 4441 C 425.499 5.19407 0.548942 0
M  V30 4442 H 427.193 2.99377 0.0368116 0
M  V30 4443 H 424.739 1.43991 0.0162651 0
M  V30 4444 H 426.692 3.44116 2.43232 0
M  V30 4445 H 425.416 2.19861 2.41514 0
M  V30 4446 H 424.075 3.57979 0.790351 0
M  V30 4447 H 423.723 3.83646 3.25308 0
M  V30 4448 H 423.423 5.367 2.39222 0
M  V30 4449 H 424.947 5.13967 3.29651 0
M  V30 4450 H 426.361 5.63059 1.07876 0
M  V30 4451 H 424.758 5.98936 0.373593 0
M  V30 4452 H 425.828 4.8295 -0.434394 0
M  V30 4453 N 427.171 -0.0066808 1.57599 0
M  V30 4454 C 428.587 -0.36267 1.55425 0
M  V30 4455 C 428.787 -1.75209 0.995187 0
M  V30 4456 O 427.843 -2.44616 0.626058 0
M  V30 4457 C 429.156 -0.244017 2.99708 0
M  V30 4458 C 430.704 -0.319451 3.11366 0
M  V30 4459 C 431.179 -0.229998 4.57422 0
M  V30 4460 N 432.67 -0.288105 4.62303 0
M  V30 4461 C 433.405 -0.242127 5.72889 0
M  V30 4462 N 432.901 -0.147133 6.92644 0
M  V30 4463 N 434.694 -0.293502 5.61333 0
M  V30 4464 H 426.845 0.902314 1.92281 0
M  V30 4465 H 429.108 0.34525 0.882896 0
M  V30 4466 H 428.814 0.711678 3.44424 0
M  V30 4467 H 428.688 -1.02877 3.629 0
M  V30 4468 H 431.075 -1.26559 2.66584 0
M  V30 4469 H 431.156 0.495055 2.50964 0
M  V30 4470 H 430.8 0.712566 5.02877 0
M  V30 4471 H 430.73 -1.0629 5.15761 0
M  V30 4472 H 433.221 -0.363126 3.76151 0
M  V30 4473 H 433.534 -0.117763 7.7271 0
M  V30 4474 H 431.879 -0.112857 6.94908 0
M  V30 4475 H 435.07 -0.365864 4.66668 0
M  V30 4476 H 435.243 -0.254204 6.47501 0
M  V30 4477 N 428.649 -1.55105 -0.279332 0
M  V30 4478 C 429.877 -1.7943 -1.03017 0
M  V30 4479 C 430.292 -0.564456 -1.80165 0
M  V30 4480 O 429.649 0.466326 -1.76442 0
M  V30 4481 C 429.7 -3.0155 -1.99374 0
M  V30 4482 O 429.421 -4.19784 -1.25352 0
M  V30 4483 C 430.922 -3.3843 -2.86321 0
M  V30 4484 H 428.142 -0.597882 -0.304594 0
M  V30 4485 H 430.686 -2.02105 -0.312035 0
M  V30 4486 H 428.841 -2.81019 -2.66659 0
M  V30 4487 H 429.255 -4.88781 -1.90246 0
M  V30 4488 H 430.729 -4.27066 -3.49741 0
M  V30 4489 H 431.206 -2.57549 -3.5576 0
M  V30 4490 H 431.812 -3.61197 -2.24536 0
M  V30 4491 N 430.127 0.543554 -1.4793 0
M  V30 4492 C 431.357 1.32324 -1.58663 0
M  V30 4493 C 431.765 1.8766 -0.240896 0
M  V30 4494 O 431.108 1.66411 0.778011 0
M  V30 4495 C 431.17 2.52094 -2.56299 0
M  V30 4496 C 430.834 2.17944 -4.01683 0
M  V30 4497 C 431.831 1.74422 -4.89768 0
M  V30 4498 C 429.516 2.28884 -4.47121 0
M  V30 4499 C 431.51 1.42287 -6.21316 0
M  V30 4500 C 429.197 1.96361 -5.78693 0
M  V30 4501 C 430.195 1.53132 -6.65612 0
M  V30 4502 O 429.883 1.21029 -7.94737 0
M  V30 4503 H 429.615 0.409174 -0.538101 0
M  V30 4504 H 432.169 0.663887 -1.94375 0
M  V30 4505 H 430.399 3.20965 -2.15681 0
M  V30 4506 H 432.088 3.14165 -2.57012 0
M  V30 4507 H 432.854 1.65452 -4.55907 0
M  V30 4508 H 428.733 2.61488 -3.79664 0
M  V30 4509 H 432.277 1.08472 -6.89115 0
M  V30 4510 H 428.174 2.04967 -6.12094 0
M  V30 4511 H 428.942 1.34543 -8.07366 0
M  V30 4512 N 431.605 1.3629 0.791371 0
M  V30 4513 C 432.535 1.33137 1.91825 0
M  V30 4514 C 433.516 0.203168 1.68882 0
M  V30 4515 O 434.701 0.400509 1.90025 0
M  V30 4516 C 431.831 1.11793 3.28816 0
M  V30 4517 C 430.785 2.21417 3.66277 0
M  V30 4518 C 430.111 1.85218 5.01596 0
M  V30 4519 C 431.411 3.63489 3.75064 0
M  V30 4520 H 433.105 2.2743 1.9472 0
M  V30 4521 H 430.651 1.09479 0.935437 0
M  V30 4522 H 432.604 1.08222 4.07266 0
M  V30 4523 H 431.328 0.139501 3.26302 0
M  V30 4524 H 429.987 2.2411 2.90121 0
M  V30 4525 H 429.635 0.859544 4.95602 0
M  V30 4526 H 429.335 2.58611 5.27631 0
M  V30 4527 H 430.859 1.832 5.82469 0
M  V30 4528 H 432.273 3.63034 4.43711 0
M  V30 4529 H 430.67 4.35771 4.12582 0
M  V30 4530 H 431.74 3.98536 2.76219 0
M  V30 4531 N 433.083 -1.0153 1.20538 0
M  V30 4532 C 434.494 -1.56598 1.01657 0
M  V30 4533 C 434.845 -1.91505 -0.426668 0
M  V30 4534 O 433.97 -1.72375 -1.30827 0
M  V30 4535 C 434.565 -2.84542 1.83905 0
M  V30 4536 C 433.124 -3.36133 1.69386 0
M  V30 4537 C 432.271 -2.09427 1.81757 0
M  V30 4538 H 435.222 -0.838974 1.34711 0
M  V30 4539 H 435.243 -3.56004 1.34319 0
M  V30 4540 H 434.755 -2.59105 2.8894 0
M  V30 4541 H 432.856 -3.66528 0.669933 0
M  V30 4542 H 432.969 -4.08248 2.50739 0
M  V30 4543 H 431.333 -2.21941 1.24957 0
M  V30 4544 H 432.116 -1.86414 2.88279 0
M  V30 4545 N 434.561 -1.01147 -1.20859 0
M  V30 4546 C 435.838 -0.613136 -1.85742 0
M  V30 4547 C 436.218 0.909004 -1.90526 0
M  V30 4548 O 435.566 1.79862 -1.40932 0
M  V30 4549 C 435.776 -1.255 -3.25654 0
M  V30 4550 C 437.124 -1.3672 -4.01986 0
M  V30 4551 O 438.148 -1.21082 -3.34989 0
M  V30 4552 O 437.007 -1.6194 -5.21956 0
M  V30 4553 H 434.101 -0.210878 -0.799662 0
M  V30 4554 H 436.647 -1.10853 -1.2849 0
M  V30 4555 H 435.419 -2.29532 -3.16908 0
M  V30 4556 H 435.042 -0.746369 -3.90532 0
M  V30 4557 N 436.039 1.36541 -0.78704 0
M  V30 4558 C 437.286 1.99304 -0.358341 0
M  V30 4559 C 437.614 1.62467 1.06933 0
M  V30 4560 O 436.869 0.870019 1.75297 0
M  V30 4561 C 437.168 3.54343 -0.466485 0
M  V30 4562 C 436.834 4.10993 -1.85461 0
M  V30 4563 C 435.496 4.26177 -2.23443 0
M  V30 4564 C 437.848 4.41895 -2.76366 0
M  V30 4565 C 435.176 4.69573 -3.51736 0
M  V30 4566 C 437.528 4.86722 -4.04084 0
M  V30 4567 C 436.192 5.00112 -4.42091 0
M  V30 4568 H 435.462 0.729306 -0.131126 0
M  V30 4569 H 438.109 1.63068 -1.00404 0
M  V30 4570 H 436.414 3.90918 0.262719 0
M  V30 4571 H 438.111 4.00833 -0.115854 0
M  V30 4572 H 434.701 3.99612 -1.54946 0
M  V30 4573 H 438.885 4.29735 -2.48277 0
M  V30 4574 H 434.141 4.78127 -3.81057 0
M  V30 4575 H 438.315 5.09598 -4.7464 0
M  V30 4576 H 435.942 5.33498 -5.41557 0
M  V30 4577 N 437.518 0.538854 1.48102 0
M  V30 4578 C 438.934 0.19732 1.58376 0
M  V30 4579 C 439.134 -1.29971 1.5398 0
M  V30 4580 O 438.19 -2.07861 1.43352 0
M  V30 4581 C 439.503 0.807716 2.89649 0
M  V30 4582 C 441.051 0.77726 3.03196 0
M  V30 4583 C 441.526 1.36639 4.37143 0
M  V30 4584 N 443.017 1.32875 4.43732 0
M  V30 4585 C 443.752 1.7544 5.45901 0
M  V30 4586 N 443.248 2.25776 6.54979 0
M  V30 4587 N 445.041 1.66623 5.36836 0
M  V30 4588 H 437.192 1.5117 1.49202 0
M  V30 4589 H 439.455 0.629327 0.708979 0
M  V30 4590 H 439.161 1.85909 2.98548 0
M  V30 4591 H 439.035 0.289975 3.76084 0
M  V30 4592 H 441.422 -0.265374 2.93904 0
M  V30 4593 H 441.503 1.33256 2.18349 0
M  V30 4594 H 441.147 2.408 4.47189 0
M  V30 4595 H 441.077 0.786689 5.20691 0
M  V30 4596 H 443.568 0.96037 3.65493 0
M  V30 4597 H 443.881 2.56226 7.29087 0
M  V30 4598 H 442.226 2.29775 6.55918 0
M  V30 4599 H 445.417 1.27089 4.50517 0
M  V30 4600 H 445.59 2.00115 6.16326 0
M  V30 4601 N 438.996 -1.55193 0.274407 0
M  V30 4602 C 440.243 -1.99581 -0.342579 0
M  V30 4603 C 440.571 -1.1628 -1.55914 0
M  V30 4604 O 439.826 -0.22029 -1.94456 0
M  V30 4605 C 440.125 -3.49019 -0.769458 0
M  V30 4606 C 439.791 -4.49598 0.342389 0
M  V30 4607 C 438.453 -4.76821 0.647686 0
M  V30 4608 C 440.805 -5.0964 1.09163 0
M  V30 4609 C 438.133 -5.61354 1.70581 0
M  V30 4610 C 440.485 -5.95323 2.13948 0
M  V30 4611 C 439.149 -6.20867 2.45113 0
M  V30 4612 H 438.419 -0.730319 -0.125358 0
M  V30 4613 H 441.066 -1.87529 0.387971 0
M  V30 4614 H 439.371 -3.58544 -1.57967 0
M  V30 4615 H 441.068 -3.8077 -1.25757 0
M  V30 4616 H 437.658 -4.28496 0.094318 0
M  V30 4617 H 441.842 -4.88632 0.869024 0
M  V30 4618 H 437.098 -5.79392 1.9523 0
M  V30 4619 H 441.272 -6.40881 2.72478 0
M  V30 4620 H 438.899 -6.86162 3.27239 0
M  V30 4621 N 440.474 -0.00167713 -1.576 0
M  V30 4622 C 441.702 0.693759 -1.94922 0
M  V30 4623 C 442.117 1.67215 -0.876626 0
M  V30 4624 O 441.474 1.81929 0.144279 0
M  V30 4625 C 441.525 1.42416 -3.32265 0
M  V30 4626 O 441.246 0.485014 -4.35407 0
M  V30 4627 C 442.747 2.21395 -3.84056 0
M  V30 4628 H 439.967 0.193118 -0.642609 0
M  V30 4629 H 442.511 -0.0532952 -2.04431 0
M  V30 4630 H 440.666 2.12284 -3.24059 0
M  V30 4631 H 441.08 1.00053 -5.14868 0
M  V30 4632 H 442.554 2.67996 -4.82578 0
M  V30 4633 H 443.031 3.04142 -3.16851 0
M  V30 4634 H 443.637 1.56542 -3.95443 0
M  V30 4635 N 441.952 1.55251 0.271103 0
M  V30 4636 C 443.363 1.66635 0.842007 0
M  V30 4637 C 443.714 0.594631 1.86972 0
M  V30 4638 O 442.839 -0.263532 2.14789 0
M  V30 4639 C 443.434 3.02082 1.53401 0
M  V30 4640 C 441.993 3.15487 2.05293 0
M  V30 4641 C 441.14 2.62438 0.895631 0
M  V30 4642 H 444.091 1.58629 0.0474117 0
M  V30 4643 H 444.112 2.95176 2.40107 0
M  V30 4644 H 443.624 3.80062 0.785786 0
M  V30 4645 H 441.725 2.42284 2.83071 0
M  V30 4646 H 441.838 4.22075 2.26693 0
M  V30 4647 H 440.202 2.19644 1.28953 0
M  V30 4648 H 440.985 3.42923 0.160878 0
M  V30 4649 N 443.43 -0.535701 1.48216 0
M  V30 4650 C 444.677 -1.29183 1.55942 0
M  V30 4651 C 445.005 -1.93125 0.230857 0
M  V30 4652 O 444.26 -1.79556 -0.778331 0
M  V30 4653 C 444.559 -2.4068 2.64212 0
M  V30 4654 C 444.225 -1.94428 4.06827 0
M  V30 4655 C 442.887 -1.81532 4.45645 0
M  V30 4656 C 445.239 -1.59405 4.96225 0
M  V30 4657 C 442.567 -1.31939 5.71672 0
M  V30 4658 C 444.919 -1.11276 6.22736 0
M  V30 4659 C 443.583 -0.969924 6.60416 0
M  V30 4660 H 442.853 -0.472715 0.570632 0
M  V30 4661 H 445.5 -0.598437 1.81909 0
M  V30 4662 H 443.805 -3.15666 2.32083 0
M  V30 4663 H 445.502 -2.98822 2.67407 0
M  V30 4664 H 442.092 -2.05415 3.76168 0
M  V30 4665 H 446.276 -1.68231 4.66917 0
M  V30 4666 H 441.532 -1.19562 5.99596 0
M  V30 4667 H 445.706 -0.832453 6.91407 0
M  V30 4668 H 443.333 -0.583436 7.57958 0
M  V30 4669 N 444.908 -1.36708 -0.784132 0
M  V30 4670 C 445.855 -1.31466 -1.89698 0
M  V30 4671 C 446.825 -0.18239 -1.65096 0
M  V30 4672 O 448.01 -0.369762 -1.87183 0
M  V30 4673 C 445.15 -1.1151 -3.26588 0
M  V30 4674 C 444.263 -2.33859 -3.63227 0
M  V30 4675 C 443.398 -2.06873 -4.89262 0
M  V30 4676 C 442.437 -3.25154 -5.18595 0
M  V30 4677 N 441.574 -2.978 -6.35814 0
M  V30 4678 H 446.414 -2.26619 -1.93515 0
M  V30 4679 H 443.951 -1.12625 -0.946256 0
M  V30 4680 H 445.909 -0.979653 -4.05535 0
M  V30 4681 H 444.539 -0.200103 -3.22179 0
M  V30 4682 H 443.591 -2.58188 -2.79362 0
M  V30 4683 H 444.903 -3.22109 -3.8085 0
M  V30 4684 H 444.057 -1.90289 -5.76086 0
M  V30 4685 H 442.796 -1.15942 -4.73718 0
M  V30 4686 H 441.801 -3.42292 -4.30251 0
M  V30 4687 H 443.026 -4.1692 -5.36055 0
M  V30 4688 H 440.972 -2.09485 -6.21653 0
M  V30 4689 H 440.889 -3.7959 -6.53794 0
M  V30 4690 H 442.157 -2.84805 -7.25607 0
M  V30 4691 N 446.386 1.0089 -1.21074 0
M  V30 4692 C 447.318 2.09737 -0.924291 0
M  V30 4693 C 448.331 1.62546 0.0909809 0
M  V30 4694 O 449.52 1.77942 -0.141021 0
M  V30 4695 C 446.62 3.36922 -0.36559 0
M  V30 4696 C 445.793 4.13216 -1.43426 0
M  V30 4697 C 444.852 5.18696 -0.885496 0
M  V30 4698 O 443.878 5.47176 -1.56801 0
M  V30 4699 N 445.08 5.79718 0.301227 0
M  V30 4700 H 447.845 2.34895 -1.8613 0
M  V30 4701 H 445.406 1.17341 -1.11546 0
M  V30 4702 H 447.398 4.04697 0.0158407 0
M  V30 4703 H 445.968 3.08952 0.476149 0
M  V30 4704 H 445.188 3.40301 -1.9897 0
M  V30 4705 H 446.476 4.60967 -2.15376 0
M  V30 4706 H 445.874 5.58926 0.872849 0
M  V30 4707 H 444.431 6.48804 0.624211 0
M  V30 4708 N 447.864 1.01787 1.20321 0
M  V30 4709 C 448.827 0.593972 2.2137 0
M  V30 4710 C 449.827 -0.336553 1.57239 0
M  V30 4711 O 451.017 -0.125069 1.7375 0
M  V30 4712 C 448.149 -0.132433 3.40643 0
M  V30 4713 H 449.342 1.48791 2.60387 0
M  V30 4714 H 446.895 0.807803 1.33807 0
M  V30 4715 H 447.63 -1.04123 3.0713 0
M  V30 4716 H 447.415 0.53605 3.88418 0
M  V30 4717 H 448.905 -0.416314 4.1552 0
M  V30 4718 N 449.342 -1.36122 0.79427 0
M  V30 4719 C 450.588 -1.99406 0.369452 0
M  V30 4720 C 450.921 -1.62886 -1.05743 0
M  V30 4721 O 450.196 -0.886053 -1.73145 0
M  V30 4722 C 450.479 -3.56046 0.538833 0
M  V30 4723 C 450.332 -4.02404 2.00976 0
M  V30 4724 C 451.651 -4.40079 -0.0431359 0
M  V30 4725 H 448.77 -0.724397 0.135712 0
M  V30 4726 H 451.412 -1.61461 1.00151 0
M  V30 4727 H 449.562 -3.885 0.000771004 0
M  V30 4728 H 451.234 -3.80415 2.60926 0
M  V30 4729 H 449.477 -3.53765 2.51063 0
M  V30 4730 H 450.148 -5.11344 2.07922 0
M  V30 4731 H 452.624 -4.14013 0.416228 0
M  V30 4732 H 451.5 -5.48799 0.105374 0
M  V30 4733 H 451.761 -4.27264 -1.13571 0
M  V30 4734 N 450.82 -0.546701 -1.47814 0
M  V30 4735 C 451.767 0.206854 -2.29871 0
M  V30 4736 C 452.737 0.918235 -1.38411 0
M  V30 4737 O 453.922 0.915991 -1.67375 0
M  V30 4738 C 451.062 1.23746 -3.22151 0
M  V30 4739 C 450.175 0.533216 -4.28697 0
M  V30 4740 C 449.31 1.5482 -5.08138 0
M  V30 4741 C 448.349 0.828347 -6.06469 0
M  V30 4742 N 447.486 1.78966 -6.78908 0
M  V30 4743 H 452.326 -0.499037 -2.93792 0
M  V30 4744 H 449.863 -0.25793 -1.44821 0
M  V30 4745 H 451.821 1.84746 -3.74065 0
M  V30 4746 H 450.451 1.91151 -2.60117 0
M  V30 4747 H 449.503 -0.191089 -3.7992 0
M  V30 4748 H 450.815 -0.0311987 -4.9879 0
M  V30 4749 H 449.969 2.23202 -5.6415 0
M  V30 4750 H 448.708 2.14652 -4.37922 0
M  V30 4751 H 447.713 0.130539 -5.49645 0
M  V30 4752 H 448.938 0.235907 -6.7869 0
M  V30 4753 H 446.884 2.37675 -6.1143 0
M  V30 4754 H 446.801 1.27712 -7.45135 0
M  V30 4755 H 448.069 2.46496 -7.395 0
M  V30 4756 N 452.299 1.55045 -0.282633 0
M  V30 4757 C 453.209 2.26491 0.61147 0
M  V30 4758 C 454.225 1.29348 1.16384 0
M  V30 4759 O 455.401 1.62298 1.19253 0
M  V30 4760 C 452.466 2.97779 1.77563 0
M  V30 4761 C 451.527 4.10418 1.25919 0
M  V30 4762 C 450.76 4.78297 2.36786 0
M  V30 4763 O 450.983 4.45426 3.56303 0
M  V30 4764 O 449.917 5.66089 2.04517 0
M  V30 4765 H 453.743 3.03683 0.0324615 0
M  V30 4766 H 451.328 1.49317 -0.0497576 0
M  V30 4767 H 453.21 3.42554 2.45427 0
M  V30 4768 H 451.885 2.23498 2.34159 0
M  V30 4769 H 450.792 3.70082 0.546797 0
M  V30 4770 H 452.125 4.86622 0.738887 0
M  V30 4771 N 453.777 0.010035 1.57597 0
M  V30 4772 C 455.005 -0.683413 1.95287 0
M  V30 4773 C 455.42 -1.66747 0.885481 0
M  V30 4774 O 454.777 -1.82003 -0.134629 0
M  V30 4775 C 454.828 -1.40652 3.33015 0
M  V30 4776 O 454.549 -0.461916 4.35658 0
M  V30 4777 C 456.05 -2.19356 3.85225 0
M  V30 4778 H 453.27 -0.189708 0.643624 0
M  V30 4779 H 455.814 0.0641359 2.04399 0
M  V30 4780 H 453.969 -2.10562 3.2518 0
M  V30 4781 H 454.383 -0.973215 5.15392 0
M  V30 4782 H 455.857 -2.65433 4.83993 0
M  V30 4783 H 456.334 -3.02457 3.18459 0
M  V30 4784 H 456.94 -1.54442 3.96267 0
M  V30 4785 N 455.255 -1.55392 -0.262866 0
M  V30 4786 C 456.495 -1.78231 -1.00064 0
M  V30 4787 C 456.859 -0.576966 -1.83126 0
M  V30 4788 O 458.06 -0.683809 -2.59957 0
M  V30 4789 C 456.331 -3.05701 -1.85153 0
M  V30 4790 S 457.89 -3.49699 -2.65058 0
M  V30 4791 H 454.708 -0.626138 -0.336856 0
M  V30 4792 H 457.31 -1.93626 -0.27005 0
M  V30 4793 H 456.014 -3.91511 -1.23074 0
M  V30 4794 H 455.545 -2.93 -2.62515 0
M  V30 4795 H 457.56 -3.09772 -3.87629 0
M  V30 4796 N 456.733 0.527833 -1.48498 0
M  V30 4797 C 457.696 1.61439 -1.62696 0
M  V30 4798 C 458.696 1.52824 -0.500136 0
M  V30 4799 O 459.886 1.56456 -0.765976 0
M  V30 4800 C 457.018 3.01063 -1.59918 0
M  V30 4801 H 458.211 1.50189 -2.59583 0
M  V30 4802 H 455.764 0.750055 -1.37127 0
M  V30 4803 H 456.499 3.17818 -0.645163 0
M  V30 4804 H 456.284 3.08725 -2.41726 0
M  V30 4805 H 457.774 3.80057 -1.73051 0
M  V30 4806 N 458.211 1.37122 0.776871 0
M  V30 4807 C 459.457 1.3325 1.53675 0
M  V30 4808 C 459.812 -0.0839891 1.92217 0
M  V30 4809 O 459.105 -1.04145 1.60824 0
M  V30 4810 C 459.299 2.20068 2.81611 0
M  V30 4811 C 459.128 3.70016 2.55574 0
M  V30 4812 C 457.898 4.39144 2.4996 0
M  V30 4813 C 460.096 4.62996 2.23917 0
M  V30 4814 N 458.078 5.74663 2.15953 0
M  V30 4815 C 459.449 5.86854 2.00005 0
M  V30 4816 C 461.504 4.51433 2.1003 0
M  V30 4817 C 460.207 7.00446 1.63609 0
M  V30 4818 C 462.233 5.64905 1.75033 0
M  V30 4819 C 461.595 6.8781 1.51977 0
M  V30 4820 H 457.694 0.542878 0.562856 0
M  V30 4821 H 460.278 1.72295 0.906784 0
M  V30 4822 H 458.449 1.83248 3.42454 0
M  V30 4823 H 460.181 2.07492 3.47461 0
M  V30 4824 H 456.936 3.92088 2.65639 0
M  V30 4825 H 457.36 6.46268 2.0166 0
M  V30 4826 H 462.002 3.56987 2.26539 0
M  V30 4827 H 459.72 7.94831 1.45837 0
M  V30 4828 H 463.306 5.57926 1.64952 0
M  V30 4829 H 462.186 7.74126 1.25296 0
M  V30 4830 N 459.689 -1.00246 1.21608 0
M  V30 4831 C 460.936 -1.74061 1.03485 0
M  V30 4832 C 461.264 -1.89658 -0.431308 0
M  V30 4833 O 460.519 -1.42976 -1.33627 0
M  V30 4834 C 460.818 -3.15448 1.68009 0
M  V30 4835 C 460.484 -3.19792 3.17874 0
M  V30 4836 C 459.146 -3.20685 3.58768 0
M  V30 4837 C 461.498 -3.16835 4.13842 0
M  V30 4838 C 458.826 -3.16309 4.94131 0
M  V30 4839 C 461.178 -3.14001 5.49169 0
M  V30 4840 C 459.842 -3.13204 5.89457 0
M  V30 4841 H 459.112 -0.636934 0.378677 0
M  V30 4842 H 461.759 -1.17473 1.51236 0
M  V30 4843 H 460.064 -3.75284 1.12557 0
M  V30 4844 H 461.761 -3.71285 1.51487 0
M  V30 4845 H 458.351 -3.19842 2.85305 0
M  V30 4846 H 462.535 -3.15303 3.83272 0
M  V30 4847 H 457.791 -3.14032 5.24589 0
M  V30 4848 H 461.965 -3.10667 6.23265 0
M  V30 4849 H 459.592 -3.09568 6.94314 0
M  V30 4850 N 461.167 -1.02423 -1.1978 0
M  V30 4851 C 462.395 -0.737456 -1.93311 0
M  V30 4852 C 462.81 0.703023 -1.75223 0
M  V30 4853 O 462.167 1.47761 -1.07112 0
M  V30 4854 C 462.218 -1.0733 -3.45199 0
M  V30 4855 O 461.939 -2.4572 -3.62702 0
M  V30 4856 C 463.44 -0.80866 -4.35862 0
M  V30 4857 H 460.66 -0.2702 -0.614193 0
M  V30 4858 H 463.204 -1.36747 -1.52054 0
M  V30 4859 H 461.359 -0.488545 -3.84307 0
M  V30 4860 H 461.773 -2.58081 -4.56612 0
M  V30 4861 H 463.247 -1.09365 -5.41057 0
M  V30 4862 H 463.724 0.257025 -4.38447 0
M  V30 4863 H 464.33 -1.37592 -4.02428 0
M  V30 4864 N 462.645 1.35699 -0.801477 0
M  V30 4865 C 463.922 1.9324 -0.302937 0
M  V30 4866 C 464.302 1.73209 1.20672 0
M  V30 4867 O 463.65 1.09809 2.00385 0
M  V30 4868 C 463.86 3.41728 -0.708747 0
M  V30 4869 C 465.208 4.18868 -0.695328 0
M  V30 4870 O 466.232 3.5022 -0.649971 0
M  V30 4871 O 465.091 5.41342 -0.749081 0
M  V30 4872 H 462.185 0.82331 -0.0780367 0
M  V30 4873 H 464.731 1.44806 -0.884832 0
M  V30 4874 H 463.503 3.50015 -1.74944 0
M  V30 4875 H 463.126 3.97471 -0.101384 0
M  V30 4876 N 464.123 0.554532 1.47522 0
M  V30 4877 C 465.071 -0.207765 2.3167 0
M  V30 4878 C 466.065 -0.911914 1.4276 0
M  V30 4879 O 467.271 -0.833504 1.59539 0
M  V30 4880 H 463.646 -0.0858726 0.747081 0
M  V30 4881 H 465.617 0.521178 2.93813 0
M  V30 4882 C 464.366 -1.2263 3.25357 0
M  V30 4883 H 463.689 -0.693887 3.93732 0
M  V30 4884 H 465.129 -1.73062 3.87073 0
M  V30 4885 C 463.588 -2.27278 2.4869 0
M  V30 4886 O 464.118 -3.34156 2.22941 0
M  V30 4887 N 462.324 -2.01134 2.09746 0
M  V30 4888 H 461.871 -1.14232 2.30887 0
M  V30 4889 H 461.829 -2.71369 1.58765 0
M  V30 4890 N 465.601 -1.54893 0.290851 0
M  V30 4891 C 466.831 -2.04047 -0.323818 0
M  V30 4892 C 467.239 -1.16809 -1.48837 0
M  V30 4893 O 466.582 -0.184145 -1.82775 0
M  V30 4894 C 466.644 -3.49248 -0.852395 0
M  V30 4895 C 466.308 -4.56623 0.185557 0
M  V30 4896 C 467.305 -5.09985 1.01053 0
M  V30 4897 C 464.99 -5.01252 0.324332 0
M  V30 4898 C 466.984 -6.06507 1.96031 0
M  V30 4899 C 464.671 -5.97596 1.27757 0
M  V30 4900 C 465.669 -6.50107 2.09405 0
M  V30 4901 O 465.357 -7.44565 3.03114 0
M  V30 4902 H 465.089 -0.671735 -0.0758129 0
M  V30 4903 H 467.643 -2.00947 0.425393 0
M  V30 4904 H 465.873 -3.49639 -1.65195 0
M  V30 4905 H 467.562 -3.81654 -1.38185 0
M  V30 4906 H 468.328 -4.76307 0.914129 0
M  V30 4907 H 464.207 -4.60015 -0.301213 0
M  V30 4908 H 467.751 -6.47418 2.598 0
M  V30 4909 H 463.648 -6.30691 1.37473 0
M  V30 4910 H 464.416 -7.62334 2.97976 0
M  V30 4911 N 467.08 -0.0183926 -1.57589 0
M  V30 4912 C 467.99 0.982943 -2.13015 0
M  V30 4913 C 469.006 1.36443 -1.07979 0
M  V30 4914 O 470.182 1.44802 -1.3998 0
M  V30 4915 C 467.247 2.25024 -2.63752 0
M  V30 4916 C 466.308 1.93018 -3.83461 0
M  V30 4917 C 465.541 3.13706 -4.31769 0
M  V30 4918 O 465.764 4.2601 -3.79305 0
M  V30 4919 O 464.698 2.96629 -5.23732 0
M  V30 4920 H 468.524 0.541709 -2.9883 0
M  V30 4921 H 466.109 0.201565 -1.48034 0
M  V30 4922 H 467.991 2.99441 -2.96502 0
M  V30 4923 H 466.666 2.68349 -1.81026 0
M  V30 4924 H 465.573 1.16019 -3.55655 0
M  V30 4925 H 466.906 1.54516 -4.67317 0
M  V30 4926 N 468.558 1.5553 0.254621 0
M  V30 4927 C 469.49 1.86104 1.33783 0
M  V30 4928 C 470.503 0.746752 1.44663 0
M  V30 4929 O 471.692 1.0248 1.46151 0
M  V30 4930 C 468.792 2.02532 2.71724 0
M  V30 4931 C 467.965 3.33335 2.83208 0
M  V30 4932 C 467.024 3.396 4.01943 0
M  V30 4933 O 466.05 4.12862 3.91834 0
M  V30 4934 N 467.252 2.68332 5.1476 0
M  V30 4935 H 470.017 2.79605 1.07893 0
M  V30 4936 H 467.578 1.55672 0.444732 0
M  V30 4937 H 469.57 2.04074 3.4948 0
M  V30 4938 H 468.14 1.15811 2.90356 0
M  V30 4939 H 467.36 3.44176 1.92189 0
M  V30 4940 H 468.648 4.19565 2.87824 0
M  V30 4941 H 468.046 2.08528 5.25864 0
M  V30 4942 H 466.603 2.75575 5.90679 0
M  V30 4943 N 470.036 -0.519951 1.48776 0
M  V30 4944 C 470.999 -1.60574 1.6355 0
M  V30 4945 C 471.999 -1.52557 0.508234 0
M  V30 4946 O 473.189 -1.56047 0.774262 0
M  V30 4947 C 470.321 -3.00211 1.61512 0
M  V30 4948 H 471.514 -1.4881 2.60376 0
M  V30 4949 H 469.067 -0.742772 1.37523 0
M  V30 4950 H 469.802 -3.17471 0.662009 0
M  V30 4951 H 469.587 -3.07439 2.43359 0
M  V30 4952 H 471.077 -3.79134 1.75064 0
M  V30 4953 N 471.514 -1.37532 -0.769588 0
M  V30 4954 C 472.93 -1.18379 -1.07045 0
M  V30 4955 C 473.13 -0.0214312 -2.01489 0
M  V30 4956 O 472.186 0.637809 -2.44312 0
M  V30 4957 C 473.499 -2.50338 -1.66588 0
M  V30 4958 C 475.047 -2.56879 -1.78835 0
M  V30 4959 C 475.522 -3.88974 -2.41792 0
M  V30 4960 N 477.013 -3.90428 -2.4924 0
M  V30 4961 C 477.748 -4.89388 -2.98809 0
M  V30 4962 N 477.244 -5.98745 -3.48535 0
M  V30 4963 N 479.037 -4.76791 -2.97703 0
M  V30 4964 H 471.188 -2.11921 -0.142541 0
M  V30 4965 H 473.451 -0.939608 -0.125863 0
M  V30 4966 H 473.157 -3.35767 -1.0466 0
M  V30 4967 H 473.031 -2.67583 -2.65856 0
M  V30 4968 H 475.418 -1.71856 -2.39895 0
M  V30 4969 H 475.499 -2.43516 -0.783166 0
M  V30 4970 H 475.143 -4.74412 -1.81371 0
M  V30 4971 H 475.073 -3.99641 -3.4292 0
M  V30 4972 H 477.564 -3.11433 -2.14052 0
M  V30 4973 H 477.877 -6.70205 -3.84767 0
M  V30 4974 H 476.222 -6.02387 -3.46634 0
M  V30 4975 H 479.413 -3.90478 -2.58157 0
M  V30 4976 H 479.586 -5.54069 -3.36024 0
M  V30 4977 N 472.992 0.995999 -1.22138 0
M  V30 4978 C 473.939 2.08551 -0.988687 0
M  V30 4979 C 474.909 1.65864 0.0885021 0
M  V30 4980 O 476.094 1.90704 -0.0604589 0
M  V30 4981 C 473.234 3.40374 -0.569191 0
M  V30 4982 C 472.347 3.96421 -1.71681 0
M  V30 4983 C 471.482 5.1639 -1.2456 0
M  V30 4984 C 470.521 5.64567 -2.36497 0
M  V30 4985 N 469.658 6.75777 -1.90445 0
M  V30 4986 H 474.498 2.2779 -1.92135 0
M  V30 4987 H 472.035 1.1168 -0.957388 0
M  V30 4988 H 473.993 4.16068 -0.307166 0
M  V30 4989 H 472.623 3.21145 0.326462 0
M  V30 4990 H 471.675 3.17628 -2.09324 0
M  V30 4991 H 472.987 4.2816 -2.55891 0
M  V30 4992 H 472.141 5.99362 -0.940774 0
M  V30 4993 H 470.88 4.86266 -0.373662 0
M  V30 4994 H 469.885 4.80185 -2.67772 0
M  V30 4995 H 471.11 5.96716 -3.24202 0
M  V30 4996 H 469.056 6.47443 -1.05609 0
M  V30 4997 H 468.973 7.06818 -2.68223 0
M  V30 4998 H 470.241 7.62262 -1.63022 0
M  V30 4999 O 474.509 1.15683 1.12693 0
M  V30 5000 H 475.2 0.884984 1.72301 0
M  V30 END ATOM
M  V30 BEGIN BOND
M  V30 END BOND
M  V30 END CTAB
M  END
$$$$
