drugbank_target|O75911 Short-chain dehydrogenase/reductase 3 (DB00162)
 OpenBabel12092120093D

  0  0  0     0  0            999 V3000
M  V30 BEGIN CTAB
M  V30 COUNTS 4786 4830 0 0 0
M  V30 BEGIN ATOM
M  V30 1 H -0.908 1.98254 -0.117106 0
M  V30 2 N 0 1.576 0 0
M  V30 3 C 0.933 2.03868 1.02534 0
M  V30 4 C 1.911 0.928543 1.3348 0
M  V30 5 O 3.095 1.19667 1.45644 0
M  V30 6 C 0.222 2.43627 2.35294 0
M  V30 7 C -0.732 3.65373 2.2001 0
M  V30 8 S 0.101 5.13292 1.52614 0
M  V30 9 C 1.257 5.56322 2.86805 0
M  V30 10 H 1.49 2.90518 0.631377 0
M  V30 11 H -0.977 1.52953 0.210867 0
M  V30 12 H 0.981 2.67203 3.11629 0
M  V30 13 H -0.358 1.57376 2.7183 0
M  V30 14 H -1.165 3.90944 3.18086 0
M  V30 15 H -1.563 3.418 1.51819 0
M  V30 16 H 0.729 5.58782 3.83104 0
M  V30 17 H 1.672 6.56266 2.65933 0
M  V30 18 H 2.08 4.83886 2.90714 0
M  V30 19 N 1.4781 -0.272755 1.55222 0
M  V30 20 C 2.7241 -1.00581 1.761 0
M  V30 21 C 3.0571 -1.85932 0.560625 0
M  V30 22 O 2.3321 -1.89416 -0.441801 0
M  V30 23 C 2.6151 -1.88816 3.06628 0
M  V30 24 C 2.4681 -1.06457 4.37021 0
M  V30 25 C 3.7871 -2.8752 3.33197 0
M  V30 26 H 0.9061 -0.364244 0.640699 0
M  V30 27 H 3.5481 -0.278189 1.87952 0
M  V30 28 H 1.6981 -2.50856 2.96654 0
M  V30 29 H 3.3701 -0.464863 4.58952 0
M  V30 30 H 1.6131 -0.368043 4.32236 0
M  V30 31 H 2.2841 -1.71514 5.24678 0
M  V30 32 H 4.7601 -2.35615 3.42965 0
M  V30 33 H 3.6361 -3.46399 4.25792 0
M  V30 34 H 3.8971 -3.62657 2.52849 0
M  V30 35 N 2.9562 -1.48159 -0.537278 0
M  V30 36 C 4.2022 -1.57015 -1.29297 0
M  V30 37 C 4.5572 -0.237791 -1.90925 0
M  V30 38 O 3.8502 0.758621 -1.75942 0
M  V30 39 C 4.0442 -2.63956 -2.40961 0
M  V30 40 C 3.8732 -4.07461 -1.90278 0
M  V30 41 C 2.6432 -4.74685 -1.73213 0
M  V30 42 C 4.8412 -4.93858 -1.43556 0
M  V30 43 N 2.8232 -6.02633 -1.17078 0
M  V30 44 C 4.1942 -6.11993 -0.993204 0
M  V30 45 C 6.2492 -4.80141 -1.31792 0
M  V30 46 C 4.9522 -7.17923 -0.444872 0
M  V30 47 C 6.9782 -5.86186 -0.783585 0
M  V30 48 C 6.3402 -7.03524 -0.351261 0
M  V30 49 H 2.4392 -0.629154 -0.464423 0
M  V30 50 H 5.0232 -1.85006 -0.606705 0
M  V30 51 H 3.1942 -2.378 -3.07093 0
M  V30 52 H 4.9262 -2.62539 -3.07986 0
M  V30 53 H 1.6812 -4.30902 -1.9652 0
M  V30 54 H 2.1052 -6.7085 -0.910421 0
M  V30 55 H 6.7472 -3.89772 -1.63823 0
M  V30 56 H 4.4652 -8.08022 -0.11222 0
M  V30 57 H 8.0512 -5.77624 -0.695835 0
M  V30 58 H 6.9312 -7.8418 0.055777 0
M  V30 59 N 4.4343 0.785586 -1.36625 0
M  V30 60 C 5.3813 1.89838 -1.31264 0
M  V30 61 C 6.3513 1.65115 -0.180633 0
M  V30 62 O 7.5363 1.87222 -0.36777 0
M  V30 63 C 4.6763 3.26706 -1.11163 0
M  V30 64 C 3.7893 3.63476 -2.33472 0
M  V30 65 C 2.9243 4.89481 -2.06353 0
M  V30 66 C 1.9633 5.18941 -3.24602 0
M  V30 67 N 1.1003 6.36131 -2.97123 0
M  V30 68 H 5.9403 1.93756 -2.26413 0
M  V30 69 H 3.4773 0.947454 -1.12524 0
M  V30 70 H 5.4353 4.05639 -0.975337 0
M  V30 71 H 4.0653 3.222 -0.196674 0
M  V30 72 H 3.1173 2.79636 -2.57891 0
M  V30 73 H 4.4293 3.81193 -3.21704 0
M  V30 74 H 3.5833 5.76288 -1.89675 0
M  V30 75 H 2.3223 4.73841 -1.15437 0
M  V30 76 H 1.3273 4.30615 -3.41834 0
M  V30 77 H 2.5523 5.36498 -4.16349 0
M  V30 78 H 0.4983 6.21875 -2.08823 0
M  V30 79 H 0.4153 6.54198 -3.78894 0
M  V30 80 H 1.6833 7.2591 -2.84033 0
M  V30 81 N 5.9124 1.20967 1.01018 0
M  V30 82 C 7.3284 0.965905 1.27053 0
M  V30 83 C 7.5284 -0.350785 1.98423 0
M  V30 84 O 6.5844 -1.07773 2.28344 0
M  V30 85 C 7.8974 2.15294 2.09926 0
M  V30 86 C 9.4454 2.19463 2.23171 0
M  V30 87 C 9.9204 3.3767 3.09424 0
M  V30 88 N 11.4114 3.37724 3.17012 0
M  V30 89 C 12.1464 4.25837 3.83993 0
M  V30 90 N 11.6424 5.24138 4.53047 0
M  V30 91 N 13.4354 4.1366 3.80581 0
M  V30 92 H 5.5864 2.0565 0.531194 0
M  V30 93 H 7.8494 0.90024 0.297106 0
M  V30 94 H 7.5554 3.10684 1.64828 0
M  V30 95 H 7.4294 2.13923 3.10672 0
M  V30 96 H 9.8164 1.24632 2.6749 0
M  V30 97 H 9.8974 2.2488 1.21912 0
M  V30 98 H 9.5414 4.32791 2.65808 0
M  V30 99 H 9.4714 3.29491 4.10784 0
M  V30 100 H 11.9624 2.6658 2.6785 0
M  V30 101 H 12.2754 5.87684 5.01844 0
M  V30 102 H 10.6204 5.28068 4.5185 0
M  V30 103 H 13.8114 3.36127 3.25785 0
M  V30 104 H 13.9844 4.82538 4.32505 0
M  V30 105 N 7.3905 -1.2043 1.01659 0
M  V30 106 C 8.3205 -2.25466 0.607226 0
M  V30 107 C 9.3015 -1.65853 -0.377716 0
M  V30 108 O 10.4865 -1.92409 -0.263149 0
M  V30 109 C 7.6165 -3.47256 -0.0552949 0
M  V30 110 C 6.5705 -4.19462 0.850632 0
M  V30 111 C 5.8965 -5.34673 0.0538859 0
M  V30 112 C 7.1965 -4.75603 2.15868 0
M  V30 113 H 8.8905 -2.59962 1.48526 0
M  V30 114 H 6.4365 -1.2496 0.715605 0
M  V30 115 H 8.3895 -4.19917 -0.353233 0
M  V30 116 H 7.1135 -3.11924 -0.968045 0
M  V30 117 H 5.7725 -3.48667 1.13257 0
M  V30 118 H 5.4205 -4.95585 -0.860514 0
M  V30 119 H 5.1205 -5.83913 0.657192 0
M  V30 120 H 6.6445 -6.10138 -0.237598 0
M  V30 121 H 8.0585 -5.40083 1.92311 0
M  V30 122 H 6.4555 -5.3528 2.71284 0
M  V30 123 H 7.5255 -3.94346 2.82169 0
M  V30 124 N 8.8686 -0.792821 -1.36206 0
M  V30 125 C 10.1166 -0.366062 -1.98757 0
M  V30 126 C 10.4376 1.0668 -1.63231 0
M  V30 127 O 9.7076 1.73587 -0.907978 0
M  V30 128 H 8.2876 -0.132364 -0.735179 0
M  V30 129 H 10.9496 -1.01562 -1.66347 0
M  V30 130 H 10.0456 -0.460638 -3.08682 0
M  V30 131 N 10.3467 1.47872 -0.545128 0
M  V30 132 C 11.3097 2.28337 0.198717 0
M  V30 133 C 12.3097 1.36255 0.853888 0
M  V30 134 O 13.4997 1.59003 0.711606 0
M  V30 135 C 10.6317 3.15585 1.28915 0
M  V30 136 H 11.8247 2.95567 -0.507941 0
M  V30 137 H 9.3777 1.53362 -0.301616 0
M  V30 138 H 10.1127 2.53019 2.02859 0
M  V30 139 H 9.8977 3.83337 0.824309 0
M  V30 140 H 11.3877 3.76243 1.81194 0
M  V30 141 N 11.8248 0.280983 1.55075 0
M  V30 142 C 12.7548 -0.597469 2.25727 0
M  V30 143 C 13.7358 -1.15417 1.24952 0
M  V30 144 O 14.9208 -1.18722 1.53684 0
M  V30 145 C 12.0508 -1.7789 2.98283 0
M  V30 146 C 11.0048 -1.35347 4.06036 0
M  V30 147 C 10.3308 -2.61846 4.66198 0
M  V30 148 C 11.6308 -0.499354 5.19907 0
M  V30 149 H 13.3248 -0.00824265 2.99399 0
M  V30 150 H 10.8708 -0.0025244 1.44 0
M  V30 151 H 12.8238 -2.39937 3.46422 0
M  V30 152 H 11.5478 -2.39405 2.22155 0
M  V30 153 H 10.2068 -0.756156 3.58717 0
M  V30 154 H 9.8548 -3.21632 3.86732 0
M  V30 155 H 9.5548 -2.3409 5.38958 0
M  V30 156 H 11.0788 -3.24732 5.1709 0
M  V30 157 H 12.4928 -1.02498 5.64063 0
M  V30 158 H 10.8898 -0.316424 5.99265 0
M  V30 159 H 11.9598 0.480459 4.82514 0
M  V30 160 N 13.3029 -1.57598 0.00835791 0
M  V30 161 C 14.5489 -1.91211 -0.675732 0
M  V30 162 C 14.8819 -0.883139 -1.72958 0
M  V30 163 O 14.1569 0.097016 -1.94258 0
M  V30 164 C 14.4399 -3.35379 -1.31123 0
M  V30 165 C 14.2929 -4.48999 -0.268356 0
M  V30 166 C 15.6119 -3.7912 -2.23508 0
M  V30 167 H 12.7309 -0.695374 -0.244179 0
M  V30 168 H 15.3729 -1.89901 0.0613655 0
M  V30 169 H 13.5229 -3.36626 -1.93946 0
M  V30 170 H 15.1949 -4.59887 0.360844 0
M  V30 171 H 13.4379 -4.31873 0.408482 0
M  V30 172 H 14.1089 -5.46851 -0.752218 0
M  V30 173 H 16.5849 -3.79477 -1.70693 0
M  V30 174 H 15.4609 -4.80729 -2.64936 0
M  V30 175 H 15.7219 -3.13455 -3.11766 0
M  V30 176 N 14.781 0.264519 -1.55364 0
M  V30 177 C 15.714 1.35297 -1.83766 0
M  V30 178 C 16.692 1.47171 -0.691336 0
M  V30 179 O 17.876 1.63663 -0.935238 0
M  V30 180 C 15.003 2.72847 -2.00679 0
M  V30 181 C 14.049 2.78214 -3.23263 0
M  V30 182 S 14.882 2.36601 -4.80396 0
M  V30 183 C 16.038 3.7611 -5.00292 0
M  V30 184 H 16.271 1.11003 -2.758 0
M  V30 185 H 13.804 0.464596 -1.47244 0
M  V30 186 H 15.762 3.52057 -2.11108 0
M  V30 187 H 14.423 2.94388 -1.09518 0
M  V30 188 H 13.616 3.7919 -3.3201 0
M  V30 189 H 13.218 2.07034 -3.11469 0
M  V30 190 H 15.51 4.71457 -4.86554 0
M  V30 191 H 16.453 3.7231 -6.02321 0
M  V30 192 H 16.861 3.67806 -4.28228 0
M  V30 193 N 16.2591 1.48442 0.529413 0
M  V30 194 C 17.5061 1.56488 1.28521 0
M  V30 195 C 17.8341 0.239042 1.93025 0
M  V30 196 O 17.0891 -0.770713 1.79885 0
M  V30 197 C 17.3881 2.6523 2.39558 0
M  V30 198 C 17.0541 4.07648 1.92702 0
M  V30 199 C 15.7161 4.46411 1.79641 0
M  V30 200 C 18.0681 4.96896 1.573 0
M  V30 201 C 15.3961 5.72226 1.29514 0
M  V30 202 C 17.7481 6.23202 1.08636 0
M  V30 203 C 16.4121 6.60821 0.941919 0
M  V30 204 H 15.6821 0.572631 0.470292 0
M  V30 205 H 18.3291 1.82161 0.59072 0
M  V30 206 H 16.6341 2.33419 3.14679 0
M  V30 207 H 18.3311 2.68671 2.97686 0
M  V30 208 H 14.9211 3.77036 2.03819 0
M  V30 209 H 19.1051 4.67626 1.66251 0
M  V30 210 H 14.3611 6.00097 1.17019 0
M  V30 211 H 18.5351 6.91753 0.803136 0
M  V30 212 H 16.1621 7.58198 0.5513 0
M  V30 213 N 17.7372 -0.778329 1.37039 0
M  V30 214 C 19.1482 -1.35421 1.28523 0
M  V30 215 C 19.4992 -1.96075 -0.0700901 0
M  V30 216 O 18.6242 -1.93352 -0.971801 0
M  V30 217 C 19.2192 -2.46211 2.32735 0
M  V30 218 C 17.7782 -2.99585 2.27873 0
M  V30 219 C 16.9252 -1.72748 2.16918 0
M  V30 220 H 19.8762 -0.5791 1.47757 0
M  V30 221 H 19.8972 -3.2552 1.9702 0
M  V30 222 H 19.4092 -2.02036 3.31365 0
M  V30 223 H 17.5102 -3.48152 1.32745 0
M  V30 224 H 17.6232 -3.55646 3.21018 0
M  V30 225 H 15.9872 -1.95416 1.63354 0
M  V30 226 H 16.7702 -1.30686 3.17452 0
M  V30 227 N 19.2153 -1.21501 -1.00376 0
M  V30 228 C 20.1453 -0.999478 -2.11028 0
M  V30 229 C 21.1263 0.0759671 -1.6993 0
M  V30 230 O 22.3113 -0.0841106 -1.94018 0
M  V30 231 C 19.4413 -0.564709 -3.42678 0
M  V30 232 C 18.3953 -1.58486 -3.97576 0
M  V30 233 C 17.7213 -1.00628 -5.25146 0
M  V30 234 C 19.0213 -2.97204 -4.29496 0
M  V30 235 H 20.7153 -1.92495 -2.29317 0
M  V30 236 H 18.2613 -0.92693 -1.102 0
M  V30 237 H 20.2143 -0.401091 -4.19487 0
M  V30 238 H 18.9383 0.396411 -3.24185 0
M  V30 239 H 17.5973 -1.73606 -3.22888 0
M  V30 240 H 17.2453 -0.0368439 -5.02987 0
M  V30 241 H 16.9453 -1.68771 -5.62841 0
M  V30 242 H 18.4693 -0.854015 -6.04598 0
M  V30 243 H 19.8833 -2.8552 -4.97143 0
M  V30 244 H 18.2803 -3.62372 -4.78338 0
M  V30 245 H 19.3503 -3.47956 -3.3772 0
M  V30 246 N 20.6934 1.19889 -1.02296 0
M  V30 247 C 21.6254 2.22334 -0.556787 0
M  V30 248 C 22.6384 1.58674 0.364199 0
M  V30 249 O 23.8274 1.77768 0.161533 0
M  V30 250 C 20.9274 3.38257 0.208694 0
M  V30 251 C 20.1004 4.31504 -0.71577 0
M  V30 252 C 19.1594 5.262 0.00325597 0
M  V30 253 O 18.1854 5.65798 -0.621357 0
M  V30 254 N 19.3874 5.66303 1.27599 0
M  V30 255 H 22.1524 2.62957 -1.43784 0
M  V30 256 H 19.7134 1.34495 -0.901261 0
M  V30 257 H 21.7054 3.98616 0.699111 0
M  V30 258 H 20.2754 2.96472 0.991102 0
M  V30 259 H 19.4954 3.69016 -1.38638 0
M  V30 260 H 20.7834 4.9072 -1.34428 0
M  V30 261 H 20.1814 5.36155 1.80429 0
M  V30 262 H 18.7384 6.28942 1.71102 0
M  V30 263 N 22.1715 0.800033 1.35784 0
M  V30 264 C 23.1045 0.151499 2.27697 0
M  V30 265 C 24.0825 -0.678663 1.4776 0
M  V30 266 O 25.2665 -0.647358 1.77035 0
M  V30 267 C 22.3935 -0.790492 3.29346 0
M  V30 268 C 21.4395 -0.0407832 4.26481 0
M  V30 269 S 22.2725 1.29077 5.19711 0
M  V30 270 C 23.4285 0.353055 6.24903 0
M  V30 271 H 23.6615 0.930796 2.82353 0
M  V30 272 H 21.1945 0.594767 1.42485 0
M  V30 273 H 23.1525 -1.3285 3.88409 0
M  V30 274 H 21.8135 -1.54312 2.73581 0
M  V30 275 H 21.0065 -0.755971 4.98298 0
M  V30 276 H 20.6085 0.427063 3.71554 0
M  V30 277 H 22.9005 -0.464147 6.75908 0
M  V30 278 H 23.8435 1.04023 7.00418 0
M  V30 279 H 24.2515 -0.0483344 5.64479 0
M  V30 280 N 23.6496 -1.47581 0.552962 0
M  V30 281 C 24.8986 -2.01684 0.0251995 0
M  V30 282 C 25.2116 -1.43317 -1.33115 0
M  V30 283 O 26.4176 -1.89057 -1.94858 0
M  V30 284 C 24.8736 -3.599 -0.00542052 0
M  V30 285 C 24.4816 -4.27257 1.34742 0
M  V30 286 C 26.2256 -4.21768 -0.4808 0
M  V30 287 C 24.1326 -5.77467 1.27614 0
M  V30 288 H 23.0626 -0.753979 0.00565033 0
M  V30 289 H 25.7136 -1.69616 0.70018 0
M  V30 290 H 24.0956 -3.88911 -0.745961 0
M  V30 291 H 25.2696 -4.09893 2.10534 0
M  V30 292 H 23.5846 -3.77358 1.76039 0
M  V30 293 H 26.1816 -5.31838 -0.55246 0
M  V30 294 H 26.5246 -3.88651 -1.49184 0
M  V30 295 H 27.0576 -3.97273 0.204752 0
M  V30 296 H 23.7966 -6.15196 2.26304 0
M  V30 297 H 23.3166 -5.9718 0.55996 0
M  V30 298 H 24.9956 -6.3959 0.976421 0
M  V30 299 N 25.1277 -0.289203 -1.54924 0
M  V30 300 C 26.3577 0.325989 -2.04012 0
M  V30 301 C 26.7657 1.48961 -1.1665 0
M  V30 302 O 26.1087 1.82794 -0.1822 0
M  V30 303 C 26.1707 0.856112 -3.49158 0
M  V30 304 C 25.8347 -0.180697 -4.56643 0
M  V30 305 C 26.8317 -1.0051 -5.10092 0
M  V30 306 C 24.5167 -0.318998 -5.01286 0
M  V30 307 C 26.5107 -1.95385 -6.06715 0
M  V30 308 C 24.1977 -1.27121 -5.97732 0
M  V30 309 C 25.1957 -2.08713 -6.50329 0
M  V30 310 O 24.8837 -3.02322 -7.44887 0
M  V30 311 H 24.6157 0.0765276 -0.671654 0
M  V30 312 H 27.1697 -0.423254 -2.00992 0
M  V30 313 H 25.3997 1.65567 -3.49463 0
M  V30 314 H 27.0887 1.38591 -3.81507 0
M  V30 315 H 27.8547 -0.90906 -4.76404 0
M  V30 316 H 23.7337 0.306108 -4.59983 0
M  V30 317 H 27.2777 -2.59111 -6.47694 0
M  V30 318 H 23.1747 -1.36801 -6.30837 0
M  V30 319 H 23.9427 -2.97165 -7.6265 0
M  V30 320 N 26.6058 1.57591 -0.0167156 0
M  V30 321 C 27.5358 2.12496 0.967858 0
M  V30 322 C 28.5168 1.03807 1.34752 0
M  V30 323 O 29.7018 1.31577 1.42833 0
M  V30 324 C 26.8318 2.64194 2.25431 0
M  V30 325 C 25.7858 3.77559 2.01576 0
M  V30 326 C 25.1118 4.15636 3.36379 0
M  V30 327 C 26.4118 5.04151 1.36489 0
M  V30 328 H 28.1058 2.95013 0.510643 0
M  V30 329 H 25.6518 1.41915 0.244181 0
M  V30 330 H 27.6048 3.01236 2.94678 0
M  V30 331 H 26.3288 1.78821 2.73296 0
M  V30 332 H 24.9878 3.40937 1.34751 0
M  V30 333 H 24.6358 3.27263 3.81979 0
M  V30 334 H 24.3358 4.92022 3.21229 0
M  V30 335 H 25.8598 4.5525 4.06915 0
M  V30 336 H 27.2738 5.38857 1.95718 0
M  V30 337 H 25.6708 5.85453 1.31776 0
M  V30 338 H 26.7408 4.83733 0.336219 0
M  V30 339 N 28.0839 -0.256276 1.55502 0
M  V30 340 C 29.3299 -0.987079 1.77157 0
M  V30 341 C 29.6629 -1.85327 0.580315 0
M  V30 342 O 28.9379 -1.89874 -0.421686 0
M  V30 343 C 29.2209 -1.85553 3.08613 0
M  V30 344 C 29.0739 -1.01816 4.38125 0
M  V30 345 C 30.3929 -2.8397 3.36228 0
M  V30 346 H 27.5119 -0.357428 0.644526 0
M  V30 347 H 30.1539 -0.258239 1.88237 0
M  V30 348 H 28.3039 -2.47695 2.99298 0
M  V30 349 H 29.9759 -0.416159 4.59419 0
M  V30 350 H 28.2189 -0.322178 4.32602 0
M  V30 351 H 28.8899 -1.65939 5.26468 0
M  V30 352 H 31.3659 -2.31964 3.45445 0
M  V30 353 H 30.2419 -3.41864 4.29442 0
M  V30 354 H 30.5029 -3.59955 2.56681 0
M  V30 355 N 29.562 -1.4872 -0.521534 0
M  V30 356 C 30.808 -1.574 -1.27879 0
M  V30 357 C 31.141 -0.250817 -1.92573 0
M  V30 358 O 30.416 0.743934 -1.79711 0
M  V30 359 C 30.699 -2.71843 -2.36164 0
M  V30 360 C 30.552 -4.13893 -1.76105 0
M  V30 361 C 31.871 -2.82008 -3.37875 0
M  V30 362 H 28.99 -0.572941 -0.463581 0
M  V30 363 H 31.632 -1.80927 -0.580119 0
M  V30 364 H 29.782 -2.51914 -2.95756 0
M  V30 365 H 31.454 -4.45284 -1.20499 0
M  V30 366 H 29.697 -4.20498 -1.06601 0
M  V30 367 H 30.368 -4.89804 -2.5455 0
M  V30 368 H 32.844 -3.00086 -2.88249 0
M  V30 369 H 31.72 -3.63796 -4.11028 0
M  V30 370 H 31.981 -1.90511 -3.98946 0
M  V30 371 N 31.0401 0.771051 -1.3745 0
M  V30 372 C 31.9871 1.88435 -1.3327 0
M  V30 373 C 32.9571 1.64914 -0.198136 0
M  V30 374 O 34.1421 1.86821 -0.387606 0
M  V30 375 C 31.2821 3.25509 -1.14622 0
M  V30 376 C 30.3951 3.60979 -2.37314 0
M  V30 377 C 29.5301 4.87265 -2.11533 0
M  V30 378 C 28.5691 5.15469 -3.30088 0
M  V30 379 N 27.7061 6.32944 -3.03853 0
M  V30 380 H 32.5461 1.91344 -2.28455 0
M  V30 381 H 30.0831 0.935466 -1.13523 0
M  V30 382 H 32.0411 4.04582 -1.01831 0
M  V30 383 H 30.6711 3.21974 -0.230837 0
M  V30 384 H 29.7231 2.76885 -2.60842 0
M  V30 385 H 31.0351 3.77759 -3.25729 0
M  V30 386 H 30.1891 5.74244 -1.95777 0
M  V30 387 H 28.9281 4.7259 -1.20457 0
M  V30 388 H 27.9331 4.26966 -3.46382 0
M  V30 389 H 29.1581 5.32052 -4.22016 0
M  V30 390 H 27.1041 6.19625 -2.15407 0
M  V30 391 H 27.0211 6.50143 -3.85812 0
M  V30 392 H 28.2891 7.22857 -2.91716 0
M  V30 393 N 32.5182 1.22032 0.997298 0
M  V30 394 C 33.4812 0.987909 2.06816 0
M  V30 395 C 34.4812 -0.0440084 1.6074 0
M  V30 396 O 35.6712 0.194053 1.73116 0
M  V30 397 C 32.8032 0.49132 3.37341 0
M  V30 398 H 33.9962 1.93803 2.28868 0
M  V30 399 H 31.5492 1.03838 1.16822 0
M  V30 400 H 32.2842 -0.463364 3.20973 0
M  V30 401 H 32.0692 1.23575 3.72118 0
M  V30 402 H 33.5592 0.348824 4.16141 0
M  V30 403 N 33.9963 -1.19345 1.0293 0
M  V30 404 C 34.9593 -2.20793 0.615069 0
M  V30 405 C 35.9593 -1.57553 -0.321533 0
M  V30 406 O 37.1493 -1.73862 -0.108483 0
M  V30 407 C 34.2813 -3.40754 -0.0999222 0
M  V30 408 H 35.4743 -2.58955 1.51269 0
M  V30 409 H 33.0273 -1.3303 0.820534 0
M  V30 410 H 33.7623 -3.0811 -1.01187 0
M  V30 411 H 33.5473 -3.87889 0.57309 0
M  V30 412 H 35.0373 -4.15898 -0.376645 0
M  V30 413 N 35.4744 -0.807222 -1.35358 0
M  V30 414 C 36.7204 -0.388463 -1.99045 0
M  V30 415 C 37.0534 1.04184 -1.63888 0
M  V30 416 O 36.3284 1.72292 -0.902535 0
M  V30 417 C 36.6114 -0.572783 -3.55515 0
M  V30 418 C 36.4644 -2.04807 -4.00468 0
M  V30 419 C 37.7834 0.00114064 -4.401 0
M  V30 420 H 34.9024 -0.142619 -0.723069 0
M  V30 421 H 37.5444 -1.01687 -1.60498 0
M  V30 422 H 35.6944 -0.0378425 -3.88482 0
M  V30 423 H 37.3664 -2.64544 -3.77908 0
M  V30 424 H 35.6094 -2.54427 -3.51353 0
M  V30 425 H 36.2804 -2.12792 -5.09337 0
M  V30 426 H 38.7564 -0.455716 -4.13597 0
M  V30 427 H 37.6324 -0.157737 -5.48673 0
M  V30 428 H 37.8934 1.09488 -4.28328 0
M  V30 429 N 36.9525 1.47285 -0.560781 0
M  V30 430 C 38.2005 2.02064 -0.0379868 0
M  V30 431 C 38.5215 1.43711 1.31803 0
M  V30 432 O 37.7915 0.61362 1.86042 0
M  V30 433 H 36.3715 0.746918 -0.0110531 0
M  V30 434 H 39.0335 1.80648 -0.731598 0
M  V30 435 H 38.1295 3.12064 0.0474463 0
M  V30 436 N 38.4306 0.297415 1.54768 0
M  V30 437 C 39.3606 -0.573494 2.26348 0
M  V30 438 C 40.3416 -1.14085 1.26169 0
M  V30 439 O 41.5266 -1.17086 1.54934 0
M  V30 440 C 38.6566 -1.74716 3.00153 0
M  V30 441 C 37.6106 -1.31032 4.07449 0
M  V30 442 C 36.9366 -2.56887 4.68949 0
M  V30 443 C 38.2366 -0.444183 5.20408 0
M  V30 444 H 39.9306 0.0235131 2.99391 0
M  V30 445 H 37.4766 0.0127488 1.43994 0
M  V30 446 H 39.4296 -2.3625 3.48947 0
M  V30 447 H 38.1536 -2.37035 2.24682 0
M  V30 448 H 36.8126 -0.718066 3.59499 0
M  V30 449 H 36.4606 -3.17512 3.90122 0
M  V30 450 H 36.1606 -2.2836 5.41411 0
M  V30 451 H 37.6846 -3.19229 5.20505 0
M  V30 452 H 39.0986 -0.9651 5.65118 0
M  V30 453 H 37.4956 -0.252846 5.99567 0
M  V30 454 H 38.5656 0.531609 4.81977 0
M  V30 455 N 39.9087 -1.5758 0.0250728 0
M  V30 456 C 41.1547 -1.91917 -0.655413 0
M  V30 457 C 41.4877 -0.901433 -1.72011 0
M  V30 458 O 40.7627 0.0764069 -1.9435 0
M  V30 459 C 41.0457 -3.36751 -1.27558 0
M  V30 460 C 40.8987 -4.49258 -0.220719 0
M  V30 461 C 42.2177 -3.81469 -2.19475 0
M  V30 462 H 39.3367 -0.697925 -0.23679 0
M  V30 463 H 41.9787 -1.89825 0.0815036 0
M  V30 464 H 40.1287 -3.38664 -1.90365 0
M  V30 465 H 41.8007 -4.59478 0.409601 0
M  V30 466 H 40.0437 -4.31415 0.454264 0
M  V30 467 H 40.7147 -5.47618 -0.694175 0
M  V30 468 H 43.1907 -3.81266 -1.66659 0
M  V30 469 H 42.0667 -4.83512 -2.59822 0
M  V30 470 H 42.3277 -3.16744 -3.08424 0
M  V30 471 N 41.3868 0.248026 -1.55636 0
M  V30 472 C 42.3168 1.31079 -1.93237 0
M  V30 473 C 43.2978 1.50264 -0.797174 0
M  V30 474 O 44.4828 1.62891 -1.05737 0
M  V30 475 C 41.6128 2.66575 -2.22609 0
M  V30 476 C 40.5668 2.62087 -3.3837 0
M  V30 477 C 39.8928 4.01369 -3.53281 0
M  V30 478 C 41.1928 2.19171 -4.7409 0
M  V30 479 H 42.8868 0.998556 -2.82257 0
M  V30 480 H 40.4328 0.47891 -1.35803 0
M  V30 481 H 42.3858 3.41057 -2.47503 0
M  V30 482 H 41.1098 2.99432 -1.30414 0
M  V30 483 H 39.7688 1.90063 -3.13483 0
M  V30 484 H 39.4168 4.31489 -2.58508 0
M  V30 485 H 39.1168 3.99254 -4.31127 0
M  V30 486 H 40.6408 4.77552 -3.80495 0
M  V30 487 H 42.0548 2.83384 -4.98363 0
M  V30 488 H 40.4518 2.2817 -5.5503 0
M  V30 489 H 41.5218 1.14336 -4.71227 0
M  V30 490 N 42.8649 1.48995 0.513639 0
M  V30 491 C 44.2759 1.5119 1.09537 0
M  V30 492 C 44.6269 0.290906 1.94031 0
M  V30 493 O 43.7519 -0.60049 2.07902 0
M  V30 494 C 44.3469 2.73964 1.99322 0
M  V30 495 C 42.9059 2.78978 2.52682 0
M  V30 496 C 42.0529 2.44934 1.30009 0
M  V30 497 H 45.0039 1.55875 0.298125 0
M  V30 498 H 45.0249 2.53409 2.83838 0
M  V30 499 H 44.5369 3.62813 1.37799 0
M  V30 500 H 42.6379 1.94378 3.1788 0
M  V30 501 H 42.7509 3.8083 2.90698 0
M  V30 502 H 41.1149 1.9644 1.62122 0
M  V30 503 H 41.8979 3.36043 0.702131 0
M  V30 504 N 44.343 -0.763751 1.37857 0
M  V30 505 C 45.306 -1.85889 1.34081 0
M  V30 506 C 46.306 -1.58949 0.243277 0
M  V30 507 O 47.496 -1.66882 0.499589 0
M  V30 508 C 44.628 -3.23176 1.08489 0
M  V30 509 H 45.821 -1.90648 2.31502 0
M  V30 510 H 43.374 -0.964367 1.23003 0
M  V30 511 H 44.109 -3.24091 0.116318 0
M  V30 512 H 43.894 -3.44124 1.8794 0
M  V30 513 H 45.384 -4.03254 1.08517 0
M  V30 514 N 45.8211 -1.22559 -0.990812 0
M  V30 515 C 46.7681 -0.997519 -2.0813 0
M  V30 516 C 47.7381 0.0814702 -1.659 0
M  V30 517 O 48.9231 -0.0685424 -1.90677 0
M  V30 518 C 46.0631 -0.583615 -3.40129 0
M  V30 519 C 45.1761 -1.7336 -3.9569 0
M  V30 520 C 44.3111 -1.26748 -5.15857 0
M  V30 521 C 43.3501 -2.38888 -5.63559 0
M  V30 522 N 42.4871 -1.93308 -6.74964 0
M  V30 523 H 47.3271 -1.93099 -2.26973 0
M  V30 524 H 44.8641 -0.962114 -1.11273 0
M  V30 525 H 46.8221 -0.324801 -4.15934 0
M  V30 526 H 45.4521 0.312845 -3.2128 0
M  V30 527 H 44.5041 -2.10669 -3.16738 0
M  V30 528 H 45.8161 -2.57704 -4.27071 0
M  V30 529 H 44.9701 -0.966173 -5.98957 0
M  V30 530 H 43.7091 -0.394272 -4.86104 0
M  V30 531 H 42.7141 -2.69805 -4.79046 0
M  V30 532 H 43.9391 -3.26728 -5.95336 0
M  V30 533 H 41.8851 -1.08352 -6.4699 0
M  V30 534 H 41.8021 -2.71217 -7.05675 0
M  V30 535 H 43.0701 -1.66252 -7.61564 0
M  V30 536 N 47.2992 1.18797 -1.03562 0
M  V30 537 C 48.2292 2.24472 -0.643019 0
M  V30 538 C 49.2102 1.66433 0.351283 0
M  V30 539 O 50.3952 1.92803 0.232505 0
M  V30 540 C 47.5252 3.473 4.24935e-05 0
M  V30 541 C 46.4792 4.18055 -0.917257 0
M  V30 542 C 45.8052 5.34519 -0.138941 0
M  V30 543 C 47.1052 4.72109 -2.23407 0
M  V30 544 H 48.7992 2.57566 -1.52643 0
M  V30 545 H 46.3452 1.23806 -0.735394 0
M  V30 546 H 48.2982 4.20426 0.286383 0
M  V30 547 H 47.0222 3.13424 0.918299 0
M  V30 548 H 45.6812 3.46821 -1.1879 0
M  V30 549 H 45.3292 4.96891 0.781562 0
M  V30 550 H 45.0292 5.82794 -0.750005 0
M  V30 551 H 46.5532 6.10438 0.1405 0
M  V30 552 H 47.9672 5.36955 -2.00879 0
M  V30 553 H 46.3642 5.30897 -2.79765 0
M  V30 554 H 47.4342 3.89807 -2.88407 0
M  V30 555 N 48.7773 0.814389 1.34928 0
M  V30 556 C 50.1933 0.499084 1.51596 0
M  V30 557 C 50.3933 -0.978319 1.76157 0
M  V30 558 O 49.4493 -1.76309 1.80752 0
M  V30 559 C 50.7623 1.35121 2.68631 0
M  V30 560 C 52.3103 1.34746 2.82511 0
M  V30 561 C 52.7853 2.18388 4.0258 0
M  V30 562 N 54.2763 2.15966 4.09772 0
M  V30 563 C 55.0113 2.77437 5.01813 0
M  V30 564 N 54.5073 3.47866 5.99134 0
M  V30 565 N 56.3003 2.67037 4.94619 0
M  V30 566 H 48.4513 1.7711 1.17243 0
M  V30 567 H 50.7143 0.754256 0.574284 0
M  V30 568 H 50.4203 2.40001 2.57085 0
M  V30 569 H 50.2943 1.00991 3.63429 0
M  V30 570 H 52.6813 0.30648 2.93504 0
M  V30 571 H 52.7623 1.72869 1.88547 0
M  V30 572 H 52.4063 3.2253 3.92347 0
M  V30 573 H 52.3363 1.77621 4.9574 0
M  V30 574 H 54.8273 1.64729 3.40107 0
M  V30 575 H 55.1403 3.92038 6.65977 0
M  V30 576 H 53.4853 3.51972 5.99284 0
M  V30 577 H 56.6763 2.11597 4.17546 0
M  V30 578 H 56.8493 3.15232 5.66156 0
M  V30 579 N 50.2554 -1.46986 0.568584 0
M  V30 580 C 51.5324 -1.95592 -0.0174074 0
M  V30 581 C 51.9124 -1.51124 -1.47393 0
M  V30 582 O 51.2604 -0.755329 -2.15655 0
M  V30 583 C 51.4704 -3.48719 0.139913 0
M  V30 584 C 52.8184 -4.246 0.000426376 0
M  V30 585 O 53.8424 -3.56135 0.0680316 0
M  V30 586 O 52.7014 -5.46302 -0.146988 0
M  V30 587 H 49.7954 -0.82498 -0.0577599 0
M  V30 588 H 52.3414 -1.57335 0.635909 0
M  V30 589 H 51.1134 -3.73927 1.15301 0
M  V30 590 H 50.7364 -3.93771 -0.550491 0
M  V30 591 N 51.7335 -0.305618 -1.54608 0
M  V30 592 C 52.6635 0.561482 -2.26649 0
M  V30 593 C 53.6445 1.13415 -1.26772 0
M  V30 594 O 54.8295 1.16262 -1.55553 0
M  V30 595 C 51.9595 1.73122 -3.01075 0
M  V30 596 C 50.9135 1.2887 -4.08138 0
M  V30 597 C 50.2395 2.54396 -4.70305 0
M  V30 598 C 51.5395 0.416578 -5.20636 0
M  V30 599 H 53.2335 -0.0393902 -2.99374 0
M  V30 600 H 50.7795 -0.020385 -1.43986 0
M  V30 601 H 52.7325 2.34396 -3.50195 0
M  V30 602 H 51.4565 2.3584 -2.25936 0
M  V30 603 H 50.1155 0.698991 -3.59875 0
M  V30 604 H 49.7635 3.15439 -3.918 0
M  V30 605 H 49.4635 2.25486 -5.42614 0
M  V30 606 H 50.9875 3.16464 -5.2219 0
M  V30 607 H 52.4015 0.935116 -5.65622 0
M  V30 608 H 50.7985 0.221046 -5.99693 0
M  V30 609 H 51.8685 -0.557162 -4.81688 0
M  V30 610 N 53.2116 1.57565 -0.0334293 0
M  V30 611 C 54.4366 1.96689 0.657895 0
M  V30 612 C 54.8616 0.910057 1.64619 0
M  V30 613 O 54.2196 -0.128598 1.80843 0
M  V30 614 C 54.2676 3.34905 1.33683 0
M  V30 615 O 53.3716 3.31574 2.45219 0
M  V30 616 H 52.7126 0.641205 0.172489 0
M  V30 617 H 55.2426 2.04372 -0.0965621 0
M  V30 618 H 55.2526 3.71234 1.69262 0
M  V30 619 H 53.9276 4.11366 0.612411 0
M  V30 620 H 52.5046 3.06968 2.11719 0
M  V30 621 N 54.6897 -0.239769 1.55765 0
M  V30 622 C 56.1057 -0.588624 1.48349 0
M  V30 623 C 56.3057 -1.88005 0.72502 0
M  V30 624 O 55.3617 -2.51186 0.257269 0
M  V30 625 C 56.6747 -0.68474 2.928 0
M  V30 626 C 58.2227 -0.77659 3.03213 0
M  V30 627 C 58.6977 -0.904207 4.48986 0
M  V30 628 N 60.1887 -0.968896 4.52953 0
M  V30 629 C 60.9237 -1.08703 5.63002 0
M  V30 630 N 60.4197 -1.17026 6.82845 0
M  V30 631 N 62.2127 -1.12074 5.50814 0
M  V30 632 H 54.3637 0.607911 2.03515 0
M  V30 633 H 56.6267 0.21083 0.924259 0
M  V30 634 H 56.3327 0.194284 3.51163 0
M  V30 635 H 56.2067 -1.55435 3.43686 0
M  V30 636 H 58.5937 -1.64606 2.44926 0
M  V30 637 H 58.6747 0.118315 2.55526 0
M  V30 638 H 58.3187 -0.0392633 5.07885 0
M  V30 639 H 58.2487 -1.81426 4.9436 0
M  V30 640 H 60.7397 -0.915633 3.6664 0
M  V30 641 H 61.0527 -1.25966 7.62465 0
M  V30 642 H 59.3977 -1.13971 6.85591 0
M  V30 643 H 62.5887 -1.05226 4.5612 0
M  V30 644 H 62.7617 -1.20936 6.36615 0
M  V30 645 N 56.1678 -1.49265 -0.50573 0
M  V30 646 C 57.0778 -1.68312 -1.63427 0
M  V30 647 C 58.0938 -0.565682 -1.64548 0
M  V30 648 O 59.2698 -0.839801 -1.83055 0
M  V30 649 C 56.3348 -1.74107 -2.99813 0
M  V30 650 C 55.3958 -2.97653 -3.09356 0
M  V30 651 C 54.6288 -3.03163 -4.39236 0
M  V30 652 O 54.8518 -2.16396 -5.27758 0
M  V30 653 O 53.7858 -3.9558 -4.53652 0
M  V30 654 H 57.6118 -2.63907 -1.50289 0
M  V30 655 H 55.1968 -1.32951 -0.681502 0
M  V30 656 H 57.0788 -1.803 -3.80881 0
M  V30 657 H 55.7538 -0.816901 -3.13223 0
M  V30 658 H 54.6608 -2.96981 -2.27493 0
M  V30 659 H 55.9938 -3.89535 -3.00871 0
M  V30 660 N 57.6459 0.756429 -1.3826 0
M  V30 661 C 58.5939 1.89149 -1.35372 0
M  V30 662 C 59.5879 1.67691 -0.24004 0
M  V30 663 O 60.7939 1.75294 -0.408919 0
M  V30 664 H 57.1689 0.622271 -0.422236 0
M  V30 665 H 59.1399 1.88701 -2.31159 0
M  V30 666 C 57.8889 3.26599 -1.19284 0
M  V30 667 H 57.2119 3.43695 -2.0424 0
M  V30 668 H 58.6519 4.06274 -1.21316 0
M  V30 669 C 57.1109 3.3675 0.100454 0
M  V30 670 O 57.6409 3.86951 1.07851 0
M  V30 671 N 55.8469 2.90179 0.15633 0
M  V30 672 H 55.3939 2.49517 -0.640253 0
M  V30 673 H 55.3519 2.97352 1.02123 0
M  V30 674 N 59.124 1.23083 0.984299 0
M  V30 675 C 60.37 1.06214 1.72761 0
M  V30 676 C 60.703 -0.400584 1.90024 0
M  V30 677 O 59.978 -1.29672 1.44967 0
M  V30 678 C 60.261 1.78375 3.12817 0
M  V30 679 C 60.114 3.32296 3.03149 0
M  V30 680 C 61.433 1.54309 4.12161 0
M  V30 681 H 58.552 0.387251 0.627061 0
M  V30 682 H 61.194 1.51536 1.14616 0
M  V30 683 H 59.344 1.39848 3.62457 0
M  V30 684 H 61.016 3.8032 2.61064 0
M  V30 685 H 59.259 3.6153 2.39747 0
M  V30 686 H 59.93 3.77972 4.02295 0
M  V30 687 H 62.406 1.87791 3.71314 0
M  V30 688 H 61.282 2.07281 5.08258 0
M  V30 689 H 61.543 0.477572 4.39513 0
M  V30 690 N 60.6021 -1.18246 1.0419 0
M  V30 691 C 61.5321 -2.24127 0.654914 0
M  V30 692 C 62.5131 -1.66617 -0.342451 0
M  V30 693 O 63.6981 -1.92924 -0.222277 0
M  V30 694 C 60.8281 -3.47295 0.0183757 0
M  V30 695 C 59.7821 -4.17563 0.939414 0
M  V30 696 C 59.1081 -5.34438 0.167286 0
M  V30 697 C 60.4081 -4.70917 2.25908 0
M  V30 698 H 62.1021 -2.56753 1.54007 0
M  V30 699 H 59.6481 -1.23414 0.74195 0
M  V30 700 H 61.6011 -4.20572 -0.264082 0
M  V30 701 H 60.3251 -3.13907 -0.901664 0
M  V30 702 H 58.9841 -3.46186 1.20628 0
M  V30 703 H 58.6321 -4.97298 -0.7552 0
M  V30 704 H 58.3321 -5.82388 0.780901 0
M  V30 705 H 59.8561 -6.10504 -0.108125 0
M  V30 706 H 61.2701 -5.35882 2.03724 0
M  V30 707 H 59.6671 -5.29406 2.82577 0
M  V30 708 H 60.7371 -3.88272 2.9047 0
M  V30 709 N 62.0802 -0.821533 -1.34494 0
M  V30 710 C 63.3292 -0.405355 -1.97585 0
M  V30 711 C 63.6422 1.03677 -1.65863 0
M  V30 712 O 64.8482 1.55679 -2.22433 0
M  V30 713 C 63.3042 -0.673861 -3.53535 0
M  V30 714 C 62.9122 -2.12951 -3.94152 0
M  V30 715 C 64.6562 -0.32378 -4.23263 0
M  V30 716 C 62.5632 -2.34298 -5.43009 0
M  V30 717 H 61.4932 -0.147836 -0.739365 0
M  V30 718 H 64.1442 -1.00769 -1.53355 0
M  V30 719 H 62.5262 -0.00137554 -3.96 0
M  V30 720 H 63.7002 -2.84104 -3.62797 0
M  V30 721 H 62.0152 -2.44089 -3.37356 0
M  V30 722 H 64.6122 -0.461126 -5.32708 0
M  V30 723 H 64.9552 0.731586 -4.09821 0
M  V30 724 H 65.4882 -0.950786 -3.8627 0
M  V30 725 H 62.2272 -3.38335 -5.61435 0
M  V30 726 H 61.7472 -1.67687 -5.75883 0
M  V30 727 H 63.4262 -2.16588 -6.09671 0
M  V30 728 N 63.5583 1.46682 -0.576371 0
M  V30 729 C 64.7863 2.06798 -0.0649635 0
M  V30 730 C 65.2013 1.42612 1.23723 0
M  V30 731 O 64.5583 0.529203 1.74659 0
M  V30 732 C 64.6093 3.6132 0.114202 0
M  V30 733 O 64.3303 4.23104 -1.13644 0
M  V30 734 C 65.8313 4.38349 0.66069 0
M  V30 735 H 63.0513 0.668778 -0.0545616 0
M  V30 736 H 65.5953 1.88404 -0.795237 0
M  V30 737 H 63.7503 3.79162 0.794673 0
M  V30 738 H 64.1643 5.15894 -0.946253 0
M  V30 739 H 65.6383 5.47081 0.73526 0
M  V30 740 H 66.1153 4.05953 1.67627 0
M  V30 741 H 66.7213 4.25297 0.0152951 0
M  V30 742 N 65.0364 0.313813 1.54444 0
M  V30 743 C 66.2844 -0.291099 1.99993 0
M  V30 744 C 66.6054 -1.53418 1.20366 0
M  V30 745 O 65.8754 -1.93544 0.302927 0
M  V30 746 H 64.4554 -0.110552 0.738774 0
M  V30 747 H 67.1174 0.428106 1.9014 0
M  V30 748 H 66.2134 -0.554268 3.07139 0
M  V30 749 N 66.5145 -1.57545 0.0417849 0
M  V30 750 C 67.7625 -1.91937 -0.632829 0
M  V30 751 C 68.0835 -0.919978 -1.71934 0
M  V30 752 O 67.3535 0.0366064 -1.95866 0
M  V30 753 H 65.9335 -0.708493 -0.236742 0
M  V30 754 H 68.5955 -1.9468 0.0925745 0
M  V30 755 H 67.6915 -2.92912 -1.07746 0
M  V30 756 N 67.9926 0.231505 -1.5589 0
M  V30 757 C 69.2406 0.955461 -1.78088 0
M  V30 758 C 69.5616 1.85262 -0.608533 0
M  V30 759 O 68.8316 1.92277 0.375035 0
M  V30 760 H 67.4116 0.355787 -0.656829 0
M  V30 761 H 70.0736 0.245751 -1.93344 0
M  V30 762 H 69.1696 1.56814 -2.69844 0
M  V30 763 N 69.4707 1.49531 0.497807 0
M  V30 764 C 70.8867 1.36365 0.829266 0
M  V30 765 C 71.0867 0.399184 1.97506 0
M  V30 766 O 70.1427 -0.167977 2.51941 0
M  V30 767 C 71.4557 2.77153 1.16647 0
M  V30 768 C 73.0037 2.85877 1.27449 0
M  V30 769 C 73.4787 4.2744 1.64497 0
M  V30 770 N 74.9697 4.30265 1.7154 0
M  V30 771 C 75.7047 5.3677 2.01656 0
M  V30 772 N 75.2007 6.53516 2.29976 0
M  V30 773 N 76.9937 5.24189 2.02934 0
M  V30 774 H 69.1447 2.10831 -0.257703 0
M  V30 775 H 71.4077 0.946534 -0.0527091 0
M  V30 776 H 71.1137 3.49442 0.397872 0
M  V30 777 H 70.9877 3.12722 2.10915 0
M  V30 778 H 73.3747 2.13824 2.0338 0
M  V30 779 H 73.4557 2.53887 0.312244 0
M  V30 780 H 73.0997 5.00021 0.891151 0
M  V30 781 H 73.0297 4.56896 2.61827 0
M  V30 782 H 75.5207 3.4607 1.51802 0
M  V30 783 H 75.8337 7.30506 2.52153 0
M  V30 784 H 74.1787 6.56737 2.27425 0
M  V30 785 H 77.3697 4.31988 1.80289 0
M  V30 786 H 77.5427 6.07286 2.26071 0
M  V30 787 N 70.9488 -0.749086 1.3866 0
M  V30 788 C 72.1968 -1.50535 1.34847 0
M  V30 789 C 72.5178 -1.94909 -0.0595016 0
M  V30 790 O 71.7878 -1.67973 -1.00806 0
M  V30 791 H 70.3678 -0.558395 0.49619 0
M  V30 792 H 73.0298 -0.890165 1.73384 0
M  V30 793 H 72.1258 -2.39413 2.00219 0
M  V30 794 N 72.4269 -1.23603 -0.977757 0
M  V30 795 C 73.6759 -1.06377 -1.71368 0
M  V30 796 C 73.9889 0.399062 -1.91486 0
M  V30 797 O 75.1949 0.691312 -2.62551 0
M  V30 798 C 73.6509 -1.85512 -3.08404 0
M  V30 799 C 73.2589 -3.36141 -2.96164 0
M  V30 800 C 75.0029 -1.76783 -3.85938 0
M  V30 801 C 72.9099 -4.07659 -4.28449 0
M  V30 802 H 71.8399 -0.394452 -0.642591 0
M  V30 803 H 74.4909 -1.47594 -1.09034 0
M  V30 804 H 72.8729 -1.37103 -3.71509 0
M  V30 805 H 74.0469 -3.92056 -2.42133 0
M  V30 806 H 72.3619 -3.45712 -2.32104 0
M  V30 807 H 74.9589 -2.27526 -4.83876 0
M  V30 808 H 75.3019 -0.731116 -4.0983 0
M  V30 809 H 75.8349 -2.22818 -3.2954 0
M  V30 810 H 72.5739 -5.11648 -4.09752 0
M  V30 811 H 72.0939 -3.5653 -4.82334 0
M  V30 812 H 73.7729 -4.141 -4.97122 0
M  V30 813 N 73.905 1.17692 -1.04816 0
M  V30 814 C 75.153 1.87488 -0.754497 0
M  V30 815 C 75.474 1.81205 0.720407 0
M  V30 816 O 74.744 1.23544 1.52032 0
M  V30 817 H 73.324 0.694101 -0.276102 0
M  V30 818 H 75.986 1.42793 -1.32651 0
M  V30 819 H 75.082 2.93328 -1.06606 0
M  V30 820 N 75.3831 0.828654 1.34056 0
M  V30 821 C 76.7991 0.515135 1.51058 0
M  V30 822 C 76.9991 -0.959581 1.77184 0
M  V30 823 O 76.0551 -1.74382 1.82612 0
M  V30 824 C 77.3681 1.37963 2.67183 0
M  V30 825 C 78.9161 1.37735 2.81066 0
M  V30 826 C 79.3911 2.22645 4.00241 0
M  V30 827 N 80.8821 2.203 4.07458 0
M  V30 828 C 81.6171 2.82744 4.98842 0
M  V30 829 N 81.1131 3.54201 5.9541 0
M  V30 830 N 82.9061 2.72268 4.91759 0
M  V30 831 H 75.0571 1.78343 1.15358 0
M  V30 832 H 77.3201 0.760304 0.566252 0
M  V30 833 H 77.0261 2.42714 2.54525 0
M  V30 834 H 76.9001 1.0484 3.62338 0
M  V30 835 H 79.2871 0.337593 2.93163 0
M  V30 836 H 79.3681 1.74859 1.86703 0
M  V30 837 H 79.0121 3.26674 3.88905 0
M  V30 838 H 78.9421 1.82869 4.93829 0
M  V30 839 H 81.4331 1.68327 3.38341 0
M  V30 840 H 81.7461 3.9908 6.61782 0
M  V30 841 H 80.0911 3.58308 5.95517 0
M  V30 842 H 83.2821 2.16014 4.15278 0
M  V30 843 H 83.4551 3.21219 5.62781 0
M  V30 844 N 76.8612 -1.46375 0.584142 0
M  V30 845 C 77.7932 -2.28443 -0.186119 0
M  V30 846 C 78.8062 -1.38596 -0.854115 0
M  V30 847 O 79.9952 -1.63183 -0.723438 0
M  V30 848 C 77.0952 -3.13671 -1.28311 0
M  V30 849 C 76.2682 -4.31652 -0.706758 0
M  V30 850 C 75.3272 -4.98267 -1.69163 0
M  V30 851 O 74.3532 -5.55815 -1.22712 0
M  V30 852 N 75.5552 -4.95408 -3.02575 0
M  V30 853 H 78.3202 -2.9519 0.517986 0
M  V30 854 H 75.8812 -1.56303 0.42201 0
M  V30 855 H 77.8732 -3.55101 -1.94128 0
M  V30 856 H 76.4432 -2.48989 -1.89005 0
M  V30 857 H 75.6632 -3.93989 0.128908 0
M  V30 858 H 76.9512 -5.07906 -0.301506 0
M  V30 859 H 76.3492 -4.49902 -3.42936 0
M  V30 860 H 74.9062 -5.40774 -3.63877 0
M  V30 861 N 78.3393 -0.321999 -1.54275 0
M  V30 862 C 79.2693 0.537411 -2.27231 0
M  V30 863 C 80.2503 1.12064 -1.27968 0
M  V30 864 O 81.4353 1.14606 -1.56777 0
M  V30 865 C 78.5653 1.69919 -3.02894 0
M  V30 866 C 77.5193 1.24534 -4.09482 0
M  V30 867 C 76.8453 2.49394 -4.72977 0
M  V30 868 C 78.1453 0.361335 -5.21049 0
M  V30 869 H 79.8393 -0.0711406 -2.99315 0
M  V30 870 H 77.3853 -0.0356555 -1.43956 0
M  V30 871 H 79.3383 2.30668 -3.52662 0
M  V30 872 H 78.0623 2.33431 -2.28424 0
M  V30 873 H 76.7213 0.660782 -3.60596 0
M  V30 874 H 76.3693 3.11265 -3.95124 0
M  V30 875 H 76.0693 2.19718 -5.44975 0
M  V30 876 H 77.5933 3.10908 -5.25517 0
M  V30 877 H 79.0073 0.875072 -5.66582 0
M  V30 878 H 77.4043 0.157428 -5.99893 0
M  V30 879 H 78.4743 -0.60822 -4.8107 0
M  V30 880 N 79.8174 1.5752 -0.0501392 0
M  V30 881 C 80.7804 2.1037 0.909786 0
M  V30 882 C 81.7804 1.02308 1.24056 0
M  V30 883 O 82.9704 1.28385 1.17741 0
M  V30 884 C 80.1024 2.58708 2.21998 0
M  V30 885 H 81.2954 2.96479 0.451665 0
M  V30 886 H 78.8484 1.55038 0.198248 0
M  V30 887 H 79.5834 1.75989 2.72394 0
M  V30 888 H 79.3684 3.37675 1.99295 0
M  V30 889 H 80.8584 2.99747 2.9076 0
M  V30 890 N 81.2955 -0.223234 1.56011 0
M  V30 891 C 82.7115 -0.572856 1.48965 0
M  V30 892 C 82.9115 -1.87225 0.74492 0
M  V30 893 O 81.9675 -2.50899 0.283896 0
M  V30 894 C 83.2805 -0.653646 2.9351 0
M  V30 895 C 84.8285 -0.744386 3.0402 0
M  V30 896 C 85.3035 -0.856535 4.49919 0
M  V30 897 N 86.7945 -0.9208 4.53955 0
M  V30 898 C 87.5295 -1.02726 5.64123 0
M  V30 899 N 87.0255 -1.09777 6.84047 0
M  V30 900 N 88.8185 -1.06226 5.51971 0
M  V30 901 H 80.9695 0.629462 2.02858 0
M  V30 902 H 83.2325 0.220621 0.921971 0
M  V30 903 H 82.9385 0.231518 3.50937 0
M  V30 904 H 82.8125 -1.51781 3.45315 0
M  V30 905 H 85.1995 -1.61999 2.46658 0
M  V30 906 H 85.2805 0.14541 2.55386 0
M  V30 907 H 84.9245 0.0146069 5.07898 0
M  V30 908 H 84.8545 -1.76172 4.96257 0
M  V30 909 H 87.3455 -0.876694 3.6759 0
M  V30 910 H 87.6585 -1.17872 7.63758 0
M  V30 911 H 86.0035 -1.06693 6.86762 0
M  V30 912 H 89.1945 -1.00382 4.5721 0
M  V30 913 H 89.3675 -1.14177 6.37862 0
M  V30 914 N 82.7736 -1.49793 -0.48987 0
M  V30 915 C 83.6836 -1.70036 -1.61632 0
M  V30 916 C 84.6996 -0.583102 -1.63939 0
M  V30 917 O 85.8756 -0.859169 -1.82154 0
M  V30 918 C 82.9406 -1.77277 -2.97949 0
M  V30 919 C 82.0016 -3.00918 -3.06181 0
M  V30 920 C 81.2346 -3.07804 -4.35996 0
M  V30 921 O 81.4576 -2.21982 -5.25433 0
M  V30 922 O 80.3916 -4.00369 -4.49431 0
M  V30 923 H 84.2176 -2.65486 -1.47482 0
M  V30 924 H 81.8026 -1.33666 -0.667362 0
M  V30 925 H 83.6846 -1.84329 -3.78947 0
M  V30 926 H 82.3596 -0.850076 -3.12339 0
M  V30 927 H 81.2666 -2.99377 -2.2433 0
M  V30 928 H 82.5996 -3.92704 -2.96723 0
M  V30 929 N 84.2517 0.741722 -1.39055 0
M  V30 930 C 85.4987 1.50114 -1.35912 0
M  V30 931 C 85.8267 1.94443 0.0470937 0
M  V30 932 O 85.0817 1.66612 1.02659 0
M  V30 933 C 85.3807 2.7592 -2.27163 0
M  V30 934 C 85.0467 2.50493 -3.74919 0
M  V30 935 C 83.7087 2.43267 -4.1518 0
M  V30 936 C 86.0607 2.28585 -4.684 0
M  V30 937 C 83.3887 2.12166 -5.46994 0
M  V30 938 C 85.7407 1.99002 -6.00484 0
M  V30 939 C 84.4047 1.90241 -6.39816 0
M  V30 940 H 83.6747 0.549306 -0.497336 0
M  V30 941 H 86.3217 0.851896 -1.71508 0
M  V30 942 H 84.6267 3.45553 -1.84663 0
M  V30 943 H 86.3237 3.33923 -2.22028 0
M  V30 944 H 82.9137 2.56992 -3.43006 0
M  V30 945 H 87.0977 2.33139 -4.38132 0
M  V30 946 H 82.3537 2.03901 -5.76398 0
M  V30 947 H 86.5277 1.81057 -6.72452 0
M  V30 948 H 84.1547 1.65907 -7.41875 0
M  V30 949 N 85.7298 1.2412 0.971189 0
M  V30 950 C 86.6928 1.03156 2.04674 0
M  V30 951 C 87.6928 -0.00990322 1.60797 0
M  V30 952 O 88.8828 0.230729 1.72665 0
M  V30 953 C 86.0148 0.562765 3.36223 0
M  V30 954 H 87.2078 1.98614 2.24705 0
M  V30 955 H 84.7608 1.06293 1.14593 0
M  V30 956 H 85.4958 -0.395176 3.21883 0
M  V30 957 H 85.2808 1.31441 3.69413 0
M  V30 958 H 86.7708 0.437015 4.15307 0
M  V30 959 N 87.2079 -1.17134 1.05439 0
M  V30 960 C 88.1179 -2.24878 0.668365 0
M  V30 961 C 89.1339 -1.71186 -0.311687 0
M  V30 962 O 90.3099 -2.00738 -0.163161 0
M  V30 963 C 87.3749 -3.46662 0.051648 0
M  V30 964 C 86.4359 -4.15429 1.08246 0
M  V30 965 C 85.6689 -5.31399 0.495082 0
M  V30 966 O 85.8919 -5.66153 -0.694743 0
M  V30 967 O 84.8259 -5.89187 1.23056 0
M  V30 968 H 88.6519 -2.60189 1.56637 0
M  V30 969 H 86.2369 -1.24482 0.826104 0
M  V30 970 H 88.1189 -4.20394 -0.290966 0
M  V30 971 H 86.7939 -3.13142 -0.819971 0
M  V30 972 H 85.7009 -3.43704 1.47711 0
M  V30 973 H 87.0339 -4.52982 1.92532 0
M  V30 974 N 88.686 -0.835752 -1.33615 0
M  V30 975 C 90.102 -0.523139 -1.50783 0
M  V30 976 C 90.302 0.950171 -1.77691 0
M  V30 977 O 89.358 1.73411 -1.83534 0
M  V30 978 C 90.671 -1.39378 -2.66448 0
M  V30 979 C 92.219 -1.39223 -2.80332 0
M  V30 980 C 92.694 -2.24765 -3.99055 0
M  V30 981 N 94.185 -2.22458 -4.06284 0
M  V30 982 C 94.92 -2.85386 -4.97336 0
M  V30 983 N 94.416 -3.57354 -5.93523 0
M  V30 984 N 96.209 -2.74872 -4.90308 0
M  V30 985 H 88.36 -1.78952 -1.14411 0
M  V30 986 H 90.623 -0.763297 -0.562212 0
M  V30 987 H 90.329 -2.44061 -2.53234 0
M  V30 988 H 90.203 -1.0676 -3.61776 0
M  V30 989 H 92.59 -0.353136 -2.92979 0
M  V30 990 H 92.671 -1.75846 -1.85773 0
M  V30 991 H 92.315 -3.28732 -3.87167 0
M  V30 992 H 92.245 -1.85485 -4.92852 0
M  V30 993 H 94.736 -1.70119 -3.37443 0
M  V30 994 H 95.049 -4.02584 -6.59656 0
M  V30 995 H 93.394 -3.61461 -5.93608 0
M  V30 996 H 96.585 -2.18213 -4.14126 0
M  V30 997 H 96.758 -3.24199 -5.61069 0
M  V30 998 N 90.1641 1.46063 -0.591896 0
M  V30 999 C 91.4121 2.01938 -0.0808391 0
M  V30 1000 C 91.7331 1.46475 1.28725 0
M  V30 1001 O 91.0031 0.652944 1.84698 0
M  V30 1002 H 89.5831 0.746516 -0.0268938 0
M  V30 1003 H 92.2451 1.79055 -0.769752 0
M  V30 1004 H 91.3411 3.12094 -0.0187578 0
M  V30 1005 N 91.6422 0.330177 1.54103 0
M  V30 1006 C 92.6052 -0.520144 2.2322 0
M  V30 1007 C 93.6052 -1.03828 1.22786 0
M  V30 1008 O 94.7952 -0.929652 1.4732 0
M  V30 1009 C 91.9272 -1.72317 2.94142 0
M  V30 1010 H 93.1202 0.0841605 2.99782 0
M  V30 1011 H 90.6732 0.0813433 1.56088 0
M  V30 1012 H 91.4082 -2.36653 2.21734 0
M  V30 1013 H 91.1932 -1.35898 3.67796 0
M  V30 1014 H 92.6832 -2.3266 3.46784 0
M  V30 1015 N 93.1203 -1.57491 0.0584922 0
M  V30 1016 C 94.5363 -1.56792 -0.298091 0
M  V30 1017 C 94.7363 -1.06679 -1.70944 0
M  V30 1018 O 93.7923 -0.726672 -2.41818 0
M  V30 1019 C 95.1053 -3.00461 -0.119879 0
M  V30 1020 C 96.6533 -3.1242 -0.190428 0
M  V30 1021 C 97.1283 -4.57982 -0.0406567 0
M  V30 1022 N 98.6193 -4.63099 -0.0966958 0
M  V30 1023 C 99.3543 -5.734 -0.00502943 0
M  V30 1024 N 98.8503 -6.9266 0.139402 0
M  V30 1025 N 100.643 -5.62067 -0.0611391 0
M  V30 1026 H 92.7943 -1.88386 0.98105 0
M  V30 1027 H 95.0573 -0.867865 0.381463 0
M  V30 1028 H 94.7633 -3.41187 0.85349 0
M  V30 1029 H 94.6373 -3.66843 -0.877833 0
M  V30 1030 H 97.0243 -2.71589 -1.15427 0
M  V30 1031 H 97.1053 -2.48702 0.598405 0
M  V30 1032 H 96.7493 -4.995 0.919897 0
M  V30 1033 H 96.6793 -5.19715 -0.848727 0
M  V30 1034 H 99.1703 -3.77331 -0.207277 0
M  V30 1035 H 99.4833 -7.72536 0.201855 0
M  V30 1036 H 97.8283 -6.94781 0.174586 0
M  V30 1037 H 101.019 -4.67782 -0.172583 0
M  V30 1038 H 101.192 -6.47999 0.0137562 0
M  V30 1039 N 94.5984 0.214957 -1.56127 0
M  V30 1040 C 95.5454 1.26642 -1.92952 0
M  V30 1041 C 96.5154 1.46244 -0.78753 0
M  V30 1042 O 97.7004 1.59704 -1.04399 0
M  V30 1043 C 94.8404 2.6104 -2.25726 0
M  V30 1044 C 93.9534 2.49183 -3.52891 0
M  V30 1045 C 93.0884 3.76149 -3.7508 0
M  V30 1046 C 92.1274 3.59041 -4.95738 0
M  V30 1047 N 91.2644 4.77972 -5.14283 0
M  V30 1048 H 96.1044 0.945384 -2.82607 0
M  V30 1049 H 93.6414 0.455489 -1.3987 0
M  V30 1050 H 95.5994 3.39313 -2.42739 0
M  V30 1051 H 94.2294 2.91227 -1.39236 0
M  V30 1052 H 93.2814 1.6231 -3.44034 0
M  V30 1053 H 94.5934 2.32466 -4.41318 0
M  V30 1054 H 93.7474 4.62865 -3.92226 0
M  V30 1055 H 92.4864 3.95799 -2.84947 0
M  V30 1056 H 91.4914 2.7071 -4.78535 0
M  V30 1057 H 92.7164 3.40856 -5.87362 0
M  V30 1058 H 90.6624 4.97923 -4.27093 0
M  V30 1059 H 90.5794 4.64006 -5.96853 0
M  V30 1060 H 91.8474 5.66096 -5.35869 0
M  V30 1061 N 96.0765 1.50051 0.48192 0
M  V30 1062 C 97.3255 1.59741 1.23149 0
M  V30 1063 C 97.6385 0.298163 1.93314 0
M  V30 1064 O 98.8445 0.273835 2.70116 0
M  V30 1065 C 97.3005 2.81926 2.23708 0
M  V30 1066 C 96.9085 4.18685 1.59396 0
M  V30 1067 C 98.6525 3.00956 2.99375 0
M  V30 1068 C 96.5595 5.3207 2.58178 0
M  V30 1069 H 95.4895 0.594838 0.46334 0
M  V30 1070 H 98.1405 1.76467 0.503169 0
M  V30 1071 H 96.5225 2.58736 2.99786 0
M  V30 1072 H 97.6965 4.52088 0.891811 0
M  V30 1073 H 96.0115 4.05171 0.960503 0
M  V30 1074 H 98.6085 3.82836 3.73283 0
M  V30 1075 H 98.9515 2.12258 3.58123 0
M  V30 1076 H 99.4845 3.24277 2.30411 0
M  V30 1077 H 96.2235 6.22888 2.04184 0
M  V30 1078 H 95.7435 5.03098 3.26577 0
M  V30 1079 H 97.4225 5.62196 3.20225 0
M  V30 1080 N 97.5546 -0.734337 1.39446 0
M  V30 1081 C 98.8006 -1.49613 1.36908 0
M  V30 1082 C 99.1336 -1.94169 -0.0347829 0
M  V30 1083 O 98.4086 -1.66833 -0.999847 0
M  V30 1084 C 98.6916 -2.73534 2.34203 0
M  V30 1085 C 98.5446 -2.34993 3.83534 0
M  V30 1086 C 99.8636 -3.75635 2.29317 0
M  V30 1087 H 96.9826 -0.542714 0.498629 0
M  V30 1088 H 99.6246 -0.839597 1.70443 0
M  V30 1089 H 97.7746 -3.29553 2.05736 0
M  V30 1090 H 99.4466 -1.84601 4.22753 0
M  V30 1091 H 97.6896 -1.67213 4.00278 0
M  V30 1092 H 98.3606 -3.23738 4.47099 0
M  V30 1093 H 100.837 -3.29203 2.54489 0
M  V30 1094 H 99.7126 -4.60008 2.99472 0
M  V30 1095 H 99.9736 -4.22603 1.29842 0
M  V30 1096 N 99.0327 -1.24633 -0.964593 0
M  V30 1097 C 99.9627 -1.06611 -2.07741 0
M  V30 1098 C 100.944 0.0218666 -1.70086 0
M  V30 1099 O 102.129 -0.145793 -1.93652 0
M  V30 1100 C 99.2587 -0.673444 -3.40708 0
M  V30 1101 C 98.2127 -1.71054 -3.92332 0
M  V30 1102 C 97.5387 -1.17285 -5.21678 0
M  V30 1103 C 98.8387 -3.10718 -4.19824 0
M  V30 1104 H 100.533 -1.99693 -2.23076 0
M  V30 1105 H 98.0787 -0.96152 -1.07195 0
M  V30 1106 H 100.032 -0.534345 -4.17998 0
M  V30 1107 H 98.7557 0.293073 -3.25282 0
M  V30 1108 H 97.4147 -1.83791 -3.17201 0
M  V30 1109 H 97.0627 -0.196847 -5.02615 0
M  V30 1110 H 96.7627 -1.86592 -5.57187 0
M  V30 1111 H 98.2867 -1.04593 -6.01575 0
M  V30 1112 H 99.7007 -3.01192 -4.87808 0
M  V30 1113 H 98.0977 -3.77406 -4.66567 0
M  V30 1114 H 99.1677 -3.58524 -3.26479 0
M  V30 1115 N 100.511 1.16574 -1.06058 0
M  V30 1116 C 101.757 1.87565 -0.78683 0
M  V30 1117 C 102.112 1.80012 0.679214 0
M  V30 1118 O 101.405 1.20327 1.49104 0
M  V30 1119 C 101.599 3.36195 -1.21275 0
M  V30 1120 C 101.428 3.58216 -2.71866 0
M  V30 1121 C 100.198 3.7444 -3.39298 0
M  V30 1122 C 102.396 3.57134 -3.70081 0
M  V30 1123 N 100.378 3.84389 -4.78663 0
M  V30 1124 C 101.749 3.73038 -4.9522 0
M  V30 1125 C 103.804 3.40332 -3.63426 0
M  V30 1126 C 102.507 3.73879 -6.14497 0
M  V30 1127 C 104.533 3.42466 -4.82153 0
M  V30 1128 C 103.895 3.58887 -6.06118 0
M  V30 1129 H 99.9938 0.704081 -0.340284 0
M  V30 1130 H 102.578 1.39885 -1.35426 0
M  V30 1131 H 100.749 3.82522 -0.673179 0
M  V30 1132 H 102.481 3.94839 -0.887917 0
M  V30 1133 H 99.2358 3.74662 -2.89699 0
M  V30 1134 H 99.6598 3.93138 -5.51155 0
M  V30 1135 H 104.302 3.26566 -2.68541 0
M  V30 1136 H 102.02 3.86427 -7.09718 0
M  V30 1137 H 105.606 3.30712 -4.78666 0
M  V30 1138 H 104.486 3.60454 -6.9645 0
M  V30 1139 N 101.989 0.842826 1.3317 0
M  V30 1140 C 103.237 0.439577 1.97262 0
M  V30 1141 C 103.558 -1.00548 1.67078 0
M  V30 1142 O 102.828 -1.70098 0.971779 0
M  V30 1143 H 101.408 0.159558 0.72976 0
M  V30 1144 H 104.07 1.07665 1.62463 0
M  V30 1145 H 103.166 0.574886 3.0676 0
M  V30 1146 N 103.467 -1.45747 0.599634 0
M  V30 1147 C 104.883 -1.57424 0.26264 0
M  V30 1148 C 105.083 -1.59222 -1.23493 0
M  V30 1149 O 104.139 -1.51825 -2.01756 0
M  V30 1150 C 105.452 -2.86061 0.926795 0
M  V30 1151 C 107 -2.99722 0.901967 0
M  V30 1152 C 107.475 -4.31119 1.54598 0
M  V30 1153 N 108.966 -4.37858 1.5111 0
M  V30 1154 C 109.701 -5.3818 1.97863 0
M  V30 1155 N 109.197 -6.45083 2.52666 0
M  V30 1156 N 110.99 -5.29487 1.88679 0
M  V30 1157 H 103.141 -1.42823 1.57211 0
M  V30 1158 H 105.404 -0.68235 0.658105 0
M  V30 1159 H 105.11 -2.90605 1.98095 0
M  V30 1160 H 104.984 -3.74563 0.445238 0
M  V30 1161 H 107.371 -2.9475 -0.143617 0
M  V30 1162 H 107.452 -2.12652 1.42171 0
M  V30 1163 H 107.096 -4.36849 2.59085 0
M  V30 1164 H 107.026 -5.16992 1.00132 0
M  V30 1165 H 109.517 -3.61209 1.11068 0
M  V30 1166 H 109.83 -7.17869 2.86155 0
M  V30 1167 H 108.175 -6.45856 2.56701 0
M  V30 1168 H 111.366 -4.44877 1.4561 0
M  V30 1169 H 111.539 -6.07524 2.25429 0
M  V30 1170 N 104.945 -0.338344 -1.53925 0
M  V30 1171 C 106.173 0.261298 -2.05243 0
M  V30 1172 C 106.588 1.44625 -1.21363 0
M  V30 1173 O 105.945 1.80811 -0.247736 0
M  V30 1174 C 105.996 0.681412 -3.5502 0
M  V30 1175 O 105.717 -0.456414 -4.35716 0
M  V30 1176 C 107.218 1.34232 -4.22489 0
M  V30 1177 H 104.438 0.0513685 -0.669031 0
M  V30 1178 H 106.982 -0.488822 -1.98572 0
M  V30 1179 H 105.137 1.38148 -3.61931 0
M  V30 1180 H 105.551 -0.122564 -5.24357 0
M  V30 1181 H 107.025 1.58708 -5.28693 0
M  V30 1182 H 107.502 2.29426 -3.74514 0
M  V30 1183 H 108.108 0.684424 -4.19757 0
M  V30 1184 N 106.423 1.57458 -0.0668435 0
M  V30 1185 C 107.333 2.15937 0.916975 0
M  V30 1186 C 108.349 1.12123 1.33058 0
M  V30 1187 O 109.525 1.44366 1.40429 0
M  V30 1188 C 106.59 2.70547 2.16807 0
M  V30 1189 C 105.651 3.89215 1.81135 0
M  V30 1190 C 104.884 4.41211 3.0028 0
M  V30 1191 O 105.107 3.92225 4.14144 0
M  V30 1192 O 104.041 5.32605 2.80384 0
M  V30 1193 H 107.867 3.00354 0.449561 0
M  V30 1194 H 105.452 1.48584 0.155949 0
M  V30 1195 H 107.334 3.0557 2.90181 0
M  V30 1196 H 106.009 1.89192 2.62656 0
M  V30 1197 H 104.916 3.59054 1.05028 0
M  V30 1198 H 106.249 4.71848 1.40073 0
M  V30 1199 N 107.901 -0.206675 1.56239 0
M  V30 1200 C 108.848 -1.25617 1.93621 0
M  V30 1201 C 109.818 -1.45824 0.795274 0
M  V30 1202 O 111.003 -1.59148 1.05245 0
M  V30 1203 C 108.143 -2.59839 2.27107 0
M  V30 1204 C 107.256 -2.47308 3.54207 0
M  V30 1205 C 106.391 -3.74155 3.7707 0
M  V30 1206 C 105.43 -3.56407 4.97635 0
M  V30 1207 N 104.567 -4.75238 5.1681 0
M  V30 1208 H 109.407 -0.930383 2.83104 0
M  V30 1209 H 106.944 -0.448065 1.4011 0
M  V30 1210 H 108.902 -3.38021 2.44535 0
M  V30 1211 H 107.532 -2.90485 1.40778 0
M  V30 1212 H 106.584 -1.60483 3.4489 0
M  V30 1213 H 107.896 -2.30122 4.42544 0
M  V30 1214 H 107.05 -4.60778 3.94675 0
M  V30 1215 H 105.789 -3.94282 2.87042 0
M  V30 1216 H 104.794 -2.68168 4.79964 0
M  V30 1217 H 106.019 -3.37736 5.89161 0
M  V30 1218 H 103.965 -4.95651 4.29728 0
M  V30 1219 H 103.882 -4.60835 5.99306 0
M  V30 1220 H 105.15 -5.63246 5.38864 0
M  V30 1221 N 109.379 -1.50304 -0.473955 0
M  V30 1222 C 110.619 -1.62786 -1.23612 0
M  V30 1223 C 110.983 -0.319786 -1.89318 0
M  V30 1224 O 112.184 -0.320012 -2.66888 0
M  V30 1225 C 110.455 -2.77351 -2.25414 0
M  V30 1226 S 112.014 -3.09948 -3.10608 0
M  V30 1227 H 108.832 -0.573895 -0.419721 0
M  V30 1228 H 111.434 -1.88076 -0.533623 0
M  V30 1229 H 110.138 -3.70879 -1.75719 0
M  V30 1230 H 109.669 -2.54137 -3.00296 0
M  V30 1231 H 111.684 -2.53553 -4.26527 0
M  V30 1232 N 110.857 0.726932 -1.39834 0
M  V30 1233 C 111.787 1.85405 -1.41941 0
M  V30 1234 C 112.768 1.67751 -0.281728 0
M  V30 1235 O 113.953 1.8795 -0.488717 0
M  V30 1236 C 111.083 3.23243 -1.2701 0
M  V30 1237 C 110.037 3.55549 -2.38262 0
M  V30 1238 C 109.363 4.9241 -2.08415 0
M  V30 1239 C 110.663 3.577 -3.80589 0
M  V30 1240 H 112.357 1.83899 -2.36266 0
M  V30 1241 H 109.903 0.883349 -1.13723 0
M  V30 1242 H 111.856 4.01775 -1.27103 0
M  V30 1243 H 110.58 3.25296 -0.291564 0
M  V30 1244 H 109.239 2.79351 -2.37399 0
M  V30 1245 H 108.887 4.91052 -1.0898 0
M  V30 1246 H 108.587 5.14992 -2.82943 0
M  V30 1247 H 110.111 5.73289 -2.10171 0
M  V30 1248 H 111.525 4.26293 -3.83337 0
M  V30 1249 H 109.922 3.91804 -4.54543 0
M  V30 1250 H 110.992 2.57328 -4.10987 0
M  V30 1251 N 112.336 1.25143 0.95797 0
M  V30 1252 C 113.283 1.05235 2.05412 0
M  V30 1253 C 114.253 -0.0374561 1.66058 0
M  V30 1254 O 115.438 0.119073 1.90428 0
M  V30 1255 C 112.578 0.673589 3.38462 0
M  V30 1256 C 111.691 1.8379 3.90954 0
M  V30 1257 C 110.826 1.40381 5.12315 0
M  V30 1258 C 109.865 2.53746 5.57027 0
M  V30 1259 N 109.002 2.11136 6.69601 0
M  V30 1260 H 113.842 1.99048 2.21774 0
M  V30 1261 H 111.379 0.991277 1.08683 0
M  V30 1262 H 113.337 0.434964 4.14926 0
M  V30 1263 H 111.967 -0.227554 3.21997 0
M  V30 1264 H 111.019 2.18992 3.11041 0
M  V30 1265 H 112.331 2.68937 4.20089 0
M  V30 1266 H 111.485 1.12464 5.96185 0
M  V30 1267 H 110.224 0.523015 4.84887 0
M  V30 1268 H 109.229 2.82412 4.71724 0
M  V30 1269 H 110.454 3.42398 5.86464 0
M  V30 1270 H 108.4 1.25468 6.4389 0
M  V30 1271 H 108.317 2.89832 6.98236 0
M  V30 1272 H 109.585 1.86385 7.56889 0
M  V30 1273 N 113.814 -1.1601 1.06675 0
M  V30 1274 C 114.724 -2.24156 0.692179 0
M  V30 1275 C 115.74 -1.71507 -0.293513 0
M  V30 1276 O 116.916 -2.009 -0.141861 0
M  V30 1277 C 113.981 -3.46587 0.0884131 0
M  V30 1278 C 113.042 -4.14257 1.12646 0
M  V30 1279 C 112.275 -5.30844 0.551416 0
M  V30 1280 O 112.498 -5.66858 -0.634656 0
M  V30 1281 O 111.432 -5.87848 1.29298 0
M  V30 1282 H 115.258 -2.58513 1.59388 0
M  V30 1283 H 112.843 -1.23599 0.83926 0
M  V30 1284 H 114.725 -4.20679 -0.246361 0
M  V30 1285 H 113.4 -3.13994 -0.786712 0
M  V30 1286 H 112.307 -3.42118 1.51348 0
M  V30 1287 H 113.64 -4.50914 1.97325 0
M  V30 1288 N 115.292 -0.849877 -1.32721 0
M  V30 1289 C 116.52 -0.464754 -2.01613 0
M  V30 1290 C 116.935 0.937191 -1.63897 0
M  V30 1291 O 116.292 1.61081 -0.857856 0
M  V30 1292 C 116.343 -0.588638 -3.56675 0
M  V30 1293 O 116.064 -1.93535 -3.93034 0
M  V30 1294 C 117.565 -0.2019 -4.4284 0
M  V30 1295 H 114.785 -0.183215 -0.645502 0
M  V30 1296 H 117.329 -1.1455 -1.69407 0
M  V30 1297 H 115.484 0.0443159 -3.87375 0
M  V30 1298 H 115.898 -1.92871 -4.87751 0
M  V30 1299 H 117.372 -0.339599 -5.50954 0
M  V30 1300 H 117.849 0.857224 -4.30753 0
M  V30 1301 H 118.455 -0.809733 -4.17521 0
M  V30 1302 N 116.77 1.45427 -0.607355 0
M  V30 1303 C 117.998 2.06614 -0.108814 0
M  V30 1304 C 118.413 1.45204 1.2067 0
M  V30 1305 O 117.77 0.566132 1.73497 0
M  V30 1306 C 117.821 3.61481 0.0375347 0
M  V30 1307 O 117.542 4.20598 -1.22593 0
M  V30 1308 C 119.043 4.39652 0.567561 0
M  V30 1309 H 116.263 0.66747 -0.0687351 0
M  V30 1310 H 118.807 1.86675 -0.835022 0
M  V30 1311 H 116.962 3.80762 0.714068 0
M  V30 1312 H 117.376 5.1377 -1.05547 0
M  V30 1313 H 118.85 5.48518 0.61905 0
M  V30 1314 H 119.327 4.09417 1.58978 0
M  V30 1315 H 119.933 4.25234 -0.0749202 0
M  V30 1316 N 118.248 0.346503 1.53744 0
M  V30 1317 C 119.158 -0.517293 2.28826 0
M  V30 1318 C 120.174 -1.10935 1.3405 0
M  V30 1319 O 121.35 -1.1244 1.6709 0
M  V30 1320 C 118.415 -1.65098 3.04866 0
M  V30 1321 C 117.476 -1.0884 4.15274 0
M  V30 1322 C 116.709 -2.16806 4.87679 0
M  V30 1323 O 116.932 -3.3758 4.59778 0
M  V30 1324 O 115.866 -1.80934 5.74061 0
M  V30 1325 H 119.692 0.0931396 3.03557 0
M  V30 1326 H 117.277 0.111458 1.48984 0
M  V30 1327 H 119.159 -2.31053 3.5241 0
M  V30 1328 H 117.834 -2.24717 2.32989 0
M  V30 1329 H 116.741 -0.3933 3.72027 0
M  V30 1330 H 118.074 -0.537036 4.89261 0
M  V30 1331 N 119.726 -1.57421 0.075193 0
M  V30 1332 C 120.636 -2.1642 -0.905511 0
M  V30 1333 C 121.652 -1.12828 -1.32461 0
M  V30 1334 O 122.828 -1.45109 -1.39661 0
M  V30 1335 C 119.893 -2.71693 -2.15369 0
M  V30 1336 C 118.954 -3.90171 -1.79068 0
M  V30 1337 C 118.187 -4.42798 -2.97936 0
M  V30 1338 O 118.41 -3.94416 -4.12058 0
M  V30 1339 O 117.344 -5.34085 -2.77555 0
M  V30 1340 H 121.17 -3.00588 -0.433626 0
M  V30 1341 H 118.755 -1.48664 -0.148067 0
M  V30 1342 H 120.637 -3.07104 -2.88557 0
M  V30 1343 H 119.312 -1.90582 -2.61649 0
M  V30 1344 H 118.219 -3.59606 -1.03122 0
M  V30 1345 H 119.552 -4.72584 -1.37569 0
M  V30 1346 N 121.204 0.198386 -1.56346 0
M  V30 1347 C 122.453 0.917451 -1.79627 0
M  V30 1348 C 122.766 1.8456 -0.64784 0
M  V30 1349 O 123.972 2.60504 -0.764859 0
M  V30 1350 C 122.428 1.68175 -3.18191 0
M  V30 1351 C 122.036 0.798589 -4.40825 0
M  V30 1352 C 123.78 2.39065 -3.50782 0
M  V30 1353 C 121.687 1.56157 -5.70411 0
M  V30 1354 H 120.617 0.346317 -0.669762 0
M  V30 1355 H 123.268 0.170801 -1.82703 0
M  V30 1356 H 121.65 2.47216 -3.09354 0
M  V30 1357 H 122.824 0.0470665 -4.60776 0
M  V30 1358 H 121.139 0.200686 -4.15916 0
M  V30 1359 H 123.736 2.96692 -4.44835 0
M  V30 1360 H 124.079 3.13091 -2.74371 0
M  V30 1361 H 124.612 1.66993 -3.61052 0
M  V30 1362 H 121.351 0.864142 -6.49779 0
M  V30 1363 H 120.871 2.2871 -5.54483 0
M  V30 1364 H 122.55 2.11622 -6.11412 0
M  V30 1365 N 122.682 1.50554 0.465978 0
M  V30 1366 C 124.098 1.38093 0.800154 0
M  V30 1367 C 124.298 0.440988 1.96615 0
M  V30 1368 O 123.354 -0.114499 2.5224 0
M  V30 1369 C 124.667 2.79565 1.10742 0
M  V30 1370 C 126.215 2.88516 1.21357 0
M  V30 1371 C 126.69 4.30833 1.55393 0
M  V30 1372 N 128.181 4.33807 1.62375 0
M  V30 1373 C 128.916 5.40927 1.90225 0
M  V30 1374 N 128.412 6.58247 2.16062 0
M  V30 1375 N 130.205 5.28376 1.9177 0
M  V30 1376 H 122.356 2.10237 -0.302366 0
M  V30 1377 H 124.619 0.945203 -0.0727746 0
M  V30 1378 H 124.325 3.50208 0.323661 0
M  V30 1379 H 124.199 3.17125 2.04234 0
M  V30 1380 H 126.586 2.1809 1.98799 0
M  V30 1381 H 126.667 2.54492 0.258321 0
M  V30 1382 H 126.311 5.01799 0.784889 0
M  V30 1383 H 126.241 4.62347 2.52076 0
M  V30 1384 H 128.732 3.49212 1.44427 0
M  V30 1385 H 129.045 7.3569 2.36601 0
M  V30 1386 H 127.39 6.61413 2.13444 0
M  V30 1387 H 130.581 4.35715 1.71085 0
M  V30 1388 H 130.754 6.11944 2.13139 0
M  V30 1389 N 124.16 -0.719506 1.40217 0
M  V30 1390 C 125.092 -1.84428 1.36084 0
M  V30 1391 C 126.105 -1.60597 0.266913 0
M  V30 1392 O 127.294 -1.70544 0.526983 0
M  V30 1393 C 124.394 -3.20757 1.094 0
M  V30 1394 C 123.567 -3.71817 2.30372 0
M  V30 1395 C 122.626 -4.86748 1.99907 0
M  V30 1396 O 121.652 -4.99603 2.72737 0
M  V30 1397 N 122.854 -5.7226 0.974635 0
M  V30 1398 H 125.619 -1.88473 2.33019 0
M  V30 1399 H 123.18 -0.900885 1.3452 0
M  V30 1400 H 125.172 -3.95235 0.870116 0
M  V30 1401 H 123.742 -3.11884 0.211452 0
M  V30 1402 H 122.962 -2.88514 2.68614 0
M  V30 1403 H 124.25 -4.02666 3.11026 0
M  V30 1404 H 123.648 -5.6448 0.371368 0
M  V30 1405 H 122.205 -6.46739 0.810656 0
M  V30 1406 N 125.638 -1.25649 -0.95132 0
M  V30 1407 C 126.571 -1.00644 -2.04807 0
M  V30 1408 C 127.549 0.0654271 -1.62468 0
M  V30 1409 O 128.733 -0.074911 -1.88351 0
M  V30 1410 C 125.86 -0.522052 -3.34653 0
M  V30 1411 C 124.906 -1.58495 -3.95957 0
M  V30 1412 S 125.739 -3.17108 -4.31512 0
M  V30 1413 C 126.895 -2.70412 -5.64471 0
M  V30 1414 H 127.128 -1.93508 -2.25703 0
M  V30 1415 H 124.661 -1.09216 -1.09139 0
M  V30 1416 H 126.619 -0.24923 -4.09743 0
M  V30 1417 H 125.28 0.386146 -3.11717 0
M  V30 1418 H 124.473 -1.1968 -4.89584 0
M  V30 1419 H 124.075 -1.80862 -3.2736 0
M  V30 1420 H 126.367 -2.14245 -6.42733 0
M  V30 1421 H 127.31 -3.62693 -6.08161 0
M  V30 1422 H 127.718 -2.10302 -5.23864 0
M  V30 1423 N 127.117 1.15442 -1.07289 0
M  V30 1424 C 128.365 1.85845 -0.794096 0
M  V30 1425 C 128.686 1.82692 0.681809 0
M  V30 1426 O 127.956 1.26741 1.49377 0
M  V30 1427 H 126.536 0.688089 -0.290763 0
M  V30 1428 H 129.198 1.39947 -1.3565 0
M  V30 1429 H 128.294 2.91001 -1.12804 0
M  V30 1430 N 128.595 0.856903 1.32268 0
M  V30 1431 C 129.823 0.475439 2.01363 0
M  V30 1432 C 130.238 -0.928486 1.64392 0
M  V30 1433 O 129.595 -1.60624 0.866387 0
M  V30 1434 C 129.646 0.607545 3.56358 0
M  V30 1435 O 129.367 1.95617 3.92002 0
M  V30 1436 C 130.868 0.225382 4.42727 0
M  V30 1437 H 128.088 0.186636 0.644521 0
M  V30 1438 H 130.632 1.15446 1.68797 0
M  V30 1439 H 128.787 -0.0237719 3.87393 0
M  V30 1440 H 129.201 1.95455 4.86721 0
M  V30 1441 H 130.675 0.368813 5.50767 0
M  V30 1442 H 131.152 -0.834369 4.31202 0
M  V30 1443 H 131.758 0.831864 4.17085 0
M  V30 1444 N 130.073 -1.45103 0.615059 0
M  V30 1445 C 130.983 -2.34382 -0.101034 0
M  V30 1446 C 131.999 -1.51681 -0.852585 0
M  V30 1447 O 133.175 -1.8446 -0.808484 0
M  V30 1448 C 130.24 -3.29417 -1.08099 0
M  V30 1449 C 129.301 -4.28025 -0.330577 0
M  V30 1450 C 128.534 -5.1852 -1.26385 0
M  V30 1451 O 128.757 -5.12598 -2.50198 0
M  V30 1452 O 127.691 -5.97122 -0.756866 0
M  V30 1453 H 131.517 -2.97033 0.632855 0
M  V30 1454 H 129.102 -1.4461 0.375293 0
M  V30 1455 H 130.984 -3.87958 -1.6452 0
M  V30 1456 H 129.659 -2.69321 -1.79577 0
M  V30 1457 H 128.566 -3.73078 0.276283 0
M  V30 1458 H 129.899 -4.90997 0.343866 0
M  V30 1459 N 131.551 -0.354651 -1.53558 0
M  V30 1460 C 132.791 0.238651 -2.03002 0
M  V30 1461 C 133.155 1.46878 -1.23656 0
M  V30 1462 O 134.356 2.13699 -1.63053 0
M  V30 1463 C 132.627 0.534175 -3.53386 0
M  V30 1464 S 134.186 1.10271 -4.24719 0
M  V30 1465 H 131.004 0.0702908 -0.707517 0
M  V30 1466 H 133.606 -0.494987 -1.8913 0
M  V30 1467 H 132.31 -0.368765 -4.0874 0
M  V30 1468 H 131.841 1.29718 -3.71398 0
M  V30 1469 H 133.856 2.38772 -4.34974 0
M  V30 1470 N 133.029 1.57378 -0.0835403 0
M  V30 1471 C 133.979 2.09916 0.889905 0
M  V30 1472 C 134.963 1.01151 1.25129 0
M  V30 1473 O 136.155 1.27443 1.2283 0
M  V30 1474 C 133.284 2.67379 2.15322 0
M  V30 1475 C 132.37 3.83167 1.81779 0
M  V30 1476 N 132.761 4.91665 1.18739 0
M  V30 1477 C 131.059 3.92685 2.11459 0
M  V30 1478 C 131.76 5.72409 1.0355 0
M  V30 1479 N 130.736 5.21062 1.54906 0
M  V30 1480 H 134.538 2.91188 0.398378 0
M  V30 1481 H 132.052 1.61956 0.120013 0
M  V30 1482 H 134.049 3.0334 2.8599 0
M  V30 1483 H 132.709 1.87558 2.65051 0
M  V30 1484 H 133.72 5.10784 0.855604 0
M  V30 1485 H 130.397 3.23856 2.63483 0
M  V30 1486 H 131.787 6.69699 0.543425 0
M  V30 1487 N 134.507 -0.190092 1.56449 0
M  V30 1488 C 135.737 -0.92443 1.84764 0
M  V30 1489 C 136.145 -1.77146 0.664529 0
M  V30 1490 O 135.488 -1.79812 -0.375957 0
M  V30 1491 C 135.55 -1.86651 3.07248 0
M  V30 1492 C 135.214 -1.20094 4.40938 0
M  V30 1493 C 136.211 -0.575445 5.16706 0
M  V30 1494 C 133.896 -1.2033 4.87674 0
M  V30 1495 C 135.89 0.0388111 6.37388 0
M  V30 1496 C 133.577 -0.585214 6.08291 0
M  V30 1497 C 134.575 0.0347578 6.82991 0
M  V30 1498 O 134.263 0.643147 8.01323 0
M  V30 1499 H 133.995 -0.274974 0.617548 0
M  V30 1500 H 136.549 -0.200788 2.04416 0
M  V30 1501 H 134.779 -2.62998 2.83494 0
M  V30 1502 H 136.468 -2.46907 3.22167 0
M  V30 1503 H 137.234 -0.565728 4.81689 0
M  V30 1504 H 133.113 -1.67526 4.29484 0
M  V30 1505 H 136.657 0.523329 6.95634 0
M  V30 1506 H 132.554 -0.592451 6.42775 0
M  V30 1507 H 133.322 0.540545 8.16713 0
M  V30 1508 N 135.985 -1.50799 -0.457987 0
M  V30 1509 C 137.232 -1.62442 -1.20908 0
M  V30 1510 C 137.56 -0.330865 -1.91665 0
M  V30 1511 O 136.815 0.68401 -1.83357 0
M  V30 1512 C 137.114 -2.76358 -2.2663 0
M  V30 1513 C 136.78 -4.16378 -1.73033 0
M  V30 1514 C 135.442 -4.54473 -1.58138 0
M  V30 1515 C 137.794 -5.03836 -1.33413 0
M  V30 1516 C 135.122 -5.77754 -1.02065 0
M  V30 1517 C 137.474 -6.27676 -0.78778 0
M  V30 1518 C 136.138 -6.64562 -0.625561 0
M  V30 1519 H 135.408 -0.594417 -0.442435 0
M  V30 1520 H 138.055 -1.84772 -0.503136 0
M  V30 1521 H 136.36 -2.48167 -3.03184 0
M  V30 1522 H 138.057 -2.82568 -2.84528 0
M  V30 1523 H 134.647 -3.86331 -1.85598 0
M  V30 1524 H 138.831 -4.75026 -1.4375 0
M  V30 1525 H 134.087 -6.04997 -0.882547 0
M  V30 1526 H 138.261 -6.94797 -0.472177 0
M  V30 1527 H 135.888 -7.59965 -0.188926 0
M  V30 1528 N 137.463 0.71206 -1.40597 0
M  V30 1529 C 138.712 1.46754 -1.38369 0
M  V30 1530 C 139.025 1.95598 0.0097839 0
M  V30 1531 O 140.231 2.71059 0.154677 0
M  V30 1532 C 138.687 2.65289 -2.43207 0
M  V30 1533 C 138.295 2.23301 -3.88382 0
M  V30 1534 C 140.039 3.43008 -2.50091 0
M  V30 1535 C 137.946 3.38696 -4.84808 0
M  V30 1536 H 136.876 0.55118 -0.514506 0
M  V30 1537 H 139.527 0.774616 -1.66349 0
M  V30 1538 H 137.909 3.36769 -2.08332 0
M  V30 1539 H 139.083 1.59218 -4.32419 0
M  V30 1540 H 137.398 1.58618 -3.85006 0
M  V30 1541 H 139.995 4.28881 -3.1932 0
M  V30 1542 H 140.338 3.87065 -1.53253 0
M  V30 1543 H 140.871 2.78574 -2.83974 0
M  V30 1544 H 137.61 2.99668 -5.82992 0
M  V30 1545 H 137.13 4.01683 -4.45433 0
M  V30 1546 H 138.809 4.04712 -5.04794 0
M  V30 1547 N 138.941 1.26152 0.944643 0
M  V30 1548 C 140.181 1.12708 1.70517 0
M  V30 1549 C 140.545 -0.324727 1.89234 0
M  V30 1550 O 141.746 -0.581211 2.62441 0
M  V30 1551 C 140.017 1.8713 3.04495 0
M  V30 1552 S 141.576 1.89698 3.95677 0
M  V30 1553 H 138.394 0.402665 0.585988 0
M  V30 1554 H 140.996 1.59821 1.12594 0
M  V30 1555 H 139.7 2.91833 2.88551 0
M  V30 1556 H 139.231 1.40444 3.67477 0
M  V30 1557 H 141.246 0.981198 4.86402 0
M  V30 1558 N 140.419 -1.14872 1.07899 0
M  V30 1559 C 141.696 -1.81928 0.71845 0
M  V30 1560 C 142.076 -1.95417 -0.798455 0
M  V30 1561 O 141.424 -1.50997 -1.715 0
M  V30 1562 C 141.634 -3.17937 1.43935 0
M  V30 1563 C 142.982 -3.93501 1.59506 0
M  V30 1564 O 144.006 -3.27509 1.40058 0
M  V30 1565 O 142.865 -5.1183 1.91551 0
M  V30 1566 H 139.959 -0.78628 0.256305 0
M  V30 1567 H 142.505 -1.21934 1.18026 0
M  V30 1568 H 141.277 -3.0325 2.47295 0
M  V30 1569 H 140.9 -3.85619 0.968687 0
M  V30 1570 N 141.898 -0.863906 -1.31812 0
M  V30 1571 C 143.144 -0.472535 -1.97218 0
M  V30 1572 C 143.477 0.971394 -1.68159 0
M  V30 1573 O 142.752 1.68309 -0.974798 0
M  V30 1574 C 143.035 -0.723054 -3.52766 0
M  V30 1575 C 142.888 -2.21608 -3.91421 0
M  V30 1576 C 144.207 -0.185522 -4.39709 0
M  V30 1577 H 141.326 -0.173158 -0.71637 0
M  V30 1578 H 143.968 -1.08403 -1.56041 0
M  V30 1579 H 142.118 -0.202577 -3.87971 0
M  V30 1580 H 143.79 -2.80334 -3.66347 0
M  V30 1581 H 142.033 -2.691 -3.40246 0
M  V30 1582 H 142.704 -2.34203 -4.99853 0
M  V30 1583 H 145.18 -0.630726 -4.11292 0
M  V30 1584 H 144.056 -0.390306 -5.47511 0
M  V30 1585 H 144.317 0.912229 -4.32586 0
M  V30 1586 N 143.376 1.44774 -0.622745 0
M  V30 1587 C 144.624 2.01721 -0.123655 0
M  V30 1588 C 144.945 1.49172 1.25589 0
M  V30 1589 O 144.215 0.691974 1.83272 0
M  V30 1590 H 142.795 0.745777 -0.0427225 0
M  V30 1591 H 145.457 1.77382 -0.807559 0
M  V30 1592 H 144.553 3.11984 -0.0849534 0
M  V30 1593 N 144.854 0.36279 1.53368 0
M  V30 1594 C 145.802 -0.500155 2.27159 0
M  V30 1595 C 146.796 -1.08575 1.3003 0
M  V30 1596 O 148.002 -1.02927 1.47668 0
M  V30 1597 H 144.377 -0.180009 0.730138 0
M  V30 1598 H 146.348 0.14401 2.98052 0
M  V30 1599 C 145.097 -1.62937 3.07159 0
M  V30 1600 H 144.42 -1.18806 3.8174 0
M  V30 1601 H 145.86 -2.20795 3.61975 0
M  V30 1602 C 144.319 -2.57007 2.17829 0
M  V30 1603 O 144.849 -3.59752 1.78721 0
M  V30 1604 N 143.055 -2.26131 1.82518 0
M  V30 1605 H 142.602 -1.42616 2.14519 0
M  V30 1606 H 142.56 -2.89327 1.23034 0
M  V30 1607 N 146.332 -1.57332 0.0918853 0
M  V30 1608 C 147.748 -1.57389 -0.264766 0
M  V30 1609 C 147.948 -1.10281 -1.68643 0
M  V30 1610 O 147.004 -0.777801 -2.40222 0
M  V30 1611 C 148.317 -3.00648 -0.0561195 0
M  V30 1612 C 149.865 -3.12754 -0.124116 0
M  V30 1613 C 150.34 -4.57965 0.0564972 0
M  V30 1614 N 151.831 -4.632 0.00155611 0
M  V30 1615 C 152.566 -5.73281 0.116598 0
M  V30 1616 N 152.062 -6.92208 0.286294 0
M  V30 1617 N 153.855 -5.6207 0.0580973 0
M  V30 1618 H 146.006 -1.86262 1.02079 0
M  V30 1619 H 148.269 -0.859579 0.399786 0
M  V30 1620 H 147.975 -3.393 0.925669 0
M  V30 1621 H 147.849 -3.68623 -0.799823 0
M  V30 1622 H 150.236 -2.73976 -1.09641 0
M  V30 1623 H 150.317 -2.47377 0.651024 0
M  V30 1624 H 149.961 -4.97436 1.02564 0
M  V30 1625 H 149.891 -5.21399 -0.738297 0
M  V30 1626 H 152.382 -3.77686 -0.127192 0
M  V30 1627 H 152.695 -7.71934 0.365676 0
M  V30 1628 H 151.04 -6.94254 0.32192 0
M  V30 1629 H 154.231 -4.68043 -0.0733204 0
M  V30 1630 H 154.404 -6.47824 0.151203 0
M  V30 1631 N 147.81 0.181792 -1.56548 0
M  V30 1632 C 148.72 1.24538 -1.98815 0
M  V30 1633 C 149.736 1.49045 -0.897861 0
M  V30 1634 O 150.912 1.61399 -1.20467 0
M  V30 1635 C 147.977 2.56683 -2.33055 0
M  V30 1636 C 147.038 2.40131 -3.55859 0
M  V30 1637 C 146.271 3.65975 -3.88456 0
M  V30 1638 O 146.494 4.70711 -3.22161 0
M  V30 1639 O 145.428 3.6071 -4.81842 0
M  V30 1640 H 149.254 0.916647 -2.89536 0
M  V30 1641 H 146.839 0.387842 -1.44278 0
M  V30 1642 H 148.721 3.34655 -2.56094 0
M  V30 1643 H 147.396 2.89157 -1.45498 0
M  V30 1644 H 146.303 1.60226 -3.38051 0
M  V30 1645 H 147.636 2.12585 -4.43924 0
M  V30 1646 N 149.288 1.51039 0.449983 0
M  V30 1647 C 150.198 1.74261 1.57067 0
M  V30 1648 C 151.214 0.626363 1.62335 0
M  V30 1649 O 152.39 0.907162 1.79812 0
M  V30 1650 C 149.455 1.85114 2.93144 0
M  V30 1651 C 148.516 3.0893 2.98095 0
M  V30 1652 C 147.749 3.19256 4.27681 0
M  V30 1653 O 147.972 2.35835 5.19363 0
M  V30 1654 O 146.906 4.12144 4.38658 0
M  V30 1655 H 150.732 2.69303 1.40391 0
M  V30 1656 H 148.317 1.35389 0.631688 0
M  V30 1657 H 150.199 1.94311 3.73926 0
M  V30 1658 H 148.874 0.932588 3.09975 0
M  V30 1659 H 147.781 3.0522 2.16314 0
M  V30 1660 H 149.114 4.00433 2.86206 0
M  V30 1661 N 150.766 -0.704594 1.40972 0
M  V30 1662 C 152.012 -1.46675 1.40051 0
M  V30 1663 C 152.345 -1.94199 0.00641102 0
M  V30 1664 O 151.62 -1.68916 -0.964235 0
M  V30 1665 C 151.903 -2.68505 2.39952 0
M  V30 1666 C 151.756 -2.26805 3.88432 0
M  V30 1667 C 153.075 -3.70686 2.37233 0
M  V30 1668 H 150.194 -0.532015 0.510028 0
M  V30 1669 H 152.836 -0.803255 1.72185 0
M  V30 1670 H 150.986 -3.25114 2.1268 0
M  V30 1671 H 152.658 -1.75592 4.26574 0
M  V30 1672 H 150.901 -1.58685 4.03734 0
M  V30 1673 H 151.572 -3.14181 4.53866 0
M  V30 1674 H 154.048 -3.23731 2.61415 0
M  V30 1675 H 152.924 -4.53553 3.09162 0
M  V30 1676 H 153.185 -4.19754 1.38777 0
M  V30 1677 N 152.244 -1.26651 -0.937939 0
M  V30 1678 C 153.474 -1.15006 -1.71631 0
M  V30 1679 C 153.882 0.297026 -1.86854 0
M  V30 1680 O 153.225 1.21493 -1.37786 0
M  V30 1681 C 153.287 -1.74984 -3.14039 0
M  V30 1682 C 152.951 -3.24103 -3.2219 0
M  V30 1683 C 153.948 -4.20877 -3.05219 0
M  V30 1684 C 151.633 -3.64625 -3.45476 0
M  V30 1685 C 153.627 -5.56151 -3.11408 0
M  V30 1686 C 151.314 -5.00032 -3.513 0
M  V30 1687 C 152.312 -5.95604 -3.34282 0
M  V30 1688 O 152 -7.28545 -3.3982 0
M  V30 1689 H 151.732 -0.401183 -0.544085 0
M  V30 1690 H 154.286 -1.67832 -1.18413 0
M  V30 1691 H 152.516 -1.16624 -3.68695 0
M  V30 1692 H 154.205 -1.58199 -3.73802 0
M  V30 1693 H 154.971 -3.90908 -2.87081 0
M  V30 1694 H 150.85 -2.90718 -3.57777 0
M  V30 1695 H 154.394 -6.30727 -2.98043 0
M  V30 1696 H 150.291 -5.29659 -3.68959 0
M  V30 1697 H 151.059 -7.3686 -3.56343 0
M  V30 1698 N 153.722 1.14298 -1.08507 0
M  V30 1699 C 154.654 2.1907 -0.673859 0
M  V30 1700 C 155.667 1.60381 0.279577 0
M  V30 1701 O 156.856 1.78374 0.0670754 0
M  V30 1702 C 153.956 3.38888 0.0290979 0
M  V30 1703 C 153.129 4.27103 -0.943494 0
M  V30 1704 C 152.188 5.25477 -0.275676 0
M  V30 1705 O 151.214 5.61709 -0.920401 0
M  V30 1706 N 152.416 5.7227 0.974013 0
M  V30 1707 H 155.181 2.54965 -1.57521 0
M  V30 1708 H 152.742 1.29528 -0.971287 0
M  V30 1709 H 154.734 4.01761 0.48683 0
M  V30 1710 H 153.304 3.01309 0.832555 0
M  V30 1711 H 152.524 3.61149 -1.58004 0
M  V30 1712 H 153.812 4.82905 -1.60251 0
M  V30 1713 H 153.21 5.44965 1.51755 0
M  V30 1714 H 151.767 6.37127 1.37522 0
M  V30 1715 N 155.201 0.870884 1.31352 0
M  V30 1716 C 156.429 0.49677 2.00848 0
M  V30 1717 C 156.844 -0.910998 1.65367 0
M  V30 1718 O 156.201 -1.59696 0.883374 0
M  V30 1719 C 156.252 0.645308 3.55694 0
M  V30 1720 O 155.973 1.99764 3.89905 0
M  V30 1721 C 157.474 0.272326 4.42463 0
M  V30 1722 H 154.694 0.193462 0.642506 0
M  V30 1723 H 157.238 1.1723 1.67563 0
M  V30 1724 H 155.393 0.0173176 3.87396 0
M  V30 1725 H 155.807 2.00607 4.84621 0
M  V30 1726 H 157.281 0.427208 5.50344 0
M  V30 1727 H 157.758 -0.788587 4.32062 0
M  V30 1728 H 158.364 0.876054 4.1618 0
M  V30 1729 N 156.679 -1.44442 0.630414 0
M  V30 1730 C 157.642 -2.29107 -0.0652523 0
M  V30 1731 C 158.642 -1.41002 -0.772995 0
M  V30 1732 O 159.832 -1.62881 -0.617692 0
M  V30 1733 C 156.964 -3.22564 -1.10296 0
M  V30 1734 H 158.157 -2.92103 0.679401 0
M  V30 1735 H 155.71 -1.51343 0.390517 0
M  V30 1736 H 156.445 -2.64416 -1.87762 0
M  V30 1737 H 156.23 -3.87491 -0.59941 0
M  V30 1738 H 157.72 -3.86167 -1.5895 0
M  V30 1739 N 158.157 -0.370918 -1.53173 0
M  V30 1740 C 159.104 0.473035 -2.259 0
M  V30 1741 C 160.074 1.07311 -1.26781 0
M  V30 1742 O 161.259 1.1046 -1.55574 0
M  V30 1743 C 158.399 1.60405 -3.05556 0
M  V30 1744 C 157.512 1.02863 -4.19575 0
M  V30 1745 C 156.647 2.12918 -4.86661 0
M  V30 1746 C 155.686 1.52869 -5.92704 0
M  V30 1747 N 154.823 2.56779 -6.53459 0
M  V30 1748 H 159.663 -0.153649 -2.97604 0
M  V30 1749 H 157.2 -0.0875946 -1.46839 0
M  V30 1750 H 159.158 2.27034 -3.50016 0
M  V30 1751 H 157.788 2.20131 -2.36097 0
M  V30 1752 H 156.84 0.252465 -3.79561 0
M  V30 1753 H 158.152 0.549642 -4.95762 0
M  V30 1754 H 157.306 2.87356 -5.34333 0
M  V30 1755 H 156.045 2.6417 -4.09958 0
M  V30 1756 H 155.05 0.769479 -5.44389 0
M  V30 1757 H 156.275 1.02435 -6.7133 0
M  V30 1758 H 154.221 3.07235 -5.79606 0
M  V30 1759 H 154.138 2.13583 -7.25202 0
M  V30 1760 H 155.406 3.30903 -7.05779 0
M  V30 1761 N 159.635 1.57281 -0.100228 0
M  V30 1762 C 160.598 2.13158 0.842398 0
M  V30 1763 C 161.598 1.06202 1.20738 0
M  V30 1764 O 162.788 1.32066 1.13597 0
M  V30 1765 C 159.92 2.65639 2.13655 0
M  V30 1766 H 161.113 2.97766 0.357114 0
M  V30 1767 H 158.666 1.5559 0.148823 0
M  V30 1768 H 159.401 1.84566 2.66657 0
M  V30 1769 H 159.186 3.43844 1.88451 0
M  V30 1770 H 160.676 3.08846 2.81077 0
M  V30 1771 N 161.113 -0.173488 1.56642 0
M  V30 1772 C 162.359 -0.891784 1.8214 0
M  V30 1773 C 162.692 -1.8199 0.677736 0
M  V30 1774 O 161.967 -1.91842 -0.320446 0
M  V30 1775 C 162.25 -1.68933 3.18015 0
M  V30 1776 C 162.103 -0.784487 4.42906 0
M  V30 1777 C 163.422 -2.65748 3.50808 0
M  V30 1778 H 160.541 -0.322761 0.662567 0
M  V30 1779 H 163.183 -0.158095 1.89341 0
M  V30 1780 H 161.333 -2.31482 3.12007 0
M  V30 1781 H 163.005 -0.172046 4.60979 0
M  V30 1782 H 161.248 -0.0924117 4.33702 0
M  V30 1783 H 161.919 -1.37799 5.34524 0
M  V30 1784 H 164.395 -2.13327 3.57255 0
M  V30 1785 H 163.271 -3.18619 4.4696 0
M  V30 1786 H 163.532 -3.45842 2.75401 0
M  V30 1787 N 162.591 -1.51276 -0.441967 0
M  V30 1788 C 164.007 -1.39349 -0.778083 0
M  V30 1789 C 164.207 -0.472212 -1.95889 0
M  V30 1790 O 163.263 0.0743551 -2.5239 0
M  V30 1791 C 164.576 -2.81292 -1.0628 0
M  V30 1792 C 166.124 -2.9041 -1.16751 0
M  V30 1793 C 166.599 -4.33251 -1.48519 0
M  V30 1794 N 168.09 -4.36336 -1.55453 0
M  V30 1795 C 168.825 -5.43885 -1.81596 0
M  V30 1796 N 168.321 -6.61601 -2.05562 0
M  V30 1797 N 170.114 -5.3136 -1.8334 0
M  V30 1798 H 162.265 -2.09729 0.335774 0
M  V30 1799 H 164.528 -0.943925 0.0878028 0
M  V30 1800 H 164.234 -3.50678 -0.267905 0
M  V30 1801 H 164.108 -3.20334 -1.99163 0
M  V30 1802 H 166.495 -2.21225 -1.95304 0
M  V30 1803 H 166.576 -2.54871 -0.217801 0
M  V30 1804 H 166.22 -5.02984 -0.704958 0
M  V30 1805 H 166.15 -4.66299 -2.44689 0
M  V30 1806 H 168.641 -3.51466 -1.38853 0
M  V30 1807 H 168.954 -7.39361 -2.24867 0
M  V30 1808 H 167.299 -6.64725 -2.02894 0
M  V30 1809 H 170.49 -4.38382 -1.64132 0
M  V30 1810 H 170.663 -6.15258 -2.03377 0
M  V30 1811 N 164.069 0.697108 -1.41344 0
M  V30 1812 C 164.979 1.84088 -1.45427 0
M  V30 1813 C 165.995 1.70545 -0.34501 0
M  V30 1814 O 167.171 1.92488 -0.592492 0
M  V30 1815 C 164.236 3.20056 -1.33286 0
M  V30 1816 C 163.297 3.45718 -2.54514 0
M  V30 1817 C 162.53 4.75199 -2.42944 0
M  V30 1818 O 162.753 5.51579 -1.45318 0
M  V30 1819 O 161.687 5.0161 -3.32672 0
M  V30 1820 H 165.513 1.836 -2.41919 0
M  V30 1821 H 163.098 0.849966 -1.22866 0
M  V30 1822 H 164.98 4.01236 -1.28794 0
M  V30 1823 H 163.655 3.2123 -0.39909 0
M  V30 1824 H 162.562 2.64474 -2.64583 0
M  V30 1825 H 163.895 3.49356 -3.46715 0
M  V30 1826 N 165.547 1.27147 0.931209 0
M  V30 1827 C 166.494 1.09568 2.03134 0
M  V30 1828 C 167.464 -0.00222433 1.661 0
M  V30 1829 O 168.649 0.159439 1.90133 0
M  V30 1830 C 165.789 0.745231 3.36957 0
M  V30 1831 C 164.902 1.92041 3.86968 0
M  V30 1832 C 164.037 1.51216 5.09222 0
M  V30 1833 C 163.076 2.65504 5.5152 0
M  V30 1834 N 162.213 2.25291 6.64972 0
M  V30 1835 H 167.053 2.03708 2.17502 0
M  V30 1836 H 164.59 1.01411 1.06556 0
M  V30 1837 H 166.548 0.522878 4.1391 0
M  V30 1838 H 165.178 -0.159202 3.22407 0
M  V30 1839 H 164.23 2.25541 3.06326 0
M  V30 1840 H 165.542 2.77787 4.1429 0
M  V30 1841 H 164.696 1.25084 5.93666 0
M  V30 1842 H 163.435 0.625749 4.83669 0
M  V30 1843 H 162.44 2.92354 4.65628 0
M  V30 1844 H 163.665 3.54761 5.7907 0
M  V30 1845 H 161.611 1.39098 6.41083 0
M  V30 1846 H 161.528 3.04577 6.91931 0
M  V30 1847 H 162.796 2.02398 7.52765 0
M  V30 1848 N 167.025 -1.13721 1.09112 0
M  V30 1849 C 168.271 -1.85198 0.826414 0
M  V30 1850 C 168.604 -1.83129 -0.646319 0
M  V30 1851 O 167.879 -1.2671 -1.47563 0
M  V30 1852 C 168.162 -3.33507 1.35812 0
M  V30 1853 C 168.015 -3.44108 2.89672 0
M  V30 1854 C 169.334 -4.28838 0.989256 0
M  V30 1855 H 166.453 -0.67243 0.301675 0
M  V30 1856 H 169.095 -1.33499 1.35197 0
M  V30 1857 H 167.245 -3.77666 0.911082 0
M  V30 1858 H 168.917 -3.08684 3.428 0
M  V30 1859 H 167.16 -2.85087 3.26967 0
M  V30 1860 H 167.831 -4.48388 3.21951 0
M  V30 1861 H 170.307 -3.92734 1.37475 0
M  V30 1862 H 169.183 -5.31051 1.38838 0
M  V30 1863 H 169.444 -4.4198 -0.102924 0
M  V30 1864 N 168.503 -0.877838 -1.30888 0
M  V30 1865 C 169.751 -0.491723 -1.96027 0
M  V30 1866 C 170.072 0.960827 -1.69685 0
M  V30 1867 O 169.342 1.67462 -1.01654 0
M  V30 1868 H 167.922 -0.17885 -0.725273 0
M  V30 1869 H 170.584 -1.11935 -1.59551 0
M  V30 1870 H 169.68 -0.656016 -3.05128 0
M  V30 1871 N 169.982 1.44106 -0.638065 0
M  V30 1872 C 171.259 1.95453 -0.0759321 0
M  V30 1873 C 171.639 1.57984 1.40015 0
M  V30 1874 O 170.987 0.857361 2.11806 0
M  V30 1875 C 171.197 3.47655 -0.306132 0
M  V30 1876 C 172.545 4.24114 -0.203008 0
M  V30 1877 O 173.569 3.55405 -0.237871 0
M  V30 1878 O 172.428 5.46381 -0.113827 0
M  V30 1879 H 169.522 0.826797 0.0183332 0
M  V30 1880 H 172.068 1.54122 -0.710251 0
M  V30 1881 H 170.84 3.68 -1.3301 0
M  V30 1882 H 170.463 3.95949 0.361991 0
M  V30 1883 N 171.46 0.379036 1.52974 0
M  V30 1884 C 172.709 -0.207612 2.00629 0
M  V30 1885 C 173.022 -1.48758 1.27006 0
M  V30 1886 O 174.228 -2.15365 1.65318 0
M  V30 1887 C 172.684 -0.42053 3.57435 0
M  V30 1888 C 172.292 0.845587 4.39948 0
M  V30 1889 C 174.036 -0.964102 4.13407 0
M  V30 1890 C 171.943 0.601513 5.88333 0
M  V30 1891 H 170.873 -0.0813591 0.749598 0
M  V30 1892 H 173.524 0.499853 1.76561 0
M  V30 1893 H 171.906 -1.18959 3.7771 0
M  V30 1894 H 173.08 1.61848 4.31442 0
M  V30 1895 H 171.395 1.31336 3.95145 0
M  V30 1896 H 173.992 -1.16225 5.21916 0
M  V30 1897 H 174.335 -1.93019 3.68849 0
M  V30 1898 H 174.868 -0.25487 3.96983 0
M  V30 1899 H 171.607 1.53831 6.37194 0
M  V30 1900 H 171.127 -0.132628 5.99653 0
M  V30 1901 H 172.806 0.232134 6.46583 0
M  V30 1902 N 172.938 -1.57226 0.108567 0
M  V30 1903 C 174.166 -1.99179 -0.559954 0
M  V30 1904 C 174.581 -0.988022 -1.60884 0
M  V30 1905 O 173.938 0.0205512 -1.82488 0
M  V30 1906 C 173.989 -3.41159 -1.19552 0
M  V30 1907 O 173.71 -4.37694 -0.188577 0
M  V30 1908 C 175.211 -3.98188 -1.94837 0
M  V30 1909 H 172.431 -0.654228 -0.149088 0
M  V30 1910 H 174.975 -2.03598 0.19183 0
M  V30 1911 H 173.13 -3.37711 -1.89815 0
M  V30 1912 H 173.544 -5.20469 -0.649014 0
M  V30 1913 H 175.018 -4.99644 -2.34648 0
M  V30 1914 H 175.495 -3.3675 -2.81951 0
M  V30 1915 H 176.101 -4.0515 -1.2936 0
M  V30 1916 N 174.416 0.165178 -1.56732 0
M  V30 1917 C 175.665 0.879143 -1.81532 0
M  V30 1918 C 175.978 1.83144 -0.686842 0
M  V30 1919 O 177.184 2.58823 -0.819944 0
M  V30 1920 C 175.64 1.61388 -3.21686 0
M  V30 1921 C 175.248 0.704904 -4.4242 0
M  V30 1922 C 176.992 2.3157 -3.55774 0
M  V30 1923 C 174.899 1.44022 -5.73595 0
M  V30 1924 H 173.829 0.332033 -0.676957 0
M  V30 1925 H 176.48 0.132008 -1.83025 0
M  V30 1926 H 174.862 2.40599 -3.14529 0
M  V30 1927 H 176.036 -0.0506815 -4.60772 0
M  V30 1928 H 174.351 0.112419 -4.16248 0
M  V30 1929 H 176.948 2.8719 -4.51028 0
M  V30 1930 H 177.291 3.07201 -2.8095 0
M  V30 1931 H 177.824 1.59297 -3.64513 0
M  V30 1932 H 174.563 0.72612 -6.51466 0
M  V30 1933 H 174.083 2.16898 -5.5921 0
M  V30 1934 H 175.762 1.98606 -6.15764 0
M  V30 1935 N 175.894 1.51508 0.433938 0
M  V30 1936 C 176.824 1.76016 1.53429 0
M  V30 1937 C 177.805 0.610112 1.58782 0
M  V30 1938 O 178.99 0.853177 1.74455 0
M  V30 1939 C 176.12 1.88831 2.9148 0
M  V30 1940 C 175.074 3.04288 3.00987 0
M  V30 1941 C 174.4 3.0229 4.4105 0
M  V30 1942 C 175.7 4.44193 2.74754 0
M  V30 1943 H 177.394 2.68152 1.33171 0
M  V30 1944 H 174.94 1.29035 0.639214 0
M  V30 1945 H 176.893 2.04559 3.6842 0
M  V30 1946 H 175.617 0.933455 3.12976 0
M  V30 1947 H 174.276 2.8827 2.26486 0
M  V30 1948 H 173.924 2.04576 4.59519 0
M  V30 1949 H 173.624 3.79822 4.4834 0
M  V30 1950 H 175.148 3.20116 5.1996 0
M  V30 1951 H 176.562 4.60544 3.41426 0
M  V30 1952 H 174.959 5.23457 2.9345 0
M  V30 1953 H 176.029 4.53996 1.70339 0
M  V30 1954 N 177.372 -0.689602 1.41712 0
M  V30 1955 C 178.618 -1.45181 1.41599 0
M  V30 1956 C 178.951 -1.94181 0.0270081 0
M  V30 1957 O 178.226 -1.6993 -0.946265 0
M  V30 1958 C 178.509 -2.65945 2.42787 0
M  V30 1959 C 178.362 -2.22672 3.90816 0
M  V30 1960 C 179.681 -3.68149 2.41151 0
M  V30 1961 H 176.8 -0.526576 0.515642 0
M  V30 1962 H 179.442 -0.784947 1.73028 0
M  V30 1963 H 177.592 -3.2284 2.16116 0
M  V30 1964 H 179.264 -1.71058 4.28412 0
M  V30 1965 H 177.507 -1.54394 4.05395 0
M  V30 1966 H 178.178 -3.0935 4.57172 0
M  V30 1967 H 180.654 -3.2094 2.64834 0
M  V30 1968 H 179.53 -4.50248 3.13955 0
M  V30 1969 H 179.791 -4.18259 1.43221 0
M  V30 1970 N 178.85 -1.27639 -0.924453 0
M  V30 1971 C 179.798 -1.10485 -2.04685 0
M  V30 1972 C 180.792 -0.0270421 -1.69378 0
M  V30 1973 O 181.998 -0.185008 -1.79047 0
M  V30 1974 H 178.373 -0.340546 -0.670472 0
M  V30 1975 H 180.344 -2.05566 -2.16298 0
M  V30 1976 C 179.093 -0.772229 -3.39016 0
M  V30 1977 H 178.416 -1.59351 -3.66671 0
M  V30 1978 H 179.856 -0.692097 -4.18313 0
M  V30 1979 C 178.315 0.523554 -3.32807 0
M  V30 1980 O 178.845 1.55702 -3.70297 0
M  V30 1981 N 177.051 0.520363 -2.85903 0
M  V30 1982 H 176.598 -0.32107 -2.55591 0
M  V30 1983 H 176.556 1.38742 -2.82131 0
M  V30 1984 N 180.328 1.1314 -1.09713 0
M  V30 1985 C 181.276 2.20717 -0.733934 0
M  V30 1986 C 182.27 1.6729 0.266506 0
M  V30 1987 O 183.476 1.79547 0.127656 0
M  V30 1988 H 179.851 0.719292 -0.21937 0
M  V30 1989 H 181.822 2.48611 -1.6503 0
M  V30 1990 C 180.571 3.47265 -0.173849 0
M  V30 1991 H 179.894 3.88716 -0.934873 0
M  V30 1992 H 181.334 4.23979 0.0423126 0
M  V30 1993 C 179.793 3.18724 1.09164 0
M  V30 1994 O 180.323 3.37762 2.17439 0
M  V30 1995 N 178.529 2.72583 1.00732 0
M  V30 1996 H 178.076 2.57291 0.126121 0
M  V30 1997 H 178.034 2.53862 1.85476 0
M  V30 1998 N 181.806 0.884767 1.30421 0
M  V30 1999 C 182.769 0.356277 2.26414 0
M  V30 2000 C 183.769 -0.501124 1.52792 0
M  V30 2001 O 184.959 -0.30831 1.7145 0
M  V30 2002 C 182.091 -0.492316 3.37326 0
M  V30 2003 H 183.284 1.20389 2.74675 0
M  V30 2004 H 180.837 0.661607 1.41607 0
M  V30 2005 H 181.572 -1.36052 2.94381 0
M  V30 2006 H 181.357 0.121832 3.91911 0
M  V30 2007 H 182.847 -0.853871 4.08777 0
M  V30 2008 N 183.284 -1.43765 0.645699 0
M  V30 2009 C 184.247 -2.29163 -0.0409488 0
M  V30 2010 C 185.247 -1.41813 -0.757996 0
M  V30 2011 O 186.437 -1.63527 -0.600382 0
M  V30 2012 C 183.569 -3.23716 -1.06869 0
M  V30 2013 H 184.762 -2.91366 0.710345 0
M  V30 2014 H 182.315 -1.5092 0.406547 0
M  V30 2015 H 183.05 -2.66393 -1.84947 0
M  V30 2016 H 182.835 -3.88105 -0.558277 0
M  V30 2017 H 184.325 -3.87831 -1.54845 0
M  V30 2018 N 184.763 -0.387143 -1.52771 0
M  V30 2019 C 186.009 0.196025 -2.0185 0
M  V30 2020 C 186.342 1.46641 -1.27319 0
M  V30 2021 O 185.617 1.90889 -0.373032 0
M  V30 2022 C 185.9 0.466136 -3.5707 0
M  V30 2023 C 185.753 -0.819385 -4.42274 0
M  V30 2024 C 187.072 1.25768 -4.21747 0
M  V30 2025 H 184.191 0.0697708 -0.73369 0
M  V30 2026 H 186.833 -0.516286 -1.82851 0
M  V30 2027 H 184.983 1.07293 -3.7339 0
M  V30 2028 H 186.655 -1.4563 -4.37709 0
M  V30 2029 H 184.898 -1.43517 -4.09372 0
M  V30 2030 H 185.569 -0.585065 -5.48891 0
M  V30 2031 H 188.045 0.744167 -4.09391 0
M  V30 2032 H 186.921 1.41541 -5.30337 0
M  V30 2033 H 187.182 2.27228 -3.79236 0
M  V30 2034 N 186.241 1.57166 -0.116904 0
M  V30 2035 C 187.487 1.95412 0.542405 0
M  V30 2036 C 187.82 1.00019 1.66463 0
M  V30 2037 O 187.095 0.0370346 1.94465 0
M  V30 2038 C 187.378 3.43615 1.07708 0
M  V30 2039 C 187.231 4.49781 -0.0415868 0
M  V30 2040 C 188.55 3.93616 1.96861 0
M  V30 2041 H 185.669 0.710543 0.195696 0
M  V30 2042 H 188.311 1.89027 -0.192038 0
M  V30 2043 H 186.461 3.49187 1.70296 0
M  V30 2044 H 188.133 4.56308 -0.676793 0
M  V30 2045 H 186.376 4.28033 -0.705019 0
M  V30 2046 H 187.047 5.50733 0.373717 0
M  V30 2047 H 189.523 3.90335 1.44146 0
M  V30 2048 H 188.399 4.97838 2.3119 0
M  V30 2049 H 188.66 3.34188 2.89432 0
M  V30 2050 N 187.719 -0.156864 1.56817 0
M  V30 2051 C 188.669 -1.19891 1.93934 0
M  V30 2052 C 189.653 -1.39061 0.809372 0
M  V30 2053 O 190.845 -1.40789 1.07273 0
M  V30 2054 C 187.974 -2.53493 2.31508 0
M  V30 2055 C 187.06 -2.37957 3.51052 0
M  V30 2056 N 187.451 -1.92158 4.67877 0
M  V30 2057 C 185.749 -2.68739 3.55943 0
M  V30 2058 C 186.45 -1.8943 5.49992 0
M  V30 2059 N 185.426 -2.32375 4.91429 0
M  V30 2060 H 189.228 -0.836746 2.81737 0
M  V30 2061 H 186.742 -0.365012 1.58245 0
M  V30 2062 H 188.739 -3.28811 2.56299 0
M  V30 2063 H 187.399 -2.905 1.45051 0
M  V30 2064 H 188.41 -1.62274 4.91821 0
M  V30 2065 H 185.087 -3.09687 2.80001 0
M  V30 2066 H 186.477 -1.55596 6.53636 0
M  V30 2067 N 189.197 -1.51736 -0.425897 0
M  V30 2068 C 190.445 -1.64644 -1.17204 0
M  V30 2069 C 190.766 -0.370486 -1.91448 0
M  V30 2070 O 190.036 0.614088 -1.86026 0
M  V30 2071 H 188.616 -0.606819 -0.435638 0
M  V30 2072 H 191.278 -1.88713 -0.487177 0
M  V30 2073 H 190.374 -2.47958 -1.89534 0
M  V30 2074 N 190.675 0.682077 -1.42076 0
M  V30 2075 C 191.622 1.79578 -1.44984 0
M  V30 2076 C 192.592 1.6332 -0.302614 0
M  V30 2077 O 193.777 1.83978 -0.505633 0
M  V30 2078 C 190.917 3.1756 -1.35091 0
M  V30 2079 C 190.03 3.45156 -2.59791 0
M  V30 2080 C 189.165 4.72826 -2.42093 0
M  V30 2081 C 188.204 4.93433 -3.62202 0
M  V30 2082 N 187.341 6.12338 -3.43491 0
M  V30 2083 H 192.181 1.76427 -2.40161 0
M  V30 2084 H 189.718 0.861376 -1.19242 0
M  V30 2085 H 191.676 3.97287 -1.27354 0
M  V30 2086 H 190.306 3.19854 -0.435133 0
M  V30 2087 H 189.358 2.59736 -2.77923 0
M  V30 2088 H 190.67 3.5628 -3.49094 0
M  V30 2089 H 189.824 5.60631 -2.319 0
M  V30 2090 H 188.563 4.63973 -1.50268 0
M  V30 2091 H 187.568 4.04073 -3.72834 0
M  V30 2092 H 188.793 5.04136 -4.54998 0
M  V30 2093 H 186.739 6.04672 -2.54377 0
M  V30 2094 H 186.656 6.2429 -4.26377 0
M  V30 2095 H 187.924 7.02841 -3.37097 0
M  V30 2096 N 192.153 1.28127 0.917671 0
M  V30 2097 C 193.378 1.18007 1.70555 0
M  V30 2098 C 193.803 -0.258257 1.86319 0
M  V30 2099 O 193.161 -1.1869 1.37049 0
M  V30 2100 C 193.209 1.87948 3.07746 0
M  V30 2101 O 192.313 1.18427 3.9503 0
M  V30 2102 H 191.654 0.409867 0.522403 0
M  V30 2103 H 194.184 1.69379 1.1477 0
M  V30 2104 H 194.194 1.95701 3.58001 0
M  V30 2105 H 192.869 2.92573 2.95591 0
M  V30 2106 H 191.446 1.18811 3.53466 0
M  V30 2107 N 193.631 -1.12557 1.10312 0
M  V30 2108 C 194.561 -2.20341 0.772798 0
M  V30 2109 C 195.542 -1.68198 -0.25365 0
M  V30 2110 O 196.727 -1.93831 -0.119699 0
M  V30 2111 C 193.857 -3.46709 0.202443 0
M  V30 2112 C 192.811 -4.11996 1.15943 0
M  V30 2113 C 192.137 -5.328 0.450345 0
M  V30 2114 C 193.437 -4.5828 2.50552 0
M  V30 2115 H 195.131 -2.48229 1.674 0
M  V30 2116 H 192.677 -1.19308 0.806326 0
M  V30 2117 H 194.63 -4.2138 -0.0407752 0
M  V30 2118 H 193.354 -3.18245 -0.734001 0
M  V30 2119 H 192.013 -3.39305 1.38808 0
M  V30 2120 H 191.661 -5.00602 -0.490531 0
M  V30 2121 H 191.361 -5.7743 1.08851 0
M  V30 2122 H 192.885 -6.10219 0.215642 0
M  V30 2123 H 194.299 -5.2433 2.31843 0
M  V30 2124 H 192.696 -5.13683 3.10242 0
M  V30 2125 H 193.766 -3.72329 3.10643 0
M  V30 2126 N 195.109 -0.891671 -1.2995 0
M  V30 2127 C 196.042 -0.307994 -2.26112 0
M  V30 2128 C 197.02 0.575262 -1.52084 0
M  V30 2129 O 198.204 0.523864 -1.81074 0
M  V30 2130 C 195.331 0.561734 -3.34009 0
M  V30 2131 C 194.377 -0.253107 -4.25748 0
M  V30 2132 S 195.21 -1.64572 -5.09584 0
M  V30 2133 C 196.366 -0.782699 -6.20987 0
M  V30 2134 H 196.599 -1.12309 -2.75271 0
M  V30 2135 H 194.132 -0.691509 -1.38049 0
M  V30 2136 H 196.09 1.05777 -3.96638 0
M  V30 2137 H 194.751 1.35099 -2.83561 0
M  V30 2138 H 193.944 0.410908 -5.02322 0
M  V30 2139 H 193.546 -0.682004 -3.67729 0
M  V30 2140 H 195.838 -0.00257476 -6.775 0
M  V30 2141 H 196.781 -1.52026 -6.91588 0
M  V30 2142 H 197.189 -0.340638 -5.63471 0
M  V30 2143 N 196.587 1.43421 -0.653314 0
M  V30 2144 C 197.864 1.95361 -0.0966581 0
M  V30 2145 C 198.244 1.59461 1.38331 0
M  V30 2146 O 197.592 0.879777 2.10884 0
M  V30 2147 C 197.802 3.47311 -0.342988 0
M  V30 2148 C 199.15 4.23875 -0.24798 0
M  V30 2149 O 200.174 3.55133 -0.275553 0
M  V30 2150 O 199.033 5.4623 -0.171771 0
M  V30 2151 H 196.127 0.826945 0.00956291 0
M  V30 2152 H 198.673 1.5336 -0.726558 0
M  V30 2153 H 197.445 3.66569 -1.36906 0
M  V30 2154 H 197.068 3.9631 0.319975 0
M  V30 2155 N 198.065 0.39524 1.52563 0
M  V30 2156 C 199.29 -0.187456 2.06551 0
M  V30 2157 C 199.715 -1.39249 1.26457 0
M  V30 2158 O 199.073 -1.78947 0.291151 0
M  V30 2159 C 199.121 -0.529985 3.56684 0
M  V30 2160 O 198.225 -1.62307 3.79118 0
M  V30 2161 H 197.566 -0.0202537 0.663691 0
M  V30 2162 H 200.096 0.564426 1.96661 0
M  V30 2163 H 200.106 -0.792598 4.00227 0
M  V30 2164 H 198.781 0.350987 4.14416 0
M  V30 2165 H 197.358 -1.3537 3.47461 0
M  V30 2166 N 199.544 -1.57102 0.125237 0
M  V30 2167 C 200.821 -1.86953 -0.575142 0
M  V30 2168 C 201.201 -1.02749 -1.84407 0
M  V30 2169 O 200.549 -0.108144 -2.28244 0
M  V30 2170 C 200.759 -3.38198 -0.861583 0
M  V30 2171 C 202.107 -4.06937 -1.21192 0
M  V30 2172 O 203.131 -3.43252 -0.951645 0
M  V30 2173 O 201.99 -5.19364 -1.70068 0
M  V30 2174 H 199.084 -0.774147 -0.290906 0
M  V30 2175 H 201.63 -1.68942 0.160211 0
M  V30 2176 H 200.402 -3.91282 0.0373647 0
M  V30 2177 H 200.025 -3.61661 -1.65188 0
M  V30 2178 N 201.022 0.148545 -1.56898 0
M  V30 2179 C 202.299 0.890019 -1.74178 0
M  V30 2180 C 202.679 1.99407 -0.692839 0
M  V30 2181 O 202.027 2.26671 0.288505 0
M  V30 2182 C 202.237 1.43389 -3.18183 0
M  V30 2183 C 203.585 1.89791 -3.79822 0
M  V30 2184 O 204.609 1.53134 -3.21603 0
M  V30 2185 O 203.468 2.57387 -4.82093 0
M  V30 2186 H 200.562 0.420496 -0.712118 0
M  V30 2187 H 203.108 0.134591 -1.69165 0
M  V30 2188 H 201.88 0.640383 -3.86024 0
M  V30 2189 H 201.503 2.25287 -3.27615 0
M  V30 2190 N 202.5 1.5196 0.417844 0
M  V30 2191 C 203.777 1.56146 1.17803 0
M  V30 2192 C 204.157 0.337275 2.08388 0
M  V30 2193 O 203.505 -0.676447 2.18258 0
M  V30 2194 C 203.715 2.88566 1.96293 0
M  V30 2195 C 205.063 3.41244 2.52662 0
M  V30 2196 O 206.087 2.90247 2.06483 0
M  V30 2197 O 204.946 4.30273 3.36938 0
M  V30 2198 H 202.04 0.628598 0.537395 0
M  V30 2199 H 204.586 1.64283 0.425331 0
M  V30 2200 H 203.358 3.69116 1.2988 0
M  V30 2201 H 202.981 2.83681 2.78587 0
M  V30 2202 N 203.978 -0.674533 1.42435 0
M  V30 2203 C 204.941 -1.76986 1.45632 0
M  V30 2204 C 205.941 -1.5708 0.343871 0
M  V30 2205 O 207.131 -1.63367 0.604709 0
M  V30 2206 C 204.263 -3.15623 1.28822 0
M  V30 2207 H 205.456 -1.75539 2.43158 0
M  V30 2208 H 203.009 -0.884189 1.28887 0
M  V30 2209 H 203.744 -3.22696 0.322193 0
M  V30 2210 H 203.529 -3.31475 2.09444 0
M  V30 2211 H 205.019 -3.95537 1.33942 0
M  V30 2212 N 205.456 -1.28612 -0.910864 0
M  V30 2213 C 206.386 -1.15326 -2.03032 0
M  V30 2214 C 207.367 -0.0502924 -1.70026 0
M  V30 2215 O 208.552 -0.227797 -1.92859 0
M  V30 2216 C 205.682 -0.817343 -3.37545 0
M  V30 2217 C 204.636 -1.8754 -3.84724 0
M  V30 2218 C 203.962 -1.39305 -5.16235 0
M  V30 2219 C 205.262 -3.28244 -4.06267 0
M  V30 2220 H 206.956 -2.08975 -2.14406 0
M  V30 2221 H 204.502 -1.00612 -1.03021 0
M  V30 2222 H 206.455 -0.711151 -4.15356 0
M  V30 2223 H 205.179 0.154846 -3.26233 0
M  V30 2224 H 203.838 -1.97079 -3.09121 0
M  V30 2225 H 203.486 -0.409846 -5.01328 0
M  V30 2226 H 203.186 -2.10057 -5.48771 0
M  V30 2227 H 204.71 -1.30014 -5.96598 0
M  V30 2228 H 206.124 -3.21611 -4.74594 0
M  V30 2229 H 204.521 -3.96855 -4.5014 0
M  V30 2230 H 205.591 -3.72048 -3.10979 0
M  V30 2231 N 206.934 1.1197 -1.10907 0
M  V30 2232 C 207.864 2.19928 -0.784473 0
M  V30 2233 C 208.845 1.6833 0.244726 0
M  V30 2234 O 210.03 1.93892 0.109418 0
M  V30 2235 C 207.16 3.46597 -0.220827 0
M  V30 2236 C 206.114 4.11376 -1.18127 0
M  V30 2237 C 205.44 5.32554 -0.478594 0
M  V30 2238 C 206.74 4.56945 -2.52979 0
M  V30 2239 H 208.434 2.47337 -1.68715 0
M  V30 2240 H 205.98 1.18879 -0.812642 0
M  V30 2241 H 207.933 4.21396 0.0184278 0
M  V30 2242 H 206.657 3.1863 0.717113 0
M  V30 2243 H 205.316 3.38564 -1.40606 0
M  V30 2244 H 204.964 5.00856 0.463976 0
M  V30 2245 H 204.664 5.76844 -1.11912 0
M  V30 2246 H 206.188 6.10096 -0.248 0
M  V30 2247 H 207.602 5.23093 -2.3462 0
M  V30 2248 H 205.999 5.1203 -3.12962 0
M  V30 2249 H 207.069 3.70676 -3.12614 0
M  V30 2250 N 208.412 0.89855 1.29475 0
M  V30 2251 C 209.359 0.373819 2.27753 0
M  V30 2252 C 210.329 -0.543444 1.56958 0
M  V30 2253 O 211.514 -0.468934 1.84948 0
M  V30 2254 C 208.654 -0.393648 3.42848 0
M  V30 2255 C 207.767 0.554379 4.28428 0
M  V30 2256 C 206.902 -0.230026 5.30702 0
M  V30 2257 C 205.941 0.712599 6.07938 0
M  V30 2258 N 205.078 -0.0373283 7.0209 0
M  V30 2259 H 209.918 1.21699 2.72017 0
M  V30 2260 H 207.455 0.611456 1.33789 0
M  V30 2261 H 209.413 -0.85466 4.08352 0
M  V30 2262 H 208.043 -1.20128 2.99615 0
M  V30 2263 H 207.095 1.13391 3.63107 0
M  V30 2264 H 208.407 1.27597 4.82204 0
M  V30 2265 H 207.561 -0.752288 6.02018 0
M  V30 2266 H 206.3 -0.984758 4.77654 0
M  V30 2267 H 205.305 1.24637 5.35486 0
M  V30 2268 H 206.53 1.46664 6.63074 0
M  V30 2269 H 204.476 -0.774348 6.51414 0
M  V30 2270 H 204.393 0.624374 7.53417 0
M  V30 2271 H 205.661 -0.539891 7.77628 0
M  V30 2272 N 209.89 -1.43072 0.660911 0
M  V30 2273 C 211.115 -2.06584 0.183805 0
M  V30 2274 C 211.54 -1.49257 -1.14472 0
M  V30 2275 O 210.898 -0.605528 -1.70889 0
M  V30 2276 C 210.946 -3.60418 0.114434 0
M  V30 2277 O 210.05 -4.01981 -0.921137 0
M  V30 2278 H 209.391 -0.656669 0.0983994 0
M  V30 2279 H 211.921 -1.83447 0.906006 0
M  V30 2280 H 211.931 -4.07946 -0.0663394 0
M  V30 2281 H 210.606 -4.01519 1.08422 0
M  V30 2282 H 209.183 -3.66029 -0.71253 0
M  V30 2283 N 211.368 -0.403325 -1.52352 0
M  V30 2284 C 212.3 0.4603 -2.2453 0
M  V30 2285 C 213.313 1.01505 -1.27282 0
M  V30 2286 O 214.502 0.914982 -1.53266 0
M  V30 2287 C 211.602 1.65208 -2.95905 0
M  V30 2288 C 210.775 1.22224 -4.19976 0
M  V30 2289 C 209.834 2.28028 -4.74226 0
M  V30 2290 O 208.86 1.88857 -5.36956 0
M  V30 2291 N 210.062 3.6012 -4.55295 0
M  V30 2292 H 212.827 -0.158156 -2.99282 0
M  V30 2293 H 210.388 -0.230402 -1.60252 0
M  V30 2294 H 212.38 2.35541 -3.29093 0
M  V30 2295 H 210.95 2.17658 -2.24374 0
M  V30 2296 H 210.17 0.34725 -3.92668 0
M  V30 2297 H 211.458 0.911924 -5.00561 0
M  V30 2298 H 210.856 3.94698 -4.05253 0
M  V30 2299 H 209.413 4.26447 -4.92936 0
M  V30 2300 N 212.846 1.57033 -0.133567 0
M  V30 2301 C 213.796 2.12641 0.822671 0
M  V30 2302 C 214.78 1.05081 1.21847 0
M  V30 2303 O 215.972 1.31287 1.18713 0
M  V30 2304 C 213.101 2.74094 2.06706 0
M  V30 2305 C 212.187 3.88757 1.69497 0
M  V30 2306 N 212.578 4.95194 1.03037 0
M  V30 2307 C 210.876 3.99213 1.98859 0
M  V30 2308 C 211.577 5.75414 0.852873 0
M  V30 2309 N 210.553 5.25726 1.3825 0
M  V30 2310 H 214.355 2.92308 0.305537 0
M  V30 2311 H 211.869 1.62256 0.0684276 0
M  V30 2312 H 213.866 3.12285 2.76195 0
M  V30 2313 H 212.526 1.95896 2.5895 0
M  V30 2314 H 213.537 5.13247 0.692669 0
M  V30 2315 H 210.214 3.32075 2.53047 0
M  V30 2316 H 211.604 6.71089 0.330091 0
M  V30 2317 N 214.325 -0.140222 1.56975 0
M  V30 2318 C 215.574 -0.850152 1.82908 0
M  V30 2319 C 215.887 -1.82028 0.715892 0
M  V30 2320 O 217.093 -2.57485 0.861016 0
M  V30 2321 C 215.549 -1.5625 3.24213 0
M  V30 2322 C 215.157 -0.63443 4.43485 0
M  V30 2323 C 216.901 -2.25881 3.59413 0
M  V30 2324 C 214.808 -1.34879 5.75814 0
M  V30 2325 H 213.738 -0.321221 0.682153 0
M  V30 2326 H 216.389 -0.102874 1.83211 0
M  V30 2327 H 214.771 -2.35565 3.18316 0
M  V30 2328 H 215.945 0.12398 4.60633 0
M  V30 2329 H 214.26 -0.0461836 4.16374 0
M  V30 2330 H 216.857 -2.79978 4.5554 0
M  V30 2331 H 217.2 -3.02693 2.85802 0
M  V30 2332 H 217.733 -1.53477 3.67001 0
M  V30 2333 H 214.472 -0.622385 6.52539 0
M  V30 2334 H 213.992 -2.07974 5.6259 0
M  V30 2335 H 215.671 -1.88784 6.18845 0
M  V30 2336 N 215.803 -1.52179 -0.40978 0
M  V30 2337 C 216.751 -1.76086 -1.51975 0
M  V30 2338 C 217.745 -0.627964 -1.57331 0
M  V30 2339 O 218.951 -0.809993 -1.60745 0
M  V30 2340 H 215.326 -0.556829 -0.505416 0
M  V30 2341 H 217.297 -2.69077 -1.28996 0
M  V30 2342 C 216.046 -1.92799 -2.8935 0
M  V30 2343 H 215.369 -2.79392 -2.85972 0
M  V30 2344 H 216.809 -2.13527 -3.66309 0
M  V30 2345 C 215.268 -0.694923 -3.29655 0
M  V30 2346 O 215.798 0.13751 -4.01465 0
M  V30 2347 N 214.004 -0.53101 -2.85707 0
M  V30 2348 H 213.551 -1.20952 -2.27439 0
M  V30 2349 H 213.509 0.292718 -3.13034 0
M  V30 2350 N 217.281 0.66697 -1.42791 0
M  V30 2351 C 218.509 1.45505 -1.47091 0
M  V30 2352 C 218.924 1.8861 -0.0845873 0
M  V30 2353 O 218.281 1.58632 0.90234 0
M  V30 2354 C 218.332 2.69906 -2.40485 0
M  V30 2355 O 218.053 2.28608 -3.73725 0
M  V30 2356 C 219.554 3.63396 -2.53886 0
M  V30 2357 H 216.774 0.447459 -0.500022 0
M  V30 2358 H 219.318 0.818866 -1.8739 0
M  V30 2359 H 217.473 3.29696 -2.03419 0
M  V30 2360 H 217.887 3.08997 -4.23817 0
M  V30 2361 H 219.361 4.47387 -3.2334 0
M  V30 2362 H 219.838 4.09824 -1.57927 0
M  V30 2363 H 220.444 3.09495 -2.91706 0
M  V30 2364 N 218.759 1.29093 0.90403 0
M  V30 2365 C 219.689 1.16401 2.02418 0
M  V30 2366 C 220.67 0.0593085 1.69997 0
M  V30 2367 O 221.855 0.238021 1.92736 0
M  V30 2368 C 218.985 0.835233 3.37107 0
M  V30 2369 C 217.939 1.89578 3.83724 0
M  V30 2370 C 217.265 1.42041 5.15489 0
M  V30 2371 C 218.565 3.30394 4.04521 0
M  V30 2372 H 220.259 2.10109 2.13295 0
M  V30 2373 H 217.805 1.01157 1.02486 0
M  V30 2374 H 219.758 0.733169 4.14973 0
M  V30 2375 H 218.482 -0.137543 3.2631 0
M  V30 2376 H 217.141 1.98715 3.08071 0
M  V30 2377 H 216.789 0.436426 5.01103 0
M  V30 2378 H 216.489 2.12964 5.4765 0
M  V30 2379 H 218.013 1.33176 5.959 0
M  V30 2380 H 219.427 3.24123 4.72882 0
M  V30 2381 H 217.824 3.99237 4.48029 0
M  V30 2382 H 218.894 3.73692 3.09002 0
M  V30 2383 N 220.237 -1.11381 1.11499 0
M  V30 2384 C 221.485 -1.8277 0.862524 0
M  V30 2385 C 221.806 -1.85097 -0.613534 0
M  V30 2386 O 221.076 -1.32198 -1.4457 0
M  V30 2387 H 219.656 -0.676823 0.316101 0
M  V30 2388 H 222.318 -1.34816 1.4075 0
M  V30 2389 H 221.414 -2.86614 1.23527 0
M  V30 2390 N 221.715 -0.905404 -1.28997 0
M  V30 2391 C 222.647 -0.344748 -2.26592 0
M  V30 2392 C 223.66 0.512135 -1.54535 0
M  V30 2393 O 224.849 0.328368 -1.75454 0
M  V30 2394 C 221.949 0.526587 -3.34784 0
M  V30 2395 C 221.122 -0.305871 -4.36329 0
M  V30 2396 C 220.181 0.499209 -5.23827 0
M  V30 2397 O 219.207 -0.0853004 -5.69136 0
M  V30 2398 N 220.409 1.80408 -5.51755 0
M  V30 2399 H 223.174 -1.18359 -2.75338 0
M  V30 2400 H 220.735 -0.770481 -1.42391 0
M  V30 2401 H 222.727 1.07171 -3.90252 0
M  V30 2402 H 221.297 1.26613 -2.85811 0
M  V30 2403 H 220.517 -1.0324 -3.80441 0
M  V30 2404 H 221.805 -0.875773 -5.01206 0
M  V30 2405 H 221.203 2.3016 -5.16762 0
M  V30 2406 H 219.76 2.29621 -6.10014 0
M  V30 2407 N 223.193 1.4272 -0.668489 0
M  V30 2408 C 224.44 2.01624 -0.18814 0
M  V30 2409 C 224.768 1.5282 1.20317 0
M  V30 2410 O 224.023 0.718323 1.8204 0
M  V30 2411 C 224.322 3.57021 -0.164499 0
M  V30 2412 C 223.988 4.25232 -1.49962 0
M  V30 2413 C 222.65 4.4358 -1.8652 0
M  V30 2414 C 225.002 4.63727 -2.37921 0
M  V30 2415 C 222.33 4.97694 -3.10674 0
M  V30 2416 C 224.682 5.19218 -3.6138 0
M  V30 2417 C 223.346 5.3578 -3.98115 0
M  V30 2418 H 222.616 0.737795 -0.0688454 0
M  V30 2419 H 225.263 1.70991 -0.862225 0
M  V30 2420 H 223.568 3.87285 0.593079 0
M  V30 2421 H 225.265 4.00372 0.224271 0
M  V30 2422 H 221.855 4.11306 -1.20522 0
M  V30 2423 H 226.039 4.4923 -2.10964 0
M  V30 2424 H 221.295 5.08702 -3.39164 0
M  V30 2425 H 225.469 5.4799 -4.29743 0
M  V30 2426 H 223.096 5.77475 -4.94395 0
M  V30 2427 N 224.671 0.411399 1.52136 0
M  V30 2428 C 225.917 -0.156262 2.02799 0
M  V30 2429 C 226.272 -1.42613 1.29149 0
M  V30 2430 O 225.565 -1.87592 0.389839 0
M  V30 2431 C 225.759 -0.455872 3.54481 0
M  V30 2432 C 225.588 0.783404 4.42824 0
M  V30 2433 C 224.358 1.30928 4.88043 0
M  V30 2434 C 226.556 1.66217 4.86699 0
M  V30 2435 N 224.538 2.5038 5.6052 0
M  V30 2436 C 225.909 2.70292 5.5798 0
M  V30 2437 C 227.964 1.67966 4.68713 0
M  V30 2438 C 226.667 3.7603 6.13184 0
M  V30 2439 C 228.693 2.72624 5.24815 0
M  V30 2440 C 228.055 3.7542 5.9602 0
M  V30 2441 H 224.154 -0.0186886 0.781777 0
M  V30 2442 H 226.738 0.566255 1.86284 0
M  V30 2443 H 224.909 -1.14743 3.71064 0
M  V30 2444 H 226.641 -1.01261 3.91827 0
M  V30 2445 H 223.396 0.866977 4.65597 0
M  V30 2446 H 223.82 3.10881 6.014 0
M  V30 2447 H 228.462 0.898312 4.13147 0
M  V30 2448 H 226.18 4.55019 6.6782 0
M  V30 2449 H 229.766 2.74887 5.12765 0
M  V30 2450 H 228.646 4.55073 6.38654 0
M  V30 2451 N 226.149 -1.5696 0.141893 0
M  V30 2452 C 227.377 -2.00322 -0.517579 0
M  V30 2453 C 227.792 -1.02193 -1.58752 0
M  V30 2454 O 227.149 -0.0181619 -1.82491 0
M  V30 2455 C 227.2 -3.43618 -1.12289 0
M  V30 2456 O 226.921 -4.37995 -0.0956929 0
M  V30 2457 C 228.422 -4.02231 -1.86347 0
M  V30 2458 H 225.642 -0.657243 -0.135177 0
M  V30 2459 H 228.186 -2.03146 0.234973 0
M  V30 2460 H 226.341 -3.41662 -1.82609 0
M  V30 2461 H 226.755 -5.21729 -0.538469 0
M  V30 2462 H 228.229 -5.04509 -2.23997 0
M  V30 2463 H 228.706 -3.42655 -2.74744 0
M  V30 2464 H 229.312 -4.07802 -1.20737 0
M  V30 2465 N 227.627 0.131896 -1.57047 0
M  V30 2466 C 228.855 0.856461 -1.88341 0
M  V30 2467 C 229.27 1.74042 -0.731757 0
M  V30 2468 O 228.627 1.80051 0.297945 0
M  V30 2469 C 228.678 1.70064 -3.18999 0
M  V30 2470 O 228.399 0.852278 -4.2973 0
M  V30 2471 C 229.9 2.53148 -3.63911 0
M  V30 2472 H 227.12 0.246885 -0.62393 0
M  V30 2473 H 229.664 0.120152 -2.04147 0
M  V30 2474 H 227.819 2.38984 -3.04902 0
M  V30 2475 H 228.233 1.43329 -5.04537 0
M  V30 2476 H 229.707 3.07931 -4.58129 0
M  V30 2477 H 230.184 3.29901 -2.89935 0
M  V30 2478 H 230.79 1.89492 -3.80753 0
M  V30 2479 N 229.106 1.52395 0.401703 0
M  V30 2480 C 230.053 1.76268 1.48991 0
M  V30 2481 C 231.023 0.605386 1.54675 0
M  V30 2482 O 232.208 0.843742 1.7113 0
M  V30 2483 C 229.348 1.92592 2.86361 0
M  V30 2484 C 228.461 3.20259 2.89928 0
M  V30 2485 C 227.596 3.26972 4.18644 0
M  V30 2486 C 226.635 4.48812 4.16214 0
M  V30 2487 N 225.772 4.52877 5.36514 0
M  V30 2488 H 230.612 2.6914 1.27935 0
M  V30 2489 H 228.149 1.33355 0.620871 0
M  V30 2490 H 230.107 2.0004 3.66115 0
M  V30 2491 H 228.737 1.03093 3.05895 0
M  V30 2492 H 227.789 3.21945 2.02621 0
M  V30 2493 H 229.101 4.10056 2.83999 0
M  V30 2494 H 228.255 3.33533 5.06794 0
M  V30 2495 H 226.994 2.35126 4.27278 0
M  V30 2496 H 225.999 4.4239 3.26453 0
M  V30 2497 H 227.224 5.41961 4.09213 0
M  V30 2498 H 225.17 3.63917 5.45802 0
M  V30 2499 H 225.087 5.36529 5.32609 0
M  V30 2500 H 226.355 4.63676 6.26597 0
M  V30 2501 N 230.584 -0.659388 1.43143 0
M  V30 2502 C 231.547 -1.75432 1.47501 0
M  V30 2503 C 232.547 -1.56707 0.360512 0
M  V30 2504 O 233.737 -1.62717 0.622002 0
M  V30 2505 C 230.869 -3.14239 1.32162 0
M  V30 2506 H 232.062 -1.7295 2.45006 0
M  V30 2507 H 229.615 -0.870469 1.29817 0
M  V30 2508 H 230.35 -3.22336 0.356401 0
M  V30 2509 H 230.135 -3.29235 2.12948 0
M  V30 2510 H 231.625 -3.94094 1.3813 0
M  V30 2511 N 232.062 -1.29571 -0.897171 0
M  V30 2512 C 233.309 -1.17689 -1.6479 0
M  V30 2513 C 233.637 0.27107 -1.92602 0
M  V30 2514 O 232.892 1.21193 -1.53658 0
M  V30 2515 C 233.191 -1.9382 -3.00281 0
M  V30 2516 C 232.857 -3.43522 -2.92068 0
M  V30 2517 C 231.519 -3.84348 -2.89535 0
M  V30 2518 C 233.871 -4.38906 -2.81089 0
M  V30 2519 C 231.199 -5.18869 -2.73846 0
M  V30 2520 C 233.551 -5.73521 -2.66939 0
M  V30 2521 C 232.215 -6.13601 -2.62774 0
M  V30 2522 H 231.485 -0.430654 -0.603008 0
M  V30 2523 H 234.132 -1.60536 -1.04404 0
M  V30 2524 H 232.437 -1.4357 -3.64547 0
M  V30 2525 H 234.134 -1.82028 -3.57305 0
M  V30 2526 H 230.724 -3.11072 -2.94842 0
M  V30 2527 H 234.908 -4.08315 -2.82121 0
M  V30 2528 H 230.164 -5.4903 -2.69027 0
M  V30 2529 H 234.338 -6.47078 -2.57416 0
M  V30 2530 H 231.965 -7.17786 -2.50375 0
M  V30 2531 N 233.54 1.10788 -1.12088 0
M  V30 2532 C 234.47 2.19083 -0.807755 0
M  V30 2533 C 235.451 1.6858 0.226859 0
M  V30 2534 O 236.636 1.93997 0.0888475 0
M  V30 2535 C 233.766 3.46344 -0.257576 0
M  V30 2536 C 232.72 4.101 -1.22483 0
M  V30 2537 C 232.046 5.32016 -0.535052 0
M  V30 2538 C 233.346 4.54236 -2.57811 0
M  V30 2539 H 235.04 2.45534 -1.71328 0
M  V30 2540 H 232.586 1.1801 -0.825205 0
M  V30 2541 H 234.539 4.21392 -0.0262679 0
M  V30 2542 H 233.263 3.19373 0.683278 0
M  V30 2543 H 231.922 3.37054 -1.44189 0
M  V30 2544 H 231.57 5.01319 0.410827 0
M  V30 2545 H 231.27 5.75625 -1.18024 0
M  V30 2546 H 232.794 6.09799 -0.312695 0
M  V30 2547 H 234.208 5.20575 -2.40155 0
M  V30 2548 H 232.605 5.08682 -3.18375 0
M  V30 2549 H 233.675 3.6734 -3.16528 0
M  V30 2550 N 235.018 0.912232 1.28515 0
M  V30 2551 C 236.429 0.591352 1.77087 0
M  V30 2552 C 236.78 -0.8933 1.74684 0
M  V30 2553 O 235.905 -1.69876 1.34056 0
M  V30 2554 C 236.5 1.06668 3.2157 0
M  V30 2555 C 235.059 0.79675 3.67871 0
M  V30 2556 C 234.206 1.23427 2.48316 0
M  V30 2557 H 237.157 1.09365 1.15 0
M  V30 2558 H 237.178 0.407455 3.78312 0
M  V30 2559 H 236.69 2.14726 3.23287 0
M  V30 2560 H 234.791 -0.270679 3.71616 0
M  V30 2561 H 234.904 1.40343 4.58084 0
M  V30 2562 H 233.268 0.653036 2.46186 0
M  V30 2563 H 234.051 2.32316 2.52753 0
M  V30 2564 N 236.496 -1.42363 0.676048 0
M  V30 2565 C 237.912 -1.55811 0.345718 0
M  V30 2566 C 238.112 -1.65544 -1.14879 0
M  V30 2567 O 237.168 -1.62306 -1.93424 0
M  V30 2568 C 238.481 -2.80746 1.07713 0
M  V30 2569 C 240.029 -2.9452 1.05958 0
M  V30 2570 C 240.504 -4.22318 1.77233 0
M  V30 2571 N 241.995 -4.29233 1.74108 0
M  V30 2572 C 242.73 -5.26935 2.26113 0
M  V30 2573 N 242.226 -6.30783 2.86505 0
M  V30 2574 N 244.019 -5.18741 2.1648 0
M  V30 2575 H 236.17 -1.34289 1.6456 0
M  V30 2576 H 238.433 -0.646506 0.69335 0
M  V30 2577 H 238.139 -2.79696 2.13221 0
M  V30 2578 H 238.013 -3.71676 0.64316 0
M  V30 2579 H 240.4 -2.95097 0.0128255 0
M  V30 2580 H 240.481 -2.04817 1.53244 0
M  V30 2581 H 240.125 -4.22502 2.81877 0
M  V30 2582 H 240.055 -5.10958 1.27396 0
M  V30 2583 H 242.546 -3.54814 1.30059 0
M  V30 2584 H 242.859 -7.01691 3.23805 0
M  V30 2585 H 241.204 -6.31341 2.90575 0
M  V30 2586 H 244.395 -4.36533 1.68987 0
M  V30 2587 H 244.568 -5.94721 2.57316 0
M  V30 2588 N 237.974 -0.419461 -1.51915 0
M  V30 2589 C 238.907 0.445751 -2.23804 0
M  V30 2590 C 239.885 1.03951 -1.25031 0
M  V30 2591 O 241.069 1.08541 -1.54114 0
M  V30 2592 C 238.196 1.61964 -2.97465 0
M  V30 2593 C 237.242 1.14828 -4.10751 0
M  V30 2594 S 238.075 0.104938 -5.35397 0
M  V30 2595 C 239.231 1.28391 -6.1259 0
M  V30 2596 H 239.464 -0.164627 -2.96844 0
M  V30 2597 H 236.997 -0.203833 -1.53049 0
M  V30 2598 H 238.955 2.29271 -3.40507 0
M  V30 2599 H 237.616 2.20139 -2.24048 0
M  V30 2600 H 236.809 2.02561 -4.61503 0
M  V30 2601 H 236.411 0.553712 -3.69878 0
M  V30 2602 H 238.703 2.20563 -6.40592 0
M  V30 2603 H 239.646 0.816724 -7.03374 0
M  V30 2604 H 240.054 1.51439 -5.43807 0
M  V30 2605 N 239.452 1.56882 -0.150215 0
M  V30 2606 C 240.382 2.19935 0.784284 0
M  V30 2607 C 241.363 1.14854 1.25469 0
M  V30 2608 O 242.548 1.43209 1.31168 0
M  V30 2609 C 239.678 2.82349 2.02229 0
M  V30 2610 C 238.632 3.93285 1.68853 0
M  V30 2611 C 237.958 4.42649 2.99944 0
M  V30 2612 C 239.258 5.13904 0.932714 0
M  V30 2613 H 240.952 2.9828 0.258781 0
M  V30 2614 H 238.498 1.43473 0.123029 0
M  V30 2615 H 240.451 3.25126 2.68088 0
M  V30 2616 H 239.175 2.0134 2.57157 0
M  V30 2617 H 237.834 3.5113 1.05371 0
M  V30 2618 H 237.482 3.58458 3.52869 0
M  V30 2619 H 237.182 5.17476 2.78374 0
M  V30 2620 H 238.706 4.88099 3.66868 0
M  V30 2621 H 240.12 5.53506 1.49345 0
M  V30 2622 H 238.517 5.94515 0.81684 0
M  V30 2623 H 239.587 4.84842 -0.0749568 0
M  V30 2624 N 240.93 -0.123565 1.57115 0
M  V30 2625 C 241.84 -1.17074 2.033 0
M  V30 2626 C 242.856 -1.4561 0.952559 0
M  V30 2627 O 244.032 -1.56817 1.26374 0
M  V30 2628 C 241.097 -2.47857 2.42421 0
M  V30 2629 C 240.158 -2.26758 3.64526 0
M  V30 2630 C 239.391 -3.51305 4.01771 0
M  V30 2631 O 239.614 -4.5843 3.39409 0
M  V30 2632 O 238.548 -3.42578 4.94898 0
M  V30 2633 H 242.374 -0.808555 2.92739 0
M  V30 2634 H 239.959 -0.334027 1.45618 0
M  V30 2635 H 241.841 -3.2492 2.68338 0
M  V30 2636 H 240.516 -2.83558 1.5613 0
M  V30 2637 H 239.423 -1.47569 3.43765 0
M  V30 2638 H 240.756 -1.95963 4.51508 0
M  V30 2639 N 242.408 -1.52605 -0.393616 0
M  V30 2640 C 243.338 -1.80022 -1.48709 0
M  V30 2641 C 244.319 -0.651995 -1.57108 0
M  V30 2642 O 245.504 -0.89913 -1.72132 0
M  V30 2643 C 242.634 -1.96492 -2.86371 0
M  V30 2644 C 241.588 -3.12161 -2.92813 0
M  V30 2645 C 240.914 -3.13877 -4.3288 0
M  V30 2646 C 242.214 -4.51322 -2.6288 0
M  V30 2647 H 243.908 -2.71589 -1.26015 0
M  V30 2648 H 241.454 -1.30684 -0.604778 0
M  V30 2649 H 243.407 -2.14255 -3.62867 0
M  V30 2650 H 242.131 -1.01611 -3.10391 0
M  V30 2651 H 240.79 -2.94173 -2.18764 0
M  V30 2652 H 240.438 -2.16687 -4.53933 0
M  V30 2653 H 240.138 -3.91576 -4.38112 0
M  V30 2654 H 241.662 -3.33789 -5.1129 0
M  V30 2655 H 243.076 -4.69435 -3.29096 0
M  V30 2656 H 241.473 -5.31053 -2.79468 0
M  V30 2657 H 242.543 -4.58353 -1.58242 0
M  V30 2658 N 243.887 0.651787 -1.4349 0
M  V30 2659 C 244.819 1.77725 -1.44729 0
M  V30 2660 C 245.832 1.59141 -0.343231 0
M  V30 2661 O 247.021 1.67835 -0.607751 0
M  V30 2662 C 244.121 3.15172 -1.24579 0
M  V30 2663 C 243.294 3.60402 -2.47849 0
M  V30 2664 C 242.353 4.76656 -2.22902 0
M  V30 2665 O 241.379 4.86022 -2.96263 0
M  V30 2666 N 242.581 5.66958 -1.24656 0
M  V30 2667 H 245.346 1.77141 -2.41746 0
M  V30 2668 H 242.907 0.835678 -1.38665 0
M  V30 2669 H 244.899 3.90634 -1.0577 0
M  V30 2670 H 243.469 3.1052 -0.360015 0
M  V30 2671 H 242.689 2.75369 -2.82073 0
M  V30 2672 H 243.977 3.87368 -3.29884 0
M  V30 2673 H 243.375 5.62065 -0.640265 0
M  V30 2674 H 241.932 6.42135 -1.1183 0
M  V30 2675 N 245.365 1.30045 0.890287 0
M  V30 2676 C 246.313 1.15873 2.01683 0
M  V30 2677 C 247.307 0.0719403 1.69247 0
M  V30 2678 O 248.513 0.232414 1.78493 0
M  V30 2679 H 244.888 0.358203 0.661207 0
M  V30 2680 H 246.859 2.11229 2.10772 0
M  V30 2681 C 245.608 0.861842 3.36849 0
M  V30 2682 H 244.931 1.69016 3.62317 0
M  V30 2683 H 246.371 0.802762 4.16331 0
M  V30 2684 C 244.83 -0.435132 3.34078 0
M  V30 2685 O 245.36 -1.4583 3.74295 0
M  V30 2686 N 243.566 -0.444377 2.87182 0
M  V30 2687 H 243.113 0.388723 2.5465 0
M  V30 2688 H 243.071 -1.31213 2.85711 0
M  V30 2689 N 246.843 -1.10192 1.12674 0
M  V30 2690 C 248.091 -1.81845 0.881861 0
M  V30 2691 C 248.412 -1.85737 -0.593867 0
M  V30 2692 O 247.682 -1.33724 -1.4316 0
M  V30 2693 H 246.262 -0.673432 0.323261 0
M  V30 2694 H 248.924 -1.33316 1.42172 0
M  V30 2695 H 248.02 -2.85288 1.2656 0
M  V30 2696 N 248.321 -0.919034 -1.28029 0
M  V30 2697 C 249.271 -0.382574 -2.24767 0
M  V30 2698 C 250.255 0.508286 -1.52661 0
M  V30 2699 O 251.447 0.347145 -1.73562 0
M  V30 2700 C 248.576 0.371432 -3.41285 0
M  V30 2701 C 247.662 -0.535449 -4.20706 0
M  V30 2702 N 248.053 -1.65141 -4.78082 0
M  V30 2703 C 246.351 -0.336824 -4.44726 0
M  V30 2704 C 247.052 -2.21475 -5.37888 0
M  V30 2705 N 246.028 -1.50537 -5.22341 0
M  V30 2706 H 249.83 -1.23477 -2.66703 0
M  V30 2707 H 247.344 -0.772299 -1.42861 0
M  V30 2708 H 249.341 0.772638 -4.09678 0
M  V30 2709 H 248.001 1.22066 -3.00882 0
M  V30 2710 H 249.012 -2.03392 -4.7629 0
M  V30 2711 H 245.689 0.47246 -4.14818 0
M  V30 2712 H 247.079 -3.15379 -5.93284 0
M  V30 2713 N 249.799 1.42003 -0.683588 0
M  V30 2714 C 251.048 2.00638 -0.206681 0
M  V30 2715 C 251.361 1.5472 1.19671 0
M  V30 2716 O 252.567 2.05833 1.77045 0
M  V30 2717 C 251.023 3.58487 -0.318632 0
M  V30 2718 C 250.631 4.1339 -1.72663 0
M  V30 2719 C 252.375 4.24384 0.0991141 0
M  V30 2720 C 250.282 5.63633 -1.79087 0
M  V30 2721 H 249.212 0.750408 -0.0735107 0
M  V30 2722 H 251.863 1.62624 -0.850048 0
M  V30 2723 H 250.245 3.94047 0.392781 0
M  V30 2724 H 251.419 3.89273 -2.46583 0
M  V30 2725 H 249.734 3.59976 -2.09299 0
M  V30 2726 H 252.331 5.34652 0.0713833 0
M  V30 2727 H 252.674 4.00505 1.13586 0
M  V30 2728 H 253.207 3.93816 -0.561599 0
M  V30 2729 H 249.946 5.92323 -2.80774 0
M  V30 2730 H 249.466 5.89714 -1.09535 0
M  V30 2731 H 251.145 6.28201 -1.5483 0
M  V30 2732 N 251.277 0.427512 1.51691 0
M  V30 2733 C 252.523 -0.142439 2.02299 0
M  V30 2734 C 252.856 -1.43214 1.31162 0
M  V30 2735 O 252.131 -1.89833 0.423511 0
M  V30 2736 C 252.414 -0.371301 3.58181 0
M  V30 2737 C 252.267 0.936358 4.39946 0
M  V30 2738 C 253.586 -1.14542 4.24933 0
M  V30 2739 H 250.705 -0.0502937 0.735282 0
M  V30 2740 H 253.347 0.564584 1.81418 0
M  V30 2741 H 251.497 -0.973559 3.76104 0
M  V30 2742 H 253.169 1.57184 4.33694 0
M  V30 2743 H 251.412 1.5432 4.05423 0
M  V30 2744 H 252.083 0.730388 5.47147 0
M  V30 2745 H 254.559 -0.635362 4.11221 0
M  V30 2746 H 253.435 -1.27431 5.33903 0
M  V30 2747 H 253.696 -2.17093 3.85127 0
M  V30 2748 N 252.755 -1.56801 0.158532 0
M  V30 2749 C 253.995 -1.98383 -0.49229 0
M  V30 2750 C 254.359 -1.04184 -1.61275 0
M  V30 2751 O 255.56 -1.34856 -2.32524 0
M  V30 2752 C 253.831 -3.4385 -0.974766 0
M  V30 2753 S 255.39 -4.07459 -1.62857 0
M  V30 2754 H 252.208 -0.693041 -0.158794 0
M  V30 2755 H 254.81 -1.93856 0.252974 0
M  V30 2756 H 253.514 -4.10131 -0.148688 0
M  V30 2757 H 253.045 -3.52115 -1.75438 0
M  V30 2758 H 255.06 -4.01458 -2.91627 0
M  V30 2759 N 254.233 0.115231 -1.57178 0
M  V30 2760 C 255.163 1.1423 -2.03651 0
M  V30 2761 C 256.144 1.42967 -0.921655 0
M  V30 2762 O 257.329 1.53343 -1.19162 0
M  V30 2763 C 254.459 2.4675 -2.44401 0
M  V30 2764 C 253.413 2.32467 -3.59365 0
M  V30 2765 C 252.739 3.69984 -3.86026 0
M  V30 2766 C 254.039 1.78203 -4.90959 0
M  V30 2767 H 255.733 0.755749 -2.89705 0
M  V30 2768 H 253.279 0.362093 -1.39373 0
M  V30 2769 H 255.232 3.18854 -2.75517 0
M  V30 2770 H 253.956 2.87302 -1.55322 0
M  V30 2771 H 252.615 1.62811 -3.28463 0
M  V30 2772 H 252.263 4.08028 -2.94147 0
M  V30 2773 H 251.963 3.61279 -4.63412 0
M  V30 2774 H 253.487 4.43587 -4.19599 0
M  V30 2775 H 254.901 2.40128 -5.20587 0
M  V30 2776 H 253.298 1.8031 -5.72371 0
M  V30 2777 H 254.368 0.739876 -4.79222 0
M  V30 2778 N 255.711 1.52812 0.385517 0
M  V30 2779 C 256.659 1.78482 1.49155 0
M  V30 2780 C 257.653 0.652914 1.56312 0
M  V30 2781 O 258.859 0.835464 1.59436 0
M  V30 2782 H 255.234 0.5648 0.496493 0
M  V30 2783 H 257.205 2.71095 1.24699 0
M  V30 2784 C 255.954 1.97378 2.86247 0
M  V30 2785 H 255.277 2.83907 2.81491 0
M  V30 2786 H 256.717 2.19327 3.62866 0
M  V30 2787 C 255.176 0.74728 3.28508 0
M  V30 2788 O 255.706 -0.0736232 4.01633 0
M  V30 2789 N 253.912 0.576396 2.84826 0
M  V30 2790 H 253.459 1.24555 2.25486 0
M  V30 2791 H 253.417 -0.24288 3.1346 0
M  V30 2792 N 257.189 -0.644168 1.43834 0
M  V30 2793 C 258.414 -1.43642 1.49605 0
M  V30 2794 C 258.839 -1.8773 0.117913 0
M  V30 2795 O 258.197 -1.57938 -0.890239 0
M  V30 2796 C 258.245 -2.6416 2.45463 0
M  V30 2797 O 257.349 -3.63538 1.94714 0
M  V30 2798 H 256.69 -0.430329 0.50568 0
M  V30 2799 H 259.22 -0.787448 1.8884 0
M  V30 2800 H 259.23 -3.11864 2.63068 0
M  V30 2801 H 257.905 -2.31414 3.45572 0
M  V30 2802 H 256.482 -3.2273 1.86814 0
M  V30 2803 N 258.668 -1.30515 -0.883378 0
M  V30 2804 C 259.914 -1.19607 -1.63774 0
M  V30 2805 C 260.247 0.248314 -1.92606 0
M  V30 2806 O 259.522 1.17742 -1.54813 0
M  V30 2807 C 259.805 -2.02669 -2.97653 0
M  V30 2808 C 259.658 -3.55335 -2.75784 0
M  V30 2809 C 260.977 -1.86573 -3.98596 0
M  V30 2810 H 258.096 -0.435856 -0.594305 0
M  V30 2811 H 260.738 -1.60165 -1.02212 0
M  V30 2812 H 258.888 -1.68208 -3.50197 0
M  V30 2813 H 260.56 -3.99863 -2.30016 0
M  V30 2814 H 258.803 -3.79438 -2.1026 0
M  V30 2815 H 259.474 -4.08745 -3.70988 0
M  V30 2816 H 261.95 -2.16703 -3.55217 0
M  V30 2817 H 260.826 -2.47014 -4.90179 0
M  V30 2818 H 261.087 -0.825321 -4.34328 0
M  V30 2819 N 260.146 1.09593 -1.13257 0
M  V30 2820 C 261.076 2.18214 -0.830946 0
M  V30 2821 C 262.057 1.68812 0.208966 0
M  V30 2822 O 263.242 1.9408 0.0682666 0
M  V30 2823 C 260.372 3.46051 -0.294296 0
M  V30 2824 C 259.326 4.08778 -1.26826 0
M  V30 2825 C 258.652 5.31419 -0.591449 0
M  V30 2826 C 259.952 4.51476 -2.62615 0
M  V30 2827 H 261.646 2.43703 -1.73923 0
M  V30 2828 H 259.192 1.17128 -0.837675 0
M  V30 2829 H 261.145 4.2134 -0.0709606 0
M  V30 2830 H 259.869 3.20079 0.649366 0
M  V30 2831 H 258.528 3.35505 -1.47756 0
M  V30 2832 H 258.176 5.01727 0.357633 0
M  V30 2833 H 257.876 5.74341 -1.24123 0
M  V30 2834 H 259.4 6.09433 -0.377355 0
M  V30 2835 H 260.814 5.17999 -2.45663 0
M  V30 2836 H 259.211 5.05277 -3.23752 0
M  V30 2837 H 260.281 3.63962 -3.20406 0
M  V30 2838 N 261.624 0.925811 1.2754 0
M  V30 2839 C 262.587 0.428129 2.25166 0
M  V30 2840 C 263.587 -0.452261 1.54309 0
M  V30 2841 O 264.777 -0.253608 1.72344 0
M  V30 2842 C 261.909 -0.384749 3.38722 0
M  V30 2843 H 263.102 1.29066 2.70706 0
M  V30 2844 H 260.655 0.706323 1.3943 0
M  V30 2845 H 261.39 -1.26618 2.98561 0
M  V30 2846 H 261.175 0.246454 3.91325 0
M  V30 2847 H 262.665 -0.723389 4.11287 0
M  V30 2848 N 263.102 -1.41638 0.69111 0
M  V30 2849 C 264.032 -2.3347 0.037248 0
M  V30 2850 C 265.013 -1.51575 -0.771947 0
M  V30 2851 O 266.198 -1.80126 -0.72582 0
M  V30 2852 C 263.328 -3.35354 -0.903064 0
M  V30 2853 C 262.282 -4.27526 -0.201288 0
M  V30 2854 C 261.608 -5.19747 -1.25565 0
M  V30 2855 C 262.908 -5.13959 0.929689 0
M  V30 2856 H 264.602 -2.88397 0.804227 0
M  V30 2857 H 262.148 -1.38669 0.388189 0
M  V30 2858 H 264.101 -3.98519 -1.36969 0
M  V30 2859 H 262.825 -2.78767 -1.70166 0
M  V30 2860 H 261.484 -3.65779 0.245265 0
M  V30 2861 H 261.132 -4.59479 -2.04666 0
M  V30 2862 H 260.832 -5.8225 -0.791128 0
M  V30 2863 H 262.356 -5.85789 -1.72288 0
M  V30 2864 H 263.77 -5.70718 0.543546 0
M  V30 2865 H 262.167 -5.85379 1.32103 0
M  V30 2866 H 263.237 -4.51389 1.77133 0
M  V30 2867 N 264.58 -0.43555 -1.51462 0
M  V30 2868 C 265.805 0.132627 -2.06976 0
M  V30 2869 C 266.23 1.35848 -1.30104 0
M  V30 2870 O 265.588 1.78112 -0.338493 0
M  V30 2871 C 265.636 0.43523 -3.57964 0
M  V30 2872 O 264.74 1.52198 -3.83288 0
M  V30 2873 H 264.081 0.00265 -0.663995 0
M  V30 2874 H 266.611 -0.616369 -1.95095 0
M  V30 2875 H 266.621 0.686206 -4.02188 0
M  V30 2876 H 265.296 -0.460739 -4.1334 0
M  V30 2877 H 263.873 1.2611 -3.50928 0
M  V30 2878 N 266.058 1.56714 -0.166846 0
M  V30 2879 C 267.021 2.16539 0.751232 0
M  V30 2880 C 268.021 1.11228 1.16125 0
M  V30 2881 O 269.211 1.36765 1.07894 0
M  V30 2882 C 266.343 2.74462 2.02196 0
M  V30 2883 H 267.536 2.99013 0.230499 0
M  V30 2884 H 265.089 1.56081 0.0826982 0
M  V30 2885 H 265.824 1.95709 2.58589 0
M  V30 2886 H 265.609 3.51527 1.73698 0
M  V30 2887 H 267.099 3.20489 2.67725 0
M  V30 2888 N 267.536 -0.106894 1.57237 0
M  V30 2889 C 268.785 -0.811163 1.8467 0
M  V30 2890 C 269.098 -1.80469 0.754342 0
M  V30 2891 O 270.304 -2.55601 0.915439 0
M  V30 2892 C 268.76 -1.49337 3.27454 0
M  V30 2893 C 268.368 -0.540217 4.44731 0
M  V30 2894 C 270.112 -2.18206 3.64124 0
M  V30 2895 C 268.019 -1.22634 5.78545 0
M  V30 2896 H 266.949 -0.306679 0.688813 0
M  V30 2897 H 269.6 -0.0639887 1.83388 0
M  V30 2898 H 267.982 -2.2876 3.23241 0
M  V30 2899 H 269.156 0.221659 4.60267 0
M  V30 2900 H 267.471 0.042146 4.16379 0
M  V30 2901 H 270.068 -2.70253 4.61376 0
M  V30 2902 H 270.411 -2.96562 2.92158 0
M  V30 2903 H 270.944 -1.45658 3.70174 0
M  V30 2904 H 267.683 -0.483832 6.53712 0
M  V30 2905 H 267.203 -1.95993 5.66874 0
M  V30 2906 H 268.882 -1.75615 6.2271 0
M  V30 2907 N 269.014 -1.53014 -0.377408 0
M  V30 2908 C 270.425 -1.60438 -0.954798 0
M  V30 2909 C 270.776 -0.464418 -1.90624 0
M  V30 2910 O 269.901 0.41087 -2.12464 0
M  V30 2911 C 270.496 -2.90797 -1.73847 0
M  V30 2912 C 269.055 -3.00595 -2.26538 0
M  V30 2913 C 268.202 -2.55645 -1.07429 0
M  V30 2914 H 271.153 -1.57926 -0.156575 0
M  V30 2915 H 271.174 -2.77935 -2.5987 0
M  V30 2916 H 270.686 -3.73746 -1.04574 0
M  V30 2917 H 268.787 -2.22208 -2.99089 0
M  V30 2918 H 268.9 -4.05456 -2.5523 0
M  V30 2919 H 267.264 -2.10239 -1.43777 0
M  V30 2920 H 268.047 -3.41 -0.396728 0
M  V30 2921 N 270.492 0.636531 -1.44174 0
M  V30 2922 C 271.74 1.39343 -1.46383 0
M  V30 2923 C 272.061 1.94766 -0.0955715 0
M  V30 2924 O 271.331 1.75452 0.871395 0
M  V30 2925 H 269.911 0.517199 -0.538994 0
M  V30 2926 H 272.573 0.74957 -1.7991 0
M  V30 2927 H 271.669 2.22746 -2.18611 0
M  V30 2928 N 271.97 1.30982 0.876444 0
M  V30 2929 C 272.933 1.18054 1.96459 0
M  V30 2930 C 273.933 0.109399 1.60427 0
M  V30 2931 O 275.123 0.358173 1.70478 0
M  V30 2932 C 272.255 0.810616 3.31122 0
M  V30 2933 H 273.448 2.14735 2.09354 0
M  V30 2934 H 271.001 1.145 1.06392 0
M  V30 2935 H 271.736 -0.155322 3.23928 0
M  V30 2936 H 271.521 1.58481 3.58645 0
M  V30 2937 H 273.011 0.743876 4.10921 0
M  V30 2938 N 273.449 -1.08991 1.13837 0
M  V30 2939 C 274.698 -1.80631 0.897509 0
M  V30 2940 C 275.011 -1.86872 -0.57777 0
M  V30 2941 O 276.217 -2.54866 -0.935701 0
M  V30 2942 C 274.673 -3.24517 1.55618 0
M  V30 2943 C 274.281 -3.26529 3.0673 0
M  V30 2944 C 276.025 -4.00882 1.3962 0
M  V30 2945 C 273.932 -4.64965 3.65461 0
M  V30 2946 H 272.862 -0.67691 0.332129 0
M  V30 2947 H 275.513 -1.2246 1.3666 0
M  V30 2948 H 273.895 -3.82778 1.01476 0
M  V30 2949 H 275.069 -2.78008 3.67489 0
M  V30 2950 H 273.384 -2.63656 3.22296 0
M  V30 2951 H 275.981 -5.03167 1.80906 0
M  V30 2952 H 276.324 -4.14896 0.341578 0
M  V30 2953 H 276.857 -3.49075 1.90766 0
M  V30 2954 H 273.596 -4.56153 4.70749 0
M  V30 2955 H 273.116 -5.13792 3.09481 0
M  V30 2956 H 274.795 -5.3394 3.654 0
M  V30 2957 N 274.927 -0.932562 -1.27047 0
M  V30 2958 C 276.204 -0.49377 -1.89265 0
M  V30 2959 C 276.584 1.02833 -1.8436 0
M  V30 2960 O 275.932 1.88461 -1.29209 0
M  V30 2961 C 276.142 -1.04536 -3.32976 0
M  V30 2962 C 277.49 -1.10879 -4.09867 0
M  V30 2963 O 278.514 -0.995327 -3.42011 0
M  V30 2964 O 277.373 -1.28417 -5.31198 0
M  V30 2965 H 274.467 -0.159596 -0.811454 0
M  V30 2966 H 277.013 -1.02457 -1.3528 0
M  V30 2967 H 275.785 -2.08913 -3.30864 0
M  V30 2968 H 275.408 -0.496494 -3.94488 0
M  V30 2969 N 276.405 1.4127 -0.698611 0
M  V30 2970 C 277.635 2.05205 -0.239644 0
M  V30 2971 C 278.043 1.52684 1.11733 0
M  V30 2972 O 277.386 0.671222 1.70998 0
M  V30 2973 C 277.448 3.59289 -0.123126 0
M  V30 2974 C 277.112 4.34619 -1.41263 0
M  V30 2975 C 278.109 4.63701 -2.35111 0
M  V30 2976 C 275.794 4.73837 -1.66684 0
M  V30 2977 C 277.788 5.30966 -3.52639 0
M  V30 2978 C 275.475 5.40837 -2.84498 0
M  V30 2979 C 276.473 5.69329 -3.77298 0
M  V30 2980 O 276.161 6.34949 -4.93047 0
M  V30 2981 H 275.893 0.66723 -0.108537 0
M  V30 2982 H 278.447 1.81974 -0.952602 0
M  V30 2983 H 276.677 3.81272 0.645628 0
M  V30 2984 H 278.366 4.04797 0.299056 0
M  V30 2985 H 279.132 4.33882 -2.16729 0
M  V30 2986 H 275.011 4.51039 -0.953135 0
M  V30 2987 H 278.555 5.53121 -4.25091 0
M  V30 2988 H 274.452 5.70075 -3.02795 0
M  V30 2989 H 275.22 6.53445 -4.92902 0
M  V30 2990 N 277.883 0.443576 1.51229 0
M  V30 2991 C 279.123 -0.119889 2.04048 0
M  V30 2992 C 279.487 -1.39418 1.32009 0
M  V30 2993 O 280.688 -2.03829 1.75235 0
M  V30 2994 C 278.959 -0.327233 3.55899 0
M  V30 2995 S 280.518 -0.853208 4.30425 0
M  V30 2996 H 277.336 -0.028921 0.710412 0
M  V30 2997 H 279.938 0.604413 1.85922 0
M  V30 2998 H 278.642 0.606445 4.05895 0
M  V30 2999 H 278.173 -1.07844 3.7833 0
M  V30 3000 H 280.188 -2.13005 4.48155 0
M  V30 3001 N 279.361 -1.56624 0.175154 0
M  V30 3002 C 280.589 -2.01374 -0.474971 0
M  V30 3003 C 281.004 -1.05537 -1.56548 0
M  V30 3004 O 280.361 -0.0568668 -1.82411 0
M  V30 3005 C 280.412 -3.45923 -1.04975 0
M  V30 3006 O 280.133 -4.381 -0.00276605 0
M  V30 3007 C 281.634 -4.06093 -1.77773 0
M  V30 3008 H 278.854 -0.659962 -0.121206 0
M  V30 3009 H 281.398 -2.02601 0.27801 0
M  V30 3010 H 279.553 -3.45458 -1.75321 0
M  V30 3011 H 279.967 -5.22753 -0.427681 0
M  V30 3012 H 281.441 -5.09147 -2.13245 0
M  V30 3013 H 281.918 -3.48405 -2.67414 0
M  V30 3014 H 282.524 -4.10272 -1.12059 0
M  V30 3015 N 280.839 0.0985539 -1.57292 0
M  V30 3016 C 282.064 0.820196 -1.90493 0
M  V30 3017 C 282.489 1.71658 -0.769094 0
M  V30 3018 O 281.847 1.79133 0.279495 0
M  V30 3019 C 281.895 1.61242 -3.22542 0
M  V30 3020 O 280.999 2.72108 -3.09888 0
M  V30 3021 H 280.34 0.225547 -0.62452 0
M  V30 3022 H 282.87 0.0748159 -2.04463 0
M  V30 3023 H 282.88 1.99737 -3.55766 0
M  V30 3024 H 281.555 0.954535 -4.04798 0
M  V30 3025 H 280.132 2.36667 -2.88172 0
M  V30 3026 N 282.317 1.53212 0.369288 0
M  V30 3027 C 283.264 1.79388 1.45219 0
M  V30 3028 C 284.234 0.638059 1.53356 0
M  V30 3029 O 285.419 0.879852 1.69302 0
M  V30 3030 C 282.559 1.98623 2.82211 0
M  V30 3031 C 281.672 3.26337 2.8307 0
M  V30 3032 C 280.807 3.35779 4.11614 0
M  V30 3033 C 279.846 4.5754 4.06601 0
M  V30 3034 N 278.983 4.64155 5.26787 0
M  V30 3035 H 283.823 2.71794 1.22198 0
M  V30 3036 H 281.36 1.34642 0.592444 0
M  V30 3037 H 283.318 2.07761 3.61789 0
M  V30 3038 H 281.948 1.09558 3.03639 0
M  V30 3039 H 281 3.26171 1.95747 0
M  V30 3040 H 282.312 4.15988 2.75237 0
M  V30 3041 H 281.466 3.44208 4.99606 0
M  V30 3042 H 280.205 2.44137 4.22195 0
M  V30 3043 H 279.21 4.49215 3.16996 0
M  V30 3044 H 280.435 5.50519 3.97625 0
M  V30 3045 H 278.381 3.75413 5.3796 0
M  V30 3046 H 278.298 5.47706 5.21109 0
M  V30 3047 H 279.566 4.76863 6.16621 0
M  V30 3048 N 283.795 -0.628877 1.44509 0
M  V30 3049 C 284.758 -1.72263 1.51188 0
M  V30 3050 C 285.758 -1.55907 0.39367 0
M  V30 3051 O 286.948 -1.61361 0.656377 0
M  V30 3052 C 284.08 -3.11365 1.38798 0
M  V30 3053 H 285.273 -1.67714 2.4862 0
M  V30 3054 H 282.826 -0.842737 1.31634 0
M  V30 3055 H 283.561 -3.21507 0.424693 0
M  V30 3056 H 283.346 -3.24644 2.19884 0
M  V30 3057 H 284.836 -3.91075 1.46458 0
M  V30 3058 N 285.273 -1.31445 -0.869486 0
M  V30 3059 C 286.498 -1.24256 -1.66058 0
M  V30 3060 C 286.923 0.188928 -1.87149 0
M  V30 3061 O 286.281 1.13522 -1.4136 0
M  V30 3062 C 286.329 -1.9924 -3.00559 0
M  V30 3063 O 285.433 -1.33007 -3.90362 0
M  V30 3064 H 284.774 -0.428973 -0.506831 0
M  V30 3065 H 287.304 -1.73521 -1.08404 0
M  V30 3066 H 287.314 -2.08854 -3.50491 0
M  V30 3067 H 285.989 -3.03342 -2.84528 0
M  V30 3068 H 284.566 -1.31848 -3.48813 0
M  V30 3069 N 286.751 1.08385 -1.14413 0
M  V30 3070 C 287.714 2.13486 -0.834048 0
M  V30 3071 C 288.714 1.59988 0.161418 0
M  V30 3072 O 289.904 1.74071 -0.0669575 0
M  V30 3073 C 287.036 3.4003 -0.243354 0
M  V30 3074 H 288.229 2.42425 -1.7655 0
M  V30 3075 H 285.782 1.24101 -0.950189 0
M  V30 3076 H 286.517 3.16726 0.696807 0
M  V30 3077 H 286.302 3.80157 -0.960367 0
M  V30 3078 H 287.792 4.17577 -0.0436242 0
M  V30 3079 N 288.23 0.939286 1.26551 0
M  V30 3080 C 289.477 0.585847 1.9384 0
M  V30 3081 C 289.805 -0.874784 1.73718 0
M  V30 3082 O 289.06 -1.64092 1.06642 0
M  V30 3083 C 289.359 0.872106 3.46596 0
M  V30 3084 C 289.025 2.31632 3.86856 0
M  V30 3085 C 287.687 2.71111 3.97558 0
M  V30 3086 C 290.039 3.25494 4.07066 0
M  V30 3087 C 287.367 4.03553 4.25866 0
M  V30 3088 C 289.719 4.57531 4.36862 0
M  V30 3089 C 288.383 4.96828 4.45778 0
M  V30 3090 H 287.653 0.214377 0.709312 0
M  V30 3091 H 290.3 1.18544 1.50398 0
M  V30 3092 H 288.605 0.18996 3.91339 0
M  V30 3093 H 290.302 0.577442 3.96821 0
M  V30 3094 H 286.892 2.00008 3.79071 0
M  V30 3095 H 291.076 2.9619 3.98227 0
M  V30 3096 H 286.332 4.33665 4.30981 0
M  V30 3097 H 290.506 5.30254 4.51446 0
M  V30 3098 H 288.133 5.99482 4.67468 0
M  V30 3099 N 289.708 -1.40897 0.706093 0
M  V30 3100 C 290.671 -2.29131 0.0562841 0
M  V30 3101 C 291.671 -1.44901 -0.697166 0
M  V30 3102 O 292.861 -1.65926 -0.530484 0
M  V30 3103 C 289.993 -3.27957 -0.93043 0
M  V30 3104 H 291.186 -2.88091 0.833284 0
M  V30 3105 H 288.739 -1.4906 0.470192 0
M  V30 3106 H 289.474 -2.73997 -1.73482 0
M  V30 3107 H 289.259 -3.90124 -0.393166 0
M  V30 3108 H 290.749 -3.94049 -1.38256 0
M  V30 3109 N 291.186 -0.45159 -1.50991 0
M  V30 3110 C 292.433 0.110074 -2.02201 0
M  V30 3111 C 292.761 1.4146 -1.33489 0
M  V30 3112 O 292.016 1.90617 -0.443125 0
M  V30 3113 C 292.315 0.361728 -3.55565 0
M  V30 3114 C 291.981 -0.858717 -4.42648 0
M  V30 3115 C 290.643 -1.19338 -4.66167 0
M  V30 3116 C 292.995 -1.67221 -4.93646 0
M  V30 3117 C 290.323 -2.34195 -5.37931 0
M  V30 3118 C 292.675 -2.8119 -5.6667 0
M  V30 3119 C 291.339 -3.15094 -5.88449 0
M  V30 3120 H 290.609 0.040279 -0.739904 0
M  V30 3121 H 293.256 -0.601696 -1.81802 0
M  V30 3122 H 291.561 1.15554 -3.74372 0
M  V30 3123 H 293.258 0.80996 -3.92735 0
M  V30 3124 H 289.848 -0.58796 -4.24548 0
M  V30 3125 H 294.032 -1.42686 -4.75347 0
M  V30 3126 H 289.288 -2.6076 -5.53005 0
M  V30 3127 H 293.462 -3.44585 -6.05173 0
M  V30 3128 H 291.089 -4.04204 -6.43835 0
M  V30 3129 N 292.664 1.56529 -0.183458 0
M  V30 3130 C 293.597 2.14417 0.781052 0
M  V30 3131 C 294.575 1.07761 1.21763 0
M  V30 3132 O 295.759 1.35807 1.30724 0
M  V30 3133 C 292.886 2.69361 2.05335 0
M  V30 3134 C 291.932 3.885 1.75982 0
M  V30 3135 S 292.765 5.27568 0.918256 0
M  V30 3136 C 293.921 5.85926 2.20095 0
M  V30 3137 H 294.154 2.95893 0.2889 0
M  V30 3138 H 291.687 1.54368 0.0313844 0
M  V30 3139 H 293.645 3.01662 2.78406 0
M  V30 3140 H 292.306 1.87949 2.51663 0
M  V30 3141 H 291.499 4.25314 2.70415 0
M  V30 3142 H 291.101 3.57149 1.10999 0
M  V30 3143 H 293.393 5.99579 3.15453 0
M  V30 3144 H 294.336 6.82761 1.87731 0
M  V30 3145 H 294.744 5.14438 2.32409 0
M  V30 3146 N 294.142 -0.090211 1.57342 0
M  V30 3147 C 295.052 -1.12735 2.05738 0
M  V30 3148 C 296.068 -1.43557 0.983231 0
M  V30 3149 O 297.244 -1.54101 1.29672 0
M  V30 3150 C 294.309 -2.42659 2.47624 0
M  V30 3151 C 293.37 -2.18975 3.69254 0
M  V30 3152 C 292.603 -3.42704 4.09133 0
M  V30 3153 O 292.826 -4.51127 3.49057 0
M  V30 3154 O 291.76 -3.32003 5.02053 0
M  V30 3155 H 295.586 -0.746279 2.94388 0
M  V30 3156 H 293.171 -0.303064 1.46294 0
M  V30 3157 H 295.053 -3.19155 2.7517 0
M  V30 3158 H 293.728 -2.80182 1.62109 0
M  V30 3159 H 292.635 -1.40244 3.46818 0
M  V30 3160 H 293.968 -1.86342 4.55563 0
M  V30 3161 N 295.62 -1.53406 -0.361157 0
M  V30 3162 C 296.845 -1.74024 -1.12829 0
M  V30 3163 C 297.27 -0.470069 -1.82132 0
M  V30 3164 O 296.628 0.57619 -1.719 0
M  V30 3165 C 296.676 -2.90903 -2.13091 0
M  V30 3166 O 295.78 -2.59821 -3.20261 0
M  V30 3167 H 295.121 -0.577804 -0.327168 0
M  V30 3168 H 297.651 -2.00307 -0.41693 0
M  V30 3169 H 297.661 -3.17194 -2.56616 0
M  V30 3170 H 296.336 -3.83034 -1.62042 0
M  V30 3171 H 294.913 -2.44362 -2.81677 0
M  V30 3172 N 297.098 0.621204 -1.44841 0
M  V30 3173 C 298.028 1.74366 -1.55303 0
M  V30 3174 C 299.009 1.65199 -0.405385 0
M  V30 3175 O 300.194 1.83807 -0.626787 0
M  V30 3176 C 297.324 3.12931 -1.50637 0
M  V30 3177 C 296.278 3.36896 -2.63979 0
M  V30 3178 C 295.604 4.75594 -2.44366 0
M  V30 3179 C 296.904 3.28483 -4.06074 0
M  V30 3180 H 298.598 1.65867 -2.49256 0
M  V30 3181 H 296.144 0.796558 -1.19962 0
M  V30 3182 H 298.097 3.9124 -1.56555 0
M  V30 3183 H 296.821 3.22237 -0.532057 0
M  V30 3184 H 295.48 2.60972 -2.57467 0
M  V30 3185 H 295.128 4.81616 -1.45105 0
M  V30 3186 H 294.828 4.92586 -3.20364 0
M  V30 3187 H 296.352 5.5612 -2.52117 0
M  V30 3188 H 297.766 3.96684 -4.13902 0
M  V30 3189 H 296.163 3.57008 -4.82354 0
M  V30 3190 H 297.233 2.26133 -4.28943 0
M  V30 3191 N 298.576 1.31904 0.862503 0
M  V30 3192 C 299.804 1.24998 1.64873 0
M  V30 3193 C 300.219 -0.183425 1.87907 0
M  V30 3194 O 299.576 -1.11794 1.44251 0
M  V30 3195 C 299.627 1.99829 3.01248 0
M  V30 3196 O 299.348 3.37575 2.79239 0
M  V30 3197 C 300.849 1.99852 3.95694 0
M  V30 3198 H 298.069 0.431599 0.513773 0
M  V30 3199 H 300.613 1.73901 1.07604 0
M  V30 3200 H 298.768 1.54668 3.55185 0
M  V30 3201 H 299.182 3.75776 3.65914 0
M  V30 3202 H 300.656 2.56709 4.88676 0
M  V30 3203 H 301.133 0.982852 4.28062 0
M  V30 3204 H 301.739 2.44926 3.47694 0
M  V30 3205 N 300.054 -1.07777 1.14986 0
M  V30 3206 C 300.984 -2.16865 0.865557 0
M  V30 3207 C 301.965 -1.69123 -0.182083 0
M  V30 3208 O 303.15 -1.94164 -0.0373815 0
M  V30 3209 C 300.28 -3.45539 0.349313 0
M  V30 3210 C 299.234 -4.06708 1.33313 0
M  V30 3211 C 298.56 -5.30411 0.675918 0
M  V30 3212 C 299.86 -4.47241 2.69764 0
M  V30 3213 H 301.554 -2.40905 1.77778 0
M  V30 3214 H 299.1 -1.15781 0.856203 0
M  V30 3215 H 301.053 -4.21174 0.137983 0
M  V30 3216 H 299.777 -3.21072 -0.598362 0
M  V30 3217 H 298.436 -3.33112 1.53075 0
M  V30 3218 H 298.084 -5.02232 -0.277767 0
M  V30 3219 H 297.784 -5.72293 1.33244 0
M  V30 3220 H 299.308 -6.08755 0.474262 0
M  V30 3221 H 300.722 -5.14025 2.53873 0
M  V30 3222 H 299.119 -5.00062 3.3175 0
M  V30 3223 H 300.189 -3.58818 3.26156 0
M  V30 3224 N 301.532 -0.945985 -1.26051 0
M  V30 3225 C 302.78 -0.594941 -1.93145 0
M  V30 3226 C 303.101 0.86953 -1.7454 0
M  V30 3227 O 302.371 1.61838 -1.10387 0
M  V30 3228 H 300.951 -0.217044 -0.714773 0
M  V30 3229 H 303.613 -1.20235 -1.53393 0
M  V30 3230 H 302.709 -0.816835 -3.01221 0
M  V30 3231 N 303.011 1.40521 -0.713556 0
M  V30 3232 C 303.941 2.33381 -0.0743864 0
M  V30 3233 C 304.922 1.52784 0.747735 0
M  V30 3234 O 306.107 1.81258 0.697071 0
M  V30 3235 C 303.237 3.36748 0.849598 0
M  V30 3236 C 302.191 4.27793 0.133247 0
M  V30 3237 C 301.517 5.21679 1.17281 0
M  V30 3238 C 302.817 5.12415 -1.01134 0
M  V30 3239 H 304.511 2.87081 -0.850007 0
M  V30 3240 H 302.057 1.38034 -0.410201 0
M  V30 3241 H 304.01 4.00648 1.30612 0
M  V30 3242 H 302.734 2.81439 1.65709 0
M  V30 3243 H 301.393 3.65342 -0.303426 0
M  V30 3244 H 301.041 4.62677 1.9733 0
M  V30 3245 H 300.741 5.83435 0.698397 0
M  V30 3246 H 302.265 5.88456 1.62947 0
M  V30 3247 H 303.679 5.69781 -0.634274 0
M  V30 3248 H 302.076 5.83203 -1.41399 0
M  V30 3249 H 303.146 4.48514 -1.84292 0
M  V30 3250 N 304.489 0.459591 1.5075 0
M  V30 3251 C 305.419 -0.330644 2.31147 0
M  V30 3252 C 306.4 -1.00087 1.37538 0
M  V30 3253 O 307.585 -1.00025 1.66459 0
M  V30 3254 C 304.715 -1.41958 3.16962 0
M  V30 3255 C 303.669 -0.871608 4.19031 0
M  V30 3256 C 302.995 -2.05797 4.9351 0
M  V30 3257 C 304.295 0.109251 5.22186 0
M  V30 3258 H 305.989 0.340336 2.97459 0
M  V30 3259 H 303.535 0.165119 1.4305 0
M  V30 3260 H 305.488 -1.9798 3.71997 0
M  V30 3261 H 304.212 -2.11917 2.48513 0
M  V30 3262 H 302.871 -0.333442 3.6508 0
M  V30 3263 H 302.519 -2.74427 4.21544 0
M  V30 3264 H 302.219 -1.6976 5.62544 0
M  V30 3265 H 303.743 -2.62331 5.51375 0
M  V30 3266 H 305.157 -0.361405 5.7216 0
M  V30 3267 H 303.554 0.383316 5.98875 0
M  V30 3268 H 304.624 1.03887 4.73641 0
M  V30 3269 N 305.967 -1.56429 0.191757 0
M  V30 3270 C 307.244 -1.89224 -0.495332 0
M  V30 3271 C 307.624 -1.10478 -1.79883 0
M  V30 3272 O 306.972 -0.204852 -2.2758 0
M  V30 3273 C 307.182 -3.41548 -0.717367 0
M  V30 3274 C 308.53 -4.11711 -1.03823 0
M  V30 3275 O 309.554 -3.4698 -0.805204 0
M  V30 3276 O 308.413 -5.2611 -1.47887 0
M  V30 3277 H 305.507 -0.785788 -0.25781 0
M  V30 3278 H 308.053 -1.68111 0.231721 0
M  V30 3279 H 306.825 -3.90772 0.203287 0
M  V30 3280 H 306.448 -3.68342 -1.497 0
M  V30 3281 N 307.445 0.0818655 -1.57387 0
M  V30 3282 C 308.685 0.788375 -1.88584 0
M  V30 3283 C 309.049 1.75248 -0.784351 0
M  V30 3284 O 310.25 2.50334 -0.979105 0
M  V30 3285 C 308.521 1.48654 -3.25018 0
M  V30 3286 S 310.08 2.22951 -3.7794 0
M  V30 3287 H 306.898 0.262383 -0.660815 0
M  V30 3288 H 309.5 0.0448995 -1.95448 0
M  V30 3289 H 308.204 0.770919 -4.03094 0
M  V30 3290 H 307.735 2.26965 -3.21326 0
M  V30 3291 H 309.75 3.49309 -3.52417 0
M  V30 3292 N 308.923 1.53595 0.353017 0
M  V30 3293 C 310.334 1.61937 0.929153 0
M  V30 3294 C 310.685 0.494686 1.89861 0
M  V30 3295 O 309.81 -0.377017 2.1309 0
M  V30 3296 C 310.405 2.93526 1.69199 0
M  V30 3297 C 308.964 3.04161 2.21727 0
M  V30 3298 C 308.111 2.57322 1.03348 0
M  V30 3299 H 311.062 1.58155 0.131431 0
M  V30 3300 H 311.083 2.82034 2.55416 0
M  V30 3301 H 310.595 3.75362 0.986144 0
M  V30 3302 H 308.696 2.26938 2.95516 0
M  V30 3303 H 308.809 4.09465 2.48748 0
M  V30 3304 H 307.173 2.12499 1.40414 0
M  V30 3305 H 307.956 3.41588 0.342428 0
M  V30 3306 N 310.401 -0.613514 1.45168 0
M  V30 3307 C 311.649 -1.36997 1.48581 0
M  V30 3308 C 311.97 -1.94589 0.126545 0
M  V30 3309 O 311.24 -1.76816 -0.843372 0
M  V30 3310 H 309.82 -0.508558 0.547154 0
M  V30 3311 H 312.482 -0.720853 1.81079 0
M  V30 3312 H 311.578 -2.1924 2.22127 0
M  V30 3313 N 311.879 -1.3236 -0.855495 0
M  V30 3314 C 313.125 -1.23054 -1.612 0
M  V30 3315 C 313.458 0.207404 -1.93089 0
M  V30 3316 O 312.733 1.14432 -1.57275 0
M  V30 3317 C 313.016 -2.08937 -2.93287 0
M  V30 3318 C 312.869 -3.61105 -2.68185 0
M  V30 3319 C 314.188 -1.94986 -3.94549 0
M  V30 3320 H 311.307 -0.448364 -0.584926 0
M  V30 3321 H 313.949 -1.62297 -0.987917 0
M  V30 3322 H 312.099 -1.75599 -3.46551 0
M  V30 3323 H 313.771 -4.04652 -2.21483 0
M  V30 3324 H 312.014 -3.83813 -2.02164 0
M  V30 3325 H 312.685 -4.16522 -3.62234 0
M  V30 3326 H 315.161 -2.24189 -3.5054 0
M  V30 3327 H 314.037 -2.57356 -4.84829 0
M  V30 3328 H 314.298 -0.917263 -4.3248 0
M  V30 3329 N 313.357 1.07166 -1.15556 0
M  V30 3330 C 314.582 1.84053 -0.955988 0
M  V30 3331 C 315.007 1.81586 0.490739 0
M  V30 3332 O 314.365 1.21018 1.34997 0
M  V30 3333 C 314.413 3.28957 -1.47714 0
M  V30 3334 O 313.517 4.06795 -0.677593 0
M  V30 3335 H 312.858 0.569842 -0.340847 0
M  V30 3336 H 315.388 1.35178 -1.53584 0
M  V30 3337 H 315.398 3.79788 -1.4908 0
M  V30 3338 H 314.073 3.30068 -2.53037 0
M  V30 3339 H 312.65 3.6561 -0.733721 0
M  V30 3340 N 314.835 0.952656 1.25548 0
M  V30 3341 C 315.798 0.475794 2.24207 0
M  V30 3342 C 316.798 -0.419428 1.55234 0
M  V30 3343 O 317.988 -0.216994 1.72843 0
M  V30 3344 C 315.12 -0.312814 3.39462 0
M  V30 3345 H 316.313 1.34779 2.67908 0
M  V30 3346 H 313.866 0.735739 1.37901 0
M  V30 3347 H 314.601 -1.20257 3.01179 0
M  V30 3348 H 314.386 0.329404 3.90714 0
M  V30 3349 H 315.876 -0.635986 4.12729 0
M  V30 3350 N 316.313 -1.40141 0.720998 0
M  V30 3351 C 317.541 -2.05096 0.272656 0
M  V30 3352 C 317.956 -1.54334 -1.0875 0
M  V30 3353 O 317.313 -0.702211 -1.6845 0
M  V30 3354 C 317.364 -3.60636 0.249835 0
M  V30 3355 O 317.085 -4.09526 1.55629 0
M  V30 3356 C 318.586 -4.42772 -0.216396 0
M  V30 3357 H 315.806 -0.659897 0.121558 0
M  V30 3358 H 318.35 -1.79449 0.980723 0
M  V30 3359 H 316.505 -3.85232 -0.409237 0
M  V30 3360 H 316.919 -5.03758 1.4604 0
M  V30 3361 H 318.393 -5.51702 -0.181212 0
M  V30 3362 H 318.87 -4.20756 -1.25941 0
M  V30 3363 H 319.476 -4.23294 0.412596 0
M  V30 3364 N 317.792 -0.46758 -1.50504 0
M  V30 3365 C 319.02 0.0864133 -2.06719 0
M  V30 3366 C 319.435 1.33819 -1.33184 0
M  V30 3367 O 318.792 1.78061 -0.400083 0
M  V30 3368 C 318.843 0.378079 -3.59517 0
M  V30 3369 O 318.564 -0.824044 -4.3028 0
M  V30 3370 C 320.065 0.979426 -4.32345 0
M  V30 3371 H 317.285 -0.00551697 -0.670977 0
M  V30 3372 H 319.829 -0.655354 -1.93715 0
M  V30 3373 H 317.984 1.06977 -3.72337 0
M  V30 3374 H 318.398 -0.566518 -5.21432 0
M  V30 3375 H 319.872 1.1333 -5.40241 0
M  V30 3376 H 320.349 1.9686 -3.9261 0
M  V30 3377 H 320.955 0.326216 -4.24047 0
M  V30 3378 N 319.27 1.56325 -0.20005 0
M  V30 3379 C 320.516 1.98012 0.438059 0
M  V30 3380 C 320.849 1.08702 1.60927 0
M  V30 3381 O 320.124 0.140064 1.93995 0
M  V30 3382 C 320.407 3.48841 0.893419 0
M  V30 3383 C 320.26 4.48928 -0.279947 0
M  V30 3384 C 321.579 4.03498 1.75719 0
M  V30 3385 H 318.698 0.719918 0.157757 0
M  V30 3386 H 321.34 1.87743 -0.291968 0
M  V30 3387 H 319.49 3.57723 1.51547 0
M  V30 3388 H 321.162 4.52079 -0.91772 0
M  V30 3389 H 319.405 4.23694 -0.930919 0
M  V30 3390 H 320.076 5.5194 0.0812601 0
M  V30 3391 H 322.552 3.97427 1.23253 0
M  V30 3392 H 321.428 5.09393 2.04476 0
M  V30 3393 H 321.689 3.4906 2.71311 0
M  V30 3394 N 320.748 -0.0735177 1.57428 0
M  V30 3395 C 321.678 -1.0879 2.06608 0
M  V30 3396 C 322.659 -1.40473 0.959237 0
M  V30 3397 O 323.844 -1.5013 1.23185 0
M  V30 3398 C 320.974 -2.40183 2.50857 0
M  V30 3399 C 319.928 -2.22858 3.65402 0
M  V30 3400 C 319.254 -3.59619 3.957 0
M  V30 3401 C 320.554 -1.65123 4.95511 0
M  V30 3402 H 322.248 -0.678673 2.91607 0
M  V30 3403 H 319.794 -0.325013 1.40284 0
M  V30 3404 H 321.747 -3.11437 2.83874 0
M  V30 3405 H 320.471 -2.83083 1.62885 0
M  V30 3406 H 319.13 -1.54045 3.32664 0
M  V30 3407 H 318.778 -4.00086 3.04861 0
M  V30 3408 H 318.478 -3.48866 4.72828 0
M  V30 3409 H 320.002 -4.32306 4.31212 0
M  V30 3410 H 321.416 -2.26241 5.26771 0
M  V30 3411 H 319.813 -1.65071 5.7695 0
M  V30 3412 H 320.883 -0.612559 4.81015 0
M  V30 3413 N 322.226 -1.5378 -0.344866 0
M  V30 3414 C 323.637 -1.62428 -0.920552 0
M  V30 3415 C 323.988 -0.504747 -1.89596 0
M  V30 3416 O 323.113 0.365711 -2.13287 0
M  V30 3417 C 323.708 -2.94419 -1.67639 0
M  V30 3418 C 322.267 -3.05333 -2.20111 0
M  V30 3419 C 321.414 -2.57866 -1.01982 0
M  V30 3420 H 324.365 -1.58222 -0.123042 0
M  V30 3421 H 324.386 -2.83384 -2.53917 0
M  V30 3422 H 323.898 -3.7588 -0.966224 0
M  V30 3423 H 321.999 -2.28502 -2.94308 0
M  V30 3424 H 322.112 -4.10778 -2.46573 0
M  V30 3425 H 320.476 -2.13241 -1.39285 0
M  V30 3426 H 321.259 -3.41765 -0.324308 0
M  V30 3427 N 323.704 0.605807 -1.45491 0
M  V30 3428 C 324.951 1.36476 -1.49601 0
M  V30 3429 C 325.279 1.94007 -0.138452 0
M  V30 3430 O 324.534 1.75638 0.863114 0
M  V30 3431 C 324.833 2.53012 -2.52428 0
M  V30 3432 C 324.499 2.13617 -3.97087 0
M  V30 3433 C 323.161 2.02587 -4.36477 0
M  V30 3434 C 325.513 1.82899 -4.88055 0
M  V30 3435 C 322.841 1.59064 -5.64726 0
M  V30 3436 C 325.193 1.40861 -6.16718 0
M  V30 3437 C 323.857 1.28391 -6.55036 0
M  V30 3438 H 323.127 0.499402 -0.547429 0
M  V30 3439 H 325.774 0.684546 -1.78847 0
M  V30 3440 H 324.079 3.26379 -2.16758 0
M  V30 3441 H 325.776 3.1124 -2.52845 0
M  V30 3442 H 322.366 2.23129 -3.65939 0
M  V30 3443 H 326.55 1.90317 -4.58359 0
M  V30 3444 H 321.806 1.48034 -5.93208 0
M  V30 3445 H 325.98 1.16138 -6.86648 0
M  V30 3446 H 323.607 0.944403 -7.54311 0
M  V30 3447 N 325.182 1.32811 0.848464 0
M  V30 3448 C 326.132 1.18842 1.94578 0
M  V30 3449 C 327.116 0.0937517 1.60627 0
M  V30 3450 O 328.308 0.320887 1.74067 0
M  V30 3451 C 325.437 0.91999 3.30743 0
M  V30 3452 C 324.523 2.05665 3.70894 0
M  V30 3453 N 324.914 3.30579 3.8282 0
M  V30 3454 C 323.212 1.9612 4.00566 0
M  V30 3455 C 323.913 4.05067 4.17487 0
M  V30 3456 N 322.889 3.33419 4.2934 0
M  V30 3457 H 326.691 2.13536 2.0194 0
M  V30 3458 H 324.205 1.2468 1.0406 0
M  V30 3459 H 326.202 0.800859 4.09136 0
M  V30 3460 H 324.862 -0.0185076 3.24695 0
M  V30 3461 H 325.873 3.65441 3.66978 0
M  V30 3462 H 322.55 1.09871 4.02784 0
M  V30 3463 H 323.94 5.12815 4.34131 0
M  V30 3464 N 326.66 -1.06551 1.16123 0
M  V30 3465 C 327.888 -1.83005 0.965237 0
M  V30 3466 C 328.303 -1.82423 -0.486542 0
M  V30 3467 O 327.66 -1.24152 -1.33763 0
M  V30 3468 C 327.711 -3.29733 1.48183 0
M  V30 3469 O 327.432 -3.30416 2.87674 0
M  V30 3470 C 328.933 -4.22926 1.32848 0
M  V30 3471 H 326.153 -0.577118 0.342309 0
M  V30 3472 H 328.697 -1.3445 1.54089 0
M  V30 3473 H 326.852 -3.75609 0.948517 0
M  V30 3474 H 327.266 -4.22149 3.11272 0
M  V30 3475 H 328.74 -5.23916 1.73827 0
M  V30 3476 H 329.217 -4.38346 0.273692 0
M  V30 3477 H 329.823 -3.82894 1.85127 0
M  V30 3478 N 328.138 -0.959301 -1.25041 0
M  V30 3479 C 329.363 -0.633507 -1.97488 0
M  V30 3480 C 329.788 0.788555 -1.70773 0
M  V30 3481 O 329.146 1.53394 -0.966431 0
M  V30 3482 C 329.194 -0.904057 -3.49083 0
M  V30 3483 O 328.298 0.0147939 -4.12397 0
M  V30 3484 H 327.639 -0.240368 -0.618966 0
M  V30 3485 H 330.169 -1.28717 -1.59038 0
M  V30 3486 H 330.179 -0.832203 -3.99423 0
M  V30 3487 H 328.854 -1.94048 -3.67856 0
M  V30 3488 H 327.431 -0.109664 -3.72739 0
M  V30 3489 N 329.616 1.39756 -0.72842 0
M  V30 3490 C 330.844 2.04948 -0.283528 0
M  V30 3491 C 331.259 1.54908 1.0793 0
M  V30 3492 O 330.616 0.711135 1.68075 0
M  V30 3493 C 330.667 3.60498 -0.268957 0
M  V30 3494 O 330.388 4.08695 -1.57798 0
M  V30 3495 C 331.889 4.4288 0.192912 0
M  V30 3496 H 329.109 0.659243 -0.125056 0
M  V30 3497 H 331.653 1.78927 -0.990226 0
M  V30 3498 H 329.808 3.85444 0.388801 0
M  V30 3499 H 330.222 5.02977 -1.48709 0
M  V30 3500 H 331.696 5.51791 0.151952 0
M  V30 3501 H 332.173 4.21418 1.23708 0
M  V30 3502 H 332.779 4.23069 -0.435039 0
M  V30 3503 N 331.094 0.475555 1.50254 0
M  V30 3504 C 332.004 -0.321501 2.32387 0
M  V30 3505 C 333.02 -0.991755 1.42969 0
M  V30 3506 O 334.196 -0.978747 1.76018 0
M  V30 3507 C 331.261 -1.38667 3.17762 0
M  V30 3508 C 330.322 -0.732538 4.23004 0
M  V30 3509 C 329.555 -1.74695 5.04299 0
M  V30 3510 O 329.778 -2.97399 4.86734 0
M  V30 3511 O 328.712 -1.31631 5.8733 0
M  V30 3512 H 332.538 0.350071 3.01676 0
M  V30 3513 H 330.123 0.237321 1.47503 0
M  V30 3514 H 332.005 -2.00354 3.70724 0
M  V30 3515 H 330.68 -2.04163 2.51196 0
M  V30 3516 H 329.587 -0.0765902 3.74022 0
M  V30 3517 H 330.92 -0.120452 4.92053 0
M  V30 3518 N 332.573 -1.56217 0.208337 0
M  V30 3519 C 333.506 -2.15633 -0.746842 0
M  V30 3520 C 334.484 -1.09685 -1.20034 0
M  V30 3521 O 335.668 -1.3787 -1.28547 0
M  V30 3522 C 332.795 -2.72594 -2.01023 0
M  V30 3523 C 331.841 -3.91251 -1.69779 0
M  V30 3524 S 332.674 -5.28962 -0.834209 0
M  V30 3525 C 333.83 -5.89353 -2.10745 0
M  V30 3526 H 334.063 -2.96315 -0.241789 0
M  V30 3527 H 331.596 -1.54398 -0.00682183 0
M  V30 3528 H 333.554 -3.06053 -2.73572 0
M  V30 3529 H 332.215 -1.91929 -2.48641 0
M  V30 3530 H 331.408 -4.29562 -2.63614 0
M  V30 3531 H 331.01 -3.58869 -1.05303 0
M  V30 3532 H 333.302 -6.04522 -3.05875 0
M  V30 3533 H 334.245 -6.85661 -1.76845 0
M  V30 3534 H 334.653 -5.1807 -2.24196 0
M  V30 3535 N 334.051 0.0651679 -1.57465 0
M  V30 3536 C 335.298 0.763063 -1.87573 0
M  V30 3537 C 335.626 1.77242 -0.800961 0
M  V30 3538 O 334.881 1.94651 0.202316 0
M  V30 3539 C 335.18 1.50081 -3.24362 0
M  V30 3540 C 334.846 0.630816 -4.46466 0
M  V30 3541 C 333.508 0.391082 -4.79608 0
M  V30 3542 C 335.86 0.0279465 -5.21193 0
M  V30 3543 C 333.188 -0.460894 -5.84887 0
M  V30 3544 C 335.54 -0.811522 -6.27373 0
M  V30 3545 C 334.204 -1.06106 -6.59013 0
M  V30 3546 H 333.474 0.279224 -0.686378 0
M  V30 3547 H 336.121 0.0236726 -1.91485 0
M  V30 3548 H 334.426 2.31258 -3.16271 0
M  V30 3549 H 336.123 2.04571 -3.44894 0
M  V30 3550 H 332.713 0.8278 -4.2053 0
M  V30 3551 H 336.897 0.200262 -4.95896 0
M  V30 3552 H 332.153 -0.662907 -6.07796 0
M  V30 3553 H 336.327 -1.28537 -6.84435 0
M  V30 3554 H 333.954 -1.723 -7.40417 0
M  V30 3555 N 335.529 1.53961 0.336706 0
M  V30 3556 C 336.461 1.78751 1.4346 0
M  V30 3557 C 337.474 0.669019 1.48418 0
M  V30 3558 O 338.663 0.945884 1.51378 0
M  V30 3559 C 335.763 1.87844 2.82078 0
M  V30 3560 C 334.936 3.17854 3.00479 0
M  V30 3561 C 333.995 3.17816 4.19379 0
M  V30 3562 O 333.021 3.91511 4.13168 0
M  V30 3563 N 334.223 2.40669 5.2826 0
M  V30 3564 H 336.988 2.73493 1.22563 0
M  V30 3565 H 334.549 1.53096 0.526625 0
M  V30 3566 H 336.541 1.85261 3.59806 0
M  V30 3567 H 335.111 1.00257 2.96086 0
M  V30 3568 H 334.331 3.33504 2.10163 0
M  V30 3569 H 335.619 4.03718 3.0966 0
M  V30 3570 H 335.017 1.8036 5.36178 0
M  V30 3571 H 333.574 2.43877 6.04456 0
M  V30 3572 N 337.007 -0.598083 1.45811 0
M  V30 3573 C 338.255 -1.35413 1.50026 0
M  V30 3574 C 338.576 -1.94444 0.147177 0
M  V30 3575 O 337.846 -1.77701 -0.824571 0
M  V30 3576 H 336.426 -0.502727 0.552517 0
M  V30 3577 H 339.088 -0.701606 1.81834 0
M  V30 3578 H 338.184 -2.16871 2.2444 0
M  V30 3579 N 338.485 -1.33259 -0.841409 0
M  V30 3580 C 339.418 -1.1764 -1.95541 0
M  V30 3581 C 340.396 -0.072501 -1.62438 0
M  V30 3582 O 341.58 -0.23427 -1.87039 0
M  V30 3583 C 338.707 -0.803794 -3.29024 0
M  V30 3584 C 337.753 -1.91482 -3.81099 0
M  V30 3585 S 338.586 -3.52538 -4.03085 0
M  V30 3586 C 339.742 -3.17279 -5.39523 0
M  V30 3587 H 339.975 -2.11941 -2.08491 0
M  V30 3588 H 337.508 -1.18072 -0.9949 0
M  V30 3589 H 339.466 -0.595592 -4.06156 0
M  V30 3590 H 338.127 0.120574 -3.13868 0
M  V30 3591 H 337.32 -1.60742 -4.7768 0
M  V30 3592 H 336.922 -2.07956 -3.10854 0
M  V30 3593 H 339.214 -2.67946 -6.22263 0
M  V30 3594 H 340.157 -4.1293 -5.75234 0
M  V30 3595 H 340.565 -2.53943 -5.04156 0
M  V30 3596 N 339.963 1.05934 -1.16686 0
M  V30 3597 C 341.379 1.30938 -0.912542 0
M  V30 3598 C 341.579 1.96803 0.432533 0
M  V30 3599 O 340.635 2.23693 1.17123 0
M  V30 3600 C 341.948 2.18649 -2.06429 0
M  V30 3601 C 343.496 2.32055 -2.10047 0
M  V30 3602 C 343.971 3.23122 -3.24586 0
M  V30 3603 N 345.462 3.30706 -3.24327 0
M  V30 3604 C 346.197 4.01273 -4.09594 0
M  V30 3605 N 345.693 4.74332 -5.04956 0
M  V30 3606 N 347.486 3.97361 -3.97569 0
M  V30 3607 H 339.637 0.615777 -2.03278 0
M  V30 3608 H 341.9 0.334077 -0.887185 0
M  V30 3609 H 341.606 1.77534 -3.03603 0
M  V30 3610 H 341.48 3.19252 -2.00894 0
M  V30 3611 H 343.867 2.72415 -1.13464 0
M  V30 3612 H 343.948 1.31107 -2.19647 0
M  V30 3613 H 343.592 2.83477 -4.2143 0
M  V30 3614 H 343.522 4.24057 -3.12223 0
M  V30 3615 H 346.013 2.78644 -2.55276 0
M  V30 3616 H 346.326 5.25716 -5.6643 0
M  V30 3617 H 344.671 4.733 -5.08933 0
M  V30 3618 H 347.862 3.39405 -3.22369 0
M  V30 3619 H 348.035 4.52089 -4.64241 0
M  V30 3620 N 341.441 0.965919 1.2453 0
M  V30 3621 C 342.687 0.62776 1.92839 0
M  V30 3622 C 343.02 -0.834694 1.75347 0
M  V30 3623 O 342.295 -1.60031 1.10546 0
M  V30 3624 C 342.578 1.00109 3.45905 0
M  V30 3625 C 342.431 2.52011 3.72573 0
M  V30 3626 C 343.75 0.53435 4.36844 0
M  V30 3627 H 340.869 0.229537 0.700344 0
M  V30 3628 H 343.511 1.2046 1.46933 0
M  V30 3629 H 341.661 0.510238 3.85135 0
M  V30 3630 H 343.333 3.08559 3.42912 0
M  V30 3631 H 341.576 2.95287 3.17786 0
M  V30 3632 H 342.247 2.73183 4.79661 0
M  V30 3633 H 344.723 0.955565 4.04979 0
M  V30 3634 H 343.599 0.824152 5.42678 0
M  V30 3635 H 343.86 -0.565589 4.38467 0
M  V30 3636 N 342.919 -1.39368 0.735821 0
M  V30 3637 C 344.335 -1.54204 0.411492 0
M  V30 3638 C 344.535 -1.70268 -1.07755 0
M  V30 3639 O 343.591 -1.70364 -1.86366 0
M  V30 3640 C 344.904 -2.75925 1.19523 0
M  V30 3641 C 346.452 -2.89761 1.18354 0
M  V30 3642 C 346.927 -4.14421 1.94986 0
M  V30 3643 N 348.418 -4.21462 1.92156 0
M  V30 3644 C 349.153 -5.16871 2.48258 0
M  V30 3645 N 348.649 -6.18063 3.13001 0
M  V30 3646 N 350.442 -5.09093 2.38287 0
M  V30 3647 H 342.593 -1.27189 1.70108 0
M  V30 3648 H 344.856 -0.616517 0.720147 0
M  V30 3649 H 344.562 -2.70401 2.24892 0
M  V30 3650 H 344.436 -3.68614 0.800222 0
M  V30 3651 H 346.823 -2.94777 0.137975 0
M  V30 3652 H 346.904 -1.98133 1.61793 0
M  V30 3653 H 346.548 -4.10166 2.99543 0
M  V30 3654 H 346.478 -5.05095 1.48953 0
M  V30 3655 H 348.969 -3.48979 1.44991 0
M  V30 3656 H 349.282 -6.87326 3.53275 0
M  V30 3657 H 347.627 -6.18448 3.17091 0
M  V30 3658 H 350.818 -4.28973 1.8735 0
M  V30 3659 H 350.991 -5.83272 2.82308 0
M  V30 3660 N 344.397 -0.483516 -1.5 0
M  V30 3661 C 345.644 0.0671597 -2.02389 0
M  V30 3662 C 345.972 1.38597 -1.36459 0
M  V30 3663 O 345.227 1.89634 -0.483458 0
M  V30 3664 C 345.526 0.286226 -3.56252 0
M  V30 3665 C 345.192 -0.952416 -4.40726 0
M  V30 3666 C 343.854 -1.29199 -4.63531 0
M  V30 3667 C 346.206 -1.77655 -4.89988 0
M  V30 3668 C 343.534 -2.45553 -5.32842 0
M  V30 3669 C 345.886 -2.93147 -5.60578 0
M  V30 3670 C 344.55 -3.27505 -5.81633 0
M  V30 3671 H 343.82 0.0245755 -0.740592 0
M  V30 3672 H 346.467 -0.640124 -1.80485 0
M  V30 3673 H 344.772 1.07587 -3.76739 0
M  V30 3674 H 346.469 0.726473 -3.94365 0
M  V30 3675 H 343.059 -0.677881 -4.23205 0
M  V30 3676 H 347.243 -1.52737 -4.72213 0
M  V30 3677 H 342.499 -2.72431 -5.47349 0
M  V30 3678 H 346.673 -3.57344 -5.97727 0
M  V30 3679 H 344.3 -4.1777 -6.35116 0
M  V30 3680 N 345.875 1.56104 -0.216619 0
M  V30 3681 C 347.286 1.844 0.292128 0
M  V30 3682 C 347.637 1.13788 1.59833 0
M  V30 3683 O 346.762 0.405888 2.12559 0
M  V30 3684 C 347.357 3.3452 0.53681 0
M  V30 3685 C 345.916 3.63151 0.989876 0
M  V30 3686 C 345.063 2.77255 0.0502302 0
M  V30 3687 H 348.014 1.52481 -0.439926 0
M  V30 3688 H 348.035 3.54459 1.38345 0
M  V30 3689 H 347.547 3.85885 -0.414031 0
M  V30 3690 H 345.648 3.17238 1.95425 0
M  V30 3691 H 345.761 4.71177 0.867698 0
M  V30 3692 H 344.125 2.48555 0.556117 0
M  V30 3693 H 344.908 3.31416 -0.89544 0
M  V30 3694 N 347.353 -0.0568162 1.57498 0
M  V30 3695 C 348.301 -1.08452 2.05769 0
M  V30 3696 C 349.295 -1.39164 0.965903 0
M  V30 3697 O 350.501 -1.38395 1.15095 0
M  V30 3698 H 346.876 -0.367148 0.656282 0
M  V30 3699 H 348.847 -0.651368 2.91204 0
M  V30 3700 C 347.596 -2.38543 2.52968 0
M  V30 3701 H 346.919 -2.15765 3.36579 0
M  V30 3702 H 348.359 -3.08863 2.90481 0
M  V30 3703 C 346.818 -3.05562 1.41893 0
M  V30 3704 O 347.348 -3.94262 0.769442 0
M  V30 3705 N 345.554 -2.6643 1.16032 0
M  V30 3706 H 345.101 -1.94387 1.6903 0
M  V30 3707 H 345.059 -3.11593 0.419219 0
M  V30 3708 N 348.832 -1.54138 -0.328536 0
M  V30 3709 C 349.762 -1.86167 -1.40939 0
M  V30 3710 C 350.743 -0.718044 -1.54202 0
M  V30 3711 O 351.928 -0.971328 -1.68163 0
M  V30 3712 C 349.058 -2.08461 -2.77779 0
M  V30 3713 C 348.012 -3.24299 -2.7931 0
M  V30 3714 C 347.338 -3.31955 -4.19178 0
M  V30 3715 C 348.638 -4.62065 -2.43502 0
M  V30 3716 H 350.332 -2.76689 -1.14383 0
M  V30 3717 H 347.878 -1.33132 -0.548806 0
M  V30 3718 H 349.831 -2.29453 -3.53454 0
M  V30 3719 H 348.555 -1.14684 -3.05802 0
M  V30 3720 H 347.214 -3.03187 -2.0609 0
M  V30 3721 H 346.862 -2.35745 -4.44335 0
M  V30 3722 H 346.562 -4.09805 -4.2111 0
M  V30 3723 H 348.086 -3.55175 -4.96672 0
M  V30 3724 H 349.5 -4.8297 -3.08889 0
M  V30 3725 H 347.897 -5.42429 -2.56693 0
M  V30 3726 H 348.967 -4.64652 -1.38659 0
M  V30 3727 N 350.31 0.590341 -1.46126 0
M  V30 3728 C 351.557 1.34882 -1.5104 0
M  V30 3729 C 351.885 1.93849 -0.159021 0
M  V30 3730 O 351.14 1.76544 0.844436 0
M  V30 3731 C 351.439 2.5032 -2.55097 0
M  V30 3732 C 351.105 2.09394 -3.99331 0
M  V30 3733 C 349.767 1.97947 -4.38601 0
M  V30 3734 C 352.119 1.77712 -4.89967 0
M  V30 3735 C 349.447 1.53065 -5.66381 0
M  V30 3736 C 351.799 1.34312 -6.18177 0
M  V30 3737 C 350.463 1.21436 -6.56361 0
M  V30 3738 H 349.733 0.493568 -0.552695 0
M  V30 3739 H 352.38 0.665539 -1.79563 0
M  V30 3740 H 350.685 3.24062 -2.20207 0
M  V30 3741 H 352.382 3.08541 -2.56132 0
M  V30 3742 H 348.972 2.19235 -3.68285 0
M  V30 3743 H 353.156 1.85445 -4.60352 0
M  V30 3744 H 348.412 1.41733 -5.94745 0
M  V30 3745 H 352.586 1.08849 -6.87841 0
M  V30 3746 H 350.213 0.864345 -7.5527 0
M  V30 3747 N 351.788 1.33704 0.83433 0
M  V30 3748 C 353.199 1.22813 1.4062 0
M  V30 3749 C 353.55 -0.151107 1.95617 0
M  V30 3750 O 352.675 -1.05092 1.89168 0
M  V30 3751 C 353.27 2.22355 2.55624 0
M  V30 3752 C 351.829 2.1529 3.08751 0
M  V30 3753 C 350.976 2.09589 1.8157 0
M  V30 3754 H 353.927 1.45236 0.639702 0
M  V30 3755 H 353.948 1.83391 3.33389 0
M  V30 3756 H 353.46 3.22728 2.15566 0
M  V30 3757 H 351.561 1.18235 3.53343 0
M  V30 3758 H 351.674 3.06038 3.68616 0
M  V30 3759 H 350.038 1.55134 2.02004 0
M  V30 3760 H 350.821 3.11777 1.43701 0
M  V30 3761 N 353.266 -1.05314 1.17247 0
M  V30 3762 C 354.677 -1.59753 0.96623 0
M  V30 3763 C 355.028 -1.9005 -0.487378 0
M  V30 3764 O 354.153 -1.68126 -1.36245 0
M  V30 3765 C 354.748 -2.90249 1.74759 0
M  V30 3766 C 353.307 -3.41352 1.58606 0
M  V30 3767 C 352.454 -2.15103 1.75002 0
M  V30 3768 H 355.405 -0.881406 1.31973 0
M  V30 3769 H 355.426 -3.60097 1.22925 0
M  V30 3770 H 354.938 -2.68166 2.8055 0
M  V30 3771 H 353.039 -3.68474 0.552985 0
M  V30 3772 H 353.152 -4.16019 2.37624 0
M  V30 3773 H 351.516 -2.25804 1.17833 0
M  V30 3774 H 352.299 -1.95491 2.82202 0
M  V30 3775 N 354.744 -0.972509 -1.24016 0
M  V30 3776 C 355.674 -0.525548 -2.27509 0
M  V30 3777 C 356.655 0.437262 -1.64384 0
M  V30 3778 O 357.84 0.332343 -1.91335 0
M  V30 3779 C 354.97 0.180448 -3.46831 0
M  V30 3780 C 353.924 -0.698859 -4.22256 0
M  V30 3781 C 353.25 0.138903 -5.3452 0
M  V30 3782 C 354.55 -1.98582 -4.83076 0
M  V30 3783 H 356.244 -1.39058 -2.65148 0
M  V30 3784 H 353.79 -0.67009 -1.27459 0
M  V30 3785 H 355.743 0.504387 -4.18371 0
M  V30 3786 H 354.467 1.07987 -3.08231 0
M  V30 3787 H 353.126 -1.00614 -3.52523 0
M  V30 3788 H 352.774 1.03862 -4.9216 0
M  V30 3789 H 352.474 -0.446259 -5.85903 0
M  V30 3790 H 353.998 0.457404 -6.08884 0
M  V30 3791 H 355.412 -1.72715 -5.46665 0
M  V30 3792 H 353.809 -2.5181 -5.44713 0
M  V30 3793 H 354.879 -2.67769 -4.04262 0
M  V30 3794 N 356.222 1.38976 -0.743202 0
M  V30 3795 C 357.169 2.30544 -0.10861 0
M  V30 3796 C 358.139 1.49642 0.720869 0
M  V30 3797 O 359.324 1.78304 0.679142 0
M  V30 3798 C 356.464 3.36018 0.786496 0
M  V30 3799 C 355.577 4.31963 -0.0564849 0
M  V30 3800 C 354.712 5.24506 0.840657 0
M  V30 3801 C 353.751 6.121 -0.00658363 0
M  V30 3802 N 352.888 6.96973 0.846943 0
M  V30 3803 H 357.728 2.8424 -0.895088 0
M  V30 3804 H 355.265 1.3995 -0.453048 0
M  V30 3805 H 357.223 3.95768 1.31999 0
M  V30 3806 H 355.853 2.83758 1.53887 0
M  V30 3807 H 354.905 3.73763 -0.707492 0
M  V30 3808 H 356.217 4.93703 -0.711229 0
M  V30 3809 H 355.371 5.89322 1.4417 0
M  V30 3810 H 354.11 4.63107 1.52916 0
M  V30 3811 H 353.115 5.46289 -0.620366 0
M  V30 3812 H 354.34 6.75565 -0.691992 0
M  V30 3813 H 352.286 6.38133 1.52059 0
M  V30 3814 H 352.203 7.5559 0.248864 0
M  V30 3815 H 353.471 7.6621 1.43328 0
M  V30 3816 N 357.7 0.491464 1.49741 0
M  V30 3817 C 359.111 0.0413169 1.86654 0
M  V30 3818 C 359.462 -1.36985 1.40462 0
M  V30 3819 O 358.587 -2.01917 0.778354 0
M  V30 3820 C 359.182 0.0682023 3.38731 0
M  V30 3821 C 357.741 -0.32656 3.74981 0
M  V30 3822 C 356.888 0.444888 2.73708 0
M  V30 3823 H 359.839 0.704733 1.42194 0
M  V30 3824 H 359.86 -0.729322 3.73445 0
M  V30 3825 H 359.372 1.09539 3.72321 0
M  V30 3826 H 357.473 -1.35734 3.46997 0
M  V30 3827 H 357.586 -0.013741 4.79098 0
M  V30 3828 H 355.95 -0.104062 2.54487 0
M  V30 3829 H 356.733 1.47197 3.10142 0
M  V30 3830 N 359.178 -1.55987 0.224894 0
M  V30 3831 C 360.088 -2.24066 -0.69511 0
M  V30 3832 C 361.104 -1.24939 -1.21104 0
M  V30 3833 O 362.28 -1.5776 -1.25195 0
M  V30 3834 C 359.345 -2.90983 -1.88493 0
M  V30 3835 C 358.406 -4.05462 -1.41064 0
M  V30 3836 C 357.639 -4.69179 -2.54375 0
M  V30 3837 O 357.862 -4.31895 -3.72589 0
M  V30 3838 O 356.796 -5.58108 -2.25386 0
M  V30 3839 H 360.622 -3.03353 -0.145149 0
M  V30 3840 H 358.207 -1.49399 -0.00569476 0
M  V30 3841 H 360.089 -3.33209 -2.57972 0
M  V30 3842 H 358.764 -2.14653 -2.42293 0
M  V30 3843 H 357.671 -3.67798 -0.683774 0
M  V30 3844 H 359.004 -4.83545 -0.918985 0
M  V30 3845 N 360.656 0.0484629 -1.57525 0
M  V30 3846 C 361.884 0.755421 -1.92616 0
M  V30 3847 C 362.299 1.69919 -0.822984 0
M  V30 3848 O 361.656 1.81378 0.202085 0
M  V30 3849 C 361.707 1.52915 -3.27566 0
M  V30 3850 O 361.428 0.62329 -4.33644 0
M  V30 3851 C 362.929 2.33502 -3.76818 0
M  V30 3852 H 360.149 0.213465 -0.63614 0
M  V30 3853 H 362.693 0.0117698 -2.04497 0
M  V30 3854 H 360.848 2.22486 -3.17142 0
M  V30 3855 H 361.262 1.16383 -5.11425 0
M  V30 3856 H 362.736 2.83214 -4.73808 0
M  V30 3857 H 363.213 3.14068 -3.07014 0
M  V30 3858 H 363.819 1.69043 -3.90262 0
M  V30 3859 N 362.134 1.5431 0.320358 0
M  V30 3860 C 363.38 1.72924 1.05949 0
M  V30 3861 C 363.713 0.503185 1.87568 0
M  V30 3862 O 362.988 -0.499839 1.87968 0
M  V30 3863 C 363.271 3.00676 1.98156 0
M  V30 3864 C 363.124 4.3354 1.19845 0
M  V30 3865 C 364.443 3.24198 2.9763 0
M  V30 3866 H 361.562 0.629195 0.383774 0
M  V30 3867 H 364.204 1.87008 0.335854 0
M  V30 3868 H 362.354 2.888 2.59859 0
M  V30 3869 H 364.026 4.57305 0.605773 0
M  V30 3870 H 362.269 4.309 0.500784 0
M  V30 3871 H 362.94 5.19156 1.87567 0
M  V30 3872 H 365.416 3.35557 2.4605 0
M  V30 3873 H 364.292 4.14938 3.59329 0
M  V30 3874 H 364.553 2.41577 3.7026 0
M  V30 3875 N 363.613 -0.582584 1.46437 0
M  V30 3876 C 364.576 -1.67366 1.56592 0
M  V30 3877 C 365.576 -1.54575 0.443072 0
M  V30 3878 O 366.766 -1.59191 0.707381 0
M  V30 3879 C 363.898 -3.06791 1.48634 0
M  V30 3880 H 365.091 -1.5972 2.5383 0
M  V30 3881 H 362.644 -0.800432 1.34249 0
M  V30 3882 H 363.379 -3.19993 0.526763 0
M  V30 3883 H 363.164 -3.17484 2.30101 0
M  V30 3884 H 364.654 -3.86218 1.58826 0
M  V30 3885 N 365.091 -1.34144 -0.827227 0
M  V30 3886 C 366.507 -1.13732 -1.11969 0
M  V30 3887 C 366.707 0.0640463 -2.01398 0
M  V30 3888 O 365.763 0.740856 -2.41387 0
M  V30 3889 C 367.076 -2.43047 -1.77055 0
M  V30 3890 C 368.624 -2.49063 -1.89569 0
M  V30 3891 C 369.099 -3.78369 -2.58072 0
M  V30 3892 N 370.59 -3.79505 -2.65575 0
M  V30 3893 C 371.325 -4.76274 -3.19297 0
M  V30 3894 N 370.821 -5.83424 -3.73616 0
M  V30 3895 N 372.614 -4.63735 -3.17658 0
M  V30 3896 H 364.765 -2.11126 -0.232296 0
M  V30 3897 H 367.028 -0.933424 -0.165602 0
M  V30 3898 H 366.734 -3.31025 -1.18807 0
M  V30 3899 H 366.608 -2.56066 -2.76966 0
M  V30 3900 H 368.995 -1.61527 -2.46968 0
M  V30 3901 H 369.076 -2.39975 -0.885745 0
M  V30 3902 H 368.72 -4.66293 -2.01329 0
M  V30 3903 H 368.65 -3.84737 -3.59562 0
M  V30 3904 H 371.141 -3.02074 -2.27068 0
M  V30 3905 H 371.454 -6.53282 -4.12846 0
M  V30 3906 H 369.799 -5.87143 -3.71871 0
M  V30 3907 H 372.99 -3.79177 -2.74486 0
M  V30 3908 H 373.163 -5.39318 -3.59221 0
M  V30 3909 N 366.569 1.04691 -1.17803 0
M  V30 3910 C 367.985 1.29963 -0.926379 0
M  V30 3911 C 368.185 1.97251 0.411635 0
M  V30 3912 O 367.241 2.24922 1.14744 0
M  V30 3913 C 368.554 2.16447 -2.08737 0
M  V30 3914 C 370.102 2.29814 -2.12496 0
M  V30 3915 C 370.577 3.19661 -3.27995 0
M  V30 3916 N 372.068 3.27247 -3.27816 0
M  V30 3917 C 372.803 3.96906 -4.13827 0
M  V30 3918 N 372.299 4.6895 -5.09959 0
M  V30 3919 N 374.092 3.93122 -4.01761 0
M  V30 3920 H 366.243 0.594182 -2.0392 0
M  V30 3921 H 368.506 0.324649 -0.890678 0
M  V30 3922 H 368.212 1.74304 -3.05469 0
M  V30 3923 H 368.086 3.17103 -2.04268 0
M  V30 3924 H 370.473 2.71196 -1.16347 0
M  V30 3925 H 370.554 1.2877 -2.21025 0
M  V30 3926 H 370.198 2.78991 -4.24413 0
M  V30 3927 H 370.128 4.20722 -3.16703 0
M  V30 3928 H 372.619 2.75921 -2.58217 0
M  V30 3929 H 372.932 5.19679 -5.71974 0
M  V30 3930 H 371.277 4.67875 -5.13924 0
M  V30 3931 H 374.468 3.35967 -3.2595 0
M  V30 3932 H 374.641 4.47139 -4.6901 0
M  V30 3933 N 368.047 0.979072 1.23499 0
M  V30 3934 C 369.275 0.665202 1.95915 0
M  V30 3935 C 369.69 -0.767571 1.72493 0
M  V30 3936 O 369.047 -1.51635 1.01554 0
M  V30 3937 C 369.098 0.944438 3.48945 0
M  V30 3938 O 368.819 2.3209 3.71572 0
M  V30 3939 C 370.32 0.646336 4.38563 0
M  V30 3940 H 367.54 0.247218 0.623798 0
M  V30 3941 H 370.084 1.31009 1.57025 0
M  V30 3942 H 368.239 0.345575 3.85856 0
M  V30 3943 H 368.653 2.40957 4.65876 0
M  V30 3944 H 370.127 0.892091 5.44744 0
M  V30 3945 H 370.604 -0.419575 4.37191 0
M  V30 3946 H 371.21 1.22562 4.07258 0
M  V30 3947 N 369.525 -1.3858 0.750561 0
M  V30 3948 C 370.771 -2.00481 0.305825 0
M  V30 3949 C 371.104 -1.5944 -1.10872 0
M  V30 3950 O 370.379 -0.83052 -1.75877 0
M  V30 3951 C 370.662 -3.5758 0.425287 0
M  V30 3952 C 370.515 -4.08594 1.88072 0
M  V30 3953 C 371.834 -4.39719 -0.183122 0
M  V30 3954 H 368.953 -0.728348 0.112598 0
M  V30 3955 H 371.595 -1.64566 0.949638 0
M  V30 3956 H 369.745 -3.88306 -0.122828 0
M  V30 3957 H 371.417 -3.88523 2.48691 0
M  V30 3958 H 369.66 -3.61574 2.39681 0
M  V30 3959 H 370.331 -5.177 1.91548 0
M  V30 3960 H 372.807 -4.15128 0.284303 0
M  V30 3961 H 371.683 -5.48856 -0.0692757 0
M  V30 3962 H 371.944 -4.23434 -1.27106 0
M  V30 3963 N 371.003 -0.499398 -1.49478 0
M  V30 3964 C 371.913 0.284489 -2.32869 0
M  V30 3965 C 372.929 0.968885 -1.44529 0
M  V30 3966 O 374.105 0.95062 -1.77553 0
M  V30 3967 C 371.17 1.33594 -3.19928 0
M  V30 3968 C 370.231 0.665149 -4.24116 0
M  V30 3969 C 369.464 1.6665 -5.07014 0
M  V30 3970 O 369.687 2.89618 -4.91404 0
M  V30 3971 O 368.621 1.22271 -5.8935 0
M  V30 3972 H 372.447 -0.39802 -3.01081 0
M  V30 3973 H 370.032 -0.260758 -1.47107 0
M  V30 3974 H 371.914 1.94431 -3.73864 0
M  V30 3975 H 370.589 2.0014 -2.54412 0
M  V30 3976 H 369.496 0.0170769 -3.74096 0
M  V30 3977 H 370.829 0.0421555 -4.92182 0
M  V30 3978 N 372.481 1.55866 -0.233164 0
M  V30 3979 C 373.444 2.1953 0.658715 0
M  V30 3980 C 374.444 1.16053 1.11303 0
M  V30 3981 O 375.634 1.41218 1.01996 0
M  V30 3982 C 372.766 2.82791 1.90373 0
M  V30 3983 H 373.959 2.99721 0.10347 0
M  V30 3984 H 371.512 1.56291 0.0164245 0
M  V30 3985 H 372.247 2.06501 2.50056 0
M  V30 3986 H 372.032 3.58578 1.58632 0
M  V30 3987 H 373.522 3.31556 2.53891 0
M  V30 3988 N 373.959 -0.0401083 1.57549 0
M  V30 3989 C 375.205 -0.734211 1.89043 0
M  V30 3990 C 375.538 -1.75591 0.829535 0
M  V30 3991 O 374.813 -1.93868 -0.156706 0
M  V30 3992 C 375.096 -1.41374 3.31188 0
M  V30 3993 C 374.949 -0.406299 4.47961 0
M  V30 3994 C 376.268 -2.35061 3.72068 0
M  V30 3995 H 373.387 -0.265447 0.687537 0
M  V30 3996 H 376.029 0.00294087 1.9 0
M  V30 3997 H 374.179 -2.04206 3.30503 0
M  V30 3998 H 375.851 0.219255 4.60779 0
M  V30 3999 H 374.094 0.275485 4.32924 0
M  V30 4000 H 374.765 -0.920022 5.44279 0
M  V30 4001 H 377.241 -1.82282 3.74049 0
M  V30 4002 H 376.117 -2.79593 4.72355 0
M  V30 4003 H 376.378 -3.21258 3.0372 0
M  V30 4004 N 375.437 -1.54477 -0.31217 0
M  V30 4005 C 376.369 -1.81011 -1.40598 0
M  V30 4006 C 377.382 -0.692546 -1.47335 0
M  V30 4007 O 378.571 -0.969847 -1.49854 0
M  V30 4008 C 375.671 -1.92307 -2.79054 0
M  V30 4009 C 374.844 -3.22594 -2.95384 0
M  V30 4010 C 373.903 -3.24448 -4.1427 0
M  V30 4011 O 372.929 -3.98035 -4.06887 0
M  V30 4012 N 374.131 -2.49042 -5.24365 0
M  V30 4013 H 376.896 -2.75408 -1.18196 0
M  V30 4014 H 374.457 -1.53914 -0.502202 0
M  V30 4015 H 376.449 -1.90962 -3.56813 0
M  V30 4016 H 375.019 -1.04955 -2.94454 0
M  V30 4017 H 374.239 -3.36806 -2.04831 0
M  V30 4018 H 375.527 -4.08593 -3.03198 0
M  V30 4019 H 374.925 -1.88867 -5.33241 0
M  V30 4020 H 373.482 -2.53463 -6.005 0
M  V30 4021 N 376.915 0.57481 -1.46744 0
M  V30 4022 C 377.845 1.69337 -1.60771 0
M  V30 4023 C 378.826 1.63825 -0.457736 0
M  V30 4024 O 380.011 1.8172 -0.684947 0
M  V30 4025 C 377.141 3.0798 -1.60517 0
M  V30 4026 C 376.095 3.28327 -2.74564 0
M  V30 4027 C 375.421 4.67578 -2.59373 0
M  V30 4028 C 376.721 3.15398 -4.16319 0
M  V30 4029 H 378.415 1.57853 -2.54407 0
M  V30 4030 H 375.961 0.75799 -1.22436 0
M  V30 4031 H 377.914 3.86061 -1.68923 0
M  V30 4032 H 376.638 3.20381 -0.634305 0
M  V30 4033 H 375.297 2.52649 -2.65639 0
M  V30 4034 H 374.945 4.76755 -1.60353 0
M  V30 4035 H 374.645 4.82144 -3.35873 0
M  V30 4036 H 376.169 5.47817 -2.69682 0
M  V30 4037 H 377.583 3.83315 -4.26313 0
M  V30 4038 H 375.98 3.41482 -4.93468 0
M  V30 4039 H 377.05 2.12372 -4.3592 0
M  V30 4040 N 378.394 1.34581 0.820102 0
M  V30 4041 C 379.342 1.26401 1.95258 0
M  V30 4042 C 380.336 0.161553 1.68628 0
M  V30 4043 O 381.542 0.326703 1.7701 0
M  V30 4044 H 377.917 0.392749 0.64129 0
M  V30 4045 H 379.888 2.22105 1.99279 0
M  V30 4046 C 378.637 1.03919 3.31807 0
M  V30 4047 H 377.96 1.87984 3.52848 0
M  V30 4048 H 379.4 1.02232 4.11491 0
M  V30 4049 C 377.859 -0.257433 3.35915 0
M  V30 4050 O 378.389 -1.25784 3.81499 0
M  V30 4051 N 376.595 -0.291524 2.89134 0
M  V30 4052 H 376.142 0.523161 2.52232 0
M  V30 4053 H 376.1 -1.15883 2.92264 0
M  V30 4054 N 379.872 -1.04064 1.18357 0
M  V30 4055 C 380.804 -2.12114 0.868358 0
M  V30 4056 C 381.817 -1.62247 -0.134045 0
M  V30 4057 O 383.006 -1.78253 0.0937933 0
M  V30 4058 C 380.106 -3.37773 0.276132 0
M  V30 4059 C 379.279 -4.16874 1.3242 0
M  V30 4060 C 378.338 -5.20861 0.747662 0
M  V30 4061 O 377.364 -5.51141 1.42239 0
M  V30 4062 N 378.566 -5.78715 -0.454823 0
M  V30 4063 H 381.331 -2.39748 1.79836 0
M  V30 4064 H 378.892 -1.20258 1.08396 0
M  V30 4065 H 380.884 -4.04513 -0.123133 0
M  V30 4066 H 379.454 -3.07581 -0.557895 0
M  V30 4067 H 378.674 -3.45456 1.89878 0
M  V30 4068 H 379.962 -4.66516 2.03078 0
M  V30 4069 H 379.36 -5.56415 -1.02073 0
M  V30 4070 H 377.917 -6.46921 -0.79601 0
M  V30 4071 N 381.35 -0.985608 -1.22978 0
M  V30 4072 C 382.313 -0.535071 -2.22867 0
M  V30 4073 C 383.313 0.378123 -1.56291 0
M  V30 4074 O 384.503 0.171092 -1.73358 0
M  V30 4075 C 381.635 0.222702 -3.40172 0
M  V30 4076 H 382.828 -1.41835 -2.6424 0
M  V30 4077 H 380.381 -0.772042 -1.35901 0
M  V30 4078 H 381.116 1.12229 -3.04262 0
M  V30 4079 H 380.901 -0.43288 -3.89703 0
M  V30 4080 H 382.391 0.526335 -4.1427 0
M  V30 4081 N 382.828 1.3818 -0.7579 0
M  V30 4082 C 383.758 2.33027 -0.148597 0
M  V30 4083 C 384.739 1.55085 0.69875 0
M  V30 4084 O 385.924 1.83384 0.639053 0
M  V30 4085 C 383.054 3.3928 0.742034 0
M  V30 4086 C 382.008 4.28 -0.00291946 0
M  V30 4087 C 381.334 5.25146 1.00625 0
M  V30 4088 C 382.634 5.08938 -1.17385 0
M  V30 4089 H 384.328 2.84231 -0.940909 0
M  V30 4090 H 381.874 1.36659 -0.453908 0
M  V30 4091 H 383.827 4.046 1.17799 0
M  V30 4092 H 382.551 2.86569 1.56671 0
M  V30 4093 H 381.21 3.64192 -0.419504 0
M  V30 4094 H 380.858 4.68721 1.8251 0
M  V30 4095 H 380.558 5.85361 0.512428 0
M  V30 4096 H 382.082 5.93342 1.44143 0
M  V30 4097 H 383.496 5.67474 -0.815224 0
M  V30 4098 H 381.893 5.7841 -1.59882 0
M  V30 4099 H 382.963 4.42424 -1.98468 0
M  V30 4100 N 384.306 0.507319 1.49211 0
M  V30 4101 C 385.236 -0.256939 2.32082 0
M  V30 4102 C 386.217 -0.956609 1.40652 0
M  V30 4103 O 387.402 -0.946788 1.69557 0
M  V30 4104 C 384.532 -1.31802 3.21318 0
M  V30 4105 C 383.486 -0.737855 4.21592 0
M  V30 4106 C 382.812 -1.89992 4.99807 0
M  V30 4107 C 384.112 0.275325 5.21574 0
M  V30 4108 H 385.806 0.434798 2.96226 0
M  V30 4109 H 383.352 0.210546 1.42452 0
M  V30 4110 H 385.305 -1.86045 3.78107 0
M  V30 4111 H 384.029 -2.03903 2.5513 0
M  V30 4112 H 382.688 -0.217126 3.65956 0
M  V30 4113 H 382.336 -2.60877 4.30061 0
M  V30 4114 H 382.036 -1.51777 5.6766 0
M  V30 4115 H 383.56 -2.44657 5.59442 0
M  V30 4116 H 384.974 -0.179193 5.7302 0
M  V30 4117 H 383.371 0.573649 5.97352 0
M  V30 4118 H 384.441 1.18903 4.70096 0
M  V30 4119 N 385.784 -1.5574 0.241426 0
M  V30 4120 C 386.714 -2.24133 -0.654722 0
M  V30 4121 C 387.695 -1.21974 -1.1856 0
M  V30 4122 O 388.88 -1.50612 -1.22595 0
M  V30 4123 C 386.01 -2.93659 -1.85423 0
M  V30 4124 C 384.964 -4.0246 -1.45636 0
M  V30 4125 C 384.29 -4.59383 -2.73626 0
M  V30 4126 C 385.59 -5.18468 -0.631506 0
M  V30 4127 H 387.284 -2.99281 -0.0844353 0
M  V30 4128 H 384.83 -1.43947 -0.0391707 0
M  V30 4129 H 386.783 -3.40203 -2.48676 0
M  V30 4130 H 385.507 -2.15991 -2.44981 0
M  V30 4131 H 384.166 -3.56676 -0.847202 0
M  V30 4132 H 383.814 -3.78422 -3.3137 0
M  V30 4133 H 383.514 -5.32826 -2.4773 0
M  V30 4134 H 385.038 -5.08658 -3.37786 0
M  V30 4135 H 386.452 -5.61272 -1.1682 0
M  V30 4136 H 384.849 -5.98266 -0.468831 0
M  V30 4137 H 385.919 -4.8358 0.357506 0
M  V30 4138 N 387.262 0.0317525 -1.57568 0
M  V30 4139 C 388.192 1.03274 -2.0942 0
M  V30 4140 C 389.173 1.3788 -0.996143 0
M  V30 4141 O 390.358 1.46811 -1.27122 0
M  V30 4142 C 387.488 2.33448 -2.57137 0
M  V30 4143 C 386.442 2.13091 -3.71182 0
M  V30 4144 C 385.768 3.49001 -4.05095 0
M  V30 4145 C 387.068 1.51928 -4.99715 0
M  V30 4146 H 388.762 0.60112 -2.93303 0
M  V30 4147 H 386.308 0.287705 -1.41097 0
M  V30 4148 H 388.261 3.03802 -2.92032 0
M  V30 4149 H 386.985 2.78665 -1.70333 0
M  V30 4150 H 385.644 1.45171 -3.36632 0
M  V30 4151 H 385.292 3.91862 -3.15362 0
M  V30 4152 H 384.992 3.36207 -4.81911 0
M  V30 4153 H 386.516 4.20721 -4.42522 0
M  V30 4154 H 387.93 2.12196 -5.32584 0
M  V30 4155 H 386.327 1.49716 -5.81124 0
M  V30 4156 H 387.397 0.484811 -4.8247 0
M  V30 4157 N 388.74 1.54641 0.303973 0
M  V30 4158 C 390.151 1.64811 0.877163 0
M  V30 4159 C 390.502 0.554838 1.88191 0
M  V30 4160 O 389.627 -0.309033 2.14182 0
M  V30 4161 C 390.222 2.9876 1.59775 0
M  V30 4162 C 388.781 3.11061 2.11938 0
M  V30 4163 C 387.928 2.60479 0.951097 0
M  V30 4164 H 390.879 1.58493 0.0810486 0
M  V30 4165 H 390.9 2.90017 2.46314 0
M  V30 4166 H 390.412 3.7831 0.866226 0
M  V30 4167 H 388.513 2.36225 2.88146 0
M  V30 4168 H 388.626 4.17171 2.35595 0
M  V30 4169 H 386.99 2.16859 1.33583 0
M  V30 4170 H 387.773 3.42504 0.233581 0
M  V30 4171 N 390.218 -0.567019 1.47046 0
M  V30 4172 C 391.464 -1.32434 1.54379 0
M  V30 4173 C 391.819 -1.91365 0.199276 0
M  V30 4174 O 391.112 -1.74378 -0.793915 0
M  V30 4175 C 391.306 -2.4623 2.59047 0
M  V30 4176 C 391.135 -1.98448 4.03545 0
M  V30 4177 C 389.905 -1.82741 4.71098 0
M  V30 4178 C 392.103 -1.53477 4.90866 0
M  V30 4179 N 390.085 -1.29196 6.00151 0
M  V30 4180 C 391.456 -1.1163 6.09868 0
M  V30 4181 C 393.511 -1.41438 4.77388 0
M  V30 4182 C 392.214 -0.589425 7.16881 0
M  V30 4183 C 394.24 -0.901528 5.84488 0
M  V30 4184 C 393.602 -0.492932 7.02673 0
M  V30 4185 H 389.701 -0.477005 0.61967 0
M  V30 4186 H 392.285 -0.643856 1.83746 0
M  V30 4187 H 390.456 -3.11821 2.31564 0
M  V30 4188 H 392.188 -3.13213 2.56281 0
M  V30 4189 H 388.943 -2.05162 4.26855 0
M  V30 4190 H 389.367 -1.0454 6.6888 0
M  V30 4191 H 394.009 -1.71643 3.86392 0
M  V30 4192 H 391.727 -0.274994 8.07632 0
M  V30 4193 H 395.313 -0.812071 5.76105 0
M  V30 4194 H 394.193 -0.102227 7.84133 0
M  V30 4195 N 391.696 -1.35014 -0.812953 0
M  V30 4196 C 392.924 -1.31031 -1.6012 0
M  V30 4197 C 393.339 0.113558 -1.88458 0
M  V30 4198 O 392.696 1.06363 -1.48301 0
M  V30 4199 C 392.747 -2.10872 -2.93624 0
M  V30 4200 O 392.468 -3.47706 -2.66518 0
M  V30 4201 C 393.969 -2.14401 -3.88004 0
M  V30 4202 H 391.189 -0.45037 -0.497401 0
M  V30 4203 H 393.733 -1.77775 -1.01076 0
M  V30 4204 H 391.888 -1.67744 -3.492 0
M  V30 4205 H 392.302 -3.89097 -3.51715 0
M  V30 4206 H 393.776 -2.74669 -4.78812 0
M  V30 4207 H 394.253 -1.14105 -4.24119 0
M  V30 4208 H 394.859 -2.57662 -3.38364 0
M  V30 4209 N 393.175 1.03435 -1.18907 0
M  V30 4210 C 394.108 2.11162 -0.86521 0
M  V30 4211 C 395.086 1.6165 0.175473 0
M  V30 4212 O 396.27 1.88425 0.0530129 0
M  V30 4213 C 393.397 3.37423 -0.293868 0
M  V30 4214 C 392.443 4.05795 -1.31274 0
M  V30 4215 S 393.276 4.52027 -2.8711 0
M  V30 4216 C 394.432 5.81513 -2.31504 0
M  V30 4217 H 394.665 2.38308 -1.77754 0
M  V30 4218 H 392.198 1.16295 -1.01562 0
M  V30 4219 H 394.156 4.1049 0.0292572 0
M  V30 4220 H 392.817 3.0838 0.596682 0
M  V30 4221 H 392.01 4.96574 -0.86198 0
M  V30 4222 H 391.612 3.38874 -1.58242 0
M  V30 4223 H 393.904 6.55784 -1.70157 0
M  V30 4224 H 394.847 6.3136 -3.20608 0
M  V30 4225 H 395.255 5.36921 -1.74286 0
M  V30 4226 N 394.653 0.992116 1.22453 0
M  V30 4227 C 395.603 0.512969 2.22155 0
M  V30 4228 C 396.587 -0.418416 1.55364 0
M  V30 4229 O 397.779 -0.245363 1.75291 0
M  V30 4230 C 394.908 -0.171822 3.4287 0
M  V30 4231 C 393.994 0.779822 4.16869 0
M  V30 4232 N 394.385 1.92734 4.6764 0
M  V30 4233 C 392.683 0.59554 4.42006 0
M  V30 4234 C 393.384 2.52458 5.24061 0
M  V30 4235 N 392.36 1.80735 5.12675 0
M  V30 4236 H 396.162 1.38817 2.5905 0
M  V30 4237 H 393.676 0.854277 1.38115 0
M  V30 4238 H 395.673 -0.532469 4.13486 0
M  V30 4239 H 394.333 -1.04317 3.07487 0
M  V30 4240 H 395.344 2.30816 4.63621 0
M  V30 4241 H 392.021 -0.229805 4.16867 0
M  V30 4242 H 393.411 3.49433 5.73887 0
M  V30 4243 N 396.131 -1.37776 0.765217 0
M  V30 4244 C 397.094 -2.28686 0.153416 0
M  V30 4245 C 398.094 -1.47727 -0.635081 0
M  V30 4246 O 399.284 -1.68027 -0.459632 0
M  V30 4247 C 396.416 -3.31608 -0.790495 0
M  V30 4248 H 397.609 -2.84297 0.954723 0
M  V30 4249 H 395.162 -1.46932 0.53299 0
M  V30 4250 H 395.897 -2.81109 -1.61705 0
M  V30 4251 H 395.682 -3.9144 -0.227348 0
M  V30 4252 H 397.172 -3.99559 -1.21419 0
M  V30 4253 N 397.609 -0.515225 -1.4894 0
M  V30 4254 C 398.539 0.244628 -2.32215 0
M  V30 4255 C 399.52 0.949136 -1.41157 0
M  V30 4256 O 400.705 0.937783 -1.70057 0
M  V30 4257 C 397.835 1.30096 -3.22013 0
M  V30 4258 C 396.789 0.715486 -4.21977 0
M  V30 4259 C 396.115 1.87339 -5.00808 0
M  V30 4260 C 397.415 -0.302982 -5.2142 0
M  V30 4261 H 399.109 -0.450501 -2.95991 0
M  V30 4262 H 396.655 -0.218098 -1.42339 0
M  V30 4263 H 398.608 1.84037 -3.79089 0
M  V30 4264 H 397.332 2.02547 -2.56207 0
M  V30 4265 H 395.991 0.197715 -3.66066 0
M  V30 4266 H 395.639 2.58592 -4.31438 0
M  V30 4267 H 395.339 1.48764 -5.68457 0
M  V30 4268 H 396.863 2.41686 -5.60732 0
M  V30 4269 H 398.277 0.148802 -5.73107 0
M  V30 4270 H 396.674 -0.60532 -5.97039 0
M  V30 4271 H 397.744 -1.21395 -4.69459 0
M  V30 4272 N 399.087 1.5561 -0.249682 0
M  V30 4273 C 400.333 1.99306 0.374841 0
M  V30 4274 C 400.666 1.13767 1.57387 0
M  V30 4275 O 399.941 0.201711 1.93451 0
M  V30 4276 C 400.224 3.51507 0.781986 0
M  V30 4277 C 400.077 4.4781 -0.422629 0
M  V30 4278 C 401.396 4.08884 1.62793 0
M  V30 4279 H 398.515 0.724572 0.134773 0
M  V30 4280 H 401.157 1.86719 -0.351549 0
M  V30 4281 H 399.307 3.62363 1.4009 0
M  V30 4282 H 400.979 4.48931 -1.06108 0
M  V30 4283 H 399.222 4.20518 -1.06524 0
M  V30 4284 H 399.893 5.51919 -0.0943766 0
M  V30 4285 H 402.369 4.01147 1.10547 0
M  V30 4286 H 401.245 5.1564 1.88166 0
M  V30 4287 H 401.506 3.57515 2.60068 0
M  V30 4288 N 400.565 -0.0233959 1.57583 0
M  V30 4289 C 401.814 -0.712133 1.8871 0
M  V30 4290 C 402.127 -1.76217 0.848944 0
M  V30 4291 O 403.333 -2.50389 1.04964 0
M  V30 4292 C 401.789 -1.3177 3.3491 0
M  V30 4293 C 401.397 -0.303715 4.46969 0
M  V30 4294 C 403.141 -1.98598 3.75179 0
M  V30 4295 C 401.048 -0.917945 5.84233 0
M  V30 4296 H 399.978 -0.269735 0.704101 0
M  V30 4297 H 402.629 0.0333114 1.8347 0
M  V30 4298 H 401.011 -2.11304 3.34913 0
M  V30 4299 H 402.185 0.465325 4.58445 0
M  V30 4300 H 400.5 0.2628 4.1557 0
M  V30 4301 H 403.097 -2.45416 4.75053 0
M  V30 4302 H 403.44 -2.80659 3.07468 0
M  V30 4303 H 403.973 -1.25831 3.77374 0
M  V30 4304 H 400.712 -0.136633 6.55358 0
M  V30 4305 H 400.232 -1.65669 5.76467 0
M  V30 4306 H 401.911 -1.4236 6.31144 0
M  V30 4307 N 402.043 -1.548 -0.295768 0
M  V30 4308 C 402.973 -1.89115 -1.36959 0
M  V30 4309 C 403.954 -0.75059 -1.52644 0
M  V30 4310 O 405.139 -1.00678 -1.66065 0
M  V30 4311 C 402.269 -2.14307 -2.73295 0
M  V30 4312 C 401.223 -3.30151 -2.72368 0
M  V30 4313 C 400.549 -3.40772 -4.12042 0
M  V30 4314 C 401.849 -4.67126 -2.33646 0
M  V30 4315 H 403.543 -2.79053 -1.08488 0
M  V30 4316 H 401.089 -1.34266 -0.520443 0
M  V30 4317 H 403.042 -2.36898 -3.48507 0
M  V30 4318 H 401.766 -1.21145 -3.03301 0
M  V30 4319 H 400.425 -3.0749 -1.99613 0
M  V30 4320 H 400.073 -2.45117 -4.39234 0
M  V30 4321 H 399.773 -4.18645 -4.12322 0
M  V30 4322 H 401.297 -3.6563 -4.89027 0
M  V30 4323 H 402.711 -4.89414 -2.98575 0
M  V30 4324 H 401.108 -5.47751 -2.45129 0
M  V30 4325 H 402.178 -4.67489 -1.28772 0
M  V30 4326 N 403.521 0.559213 -1.47345 0
M  V30 4327 C 404.468 1.66645 -1.59682 0
M  V30 4328 C 405.438 1.60168 -0.43994 0
M  V30 4329 O 406.623 1.79031 -0.659736 0
M  V30 4330 C 403.763 3.04969 -1.61518 0
M  V30 4331 C 402.876 3.21897 -2.88108 0
M  V30 4332 C 402.011 4.50608 -2.81294 0
M  V30 4333 C 401.05 4.60961 -4.02717 0
M  V30 4334 N 400.187 5.81024 -3.94151 0
M  V30 4335 H 405.027 1.55439 -2.54249 0
M  V30 4336 H 402.564 0.757219 -1.26113 0
M  V30 4337 H 404.522 3.85064 -1.60566 0
M  V30 4338 H 403.152 3.15015 -0.704645 0
M  V30 4339 H 402.204 2.35248 -2.98936 0
M  V30 4340 H 403.516 3.25412 -3.78032 0
M  V30 4341 H 402.67 5.3896 -2.7858 0
M  V30 4342 H 401.409 4.49568 -1.89049 0
M  V30 4343 H 400.414 3.71021 -4.05738 0
M  V30 4344 H 401.639 4.63761 -4.96087 0
M  V30 4345 H 399.585 5.80938 -3.04708 0
M  V30 4346 H 399.502 5.85909 -4.77752 0
M  V30 4347 H 400.77 6.71744 -3.9545 0
M  V30 4348 N 404.999 1.35443 0.805782 0
M  V30 4349 C 406.224 1.32037 1.59941 0
M  V30 4350 C 406.649 -0.0994215 1.87837 0
M  V30 4351 O 406.007 -1.06648 1.46615 0
M  V30 4352 C 406.055 2.13354 2.90711 0
M  V30 4353 O 405.159 1.5148 3.83572 0
M  V30 4354 H 404.5 0.452666 0.485787 0
M  V30 4355 H 407.03 1.78496 1.00002 0
M  V30 4356 H 407.04 2.25338 3.40128 0
M  V30 4357 H 405.715 3.16572 2.69732 0
M  V30 4358 H 404.292 1.4834 3.42125 0
M  V30 4359 N 406.477 -1.02803 1.19454 0
M  V30 4360 C 407.726 -1.7562 0.991996 0
M  V30 4361 C 408.039 -1.89672 -0.477901 0
M  V30 4362 O 409.245 -2.59468 -0.799287 0
M  V30 4363 C 407.701 -3.15812 1.72601 0
M  V30 4364 C 407.309 -3.0981 3.23607 0
M  V30 4365 C 409.053 -3.92918 1.60674 0
M  V30 4366 C 406.96 -4.44939 3.89594 0
M  V30 4367 H 405.89 -0.658352 0.367543 0
M  V30 4368 H 408.541 -1.15044 1.42959 0
M  V30 4369 H 406.923 -3.7686 1.21624 0
M  V30 4370 H 408.097 -2.58138 3.81709 0
M  V30 4371 H 406.412 -2.46201 3.35819 0
M  V30 4372 H 409.009 -4.9287 2.07323 0
M  V30 4373 H 409.352 -4.12502 0.561025 0
M  V30 4374 H 409.885 -3.38472 2.09001 0
M  V30 4375 H 406.624 -4.30559 4.94267 0
M  V30 4376 H 406.144 -4.96664 3.36281 0
M  V30 4377 H 407.823 -5.1382 3.93189 0
M  V30 4378 N 407.956 -0.998596 -1.21925 0
M  V30 4379 C 408.886 -0.573688 -2.26343 0
M  V30 4380 C 409.867 0.402296 -1.65274 0
M  V30 4381 O 411.052 0.291683 -1.91997 0
M  V30 4382 C 408.182 0.106839 -3.47136 0
M  V30 4383 C 407.136 -0.788269 -4.20678 0
M  V30 4384 C 406.462 0.0254927 -5.34694 0
M  V30 4385 C 407.762 -2.08784 -4.78755 0
M  V30 4386 H 409.456 -1.44651 -2.62138 0
M  V30 4387 H 407.002 -0.696975 -1.26009 0
M  V30 4388 H 408.955 0.415531 -4.19346 0
M  V30 4389 H 407.679 1.01424 -3.10452 0
M  V30 4390 H 406.338 -1.08069 -3.50309 0
M  V30 4391 H 405.986 0.933989 -4.94253 0
M  V30 4392 H 405.686 -0.570437 -5.84825 0
M  V30 4393 H 407.21 0.328147 -6.09718 0
M  V30 4394 H 408.624 -1.84272 -5.42878 0
M  V30 4395 H 407.021 -2.63307 -5.39249 0
M  V30 4396 H 408.091 -2.76284 -3.98491 0
M  V30 4397 N 409.434 1.37368 -0.772513 0
M  V30 4398 C 410.845 1.8231 -0.402493 0
M  V30 4399 C 411.196 1.6436 1.07146 0
M  V30 4400 O 410.321 1.15514 1.82991 0
M  V30 4401 C 410.916 3.30979 -0.723776 0
M  V30 4402 C 409.475 3.74195 -0.406802 0
M  V30 4403 C 408.622 2.59885 -0.967218 0
M  V30 4404 H 411.573 1.25829 -0.967099 0
M  V30 4405 H 411.594 3.80499 -0.00870832 0
M  V30 4406 H 411.106 3.44011 -1.7966 0
M  V30 4407 H 409.207 3.66732 0.658673 0
M  V30 4408 H 409.32 4.7027 -0.915588 0
M  V30 4409 H 407.684 2.51674 -0.391416 0
M  V30 4410 H 408.467 2.7571 -2.04546 0
M  V30 4411 N 410.912 0.523116 1.48665 0
M  V30 4412 C 411.844 -0.280421 2.27478 0
M  V30 4413 C 412.857 -0.910694 1.34945 0
M  V30 4414 O 414.046 -0.790295 1.60052 0
M  V30 4415 C 411.146 -1.41171 3.08097 0
M  V30 4416 C 410.319 -0.884642 4.28361 0
M  V30 4417 C 409.378 -1.89622 4.90846 0
M  V30 4418 O 408.404 -1.4559 5.50265 0
M  V30 4419 N 409.606 -3.22801 4.82472 0
M  V30 4420 H 412.371 0.395481 2.97079 0
M  V30 4421 H 409.932 0.357018 1.57915 0
M  V30 4422 H 411.924 -2.08645 3.4677 0
M  V30 4423 H 410.494 -1.99139 2.40961 0
M  V30 4424 H 409.714 -0.0341177 3.94185 0
M  V30 4425 H 411.002 -0.511268 5.06225 0
M  V30 4426 H 410.4 -3.61246 4.35336 0
M  V30 4427 H 408.957 -3.85927 5.25265 0
M  V30 4428 N 412.39 -1.55475 0.257931 0
M  V30 4429 C 413.353 -2.20551 -0.623706 0
M  V30 4430 C 414.353 -1.17809 -1.09443 0
M  V30 4431 O 415.543 -1.42823 -0.997362 0
M  V30 4432 C 412.675 -2.85784 -1.8585 0
M  V30 4433 H 413.868 -2.99848 -0.0557743 0
M  V30 4434 H 411.421 -1.56298 0.0084422 0
M  V30 4435 H 412.156 -2.10453 -2.46739 0
M  V30 4436 H 411.941 -3.61057 -1.52907 0
M  V30 4437 H 413.431 -3.35553 -2.48584 0
M  V30 4438 N 413.868 0.0150385 -1.57593 0
M  V30 4439 C 414.831 0.995996 -2.06428 0
M  V30 4440 C 415.831 1.2818 -0.970903 0
M  V30 4441 O 417.021 1.22949 -1.23406 0
M  V30 4442 C 414.153 2.32506 -2.49307 0
M  V30 4443 H 415.346 0.573873 -2.94358 0
M  V30 4444 H 412.899 0.262186 -1.54085 0
M  V30 4445 H 413.634 2.79438 -1.64575 0
M  V30 4446 H 413.419 2.13087 -3.29145 0
M  V30 4447 H 414.909 3.02906 -2.87468 0
M  V30 4448 N 415.346 1.54954 0.287554 0
M  V30 4449 C 416.276 1.89839 1.35954 0
M  V30 4450 C 417.257 0.758675 1.52244 0
M  V30 4451 O 418.442 1.01557 1.65529 0
M  V30 4452 C 415.572 2.15753 2.72154 0
M  V30 4453 C 414.526 3.3159 2.70614 0
M  V30 4454 C 413.852 3.42952 4.10229 0
M  V30 4455 C 415.152 4.68359 2.31165 0
M  V30 4456 H 416.846 2.79625 1.07007 0
M  V30 4457 H 414.392 1.3454 0.513316 0
M  V30 4458 H 416.345 2.38743 3.47246 0
M  V30 4459 H 415.069 1.22752 3.02654 0
M  V30 4460 H 413.728 3.08545 1.97979 0
M  V30 4461 H 413.376 2.47443 4.37928 0
M  V30 4462 H 413.076 4.20826 4.10097 0
M  V30 4463 H 414.6 3.68218 4.87081 0
M  V30 4464 H 416.014 4.9099 2.95976 0
M  V30 4465 H 414.411 5.49044 2.42221 0
M  V30 4466 H 415.481 4.68165 1.26291 0
M  V30 4467 N 416.824 -0.551391 1.4764 0
M  V30 4468 C 417.734 -1.68525 1.63207 0
M  V30 4469 C 418.75 -1.6621 0.514815 0
M  V30 4470 O 419.926 -1.85551 0.783113 0
M  V30 4471 C 416.991 -3.05025 1.64805 0
M  V30 4472 C 416.052 -3.18362 2.88 0
M  V30 4473 C 415.285 -4.4835 2.89513 0
M  V30 4474 O 415.508 -5.34163 2.00065 0
M  V30 4475 O 414.442 -4.65602 3.81443 0
M  V30 4476 H 418.268 -1.58333 2.59161 0
M  V30 4477 H 415.853 -0.722063 1.30792 0
M  V30 4478 H 417.735 -3.86245 1.68502 0
M  V30 4479 H 416.41 -3.15587 0.720197 0
M  V30 4480 H 415.317 -2.36518 2.89845 0
M  V30 4481 H 416.65 -3.12707 3.80099 0
M  V30 4482 N 418.302 -1.35869 -0.798587 0
M  V30 4483 C 419.212 -1.31578 -1.94228 0
M  V30 4484 C 420.228 -0.21939 -1.72611 0
M  V30 4485 O 421.404 -0.450167 -1.96305 0
M  V30 4486 C 418.469 -1.09528 -3.28944 0
M  V30 4487 C 417.53 -2.28556 -3.63402 0
M  V30 4488 C 416.763 -2.07549 -4.9169 0
M  V30 4489 O 416.986 -1.046 -5.60727 0
M  V30 4490 O 415.92 -2.95106 -5.24591 0
M  V30 4491 H 419.746 -2.27847 -2.00796 0
M  V30 4492 H 417.331 -1.16322 -0.937526 0
M  V30 4493 H 419.213 -0.991127 -4.09579 0
M  V30 4494 H 417.888 -0.16315 -3.23289 0
M  V30 4495 H 416.795 -2.44538 -2.83112 0
M  V30 4496 H 418.128 -3.20244 -3.73771 0
M  V30 4497 N 419.78 1.02168 -1.19998 0
M  V30 4498 C 421.029 1.75091 -1.0013 0
M  V30 4499 C 421.342 1.89923 0.467835 0
M  V30 4500 O 422.548 2.59888 0.785515 0
M  V30 4501 C 421.004 3.14892 -1.74273 0
M  V30 4502 C 420.612 3.0809 -3.25245 0
M  V30 4503 C 422.356 3.9206 -1.62755 0
M  V30 4504 C 420.263 4.42867 -3.91948 0
M  V30 4505 H 419.193 0.656394 -0.37103 0
M  V30 4506 H 421.844 1.14284 -1.43567 0
M  V30 4507 H 420.226 3.7621 -1.2362 0
M  V30 4508 H 421.4 2.5611 -3.83072 0
M  V30 4509 H 419.715 2.44416 -3.3712 0
M  V30 4510 H 422.312 4.91764 -2.09934 0
M  V30 4511 H 422.655 4.12199 -0.582894 0
M  V30 4512 H 423.188 3.37359 -2.10793 0
M  V30 4513 H 419.927 4.27931 -4.96543 0
M  V30 4514 H 419.447 4.94874 -3.3891 0
M  V30 4515 H 421.126 5.11728 -3.95909 0
M  V30 4516 N 421.258 1.00505 1.21394 0
M  V30 4517 C 422.208 0.536503 2.21598 0
M  V30 4518 C 423.192 -0.401914 1.55799 0
M  V30 4519 O 424.384 -0.226757 1.75541 0
M  V30 4520 C 421.513 -0.135446 3.43033 0
M  V30 4521 C 420.599 0.823992 4.16018 0
M  V30 4522 N 420.99 1.97683 4.6557 0
M  V30 4523 C 419.288 0.642387 4.4135 0
M  V30 4524 C 419.989 2.58003 5.21354 0
M  V30 4525 N 418.965 1.86162 5.1073 0
M  V30 4526 H 422.767 1.41557 2.57563 0
M  V30 4527 H 420.281 0.868878 1.37202 0
M  V30 4528 H 422.278 -0.488584 4.14027 0
M  V30 4529 H 420.938 -1.01049 3.08576 0
M  V30 4530 H 421.949 2.3572 4.61147 0
M  V30 4531 H 418.626 -0.185578 4.17087 0
M  V30 4532 H 420.016 3.555 5.70149 0
M  V30 4533 N 422.737 -1.36956 0.779787 0
M  V30 4534 C 423.684 -2.30175 0.169697 0
M  V30 4535 C 424.654 -1.51501 -0.68094 0
M  V30 4536 O 425.839 -1.80042 -0.631629 0
M  V30 4537 C 422.979 -3.37985 -0.697131 0
M  V30 4538 C 422.092 -4.31661 0.170992 0
M  V30 4539 C 421.227 -5.2655 -0.701298 0
M  V30 4540 C 420.266 -6.11867 0.168869 0
M  V30 4541 N 419.403 -6.98973 -0.661855 0
M  V30 4542 H 424.243 -2.81767 0.970135 0
M  V30 4543 H 421.78 -1.38699 0.489994 0
M  V30 4544 H 423.738 -3.99128 -1.2146 0
M  V30 4545 H 422.368 -2.87739 -1.46309 0
M  V30 4546 H 421.42 -3.71756 0.80634 0
M  V30 4547 H 422.732 -4.91644 0.841875 0
M  V30 4548 H 421.886 -5.92937 -1.28494 0
M  V30 4549 H 420.625 -4.66998 -1.40584 0
M  V30 4550 H 419.63 -5.44452 0.764986 0
M  V30 4551 H 420.855 -6.73493 0.870863 0
M  V30 4552 H 418.801 -6.41941 -1.35086 0
M  V30 4553 H 418.718 -7.55984 -0.0484447 0
M  V30 4554 H 419.986 -7.6974 -1.22963 0
M  V30 4555 N 424.215 -0.530993 -1.48385 0
M  V30 4556 C 425.462 0.0027373 -2.025 0
M  V30 4557 C 425.79 1.34186 -1.40799 0
M  V30 4558 O 425.045 1.88 -0.543544 0
M  V30 4559 C 425.344 0.172742 -3.56982 0
M  V30 4560 C 425.01 -1.09215 -4.37473 0
M  V30 4561 C 423.672 -1.43881 -4.59186 0
M  V30 4562 C 426.024 -1.93153 -4.84088 0
M  V30 4563 C 423.352 -2.62381 -5.2476 0
M  V30 4564 C 425.704 -3.10833 -5.50968 0
M  V30 4565 C 424.368 -3.45843 -5.70919 0
M  V30 4566 H 423.638 0.00100165 -0.740999 0
M  V30 4567 H 426.285 -0.697219 -1.78357 0
M  V30 4568 H 424.59 0.955473 -3.79971 0
M  V30 4569 H 426.287 0.600642 -3.96476 0
M  V30 4570 H 422.877 -0.812177 -4.20834 0
M  V30 4571 H 427.061 -1.67683 -4.67115 0
M  V30 4572 H 422.317 -2.89707 -5.38405 0
M  V30 4573 H 426.491 -3.7618 -5.86056 0
M  V30 4574 H 424.118 -4.37764 -6.21503 0
M  V30 4575 N 425.693 1.55336 -0.266172 0
M  V30 4576 C 426.918 2.04258 0.359661 0
M  V30 4577 C 427.343 1.14359 1.49344 0
M  V30 4578 O 426.701 0.140369 1.80756 0
M  V30 4579 C 426.749 3.50997 0.826635 0
M  V30 4580 O 425.853 3.64204 1.93466 0
M  V30 4581 H 425.194 0.659668 0.075727 0
M  V30 4582 H 427.724 2.00694 -0.39786 0
M  V30 4583 H 427.734 3.9219 1.12477 0
M  V30 4584 H 426.409 4.159 -0.00293032 0
M  V30 4585 H 424.986 3.34913 1.63974 0
M  V30 4586 N 427.171 -0.0066808 1.57599 0
M  V30 4587 C 428.419 -0.691552 1.899 0
M  V30 4588 C 428.74 -1.74682 0.866672 0
M  V30 4589 O 428.01 -1.95661 -0.0968189 0
M  V30 4590 H 426.59 -0.258416 0.700878 0
M  V30 4591 H 429.252 0.0326655 1.94873 0
M  V30 4592 H 428.348 -1.16702 2.8946 0
M  V30 4593 N 428.649 -1.55105 -0.279332 0
M  V30 4594 C 429.877 -1.7943 -1.03017 0
M  V30 4595 C 430.292 -0.564456 -1.80165 0
M  V30 4596 O 429.649 0.466326 -1.76442 0
M  V30 4597 C 429.7 -3.0155 -1.99374 0
M  V30 4598 O 429.421 -4.19784 -1.25352 0
M  V30 4599 C 430.922 -3.3843 -2.86321 0
M  V30 4600 H 428.142 -0.597882 -0.304594 0
M  V30 4601 H 430.686 -2.02105 -0.312035 0
M  V30 4602 H 428.841 -2.81019 -2.66659 0
M  V30 4603 H 429.255 -4.88781 -1.90246 0
M  V30 4604 H 430.729 -4.27066 -3.49741 0
M  V30 4605 H 431.206 -2.57549 -3.5576 0
M  V30 4606 H 431.812 -3.61197 -2.24536 0
M  V30 4607 N 430.127 0.543554 -1.4793 0
M  V30 4608 C 431.357 1.32324 -1.58663 0
M  V30 4609 C 431.765 1.8766 -0.240896 0
M  V30 4610 O 431.108 1.66411 0.778011 0
M  V30 4611 C 431.17 2.52094 -2.56299 0
M  V30 4612 C 430.834 2.17944 -4.01683 0
M  V30 4613 C 431.831 1.74422 -4.89768 0
M  V30 4614 C 429.516 2.28884 -4.47121 0
M  V30 4615 C 431.51 1.42287 -6.21316 0
M  V30 4616 C 429.197 1.96361 -5.78693 0
M  V30 4617 C 430.195 1.53132 -6.65612 0
M  V30 4618 O 429.883 1.21029 -7.94737 0
M  V30 4619 H 429.615 0.409174 -0.538101 0
M  V30 4620 H 432.169 0.663887 -1.94375 0
M  V30 4621 H 430.399 3.20965 -2.15681 0
M  V30 4622 H 432.088 3.14165 -2.57012 0
M  V30 4623 H 432.854 1.65452 -4.55907 0
M  V30 4624 H 428.733 2.61488 -3.79664 0
M  V30 4625 H 432.277 1.08472 -6.89115 0
M  V30 4626 H 428.174 2.04967 -6.12094 0
M  V30 4627 H 428.942 1.34543 -8.07366 0
M  V30 4628 N 431.605 1.3629 0.791371 0
M  V30 4629 C 432.833 1.33562 1.58016 0
M  V30 4630 C 433.248 -0.0835616 1.88615 0
M  V30 4631 O 432.605 -1.0399 1.49974 0
M  V30 4632 C 432.656 2.15517 2.90232 0
M  V30 4633 O 432.377 3.51902 2.60953 0
M  V30 4634 C 433.878 2.20546 3.84544 0
M  V30 4635 H 431.098 0.458226 0.490173 0
M  V30 4636 H 433.642 1.79361 0.982345 0
M  V30 4637 H 431.797 1.73278 3.46487 0
M  V30 4638 H 432.211 3.94644 3.4548 0
M  V30 4639 H 433.685 2.82252 4.74382 0
M  V30 4640 H 434.162 1.20838 4.2225 0
M  V30 4641 H 434.768 2.63013 3.34222 0
M  V30 4642 N 433.083 -1.0153 1.20538 0
M  V30 4643 C 434.323 -1.76689 1.02763 0
M  V30 4644 C 434.687 -1.87065 -0.432513 0
M  V30 4645 O 435.888 -2.58684 -0.730481 0
M  V30 4646 C 434.159 -3.14707 1.69393 0
M  V30 4647 S 435.718 -4.05886 1.66738 0
M  V30 4648 H 432.536 -0.608076 0.368463 0
M  V30 4649 H 435.138 -1.21558 1.53114 0
M  V30 4650 H 433.842 -3.04782 2.74838 0
M  V30 4651 H 433.373 -3.74913 1.19179 0
M  V30 4652 H 435.388 -4.91221 0.70117 0
M  V30 4653 N 434.561 -1.01147 -1.20859 0
M  V30 4654 C 435.494 -0.522108 -2.22147 0
M  V30 4655 C 436.472 0.427686 -1.56874 0
M  V30 4656 O 437.656 0.34889 -1.85243 0
M  V30 4657 C 434.783 0.240819 -3.37843 0
M  V30 4658 C 433.829 -0.657752 -4.21398 0
M  V30 4659 S 434.662 -2.12393 -4.91578 0
M  V30 4660 C 435.818 -1.37102 -6.10699 0
M  V30 4661 H 436.051 -1.38035 -2.63313 0
M  V30 4662 H 433.584 -0.819941 -1.30829 0
M  V30 4663 H 435.542 0.674908 -4.04914 0
M  V30 4664 H 434.203 1.07457 -2.95147 0
M  V30 4665 H 433.396 -0.0697456 -5.03952 0
M  V30 4666 H 432.998 -1.0294 -3.59555 0
M  V30 4667 H 435.29 -0.648315 -6.74391 0
M  V30 4668 H 436.233 -2.17252 -6.73949 0
M  V30 4669 H 436.641 -0.876154 -5.57659 0
M  V30 4670 N 436.039 1.36541 -0.78704 0
M  V30 4671 C 436.987 2.31965 -0.171724 0
M  V30 4672 C 437.981 1.55689 0.667631 0
M  V30 4673 O 439.187 1.70969 0.562981 0
M  V30 4674 H 435.562 0.751101 -0.0367545 0
M  V30 4675 H 437.533 2.81428 -0.992017 0
M  V30 4676 C 436.282 3.40968 0.680904 0
M  V30 4677 H 435.605 3.99775 0.0443961 0
M  V30 4678 H 437.045 4.10063 1.07815 0
M  V30 4679 C 435.504 2.82338 1.83813 0
M  V30 4680 O 436.034 2.74311 2.93456 0
M  V30 4681 N 434.24 2.39661 1.6435 0
M  V30 4682 H 433.787 2.46389 0.751668 0
M  V30 4683 H 433.745 2.00779 2.4194 0
M  V30 4684 N 437.518 0.538854 1.48102 0
M  V30 4685 C 438.746 0.0123136 2.06896 0
M  V30 4686 C 439.161 -1.27312 1.39417 0
M  V30 4687 O 438.518 -1.75949 0.484582 0
M  V30 4688 C 438.569 -0.206118 3.60912 0
M  V30 4689 O 438.29 1.0284 4.25859 0
M  V30 4690 C 439.791 -0.772033 4.36526 0
M  V30 4691 H 437.011 0.0375239 0.66995 0
M  V30 4692 H 439.555 0.747032 1.90367 0
M  V30 4693 H 437.71 -0.89091 3.77017 0
M  V30 4694 H 438.124 0.814654 5.18135 0
M  V30 4695 H 439.598 -0.874251 5.45033 0
M  V30 4696 H 440.075 -1.77904 4.01555 0
M  V30 4697 H 440.681 -0.123526 4.25121 0
M  V30 4698 N 438.996 -1.55193 0.274407 0
M  V30 4699 C 440.243 -1.99581 -0.342579 0
M  V30 4700 C 440.571 -1.1628 -1.55914 0
M  V30 4701 O 439.826 -0.22029 -1.94456 0
M  V30 4702 C 440.125 -3.49019 -0.769458 0
M  V30 4703 C 439.791 -4.49598 0.342389 0
M  V30 4704 C 438.453 -4.76821 0.647686 0
M  V30 4705 C 440.805 -5.0964 1.09163 0
M  V30 4706 C 438.133 -5.61354 1.70581 0
M  V30 4707 C 440.485 -5.95323 2.13948 0
M  V30 4708 C 439.149 -6.20867 2.45113 0
M  V30 4709 H 438.419 -0.730319 -0.125358 0
M  V30 4710 H 441.066 -1.87529 0.387971 0
M  V30 4711 H 439.371 -3.58544 -1.57967 0
M  V30 4712 H 441.068 -3.8077 -1.25757 0
M  V30 4713 H 437.658 -4.28496 0.094318 0
M  V30 4714 H 441.842 -4.88632 0.869024 0
M  V30 4715 H 437.098 -5.79392 1.9523 0
M  V30 4716 H 441.272 -6.40881 2.72478 0
M  V30 4717 H 438.899 -6.86162 3.27239 0
M  V30 4718 N 440.474 -0.00167713 -1.576 0
M  V30 4719 C 441.421 0.989195 -2.08527 0
M  V30 4720 C 442.391 1.34031 -0.981065 0
M  V30 4721 O 443.576 1.43839 -1.2536 0
M  V30 4722 C 440.716 2.27537 -2.59463 0
M  V30 4723 C 439.829 1.98314 -3.83791 0
M  V30 4724 C 438.964 3.21025 -4.23222 0
M  V30 4725 C 438.003 2.87495 -5.40382 0
M  V30 4726 N 437.14 4.02749 -5.75098 0
M  V30 4727 H 441.98 0.547973 -2.92919 0
M  V30 4728 H 439.517 0.258917 -1.44803 0
M  V30 4729 H 441.475 3.02729 -2.87073 0
M  V30 4730 H 440.105 2.69325 -1.77943 0
M  V30 4731 H 439.157 1.13482 -3.63078 0
M  V30 4732 H 440.469 1.69601 -4.69081 0
M  V30 4733 H 439.623 4.04561 -4.52123 0
M  V30 4734 H 438.362 3.52877 -3.36644 0
M  V30 4735 H 437.367 2.02367 -5.11202 0
M  V30 4736 H 438.592 2.56889 -6.28637 0
M  V30 4737 H 436.538 4.34494 -4.91478 0
M  V30 4738 H 436.455 3.77566 -6.54966 0
M  V30 4739 H 437.723 4.87068 -6.08592 0
M  V30 4740 N 441.952 1.55251 0.271103 0
M  V30 4741 C 443.2 1.75599 1.00047 0
M  V30 4742 C 443.521 0.561188 1.8675 0
M  V30 4743 O 442.791 -0.423846 1.9126 0
M  V30 4744 H 441.371 0.647562 0.372387 0
M  V30 4745 H 444.033 1.92656 0.294876 0
M  V30 4746 H 443.129 2.65766 1.6363 0
M  V30 4747 N 443.43 -0.535701 1.48216 0
M  V30 4748 C 444.846 -0.863701 1.3421 0
M  V30 4749 C 445.046 -1.98458 0.34879 0
M  V30 4750 O 444.102 -2.51432 -0.23204 0
M  V30 4751 C 445.415 -1.23662 2.74095 0
M  V30 4752 C 446.963 -1.34683 2.82541 0
M  V30 4753 C 447.438 -1.75322 4.23115 0
M  V30 4754 N 448.929 -1.82434 4.2576 0
M  V30 4755 C 449.664 -2.15252 5.31464 0
M  V30 4756 N 449.16 -2.46533 6.47452 0
M  V30 4757 N 450.953 -2.16209 5.18855 0
M  V30 4758 H 443.104 0.203965 2.11418 0
M  V30 4759 H 445.367 0.0286033 0.947568 0
M  V30 4760 H 445.073 -0.486674 3.48316 0
M  V30 4761 H 444.947 -2.18805 3.07253 0
M  V30 4762 H 447.334 -2.08756 2.08579 0
M  V30 4763 H 447.415 -0.376756 2.5301 0
M  V30 4764 H 447.059 -1.01812 4.97591 0
M  V30 4765 H 446.989 -2.7337 4.50085 0
M  V30 4766 H 449.48 -1.6056 3.42095 0
M  V30 4767 H 449.793 -2.70662 7.23852 0
M  V30 4768 H 448.138 -2.44065 6.50736 0
M  V30 4769 H 451.329 -1.91224 4.2726 0
M  V30 4770 H 451.502 -2.41453 6.01335 0
M  V30 4771 N 444.908 -1.36708 -0.784132 0
M  V30 4772 C 446.136 -1.34398 -1.57305 0
M  V30 4773 C 446.551 0.0735577 -1.88657 0
M  V30 4774 O 445.908 1.03193 -1.50524 0
M  V30 4775 C 445.959 -2.17053 -2.89085 0
M  V30 4776 O 445.68 -3.53281 -2.59083 0
M  V30 4777 C 447.181 -2.22583 -3.83369 0
M  V30 4778 H 444.401 -0.460819 -0.487736 0
M  V30 4779 H 446.945 -1.79879 -0.972819 0
M  V30 4780 H 445.1 -1.75113 -3.45564 0
M  V30 4781 H 445.514 -3.9647 -3.43383 0
M  V30 4782 H 446.988 -2.84763 -4.72878 0
M  V30 4783 H 447.465 -1.23075 -4.21603 0
M  V30 4784 H 448.071 -2.64781 -3.32823 0
M  V30 4785 O 446.425 0.923818 -1.32468 0
M  V30 4786 H 447.116 1.55617 -1.15339 0
M  V30 END ATOM
M  V30 BEGIN BOND
M  V30 END BOND
M  V30 END CTAB
M  END
$$$$
