drugbank_target|Q08493 cAMP-specific 3',5'-cyclic phosphodiesterase 4C (DB00651; DB01088; DB01656; DB01791; DB05219; DB05266; DB06246)
 OpenBabel12092120093D

  0  0  0     0  0            999 V3000
M  V30 BEGIN CTAB
M  V30 COUNTS 11092 11202 0 0 0
M  V30 BEGIN ATOM
M  V30 1 H -0.908 1.98254 -0.117106 0
M  V30 2 N 0 1.576 0 0
M  V30 3 C 0.933 2.03868 1.02534 0
M  V30 4 C 1.911 0.928543 1.3348 0
M  V30 5 O 3.095 1.19667 1.45644 0
M  V30 6 C 0.222 2.43627 2.35294 0
M  V30 7 C -0.732 3.65373 2.2001 0
M  V30 8 S 0.101 5.13292 1.52614 0
M  V30 9 C 1.257 5.56322 2.86805 0
M  V30 10 H 1.49 2.90518 0.631377 0
M  V30 11 H -0.977 1.52953 0.210867 0
M  V30 12 H 0.981 2.67203 3.11629 0
M  V30 13 H -0.358 1.57376 2.7183 0
M  V30 14 H -1.165 3.90944 3.18086 0
M  V30 15 H -1.563 3.418 1.51819 0
M  V30 16 H 0.729 5.58782 3.83104 0
M  V30 17 H 1.672 6.56266 2.65933 0
M  V30 18 H 2.08 4.83886 2.90714 0
M  V30 19 N 1.4781 -0.272755 1.55222 0
M  V30 20 C 2.3881 -1.35918 1.91216 0
M  V30 21 C 3.4041 -1.54026 0.809436 0
M  V30 22 O 4.5801 -1.68148 1.10852 0
M  V30 23 C 1.6451 -2.69834 2.17693 0
M  V30 24 C 0.7061 -2.6047 3.41253 0
M  V30 25 C -0.0609 -3.88 3.66458 0
M  V30 26 O 0.1621 -4.88693 2.94169 0
M  V30 27 O -0.9039 -3.88189 4.59992 0
M  V30 28 H 2.9221 -1.0839 2.83699 0
M  V30 29 H 0.5071 -0.471301 1.41771 0
M  V30 30 H 2.3891 -3.49017 2.36147 0
M  V30 31 H 1.0641 -2.97148 1.28392 0
M  V30 32 H -0.0289 -1.79663 3.28134 0
M  V30 33 H 1.3041 -2.38106 4.30774 0
M  V30 34 N 2.9562 -1.48159 -0.537278 0
M  V30 35 C 3.9042 -1.62573 -1.66352 0
M  V30 36 C 4.8982 -0.492366 -1.62087 0
M  V30 37 O 6.1042 -0.670847 -1.67032 0
M  V30 38 H 2.4792 -0.511992 -0.550789 0
M  V30 39 H 4.4502 -2.57176 -1.51337 0
M  V30 40 C 3.1992 -1.67583 -3.04649 0
M  V30 41 H 2.5222 -2.54151 -3.08622 0
M  V30 42 H 3.9622 -1.81713 -3.83088 0
M  V30 43 C 2.4212 -0.413039 -3.34358 0
M  V30 44 O 2.9512 0.477259 -3.98855 0
M  V30 45 N 1.1572 -0.286961 -2.8918 0
M  V30 46 H 0.7042 -1.01241 -2.36871 0
M  V30 47 H 0.6622 0.556963 -3.09427 0
M  V30 48 N 4.4343 0.785586 -1.36625 0
M  V30 49 C 5.3643 1.91259 -1.33949 0
M  V30 50 C 6.3453 1.68795 -0.210325 0
M  V30 51 O 7.5303 1.89854 -0.408561 0
M  V30 52 C 4.6603 3.28339 -1.13186 0
M  V30 53 C 3.6143 3.65335 -2.22967 0
M  V30 54 C 2.9403 5.00806 -1.87342 0
M  V30 55 C 4.2403 3.7352 -3.65075 0
M  V30 56 H 5.9343 1.93755 -2.28253 0
M  V30 57 H 3.4803 0.930788 -1.09874 0
M  V30 58 H 5.4333 4.06804 -1.09948 0
M  V30 59 H 4.1573 3.2624 -0.153332 0
M  V30 60 H 2.8163 2.89169 -2.25337 0
M  V30 61 H 2.4643 4.95233 -0.880545 0
M  V30 62 H 2.1643 5.26529 -2.60846 0
M  V30 63 H 3.6883 5.81687 -1.85667 0
M  V30 64 H 5.1023 4.42168 -3.64911 0
M  V30 65 H 3.4993 4.10731 -4.37516 0
M  V30 66 H 4.5693 2.74527 -3.99703 0
M  V30 67 N 5.9124 1.20967 1.01018 0
M  V30 68 C 7.1604 1.02172 1.74371 0
M  V30 69 C 7.4814 -0.446414 1.89821 0
M  V30 70 O 6.7514 -1.32234 1.44537 0
M  V30 71 H 5.3314 0.375066 0.646014 0
M  V30 72 H 7.9934 1.52187 1.21758 0
M  V30 73 H 7.0894 1.48538 2.74487 0
M  V30 74 N 7.3905 -1.2043 1.01659 0
M  V30 75 C 8.6365 -1.90079 0.706963 0
M  V30 76 C 8.9695 -1.78648 -0.761474 0
M  V30 77 O 8.2445 -1.17069 -1.55323 0
M  V30 78 C 8.5275 -3.41469 1.14327 0
M  V30 79 C 8.3805 -3.61833 2.67201 0
M  V30 80 C 9.6995 -4.34261 0.714529 0
M  V30 81 H 6.8185 -0.690254 0.2583 0
M  V30 82 H 9.4605 -1.41826 1.26433 0
M  V30 83 H 7.6105 -3.82696 0.669056 0
M  V30 84 H 9.2825 -3.2986 3.22475 0
M  V30 85 H 7.5255 -3.05304 3.08175 0
M  V30 86 H 8.1965 -4.67955 2.92783 0
M  V30 87 H 10.6725 -4.00682 1.12221 0
M  V30 88 H 9.5485 -5.38806 1.04784 0
M  V30 89 H 9.8095 -4.40431 -0.383799 0
M  V30 90 N 8.8686 -0.792821 -1.36206 0
M  V30 91 C 10.1166 -0.366062 -1.98757 0
M  V30 92 C 10.4376 1.0668 -1.63231 0
M  V30 93 O 9.7076 1.73587 -0.907978 0
M  V30 94 H 8.2876 -0.132364 -0.735179 0
M  V30 95 H 10.9496 -1.01562 -1.66347 0
M  V30 96 H 10.0456 -0.460638 -3.08682 0
M  V30 97 N 10.3467 1.47872 -0.545128 0
M  V30 98 C 11.2567 2.33633 0.212746 0
M  V30 99 C 12.2727 1.4744 0.923983 0
M  V30 100 O 13.4487 1.80393 0.895572 0
M  V30 101 C 10.5137 3.23884 1.23693 0
M  V30 102 C 9.5747 4.25961 0.534417 0
M  V30 103 C 8.8077 5.11899 1.5098 0
M  V30 104 O 9.0307 5.00077 2.7437 0
M  V30 105 O 7.9647 5.92831 1.0409 0
M  V30 106 H 11.7907 2.99714 -0.490416 0
M  V30 107 H 9.3757 1.46235 -0.305871 0
M  V30 108 H 11.2577 3.79666 1.82843 0
M  V30 109 H 9.9327 2.60446 1.92222 0
M  V30 110 H 8.8397 3.73972 -0.0979679 0
M  V30 111 H 10.1727 4.92079 -0.109213 0
M  V30 112 N 11.8248 0.280983 1.55075 0
M  V30 113 C 13.0728 -0.333455 1.9933 0
M  V30 114 C 13.3938 -1.55937 1.17085 0
M  V30 115 O 12.6638 -1.94143 0.261805 0
M  V30 116 H 11.2438 -0.126197 0.736263 0
M  V30 117 H 13.9058 0.387678 1.91005 0
M  V30 118 H 13.0018 -0.619292 3.05894 0
M  V30 119 N 13.3029 -1.57598 0.00835791 0
M  V30 120 C 14.2659 -2.07884 -0.965242 0
M  V30 121 C 15.2659 -0.989825 -1.26725 0
M  V30 122 O 16.4559 -1.25218 -1.21104 0
M  V30 123 C 13.5879 -2.52731 -2.28779 0
M  V30 124 H 14.7809 -2.95178 -0.530112 0
M  V30 125 H 12.3339 -1.54458 -0.239283 0
M  V30 126 H 13.0689 -1.68705 -2.76964 0
M  V30 127 H 12.8539 -3.32272 -2.08177 0
M  V30 128 H 14.3439 -2.91933 -2.98605 0
M  V30 129 N 14.781 0.264519 -1.55364 0
M  V30 130 C 15.691 1.34902 -1.91934 0
M  V30 131 C 16.707 1.53595 -0.817593 0
M  V30 132 O 17.883 1.67558 -1.11742 0
M  V30 133 C 14.948 2.68676 -2.19121 0
M  V30 134 C 14.009 2.58657 -3.4263 0
M  V30 135 C 13.242 3.86051 -3.68511 0
M  V30 136 O 13.465 4.87126 -2.96757 0
M  V30 137 O 12.399 3.85744 -4.62045 0
M  V30 138 H 16.225 1.06883 -2.8427 0
M  V30 139 H 13.81 0.463775 -1.42019 0
M  V30 140 H 15.692 3.47759 -2.37995 0
M  V30 141 H 14.367 2.96463 -1.29966 0
M  V30 142 H 13.274 1.7792 -3.29082 0
M  V30 143 H 14.607 2.35818 -4.32031 0
M  V30 144 N 16.2591 1.48442 0.529413 0
M  V30 145 C 17.2221 1.62524 1.61612 0
M  V30 146 C 18.2221 0.498509 1.52877 0
M  V30 147 O 19.4121 0.76431 1.56537 0
M  V30 148 C 16.5441 1.59597 3.01233 0
M  V30 149 H 17.7371 2.59423 1.50465 0
M  V30 150 H 15.2901 1.37047 0.751514 0
M  V30 151 H 16.0251 0.641781 3.17886 0
M  V30 152 H 15.8101 2.41397 3.08982 0
M  V30 153 H 17.3001 1.72646 3.80241 0
M  V30 154 N 17.7372 -0.778329 1.37039 0
M  V30 155 C 18.9772 -1.54973 1.33276 0
M  V30 156 C 19.3412 -1.91816 -0.0839376 0
M  V30 157 O 20.5422 -2.6767 -0.246228 0
M  V30 158 C 18.8132 -2.78517 2.23971 0
M  V30 159 S 20.3722 -3.6865 2.37997 0
M  V30 160 H 17.1902 -0.530639 0.473226 0
M  V30 161 H 19.7922 -0.915806 1.72723 0
M  V30 162 H 18.4962 -2.4952 3.25835 0
M  V30 163 H 18.0272 -3.46875 1.85584 0
M  V30 164 H 20.0422 -4.70182 1.58567 0
M  V30 165 N 19.2153 -1.21501 -1.00376 0
M  V30 166 C 20.4403 -1.05977 -1.78279 0
M  V30 167 C 20.8653 0.385994 -1.84097 0
M  V30 168 O 20.2233 1.27849 -1.28547 0
M  V30 169 C 20.2713 -1.66302 -3.19963 0
M  V30 170 O 19.3753 -0.909333 -4.0225 0
M  V30 171 H 18.7163 -0.372906 -0.549397 0
M  V30 172 H 21.2463 -1.6107 -1.26165 0
M  V30 173 H 21.2563 -1.70574 -3.70632 0
M  V30 174 H 19.9313 -2.71515 -3.15043 0
M  V30 175 H 18.5083 -0.941795 -3.60811 0
M  V30 176 N 20.6934 1.19889 -1.02296 0
M  V30 177 C 22.1094 1.41462 -0.738954 0
M  V30 178 C 22.3094 1.89721 0.678846 0
M  V30 179 O 21.3654 2.07016 1.4457 0
M  V30 180 C 22.6784 2.43083 -1.77005 0
M  V30 181 C 24.2264 2.5684 -1.78892 0
M  V30 182 C 24.7014 3.61709 -2.80945 0
M  V30 183 N 26.1924 3.69199 -2.79725 0
M  V30 184 C 26.9274 4.50019 -3.55345 0
M  V30 185 N 26.4234 5.34592 -4.40662 0
M  V30 186 N 28.2164 4.44612 -3.43914 0
M  V30 187 H 20.3674 0.868827 -1.93817 0
M  V30 188 H 22.6304 0.44399 -0.837602 0
M  V30 189 H 22.3364 2.14636 -2.78612 0
M  V30 190 H 22.2104 3.4217 -1.58744 0
M  V30 191 H 24.5974 2.84614 -0.779674 0
M  V30 192 H 24.6784 1.57927 -2.01228 0
M  V30 193 H 24.3224 3.34678 -3.82038 0
M  V30 194 H 24.2524 4.60259 -2.5587 0
M  V30 195 H 26.7434 3.08794 -2.17842 0
M  V30 196 H 27.0564 5.93363 -4.95116 0
M  V30 197 H 25.4014 5.34073 -4.44737 0
M  V30 198 H 28.5924 3.7758 -2.76679 0
M  V30 199 H 28.7654 5.0736 -4.031 0
M  V30 200 N 22.1715 0.800033 1.35784 0
M  V30 201 C 23.1015 0.220184 2.3246 0
M  V30 202 C 24.0825 -0.65073 1.57161 0
M  V30 203 O 25.2675 -0.582359 1.85263 0
M  V30 204 C 22.3975 -0.637353 3.41402 0
M  V30 205 C 21.3515 0.134531 4.27789 0
M  V30 206 C 20.6775 -0.844285 5.27992 0
M  V30 207 C 21.9775 1.32979 5.05088 0
M  V30 208 H 23.6715 1.02787 2.81203 0
M  V30 209 H 21.2175 0.495717 1.35199 0
M  V30 210 H 23.1705 -1.05302 4.08031 0
M  V30 211 H 21.8945 -1.47785 2.91251 0
M  V30 212 H 20.5535 0.531296 3.6273 0
M  V30 213 H 20.2015 -1.68011 4.74111 0
M  V30 214 H 19.9015 -0.332184 5.8666 0
M  V30 215 H 21.4255 -1.2583 5.97494 0
M  V30 216 H 22.8395 0.98934 5.64699 0
M  V30 217 H 21.2365 1.77593 5.7322 0
M  V30 218 H 22.3065 2.11978 4.36111 0
M  V30 219 N 23.6496 -1.47581 0.552962 0
M  V30 220 C 24.8746 -2.07378 0.0300593 0
M  V30 221 C 25.2996 -1.40355 -1.25229 0
M  V30 222 O 24.6576 -0.477099 -1.7491 0
M  V30 223 C 24.7056 -3.60274 -0.153231 0
M  V30 224 O 23.8096 -3.94041 -1.21678 0
M  V30 225 H 23.1506 -0.662158 0.0494182 0
M  V30 226 H 25.6806 -1.89662 0.767434 0
M  V30 227 H 25.6906 -4.0633 -0.368761 0
M  V30 228 H 24.3656 -4.08455 0.783397 0
M  V30 229 H 22.9426 -3.59735 -0.982079 0
M  V30 230 N 25.1277 -0.289203 -1.54924 0
M  V30 231 C 26.5437 0.0645403 -1.59469 0
M  V30 232 C 26.7437 1.53419 -1.30632 0
M  V30 233 O 25.7997 2.2852 -1.074 0
M  V30 234 C 27.1127 -0.32278 -2.98963 0
M  V30 235 C 28.6607 -0.270564 -3.11828 0
M  V30 236 C 29.1357 -0.632532 -4.53611 0
M  V30 237 N 30.6267 -0.584617 -4.59496 0
M  V30 238 C 31.3617 -0.837314 -5.67254 0
M  V30 239 N 30.8577 -1.15536 -6.83098 0
M  V30 240 N 32.6507 -0.765166 -5.56868 0
M  V30 241 H 24.8017 -1.24714 -1.71931 0
M  V30 242 H 27.0647 -0.504809 -0.802416 0
M  V30 243 H 26.7707 -1.34541 -3.24948 0
M  V30 244 H 26.6447 0.32944 -3.75759 0
M  V30 245 H 29.0317 0.742805 -2.85598 0
M  V30 246 H 29.1127 -0.957242 -2.37214 0
M  V30 247 H 28.7567 -1.64365 -4.80569 0
M  V30 248 H 28.6867 0.07609 -5.26545 0
M  V30 249 H 31.1777 -0.349248 -3.76283 0
M  V30 250 H 31.4907 -1.33447 -7.61191 0
M  V30 251 H 29.8357 -1.19328 -6.84679 0
M  V30 252 H 33.0267 -0.516432 -4.65243 0
M  V30 253 H 33.1997 -0.965477 -6.40767 0
M  V30 254 N 26.6058 1.57591 -0.0167156 0
M  V30 255 C 27.8308 1.9598 0.67872 0
M  V30 256 C 28.2558 0.892546 1.65575 0
M  V30 257 O 27.6138 -0.147772 1.80697 0
M  V30 258 C 27.6618 3.33468 1.37227 0
M  V30 259 O 26.7658 3.28954 2.48722 0
M  V30 260 H 26.1068 0.639339 0.17928 0
M  V30 261 H 28.6368 2.04463 -0.0748802 0
M  V30 262 H 28.6468 3.69417 1.7319 0
M  V30 263 H 27.3218 4.10694 0.656007 0
M  V30 264 H 25.8988 3.04705 2.14963 0
M  V30 265 N 28.0839 -0.256276 1.55502 0
M  V30 266 C 29.4999 -0.604325 1.47716 0
M  V30 267 C 29.6999 -1.88763 0.705039 0
M  V30 268 O 28.7559 -2.51445 0.230613 0
M  V30 269 C 30.0689 -0.715756 2.92057 0
M  V30 270 C 31.6169 -0.808706 3.02372 0
M  V30 271 C 32.0919 -0.951777 4.48001 0
M  V30 272 N 33.5829 -1.01688 4.519 0
M  V30 273 C 34.3179 -1.14668 5.61817 0
M  V30 274 N 33.8139 -1.24261 6.81565 0
M  V30 275 N 35.6069 -1.1791 5.49594 0
M  V30 276 H 27.7579 0.586291 2.04148 0
M  V30 277 H 30.0209 0.201015 0.926443 0
M  V30 278 H 29.7269 0.157027 3.51349 0
M  V30 279 H 29.6009 -1.59071 3.42018 0
M  V30 280 H 31.9879 -1.67195 2.43166 0
M  V30 281 H 32.0689 0.0912063 2.55637 0
M  V30 282 H 31.7129 -0.0931291 5.07815 0
M  V30 283 H 31.6429 -1.86659 4.92408 0
M  V30 284 H 34.1339 -0.954468 3.65648 0
M  V30 285 H 34.4469 -1.34046 7.61086 0
M  V30 286 H 32.7919 -1.21236 6.84344 0
M  V30 287 H 35.9829 -1.10057 4.54978 0
M  V30 288 H 36.1559 -1.27681 6.35296 0
M  V30 289 N 29.562 -1.4872 -0.521534 0
M  V30 290 C 30.81 -1.56857 -1.27437 0
M  V30 291 C 31.131 -0.247982 -1.93417 0
M  V30 292 O 30.401 0.731151 -1.81744 0
M  V30 293 H 28.981 -0.577885 -0.473347 0
M  V30 294 H 31.643 -1.85233 -0.606205 0
M  V30 295 H 30.739 -2.35402 -2.0492 0
M  V30 296 N 31.0401 0.771051 -1.3745 0
M  V30 297 C 32.4561 1.07171 -1.18265 0
M  V30 298 C 32.6561 2.01491 -0.019287 0
M  V30 299 O 31.7121 2.44244 0.640408 0
M  V30 300 C 33.0251 1.66854 -2.50161 0
M  V30 301 C 34.5731 1.79109 -2.56689 0
M  V30 302 C 35.0481 2.42205 -3.88717 0
M  V30 303 N 36.5391 2.49655 -3.90162 0
M  V30 304 C 37.2741 2.9933 -4.8907 0
M  V30 305 N 36.7701 3.49172 -5.98374 0
M  V30 306 N 38.5631 2.9821 -4.76474 0
M  V30 307 H 30.7141 0.144796 -2.11906 0
M  V30 308 H 32.9771 0.126863 -0.939473 0
M  V30 309 H 32.6831 1.05017 -3.35655 0
M  V30 310 H 32.5571 2.6614 -2.673 0
M  V30 311 H 34.9441 2.40077 -1.71601 0
M  V30 312 H 35.0251 0.785757 -2.43433 0
M  V30 313 H 34.6691 1.81875 -4.74219 0
M  V30 314 H 34.5991 3.43345 -3.99276 0
M  V30 315 H 37.0901 2.14383 -3.11205 0
M  V30 316 H 37.4031 3.8548 -6.69795 0
M  V30 317 H 35.7481 3.47275 -6.02018 0
M  V30 318 H 38.9391 2.58572 -3.90203 0
M  V30 319 H 39.1121 3.36613 -5.53711 0
M  V30 320 N 32.5182 1.22032 0.997298 0
M  V30 321 C 33.4682 0.953838 2.07089 0
M  V30 322 C 34.4522 -0.0938669 1.60626 0
M  V30 323 O 35.6442 0.116078 1.76619 0
M  V30 324 C 32.7732 0.528726 3.39204 0
M  V30 325 C 31.8592 1.61092 3.92314 0
M  V30 326 N 32.2502 2.83768 4.18699 0
M  V30 327 C 30.5482 1.48158 4.20672 0
M  V30 328 C 31.2492 3.53715 4.61802 0
M  V30 329 N 30.2252 2.81174 4.65233 0
M  V30 330 H 34.0272 1.88577 2.25424 0
M  V30 331 H 31.5412 1.11719 1.17867 0
M  V30 332 H 33.5382 0.31915 4.15677 0
M  V30 333 H 32.1982 -0.39635 3.22272 0
M  V30 334 H 33.2092 3.20238 4.07023 0
M  V30 335 H 29.8862 0.622369 4.12835 0
M  V30 336 H 31.2762 4.58793 4.90875 0
M  V30 337 N 33.9963 -1.19345 1.0293 0
M  V30 338 C 35.2213 -1.93538 0.745511 0
M  V30 339 C 35.6463 -1.75007 -0.689511 0
M  V30 340 O 35.0043 -1.05265 -1.47611 0
M  V30 341 C 35.0523 -3.43336 1.10239 0
M  V30 342 O 34.1563 -4.11806 0.221289 0
M  V30 343 H 33.4973 -0.604193 0.275404 0
M  V30 344 H 36.0273 -1.5141 1.37609 0
M  V30 345 H 36.0373 -3.94004 1.05947 0
M  V30 346 H 34.7123 -3.56146 2.14786 0
M  V30 347 H 33.2893 -3.715 0.322842 0
M  V30 348 N 35.4744 -0.807222 -1.35358 0
M  V30 349 C 36.4074 -0.163572 -2.27613 0
M  V30 350 C 37.3854 0.670817 -1.48118 0
M  V30 351 O 38.5694 0.63796 -1.77376 0
M  V30 352 C 35.6964 0.773015 -3.29761 0
M  V30 353 C 34.7424 0.0181653 -4.26496 0
M  V30 354 S 35.5754 -1.31831 -5.19019 0
M  V30 355 C 36.7314 -0.38619 -6.24707 0
M  V30 356 H 36.9644 -0.945757 -2.81856 0
M  V30 357 H 34.4974 -0.602315 -1.42167 0
M  V30 358 H 36.4554 1.30788 -3.89108 0
M  V30 359 H 35.1164 1.52859 -2.74396 0
M  V30 360 H 34.3094 0.729534 -4.98692 0
M  V30 361 H 33.9114 -0.446761 -3.71322 0
M  V30 362 H 36.2034 0.428295 -6.76145 0
M  V30 363 H 37.1464 -1.07736 -6.99856 0
M  V30 364 H 37.5544 0.018398 -5.64497 0
M  V30 365 N 36.9525 1.47285 -0.560781 0
M  V30 366 C 38.1805 2.06855 -0.0430262 0
M  V30 367 C 38.5955 1.41291 1.25229 0
M  V30 368 O 37.9525 0.510648 1.7521 0
M  V30 369 C 38.0035 3.61178 0.152518 0
M  V30 370 O 37.7245 4.24285 -1.0915 0
M  V30 371 C 39.2255 4.37624 0.707145 0
M  V30 372 H 36.4455 0.669319 -0.0474652 0
M  V30 373 H 38.9895 1.89237 -0.77521 0
M  V30 374 H 37.1445 3.78298 0.834843 0
M  V30 375 H 37.5585 5.16868 -0.891482 0
M  V30 376 H 39.0325 5.46271 0.793244 0
M  V30 377 H 39.5095 4.04152 1.71923 0
M  V30 378 H 40.1155 4.25257 0.0604027 0
M  V30 379 N 38.4306 0.297415 1.54768 0
M  V30 380 C 39.8466 -0.0560823 1.59501 0
M  V30 381 C 40.0466 -1.52725 1.31444 0
M  V30 382 O 39.1026 -2.27947 1.08611 0
M  V30 383 C 40.4156 0.338631 2.98787 0
M  V30 384 C 41.9636 0.287097 3.11681 0
M  V30 385 C 42.4386 0.656579 4.53269 0
M  V30 386 N 43.9296 0.608977 4.59179 0
M  V30 387 C 44.6646 0.867385 5.66802 0
M  V30 388 N 44.1606 1.19157 6.82476 0
M  V30 389 N 45.9536 0.794687 5.56454 0
M  V30 390 H 38.1046 1.25624 1.71267 0
M  V30 391 H 40.3676 0.509057 0.799728 0
M  V30 392 H 40.0736 1.36263 3.2423 0
M  V30 393 H 39.9476 -0.309508 3.75928 0
M  V30 394 H 42.3346 -0.727649 2.85988 0
M  V30 395 H 42.4156 0.969809 2.36703 0
M  V30 396 H 42.0596 1.66912 4.7969 0
M  V30 397 H 41.9896 -0.0481649 5.26578 0
M  V30 398 H 44.4806 0.369198 3.76092 0
M  V30 399 H 44.7936 1.37482 7.60473 0
M  V30 400 H 43.1386 1.22958 6.84037 0
M  V30 401 H 46.3296 0.541098 4.64962 0
M  V30 402 H 46.5026 0.999445 6.40246 0
M  V30 403 N 39.9087 -1.5758 0.0250728 0
M  V30 404 C 40.8717 -2.08896 -0.943139 0
M  V30 405 C 41.8717 -1.00321 -1.25668 0
M  V30 406 O 43.0617 -1.26495 -1.19769 0
M  V30 407 C 40.1937 -2.55143 -2.26086 0
M  V30 408 H 41.3867 -2.95723 -0.498775 0
M  V30 409 H 38.9397 -1.54703 -0.222888 0
M  V30 410 H 39.6747 -1.71633 -2.75159 0
M  V30 411 H 39.4597 -3.34461 -2.04641 0
M  V30 412 H 40.9497 -2.95083 -2.95492 0
M  V30 413 N 41.3868 0.248026 -1.55636 0
M  V30 414 C 42.7978 0.817177 -1.67866 0
M  V30 415 C 43.1488 1.86069 -0.622322 0
M  V30 416 O 42.2738 2.15157 0.231618 0
M  V30 417 C 42.8688 1.489 -3.04326 0
M  V30 418 C 41.4278 2.00587 -3.185 0
M  V30 419 C 40.5748 0.856573 -2.63739 0
M  V30 420 H 43.5258 0.0238579 -1.58682 0
M  V30 421 H 43.5468 2.35698 -2.98708 0
M  V30 422 H 43.0588 0.729279 -3.81186 0
M  V30 423 H 41.1598 2.79443 -2.4646 0
M  V30 424 H 41.2728 2.20402 -4.25393 0
M  V30 425 H 39.6368 1.25678 -2.21534 0
M  V30 426 H 40.4198 0.109953 -3.43124 0
M  V30 427 N 42.8649 1.48995 0.513639 0
M  V30 428 C 43.8119 1.6473 1.61656 0
M  V30 429 C 44.7819 0.488984 1.58739 0
M  V30 430 O 45.9669 0.714478 1.76918 0
M  V30 431 C 43.1069 1.7082 2.99858 0
M  V30 432 C 42.2199 2.9787 3.12885 0
M  V30 433 C 41.3549 2.95017 4.41744 0
M  V30 434 C 40.3939 4.16702 4.48359 0
M  V30 435 N 39.5309 4.11832 5.68629 0
M  V30 436 H 44.3709 2.58909 1.47547 0
M  V30 437 H 41.9079 1.28382 0.71808 0
M  V30 438 H 43.8659 1.72331 3.79944 0
M  V30 439 H 42.4959 0.801181 3.12699 0
M  V30 440 H 41.5479 3.06029 2.25944 0
M  V30 441 H 42.8599 3.8786 3.13633 0
M  V30 442 H 42.0139 2.95021 5.30139 0
M  V30 443 H 40.7529 2.02784 4.43542 0
M  V30 444 H 39.7579 4.16955 3.58369 0
M  V30 445 H 40.9829 5.10113 4.48287 0
M  V30 446 H 38.9289 3.22428 5.71293 0
M  V30 447 H 38.8459 4.95543 5.7094 0
M  V30 448 H 40.1139 4.1592 6.59266 0
M  V30 449 N 44.343 -0.763751 1.37857 0
M  V30 450 C 45.293 -1.86765 1.30777 0
M  V30 451 C 46.277 -1.59726 0.194015 0
M  V30 452 O 47.469 -1.7172 0.42911 0
M  V30 453 C 44.598 -3.24343 1.12502 0
M  V30 454 C 43.684 -3.57307 2.28456 0
M  V30 455 N 44.075 -3.61398 3.53871 0
M  V30 456 C 42.373 -3.87517 2.20786 0
M  V30 457 C 43.074 -3.91339 4.30382 0
M  V30 458 N 42.05 -4.07649 3.59615 0
M  V30 459 H 45.852 -1.88191 2.25746 0
M  V30 460 H 43.366 -0.9606 1.30944 0
M  V30 461 H 45.363 -4.03327 1.05514 0
M  V30 462 H 44.023 -3.24175 0.184574 0
M  V30 463 H 45.034 -3.43407 3.87675 0
M  V30 464 H 41.711 -3.95125 1.34844 0
M  V30 465 H 43.101 -4.01213 5.3896 0
M  V30 466 N 45.8211 -1.22559 -0.990812 0
M  V30 467 C 46.7511 -1.0218 -2.09956 0
M  V30 468 C 47.7321 0.0579394 -1.70001 0
M  V30 469 O 48.9171 -0.104684 -1.93918 0
M  V30 470 C 46.0471 -0.601023 -3.4206 0
M  V30 471 C 45.0011 -1.62694 -3.95872 0
M  V30 472 C 44.3271 -1.06193 -5.24049 0
M  V30 473 C 45.6271 -3.01743 -4.2632 0
M  V30 474 H 47.3211 -1.94916 -2.27262 0
M  V30 475 H 44.8671 -0.938566 -1.09211 0
M  V30 476 H 46.8201 -0.445561 -4.19038 0
M  V30 477 H 45.5441 0.362005 -3.24588 0
M  V30 478 H 44.2031 -1.77021 -3.21028 0
M  V30 479 H 43.8511 -0.0901903 -5.02919 0
M  V30 480 H 43.5511 -1.74732 -5.61019 0
M  V30 481 H 45.0751 -0.918092 -6.03658 0
M  V30 482 H 46.4891 -2.90777 -4.94087 0
M  V30 483 H 44.8861 -3.67425 -4.74467 0
M  V30 484 H 45.9561 -3.51518 -3.34011 0
M  V30 485 N 47.2992 1.18797 -1.03562 0
M  V30 486 C 48.5452 1.89192 -0.746867 0
M  V30 487 C 48.9002 1.78531 0.717245 0
M  V30 488 O 48.1932 1.17137 1.51622 0
M  V30 489 C 48.3872 3.38692 -1.14117 0
M  V30 490 C 48.2162 3.63902 -2.64207 0
M  V30 491 C 46.9862 3.81553 -3.31279 0
M  V30 492 C 49.1842 3.64903 -3.62423 0
M  V30 493 N 47.1662 3.94455 -4.70402 0
M  V30 494 C 48.5372 3.83458 -4.87196 0
M  V30 495 C 50.5922 3.47965 -3.56125 0
M  V30 496 C 49.2952 3.86829 -6.06429 0
M  V30 497 C 51.3212 3.52616 -4.7478 0
M  V30 498 C 50.6832 3.71663 -5.9837 0
M  V30 499 H 46.7822 0.711141 -0.325273 0
M  V30 500 H 49.3662 1.42727 -1.32428 0
M  V30 501 H 47.5372 3.83864 -0.591889 0
M  V30 502 H 49.2692 3.96634 -0.803966 0
M  V30 503 H 46.0242 3.80723 -2.81686 0
M  V30 504 H 46.4482 4.0474 -5.42692 0
M  V30 505 H 51.0902 3.32189 -2.61553 0
M  V30 506 H 48.8082 4.01395 -7.01362 0
M  V30 507 H 52.3942 3.40791 -4.71543 0
M  V30 508 H 51.2742 3.75145 -6.88648 0
M  V30 509 N 48.7773 0.814389 1.34928 0
M  V30 510 C 50.1933 0.499084 1.51596 0
M  V30 511 C 50.3933 -0.978319 1.76157 0
M  V30 512 O 49.4493 -1.76309 1.80752 0
M  V30 513 C 50.7623 1.35121 2.68631 0
M  V30 514 C 52.3103 1.34746 2.82511 0
M  V30 515 C 52.7853 2.18388 4.0258 0
M  V30 516 N 54.2763 2.15966 4.09772 0
M  V30 517 C 55.0113 2.77437 5.01813 0
M  V30 518 N 54.5073 3.47866 5.99134 0
M  V30 519 N 56.3003 2.67037 4.94619 0
M  V30 520 H 48.4513 1.7711 1.17243 0
M  V30 521 H 50.7143 0.754256 0.574284 0
M  V30 522 H 50.4203 2.40001 2.57085 0
M  V30 523 H 50.2943 1.00991 3.63429 0
M  V30 524 H 52.6813 0.30648 2.93504 0
M  V30 525 H 52.7623 1.72869 1.88547 0
M  V30 526 H 52.4063 3.2253 3.92347 0
M  V30 527 H 52.3363 1.77621 4.9574 0
M  V30 528 H 54.8273 1.64729 3.40107 0
M  V30 529 H 55.1403 3.92038 6.65977 0
M  V30 530 H 53.4853 3.51972 5.99284 0
M  V30 531 H 56.6763 2.11597 4.17546 0
M  V30 532 H 56.8493 3.15232 5.66156 0
M  V30 533 N 50.2554 -1.46986 0.568584 0
M  V30 534 C 51.1874 -2.28233 -0.210337 0
M  V30 535 C 52.2004 -1.37682 -0.868767 0
M  V30 536 O 53.3894 -1.62406 -0.740705 0
M  V30 537 C 50.4894 -3.12293 -1.3163 0
M  V30 538 C 49.6624 -4.30878 -0.7525 0
M  V30 539 C 48.7214 -4.96445 -1.74439 0
M  V30 540 O 47.7474 -5.54482 -1.286 0
M  V30 541 N 48.9494 -4.92171 -3.07812 0
M  V30 542 H 51.7144 -2.95723 0.486648 0
M  V30 543 H 49.2754 -1.56742 0.405409 0
M  V30 544 H 51.2674 -3.53022 -1.97883 0
M  V30 545 H 49.8374 -2.46971 -1.91636 0
M  V30 546 H 49.0574 -3.94104 0.0871128 0
M  V30 547 H 50.3454 -5.07558 -0.35536 0
M  V30 548 H 49.7434 -4.46239 -3.47688 0
M  V30 549 H 48.3004 -5.36884 -3.69592 0
M  V30 550 N 51.7335 -0.305618 -1.54608 0
M  V30 551 C 53.1445 0.186098 -1.8577 0
M  V30 552 C 53.4955 1.53058 -1.22751 0
M  V30 553 O 52.6205 2.09888 -0.526893 0
M  V30 554 C 53.2155 0.344449 -3.37044 0
M  V30 555 C 51.7745 0.780384 -3.68221 0
M  V30 556 C 50.9215 -0.108554 -2.77087 0
M  V30 557 H 53.8725 -0.526485 -1.49712 0
M  V30 558 H 53.8935 1.17828 -3.61796 0
M  V30 559 H 53.4055 -0.634235 -3.82883 0
M  V30 560 H 51.5065 1.76945 -3.27904 0
M  V30 561 H 51.6195 0.596572 -4.75371 0
M  V30 562 H 49.9835 0.412931 -2.5133 0
M  V30 563 H 50.7665 -1.08368 -3.25747 0
M  V30 564 N 53.2116 1.57565 -0.0334293 0
M  V30 565 C 54.6276 1.56297 0.322997 0
M  V30 566 C 54.8276 1.03945 1.7262 0
M  V30 567 O 53.8836 0.688109 2.42943 0
M  V30 568 C 55.1966 3.00232 0.167664 0
M  V30 569 C 56.7446 3.12078 0.240107 0
M  V30 570 C 57.2196 4.57859 0.113513 0
M  V30 571 N 58.7106 4.62887 0.170359 0
M  V30 572 C 59.4456 5.73319 0.0962517 0
M  V30 573 N 58.9416 6.92794 -0.0291881 0
M  V30 574 N 60.7346 5.61898 0.150551 0
M  V30 575 H 52.8856 1.89923 -0.950956 0
M  V30 576 H 55.1486 0.873824 -0.367608 0
M  V30 577 H 54.8546 3.42501 -0.799102 0
M  V30 578 H 54.7286 3.654 0.936083 0
M  V30 579 H 57.1156 2.69718 1.19733 0
M  V30 580 H 57.1966 2.49623 -0.558763 0
M  V30 581 H 56.8406 5.009 -0.840314 0
M  V30 582 H 56.7706 5.18299 0.931302 0
M  V30 583 H 59.2616 3.76954 0.26728 0
M  V30 584 H 59.5746 7.7276 -0.0789252 0
M  V30 585 H 57.9196 6.94971 -0.0640299 0
M  V30 586 H 61.1106 4.67448 0.246981 0
M  V30 587 H 61.2836 6.47938 0.0893365 0
M  V30 588 N 54.6897 -0.239769 1.55765 0
M  V30 589 C 56.1057 -0.588624 1.48349 0
M  V30 590 C 56.3057 -1.88005 0.72502 0
M  V30 591 O 55.3617 -2.51186 0.257269 0
M  V30 592 C 56.6747 -0.68474 2.928 0
M  V30 593 C 58.2227 -0.77659 3.03213 0
M  V30 594 C 58.6977 -0.904207 4.48986 0
M  V30 595 N 60.1887 -0.968896 4.52953 0
M  V30 596 C 60.9237 -1.08703 5.63002 0
M  V30 597 N 60.4197 -1.17026 6.82845 0
M  V30 598 N 62.2127 -1.12074 5.50814 0
M  V30 599 H 54.3637 0.607911 2.03515 0
M  V30 600 H 56.6267 0.21083 0.924259 0
M  V30 601 H 56.3327 0.194284 3.51163 0
M  V30 602 H 56.2067 -1.55435 3.43686 0
M  V30 603 H 58.5937 -1.64606 2.44926 0
M  V30 604 H 58.6747 0.118315 2.55526 0
M  V30 605 H 58.3187 -0.0392633 5.07885 0
M  V30 606 H 58.2487 -1.81426 4.9436 0
M  V30 607 H 60.7397 -0.915633 3.6664 0
M  V30 608 H 61.0527 -1.25966 7.62465 0
M  V30 609 H 59.3977 -1.13971 6.85591 0
M  V30 610 H 62.5887 -1.05226 4.5612 0
M  V30 611 H 62.7617 -1.20936 6.36615 0
M  V30 612 N 56.1678 -1.49265 -0.50573 0
M  V30 613 C 57.5788 -1.51769 -1.08734 0
M  V30 614 C 57.9298 -0.301192 -1.93874 0
M  V30 615 O 57.0548 0.589456 -2.08217 0
M  V30 616 C 57.6498 -2.75017 -1.97867 0
M  V30 617 C 56.2088 -2.80314 -2.51199 0
M  V30 618 C 55.3558 -2.4562 -1.28709 0
M  V30 619 H 58.3068 -1.56031 -0.289855 0
M  V30 620 H 58.3278 -2.5491 -2.82491 0
M  V30 621 H 57.8398 -3.63539 -1.35873 0
M  V30 622 H 55.9408 -1.96061 -3.16845 0
M  V30 623 H 56.0538 -3.82366 -2.88675 0
M  V30 624 H 54.4178 -1.97297 -1.61078 0
M  V30 625 H 55.2008 -3.36411 -0.6843 0
M  V30 626 N 57.6459 0.756429 -1.3826 0
M  V30 627 C 58.8949 1.51082 -1.3363 0
M  V30 628 C 59.2079 1.95467 0.0720068 0
M  V30 629 O 60.4139 2.7043 0.240834 0
M  V30 630 C 58.8699 2.72893 -2.34644 0
M  V30 631 C 58.4779 2.35544 -3.81081 0
M  V30 632 C 60.2219 3.50791 -2.39052 0
M  V30 633 C 58.1289 3.53948 -4.73787 0
M  V30 634 H 57.0589 0.56727 -0.49671 0
M  V30 635 H 59.7099 0.827147 -1.638 0
M  V30 636 H 58.0919 3.43227 -1.97513 0
M  V30 637 H 59.2659 1.72894 -4.27135 0
M  V30 638 H 57.5809 1.70786 -3.79764 0
M  V30 639 H 60.1779 4.38823 -3.05513 0
M  V30 640 H 60.5209 3.91745 -1.40861 0
M  V30 641 H 61.0539 2.87467 -2.74968 0
M  V30 642 H 57.7929 3.18064 -5.73163 0
M  V30 643 H 57.3129 4.15651 -4.32428 0
M  V30 644 H 58.9919 4.20566 -4.91663 0
M  V30 645 N 59.124 1.23083 0.984299 0
M  V30 646 C 60.54 0.992637 1.24975 0
M  V30 647 C 60.74 -0.308618 1.99123 0
M  V30 648 O 59.796 -1.02905 2.30579 0
M  V30 649 C 61.109 2.19698 2.05312 0
M  V30 650 C 62.657 2.24147 2.18465 0
M  V30 651 C 63.132 3.44157 3.02192 0
M  V30 652 N 64.623 3.44372 3.09777 0
M  V30 653 C 65.358 4.33886 3.74874 0
M  V30 654 N 64.854 5.3363 4.41827 0
M  V30 655 N 66.647 4.21639 3.71721 0
M  V30 656 H 58.798 2.06731 0.487453 0
M  V30 657 H 61.061 0.906339 0.277944 0
M  V30 658 H 60.767 3.1411 1.58201 0
M  V30 659 H 60.641 2.20465 3.06064 0
M  V30 660 H 63.028 1.30277 2.64786 0
M  V30 661 H 63.109 2.27415 1.17115 0
M  V30 662 H 62.753 4.38332 2.56568 0
M  V30 663 H 62.683 3.3813 4.03702 0
M  V30 664 H 65.174 2.72201 2.62135 0
M  V30 665 H 65.487 5.98196 4.89266 0
M  V30 666 H 63.832 5.37534 4.40548 0
M  V30 667 H 67.023 3.42962 3.18582 0
M  V30 668 H 67.196 4.91604 4.22173 0
M  V30 669 N 60.6021 -1.18246 1.0419 0
M  V30 670 C 61.8511 -1.87588 0.741194 0
M  V30 671 C 62.1641 -1.81303 -0.734066 0
M  V30 672 O 63.3701 -2.46019 -1.14834 0
M  V30 673 C 61.8261 -3.36538 1.27555 0
M  V30 674 C 61.4341 -3.51349 2.77953 0
M  V30 675 C 63.1781 -4.11273 1.05143 0
M  V30 676 C 61.0851 -4.94265 3.2474 0
M  V30 677 H 60.0151 -0.702622 0.273565 0
M  V30 678 H 62.6661 -1.33601 1.25789 0
M  V30 679 H 61.0481 -3.9 0.686703 0
M  V30 680 H 62.2221 -3.08153 3.42605 0
M  V30 681 H 60.5371 -2.90022 2.98791 0
M  V30 682 H 63.1341 -5.16689 1.37611 0
M  V30 683 H 63.4771 -4.16298 -0.0112774 0
M  V30 684 H 64.0101 -3.63987 1.60495 0
M  V30 685 H 60.7491 -4.94408 4.30396 0
M  V30 686 H 60.2691 -5.38172 2.64823 0
M  V30 687 H 61.9481 -5.62987 3.18834 0
M  V30 688 N 62.0802 -0.821533 -1.34494 0
M  V30 689 C 63.0122 -0.199946 -2.28326 0
M  V30 690 C 64.0252 0.609377 -1.50965 0
M  V30 691 O 65.2142 0.439285 -1.7301 0
M  V30 692 C 62.3142 0.738431 -3.30757 0
M  V30 693 C 61.4872 -0.0277632 -4.37391 0
M  V30 694 C 60.5462 0.831332 -5.19591 0
M  V30 695 O 59.5722 0.276822 -5.68526 0
M  V30 696 N 60.7742 2.15132 -5.39165 0
M  V30 697 H 63.5392 -1.00609 -2.82308 0
M  V30 698 H 61.1002 -0.678366 -1.47003 0
M  V30 699 H 63.0922 1.31773 -3.82646 0
M  V30 700 H 61.6622 1.44533 -2.7718 0
M  V30 701 H 60.8822 -0.788359 -3.86236 0
M  V30 702 H 62.1702 -0.555251 -5.05761 0
M  V30 703 H 61.5682 2.62559 -5.01078 0
M  V30 704 H 60.1252 2.6795 -5.94177 0
M  V30 705 N 63.5583 1.46682 -0.576371 0
M  V30 706 C 64.4903 2.28341 0.198231 0
M  V30 707 C 65.5033 1.38141 0.861453 0
M  V30 708 O 66.6923 1.62797 0.732082 0
M  V30 709 C 63.7923 3.12986 1.29972 0
M  V30 710 C 62.9653 4.31271 0.729639 0
M  V30 711 C 62.0243 4.97363 1.71803 0
M  V30 712 O 61.0503 5.55156 1.25658 0
M  V30 713 N 62.2523 4.93796 3.05198 0
M  V30 714 H 65.0173 2.9546 -0.502324 0
M  V30 715 H 62.5783 1.56525 -0.413715 0
M  V30 716 H 64.5703 3.54066 1.96008 0
M  V30 717 H 63.1403 2.47984 1.90323 0
M  V30 718 H 62.3603 3.94052 -0.108012 0
M  V30 719 H 63.6483 5.07739 0.328438 0
M  V30 720 H 63.0463 4.48077 3.45317 0
M  V30 721 H 61.6033 5.38837 3.6674 0
M  V30 722 N 65.0364 0.313813 1.54444 0
M  V30 723 C 66.4524 -0.0391619 1.59552 0
M  V30 724 C 66.6524 -1.51322 1.33056 0
M  V30 725 O 65.7084 -2.26782 1.11022 0
M  V30 726 C 67.0214 0.370302 2.98411 0
M  V30 727 C 68.5694 0.320139 3.11358 0
M  V30 728 C 69.0444 0.704617 4.52547 0
M  V30 729 N 70.5354 0.657645 4.58508 0
M  V30 730 C 71.2704 0.927453 5.6585 0
M  V30 731 N 70.7664 1.26389 6.81174 0
M  V30 732 N 72.5594 0.853662 5.5558 0
M  V30 733 H 64.7104 1.27433 1.69925 0
M  V30 734 H 66.9734 0.517511 0.794284 0
M  V30 735 H 66.6794 1.39694 3.22767 0
M  V30 736 H 66.5534 -0.269619 3.76235 0
M  V30 737 H 68.9404 -0.697275 2.86744 0
M  V30 738 H 69.0214 0.99486 2.35661 0
M  V30 739 H 68.6654 1.7199 4.77893 0
M  V30 740 H 68.5954 0.00768843 5.26599 0
M  V30 741 H 71.0864 0.409067 3.75679 0
M  V30 742 H 71.3994 1.4554 7.58972 0
M  V30 743 H 69.7444 1.30206 6.82694 0
M  V30 744 H 72.9354 0.590383 4.64362 0
M  V30 745 H 73.1084 1.0673 6.3915 0
M  V30 746 N 66.5145 -1.57545 0.0417849 0
M  V30 747 C 67.7615 -1.92317 -0.634082 0
M  V30 748 C 68.0895 -0.919334 -1.71402 0
M  V30 749 O 67.3445 0.0698253 -1.95575 0
M  V30 750 C 67.6435 -3.33794 -1.27735 0
M  V30 751 C 67.3095 -4.49716 -0.326543 0
M  V30 752 C 65.9715 -4.81156 -0.0648814 0
M  V30 753 C 68.3235 -5.20182 0.325623 0
M  V30 754 C 65.6515 -5.80414 0.856539 0
M  V30 755 C 68.0035 -6.20424 1.23518 0
M  V30 756 C 66.6675 -6.50298 1.5056 0
M  V30 757 H 65.9375 -0.703736 -0.232027 0
M  V30 758 H 68.5845 -1.91205 0.106259 0
M  V30 759 H 66.8895 -3.31228 -2.09274 0
M  V30 760 H 68.5865 -3.57975 -1.80707 0
M  V30 761 H 65.1765 -4.25176 -0.540665 0
M  V30 762 H 69.3605 -4.96112 0.136546 0
M  V30 763 H 64.6165 -6.019 1.07363 0
M  V30 764 H 68.7905 -6.74141 1.74664 0
M  V30 765 H 66.4175 -7.27025 2.22123 0
M  V30 766 N 67.9926 0.231505 -1.5589 0
M  V30 767 C 69.2226 0.973092 -1.82248 0
M  V30 768 C 69.6306 1.78845 -0.617328 0
M  V30 769 O 68.9736 1.78752 0.423499 0
M  V30 770 C 69.0356 1.94732 -3.02192 0
M  V30 771 C 68.6996 1.31743 -4.37599 0
M  V30 772 C 69.6966 0.712238 -5.14998 0
M  V30 773 C 67.3816 1.33218 -4.84312 0
M  V30 774 C 69.3756 0.130195 -6.37267 0
M  V30 775 C 67.0626 0.746286 -6.06526 0
M  V30 776 C 68.0606 0.146337 -6.82843 0
M  V30 777 O 67.7486 -0.430465 -8.02747 0
M  V30 778 H 67.4806 0.29125 -0.61004 0
M  V30 779 H 70.0346 0.254915 -2.03812 0
M  V30 780 H 68.2646 2.70422 -2.76422 0
M  V30 781 H 69.9536 2.55362 -3.15508 0
M  V30 782 H 70.7196 0.69324 -4.8002 0
M  V30 783 H 66.5986 1.78854 -4.24891 0
M  V30 784 H 70.1426 -0.33871 -6.96777 0
M  V30 785 H 66.0396 0.762663 -6.40979 0
M  V30 786 H 66.8076 -0.323818 -8.17859 0
M  V30 787 N 69.4707 1.49531 0.497807 0
M  V30 788 C 70.6957 1.63159 1.28039 0
M  V30 789 C 71.1207 0.30418 1.85624 0
M  V30 790 O 70.4787 -0.728618 1.66015 0
M  V30 791 C 70.5267 2.70537 2.38416 0
M  V30 792 O 69.6307 2.29931 3.42353 0
M  V30 793 H 68.9717 0.546001 0.377861 0
M  V30 794 H 71.5017 1.9574 0.59558 0
M  V30 795 H 71.5117 2.92802 2.84132 0
M  V30 796 H 70.1867 3.6689 1.95869 0
M  V30 797 H 68.7637 2.18009 3.02533 0
M  V30 798 N 70.9488 -0.749086 1.3866 0
M  V30 799 C 72.2258 -1.4992 1.25632 0
M  V30 800 C 72.6058 -2.10633 -0.140317 0
M  V30 801 O 71.9538 -1.97437 -1.15025 0
M  V30 802 C 72.1638 -2.56195 2.36992 0
M  V30 803 C 73.5118 -3.22972 2.75634 0
M  V30 804 O 74.5358 -2.66502 2.36337 0
M  V30 805 O 73.3948 -4.25122 3.43415 0
M  V30 806 H 70.4888 -0.665067 0.491544 0
M  V30 807 H 73.0348 -0.784113 1.50498 0
M  V30 808 H 71.8068 -2.09612 3.30422 0
M  V30 809 H 71.4298 -3.35279 2.13714 0
M  V30 810 N 72.4269 -1.23603 -0.977757 0
M  V30 811 C 73.8379 -1.06424 -1.53398 0
M  V30 812 C 74.1889 0.367578 -1.92726 0
M  V30 813 O 73.3139 1.25465 -1.76316 0
M  V30 814 C 73.9089 -1.92568 -2.78753 0
M  V30 815 C 72.4679 -1.79642 -3.30765 0
M  V30 816 C 71.6149 -1.88111 -2.03739 0
M  V30 817 H 74.5659 -1.37227 -0.797152 0
M  V30 818 H 74.5869 -1.45203 -3.51705 0
M  V30 819 H 74.0989 -2.96771 -2.50098 0
M  V30 820 H 72.1999 -0.782325 -3.64294 0
M  V30 821 H 72.3129 -2.63174 -4.00345 0
M  V30 822 H 70.6769 -1.31723 -2.17994 0
M  V30 823 H 71.4599 -2.93875 -1.77461 0
M  V30 824 N 73.905 1.17692 -1.04816 0
M  V30 825 C 75.182 1.83768 -0.669963 0
M  V30 826 C 75.562 1.93232 0.849986 0
M  V30 827 O 74.91 1.46397 1.75443 0
M  V30 828 C 75.12 3.21641 -1.35455 0
M  V30 829 C 76.468 3.97592 -1.49017 0
M  V30 830 O 77.492 3.31107 -1.31326 0
M  V30 831 O 76.351 5.16729 -1.77914 0
M  V30 832 H 73.445 0.792799 -0.235368 0
M  V30 833 H 75.991 1.25021 -1.14751 0
M  V30 834 H 74.763 3.097 -2.39168 0
M  V30 835 H 74.386 3.88052 -0.866107 0
M  V30 836 N 75.3831 0.828654 1.34056 0
M  V30 837 C 76.3301 0.252567 2.29414 0
M  V30 838 C 77.3001 -0.62588 1.53857 0
M  V30 839 O 78.4851 -0.566312 1.82202 0
M  V30 840 C 75.6251 -0.574831 3.40279 0
M  V30 841 C 74.7381 0.326499 4.30764 0
M  V30 842 C 73.8731 -0.511016 5.28736 0
M  V30 843 C 72.9121 0.389342 6.1086 0
M  V30 844 N 72.0491 -0.409439 7.00905 0
M  V30 845 H 76.8891 1.07108 2.78086 0
M  V30 846 H 74.4261 0.539677 1.36843 0
M  V30 847 H 76.3841 -1.06992 4.03248 0
M  V30 848 H 75.0141 -1.35841 2.92826 0
M  V30 849 H 74.0661 0.939837 3.68607 0
M  V30 850 H 75.3781 1.01857 4.88289 0
M  V30 851 H 74.5321 -1.07035 5.97184 0
M  V30 852 H 73.2711 -1.23657 4.71763 0
M  V30 853 H 72.2761 0.960769 5.4134 0
M  V30 854 H 73.5011 1.1131 6.69916 0
M  V30 855 H 71.4471 -1.11856 6.46393 0
M  V30 856 H 71.3641 0.224126 7.55668 0
M  V30 857 H 72.6321 -0.951336 7.73673 0
M  V30 858 N 76.8612 -1.46375 0.584142 0
M  V30 859 C 78.0862 -2.07268 0.0740405 0
M  V30 860 C 78.5112 -1.42979 -1.22223 0
M  V30 861 O 77.8692 -0.514092 -1.73859 0
M  V30 862 C 77.9172 -3.60518 -0.0767769 0
M  V30 863 O 77.0212 -3.96533 -1.13292 0
M  V30 864 H 76.3622 -0.660961 0.0634524 0
M  V30 865 H 78.8922 -1.87991 0.807492 0
M  V30 866 H 78.9022 -4.07021 -0.282489 0
M  V30 867 H 77.5772 -4.06702 0.86986 0
M  V30 868 H 76.1542 -3.61738 -0.905553 0
M  V30 869 N 78.3393 -0.321999 -1.54275 0
M  V30 870 C 79.3023 0.531975 -2.22941 0
M  V30 871 C 80.3023 1.04478 -1.22234 0
M  V30 872 O 81.4923 0.937452 -1.46825 0
M  V30 873 C 78.6243 1.73874 -2.93224 0
M  V30 874 H 79.8173 -0.0682612 -2.99822 0
M  V30 875 H 77.3703 -0.0730644 -1.56129 0
M  V30 876 H 78.1053 2.37825 -2.20476 0
M  V30 877 H 77.8903 1.37847 -3.6707 0
M  V30 878 H 79.3803 2.34496 -3.45545 0
M  V30 879 N 79.8174 1.5752 -0.0501392 0
M  V30 880 C 81.0654 1.9227 0.622642 0
M  V30 881 C 81.3864 0.929083 1.71444 0
M  V30 882 O 80.6564 -0.0262186 1.95882 0
M  V30 883 H 79.2364 0.709739 0.232981 0
M  V30 884 H 81.8984 1.94628 -0.102898 0
M  V30 885 H 80.9944 2.93479 1.06191 0
M  V30 886 N 81.2955 -0.223234 1.56011 0
M  V30 887 C 82.5355 -0.954962 1.8072 0
M  V30 888 C 82.8995 -1.81598 0.623384 0
M  V30 889 O 84.1005 -2.58132 0.749745 0
M  V30 890 C 82.3715 -1.77313 3.10314 0
M  V30 891 S 83.9305 -2.56073 3.56332 0
M  V30 892 H 80.7485 -0.320812 0.634508 0
M  V30 893 H 83.3505 -0.220686 1.9425 0
M  V30 894 H 82.0545 -1.13071 3.94516 0
M  V30 895 H 81.5855 -2.54974 2.99586 0
M  V30 896 H 83.6005 -3.79619 3.19536 0
M  V30 897 N 82.7736 -1.49793 -0.48987 0
M  V30 898 C 84.1896 -1.36803 -0.822022 0
M  V30 899 C 84.3896 -0.409652 -1.97292 0
M  V30 900 O 83.4456 0.154614 -2.52026 0
M  V30 901 C 84.7586 -2.77768 -1.15175 0
M  V30 902 C 86.3066 -2.86549 -1.25931 0
M  V30 903 C 86.7816 -4.28306 -1.62228 0
M  V30 904 N 88.2726 -4.31169 -1.69256 0
M  V30 905 C 89.0076 -5.37832 -1.98807 0
M  V30 906 N 88.5036 -6.54726 -2.26507 0
M  V30 907 N 90.2966 -5.25258 -2.00152 0
M  V30 908 H 82.4476 -2.10691 0.268881 0
M  V30 909 H 84.7106 -0.946241 0.057728 0
M  V30 910 H 84.4166 -3.49648 -0.379335 0
M  V30 911 H 84.2906 -3.13836 -2.09253 0
M  V30 912 H 86.6776 -2.14899 -2.02243 0
M  V30 913 H 86.7586 -2.54049 -0.298776 0
M  V30 914 H 86.4026 -5.00486 -0.864622 0
M  V30 915 H 86.3326 -4.58279 -2.594 0
M  V30 916 H 88.8236 -3.4687 -1.49965 0
M  V30 917 H 89.1366 -7.31833 -2.48276 0
M  V30 918 H 87.4816 -6.57933 -2.23939 0
M  V30 919 H 90.6726 -4.32938 -1.77996 0
M  V30 920 H 90.8456 -6.08476 -2.22848 0
M  V30 921 N 84.2517 0.741722 -1.39055 0
M  V30 922 C 85.1617 1.88621 -1.39496 0
M  V30 923 C 86.1777 1.71557 -0.290578 0
M  V30 924 O 87.3537 1.94275 -0.530954 0
M  V30 925 C 84.4187 3.24134 -1.23037 0
M  V30 926 C 83.4797 3.5364 -2.43387 0
M  V30 927 C 82.7127 4.82687 -2.27703 0
M  V30 928 O 82.9357 5.55922 -1.27696 0
M  V30 929 O 81.8697 5.1194 -3.16545 0
M  V30 930 H 85.6957 1.91203 -2.35956 0
M  V30 931 H 83.2807 0.888625 -1.20099 0
M  V30 932 H 85.1627 4.0513 -1.15964 0
M  V30 933 H 83.8377 3.22337 -0.296691 0
M  V30 934 H 82.7447 2.72758 -2.56035 0
M  V30 935 H 84.0777 3.60209 -3.35425 0
M  V30 936 N 85.7298 1.2412 0.971189 0
M  V30 937 C 87.1458 1.00584 1.23916 0
M  V30 938 C 87.3458 -0.287481 1.99439 0
M  V30 939 O 86.4018 -1.00454 2.31658 0
M  V30 940 C 87.7148 2.21864 2.0297 0
M  V30 941 C 89.2628 2.26452 2.16076 0
M  V30 942 C 89.7378 3.47343 2.98524 0
M  V30 943 N 91.2288 3.47639 3.06107 0
M  V30 944 C 91.9638 4.37837 3.70251 0
M  V30 945 N 91.4598 5.38286 4.36142 0
M  V30 946 N 93.2528 4.25558 3.67228 0
M  V30 947 H 85.4038 2.07236 0.465499 0
M  V30 948 H 87.6668 0.909236 0.268315 0
M  V30 949 H 87.3728 3.15771 1.54861 0
M  V30 950 H 87.2468 2.23698 3.03709 0
M  V30 951 H 89.6338 1.33078 2.6339 0
M  V30 952 H 89.7148 2.28645 1.14696 0
M  V30 953 H 89.3588 4.41029 2.51905 0
M  V30 954 H 89.2888 3.42393 4.00093 0
M  V30 955 H 91.7798 2.74966 2.59233 0
M  V30 956 H 92.0928 6.03352 4.82894 0
M  V30 957 H 90.4378 5.42176 4.34822 0
M  V30 958 H 93.6288 3.46322 3.14927 0
M  V30 959 H 93.8018 4.96054 4.16935 0
M  V30 960 N 87.2079 -1.17134 1.05439 0
M  V30 961 C 88.4849 -1.83411 0.679699 0
M  V30 962 C 88.8649 -1.9368 -0.839726 0
M  V30 963 O 88.2129 -1.47325 -1.74664 0
M  V30 964 C 88.4229 -3.20918 1.37159 0
M  V30 965 C 89.7709 -3.96796 1.51123 0
M  V30 966 O 90.7949 -3.30406 1.3308 0
M  V30 967 O 89.6539 -5.15778 1.80651 0
M  V30 968 H 86.7479 -0.79154 0.239569 0
M  V30 969 H 89.2939 -1.24411 1.15413 0
M  V30 970 H 88.0659 -3.08428 2.40807 0
M  V30 971 H 87.6889 -3.87587 0.886674 0
M  V30 972 N 88.686 -0.835752 -1.33615 0
M  V30 973 C 89.616 -0.281739 -2.31794 0
M  V30 974 C 90.597 0.608833 -1.58831 0
M  V30 975 O 91.782 0.533035 -1.86741 0
M  V30 976 C 88.912 0.546612 -3.42971 0
M  V30 977 C 87.866 -0.247904 -4.27281 0
M  V30 978 C 87.192 0.704001 -5.30045 0
M  V30 979 C 88.492 -1.46324 -5.01385 0
M  V30 980 H 90.186 -1.10206 -2.78379 0
M  V30 981 H 87.732 -0.531388 -1.33837 0
M  V30 982 H 89.685 0.944467 -4.1068 0
M  V30 983 H 88.409 1.40011 -2.95067 0
M  V30 984 H 87.068 -0.627281 -3.61194 0
M  V30 985 H 86.716 1.55381 -4.78399 0
M  V30 986 H 86.416 0.176524 -5.87335 0
M  V30 987 H 87.94 1.09944 -6.0062 0
M  V30 988 H 89.354 -1.13871 -5.61877 0
M  V30 989 H 87.751 -1.92728 -5.6831 0
M  V30 990 H 88.821 -2.23467 -4.30338 0
M  V30 991 N 90.1641 1.46063 -0.591896 0
M  V30 992 C 91.3891 2.07226 -0.0850314 0
M  V30 993 C 91.8141 1.43625 1.21463 0
M  V30 994 O 91.1721 0.523305 1.73583 0
M  V30 995 C 91.2201 3.60554 0.0576567 0
M  V30 996 O 90.3241 3.97128 1.11188 0
M  V30 997 H 89.6651 0.660615 -0.0669568 0
M  V30 998 H 92.1951 1.8756 -0.81745 0
M  V30 999 H 92.2051 4.07165 0.2609 0
M  V30 1000 H 90.8801 4.06235 -0.891416 0
M  V30 1001 H 89.4571 3.62213 0.886356 0
M  V30 1002 N 91.6422 0.330177 1.54103 0
M  V30 1003 C 93.0532 -0.15652 1.86043 0
M  V30 1004 C 93.4042 -1.51086 1.2517 0
M  V30 1005 O 92.5292 -2.09023 0.560217 0
M  V30 1006 C 93.1242 -0.290784 3.3755 0
M  V30 1007 C 91.6832 -0.721705 3.69416 0
M  V30 1008 C 90.8302 0.152622 2.7688 0
M  V30 1009 H 93.7812 0.550237 1.48856 0
M  V30 1010 H 93.8022 -1.12058 3.63625 0
M  V30 1011 H 93.3142 0.695068 3.81825 0
M  V30 1012 H 91.4152 -1.71706 3.30678 0
M  V30 1013 H 91.5282 -0.520869 4.7626 0
M  V30 1014 H 89.8922 -0.372894 2.51956 0
M  V30 1015 H 90.6752 1.13536 3.23982 0
M  V30 1016 N 93.1203 -1.57491 0.0584922 0
M  V30 1017 C 94.5363 -1.56792 -0.298091 0
M  V30 1018 C 94.7363 -1.06679 -1.70944 0
M  V30 1019 O 93.7923 -0.726672 -2.41818 0
M  V30 1020 C 95.1053 -3.00461 -0.119879 0
M  V30 1021 C 96.6533 -3.1242 -0.190428 0
M  V30 1022 C 97.1283 -4.57982 -0.0406567 0
M  V30 1023 N 98.6193 -4.63099 -0.0966958 0
M  V30 1024 C 99.3543 -5.734 -0.00502943 0
M  V30 1025 N 98.8503 -6.9266 0.139402 0
M  V30 1026 N 100.643 -5.62067 -0.0611391 0
M  V30 1027 H 92.7943 -1.88386 0.98105 0
M  V30 1028 H 95.0573 -0.867865 0.381463 0
M  V30 1029 H 94.7633 -3.41187 0.85349 0
M  V30 1030 H 94.6373 -3.66843 -0.877833 0
M  V30 1031 H 97.0243 -2.71589 -1.15427 0
M  V30 1032 H 97.1053 -2.48702 0.598405 0
M  V30 1033 H 96.7493 -4.995 0.919897 0
M  V30 1034 H 96.6793 -5.19715 -0.848727 0
M  V30 1035 H 99.1703 -3.77331 -0.207277 0
M  V30 1036 H 99.4833 -7.72536 0.201855 0
M  V30 1037 H 97.8283 -6.94781 0.174586 0
M  V30 1038 H 101.019 -4.67782 -0.172583 0
M  V30 1039 H 101.192 -6.47999 0.0137562 0
M  V30 1040 N 94.5984 0.214957 -1.56127 0
M  V30 1041 C 96.0094 0.781386 -1.69562 0
M  V30 1042 C 96.3604 1.84707 -0.66165 0
M  V30 1043 O 95.4854 2.156 0.185927 0
M  V30 1044 C 96.0804 1.42411 -3.07416 0
M  V30 1045 C 94.6394 1.93786 -3.22683 0
M  V30 1046 C 93.7864 0.800438 -2.65496 0
M  V30 1047 H 96.7374 -0.00980633 -1.58697 0
M  V30 1048 H 96.7584 2.29309 -3.0364 0
M  V30 1049 H 96.2704 0.64826 -3.82648 0
M  V30 1050 H 94.3714 2.74152 -2.52332 0
M  V30 1051 H 94.4844 2.1133 -4.29973 0
M  V30 1052 H 92.8484 1.2095 -2.2415 0
M  V30 1053 H 93.6314 0.0371471 -3.4328 0
M  V30 1054 N 96.0765 1.50051 0.48192 0
M  V30 1055 C 96.9865 1.7089 1.60728 0
M  V30 1056 C 98.0025 0.591788 1.63627 0
M  V30 1057 O 99.1785 0.868817 1.81696 0
M  V30 1058 C 96.2435 1.78855 2.97005 0
M  V30 1059 C 95.3045 3.02537 3.04581 0
M  V30 1060 C 94.5375 3.10112 4.34357 0
M  V30 1061 O 94.7605 2.24765 5.24249 0
M  V30 1062 O 93.6945 4.02747 4.47301 0
M  V30 1063 H 97.5205 2.66264 1.46072 0
M  V30 1064 H 95.1055 1.34018 0.660264 0
M  V30 1065 H 96.9875 1.86336 3.77964 0
M  V30 1066 H 95.6625 0.866628 3.11883 0
M  V30 1067 H 94.5695 3.00563 2.22739 0
M  V30 1068 H 95.9025 3.94272 2.94636 0
M  V30 1069 N 97.5546 -0.734337 1.39446 0
M  V30 1070 C 98.4846 -1.86155 1.40955 0
M  V30 1071 C 99.4656 -1.67898 0.272827 0
M  V30 1072 O 100.651 -1.88207 0.478743 0
M  V30 1073 C 97.7806 -3.23912 1.25294 0
M  V30 1074 C 96.7346 -3.56808 2.36373 0
M  V30 1075 C 96.0606 -4.93508 2.058 0
M  V30 1076 C 97.3606 -3.59713 3.78687 0
M  V30 1077 H 99.0546 -1.8515 2.35287 0
M  V30 1078 H 96.6006 -0.889367 1.13253 0
M  V30 1079 H 98.5536 -4.02443 1.2497 0
M  V30 1080 H 97.2776 -3.25446 0.274308 0
M  V30 1081 H 95.9366 -2.80606 2.35914 0
M  V30 1082 H 95.5846 -4.91623 1.06374 0
M  V30 1083 H 95.2846 -5.16486 2.80208 0
M  V30 1084 H 96.8086 -5.74396 2.07128 0
M  V30 1085 H 98.2226 -4.2832 3.81071 0
M  V30 1086 H 96.6196 -3.94209 4.52459 0
M  V30 1087 H 97.6896 -2.59504 4.09617 0
M  V30 1088 N 99.0327 -1.24633 -0.964593 0
M  V30 1089 C 100.449 -1.01239 -1.2338 0
M  V30 1090 C 100.649 0.2769 -1.99588 0
M  V30 1091 O 99.7047 0.992241 -2.32187 0
M  V30 1092 C 101.018 -2.22937 -2.01791 0
M  V30 1093 C 102.566 -2.27594 -2.14872 0
M  V30 1094 C 103.041 -3.48921 -2.96678 0
M  V30 1095 N 104.532 -3.49257 -3.04259 0
M  V30 1096 C 105.267 -4.39795 -3.67924 0
M  V30 1097 N 104.763 -5.40591 -4.33281 0
M  V30 1098 N 106.556 -4.275 -3.64966 0
M  V30 1099 H 98.7067 -2.0748 -0.454502 0
M  V30 1100 H 100.97 -0.910647 -0.26349 0
M  V30 1101 H 100.676 -3.16587 -1.53184 0
M  V30 1102 H 100.55 -2.25306 -3.02518 0
M  V30 1103 H 102.937 -1.34473 -2.6268 0
M  V30 1104 H 103.018 -2.2925 -1.13482 0
M  V30 1105 H 102.662 -4.42359 -2.49562 0
M  V30 1106 H 102.592 -3.4451 -3.98272 0
M  V30 1107 H 105.083 -2.76337 -2.57771 0
M  V30 1108 H 105.396 -6.05904 -4.79687 0
M  V30 1109 H 103.741 -5.44475 -4.3194 0
M  V30 1110 H 106.932 -3.47987 -3.13086 0
M  V30 1111 H 107.105 -4.98258 -4.14298 0
M  V30 1112 N 100.511 1.16574 -1.06058 0
M  V30 1113 C 101.458 2.20883 -0.669263 0
M  V30 1114 C 102.428 1.62729 0.332918 0
M  V30 1115 O 103.613 1.895 0.222346 0
M  V30 1116 C 100.753 3.45049 -0.0593572 0
M  V30 1117 C 99.8658 4.17458 -1.11143 0
M  V30 1118 C 99.0008 5.29135 -0.467916 0
M  V30 1119 C 98.0398 5.93343 -1.50369 0
M  V30 1120 N 97.1768 6.96516 -0.883706 0
M  V30 1121 H 102.017 2.53709 -1.5632 0
M  V30 1122 H 99.5538 1.24616 -0.781625 0
M  V30 1123 H 101.512 4.16033 0.311771 0
M  V30 1124 H 100.142 3.12781 0.797992 0
M  V30 1125 H 99.1938 3.45101 -1.60029 0
M  V30 1126 H 100.506 4.61307 -1.89731 0
M  V30 1127 H 99.6598 6.06684 -0.0436871 0
M  V30 1128 H 98.3988 4.86443 0.349864 0
M  V30 1129 H 97.4038 5.14517 -1.93784 0
M  V30 1130 H 98.6288 6.38114 -2.32352 0
M  V30 1131 H 96.5748 6.55943 -0.086595 0
M  V30 1132 H 96.4918 7.38723 -1.607 0
M  V30 1133 H 97.7598 7.77993 -0.484543 0
M  V30 1134 N 101.989 0.842826 1.3317 0
M  V30 1135 C 103.214 0.453129 2.02389 0
M  V30 1136 C 103.639 -0.939105 1.6298 0
M  V30 1137 O 102.997 -1.61472 0.8244 0
M  V30 1138 C 103.045 0.586094 3.55805 0
M  V30 1139 O 102.149 -0.386029 4.10589 0
M  V30 1140 H 101.49 0.183664 0.638094 0
M  V30 1141 H 104.02 1.13875 1.69981 0
M  V30 1142 H 104.03 0.469209 4.05293 0
M  V30 1143 H 102.705 1.6014 3.83833 0
M  V30 1144 H 101.282 -0.226371 3.72212 0
M  V30 1145 N 103.467 -1.45747 0.599634 0
M  V30 1146 C 104.883 -1.57424 0.26264 0
M  V30 1147 C 105.083 -1.59222 -1.23493 0
M  V30 1148 O 104.139 -1.51825 -2.01756 0
M  V30 1149 C 105.452 -2.86061 0.926795 0
M  V30 1150 C 107 -2.99722 0.901967 0
M  V30 1151 C 107.475 -4.31119 1.54598 0
M  V30 1152 N 108.966 -4.37858 1.5111 0
M  V30 1153 C 109.701 -5.3818 1.97863 0
M  V30 1154 N 109.197 -6.45083 2.52666 0
M  V30 1155 N 110.99 -5.29487 1.88679 0
M  V30 1156 H 103.141 -1.42823 1.57211 0
M  V30 1157 H 105.404 -0.68235 0.658105 0
M  V30 1158 H 105.11 -2.90605 1.98095 0
M  V30 1159 H 104.984 -3.74563 0.445238 0
M  V30 1160 H 107.371 -2.9475 -0.143617 0
M  V30 1161 H 107.452 -2.12652 1.42171 0
M  V30 1162 H 107.096 -4.36849 2.59085 0
M  V30 1163 H 107.026 -5.16992 1.00132 0
M  V30 1164 H 109.517 -3.61209 1.11068 0
M  V30 1165 H 109.83 -7.17869 2.86155 0
M  V30 1166 H 108.175 -6.45856 2.56701 0
M  V30 1167 H 111.366 -4.44877 1.4561 0
M  V30 1168 H 111.539 -6.07524 2.25429 0
M  V30 1169 N 104.945 -0.338344 -1.53925 0
M  V30 1170 C 105.875 0.51328 -2.27789 0
M  V30 1171 C 106.856 1.107 -1.29149 0
M  V30 1172 O 108.041 1.12937 -1.57984 0
M  V30 1173 C 105.171 1.66697 -3.04679 0
M  V30 1174 C 104.125 1.20183 -4.1078 0
M  V30 1175 C 103.451 2.44363 -4.75595 0
M  V30 1176 C 104.751 0.30605 -5.21403 0
M  V30 1177 H 106.445 -0.102883 -2.99223 0
M  V30 1178 H 103.991 -0.0509219 -1.4391 0
M  V30 1179 H 105.944 2.26915 -3.55088 0
M  V30 1180 H 104.668 2.30995 -2.30887 0
M  V30 1181 H 103.327 0.622499 -3.61276 0
M  V30 1182 H 102.975 3.07057 -3.98403 0
M  V30 1183 H 102.675 2.13925 -5.47275 0
M  V30 1184 H 104.199 3.05317 -5.28786 0
M  V30 1185 H 105.613 0.814929 -5.67478 0
M  V30 1186 H 104.01 0.0937929 -6.00027 0
M  V30 1187 H 105.08 -0.65921 -4.80398 0
M  V30 1188 N 106.423 1.57458 -0.0668435 0
M  V30 1189 C 107.648 1.9804 0.616027 0
M  V30 1190 C 108.073 0.944771 1.62652 0
M  V30 1191 O 107.431 -0.0902094 1.81075 0
M  V30 1192 C 107.479 3.37665 1.26549 0
M  V30 1193 O 106.583 3.36701 2.38131 0
M  V30 1194 H 105.924 0.644719 0.158849 0
M  V30 1195 H 108.454 2.04121 -0.139891 0
M  V30 1196 H 108.464 3.7474 1.6135 0
M  V30 1197 H 107.139 4.12573 0.525016 0
M  V30 1198 H 105.716 3.1139 2.0516 0
M  V30 1199 N 107.901 -0.206675 1.56239 0
M  V30 1200 C 109.147 -0.925733 1.81113 0
M  V30 1201 C 109.502 -1.81368 0.642135 0
M  V30 1202 O 108.795 -1.88126 -0.363211 0
M  V30 1203 C 108.989 -1.78675 3.09532 0
M  V30 1204 C 108.818 -0.98365 4.3881 0
M  V30 1205 C 107.588 -0.672661 5.00803 0
M  V30 1206 C 109.786 -0.341847 5.13163 0
M  V30 1207 N 107.768 0.150283 6.13716 0
M  V30 1208 C 109.139 0.343815 6.19046 0
M  V30 1209 C 111.194 -0.256392 4.97239 0
M  V30 1210 C 109.897 1.10678 7.10734 0
M  V30 1211 C 111.923 0.493142 5.8934 0
M  V30 1212 C 111.285 1.16729 6.94661 0
M  V30 1213 H 107.384 -0.318524 0.714189 0
M  V30 1214 H 109.968 -0.195378 1.93717 0
M  V30 1215 H 108.139 -2.4888 2.98183 0
M  V30 1216 H 109.871 -2.44441 3.22538 0
M  V30 1217 H 106.626 -0.994294 4.63045 0
M  V30 1218 H 107.05 0.551026 6.74754 0
M  V30 1219 H 111.692 -0.763249 4.15854 0
M  V30 1220 H 109.41 1.6251 7.91591 0
M  V30 1221 H 112.996 0.560465 5.79094 0
M  V30 1222 H 111.876 1.738 7.64698 0
M  V30 1223 N 109.379 -1.50304 -0.473955 0
M  V30 1224 C 110.79 -1.54042 -1.0549 0
M  V30 1225 C 111.141 -0.342248 -1.93192 0
M  V30 1226 O 110.266 0.545157 -2.09421 0
M  V30 1227 C 110.861 -2.79152 -1.91989 0
M  V30 1228 C 109.42 -2.8558 -2.45196 0
M  V30 1229 C 108.567 -2.48295 -1.2347 0
M  V30 1230 H 111.518 -1.5661 -0.256693 0
M  V30 1231 H 111.539 -2.60845 -2.7702 0
M  V30 1232 H 111.051 -3.66339 -1.28131 0
M  V30 1233 H 109.152 -2.02738 -3.12615 0
M  V30 1234 H 109.265 -3.88403 -2.80499 0
M  V30 1235 H 107.629 -2.00669 -1.56856 0
M  V30 1236 H 108.412 -3.37787 -0.612789 0
M  V30 1237 N 110.857 0.726932 -1.39834 0
M  V30 1238 C 112.103 1.48884 -1.377 0
M  V30 1239 C 112.436 1.94185 0.0244852 0
M  V30 1240 O 111.711 1.67361 0.990986 0
M  V30 1241 C 111.994 2.72288 -2.3565 0
M  V30 1242 C 111.847 2.32956 -3.84775 0
M  V30 1243 C 113.166 3.74414 -2.31306 0
M  V30 1244 H 110.285 0.540062 -0.5015 0
M  V30 1245 H 112.927 0.830547 -1.70886 0
M  V30 1246 H 111.077 3.28457 -2.07481 0
M  V30 1247 H 112.749 1.82356 -4.23726 0
M  V30 1248 H 110.992 1.65088 -4.01159 0
M  V30 1249 H 111.663 3.21362 -4.4881 0
M  V30 1250 H 114.139 3.27849 -2.56231 0
M  V30 1251 H 113.015 4.58414 -3.01907 0
M  V30 1252 H 113.276 4.21909 -1.32081 0
M  V30 1253 N 112.336 1.25143 0.95797 0
M  V30 1254 C 113.561 1.12521 1.74223 0
M  V30 1255 C 113.986 -0.317402 1.85403 0
M  V30 1256 O 113.344 -1.2299 1.33204 0
M  V30 1257 C 113.392 1.78062 3.1357 0
M  V30 1258 O 112.496 1.058 3.98598 0
M  V30 1259 H 111.837 0.39304 0.535178 0
M  V30 1260 H 114.367 1.65641 1.201 0
M  V30 1261 H 114.377 1.84213 3.64046 0
M  V30 1262 H 113.052 2.83021 3.04749 0
M  V30 1263 H 111.629 1.07506 3.57067 0
M  V30 1264 N 113.814 -1.1601 1.06675 0
M  V30 1265 C 115.039 -1.91068 0.806706 0
M  V30 1266 C 115.464 -1.77112 -0.633485 0
M  V30 1267 O 114.822 -1.09908 -1.44187 0
M  V30 1268 C 114.87 -3.39655 1.21106 0
M  V30 1269 O 113.974 -4.10893 0.352189 0
M  V30 1270 H 113.315 -0.595125 0.294486 0
M  V30 1271 H 115.845 -1.46955 1.42356 0
M  V30 1272 H 115.855 -3.90434 1.18428 0
M  V30 1273 H 114.53 -3.49132 2.26008 0
M  V30 1274 H 113.107 -3.70285 0.440868 0
M  V30 1275 N 115.292 -0.849877 -1.32721 0
M  V30 1276 C 116.532 -0.457146 -1.99222 0
M  V30 1277 C 116.896 0.968038 -1.6581 0
M  V30 1278 O 118.097 1.46507 -2.25364 0
M  V30 1279 C 116.368 -0.683966 -3.50794 0
M  V30 1280 S 117.927 -0.388095 -4.3708 0
M  V30 1281 H 114.745 -0.171464 -0.690015 0
M  V30 1282 H 117.347 -1.10155 -1.61512 0
M  V30 1283 H 116.051 -1.72038 -3.726 0
M  V30 1284 H 115.582 -0.0258086 -3.93392 0
M  V30 1285 H 117.597 0.787791 -4.89906 0
M  V30 1286 N 116.77 1.45427 -0.607355 0
M  V30 1287 C 118.186 1.57283 -0.270985 0
M  V30 1288 C 118.386 1.59875 1.22647 0
M  V30 1289 O 117.442 1.52893 2.00948 0
M  V30 1290 C 118.755 2.85566 -0.941952 0
M  V30 1291 C 120.303 2.9924 -0.917849 0
M  V30 1292 C 120.778 4.30293 -1.56882 0
M  V30 1293 N 122.269 4.37051 -1.5343 0
M  V30 1294 C 123.004 5.37123 -2.00715 0
M  V30 1295 N 122.5 6.43734 -2.56084 0
M  V30 1296 N 124.293 5.28479 -1.91484 0
M  V30 1297 H 116.444 1.41988 -1.57966 0
M  V30 1298 H 118.707 0.67885 -0.661715 0
M  V30 1299 H 118.413 2.8955 -1.99633 0
M  V30 1300 H 118.287 3.74322 -0.465096 0
M  V30 1301 H 120.674 2.94822 0.127984 0
M  V30 1302 H 120.755 2.11895 -1.43297 0
M  V30 1303 H 120.399 4.35469 -2.61398 0
M  V30 1304 H 120.329 5.16454 -1.02873 0
M  V30 1305 H 122.82 3.60615 -1.12982 0
M  V30 1306 H 123.133 7.16341 -2.89958 0
M  V30 1307 H 121.478 6.44485 -2.60122 0
M  V30 1308 H 124.669 4.44098 -1.47967 0
M  V30 1309 H 124.842 6.0632 -2.28648 0
M  V30 1310 N 118.248 0.346503 1.53744 0
M  V30 1311 C 119.664 -0.00530975 1.59599 0
M  V30 1312 C 119.864 -1.48465 1.36236 0
M  V30 1313 O 118.92 -2.24376 1.15808 0
M  V30 1314 C 120.233 0.433516 2.97559 0
M  V30 1315 C 121.781 0.386111 3.10609 0
M  V30 1316 C 122.256 0.800451 4.50951 0
M  V30 1317 N 123.747 0.754753 4.5701 0
M  V30 1318 C 124.482 1.04727 5.63755 0
M  V30 1319 N 123.978 1.4081 6.7834 0
M  V30 1320 N 125.771 0.971316 5.53644 0
M  V30 1321 H 117.922 1.31009 1.67184 0
M  V30 1322 H 120.185 0.534242 0.783128 0
M  V30 1323 H 119.891 1.46509 3.19731 0
M  V30 1324 H 119.765 -0.189753 3.76722 0
M  V30 1325 H 122.152 -0.636295 2.88158 0
M  V30 1326 H 122.233 1.04462 2.33498 0
M  V30 1327 H 121.877 1.82088 4.74137 0
M  V30 1328 H 121.807 0.119386 5.26465 0
M  V30 1329 H 124.298 0.488662 3.74727 0
M  V30 1330 H 124.611 1.61607 7.55714 0
M  V30 1331 H 122.956 1.44657 6.79779 0
M  V30 1332 H 126.147 0.688748 4.63005 0
M  V30 1333 H 126.32 1.20263 6.36742 0
M  V30 1334 N 119.726 -1.57421 0.075193 0
M  V30 1335 C 120.973 -1.93618 -0.593146 0
M  V30 1336 C 121.301 -0.955484 -1.69413 0
M  V30 1337 O 120.556 0.0283251 -1.9568 0
M  V30 1338 C 120.855 -3.36428 -1.20626 0
M  V30 1339 C 120.521 -4.50307 -0.231078 0
M  V30 1340 C 119.183 -4.81186 0.0371936 0
M  V30 1341 C 121.535 -5.19374 0.435888 0
M  V30 1342 C 118.863 -5.78466 0.979461 0
M  V30 1343 C 121.215 -6.17665 1.3665 0
M  V30 1344 C 119.879 -6.46958 1.6432 0
M  V30 1345 H 119.149 -0.708499 -0.217047 0
M  V30 1346 H 121.796 -1.90937 0.146793 0
M  V30 1347 H 120.101 -3.35592 -2.02201 0
M  V30 1348 H 121.798 -3.61727 -1.73073 0
M  V30 1349 H 118.388 -4.26227 -0.450357 0
M  V30 1350 H 122.572 -4.95711 0.241748 0
M  V30 1351 H 117.828 -5.99487 1.20106 0
M  V30 1352 H 122.002 -6.70284 1.88924 0
M  V30 1353 H 119.629 -7.2215 2.37494 0
M  V30 1354 N 121.204 0.198386 -1.56346 0
M  V30 1355 C 122.481 0.944982 -1.71258 0
M  V30 1356 C 122.861 2.0151 -0.629048 0
M  V30 1357 O 122.209 2.25639 0.360473 0
M  V30 1358 C 122.419 1.5344 -3.1346 0
M  V30 1359 C 123.767 2.01778 -3.73591 0
M  V30 1360 O 124.791 1.63288 -3.16568 0
M  V30 1361 O 123.65 2.72594 -4.73661 0
M  V30 1362 H 120.744 0.442939 -0.69838 0
M  V30 1363 H 123.29 0.188342 -1.68652 0
M  V30 1364 H 122.062 0.762869 -3.83792 0
M  V30 1365 H 121.685 2.35596 -3.20282 0
M  V30 1366 N 122.682 1.50554 0.465978 0
M  V30 1367 C 123.612 1.72722 1.57128 0
M  V30 1368 C 124.593 0.576294 1.6004 0
M  V30 1369 O 125.778 0.81598 1.76225 0
M  V30 1370 C 122.908 1.82605 2.95419 0
M  V30 1371 C 121.862 2.97835 3.07373 0
M  V30 1372 C 121.188 2.92867 4.47363 0
M  V30 1373 C 122.488 4.38265 2.84114 0
M  V30 1374 H 124.182 2.65267 1.38829 0
M  V30 1375 H 121.728 1.2765 0.666441 0
M  V30 1376 H 123.681 1.96698 3.72677 0
M  V30 1377 H 122.405 0.866858 3.14886 0
M  V30 1378 H 121.064 2.83401 2.3255 0
M  V30 1379 H 120.712 1.94783 4.63755 0
M  V30 1380 H 120.412 3.70227 4.56296 0
M  V30 1381 H 121.936 3.09015 5.26633 0
M  V30 1382 H 123.35 4.53198 3.51118 0
M  V30 1383 H 121.747 5.17115 3.04487 0
M  V30 1384 H 122.817 4.50281 1.7993 0
M  V30 1385 N 124.16 -0.719506 1.40217 0
M  V30 1386 C 125.07 -1.86378 1.42479 0
M  V30 1387 C 126.086 -1.71073 0.317834 0
M  V30 1388 O 127.262 -1.93406 0.561794 0
M  V30 1389 C 124.327 -3.22136 1.28178 0
M  V30 1390 C 123.388 -3.49723 2.48982 0
M  V30 1391 C 122.621 -4.79004 2.35353 0
M  V30 1392 O 122.844 -5.53821 1.36524 0
M  V30 1393 O 121.778 -5.06839 3.2465 0
M  V30 1394 H 125.604 -1.87425 2.38968 0
M  V30 1395 H 123.189 -0.869405 1.21498 0
M  V30 1396 H 125.071 -4.03234 1.22395 0
M  V30 1397 H 123.746 -3.21825 0.347934 0
M  V30 1398 H 122.653 -2.6865 2.60342 0
M  V30 1399 H 123.986 -3.54828 3.41113 0
M  V30 1400 N 125.638 -1.25649 -0.95132 0
M  V30 1401 C 126.586 -1.06118 -2.06982 0
M  V30 1402 C 127.58 0.00889169 -1.69398 0
M  V30 1403 O 128.786 -0.146988 -1.79399 0
M  V30 1404 H 125.161 -0.326248 -0.677544 0
M  V30 1405 H 127.132 -2.00932 -2.2061 0
M  V30 1406 C 125.881 -0.700145 -3.40578 0
M  V30 1407 H 125.204 -1.51537 -3.69968 0
M  V30 1408 H 126.644 -0.603211 -4.19687 0
M  V30 1409 C 125.103 0.59403 -3.31622 0
M  V30 1410 O 125.633 1.63522 -3.66911 0
M  V30 1411 N 123.839 0.58089 -2.84735 0
M  V30 1412 H 123.386 -0.266783 -2.56215 0
M  V30 1413 H 123.344 1.44695 -2.79125 0
M  V30 1414 N 127.117 1.15442 -1.07289 0
M  V30 1415 C 128.365 1.85845 -0.794096 0
M  V30 1416 C 128.686 1.82692 0.681809 0
M  V30 1417 O 127.956 1.26741 1.49377 0
M  V30 1418 H 126.536 0.688089 -0.290763 0
M  V30 1419 H 129.198 1.39947 -1.3565 0
M  V30 1420 H 128.294 2.91001 -1.12804 0
M  V30 1421 N 128.595 0.856903 1.32268 0
M  V30 1422 C 129.525 0.31858 2.31316 0
M  V30 1423 C 130.506 -0.583487 1.59779 0
M  V30 1424 O 131.691 -0.503259 1.87566 0
M  V30 1425 C 128.821 -0.491979 3.43798 0
M  V30 1426 C 127.775 0.315849 4.26833 0
M  V30 1427 C 127.101 -0.619586 5.31098 0
M  V30 1428 C 128.401 1.54282 4.98993 0
M  V30 1429 H 130.095 1.14621 2.76591 0
M  V30 1430 H 127.641 0.552613 1.32974 0
M  V30 1431 H 129.594 -0.879012 4.1213 0
M  V30 1432 H 128.318 -1.35299 2.97257 0
M  V30 1433 H 126.977 0.684664 3.6015 0
M  V30 1434 H 126.625 -1.47751 4.8081 0
M  V30 1435 H 126.325 -0.0830621 5.87541 0
M  V30 1436 H 127.849 -1.00375 6.02293 0
M  V30 1437 H 129.263 1.22796 5.59995 0
M  V30 1438 H 127.66 2.01745 5.65172 0
M  V30 1439 H 128.73 2.30285 4.26728 0
M  V30 1440 N 130.073 -1.45103 0.615059 0
M  V30 1441 C 131.298 -2.07064 0.117988 0
M  V30 1442 C 131.723 -1.4554 -1.19163 0
M  V30 1443 O 131.081 -0.550855 -1.72729 0
M  V30 1444 C 131.129 -3.606 -0.000288387 0
M  V30 1445 O 130.233 -3.98847 -1.04856 0
M  V30 1446 H 129.574 -0.659467 0.0774581 0
M  V30 1447 H 132.104 -1.86236 0.847186 0
M  V30 1448 H 132.114 -4.07529 -0.196091 0
M  V30 1449 H 130.789 -4.04765 0.955932 0
M  V30 1450 H 129.366 -3.63577 -0.828619 0
M  V30 1451 N 131.551 -0.354651 -1.53558 0
M  V30 1452 C 132.791 0.238651 -2.03002 0
M  V30 1453 C 133.155 1.46878 -1.23656 0
M  V30 1454 O 134.356 2.13699 -1.63053 0
M  V30 1455 C 132.627 0.534175 -3.53386 0
M  V30 1456 S 134.186 1.10271 -4.24719 0
M  V30 1457 H 131.004 0.0702908 -0.707517 0
M  V30 1458 H 133.606 -0.494987 -1.8913 0
M  V30 1459 H 132.31 -0.368765 -4.0874 0
M  V30 1460 H 131.841 1.29718 -3.71398 0
M  V30 1461 H 133.856 2.38772 -4.34974 0
M  V30 1462 N 133.029 1.57378 -0.0835403 0
M  V30 1463 C 134.277 1.93547 0.581718 0
M  V30 1464 C 134.598 0.96524 1.69435 0
M  V30 1465 O 133.868 0.0153369 1.95894 0
M  V30 1466 H 132.448 0.714521 0.217874 0
M  V30 1467 H 135.11 1.94366 -0.144158 0
M  V30 1468 H 134.206 2.95665 0.999423 0
M  V30 1469 N 134.507 -0.190092 1.56449 0
M  V30 1470 C 135.923 -0.54113 1.50146 0
M  V30 1471 C 136.123 -1.85603 0.784465 0
M  V30 1472 O 135.179 -2.5024 0.337051 0
M  V30 1473 C 136.492 -0.591241 2.9483 0
M  V30 1474 C 138.04 -0.679732 3.0553 0
M  V30 1475 C 138.515 -0.760908 4.51635 0
M  V30 1476 N 140.006 -0.824302 4.55806 0
M  V30 1477 C 140.741 -0.907365 5.66175 0
M  V30 1478 N 140.237 -0.952422 6.86222 0
M  V30 1479 N 142.03 -0.94494 5.541 0
M  V30 1480 H 134.181 0.67235 2.01478 0
M  V30 1481 H 136.444 0.240127 0.917084 0
M  V30 1482 H 136.15 0.305905 3.50367 0
M  V30 1483 H 136.024 -1.44422 3.48457 0
M  V30 1484 H 138.411 -1.56731 2.50039 0
M  V30 1485 H 138.492 0.199549 2.5502 0
M  V30 1486 H 138.136 0.122336 5.07753 0
M  V30 1487 H 138.066 -1.65606 4.99882 0
M  V30 1488 H 140.557 -0.798526 3.69367 0
M  V30 1489 H 140.87 -1.01645 7.66086 0
M  V30 1490 H 139.215 -0.921014 6.8887 0
M  V30 1491 H 142.406 -0.906612 4.59236 0
M  V30 1492 H 142.579 -1.00622 6.4014 0
M  V30 1493 N 135.985 -1.50799 -0.457987 0
M  V30 1494 C 137.401 -1.38515 -0.792819 0
M  V30 1495 C 137.601 -0.451409 -1.96379 0
M  V30 1496 O 136.657 0.10112 -2.52297 0
M  V30 1497 C 137.97 -2.80149 -1.09258 0
M  V30 1498 C 139.518 -2.89156 -1.19825 0
M  V30 1499 C 139.993 -4.31651 -1.53106 0
M  V30 1500 N 141.484 -4.34662 -1.60072 0
M  V30 1501 C 142.219 -5.41928 -1.87354 0
M  V30 1502 N 141.715 -6.59384 -2.12568 0
M  V30 1503 N 143.508 -5.29385 -1.88965 0
M  V30 1504 H 135.659 -2.10073 0.313511 0
M  V30 1505 H 137.922 -0.944803 0.0777862 0
M  V30 1506 H 137.628 -3.50374 -0.305084 0
M  V30 1507 H 137.502 -3.18204 -2.02549 0
M  V30 1508 H 139.889 -2.19141 -1.97639 0
M  V30 1509 H 139.97 -2.54626 -0.244821 0
M  V30 1510 H 139.614 -5.02208 -0.758266 0
M  V30 1511 H 139.544 -4.63678 -2.49621 0
M  V30 1512 H 142.035 -3.49973 -1.42573 0
M  V30 1513 H 142.348 -7.36934 -2.32696 0
M  V30 1514 H 140.693 -6.62535 -2.09933 0
M  V30 1515 H 143.884 -4.36616 -1.68772 0
M  V30 1516 H 144.057 -6.13066 -2.09891 0
M  V30 1517 N 137.463 0.71206 -1.40597 0
M  V30 1518 C 138.426 1.80785 -1.40888 0
M  V30 1519 C 139.426 1.57937 -0.302103 0
M  V30 1520 O 140.616 1.64913 -0.561182 0
M  V30 1521 C 137.748 3.18927 -1.20409 0
M  V30 1522 H 138.941 1.81924 -2.38419 0
M  V30 1523 H 136.494 0.91805 -1.26497 0
M  V30 1524 H 137.229 3.23436 -0.236522 0
M  V30 1525 H 137.014 3.36911 -2.00582 0
M  V30 1526 H 138.504 3.98949 -1.23408 0
M  V30 1527 N 138.941 1.26152 0.944643 0
M  V30 1528 C 139.871 1.09902 2.06019 0
M  V30 1529 C 140.852 0.00519538 1.70099 0
M  V30 1530 O 142.037 0.176583 1.93396 0
M  V30 1531 C 139.167 0.727562 3.39594 0
M  V30 1532 C 138.121 1.77274 3.89561 0
M  V30 1533 C 137.447 1.25569 5.19747 0
M  V30 1534 C 138.747 3.17357 4.14827 0
M  V30 1535 H 140.441 2.03217 2.19871 0
M  V30 1536 H 137.987 0.978452 1.05652 0
M  V30 1537 H 139.94 0.600777 4.17095 0
M  V30 1538 H 138.664 -0.241287 3.25707 0
M  V30 1539 H 137.323 1.88814 3.14237 0
M  V30 1540 H 136.971 0.276783 5.02238 0
M  V30 1541 H 136.671 1.95433 5.54148 0
M  V30 1542 H 138.195 1.1415 5.99835 0
M  V30 1543 H 139.609 3.08914 4.82954 0
M  V30 1544 H 138.006 3.84781 4.60504 0
M  V30 1545 H 139.076 3.63673 3.20734 0
M  V30 1546 N 140.419 -1.14872 1.07899 0
M  V30 1547 C 141.696 -1.81928 0.71845 0
M  V30 1548 C 142.076 -1.95417 -0.798455 0
M  V30 1549 O 141.424 -1.50997 -1.715 0
M  V30 1550 C 141.634 -3.17937 1.43935 0
M  V30 1551 C 142.982 -3.93501 1.59506 0
M  V30 1552 O 144.006 -3.27509 1.40058 0
M  V30 1553 O 142.865 -5.1183 1.91551 0
M  V30 1554 H 139.959 -0.78628 0.256305 0
M  V30 1555 H 142.505 -1.21934 1.18026 0
M  V30 1556 H 141.277 -3.0325 2.47295 0
M  V30 1557 H 140.9 -3.85619 0.968687 0
M  V30 1558 N 141.898 -0.863906 -1.31812 0
M  V30 1559 C 143.309 -0.52522 -1.7916 0
M  V30 1560 C 143.66 0.957518 -1.71248 0
M  V30 1561 O 142.785 1.74734 -1.27659 0
M  V30 1562 C 143.38 -0.9466 -3.25307 0
M  V30 1563 C 141.939 -0.659668 -3.70574 0
M  V30 1564 C 141.086 -1.14126 -2.52726 0
M  V30 1565 H 144.037 -1.05022 -1.1898 0
M  V30 1566 H 144.058 -0.266766 -3.79564 0
M  V30 1567 H 143.57 -2.02579 -3.31034 0
M  V30 1568 H 141.671 0.408416 -3.70355 0
M  V30 1569 H 141.784 -1.23245 -4.62977 0
M  V30 1570 H 140.148 -0.561216 -2.4844 0
M  V30 1571 H 140.931 -2.22775 -2.61201 0
M  V30 1572 N 143.376 1.44774 -0.622745 0
M  V30 1573 C 144.308 2.28856 0.125485 0
M  V30 1574 C 145.321 1.40811 0.817069 0
M  V30 1575 O 146.51 1.65044 0.679918 0
M  V30 1576 C 143.61 3.16963 1.19949 0
M  V30 1577 C 142.783 4.33374 0.592064 0
M  V30 1578 C 141.842 5.02577 1.55893 0
M  V30 1579 O 140.868 5.58873 1.07933 0
M  V30 1580 N 142.07 5.03256 2.89334 0
M  V30 1581 H 144.835 2.93713 -0.596068 0
M  V30 1582 H 142.396 1.55129 -0.463303 0
M  V30 1583 H 144.388 3.60123 1.84644 0
M  V30 1584 H 142.958 2.53913 1.82337 0
M  V30 1585 H 142.178 3.93509 -0.233322 0
M  V30 1586 H 143.466 5.08527 0.166738 0
M  V30 1587 H 142.864 4.58836 3.30887 0
M  V30 1588 H 141.421 5.50232 3.49412 0
M  V30 1589 N 144.854 0.36279 1.53368 0
M  V30 1590 C 146.079 -0.231226 2.06107 0
M  V30 1591 C 146.504 -1.419 1.23474 0
M  V30 1592 O 145.862 -1.79524 0.253128 0
M  V30 1593 C 145.91 -0.605523 3.5548 0
M  V30 1594 O 145.014 -1.70312 3.7559 0
M  V30 1595 H 144.355 -0.034327 0.663112 0
M  V30 1596 H 146.885 0.522584 1.97814 0
M  V30 1597 H 146.895 -0.877314 3.98456 0
M  V30 1598 H 145.57 0.263004 4.15068 0
M  V30 1599 H 144.147 -1.4271 3.44512 0
M  V30 1600 N 146.332 -1.57332 0.0918853 0
M  V30 1601 C 147.557 -1.98995 -0.584442 0
M  V30 1602 C 147.982 -0.970528 -1.61128 0
M  V30 1603 O 147.34 0.0613904 -1.81196 0
M  V30 1604 C 147.388 -3.39636 -1.21161 0
M  V30 1605 O 146.492 -3.40447 -2.32744 0
M  V30 1606 H 145.833 -0.647165 -0.148572 0
M  V30 1607 H 148.363 -2.03873 0.172347 0
M  V30 1608 H 148.373 -3.7726 -1.55367 0
M  V30 1609 H 147.048 -4.13356 -0.459313 0
M  V30 1610 H 145.625 -3.14614 -2.0018 0
M  V30 1611 N 147.81 0.181792 -1.56548 0
M  V30 1612 C 149.221 0.745244 -1.71181 0
M  V30 1613 C 149.572 1.83262 -0.70068 0
M  V30 1614 O 148.697 2.15946 0.140154 0
M  V30 1615 C 149.292 1.35859 -3.10367 0
M  V30 1616 C 147.851 1.86898 -3.2672 0
M  V30 1617 C 146.998 0.743942 -2.67134 0
M  V30 1618 H 149.949 -0.0434661 -1.5864 0
M  V30 1619 H 149.97 2.22817 -3.08436 0
M  V30 1620 H 149.482 0.566948 -3.83937 0
M  V30 1621 H 147.583 2.68738 -2.5809 0
M  V30 1622 H 147.696 2.02162 -4.34359 0
M  V30 1623 H 146.06 1.16169 -2.26665 0
M  V30 1624 H 146.843 -0.035676 -3.43281 0
M  V30 1625 N 149.288 1.51039 0.449983 0
M  V30 1626 C 150.536 1.62759 1.19808 0
M  V30 1627 C 150.857 0.339981 1.92013 0
M  V30 1628 O 150.127 -0.643606 1.85026 0
M  V30 1629 H 148.707 0.599811 0.445237 0
M  V30 1630 H 151.369 1.87914 0.517138 0
M  V30 1631 H 150.465 2.44911 1.93455 0
M  V30 1632 N 150.766 -0.704594 1.40972 0
M  V30 1633 C 151.696 -1.83124 1.44872 0
M  V30 1634 C 152.677 -1.67281 0.30838 0
M  V30 1635 O 153.862 -1.87149 0.518556 0
M  V30 1636 C 150.992 -3.21181 1.32136 0
M  V30 1637 C 149.946 -3.51714 2.43888 0
M  V30 1638 C 149.272 -4.89032 2.16222 0
M  V30 1639 C 150.572 -3.516 3.86232 0
M  V30 1640 H 152.266 -1.80117 2.39161 0
M  V30 1641 H 149.812 -0.865145 1.15114 0
M  V30 1642 H 151.765 -3.99702 1.33479 0
M  V30 1643 H 150.489 -3.24791 0.343279 0
M  V30 1644 H 149.148 -2.75539 2.41813 0
M  V30 1645 H 148.796 -4.89256 1.16778 0
M  V30 1646 H 148.496 -5.10426 2.911 0
M  V30 1647 H 150.02 -5.69873 2.19265 0
M  V30 1648 H 151.434 -4.2014 3.9007 0
M  V30 1649 H 149.831 -3.84523 4.60719 0
M  V30 1650 H 150.901 -2.50757 4.15029 0
M  V30 1651 N 152.244 -1.26651 -0.937939 0
M  V30 1652 C 153.492 -1.12165 -1.68118 0
M  V30 1653 C 153.813 0.334983 -1.92101 0
M  V30 1654 O 153.083 1.23583 -1.52 0
M  V30 1655 H 151.663 -0.412093 -0.623048 0
M  V30 1656 H 154.325 -1.59027 -1.12678 0
M  V30 1657 H 153.421 -1.64289 -2.6536 0
M  V30 1658 N 153.722 1.14298 -1.08507 0
M  V30 1659 C 155.138 1.37347 -0.812901 0
M  V30 1660 C 155.338 1.93052 0.577325 0
M  V30 1661 O 154.394 2.14389 1.33393 0
M  V30 1662 C 155.707 2.33359 -1.89642 0
M  V30 1663 C 157.255 2.46996 -1.92255 0
M  V30 1664 C 157.73 3.46309 -2.99724 0
M  V30 1665 N 159.221 3.53853 -2.98902 0
M  V30 1666 C 159.956 4.3055 -3.787 0
M  V30 1667 N 159.452 5.10482 -4.6838 0
M  V30 1668 N 161.245 4.25757 -3.66998 0
M  V30 1669 H 153.396 0.764867 -1.9815 0
M  V30 1670 H 155.659 0.398966 -0.859959 0
M  V30 1671 H 155.365 1.99565 -2.89597 0
M  V30 1672 H 155.239 3.33274 -1.76659 0
M  V30 1673 H 157.626 2.80081 -0.929445 0
M  V30 1674 H 157.707 1.47039 -2.09316 0
M  V30 1675 H 157.351 3.13957 -3.99241 0
M  V30 1676 H 157.281 4.46049 -2.79907 0
M  V30 1677 H 159.772 2.96812 -2.33904 0
M  V30 1678 H 160.085 5.66284 -5.25873 0
M  V30 1679 H 158.43 5.09747 -4.72422 0
M  V30 1680 H 161.621 3.62383 -2.96304 0
M  V30 1681 H 161.794 4.85279 -4.29427 0
M  V30 1682 N 155.201 0.870884 1.31352 0
M  V30 1683 C 156.45 0.478408 1.95944 0
M  V30 1684 C 156.763 -0.974493 1.69597 0
M  V30 1685 O 157.969 -1.47316 2.28058 0
M  V30 1686 C 156.425 0.804609 3.50791 0
M  V30 1687 C 156.033 2.27433 3.85977 0
M  V30 1688 C 157.777 0.480648 4.2177 0
M  V30 1689 C 155.684 2.5429 5.33939 0
M  V30 1690 H 154.614 0.175175 0.733369 0
M  V30 1691 H 157.265 1.06391 1.4951 0
M  V30 1692 H 155.647 0.148347 3.95722 0
M  V30 1693 H 156.821 2.97373 3.52002 0
M  V30 1694 H 155.136 2.56442 3.28065 0
M  V30 1695 H 157.733 0.658519 5.30629 0
M  V30 1696 H 158.076 -0.578979 4.12254 0
M  V30 1697 H 158.609 1.09349 3.82476 0
M  V30 1698 H 155.348 3.58939 5.48491 0
M  V30 1699 H 154.868 1.88945 5.69263 0
M  V30 1700 H 156.547 2.39066 6.01212 0
M  V30 1701 N 156.679 -1.44442 0.630414 0
M  V30 1702 C 157.612 -2.27862 -0.124247 0
M  V30 1703 C 158.59 -1.38495 -0.851931 0
M  V30 1704 O 159.774 -1.67935 -0.856166 0
M  V30 1705 C 156.901 -3.17407 -1.18197 0
M  V30 1706 C 155.947 -4.22875 -0.554892 0
M  V30 1707 S 156.78 -5.31485 0.654489 0
M  V30 1708 C 157.936 -6.246 -0.40326 0
M  V30 1709 H 158.169 -2.91519 0.583435 0
M  V30 1710 H 155.702 -1.48618 0.418565 0
M  V30 1711 H 157.66 -3.69549 -1.78728 0
M  V30 1712 H 156.321 -2.52971 -1.86184 0
M  V30 1713 H 155.514 -4.85542 -1.35148 0
M  V30 1714 H 155.116 -3.73992 -0.0242105 0
M  V30 1715 H 157.408 -6.65375 -1.27602 0
M  V30 1716 H 158.351 -7.07851 0.187813 0
M  V30 1717 H 158.759 -5.59775 -0.728837 0
M  V30 1718 N 158.157 -0.370918 -1.53173 0
M  V30 1719 C 159.089 0.507823 -2.23503 0
M  V30 1720 C 160.102 1.04182 -1.251 0
M  V30 1721 O 161.291 0.947286 -1.5129 0
M  V30 1722 C 158.391 1.71447 -2.92334 0
M  V30 1723 C 157.564 1.31105 -4.17289 0
M  V30 1724 C 156.623 2.38035 -4.69282 0
M  V30 1725 O 155.649 2.00204 -5.32829 0
M  V30 1726 N 156.851 3.69697 -4.47554 0
M  V30 1727 H 159.616 -0.0946382 -2.99551 0
M  V30 1728 H 157.177 -0.196358 -1.60705 0
M  V30 1729 H 159.169 2.42469 -3.24023 0
M  V30 1730 H 157.739 2.22368 -2.19707 0
M  V30 1731 H 156.959 0.430462 -3.91843 0
M  V30 1732 H 158.247 1.0179 -4.98514 0
M  V30 1733 H 157.645 4.03205 -3.9679 0
M  V30 1734 H 156.202 4.36807 -4.8378 0
M  V30 1735 N 159.635 1.57281 -0.100228 0
M  V30 1736 C 160.598 2.13158 0.842398 0
M  V30 1737 C 161.598 1.06202 1.20738 0
M  V30 1738 O 162.788 1.32066 1.13597 0
M  V30 1739 C 159.92 2.65639 2.13655 0
M  V30 1740 H 161.113 2.97766 0.357114 0
M  V30 1741 H 158.666 1.5559 0.148823 0
M  V30 1742 H 159.401 1.84566 2.66657 0
M  V30 1743 H 159.186 3.43844 1.88451 0
M  V30 1744 H 160.676 3.08846 2.81077 0
M  V30 1745 N 161.113 -0.173488 1.56642 0
M  V30 1746 C 162.524 -0.736155 1.71574 0
M  V30 1747 C 162.875 -1.82888 0.710389 0
M  V30 1748 O 162 -2.16017 -0.1287 0
M  V30 1749 C 162.595 -1.34211 3.11083 0
M  V30 1750 C 161.154 -1.85162 3.27707 0
M  V30 1751 C 160.301 -0.729765 2.67525 0
M  V30 1752 H 163.252 0.0518786 1.58615 0
M  V30 1753 H 163.273 -2.21178 3.09613 0
M  V30 1754 H 162.785 -0.546579 3.84232 0
M  V30 1755 H 160.886 -2.67366 2.59512 0
M  V30 1756 H 160.999 -1.99855 4.35425 0
M  V30 1757 H 159.363 -1.14965 2.27278 0
M  V30 1758 H 160.146 0.0538806 3.43258 0
M  V30 1759 N 162.591 -1.51276 -0.441967 0
M  V30 1760 C 163.837 -1.63958 -1.19355 0
M  V30 1761 C 164.17 -0.352543 -1.90973 0
M  V30 1762 O 163.445 0.647627 -1.83401 0
M  V30 1763 C 163.728 -2.83979 -2.21422 0
M  V30 1764 C 163.581 -4.22646 -1.53918 0
M  V30 1765 C 164.9 -2.99521 -3.22451 0
M  V30 1766 H 162.019 -0.596709 -0.432559 0
M  V30 1767 H 164.661 -1.83748 -0.483398 0
M  V30 1768 H 162.811 -2.67237 -2.81987 0
M  V30 1769 H 164.483 -4.51045 -0.967256 0
M  V30 1770 H 162.726 -4.25558 -0.841615 0
M  V30 1771 H 163.397 -5.02609 -2.28229 0
M  V30 1772 H 165.873 -3.14944 -2.71937 0
M  V30 1773 H 164.749 -3.85072 -3.91166 0
M  V30 1774 H 165.01 -2.11391 -3.88287 0
M  V30 1775 N 164.069 0.697108 -1.41344 0
M  V30 1776 C 165.48 1.27697 -1.36199 0
M  V30 1777 C 165.831 1.9615 -0.0443463 0
M  V30 1778 O 164.956 1.98689 0.857419 0
M  V30 1779 C 165.551 2.32223 -2.46694 0
M  V30 1780 C 164.11 2.8579 -2.44952 0
M  V30 1781 C 163.257 1.59807 -2.26621 0
M  V30 1782 H 166.208 0.491968 -1.50882 0
M  V30 1783 H 166.229 3.1348 -2.15664 0
M  V30 1784 H 165.741 1.82373 -3.42581 0
M  V30 1785 H 163.842 3.3982 -1.52817 0
M  V30 1786 H 163.955 3.36325 -3.41207 0
M  V30 1787 H 162.319 1.8556 -1.7447 0
M  V30 1788 H 163.102 1.11956 -3.24532 0
M  V30 1789 N 165.547 1.27147 0.931209 0
M  V30 1790 C 166.497 1.06227 2.01742 0
M  V30 1791 C 167.481 -0.00859065 1.60898 0
M  V30 1792 O 168.673 0.209537 1.75755 0
M  V30 1793 C 165.802 0.707787 3.35924 0
M  V30 1794 C 164.888 1.81661 3.83223 0
M  V30 1795 N 165.279 3.05564 4.03069 0
M  V30 1796 C 163.577 1.70249 4.12227 0
M  V30 1797 C 164.278 3.77697 4.42403 0
M  V30 1798 N 163.254 3.0544 4.49675 0
M  V30 1799 H 167.056 2.00261 2.15111 0
M  V30 1800 H 164.57 1.1781 1.11779 0
M  V30 1801 H 166.567 0.539043 4.134 0
M  V30 1802 H 165.227 -0.224964 3.2392 0
M  V30 1803 H 166.238 3.41363 3.89476 0
M  V30 1804 H 162.915 0.840329 4.08956 0
M  V30 1805 H 164.305 4.84168 4.65866 0
M  V30 1806 N 167.025 -1.13721 1.09112 0
M  V30 1807 C 168.25 -1.89314 0.847053 0
M  V30 1808 C 168.675 -1.78416 -0.595774 0
M  V30 1809 O 168.033 -1.12942 -1.41823 0
M  V30 1810 C 168.081 -3.3701 1.28284 0
M  V30 1811 O 167.185 -4.10054 0.439267 0
M  V30 1812 H 166.526 -0.588745 0.307044 0
M  V30 1813 H 169.056 -1.43902 1.45442 0
M  V30 1814 H 169.066 -3.87834 1.26683 0
M  V30 1815 H 167.741 -3.4426 2.33363 0
M  V30 1816 H 166.318 -3.69266 0.519312 0
M  V30 1817 N 168.503 -0.877838 -1.30888 0
M  V30 1818 C 169.435 -0.296607 -2.27273 0
M  V30 1819 C 170.448 0.544799 -1.53414 0
M  V30 1820 O 171.637 0.365511 -1.74718 0
M  V30 1821 C 168.737 0.597481 -3.33592 0
M  V30 1822 C 167.91 -0.213251 -4.3688 0
M  V30 1823 C 166.969 0.610208 -5.2265 0
M  V30 1824 O 165.995 0.035441 -5.69189 0
M  V30 1825 N 167.197 1.92071 -5.47804 0
M  V30 1826 H 169.962 -1.12492 -2.77787 0
M  V30 1827 H 167.523 -0.740105 -1.43993 0
M  V30 1828 H 169.515 1.15425 -3.87891 0
M  V30 1829 H 168.085 1.32647 -2.83061 0
M  V30 1830 H 167.305 -0.951466 -3.82545 0
M  V30 1831 H 168.593 -0.769262 -5.02951 0
M  V30 1832 H 167.991 2.4107 -5.11763 0
M  V30 1833 H 166.548 2.42508 -6.05007 0
M  V30 1834 N 169.982 1.44106 -0.638065 0
M  V30 1835 C 171.398 1.56672 -0.304286 0
M  V30 1836 C 171.598 1.6244 1.19228 0
M  V30 1837 O 170.654 1.57121 1.9766 0
M  V30 1838 C 171.967 2.83503 -1.00231 0
M  V30 1839 C 173.515 2.97226 -0.981116 0
M  V30 1840 C 173.99 4.26868 -1.65974 0
M  V30 1841 N 175.481 4.33698 -1.62666 0
M  V30 1842 C 176.216 5.32745 -2.12063 0
M  V30 1843 N 175.712 6.38157 -2.6968 0
M  V30 1844 N 177.505 5.24299 -2.02651 0
M  V30 1845 H 169.656 1.38605 -1.60942 0
M  V30 1846 H 171.919 0.664661 -0.675965 0
M  V30 1847 H 171.625 2.85251 -2.0573 0
M  V30 1848 H 171.499 3.73251 -0.54439 0
M  V30 1849 H 173.886 2.95027 0.0654188 0
M  V30 1850 H 173.967 2.08808 -1.47759 0
M  V30 1851 H 173.611 4.29826 -2.70576 0
M  V30 1852 H 173.541 5.14156 -1.13804 0
M  V30 1853 H 176.032 3.58138 -1.20606 0
M  V30 1854 H 176.345 7.10029 -3.05087 0
M  V30 1855 H 174.69 6.38823 -2.73734 0
M  V30 1856 H 177.881 4.4086 -1.57353 0
M  V30 1857 H 178.054 6.01334 -2.41457 0
M  V30 1858 N 171.46 0.379036 1.52974 0
M  V30 1859 C 172.876 0.0285448 1.59574 0
M  V30 1860 C 173.076 -1.45542 1.39355 0
M  V30 1861 O 172.132 -2.2187 1.20541 0
M  V30 1862 C 173.445 0.496535 2.96572 0
M  V30 1863 C 174.993 0.451909 3.0972 0
M  V30 1864 C 175.468 0.895924 4.49152 0
M  V30 1865 N 176.959 0.851522 4.55306 0
M  V30 1866 C 177.694 1.16661 5.61407 0
M  V30 1867 N 177.19 1.55166 6.752 0
M  V30 1868 N 178.983 1.08853 5.51459 0
M  V30 1869 H 171.134 1.34525 1.64367 0
M  V30 1870 H 173.397 0.550733 0.771619 0
M  V30 1871 H 173.103 1.53258 3.16552 0
M  V30 1872 H 172.977 -0.109802 3.7704 0
M  V30 1873 H 175.364 -0.575029 2.89443 0
M  V30 1874 H 175.445 1.09392 2.3123 0
M  V30 1875 H 175.089 1.92104 4.70168 0
M  V30 1876 H 175.019 0.23103 5.26093 0
M  V30 1877 H 177.51 0.568038 3.73606 0
M  V30 1878 H 177.823 1.776 7.52116 0
M  V30 1879 H 176.168 1.59044 6.76557 0
M  V30 1880 H 179.359 0.786803 4.6144 0
M  V30 1881 H 179.532 1.33742 6.34048 0
M  V30 1882 N 172.938 -1.57226 0.108567 0
M  V30 1883 C 173.848 -2.18292 -0.859401 0
M  V30 1884 C 174.864 -1.15612 -1.30038 0
M  V30 1885 O 176.04 -1.48039 -1.36552 0
M  V30 1886 C 173.105 -2.762 -2.09558 0
M  V30 1887 C 172.166 -3.93881 -1.70752 0
M  V30 1888 C 171.399 -4.49018 -2.88477 0
M  V30 1889 O 171.622 -4.03068 -4.036 0
M  V30 1890 O 170.556 -5.39852 -2.66164 0
M  V30 1891 H 174.382 -3.01441 -0.369769 0
M  V30 1892 H 171.967 -1.48945 -0.1165 0
M  V30 1893 H 173.849 -3.13156 -2.81978 0
M  V30 1894 H 172.524 -1.96089 -2.57548 0
M  V30 1895 H 171.431 -3.61713 -0.954714 0
M  V30 1896 H 172.764 -4.75396 -1.27513 0
M  V30 1897 N 174.416 0.165178 -1.56732 0
M  V30 1898 C 175.641 0.900253 -1.86843 0
M  V30 1899 C 176.066 1.74766 -0.695596 0
M  V30 1900 O 175.424 1.77786 0.35522 0
M  V30 1901 C 175.472 1.74777 -3.15413 0
M  V30 1902 O 174.576 2.85007 -2.98068 0
M  V30 1903 H 173.917 0.251832 -0.614391 0
M  V30 1904 H 176.447 0.161468 -2.03962 0
M  V30 1905 H 176.457 2.14646 -3.46974 0
M  V30 1906 H 175.132 1.12537 -4.00385 0
M  V30 1907 H 173.709 2.48676 -2.77875 0
M  V30 1908 N 175.894 1.51508 0.433938 0
M  V30 1909 C 177.141 1.64345 1.18309 0
M  V30 1910 C 177.469 0.361315 1.91115 0
M  V30 1911 O 176.724 -0.654753 1.84422 0
M  V30 1912 C 177.023 2.79928 2.22205 0
M  V30 1913 C 176.689 4.19078 1.66387 0
M  V30 1914 C 175.351 4.56932 1.50887 0
M  V30 1915 C 177.703 5.05894 1.25381 0
M  V30 1916 C 175.031 5.79305 0.928608 0
M  V30 1917 C 177.383 6.2885 0.687823 0
M  V30 1918 C 176.047 6.65473 0.519755 0
M  V30 1919 H 175.317 0.601381 0.432923 0
M  V30 1920 H 177.964 1.85549 0.473676 0
M  V30 1921 H 176.269 2.52959 2.99197 0
M  V30 1922 H 177.966 2.87059 2.79997 0
M  V30 1923 H 174.556 3.89234 1.79428 0
M  V30 1924 H 178.74 4.77253 1.36175 0
M  V30 1925 H 173.996 6.06324 0.786186 0
M  V30 1926 H 178.17 6.95461 0.361581 0
M  V30 1927 H 175.797 7.6017 0.0679979 0
M  V30 1928 N 177.372 -0.689602 1.41712 0
M  V30 1929 C 178.302 -1.81577 1.46806 0
M  V30 1930 C 179.283 -1.66945 0.326105 0
M  V30 1931 O 180.468 -1.86588 0.538377 0
M  V30 1932 C 177.598 -3.19762 1.35535 0
M  V30 1933 C 176.552 -3.49107 2.47605 0
M  V30 1934 C 175.878 -4.86711 2.21397 0
M  V30 1935 C 177.178 -3.47483 3.89939 0
M  V30 1936 H 178.872 -1.7757 2.41058 0
M  V30 1937 H 176.418 -0.852887 1.16025 0
M  V30 1938 H 178.371 -3.98263 1.3771 0
M  V30 1939 H 177.095 -3.24409 0.377708 0
M  V30 1940 H 175.754 -2.72959 2.44722 0
M  V30 1941 H 175.402 -4.8799 1.21961 0
M  V30 1942 H 175.102 -5.0731 2.96497 0
M  V30 1943 H 176.626 -5.67515 2.25297 0
M  V30 1944 H 178.04 -4.1598 3.94505 0
M  V30 1945 H 176.437 -3.79615 4.64771 0
M  V30 1946 H 177.507 -2.46341 4.17665 0
M  V30 1947 N 178.85 -1.27639 -0.924453 0
M  V30 1948 C 180.08 -1.16819 -1.70402 0
M  V30 1949 C 180.488 0.277191 -1.87158 0
M  V30 1950 O 179.831 1.20025 -1.39067 0
M  V30 1951 C 179.893 -1.78305 -3.12166 0
M  V30 1952 C 179.557 -3.27502 -3.18734 0
M  V30 1953 C 180.554 -4.2409 -3.00738 0
M  V30 1954 C 178.239 -3.68269 -3.4159 0
M  V30 1955 C 180.233 -5.59422 -3.05492 0
M  V30 1956 C 177.92 -5.0373 -3.45977 0
M  V30 1957 C 178.918 -5.99116 -3.27946 0
M  V30 1958 O 178.606 -7.32108 -3.32074 0
M  V30 1959 H 178.338 -0.406931 -0.539799 0
M  V30 1960 H 180.892 -1.69078 -1.16626 0
M  V30 1961 H 179.122 -1.20528 -3.67437 0
M  V30 1962 H 180.811 -1.62154 -3.72103 0
M  V30 1963 H 181.577 -3.93931 -2.82919 0
M  V30 1964 H 177.456 -2.94496 -3.54673 0
M  V30 1965 H 181 -6.33852 -2.91337 0
M  V30 1966 H 176.897 -5.33543 -3.63321 0
M  V30 1967 H 177.665 -7.40598 -3.48507 0
M  V30 1968 N 180.328 1.1314 -1.09713 0
M  V30 1969 C 181.744 1.36477 -0.827423 0
M  V30 1970 C 181.944 1.93654 0.556817 0
M  V30 1971 O 181 2.15791 1.31112 0
M  V30 1972 C 182.313 2.31334 -1.92106 0
M  V30 1973 C 183.861 2.44943 -1.94864 0
M  V30 1974 C 184.336 3.4311 -3.0338 0
M  V30 1975 N 185.827 3.50662 -3.02639 0
M  V30 1976 C 186.562 4.2651 -3.83246 0
M  V30 1977 N 186.058 5.05485 -4.73768 0
M  V30 1978 N 187.851 4.2184 -3.71493 0
M  V30 1979 H 180.002 0.743807 -1.9895 0
M  V30 1980 H 182.265 0.389823 -0.864143 0
M  V30 1981 H 181.971 1.96483 -2.91698 0
M  V30 1982 H 181.845 3.31381 -1.80184 0
M  V30 1983 H 184.232 2.79079 -0.959099 0
M  V30 1984 H 184.313 1.4481 -2.10864 0
M  V30 1985 H 183.957 3.09704 -4.02549 0
M  V30 1986 H 183.887 4.43055 -2.84622 0
M  V30 1987 H 186.378 2.94315 -2.37039 0
M  V30 1988 H 186.691 5.60675 -5.3185 0
M  V30 1989 H 185.036 5.04708 -4.77802 0
M  V30 1990 H 188.227 3.5922 -3.00131 0
M  V30 1991 H 188.4 4.80697 -4.3455 0
M  V30 1992 N 181.806 0.884767 1.30421 0
M  V30 1993 C 183.031 0.517288 2.00845 0
M  V30 1994 C 183.456 -0.886779 1.65885 0
M  V30 1995 O 182.814 -1.58768 0.875354 0
M  V30 1996 C 182.862 0.698994 3.5376 0
M  V30 1997 O 181.966 -0.255208 4.1161 0
M  V30 1998 H 181.307 0.203872 0.631927 0
M  V30 1999 H 183.837 1.19225 1.66272 0
M  V30 2000 H 183.847 0.597912 4.03595 0
M  V30 2001 H 182.522 1.72271 3.78544 0
M  V30 2002 H 181.099 -0.10784 3.72744 0
M  V30 2003 N 183.284 -1.43765 0.645699 0
M  V30 2004 C 184.561 -1.9541 0.0862963 0
M  V30 2005 C 184.941 -1.58725 -1.39175 0
M  V30 2006 O 184.289 -0.868581 -2.11348 0
M  V30 2007 C 184.499 -3.47488 0.324565 0
M  V30 2008 C 185.847 -4.24001 0.225497 0
M  V30 2009 O 186.871 -3.55274 0.256715 0
M  V30 2010 O 185.73 -5.46313 0.142801 0
M  V30 2011 H 182.824 -0.826882 -0.0139483 0
M  V30 2012 H 185.37 -1.53743 0.718415 0
M  V30 2013 H 184.142 -3.67289 1.3496 0
M  V30 2014 H 183.765 -3.96135 -0.340987 0
M  V30 2015 N 184.763 -0.387143 -1.52771 0
M  V30 2016 C 185.988 0.198407 -2.06449 0
M  V30 2017 C 186.413 1.39918 -1.25716 0
M  V30 2018 O 185.771 1.79099 -0.281657 0
M  V30 2019 C 185.819 0.548893 -3.56398 0
M  V30 2020 O 184.923 1.64315 -3.78252 0
M  V30 2021 H 184.264 0.0237731 -0.663574 0
M  V30 2022 H 186.794 -0.553989 -1.96957 0
M  V30 2023 H 186.804 0.813812 -3.99801 0
M  V30 2024 H 185.479 -0.329005 -4.14597 0
M  V30 2025 H 184.056 1.37211 -3.46738 0
M  V30 2026 N 186.241 1.57166 -0.116904 0
M  V30 2027 C 187.518 1.86645 0.585049 0
M  V30 2028 C 187.898 1.0177 1.84949 0
M  V30 2029 O 187.246 0.0960379 2.28298 0
M  V30 2030 C 187.456 3.37736 0.879507 0
M  V30 2031 C 188.804 4.06289 1.23348 0
M  V30 2032 O 189.828 3.42743 0.969836 0
M  V30 2033 O 188.687 5.18455 1.7282 0
M  V30 2034 H 185.781 0.772593 0.295007 0
M  V30 2035 H 188.327 1.69025 -0.151249 0
M  V30 2036 H 187.099 3.91296 -0.0166136 0
M  V30 2037 H 186.722 3.6078 1.67103 0
M  V30 2038 N 187.719 -0.156864 1.56817 0
M  V30 2039 C 188.949 -0.885031 1.86684 0
M  V30 2040 C 189.357 -1.75696 0.701954 0
M  V30 2041 O 188.7 -1.80569 -0.337732 0
M  V30 2042 C 188.762 -1.80092 3.11138 0
M  V30 2043 C 188.426 -1.10714 4.43386 0
M  V30 2044 C 189.423 -0.465714 5.1781 0
M  V30 2045 C 187.108 -1.09959 4.90117 0
M  V30 2046 C 189.102 0.174002 6.37162 0
M  V30 2047 C 186.789 -0.456055 6.09396 0
M  V30 2048 C 187.787 0.179622 6.82764 0
M  V30 2049 O 187.475 0.812975 7.99779 0
M  V30 2050 H 187.207 -0.261813 0.623242 0
M  V30 2051 H 189.761 -0.157383 2.04796 0
M  V30 2052 H 187.991 -2.56926 2.89009 0
M  V30 2053 H 189.68 -2.40018 3.27332 0
M  V30 2054 H 190.446 -0.463427 4.82781 0
M  V30 2055 H 186.325 -1.58378 4.3294 0
M  V30 2056 H 189.869 0.670765 6.94368 0
M  V30 2057 H 185.766 -0.455975 6.43888 0
M  V30 2058 H 186.534 0.71366 8.15383 0
M  V30 2059 N 189.197 -1.51736 -0.425897 0
M  V30 2060 C 190.107 -1.76738 -1.54275 0
M  V30 2061 C 191.123 -0.65211 -1.61318 0
M  V30 2062 O 192.299 -0.935654 -1.78346 0
M  V30 2063 C 189.364 -1.89755 -2.90162 0
M  V30 2064 C 188.425 -3.13633 -2.93143 0
M  V30 2065 C 187.658 -3.2602 -4.22548 0
M  V30 2066 O 187.881 -2.44067 -5.15546 0
M  V30 2067 O 186.815 -4.19071 -4.32046 0
M  V30 2068 H 190.641 -2.71502 -1.36089 0
M  V30 2069 H 188.226 -1.36376 -0.610069 0
M  V30 2070 H 190.108 -2.00236 -3.70788 0
M  V30 2071 H 188.783 -0.981785 -3.08452 0
M  V30 2072 H 187.69 -3.08622 -2.11431 0
M  V30 2073 H 189.023 -4.04936 -2.798 0
M  V30 2074 N 190.675 0.682077 -1.42076 0
M  V30 2075 C 191.605 1.80796 -1.47767 0
M  V30 2076 C 192.586 1.6677 -0.334954 0
M  V30 2077 O 193.771 1.863 -0.548264 0
M  V30 2078 C 190.901 3.19038 -1.37229 0
M  V30 2079 C 189.855 3.47789 -2.49453 0
M  V30 2080 C 189.181 4.8553 -2.23975 0
M  V30 2081 C 190.481 3.45411 -3.91776 0
M  V30 2082 H 192.175 1.7629 -2.41997 0
M  V30 2083 H 189.721 0.846721 -1.16476 0
M  V30 2084 H 191.674 3.97528 -1.39821 0
M  V30 2085 H 190.398 3.24204 -0.394907 0
M  V30 2086 H 189.057 2.71657 -2.46166 0
M  V30 2087 H 188.705 4.87337 -1.24547 0
M  V30 2088 H 188.405 5.0573 -2.99184 0
M  V30 2089 H 189.929 5.66312 -2.28304 0
M  V30 2090 H 191.343 4.13882 -3.96705 0
M  V30 2091 H 189.74 3.77145 -4.66778 0
M  V30 2092 H 190.81 2.44122 -4.18966 0
M  V30 2093 N 192.153 1.28127 0.917671 0
M  V30 2094 C 193.378 1.18007 1.70555 0
M  V30 2095 C 193.803 -0.258257 1.86319 0
M  V30 2096 O 193.161 -1.1869 1.37049 0
M  V30 2097 C 193.209 1.87948 3.07746 0
M  V30 2098 O 192.313 1.18427 3.9503 0
M  V30 2099 H 191.654 0.409867 0.522403 0
M  V30 2100 H 194.184 1.69379 1.1477 0
M  V30 2101 H 194.194 1.95701 3.58001 0
M  V30 2102 H 192.869 2.92573 2.95591 0
M  V30 2103 H 191.446 1.18811 3.53466 0
M  V30 2104 N 193.631 -1.12557 1.10312 0
M  V30 2105 C 195.042 -1.65574 0.862678 0
M  V30 2106 C 195.393 -1.86566 -0.607256 0
M  V30 2107 O 194.518 -1.59121 -1.46662 0
M  V30 2108 C 195.113 -3.00776 1.55947 0
M  V30 2109 C 193.672 -3.50748 1.36576 0
M  V30 2110 C 192.819 -2.25797 1.60968 0
M  V30 2111 H 195.77 -0.963552 1.26101 0
M  V30 2112 H 195.791 -3.67185 0.997753 0
M  V30 2113 H 195.303 -2.85465 2.62928 0
M  V30 2114 H 193.404 -3.71245 0.317531 0
M  V30 2115 H 193.517 -4.30289 2.10686 0
M  V30 2116 H 191.881 -2.32841 1.03234 0
M  V30 2117 H 192.664 -2.13043 2.69198 0
M  V30 2118 N 195.109 -0.891671 -1.2995 0
M  V30 2119 C 196.056 -0.361736 -2.27948 0
M  V30 2120 C 197.026 0.551761 -1.56668 0
M  V30 2121 O 198.211 0.478736 -1.84696 0
M  V30 2122 C 195.351 0.411825 -3.42634 0
M  V30 2123 C 194.464 -0.531651 -4.28716 0
M  V30 2124 C 193.599 0.258167 -5.30572 0
M  V30 2125 C 192.638 -0.680349 -6.08307 0
M  V30 2126 N 191.775 0.0745613 -7.0206 0
M  V30 2127 H 196.615 -1.20254 -2.72659 0
M  V30 2128 H 194.152 -0.604352 -1.34112 0
M  V30 2129 H 196.11 0.876304 -4.07893 0
M  V30 2130 H 194.74 1.21715 -2.98974 0
M  V30 2131 H 193.792 -1.11463 -3.63703 0
M  V30 2132 H 195.104 -1.25038 -4.82874 0
M  V30 2133 H 194.258 0.784204 -6.0161 0
M  V30 2134 H 192.997 1.01008 -4.77126 0
M  V30 2135 H 192.002 -1.21796 -5.3614 0
M  V30 2136 H 193.227 -1.43145 -6.63842 0
M  V30 2137 H 191.173 0.808883 -6.50994 0
M  V30 2138 H 191.09 -0.584409 -7.53738 0
M  V30 2139 H 192.358 0.581123 -7.77331 0
M  V30 2140 N 196.587 1.43421 -0.653314 0
M  V30 2141 C 197.55 2.29182 0.0287951 0
M  V30 2142 C 198.55 1.42213 0.750465 0
M  V30 2143 O 199.74 1.63843 0.591701 0
M  V30 2144 C 196.872 3.24278 1.05151 0
M  V30 2145 H 198.065 2.90985 -0.725786 0
M  V30 2146 H 195.618 1.50702 -0.414545 0
M  V30 2147 H 196.353 2.6737 1.83532 0
M  V30 2148 H 196.138 3.88396 0.537687 0
M  V30 2149 H 197.628 3.88647 1.52786 0
M  V30 2150 N 198.065 0.39524 1.52563 0
M  V30 2151 C 198.998 -0.4813 2.23067 0
M  V30 2152 C 199.976 -1.05927 1.23362 0
M  V30 2153 O 201.16 -1.10979 1.52368 0
M  V30 2154 C 198.287 -1.66676 2.9485 0
M  V30 2155 C 197.333 -1.21348 4.08873 0
M  V30 2156 S 198.166 -0.190102 5.35162 0
M  V30 2157 C 199.322 -1.38121 6.1047 0
M  V30 2158 H 199.555 0.117381 2.97068 0
M  V30 2159 H 197.088 0.179458 1.53354 0
M  V30 2160 H 199.046 -2.3466 3.36816 0
M  V30 2161 H 197.707 -2.23676 2.20518 0
M  V30 2162 H 196.9 -2.09877 4.58222 0
M  V30 2163 H 196.502 -0.612486 3.68951 0
M  V30 2164 H 198.794 -2.30726 6.37002 0
M  V30 2165 H 199.737 -0.928521 7.01986 0
M  V30 2166 H 200.145 -1.60071 5.41329 0
M  V30 2167 N 199.544 -1.57102 0.125237 0
M  V30 2168 C 200.769 -2.0019 -0.542101 0
M  V30 2169 C 201.194 -1.00449 -1.59034 0
M  V30 2170 O 200.552 0.0229423 -1.81285 0
M  V30 2171 C 200.6 -3.42129 -1.13929 0
M  V30 2172 O 199.704 -3.45307 -2.2547 0
M  V30 2173 H 199.045 -0.650171 -0.134812 0
M  V30 2174 H 201.575 -2.03461 0.215553 0
M  V30 2175 H 201.585 -3.80471 -1.4733 0
M  V30 2176 H 200.26 -4.14237 -0.371531 0
M  V30 2177 H 198.837 -3.1879 -1.93462 0
M  V30 2178 N 201.022 0.148545 -1.56898 0
M  V30 2179 C 202.438 0.501131 -1.51528 0
M  V30 2180 C 202.638 1.83458 -0.833399 0
M  V30 2181 O 201.694 2.49259 -0.40328 0
M  V30 2182 C 203.007 0.512864 -2.96294 0
M  V30 2183 C 204.555 0.598487 -3.07225 0
M  V30 2184 C 205.03 0.640897 -4.53494 0
M  V30 2185 N 206.521 0.703163 -4.57832 0
M  V30 2186 C 207.256 0.756935 -5.68382 0
M  V30 2187 N 206.752 0.770147 -6.88506 0
M  V30 2188 N 208.545 0.797698 -5.56411 0
M  V30 2189 H 200.696 -0.725532 -1.99624 0
M  V30 2190 H 202.959 -0.264358 -0.910395 0
M  V30 2191 H 202.665 -0.398691 -3.49433 0
M  V30 2192 H 202.539 1.35133 -3.52163 0
M  V30 2193 H 204.926 1.50046 -2.54106 0
M  V30 2194 H 205.007 -0.267093 -2.54402 0
M  V30 2195 H 204.651 -0.256915 -5.0725 0
M  V30 2196 H 204.581 1.52295 -5.04097 0
M  V30 2197 H 207.072 0.700314 -3.71354 0
M  V30 2198 H 207.385 0.812983 -7.68512 0
M  V30 2199 H 205.73 0.738049 -6.9107 0
M  V30 2200 H 208.921 0.784535 -4.61479 0
M  V30 2201 H 209.094 0.83614 -6.42583 0
M  V30 2202 N 202.5 1.5196 0.417844 0
M  V30 2203 C 203.448 1.75278 1.52907 0
M  V30 2204 C 204.442 0.619611 1.57662 0
M  V30 2205 O 205.648 0.801457 1.61173 0
M  V30 2206 H 202.023 0.554141 0.508362 0
M  V30 2207 H 203.994 2.68389 1.30422 0
M  V30 2208 C 202.743 1.91262 2.90369 0
M  V30 2209 H 202.066 2.77872 2.8745 0
M  V30 2210 H 203.506 2.11581 3.67436 0
M  V30 2211 C 201.965 0.677431 3.30019 0
M  V30 2212 O 202.495 -0.158799 4.01386 0
M  V30 2213 N 200.701 0.515851 2.85985 0
M  V30 2214 H 200.248 1.19744 2.28077 0
M  V30 2215 H 200.206 -0.309315 3.12875 0
M  V30 2216 N 203.978 -0.674533 1.42435 0
M  V30 2217 C 205.203 -1.46784 1.46524 0
M  V30 2218 C 205.628 -1.87938 0.078066 0
M  V30 2219 O 204.986 -1.56014 -0.92354 0
M  V30 2220 C 205.034 -2.69307 2.39805 0
M  V30 2221 O 204.138 -3.67587 1.86959 0
M  V30 2222 H 203.479 -0.440959 0.496439 0
M  V30 2223 H 206.009 -0.827326 1.87127 0
M  V30 2224 H 206.019 -3.17374 2.56393 0
M  V30 2225 H 204.694 -2.38692 3.40586 0
M  V30 2226 H 203.271 -3.2662 1.79927 0
M  V30 2227 N 205.456 -1.28612 -0.910864 0
M  V30 2228 C 206.681 -1.1891 -1.69927 0
M  V30 2229 C 207.106 0.248372 -1.86453 0
M  V30 2230 O 206.464 1.17961 -1.37676 0
M  V30 2231 C 206.512 -1.89578 -3.06745 0
M  V30 2232 O 205.616 -1.20521 -3.94396 0
M  V30 2233 H 204.957 -0.412632 -0.520222 0
M  V30 2234 H 207.487 -1.69985 -1.1387 0
M  V30 2235 H 207.497 -1.97597 -3.56958 0
M  V30 2236 H 206.172 -2.94136 -2.94035 0
M  V30 2237 H 204.749 -1.20684 -3.52831 0
M  V30 2238 N 206.934 1.1197 -1.10907 0
M  V30 2239 C 208.18 1.8386 -0.855773 0
M  V30 2240 C 208.513 1.84134 0.617103 0
M  V30 2241 O 207.788 1.29041 1.45529 0
M  V30 2242 C 208.071 3.31305 -1.411 0
M  V30 2243 C 207.924 3.39456 -2.9511 0
M  V30 2244 C 209.243 4.2721 -1.05736 0
M  V30 2245 H 206.362 0.667545 -0.312334 0
M  V30 2246 H 209.004 1.31331 -1.37303 0
M  V30 2247 H 207.154 3.76169 -0.97105 0
M  V30 2248 H 208.826 3.03191 -3.47668 0
M  V30 2249 H 207.069 2.79849 -3.31462 0
M  V30 2250 H 207.74 4.43209 -3.29044 0
M  V30 2251 H 210.216 3.90497 -1.43706 0
M  V30 2252 H 209.092 5.28775 -1.47269 0
M  V30 2253 H 209.353 4.42088 0.0325958 0
M  V30 2254 N 208.412 0.89855 1.29475 0
M  V30 2255 C 209.375 0.380272 2.26023 0
M  V30 2256 C 210.375 -0.484891 1.53315 0
M  V30 2257 O 211.565 -0.290108 1.71767 0
M  V30 2258 C 208.697 -0.45651 3.3783 0
M  V30 2259 H 209.89 1.23295 2.73383 0
M  V30 2260 H 207.443 0.676589 1.40897 0
M  V30 2261 H 208.178 -1.32922 2.95808 0
M  V30 2262 H 207.963 0.163393 3.91759 0
M  V30 2263 H 209.453 -0.810466 4.0966 0
M  V30 2264 N 209.89 -1.43072 0.660911 0
M  V30 2265 C 211.115 -2.06584 0.183805 0
M  V30 2266 C 211.54 -1.49257 -1.14472 0
M  V30 2267 O 210.898 -0.605528 -1.70889 0
M  V30 2268 C 210.946 -3.60418 0.114434 0
M  V30 2269 O 210.05 -4.01981 -0.921137 0
M  V30 2270 H 209.391 -0.656669 0.0983994 0
M  V30 2271 H 211.921 -1.83447 0.906006 0
M  V30 2272 H 211.931 -4.07946 -0.0663394 0
M  V30 2273 H 210.606 -4.01519 1.08422 0
M  V30 2274 H 209.183 -3.66029 -0.71253 0
M  V30 2275 N 211.368 -0.403325 -1.52352 0
M  V30 2276 C 212.645 0.232611 -1.94212 0
M  V30 2277 C 213.025 1.63133 -1.33981 0
M  V30 2278 O 212.373 2.22659 -0.513344 0
M  V30 2279 C 212.583 0.244811 -3.4814 0
M  V30 2280 C 213.931 0.46698 -4.22024 0
M  V30 2281 O 214.955 0.324419 -3.5472 0
M  V30 2282 O 213.814 0.74747 -5.41364 0
M  V30 2283 H 210.908 0.148223 -0.813609 0
M  V30 2284 H 213.454 -0.458848 -1.63379 0
M  V30 2285 H 212.226 -0.734378 -3.84347 0
M  V30 2286 H 211.849 0.980611 -3.85318 0
M  V30 2287 N 212.846 1.57033 -0.133567 0
M  V30 2288 C 213.776 2.1909 0.807567 0
M  V30 2289 C 214.757 1.13517 1.26681 0
M  V30 2290 O 215.942 1.41809 1.32679 0
M  V30 2291 C 213.072 2.80188 2.05212 0
M  V30 2292 C 212.026 3.91471 1.73015 0
M  V30 2293 C 211.352 4.39443 3.04622 0
M  V30 2294 C 212.652 5.12886 0.987168 0
M  V30 2295 H 214.346 2.97988 0.290403 0
M  V30 2296 H 211.892 1.43335 0.138239 0
M  V30 2297 H 213.845 3.22264 2.71521 0
M  V30 2298 H 212.569 1.98601 2.59278 0
M  V30 2299 H 211.228 3.49993 1.0909 0
M  V30 2300 H 210.876 3.54695 3.56651 0
M  V30 2301 H 210.576 5.14495 2.83847 0
M  V30 2302 H 212.1 4.8418 3.72024 0
M  V30 2303 H 213.514 5.51891 1.55208 0
M  V30 2304 H 211.911 5.93615 0.87985 0
M  V30 2305 H 212.981 4.84894 -0.0235286 0
M  V30 2306 N 214.325 -0.140222 1.56975 0
M  V30 2307 C 215.275 -1.17827 1.95194 0
M  V30 2308 C 216.259 -1.38195 0.824075 0
M  V30 2309 O 217.451 -1.39643 1.0876 0
M  V30 2310 C 214.58 -2.51024 2.34184 0
M  V30 2311 C 213.666 -2.3422 3.53556 0
M  V30 2312 N 214.057 -1.87185 4.69889 0
M  V30 2313 C 212.355 -2.64949 3.58773 0
M  V30 2314 C 213.056 -1.83586 5.5197 0
M  V30 2315 N 212.032 -2.2715 4.93866 0
M  V30 2316 H 215.834 -0.806817 2.82609 0
M  V30 2317 H 213.348 -0.348208 1.58623 0
M  V30 2318 H 215.345 -3.26074 2.59772 0
M  V30 2319 H 214.005 -2.88945 1.48124 0
M  V30 2320 H 215.016 -1.57048 4.93514 0
M  V30 2321 H 211.693 -3.067 2.8327 0
M  V30 2322 H 213.083 -1.48655 6.55249 0
M  V30 2323 N 215.803 -1.52179 -0.40978 0
M  V30 2324 C 217.051 -1.65878 -1.15451 0
M  V30 2325 C 217.372 -0.390771 -1.91044 0
M  V30 2326 O 216.642 0.594323 -1.86667 0
M  V30 2327 H 215.222 -0.611405 -0.429177 0
M  V30 2328 H 217.884 -1.89219 -0.467134 0
M  V30 2329 H 216.98 -2.49954 -1.86894 0
M  V30 2330 N 217.281 0.66697 -1.42791 0
M  V30 2331 C 218.191 1.80962 -1.49299 0
M  V30 2332 C 219.207 1.69775 -0.381108 0
M  V30 2333 O 220.383 1.91188 -0.633188 0
M  V30 2334 C 217.448 3.17156 -1.40045 0
M  V30 2335 C 216.509 3.40242 -2.6179 0
M  V30 2336 C 215.742 4.69939 -2.52969 0
M  V30 2337 O 215.965 5.48372 -1.56985 0
M  V30 2338 O 214.899 4.94441 -3.43237 0
M  V30 2339 H 218.725 1.78427 -2.45759 0
M  V30 2340 H 216.31 0.823713 -1.24641 0
M  V30 2341 H 218.192 3.98413 -1.37276 0
M  V30 2342 H 216.867 3.20312 -0.467138 0
M  V30 2343 H 215.774 2.58802 -2.70134 0
M  V30 2344 H 217.107 3.41923 -3.54047 0
M  V30 2345 N 218.759 1.29093 0.90403 0
M  V30 2346 C 220.036 1.075 1.63411 0
M  V30 2347 C 220.416 -0.382346 2.07609 0
M  V30 2348 O 219.764 -1.37031 1.82851 0
M  V30 2349 C 219.974 2.05858 2.81822 0
M  V30 2350 C 221.322 2.36539 3.52611 0
M  V30 2351 O 222.346 2.04019 2.91984 0
M  V30 2352 O 221.205 2.92085 4.61897 0
M  V30 2353 H 218.299 0.411547 0.717327 0
M  V30 2354 H 220.845 1.40449 0.952479 0
M  V30 2355 H 219.617 3.04037 2.46327 0
M  V30 2356 H 219.24 1.73613 3.57693 0
M  V30 2357 N 220.237 -1.11381 1.11499 0
M  V30 2358 C 221.17 -2.16621 0.71769 0
M  V30 2359 C 222.148 -1.60058 -0.286413 0
M  V30 2360 O 223.332 -1.87613 -0.182689 0
M  V30 2361 C 220.459 -3.38646 0.0607265 0
M  V30 2362 C 219.505 -4.13874 1.03008 0
M  V30 2363 S 220.338 -4.70731 2.55289 0
M  V30 2364 C 221.494 -5.96079 1.90895 0
M  V30 2365 H 221.727 -2.49987 1.60915 0
M  V30 2366 H 219.26 -1.23015 0.933092 0
M  V30 2367 H 221.218 -4.09313 -0.311965 0
M  V30 2368 H 219.879 -3.03537 -0.807702 0
M  V30 2369 H 219.072 -5.01333 0.517853 0
M  V30 2370 H 218.674 -3.4897 1.34522 0
M  V30 2371 H 220.966 -6.65948 1.24577 0
M  V30 2372 H 221.909 -6.51946 2.76354 0
M  V30 2373 H 222.317 -5.47652 1.36885 0
M  V30 2374 N 221.715 -0.905404 -1.28997 0
M  V30 2375 C 222.964 -0.530191 -1.94607 0
M  V30 2376 C 223.277 0.929185 -1.72121 0
M  V30 2377 O 224.483 1.41218 -2.31883 0
M  V30 2378 C 222.939 -0.897333 -3.48534 0
M  V30 2379 C 222.547 -2.37587 -3.79811 0
M  V30 2380 C 224.291 -0.592304 -4.20347 0
M  V30 2381 C 222.198 -2.68357 -5.27009 0
M  V30 2382 H 221.128 -0.194558 -0.728466 0
M  V30 2383 H 223.779 -1.10318 -1.46636 0
M  V30 2384 H 222.161 -0.253214 -3.9519 0
M  V30 2385 H 223.335 -3.06602 -3.43994 0
M  V30 2386 H 221.65 -2.6505 -3.2115 0
M  V30 2387 H 224.247 -0.798975 -5.28697 0
M  V30 2388 H 224.59 0.469474 -4.13644 0
M  V30 2389 H 225.123 -1.19452 -3.79442 0
M  V30 2390 H 221.862 -3.73355 -5.38782 0
M  V30 2391 H 221.382 -2.03971 -5.64053 0
M  V30 2392 H 223.061 -2.54922 -5.94663 0
M  V30 2393 N 223.193 1.4272 -0.668489 0
M  V30 2394 C 224.439 2.01923 -0.188419 0
M  V30 2395 C 224.772 1.52704 1.19979 0
M  V30 2396 O 224.047 0.726566 1.8042 0
M  V30 2397 C 224.33 3.59451 -0.216085 0
M  V30 2398 C 224.183 4.18864 -1.6393 0
M  V30 2399 C 225.502 4.37903 0.439179 0
M  V30 2400 H 222.621 0.733674 -0.0699412 0
M  V30 2401 H 225.263 1.69822 -0.852076 0
M  V30 2402 H 223.413 3.86929 0.349012 0
M  V30 2403 H 225.085 4.02362 -2.25616 0
M  V30 2404 H 223.328 3.74933 -2.18193 0
M  V30 2405 H 223.999 5.27987 -1.61039 0
M  V30 2406 H 226.475 4.16079 -0.0417878 0
M  V30 2407 H 225.351 5.47519 0.389157 0
M  V30 2408 H 225.612 4.15303 1.51577 0
M  V30 2409 N 224.671 0.411399 1.52136 0
M  V30 2410 C 225.899 -0.163076 2.06256 0
M  V30 2411 C 226.314 -1.3867 1.28125 0
M  V30 2412 O 225.671 -1.79423 0.333721 0
M  V30 2413 C 225.722 -0.511252 3.57867 0
M  V30 2414 O 225.443 0.66378 4.33042 0
M  V30 2415 C 226.944 -1.13921 4.28412 0
M  V30 2416 H 224.164 -0.0193897 0.67072 0
M  V30 2417 H 226.708 0.583007 1.96013 0
M  V30 2418 H 224.863 -1.20723 3.6811 0
M  V30 2419 H 225.277 0.372601 5.23175 0
M  V30 2420 H 226.751 -1.33302 5.35663 0
M  V30 2421 H 227.228 -2.11296 3.85033 0
M  V30 2422 H 227.834 -0.483373 4.22544 0
M  V30 2423 N 226.149 -1.5696 0.141893 0
M  V30 2424 C 227.56 -1.82797 -0.379776 0
M  V30 2425 C 227.911 -1.06033 -1.6508 0
M  V30 2426 O 227.036 -0.304011 -2.14254 0
M  V30 2427 C 227.631 -3.31578 -0.695802 0
M  V30 2428 C 226.19 -3.58014 -1.16201 0
M  V30 2429 C 225.337 -2.76699 -0.182455 0
M  V30 2430 H 228.288 -1.54406 0.366675 0
M  V30 2431 H 228.309 -3.47454 -1.55099 0
M  V30 2432 H 227.821 -3.87421 0.229449 0
M  V30 2433 H 225.922 -3.07553 -2.10338 0
M  V30 2434 H 226.035 -4.66501 -1.09151 0
M  V30 2435 H 224.399 -2.45618 -0.674072 0
M  V30 2436 H 225.182 -3.35311 0.736297 0
M  V30 2437 N 227.627 0.131896 -1.57047 0
M  V30 2438 C 228.874 0.841932 -1.84168 0
M  V30 2439 C 229.202 1.8048 -0.725066 0
M  V30 2440 O 228.457 1.93618 0.284692 0
M  V30 2441 C 228.756 1.63703 -3.17704 0
M  V30 2442 C 228.422 0.81961 -4.43388 0
M  V30 2443 C 227.084 0.594148 -4.77518 0
M  V30 2444 C 229.436 0.248977 -5.20605 0
M  V30 2445 C 226.764 -0.212409 -5.86315 0
M  V30 2446 C 229.116 -0.544701 -6.30251 0
M  V30 2447 C 227.78 -0.780599 -6.6292 0
M  V30 2448 H 227.05 0.308085 -0.673917 0
M  V30 2449 H 229.697 0.104867 -1.91213 0
M  V30 2450 H 228.002 2.44464 -3.06177 0
M  V30 2451 H 229.699 2.19015 -3.35907 0
M  V30 2452 H 226.289 1.00542 -4.16641 0
M  V30 2453 H 230.473 0.410408 -4.946 0
M  V30 2454 H 225.729 -0.404524 -6.1006 0
M  V30 2455 H 229.903 -0.993922 -6.89271 0
M  V30 2456 H 227.53 -1.40742 -7.47058 0
M  V30 2457 N 229.106 1.52395 0.401703 0
M  V30 2458 C 230.069 1.75636 1.47257 0
M  V30 2459 C 231.069 0.62628 1.48103 0
M  V30 2460 O 232.259 0.894227 1.49497 0
M  V30 2461 C 229.391 1.84553 2.86624 0
M  V30 2462 H 230.584 2.71241 1.27938 0
M  V30 2463 H 228.137 1.42923 0.632662 0
M  V30 2464 H 228.872 0.908882 3.11303 0
M  V30 2465 H 228.657 2.66715 2.87412 0
M  V30 2466 H 230.147 2.04251 3.64241 0
M  V30 2467 N 230.584 -0.659388 1.43143 0
M  V30 2468 C 231.516 -1.7849 1.43784 0
M  V30 2469 C 232.529 -1.5932 0.334787 0
M  V30 2470 O 233.718 -1.68155 0.598842 0
M  V30 2471 C 230.818 -3.15828 1.22906 0
M  V30 2472 C 229.991 -3.61711 2.45934 0
M  V30 2473 C 229.05 -4.77831 2.20371 0
M  V30 2474 O 228.076 -4.87586 2.93681 0
M  V30 2475 N 229.278 -5.67611 1.21647 0
M  V30 2476 H 232.043 -1.7842 2.40803 0
M  V30 2477 H 229.604 -0.84302 1.3822 0
M  V30 2478 H 231.596 -3.91189 1.03697 0
M  V30 2479 H 230.166 -3.10707 0.343542 0
M  V30 2480 H 229.386 -2.76861 2.80609 0
M  V30 2481 H 230.674 -3.89112 3.27825 0
M  V30 2482 H 230.072 -5.62397 0.610449 0
M  V30 2483 H 228.629 -6.42719 1.08423 0
M  V30 2484 N 232.062 -1.29571 -0.897171 0
M  V30 2485 C 233.308 -1.17863 -1.65034 0
M  V30 2486 C 233.641 0.268729 -1.92332 0
M  V30 2487 O 232.916 1.19378 -1.53555 0
M  V30 2488 C 233.199 -1.995 -2.99786 0
M  V30 2489 C 233.052 -3.5239 -2.79538 0
M  V30 2490 C 234.371 -1.82335 -4.00552 0
M  V30 2491 H 231.49 -0.429528 -0.598895 0
M  V30 2492 H 234.132 -1.59072 -1.03905 0
M  V30 2493 H 232.282 -1.64485 -3.51962 0
M  V30 2494 H 233.954 -3.97401 -2.34244 0
M  V30 2495 H 232.197 -3.77187 -2.14273 0
M  V30 2496 H 232.868 -4.04787 -3.75302 0
M  V30 2497 H 235.344 -2.12924 -3.57495 0
M  V30 2498 H 234.22 -2.41801 -4.92771 0
M  V30 2499 H 234.481 -0.779209 -4.35179 0
M  V30 2500 N 233.54 1.10788 -1.12088 0
M  V30 2501 C 234.47 2.19083 -0.807755 0
M  V30 2502 C 235.451 1.6858 0.226859 0
M  V30 2503 O 236.636 1.93997 0.0888475 0
M  V30 2504 C 233.766 3.46344 -0.257576 0
M  V30 2505 C 232.72 4.101 -1.22483 0
M  V30 2506 C 232.046 5.32016 -0.535052 0
M  V30 2507 C 233.346 4.54236 -2.57811 0
M  V30 2508 H 235.04 2.45534 -1.71328 0
M  V30 2509 H 232.586 1.1801 -0.825205 0
M  V30 2510 H 234.539 4.21392 -0.0262679 0
M  V30 2511 H 233.263 3.19373 0.683278 0
M  V30 2512 H 231.922 3.37054 -1.44189 0
M  V30 2513 H 231.57 5.01319 0.410827 0
M  V30 2514 H 231.27 5.75625 -1.18024 0
M  V30 2515 H 232.794 6.09799 -0.312695 0
M  V30 2516 H 234.208 5.20575 -2.40155 0
M  V30 2517 H 232.605 5.08682 -3.18375 0
M  V30 2518 H 233.675 3.6734 -3.16528 0
M  V30 2519 N 235.018 0.912232 1.28515 0
M  V30 2520 C 235.981 0.404223 2.25607 0
M  V30 2521 C 236.981 -0.468602 1.53821 0
M  V30 2522 O 238.171 -0.271873 1.72065 0
M  V30 2523 C 235.303 -0.420653 3.38295 0
M  V30 2524 H 236.496 1.26188 2.7206 0
M  V30 2525 H 234.049 0.691495 1.40171 0
M  V30 2526 H 234.784 -1.29777 2.97201 0
M  V30 2527 H 234.569 0.204935 3.91564 0
M  V30 2528 H 236.059 -0.766971 4.10496 0
M  V30 2529 N 236.496 -1.42363 0.676048 0
M  V30 2530 C 237.721 -2.06377 0.205705 0
M  V30 2531 C 238.146 -1.50463 -1.12883 0
M  V30 2532 O 237.504 -0.623619 -1.70237 0
M  V30 2533 C 237.552 -3.60277 0.152655 0
M  V30 2534 O 236.656 -4.02935 -0.87845 0
M  V30 2535 H 235.997 -0.655588 0.105359 0
M  V30 2536 H 238.527 -1.82475 0.925412 0
M  V30 2537 H 238.537 -4.07993 -0.0230675 0
M  V30 2538 H 237.212 -4.00346 1.12675 0
M  V30 2539 H 235.789 -3.66764 -0.673668 0
M  V30 2540 N 237.974 -0.419461 -1.51915 0
M  V30 2541 C 238.904 0.391813 -2.30189 0
M  V30 2542 C 239.885 1.03699 -1.34836 0
M  V30 2543 O 241.07 1.04403 -1.63748 0
M  V30 2544 C 238.2 1.50312 -3.13087 0
M  V30 2545 C 237.154 0.9824 -4.16573 0
M  V30 2546 C 236.48 2.18809 -4.8788 0
M  V30 2547 C 237.78 0.0292356 -5.22292 0
M  V30 2548 H 239.474 -0.26135 -2.98257 0
M  V30 2549 H 237.02 -0.127134 -1.43438 0
M  V30 2550 H 238.973 2.07773 -3.66617 0
M  V30 2551 H 237.697 2.18431 -2.42807 0
M  V30 2552 H 236.356 0.430119 -3.64068 0
M  V30 2553 H 236.004 2.85507 -4.14119 0
M  V30 2554 H 235.704 1.84615 -5.57845 0
M  V30 2555 H 237.228 2.76858 -5.44226 0
M  V30 2556 H 238.642 0.512976 -5.71 0
M  V30 2557 H 237.039 -0.2244 -5.9968 0
M  V30 2558 H 238.109 -0.912931 -4.76228 0
M  V30 2559 N 239.452 1.56882 -0.150215 0
M  V30 2560 C 240.868 1.58263 0.20617 0
M  V30 2561 C 241.068 1.16464 1.64434 0
M  V30 2562 O 240.124 0.866422 2.3717 0
M  V30 2563 C 241.437 3.00649 -0.0555025 0
M  V30 2564 C 242.985 3.12999 0.00795388 0
M  V30 2565 C 243.46 4.5744 -0.226429 0
M  V30 2566 N 244.951 4.62875 -0.173469 0
M  V30 2567 C 245.686 5.72454 -0.329288 0
M  V30 2568 N 245.182 6.90669 -0.543005 0
M  V30 2569 N 246.975 5.61467 -0.266666 0
M  V30 2570 H 239.126 1.82345 -1.08922 0
M  V30 2571 H 241.389 0.844149 -0.431413 0
M  V30 2572 H 241.095 3.3563 -1.05096 0
M  V30 2573 H 240.969 3.71337 0.66246 0
M  V30 2574 H 243.356 2.77857 0.993966 0
M  V30 2575 H 243.437 2.4479 -0.742388 0
M  V30 2576 H 243.081 4.93287 -1.20956 0
M  V30 2577 H 243.011 5.2378 0.544274 0
M  V30 2578 H 245.502 3.77898 -0.0130709 0
M  V30 2579 H 245.815 7.70045 -0.651922 0
M  V30 2580 H 244.16 6.92581 -0.579366 0
M  V30 2581 H 247.351 4.67992 -0.100441 0
M  V30 2582 H 247.524 6.46816 -0.391535 0
M  V30 2583 N 240.93 -0.123565 1.57115 0
M  V30 2584 C 242.158 -0.846461 1.88793 0
M  V30 2585 C 242.573 -1.73652 0.740976 0
M  V30 2586 O 241.93 -1.80207 -0.288393 0
M  V30 2587 C 241.981 -1.6837 3.19897 0
M  V30 2588 O 241.702 -0.829477 4.30176 0
M  V30 2589 C 243.203 -2.51214 3.65248 0
M  V30 2590 H 240.423 -0.243573 0.625231 0
M  V30 2591 H 242.967 -0.109324 2.04208 0
M  V30 2592 H 241.122 -2.37364 3.06165 0
M  V30 2593 H 241.536 -1.40651 5.0529 0
M  V30 2594 H 243.01 -3.05497 4.59756 0
M  V30 2595 H 243.487 -3.28359 2.9168 0
M  V30 2596 H 244.093 -1.8747 3.81752 0
M  V30 2597 N 242.408 -1.52605 -0.393616 0
M  V30 2598 C 243.654 -1.67672 -1.14079 0
M  V30 2599 C 243.987 -0.413121 -1.89755 0
M  V30 2600 O 243.262 0.588952 -1.85369 0
M  V30 2601 C 243.545 -2.9088 -2.12276 0
M  V30 2602 C 243.398 -4.27329 -1.40394 0
M  V30 2603 C 244.717 -3.09628 -3.12759 0
M  V30 2604 H 241.836 -0.610168 -0.413356 0
M  V30 2605 H 244.478 -1.85193 -0.424696 0
M  V30 2606 H 242.628 -2.76073 -2.73342 0
M  V30 2607 H 244.3 -4.53894 -0.82327 0
M  V30 2608 H 242.543 -4.2802 -0.705801 0
M  V30 2609 H 243.214 -5.09615 -2.12123 0
M  V30 2610 H 245.69 -3.23436 -2.61779 0
M  V30 2611 H 244.566 -3.97322 -3.78717 0
M  V30 2612 H 244.827 -2.23637 -3.81365 0
M  V30 2613 N 243.887 0.651787 -1.4349 0
M  V30 2614 C 245.303 0.96762 -1.26922 0
M  V30 2615 C 245.503 2.00602 -0.189982 0
M  V30 2616 O 244.559 2.48793 0.431107 0
M  V30 2617 C 245.872 1.45052 -2.63401 0
M  V30 2618 C 247.42 1.5671 -2.70945 0
M  V30 2619 C 247.895 2.0839 -4.07845 0
M  V30 2620 N 249.386 2.1569 -4.09917 0
M  V30 2621 C 250.121 2.56804 -5.12679 0
M  V30 2622 N 249.617 2.97203 -6.25813 0
M  V30 2623 N 251.41 2.56756 -5.00033 0
M  V30 2624 H 243.561 -0.0353158 -2.12371 0
M  V30 2625 H 245.824 0.0467858 -0.946845 0
M  V30 2626 H 245.53 0.761926 -3.43348 0
M  V30 2627 H 245.404 2.42529 -2.88894 0
M  V30 2628 H 247.791 2.2467 -1.9133 0
M  V30 2629 H 247.872 0.57662 -2.49216 0
M  V30 2630 H 247.516 1.41031 -4.87927 0
M  V30 2631 H 247.446 3.08271 -4.26938 0
M  V30 2632 H 249.937 1.87237 -3.28254 0
M  V30 2633 H 250.25 3.27328 -7.00055 0
M  V30 2634 H 248.595 2.95004 -6.29283 0
M  V30 2635 H 251.786 2.24572 -4.10713 0
M  V30 2636 H 251.959 2.88475 -5.80247 0
M  V30 2637 N 245.365 1.30045 0.890287 0
M  V30 2638 C 246.59 1.21598 1.68014 0
M  V30 2639 C 247.015 -0.218678 1.86825 0
M  V30 2640 O 246.373 -1.15756 1.39536 0
M  V30 2641 C 246.421 1.94434 3.03691 0
M  V30 2642 O 245.525 1.2678 3.92429 0
M  V30 2643 H 244.866 0.420856 0.513592 0
M  V30 2644 H 247.396 1.71775 1.11151 0
M  V30 2645 H 247.406 2.03251 3.5377 0
M  V30 2646 H 246.081 2.98777 2.89318 0
M  V30 2647 H 244.658 1.26282 3.50866 0
M  V30 2648 N 246.843 -1.10192 1.12674 0
M  V30 2649 C 247.791 -2.18694 0.792196 0
M  V30 2650 C 248.785 -1.67938 -0.222058 0
M  V30 2651 O 249.991 -1.79822 -0.0800074 0
M  V30 2652 H 246.366 -0.713223 0.238364 0
M  V30 2653 H 248.337 -2.44149 1.71564 0
M  V30 2654 C 247.086 -3.46682 0.265859 0
M  V30 2655 H 246.409 -3.86101 1.03761 0
M  V30 2656 H 247.849 -4.23942 0.0701128 0
M  V30 2657 C 246.308 -3.21506 -1.00675 0
M  V30 2658 O 246.838 -3.43408 -2.08408 0
M  V30 2659 N 245.044 -2.75158 -0.934692 0
M  V30 2660 H 244.591 -2.57535 -0.0578604 0
M  V30 2661 H 244.549 -2.58691 -1.7868 0
M  V30 2662 N 248.321 -0.919034 -1.28029 0
M  V30 2663 C 249.567 -0.555757 -1.95036 0
M  V30 2664 C 249.9 0.899198 -1.72128 0
M  V30 2665 O 249.175 1.64023 -1.04531 0
M  V30 2666 C 249.458 -0.872024 -3.49382 0
M  V30 2667 C 249.311 -2.3801 -3.81669 0
M  V30 2668 C 250.63 -0.37185 -4.38526 0
M  V30 2669 H 247.749 -0.203386 -0.708381 0
M  V30 2670 H 250.391 -1.14924 -1.51303 0
M  V30 2671 H 248.541 -0.366946 -3.86763 0
M  V30 2672 H 250.213 -2.9562 -3.54128 0
M  V30 2673 H 248.456 -2.83289 -3.28526 0
M  V30 2674 H 249.127 -2.55192 -4.8947 0
M  V30 2675 H 251.603 -0.804602 -4.08247 0
M  V30 2676 H 250.479 -0.622173 -5.45362 0
M  V30 2677 H 250.74 0.727934 -4.36066 0
M  V30 2678 N 249.799 1.42003 -0.683588 0
M  V30 2679 C 250.762 2.29191 -0.0198243 0
M  V30 2680 C 251.762 1.43773 0.72013 0
M  V30 2681 O 252.952 1.65061 0.556815 0
M  V30 2682 C 250.084 3.26435 0.982487 0
M  V30 2683 H 251.277 2.8938 -0.787345 0
M  V30 2684 H 248.83 1.49789 -0.446418 0
M  V30 2685 H 249.565 2.71203 1.77819 0
M  V30 2686 H 249.35 3.89449 0.455182 0
M  V30 2687 H 250.84 3.918 1.44508 0
M  V30 2688 N 251.277 0.427512 1.51691 0
M  V30 2689 C 252.24 -0.377132 2.26076 0
M  V30 2690 C 253.24 -0.958089 1.29141 0
M  V30 2691 O 254.43 -0.83408 1.52934 0
M  V30 2692 C 251.562 -1.53262 3.04506 0
M  V30 2693 H 252.755 0.27464 2.9864 0
M  V30 2694 H 250.308 0.180445 1.55255 0
M  V30 2695 H 251.043 -2.22072 2.36335 0
M  V30 2696 H 250.828 -1.12232 3.75694 0
M  V30 2697 H 252.318 -2.10135 3.60878 0
M  V30 2698 N 252.755 -1.56801 0.158532 0
M  V30 2699 C 253.685 -2.20347 -0.772609 0
M  V30 2700 C 254.666 -1.15518 -1.24859 0
M  V30 2701 O 255.851 -1.43902 -1.30406 0
M  V30 2702 C 252.981 -2.83417 -2.00729 0
M  V30 2703 C 251.935 -3.94174 -1.66765 0
M  V30 2704 C 251.261 -4.44233 -2.97592 0
M  V30 2705 C 252.561 -5.14392 -0.905447 0
M  V30 2706 H 254.255 -2.98413 -0.242959 0
M  V30 2707 H 251.801 -1.43537 -0.115419 0
M  V30 2708 H 253.754 -3.26543 -2.6636 0
M  V30 2709 H 252.478 -2.02701 -2.56086 0
M  V30 2710 H 251.137 -3.51684 -1.03508 0
M  V30 2711 H 250.785 -3.60325 -3.50963 0
M  V30 2712 H 250.485 -5.18945 -2.75626 0
M  V30 2713 H 252.009 -4.90037 -3.64274 0
M  V30 2714 H 253.423 -5.5429 -1.46408 0
M  V30 2715 H 251.82 -5.9494 -0.7853 0
M  V30 2716 H 252.89 -4.84795 0.100668 0
M  V30 2717 N 254.233 0.115231 -1.57178 0
M  V30 2718 C 255.196 1.12526 -1.99676 0
M  V30 2719 C 256.196 1.34095 -0.88742 0
M  V30 2720 O 257.386 1.30548 -1.15337 0
M  V30 2721 C 254.518 2.4789 -2.34015 0
M  V30 2722 H 255.711 0.759912 -2.90113 0
M  V30 2723 H 253.264 0.359648 -1.52106 0
M  V30 2724 H 253.999 2.89339 -1.4647 0
M  V30 2725 H 253.784 2.33588 -3.14927 0
M  V30 2726 H 255.274 3.20575 -2.67622 0
M  V30 2727 N 255.711 1.52812 0.385517 0
M  V30 2728 C 257.127 1.4214 0.725829 0
M  V30 2729 C 257.327 0.544589 1.94001 0
M  V30 2730 O 256.383 0.0193693 2.52493 0
M  V30 2731 C 257.696 2.85042 0.957668 0
M  V30 2732 C 259.244 2.94543 1.05892 0
M  V30 2733 C 259.719 4.38464 1.32337 0
M  V30 2734 N 261.21 4.41804 1.39151 0
M  V30 2735 C 261.945 5.5025 1.61285 0
M  V30 2736 N 261.441 6.68775 1.80866 0
M  V30 2737 N 263.234 5.37798 1.63492 0
M  V30 2738 H 255.385 2.08338 -0.413383 0
M  V30 2739 H 257.648 0.940016 -0.122775 0
M  V30 2740 H 257.354 3.51431 0.137568 0
M  V30 2741 H 257.228 3.27505 1.87137 0
M  V30 2742 H 259.615 2.28321 1.86959 0
M  V30 2743 H 259.696 2.55504 0.123057 0
M  V30 2744 H 259.34 5.05254 0.517793 0
M  V30 2745 H 259.27 4.75059 2.27214 0
M  V30 2746 H 261.761 3.56377 1.25713 0
M  V30 2747 H 262.074 7.47197 1.97271 0
M  V30 2748 H 260.419 6.71797 1.78083 0
M  V30 2749 H 263.61 4.44171 1.47749 0
M  V30 2750 H 263.783 6.22382 1.80402 0
M  V30 2751 N 257.189 -0.644168 1.43834 0
M  V30 2752 C 258.121 -1.76955 1.45669 0
M  V30 2753 C 259.134 -1.58956 0.351666 0
M  V30 2754 O 260.323 -1.6751 0.616644 0
M  V30 2755 C 257.423 -3.14507 1.26248 0
M  V30 2756 C 256.596 -3.59083 2.49757 0
M  V30 2757 C 255.655 -4.75467 2.25427 0
M  V30 2758 O 254.681 -4.84444 2.98836 0
M  V30 2759 N 255.883 -5.66289 1.27661 0
M  V30 2760 H 258.648 -1.75856 2.42682 0
M  V30 2761 H 256.209 -0.828312 1.39106 0
M  V30 2762 H 258.201 -3.90067 1.0784 0
M  V30 2763 H 256.771 -3.10325 0.376478 0
M  V30 2764 H 255.991 -2.7387 2.8353 0
M  V30 2765 H 257.279 -3.85613 3.31934 0
M  V30 2766 H 256.677 -5.61718 0.670064 0
M  V30 2767 H 255.234 -6.41533 1.15234 0
M  V30 2768 N 258.668 -1.30515 -0.883378 0
M  V30 2769 C 259.6 -1.12846 -1.99496 0
M  V30 2770 C 260.613 -0.0712571 -1.62644 0
M  V30 2771 O 261.802 -0.317432 -1.75655 0
M  V30 2772 C 258.902 -0.699123 -3.3161 0
M  V30 2773 C 258.075 -1.83842 -3.96889 0
M  V30 2774 C 257.134 -1.39737 -5.07307 0
M  V30 2775 O 256.16 -2.10485 -5.28852 0
M  V30 2776 N 257.362 -0.277279 -5.79837 0
M  V30 2777 H 260.127 -2.08585 -2.15203 0
M  V30 2778 H 257.688 -1.22672 -1.05656 0
M  V30 2779 H 259.68 -0.387044 -4.02845 0
M  V30 2780 H 258.25 0.166276 -3.12157 0
M  V30 2781 H 257.47 -2.31853 -3.18807 0
M  V30 2782 H 258.758 -2.60187 -4.37241 0
M  V30 2783 H 258.156 0.3122 -5.64838 0
M  V30 2784 H 256.713 -0.0246623 -6.51795 0
M  V30 2785 N 260.146 1.09593 -1.13257 0
M  V30 2786 C 261.386 1.83349 -0.903472 0
M  V30 2787 C 261.75 1.83641 0.560351 0
M  V30 2788 O 262.951 2.53037 0.906947 0
M  V30 2789 C 261.222 3.25629 -1.47311 0
M  V30 2790 S 262.781 4.16408 -1.38382 0
M  V30 2791 H 259.599 0.632014 -0.325699 0
M  V30 2792 H 262.201 1.31817 -1.44376 0
M  V30 2793 H 260.905 3.22991 -2.53189 0
M  V30 2794 H 260.436 3.82233 -0.930689 0
M  V30 2795 H 262.451 4.94884 -0.361113 0
M  V30 2796 N 261.624 0.925811 1.2754 0
M  V30 2797 C 262.554 0.440748 2.29303 0
M  V30 2798 C 263.535 -0.497971 1.62648 0
M  V30 2799 O 264.72 -0.403126 1.8997 0
M  V30 2800 C 261.85 -0.309048 3.45922 0
M  V30 2801 C 260.804 0.54166 4.24559 0
M  V30 2802 C 260.13 -0.337191 5.33636 0
M  V30 2803 C 261.43 1.80516 4.90114 0
M  V30 2804 H 263.124 1.29121 2.70126 0
M  V30 2805 H 260.67 0.622323 1.29858 0
M  V30 2806 H 262.623 -0.659315 4.1621 0
M  V30 2807 H 261.347 -1.19352 3.04011 0
M  V30 2808 H 260.006 0.874609 3.56014 0
M  V30 2809 H 259.654 -1.22056 4.87966 0
M  V30 2810 H 259.354 0.228497 5.87156 0
M  V30 2811 H 260.878 -0.683072 6.06767 0
M  V30 2812 H 262.292 1.52307 5.52698 0
M  V30 2813 H 260.689 2.3142 5.53683 0
M  V30 2814 H 261.759 2.52581 4.13921 0
M  V30 2815 N 263.102 -1.41638 0.69111 0
M  V30 2816 C 264.35 -2.00902 0.219758 0
M  V30 2817 C 264.671 -1.54994 -1.18329 0
M  V30 2818 O 263.941 -0.778628 -1.79762 0
M  V30 2819 H 262.521 -0.74289 0.0782558 0
M  V30 2820 H 265.183 -1.73327 0.891271 0
M  V30 2821 H 264.279 -3.11224 0.233708 0
M  V30 2822 N 264.58 -0.43555 -1.51462 0
M  V30 2823 C 265.543 0.365137 -2.26273 0
M  V30 2824 C 266.543 0.951227 -1.29647 0
M  V30 2825 O 267.733 0.825958 -1.53374 0
M  V30 2826 C 264.865 1.51645 -3.05314 0
M  V30 2827 H 266.058 -0.290474 -2.9849 0
M  V30 2828 H 263.611 -0.188676 -1.55157 0
M  V30 2829 H 264.346 2.20816 -2.3751 0
M  V30 2830 H 264.131 1.10238 -3.76284 0
M  V30 2831 H 265.621 2.08218 -3.61987 0
M  V30 2832 N 266.058 1.56714 -0.166846 0
M  V30 2833 C 267.021 2.16539 0.751232 0
M  V30 2834 C 268.021 1.11228 1.16125 0
M  V30 2835 O 269.211 1.36765 1.07894 0
M  V30 2836 C 266.343 2.74462 2.02196 0
M  V30 2837 H 267.536 2.99013 0.230499 0
M  V30 2838 H 265.089 1.56081 0.0826982 0
M  V30 2839 H 265.824 1.95709 2.58589 0
M  V30 2840 H 265.609 3.51527 1.73698 0
M  V30 2841 H 267.099 3.20489 2.67725 0
M  V30 2842 N 267.536 -0.106894 1.57237 0
M  V30 2843 C 268.483 -1.13049 2.01217 0
M  V30 2844 C 269.453 -1.40471 0.886403 0
M  V30 2845 O 270.638 -1.52133 1.15153 0
M  V30 2846 C 267.778 -2.4487 2.43172 0
M  V30 2847 C 266.891 -2.24281 3.69218 0
M  V30 2848 C 266.026 -3.49417 4.00101 0
M  V30 2849 C 265.065 -3.24038 5.19294 0
M  V30 2850 N 264.202 -4.41409 5.45988 0
M  V30 2851 H 269.042 -0.748456 2.88448 0
M  V30 2852 H 266.579 -0.358054 1.42676 0
M  V30 2853 H 268.537 -3.21786 2.65537 0
M  V30 2854 H 267.167 -2.80944 1.58967 0
M  V30 2855 H 266.219 -1.38224 3.54398 0
M  V30 2856 H 267.531 -2.01512 4.56283 0
M  V30 2857 H 266.685 -4.34746 4.2318 0
M  V30 2858 H 265.424 -3.75229 3.11535 0
M  V30 2859 H 264.429 -2.37102 4.96047 0
M  V30 2860 H 265.654 -2.99584 6.09447 0
M  V30 2861 H 263.6 -4.67319 4.60379 0
M  V30 2862 H 263.517 -4.21788 6.274 0
M  V30 2863 H 264.785 -5.27836 5.73593 0
M  V30 2864 N 269.014 -1.53014 -0.377408 0
M  V30 2865 C 269.946 -1.74884 -1.48149 0
M  V30 2866 C 270.959 -0.629433 -1.5014 0
M  V30 2867 O 272.148 -0.905416 -1.53833 0
M  V30 2868 C 269.248 -1.80299 -2.86959 0
M  V30 2869 C 268.421 -3.09776 -3.08801 0
M  V30 2870 C 267.48 -3.06586 -4.27658 0
M  V30 2871 O 266.506 -3.80419 -4.23403 0
M  V30 2872 N 267.708 -2.26578 -5.34455 0
M  V30 2873 H 270.473 -2.70147 -1.29771 0
M  V30 2874 H 268.034 -1.51646 -0.56703 0
M  V30 2875 H 270.026 -1.75657 -3.64591 0
M  V30 2876 H 268.596 -0.92372 -2.98641 0
M  V30 2877 H 267.816 -3.27815 -2.18931 0
M  V30 2878 H 269.104 -3.95366 -3.20255 0
M  V30 2879 H 268.502 -1.66081 -5.40771 0
M  V30 2880 H 267.059 -2.27766 -6.10709 0
M  V30 2881 N 270.492 0.636531 -1.44174 0
M  V30 2882 C 271.74 1.39343 -1.46383 0
M  V30 2883 C 272.061 1.94766 -0.0955715 0
M  V30 2884 O 271.331 1.75452 0.871395 0
M  V30 2885 H 269.911 0.517199 -0.538994 0
M  V30 2886 H 272.573 0.74957 -1.7991 0
M  V30 2887 H 271.669 2.22746 -2.18611 0
M  V30 2888 N 271.97 1.30982 0.876444 0
M  V30 2889 C 273.381 1.18277 1.44456 0
M  V30 2890 C 273.732 -0.213265 1.95037 0
M  V30 2891 O 272.857 -1.11057 1.85729 0
M  V30 2892 C 273.452 2.1411 2.62569 0
M  V30 2893 C 272.011 2.05358 3.15444 0
M  V30 2894 C 271.158 2.03706 1.88146 0
M  V30 2895 H 274.109 1.43127 0.685584 0
M  V30 2896 H 274.13 1.72692 3.39054 0
M  V30 2897 H 273.642 3.15706 2.25724 0
M  V30 2898 H 271.743 1.06934 3.56926 0
M  V30 2899 H 271.856 2.94156 3.78166 0
M  V30 2900 H 270.22 1.48629 2.06837 0
M  V30 2901 H 271.003 3.07047 1.53547 0
M  V30 2902 N 273.449 -1.08991 1.13837 0
M  V30 2903 C 274.695 -1.81526 0.90422 0
M  V30 2904 C 275.028 -1.85706 -0.568066 0
M  V30 2905 O 274.303 -1.32855 -1.42056 0
M  V30 2906 C 274.586 -3.27447 1.49835 0
M  V30 2907 C 274.439 -3.31512 3.04006 0
M  V30 2908 C 275.758 -4.24256 1.17025 0
M  V30 2909 H 272.877 -0.659029 0.329923 0
M  V30 2910 H 275.519 -1.27644 1.40737 0
M  V30 2911 H 273.669 -3.73462 1.07044 0
M  V30 2912 H 275.341 -2.93867 3.55584 0
M  V30 2913 H 273.584 -2.70963 3.38765 0
M  V30 2914 H 274.255 -4.34329 3.40679 0
M  V30 2915 H 276.731 -3.86549 1.54009 0
M  V30 2916 H 275.607 -5.24684 1.61237 0
M  V30 2917 H 275.868 -4.42019 0.0846274 0
M  V30 2918 N 274.927 -0.932562 -1.27047 0
M  V30 2919 C 276.175 -0.574422 -1.93765 0
M  V30 2920 C 276.496 0.887993 -1.73608 0
M  V30 2921 O 275.766 1.62999 -1.08665 0
M  V30 2922 H 274.346 -0.209451 -0.717035 0
M  V30 2923 H 277.008 -1.18601 -1.5466 0
M  V30 2924 H 276.104 -0.784841 -3.02071 0
M  V30 2925 N 276.405 1.4127 -0.698611 0
M  V30 2926 C 277.353 2.32588 -0.023855 0
M  V30 2927 C 278.347 1.51128 0.765292 0
M  V30 2928 O 279.553 1.67043 0.670571 0
M  V30 2929 H 275.928 0.751918 0.0110871 0
M  V30 2930 H 277.899 2.87167 -0.811031 0
M  V30 2931 C 276.648 3.35947 0.896369 0
M  V30 2932 H 275.971 3.98684 0.298548 0
M  V30 2933 H 277.411 4.02376 1.33676 0
M  V30 2934 C 275.87 2.70076 2.01396 0
M  V30 2935 O 276.4 2.55093 3.10307 0
M  V30 2936 N 274.606 2.28724 1.79259 0
M  V30 2937 H 274.153 2.4111 0.906841 0
M  V30 2938 H 274.111 1.84986 2.54219 0
M  V30 2939 N 277.883 0.443576 1.51229 0
M  V30 2940 C 279.294 -0.0180867 1.86691 0
M  V30 2941 C 279.645 -1.41384 1.36033 0
M  V30 2942 O 278.77 -2.04291 0.713722 0
M  V30 2943 C 279.365 -0.039597 3.38777 0
M  V30 2944 C 277.924 -0.445692 3.73752 0
M  V30 2945 C 277.071 0.357584 2.74985 0
M  V30 2946 H 280.022 0.659138 1.44364 0
M  V30 2947 H 280.043 -0.847761 3.70936 0
M  V30 2948 H 279.555 0.976382 3.75617 0
M  V30 2949 H 277.656 -1.46704 3.42503 0
M  V30 2950 H 277.769 -0.166155 4.78812 0
M  V30 2951 H 276.133 -0.184973 2.54027 0
M  V30 2952 H 276.916 1.37256 3.14668 0
M  V30 2953 N 279.361 -1.56624 0.175154 0
M  V30 2954 C 280.586 -2.01813 -0.478137 0
M  V30 2955 C 281.011 -1.05457 -1.55757 0
M  V30 2956 O 280.369 -0.0347439 -1.81267 0
M  V30 2957 C 280.417 -3.45581 -1.02987 0
M  V30 2958 O 279.521 -3.52305 -2.14371 0
M  V30 2959 H 278.862 -0.65413 -0.114059 0
M  V30 2960 H 281.392 -2.02673 0.280173 0
M  V30 2961 H 281.402 -3.84965 -1.35151 0
M  V30 2962 H 280.077 -4.1521 -0.239556 0
M  V30 2963 H 278.654 -3.24783 -1.83222 0
M  V30 2964 N 280.839 0.0985539 -1.57292 0
M  V30 2965 C 282.064 0.820196 -1.90493 0
M  V30 2966 C 282.489 1.71658 -0.769094 0
M  V30 2967 O 281.847 1.79133 0.279495 0
M  V30 2968 C 281.895 1.61242 -3.22542 0
M  V30 2969 O 280.999 2.72108 -3.09888 0
M  V30 2970 H 280.34 0.225547 -0.62452 0
M  V30 2971 H 282.87 0.0748159 -2.04463 0
M  V30 2972 H 282.88 1.99737 -3.55766 0
M  V30 2973 H 281.555 0.954535 -4.04798 0
M  V30 2974 H 280.132 2.36667 -2.88172 0
M  V30 2975 N 282.317 1.53212 0.369288 0
M  V30 2976 C 283.542 1.73423 1.1375 0
M  V30 2977 C 283.967 0.460404 1.82378 0
M  V30 2978 O 283.325 -0.585298 1.71592 0
M  V30 2979 C 283.373 2.89769 2.1463 0
M  V30 2980 O 282.477 2.58119 3.21634 0
M  V30 2981 H 281.818 0.576061 0.330227 0
M  V30 2982 H 284.348 2.00083 0.427547 0
M  V30 2983 H 284.358 3.15829 2.58294 0
M  V30 2984 H 283.033 3.8217 1.64071 0
M  V30 2985 H 281.61 2.42864 2.82969 0
M  V30 2986 N 283.795 -0.628877 1.44509 0
M  V30 2987 C 284.743 -1.76193 1.51852 0
M  V30 2988 C 285.737 -1.64849 0.390042 0
M  V30 2989 O 286.943 -1.709 0.565082 0
M  V30 2990 H 283.318 -0.581728 0.476547 0
M  V30 2991 H 285.289 -1.67123 2.47209 0
M  V30 2992 C 284.038 -3.14533 1.48204 0
M  V30 2993 H 283.361 -3.23911 2.34354 0
M  V30 2994 H 284.801 -3.93701 1.57402 0
M  V30 2995 C 283.26 -3.36287 0.203142 0
M  V30 2996 O 283.79 -3.9509 -0.725745 0
M  V30 2997 N 281.996 -2.90408 0.105563 0
M  V30 2998 H 281.543 -2.42739 0.862301 0
M  V30 2999 H 281.501 -3.05339 -0.749371 0
M  V30 3000 N 285.273 -1.31445 -0.869486 0
M  V30 3001 C 286.205 -1.14955 -1.98287 0
M  V30 3002 C 287.218 -0.0885037 -1.62559 0
M  V30 3003 O 288.407 -0.336044 -1.75308 0
M  V30 3004 C 285.507 -0.734255 -3.3085 0
M  V30 3005 C 284.68 -1.88042 -3.94917 0
M  V30 3006 C 283.739 -1.4511 -5.05796 0
M  V30 3007 O 282.765 -2.16082 -5.2659 0
M  V30 3008 N 283.967 -0.338763 -5.79511 0
M  V30 3009 H 286.732 -2.10856 -2.12979 0
M  V30 3010 H 284.293 -1.23786 -1.04349 0
M  V30 3011 H 286.285 -0.42975 -4.02412 0
M  V30 3012 H 284.855 0.133158 -3.12316 0
M  V30 3013 H 284.075 -2.35222 -3.1633 0
M  V30 3014 H 285.363 -2.6481 -4.34457 0
M  V30 3015 H 284.761 0.252274 -5.65137 0
M  V30 3016 H 283.318 -0.0937925 -6.51733 0
M  V30 3017 N 286.751 1.08385 -1.14413 0
M  V30 3018 C 287.681 2.17321 -0.854044 0
M  V30 3019 C 288.662 1.69024 0.191049 0
M  V30 3020 O 289.847 1.94141 0.0476779 0
M  V30 3021 C 286.977 3.45719 -0.330983 0
M  V30 3022 C 285.931 4.07409 -1.31155 0
M  V30 3023 C 285.257 5.30762 -0.64778 0
M  V30 3024 C 286.557 4.48665 -2.67388 0
M  V30 3025 H 288.251 2.41845 -1.76498 0
M  V30 3026 H 285.797 1.16233 -0.850051 0
M  V30 3027 H 287.75 4.21241 -0.115645 0
M  V30 3028 H 286.474 3.2075 0.615381 0
M  V30 3029 H 285.133 3.33919 -1.51306 0
M  V30 3030 H 284.781 5.02078 0.304398 0
M  V30 3031 H 284.481 5.72992 -1.30207 0
M  V30 3032 H 286.005 6.08998 -0.441972 0
M  V30 3033 H 287.419 5.15364 -2.51143 0
M  V30 3034 H 285.816 5.01814 -3.29093 0
M  V30 3035 H 286.886 3.60543 -3.24248 0
M  V30 3036 N 288.23 0.939286 1.26551 0
M  V30 3037 C 289.641 0.628782 1.75793 0
M  V30 3038 C 289.992 -0.856046 1.7654 0
M  V30 3039 O 289.117 -1.66994 1.3763 0
M  V30 3040 C 289.712 1.13465 3.19235 0
M  V30 3041 C 288.271 0.874601 3.66098 0
M  V30 3042 C 287.418 1.28667 2.45642 0
M  V30 3043 H 290.369 1.1178 1.12654 0
M  V30 3044 H 290.39 0.487609 3.77363 0
M  V30 3045 H 289.902 2.21535 3.1866 0
M  V30 3046 H 288.003 -0.191793 3.72106 0
M  V30 3047 H 288.116 1.50028 4.55004 0
M  V30 3048 H 286.48 0.705109 2.44745 0
M  V30 3049 H 287.263 2.37625 2.47769 0
M  V30 3050 N 289.708 -1.40897 0.706093 0
M  V30 3051 C 291.119 -1.84023 0.315052 0
M  V30 3052 C 291.47 -1.5906 -1.14866 0
M  V30 3053 O 290.595 -1.06651 -1.88293 0
M  V30 3054 C 291.19 -3.34055 0.565038 0
M  V30 3055 C 289.749 -3.7571 0.227806 0
M  V30 3056 C 288.896 -2.64204 0.842122 0
M  V30 3057 H 291.847 -1.303 0.905963 0
M  V30 3058 H 291.868 -3.80107 -0.172843 0
M  V30 3059 H 291.38 -3.52192 1.63042 0
M  V30 3060 H 289.481 -3.63172 -0.832895 0
M  V30 3061 H 289.594 -4.74103 0.690174 0
M  V30 3062 H 287.958 -2.53255 0.270893 0
M  V30 3063 H 288.741 -2.85155 1.91158 0
M  V30 3064 N 291.186 -0.45159 -1.50991 0
M  V30 3065 C 292.149 0.341117 -2.26647 0
M  V30 3066 C 293.149 0.937422 -1.30649 0
M  V30 3067 O 294.339 0.809644 -1.54241 0
M  V30 3068 C 291.471 1.48398 -3.06905 0
M  V30 3069 H 292.664 -0.322117 -2.98165 0
M  V30 3070 H 290.217 -0.205122 -1.54948 0
M  V30 3071 H 290.952 2.18284 -2.39838 0
M  V30 3072 H 290.737 1.06241 -3.77432 0
M  V30 3073 H 292.227 2.04367 -3.64176 0
M  V30 3074 N 292.664 1.56529 -0.183458 0
M  V30 3075 C 293.574 2.22144 0.754272 0
M  V30 3076 C 294.59 1.21684 1.24374 0
M  V30 3077 O 295.766 1.54385 1.29333 0
M  V30 3078 C 292.831 2.85884 1.96141 0
M  V30 3079 C 291.892 4.01579 1.51765 0
M  V30 3080 C 291.125 4.6227 2.66725 0
M  V30 3081 O 291.348 4.21865 3.83909 0
M  V30 3082 O 290.282 5.51936 2.40104 0
M  V30 3083 H 294.108 3.02861 0.225527 0
M  V30 3084 H 291.693 1.49331 0.0453032 0
M  V30 3085 H 293.575 3.26253 2.66715 0
M  V30 3086 H 292.25 2.08154 2.47899 0
M  V30 3087 H 291.157 3.65856 0.781049 0
M  V30 3088 H 292.49 4.80938 1.04686 0
M  V30 3089 N 294.142 -0.090211 1.57342 0
M  V30 3090 C 295.419 -0.824761 1.77361 0
M  V30 3091 C 295.799 -1.96698 0.76637 0
M  V30 3092 O 295.147 -2.27586 -0.204179 0
M  V30 3093 C 295.357 -1.31481 3.23286 0
M  V30 3094 C 296.705 -1.75563 3.86604 0
M  V30 3095 O 297.729 -1.41093 3.27065 0
M  V30 3096 O 296.588 -2.39317 4.91314 0
M  V30 3097 H 293.682 -0.393776 0.727234 0
M  V30 3098 H 296.228 -0.0717138 1.69548 0
M  V30 3099 H 295 -0.496671 3.88135 0
M  V30 3100 H 294.623 -2.12973 3.35751 0
M  V30 3101 N 295.62 -1.53406 -0.361157 0
M  V30 3102 C 296.848 -1.73717 -1.12383 0
M  V30 3103 C 297.263 -0.468161 -1.82904 0
M  V30 3104 O 296.62 0.559198 -1.73722 0
M  V30 3105 C 296.671 -2.90558 -2.15078 0
M  V30 3106 O 296.392 -4.12549 -1.47428 0
M  V30 3107 C 297.893 -3.22777 -3.03858 0
M  V30 3108 H 295.113 -0.580896 -0.335858 0
M  V30 3109 H 297.657 -2.00167 -0.418728 0
M  V30 3110 H 295.812 -2.66489 -2.8118 0
M  V30 3111 H 296.226 -4.78009 -2.15887 0
M  V30 3112 H 297.7 -4.07927 -3.71887 0
M  V30 3113 H 298.177 -2.38329 -3.68912 0
M  V30 3114 H 298.783 -3.48787 -2.43367 0
M  V30 3115 N 297.098 0.621204 -1.44841 0
M  V30 3116 C 298.346 1.37783 -1.47852 0
M  V30 3117 C 298.667 1.94653 -0.116224 0
M  V30 3118 O 297.937 1.76367 0.852737 0
M  V30 3119 H 296.517 0.511453 -0.544449 0
M  V30 3120 H 299.179 0.730446 -1.80694 0
M  V30 3121 H 298.275 2.20414 -2.20961 0
M  V30 3122 N 298.576 1.31904 0.862503 0
M  V30 3123 C 299.508 1.16005 1.97675 0
M  V30 3124 C 300.521 0.0971234 1.6251 0
M  V30 3125 O 301.71 0.345337 1.75128 0
M  V30 3126 C 298.81 0.751791 3.30456 0
M  V30 3127 C 297.983 1.90133 3.93914 0
M  V30 3128 C 297.042 1.4779 5.05019 0
M  V30 3129 O 296.068 2.18872 5.25437 0
M  V30 3130 N 297.27 0.369491 5.79323 0
M  V30 3131 H 300.035 2.11982 2.11857 0
M  V30 3132 H 297.596 1.24337 1.03691 0
M  V30 3133 H 299.588 0.451084 4.02178 0
M  V30 3134 H 298.158 -0.116593 3.12382 0
M  V30 3135 H 297.378 2.36896 3.15078 0
M  V30 3136 H 298.666 2.67111 4.33047 0
M  V30 3137 H 298.064 -0.222299 5.65263 0
M  V30 3138 H 296.621 0.128354 6.51674 0
M  V30 3139 N 300.054 -1.07777 1.14986 0
M  V30 3140 C 301.001 -2.14867 0.842672 0
M  V30 3141 C 301.971 -1.6486 -0.202552 0
M  V30 3142 O 303.156 -1.90668 -0.0710568 0
M  V30 3143 C 300.296 -3.43486 0.333363 0
M  V30 3144 C 299.409 -4.07306 1.43965 0
M  V30 3145 C 298.544 -5.23744 0.886914 0
M  V30 3146 C 297.583 -5.79517 1.97043 0
M  V30 3147 N 296.72 -6.87291 1.4344 0
M  V30 3148 H 301.56 -2.40485 1.75986 0
M  V30 3149 H 299.097 -1.1801 0.878179 0
M  V30 3150 H 301.055 -4.17195 0.0198163 0
M  V30 3151 H 299.685 -3.18133 -0.546916 0
M  V30 3152 H 298.737 -3.31293 1.86946 0
M  V30 3153 H 300.049 -4.44771 2.25788 0
M  V30 3154 H 299.203 -6.04419 0.525651 0
M  V30 3155 H 297.942 -4.87685 0.0377957 0
M  V30 3156 H 296.947 -4.97491 2.34057 0
M  V30 3157 H 298.172 -6.17632 2.82325 0
M  V30 3158 H 296.118 -6.5318 0.607567 0
M  V30 3159 H 296.035 -7.23617 2.18895 0
M  V30 3160 H 297.303 -7.71682 1.10124 0
M  V30 3161 N 301.532 -0.945985 -1.26051 0
M  V30 3162 C 302.462 -0.477172 -2.28572 0
M  V30 3163 C 303.443 0.472032 -1.63419 0
M  V30 3164 O 304.628 0.372853 -1.90587 0
M  V30 3165 C 301.758 0.253975 -3.4637 0
M  V30 3166 C 300.712 -0.609135 -4.23643 0
M  V30 3167 C 300.038 0.252252 -5.34105 0
M  V30 3168 C 301.338 -1.8829 -4.8718 0
M  V30 3169 H 303.032 -1.33402 -2.68038 0
M  V30 3170 H 300.578 -0.642904 -1.28852 0
M  V30 3171 H 302.531 0.593016 -4.17207 0
M  V30 3172 H 301.255 1.145 -3.05871 0
M  V30 3173 H 299.914 -0.931138 -3.54578 0
M  V30 3174 H 299.562 1.14278 -4.89846 0
M  V30 3175 H 299.262 -0.32188 -5.86718 0
M  V30 3176 H 300.786 0.586454 -6.07777 0
M  V30 3177 H 302.2 -1.61081 -5.50205 0
M  V30 3178 H 300.597 -2.40199 -5.49931 0
M  V30 3179 H 301.667 -2.59134 -4.09851 0
M  V30 3180 N 303.011 1.40521 -0.713556 0
M  V30 3181 C 303.974 2.29098 -0.0684347 0
M  V30 3182 C 304.974 1.45268 0.689472 0
M  V30 3183 O 306.164 1.66205 0.521677 0
M  V30 3184 C 303.296 3.28446 0.913024 0
M  V30 3185 H 304.489 2.87645 -0.84855 0
M  V30 3186 H 302.042 1.48809 -0.47809 0
M  V30 3187 H 302.777 2.74913 1.72027 0
M  V30 3188 H 302.562 3.90327 0.372472 0
M  V30 3189 H 304.052 3.94777 1.36165 0
M  V30 3190 N 304.489 0.459591 1.5075 0
M  V30 3191 C 305.419 -0.330644 2.31147 0
M  V30 3192 C 306.4 -1.00087 1.37538 0
M  V30 3193 O 307.585 -1.00025 1.66459 0
M  V30 3194 C 304.715 -1.41958 3.16962 0
M  V30 3195 C 303.669 -0.871608 4.19031 0
M  V30 3196 C 302.995 -2.05797 4.9351 0
M  V30 3197 C 304.295 0.109251 5.22186 0
M  V30 3198 H 305.989 0.340336 2.97459 0
M  V30 3199 H 303.535 0.165119 1.4305 0
M  V30 3200 H 305.488 -1.9798 3.71997 0
M  V30 3201 H 304.212 -2.11917 2.48513 0
M  V30 3202 H 302.871 -0.333442 3.6508 0
M  V30 3203 H 302.519 -2.74427 4.21544 0
M  V30 3204 H 302.219 -1.6976 5.62544 0
M  V30 3205 H 303.743 -2.62331 5.51375 0
M  V30 3206 H 305.157 -0.361405 5.7216 0
M  V30 3207 H 303.554 0.383316 5.98875 0
M  V30 3208 H 304.624 1.03887 4.73641 0
M  V30 3209 N 305.967 -1.56429 0.191757 0
M  V30 3210 C 306.877 -2.22541 -0.742481 0
M  V30 3211 C 307.893 -1.22342 -1.23727 0
M  V30 3212 O 309.069 -1.55069 -1.28513 0
M  V30 3213 C 306.134 -2.8692 -1.94623 0
M  V30 3214 C 305.195 -4.02378 -1.49633 0
M  V30 3215 C 304.428 -4.63678 -2.6427 0
M  V30 3216 O 304.651 -4.23895 -3.81666 0
M  V30 3217 O 303.585 -5.53202 -2.37174 0
M  V30 3218 H 307.411 -3.02977 -0.209462 0
M  V30 3219 H 304.996 -1.49353 -0.0373832 0
M  V30 3220 H 306.878 -3.27663 -2.64982 0
M  V30 3221 H 305.553 -2.09466 -2.46791 0
M  V30 3222 H 304.46 -3.66265 -0.761636 0
M  V30 3223 H 305.793 -4.81487 -1.02134 0
M  V30 3224 N 307.445 0.0818655 -1.57387 0
M  V30 3225 C 308.673 0.796108 -1.9097 0
M  V30 3226 C 309.088 1.71626 -0.786757 0
M  V30 3227 O 308.445 1.80908 0.240513 0
M  V30 3228 C 308.496 1.59829 -3.24248 0
M  V30 3229 O 308.217 0.715131 -4.32224 0
M  V30 3230 C 309.718 2.41442 -3.7178 0
M  V30 3231 H 306.938 0.22691 -0.631469 0
M  V30 3232 H 309.482 0.0551439 -2.04426 0
M  V30 3233 H 307.637 2.29163 -3.12351 0
M  V30 3234 H 308.051 1.27205 -5.08841 0
M  V30 3235 H 309.525 2.932 -4.67694 0
M  V30 3236 H 310.002 3.2051 -3.00283 0
M  V30 3237 H 310.608 1.77283 -3.86589 0
M  V30 3238 N 308.923 1.53595 0.353017 0
M  V30 3239 C 309.853 1.83902 1.43883 0
M  V30 3240 C 310.834 0.693421 1.55324 0
M  V30 3241 O 312.019 0.944452 1.69687 0
M  V30 3242 C 309.149 2.04016 2.8106 0
M  V30 3243 C 308.103 3.19814 2.84434 0
M  V30 3244 C 307.429 3.25244 4.24406 0
M  V30 3245 C 308.729 4.58133 2.50822 0
M  V30 3246 H 310.423 2.74835 1.1877 0
M  V30 3247 H 307.969 1.32242 0.569917 0
M  V30 3248 H 309.922 2.238 3.57059 0
M  V30 3249 H 308.646 1.09804 3.07588 0
M  V30 3250 H 307.305 2.9987 2.10887 0
M  V30 3251 H 306.953 2.28646 4.48029 0
M  V30 3252 H 306.653 4.03054 4.27576 0
M  V30 3253 H 308.177 3.47228 5.0226 0
M  V30 3254 H 309.591 4.77995 3.16534 0
M  V30 3255 H 307.988 5.38276 2.6529 0
M  V30 3256 H 309.058 4.62387 1.46034 0
M  V30 3257 N 310.401 -0.613514 1.45168 0
M  V30 3258 C 311.678 -1.37263 1.39349 0
M  V30 3259 C 312.058 -2.11012 0.0610848 0
M  V30 3260 O 311.406 -2.07502 -0.956825 0
M  V30 3261 C 311.616 -2.3244 2.60332 0
M  V30 3262 C 312.964 -2.9523 3.05163 0
M  V30 3263 O 313.988 -2.42762 2.60663 0
M  V30 3264 O 312.847 -3.90454 3.82372 0
M  V30 3265 H 309.941 -0.615188 0.552696 0
M  V30 3266 H 312.487 -0.637097 1.57287 0
M  V30 3267 H 311.259 -1.77164 3.48896 0
M  V30 3268 H 310.882 -3.13383 2.44698 0
M  V30 3269 N 311.879 -1.3236 -0.855495 0
M  V30 3270 C 312.789 -1.23221 -1.99634 0
M  V30 3271 C 313.805 -0.145983 -1.73387 0
M  V30 3272 O 314.981 -0.366502 -1.98037 0
M  V30 3273 C 312.046 -0.954782 -3.33294 0
M  V30 3274 C 311.107 -2.12937 -3.72769 0
M  V30 3275 C 310.34 -1.86508 -5.00051 0
M  V30 3276 O 310.563 -0.807231 -5.64659 0
M  V30 3277 O 309.497 -2.72591 -5.36636 0
M  V30 3278 H 313.323 -2.19126 -2.1028 0
M  V30 3279 H 310.908 -1.12241 -0.986018 0
M  V30 3280 H 312.79 -0.816519 -4.13414 0
M  V30 3281 H 311.465 -0.0258854 -3.2369 0
M  V30 3282 H 310.372 -2.3231 -2.93228 0
M  V30 3283 H 311.705 -3.04102 -3.87018 0
M  V30 3284 N 313.357 1.07166 -1.15556 0
M  V30 3285 C 314.287 2.16403 -0.877046 0
M  V30 3286 C 315.268 1.69217 0.173111 0
M  V30 3287 O 316.453 1.94181 0.027084 0
M  V30 3288 C 313.583 3.45349 -0.367632 0
M  V30 3289 C 312.537 4.05995 -1.35468 0
M  V30 3290 C 311.863 5.30045 -0.704038 0
M  V30 3291 C 313.163 4.45804 -2.72132 0
M  V30 3292 H 314.857 2.39959 -1.79053 0
M  V30 3293 H 312.403 1.15325 -0.862331 0
M  V30 3294 H 314.356 4.21095 -0.160317 0
M  V30 3295 H 313.08 3.21385 0.581326 0
M  V30 3296 H 311.739 3.32296 -1.54839 0
M  V30 3297 H 311.387 5.02373 0.251128 0
M  V30 3298 H 311.087 5.71579 -1.36277 0
M  V30 3299 H 312.611 6.08495 -0.50654 0
M  V30 3300 H 314.025 5.12671 -2.56595 0
M  V30 3301 H 312.422 4.98296 -3.34397 0
M  V30 3302 H 313.492 3.57083 -3.28054 0
M  V30 3303 N 314.835 0.952656 1.25548 0
M  V30 3304 C 316.112 0.523818 1.88456 0
M  V30 3305 C 316.492 -0.998871 1.85973 0
M  V30 3306 O 315.84 -1.86381 1.3219 0
M  V30 3307 C 316.05 1.0982 3.31271 0
M  V30 3308 C 317.398 1.17385 4.08051 0
M  V30 3309 O 318.422 1.04961 3.40384 0
M  V30 3310 O 317.281 1.36852 5.29088 0
M  V30 3311 H 314.375 0.172485 0.808813 0
M  V30 3312 H 316.921 1.04596 1.33633 0
M  V30 3313 H 315.693 2.1415 3.27499 0
M  V30 3314 H 315.316 0.559191 3.93648 0
M  V30 3315 N 316.313 -1.40141 0.720998 0
M  V30 3316 C 317.559 -2.01572 0.272075 0
M  V30 3317 C 317.914 -1.5616 -1.12391 0
M  V30 3318 O 317.207 -0.774198 -1.75262 0
M  V30 3319 C 317.401 -3.56165 0.296892 0
M  V30 3320 C 317.23 -4.16584 1.69375 0
M  V30 3321 C 316 -4.49783 2.30269 0
M  V30 3322 C 318.198 -4.41076 2.64493 0
M  V30 3323 N 316.18 -4.95626 3.62254 0
M  V30 3324 C 317.551 -4.88971 3.81192 0
M  V30 3325 C 319.606 -4.23122 2.62435 0
M  V30 3326 C 318.309 -5.20796 4.96149 0
M  V30 3327 C 320.335 -4.56052 3.76524 0
M  V30 3328 C 319.697 -5.04141 4.91956 0
M  V30 3329 H 315.796 -0.768343 0.145511 0
M  V30 3330 H 318.38 -1.70287 0.943959 0
M  V30 3331 H 316.551 -3.86868 -0.344578 0
M  V30 3332 H 318.283 -4.04346 -0.169254 0
M  V30 3333 H 315.038 -4.37101 1.82318 0
M  V30 3334 H 315.462 -5.22923 4.29977 0
M  V30 3335 H 320.104 -3.85158 1.74393 0
M  V30 3336 H 317.822 -5.57672 5.84831 0
M  V30 3337 H 321.408 -4.43796 3.76213 0
M  V30 3338 H 320.288 -5.29142 5.78774 0
M  V30 3339 N 317.792 -0.46758 -1.50504 0
M  V30 3340 C 319.032 0.0874114 -2.04213 0
M  V30 3341 C 319.396 1.37301 -1.34211 0
M  V30 3342 O 320.597 2.01015 -1.78456 0
M  V30 3343 C 318.868 0.270571 -3.56374 0
M  V30 3344 S 320.427 0.784623 -4.31728 0
M  V30 3345 H 317.245 0.0176153 -0.710782 0
M  V30 3346 H 319.847 -0.633915 -1.84937 0
M  V30 3347 H 318.551 -0.670942 -4.04878 0
M  V30 3348 H 318.082 1.01811 -3.79997 0
M  V30 3349 H 320.097 2.05849 -4.51487 0
M  V30 3350 N 319.27 1.56325 -0.20005 0
M  V30 3351 C 320.2 2.22318 0.713916 0
M  V30 3352 C 321.181 1.18788 1.21752 0
M  V30 3353 O 322.366 1.47309 1.26545 0
M  V30 3354 C 319.496 2.88639 1.93144 0
M  V30 3355 C 318.45 3.98457 1.56255 0
M  V30 3356 C 317.776 4.51967 2.85709 0
M  V30 3357 C 319.076 5.16612 0.768747 0
M  V30 3358 H 320.77 2.98952 0.163755 0
M  V30 3359 H 318.316 1.43792 0.0773219 0
M  V30 3360 H 320.269 3.33491 2.57608 0
M  V30 3361 H 318.993 2.09419 2.50621 0
M  V30 3362 H 317.652 3.54305 0.941471 0
M  V30 3363 H 317.3 3.69503 3.41287 0
M  V30 3364 H 317 5.26071 2.6177 0
M  V30 3365 H 318.524 4.99523 3.51154 0
M  V30 3366 H 319.938 5.57977 1.3166 0
M  V30 3367 H 318.335 5.96812 0.627286 0
M  V30 3368 H 319.405 4.84358 -0.229168 0
M  V30 3369 N 320.748 -0.0735177 1.57428 0
M  V30 3370 C 322.025 -0.805903 1.78226 0
M  V30 3371 C 322.405 -1.95874 0.787189 0
M  V30 3372 O 321.753 -2.2779 -0.180029 0
M  V30 3373 C 321.963 -1.28045 3.24662 0
M  V30 3374 C 323.311 -1.71453 3.88444 0
M  V30 3375 O 324.335 -1.37616 3.28543 0
M  V30 3376 O 323.194 -2.34093 4.93825 0
M  V30 3377 H 320.288 -0.386041 0.73137 0
M  V30 3378 H 322.834 -0.0537269 1.69615 0
M  V30 3379 H 321.606 -0.455476 3.8864 0
M  V30 3380 H 321.229 -2.094 3.37991 0
M  V30 3381 N 322.226 -1.5378 -0.344866 0
M  V30 3382 C 323.158 -1.77988 -1.44406 0
M  V30 3383 C 324.171 -0.661138 -1.48771 0
M  V30 3384 O 325.36 -0.937842 -1.51877 0
M  V30 3385 C 322.46 -1.86345 -2.8307 0
M  V30 3386 C 321.633 -3.16256 -3.0216 0
M  V30 3387 C 320.692 -3.15588 -4.21059 0
M  V30 3388 O 319.718 -3.89314 -4.15239 0
M  V30 3389 N 320.92 -2.37864 -5.29529 0
M  V30 3390 H 323.685 -2.72839 -1.24012 0
M  V30 3391 H 321.246 -1.52814 -0.534737 0
M  V30 3392 H 323.238 -1.83351 -3.60783 0
M  V30 3393 H 321.808 -0.986858 -2.96614 0
M  V30 3394 H 321.028 -3.32385 -2.11929 0
M  V30 3395 H 322.316 -4.0207 -3.11797 0
M  V30 3396 H 321.714 -1.77514 -5.37127 0
M  V30 3397 H 320.271 -2.40668 -6.05741 0
M  V30 3398 N 323.704 0.605807 -1.45491 0
M  V30 3399 C 324.634 1.72709 -1.57143 0
M  V30 3400 C 325.615 1.6476 -0.422884 0
M  V30 3401 O 326.8 1.83132 -0.646247 0
M  V30 3402 C 323.93 3.11316 -1.53948 0
M  V30 3403 C 322.884 3.34077 -2.67537 0
M  V30 3404 C 322.21 4.72975 -2.49397 0
M  V30 3405 C 323.51 3.24158 -4.09535 0
M  V30 3406 H 325.204 1.63214 -2.51001 0
M  V30 3407 H 322.75 0.78379 -1.208 0
M  V30 3408 H 324.703 3.89557 -1.60696 0
M  V30 3409 H 323.427 3.21655 -0.566205 0
M  V30 3410 H 322.086 2.58227 -2.6022 0
M  V30 3411 H 321.734 4.8005 -1.50205 0
M  V30 3412 H 321.434 4.8916 -3.25571 0
M  V30 3413 H 322.958 5.53414 -2.58002 0
M  V30 3414 H 324.372 3.92271 -4.18086 0
M  V30 3415 H 322.769 3.51872 -4.86113 0
M  V30 3416 H 323.839 2.2157 -4.31317 0
M  V30 3417 N 325.182 1.32811 0.848464 0
M  V30 3418 C 326.092 1.24278 1.98978 0
M  V30 3419 C 327.108 0.155176 1.73307 0
M  V30 3420 O 328.284 0.376999 1.9784 0
M  V30 3421 C 325.349 0.972444 3.32783 0
M  V30 3422 C 324.41 2.14911 3.71634 0
M  V30 3423 C 323.643 1.89157 4.99054 0
M  V30 3424 O 323.866 0.837165 5.64223 0
M  V30 3425 O 322.8 2.75433 5.35183 0
M  V30 3426 H 326.626 2.20238 2.09115 0
M  V30 3427 H 324.211 1.12762 0.980052 0
M  V30 3428 H 326.093 0.838432 4.12975 0
M  V30 3429 H 324.768 0.043051 3.23671 0
M  V30 3430 H 323.675 2.33862 2.91992 0
M  V30 3431 H 325.008 3.06151 3.85399 0
M  V30 3432 N 326.66 -1.06551 1.16123 0
M  V30 3433 C 327.888 -1.83005 0.965237 0
M  V30 3434 C 328.303 -1.82423 -0.486542 0
M  V30 3435 O 327.66 -1.24152 -1.33763 0
M  V30 3436 C 327.711 -3.29733 1.48183 0
M  V30 3437 O 327.432 -3.30416 2.87674 0
M  V30 3438 C 328.933 -4.22926 1.32848 0
M  V30 3439 H 326.153 -0.577118 0.342309 0
M  V30 3440 H 328.697 -1.3445 1.54089 0
M  V30 3441 H 326.852 -3.75609 0.948517 0
M  V30 3442 H 327.266 -4.22149 3.11272 0
M  V30 3443 H 328.74 -5.23916 1.73827 0
M  V30 3444 H 329.217 -4.38346 0.273692 0
M  V30 3445 H 329.823 -3.82894 1.85127 0
M  V30 3446 N 328.138 -0.959301 -1.25041 0
M  V30 3447 C 329.068 -0.501388 -2.28053 0
M  V30 3448 C 330.049 0.454673 -1.63911 0
M  V30 3449 O 331.234 0.352618 -1.90972 0
M  V30 3450 C 328.364 0.217224 -3.4662 0
M  V30 3451 C 327.318 -0.654034 -4.22973 0
M  V30 3452 C 326.644 0.195589 -5.34342 0
M  V30 3453 C 327.944 -1.93447 -4.85155 0
M  V30 3454 H 329.638 -1.36238 -2.66608 0
M  V30 3455 H 327.184 -0.656534 -1.28163 0
M  V30 3456 H 329.137 0.548732 -4.17812 0
M  V30 3457 H 327.861 1.1125 -3.07068 0
M  V30 3458 H 326.52 -0.968693 -3.5357 0
M  V30 3459 H 326.168 1.09076 -4.91031 0
M  V30 3460 H 325.868 -0.384091 -5.86343 0
M  V30 3461 H 327.392 0.521958 -6.08365 0
M  V30 3462 H 328.806 -1.66908 -5.48466 0
M  V30 3463 H 327.203 -2.46018 -5.47353 0
M  V30 3464 H 328.273 -2.63466 -4.07079 0
M  V30 3465 N 329.616 1.39756 -0.72842 0
M  V30 3466 C 330.548 2.29157 -0.0446202 0
M  V30 3467 C 331.561 1.46484 0.710367 0
M  V30 3468 O 332.75 1.69632 0.55562 0
M  V30 3469 C 329.85 3.24987 0.961071 0
M  V30 3470 C 329.023 4.36572 0.268967 0
M  V30 3471 C 328.082 5.12756 1.18184 0
M  V30 3472 O 327.108 5.6534 0.661794 0
M  V30 3473 N 328.31 5.23331 2.51206 0
M  V30 3474 H 331.075 2.88482 -0.812295 0
M  V30 3475 H 328.636 1.51265 -0.577098 0
M  V30 3476 H 330.628 3.72827 1.57423 0
M  V30 3477 H 329.198 2.66739 1.63 0
M  V30 3478 H 328.418 3.90694 -0.524574 0
M  V30 3479 H 329.706 5.08363 -0.210934 0
M  V30 3480 H 329.104 4.82116 2.9594 0
M  V30 3481 H 327.661 5.74634 3.07634 0
M  V30 3482 N 331.094 0.475555 1.50254 0
M  V30 3483 C 332.322 -0.0754493 2.06762 0
M  V30 3484 C 332.737 -1.33111 1.33891 0
M  V30 3485 O 332.094 -1.77846 0.40952 0
M  V30 3486 C 332.145 -0.359008 3.59713 0
M  V30 3487 O 331.866 0.846851 4.29837 0
M  V30 3488 C 333.367 -0.956484 4.32858 0
M  V30 3489 H 330.587 0.00907525 0.670939 0
M  V30 3490 H 333.131 0.665618 1.93364 0
M  V30 3491 H 331.286 -1.05001 3.72899 0
M  V30 3492 H 331.7 0.594162 5.21124 0
M  V30 3493 H 333.174 -1.10463 5.40834 0
M  V30 3494 H 333.651 -1.94775 3.93649 0
M  V30 3495 H 334.257 -0.303723 4.24214 0
M  V30 3496 N 332.573 -1.56217 0.208337 0
M  V30 3497 C 333.989 -1.58919 -0.14729 0
M  V30 3498 C 334.189 -1.22486 -1.59998 0
M  V30 3499 O 333.245 -0.953849 -2.3379 0
M  V30 3500 C 334.558 -3.00236 0.167048 0
M  V30 3501 C 336.106 -3.12813 0.108219 0
M  V30 3502 C 336.581 -4.56284 0.396049 0
M  V30 3503 N 338.072 -4.61912 0.345142 0
M  V30 3504 C 338.807 -5.70837 0.541523 0
M  V30 3505 N 338.303 -6.88178 0.798968 0
M  V30 3506 N 340.096 -5.60091 0.474867 0
M  V30 3507 H 332.247 -1.78177 1.15614 0
M  V30 3508 H 334.51 -0.827555 0.462446 0
M  V30 3509 H 334.216 -3.31499 1.1748 0
M  V30 3510 H 334.09 -3.7354 -0.524184 0
M  V30 3511 H 336.477 -2.81354 -0.890157 0
M  V30 3512 H 336.558 -2.41866 0.832729 0
M  V30 3513 H 336.202 -4.88458 1.3918 0
M  V30 3514 H 336.132 -5.25439 -0.349502 0
M  V30 3515 H 338.623 -3.77589 0.153316 0
M  V30 3516 H 338.936 -7.67095 0.93727 0
M  V30 3517 H 337.281 -6.89953 0.836013 0
M  V30 3518 H 340.472 -4.67297 0.274064 0
M  V30 3519 H 340.645 -6.44917 0.631326 0
M  V30 3520 N 334.051 0.0651679 -1.57465 0
M  V30 3521 C 335.001 1.0838 -2.00594 0
M  V30 3522 C 335.985 1.34106 -0.889071 0
M  V30 3523 O 337.177 1.34295 -1.15299 0
M  V30 3524 C 334.306 2.39565 -2.45894 0
M  V30 3525 C 333.392 2.17085 -3.64328 0
M  V30 3526 N 333.783 1.64553 -4.78285 0
M  V30 3527 C 332.081 2.4753 -3.71006 0
M  V30 3528 C 332.782 1.57042 -5.60101 0
M  V30 3529 N 331.758 2.03328 -5.04141 0
M  V30 3530 H 335.56 0.671062 -2.86136 0
M  V30 3531 H 333.074 0.27213 -1.60104 0
M  V30 3532 H 335.071 3.13308 -2.75034 0
M  V30 3533 H 333.731 2.81549 -1.61741 0
M  V30 3534 H 334.742 1.33323 -5.00445 0
M  V30 3535 H 331.419 2.92835 -2.9758 0
M  V30 3536 H 332.809 1.17223 -6.61595 0
M  V30 3537 N 335.529 1.53961 0.336706 0
M  V30 3538 C 336.754 1.75797 1.10046 0
M  V30 3539 C 337.179 0.498985 1.81361 0
M  V30 3540 O 336.537 -0.548769 1.72795 0
M  V30 3541 C 336.585 2.94257 2.08436 0
M  V30 3542 O 335.689 2.64883 3.16087 0
M  V30 3543 H 335.03 0.582936 0.317934 0
M  V30 3544 H 337.56 2.00945 0.38501 0
M  V30 3545 H 337.57 3.21237 2.51537 0
M  V30 3546 H 336.245 3.85564 1.55927 0
M  V30 3547 H 334.822 2.48812 2.77753 0
M  V30 3548 N 337.007 -0.598083 1.45811 0
M  V30 3549 C 338.253 -1.35882 1.50545 0
M  V30 3550 C 338.586 -1.93616 0.150445 0
M  V30 3551 O 337.861 -1.75604 -0.83628 0
M  V30 3552 C 338.144 -2.49966 2.59208 0
M  V30 3553 C 337.997 -1.97367 4.04186 0
M  V30 3554 C 339.316 -3.52068 2.64076 0
M  V30 3555 H 336.435 -0.492717 0.548087 0
M  V30 3556 H 339.077 -0.673319 1.77669 0
M  V30 3557 H 337.227 -3.08443 2.3621 0
M  V30 3558 H 338.899 -1.43466 4.38423 0
M  V30 3559 H 337.142 -1.283 4.14393 0
M  V30 3560 H 337.813 -2.79649 4.75921 0
M  V30 3561 H 340.289 -3.03448 2.84708 0
M  V30 3562 H 339.165 -4.2937 3.41954 0
M  V30 3563 H 339.426 -4.08304 1.69531 0
M  V30 3564 N 338.485 -1.33259 -0.841409 0
M  V30 3565 C 339.733 -1.24326 -1.59334 0
M  V30 3566 C 340.054 0.191564 -1.94057 0
M  V30 3567 O 339.324 1.11967 -1.60749 0
M  V30 3568 H 337.904 -0.457174 -0.590763 0
M  V30 3569 H 340.566 -1.66947 -1.00571 0
M  V30 3570 H 339.662 -1.8352 -2.52442 0
M  V30 3571 N 339.963 1.05934 -1.16686 0
M  V30 3572 C 340.873 2.17014 -0.891183 0
M  V30 3573 C 341.889 1.73453 0.137907 0
M  V30 3574 O 343.065 2.01361 -0.039592 0
M  V30 3575 C 340.13 3.44384 -0.400099 0
M  V30 3576 C 339.191 4.02433 -1.49486 0
M  V30 3577 C 338.424 5.23723 -1.02711 0
M  V30 3578 O 338.647 5.7027 0.121716 0
M  V30 3579 O 337.581 5.7382 -1.81699 0
M  V30 3580 H 341.407 2.43113 -1.82015 0
M  V30 3581 H 338.992 1.15541 -0.947132 0
M  V30 3582 H 340.874 4.21189 -0.133392 0
M  V30 3583 H 339.549 3.19802 0.500817 0
M  V30 3584 H 338.456 3.27102 -1.81535 0
M  V30 3585 H 339.789 4.31317 -2.37121 0
M  V30 3586 N 341.441 0.965919 1.2453 0
M  V30 3587 C 342.374 0.4393 2.23932 0
M  V30 3588 C 343.352 -0.485615 1.55179 0
M  V30 3589 O 344.536 -0.417402 1.83821 0
M  V30 3590 C 341.663 -0.366042 3.36716 0
M  V30 3591 C 340.709 0.5009 4.23548 0
M  V30 3592 S 341.542 1.94002 4.99123 0
M  V30 3593 C 342.698 1.14342 6.15367 0
M  V30 3594 H 342.931 1.28167 2.68254 0
M  V30 3595 H 340.464 0.770819 1.33782 0
M  V30 3596 H 342.422 -0.824724 4.0213 0
M  V30 3597 H 341.083 -1.18337 2.90956 0
M  V30 3598 H 340.276 -0.117341 5.03863 0
M  V30 3599 H 339.878 0.89524 3.63127 0
M  V30 3600 H 342.17 0.397572 6.76332 0
M  V30 3601 H 343.113 1.92089 6.81548 0
M  V30 3602 H 343.521 0.668579 5.60527 0
M  V30 3603 N 342.919 -1.39368 0.735821 0
M  V30 3604 C 343.882 -2.2896 0.104874 0
M  V30 3605 C 344.882 -1.46347 -0.666274 0
M  V30 3606 O 346.072 -1.67014 -0.49517 0
M  V30 3607 C 343.204 -3.29857 -0.860656 0
M  V30 3608 H 344.397 -2.86259 0.894205 0
M  V30 3609 H 341.95 -1.48029 0.501704 0
M  V30 3610 H 342.685 -2.77615 -1.67631 0
M  V30 3611 H 342.47 -3.9087 -0.310327 0
M  V30 3612 H 343.96 -3.96893 -1.29867 0
M  V30 3613 N 344.397 -0.483516 -1.5 0
M  V30 3614 C 345.622 0.0667119 -2.07293 0
M  V30 3615 C 346.047 1.3164 -1.3436 0
M  V30 3616 O 345.405 1.76945 -0.394987 0
M  V30 3617 C 345.453 0.321126 -3.59167 0
M  V30 3618 O 344.557 1.39927 -3.87936 0
M  V30 3619 H 343.898 -0.0184758 -0.663743 0
M  V30 3620 H 346.428 -0.678125 -1.93035 0
M  V30 3621 H 346.438 0.557906 -4.04168 0
M  V30 3622 H 345.113 -0.592007 -4.11665 0
M  V30 3623 H 343.69 1.14882 -3.54763 0
M  V30 3624 N 345.875 1.56104 -0.216619 0
M  V30 3625 C 346.823 2.21434 0.712036 0
M  V30 3626 C 347.817 1.19218 1.20348 0
M  V30 3627 O 349.023 1.3731 1.16387 0
M  V30 3628 H 345.398 0.70992 0.248026 0
M  V30 3629 H 347.369 2.98083 0.137558 0
M  V30 3630 C 346.118 2.90434 1.91163 0
M  V30 3631 H 345.441 3.68842 1.54258 0
M  V30 3632 H 346.881 3.39552 2.5393 0
M  V30 3633 C 345.34 1.92635 2.76394 0
M  V30 3634 O 345.87 1.44017 3.74996 0
M  V30 3635 N 344.076 1.60392 2.42328 0
M  V30 3636 H 343.623 2.00122 1.622 0
M  V30 3637 H 343.581 0.952159 2.99635 0
M  V30 3638 N 347.353 -0.0568162 1.57498 0
M  V30 3639 C 348.3 -1.06591 2.04712 0
M  V30 3640 C 349.27 -1.3758 0.930644 0
M  V30 3641 O 350.455 -1.48392 1.19935 0
M  V30 3642 C 347.595 -2.3701 2.50839 0
M  V30 3643 C 346.708 -2.12421 3.76167 0
M  V30 3644 C 345.843 -3.36511 4.11015 0
M  V30 3645 C 344.882 -3.07353 5.2934 0
M  V30 3646 N 344.019 -4.23816 5.59754 0
M  V30 3647 H 348.859 -0.65631 2.90683 0
M  V30 3648 H 346.396 -0.312481 1.43743 0
M  V30 3649 H 348.354 -3.13175 2.7564 0
M  V30 3650 H 346.984 -2.75744 1.67825 0
M  V30 3651 H 346.036 -1.2688 3.58616 0
M  V30 3652 H 347.348 -1.86894 4.62463 0
M  V30 3653 H 346.502 -4.21062 4.36797 0
M  V30 3654 H 345.241 -3.65128 3.23315 0
M  V30 3655 H 344.246 -2.212 5.03339 0
M  V30 3656 H 345.471 -2.80043 6.1867 0
M  V30 3657 H 343.417 -4.52436 4.75014 0
M  V30 3658 H 343.334 -4.01614 6.40501 0
M  V30 3659 H 344.602 -5.0932 5.90096 0
M  V30 3660 N 348.832 -1.54138 -0.328536 0
M  V30 3661 C 350.079 -1.72105 -1.06706 0
M  V30 3662 C 350.407 -0.492111 -1.88171 0
M  V30 3663 O 349.662 0.526153 -1.88494 0
M  V30 3664 C 349.961 -2.9457 -2.02393 0
M  V30 3665 C 349.627 -4.29544 -1.37122 0
M  V30 3666 C 348.289 -4.6624 -1.19052 0
M  V30 3667 C 350.641 -5.1333 -0.902331 0
M  V30 3668 C 347.969 -5.84325 -0.527331 0
M  V30 3669 C 350.321 -6.32094 -0.252988 0
M  V30 3670 C 348.985 -6.67473 -0.0600901 0
M  V30 3671 H 348.255 -0.629775 -0.390466 0
M  V30 3672 H 350.902 -1.88372 -0.34473 0
M  V30 3673 H 349.207 -2.72969 -2.81061 0
M  V30 3674 H 350.904 -3.05665 -2.59557 0
M  V30 3675 H 347.494 -4.0067 -1.52188 0
M  V30 3676 H 351.678 -4.855 -1.02974 0
M  V30 3677 H 346.934 -6.103 -0.366634 0
M  V30 3678 H 351.108 -6.96299 0.118366 0
M  V30 3679 H 348.735 -7.58832 0.455828 0
M  V30 3680 N 350.31 0.590341 -1.46126 0
M  V30 3681 C 351.257 1.69994 -1.56111 0
M  V30 3682 C 352.227 1.61065 -0.405867 0
M  V30 3683 O 353.412 1.8039 -0.621613 0
M  V30 3684 C 350.552 3.08326 -1.55013 0
M  V30 3685 C 349.665 3.27936 -2.81215 0
M  V30 3686 C 348.8 4.56473 -2.71673 0
M  V30 3687 C 347.839 4.694 -3.92849 0
M  V30 3688 N 346.976 5.89254 -3.81738 0
M  V30 3689 H 351.816 1.60797 -2.50895 0
M  V30 3690 H 349.353 0.783799 -1.24479 0
M  V30 3691 H 351.311 3.88383 -1.52362 0
M  V30 3692 H 349.941 3.16439 -0.637667 0
M  V30 3693 H 348.993 2.41536 -2.93879 0
M  V30 3694 H 350.305 3.33357 -3.71045 0
M  V30 3695 H 349.459 5.44748 -2.67085 0
M  V30 3696 H 348.198 4.53477 -1.7947 0
M  V30 3697 H 347.203 3.79544 -3.97777 0
M  V30 3698 H 348.428 4.7418 -4.86138 0
M  V30 3699 H 346.374 5.87271 -2.92317 0
M  V30 3700 H 346.291 5.95911 -4.65217 0
M  V30 3701 H 347.559 6.79981 -3.81112 0
M  V30 3702 N 351.788 1.33704 0.83433 0
M  V30 3703 C 353.204 1.13137 1.12571 0
M  V30 3704 C 353.404 -0.0747261 2.01361 0
M  V30 3705 O 352.46 -0.753647 2.4099 0
M  V30 3706 C 353.773 2.42105 1.78342 0
M  V30 3707 C 355.321 2.48054 1.90888 0
M  V30 3708 C 355.796 3.76995 2.60075 0
M  V30 3709 N 357.287 3.78092 2.67584 0
M  V30 3710 C 358.022 4.74574 3.21818 0
M  V30 3711 N 357.518 5.81434 3.76705 0
M  V30 3712 N 359.311 4.62044 3.20112 0
M  V30 3713 H 351.462 2.11 0.243489 0
M  V30 3714 H 353.725 0.932532 0.17055 0
M  V30 3715 H 353.431 3.30391 1.20561 0
M  V30 3716 H 353.305 2.54594 2.7832 0
M  V30 3717 H 355.692 1.60215 2.47821 0
M  V30 3718 H 355.773 2.39502 0.898459 0
M  V30 3719 H 355.417 4.65219 2.03799 0
M  V30 3720 H 355.347 3.82825 3.61597 0
M  V30 3721 H 357.838 3.00865 2.28667 0
M  V30 3722 H 358.151 6.51084 4.16305 0
M  V30 3723 H 356.496 5.85163 3.7498 0
M  V30 3724 H 359.687 3.77716 2.76493 0
M  V30 3725 H 359.86 5.37406 3.62076 0
M  V30 3726 N 353.266 -1.05314 1.17247 0
M  V30 3727 C 354.515 -1.77685 0.954521 0
M  V30 3728 C 354.828 -1.88616 -0.518025 0
M  V30 3729 O 356.034 -2.57714 -0.854144 0
M  V30 3730 C 354.49 -3.19402 1.65863 0
M  V30 3731 C 354.098 -3.16605 3.16963 0
M  V30 3732 C 355.842 -3.96237 1.52303 0
M  V30 3733 C 353.749 -4.53103 3.80068 0
M  V30 3734 H 352.679 -0.666 0.353496 0
M  V30 3735 H 355.33 -1.1805 1.40486 0
M  V30 3736 H 353.712 -3.79355 1.13602 0
M  V30 3737 H 354.886 -2.66176 3.76148 0
M  V30 3738 H 353.201 -2.53268 3.30521 0
M  V30 3739 H 355.798 -4.97157 1.96822 0
M  V30 3740 H 356.141 -4.136 0.473401 0
M  V30 3741 H 356.674 -3.42829 2.01775 0
M  V30 3742 H 353.413 -4.40946 4.85023 0
M  V30 3743 H 352.933 -5.03686 3.2567 0
M  V30 3744 H 354.612 -5.22045 3.82202 0
M  V30 3745 N 354.744 -0.972509 -1.24016 0
M  V30 3746 C 355.674 -0.525548 -2.27509 0
M  V30 3747 C 356.655 0.437262 -1.64384 0
M  V30 3748 O 357.84 0.332343 -1.91335 0
M  V30 3749 C 354.97 0.180448 -3.46831 0
M  V30 3750 C 353.924 -0.698859 -4.22256 0
M  V30 3751 C 353.25 0.138903 -5.3452 0
M  V30 3752 C 354.55 -1.98582 -4.83076 0
M  V30 3753 H 356.244 -1.39058 -2.65148 0
M  V30 3754 H 353.79 -0.67009 -1.27459 0
M  V30 3755 H 355.743 0.504387 -4.18371 0
M  V30 3756 H 354.467 1.07987 -3.08231 0
M  V30 3757 H 353.126 -1.00614 -3.52523 0
M  V30 3758 H 352.774 1.03862 -4.9216 0
M  V30 3759 H 352.474 -0.446259 -5.85903 0
M  V30 3760 H 353.998 0.457404 -6.08884 0
M  V30 3761 H 355.412 -1.72715 -5.46665 0
M  V30 3762 H 353.809 -2.5181 -5.44713 0
M  V30 3763 H 354.879 -2.67769 -4.04262 0
M  V30 3764 N 356.222 1.38976 -0.743202 0
M  V30 3765 C 357.17 2.32394 -0.0978389 0
M  V30 3766 C 358.164 1.53486 0.716824 0
M  V30 3767 O 359.37 1.69092 0.617088 0
M  V30 3768 H 355.745 0.75189 -0.0128402 0
M  V30 3769 H 357.716 2.84441 -0.901981 0
M  V30 3770 C 356.465 3.38629 0.789036 0
M  V30 3771 H 355.788 3.99432 0.171559 0
M  V30 3772 H 357.228 4.06426 1.20807 0
M  V30 3773 C 355.687 2.76347 1.92702 0
M  V30 3774 O 356.217 2.64836 3.02034 0
M  V30 3775 N 354.423 2.34311 1.71891 0
M  V30 3776 H 353.97 2.43873 0.829675 0
M  V30 3777 H 353.928 1.9298 2.48205 0
M  V30 3778 N 357.7 0.491464 1.49741 0
M  V30 3779 C 359.116 0.146835 1.58923 0
M  V30 3780 C 359.316 -1.34804 1.49767 0
M  V30 3781 O 358.372 -2.12317 1.36667 0
M  V30 3782 C 359.685 0.715157 2.92072 0
M  V30 3783 C 361.233 0.680407 3.05515 0
M  V30 3784 C 361.708 1.22663 4.41269 0
M  V30 3785 N 363.199 1.18691 4.47735 0
M  V30 3786 C 363.934 1.57984 5.51207 0
M  V30 3787 N 363.43 2.04824 6.6183 0
M  V30 3788 N 365.223 1.49459 5.41866 0
M  V30 3789 H 357.374 1.46347 1.53936 0
M  V30 3790 H 359.637 0.606453 0.728642 0
M  V30 3791 H 359.343 1.76317 3.04311 0
M  V30 3792 H 359.217 0.17018 3.76816 0
M  V30 3793 H 361.604 -0.358743 2.92911 0
M  V30 3794 H 361.685 1.26242 2.22478 0
M  V30 3795 H 361.329 2.26451 4.54623 0
M  V30 3796 H 361.259 0.620637 5.2293 0
M  V30 3797 H 363.75 0.843605 3.68364 0
M  V30 3798 H 364.063 2.32901 7.3687 0
M  V30 3799 H 362.408 2.08791 6.62896 0
M  V30 3800 H 365.599 1.12692 4.54333 0
M  V30 3801 H 365.772 1.80406 6.22381 0
M  V30 3802 N 359.178 -1.55987 0.224894 0
M  V30 3803 C 360.088 -2.24066 -0.69511 0
M  V30 3804 C 361.104 -1.24939 -1.21104 0
M  V30 3805 O 362.28 -1.5776 -1.25195 0
M  V30 3806 C 359.345 -2.90983 -1.88493 0
M  V30 3807 C 358.406 -4.05462 -1.41064 0
M  V30 3808 C 357.639 -4.69179 -2.54375 0
M  V30 3809 O 357.862 -4.31895 -3.72589 0
M  V30 3810 O 356.796 -5.58108 -2.25386 0
M  V30 3811 H 360.622 -3.03353 -0.145149 0
M  V30 3812 H 358.207 -1.49399 -0.00569476 0
M  V30 3813 H 360.089 -3.33209 -2.57972 0
M  V30 3814 H 358.764 -2.14653 -2.42293 0
M  V30 3815 H 357.671 -3.67798 -0.683774 0
M  V30 3816 H 359.004 -4.83545 -0.918985 0
M  V30 3817 N 360.656 0.0484629 -1.57525 0
M  V30 3818 C 361.586 1.0549 -2.08313 0
M  V30 3819 C 362.567 1.38929 -0.981463 0
M  V30 3820 O 363.752 1.48151 -1.25558 0
M  V30 3821 C 360.882 2.36162 -2.54646 0
M  V30 3822 C 359.836 2.17016 -3.68901 0
M  V30 3823 C 359.162 3.53278 -4.01371 0
M  V30 3824 C 360.462 1.57219 -4.98076 0
M  V30 3825 H 362.156 0.632195 -2.92649 0
M  V30 3826 H 359.702 0.302654 -1.40784 0
M  V30 3827 H 361.655 3.06882 -2.88793 0
M  V30 3828 H 360.379 2.80456 -1.67368 0
M  V30 3829 H 359.038 1.48733 -3.35073 0
M  V30 3830 H 358.686 3.95185 -3.11188 0
M  V30 3831 H 358.386 3.41299 -4.78318 0
M  V30 3832 H 359.91 4.25391 -4.38035 0
M  V30 3833 H 361.324 2.17832 -5.30304 0
M  V30 3834 H 359.721 1.55871 -5.79503 0
M  V30 3835 H 360.791 0.535956 -4.81929 0
M  V30 3836 N 362.134 1.5431 0.320358 0
M  V30 3837 C 363.362 1.76636 1.07738 0
M  V30 3838 C 363.777 0.51649 1.81598 0
M  V30 3839 O 363.134 -0.512942 1.75143 0
M  V30 3840 C 363.185 2.96158 2.07299 0
M  V30 3841 O 362.906 4.16313 1.36438 0
M  V30 3842 C 364.407 3.3072 2.95193 0
M  V30 3843 H 361.627 0.589597 0.320339 0
M  V30 3844 H 364.171 2.01207 0.36551 0
M  V30 3845 H 362.326 2.73851 2.74016 0
M  V30 3846 H 362.74 4.83565 2.03138 0
M  V30 3847 H 364.214 4.17643 3.60941 0
M  V30 3848 H 364.691 2.48026 3.62463 0
M  V30 3849 H 365.297 3.55117 2.34034 0
M  V30 3850 N 363.613 -0.582584 1.46437 0
M  V30 3851 C 364.563 -1.68654 1.53426 0
M  V30 3852 C 365.547 -1.55971 0.395194 0
M  V30 3853 O 366.739 -1.64884 0.643612 0
M  V30 3854 C 363.868 -3.07439 1.52762 0
M  V30 3855 C 362.954 -3.25418 2.71963 0
M  V30 3856 N 363.345 -3.13556 3.96883 0
M  V30 3857 C 361.643 -3.56357 2.68189 0
M  V30 3858 C 362.344 -3.33543 4.76575 0
M  V30 3859 N 361.32 -3.58704 4.08451 0
M  V30 3860 H 365.122 -1.58014 2.47808 0
M  V30 3861 H 362.636 -0.786617 1.42078 0
M  V30 3862 H 364.633 -3.86671 1.55857 0
M  V30 3863 H 363.293 -3.1921 0.594573 0
M  V30 3864 H 364.304 -2.9142 4.28129 0
M  V30 3865 H 360.981 -3.74812 1.83908 0
M  V30 3866 H 362.371 -3.29555 5.85528 0
M  V30 3867 N 365.091 -1.34144 -0.827227 0
M  V30 3868 C 366.021 -1.28005 -1.95287 0
M  V30 3869 C 367.002 -0.158321 -1.69362 0
M  V30 3870 O 368.187 -0.349987 -1.9102 0
M  V30 3871 C 365.317 -1.03036 -3.31664 0
M  V30 3872 C 364.271 -2.11628 -3.72019 0
M  V30 3873 C 363.597 -1.71854 -5.0633 0
M  V30 3874 C 364.897 -3.53417 -3.8457 0
M  V30 3875 H 366.591 -2.22187 -2.00682 0
M  V30 3876 H 364.137 -1.0696 -0.964135 0
M  V30 3877 H 366.09 -0.973863 -4.09993 0
M  V30 3878 H 364.814 -0.0529391 -3.26557 0
M  V30 3879 H 363.473 -2.16339 -2.95961 0
M  V30 3880 H 363.121 -0.727841 -4.97706 0
M  V30 3881 H 362.821 -2.44531 -5.34302 0
M  V30 3882 H 364.345 -1.67692 -5.87122 0
M  V30 3883 H 365.759 -3.51142 -4.5318 0
M  V30 3884 H 364.156 -4.24679 -4.2399 0
M  V30 3885 H 365.226 -3.91072 -2.86689 0
M  V30 3886 N 366.569 1.04691 -1.17803 0
M  V30 3887 C 367.794 1.81984 -0.994813 0
M  V30 3888 C 368.219 1.82586 0.452112 0
M  V30 3889 O 367.577 1.23854 1.324 0
M  V30 3890 C 367.625 3.2575 -1.54659 0
M  V30 3891 O 366.729 4.05267 -0.763728 0
M  V30 3892 H 366.07 0.562483 -0.352857 0
M  V30 3893 H 368.6 1.3189 -1.56417 0
M  V30 3894 H 368.61 3.76541 -1.57102 0
M  V30 3895 H 367.285 3.24627 -2.59981 0
M  V30 3896 H 365.862 3.63972 -0.811108 0
M  V30 3897 N 368.047 0.979072 1.23499 0
M  V30 3898 C 368.957 0.526431 2.28617 0
M  V30 3899 C 369.973 -0.418126 1.68901 0
M  V30 3900 O 371.149 -0.288372 1.99325 0
M  V30 3901 C 368.214 -0.165235 3.46306 0
M  V30 3902 C 367.275 0.82056 4.21385 0
M  V30 3903 C 366.508 0.161807 5.33455 0
M  V30 3904 O 366.731 -1.04742 5.60701 0
M  V30 3905 O 365.665 0.859708 5.95729 0
M  V30 3906 H 369.491 1.4006 2.69475 0
M  V30 3907 H 367.076 0.746643 1.29405 0
M  V30 3908 H 368.958 -0.553287 4.17752 0
M  V30 3909 H 367.633 -1.01419 3.07402 0
M  V30 3910 H 366.54 1.25929 3.52268 0
M  V30 3911 H 367.873 1.63828 4.64135 0
M  V30 3912 N 369.525 -1.3858 0.750561 0
M  V30 3913 C 370.753 -2.04471 0.316098 0
M  V30 3914 C 371.168 -1.56606 -1.05452 0
M  V30 3915 O 370.525 -0.737784 -1.66922 0
M  V30 3916 C 370.576 -3.60025 0.326275 0
M  V30 3917 O 370.297 -4.06133 1.6428 0
M  V30 3918 C 371.798 -4.43131 -0.122429 0
M  V30 3919 H 369.018 -0.65717 0.135528 0
M  V30 3920 H 371.562 -1.77329 1.01857 0
M  V30 3921 H 369.717 -3.86014 -0.327431 0
M  V30 3922 H 370.131 -5.00547 1.56693 0
M  V30 3923 H 371.605 -5.51963 -0.0641473 0
M  V30 3924 H 372.082 -4.23333 -1.16988 0
M  V30 3925 H 372.688 -4.22323 0.50229 0
M  V30 3926 N 371.003 -0.499398 -1.49478 0
M  V30 3927 C 372.228 0.044722 -2.07352 0
M  V30 3928 C 372.653 1.30207 -1.35749 0
M  V30 3929 O 372.011 1.76516 -0.413732 0
M  V30 3930 C 372.059 0.283013 -3.59488 0
M  V30 3931 O 371.163 1.35804 -3.89398 0
M  V30 3932 H 370.504 -0.0255147 -0.66351 0
M  V30 3933 H 373.034 -0.698561 -1.92305 0
M  V30 3934 H 373.044 0.515007 -4.04737 0
M  V30 3935 H 371.719 -0.635636 -4.11014 0
M  V30 3936 H 370.296 1.11113 -3.55961 0
M  V30 3937 N 372.481 1.55866 -0.233164 0
M  V30 3938 C 373.897 1.59133 0.121988 0
M  V30 3939 C 374.097 1.25016 1.58029 0
M  V30 3940 O 373.153 0.990922 2.32243 0
M  V30 3941 C 374.466 2.99932 -0.214792 0
M  V30 3942 C 376.014 3.12601 -0.157971 0
M  V30 3943 C 376.489 4.55597 -0.46859 0
M  V30 3944 N 377.98 4.61305 -0.418585 0
M  V30 3945 C 378.715 5.69903 -0.63227 0
M  V30 3946 N 378.211 6.86819 -0.90835 0
M  V30 3947 N 380.004 5.59264 -0.563913 0
M  V30 3948 H 372.155 1.76315 -1.18434 0
M  V30 3949 H 374.418 0.820093 -0.475553 0
M  V30 3950 H 374.124 3.29588 -1.22739 0
M  V30 3951 H 373.998 3.74327 0.464691 0
M  V30 3952 H 376.385 2.82735 0.845283 0
M  V30 3953 H 376.466 2.40511 -0.871102 0
M  V30 3954 H 376.11 4.86182 -1.46934 0
M  V30 3955 H 376.04 5.25928 0.265865 0
M  V30 3956 H 378.531 3.77297 -0.213368 0
M  V30 3957 H 378.844 7.65507 -1.05919 0
M  V30 3958 H 377.189 6.88536 -0.945673 0
M  V30 3959 H 380.38 4.66802 -0.348372 0
M  V30 3960 H 380.553 6.43831 -0.733847 0
M  V30 3961 N 373.959 -0.0401083 1.57549 0
M  V30 3962 C 375.184 -0.748931 1.93406 0
M  V30 3963 C 375.609 -1.68686 0.832274 0
M  V30 3964 O 374.967 -1.80047 -0.212818 0
M  V30 3965 C 375.015 -1.4916 3.28304 0
M  V30 3966 O 374.119 -2.6042 3.19774 0
M  V30 3967 H 373.46 -0.202212 0.63246 0
M  V30 3968 H 375.99 0.00112086 2.046 0
M  V30 3969 H 376 -1.86395 3.62934 0
M  V30 3970 H 374.675 -0.80364 4.08062 0
M  V30 3971 H 373.252 -2.25808 2.96758 0
M  V30 3972 N 375.437 -1.54477 -0.31217 0
M  V30 3973 C 376.685 -1.72884 -1.04668 0
M  V30 3974 C 377.006 -0.511477 -1.88173 0
M  V30 3975 O 376.276 0.474407 -1.90069 0
M  V30 3976 H 374.856 -0.637461 -0.389425 0
M  V30 3977 H 377.518 -1.91807 -0.345852 0
M  V30 3978 H 376.614 -2.61334 -1.70619 0
M  V30 3979 N 376.915 0.57481 -1.46744 0
M  V30 3980 C 377.863 1.70435 -1.58286 0
M  V30 3981 C 378.857 1.63287 -0.450956 0
M  V30 3982 O 380.063 1.68685 -0.628121 0
M  V30 3983 H 376.438 0.56364 -0.497809 0
M  V30 3984 H 378.409 1.57833 -2.53242 0
M  V30 3985 C 377.158 3.08815 -1.59776 0
M  V30 3986 H 376.481 3.1499 -2.46214 0
M  V30 3987 H 377.921 3.87588 -1.71905 0
M  V30 3988 C 376.38 3.35301 -0.327812 0
M  V30 3989 O 376.91 3.97511 0.57861 0
M  V30 3990 N 375.116 2.89816 -0.213274 0
M  V30 3991 H 374.663 2.39371 -0.951798 0
M  V30 3992 H 374.621 3.0791 0.63553 0
M  V30 3993 N 378.394 1.34581 0.820102 0
M  V30 3994 C 379.326 1.22236 1.93884 0
M  V30 3995 C 380.339 0.148776 1.62119 0
M  V30 3996 O 381.528 0.400877 1.7394 0
M  V30 3997 C 378.628 0.856542 3.27897 0
M  V30 3998 C 377.801 2.02569 3.87666 0
M  V30 3999 C 376.86 1.63782 5.00062 0
M  V30 4000 O 375.886 2.35477 5.18208 0
M  V30 4001 N 377.088 0.553611 5.77854 0
M  V30 4002 H 379.853 2.18615 2.05006 0
M  V30 4003 H 377.414 1.27573 0.99683 0
M  V30 4004 H 379.406 0.578806 4.0054 0
M  V30 4005 H 377.976 -0.0171518 3.12595 0
M  V30 4006 H 377.196 2.468 3.07382 0
M  V30 4007 H 378.484 2.80752 4.24329 0
M  V30 4008 H 377.882 -0.0423528 5.65684 0
M  V30 4009 H 376.439 0.335614 6.50935 0
M  V30 4010 N 379.872 -1.04064 1.18357 0
M  V30 4011 C 381.118 -1.77528 0.980397 0
M  V30 4012 C 381.451 -1.87948 -0.48879 0
M  V30 4013 O 380.726 -1.3876 -1.36293 0
M  V30 4014 C 381.009 -3.20797 1.63588 0
M  V30 4015 C 380.862 -3.1832 3.17793 0
M  V30 4016 C 382.181 -4.18911 1.34914 0
M  V30 4017 H 379.3 -0.644443 0.357578 0
M  V30 4018 H 381.942 -1.2156 1.46024 0
M  V30 4019 H 380.092 -3.68586 1.22788 0
M  V30 4020 H 381.764 -2.78521 3.67728 0
M  V30 4021 H 380.007 -2.56351 3.49952 0
M  V30 4022 H 380.678 -4.19489 3.58794 0
M  V30 4023 H 383.154 -3.7967 1.70265 0
M  V30 4024 H 382.03 -5.17374 1.83346 0
M  V30 4025 H 382.291 -4.41262 0.272027 0
M  V30 4026 N 381.35 -0.985608 -1.22978 0
M  V30 4027 C 382.575 -0.675254 -1.961 0
M  V30 4028 C 383 0.752154 -1.72407 0
M  V30 4029 O 382.358 1.5131 -0.998751 0
M  V30 4030 C 382.406 -0.977899 -3.47087 0
M  V30 4031 O 381.51 -0.072685 -4.12336 0
M  V30 4032 H 380.851 -0.253443 -0.613728 0
M  V30 4033 H 383.381 -1.32061 -1.56272 0
M  V30 4034 H 383.391 -0.916739 -3.97567 0
M  V30 4035 H 382.066 -2.01807 -3.63657 0
M  V30 4036 H 380.643 -0.188703 -3.72422 0
M  V30 4037 N 382.828 1.3818 -0.7579 0
M  V30 4038 C 383.738 2.3421 -0.135247 0
M  V30 4039 C 384.754 1.59487 0.695683 0
M  V30 4040 O 385.93 1.91657 0.618832 0
M  V30 4041 C 382.995 3.3862 0.744139 0
M  V30 4042 C 382.056 4.2918 -0.101658 0
M  V30 4043 C 381.289 5.28603 0.735851 0
M  V30 4044 O 381.512 5.35166 1.97366 0
M  V30 4045 O 380.446 6.01707 0.152372 0
M  V30 4046 H 384.272 2.8916 -0.928436 0
M  V30 4047 H 381.857 1.40101 -0.518855 0
M  V30 4048 H 383.739 4.02539 1.2466 0
M  V30 4049 H 382.414 2.86019 1.51575 0
M  V30 4050 H 381.321 3.68407 -0.650167 0
M  V30 4051 H 382.654 4.85048 -0.836024 0
M  V30 4052 N 384.306 0.507319 1.49211 0
M  V30 4053 C 385.536 -0.0315292 2.06576 0
M  V30 4054 C 385.944 -1.30791 1.36713 0
M  V30 4055 O 385.287 -1.78324 0.441181 0
M  V30 4056 C 385.349 -0.349104 3.57801 0
M  V30 4057 C 385.013 0.830475 4.49391 0
M  V30 4058 C 386.01 1.72271 4.90529 0
M  V30 4059 C 383.695 1.03107 4.91604 0
M  V30 4060 C 385.689 2.79964 5.72625 0
M  V30 4061 C 383.376 2.11116 5.73475 0
M  V30 4062 C 384.374 2.99379 6.1389 0
M  V30 4063 O 384.062 4.05523 6.94123 0
M  V30 4064 H 383.794 0.0201002 0.675701 0
M  V30 4065 H 386.348 0.705737 1.92895 0
M  V30 4066 H 384.578 -1.14005 3.69513 0
M  V30 4067 H 386.267 -0.827319 3.97379 0
M  V30 4068 H 387.033 1.57958 4.58557 0
M  V30 4069 H 382.912 0.353417 4.59643 0
M  V30 4070 H 386.456 3.48884 6.04091 0
M  V30 4071 H 382.353 2.25421 6.0486 0
M  V30 4072 H 383.121 4.02953 7.1244 0
M  V30 4073 N 385.784 -1.5574 0.241426 0
M  V30 4074 C 387.033 -1.97986 -0.385295 0
M  V30 4075 C 387.346 -1.13267 -1.59468 0
M  V30 4076 O 388.552 -1.45501 -2.2922 0
M  V30 4077 C 387.008 -3.52275 -0.736884 0
M  V30 4078 C 386.616 -4.45726 0.450796 0
M  V30 4079 C 388.36 -4.03189 -1.3281 0
M  V30 4080 C 386.267 -5.91352 0.0756662 0
M  V30 4081 H 385.197 -0.739386 -0.147731 0
M  V30 4082 H 387.848 -1.80308 0.340779 0
M  V30 4083 H 386.23 -3.65628 -1.52094 0
M  V30 4084 H 387.404 -4.44131 1.22819 0
M  V30 4085 H 385.719 -4.05264 0.956573 0
M  V30 4086 H 388.316 -5.09505 -1.62201 0
M  V30 4087 H 388.659 -3.50212 -2.25071 0
M  V30 4088 H 389.192 -3.93141 -0.607069 0
M  V30 4089 H 385.931 -6.48354 0.965272 0
M  V30 4090 H 385.451 -5.96095 -0.665635 0
M  V30 4091 H 387.13 -6.46084 -0.344075 0
M  V30 4092 N 387.262 0.0317525 -1.57568 0
M  V30 4093 C 388.487 0.738664 -1.938 0
M  V30 4094 C 388.912 1.68242 -0.841208 0
M  V30 4095 O 388.27 1.80157 0.203267 0
M  V30 4096 C 388.318 1.47417 -3.29091 0
M  V30 4097 O 387.422 2.5872 -3.2115 0
M  V30 4098 H 386.763 0.198856 -0.633524 0
M  V30 4099 H 389.293 -0.0119713 -2.04596 0
M  V30 4100 H 389.303 1.84468 -3.63917 0
M  V30 4101 H 387.978 0.781988 -4.08482 0
M  V30 4102 H 386.555 2.24231 -2.97951 0
M  V30 4103 N 388.74 1.54641 0.303973 0
M  V30 4104 C 390.156 1.45788 0.649463 0
M  V30 4105 C 390.356 0.64666 1.90842 0
M  V30 4106 O 389.412 0.153183 2.52035 0
M  V30 4107 C 390.725 2.89718 0.805227 0
M  V30 4108 C 392.273 2.99742 0.901305 0
M  V30 4109 C 392.748 4.44863 1.08909 0
M  V30 4110 N 394.239 4.48559 1.15536 0
M  V30 4111 C 394.974 5.58026 1.3189 0
M  V30 4112 N 394.47 6.77422 1.45161 0
M  V30 4113 N 396.263 5.45708 1.34755 0
M  V30 4114 H 388.414 2.05854 -0.523237 0
M  V30 4115 H 390.677 0.932186 -0.172431 0
M  V30 4116 H 390.383 3.51666 -0.0489108 0
M  V30 4117 H 390.257 3.36964 1.69513 0
M  V30 4118 H 392.644 2.3791 1.74593 0
M  V30 4119 H 392.725 2.55797 -0.0125531 0
M  V30 4120 H 392.369 5.07288 0.249241 0
M  V30 4121 H 392.299 4.86436 2.01713 0
M  V30 4122 H 394.79 3.6254 1.06646 0
M  V30 4123 H 395.103 7.56604 1.57387 0
M  V30 4124 H 393.448 6.80292 1.42223 0
M  V30 4125 H 396.639 4.51378 1.23996 0
M  V30 4126 H 396.812 6.3107 1.47157 0
M  V30 4127 N 390.218 -0.567019 1.47046 0
M  V30 4128 C 391.446 -1.35027 1.56765 0
M  V30 4129 C 391.861 -1.8758 0.214316 0
M  V30 4130 O 391.218 -1.64471 -0.790919 0
M  V30 4131 C 391.269 -2.52698 2.58507 0
M  V30 4132 O 390.99 -2.0232 3.88585 0
M  V30 4133 C 392.491 -3.45043 2.78316 0
M  V30 4134 H 389.711 -0.41195 0.529658 0
M  V30 4135 H 392.255 -0.687832 1.92585 0
M  V30 4136 H 390.41 -3.149 2.25648 0
M  V30 4137 H 390.824 -2.79068 4.44096 0
M  V30 4138 H 392.298 -4.2405 3.53391 0
M  V30 4139 H 392.775 -3.97971 1.85784 0
M  V30 4140 H 393.381 -2.88665 3.12334 0
M  V30 4141 N 391.696 -1.35014 -0.812953 0
M  V30 4142 C 392.943 -1.27931 -1.56971 0
M  V30 4143 C 393.271 0.148034 -1.93936 0
M  V30 4144 O 392.526 1.11175 -1.61054 0
M  V30 4145 C 392.825 -2.12524 -2.87347 0
M  V30 4146 C 392.491 -3.61401 -2.6963 0
M  V30 4147 C 391.153 -4.01983 -2.64506 0
M  V30 4148 C 393.505 -4.55894 -2.52607 0
M  V30 4149 C 390.833 -5.35235 -2.40293 0
M  V30 4150 C 393.185 -5.89336 -2.29925 0
M  V30 4151 C 391.849 -6.2907 -2.23219 0
M  V30 4152 H 391.119 -0.468131 -0.574399 0
M  V30 4153 H 393.766 -1.66851 -0.939836 0
M  V30 4154 H 392.071 -1.66463 -3.54679 0
M  V30 4155 H 393.768 -2.04383 -3.45005 0
M  V30 4156 H 390.358 -3.29193 -2.74463 0
M  V30 4157 H 394.542 -4.25431 -2.55583 0
M  V30 4158 H 389.798 -5.65028 -2.33566 0
M  V30 4159 H 393.972 -6.62139 -2.15743 0
M  V30 4160 H 391.599 -7.32256 -2.04219 0
M  V30 4161 N 393.175 1.03435 -1.18907 0
M  V30 4162 C 394.105 2.13503 -0.945448 0
M  V30 4163 C 395.086 1.69682 0.119189 0
M  V30 4164 O 396.271 1.94169 -0.034707 0
M  V30 4165 C 393.401 3.44004 -0.477316 0
M  V30 4166 C 392.355 4.0148 -1.48316 0
M  V30 4167 C 391.681 5.27537 -0.872311 0
M  V30 4168 C 392.981 4.36921 -2.86177 0
M  V30 4169 H 394.675 2.34141 -1.86597 0
M  V30 4170 H 392.221 1.12523 -0.898584 0
M  V30 4171 H 394.174 4.20372 -0.294204 0
M  V30 4172 H 392.898 3.23072 0.478786 0
M  V30 4173 H 391.557 3.27201 -1.65332 0
M  V30 4174 H 391.205 5.02917 0.0911752 0
M  V30 4175 H 390.905 5.66954 -1.54393 0
M  V30 4176 H 392.429 6.06576 -0.699871 0
M  V30 4177 H 393.843 5.04248 -2.72776 0
M  V30 4178 H 392.24 4.87405 -3.50081 0
M  V30 4179 H 393.31 3.46466 -3.39248 0
M  V30 4180 N 394.653 0.992116 1.22453 0
M  V30 4181 C 395.93 0.583508 1.86694 0
M  V30 4182 C 396.31 -0.9392 1.89056 0
M  V30 4183 O 395.658 -1.82081 1.38053 0
M  V30 4184 C 395.868 1.20304 3.2761 0
M  V30 4185 C 397.216 1.30308 4.0411 0
M  V30 4186 O 398.24 1.15737 3.36873 0
M  V30 4187 O 397.099 1.53615 5.24466 0
M  V30 4188 H 394.193 0.198129 0.802916 0
M  V30 4189 H 396.739 1.08794 1.30238 0
M  V30 4190 H 395.511 2.24461 3.2052 0
M  V30 4191 H 395.134 0.684144 3.9167 0
M  V30 4192 N 396.131 -1.37776 0.765217 0
M  V30 4193 C 397.063 -2.28958 0.105361 0
M  V30 4194 C 398.076 -1.48316 -0.67128 0
M  V30 4195 O 399.265 -1.71046 -0.51045 0
M  V30 4196 C 396.365 -3.27421 -0.874569 0
M  V30 4197 C 395.538 -4.37132 -0.153123 0
M  V30 4198 C 394.597 -5.1571 -1.04547 0
M  V30 4199 O 393.623 -5.66896 -0.511672 0
M  V30 4200 N 394.825 -5.29808 -2.37243 0
M  V30 4201 H 397.59 -2.86227 0.888495 0
M  V30 4202 H 395.151 -1.49682 0.617 0
M  V30 4203 H 397.143 -3.7687 -1.47483 0
M  V30 4204 H 395.713 -2.70967 -1.55871 0
M  V30 4205 H 394.933 -3.89166 0.627975 0
M  V30 4206 H 396.221 -5.07625 0.345643 0
M  V30 4207 H 395.619 -4.89793 -2.83054 0
M  V30 4208 H 394.176 -5.82589 -2.9229 0
M  V30 4209 N 397.609 -0.515225 -1.4894 0
M  V30 4210 C 398.541 0.292481 -2.27326 0
M  V30 4211 C 399.554 0.917838 -1.3446 0
M  V30 4212 O 400.743 0.798772 -1.5963 0
M  V30 4213 C 397.843 1.42803 -3.07344 0
M  V30 4214 C 397.016 0.907347 -4.27885 0
M  V30 4215 C 396.075 1.92222 -4.89834 0
M  V30 4216 O 395.101 1.48506 -5.49486 0
M  V30 4217 N 396.303 3.25355 -4.80754 0
M  V30 4218 H 399.068 -0.379721 -2.97285 0
M  V30 4219 H 396.629 -0.348638 -1.58102 0
M  V30 4220 H 398.621 2.10481 -3.45658 0
M  V30 4221 H 397.191 2.00414 -2.39902 0
M  V30 4222 H 396.411 0.0550218 -3.94162 0
M  V30 4223 H 397.699 0.538108 -5.05946 0
M  V30 4224 H 397.097 3.6355 -4.33414 0
M  V30 4225 H 395.654 3.88707 -5.23211 0
M  V30 4226 N 399.087 1.5561 -0.249682 0
M  V30 4227 C 400.315 2.03411 0.378352 0
M  V30 4228 C 400.73 1.12886 1.51335 0
M  V30 4229 O 400.087 0.143833 1.81932 0
M  V30 4230 C 400.138 3.50537 0.88351 0
M  V30 4231 O 399.859 4.37614 -0.20626 0
M  V30 4232 C 401.36 4.14113 1.58195 0
M  V30 4233 H 398.58 0.664994 0.08958 0
M  V30 4234 H 401.124 2.01044 -0.374357 0
M  V30 4235 H 399.279 3.5343 1.58639 0
M  V30 4236 H 399.693 5.24199 0.177782 0
M  V30 4237 H 401.167 5.18741 1.8871 0
M  V30 4238 H 401.644 3.60767 2.50487 0
M  V30 4239 H 402.25 4.15151 0.923573 0
M  V30 4240 N 400.565 -0.0233959 1.57583 0
M  V30 4241 C 401.475 -1.03907 2.10334 0
M  V30 4242 C 402.491 -1.39257 1.04323 0
M  V30 4243 O 403.667 -1.48462 1.36091 0
M  V30 4244 C 400.732 -2.31938 2.57693 0
M  V30 4245 C 399.793 -2.03117 3.78209 0
M  V30 4246 C 399.026 -3.25043 4.233 0
M  V30 4247 O 399.249 -4.35916 3.67876 0
M  V30 4248 O 398.183 -3.10411 5.15683 0
M  V30 4249 H 402.009 -0.620748 2.97288 0
M  V30 4250 H 399.594 -0.240743 1.47448 0
M  V30 4251 H 401.476 -3.07196 2.88458 0
M  V30 4252 H 400.151 -2.73055 1.73847 0
M  V30 4253 H 399.058 -1.25408 3.52454 0
M  V30 4254 H 400.391 -1.66852 4.63056 0
M  V30 4255 N 402.043 -1.548 -0.295768 0
M  V30 4256 C 403.289 -1.74588 -1.03184 0
M  V30 4257 C 403.622 -0.532962 -1.86744 0
M  V30 4258 O 402.897 0.469872 -1.88739 0
M  V30 4259 C 403.18 -3.03791 -1.93347 0
M  V30 4260 C 403.033 -4.35392 -1.12933 0
M  V30 4261 C 404.352 -3.28892 -2.92435 0
M  V30 4262 H 401.471 -0.635221 -0.373715 0
M  V30 4263 H 404.113 -1.87519 -0.30606 0
M  V30 4264 H 402.263 -2.92898 -2.55232 0
M  V30 4265 H 403.935 -4.58211 -0.532943 0
M  V30 4266 H 402.178 -4.31642 -0.432168 0
M  V30 4267 H 402.849 -5.22074 -1.79284 0
M  V30 4268 H 405.325 -3.39429 -2.4068 0
M  V30 4269 H 404.201 -4.20603 -3.52682 0
M  V30 4270 H 404.462 -2.47437 -3.6637 0
M  V30 4271 N 403.521 0.559213 -1.47345 0
M  V30 4272 C 404.431 1.69388 -1.62311 0
M  V30 4273 C 405.447 1.6648 -0.505993 0
M  V30 4274 O 406.623 1.85964 -0.773262 0
M  V30 4275 C 403.688 3.05894 -1.63185 0
M  V30 4276 C 402.749 3.19885 -2.86307 0
M  V30 4277 C 401.982 4.49879 -2.87131 0
M  V30 4278 O 402.205 5.35217 -1.97229 0
M  V30 4279 O 401.139 4.67618 -3.78968 0
M  V30 4280 H 404.965 1.59706 -2.58317 0
M  V30 4281 H 402.55 0.728989 -1.30407 0
M  V30 4282 H 404.432 3.87133 -1.66451 0
M  V30 4283 H 403.107 3.15964 -0.70345 0
M  V30 4284 H 402.014 2.38052 -2.88587 0
M  V30 4285 H 403.347 3.14718 -3.78435 0
M  V30 4286 N 404.999 1.35443 0.805782 0
M  V30 4287 C 405.929 1.31095 1.93226 0
M  V30 4288 C 406.91 0.185244 1.69088 0
M  V30 4289 O 408.095 0.380332 1.90439 0
M  V30 4290 C 405.225 1.08299 3.29983 0
M  V30 4291 C 404.179 2.17519 3.68605 0
M  V30 4292 C 403.505 1.79887 5.03532 0
M  V30 4293 C 404.805 3.5949 3.78898 0
M  V30 4294 H 406.499 2.25352 1.97122 0
M  V30 4295 H 404.045 1.0848 0.946996 0
M  V30 4296 H 405.998 1.03897 4.08391 0
M  V30 4297 H 404.722 0.104885 3.26432 0
M  V30 4298 H 403.381 2.2102 2.92482 0
M  V30 4299 H 403.029 0.80693 4.96485 0
M  V30 4300 H 402.729 2.53001 5.30344 0
M  V30 4301 H 404.253 1.77011 5.84379 0
M  V30 4302 H 405.667 3.58307 4.47536 0
M  V30 4303 H 404.064 4.31371 4.1718 0
M  V30 4304 H 405.134 3.95584 2.80431 0
M  V30 4305 N 406.477 -1.02803 1.19454 0
M  V30 4306 C 407.888 -1.57667 0.999899 0
M  V30 4307 C 408.239 -1.91041 -0.446956 0
M  V30 4308 O 407.364 -1.70978 -1.32648 0
M  V30 4309 C 407.959 -2.86477 1.80877 0
M  V30 4310 C 406.518 -3.37911 1.65811 0
M  V30 4311 C 405.665 -2.11343 1.79526 0
M  V30 4312 H 408.616 -0.853214 1.33813 0
M  V30 4313 H 408.637 -3.57408 1.30536 0
M  V30 4314 H 408.149 -2.62155 2.86175 0
M  V30 4315 H 406.25 -3.67218 0.63102 0
M  V30 4316 H 406.363 -4.10885 2.46395 0
M  V30 4317 H 404.727 -2.23254 1.22596 0
M  V30 4318 H 405.51 -1.89461 2.86285 0
M  V30 4319 N 407.956 -0.998596 -1.21925 0
M  V30 4320 C 408.903 -0.553621 -2.24062 0
M  V30 4321 C 409.873 0.416999 -1.6078 0
M  V30 4322 O 411.058 0.320482 -1.88089 0
M  V30 4323 C 408.198 0.119959 -3.44891 0
M  V30 4324 C 407.311 -0.893077 -4.22668 0
M  V30 4325 C 406.446 -0.192424 -5.30851 0
M  V30 4326 C 405.485 -1.19344 -6.00353 0
M  V30 4327 N 404.622 -0.520707 -7.00166 0
M  V30 4328 H 409.462 -1.4293 -2.61486 0
M  V30 4329 H 406.999 -0.715838 -1.28507 0
M  V30 4330 H 408.957 0.527459 -4.13852 0
M  V30 4331 H 407.587 0.959389 -3.08214 0
M  V30 4332 H 406.639 -1.41886 -3.52948 0
M  V30 4333 H 407.951 -1.65512 -4.70539 0
M  V30 4334 H 407.105 0.271515 -6.06092 0
M  V30 4335 H 405.844 0.602075 -4.83969 0
M  V30 4336 H 404.849 -1.66795 -5.23889 0
M  V30 4337 H 406.074 -1.98891 -6.49322 0
M  V30 4338 H 404.02 0.254252 -6.55507 0
M  V30 4339 H 403.937 -1.2211 -7.46073 0
M  V30 4340 H 405.205 -0.0797596 -7.79459 0
M  V30 4341 N 409.434 1.37368 -0.772513 0
M  V30 4342 C 410.68 1.99969 -0.337681 0
M  V30 4343 C 411.013 1.61184 1.08321 0
M  V30 4344 O 410.288 0.858395 1.74533 0
M  V30 4345 C 410.571 3.56858 -0.482121 0
M  V30 4346 C 410.424 4.0555 -1.94549 0
M  V30 4347 C 411.743 4.39955 0.113143 0
M  V30 4348 H 408.862 0.726464 -0.124171 0
M  V30 4349 H 411.504 1.63034 -0.975699 0
M  V30 4350 H 409.654 3.88452 0.0610361 0
M  V30 4351 H 411.326 3.84518 -2.54841 0
M  V30 4352 H 409.569 3.57715 -2.45403 0
M  V30 4353 H 410.24 5.14587 -1.9976 0
M  V30 4354 H 412.716 4.14623 -0.35031 0
M  V30 4355 H 411.592 5.48897 -0.0180514 0
M  V30 4356 H 411.853 4.25403 1.20354 0
M  V30 4357 N 410.912 0.523116 1.48665 0
M  V30 4358 C 412.14 -0.0096312 2.06898 0
M  V30 4359 C 412.555 -1.28784 1.38059 0
M  V30 4360 O 411.912 -1.76453 0.465893 0
M  V30 4361 C 411.963 -0.244386 3.60673 0
M  V30 4362 O 411.684 0.983172 4.26925 0
M  V30 4363 C 413.185 -0.818289 4.35682 0
M  V30 4364 H 410.405 0.0304161 0.67031 0
M  V30 4365 H 412.949 0.726799 1.91149 0
M  V30 4366 H 411.104 -0.930847 3.76051 0
M  V30 4367 H 411.518 0.759653 5.1897 0
M  V30 4368 H 412.992 -0.93201 5.44075 0
M  V30 4369 H 413.469 -1.82153 3.99646 0
M  V30 4370 H 414.075 -0.168609 4.24966 0
M  V30 4371 N 412.39 -1.55475 0.257931 0
M  V30 4372 C 413.353 -2.20551 -0.623706 0
M  V30 4373 C 414.353 -1.17809 -1.09443 0
M  V30 4374 O 415.543 -1.42823 -0.997362 0
M  V30 4375 C 412.675 -2.85784 -1.8585 0
M  V30 4376 H 413.868 -2.99848 -0.0557743 0
M  V30 4377 H 411.421 -1.56298 0.0084422 0
M  V30 4378 H 412.156 -2.10453 -2.46739 0
M  V30 4379 H 411.941 -3.61057 -1.52907 0
M  V30 4380 H 413.431 -3.35553 -2.48584 0
M  V30 4381 N 413.868 0.0150385 -1.57593 0
M  V30 4382 C 414.778 1.02791 -2.10882 0
M  V30 4383 C 415.794 1.38702 -1.0506 0
M  V30 4384 O 416.97 1.47739 -1.36877 0
M  V30 4385 C 414.035 2.30568 -2.58919 0
M  V30 4386 C 413.096 2.01108 -3.79281 0
M  V30 4387 C 412.329 3.22794 -4.25018 0
M  V30 4388 O 412.552 4.33959 -3.70183 0
M  V30 4389 O 411.486 3.07672 -5.17322 0
M  V30 4390 H 415.312 0.604973 -2.97613 0
M  V30 4391 H 412.897 0.23292 -1.47573 0
M  V30 4392 H 414.779 3.05662 -2.90084 0
M  V30 4393 H 413.454 2.72129 -1.75293 0
M  V30 4394 H 412.361 1.23537 -3.53114 0
M  V30 4395 H 413.694 1.64394 -4.63935 0
M  V30 4396 N 415.346 1.54954 0.287554 0
M  V30 4397 C 416.256 1.8991 1.37736 0
M  V30 4398 C 417.272 0.794701 1.54792 0
M  V30 4399 O 418.448 1.09243 1.69198 0
M  V30 4400 C 415.513 2.15108 2.71899 0
M  V30 4401 C 414.574 3.38752 2.63715 0
M  V30 4402 C 413.807 3.62739 3.91479 0
M  V30 4403 O 414.03 2.89492 4.91478 0
M  V30 4404 O 412.964 4.56267 3.92561 0
M  V30 4405 H 416.79 2.82652 1.11092 0
M  V30 4406 H 414.375 1.41315 0.484807 0
M  V30 4407 H 416.257 2.32806 3.51254 0
M  V30 4408 H 414.932 1.25551 2.9836 0
M  V30 4409 H 413.839 3.26405 1.82786 0
M  V30 4410 H 415.172 4.28483 2.42205 0
M  V30 4411 N 416.824 -0.551391 1.4764 0
M  V30 4412 C 417.787 -1.64007 1.60107 0
M  V30 4413 C 418.787 -1.53601 0.47576 0
M  V30 4414 O 419.977 -1.57655 0.740988 0
M  V30 4415 C 417.109 -3.03569 1.55108 0
M  V30 4416 H 418.302 -1.543 2.57161 0
M  V30 4417 H 415.855 -0.771776 1.35917 0
M  V30 4418 H 416.59 -3.18804 0.594519 0
M  V30 4419 H 416.375 -3.12532 2.36783 0
M  V30 4420 H 417.865 -3.82762 1.66982 0
M  V30 4421 N 418.302 -1.35869 -0.798587 0
M  V30 4422 C 419.713 -1.26498 -1.37314 0
M  V30 4423 C 420.064 0.0991899 -1.95949 0
M  V30 4424 O 419.189 1.0004 -1.91888 0
M  V30 4425 C 419.784 -2.29054 -2.49639 0
M  V30 4426 C 418.343 -2.234 -3.02935 0
M  V30 4427 C 417.49 -2.14329 -1.75949 0
M  V30 4428 H 420.441 -1.46881 -0.600971 0
M  V30 4429 H 420.462 -1.92166 -3.28409 0
M  V30 4430 H 419.974 -3.2833 -2.06933 0
M  V30 4431 H 418.075 -1.27562 -3.50084 0
M  V30 4432 H 418.188 -3.15703 -3.60372 0
M  V30 4433 H 416.552 -1.60435 -1.9782 0
M  V30 4434 H 417.335 -3.15477 -1.35384 0
M  V30 4435 N 419.78 1.02168 -1.19998 0
M  V30 4436 C 420.712 2.10705 -0.901994 0
M  V30 4437 C 421.725 1.6244 0.108216 0
M  V30 4438 O 422.914 1.78082 -0.12214 0
M  V30 4439 C 420.014 3.37291 -0.329834 0
M  V30 4440 C 419.187 4.14714 -1.39035 0
M  V30 4441 C 418.246 5.19606 -0.830432 0
M  V30 4442 O 417.272 5.48809 -1.50989 0
M  V30 4443 N 418.474 5.79366 0.362696 0
M  V30 4444 H 421.239 2.36856 -1.83628 0
M  V30 4445 H 418.8 1.18518 -1.10296 0
M  V30 4446 H 420.792 4.04657 0.0587633 0
M  V30 4447 H 419.362 3.0843 0.508891 0
M  V30 4448 H 418.582 3.42392 -1.9535 0
M  V30 4449 H 419.87 4.63226 -2.10474 0
M  V30 4450 H 419.268 5.57968 0.932081 0
M  V30 4451 H 417.825 6.48106 0.69299 0
M  V30 4452 N 421.258 1.00505 1.21394 0
M  V30 4453 C 422.669 0.721082 1.72213 0
M  V30 4454 C 423.02 -0.761263 1.80829 0
M  V30 4455 O 422.145 -1.59464 1.46288 0
M  V30 4456 C 422.74 1.30228 3.12772 0
M  V30 4457 C 421.299 1.06743 3.60947 0
M  V30 4458 C 420.446 1.41507 2.38477 0
M  V30 4459 H 423.397 1.17594 1.06571 0
M  V30 4460 H 423.418 0.686955 3.74247 0
M  V30 4461 H 422.93 2.38115 3.06468 0
M  V30 4462 H 421.031 0.00572162 3.726 0
M  V30 4463 H 421.144 1.73936 4.46411 0
M  V30 4464 H 419.508 0.833852 2.40664 0
M  V30 4465 H 420.291 2.50424 2.34824 0
M  V30 4466 N 422.737 -1.36956 0.779787 0
M  V30 4467 C 423.67 -2.27896 0.117681 0
M  V30 4468 C 424.648 -1.46736 -0.700523 0
M  V30 4469 O 425.832 -1.76055 -0.673568 0
M  V30 4470 C 422.959 -3.28136 -0.839296 0
M  V30 4471 C 422.005 -4.26373 -0.10409 0
M  V30 4472 S 422.838 -5.2157 1.21348 0
M  V30 4473 C 423.994 -6.25359 0.260249 0
M  V30 4474 H 424.227 -2.83704 0.888778 0
M  V30 4475 H 421.76 -1.43352 0.57355 0
M  V30 4476 H 423.718 -3.86394 -1.38601 0
M  V30 4477 H 422.379 -2.7126 -1.58356 0
M  V30 4478 H 421.572 -4.97121 -0.82986 0
M  V30 4479 H 421.174 -3.72147 0.371858 0
M  V30 4480 H 423.466 -6.75145 -0.564435 0
M  V30 4481 H 424.409 -7.01885 0.936135 0
M  V30 4482 H 424.817 -5.64345 -0.132127 0
M  V30 4483 N 424.215 -0.530993 -1.48385 0
M  V30 4484 C 425.44 0.000729535 -2.074 0
M  V30 4485 C 425.865 1.27298 -1.3848 0
M  V30 4486 O 425.223 1.75599 -0.451081 0
M  V30 4487 C 425.271 0.206697 -3.60007 0
M  V30 4488 O 424.375 1.27514 -3.92191 0
M  V30 4489 H 423.716 -0.039583 -0.662819 0
M  V30 4490 H 426.246 -0.739194 -1.9078 0
M  V30 4491 H 426.256 0.42904 -4.05738 0
M  V30 4492 H 424.931 -0.722675 -4.09573 0
M  V30 4493 H 423.508 1.03537 -3.58238 0
M  V30 4494 N 425.693 1.55336 -0.266172 0
M  V30 4495 C 427.109 1.59356 0.0882065 0
M  V30 4496 C 427.309 1.2834 1.55342 0
M  V30 4497 O 426.365 1.03996 2.30089 0
M  V30 4498 C 427.678 2.99409 -0.278364 0
M  V30 4499 C 429.226 3.12196 -0.224243 0
M  V30 4500 C 429.701 4.545 -0.565123 0
M  V30 4501 N 431.192 4.60313 -0.51634 0
M  V30 4502 C 431.927 5.68434 -0.753013 0
M  V30 4503 N 431.423 6.84738 -1.05383 0
M  V30 4504 N 433.216 5.57942 -0.682414 0
M  V30 4505 H 425.367 1.73764 -1.22147 0
M  V30 4506 H 427.63 0.809822 -0.492841 0
M  V30 4507 H 427.336 3.2691 -1.29703 0
M  V30 4508 H 427.21 3.75228 0.385186 0
M  V30 4509 H 429.597 2.84464 0.78512 0
M  V30 4510 H 429.678 2.38609 -0.921922 0
M  V30 4511 H 429.322 4.82956 -1.57213 0
M  V30 4512 H 429.252 5.26374 0.154248 0
M  V30 4513 H 431.743 3.7676 -0.29335 0
M  V30 4514 H 432.056 7.63088 -1.22133 0
M  V30 4515 H 430.401 6.86375 -1.09151 0
M  V30 4516 H 433.592 4.65958 -0.44731 0
M  V30 4517 H 433.765 6.4213 -0.870248 0
M  V30 4518 N 427.171 -0.0066808 1.57599 0
M  V30 4519 C 428.42 -0.692078 1.89455 0
M  V30 4520 C 428.733 -1.75306 0.867586 0
M  V30 4521 O 429.939 -2.49262 1.07614 0
M  V30 4522 C 428.395 -1.2821 3.36289 0
M  V30 4523 C 428.003 -0.256291 4.47266 0
M  V30 4524 C 429.747 -1.94608 3.77264 0
M  V30 4525 C 427.654 -0.855927 5.85173 0
M  V30 4526 H 426.584 -0.262252 0.706923 0
M  V30 4527 H 429.235 0.052769 1.83424 0
M  V30 4528 H 427.617 -2.0774 3.37135 0
M  V30 4529 H 428.791 0.513923 4.57925 0
M  V30 4530 H 427.106 0.306862 4.15268 0
M  V30 4531 H 429.703 -2.40364 4.77629 0
M  V30 4532 H 430.046 -2.77382 3.10427 0
M  V30 4533 H 430.579 -1.21822 3.78688 0
M  V30 4534 H 427.318 -0.0671161 6.55466 0
M  V30 4535 H 426.838 -1.59546 5.78191 0
M  V30 4536 H 428.517 -1.35658 6.32618 0
M  V30 4537 N 428.649 -1.55105 -0.279332 0
M  V30 4538 C 429.874 -1.7976 -1.03446 0
M  V30 4539 C 430.299 -0.565952 -1.79384 0
M  V30 4540 O 429.657 0.484259 -1.74713 0
M  V30 4541 C 429.705 -3.0179 -1.97371 0
M  V30 4542 O 428.809 -2.76432 -3.06038 0
M  V30 4543 H 428.15 -0.594334 -0.29608 0
M  V30 4544 H 430.68 -2.02235 -0.310165 0
M  V30 4545 H 430.69 -3.30351 -2.39441 0
M  V30 4546 H 429.365 -3.91085 -1.4151 0
M  V30 4547 H 427.942 -2.58949 -2.68328 0
M  V30 4548 N 430.127 0.543554 -1.4793 0
M  V30 4549 C 431.375 1.29752 -1.54948 0
M  V30 4550 C 431.696 1.93764 -0.219242 0
M  V30 4551 O 430.966 1.80639 0.75805 0
M  V30 4552 H 429.546 0.481874 -0.570795 0
M  V30 4553 H 432.208 0.633636 -1.84312 0
M  V30 4554 H 431.304 2.08392 -2.32334 0
M  V30 4555 N 431.605 1.3629 0.791371 0
M  V30 4556 C 432.535 1.33137 1.91825 0
M  V30 4557 C 433.516 0.203168 1.68882 0
M  V30 4558 O 434.701 0.400509 1.90025 0
M  V30 4559 C 431.831 1.11793 3.28816 0
M  V30 4560 C 430.785 2.21417 3.66277 0
M  V30 4561 C 430.111 1.85218 5.01596 0
M  V30 4562 C 431.411 3.63489 3.75064 0
M  V30 4563 H 433.105 2.2743 1.9472 0
M  V30 4564 H 430.651 1.09479 0.935437 0
M  V30 4565 H 432.604 1.08222 4.07266 0
M  V30 4566 H 431.328 0.139501 3.26302 0
M  V30 4567 H 429.987 2.2411 2.90121 0
M  V30 4568 H 429.635 0.859544 4.95602 0
M  V30 4569 H 429.335 2.58611 5.27631 0
M  V30 4570 H 430.859 1.832 5.82469 0
M  V30 4571 H 432.273 3.63034 4.43711 0
M  V30 4572 H 430.67 4.35771 4.12582 0
M  V30 4573 H 431.74 3.98536 2.76219 0
M  V30 4574 N 433.083 -1.0153 1.20538 0
M  V30 4575 C 434.033 -2.08482 0.922991 0
M  V30 4576 C 435.017 -1.60469 -0.117702 0
M  V30 4577 O 436.209 -1.76772 0.0898465 0
M  V30 4578 C 433.338 -3.39952 0.478312 0
M  V30 4579 C 432.424 -3.94662 1.5525 0
M  V30 4580 N 432.815 -4.22866 2.77521 0
M  V30 4581 C 431.113 -4.22825 1.41897 0
M  V30 4582 C 431.814 -4.67002 3.4682 0
M  V30 4583 N 430.79 -4.69356 2.74237 0
M  V30 4584 H 434.592 -2.28199 1.85209 0
M  V30 4585 H 432.106 -1.19512 1.09957 0
M  V30 4586 H 434.103 -4.16105 0.257408 0
M  V30 4587 H 432.763 -3.21648 -0.444148 0
M  V30 4588 H 433.774 -4.11732 3.1416 0
M  V30 4589 H 430.451 -4.13714 0.561015 0
M  V30 4590 H 431.841 -4.97632 4.51455 0
M  V30 4591 N 434.561 -1.01147 -1.20859 0
M  V30 4592 C 435.809 -0.696486 -1.89719 0
M  V30 4593 C 436.13 0.775788 -1.78904 0
M  V30 4594 O 435.4 1.55759 -1.18811 0
M  V30 4595 H 433.98 -0.254628 -0.702263 0
M  V30 4596 H 436.642 -1.28197 -1.46804 0
M  V30 4597 H 435.738 -0.975357 -2.96468 0
M  V30 4598 N 436.039 1.36541 -0.78704 0
M  V30 4599 C 436.969 2.32659 -0.197992 0
M  V30 4600 C 437.95 1.56533 0.665697 0
M  V30 4601 O 439.135 1.84698 0.60001 0
M  V30 4602 C 436.265 3.40778 0.669901 0
M  V30 4603 C 435.219 4.27897 -0.0937039 0
M  V30 4604 C 434.545 5.27163 0.894629 0
M  V30 4605 C 435.845 5.06334 -1.28154 0
M  V30 4606 H 437.539 2.82171 -1.00099 0
M  V30 4607 H 435.085 1.35665 -0.482793 0
M  V30 4608 H 437.038 4.07008 1.09191 0
M  V30 4609 H 435.762 2.89827 1.50558 0
M  V30 4610 H 434.421 3.6322 -0.49666 0
M  V30 4611 H 434.069 4.72486 1.72527 0
M  V30 4612 H 433.769 5.86317 0.388149 0
M  V30 4613 H 435.293 5.96266 1.31525 0
M  V30 4614 H 436.707 5.65617 -0.93541 0
M  V30 4615 H 435.104 5.74888 -1.72115 0
M  V30 4616 H 436.174 4.38114 -2.07807 0
M  V30 4617 N 437.518 0.538854 1.48102 0
M  V30 4618 C 438.758 0.0101209 2.04397 0
M  V30 4619 C 439.122 -1.30741 1.40609 0
M  V30 4620 O 440.323 -1.92272 1.87843 0
M  V30 4621 C 438.594 -0.100232 3.57259 0
M  V30 4622 S 440.153 -0.577746 4.3498 0
M  V30 4623 H 436.971 0.0163171 0.710813 0
M  V30 4624 H 439.573 0.721429 1.81702 0
M  V30 4625 H 438.277 0.863351 4.01216 0
M  V30 4626 H 437.808 -0.835651 3.84422 0
M  V30 4627 H 439.823 -1.84073 4.60794 0
M  V30 4628 N 438.996 -1.55193 0.274407 0
M  V30 4629 C 439.946 -2.19184 -0.627882 0
M  V30 4630 C 440.93 -1.15625 -1.11892 0
M  V30 4631 O 442.122 -1.41441 -1.06411 0
M  V30 4632 C 439.251 -2.91591 -1.81189 0
M  V30 4633 C 438.337 -4.02438 -1.33807 0
M  V30 4634 N 438.728 -5.0246 -0.580349 0
M  V30 4635 C 437.026 -4.15496 -1.62109 0
M  V30 4636 C 437.727 -5.80756 -0.331344 0
M  V30 4637 N 436.703 -5.36038 -0.903556 0
M  V30 4638 H 440.505 -2.93871 -0.0411216 0
M  V30 4639 H 438.019 -1.62213 0.0779348 0
M  V30 4640 H 440.016 -3.35883 -2.46957 0
M  V30 4641 H 438.676 -2.18414 -2.40261 0
M  V30 4642 H 439.687 -5.17399 -0.227762 0
M  V30 4643 H 436.364 -3.53509 -2.22121 0
M  V30 4644 H 437.754 -6.71335 0.275454 0
M  V30 4645 N 440.474 -0.00167713 -1.576 0
M  V30 4646 C 441.699 0.69739 -1.95323 0
M  V30 4647 C 442.124 1.6642 -0.876706 0
M  V30 4648 O 441.482 1.80548 0.165007 0
M  V30 4649 C 441.53 1.40403 -3.32144 0
M  V30 4650 O 440.634 2.5185 -3.26566 0
M  V30 4651 H 439.975 0.185373 -0.637599 0
M  V30 4652 H 442.505 -0.0553665 -2.04525 0
M  V30 4653 H 442.515 1.76707 -3.67748 0
M  V30 4654 H 441.19 0.695167 -4.10049 0
M  V30 4655 H 439.767 2.17861 -3.0264 0
M  V30 4656 N 441.952 1.55251 0.271103 0
M  V30 4657 C 442.915 1.87484 1.31842 0
M  V30 4658 C 443.915 0.749545 1.42262 0
M  V30 4659 O 445.105 1.01771 1.4138 0
M  V30 4660 C 442.237 2.0818 2.69951 0
M  V30 4661 H 443.43 2.81108 1.0449 0
M  V30 4662 H 440.983 1.47771 0.509258 0
M  V30 4663 H 441.718 1.16944 3.02481 0
M  V30 4664 H 441.503 2.90114 2.63774 0
M  V30 4665 H 442.993 2.34385 3.4562 0
M  V30 4666 N 443.43 -0.535701 1.48216 0
M  V30 4667 C 444.655 -1.32149 1.59848 0
M  V30 4668 C 445.08 -1.86338 0.256842 0
M  V30 4669 O 444.438 -1.64107 -0.770632 0
M  V30 4670 C 444.486 -2.45224 2.64381 0
M  V30 4671 O 443.59 -3.48093 2.21144 0
M  V30 4672 H 442.931 -0.391634 0.536208 0
M  V30 4673 H 445.461 -0.645202 1.94161 0
M  V30 4674 H 445.471 -2.91491 2.85476 0
M  V30 4675 H 444.146 -2.05143 3.61786 0
M  V30 4676 H 442.723 -3.07984 2.10239 0
M  V30 4677 N 444.908 -1.36708 -0.784132 0
M  V30 4678 C 445.838 -1.34153 -1.91116 0
M  V30 4679 C 446.819 -0.212121 -1.68772 0
M  V30 4680 O 448.004 -0.410581 -1.8981 0
M  V30 4681 C 445.134 -1.13535 -3.28218 0
M  V30 4682 C 444.088 -2.23356 -3.65097 0
M  V30 4683 C 443.414 -1.87875 -5.00607 0
M  V30 4684 C 444.714 -3.65473 -3.73131 0
M  V30 4685 H 446.408 -2.28459 -1.93512 0
M  V30 4686 H 443.954 -1.09973 -0.929618 0
M  V30 4687 H 445.907 -1.10381 -4.06687 0
M  V30 4688 H 444.631 -0.156804 -3.26223 0
M  V30 4689 H 443.29 -2.25645 -2.88929 0
M  V30 4690 H 442.938 -0.885814 -4.95139 0
M  V30 4691 H 442.638 -2.61406 -5.26252 0
M  V30 4692 H 444.162 -1.86286 -5.81489 0
M  V30 4693 H 445.576 -3.65382 -4.41779 0
M  V30 4694 H 443.973 -4.37953 -4.10265 0
M  V30 4695 H 445.043 -3.99995 -2.74102 0
M  V30 4696 N 446.386 1.0089 -1.21074 0
M  V30 4697 C 447.611 1.78727 -1.05221 0
M  V30 4698 C 448.036 1.83932 0.393795 0
M  V30 4699 O 447.394 1.28004 1.28393 0
M  V30 4700 C 447.442 3.20665 -1.64944 0
M  V30 4701 O 446.546 4.02632 -0.892273 0
M  V30 4702 H 445.887 0.550973 -0.370574 0
M  V30 4703 H 448.417 1.26847 -1.60534 0
M  V30 4704 H 448.427 3.71352 -1.69002 0
M  V30 4705 H 447.102 3.16191 -2.70177 0
M  V30 4706 H 445.679 3.61207 -0.926492 0
M  V30 4707 N 447.864 1.01787 1.20321 0
M  V30 4708 C 449.089 0.727009 1.9424 0
M  V30 4709 C 449.514 -0.706179 1.74341 0
M  V30 4710 O 448.872 -1.48609 1.03852 0
M  V30 4711 C 448.92 1.06958 3.44372 0
M  V30 4712 O 448.024 0.181983 4.11998 0
M  V30 4713 H 447.365 0.269626 0.606793 0
M  V30 4714 H 449.895 1.36158 1.52716 0
M  V30 4715 H 449.905 1.02182 3.94997 0
M  V30 4716 H 448.58 2.11378 3.58179 0
M  V30 4717 H 447.157 0.287378 3.71791 0
M  V30 4718 N 449.342 -1.36122 0.79427 0
M  V30 4719 C 450.305 -2.28309 0.201889 0
M  V30 4720 C 451.305 -1.49041 -0.603603 0
M  V30 4721 O 452.495 -1.68964 -0.423888 0
M  V30 4722 C 449.627 -3.3321 -0.719978 0
M  V30 4723 H 450.82 -2.82208 1.01481 0
M  V30 4724 H 448.373 -1.45768 0.564037 0
M  V30 4725 H 449.108 -2.84475 -1.55706 0
M  V30 4726 H 448.893 -3.91835 -0.144266 0
M  V30 4727 H 450.383 -4.02044 -1.12916 0
M  V30 4728 N 450.82 -0.546701 -1.47814 0
M  V30 4729 C 452.048 -0.0232857 -2.06887 0
M  V30 4730 C 452.463 1.26571 -1.4009 0
M  V30 4731 O 451.82 1.7569 -0.493906 0
M  V30 4732 C 451.871 0.186975 -3.61016 0
M  V30 4733 O 451.592 -1.05097 -4.25307 0
M  V30 4734 C 453.093 0.748872 -4.36929 0
M  V30 4735 H 450.313 -0.0410763 -0.669742 0
M  V30 4736 H 452.857 -0.757117 -1.89968 0
M  V30 4737 H 451.012 0.870903 -3.77484 0
M  V30 4738 H 451.426 -0.842121 -5.17695 0
M  V30 4739 H 452.9 0.845334 -5.45489 0
M  V30 4740 H 453.377 1.75772 -4.02493 0
M  V30 4741 H 453.983 0.100979 -4.2518 0
M  V30 4742 N 452.299 1.55045 -0.282633 0
M  V30 4743 C 453.545 2.00056 0.332481 0
M  V30 4744 C 453.878 1.1708 1.54939 0
M  V30 4745 O 453.153 0.2427 1.9298 0
M  V30 4746 C 453.436 3.53086 0.70725 0
M  V30 4747 C 453.289 4.46813 -0.517521 0
M  V30 4748 C 454.608 4.12245 1.54084 0
M  V30 4749 H 451.727 0.727268 0.119373 0
M  V30 4750 H 454.369 1.85932 -0.391076 0
M  V30 4751 H 452.519 3.65253 1.32372 0
M  V30 4752 H 454.191 4.46579 -1.15607 0
M  V30 4753 H 452.434 4.18163 -1.1542 0
M  V30 4754 H 453.105 5.51595 -0.211426 0
M  V30 4755 H 455.581 4.03401 1.02013 0
M  V30 4756 H 454.457 5.19515 1.77186 0
M  V30 4757 H 454.718 3.62951 2.52427 0
M  V30 4758 N 453.777 0.010035 1.57597 0
M  V30 4759 C 455.188 -0.531426 1.78977 0
M  V30 4760 C 455.539 -1.73375 0.918454 0
M  V30 4761 O 454.664 -2.16047 0.123635 0
M  V30 4762 C 455.259 -0.97086 3.24592 0
M  V30 4763 C 453.818 -1.45756 3.47033 0
M  V30 4764 C 452.965 -0.413384 2.74201 0
M  V30 4765 H 455.916 0.236166 1.56933 0
M  V30 4766 H 455.937 -1.83633 3.33255 0
M  V30 4767 H 455.449 -0.0955893 3.87982 0
M  V30 4768 H 453.55 -2.35339 2.88871 0
M  V30 4769 H 453.663 -1.4781 4.55729 0
M  V30 4770 H 452.027 -0.877266 2.39115 0
M  V30 4771 H 452.81 0.453092 3.40297 0
M  V30 4772 N 455.255 -1.55392 -0.262866 0
M  V30 4773 C 456.671 -1.47459 -0.610582 0
M  V30 4774 C 456.871 -0.697031 -1.8906 0
M  V30 4775 O 455.927 -0.219952 -2.5154 0
M  V30 4776 C 457.24 -2.91751 -0.728131 0
M  V30 4777 C 458.788 -3.02027 -0.821517 0
M  V30 4778 C 459.263 -4.47594 -0.97076 0
M  V30 4779 N 460.754 -4.51465 -1.03603 0
M  V30 4780 C 461.489 -5.61326 -1.17049 0
M  V30 4781 N 460.985 -6.81032 -1.2715 0
M  V30 4782 N 462.778 -5.49089 -1.20239 0
M  V30 4783 H 454.929 -2.04395 0.577632 0
M  V30 4784 H 457.192 -0.927287 0.197086 0
M  V30 4785 H 456.898 -3.51413 0.142132 0
M  V30 4786 H 456.772 -3.4134 -1.6052 0
M  V30 4787 H 459.159 -2.42456 -1.68224 0
M  V30 4788 H 459.24 -2.55674 0.0803688 0
M  V30 4789 H 458.884 -5.07771 -0.114655 0
M  V30 4790 H 458.814 -4.91613 -1.88745 0
M  V30 4791 H 461.305 -3.6524 -0.96996 0
M  V30 4792 H 461.618 -7.60511 -1.37271 0
M  V30 4793 H 459.963 -6.83824 -1.24136 0
M  V30 4794 H 463.154 -4.54507 -1.11985 0
M  V30 4795 H 463.327 -6.34749 -1.30373 0
M  V30 4796 N 456.733 0.527833 -1.48498 0
M  V30 4797 C 457.98 1.28354 -1.56625 0
M  V30 4798 C 458.308 1.93 -0.241096 0
M  V30 4799 O 457.563 1.79967 0.768798 0
M  V30 4800 C 457.862 2.39275 -2.65485 0
M  V30 4801 C 457.528 1.92268 -4.07853 0
M  V30 4802 C 456.19 1.79166 -4.46602 0
M  V30 4803 C 458.542 1.56771 -4.97064 0
M  V30 4804 C 455.87 1.28905 -5.72364 0
M  V30 4805 C 458.222 1.07972 -6.23318 0
M  V30 4806 C 456.886 0.934887 -6.60921 0
M  V30 4807 H 456.156 0.469682 -0.573131 0
M  V30 4808 H 458.803 0.588781 -1.82224 0
M  V30 4809 H 457.108 3.1443 -2.33754 0
M  V30 4810 H 458.805 2.974 -2.68988 0
M  V30 4811 H 455.395 2.03417 -3.77252 0
M  V30 4812 H 459.579 1.65753 -4.67803 0
M  V30 4813 H 454.835 1.16381 -6.00221 0
M  V30 4814 H 459.009 0.795775 -6.91838 0
M  V30 4815 H 456.636 0.543231 -7.58257 0
M  V30 4816 N 458.211 1.37122 0.776871 0
M  V30 4817 C 459.459 1.31787 1.53221 0
M  V30 4818 C 459.78 -0.0987589 1.9475 0
M  V30 4819 O 459.05 -1.0417 1.65908 0
M  V30 4820 H 457.63 0.484839 0.568278 0
M  V30 4821 H 460.292 1.71556 0.924917 0
M  V30 4822 H 459.388 1.95355 2.43398 0
M  V30 4823 N 459.689 -1.00246 1.21608 0
M  V30 4824 C 460.935 -1.74319 1.03638 0
M  V30 4825 C 461.268 -1.89408 -0.428749 0
M  V30 4826 O 460.543 -1.43026 -1.3181 0
M  V30 4827 C 460.826 -3.15431 1.73711 0
M  V30 4828 C 460.679 -3.08049 3.27759 0
M  V30 4829 C 461.998 -4.14407 1.48173 0
M  V30 4830 H 459.117 -0.632741 0.377899 0
M  V30 4831 H 461.759 -1.16853 1.49818 0
M  V30 4832 H 459.909 -3.64493 1.34452 0
M  V30 4833 H 461.581 -2.66681 3.76403 0
M  V30 4834 H 459.824 -2.45088 3.57931 0
M  V30 4835 H 460.495 -4.07862 3.71958 0
M  V30 4836 H 462.971 -3.74061 1.82258 0
M  V30 4837 H 461.847 -5.11279 1.99713 0
M  V30 4838 H 462.108 -4.40174 0.412273 0
M  V30 4839 N 461.167 -1.02423 -1.1978 0
M  V30 4840 C 462.099 -0.559152 -2.22275 0
M  V30 4841 C 463.112 0.36251 -1.58713 0
M  V30 4842 O 464.301 0.159641 -1.77785 0
M  V30 4843 C 461.401 0.205094 -3.38279 0
M  V30 4844 C 460.574 -0.720361 -4.31427 0
M  V30 4845 C 459.633 -0.00234368 -5.262 0
M  V30 4846 O 458.659 -0.627378 -5.65732 0
M  V30 4847 N 459.861 1.26996 -5.66438 0
M  V30 4848 H 462.626 -1.44064 -2.62804 0
M  V30 4849 H 460.187 -0.902692 -1.34399 0
M  V30 4850 H 462.179 0.694868 -3.9869 0
M  V30 4851 H 460.749 0.987947 -2.96578 0
M  V30 4852 H 459.969 -1.39031 -3.68869 0
M  V30 4853 H 461.257 -1.3495 -4.90577 0
M  V30 4854 H 460.655 1.79858 -5.36347 0
M  V30 4855 H 459.212 1.70432 -6.29123 0
M  V30 4856 N 462.645 1.35699 -0.801477 0
M  V30 4857 C 463.873 2.03157 -0.391768 0
M  V30 4858 C 464.288 1.60412 0.995668 0
M  V30 4859 O 463.645 0.799228 1.64069 0
M  V30 4860 C 463.696 3.58566 -0.459671 0
M  V30 4861 O 463.417 3.99756 -1.7924 0
M  V30 4862 C 464.918 4.4328 -0.0421205 0
M  V30 4863 H 462.138 0.651688 -0.159825 0
M  V30 4864 H 464.682 1.73426 -1.08368 0
M  V30 4865 H 462.837 3.86963 0.183939 0
M  V30 4866 H 463.251 4.94387 -1.75162 0
M  V30 4867 H 464.725 5.51821 -0.140754 0
M  V30 4868 H 465.202 4.27383 1.01196 0
M  V30 4869 H 465.808 4.20168 -0.658687 0
M  V30 4870 N 464.123 0.554532 1.47522 0
M  V30 4871 C 465.4 -0.0360704 1.95567 0
M  V30 4872 C 465.78 -1.48828 1.49711 0
M  V30 4873 O 465.128 -2.16366 0.734717 0
M  V30 4874 C 465.338 0.106631 3.48837 0
M  V30 4875 C 466.686 -0.0400899 4.24581 0
M  V30 4876 O 467.71 0.0340453 3.56184 0
M  V30 4877 O 466.569 -0.199111 5.46137 0
M  V30 4878 H 463.663 -0.0656294 0.824392 0
M  V30 4879 H 466.209 0.620867 1.57935 0
M  V30 4880 H 464.981 1.11727 3.7501 0
M  V30 4881 H 464.604 -0.58804 3.93227 0
M  V30 4882 N 465.601 -1.54893 0.290851 0
M  V30 4883 C 466.533 -2.20564 -0.623236 0
M  V30 4884 C 467.546 -1.19519 -1.1054 0
M  V30 4885 O 468.735 -1.46165 -1.02459 0
M  V30 4886 C 465.835 -2.83033 -1.86401 0
M  V30 4887 C 465.008 -4.09916 -1.52604 0
M  V30 4888 C 464.067 -4.56284 -2.62091 0
M  V30 4889 O 463.093 -5.2171 -2.27612 0
M  V30 4890 N 464.295 -4.27746 -3.92446 0
M  V30 4891 H 467.06 -2.99638 -0.0610915 0
M  V30 4892 H 464.621 -1.61508 0.112615 0
M  V30 4893 H 466.613 -3.1099 -2.58973 0
M  V30 4894 H 465.183 -2.0786 -2.33481 0
M  V30 4895 H 464.403 -3.89078 -0.633424 0
M  V30 4896 H 465.691 -4.92554 -1.27547 0
M  V30 4897 H 465.089 -3.7531 -4.23272 0
M  V30 4898 H 463.646 -4.60437 -4.61347 0
M  V30 4899 N 467.08 -0.0183926 -1.57589 0
M  V30 4900 C 467.99 0.982943 -2.13015 0
M  V30 4901 C 469.006 1.36443 -1.07979 0
M  V30 4902 O 470.182 1.44802 -1.3998 0
M  V30 4903 C 467.247 2.25024 -2.63752 0
M  V30 4904 C 466.308 1.93018 -3.83461 0
M  V30 4905 C 465.541 3.13706 -4.31769 0
M  V30 4906 O 465.764 4.2601 -3.79305 0
M  V30 4907 O 464.698 2.96629 -5.23732 0
M  V30 4908 H 468.524 0.541709 -2.9883 0
M  V30 4909 H 466.109 0.201565 -1.48034 0
M  V30 4910 H 467.991 2.99441 -2.96502 0
M  V30 4911 H 466.666 2.68349 -1.81026 0
M  V30 4912 H 465.573 1.16019 -3.55655 0
M  V30 4913 H 466.906 1.54516 -4.67317 0
M  V30 4914 N 468.558 1.5553 0.254621 0
M  V30 4915 C 469.468 1.92789 1.33677 0
M  V30 4916 C 470.484 0.827356 1.53071 0
M  V30 4917 O 471.66 1.12807 1.66843 0
M  V30 4918 C 468.725 2.20827 2.67275 0
M  V30 4919 C 467.786 3.4427 2.5647 0
M  V30 4920 C 467.019 3.70961 3.83697 0
M  V30 4921 O 467.242 2.99852 4.85227 0
M  V30 4922 O 466.176 4.64491 3.82794 0
M  V30 4923 H 470.002 2.84945 1.05071 0
M  V30 4924 H 467.587 1.42312 0.454723 0
M  V30 4925 H 469.469 2.40204 3.46237 0
M  V30 4926 H 468.144 1.31851 2.9563 0
M  V30 4927 H 467.051 3.30209 1.75821 0
M  V30 4928 H 468.384 4.33524 2.33062 0
M  V30 4929 N 470.036 -0.519951 1.48776 0
M  V30 4930 C 470.968 -1.63973 1.60142 0
M  V30 4931 C 471.981 -1.55404 0.485117 0
M  V30 4932 O 473.17 -1.61682 0.756391 0
M  V30 4933 C 470.27 -3.02676 1.52449 0
M  V30 4934 C 469.443 -3.36624 2.79291 0
M  V30 4935 C 468.502 -4.54652 2.64912 0
M  V30 4936 O 467.528 -4.57374 3.38818 0
M  V30 4937 N 468.73 -5.53432 1.75195 0
M  V30 4938 H 471.495 -1.54656 2.56713 0
M  V30 4939 H 469.056 -0.707439 1.45626 0
M  V30 4940 H 471.048 -3.79525 1.4051 0
M  V30 4941 H 469.618 -3.06018 0.638125 0
M  V30 4942 H 468.838 -2.48855 3.0572 0
M  V30 4943 H 470.126 -3.56094 3.6342 0
M  V30 4944 H 469.524 -5.54018 1.14371 0
M  V30 4945 H 468.081 -6.29459 1.69189 0
M  V30 4946 N 471.514 -1.37532 -0.769588 0
M  V30 4947 C 472.444 -1.36172 -1.89682 0
M  V30 4948 C 473.425 -0.23001 -1.68538 0
M  V30 4949 O 474.61 -0.43069 -1.89364 0
M  V30 4950 C 471.74 -1.1701 -3.26995 0
M  V30 4951 C 470.694 -2.27216 -3.62708 0
M  V30 4952 C 470.02 -1.93174 -4.98586 0
M  V30 4953 C 471.32 -3.6941 -3.69234 0
M  V30 4954 H 473.014 -2.30499 -1.91078 0
M  V30 4955 H 470.56 -1.10953 -0.917902 0
M  V30 4956 H 472.513 -1.14688 -4.05493 0
M  V30 4957 H 471.237 -0.191395 -3.26039 0
M  V30 4958 H 469.896 -2.28697 -2.86519 0
M  V30 4959 H 469.544 -0.938281 -4.94171 0
M  V30 4960 H 469.244 -2.66973 -5.23449 0
M  V30 4961 H 470.768 -1.92443 -5.79481 0
M  V30 4962 H 472.182 -3.70047 -4.37879 0
M  V30 4963 H 470.579 -4.4228 -4.05597 0
M  V30 4964 H 471.649 -4.0288 -2.69844 0
M  V30 4965 N 472.992 0.995999 -1.22138 0
M  V30 4966 C 473.955 2.06711 -0.990109 0
M  V30 4967 C 474.955 1.60744 0.0422978 0
M  V30 4968 O 476.145 1.73095 -0.195895 0
M  V30 4969 C 473.277 3.37288 -0.49491 0
M  V30 4970 H 474.47 2.28661 -1.94047 0
M  V30 4971 H 472.023 1.16711 -1.03963 0
M  V30 4972 H 472.758 3.21022 0.459948 0
M  V30 4973 H 472.543 3.71986 -1.23971 0
M  V30 4974 H 474.033 4.16103 -0.353253 0
M  V30 4975 N 474.47 1.03057 1.19235 0
M  V30 4976 C 475.417 0.612832 2.22515 0
M  V30 4977 C 476.387 -0.374224 1.61829 0
M  V30 4978 O 477.572 -0.270501 1.88873 0
M  V30 4979 C 474.712 -0.028475 3.45088 0
M  V30 4980 C 473.825 1.00483 4.20151 0
M  V30 4981 C 472.96 0.333102 5.30155 0
M  V30 4982 C 471.999 1.3522 5.96977 0
M  V30 4983 N 471.136 0.70616 6.9854 0
M  V30 4984 H 475.976 1.49812 2.57605 0
M  V30 4985 H 473.513 0.749658 1.26564 0
M  V30 4986 H 475.471 -0.417548 4.15105 0
M  V30 4987 H 474.101 -0.877334 3.10649 0
M  V30 4988 H 473.153 1.51194 3.49062 0
M  V30 4989 H 474.465 1.77929 4.65986 0
M  V30 4990 H 473.619 -0.110725 6.06599 0
M  V30 4991 H 472.358 -0.473547 4.85396 0
M  V30 4992 H 471.363 1.80627 5.19282 0
M  V30 4993 H 472.588 2.16037 6.4382 0
M  V30 4994 H 470.534 -0.0803667 6.55951 0
M  V30 4995 H 470.451 1.41848 7.42573 0
M  V30 4996 H 471.719 0.286391 7.78974 0
M  V30 4997 N 475.948 -1.35272 0.808662 0
M  V30 4998 C 476.858 -2.33546 0.222079 0
M  V30 4999 C 477.874 -1.6196 -0.636011 0
M  V30 5000 O 479.05 -1.93822 -0.547274 0
M  V30 5001 C 476.115 -3.41148 -0.61795 0
M  V30 5002 C 475.176 -4.28507 0.260875 0
M  V30 5003 C 474.409 -5.3097 -0.539156 0
M  V30 5004 O 474.632 -5.42123 -1.77367 0
M  V30 5005 O 473.566 -6.01858 0.0710526 0
M  V30 5006 H 477.392 -2.85515 1.03512 0
M  V30 5007 H 474.977 -1.38079 0.570495 0
M  V30 5008 H 476.859 -4.06889 -1.09634 0
M  V30 5009 H 475.534 -2.91447 -1.40855 0
M  V30 5010 H 474.441 -3.6574 0.786451 0
M  V30 5011 H 475.774 -4.81611 1.01547 0
M  V30 5012 N 477.426 -0.562348 -1.47226 0
M  V30 5013 C 478.356 0.170627 -2.32876 0
M  V30 5014 C 479.337 0.903748 -1.44106 0
M  V30 5015 O 480.522 0.883206 -1.72954 0
M  V30 5016 C 477.652 1.19786 -3.25989 0
M  V30 5017 C 476.606 0.580875 -4.2404 0
M  V30 5018 C 475.932 1.71311 -5.06514 0
M  V30 5019 C 477.232 -0.468714 -5.20193 0
M  V30 5020 H 478.926 -0.544441 -2.94408 0
M  V30 5021 H 476.472 -0.263271 -1.41573 0
M  V30 5022 H 478.425 1.71884 -3.84752 0
M  V30 5023 H 477.149 1.94294 -2.62521 0
M  V30 5024 H 475.808 0.0811538 -3.6651 0
M  V30 5025 H 475.456 2.44736 -4.39447 0
M  V30 5026 H 475.156 1.30604 -5.72902 0
M  V30 5027 H 476.68 2.23725 -5.68137 0
M  V30 5028 H 478.094 -0.0336028 -5.7329 0
M  V30 5029 H 476.491 -0.794957 -5.94811 0
M  V30 5030 H 477.561 -1.36269 -4.65359 0
M  V30 5031 N 478.904 1.54736 -0.299062 0
M  V30 5032 C 479.814 2.27127 0.587413 0
M  V30 5033 C 480.83 1.30575 1.15005 0
M  V30 5034 O 482.006 1.63554 1.17525 0
M  V30 5035 C 479.071 2.99645 1.74395 0
M  V30 5036 C 478.132 4.11731 1.21559 0
M  V30 5037 C 477.365 4.80781 2.317 0
M  V30 5038 O 477.588 4.4918 3.51558 0
M  V30 5039 O 476.522 5.68226 1.98501 0
M  V30 5040 H 480.348 3.037 0.000250109 0
M  V30 5041 H 477.933 1.49256 -0.0655919 0
M  V30 5042 H 479.815 3.45138 2.4178 0
M  V30 5043 H 478.49 2.25969 2.31775 0
M  V30 5044 H 477.397 3.70641 0.507514 0
M  V30 5045 H 478.73 4.87379 0.687233 0
M  V30 5046 N 480.382 0.0267497 1.57577 0
M  V30 5047 C 481.659 -0.690926 1.82991 0
M  V30 5048 C 482.039 -1.90471 0.910164 0
M  V30 5049 O 481.387 -2.28474 -0.0347985 0
M  V30 5050 C 481.597 -1.07139 3.32148 0
M  V30 5051 C 482.945 -1.46402 3.98562 0
M  V30 5052 O 483.969 -1.16443 3.36629 0
M  V30 5053 O 482.828 -2.02214 5.07712 0
M  V30 5054 H 479.922 -0.338747 0.75444 0
M  V30 5055 H 482.468 0.0542506 1.69613 0
M  V30 5056 H 481.24 -0.207394 3.9075 0
M  V30 5057 H 480.863 -1.87481 3.50623 0
M  V30 5058 N 481.861 -1.55662 -0.24637 0
M  V30 5059 C 483.089 -1.81575 -0.991876 0
M  V30 5060 C 483.504 -0.602545 -1.78927 0
M  V30 5061 O 482.861 0.428795 -1.77391 0
M  V30 5062 C 482.912 -3.05711 -1.92933 0
M  V30 5063 O 482.633 -4.22348 -1.1642 0
M  V30 5064 C 484.134 -3.44428 -2.79078 0
M  V30 5065 H 481.354 -0.604209 -0.291844 0
M  V30 5066 H 483.898 -2.02722 -0.269095 0
M  V30 5067 H 482.053 -2.86612 -2.60638 0
M  V30 5068 H 482.467 -4.92706 -1.79835 0
M  V30 5069 H 483.941 -4.34388 -3.40603 0
M  V30 5070 H 484.418 -2.65037 -3.50217 0
M  V30 5071 H 485.024 -3.65879 -2.16824 0
M  V30 5072 N 483.339 0.512053 -1.4905 0
M  V30 5073 C 484.287 1.63568 -1.65373 0
M  V30 5074 C 485.281 1.61228 -0.519806 0
M  V30 5075 O 486.487 1.65869 -0.699101 0
M  V30 5076 H 482.862 0.542019 -0.521267 0
M  V30 5077 H 484.833 1.4695 -2.59708 0
M  V30 5078 C 483.582 3.01761 -1.7273 0
M  V30 5079 H 482.905 3.04263 -2.59353 0
M  V30 5080 H 484.345 3.79948 -1.8819 0
M  V30 5081 C 482.804 3.33609 -0.46973 0
M  V30 5082 O 483.334 3.99607 0.409492 0
M  V30 5083 N 481.54 2.88651 -0.336003 0
M  V30 5084 H 481.087 2.35119 -1.05247 0
M  V30 5085 H 481.045 3.10328 0.504363 0
M  V30 5086 N 484.817 1.37938 0.762283 0
M  V30 5087 C 485.764 1.34467 1.87583 0
M  V30 5088 C 486.734 0.208633 1.64785 0
M  V30 5089 O 487.919 0.399494 1.86571 0
M  V30 5090 C 485.059 1.16692 3.24772 0
M  V30 5091 C 484.172 2.39608 3.59461 0
M  V30 5092 C 483.307 2.14631 4.85908 0
M  V30 5093 C 482.346 3.33364 5.13357 0
M  V30 5094 N 481.483 3.07877 6.30996 0
M  V30 5095 H 486.323 2.29669 1.89885 0
M  V30 5096 H 483.86 1.14116 0.928219 0
M  V30 5097 H 485.818 1.04405 4.03925 0
M  V30 5098 H 484.448 0.251333 3.2182 0
M  V30 5099 H 483.5 2.626 2.75219 0
M  V30 5100 H 484.812 3.28128 3.75678 0
M  V30 5101 H 483.966 1.99429 5.72986 0
M  V30 5102 H 482.705 1.23463 4.71814 0
M  V30 5103 H 481.71 3.49094 4.24751 0
M  V30 5104 H 482.935 4.25395 5.29354 0
M  V30 5105 H 480.881 2.19348 6.18241 0
M  V30 5106 H 480.798 3.89944 6.47673 0
M  V30 5107 H 482.066 2.96313 7.20985 0
M  V30 5108 N 486.295 -0.989507 1.22664 0
M  V30 5109 C 487.541 -1.73298 1.06487 0
M  V30 5110 C 487.896 -1.88292 -0.395438 0
M  V30 5111 O 487.189 -1.41748 -1.28911 0
M  V30 5112 C 487.383 -3.13649 1.71345 0
M  V30 5113 C 487.212 -3.12341 3.23532 0
M  V30 5114 C 485.982 -3.18044 3.92653 0
M  V30 5115 C 488.18 -2.96226 4.20422 0
M  V30 5116 N 486.162 -3.06526 5.31898 0
M  V30 5117 C 487.533 -2.92773 5.4652 0
M  V30 5118 C 489.588 -2.80642 4.11271 0
M  V30 5119 C 488.291 -2.75332 6.64519 0
M  V30 5120 C 490.317 -2.64563 5.28924 0
M  V30 5121 C 489.679 -2.618 6.53942 0
M  V30 5122 H 485.778 -0.643643 0.444126 0
M  V30 5123 H 488.362 -1.17489 1.55256 0
M  V30 5124 H 486.533 -3.67694 1.25122 0
M  V30 5125 H 488.265 -3.76577 1.48229 0
M  V30 5126 H 485.02 -3.25861 3.43673 0
M  V30 5127 H 485.444 -3.04067 6.04874 0
M  V30 5128 H 490.086 -2.81574 3.15398 0
M  V30 5129 H 487.804 -2.73145 7.60538 0
M  V30 5130 H 491.39 -2.53482 5.23677 0
M  V30 5131 H 490.27 -2.49511 7.43447 0
M  V30 5132 N 487.773 -1.03688 -1.18687 0
M  V30 5133 C 489.021 -0.736572 -1.88199 0
M  V30 5134 C 489.342 0.737665 -1.80509 0
M  V30 5135 O 488.612 1.53204 -1.22088 0
M  V30 5136 H 487.192 -0.269466 -0.696704 0
M  V30 5137 H 489.854 -1.31282 -1.44052 0
M  V30 5138 H 488.95 -1.03802 -2.94332 0
M  V30 5139 N 489.251 1.34841 -0.815825 0
M  V30 5140 C 490.181 2.32187 -0.247298 0
M  V30 5141 C 491.162 1.5791 0.632344 0
M  V30 5142 O 492.347 1.8593 0.560698 0
M  V30 5143 C 489.477 3.42122 0.597466 0
M  V30 5144 C 488.431 4.27602 -0.184446 0
M  V30 5145 C 487.757 5.28942 0.782609 0
M  V30 5146 C 489.057 5.03502 -1.38865 0
M  V30 5147 H 490.751 2.79985 -1.06061 0
M  V30 5148 H 488.297 1.34611 -0.511461 0
M  V30 5149 H 490.25 4.09232 1.00533 0
M  V30 5150 H 488.974 2.92956 1.44376 0
M  V30 5151 H 487.633 3.62085 -0.573592 0
M  V30 5152 H 487.281 4.7604 1.62466 0
M  V30 5153 H 486.981 5.87008 0.263695 0
M  V30 5154 H 488.505 5.98922 1.18848 0
M  V30 5155 H 489.919 5.63506 -1.05518 0
M  V30 5156 H 488.316 5.71108 -1.8427 0
M  V30 5157 H 489.386 4.33608 -2.17054 0
M  V30 5158 N 490.729 0.570148 1.46925 0
M  V30 5159 C 492.006 -0.0153259 1.95594 0
M  V30 5160 C 492.386 -1.47232 1.51281 0
M  V30 5161 O 491.734 -2.15574 0.757624 0
M  V30 5162 C 491.944 0.143624 3.48704 0
M  V30 5163 C 493.292 0.00494484 4.246 0
M  V30 5164 O 494.316 0.0718214 3.56128 0
M  V30 5165 O 493.175 -0.141175 5.46318 0
M  V30 5166 H 490.269 -0.0568819 0.825041 0
M  V30 5167 H 492.815 0.637583 1.57267 0
M  V30 5168 H 491.587 1.15699 3.73804 0
M  V30 5169 H 491.21 -0.5463 3.93829 0
M  V30 5170 N 492.207 -1.54576 0.307264 0
M  V30 5171 C 493.453 -2.0056 -0.300612 0
M  V30 5172 C 493.786 -1.1953 -1.53057 0
M  V30 5173 O 493.061 -0.27337 -1.92569 0
M  V30 5174 C 493.344 -3.54167 -0.650987 0
M  V30 5175 C 493.197 -4.45933 0.588539 0
M  V30 5176 C 494.516 -4.14645 -1.47506 0
M  V30 5177 H 491.635 -0.729075 -0.107788 0
M  V30 5178 H 494.277 -1.85286 0.420606 0
M  V30 5179 H 492.427 -3.67313 -1.26544 0
M  V30 5180 H 494.099 -4.44683 1.22697 0
M  V30 5181 H 492.342 -4.16274 1.22058 0
M  V30 5182 H 493.013 -5.51189 0.299153 0
M  V30 5183 H 495.489 -4.04973 -0.955821 0
M  V30 5184 H 494.365 -5.22269 -1.68899 0
M  V30 5185 H 494.626 -3.66921 -2.4662 0
M  V30 5186 N 493.685 -0.035106 -1.57561 0
M  V30 5187 C 494.932 0.642229 -1.92046 0
M  V30 5188 C 495.26 1.7179 -0.91206 0
M  V30 5189 O 494.515 1.95544 0.0781153 0
M  V30 5190 C 494.814 1.29149 -3.3325 0
M  V30 5191 C 494.48 0.345604 -4.49574 0
M  V30 5192 C 493.142 0.0852775 -4.81124 0
M  V30 5193 C 495.494 -0.303569 -5.20315 0
M  V30 5194 C 492.822 -0.831927 -5.80772 0
M  V30 5195 C 495.174 -1.20886 -6.20942 0
M  V30 5196 C 493.838 -1.47802 -6.50931 0
M  V30 5197 H 493.108 0.235008 -0.702746 0
M  V30 5198 H 495.755 -0.0981529 -1.91248 0
M  V30 5199 H 494.06 2.10676 -3.30337 0
M  V30 5200 H 495.757 1.82223 -3.57205 0
M  V30 5201 H 492.347 0.558683 -4.24943 0
M  V30 5202 H 496.531 -0.115515 -4.96166 0
M  V30 5203 H 491.787 -1.0481 -6.02349 0
M  V30 5204 H 495.961 -1.71804 -6.74875 0
M  V30 5205 H 493.588 -2.19039 -7.2796 0
M  V30 5206 N 495.163 1.55791 0.238111 0
M  V30 5207 C 496.11 1.9105 1.29493 0
M  V30 5208 C 497.08 0.765733 1.47397 0
M  V30 5209 O 498.265 1.02017 1.61236 0
M  V30 5210 C 495.405 2.21826 2.64362 0
M  V30 5211 C 494.518 3.49153 2.54394 0
M  V30 5212 C 493.653 3.69455 3.81676 0
M  V30 5213 C 492.692 4.90353 3.66361 0
M  V30 5214 N 491.829 5.07131 4.85554 0
M  V30 5215 H 496.669 2.81172 0.987233 0
M  V30 5216 H 494.206 1.39179 0.476203 0
M  V30 5217 H 496.164 2.37675 3.4288 0
M  V30 5218 H 494.794 1.34897 2.93262 0
M  V30 5219 H 493.846 3.41587 1.67399 0
M  V30 5220 H 495.158 4.37818 2.38991 0
M  V30 5221 H 494.312 3.85311 4.68636 0
M  V30 5222 H 493.051 2.7904 3.99985 0
M  V30 5223 H 492.056 4.74464 2.77784 0
M  V30 5224 H 493.281 5.82237 3.49538 0
M  V30 5225 H 491.227 4.19654 5.04209 0
M  V30 5226 H 491.144 5.89899 4.72816 0
M  V30 5227 H 492.412 5.27407 5.73988 0
M  V30 5228 N 496.642 -0.504142 1.49319 0
M  V30 5229 C 497.888 -1.26033 1.58882 0
M  V30 5230 C 498.221 -1.92268 0.273274 0
M  V30 5231 O 497.496 -1.80567 -0.72291 0
M  V30 5232 C 497.779 -2.32976 2.7458 0
M  V30 5233 C 497.632 -1.71263 4.1592 0
M  V30 5234 C 498.951 -3.34561 2.85932 0
M  V30 5235 H 496.07 -0.456863 0.578312 0
M  V30 5236 H 498.712 -0.558965 1.81592 0
M  V30 5237 H 496.862 -2.92796 2.55348 0
M  V30 5238 H 498.534 -1.15294 4.4666 0
M  V30 5239 H 496.777 -1.01686 4.21714 0
M  V30 5240 H 497.448 -2.48816 4.92742 0
M  V30 5241 H 499.924 -2.84727 3.0343 0
M  V30 5242 H 498.8 -4.06754 3.68568 0
M  V30 5243 H 499.061 -3.96695 1.95154 0
M  V30 5244 N 498.12 -1.38341 -0.754957 0
M  V30 5245 C 499.083 -1.35262 -1.85032 0
M  V30 5246 C 500.083 -0.253393 -1.58791 0
M  V30 5247 O 501.273 -0.510205 -1.66561 0
M  V30 5248 C 498.405 -1.10544 -3.22479 0
M  V30 5249 H 499.598 -2.32712 -1.8917 0
M  V30 5250 H 497.151 -1.23614 -0.956515 0
M  V30 5251 H 497.886 -0.136952 -3.24011 0
M  V30 5252 H 497.671 -1.90127 -3.4292 0
M  V30 5253 H 499.161 -1.11082 -4.02555 0
M  V30 5254 N 499.598 0.982988 -1.23187 0
M  V30 5255 C 500.508 2.10907 -1.02739 0
M  V30 5256 C 501.524 1.73979 0.0273188 0
M  V30 5257 O 502.7 2.00702 -0.16757 0
M  V30 5258 C 499.765 3.41142 -0.618304 0
M  V30 5259 C 498.826 3.92112 -1.74777 0
M  V30 5260 C 498.059 5.16131 -1.3581 0
M  V30 5261 O 498.282 5.6989 -0.241201 0
M  V30 5262 O 497.216 5.61103 -2.17824 0
M  V30 5263 H 501.042 2.31046 -1.97108 0
M  V30 5264 H 498.627 1.09284 -1.01869 0
M  V30 5265 H 500.509 4.19488 -0.400982 0
M  V30 5266 H 499.184 3.2234 0.296421 0
M  V30 5267 H 498.091 3.14895 -2.0197 0
M  V30 5268 H 499.424 4.15364 -2.64071 0
M  V30 5269 N 501.076 1.04316 1.18135 0
M  V30 5270 C 502.006 0.657299 2.24058 0
M  V30 5271 C 502.987 -0.340678 1.66654 0
M  V30 5272 O 504.172 -0.220223 1.92947 0
M  V30 5273 C 501.302 0.0220715 3.47293 0
M  V30 5274 C 500.256 0.943857 4.17463 0
M  V30 5275 C 499.582 0.172973 5.3442 0
M  V30 5276 C 500.882 2.26409 4.70677 0
M  V30 5277 H 502.576 1.5428 2.56589 0
M  V30 5278 H 500.122 0.743263 1.23335 0
M  V30 5279 H 502.075 -0.259607 4.206 0
M  V30 5280 H 500.799 -0.898323 3.14003 0
M  V30 5281 H 499.458 1.20996 3.46057 0
M  V30 5282 H 499.106 -0.749907 4.97379 0
M  V30 5283 H 498.806 0.787098 5.82304 0
M  V30 5284 H 500.33 -0.101628 6.10515 0
M  V30 5285 H 501.744 2.04294 5.35665 0
M  V30 5286 H 500.141 2.8314 5.29105 0
M  V30 5287 H 501.211 2.90883 3.87962 0
M  V30 5288 N 502.554 -1.34406 0.822964 0
M  V30 5289 C 503.779 -2.0304 0.423034 0
M  V30 5290 C 504.204 -1.61568 -0.963196 0
M  V30 5291 O 503.562 -0.800339 -1.62678 0
M  V30 5292 C 503.61 -3.56636 0.53321 0
M  V30 5293 O 502.714 -4.09971 -0.446939 0
M  V30 5294 H 502.055 -0.64075 0.174171 0
M  V30 5295 H 504.585 -1.71653 1.11339 0
M  V30 5296 H 504.595 -4.05945 0.408991 0
M  V30 5297 H 503.27 -3.86168 1.54425 0
M  V30 5298 H 501.847 -3.71835 -0.281601 0
M  V30 5299 N 504.032 -0.577932 -1.46621 0
M  V30 5300 C 505.28 -0.061566 -2.02006 0
M  V30 5301 C 505.601 1.30117 -1.4524 0
M  V30 5302 O 504.871 1.85313 -0.63529 0
M  V30 5303 H 503.451 -0.0197692 -0.746738 0
M  V30 5304 H 506.113 -0.752631 -1.79782 0
M  V30 5305 H 505.209 0.0110238 -3.12098 0
M  V30 5306 N 505.51 1.54411 -0.315457 0
M  V30 5307 C 506.458 2.25514 0.569771 0
M  V30 5308 C 507.452 1.2663 1.12522 0
M  V30 5309 O 508.658 1.44434 1.07419 0
M  V30 5310 H 505.033 0.724257 0.202376 0
M  V30 5311 H 507.004 2.98354 -0.0522895 0
M  V30 5312 C 505.753 3.02004 1.72305 0
M  V30 5313 H 505.076 3.77906 1.30488 0
M  V30 5314 H 506.516 3.55014 2.31821 0
M  V30 5315 C 504.975 2.09822 2.63583 0
M  V30 5316 O 505.505 1.67574 3.65078 0
M  V30 5317 N 503.711 1.75478 2.31637 0
M  V30 5318 H 503.258 2.10032 1.49145 0
M  V30 5319 H 503.216 1.14079 2.92973 0
M  V30 5320 N 506.988 0.0434614 1.5754 0
M  V30 5321 C 508.404 -0.313039 1.565 0
M  V30 5322 C 508.604 -1.71954 1.05043 0
M  V30 5323 O 507.66 -2.425 0.703564 0
M  V30 5324 C 508.973 -0.148544 3.00333 0
M  V30 5325 C 510.521 -0.220231 3.12224 0
M  V30 5326 C 510.996 -0.0843565 4.57922 0
M  V30 5327 N 512.487 -0.140881 4.62986 0
M  V30 5328 C 513.222 -0.0597443 5.73369 0
M  V30 5329 N 512.718 0.0733004 6.92761 0
M  V30 5330 N 514.511 -0.11477 5.61983 0
M  V30 5331 H 506.662 0.96303 1.89313 0
M  V30 5332 H 508.925 0.373164 0.871466 0
M  V30 5333 H 508.631 0.820894 3.41986 0
M  V30 5334 H 508.505 -0.912798 3.65989 0
M  V30 5335 H 510.892 -1.18014 2.70475 0
M  V30 5336 H 510.973 0.574646 2.49262 0
M  V30 5337 H 510.617 0.872192 5.00355 0
M  V30 5338 H 510.547 -0.898281 5.18882 0
M  V30 5339 H 513.038 -0.243273 3.77116 0
M  V30 5340 H 513.351 0.128128 7.72694 0
M  V30 5341 H 511.696 0.10828 6.94916 0
M  V30 5342 H 514.887 -0.217212 4.67596 0
M  V30 5343 H 515.06 -0.0480779 6.47982 0
M  V30 5344 N 508.466 -1.55915 -0.229846 0
M  V30 5345 C 509.877 -1.68809 -0.797531 0
M  V30 5346 C 510.228 -0.643995 -1.8533 0
M  V30 5347 O 509.353 0.206492 -2.15413 0
M  V30 5348 C 509.948 -3.06043 -1.45338 0
M  V30 5349 C 508.507 -3.20819 -1.96856 0
M  V30 5350 C 507.654 -2.6472 -0.825736 0
M  V30 5351 H 510.605 -1.58699 -0.00533733 0
M  V30 5352 H 510.626 -3.01438 -2.32196 0
M  V30 5353 H 510.138 -3.82012 -0.684743 0
M  V30 5354 H 508.239 -2.49704 -2.76548 0
M  V30 5355 H 508.352 -4.27937 -2.15423 0
M  V30 5356 H 506.716 -2.22985 -1.23084 0
M  V30 5357 H 507.499 -3.43229 -0.0699019 0
M  V30 5358 N 509.944 0.496216 -1.49584 0
M  V30 5359 C 510.874 1.60576 -1.69521 0
M  V30 5360 C 511.855 1.61169 -0.543933 0
M  V30 5361 O 513.04 1.77834 -0.78031 0
M  V30 5362 C 510.17 2.99038 -1.76616 0
M  V30 5363 C 509.124 3.13312 -2.91581 0
M  V30 5364 C 508.45 4.53172 -2.83794 0
M  V30 5365 C 509.75 2.92886 -4.32452 0
M  V30 5366 H 511.444 1.44146 -2.62416 0
M  V30 5367 H 508.99 0.692024 -1.26282 0
M  V30 5368 H 510.943 3.76564 -1.8915 0
M  V30 5369 H 509.667 3.16568 -0.80324 0
M  V30 5370 H 508.326 2.38213 -2.78658 0
M  V30 5371 H 507.974 4.67585 -1.854 0
M  V30 5372 H 507.674 4.63662 -3.60958 0
M  V30 5373 H 509.198 5.32752 -2.98342 0
M  V30 5374 H 510.612 3.60178 -4.46032 0
M  V30 5375 H 509.009 3.14844 -5.10875 0
M  V30 5376 H 510.079 1.88966 -4.46565 0
M  V30 5377 N 511.423 1.38739 0.74761 0
M  V30 5378 C 512.651 1.38521 1.53686 0
M  V30 5379 C 513.066 -0.0235129 1.88785 0
M  V30 5380 O 512.423 -0.991662 1.53207 0
M  V30 5381 C 512.474 2.24641 2.83229 0
M  V30 5382 O 512.195 3.60026 2.49625 0
M  V30 5383 C 513.696 2.32669 3.77333 0
M  V30 5384 H 510.916 0.473589 0.475347 0
M  V30 5385 H 513.46 1.82395 0.924786 0
M  V30 5386 H 511.615 1.84213 3.40799 0
M  V30 5387 H 512.029 4.05435 3.3275 0
M  V30 5388 H 513.503 2.97201 4.65162 0
M  V30 5389 H 513.98 1.3421 4.18192 0
M  V30 5390 H 514.586 2.73512 3.25685 0
M  V30 5391 N 512.901 -0.976442 1.23707 0
M  V30 5392 C 513.864 -2.0511 1.02287 0
M  V30 5393 C 514.864 -1.60791 -0.0167195 0
M  V30 5394 O 516.054 -1.72761 0.223408 0
M  V30 5395 C 513.186 -3.36458 0.548507 0
M  V30 5396 H 514.379 -2.25545 1.9766 0
M  V30 5397 H 511.932 -1.15042 1.05806 0
M  V30 5398 H 512.667 -3.21713 -0.408818 0
M  V30 5399 H 512.452 -3.69967 1.29874 0
M  V30 5400 H 513.942 -4.15489 0.419406 0
M  V30 5401 N 514.379 -1.04941 -1.1758 0
M  V30 5402 C 515.628 -0.753124 -1.87112 0
M  V30 5403 C 515.941 0.722507 -1.81767 0
M  V30 5404 O 517.147 1.13265 -2.46746 0
M  V30 5405 C 515.603 -1.29695 -3.35719 0
M  V30 5406 C 515.211 -2.80184 -3.49572 0
M  V30 5407 C 516.955 -1.07759 -4.10595 0
M  V30 5408 C 514.862 -3.2788 -4.92187 0
M  V30 5409 H 513.792 -0.278034 -0.700866 0
M  V30 5410 H 516.443 -1.26637 -1.32798 0
M  V30 5411 H 514.825 -0.711522 -3.89555 0
M  V30 5412 H 515.999 -3.44561 -3.05965 0
M  V30 5413 H 514.314 -3.00632 -2.88113 0
M  V30 5414 H 516.911 -1.40899 -5.15802 0
M  V30 5415 H 517.254 -0.0152302 -4.16297 0
M  V30 5416 H 517.787 -1.62809 -3.62957 0
M  V30 5417 H 514.526 -4.33535 -4.91658 0
M  V30 5418 H 514.046 -2.68245 -5.36475 0
M  V30 5419 H 515.725 -3.22412 -5.60945 0
M  V30 5420 N 515.857 1.33968 -0.830081 0
M  V30 5421 C 517.106 1.97323 -0.417928 0
M  V30 5422 C 517.419 1.6652 1.02618 0
M  V30 5423 O 518.625 2.2342 1.54259 0
M  V30 5424 C 517.081 3.53099 -0.696359 0
M  V30 5425 C 516.689 3.92788 -2.15457 0
M  V30 5426 C 518.433 4.23049 -0.350724 0
M  V30 5427 C 516.34 5.41506 -2.37751 0
M  V30 5428 H 515.27 0.738409 -0.152541 0
M  V30 5429 H 517.921 1.52711 -1.01744 0
M  V30 5430 H 516.303 3.95991 -0.0265904 0
M  V30 5431 H 517.477 3.6098 -2.86408 0
M  V30 5432 H 515.792 3.35795 -2.46232 0
M  V30 5433 H 518.389 5.32403 -0.495036 0
M  V30 5434 H 518.732 4.10279 0.705476 0
M  V30 5435 H 519.265 3.85657 -0.975362 0
M  V30 5436 H 516.004 5.5927 -3.41903 0
M  V30 5437 H 515.524 5.74804 -1.7135 0
M  V30 5438 H 517.203 6.0828 -2.20465 0
M  V30 5439 N 517.335 0.585699 1.46312 0
M  V30 5440 C 518.582 0.0724211 2.0237 0
M  V30 5441 C 518.91 -1.28868 1.45683 0
M  V30 5442 O 518.165 -1.85853 0.612945 0
M  V30 5443 C 518.464 -0.0401312 3.57377 0
M  V30 5444 C 518.13 1.25376 4.33119 0
M  V30 5445 C 516.792 1.60824 4.5353 0
M  V30 5446 C 519.144 2.10987 4.76586 0
M  V30 5447 C 516.472 2.81676 5.14661 0
M  V30 5448 C 518.824 3.31068 5.39052 0
M  V30 5449 C 517.488 3.66794 5.5769 0
M  V30 5450 H 516.758 0.0265007 0.740526 0
M  V30 5451 H 519.405 0.762935 1.75646 0
M  V30 5452 H 517.71 -0.813791 3.83255 0
M  V30 5453 H 519.407 -0.453078 3.98432 0
M  V30 5454 H 515.997 0.967808 4.1753 0
M  V30 5455 H 520.181 1.84904 4.60569 0
M  V30 5456 H 515.437 3.0949 5.27282 0
M  V30 5457 H 519.611 3.97672 5.71691 0
M  V30 5458 H 517.238 4.60529 6.04828 0
M  V30 5459 N 518.813 -1.54241 0.323641 0
M  V30 5460 C 520.038 -2.05452 -0.283605 0
M  V30 5461 C 520.463 -1.19823 -1.44997 0
M  V30 5462 O 519.821 -0.207358 -1.8011 0
M  V30 5463 C 519.869 -3.53823 -0.695795 0
M  V30 5464 O 518.973 -3.71134 -1.79815 0
M  V30 5465 H 518.314 -0.662024 -0.0511917 0
M  V30 5466 H 520.844 -1.99079 0.472073 0
M  V30 5467 H 520.854 -3.96094 -0.978434 0
M  V30 5468 H 519.529 -4.15602 0.157287 0
M  V30 5469 H 518.106 -3.40768 -1.51431 0
M  V30 5470 N 520.291 -0.0518155 -1.57515 0
M  V30 5471 C 521.54 0.621286 -1.91893 0
M  V30 5472 C 521.853 1.71966 -0.932052 0
M  V30 5473 O 523.059 2.45096 -1.16791 0
M  V30 5474 C 521.515 1.15641 -3.40816 0
M  V30 5475 C 521.123 0.0901146 -4.47909 0
M  V30 5476 C 522.867 1.80472 -3.84227 0
M  V30 5477 C 520.774 0.638154 -5.87947 0
M  V30 5478 H 519.704 0.235835 -0.716169 0
M  V30 5479 H 522.355 -0.120809 -1.83102 0
M  V30 5480 H 520.737 1.95084 -3.44613 0
M  V30 5481 H 521.911 -0.683525 -4.55702 0
M  V30 5482 H 520.226 -0.460774 -4.13843 0
M  V30 5483 H 522.823 2.22471 -4.86221 0
M  V30 5484 H 523.166 2.65669 -3.20508 0
M  V30 5485 H 523.699 1.07683 -3.82948 0
M  V30 5486 H 520.438 -0.176202 -6.55263 0
M  V30 5487 H 519.958 1.37976 -5.83714 0
M  V30 5488 H 521.637 1.12085 -6.37217 0
M  V30 5489 N 521.769 1.56035 0.221574 0
M  V30 5490 C 523.016 1.79047 0.94597 0
M  V30 5491 C 523.344 0.62057 1.84334 0
M  V30 5492 O 522.599 -0.395053 1.91671 0
M  V30 5493 C 522.898 3.07813 1.8162 0
M  V30 5494 C 522.564 4.3797 1.07206 0
M  V30 5495 C 521.226 4.73334 0.866508 0
M  V30 5496 C 523.578 5.18326 0.546565 0
M  V30 5497 C 520.906 5.8657 0.123549 0
M  V30 5498 C 523.258 6.32335 -0.18305 0
M  V30 5499 C 521.922 6.66301 -0.399861 0
M  V30 5500 H 521.192 0.655178 0.346155 0
M  V30 5501 H 523.839 1.90299 0.214146 0
M  V30 5502 H 522.144 2.91682 2.61589 0
M  V30 5503 H 523.841 3.2282 2.37884 0
M  V30 5504 H 520.431 4.10202 1.24226 0
M  V30 5505 H 524.615 4.9144 0.692847 0
M  V30 5506 H 519.871 6.11376 -0.0546591 0
M  V30 5507 H 524.045 6.9383 -0.59775 0
M  V30 5508 H 521.672 7.53889 -0.977489 0
M  V30 5509 N 523.247 -0.488276 1.49845 0
M  V30 5510 C 524.179 -1.60539 1.63584 0
M  V30 5511 C 525.192 -1.5434 0.517972 0
M  V30 5512 O 526.381 -1.60041 0.790516 0
M  V30 5513 C 523.481 -2.99374 1.58835 0
M  V30 5514 C 522.654 -3.30624 2.86368 0
M  V30 5515 C 521.713 -4.4893 2.74496 0
M  V30 5516 O 520.739 -4.50085 3.48443 0
M  V30 5517 N 521.941 -5.49591 1.86894 0
M  V30 5518 H 524.706 -1.49176 2.59936 0
M  V30 5519 H 522.267 -0.67639 1.47094 0
M  V30 5520 H 524.259 -3.76459 1.48529 0
M  V30 5521 H 522.829 -3.04595 0.702892 0
M  V30 5522 H 522.049 -2.42314 3.1093 0
M  V30 5523 H 523.337 -3.48305 3.70892 0
M  V30 5524 H 522.735 -5.51467 1.26097 0
M  V30 5525 H 521.292 -6.25728 1.82503 0
M  V30 5526 N 524.725 -1.39134 -0.740242 0
M  V30 5527 C 525.635 -1.39697 -1.88473 0
M  V30 5528 C 526.651 -0.292403 -1.71526 0
M  V30 5529 O 527.827 -0.533021 -1.94219 0
M  V30 5530 C 524.892 -1.23382 -3.24003 0
M  V30 5531 C 523.953 -2.43763 -3.53381 0
M  V30 5532 C 523.186 -2.28216 -4.82445 0
M  V30 5533 O 523.409 -1.28288 -5.55786 0
M  V30 5534 O 522.343 -3.1709 -5.11603 0
M  V30 5535 H 526.169 -2.36159 -1.90952 0
M  V30 5536 H 523.754 -1.20194 -0.887346 0
M  V30 5537 H 525.636 -1.16395 -4.05006 0
M  V30 5538 H 524.311 -0.300121 -3.22306 0
M  V30 5539 H 523.218 -2.56325 -2.72485 0
M  V30 5540 H 524.551 -3.35808 -3.59852 0
M  V30 5541 N 526.204 0.969867 -1.24223 0
M  V30 5542 C 527.62 1.23809 -1.00716 0
M  V30 5543 C 527.82 1.99469 0.285358 0
M  V30 5544 O 526.876 2.31764 1.00207 0
M  V30 5545 C 528.189 2.02734 -2.2208 0
M  V30 5546 C 529.737 2.15834 -2.26681 0
M  V30 5547 C 530.212 2.98154 -3.47661 0
M  V30 5548 N 531.703 3.05737 -3.47964 0
M  V30 5549 C 532.438 3.69785 -4.38231 0
M  V30 5550 N 531.934 4.35569 -5.3875 0
M  V30 5551 N 533.727 3.66775 -4.25949 0
M  V30 5552 H 525.878 0.463294 -2.07286 0
M  V30 5553 H 528.141 0.267348 -0.909521 0
M  V30 5554 H 527.847 1.54524 -3.15935 0
M  V30 5555 H 527.721 3.0347 -2.24021 0
M  V30 5556 H 530.108 2.63248 -1.33359 0
M  V30 5557 H 530.189 1.14453 -2.28767 0
M  V30 5558 H 529.833 2.51435 -4.41297 0
M  V30 5559 H 529.763 3.99729 -3.42818 0
M  V30 5560 H 532.254 2.58941 -2.75242 0
M  V30 5561 H 532.567 4.82251 -6.03866 0
M  V30 5562 H 530.912 4.34244 -5.42639 0
M  V30 5563 H 534.103 3.14558 -3.46657 0
M  V30 5564 H 534.276 4.16407 -4.96497 0
M  V30 5565 N 527.682 1.05563 1.17022 0
M  V30 5566 C 528.959 0.68165 1.83338 0
M  V30 5567 C 529.339 -0.837665 1.93769 0
M  V30 5568 O 528.687 -1.74507 1.47511 0
M  V30 5569 C 528.897 1.375 3.20772 0
M  V30 5570 C 530.245 1.51545 3.96635 0
M  V30 5571 O 531.269 1.33431 3.30264 0
M  V30 5572 O 530.128 1.812 5.15586 0
M  V30 5573 H 527.222 0.240412 0.791285 0
M  V30 5574 H 529.768 1.15545 1.24288 0
M  V30 5575 H 528.54 2.41135 3.08171 0
M  V30 5576 H 528.163 0.890798 3.87493 0
M  V30 5577 N 529.16 -1.33526 0.837174 0
M  V30 5578 C 530.09 -2.31764 0.284206 0
M  V30 5579 C 531.071 -1.58896 -0.607142 0
M  V30 5580 O 532.256 -1.86798 -0.531047 0
M  V30 5581 C 529.386 -3.43029 -0.542962 0
M  V30 5582 C 528.34 -4.27255 0.252451 0
M  V30 5583 C 527.666 -5.3012 -0.69836 0
M  V30 5584 C 528.966 -5.01229 1.46858 0
M  V30 5585 H 530.66 -2.78262 1.10502 0
M  V30 5586 H 528.206 -1.3378 0.532812 0
M  V30 5587 H 530.159 -4.1078 -0.940096 0
M  V30 5588 H 528.883 -2.95216 -1.39697 0
M  V30 5589 H 527.542 -3.61127 0.631124 0
M  V30 5590 H 527.19 -4.78564 -1.54872 0
M  V30 5591 H 526.89 -5.87353 -0.170274 0
M  V30 5592 H 528.414 -6.00737 -1.09305 0
M  V30 5593 H 529.828 -5.61756 1.14469 0
M  V30 5594 H 528.225 -5.68104 1.93333 0
M  V30 5595 H 529.295 -4.301 2.23924 0
M  V30 5596 N 530.638 -0.59345 -1.46 0
M  V30 5597 C 531.568 0.121192 -2.33185 0
M  V30 5598 C 532.549 0.872977 -1.4599 0
M  V30 5599 O 533.734 0.846321 -1.74789 0
M  V30 5600 C 530.864 1.12844 -3.28456 0
M  V30 5601 C 529.818 0.4908 -4.25177 0
M  V30 5602 C 529.144 1.60529 -5.10034 0
M  V30 5603 C 530.444 -0.578949 -5.19081 0
M  V30 5604 H 532.138 -0.606767 -2.93187 0
M  V30 5605 H 529.684 -0.293242 -1.40983 0
M  V30 5606 H 531.637 1.63684 -3.88311 0
M  V30 5607 H 530.361 1.88681 -2.66584 0
M  V30 5608 H 529.02 0.00339328 -3.666 0
M  V30 5609 H 528.668 2.35359 -4.44539 0
M  V30 5610 H 528.368 1.18422 -5.75543 0
M  V30 5611 H 529.892 2.11623 -5.72755 0
M  V30 5612 H 531.306 -0.155199 -5.7309 0
M  V30 5613 H 529.703 -0.920947 -5.92991 0
M  V30 5614 H 530.773 -1.46109 -4.62364 0
M  V30 5615 N 532.116 1.54067 -0.331816 0
M  V30 5616 C 533.063 2.24623 0.530372 0
M  V30 5617 C 534.033 1.24009 1.10503 0
M  V30 5618 O 535.218 1.52712 1.14384 0
M  V30 5619 C 532.358 3.01374 1.68129 0
M  V30 5620 C 531.471 4.16821 1.13507 0
M  V30 5621 C 530.606 4.81085 2.25234 0
M  V30 5622 C 529.645 5.88621 1.67903 0
M  V30 5623 N 528.782 6.46713 2.73326 0
M  V30 5624 H 533.622 2.97898 -0.0778607 0
M  V30 5625 H 531.159 1.47014 -0.0501965 0
M  V30 5626 H 533.117 3.44125 2.35868 0
M  V30 5627 H 531.747 2.30419 2.26069 0
M  V30 5628 H 530.799 3.78796 0.348979 0
M  V30 5629 H 532.111 4.94203 0.675633 0
M  V30 5630 H 531.265 5.26846 3.00862 0
M  V30 5631 H 530.004 4.03102 2.74518 0
M  V30 5632 H 529.009 5.42254 0.907773 0
M  V30 5633 H 530.234 6.68506 1.19487 0
M  V30 5634 H 528.18 5.71599 3.21886 0
M  V30 5635 H 528.097 7.19532 2.3197 0
M  V30 5636 H 529.365 6.97129 3.48758 0
M  V30 5637 N 533.594 0.0601682 1.57485 0
M  V30 5638 C 534.822 -0.620937 1.97363 0
M  V30 5639 C 535.237 -1.63846 0.938082 0
M  V30 5640 O 534.594 -1.82339 -0.0766578 0
M  V30 5641 C 534.645 -1.29987 3.37321 0
M  V30 5642 O 534.366 -0.323081 4.36907 0
M  V30 5643 C 535.867 -2.06989 3.92008 0
M  V30 5644 H 533.087 -0.169135 0.649334 0
M  V30 5645 H 535.631 0.129132 2.04092 0
M  V30 5646 H 533.786 -2.0011 3.31715 0
M  V30 5647 H 534.2 -0.808754 5.18227 0
M  V30 5648 H 535.674 -2.49901 4.92192 0
M  V30 5649 H 536.151 -2.92173 3.2792 0
M  V30 5650 H 536.757 -1.41757 4.0098 0
M  V30 5651 N 535.072 -1.5615 -0.213296 0
M  V30 5652 C 536.319 -1.79546 -0.936462 0
M  V30 5653 C 536.647 -0.630337 -1.84003 0
M  V30 5654 O 535.902 0.384883 -1.91878 0
M  V30 5655 C 536.201 -3.08772 -1.79985 0
M  V30 5656 C 535.867 -4.38532 -1.04882 0
M  V30 5657 C 534.529 -4.73787 -0.841393 0
M  V30 5658 C 536.881 -5.18609 -0.51907 0
M  V30 5659 C 534.209 -5.86627 -0.0924403 0
M  V30 5660 C 536.561 -6.32229 0.216581 0
M  V30 5661 C 535.225 -6.6608 0.435191 0
M  V30 5662 H 534.495 -0.657004 -0.342676 0
M  V30 5663 H 537.142 -1.9041 -0.204051 0
M  V30 5664 H 535.447 -2.93065 -2.60038 0
M  V30 5665 H 537.144 -3.24077 -2.36168 0
M  V30 5666 H 533.734 -4.10855 -1.22048 0
M  V30 5667 H 537.918 -4.91801 -0.666775 0
M  V30 5668 H 533.174 -6.11338 0.087081 0
M  V30 5669 H 537.348 -6.93503 0.634538 0
M  V30 5670 H 534.975 -7.5336 1.01746 0
M  V30 5671 N 536.55 0.480323 -1.50102 0
M  V30 5672 C 537.482 1.59669 -1.64433 0
M  V30 5673 C 538.495 1.54063 -0.52615 0
M  V30 5674 O 539.684 1.59619 -0.798992 0
M  V30 5675 C 536.784 2.98527 -1.6042 0
M  V30 5676 C 535.957 3.291 -2.88117 0
M  V30 5677 C 535.016 4.47468 -2.76873 0
M  V30 5678 O 534.042 4.4823 -3.50825 0
M  V30 5679 N 535.244 5.48593 -1.89806 0
M  V30 5680 H 538.009 1.47795 -2.60723 0
M  V30 5681 H 535.57 0.66858 -1.4745 0
M  V30 5682 H 537.562 3.75666 -1.50523 0
M  V30 5683 H 536.132 3.04218 -0.719036 0
M  V30 5684 H 535.352 2.40662 -3.12211 0
M  V30 5685 H 536.64 3.46334 -3.72734 0
M  V30 5686 H 536.038 5.50791 -1.2902 0
M  V30 5687 H 534.595 6.24752 -1.85819 0
M  V30 5688 N 538.028 1.39524 0.732853 0
M  V30 5689 C 539.277 1.36175 1.48792 0
M  V30 5690 C 539.59 -0.0388195 1.95561 0
M  V30 5691 O 540.796 -0.194899 2.708 0
M  V30 5692 C 539.252 2.39242 2.68871 0
M  V30 5693 C 538.86 3.85024 2.29042 0
M  V30 5694 C 540.604 2.44972 3.46683 0
M  V30 5695 C 538.511 4.79727 3.45856 0
M  V30 5696 H 537.441 0.506267 0.558757 0
M  V30 5697 H 540.092 1.65181 0.799226 0
M  V30 5698 H 538.474 2.0331 3.39825 0
M  V30 5699 H 539.648 4.30008 1.6562 0
M  V30 5700 H 537.963 3.82609 1.64316 0
M  V30 5701 H 540.56 3.12918 4.33574 0
M  V30 5702 H 540.903 1.4749 3.89297 0
M  V30 5703 H 541.436 2.79808 2.82759 0
M  V30 5704 H 538.175 5.78479 3.08289 0
M  V30 5705 H 537.695 4.39421 4.08251 0
M  V30 5706 H 539.374 4.98731 4.12161 0
M  V30 5707 N 539.506 -0.963266 1.24736 0
M  V30 5708 C 540.917 -1.52145 1.08207 0
M  V30 5709 C 541.268 -1.93142 -0.345061 0
M  V30 5710 O 540.393 -1.77769 -1.23399 0
M  V30 5711 C 540.988 -2.76486 1.95808 0
M  V30 5712 C 539.547 -3.28646 1.8349 0
M  V30 5713 C 538.694 -2.01529 1.90476 0
M  V30 5714 H 541.645 -0.781083 1.38148 0
M  V30 5715 H 541.666 -3.49986 1.49297 0
M  V30 5716 H 541.178 -2.46617 2.99669 0
M  V30 5717 H 539.279 -3.63357 0.824787 0
M  V30 5718 H 539.392 -3.97246 2.67829 0
M  V30 5719 H 537.756 -2.16442 1.34258 0
M  V30 5720 H 538.539 -1.7402 2.95926 0
M  V30 5721 N 540.985 -1.06182 -1.16461 0
M  V30 5722 C 541.948 -0.675723 -2.19013 0
M  V30 5723 C 542.948 0.277963 -1.58379 0
M  V30 5724 O 544.138 0.0604962 -1.74095 0
M  V30 5725 C 541.27 0.00591459 -3.40899 0
M  V30 5726 H 542.463 -1.58353 -2.54685 0
M  V30 5727 H 540.016 -0.856908 -1.30716 0
M  V30 5728 H 540.751 0.92652 -3.10783 0
M  V30 5729 H 540.536 -0.67984 -3.86161 0
M  V30 5730 H 542.026 0.26181 -4.16778 0
M  V30 5731 N 542.463 1.3308 -0.844243 0
M  V30 5732 C 543.74 1.92178 -0.364261 0
M  V30 5733 C 544.12 1.76961 1.15101 0
M  V30 5734 O 543.468 1.16128 1.9679 0
M  V30 5735 C 543.678 3.393 -0.817106 0
M  V30 5736 C 545.026 4.16444 -0.828236 0
M  V30 5737 O 546.05 3.47975 -0.761062 0
M  V30 5738 O 544.909 5.38685 -0.920926 0
M  V30 5739 H 542.003 0.820411 -0.10419 0
M  V30 5740 H 544.549 1.41918 -0.930453 0
M  V30 5741 H 543.321 3.44272 -1.85991 0
M  V30 5742 H 542.944 3.96947 -0.227785 0
M  V30 5743 N 543.941 0.601185 1.45683 0
M  V30 5744 C 545.169 0.100054 2.06658 0
M  V30 5745 C 545.584 -1.21285 1.44691 0
M  V30 5746 O 544.941 -1.73735 0.558772 0
M  V30 5747 C 544.992 -0.0528579 3.61461 0
M  V30 5748 O 544.713 1.20809 4.21114 0
M  V30 5749 C 546.214 -0.586193 4.39407 0
M  V30 5750 H 543.434 0.065905 0.667756 0
M  V30 5751 H 545.978 0.827101 1.87028 0
M  V30 5752 H 544.133 -0.730203 3.80456 0
M  V30 5753 H 544.547 1.03368 5.14213 0
M  V30 5754 H 546.021 -0.642297 5.4825 0
M  V30 5755 H 546.498 -1.60713 4.0874 0
M  V30 5756 H 547.104 0.0568935 4.25262 0
M  V30 5757 N 545.419 -1.53889 0.339982 0
M  V30 5758 C 546.349 -2.27843 -0.510856 0
M  V30 5759 C 547.33 -1.29267 -1.10563 0
M  V30 5760 O 548.515 -1.58104 -1.12768 0
M  V30 5761 C 545.645 -3.04857 -1.66372 0
M  V30 5762 C 544.599 -4.10907 -1.19746 0
M  V30 5763 C 543.925 -4.75855 -2.43857 0
M  V30 5764 C 545.225 -5.21435 -0.300501 0
M  V30 5765 H 546.919 -2.99212 0.106067 0
M  V30 5766 H 544.465 -1.43904 0.0524533 0
M  V30 5767 H 546.418 -3.5533 -2.26537 0
M  V30 5768 H 545.142 -2.31133 -2.30749 0
M  V30 5769 H 543.801 -3.61342 -0.618654 0
M  V30 5770 H 543.449 -3.9873 -3.06633 0
M  V30 5771 H 543.149 -5.47502 -2.13343 0
M  V30 5772 H 544.673 -5.2911 -3.04754 0
M  V30 5773 H 546.087 -5.67565 -0.80889 0
M  V30 5774 H 544.484 -6.00036 -0.0874076 0
M  V30 5775 H 545.554 -4.80328 0.664321 0
M  V30 5776 N 546.897 -0.0685191 -1.57451 0
M  V30 5777 C 547.86 0.885173 -2.11417 0
M  V30 5778 C 548.86 1.22853 -1.03748 0
M  V30 5779 O 550.05 1.16235 -1.2975 0
M  V30 5780 C 547.182 2.18964 -2.61281 0
M  V30 5781 H 548.375 0.417034 -2.96986 0
M  V30 5782 H 545.928 0.18014 -1.55258 0
M  V30 5783 H 546.663 2.70321 -1.79156 0
M  V30 5784 H 546.448 1.9534 -3.39977 0
M  V30 5785 H 547.938 2.87242 -3.0312 0
M  V30 5786 N 548.375 1.56261 0.205012 0
M  V30 5787 C 549.603 1.84141 0.943386 0
M  V30 5788 C 550.018 0.649772 1.77266 0
M  V30 5789 O 549.375 -0.381612 1.78466 0
M  V30 5790 C 549.426 3.10719 1.84759 0
M  V30 5791 O 549.147 4.25286 1.05181 0
M  V30 5792 C 550.648 3.51706 2.69848 0
M  V30 5793 H 547.868 0.611734 0.275721 0
M  V30 5794 H 550.412 2.03364 0.215253 0
M  V30 5795 H 548.567 2.93422 2.52947 0
M  V30 5796 H 548.981 4.97301 1.66709 0
M  V30 5797 H 550.455 4.43266 3.28967 0
M  V30 5798 H 550.932 2.7423 3.43067 0
M  V30 5799 H 551.538 3.71499 2.07047 0
M  V30 5800 N 549.853 -0.472356 1.50355 0
M  V30 5801 C 551.083 -1.24603 1.64796 0
M  V30 5802 C 551.491 -1.86297 0.330156 0
M  V30 5803 O 550.834 -1.69934 -0.697728 0
M  V30 5804 C 550.896 -2.39578 2.68035 0
M  V30 5805 C 550.56 -1.98531 4.11624 0
M  V30 5806 C 551.557 -1.50856 4.97532 0
M  V30 5807 C 549.242 -2.0729 4.57532 0
M  V30 5808 C 551.236 -1.12481 6.27397 0
M  V30 5809 C 548.923 -1.68527 5.87403 0
M  V30 5810 C 549.921 -1.212 6.7216 0
M  V30 5811 O 549.609 -0.829728 7.99607 0
M  V30 5812 H 549.341 -0.383035 0.55701 0
M  V30 5813 H 551.895 -0.570392 1.97321 0
M  V30 5814 H 550.125 -3.10309 2.30749 0
M  V30 5815 H 551.814 -3.01544 2.71709 0
M  V30 5816 H 552.58 -1.43511 4.63281 0
M  V30 5817 H 548.459 -2.43076 3.91708 0
M  V30 5818 H 552.003 -0.754698 6.93506 0
M  V30 5819 H 547.9 -1.7553 6.21176 0
M  V30 5820 H 548.668 -0.958689 8.12866 0
M  V30 5821 N 551.331 -1.39911 -0.725443 0
M  V30 5822 C 552.261 -1.42138 -1.85254 0
M  V30 5823 C 553.242 -0.283513 -1.67721 0
M  V30 5824 O 554.427 -0.490717 -1.87898 0
M  V30 5825 C 551.557 -1.27354 -3.23107 0
M  V30 5826 C 550.511 -2.3864 -3.55296 0
M  V30 5827 C 549.837 -2.08939 -4.92188 0
M  V30 5828 C 551.137 -3.8097 -3.57295 0
M  V30 5829 H 552.831 -2.36461 -1.83648 0
M  V30 5830 H 550.377 -1.13817 -0.882138 0
M  V30 5831 H 552.33 -1.2753 -4.01639 0
M  V30 5832 H 551.054 -0.295025 -3.25265 0
M  V30 5833 H 549.713 -2.37696 -2.79099 0
M  V30 5834 H 549.361 -1.09502 -4.90936 0
M  V30 5835 H 549.061 -2.83491 -5.14691 0
M  V30 5836 H 550.585 -2.10781 -5.73065 0
M  V30 5837 H 551.999 -3.8379 -4.25885 0
M  V30 5838 H 550.396 -4.5496 -3.9132 0
M  V30 5839 H 551.466 -4.11261 -2.5689 0
M  V30 5840 N 552.809 0.956637 -1.25245 0
M  V30 5841 C 553.739 2.07058 -1.07931 0
M  V30 5842 C 554.72 1.70096 0.0110361 0
M  V30 5843 O 555.905 1.93555 -0.158121 0
M  V30 5844 C 553.035 3.40272 -0.695124 0
M  V30 5845 C 551.989 3.91235 -1.73549 0
M  V30 5846 C 551.315 5.20921 -1.20604 0
M  V30 5847 C 552.615 4.17837 -3.13385 0
M  V30 5848 H 554.309 2.218 -2.01109 0
M  V30 5849 H 551.855 1.06581 -0.968326 0
M  V30 5850 H 553.808 4.1765 -0.560949 0
M  V30 5851 H 552.532 3.25462 0.272355 0
M  V30 5852 H 551.191 3.16025 -1.85807 0
M  V30 5853 H 550.839 5.02479 -0.228846 0
M  V30 5854 H 550.539 5.55987 -1.90136 0
M  V30 5855 H 552.063 6.00897 -1.08421 0
M  V30 5856 H 553.477 4.8588 -3.04292 0
M  V30 5857 H 551.874 4.64154 -3.80369 0
M  V30 5858 H 552.944 3.2419 -3.60595 0
M  V30 5859 N 554.287 1.06798 1.15896 0
M  V30 5860 C 555.22 0.627503 2.19403 0
M  V30 5861 C 556.198 -0.352352 1.58736 0
M  V30 5862 O 557.382 -0.260111 1.86697 0
M  V30 5863 C 554.509 -0.079356 3.38607 0
M  V30 5864 C 553.555 0.858057 4.17779 0
M  V30 5865 S 554.388 2.35605 4.80885 0
M  V30 5866 C 555.544 1.66083 6.03463 0
M  V30 5867 H 555.777 1.50441 2.56427 0
M  V30 5868 H 553.31 0.881427 1.26768 0
M  V30 5869 H 555.268 -0.48095 4.07673 0
M  V30 5870 H 553.929 -0.932524 2.99938 0
M  V30 5871 H 553.122 0.310108 5.03045 0
M  V30 5872 H 552.724 1.19977 3.54234 0
M  V30 5873 H 555.016 0.969337 6.7053 0
M  V30 5874 H 555.959 2.49159 6.62816 0
M  V30 5875 H 556.367 1.14122 5.52844 0
M  V30 5876 N 555.766 -1.3263 0.851289 0
M  V30 5877 C 556.696 -2.31449 0.308771 0
M  V30 5878 C 557.677 -1.59531 -0.590255 0
M  V30 5879 O 558.862 -1.87351 -0.511205 0
M  V30 5880 C 555.992 -3.43586 -0.506548 0
M  V30 5881 C 554.946 -4.26963 0.297753 0
M  V30 5882 C 554.272 -5.30831 -0.642094 0
M  V30 5883 C 555.572 -4.99643 1.52166 0
M  V30 5884 H 557.266 -2.77074 1.13447 0
M  V30 5885 H 554.812 -1.33207 0.546971 0
M  V30 5886 H 556.765 -4.11754 -0.896474 0
M  V30 5887 H 555.489 -2.96681 -1.36558 0
M  V30 5888 H 554.148 -3.60437 0.669391 0
M  V30 5889 H 553.796 -4.8018 -1.49788 0
M  V30 5890 H 553.496 -5.87501 -0.107968 0
M  V30 5891 H 555.02 -6.01862 -1.02927 0
M  V30 5892 H 556.434 -5.6051 1.20421 0
M  V30 5893 H 554.831 -5.66022 1.99347 0
M  V30 5894 H 555.901 -4.27701 2.28474 0
M  V30 5895 N 557.244 -0.608902 -1.45362 0
M  V30 5896 C 558.154 0.110969 -2.34337 0
M  V30 5897 C 559.17 0.859007 -1.51318 0
M  V30 5898 O 560.346 0.816296 -1.84116 0
M  V30 5899 C 557.411 1.09494 -3.28956 0
M  V30 5900 C 556.472 0.348718 -4.27881 0
M  V30 5901 C 555.705 1.28582 -5.17979 0
M  V30 5902 O 555.928 2.52369 -5.11533 0
M  V30 5903 O 554.862 0.782172 -5.96796 0
M  V30 5904 H 558.688 -0.620258 -2.97299 0
M  V30 5905 H 556.273 -0.36916 -1.44767 0
M  V30 5906 H 558.155 1.66163 -3.87257 0
M  V30 5907 H 556.83 1.80717 -2.68557 0
M  V30 5908 H 555.737 -0.260465 -3.73192 0
M  V30 5909 H 557.07 -0.323049 -4.91139 0
M  V30 5910 N 558.722 1.53707 -0.348139 0
M  V30 5911 C 559.97 2.00591 0.246478 0
M  V30 5912 C 560.291 1.23753 1.50699 0
M  V30 5913 O 559.561 0.345964 1.92821 0
M  V30 5914 H 558.141 0.741053 0.0940679 0
M  V30 5915 H 560.803 1.89139 -0.470354 0
M  V30 5916 H 559.899 3.08297 0.485714 0
M  V30 5917 N 560.2 0.0768682 1.57412 0
M  V30 5918 C 561.15 -0.898795 2.09537 0
M  V30 5919 C 562.134 -1.25556 1.0062 0
M  V30 5920 O 563.326 -1.23369 1.26921 0
M  V30 5921 C 560.455 -2.16453 2.66464 0
M  V30 5922 C 559.541 -1.83401 3.82393 0
M  V30 5923 N 559.932 -1.20823 4.91157 0
M  V30 5924 C 558.23 -2.13121 3.91785 0
M  V30 5925 C 558.931 -1.05976 5.71965 0
M  V30 5926 N 557.907 -1.57113 5.204 0
M  V30 5927 H 561.709 -0.410718 2.91016 0
M  V30 5928 H 559.223 -0.126878 1.61904 0
M  V30 5929 H 561.22 -2.87274 3.02125 0
M  V30 5930 H 559.88 -2.65844 1.86433 0
M  V30 5931 H 560.891 -0.877249 5.10416 0
M  V30 5932 H 557.568 -2.64854 3.22736 0
M  V30 5933 H 558.958 -0.571809 6.69462 0
M  V30 5934 N 561.678 -1.56367 -0.196722 0
M  V30 5935 C 562.908 -1.84371 -0.932254 0
M  V30 5936 C 563.316 -0.657013 -1.77426 0
M  V30 5937 O 562.659 0.383576 -1.79651 0
M  V30 5938 C 562.721 -3.06454 -1.87952 0
M  V30 5939 C 562.385 -4.40425 -1.21962 0
M  V30 5940 C 563.382 -5.16457 -0.597343 0
M  V30 5941 C 561.067 -4.8716 -1.22396 0
M  V30 5942 C 563.061 -6.37399 0.0117913 0
M  V30 5943 C 560.748 -6.08038 -0.610995 0
M  V30 5944 C 561.746 -6.83 0.00580487 0
M  V30 5945 O 561.434 -8.01589 0.609173 0
M  V30 5946 H 561.166 -0.616377 -0.277589 0
M  V30 5947 H 563.72 -2.04329 -0.209452 0
M  V30 5948 H 561.95 -2.82377 -2.64197 0
M  V30 5949 H 563.639 -3.21118 -2.48271 0
M  V30 5950 H 564.405 -4.81445 -0.586142 0
M  V30 5951 H 560.284 -4.2877 -1.69345 0
M  V30 5952 H 563.828 -6.9585 0.493836 0
M  V30 5953 H 559.725 -6.42519 -0.619693 0
M  V30 5954 H 560.493 -8.16935 0.505919 0
M  V30 5955 N 563.156 0.464375 -1.50603 0
M  V30 5956 C 564.106 1.55929 -1.66343 0
M  V30 5957 C 565.09 1.52338 -0.517887 0
M  V30 5958 O 566.282 1.59248 -0.772601 0
M  V30 5959 C 563.411 2.94327 -1.7671 0
M  V30 5960 C 562.497 3.02777 -2.96962 0
M  V30 5961 N 562.888 2.81026 -4.20545 0
M  V30 5962 C 561.186 3.33919 -2.95659 0
M  V30 5963 C 561.887 2.94618 -5.01573 0
M  V30 5964 N 560.863 3.25112 -4.35664 0
M  V30 5965 H 564.665 1.37822 -2.59581 0
M  V30 5966 H 562.179 0.671227 -1.47879 0
M  V30 5967 H 564.176 3.73063 -1.86091 0
M  V30 5968 H 562.836 3.13476 -0.846353 0
M  V30 5969 H 563.847 2.56477 -4.49933 0
M  V30 5970 H 560.524 3.59013 -2.13111 0
M  V30 5971 H 561.914 2.81984 -6.09865 0
M  V30 5972 N 564.634 1.40294 0.718013 0
M  V30 5973 C 565.597 1.4012 1.81381 0
M  V30 5974 C 566.597 0.295405 1.58063 0
M  V30 5975 O 567.787 0.554187 1.6515 0
M  V30 5976 C 564.919 1.19056 3.19435 0
M  V30 5977 H 566.112 2.37645 1.82933 0
M  V30 5978 H 563.665 1.26107 0.923405 0
M  V30 5979 H 564.4 0.222809 3.23534 0
M  V30 5980 H 564.185 1.99152 3.37758 0
M  V30 5981 H 565.675 1.21716 3.99468 0
M  V30 5982 N 566.112 -0.949982 1.2575 0
M  V30 5983 C 567.06 -2.06869 1.06339 0
M  V30 5984 C 568.054 -1.69399 -0.00708901 0
M  V30 5985 O 569.26 -1.79383 0.148897 0
M  V30 5986 H 565.635 -0.677197 0.326969 0
M  V30 5987 H 567.606 -2.20396 2.01167 0
M  V30 5988 C 566.355 -3.40503 0.703769 0
M  V30 5989 H 565.678 -3.69807 1.51931 0
M  V30 5990 H 567.118 -4.19623 0.607677 0
M  V30 5991 C 565.577 -3.31685 -0.5905 0
M  V30 5992 O 566.107 -3.67085 -1.63131 0
M  V30 5993 N 564.313 -2.84797 -0.577859 0
M  V30 5994 H 563.86 -2.56186 0.26951 0
M  V30 5995 H 563.818 -2.79279 -1.44398 0
M  V30 5996 N 567.59 -1.07411 -1.15328 0
M  V30 5997 C 568.836 -0.798831 -1.86404 0
M  V30 5998 C 569.169 0.673433 -1.8215 0
M  V30 5999 O 568.444 1.49428 -1.24505 0
M  V30 6000 C 568.727 -1.30846 -3.35487 0
M  V30 6001 C 568.58 -2.84532 -3.4837 0
M  V30 6002 C 569.899 -0.925486 -4.30259 0
M  V30 6003 H 567.018 -0.291659 -0.676834 0
M  V30 6004 H 569.66 -1.332 -1.35491 0
M  V30 6005 H 567.81 -0.854916 -3.78977 0
M  V30 6006 H 569.482 -3.3818 -3.13739 0
M  V30 6007 H 567.725 -3.22699 -2.8991 0
M  V30 6008 H 568.396 -3.15259 -4.53118 0
M  V30 6009 H 570.872 -1.3163 -3.94731 0
M  V30 6010 H 569.748 -1.3094 -5.33053 0
M  V30 6011 H 570.009 0.168525 -4.41779 0
M  V30 6012 N 569.068 1.32177 -0.85831 0
M  V30 6013 C 570.031 2.27086 -0.310588 0
M  V30 6014 C 571.031 1.51751 0.531806 0
M  V30 6015 O 572.221 1.70794 0.34279 0
M  V30 6016 C 569.353 3.36266 0.560179 0
M  V30 6017 H 570.546 2.77045 -1.1483 0
M  V30 6018 H 568.099 1.42911 -0.632942 0
M  V30 6019 H 568.834 2.9158 1.41956 0
M  V30 6020 H 568.619 3.92077 -0.0428473 0
M  V30 6021 H 570.109 4.06974 0.936056 0
M  V30 6022 N 570.547 0.616602 1.45037 0
M  V30 6023 C 571.777 0.121791 2.06241 0
M  V30 6024 C 572.185 -1.20289 1.46038 0
M  V30 6025 O 571.528 -1.7456 0.572242 0
M  V30 6026 C 571.59 -0.0827345 3.59405 0
M  V30 6027 C 571.254 1.16153 4.41993 0
M  V30 6028 C 572.251 2.08183 4.76399 0
M  V30 6029 C 569.936 1.39288 4.82601 0
M  V30 6030 C 571.93 3.21668 5.5028 0
M  V30 6031 C 569.617 2.53073 5.56235 0
M  V30 6032 C 570.615 3.44091 5.89992 0
M  V30 6033 O 570.303 4.55894 6.6213 0
M  V30 6034 H 570.035 0.0701667 0.672349 0
M  V30 6035 H 572.589 0.846877 1.87129 0
M  V30 6036 H 570.819 -0.862812 3.76952 0
M  V30 6037 H 572.508 -0.530273 4.02421 0
M  V30 6038 H 573.274 1.91538 4.45576 0
M  V30 6039 H 569.153 0.693396 4.55755 0
M  V30 6040 H 572.697 3.92733 5.76547 0
M  V30 6041 H 568.594 2.69667 5.86472 0
M  V30 6042 H 569.362 4.5469 6.80587 0
M  V30 6043 N 572.025 -1.5352 0.356285 0
M  V30 6044 C 572.975 -2.22204 -0.510815 0
M  V30 6045 C 573.959 -1.21393 -1.05605 0
M  V30 6046 O 575.151 -1.46883 -0.987639 0
M  V30 6047 C 572.28 -3.00786 -1.65478 0
M  V30 6048 C 571.366 -4.08965 -1.12287 0
M  V30 6049 N 571.757 -5.04829 -0.313191 0
M  V30 6050 C 570.055 -4.23505 -1.39856 0
M  V30 6051 C 570.756 -5.81695 -0.0230322 0
M  V30 6052 N 569.732 -5.40074 -0.618144 0
M  V30 6053 H 573.534 -2.93676 0.114711 0
M  V30 6054 H 571.048 -1.61572 0.163811 0
M  V30 6055 H 573.045 -3.48502 -2.28806 0
M  V30 6056 H 571.705 -2.30843 -2.28345 0
M  V30 6057 H 572.716 -5.17879 0.0468202 0
M  V30 6058 H 569.393 -3.64786 -2.0307 0
M  V30 6059 H 570.783 -6.68931 0.630927 0
M  V30 6060 N 573.503 -0.0852151 -1.57369 0
M  V30 6061 C 574.451 0.894856 -2.14698 0
M  V30 6062 C 575.445 1.29903 -1.08727 0
M  V30 6063 O 576.651 1.27471 -1.27088 0
M  V30 6064 H 573.026 0.306569 -0.686673 0
M  V30 6065 H 574.997 0.386542 -2.95886 0
M  V30 6066 C 573.746 2.14798 -2.73417 0
M  V30 6067 H 573.069 1.84585 -3.54638 0
M  V30 6068 H 574.509 2.81456 -3.1711 0
M  V30 6069 C 572.968 2.91546 -1.68828 0
M  V30 6070 O 573.498 3.85733 -1.12129 0
M  V30 6071 N 571.704 2.54901 -1.39549 0
M  V30 6072 H 571.251 1.7838 -1.85845 0
M  V30 6073 H 571.209 3.06553 -0.698054 0
M  V30 6074 N 574.981 1.5647 0.188427 0
M  V30 6075 C 576.206 1.85486 0.927891 0
M  V30 6076 C 576.631 0.669575 1.75779 0
M  V30 6077 O 575.989 -0.381573 1.77239 0
M  V30 6078 C 576.037 3.12784 1.7944 0
M  V30 6079 O 575.141 2.93805 2.894 0
M  V30 6080 H 574.482 0.610585 0.260925 0
M  V30 6081 H 577.012 2.037 0.191729 0
M  V30 6082 H 577.022 3.43749 2.19774 0
M  V30 6083 H 575.697 3.98671 1.18468 0
M  V30 6084 H 574.274 2.74153 2.52774 0
M  V30 6085 N 576.459 -0.456382 1.50847 0
M  V30 6086 C 577.389 -1.56025 1.73719 0
M  V30 6087 C 578.37 -1.5967 0.586473 0
M  V30 6088 O 579.555 -1.75702 0.827185 0
M  V30 6089 C 576.685 -2.94251 1.84483 0
M  V30 6090 C 575.639 -3.05471 2.99786 0
M  V30 6091 C 574.965 -4.45489 2.95709 0
M  V30 6092 C 576.265 -2.81318 4.40065 0
M  V30 6093 H 577.959 -1.37138 2.66146 0
M  V30 6094 H 575.505 -0.658299 1.28072 0
M  V30 6095 H 577.458 -3.71417 1.99067 0
M  V30 6096 H 576.182 -3.14328 0.886891 0
M  V30 6097 H 574.841 -2.30741 2.84876 0
M  V30 6098 H 574.489 -4.62505 1.97732 0
M  V30 6099 H 574.189 -4.53929 3.73125 0
M  V30 6100 H 575.713 -5.24655 3.12362 0
M  V30 6101 H 577.127 -3.48226 4.55425 0
M  V30 6102 H 575.524 -3.01188 5.19043 0
M  V30 6103 H 576.594 -1.7706 4.51418 0
M  V30 6104 N 577.937 -1.40673 -0.710563 0
M  V30 6105 C 578.887 -1.37812 -1.81636 0
M  V30 6106 C 579.871 -0.254853 -1.58869 0
M  V30 6107 O 581.063 -0.494356 -1.69956 0
M  V30 6108 C 578.192 -1.24802 -3.19811 0
M  V30 6109 C 577.278 -2.41931 -3.48325 0
M  V30 6110 N 577.669 -3.67411 -3.47625 0
M  V30 6111 C 575.967 -2.35419 -3.78806 0
M  V30 6112 C 576.668 -4.45008 -3.74623 0
M  V30 6113 N 575.644 -3.74916 -3.93623 0
M  V30 6114 H 579.446 -2.32766 -1.79436 0
M  V30 6115 H 576.96 -1.34516 -0.909909 0
M  V30 6116 H 578.957 -1.20835 -3.99004 0
M  V30 6117 H 577.617 -0.308202 -3.23234 0
M  V30 6118 H 578.628 -4.00503 -3.28356 0
M  V30 6119 H 575.305 -1.4983 -3.89689 0
M  V30 6120 H 576.695 -5.53884 -3.80344 0
M  V30 6121 N 579.415 0.9433 -1.26252 0
M  V30 6122 C 580.378 2.02326 -1.07689 0
M  V30 6123 C 581.378 1.60779 -0.0259174 0
M  V30 6124 O 582.568 1.72108 -0.269134 0
M  V30 6125 C 579.7 3.34886 -0.63752 0
M  V30 6126 H 580.893 2.20225 -2.0357 0
M  V30 6127 H 578.446 1.12197 -1.08819 0
M  V30 6128 H 579.181 3.22684 0.323377 0
M  V30 6129 H 578.966 3.66393 -1.39637 0
M  V30 6130 H 580.456 4.14231 -0.529418 0
M  V30 6131 N 580.893 1.08022 1.14757 0
M  V30 6132 C 581.856 0.71048 2.1791 0
M  V30 6133 C 582.856 -0.252731 1.58801 0
M  V30 6134 O 584.046 -0.0327915 1.74169 0
M  V30 6135 C 581.178 0.0483203 3.40866 0
M  V30 6136 H 582.371 1.62384 2.52134 0
M  V30 6137 H 579.924 0.877595 1.29337 0
M  V30 6138 H 580.659 -0.876959 3.12218 0
M  V30 6139 H 580.444 0.741189 3.85031 0
M  V30 6140 H 581.934 -0.195471 4.17142 0
M  V30 6141 N 582.371 -1.3172 0.865308 0
M  V30 6142 C 583.648 -1.91574 0.394789 0
M  V30 6143 C 584.028 -1.78769 -1.12271 0
M  V30 6144 O 583.376 -1.19245 -1.94918 0
M  V30 6145 C 583.586 -3.37957 0.870982 0
M  V30 6146 C 584.934 -4.15073 0.894384 0
M  V30 6147 O 585.958 -3.4672 0.816325 0
M  V30 6148 O 584.817 -5.37151 1.00651 0
M  V30 6149 H 581.911 -0.818649 0.117229 0
M  V30 6150 H 584.457 -1.4042 0.952913 0
M  V30 6151 H 583.229 -3.41269 1.91444 0
M  V30 6152 H 582.852 -3.96534 0.290907 0
M  V30 6153 N 583.85 -0.624285 -1.44708 0
M  V30 6154 C 585.096 -0.126237 -2.02407 0
M  V30 6155 C 585.428 1.24618 -1.48943 0
M  V30 6156 O 584.704 1.82569 -0.670742 0
M  V30 6157 C 584.986 -0.105449 -3.59946 0
M  V30 6158 C 584.84 -1.50972 -4.23707 0
M  V30 6159 C 586.159 0.573629 -4.36346 0
M  V30 6160 H 583.278 -0.0473472 -0.735478 0
M  V30 6161 H 585.92 -0.799452 -1.72362 0
M  V30 6162 H 584.07 0.46783 -3.85673 0
M  V30 6163 H 585.742 -2.13136 -4.0911 0
M  V30 6164 H 583.985 -2.0656 -3.81465 0
M  V30 6165 H 584.656 -1.44727 -5.32689 0
M  V30 6166 H 587.132 0.0861787 -4.16011 0
M  V30 6167 H 586.008 0.557338 -5.46063 0
M  V30 6168 H 586.269 1.64276 -4.10446 0
M  V30 6169 N 585.328 1.53329 -0.364422 0
M  V30 6170 C 586.291 2.24323 0.470292 0
M  V30 6171 C 587.291 1.25068 1.01067 0
M  V30 6172 O 588.481 1.49354 0.896605 0
M  V30 6173 C 585.613 2.97908 1.65722 0
M  V30 6174 H 586.806 2.9952 -0.150917 0
M  V30 6175 H 584.359 1.55868 -0.116092 0
M  V30 6176 H 585.094 2.2695 2.31655 0
M  V30 6177 H 584.879 3.70732 1.27671 0
M  V30 6178 H 586.369 3.5188 2.24878 0
M  V30 6179 N 586.806 0.0935595 1.57322 0
M  V30 6180 C 587.738 -0.895923 2.10964 0
M  V30 6181 C 588.751 -1.24705 1.04654 0
M  V30 6182 O 589.94 -1.20044 1.32105 0
M  V30 6183 C 587.04 -2.20546 2.57318 0
M  V30 6184 C 586.213 -2.0299 3.87445 0
M  V30 6185 C 585.272 -3.17443 4.19662 0
M  V30 6186 O 584.298 -2.91474 4.88909 0
M  V30 6187 N 585.5 -4.43168 3.74943 0
M  V30 6188 H 588.265 -0.437788 2.96485 0
M  V30 6189 H 585.826 -0.0915863 1.61641 0
M  V30 6190 H 587.818 -2.9606 2.75917 0
M  V30 6191 H 586.388 -2.57789 1.76816 0
M  V30 6192 H 585.608 -1.11815 3.78009 0
M  V30 6193 H 586.896 -1.88535 4.7258 0
M  V30 6194 H 586.294 -4.67149 3.19043 0
M  V30 6195 H 584.851 -5.15637 3.987 0
M  V30 6196 N 588.284 -1.56567 -0.180126 0
M  V30 6197 C 589.509 -1.85975 -0.918041 0
M  V30 6198 C 589.934 -0.678888 -1.75422 0
M  V30 6199 O 589.292 0.372168 -1.77439 0
M  V30 6200 C 589.34 -3.13731 -1.77779 0
M  V30 6201 O 588.444 -2.95335 -2.87838 0
M  V30 6202 H 587.785 -0.61196 -0.257683 0
M  V30 6203 H 590.315 -2.03798 -0.180923 0
M  V30 6204 H 590.325 -3.4491 -2.17948 0
M  V30 6205 H 589 -3.99293 -1.16352 0
M  V30 6206 H 587.577 -2.7549 -2.51316 0
M  V30 6207 N 589.762 0.448376 -1.51087 0
M  V30 6208 C 590.99 1.22143 -1.66999 0
M  V30 6209 C 591.405 1.85283 -0.362699 0
M  V30 6210 O 590.762 1.70236 0.65772 0
M  V30 6211 C 590.813 2.31357 -2.7777 0
M  V30 6212 O 590.534 1.70801 -4.03434 0
M  V30 6213 C 592.035 3.21836 -3.04855 0
M  V30 6214 H 589.255 0.368558 -0.560719 0
M  V30 6215 H 591.799 0.532618 -1.97442 0
M  V30 6216 H 589.954 2.95973 -2.49958 0
M  V30 6217 H 590.368 2.42895 -4.64868 0
M  V30 6218 H 591.842 3.94627 -3.85971 0
M  V30 6219 H 592.319 3.81949 -2.16821 0
M  V30 6220 H 592.925 2.62933 -3.34285 0
M  V30 6221 N 591.24 1.41047 0.703093 0
M  V30 6222 C 592.19 1.38774 1.80903 0
M  V30 6223 C 593.174 0.263275 1.58731 0
M  V30 6224 O 594.366 0.503362 1.69692 0
M  V30 6225 C 591.495 1.26497 3.19145 0
M  V30 6226 C 590.581 2.43775 3.47037 0
M  V30 6227 N 590.972 3.69249 3.45672 0
M  V30 6228 C 589.27 2.37425 3.77552 0
M  V30 6229 C 589.971 4.46989 3.72258 0
M  V30 6230 N 588.947 3.76998 3.91629 0
M  V30 6231 H 592.749 2.33714 1.78199 0
M  V30 6232 H 590.263 1.34996 0.902762 0
M  V30 6233 H 592.26 1.2295 3.98358 0
M  V30 6234 H 590.92 0.32534 3.23066 0
M  V30 6235 H 591.931 4.02239 3.26228 0
M  V30 6236 H 588.608 1.51895 3.88888 0
M  V30 6237 H 589.998 5.55894 3.77402 0
M  V30 6238 N 592.718 -0.936591 1.26751 0
M  V30 6239 C 593.964 -1.6858 1.12733 0
M  V30 6240 C 594.297 -1.91414 -0.327745 0
M  V30 6241 O 593.572 -1.49812 -1.24043 0
M  V30 6242 C 593.855 -3.05779 1.90187 0
M  V30 6243 C 593.708 -2.90242 3.43627 0
M  V30 6244 C 595.027 -4.0597 1.69931 0
M  V30 6245 H 592.146 -0.61182 0.410908 0
M  V30 6246 H 594.788 -1.08747 1.55801 0
M  V30 6247 H 592.938 -3.56853 1.53584 0
M  V30 6248 H 594.61 -2.46354 3.9001 0
M  V30 6249 H 592.853 -2.2577 3.70419 0
M  V30 6250 H 593.524 -3.87572 3.93055 0
M  V30 6251 H 596 -3.63874 2.0183 0
M  V30 6252 H 594.876 -4.99974 2.26534 0
M  V30 6253 H 595.137 -4.37369 0.64502 0
M  V30 6254 N 594.196 -1.08629 -1.14182 0
M  V30 6255 C 595.126 -0.740003 -2.21464 0
M  V30 6256 C 596.107 0.278591 -1.67803 0
M  V30 6257 O 597.292 0.148461 -1.93632 0
M  V30 6258 C 594.422 -0.150952 -3.46972 0
M  V30 6259 C 593.376 -1.09815 -4.13672 0
M  V30 6260 C 592.702 -0.3712 -5.3341 0
M  V30 6261 C 594.002 -2.43722 -4.61949 0
M  V30 6262 H 595.696 -1.63697 -2.50686 0
M  V30 6263 H 593.242 -0.788526 -1.20492 0
M  V30 6264 H 595.195 0.103325 -4.21273 0
M  V30 6265 H 593.919 0.781164 -3.1712 0
M  V30 6266 H 592.578 -1.33756 -3.41328 0
M  V30 6267 H 592.226 0.564792 -4.99819 0
M  V30 6268 H 591.926 -1.00267 -5.78982 0
M  V30 6269 H 593.45 -0.12503 -6.10472 0
M  V30 6270 H 594.864 -2.24034 -5.27714 0
M  V30 6271 H 593.261 -3.02582 -5.18232 0
M  V30 6272 H 594.331 -3.05082 -3.76899 0
M  V30 6273 N 595.674 1.31259 -0.872281 0
M  V30 6274 C 596.604 2.30929 -0.345554 0
M  V30 6275 C 597.585 1.60449 0.5648 0
M  V30 6276 O 598.77 1.8814 0.481335 0
M  V30 6277 C 595.9 3.44348 0.451823 0
M  V30 6278 C 594.854 4.26435 -0.365641 0
M  V30 6279 C 594.18 5.31785 0.557562 0
M  V30 6280 C 595.48 4.97159 -1.60095 0
M  V30 6281 H 597.174 2.75234 -1.17841 0
M  V30 6282 H 594.72 1.3232 -0.568094 0
M  V30 6283 H 596.673 4.13128 0.830854 0
M  V30 6284 H 595.397 2.98816 1.31821 0
M  V30 6285 H 594.056 3.59326 -0.726649 0
M  V30 6286 H 593.704 4.82502 1.4213 0
M  V30 6287 H 593.404 5.87598 0.0144878 0
M  V30 6288 H 594.928 6.03424 0.933387 0
M  V30 6289 H 596.342 5.58523 -1.29323 0
M  V30 6290 H 594.739 5.62779 -2.08327 0
M  V30 6291 H 595.809 4.24012 -2.35249 0
M  V30 6292 N 597.152 0.631951 1.44375 0
M  V30 6293 C 598.115 -0.0628142 2.29114 0
M  V30 6294 C 599.115 -0.771494 1.41084 0
M  V30 6295 O 600.305 -0.615959 1.62947 0
M  V30 6296 C 597.437 -1.09953 3.22681 0
M  V30 6297 H 598.63 0.682509 2.92031 0
M  V30 6298 H 596.183 0.392128 1.51301 0
M  V30 6299 H 596.918 -1.87481 2.64616 0
M  V30 6300 H 596.703 -0.595286 3.87555 0
M  V30 6301 H 598.193 -1.58538 3.86336 0
M  V30 6302 N 598.631 -1.53133 0.372548 0
M  V30 6303 C 599.859 -2.05774 -0.215515 0
M  V30 6304 C 600.274 -1.24555 -1.41886 0
M  V30 6305 O 599.631 -0.287951 -1.80214 0
M  V30 6306 C 599.682 -3.5645 -0.602161 0
M  V30 6307 O 599.403 -4.34591 0.553359 0
M  V30 6308 C 600.904 -4.25374 -1.24787 0
M  V30 6309 H 598.124 -0.670009 -0.0364529 0
M  V30 6310 H 600.668 -1.97434 0.532934 0
M  V30 6311 H 598.823 -3.64918 -1.30052 0
M  V30 6312 H 599.237 -5.23954 0.239336 0
M  V30 6313 H 600.711 -5.32097 -1.46891 0
M  V30 6314 H 601.188 -3.79531 -2.21026 0
M  V30 6315 H 601.794 -4.21177 -0.590752 0
M  V30 6316 N 600.109 -0.101901 -1.5727 0
M  V30 6317 C 601.52 0.426173 -1.81771 0
M  V30 6318 C 601.871 1.67725 -1.01797 0
M  V30 6319 O 600.996 2.14958 -0.249386 0
M  V30 6320 C 601.591 0.779962 -3.297 0
M  V30 6321 C 600.15 1.25275 -3.54941 0
M  V30 6322 C 599.297 0.252814 -2.76145 0
M  V30 6323 H 602.248 -0.32726 -1.55289 0
M  V30 6324 H 602.269 1.63891 -3.43395 0
M  V30 6325 H 601.781 -0.130778 -3.8788 0
M  V30 6326 H 599.882 2.18097 -3.021 0
M  V30 6327 H 599.995 1.20988 -4.63572 0
M  V30 6328 H 598.359 0.736362 -2.43823 0
M  V30 6329 H 599.142 -0.650724 -3.37076 0
M  V30 6330 N 601.587 1.56661 0.17182 0
M  V30 6331 C 602.55 1.9549 1.19651 0
M  V30 6332 C 603.55 0.838501 1.37207 0
M  V30 6333 O 604.74 1.10556 1.34622 0
M  V30 6334 C 601.872 2.24927 2.56166 0
M  V30 6335 H 603.065 2.87184 0.864007 0
M  V30 6336 H 600.618 1.50711 0.41425 0
M  V30 6337 H 601.353 1.35944 2.94431 0
M  V30 6338 H 601.138 3.06301 2.4479 0
M  V30 6339 H 602.628 2.55891 3.30014 0
M  V30 6340 N 603.065 -0.440357 1.51323 0
M  V30 6341 C 603.995 -1.54174 1.75364 0
M  V30 6342 C 604.976 -1.59039 0.603375 0
M  V30 6343 O 606.161 -1.74815 0.845774 0
M  V30 6344 C 603.291 -2.92277 1.87593 0
M  V30 6345 C 602.245 -3.02274 3.03009 0
M  V30 6346 C 601.571 -4.42327 3.00418 0
M  V30 6347 C 602.871 -2.76634 4.43024 0
M  V30 6348 H 604.565 -1.34307 2.67585 0
M  V30 6349 H 602.111 -0.644678 1.28763 0
M  V30 6350 H 604.064 -3.69284 2.02995 0
M  V30 6351 H 602.788 -3.13369 0.920179 0
M  V30 6352 H 601.447 -2.27706 2.87307 0
M  V30 6353 H 601.095 -4.60382 2.02626 0
M  V30 6354 H 600.795 -4.49946 3.77918 0
M  V30 6355 H 602.319 -5.21312 3.17909 0
M  V30 6356 H 603.733 -3.43376 4.59093 0
M  V30 6357 H 602.13 -2.95666 5.22208 0
M  V30 6358 H 603.2 -1.72262 4.5327 0
M  V30 6359 N 604.543 -1.41418 -0.695603 0
M  V30 6360 C 605.453 -1.45622 -1.83933 0
M  V30 6361 C 606.469 -0.346825 -1.70508 0
M  V30 6362 O 607.645 -0.59454 -1.92424 0
M  V30 6363 C 604.71 -1.33627 -3.19914 0
M  V30 6364 C 603.771 -2.54882 -3.45447 0
M  V30 6365 C 603.004 -2.43449 -4.7494 0
M  V30 6366 O 603.227 -1.45905 -5.51424 0
M  V30 6367 O 602.161 -3.33206 -5.01256 0
M  V30 6368 H 605.987 -2.42114 -1.83342 0
M  V30 6369 H 603.572 -1.22956 -0.848658 0
M  V30 6370 H 605.454 -1.29221 -4.01098 0
M  V30 6371 H 604.129 -0.402508 -3.21188 0
M  V30 6372 H 603.036 -2.64865 -2.64192 0
M  V30 6373 H 604.369 -3.47087 -3.48987 0
M  V30 6374 N 606.021 0.929856 -1.27246 0
M  V30 6375 C 606.984 2.01172 -1.09829 0
M  V30 6376 C 607.984 1.60743 -0.0429687 0
M  V30 6377 O 609.174 1.71813 -0.287373 0
M  V30 6378 C 606.306 3.34191 -0.673003 0
M  V30 6379 H 607.499 2.18054 -2.05895 0
M  V30 6380 H 605.052 1.11036 -1.10003 0
M  V30 6381 H 605.787 3.23009 0.289134 0
M  V30 6382 H 605.572 3.64892 -1.43515 0
M  V30 6383 H 607.062 4.13646 -0.573323 0
M  V30 6384 N 607.499 1.09233 1.13605 0
M  V30 6385 C 608.745 0.828385 1.8511 0
M  V30 6386 C 609.078 -0.64437 1.83198 0
M  V30 6387 O 608.353 -1.47428 1.26867 0
M  V30 6388 C 608.636 1.36167 3.33363 0
M  V30 6389 C 608.489 2.90038 3.438 0
M  V30 6390 C 609.808 0.993819 4.28732 0
M  V30 6391 H 606.927 0.30239 0.672108 0
M  V30 6392 H 609.569 1.35339 1.33355 0
M  V30 6393 H 607.719 0.9151 3.77569 0
M  V30 6394 H 609.391 3.43128 3.08319 0
M  V30 6395 H 607.634 3.27271 2.84739 0
M  V30 6396 H 608.305 3.22428 4.48045 0
M  V30 6397 H 610.781 1.37893 3.92587 0
M  V30 6398 H 609.657 1.39403 5.30903 0
M  V30 6399 H 609.918 -0.0982206 4.41991 0
M  V30 6400 N 608.977 -1.30795 0.87923 0
M  V30 6401 C 610.224 -1.96362 0.494786 0
M  V30 6402 C 610.552 -1.69448 -0.954868 0
M  V30 6403 O 609.807 -0.988711 -1.68888 0
M  V30 6404 C 610.106 -3.50287 0.709476 0
M  V30 6405 C 609.772 -3.9724 2.13333 0
M  V30 6406 C 608.434 -4.09772 2.52271 0
M  V30 6407 C 610.786 -4.21807 3.06151 0
M  V30 6408 C 608.114 -4.44227 3.83248 0
M  V30 6409 C 610.466 -4.5773 4.36654 0
M  V30 6410 C 609.13 -4.68469 4.75492 0
M  V30 6411 H 608.4 -0.71854 0.181055 0
M  V30 6412 H 611.047 -1.55764 1.11399 0
M  V30 6413 H 609.352 -3.91799 0.0072 0
M  V30 6414 H 611.049 -3.99082 0.391703 0
M  V30 6415 H 607.639 -3.87988 1.82107 0
M  V30 6416 H 611.823 -4.11611 2.77291 0
M  V30 6417 H 607.079 -4.50741 4.13089 0
M  V30 6418 H 611.253 -4.7569 5.08617 0
M  V30 6419 H 608.88 -4.94923 5.77022 0
M  V30 6420 N 610.455 -0.639598 -1.44038 0
M  V30 6421 C 611.683 -0.154811 -2.0632 0
M  V30 6422 C 612.098 1.17406 -1.47856 0
M  V30 6423 O 611.455 1.72193 -0.604638 0
M  V30 6424 C 611.506 -0.0429958 -3.61474 0
M  V30 6425 O 611.227 -1.31932 -4.17763 0
M  V30 6426 C 612.728 0.469486 -4.40807 0
M  V30 6427 H 609.948 -0.0835862 -0.665773 0
M  V30 6428 H 612.492 -0.876397 -1.84769 0
M  V30 6429 H 610.647 0.629075 -3.82258 0
M  V30 6430 H 611.061 -1.16965 -5.11292 0
M  V30 6431 H 612.535 0.496712 -5.49761 0
M  V30 6432 H 613.012 1.49819 -4.12857 0
M  V30 6433 H 613.618 -0.169624 -4.24962 0
M  V30 6434 N 611.933 1.52934 -0.380664 0
M  V30 6435 C 613.21 1.93845 0.261417 0
M  V30 6436 C 613.59 1.31544 1.65104 0
M  V30 6437 O 612.938 0.480234 2.23397 0
M  V30 6438 C 613.148 3.47739 0.296466 0
M  V30 6439 C 614.496 4.21284 0.529578 0
M  V30 6440 O 615.52 3.54199 0.377041 0
M  V30 6441 O 614.379 5.40195 0.827753 0
M  V30 6442 H 611.473 0.811318 0.160285 0
M  V30 6443 H 614.019 1.64042 -0.434544 0
M  V30 6444 H 612.791 3.85395 -0.67724 0
M  V30 6445 H 612.414 3.8382 1.0377 0
M  V30 6446 N 613.412 0.11024 1.57214 0
M  V30 6447 C 614.342 -0.840002 2.17867 0
M  V30 6448 C 615.323 -1.28352 1.11624 0
M  V30 6449 O 616.508 -1.3477 1.39824 0
M  V30 6450 C 613.638 -2.09349 2.77111 0
M  V30 6451 C 612.592 -1.78807 3.8886 0
M  V30 6452 C 611.918 -3.11112 4.34872 0
M  V30 6453 C 613.218 -1.0632 5.11364 0
M  V30 6454 H 614.912 -0.334608 2.97524 0
M  V30 6455 H 612.458 -0.159502 1.43114 0
M  V30 6456 H 614.411 -2.76275 3.18198 0
M  V30 6457 H 613.135 -2.62198 1.9473 0
M  V30 6458 H 611.794 -1.14273 3.48335 0
M  V30 6459 H 611.442 -3.61877 3.49362 0
M  V30 6460 H 611.142 -2.91453 5.10224 0
M  V30 6461 H 612.666 -3.79171 4.78604 0
M  V30 6462 H 614.08 -1.63383 5.49526 0
M  V30 6463 H 612.477 -0.967876 5.92243 0
M  V30 6464 H 613.547 -0.0484569 4.84876 0
M  V30 6465 N 614.89 -1.56749 -0.16351 0
M  V30 6466 C 615.8 -2.00255 -1.2221 0
M  V30 6467 C 616.816 -0.915194 -1.47987 0
M  V30 6468 O 617.992 -1.22342 -1.59982 0
M  V30 6469 C 615.057 -2.36035 -2.53946 0
M  V30 6470 C 614.118 -3.58637 -2.35962 0
M  V30 6471 C 613.351 -3.92701 -3.61416 0
M  V30 6472 O 613.574 -3.27632 -4.66919 0
M  V30 6473 O 612.508 -4.86019 -3.55062 0
M  V30 6474 H 616.334 -2.90586 -0.882794 0
M  V30 6475 H 613.919 -1.44721 -0.370978 0
M  V30 6476 H 615.801 -2.59982 -3.31643 0
M  V30 6477 H 614.476 -1.48863 -2.8744 0
M  V30 6478 H 613.383 -3.39898 -1.5627 0
M  V30 6479 H 614.716 -4.46374 -2.0739 0
M  V30 6480 N 616.368 0.432326 -1.51554 0
M  V30 6481 C 617.617 1.17831 -1.63703 0
M  V30 6482 C 617.93 1.92229 -0.36156 0
M  V30 6483 O 619.136 2.69069 -0.362495 0
M  V30 6484 C 617.592 2.14318 -2.89129 0
M  V30 6485 C 617.2 1.45544 -4.23699 0
M  V30 6486 C 618.944 2.89319 -3.10636 0
M  V30 6487 C 616.851 2.40545 -5.4027 0
M  V30 6488 H 615.781 0.443533 -0.60975 0
M  V30 6489 H 618.432 0.444878 -1.78026 0
M  V30 6490 H 616.814 2.91117 -2.68452 0
M  V30 6491 H 617.988 0.742693 -4.54775 0
M  V30 6492 H 616.303 0.826772 -4.0811 0
M  V30 6493 H 618.9 3.60495 -3.94902 0
M  V30 6494 H 619.243 3.50951 -2.23918 0
M  V30 6495 H 619.776 2.19625 -3.31677 0
M  V30 6496 H 616.515 1.83594 -6.29264 0
M  V30 6497 H 616.035 3.09859 -5.13563 0
M  V30 6498 H 617.714 3.01569 -5.72421 0
M  V30 6499 N 617.846 1.41785 0.688094 0
M  V30 6500 C 618.776 1.47 1.8142 0
M  V30 6501 C 619.757 0.327881 1.6691 0
M  V30 6502 O 620.942 0.540362 1.86531 0
M  V30 6503 C 618.072 1.35876 3.19617 0
M  V30 6504 C 617.026 2.47976 3.48844 0
M  V30 6505 C 616.352 2.21915 4.86475 0
M  V30 6506 C 617.652 3.90309 3.47068 0
M  V30 6507 H 619.346 2.41247 1.77314 0
M  V30 6508 H 616.892 1.16116 0.851651 0
M  V30 6509 H 618.845 1.38134 3.98117 0
M  V30 6510 H 617.569 0.38116 3.24368 0
M  V30 6511 H 616.228 2.45013 2.72698 0
M  V30 6512 H 615.876 1.2248 4.8786 0
M  V30 6513 H 615.576 2.97037 5.06994 0
M  V30 6514 H 617.1 2.25901 5.67275 0
M  V30 6515 H 618.514 3.94947 4.1556 0
M  V30 6516 H 616.911 4.65175 3.7912 0
M  V30 6517 H 617.981 4.17927 2.45896 0
M  V30 6518 N 619.324 -0.923095 1.27737 0
M  V30 6519 C 620.287 -2.00587 1.10894 0
M  V30 6520 C 621.287 -1.60718 0.0514927 0
M  V30 6521 O 622.477 -1.71658 0.296481 0
M  V30 6522 C 619.609 -3.33829 0.690717 0
M  V30 6523 H 620.802 -2.16959 2.07048 0
M  V30 6524 H 618.355 -1.10451 1.1059 0
M  V30 6525 H 619.09 -3.23157 -0.272 0
M  V30 6526 H 618.875 -3.64125 1.45448 0
M  V30 6527 H 620.365 -4.13336 0.595252 0
M  V30 6528 N 620.802 -1.09834 -1.13024 0
M  V30 6529 C 621.765 -0.745058 -2.16752 0
M  V30 6530 C 622.765 0.227435 -1.59183 0
M  V30 6531 O 623.955 0.0050786 -1.74199 0
M  V30 6532 C 621.087 -0.102543 -3.40746 0
M  V30 6533 H 622.28 -1.66375 -2.49518 0
M  V30 6534 H 619.833 -0.898061 -1.27924 0
M  V30 6535 H 620.568 0.827177 -3.13573 0
M  V30 6536 H 620.353 -0.80235 -3.83803 0
M  V30 6537 H 621.843 0.129082 -4.174 0
M  V30 6538 N 622.28 1.30327 -0.886154 0
M  V30 6539 C 623.21 2.30549 -0.370028 0
M  V30 6540 C 624.191 1.61039 0.547751 0
M  V30 6541 O 625.376 1.8864 0.461353 0
M  V30 6542 C 622.506 3.44808 0.415275 0
M  V30 6543 C 621.46 4.26024 -0.41085 0
M  V30 6544 C 620.786 5.32347 0.501128 0
M  V30 6545 C 622.086 4.95433 -1.65359 0
M  V30 6546 H 623.78 2.73969 -1.20754 0
M  V30 6547 H 621.326 1.3171 -0.582097 0
M  V30 6548 H 623.279 4.13986 0.78699 0
M  V30 6549 H 622.003 3.00197 1.28644 0
M  V30 6550 H 620.662 3.58535 -0.764719 0
M  V30 6551 H 620.31 4.83982 1.37004 0
M  V30 6552 H 620.01 5.87581 -0.0478356 0
M  V30 6553 H 621.534 6.0438 0.869333 0
M  V30 6554 H 622.948 5.5712 -1.35239 0
M  V30 6555 H 621.345 5.60537 -2.14284 0
M  V30 6556 H 622.415 4.21493 -2.39733 0
M  V30 6557 N 623.758 0.647228 1.43697 0
M  V30 6558 C 625.005 0.158188 2.01881 0
M  V30 6559 C 625.333 -1.22573 1.51017 0
M  V30 6560 O 624.588 -1.83086 0.69122 0
M  V30 6561 C 624.887 0.111481 3.57226 0
M  V30 6562 C 624.553 1.43633 4.27411 0
M  V30 6563 C 623.215 1.79915 4.463 0
M  V30 6564 C 625.567 2.31011 4.67208 0
M  V30 6565 C 622.895 3.03251 5.02251 0
M  V30 6566 C 625.247 3.53633 5.24525 0
M  V30 6567 C 623.911 3.90118 5.41631 0
M  V30 6568 H 623.181 0.0578851 0.738736 0
M  V30 6569 H 625.828 0.836746 1.72252 0
M  V30 6570 H 624.133 -0.650507 3.86362 0
M  V30 6571 H 625.83 -0.283682 3.99995 0
M  V30 6572 H 622.42 1.14403 4.1305 0
M  V30 6573 H 626.604 2.04272 4.52313 0
M  V30 6574 H 621.86 3.31575 5.13681 0
M  V30 6575 H 626.034 4.21561 5.5431 0
M  V30 6576 H 623.661 4.85768 5.84751 0
M  V30 6577 N 625.236 -1.5273 0.388769 0
M  V30 6578 C 626.199 -2.25043 -0.434544 0
M  V30 6579 C 627.199 -1.26661 -0.990644 0
M  V30 6580 O 628.389 -1.50762 -0.872731 0
M  V30 6581 C 625.521 -3.00507 -1.60961 0
M  V30 6582 H 626.714 -2.99242 0.198549 0
M  V30 6583 H 624.267 -1.55664 0.140875 0
M  V30 6584 H 625.002 -2.30607 -2.28015 0
M  V30 6585 H 624.787 -3.72716 -1.21757 0
M  V30 6586 H 626.277 -3.55413 -2.19251 0
M  V30 6587 N 626.714 -0.118576 -1.57153 0
M  V30 6588 C 627.939 0.550582 -1.99958 0
M  V30 6589 C 628.364 1.59458 -0.997736 0
M  V30 6590 O 627.722 1.81274 0.0306269 0
M  V30 6591 C 627.77 1.15379 -3.41643 0
M  V30 6592 O 626.874 2.26932 -3.44348 0
M  V30 6593 H 626.215 0.137567 -0.649593 0
M  V30 6594 H 628.745 -0.206926 -2.03551 0
M  V30 6595 H 628.755 1.48942 -3.79843 0
M  V30 6596 H 627.43 0.389087 -4.14076 0
M  V30 6597 H 626.007 1.94812 -3.17967 0
M  V30 6598 N 628.193 1.56834 0.155195 0
M  V30 6599 C 629.156 1.96748 1.17571 0
M  V30 6600 C 630.156 0.853006 1.3631 0
M  V30 6601 O 631.346 1.11978 1.33441 0
M  V30 6602 C 628.478 2.27631 2.53765 0
M  V30 6603 H 629.671 2.88085 0.833498 0
M  V30 6604 H 627.224 1.51141 0.398242 0
M  V30 6605 H 627.959 1.39059 2.92973 0
M  V30 6606 H 627.744 3.0888 2.41527 0
M  V30 6607 H 629.234 2.59377 3.27282 0
M  V30 6608 N 629.671 -0.424282 1.51781 0
M  V30 6609 C 630.92 -1.16961 1.64326 0
M  V30 6610 C 631.233 -1.92035 0.371749 0
M  V30 6611 O 632.439 -2.68873 0.37676 0
M  V30 6612 C 630.895 -2.12782 2.90262 0
M  V30 6613 C 630.503 -1.43295 4.24465 0
M  V30 6614 C 632.247 -2.87667 3.12166 0
M  V30 6615 C 630.154 -2.37676 5.41538 0
M  V30 6616 H 629.084 -0.440293 0.612093 0
M  V30 6617 H 631.735 -0.435431 1.78259 0
M  V30 6618 H 630.117 -2.8969 2.69992 0
M  V30 6619 H 631.291 -0.718564 4.55163 0
M  V30 6620 H 629.606 -0.805118 4.08542 0
M  V30 6621 H 632.203 -3.58395 3.96808 0
M  V30 6622 H 632.546 -3.49758 2.25776 0
M  V30 6623 H 633.079 -2.17863 3.32837 0
M  V30 6624 H 629.818 -1.80255 6.30229 0
M  V30 6625 H 629.338 -3.07132 5.15199 0
M  V30 6626 H 631.017 -2.98529 5.74012 0
M  V30 6627 N 631.149 -1.42148 -0.680565 0
M  V30 6628 C 632.099 -1.41634 -1.78672 0
M  V30 6629 C 633.083 -0.288494 -1.58293 0
M  V30 6630 O 634.275 -0.530295 -1.68869 0
M  V30 6631 C 631.404 -1.31558 -3.17092 0
M  V30 6632 C 630.49 -2.49265 -3.43115 0
M  V30 6633 N 630.881 -3.74702 -3.39753 0
M  V30 6634 C 629.179 -2.43401 -3.73727 0
M  V30 6635 C 629.88 -4.52854 -3.651 0
M  V30 6636 N 628.856 -3.83181 -3.85582 0
M  V30 6637 H 632.658 -2.3652 -1.74458 0
M  V30 6638 H 630.172 -1.36415 -0.881171 0
M  V30 6639 H 632.169 -1.29272 -3.96351 0
M  V30 6640 H 630.829 -0.376696 -3.22508 0
M  V30 6641 H 631.84 -4.07378 -3.19787 0
M  V30 6642 H 628.517 -1.58062 -3.86423 0
M  V30 6643 H 629.907 -5.61827 -3.6851 0
M  V30 6644 N 632.627 0.916307 -1.28225 0
M  V30 6645 C 633.904 1.64429 -1.05936 0
M  V30 6646 C 634.284 2.07234 0.402139 0
M  V30 6647 O 633.632 1.81535 1.3877 0
M  V30 6648 C 633.842 2.83773 -2.03159 0
M  V30 6649 C 635.19 3.54852 -2.33164 0
M  V30 6650 O 636.214 2.93918 -2.01223 0
M  V30 6651 O 635.073 4.64663 -2.87664 0
M  V30 6652 H 632.167 0.721221 -0.404683 0
M  V30 6653 H 634.713 0.965838 -1.39534 0
M  V30 6654 H 633.485 2.49217 -3.01673 0
M  V30 6655 H 633.108 3.59333 -1.70192 0
M  V30 6656 N 634.105 1.10431 1.1244 0
M  V30 6657 C 635.351 0.847972 1.84221 0
M  V30 6658 C 635.684 -0.624903 1.83871 0
M  V30 6659 O 634.959 -1.46074 1.28423 0
M  V30 6660 C 635.242 1.39695 3.319 0
M  V30 6661 C 635.095 2.93668 3.40704 0
M  V30 6662 C 636.414 1.03924 4.27654 0
M  V30 6663 H 633.533 0.309502 0.668863 0
M  V30 6664 H 636.175 1.36745 1.31912 0
M  V30 6665 H 634.325 0.955095 3.76577 0
M  V30 6666 H 635.997 3.46379 3.04662 0
M  V30 6667 H 634.24 3.30272 2.81252 0
M  V30 6668 H 634.911 3.27162 4.446 0
M  V30 6669 H 637.387 1.42049 3.91102 0
M  V30 6670 H 636.263 1.45027 5.29394 0
M  V30 6671 H 636.524 -0.051336 4.4207 0
M  V30 6672 N 635.583 -1.29855 0.893053 0
M  V30 6673 C 636.86 -1.90694 0.435336 0
M  V30 6674 C 637.24 -1.8111 -1.08454 0
M  V30 6675 O 636.588 -1.23352 -1.92345 0
M  V30 6676 C 636.798 -3.36033 0.942472 0
M  V30 6677 C 638.146 -4.13083 0.982226 0
M  V30 6678 O 639.17 -3.4491 0.889686 0
M  V30 6679 O 638.029 -5.34896 1.12022 0
M  V30 6680 H 635.123 -0.815978 0.134567 0
M  V30 6681 H 637.669 -1.38367 0.982484 0
M  V30 6682 H 636.441 -3.37132 1.9864 0
M  V30 6683 H 636.064 -3.95828 0.374952 0
M  V30 6684 N 637.061 -0.65484 -1.43351 0
M  V30 6685 C 638.011 0.0581325 -2.27926 0
M  V30 6686 C 638.995 0.793188 -1.3999 0
M  V30 6687 O 640.187 0.675387 -1.63608 0
M  V30 6688 C 637.316 1.02272 -3.27712 0
M  V30 6689 C 636.402 0.286048 -4.23134 0
M  V30 6690 N 636.793 -0.698298 -5.00957 0
M  V30 6691 C 635.091 0.527272 -4.42872 0
M  V30 6692 C 635.792 -1.1357 -5.70506 0
M  V30 6693 N 634.768 -0.469631 -5.41568 0
M  V30 6694 H 638.57 -0.697182 -2.85511 0
M  V30 6695 H 636.084 -0.482252 -1.55074 0
M  V30 6696 H 638.081 1.5483 -3.87083 0
M  V30 6697 H 636.741 1.77807 -2.71688 0
M  V30 6698 H 637.752 -1.07708 -5.06576 0
M  V30 6699 H 634.429 1.26367 -3.97916 0
M  V30 6700 H 635.819 -1.95027 -6.42973 0
M  V30 6701 N 638.539 1.52521 -0.396863 0
M  V30 6702 C 639.95 1.86547 0.0754868 0
M  V30 6703 C 640.301 1.31621 1.45501 0
M  V30 6704 O 639.426 0.650563 2.0639 0
M  V30 6705 C 640.021 3.38495 0.143754 0
M  V30 6706 C 638.58 3.72205 0.560413 0
M  V30 6707 C 637.727 2.75954 -0.272856 0
M  V30 6708 H 640.678 1.46323 -0.614434 0
M  V30 6709 H 640.699 3.68153 0.961425 0
M  V30 6710 H 640.211 3.78442 -0.860415 0
M  V30 6711 H 638.312 3.3783 1.57167 0
M  V30 6712 H 638.425 4.78074 0.313314 0
M  V30 6713 H 636.789 2.53339 0.263 0
M  V30 6714 H 637.572 3.1874 -1.27515 0
M  V30 6715 N 640.017 0.126909 1.57088 0
M  V30 6716 C 641.265 -0.528123 1.95078 0
M  V30 6717 C 641.586 -1.66708 1.0116 0
M  V30 6718 O 640.856 -1.95777 0.0693527 0
M  V30 6719 H 639.436 -0.198087 0.720257 0
M  V30 6720 H 642.098 0.197703 1.93895 0
M  V30 6721 H 641.194 -0.917507 2.98309 0
M  V30 6722 N 641.495 -1.56914 -0.146875 0
M  V30 6723 C 642.741 -1.83628 -0.860741 0
M  V30 6724 C 643.074 -0.708528 -1.80813 0
M  V30 6725 O 642.349 0.287838 -1.92358 0
M  V30 6726 C 642.632 -3.20836 -1.63511 0
M  V30 6727 C 642.485 -4.44174 -0.709199 0
M  V30 6728 C 643.804 -3.55268 -2.59756 0
M  V30 6729 H 640.923 -0.667949 -0.311468 0
M  V30 6730 H 643.565 -1.89582 -0.125936 0
M  V30 6731 H 641.715 -3.15891 -2.26153 0
M  V30 6732 H 643.387 -4.61205 -0.0937781 0
M  V30 6733 H 641.63 -4.33796 -0.0187856 0
M  V30 6734 H 642.301 -5.36785 -1.28707 0
M  V30 6735 H 644.777 -3.60824 -2.07232 0
M  V30 6736 H 643.653 -4.52303 -3.10987 0
M  V30 6737 H 643.914 -2.81231 -3.41118 0
M  V30 6738 N 642.974 0.416227 -1.52004 0
M  V30 6739 C 644.199 1.19029 -1.69843 0
M  V30 6740 C 644.624 1.83708 -0.404103 0
M  V30 6741 O 643.982 1.69711 0.637787 0
M  V30 6742 C 644.03 2.23439 -2.83032 0
M  V30 6743 O 643.134 3.29419 -2.48106 0
M  V30 6744 H 642.475 0.347785 -0.565634 0
M  V30 6745 H 645.005 0.488871 -1.98674 0
M  V30 6746 H 645.015 2.67884 -3.07737 0
M  V30 6747 H 643.69 1.75745 -3.76944 0
M  V30 6748 H 642.267 2.90303 -2.34048 0
M  V30 6749 N 644.452 1.42507 0.673017 0
M  V30 6750 C 645.4 1.46362 1.80779 0
M  V30 6751 C 646.394 0.339166 1.6597 0
M  V30 6752 O 647.6 0.512262 1.72557 0
M  V30 6753 H 643.975 0.458433 0.596107 0
M  V30 6754 H 645.946 2.41953 1.74646 0
M  V30 6755 C 644.695 1.38462 3.18941 0
M  V30 6756 H 644.018 2.24283 3.30964 0
M  V30 6757 H 645.458 1.45221 3.98355 0
M  V30 6758 C 643.917 0.0996354 3.36753 0
M  V30 6759 O 644.447 -0.846894 3.92671 0
M  V30 6760 N 642.653 0.016211 2.90595 0
M  V30 6761 H 642.2 0.78725 2.45276 0
M  V30 6762 H 642.158 -0.84291 3.0289 0
M  V30 6763 N 645.93 -0.909495 1.28709 0
M  V30 6764 C 646.862 -2.01729 1.08804 0
M  V30 6765 C 647.875 -1.62755 0.0384739 0
M  V30 6766 O 649.064 -1.76259 0.281977 0
M  V30 6767 C 646.164 -3.32952 0.63217 0
M  V30 6768 C 645.337 -4.00512 1.75809 0
M  V30 6769 C 644.396 -5.10019 1.29488 0
M  V30 6770 O 643.422 -5.32986 1.99787 0
M  V30 6771 N 644.624 -5.80278 0.1604 0
M  V30 6772 H 647.389 -2.19362 2.04207 0
M  V30 6773 H 644.95 -1.08106 1.20518 0
M  V30 6774 H 646.942 -4.03543 0.305802 0
M  V30 6775 H 645.512 -3.11759 -0.229134 0
M  V30 6776 H 644.732 -3.23413 2.25383 0
M  V30 6777 H 646.02 -4.42395 2.51325 0
M  V30 6778 H 645.418 -5.64094 -0.425937 0
M  V30 6779 H 643.975 -6.51713 -0.106663 0
M  V30 6780 N 647.408 -1.11026 -1.11852 0
M  V30 6781 C 648.655 -0.85646 -1.83497 0
M  V30 6782 C 648.983 0.617938 -1.84423 0
M  V30 6783 O 648.238 1.47194 -1.28966 0
M  V30 6784 C 648.537 -1.35777 -3.30604 0
M  V30 6785 C 648.203 -2.84465 -3.49843 0
M  V30 6786 C 646.865 -3.25068 -3.54802 0
M  V30 6787 C 649.217 -3.80251 -3.56453 0
M  V30 6788 C 646.545 -4.60194 -3.63921 0
M  V30 6789 C 648.897 -5.15188 -3.67102 0
M  V30 6790 C 647.561 -5.55356 -3.70319 0
M  V30 6791 H 646.831 -0.313401 -0.671462 0
M  V30 6792 H 649.478 -1.38792 -1.31943 0
M  V30 6793 H 647.783 -0.746455 -3.84624 0
M  V30 6794 H 649.48 -1.13779 -3.8452 0
M  V30 6795 H 646.07 -2.52054 -3.46651 0
M  V30 6796 H 650.254 -3.49986 -3.51886 0
M  V30 6797 H 645.51 -4.90728 -3.64686 0
M  V30 6798 H 649.684 -5.89248 -3.71159 0
M  V30 6799 H 647.311 -6.60054 -3.77138 0
M  V30 6800 N 648.886 1.2938 -0.899927 0
M  V30 6801 C 649.816 2.30144 -0.39446 0
M  V30 6802 C 650.797 1.61611 0.530639 0
M  V30 6803 O 651.982 1.89119 0.441319 0
M  V30 6804 C 649.112 3.45229 0.37868 0
M  V30 6805 C 648.066 4.25564 -0.456012 0
M  V30 6806 C 647.392 5.32848 0.444637 0
M  V30 6807 C 648.692 4.93651 -1.70605 0
M  V30 6808 H 650.386 2.72673 -1.23653 0
M  V30 6809 H 647.932 1.31086 -0.596034 0
M  V30 6810 H 649.885 4.14797 0.743037 0
M  V30 6811 H 648.609 3.01545 1.25453 0
M  V30 6812 H 647.268 3.57704 -0.802704 0
M  V30 6813 H 646.916 4.85408 1.31863 0
M  V30 6814 H 646.616 5.87497 -0.110154 0
M  V30 6815 H 648.14 6.05268 0.805182 0
M  V30 6816 H 649.554 5.55655 -1.41141 0
M  V30 6817 H 647.951 5.58233 -2.20217 0
M  V30 6818 H 649.021 4.18926 -2.4419 0
M  V30 6819 N 650.364 0.662433 1.43002 0
M  V30 6820 C 651.613 0.176873 2.00923 0
M  V30 6821 C 651.926 -1.21954 1.52927 0
M  V30 6822 O 653.132 -1.80081 2.03182 0
M  V30 6823 C 651.588 0.265379 3.5892 0
M  V30 6824 C 651.196 1.66507 4.15908 0
M  V30 6825 C 652.94 -0.162103 4.2419 0
M  V30 6826 C 650.847 1.707 5.66229 0
M  V30 6827 H 649.777 0.0623627 0.751417 0
M  V30 6828 H 652.428 0.825813 1.63868 0
M  V30 6829 H 650.81 -0.451235 3.93421 0
M  V30 6830 H 651.984 2.40777 3.92891 0
M  V30 6831 H 650.299 2.03932 3.63044 0
M  V30 6832 H 652.896 -0.150745 5.34487 0
M  V30 6833 H 653.239 -1.19519 3.98774 0
M  V30 6834 H 653.772 0.503075 3.94606 0
M  V30 6835 H 650.511 2.7195 5.96426 0
M  V30 6836 H 650.031 1.00768 5.91275 0
M  V30 6837 H 651.71 1.45487 6.3043 0
M  V30 6838 N 651.842 -1.52309 0.404946 0
M  V30 6839 C 652.79 -2.28452 -0.437321 0
M  V30 6840 C 653.784 -1.32975 -1.04948 0
M  V30 6841 O 654.99 -1.50451 -0.988159 0
M  V30 6842 H 651.365 -0.734824 -0.159805 0
M  V30 6843 H 653.336 -2.97542 0.22615 0
M  V30 6844 C 652.085 -3.11536 -1.54404 0
M  V30 6845 H 651.408 -3.84871 -1.08233 0
M  V30 6846 H 652.848 -3.67926 -2.10729 0
M  V30 6847 C 651.307 -2.24833 -2.50902 0
M  V30 6848 O 651.837 -1.88574 -3.54687 0
M  V30 6849 N 650.043 -1.88685 -2.21012 0
M  V30 6850 H 649.59 -2.18371 -1.36646 0
M  V30 6851 H 649.548 -1.30966 -2.85824 0
M  V30 6852 N 653.32 -0.135238 -1.57019 0
M  V30 6853 C 654.548 0.526066 -2.001 0
M  V30 6854 C 654.963 1.59184 -1.01519 0
M  V30 6855 O 654.32 1.82497 -0.0104258 0
M  V30 6856 C 654.371 1.13744 -3.43139 0
M  V30 6857 O 654.092 0.114259 -4.37951 0
M  V30 6858 C 655.593 1.8805 -4.01438 0
M  V30 6859 H 652.813 0.137962 -0.656664 0
M  V30 6860 H 655.357 -0.226359 -2.03243 0
M  V30 6861 H 653.512 1.84056 -3.40885 0
M  V30 6862 H 653.926 0.56058 -5.21496 0
M  V30 6863 H 655.4 2.26133 -5.03555 0
M  V30 6864 H 655.877 2.76194 -3.41487 0
M  V30 6865 H 656.483 1.22464 -4.07287 0
M  V30 6866 N 654.798 1.5699 0.138552 0
M  V30 6867 C 655.746 1.99858 1.18994 0
M  V30 6868 C 656.74 0.89231 1.43994 0
M  V30 6869 O 657.946 1.0775 1.44187 0
M  V30 6870 H 654.321 0.636325 0.400743 0
M  V30 6871 H 656.292 2.87427 0.801755 0
M  V30 6872 C 655.041 2.40235 2.51361 0
M  V30 6873 H 654.364 3.24917 2.32957 0
M  V30 6874 H 655.804 2.74045 3.23535 0
M  V30 6875 C 654.263 1.25829 3.1252 0
M  V30 6876 O 654.793 0.563604 3.97727 0
M  V30 6877 N 652.999 1.02036 2.72097 0
M  V30 6878 H 652.546 1.58705 2.02905 0
M  V30 6879 H 652.504 0.256796 3.1335 0
M  V30 6880 N 656.276 -0.40816 1.52223 0
M  V30 6881 C 657.501 -1.18127 1.70472 0
M  V30 6882 C 657.926 -1.83491 0.41384 0
M  V30 6883 O 657.284 -1.70047 -0.628778 0
M  V30 6884 C 657.332 -2.21935 2.84213 0
M  V30 6885 O 656.436 -3.28099 2.4985 0
M  V30 6886 H 655.777 -0.344781 0.56747 0
M  V30 6887 H 658.307 -0.478328 1.9893 0
M  V30 6888 H 658.317 -2.66248 3.09153 0
M  V30 6889 H 656.992 -1.73744 3.7787 0
M  V30 6890 H 655.569 -2.89058 2.35584 0
M  V30 6891 N 657.755 -1.42862 -0.66545 0
M  V30 6892 C 658.665 -1.49491 -1.80803 0
M  V30 6893 C 659.681 -0.382914 -1.69734 0
M  V30 6894 O 660.857 -0.635223 -1.9112 0
M  V30 6895 C 657.922 -1.40383 -3.17007 0
M  V30 6896 C 656.983 -2.62152 -3.39963 0
M  V30 6897 C 656.216 -2.53469 -4.69669 0
M  V30 6898 O 656.439 -1.57568 -5.48205 0
M  V30 6899 O 655.373 -3.43763 -4.94075 0
M  V30 6900 H 659.199 -2.45949 -1.78165 0
M  V30 6901 H 656.784 -1.24728 -0.822387 0
M  V30 6902 H 658.666 -1.377 -3.98267 0
M  V30 6903 H 657.341 -0.470546 -3.20262 0
M  V30 6904 H 656.248 -2.70409 -2.58515 0
M  V30 6905 H 657.581 -3.54411 -3.41546 0
M  V30 6906 N 659.233 0.902656 -1.29189 0
M  V30 6907 C 660.163 2.02294 -1.16616 0
M  V30 6908 C 661.144 1.6999 -0.0611175 0
M  V30 6909 O 662.329 1.9271 -0.240072 0
M  V30 6910 C 659.459 3.37018 -0.83882 0
M  V30 6911 C 658.413 3.83522 -1.89986 0
M  V30 6912 C 657.739 5.15337 -1.42589 0
M  V30 6913 C 659.039 4.04169 -3.30824 0
M  V30 6914 H 660.733 2.13071 -2.10336 0
M  V30 6915 H 658.279 1.02378 -1.01266 0
M  V30 6916 H 660.232 4.14895 -0.737584 0
M  V30 6917 H 658.956 3.26325 0.134071 0
M  V30 6918 H 657.615 3.07859 -1.99043 0
M  V30 6919 H 657.263 5.01056 -0.441759 0
M  V30 6920 H 656.963 5.47423 -2.13547 0
M  V30 6921 H 658.487 5.95758 -1.3381 0
M  V30 6922 H 659.901 4.72537 -3.24626 0
M  V30 6923 H 658.298 4.47604 -3.99713 0
M  V30 6924 H 659.368 3.08604 -3.74021 0
M  V30 6925 N 660.711 1.11618 1.11262 0
M  V30 6926 C 661.674 0.779447 2.15539 0
M  V30 6927 C 662.674 -0.202081 1.59525 0
M  V30 6928 O 663.864 0.0226356 1.74185 0
M  V30 6929 C 660.996 0.15674 3.40539 0
M  V30 6930 H 662.189 1.70324 2.4684 0
M  V30 6931 H 659.742 0.918298 1.26479 0
M  V30 6932 H 660.477 -0.777186 3.1485 0
M  V30 6933 H 660.262 0.863308 3.82478 0
M  V30 6934 H 661.752 -0.062661 4.17553 0
M  V30 6935 N 662.189 -1.289 0.906776 0
M  V30 6936 C 663.119 -2.29932 0.406659 0
M  V30 6937 C 664.1 -1.6189 -0.522061 0
M  V30 6938 O 665.285 -1.8935 -0.431283 0
M  V30 6939 C 662.415 -3.45425 -0.360366 0
M  V30 6940 C 661.369 -4.25316 0.478574 0
M  V30 6941 C 660.695 -5.33076 -0.416373 0
M  V30 6942 C 661.995 -4.92739 1.7322 0
M  V30 6943 H 663.689 -2.72013 1.25097 0
M  V30 6944 H 661.235 -1.30768 0.602977 0
M  V30 6945 H 663.188 -4.15186 -0.721029 0
M  V30 6946 H 661.912 -3.02206 -1.23852 0
M  V30 6947 H 660.571 -3.57273 0.821662 0
M  V30 6948 H 660.219 -4.86101 -1.29287 0
M  V30 6949 H 659.919 -5.8743 0.141309 0
M  V30 6950 H 661.443 -6.05686 -0.773072 0
M  V30 6951 H 662.857 -5.54898 1.44086 0
M  V30 6952 H 661.254 -5.57057 2.23175 0
M  V30 6953 H 662.324 -4.17625 2.46408 0
M  V30 6954 N 663.667 -0.670007 -1.42649 0
M  V30 6955 C 664.6 0.0613623 -2.28117 0
M  V30 6956 C 665.578 0.813414 -1.40792 0
M  V30 6957 O 666.762 0.809529 -1.70232 0
M  V30 6958 C 663.889 1.09399 -3.20546 0
M  V30 6959 C 662.935 0.438064 -4.24244 0
M  V30 6960 S 663.768 -0.800808 -5.29478 0
M  V30 6961 C 664.924 0.23086 -6.25474 0
M  V30 6962 H 665.157 -0.663606 -2.89799 0
M  V30 6963 H 662.69 -0.45939 -1.47407 0
M  V30 6964 H 664.648 1.68469 -3.74337 0
M  V30 6965 H 663.309 1.79137 -2.58009 0
M  V30 6966 H 662.502 1.21707 -4.89084 0
M  V30 6967 H 662.104 -0.0789346 -3.73917 0
M  V30 6968 H 664.396 1.09204 -6.68641 0
M  V30 6969 H 665.339 -0.382945 -7.07064 0
M  V30 6970 H 665.747 0.574191 -5.61572 0
M  V30 6971 N 665.145 1.52092 -0.413018 0
M  V30 6972 C 666.375 2.05974 0.160648 0
M  V30 6973 C 666.783 1.28267 1.39084 0
M  V30 6974 O 666.126 0.328805 1.80733 0
M  V30 6975 C 666.188 3.54918 0.572169 0
M  V30 6976 C 665.852 4.53705 -0.547826 0
M  V30 6977 C 666.849 5.00342 -1.41259 0
M  V30 6978 C 664.534 4.97089 -0.721627 0
M  V30 6979 C 666.528 5.89011 -2.43607 0
M  V30 6980 C 664.215 5.85554 -1.74841 0
M  V30 6981 C 665.213 6.3141 -2.60403 0
M  V30 6982 O 664.901 7.18123 -3.61323 0
M  V30 6983 H 664.633 0.675636 0.0221936 0
M  V30 6984 H 667.187 1.96931 -0.58373 0
M  V30 6985 H 665.417 3.61661 1.36889 0
M  V30 6986 H 667.106 3.91428 1.0742 0
M  V30 6987 H 667.872 4.67537 -1.28974 0
M  V30 6988 H 663.751 4.60954 -0.0652911 0
M  V30 6989 H 667.295 6.24725 -3.10425 0
M  V30 6990 H 663.192 6.17773 -1.87156 0
M  V30 6991 H 663.96 7.36244 -3.57613 0
M  V30 6992 N 666.623 0.143563 1.56945 0
M  V30 6993 C 667.571 -0.814556 2.17871 0
M  V30 6994 C 668.565 -1.25778 1.13474 0
M  V30 6995 O 669.771 -1.22666 1.31731 0
M  V30 6996 H 666.146 -0.280873 0.697578 0
M  V30 6997 H 668.117 -0.276459 2.97117 0
M  V30 6998 C 666.866 -2.04503 2.81201 0
M  V30 6999 H 666.189 -1.71296 3.61245 0
M  V30 7000 H 667.629 -2.69493 3.27337 0
M  V30 7001 C 666.088 -2.85079 1.79532 0
M  V30 7002 O 666.618 -3.81306 1.26368 0
M  V30 7003 N 664.824 -2.49546 1.48913 0
M  V30 7004 H 664.371 -1.71359 1.92338 0
M  V30 7005 H 664.329 -3.03751 0.811348 0
M  V30 7006 N 668.101 -1.57061 -0.130224 0
M  V30 7007 C 669.378 -1.75205 -0.869631 0
M  V30 7008 C 669.758 -0.716063 -1.98584 0
M  V30 7009 O 669.106 0.262032 -2.26993 0
M  V30 7010 C 669.316 -3.19835 -1.39666 0
M  V30 7011 C 670.664 -3.82011 -1.85345 0
M  V30 7012 O 671.688 -3.23368 -1.49371 0
M  V30 7013 O 670.547 -4.85064 -2.51744 0
M  V30 7014 H 667.641 -0.716977 -0.412157 0
M  V30 7015 H 670.187 -1.69311 -0.11484 0
M  V30 7016 H 668.959 -3.86745 -0.595288 0
M  V30 7017 H 668.582 -3.30222 -2.21448 0
M  V30 7018 N 669.579 0.400081 -1.52437 0
M  V30 7019 C 670.542 1.4707 -1.75793 0
M  V30 7020 C 671.542 1.48036 -0.627856 0
M  V30 7021 O 672.732 1.49401 -0.895817 0
M  V30 7022 C 669.864 2.86427 -1.84858 0
M  V30 7023 H 671.057 1.27649 -2.71377 0
M  V30 7024 H 668.61 0.631141 -1.42991 0
M  V30 7025 H 669.345 3.11207 -0.912194 0
M  V30 7026 H 669.13 2.87128 -2.6702 0
M  V30 7027 H 670.62 3.64023 -2.04638 0
M  V30 7028 N 671.057 1.43213 0.657864 0
M  V30 7029 C 672.282 1.48227 1.45064 0
M  V30 7030 C 672.707 0.0999939 1.87834 0
M  V30 7031 O 672.065 -0.905269 1.57081 0
M  V30 7032 C 672.113 2.42931 2.6649 0
M  V30 7033 O 671.217 1.91237 3.6538 0
M  V30 7034 H 670.558 0.501551 0.435135 0
M  V30 7035 H 673.088 1.8808 0.805431 0
M  V30 7036 H 673.098 2.6008 3.1436 0
M  V30 7037 H 671.773 3.43348 2.34701 0
M  V30 7038 H 670.35 1.83726 3.24498 0
M  V30 7039 N 672.536 -0.895792 1.29666 0
M  V30 7040 C 673.782 -1.64908 1.18039 0
M  V30 7041 C 674.115 -1.9236 -0.266682 0
M  V30 7042 O 673.39 -1.53682 -1.19214 0
M  V30 7043 C 673.673 -2.99574 1.99819 0
M  V30 7044 C 673.526 -2.79163 3.52687 0
M  V30 7045 C 674.845 -4.00358 1.82761 0
M  V30 7046 H 671.964 -0.598437 0.430165 0
M  V30 7047 H 674.606 -1.03736 1.59182 0
M  V30 7048 H 672.756 -3.51786 1.64859 0
M  V30 7049 H 674.428 -2.33821 3.9765 0
M  V30 7050 H 672.671 -2.13871 3.77414 0
M  V30 7051 H 673.342 -3.74871 4.05186 0
M  V30 7052 H 675.818 -3.57268 2.13304 0
M  V30 7053 H 674.694 -4.92514 2.42325 0
M  V30 7054 H 674.955 -4.35096 0.783839 0
M  V30 7055 N 674.014 -1.12206 -1.10668 0
M  V30 7056 C 674.944 -0.810086 -2.18997 0
M  V30 7057 C 675.925 0.225065 -1.68604 0
M  V30 7058 O 677.11 0.086783 -1.94006 0
M  V30 7059 C 674.24 -0.261262 -3.46316 0
M  V30 7060 C 673.194 -1.2292 -4.09969 0
M  V30 7061 C 672.52 -0.540713 -5.31959 0
M  V30 7062 C 673.82 -2.58295 -4.53962 0
M  V30 7063 H 675.514 -1.7159 -2.45352 0
M  V30 7064 H 673.06 -0.82646 -1.17922 0
M  V30 7065 H 675.013 -0.0307522 -4.21389 0
M  V30 7066 H 673.737 0.679879 -3.19445 0
M  V30 7067 H 672.396 -1.44548 -3.369 0
M  V30 7068 H 672.044 0.405492 -5.01363 0
M  V30 7069 H 671.744 -1.18637 -5.75499 0
M  V30 7070 H 673.268 -0.319184 -6.09765 0
M  V30 7071 H 674.682 -2.40709 -5.20319 0
M  V30 7072 H 673.079 -3.18916 -5.08343 0
M  V30 7073 H 674.149 -3.16918 -3.67002 0
M  V30 7074 N 675.492 1.28418 -0.913599 0
M  V30 7075 C 676.402 2.31043 -0.406965 0
M  V30 7076 C 677.418 1.66501 0.505298 0
M  V30 7077 O 678.594 1.97558 0.391522 0
M  V30 7078 C 675.659 3.4498 0.344901 0
M  V30 7079 C 674.72 4.25078 -0.600563 0
M  V30 7080 C 673.953 5.33575 0.115516 0
M  V30 7081 O 674.176 5.54503 1.33727 0
M  V30 7082 O 673.11 5.9939 -0.549095 0
M  V30 7083 H 676.936 2.76387 -1.25873 0
M  V30 7084 H 674.521 1.33109 -0.678415 0
M  V30 7085 H 676.403 4.14314 0.769542 0
M  V30 7086 H 675.078 3.01719 1.1725 0
M  V30 7087 H 673.985 3.58334 -1.0746 0
M  V30 7088 H 675.318 4.72018 -1.39497 0
M  V30 7089 N 676.97 0.677563 1.42291 0
M  V30 7090 C 677.918 -0.0106755 2.32598 0
M  V30 7091 C 678.912 -0.787643 1.49975 0
M  V30 7092 O 680.118 -0.695295 1.66029 0
M  V30 7093 H 676.493 -0.0222482 0.751671 0
M  V30 7094 H 678.464 0.768312 2.88339 0
M  V30 7095 C 677.213 -0.946142 3.3458 0
M  V30 7096 H 676.536 -0.357701 3.98197 0
M  V30 7097 H 677.976 -1.39634 4.00348 0
M  V30 7098 C 676.435 -2.05383 2.67057 0
M  V30 7099 O 676.965 -3.1406 2.50458 0
M  V30 7100 N 675.171 -1.82635 2.26038 0
M  V30 7101 H 674.718 -0.942534 2.39737 0
M  V30 7102 H 674.676 -2.56937 1.81192 0
M  V30 7103 N 678.448 -1.51871 0.421078 0
M  V30 7104 C 679.398 -2.24171 -0.416111 0
M  V30 7105 C 680.382 -1.25763 -1.00362 0
M  V30 7106 O 681.574 -1.5094 -0.924452 0
M  V30 7107 C 678.703 -3.07533 -1.52571 0
M  V30 7108 C 677.789 -4.1336 -0.948399 0
M  V30 7109 N 678.18 -5.05704 -0.0987933 0
M  V30 7110 C 676.478 -4.29055 -1.21768 0
M  V30 7111 C 677.179 -5.8127 0.223705 0
M  V30 7112 N 676.155 -5.4221 -0.388524 0
M  V30 7113 H 679.957 -2.92925 0.239166 0
M  V30 7114 H 677.471 -1.60732 0.232191 0
M  V30 7115 H 679.468 -3.57893 -2.13819 0
M  V30 7116 H 678.128 -2.4032 -2.18349 0
M  V30 7117 H 679.139 -5.17214 0.266428 0
M  V30 7118 H 675.816 -3.73071 -1.87416 0
M  V30 7119 H 677.206 -6.65653 0.914076 0
M  V30 7120 N 679.926 -0.151884 -1.56866 0
M  V30 7121 C 680.876 0.797799 -2.13586 0
M  V30 7122 C 681.86 1.20613 -1.06496 0
M  V30 7123 O 683.052 1.17173 -1.32663 0
M  V30 7124 C 680.181 2.03493 -2.76488 0
M  V30 7125 C 679.267 1.64948 -3.90708 0
M  V30 7126 N 679.658 0.972513 -4.96363 0
M  V30 7127 C 677.956 1.94186 -4.01507 0
M  V30 7128 C 678.657 0.785661 -5.7637 0
M  V30 7129 N 677.633 1.32105 -5.27304 0
M  V30 7130 H 681.435 0.271403 -2.92644 0
M  V30 7131 H 678.949 0.049487 -1.62325 0
M  V30 7132 H 680.946 2.72532 -3.15487 0
M  V30 7133 H 679.606 2.56646 -1.98904 0
M  V30 7134 H 680.617 0.632724 -5.1402 0
M  V30 7135 H 677.294 2.49154 -3.35005 0
M  V30 7136 H 678.684 0.251749 -6.71428 0
M  V30 7137 N 681.404 1.57128 0.121893 0
M  V30 7138 C 682.334 2.03165 1.15092 0
M  V30 7139 C 683.315 0.915587 1.43356 0
M  V30 7140 O 684.5 1.1851 1.53847 0
M  V30 7141 C 681.63 2.43352 2.47784 0
M  V30 7142 C 680.584 3.58376 2.33989 0
M  V30 7143 C 679.91 3.84454 3.71617 0
M  V30 7144 C 681.21 4.90199 1.80283 0
M  V30 7145 H 682.904 2.89382 0.768023 0
M  V30 7146 H 680.45 1.39218 0.367998 0
M  V30 7147 H 682.403 2.74163 3.20019 0
M  V30 7148 H 681.127 1.54103 2.87958 0
M  V30 7149 H 679.786 3.2777 1.64202 0
M  V30 7150 H 679.434 2.92414 4.09271 0
M  V30 7151 H 679.134 4.61877 3.6324 0
M  V30 7152 H 680.658 4.17714 4.45362 0
M  V30 7153 H 682.072 5.19565 2.42333 0
M  V30 7154 H 680.469 5.71601 1.82735 0
M  V30 7155 H 681.539 4.78904 0.760184 0
M  V30 7156 N 682.882 -0.391992 1.52647 0
M  V30 7157 C 683.845 -1.46135 1.7657 0
M  V30 7158 C 684.845 -1.47701 0.635698 0
M  V30 7159 O 686.035 -1.48924 0.903728 0
M  V30 7160 C 683.167 -2.85443 1.86374 0
M  V30 7161 H 684.36 -1.26208 2.72051 0
M  V30 7162 H 681.913 -0.623549 1.43323 0
M  V30 7163 H 682.648 -3.10718 0.928685 0
M  V30 7164 H 682.433 -2.85708 2.68539 0
M  V30 7165 H 683.923 -3.62933 2.06566 0
M  V30 7166 N 684.36 -1.4356 -0.65026 0
M  V30 7167 C 685.606 -1.45549 -1.41221 0
M  V30 7168 C 685.939 -0.0805472 -1.94033 0
M  V30 7169 O 685.214 0.899043 -1.72475 0
M  V30 7170 C 685.497 -2.50028 -2.59148 0
M  V30 7171 C 685.35 -3.96808 -2.1181 0
M  V30 7172 C 686.669 -2.51212 -3.61359 0
M  V30 7173 H 683.788 -0.529967 -0.512156 0
M  V30 7174 H 686.43 -1.75127 -0.736933 0
M  V30 7175 H 684.58 -2.24937 -3.16758 0
M  V30 7176 H 686.252 -4.32966 -1.59178 0
M  V30 7177 H 684.495 -4.09498 -1.43156 0
M  V30 7178 H 685.166 -4.6553 -2.96625 0
M  V30 7179 H 687.642 -2.73583 -3.13515 0
M  V30 7180 H 686.518 -3.26252 -4.41419 0
M  V30 7181 H 686.779 -1.54701 -4.1415 0
M  V30 7182 N 685.838 0.888903 -1.30139 0
M  V30 7183 C 687.086 1.63713 -1.18501 0
M  V30 7184 C 687.407 1.9324 0.261399 0
M  V30 7185 O 686.677 1.56608 1.17689 0
M  V30 7186 H 685.257 0.606861 -0.435579 0
M  V30 7187 H 687.919 1.06525 -1.63213 0
M  V30 7188 H 687.015 2.58894 -1.743 0
M  V30 7189 N 687.317 1.12792 1.10072 0
M  V30 7190 C 688.564 0.885545 1.82111 0
M  V30 7191 C 688.892 -0.588519 1.85383 0
M  V30 7192 O 688.147 -1.45124 1.31292 0
M  V30 7193 C 688.446 1.4102 3.28403 0
M  V30 7194 C 688.112 2.89995 3.45273 0
M  V30 7195 C 686.774 3.30671 3.49585 0
M  V30 7196 C 689.126 3.85874 3.50358 0
M  V30 7197 C 686.454 4.65925 3.56553 0
M  V30 7198 C 688.806 5.20963 3.58859 0
M  V30 7199 C 687.47 5.61177 3.61437 0
M  V30 7200 H 686.74 0.324044 0.666391 0
M  V30 7201 H 689.387 1.40874 1.29718 0
M  V30 7202 H 687.692 0.807551 3.83387 0
M  V30 7203 H 689.389 1.19882 3.82661 0
M  V30 7204 H 685.979 2.57537 3.42597 0
M  V30 7205 H 690.163 3.5554 3.46273 0
M  V30 7206 H 685.419 4.96468 3.56833 0
M  V30 7207 H 689.593 5.95079 3.61738 0
M  V30 7208 H 687.22 6.6597 3.66589 0
M  V30 7209 N 688.795 -1.27931 0.920396 0
M  V30 7210 C 689.742 -2.27085 0.412422 0
M  V30 7211 C 690.712 -1.57858 -0.516725 0
M  V30 7212 O 691.897 -1.85717 -0.437475 0
M  V30 7213 C 689.037 -3.43466 -0.335399 0
M  V30 7214 C 688.15 -4.27425 0.627017 0
M  V30 7215 C 687.285 -5.31016 -0.139916 0
M  V30 7216 C 686.324 -6.06641 0.815683 0
M  V30 7217 N 685.461 -7.02052 0.0818439 0
M  V30 7218 H 690.301 -2.69913 1.26298 0
M  V30 7219 H 687.838 -1.32732 0.634076 0
M  V30 7220 H 689.796 -4.09744 -0.785226 0
M  V30 7221 H 688.426 -3.01611 -1.15025 0
M  V30 7222 H 687.478 -3.6113 1.19537 0
M  V30 7223 H 688.79 -4.79969 1.35763 0
M  V30 7224 H 687.944 -6.03208 -0.649998 0
M  V30 7225 H 686.683 -4.79257 -0.903543 0
M  V30 7226 H 685.688 -5.33294 1.33708 0
M  V30 7227 H 686.913 -6.60489 1.57897 0
M  V30 7228 H 684.859 -6.52634 -0.663671 0
M  V30 7229 H 684.776 -7.52249 0.752163 0
M  V30 7230 H 686.044 -7.78432 -0.407825 0
M  V30 7231 N 690.273 -0.685099 -1.4193 0
M  V30 7232 C 691.203 -0.0273506 -2.33484 0
M  V30 7233 C 692.184 0.778366 -1.51246 0
M  V30 7234 O 693.369 0.733449 -1.79817 0
M  V30 7235 C 690.499 0.917272 -3.34968 0
M  V30 7236 C 689.453 0.21941 -4.27437 0
M  V30 7237 C 688.779 1.27768 -5.1921 0
M  V30 7238 C 690.079 -0.907894 -5.14349 0
M  V30 7239 H 691.773 -0.791994 -2.88735 0
M  V30 7240 H 689.319 -0.382308 -1.38832 0
M  V30 7241 H 691.272 1.38657 -3.97935 0
M  V30 7242 H 689.996 1.71346 -2.78043 0
M  V30 7243 H 688.655 -0.229757 -3.65879 0
M  V30 7244 H 688.303 2.06612 -4.58607 0
M  V30 7245 H 688.003 0.815803 -5.81909 0
M  V30 7246 H 689.527 1.7477 -5.85054 0
M  V30 7247 H 690.941 -0.519348 -5.70943 0
M  V30 7248 H 689.338 -1.2962 -5.85934 0
M  V30 7249 H 690.408 -1.75218 -4.52136 0
M  V30 7250 N 691.751 1.51645 -0.429126 0
M  V30 7251 C 692.681 2.30434 0.377148 0
M  V30 7252 C 693.662 1.35493 1.02838 0
M  V30 7253 O 694.847 1.6441 1.03359 0
M  V30 7254 C 691.977 3.14038 1.48315 0
M  V30 7255 C 690.931 4.1719 0.955855 0
M  V30 7256 C 690.257 4.89263 2.15698 0
M  V30 7257 C 691.557 5.223 -0.00402136 0
M  V30 7258 H 693.251 2.98085 -0.280336 0
M  V30 7259 H 690.797 1.43354 -0.136265 0
M  V30 7260 H 692.75 3.67933 2.05435 0
M  V30 7261 H 691.474 2.44193 2.16881 0
M  V30 7262 H 690.133 3.64335 0.406929 0
M  V30 7263 H 689.781 4.15929 2.82864 0
M  V30 7264 H 689.481 5.59009 1.81059 0
M  V30 7265 H 691.005 5.45978 2.73387 0
M  V30 7266 H 692.419 5.71315 0.476607 0
M  V30 7267 H 690.816 5.99525 -0.26258 0
M  V30 7268 H 691.886 4.75638 -0.943236 0
M  V30 7269 N 693.229 0.160201 1.56784 0
M  V30 7270 C 694.161 -0.80564 2.14574 0
M  V30 7271 C 695.174 -1.20154 1.09849 0
M  V30 7272 O 696.363 -1.14333 1.37078 0
M  V30 7273 C 693.463 -2.09434 2.6644 0
M  V30 7274 C 692.636 -1.86375 3.95706 0
M  V30 7275 C 691.695 -2.99358 4.32749 0
M  V30 7276 O 690.721 -2.70475 5.00831 0
M  V30 7277 N 691.923 -4.26867 3.93402 0
M  V30 7278 H 694.688 -0.311644 2.98075 0
M  V30 7279 H 692.249 -0.0229465 1.61884 0
M  V30 7280 H 694.241 -2.84091 2.88226 0
M  V30 7281 H 692.811 -2.50057 1.8759 0
M  V30 7282 H 692.031 -0.956821 3.82412 0
M  V30 7283 H 693.319 -1.68322 4.80151 0
M  V30 7284 H 692.717 -4.53197 3.38569 0
M  V30 7285 H 691.274 -4.98263 4.20211 0
M  V30 7286 N 694.707 -1.5719 -0.113559 0
M  V30 7287 C 695.67 -1.99796 -1.12314 0
M  V30 7288 C 696.67 -0.888847 -1.34001 0
M  V30 7289 O 697.86 -1.15476 -1.30426 0
M  V30 7290 C 694.992 -2.34279 -2.47641 0
M  V30 7291 H 696.185 -2.90193 -0.756825 0
M  V30 7292 H 693.738 -1.52144 -0.358029 0
M  V30 7293 H 694.473 -1.46778 -2.89183 0
M  V30 7294 H 694.258 -3.15175 -2.33253 0
M  V30 7295 H 695.748 -2.67963 -3.2029 0
M  V30 7296 N 696.185 0.383891 -1.52853 0
M  V30 7297 C 697.095 1.49343 -1.80925 0
M  V30 7298 C 698.111 1.59458 -0.696348 0
M  V30 7299 O 699.287 1.75698 -0.984481 0
M  V30 7300 C 696.352 2.84819 -1.97684 0
M  V30 7301 C 695.413 2.84382 -3.21598 0
M  V30 7302 C 694.646 4.13397 -3.37548 0
M  V30 7303 O 694.869 5.08619 -2.58192 0
M  V30 7304 O 693.803 4.20325 -4.30826 0
M  V30 7305 H 697.629 1.2855 -2.75152 0
M  V30 7306 H 695.214 0.572229 -1.38007 0
M  V30 7307 H 697.096 3.65125 -2.10385 0
M  V30 7308 H 695.771 3.05627 -1.06647 0
M  V30 7309 H 694.678 2.0284 -3.14336 0
M  V30 7310 H 696.011 2.68526 -4.12498 0
M  V30 7311 N 697.663 1.43903 0.642637 0
M  V30 7312 C 698.611 1.50164 1.77634 0
M  V30 7313 C 699.605 0.374294 1.65213 0
M  V30 7314 O 700.811 0.548748 1.71431 0
M  V30 7315 H 697.186 0.470974 0.586249 0
M  V30 7316 H 699.157 2.45603 1.69474 0
M  V30 7317 C 697.906 1.45196 3.15933 0
M  V30 7318 H 697.229 2.31253 3.26132 0
M  V30 7319 H 698.669 1.53638 3.95185 0
M  V30 7320 C 697.128 0.171043 3.36466 0
M  V30 7321 O 697.658 -0.763413 3.94379 0
M  V30 7322 N 695.864 0.077847 2.90496 0
M  V30 7323 H 695.411 0.8391 2.43551 0
M  V30 7324 H 695.369 -0.778473 3.0461 0
M  V30 7325 N 699.141 -0.881989 1.30609 0
M  V30 7326 C 700.381 -1.64817 1.20891 0
M  V30 7327 C 700.745 -1.90593 -0.232043 0
M  V30 7328 O 701.946 -2.64964 -0.452516 0
M  V30 7329 C 700.217 -2.95006 2.01758 0
M  V30 7330 S 701.776 -3.85953 2.08771 0
M  V30 7331 H 698.594 -0.565651 0.430767 0
M  V30 7332 H 701.196 -1.04665 1.65122 0
M  V30 7333 H 699.9 -2.73973 3.0556 0
M  V30 7334 H 699.431 -3.60189 1.582 0
M  V30 7335 H 701.446 -4.81037 1.21727 0
M  V30 7336 N 700.619 -1.13374 -1.09472 0
M  V30 7337 C 701.896 -0.806329 -1.78207 0
M  V30 7338 C 702.276 0.702191 -1.99079 0
M  V30 7339 O 701.624 1.63931 -1.59182 0
M  V30 7340 C 701.834 -1.59271 -3.10538 0
M  V30 7341 C 703.182 -1.78509 -3.85253 0
M  V30 7342 O 704.206 -1.55866 -3.20288 0
M  V30 7343 O 703.065 -2.16287 -5.01879 0
M  V30 7344 H 700.159 -0.29435 -0.772843 0
M  V30 7345 H 702.705 -1.23833 -1.16033 0
M  V30 7346 H 701.477 -2.61792 -2.90828 0
M  V30 7347 H 701.1 -1.15562 -3.80436 0
M  V30 7348 N 702.098 1.27442 -0.927168 0
M  V30 7349 C 703.347 1.93679 -0.563146 0
M  V30 7350 C 703.66 1.73673 0.899837 0
M  V30 7351 O 704.866 2.34247 1.37262 0
M  V30 7352 C 703.322 3.46961 -0.95636 0
M  V30 7353 C 702.93 3.75724 -2.43999 0
M  V30 7354 C 704.674 4.19282 -0.663565 0
M  V30 7355 C 702.581 5.22378 -2.77263 0
M  V30 7356 H 701.511 0.725059 -0.206894 0
M  V30 7357 H 704.162 1.44743 -1.12791 0
M  V30 7358 H 702.544 3.94703 -0.320254 0
M  V30 7359 H 703.718 3.38741 -3.12396 0
M  V30 7360 H 702.033 3.16605 -2.70463 0
M  V30 7361 H 704.63 5.27265 -0.888596 0
M  V30 7362 H 704.973 4.14382 0.399198 0
M  V30 7363 H 705.506 3.7736 -1.25875 0
M  V30 7364 H 702.245 5.32367 -3.82446 0
M  V30 7365 H 701.765 5.6051 -2.13516 0
M  V30 7366 H 703.444 5.9025 -2.64979 0
M  V30 7367 N 703.576 0.692616 1.41565 0
M  V30 7368 C 704.823 0.222335 2.01276 0
M  V30 7369 C 705.151 -1.17706 1.5484 0
M  V30 7370 O 704.406 -1.80795 0.749118 0
M  V30 7371 C 704.705 0.225073 3.56691 0
M  V30 7372 C 704.371 1.57158 4.22625 0
M  V30 7373 C 703.033 1.94022 4.40351 0
M  V30 7374 C 705.385 2.45758 4.59622 0
M  V30 7375 C 702.713 3.19076 4.92349 0
M  V30 7376 C 705.065 3.70141 5.13009 0
M  V30 7377 C 703.729 4.07152 5.28946 0
M  V30 7378 H 702.999 0.0813581 0.73652 0
M  V30 7379 H 705.646 0.891123 1.69503 0
M  V30 7380 H 703.951 -0.527259 3.88236 0
M  V30 7381 H 705.648 -0.156283 4.00695 0
M  V30 7382 H 702.238 1.27486 4.09201 0
M  V30 7383 H 706.422 2.18558 4.45585 0
M  V30 7384 H 701.678 3.4775 5.02872 0
M  V30 7385 H 705.852 4.38983 5.40617 0
M  V30 7386 H 703.479 5.04125 5.69001 0
M  V30 7387 N 705.054 -1.51416 0.437162 0
M  V30 7388 C 705.986 -2.255 -0.410171 0
M  V30 7389 C 706.999 -1.29511 -0.986444 0
M  V30 7390 O 708.188 -1.55266 -0.880614 0
M  V30 7391 C 705.288 -2.99511 -1.58575 0
M  V30 7392 C 704.461 -4.22595 -1.12839 0
M  V30 7393 C 703.52 -4.79187 -2.17407 0
M  V30 7394 O 702.546 -5.4103 -1.76849 0
M  V30 7395 N 703.748 -4.63204 -3.49889 0
M  V30 7396 H 706.513 -2.98856 0.224783 0
M  V30 7397 H 704.074 -1.59699 0.266041 0
M  V30 7398 H 706.066 -3.34258 -2.28152 0
M  V30 7399 H 704.636 -2.29167 -2.12606 0
M  V30 7400 H 703.856 -3.93344 -0.259695 0
M  V30 7401 H 705.144 -5.02468 -0.800196 0
M  V30 7402 H 704.542 -4.13945 -3.85573 0
M  V30 7403 H 703.099 -5.02313 -4.15361 0
M  V30 7404 N 706.532 -0.168513 -1.56696 0
M  V30 7405 C 707.48 0.779791 -2.19139 0
M  V30 7406 C 708.474 1.23957 -1.1546 0
M  V30 7407 O 709.68 1.20555 -1.33666 0
M  V30 7408 H 706.055 0.269739 -0.701958 0
M  V30 7409 H 708.026 0.229156 -2.97519 0
M  V30 7410 C 706.775 2.00003 -2.84419 0
M  V30 7411 H 706.098 1.65527 -3.63924 0
M  V30 7412 H 707.538 2.64251 -3.31583 0
M  V30 7413 C 705.997 2.82187 -1.84044 0
M  V30 7414 O 706.527 3.79247 -1.32418 0
M  V30 7415 N 704.733 2.47145 -1.52864 0
M  V30 7416 H 704.28 1.68277 -1.9504 0
M  V30 7417 H 704.238 3.02422 -0.859569 0
M  V30 7418 N 708.01 1.57248 0.105221 0
M  V30 7419 C 708.94 2.04374 1.12931 0
M  V30 7420 C 709.921 0.93074 1.42377 0
M  V30 7421 O 711.106 1.20136 1.52581 0
M  V30 7422 C 708.236 2.45967 2.45189 0
M  V30 7423 C 707.19 3.60838 2.30174 0
M  V30 7424 C 706.516 3.88374 3.67518 0
M  V30 7425 C 707.816 4.92084 1.75073 0
M  V30 7426 H 709.51 2.9018 0.737287 0
M  V30 7427 H 707.056 1.39601 0.353211 0
M  V30 7428 H 709.009 2.77542 3.17094 0
M  V30 7429 H 707.733 1.57148 2.86308 0
M  V30 7430 H 706.392 3.29493 1.60716 0
M  V30 7431 H 706.04 2.96739 4.06147 0
M  V30 7432 H 705.74 4.65703 3.58321 0
M  V30 7433 H 707.264 4.22415 4.40906 0
M  V30 7434 H 708.678 5.22106 2.36809 0
M  V30 7435 H 707.075 5.73507 1.76662 0
M  V30 7436 H 708.145 4.79684 0.709347 0
M  V30 7437 N 709.488 -0.375779 1.53054 0
M  V30 7438 C 710.713 -1.14484 1.7294 0
M  V30 7439 C 711.138 -1.82572 0.452668 0
M  V30 7440 O 710.496 -1.71343 -0.592567 0
M  V30 7441 C 710.544 -2.15857 2.88857 0
M  V30 7442 O 709.648 -3.22725 2.56753 0
M  V30 7443 H 708.989 -0.332666 0.574656 0
M  V30 7444 H 711.519 -0.436025 1.999 0
M  V30 7445 H 711.529 -2.59631 3.14731 0
M  V30 7446 H 710.204 -1.65689 3.81471 0
M  V30 7447 H 708.781 -2.83996 2.41663 0
M  V30 7448 N 710.966 -1.44241 -0.634997 0
M  V30 7449 C 711.929 -1.50457 -1.72903 0
M  V30 7450 C 712.929 -0.387058 -1.56072 0
M  V30 7451 O 714.119 -0.649531 -1.61638 0
M  V30 7452 C 711.251 -1.37477 -3.1195 0
M  V30 7453 H 712.444 -2.47907 -1.68767 0
M  V30 7454 H 709.997 -1.31276 -0.84831 0
M  V30 7455 H 710.732 -0.41106 -3.21684 0
M  V30 7456 H 710.517 -2.18506 -3.25573 0
M  V30 7457 H 712.007 -1.44799 -3.91692 0
M  V30 7458 N 712.444 0.87505 -1.31075 0
M  V30 7459 C 713.391 1.98178 -1.18296 0
M  V30 7460 C 714.361 1.65952 -0.0699923 0
M  V30 7461 O 715.546 1.8926 -0.241951 0
M  V30 7462 C 712.686 3.33399 -0.891024 0
M  V30 7463 C 711.799 3.78253 -2.08684 0
M  V30 7464 C 710.934 5.02166 -1.73212 0
M  V30 7465 C 709.973 5.39455 -2.89231 0
M  V30 7466 N 709.11 6.54549 -2.53989 0
M  V30 7467 H 713.95 2.0844 -2.12971 0
M  V30 7468 H 711.487 1.02047 -1.05948 0
M  V30 7469 H 713.445 4.11246 -0.702338 0
M  V30 7470 H 712.075 3.22794 0.0188799 0
M  V30 7471 H 711.127 2.9623 -2.38646 0
M  V30 7472 H 712.439 4.01821 -2.95536 0
M  V30 7473 H 711.593 5.87666 -1.50777 0
M  V30 7474 H 710.332 4.80491 -0.83544 0
M  V30 7475 H 709.337 4.52477 -3.12321 0
M  V30 7476 H 710.562 5.63098 -3.79601 0
M  V30 7477 H 708.508 6.3443 -1.66838 0
M  V30 7478 H 708.425 6.78035 -3.34372 0
M  V30 7479 H 709.693 7.43254 -2.34934 0
M  V30 7480 N 713.922 1.13953 1.08869 0
M  V30 7481 C 714.854 0.779906 2.15523 0
M  V30 7482 C 715.867 -0.20102 1.61554 0
M  V30 7483 O 717.056 0.0200049 1.78489 0
M  V30 7484 C 714.156 0.136226 3.38626 0
M  V30 7485 C 713.329 1.15069 4.21993 0
M  V30 7486 C 712.388 0.531645 5.23507 0
M  V30 7487 O 711.414 1.19327 5.56552 0
M  V30 7488 N 712.616 -0.693734 5.7634 0
M  V30 7489 H 715.381 1.69769 2.46979 0
M  V30 7490 H 712.942 1.03331 1.24637 0
M  V30 7491 H 714.934 -0.290295 4.03658 0
M  V30 7492 H 713.504 -0.684603 3.05011 0
M  V30 7493 H 712.724 1.75431 3.53012 0
M  V30 7494 H 714.012 1.83614 4.74514 0
M  V30 7495 H 713.41 -1.24994 5.51718 0
M  V30 7496 H 711.967 -1.06283 6.43076 0
M  V30 7497 N 715.4 -1.26948 0.933913 0
M  V30 7498 C 716.816 -1.46419 0.635103 0
M  V30 7499 C 717.016 -1.84336 -0.813785 0
M  V30 7500 O 716.072 -1.96061 -1.59111 0
M  V30 7501 C 717.385 -2.55206 1.5903 0
M  V30 7502 C 718.933 -2.69062 1.5992 0
M  V30 7503 C 719.408 -3.81013 2.54152 0
M  V30 7504 N 720.899 -3.88395 2.52395 0
M  V30 7505 C 721.634 -4.74454 3.21996 0
M  V30 7506 N 721.13 -5.64954 4.00997 0
M  V30 7507 N 722.923 -4.68237 3.10983 0
M  V30 7508 H 715.074 -1.00622 1.87053 0
M  V30 7509 H 717.337 -0.503189 0.803433 0
M  V30 7510 H 717.043 -2.34153 2.62422 0
M  V30 7511 H 716.917 -3.52719 1.33677 0
M  V30 7512 H 719.304 -2.89492 0.572569 0
M  V30 7513 H 719.385 -1.72016 1.89325 0
M  V30 7514 H 719.029 -3.61336 3.5693 0
M  V30 7515 H 718.959 -4.77499 2.22041 0
M  V30 7516 H 721.45 -3.23687 1.95025 0
M  V30 7517 H 721.763 -6.27496 4.51074 0
M  V30 7518 H 720.108 -5.6473 4.05099 0
M  V30 7519 H 723.299 -3.96535 2.48753 0
M  V30 7520 H 723.472 -5.35087 3.65494 0
M  V30 7521 N 716.879 -0.700114 -1.41195 0
M  V30 7522 C 717.809 -0.0521132 -2.33442 0
M  V30 7523 C 718.79 0.76228 -1.52063 0
M  V30 7524 O 719.975 0.714336 -1.80585 0
M  V30 7525 C 717.105 0.881693 -3.35922 0
M  V30 7526 C 716.059 0.174062 -4.27646 0
M  V30 7527 C 715.385 1.22254 -5.20536 0
M  V30 7528 C 716.685 -0.962396 -5.13357 0
M  V30 7529 H 718.379 -0.822574 -2.87879 0
M  V30 7530 H 715.925 -0.397011 -1.38419 0
M  V30 7531 H 717.878 1.34429 -3.99383 0
M  V30 7532 H 716.602 1.68387 -2.79845 0
M  V30 7533 H 715.261 -0.268551 -3.65615 0
M  V30 7534 H 714.909 2.01736 -4.60773 0
M  V30 7535 H 714.609 0.754038 -5.82742 0
M  V30 7536 H 716.133 1.68555 -5.86874 0
M  V30 7537 H 717.547 -0.579875 -5.7036 0
M  V30 7538 H 715.944 -1.35828 -5.84526 0
M  V30 7539 H 717.014 -1.80003 -4.50252 0
M  V30 7540 N 718.357 1.51182 -0.445186 0
M  V30 7541 C 719.582 2.07056 0.119445 0
M  V30 7542 C 720.007 1.30966 1.35016 0
M  V30 7543 O 719.365 0.349827 1.77893 0
M  V30 7544 C 719.413 3.58234 0.412428 0
M  V30 7545 O 718.517 3.84249 1.49754 0
M  V30 7546 H 717.858 0.663998 -0.00157797 0
M  V30 7547 H 720.388 1.94699 -0.628779 0
M  V30 7548 H 720.398 4.02617 0.660583 0
M  V30 7549 H 719.073 4.13038 -0.487049 0
M  V30 7550 H 717.65 3.51724 1.23873 0
M  V30 7551 N 719.835 0.176821 1.56605 0
M  V30 7552 C 720.765 -0.746841 2.21234 0
M  V30 7553 C 721.746 -1.23502 1.16967 0
M  V30 7554 O 722.931 -1.28718 1.45414 0
M  V30 7555 C 720.061 -1.97407 2.8574 0
M  V30 7556 C 719.015 -1.62153 3.96094 0
M  V30 7557 C 718.341 -2.92387 4.47676 0
M  V30 7558 C 719.641 -0.845353 5.15413 0
M  V30 7559 H 721.335 -0.208116 2.98676 0
M  V30 7560 H 718.881 -0.0986594 1.43662 0
M  V30 7561 H 720.834 -2.62531 3.2963 0
M  V30 7562 H 719.558 -2.53703 2.05676 0
M  V30 7563 H 718.217 -0.993964 3.52868 0
M  V30 7564 H 717.865 -3.46734 3.64396 0
M  V30 7565 H 717.565 -2.69551 5.22127 0
M  V30 7566 H 719.089 -3.5853 4.94255 0
M  V30 7567 H 720.503 -1.39929 5.55961 0
M  V30 7568 H 718.9 -0.715814 5.95815 0
M  V30 7569 H 719.97 0.157239 4.84645 0
M  V30 7570 N 721.313 -1.57302 -0.09688 0
M  V30 7571 C 722.729 -1.53094 -0.451041 0
M  V30 7572 C 722.929 -0.893265 -1.80618 0
M  V30 7573 O 721.985 -0.485013 -2.47798 0
M  V30 7574 C 723.298 -2.9782 -0.415172 0
M  V30 7575 C 724.846 -3.09026 -0.497155 0
M  V30 7576 C 725.321 -4.55356 -0.491452 0
M  V30 7577 N 726.812 -4.59896 -0.552258 0
M  V30 7578 C 727.547 -5.70563 -0.569654 0
M  V30 7579 N 727.043 -6.90666 -0.543365 0
M  V30 7580 N 728.836 -5.58733 -0.614331 0
M  V30 7581 H 720.987 -1.97131 0.790771 0
M  V30 7582 H 723.25 -0.901211 0.294147 0
M  V30 7583 H 722.956 -3.47933 0.513362 0
M  V30 7584 H 722.83 -3.56416 -1.23481 0
M  V30 7585 H 725.217 -2.58902 -1.41611 0
M  V30 7586 H 725.298 -2.53386 0.35059 0
M  V30 7587 H 724.942 -5.06131 0.423549 0
M  V30 7588 H 724.872 -5.08832 -1.35639 0
M  V30 7589 H 727.363 -3.73456 -0.577842 0
M  V30 7590 H 727.676 -7.70769 -0.559873 0
M  V30 7591 H 726.021 -6.93123 -0.510441 0
M  V30 7592 H 729.212 -4.63809 -0.632387 0
M  V30 7593 H 729.385 -6.44984 -0.62442 0
M  V30 7594 N 722.791 0.367657 -1.53252 0
M  V30 7595 C 724.207 0.709191 -1.42978 0
M  V30 7596 C 724.407 1.93352 -0.567193 0
M  V30 7597 O 723.463 2.52453 -0.0488349 0
M  V30 7598 C 724.776 0.924338 -2.86141 0
M  V30 7599 C 726.324 1.02448 -2.95759 0
M  V30 7600 C 726.799 1.27211 -4.39979 0
M  V30 7601 N 728.29 1.33986 -4.43398 0
M  V30 7602 C 729.025 1.54852 -5.52095 0
M  V30 7603 N 728.521 1.73049 -6.7084 0
M  V30 7604 N 730.314 1.57205 -5.39669 0
M  V30 7605 H 722.465 -0.437669 -2.07842 0
M  V30 7606 H 724.728 -0.133737 -0.938519 0
M  V30 7607 H 724.434 0.0965455 -3.51567 0
M  V30 7608 H 724.308 1.83302 -3.29667 0
M  V30 7609 H 726.695 1.84282 -2.30487 0
M  V30 7610 H 726.776 0.0932301 -2.5563 0
M  V30 7611 H 726.42 0.458792 -5.05824 0
M  V30 7612 H 726.35 2.21654 -4.77679 0
M  V30 7613 H 728.841 1.21545 -3.5782 0
M  V30 7614 H 729.154 1.88538 -7.49449 0
M  V30 7615 H 727.499 1.70231 -6.7383 0
M  V30 7616 H 730.69 1.42555 -4.45865 0
M  V30 7617 H 730.863 1.73126 -6.24445 0
M  V30 7618 N 724.269 1.44576 0.627338 0
M  V30 7619 C 725.202 1.46206 1.75212 0
M  V30 7620 C 726.18 0.320483 1.5941 0
M  V30 7621 O 727.364 0.518028 1.81242 0
M  V30 7622 C 724.491 1.29834 3.12827 0
M  V30 7623 C 723.537 2.47603 3.47268 0
M  V30 7624 S 724.37 4.10125 3.44322 0
M  V30 7625 C 725.526 3.96183 4.84551 0
M  V30 7626 H 725.759 2.41378 1.73563 0
M  V30 7627 H 723.292 1.3192 0.802283 0
M  V30 7628 H 725.25 1.21075 3.92239 0
M  V30 7629 H 723.911 0.361662 3.12011 0
M  V30 7630 H 723.104 2.3202 4.47418 0
M  V30 7631 H 722.706 2.53121 2.75329 0
M  V30 7632 H 724.998 3.60107 5.73872 0
M  V30 7633 H 725.941 4.96176 5.05188 0
M  V30 7634 H 726.349 3.28177 4.59304 0
M  V30 7635 N 725.747 -0.868086 1.31537 0
M  V30 7636 C 726.993 -1.62367 1.2151 0
M  V30 7637 C 727.326 -1.92883 -0.225819 0
M  V30 7638 O 726.601 -1.56176 -1.15927 0
M  V30 7639 C 726.884 -2.95268 2.06129 0
M  V30 7640 C 726.737 -2.71619 3.58529 0
M  V30 7641 C 728.056 -3.96391 1.91212 0
M  V30 7642 H 725.175 -0.589178 0.442762 0
M  V30 7643 H 727.817 -1.00336 1.61347 0
M  V30 7644 H 725.967 -3.4821 1.72284 0
M  V30 7645 H 727.639 -2.25334 4.0252 0
M  V30 7646 H 725.882 -2.05817 3.81866 0
M  V30 7647 H 726.553 -3.66192 4.13047 0
M  V30 7648 H 729.029 -3.52663 2.20834 0
M  V30 7649 H 727.905 -4.87263 2.52718 0
M  V30 7650 H 728.166 -4.33335 0.875953 0
M  V30 7651 N 727.225 -1.14528 -1.08264 0
M  V30 7652 C 728.474 -0.908992 -1.80056 0
M  V30 7653 C 728.787 0.565859 -1.87236 0
M  V30 7654 O 729.993 0.919454 -2.55457 0
M  V30 7655 C 728.449 -1.57681 -3.23519 0
M  V30 7656 C 728.057 -3.08803 -3.24569 0
M  V30 7657 C 729.801 -1.4217 -3.99985 0
M  V30 7658 C 727.708 -3.68414 -4.62629 0
M  V30 7659 H 726.638 -0.336432 -0.674781 0
M  V30 7660 H 729.289 -1.37437 -1.21587 0
M  V30 7661 H 727.671 -1.03911 -3.82124 0
M  V30 7662 H 728.845 -3.69252 -2.75663 0
M  V30 7663 H 727.16 -3.23968 -2.61598 0
M  V30 7664 H 729.757 -1.84106 -5.02005 0
M  V30 7665 H 730.1 -0.367989 -4.1467 0
M  V30 7666 H 730.633 -1.92984 -3.47853 0
M  V30 7667 H 727.372 -4.73644 -4.53147 0
M  V30 7668 H 726.892 -3.12746 -5.11811 0
M  V30 7669 H 728.571 -3.68793 -5.31602 0
M  V30 7670 N 728.703 1.26451 -0.940633 0
M  V30 7671 C 729.98 1.88947 -0.505811 0
M  V30 7672 C 730.36 1.85011 1.01657 0
M  V30 7673 O 729.708 1.30406 1.87634 0
M  V30 7674 C 729.918 3.32304 -1.06654 0
M  V30 7675 C 731.266 4.09153 -1.13486 0
M  V30 7676 O 732.29 3.41371 -1.01708 0
M  V30 7677 O 731.149 5.30369 -1.31797 0
M  V30 7678 H 728.243 0.810422 -0.164759 0
M  V30 7679 H 730.789 1.34625 -1.03316 0
M  V30 7680 H 729.561 3.29527 -2.11015 0
M  V30 7681 H 729.184 3.94164 -0.521603 0
M  V30 7682 N 730.181 0.707592 1.40822 0
M  V30 7683 C 731.114 -0.000859377 2.282 0
M  V30 7684 C 732.092 -0.7758 1.42899 0
M  V30 7685 O 733.276 -0.76411 1.72318 0
M  V30 7686 C 730.403 -1.00861 3.23334 0
M  V30 7687 C 729.449 -0.32543 4.25257 0
M  V30 7688 S 730.282 0.940908 5.27169 0
M  V30 7689 C 731.438 -0.0649459 6.25866 0
M  V30 7690 H 731.671 0.740207 2.87938 0
M  V30 7691 H 729.204 0.498311 1.46138 0
M  V30 7692 H 731.162 -1.58485 3.78672 0
M  V30 7693 H 729.823 -1.72233 2.62668 0
M  V30 7694 H 729.016 -1.08697 4.92139 0
M  V30 7695 H 728.618 0.178044 3.73576 0
M  V30 7696 H 730.91 -0.914377 6.71301 0
M  V30 7697 H 731.853 0.570276 7.058 0
M  V30 7698 H 732.261 -0.425098 5.62897 0
M  V30 7699 N 731.66 -1.50943 0.453197 0
M  V30 7700 C 732.906 -2.02512 -0.108082 0
M  V30 7701 C 733.239 -1.33574 -1.40967 0
M  V30 7702 O 732.514 -0.455671 -1.89087 0
M  V30 7703 C 732.797 -3.58759 -0.310453 0
M  V30 7704 C 732.65 -4.38293 1.0109 0
M  V30 7705 C 733.969 -4.26816 -1.07313 0
M  V30 7706 H 731.088 -0.73603 -0.0378064 0
M  V30 7707 H 733.73 -1.80433 0.595295 0
M  V30 7708 H 731.88 -3.77702 -0.909582 0
M  V30 7709 H 733.552 -4.30964 1.64523 0
M  V30 7710 H 731.795 -4.02745 1.61179 0
M  V30 7711 H 732.466 -5.45828 0.82315 0
M  V30 7712 H 734.942 -4.1224 -0.565473 0
M  V30 7713 H 733.818 -5.35989 -1.1835 0
M  V30 7714 H 734.079 -3.88757 -2.10525 0
M  V30 7715 N 733.138 -0.185124 -1.56509 0
M  V30 7716 C 734.068 0.735098 -2.21627 0
M  V30 7717 C 735.049 1.2288 -1.1762 0
M  V30 7718 O 736.234 1.27945 -1.46095 0
M  V30 7719 C 733.364 1.95889 -2.86783 0
M  V30 7720 C 732.318 1.6005 -3.96948 0
M  V30 7721 C 731.644 2.90009 -4.4922 0
M  V30 7722 C 732.944 0.818008 -5.15855 0
M  V30 7723 H 734.638 0.192274 -2.98782 0
M  V30 7724 H 732.184 0.0910393 -1.43712 0
M  V30 7725 H 734.137 2.60779 -3.31017 0
M  V30 7726 H 732.861 2.52608 -2.07018 0
M  V30 7727 H 731.52 0.975237 -3.5339 0
M  V30 7728 H 731.168 3.44797 -3.6623 0
M  V30 7729 H 730.868 2.66778 -5.23549 0
M  V30 7730 H 732.392 3.55904 -4.9615 0
M  V30 7731 H 733.806 1.36979 -5.56695 0
M  V30 7732 H 732.203 0.684207 -5.96187 0
M  V30 7733 H 733.273 -0.182939 -4.84555 0
M  V30 7734 N 734.616 1.57351 0.0885366 0
M  V30 7735 C 735.579 2.01557 1.09121 0
M  V30 7736 C 736.579 0.910052 1.3257 0
M  V30 7737 O 737.769 1.17537 1.28572 0
M  V30 7738 C 734.901 2.38189 2.43883 0
M  V30 7739 H 736.094 2.91361 0.710562 0
M  V30 7740 H 733.647 1.52694 0.333779 0
M  V30 7741 H 734.382 1.5136 2.86811 0
M  V30 7742 H 734.167 3.18846 2.28209 0
M  V30 7743 H 735.657 2.73025 3.15986 0
M  V30 7744 N 736.094 -0.359525 1.53444 0
M  V30 7745 C 737.322 -1.12198 1.73837 0
M  V30 7746 C 737.737 -1.82854 0.470107 0
M  V30 7747 O 737.094 -1.73781 -0.557349 0
M  V30 7748 C 737.145 -2.14769 2.90786 0
M  V30 7749 O 736.866 -1.46989 4.12706 0
M  V30 7750 C 738.367 -3.03514 3.231 0
M  V30 7751 H 735.587 -0.33524 0.581253 0
M  V30 7752 H 738.131 -0.416598 2.00212 0
M  V30 7753 H 736.286 -2.80896 2.66788 0
M  V30 7754 H 736.7 -2.15378 4.78239 0
M  V30 7755 H 738.174 -3.71453 4.08322 0
M  V30 7756 H 738.651 -3.68658 2.38721 0
M  V30 7757 H 739.257 -2.42996 3.49046 0
M  V30 7758 N 737.572 -1.44907 -0.619662 0
M  V30 7759 C 738.849 -1.38766 -1.37852 0
M  V30 7760 C 739.229 -0.0521393 -2.11036 0
M  V30 7761 O 738.577 0.965613 -2.07095 0
M  V30 7762 C 738.787 -2.59344 -2.33541 0
M  V30 7763 C 740.135 -3.03909 -2.96521 0
M  V30 7764 O 741.159 -2.59631 -2.43865 0
M  V30 7765 O 740.018 -3.80713 -3.92071 0
M  V30 7766 H 737.112 -0.550083 -0.617525 0
M  V30 7767 H 739.658 -1.57015 -0.643759 0
M  V30 7768 H 738.43 -3.48142 -1.78642 0
M  V30 7769 H 738.053 -2.43367 -3.14417 0
M  V30 7770 N 739.05 0.861098 -1.31996 0
M  V30 7771 C 739.983 1.97266 -1.14724 0
M  V30 7772 C 740.961 1.62528 -0.0483789 0
M  V30 7773 O 742.145 1.87366 -0.206478 0
M  V30 7774 C 739.272 3.30181 -0.754861 0
M  V30 7775 C 738.318 3.839 -1.85804 0
M  V30 7776 S 739.151 4.08274 -3.46515 0
M  V30 7777 C 740.307 5.44174 -3.09235 0
M  V30 7778 H 740.54 2.11614 -2.08822 0
M  V30 7779 H 738.073 1.01232 -1.16582 0
M  V30 7780 H 740.031 4.06996 -0.535232 0
M  V30 7781 H 738.692 3.13655 0.167155 0
M  V30 7782 H 737.885 4.80013 -1.53633 0
M  V30 7783 H 737.487 3.13907 -2.03318 0
M  V30 7784 H 739.779 6.26172 -2.58679 0
M  V30 7785 H 740.722 5.81301 -4.04345 0
M  V30 7786 H 741.13 5.0787 -2.46431 0
M  V30 7787 N 740.528 1.15101 1.07655 0
M  V30 7788 C 741.753 0.948177 1.84457 0
M  V30 7789 C 742.178 -0.498432 1.81376 0
M  V30 7790 O 741.536 -1.35509 1.20445 0
M  V30 7791 C 741.584 1.46318 3.29581 0
M  V30 7792 O 740.688 0.660342 4.07079 0
M  V30 7793 H 740.029 0.338428 0.571281 0
M  V30 7794 H 742.559 1.5301 1.35828 0
M  V30 7795 H 742.569 1.47468 3.80417 0
M  V30 7796 H 741.244 2.51635 3.31138 0
M  V30 7797 H 739.821 0.718216 3.65918 0
M  V30 7798 N 742.006 -1.2595 0.947325 0
M  V30 7799 C 742.953 -2.26159 0.460497 0
M  V30 7800 C 743.923 -1.58919 -0.483125 0
M  V30 7801 O 745.108 -1.86603 -0.397983 0
M  V30 7802 C 742.248 -3.441 -0.26247 0
M  V30 7803 C 741.361 -4.25999 0.717539 0
M  V30 7804 C 740.496 -5.31193 -0.0272486 0
M  V30 7805 C 739.535 -6.04774 0.944177 0
M  V30 7806 N 738.672 -7.01721 0.230741 0
M  V30 7807 H 743.512 -2.67173 1.31995 0
M  V30 7808 H 741.049 -1.31358 0.662088 0
M  V30 7809 H 743.007 -4.11317 -0.698137 0
M  V30 7810 H 741.637 -3.03983 -1.08602 0
M  V30 7811 H 740.689 -3.58513 1.27171 0
M  V30 7812 H 742.001 -4.76981 1.45913 0
M  V30 7813 H 741.155 -6.04451 -0.521903 0
M  V30 7814 H 739.894 -4.81066 -0.801682 0
M  V30 7815 H 738.899 -5.30338 1.4499 0
M  V30 7816 H 740.124 -6.56991 1.71872 0
M  V30 7817 H 738.07 -6.53895 -0.525088 0
M  V30 7818 H 737.987 -7.50484 0.911556 0
M  V30 7819 H 739.255 -7.79122 -0.242616 0
M  V30 7820 N 743.484 -0.715051 -1.40445 0
M  V30 7821 C 744.434 -0.038591 -2.27967 0
M  V30 7822 C 745.418 0.733099 -1.43229 0
M  V30 7823 O 746.61 0.605388 -1.66325 0
M  V30 7824 C 743.739 0.882801 -3.31755 0
M  V30 7825 C 742.825 0.106325 -4.23967 0
M  V30 7826 N 743.216 -0.910143 -4.97544 0
M  V30 7827 C 741.514 0.33896 -4.4471 0
M  V30 7828 C 742.215 -1.37665 -5.65175 0
M  V30 7829 N 741.191 -0.698905 -5.39088 0
M  V30 7830 H 744.993 -0.81765 -2.82297 0
M  V30 7831 H 742.507 -0.547591 -1.5289 0
M  V30 7832 H 744.504 1.38273 -3.93302 0
M  V30 7833 H 743.164 1.66124 -2.78985 0
M  V30 7834 H 744.175 -1.29097 -5.01552 0
M  V30 7835 H 740.852 1.09377 -4.02918 0
M  V30 7836 H 742.242 -2.22122 -6.34123 0
M  V30 7837 N 744.962 1.50701 -0.461195 0
M  V30 7838 C 745.895 2.24948 0.383863 0
M  V30 7839 C 746.873 1.27851 1.00464 0
M  V30 7840 O 748.057 1.57049 1.04249 0
M  V30 7841 C 745.184 3.01818 1.537 0
M  V30 7842 C 744.23 4.13762 1.03457 0
M  V30 7843 S 745.063 5.35483 -0.0427485 0
M  V30 7844 C 746.219 6.15898 1.11449 0
M  V30 7845 H 746.452 2.96277 -0.246425 0
M  V30 7846 H 743.985 1.52428 -0.245961 0
M  V30 7847 H 745.943 3.467 2.19794 0
M  V30 7848 H 744.604 2.30034 2.13877 0
M  V30 7849 H 743.797 4.66914 1.89757 0
M  V30 7850 H 743.399 3.71265 0.4515 0
M  V30 7851 H 745.691 6.46431 2.02813 0
M  V30 7852 H 746.634 7.05359 0.622444 0
M  V30 7853 H 747.042 5.47777 1.36385 0
M  V30 7854 N 746.441 0.193421 1.56409 0
M  V30 7855 C 747.389 -0.744829 2.20352 0
M  V30 7856 C 748.383 -1.22104 1.17418 0
M  V30 7857 O 749.589 -1.18413 1.35567 0
M  V30 7858 H 745.964 -0.258538 0.70616 0
M  V30 7859 H 747.935 -0.181794 2.97846 0
M  V30 7860 C 746.684 -1.95453 2.87565 0
M  V30 7861 H 746.007 -1.59716 3.66512 0
M  V30 7862 H 747.447 -2.58942 3.35745 0
M  V30 7863 C 745.906 -2.79223 1.8851 0
M  V30 7864 O 746.436 -3.77093 1.38434 0
M  V30 7865 N 744.642 -2.44682 1.56777 0
M  V30 7866 H 744.189 -1.65153 1.97692 0
M  V30 7867 H 744.147 -3.01016 0.907573 0
M  V30 7868 N 747.919 -1.57396 -0.0801906 0
M  V30 7869 C 748.849 -2.06145 -1.09665 0
M  V30 7870 C 749.83 -0.953273 -1.40878 0
M  V30 7871 O 751.015 -1.22548 -1.50651 0
M  V30 7872 C 748.145 -2.49836 -2.41245 0
M  V30 7873 C 747.099 -3.64454 -2.24405 0
M  V30 7874 C 746.425 -3.94172 -3.61293 0
M  V30 7875 C 747.725 -4.94807 -1.67223 0
M  V30 7876 H 749.419 -2.91316 -0.691028 0
M  V30 7877 H 746.965 -1.40145 -0.330957 0
M  V30 7878 H 748.918 -2.82552 -3.12638 0
M  V30 7879 H 747.642 -1.61683 -2.83771 0
M  V30 7880 H 746.301 -3.32008 -1.55454 0
M  V30 7881 H 745.949 -3.03163 -4.01374 0
M  V30 7882 H 745.649 -4.71345 -3.50867 0
M  V30 7883 H 747.173 -4.29376 -4.3413 0
M  V30 7884 H 748.587 -5.25807 -2.28472 0
M  V30 7885 H 746.984 -5.76245 -1.67515 0
M  V30 7886 H 748.054 -4.80751 -0.632944 0
M  V30 7887 N 749.397 0.351382 -1.53633 0
M  V30 7888 C 750.327 1.43688 -1.84055 0
M  V30 7889 C 751.308 1.55251 -0.695073 0
M  V30 7890 O 752.493 1.69587 -0.946257 0
M  V30 7891 C 749.623 2.80843 -2.04315 0
M  V30 7892 C 748.577 2.84094 -3.20117 0
M  V30 7893 C 747.903 4.2406 -3.25696 0
M  V30 7894 C 749.203 2.50334 -4.58399 0
M  V30 7895 H 750.897 1.18478 -2.74961 0
M  V30 7896 H 748.443 0.568509 -1.32303 0
M  V30 7897 H 750.396 3.56821 -2.2418 0
M  V30 7898 H 749.12 3.07471 -1.10132 0
M  V30 7899 H 747.779 2.10568 -3.00094 0
M  V30 7900 H 747.427 4.47785 -2.29123 0
M  V30 7901 H 747.127 4.27147 -4.03509 0
M  V30 7902 H 748.651 5.0189 -3.47762 0
M  V30 7903 H 750.065 3.16025 -4.78332 0
M  V30 7904 H 748.462 2.64717 -5.38558 0
M  V30 7905 H 749.532 1.45542 -4.62543 0
M  V30 7906 N 750.875 1.45233 0.611969 0
M  V30 7907 C 751.838 1.53189 1.70487 0
M  V30 7908 C 752.838 0.411839 1.55437 0
M  V30 7909 O 754.028 0.675164 1.60584 0
M  V30 7910 C 751.16 1.42422 3.09723 0
M  V30 7911 H 752.353 2.5056 1.64802 0
M  V30 7912 H 749.906 1.32609 0.827318 0
M  V30 7913 H 750.641 0.462185 3.2099 0
M  V30 7914 H 750.426 2.23658 3.22055 0
M  V30 7915 H 751.916 1.51012 3.89339 0
M  V30 7916 N 752.353 -0.854086 1.3245 0
M  V30 7917 C 753.63 -1.59188 1.1366 0
M  V30 7918 C 754.01 -2.08917 -0.302807 0
M  V30 7919 O 753.358 -1.8795 -1.29951 0
M  V30 7920 C 753.568 -2.73757 2.16467 0
M  V30 7921 C 754.916 -3.43323 2.49829 0
M  V30 7922 O 755.94 -2.83983 2.15017 0
M  V30 7923 O 754.799 -4.50409 3.09506 0
M  V30 7924 H 751.893 -0.701092 0.438633 0
M  V30 7925 H 754.439 -0.898165 1.43983 0
M  V30 7926 H 753.211 -2.3454 3.1322 0
M  V30 7927 H 752.834 -3.50804 1.87142 0
M  V30 7928 N 753.831 -1.1567 -1.07043 0
M  V30 7929 C 754.761 -0.879348 -2.16309 0
M  V30 7930 C 755.742 0.171311 -1.69235 0
M  V30 7931 O 756.927 0.0250175 -1.94184 0
M  V30 7932 C 754.057 -0.371307 -3.45309 0
M  V30 7933 C 753.011 -1.359 -4.05851 0
M  V30 7934 C 752.337 -0.709678 -5.29969 0
M  V30 7935 C 753.637 -2.72606 -4.45514 0
M  V30 7936 H 755.331 -1.79308 -2.39768 0
M  V30 7937 H 752.877 -0.863558 -1.15233 0
M  V30 7938 H 754.83 -0.164798 -4.21078 0
M  V30 7939 H 753.554 0.577906 -3.21446 0
M  V30 7940 H 752.213 -1.55193 -3.32131 0
M  V30 7941 H 751.861 0.245782 -5.02399 0
M  V30 7942 H 751.561 -1.36886 -5.71433 0
M  V30 7943 H 753.085 -0.513015 -6.08441 0
M  V30 7944 H 754.499 -2.57141 -5.12398 0
M  V30 7945 H 752.896 -3.34927 -4.97939 0
M  V30 7946 H 753.966 -3.28434 -3.56734 0
M  V30 7947 N 755.309 1.25446 -0.953992 0
M  V30 7948 C 756.256 2.25912 -0.472485 0
M  V30 7949 C 757.226 1.59173 0.47469 0
M  V30 7950 O 758.411 1.86812 0.388082 0
M  V30 7951 C 755.551 3.44235 0.244218 0
M  V30 7952 C 754.664 4.25613 -0.740121 0
M  V30 7953 C 753.799 5.312 -0.000922267 0
M  V30 7954 C 752.838 6.04265 -0.976236 0
M  V30 7955 N 751.975 7.01589 -0.267952 0
M  V30 7956 H 756.815 2.66469 -1.3341 0
M  V30 7957 H 754.352 1.31005 -0.669045 0
M  V30 7958 H 756.31 4.11682 0.676314 0
M  V30 7959 H 754.94 3.04554 1.06988 0
M  V30 7960 H 753.992 3.57834 -1.2907 0
M  V30 7961 H 755.304 4.762 -1.48441 0
M  V30 7962 H 754.458 6.04719 0.48984 0
M  V30 7963 H 753.197 4.81484 0.776159 0
M  V30 7964 H 752.202 5.29561 -1.478 0
M  V30 7965 H 753.427 6.5607 -1.75354 0
M  V30 7966 H 751.373 6.54164 0.490403 0
M  V30 7967 H 751.29 7.4999 -0.951344 0
M  V30 7968 H 752.558 7.7924 0.201294 0
M  V30 7969 N 756.787 0.722489 1.40064 0
M  V30 7970 C 758.015 0.274838 2.05066 0
M  V30 7971 C 758.43 -1.08586 1.54449 0
M  V30 7972 O 757.787 -1.68375 0.704003 0
M  V30 7973 C 757.838 0.253673 3.60609 0
M  V30 7974 O 757.559 1.56064 4.0936 0
M  V30 7975 C 759.06 -0.211684 4.42794 0
M  V30 7976 H 756.28 0.12226 0.659768 0
M  V30 7977 H 758.824 0.982632 1.79345 0
M  V30 7978 H 756.979 -0.405137 3.85276 0
M  V30 7979 H 757.393 1.46576 5.03603 0
M  V30 7980 H 758.867 -0.175341 5.51721 0
M  V30 7981 H 759.344 -1.25493 4.2089 0
M  V30 7982 H 759.95 0.4171 4.2325 0
M  V30 7983 N 758.265 -1.50454 0.469181 0
M  V30 7984 C 759.198 -2.25149 -0.371928 0
M  V30 7985 C 760.176 -1.28382 -0.997845 0
M  V30 7986 O 761.36 -1.57599 -1.03415 0
M  V30 7987 C 758.487 -3.02629 -1.52097 0
M  V30 7988 C 757.533 -4.14305 -1.01262 0
M  V30 7989 S 758.366 -5.35453 0.0711459 0
M  V30 7990 C 759.522 -6.1648 -1.08181 0
M  V30 7991 H 759.755 -2.96142 0.262134 0
M  V30 7992 H 757.288 -1.52296 0.254042 0
M  V30 7993 H 759.246 -3.47861 -2.17952 0
M  V30 7994 H 757.907 -2.31165 -2.12654 0
M  V30 7995 H 757.1 -4.67913 -1.87278 0
M  V30 7996 H 756.702 -3.71499 -0.431804 0
M  V30 7997 H 758.994 -6.47497 -1.99382 0
M  V30 7998 H 759.937 -7.05679 -0.585028 0
M  V30 7999 H 760.345 -5.48492 -1.33478 0
M  V30 8000 N 759.743 -0.201713 -1.56304 0
M  V30 8001 C 760.989 0.435952 -1.98059 0
M  V30 8002 C 761.322 1.60811 -1.08873 0
M  V30 8003 O 760.597 1.9398 -0.142128 0
M  V30 8004 C 760.88 0.889706 -3.48936 0
M  V30 8005 C 760.733 -0.284725 -4.48898 0
M  V30 8006 C 762.052 1.7529 -4.03685 0
M  V30 8007 H 759.171 0.15699 -0.720085 0
M  V30 8008 H 761.813 -0.293965 -1.87712 0
M  V30 8009 H 759.963 1.51166 -3.57884 0
M  V30 8010 H 761.635 -0.922531 -4.51981 0
M  V30 8011 H 759.878 -0.935427 -4.23594 0
M  V30 8012 H 760.549 0.0753865 -5.51949 0
M  V30 8013 H 763.025 1.2283 -3.97558 0
M  V30 8014 H 761.901 2.03933 -5.0961 0
M  V30 8015 H 762.162 2.70939 -3.49348 0
M  V30 8016 N 761.222 1.57436 0.0718424 0
M  V30 8017 C 762.132 2.07039 1.10326 0
M  V30 8018 C 763.148 0.999918 1.424 0
M  V30 8019 O 764.324 1.31462 1.52577 0
M  V30 8020 C 761.389 2.50439 2.39752 0
M  V30 8021 C 760.45 3.71784 2.14651 0
M  V30 8022 C 759.683 4.13104 3.37906 0
M  V30 8023 O 759.906 3.54298 4.47023 0
M  V30 8024 O 758.84 5.05894 3.26121 0
M  V30 8025 H 762.666 2.95239 0.711872 0
M  V30 8026 H 760.251 1.46638 0.28597 0
M  V30 8027 H 762.133 2.78876 3.15921 0
M  V30 8028 H 760.808 1.65368 2.78271 0
M  V30 8029 H 759.715 3.48431 1.36187 0
M  V30 8030 H 761.048 4.57707 1.81012 0
M  V30 8031 N 762.7 -0.34323 1.53817 0
M  V30 8032 C 763.928 -1.10348 1.75017 0
M  V30 8033 C 764.343 -1.82345 0.489475 0
M  V30 8034 O 763.7 -1.74362 -0.538886 0
M  V30 8035 C 763.751 -2.11672 2.93048 0
M  V30 8036 O 763.472 -1.42603 4.14241 0
M  V30 8037 C 764.973 -3.0007 3.26301 0
M  V30 8038 H 762.193 -0.329056 0.584776 0
M  V30 8039 H 764.737 -0.395339 2.00642 0
M  V30 8040 H 762.892 -2.78051 2.69753 0
M  V30 8041 H 763.306 -2.10294 4.80496 0
M  V30 8042 H 764.78 -3.67101 4.12239 0
M  V30 8043 H 765.257 -3.66105 2.42618 0
M  V30 8044 H 765.863 -2.3928 3.51604 0
M  V30 8045 N 764.178 -1.45556 -0.604258 0
M  V30 8046 C 765.125 -1.54482 -1.71476 0
M  V30 8047 C 766.095 -0.390479 -1.61445 0
M  V30 8048 O 767.28 -0.604371 -1.80975 0
M  V30 8049 C 764.42 -1.52064 -3.09791 0
M  V30 8050 C 763.533 -2.78073 -3.30604 0
M  V30 8051 C 762.668 -2.67304 -4.59044 0
M  V30 8052 C 761.707 -3.88352 -4.73127 0
M  V30 8053 N 760.844 -3.76098 -5.9287 0
M  V30 8054 H 765.684 -2.49349 -1.63184 0
M  V30 8055 H 763.221 -1.23725 -0.795641 0
M  V30 8056 H 765.179 -1.48649 -3.89819 0
M  V30 8057 H 763.809 -0.607442 -3.17033 0
M  V30 8058 H 762.861 -2.91561 -2.44329 0
M  V30 8059 H 764.173 -3.67847 -3.36883 0
M  V30 8060 H 763.327 -2.61875 -5.47272 0
M  V30 8061 H 762.066 -1.75135 -4.55169 0
M  V30 8062 H 761.071 -3.94137 -3.83322 0
M  V30 8063 H 762.296 -4.81591 -4.78797 0
M  V30 8064 H 760.242 -2.867 -5.90033 0
M  V30 8065 H 760.159 -4.59509 -6.00323 0
M  V30 8066 H 761.427 -3.74607 -6.83586 0
M  V30 8067 N 765.656 0.84705 -1.32902 0
M  V30 8068 C 766.603 1.95624 -1.22473 0
M  V30 8069 C 767.573 1.65767 -0.105178 0
M  V30 8070 O 768.758 1.88704 -0.282042 0
M  V30 8071 C 765.898 3.31434 -0.961542 0
M  V30 8072 C 765.011 3.73741 -2.1666 0
M  V30 8073 C 764.146 4.98379 -1.83825 0
M  V30 8074 C 763.185 5.33199 -3.00609 0
M  V30 8075 N 762.322 6.49014 -2.67816 0
M  V30 8076 H 767.162 2.03875 -2.17345 0
M  V30 8077 H 764.699 0.997764 -1.08088 0
M  V30 8078 H 766.657 4.09663 -0.789411 0
M  V30 8079 H 765.287 3.22762 -0.0495938 0
M  V30 8080 H 764.339 2.91102 -2.44875 0
M  V30 8081 H 765.651 3.95462 -3.03993 0
M  V30 8082 H 764.805 5.84336 -1.63208 0
M  V30 8083 H 763.544 4.78611 -0.937172 0
M  V30 8084 H 762.549 4.4575 -3.21849 0
M  V30 8085 H 763.774 5.5492 -3.9146 0
M  V30 8086 H 761.72 6.30748 -1.80258 0
M  V30 8087 H 761.637 6.7079 -3.48679 0
M  V30 8088 H 762.905 7.38103 -2.50647 0
M  V30 8089 N 767.134 1.16236 1.06428 0
M  V30 8090 C 768.38 0.944431 1.79467 0
M  V30 8091 C 768.713 -0.526558 1.86925 0
M  V30 8092 O 767.988 -1.39061 1.35986 0
M  V30 8093 C 768.271 1.57092 3.24028 0
M  V30 8094 C 768.124 3.11315 3.24658 0
M  V30 8095 C 769.443 1.26447 4.21544 0
M  V30 8096 H 766.562 0.344521 0.651517 0
M  V30 8097 H 769.204 1.43545 1.24478 0
M  V30 8098 H 767.354 1.15337 3.70985 0
M  V30 8099 H 769.026 3.62042 2.85873 0
M  V30 8100 H 767.269 3.44716 2.6335 0
M  V30 8101 H 767.94 3.50269 4.26633 0
M  V30 8102 H 770.416 1.62581 3.83023 0
M  V30 8103 H 769.292 1.72885 5.20963 0
M  V30 8104 H 769.553 0.183068 4.41721 0
M  V30 8105 N 768.612 -1.24939 0.960631 0
M  V30 8106 C 769.84 -1.96881 0.636045 0
M  V30 8107 C 770.255 -1.71334 -0.793093 0
M  V30 8108 O 769.612 -0.992917 -1.53125 0
M  V30 8109 C 769.663 -3.50309 0.892533 0
M  V30 8110 O 769.384 -3.74977 2.26548 0
M  V30 8111 C 770.885 -4.39474 0.581159 0
M  V30 8112 H 768.105 -0.627399 0.237931 0
M  V30 8113 H 770.649 -1.58952 1.28664 0
M  V30 8114 H 768.804 -3.86326 0.288257 0
M  V30 8115 H 769.218 -4.69401 2.34014 0
M  V30 8116 H 770.692 -5.46008 0.811125 0
M  V30 8117 H 771.169 -4.3652 -0.48443 0
M  V30 8118 H 771.775 -4.09032 1.16502 0
M  V30 8119 N 770.09 -0.729906 -1.39679 0
M  V30 8120 C 771.315 -0.284345 -2.05442 0
M  V30 8121 C 771.74 1.07056 -1.54663 0
M  V30 8122 O 771.098 1.67732 -0.688157 0
M  V30 8123 C 771.146 -0.290089 -3.59431 0
M  V30 8124 O 770.25 0.723978 -4.05995 0
M  V30 8125 H 769.591 -0.130311 -0.651088 0
M  V30 8126 H 772.121 -0.994403 -1.78809 0
M  V30 8127 H 772.131 -0.132712 -4.07784 0
M  V30 8128 H 770.806 -1.27877 -3.95753 0
M  V30 8129 H 769.383 0.533154 -3.69069 0
M  V30 8130 N 771.568 1.50203 -0.477153 0
M  V30 8131 C 772.498 2.31517 0.303646 0
M  V30 8132 C 773.479 1.38696 0.984753 0
M  V30 8133 O 774.664 1.67615 0.980758 0
M  V30 8134 C 771.794 3.18598 1.38249 0
M  V30 8135 C 770.748 4.2002 0.822645 0
M  V30 8136 C 770.074 4.95878 2.00024 0
M  V30 8137 C 771.374 5.22023 -0.170185 0
M  V30 8138 H 773.068 2.97042 -0.375027 0
M  V30 8139 H 770.614 1.42848 -0.181802 0
M  V30 8140 H 772.567 3.74282 1.93625 0
M  V30 8141 H 771.291 2.5097 2.09002 0
M  V30 8142 H 769.95 3.65445 0.290813 0
M  V30 8143 H 769.598 4.24717 2.69489 0
M  V30 8144 H 769.298 5.64487 1.63183 0
M  V30 8145 H 770.822 5.54399 2.55878 0
M  V30 8146 H 772.236 5.72543 0.294606 0
M  V30 8147 H 770.633 5.98386 -0.453181 0
M  V30 8148 H 771.703 4.72396 -1.09408 0
M  V30 8149 N 773.046 0.209999 1.56195 0
M  V30 8150 C 774.294 -0.423974 1.97603 0
M  V30 8151 C 774.615 -1.61112 1.09854 0
M  V30 8152 O 773.885 -1.95134 0.173032 0
M  V30 8153 H 772.465 -0.159629 0.729745 0
M  V30 8154 H 775.127 0.300205 1.92574 0
M  V30 8155 H 774.223 -0.75809 3.02753 0
M  V30 8156 N 774.524 -1.57472 -0.0634922 0
M  V30 8157 C 775.77 -1.87932 -0.762194 0
M  V30 8158 C 776.103 -0.803377 -1.76804 0
M  V30 8159 O 775.378 0.185468 -1.93614 0
M  V30 8160 C 775.661 -3.29053 -1.46275 0
M  V30 8161 C 775.514 -4.47309 -0.472755 0
M  V30 8162 C 776.833 -3.68537 -2.40558 0
M  V30 8163 H 773.952 -0.683521 -0.275624 0
M  V30 8164 H 776.594 -1.89983 -0.0252651 0
M  V30 8165 H 774.744 -3.27435 -2.0909 0
M  V30 8166 H 776.416 -4.61053 0.150828 0
M  V30 8167 H 774.659 -4.33286 0.211187 0
M  V30 8168 H 775.33 -5.42853 -1.00072 0
M  V30 8169 H 777.806 -3.71302 -1.87814 0
M  V30 8170 H 776.682 -4.68152 -2.86574 0
M  V30 8171 H 776.943 -2.98917 -3.25731 0
M  V30 8172 N 776.003 0.335068 -1.53997 0
M  V30 8173 C 776.933 1.41727 -1.85568 0
M  V30 8174 C 777.914 1.54505 -0.7115 0
M  V30 8175 O 779.099 1.68573 -0.964191 0
M  V30 8176 C 776.229 2.7866 -2.07282 0
M  V30 8177 C 775.183 2.80682 -3.23112 0
M  V30 8178 C 774.509 4.20581 -3.30175 0
M  V30 8179 C 775.809 2.45458 -4.61029 0
M  V30 8180 H 777.503 1.15555 -2.76202 0
M  V30 8181 H 775.049 0.554445 -1.32898 0
M  V30 8182 H 777.002 3.54423 -2.27952 0
M  V30 8183 H 775.726 3.06286 -1.13387 0
M  V30 8184 H 774.385 2.07373 -3.02311 0
M  V30 8185 H 774.033 4.4533 -2.33859 0
M  V30 8186 H 773.733 4.22843 -4.08016 0
M  V30 8187 H 775.257 4.98174 -3.53066 0
M  V30 8188 H 776.671 3.10934 -4.81656 0
M  V30 8189 H 775.068 2.5899 -5.41336 0
M  V30 8190 H 776.138 1.40628 -4.6406 0
M  V30 8191 N 777.481 1.45874 0.596531 0
M  V30 8192 C 778.411 1.5824 1.71705 0
M  V30 8193 C 779.392 0.433366 1.64487 0
M  V30 8194 O 780.577 0.657895 1.82717 0
M  V30 8195 C 777.707 1.55927 3.10329 0
M  V30 8196 C 776.661 2.69659 3.32367 0
M  V30 8197 C 775.987 2.52403 4.71377 0
M  V30 8198 C 777.287 4.11591 3.21544 0
M  V30 8199 H 778.981 2.52035 1.61613 0
M  V30 8200 H 776.527 1.21297 0.776082 0
M  V30 8201 H 778.48 1.63173 3.88526 0
M  V30 8202 H 777.204 0.586674 3.21288 0
M  V30 8203 H 775.863 2.61859 2.56564 0
M  V30 8204 H 775.511 1.53258 4.79083 0
M  V30 8205 H 775.211 3.28679 4.87077 0
M  V30 8206 H 776.735 2.6152 5.5176 0
M  V30 8207 H 778.149 4.20576 3.89601 0
M  V30 8208 H 776.546 4.88344 3.4877 0
M  V30 8209 H 777.616 4.32719 2.1882 0
M  V30 8210 N 778.959 -0.83999 1.33349 0
M  V30 8211 C 779.889 -1.965 1.26135 0
M  V30 8212 C 780.87 -1.69505 0.142152 0
M  V30 8213 O 782.055 -1.91346 0.331743 0
M  V30 8214 C 779.185 -3.32632 0.99866 0
M  V30 8215 C 778.139 -3.74021 2.08068 0
M  V30 8216 C 777.465 -5.07947 1.67014 0
M  V30 8217 C 778.765 -3.87925 3.49731 0
M  V30 8218 H 780.459 -2.02793 2.20262 0
M  V30 8219 H 778.005 -0.974297 1.06035 0
M  V30 8220 H 779.958 -4.10903 0.934696 0
M  V30 8221 H 778.682 -3.26593 0.0217759 0
M  V30 8222 H 777.341 -2.98012 2.13505 0
M  V30 8223 H 776.989 -4.98378 0.680316 0
M  V30 8224 H 776.689 -5.36611 2.39422 0
M  V30 8225 H 778.213 -5.88695 1.62082 0
M  V30 8226 H 779.627 -4.5651 3.46802 0
M  V30 8227 H 778.024 -4.28023 4.20614 0
M  V30 8228 H 779.094 -2.90407 3.88319 0
M  V30 8229 N 780.437 -1.16799 -1.0581 0
M  V30 8230 C 781.714 -0.862616 -1.75551 0
M  V30 8231 C 782.094 0.6385 -2.01212 0
M  V30 8232 O 781.442 1.58784 -1.64317 0
M  V30 8233 C 781.652 -1.6907 -3.05314 0
M  V30 8234 C 783 -1.90675 -3.79379 0
M  V30 8235 O 784.024 -1.65976 -3.15167 0
M  V30 8236 O 782.883 -2.32145 -4.94743 0
M  V30 8237 H 779.977 -0.318789 -0.763088 0
M  V30 8238 H 782.523 -1.27461 -1.12034 0
M  V30 8239 H 781.295 -2.70912 -2.82352 0
M  V30 8240 H 780.918 -1.27606 -3.76567 0
M  V30 8241 N 781.915 1.24427 -0.967243 0
M  V30 8242 C 782.863 2.27403 -0.488927 0
M  V30 8243 C 783.857 1.63388 0.447302 0
M  V30 8244 O 785.063 1.77085 0.322643 0
M  V30 8245 H 781.438 0.738921 -0.139643 0
M  V30 8246 H 783.409 2.65122 -1.36942 0
M  V30 8247 C 782.158 3.4709 0.205787 0
M  V30 8248 H 781.481 3.96591 -0.50551 0
M  V30 8249 H 782.921 4.2099 0.504296 0
M  V30 8250 C 781.38 3.04923 1.43261 0
M  V30 8251 O 781.91 3.12043 2.52967 0
M  V30 8252 N 780.116 2.59976 1.29849 0
M  V30 8253 H 779.663 2.54382 0.405876 0
M  V30 8254 H 779.621 2.32128 2.12047 0
M  V30 8255 N 783.393 0.737304 1.3929 0
M  V30 8256 C 784.623 0.296143 2.04467 0
M  V30 8257 C 785.031 -1.0748 1.55707 0
M  V30 8258 O 784.374 -1.69082 0.718123 0
M  V30 8259 C 784.436 0.222161 3.58813 0
M  V30 8260 C 784.1 1.53195 4.30558 0
M  V30 8261 C 785.097 2.47809 4.57041 0
M  V30 8262 C 782.782 1.79688 4.6906 0
M  V30 8263 C 784.776 3.67147 5.21039 0
M  V30 8264 C 782.463 2.99304 5.32785 0
M  V30 8265 C 783.461 3.92855 5.58708 0
M  V30 8266 O 783.149 5.1037 6.2111 0
M  V30 8267 H 782.881 0.126896 0.663983 0
M  V30 8268 H 785.435 1.00242 1.79278 0
M  V30 8269 H 783.665 -0.540239 3.82908 0
M  V30 8270 H 785.354 -0.187311 4.05468 0
M  V30 8271 H 786.12 2.28611 4.2774 0
M  V30 8272 H 781.999 1.07716 4.48239 0
M  V30 8273 H 785.543 4.40183 5.41188 0
M  V30 8274 H 781.44 3.18401 5.61508 0
M  V30 8275 H 782.208 5.10735 6.39603 0
M  V30 8276 N 784.871 -1.49948 0.485112 0
M  V30 8277 C 786.096 -2.073 -0.0645059 0
M  V30 8278 C 786.521 -1.345 -1.31497 0
M  V30 8279 O 785.879 -0.39687 -1.76903 0
M  V30 8280 C 785.927 -3.59201 -0.317304 0
M  V30 8281 O 785.031 -3.88085 -1.39514 0
M  V30 8282 H 784.372 -0.663723 0.0191822 0
M  V30 8283 H 786.902 -1.92963 0.680179 0
M  V30 8284 H 786.912 -4.04227 -0.553604 0
M  V30 8285 H 785.587 -4.11602 0.596387 0
M  V30 8286 H 784.164 -3.54885 -1.14504 0
M  V30 8287 N 786.349 -0.21828 -1.56081 0
M  V30 8288 C 787.626 0.463143 -1.90038 0
M  V30 8289 C 788.006 1.77982 -1.13515 0
M  V30 8290 O 787.354 2.27199 -0.24345 0
M  V30 8291 C 787.564 0.659292 -3.42716 0
M  V30 8292 C 788.912 0.968203 -4.13414 0
M  V30 8293 O 789.936 0.746195 -3.48296 0
M  V30 8294 O 788.795 1.38936 -5.28544 0
M  V30 8295 H 785.889 0.244435 -0.790051 0
M  V30 8296 H 788.435 -0.260221 -1.67693 0
M  V30 8297 H 787.207 -0.269584 -3.9037 0
M  V30 8298 H 786.83 1.43426 -3.7083 0
M  V30 8299 N 787.827 1.57504 0.0551401 0
M  V30 8300 C 789.243 1.54236 0.410292 0
M  V30 8301 C 789.443 0.940839 1.78187 0
M  V30 8302 O 788.499 0.550541 2.46425 0
M  V30 8303 C 789.812 2.98816 0.336064 0
M  V30 8304 C 791.36 3.10236 0.415047 0
M  V30 8305 C 791.835 4.56499 0.37055 0
M  V30 8306 N 793.326 4.61199 0.43013 0
M  V30 8307 C 794.061 5.71873 0.418179 0
M  V30 8308 N 793.557 6.91864 0.360056 0
M  V30 8309 N 795.35 5.60165 0.465977 0
M  V30 8310 H 787.501 1.94965 -0.842759 0
M  V30 8311 H 789.764 0.893096 -0.317937 0
M  V30 8312 H 789.47 3.4645 -0.605429 0
M  V30 8313 H 789.344 3.59564 1.13988 0
M  V30 8314 H 791.731 2.62566 1.34697 0
M  V30 8315 H 791.812 2.52367 -0.417648 0
M  V30 8316 H 791.456 5.0483 -0.557592 0
M  V30 8317 H 791.386 5.12249 1.221 0
M  V30 8318 H 793.877 3.74857 0.478623 0
M  V30 8319 H 794.19 7.71983 0.35532 0
M  V30 8320 H 792.535 6.94233 0.326492 0
M  V30 8321 H 795.726 4.65322 0.509194 0
M  V30 8322 H 795.899 6.46413 0.453194 0
M  V30 8323 N 789.305 -0.326896 1.54172 0
M  V30 8324 C 790.554 -1.06274 1.71431 0
M  V30 8325 C 790.867 -1.89282 0.493123 0
M  V30 8326 O 792.073 -2.65933 0.54699 0
M  V30 8327 C 790.529 -1.93892 3.03206 0
M  V30 8328 C 790.137 -1.16011 4.32719 0
M  V30 8329 C 791.881 -2.67232 3.29829 0
M  V30 8330 C 789.788 -2.02755 5.55558 0
M  V30 8331 H 788.718 -0.400475 0.638855 0
M  V30 8332 H 791.369 -0.321184 1.80667 0
M  V30 8333 H 789.751 -2.71933 2.87869 0
M  V30 8334 H 790.925 -0.427643 4.58811 0
M  V30 8335 H 789.24 -0.54367 4.12836 0
M  V30 8336 H 791.837 -3.32434 4.18798 0
M  V30 8337 H 792.18 -3.34692 2.47562 0
M  V30 8338 H 792.713 -1.96255 3.46018 0
M  V30 8339 H 789.452 -1.3981 6.40417 0
M  V30 8340 H 788.972 -2.73745 5.33689 0
M  V30 8341 H 790.651 -2.61419 5.91835 0
M  V30 8342 N 790.784 -1.46188 -0.588786 0
M  V30 8343 C 791.716 -1.52319 -1.71265 0
M  V30 8344 C 792.729 -0.412096 -1.57498 0
M  V30 8345 O 793.918 -0.680146 -1.65034 0
M  V30 8346 C 791.018 -1.38164 -3.09458 0
M  V30 8347 C 790.191 -2.63284 -3.49286 0
M  V30 8348 C 789.25 -2.43415 -4.66514 0
M  V30 8349 O 788.276 -3.17113 -4.72682 0
M  V30 8350 N 789.478 -1.49187 -5.61002 0
M  V30 8351 H 792.243 -2.49219 -1.66463 0
M  V30 8352 H 789.804 -1.42167 -0.774601 0
M  V30 8353 H 791.796 -1.22653 -3.85666 0
M  V30 8354 H 790.366 -0.494678 -3.08661 0
M  V30 8355 H 789.586 -2.93779 -2.62845 0
M  V30 8356 H 790.874 -3.46413 -3.7266 0
M  V30 8357 H 790.272 -0.884027 -5.5875 0
M  V30 8358 H 788.829 -1.39642 -6.36666 0
M  V30 8359 N 792.262 0.832906 -1.33792 0
M  V30 8360 C 793.508 1.59089 -1.25772 0
M  V30 8361 C 793.841 1.93414 0.174601 0
M  V30 8362 O 793.116 1.59195 1.11746 0
M  V30 8363 C 793.399 2.89699 -2.13885 0
M  V30 8364 C 793.252 2.62017 -3.65605 0
M  V30 8365 C 794.571 3.91182 -2.01654 0
M  V30 8366 H 791.69 0.577232 -0.458227 0
M  V30 8367 H 794.332 0.960227 -1.6395 0
M  V30 8368 H 792.482 3.4352 -1.81456 0
M  V30 8369 H 794.154 2.14582 -4.08353 0
M  V30 8370 H 792.397 1.95621 -3.87189 0
M  V30 8371 H 793.068 3.55112 -4.2261 0
M  V30 8372 H 795.544 3.46684 -2.30107 0
M  V30 8373 H 794.42 4.80391 -2.65548 0
M  V30 8374 H 794.681 4.30861 -0.990536 0
M  V30 8375 N 793.74 1.17359 1.05189 0
M  V30 8376 C 794.67 0.91365 2.14883 0
M  V30 8377 C 795.651 -0.144365 1.69486 0
M  V30 8378 O 796.836 0.00587861 1.94199 0
M  V30 8379 C 793.966 0.426196 3.44675 0
M  V30 8380 C 792.92 1.4234 4.03638 0
M  V30 8381 C 792.246 0.793902 5.28773 0
M  V30 8382 C 793.546 2.7966 4.41121 0
M  V30 8383 H 795.24 1.831 2.36885 0
M  V30 8384 H 792.786 0.881781 1.13845 0
M  V30 8385 H 794.739 0.231767 4.20762 0
M  V30 8386 H 793.463 -0.526693 3.22325 0
M  V30 8387 H 792.122 1.60457 3.2962 0
M  V30 8388 H 791.77 -0.165824 5.02727 0
M  V30 8389 H 791.47 1.45959 5.69183 0
M  V30 8390 H 792.994 0.609747 6.07548 0
M  V30 8391 H 794.408 2.6526 5.08242 0
M  V30 8392 H 792.805 3.42807 4.92548 0
M  V30 8393 H 793.875 3.34068 3.51464 0
M  V30 8394 N 795.218 -1.23913 0.973828 0
M  V30 8395 C 796.15 -2.24397 0.466763 0
M  V30 8396 C 797.163 -1.57078 -0.427828 0
M  V30 8397 O 798.352 -1.76973 -0.233019 0
M  V30 8398 C 795.452 -3.37141 -0.344798 0
M  V30 8399 C 794.625 -4.34037 0.541349 0
M  V30 8400 C 793.684 -5.2576 -0.215243 0
M  V30 8401 O 792.71 -5.67842 0.39291 0
M  V30 8402 N 793.912 -5.60702 -1.5031 0
M  V30 8403 H 796.677 -2.68536 1.33074 0
M  V30 8404 H 794.238 -1.38017 0.846346 0
M  V30 8405 H 796.23 -3.95476 -0.859133 0
M  V30 8406 H 794.8 -2.92239 -1.10974 0
M  V30 8407 H 794.02 -3.74302 1.23659 0
M  V30 8408 H 795.308 -4.95738 1.1455 0
M  V30 8409 H 794.706 -5.28451 -2.01882 0
M  V30 8410 H 793.263 -6.21538 -1.96301 0
M  V30 8411 N 796.696 -0.74468 -1.38897 0
M  V30 8412 C 797.644 -0.100312 -2.32384 0
M  V30 8413 C 798.638 0.715191 -1.53562 0
M  V30 8414 O 799.844 0.615288 -1.69157 0
M  V30 8415 H 796.219 -0.0136403 -0.751876 0
M  V30 8416 H 798.19 -0.905007 -2.84345 0
M  V30 8417 C 796.939 0.785432 -3.38713 0
M  V30 8418 H 796.262 0.167308 -3.9945 0
M  V30 8419 H 797.702 1.20374 -4.06554 0
M  V30 8420 C 796.161 1.92408 -2.76552 0
M  V30 8421 O 796.691 3.01752 -2.65157 0
M  V30 8422 N 794.897 1.71642 -2.34494 0
M  V30 8423 H 794.444 0.827079 -2.43961 0
M  V30 8424 H 794.402 2.48 -1.93244 0
M  V30 8425 N 798.174 1.49689 -0.493057 0
M  V30 8426 C 799.104 2.31826 0.279073 0
M  V30 8427 C 800.085 1.39733 0.969987 0
M  V30 8428 O 801.27 1.68646 0.962925 0
M  V30 8429 C 798.4 3.20046 1.34862 0
M  V30 8430 C 797.354 4.20869 0.77805 0
M  V30 8431 C 796.68 4.97971 1.94753 0
M  V30 8432 C 797.98 5.21813 -0.225543 0
M  V30 8433 H 799.674 2.96627 -0.406512 0
M  V30 8434 H 797.22 1.42647 -0.196943 0
M  V30 8435 H 799.173 3.76315 1.89645 0
M  V30 8436 H 797.897 2.53172 2.06328 0
M  V30 8437 H 796.556 3.65733 0.252036 0
M  V30 8438 H 796.204 4.27552 2.64969 0
M  V30 8439 H 795.904 5.66186 1.57187 0
M  V30 8440 H 797.428 5.57082 2.49984 0
M  V30 8441 H 798.842 5.72823 0.233864 0
M  V30 8442 H 797.239 5.97872 -0.516622 0
M  V30 8443 H 798.309 4.71209 -1.14412 0
M  V30 8444 N 799.652 0.226554 1.55963 0
M  V30 8445 C 800.898 -0.404387 1.98727 0
M  V30 8446 C 801.231 -1.59059 1.11418 0
M  V30 8447 O 800.506 -1.93729 0.172971 0
M  V30 8448 C 800.789 -0.834081 3.50307 0
M  V30 8449 C 800.642 0.356104 4.48388 0
M  V30 8450 C 801.961 -1.68845 4.06423 0
M  V30 8451 H 799.08 -0.145515 0.722492 0
M  V30 8452 H 801.722 0.323791 1.87221 0
M  V30 8453 H 799.872 -1.45454 3.60244 0
M  V30 8454 H 801.544 0.99432 4.50456 0
M  V30 8455 H 799.787 1.0027 4.22053 0
M  V30 8456 H 800.458 0.0124333 5.51999 0
M  V30 8457 H 802.934 -1.16489 3.99461 0
M  V30 8458 H 801.81 -1.958 5.1279 0
M  V30 8459 H 802.071 -2.65347 3.53615 0
M  V30 8460 N 801.13 -1.57531 -0.0467866 0
M  V30 8461 C 802.08 -2.01845 -1.06031 0
M  V30 8462 C 803.064 -0.904662 -1.33059 0
M  V30 8463 O 804.256 -1.16858 -1.32941 0
M  V30 8464 C 801.385 -2.48673 -2.36679 0
M  V30 8465 C 800.471 -3.66837 -2.12818 0
M  V30 8466 N 800.862 -4.80172 -1.5896 0
M  V30 8467 C 799.16 -3.73869 -2.43183 0
M  V30 8468 C 799.861 -5.61895 -1.50494 0
M  V30 8469 N 798.837 -5.0648 -1.97431 0
M  V30 8470 H 802.639 -2.869 -0.637623 0
M  V30 8471 H 800.153 -1.6041 -0.253427 0
M  V30 8472 H 802.15 -2.78671 -3.10077 0
M  V30 8473 H 800.81 -1.65016 -2.79642 0
M  V30 8474 H 801.821 -5.01967 -1.27474 0
M  V30 8475 H 798.498 -3.00977 -2.89342 0
M  V30 8476 H 799.888 -6.62918 -1.09494 0
M  V30 8477 N 802.608 0.318715 -1.54344 0
M  V30 8478 C 803.848 1.06425 -1.74508 0
M  V30 8479 C 804.212 1.85087 -0.510572 0
M  V30 8480 O 805.413 2.62253 -0.589647 0
M  V30 8481 C 803.684 1.96054 -2.98827 0
M  V30 8482 S 805.243 2.77493 -3.39916 0
M  V30 8483 H 802.061 0.35921 -0.613587 0
M  V30 8484 H 804.663 0.339679 -1.92526 0
M  V30 8485 H 803.367 1.37109 -3.8682 0
M  V30 8486 H 802.898 2.72908 -2.83346 0
M  V30 8487 H 804.913 3.98544 -2.95596 0
M  V30 8488 N 804.086 1.46499 0.581025 0
M  V30 8489 C 805.049 1.5677 1.672 0
M  V30 8490 C 806.049 0.444716 1.54528 0
M  V30 8491 O 807.239 0.709074 1.59116 0
M  V30 8492 C 804.371 1.4896 3.06633 0
M  V30 8493 H 805.564 2.54 1.5945 0
M  V30 8494 H 803.117 1.34334 0.799003 0
M  V30 8495 H 803.852 0.530168 3.19937 0
M  V30 8496 H 803.637 2.30439 3.17239 0
M  V30 8497 H 805.127 1.59237 3.86048 0
M  V30 8498 N 805.565 -0.825799 1.34232 0
M  V30 8499 C 806.842 -1.56741 1.17011 0
M  V30 8500 C 807.222 -2.09512 -0.258425 0
M  V30 8501 O 806.57 -1.90664 -1.25935 0
M  V30 8502 C 806.78 -2.69104 2.22225 0
M  V30 8503 C 808.128 -3.37947 2.57055 0
M  V30 8504 O 809.152 -2.79358 2.20992 0
M  V30 8505 O 808.011 -4.43743 3.1899 0
M  V30 8506 H 805.105 -0.69163 0.453405 0
M  V30 8507 H 807.651 -0.867422 1.45856 0
M  V30 8508 H 806.423 -2.27844 3.18124 0
M  V30 8509 H 806.046 -3.46756 1.94541 0
M  V30 8510 N 807.043 -1.17915 -1.04565 0
M  V30 8511 C 807.973 -0.925033 -2.14395 0
M  V30 8512 C 808.954 0.135375 -1.6956 0
M  V30 8513 O 810.139 -0.0161774 -1.94193 0
M  V30 8514 C 807.269 -0.444469 -3.44444 0
M  V30 8515 C 806.223 -1.44478 -4.02877 0
M  V30 8516 C 805.549 -0.821933 -5.28345 0
M  V30 8517 C 806.849 -2.81995 -4.39632 0
M  V30 8518 H 808.543 -1.84354 -2.35911 0
M  V30 8519 H 806.089 -0.887806 -1.13375 0
M  V30 8520 H 808.042 -0.254078 -4.20633 0
M  V30 8521 H 806.766 0.509592 -3.226 0
M  V30 8522 H 805.425 -1.62203 -3.28764 0
M  V30 8523 H 805.073 0.139161 -5.02807 0
M  V30 8524 H 804.773 -1.48976 -5.68401 0
M  V30 8525 H 806.297 -0.641959 -6.07216 0
M  V30 8526 H 807.711 -2.67952 -5.06828 0
M  V30 8527 H 806.108 -3.45414 -4.90723 0
M  V30 8528 H 807.178 -3.35927 -3.49687 0
M  V30 8529 N 808.521 1.23394 -0.980386 0
M  V30 8530 C 809.746 1.96384 -0.666935 0
M  V30 8531 C 810.171 1.72087 0.759456 0
M  V30 8532 O 809.529 0.992328 1.51732 0
M  V30 8533 C 809.577 3.47499 -0.963177 0
M  V30 8534 O 808.681 4.12363 -0.0552051 0
M  V30 8535 H 808.022 0.614797 -0.250839 0
M  V30 8536 H 810.552 1.56831 -1.31398 0
M  V30 8537 H 810.562 3.97953 -0.899877 0
M  V30 8538 H 809.237 3.6451 -2.00264 0
M  V30 8539 H 807.814 3.72499 -0.172914 0
M  V30 8540 N 809.999 0.752036 1.385 0
M  V30 8541 C 810.947 0.112634 2.32327 0
M  V30 8542 C 811.941 -0.707037 1.53939 0
M  V30 8543 O 813.147 -0.606309 1.69481 0
M  V30 8544 H 809.522 0.0176275 0.751793 0
M  V30 8545 H 811.493 0.920074 2.83861 0
M  V30 8546 C 810.242 -0.767458 3.39124 0
M  V30 8547 H 809.565 -0.146122 3.99533 0
M  V30 8548 H 811.005 -1.18216 4.07187 0
M  V30 8549 C 809.464 -1.90938 2.77568 0
M  V30 8550 O 809.994 -3.00342 2.66754 0
M  V30 8551 N 808.2 -1.70396 2.35401 0
M  V30 8552 H 807.747 -0.81413 2.44397 0
M  V30 8553 H 807.705 -2.46972 1.94557 0
M  V30 8554 N 811.477 -1.49425 0.500989 0
M  V30 8555 C 812.888 -1.86624 0.0532011 0
M  V30 8556 C 813.239 -1.41331 -1.36088 0
M  V30 8557 O 812.364 -0.791195 -2.01418 0
M  V30 8558 C 812.959 -3.38681 0.0897693 0
M  V30 8559 C 811.518 -3.75181 -0.302677 0
M  V30 8560 C 810.665 -2.73419 0.462307 0
M  V30 8561 H 813.616 -1.41743 0.713773 0
M  V30 8562 H 813.637 -3.73902 -0.705528 0
M  V30 8563 H 813.149 -3.71616 1.11907 0
M  V30 8564 H 811.25 -3.47855 -1.33521 0
M  V30 8565 H 811.363 -4.79097 0.0167653 0
M  V30 8566 H 809.727 -2.54548 -0.0878557 0
M  V30 8567 H 810.51 -3.09198 1.49169 0
M  V30 8568 N 812.955 -0.234822 -1.55841 0
M  V30 8569 C 814.183 0.397745 -2.03041 0
M  V30 8570 C 814.598 1.52405 -1.11437 0
M  V30 8571 O 813.955 1.82061 -0.126466 0
M  V30 8572 C 814.006 0.916919 -3.49678 0
M  V30 8573 O 813.727 -0.164493 -4.37791 0
M  V30 8574 C 815.228 1.62139 -4.12584 0
M  V30 8575 H 812.448 0.0959214 -0.664108 0
M  V30 8576 H 814.992 -0.355156 -2.01392 0
M  V30 8577 H 813.147 1.62004 -3.519 0
M  V30 8578 H 813.561 0.227794 -5.24005 0
M  V30 8579 H 815.035 1.93651 -5.16917 0
M  V30 8580 H 815.512 2.53918 -3.58361 0
M  V30 8581 H 816.118 0.963145 -4.14251 0
M  V30 8582 N 814.433 1.57553 0.0384317 0
M  V30 8583 C 815.38 2.05942 1.04194 0
M  V30 8584 C 816.35 0.946637 1.36484 0
M  V30 8585 O 817.535 1.21658 1.46983 0
M  V30 8586 C 814.675 2.53588 2.34066 0
M  V30 8587 C 813.788 3.7862 2.08017 0
M  V30 8588 C 812.923 4.14915 3.31692 0
M  V30 8589 C 811.962 5.32891 3.01155 0
M  V30 8590 N 811.099 5.64662 4.17254 0
M  V30 8591 H 815.939 2.91429 0.622341 0
M  V30 8592 H 813.476 1.44098 0.295684 0
M  V30 8593 H 815.434 2.79276 3.09937 0
M  V30 8594 H 814.064 1.71031 2.73767 0
M  V30 8595 H 813.116 3.60073 1.22686 0
M  V30 8596 H 814.428 4.64613 1.81484 0
M  V30 8597 H 813.582 4.41681 4.15936 0
M  V30 8598 H 812.321 3.27555 3.6133 0
M  V30 8599 H 811.326 5.05887 2.15311 0
M  V30 8600 H 812.551 6.21896 2.72804 0
M  V30 8601 H 810.497 4.80261 4.46861 0
M  V30 8602 H 810.414 6.45145 3.94112 0
M  V30 8603 H 811.682 5.96 5.02399 0
M  V30 8604 N 815.911 -0.310526 1.54511 0
M  V30 8605 C 817.322 -0.884142 1.64438 0
M  V30 8606 C 817.673 -1.88425 0.546855 0
M  V30 8607 O 816.798 -2.14049 -0.31811 0
M  V30 8608 C 817.393 -1.6104 2.9808 0
M  V30 8609 C 815.952 -2.13255 3.1016 0
M  V30 8610 C 815.099 -0.96213 2.60074 0
M  V30 8611 H 818.05 -0.0877666 1.58457 0
M  V30 8612 H 818.071 -2.47541 2.8897 0
M  V30 8613 H 817.583 -0.882255 3.77939 0
M  V30 8614 H 815.684 -2.89145 2.35002 0
M  V30 8615 H 815.797 -2.37361 4.16169 0
M  V30 8616 H 814.161 -1.34501 2.16291 0
M  V30 8617 H 814.944 -0.248098 3.42402 0
M  V30 8618 N 817.389 -1.46805 -0.573248 0
M  V30 8619 C 818.319 -1.60951 -1.69165 0
M  V30 8620 C 819.3 -0.45948 -1.63777 0
M  V30 8621 O 820.485 -0.68688 -1.81647 0
M  V30 8622 C 817.615 -1.60844 -3.07809 0
M  V30 8623 C 816.569 -2.74913 -3.28035 0
M  V30 8624 C 815.895 -2.59871 -4.67302 0
M  V30 8625 C 817.195 -4.16654 -3.14955 0
M  V30 8626 H 818.889 -2.54574 -1.57582 0
M  V30 8627 H 816.435 -1.22516 -0.756686 0
M  V30 8628 H 818.388 -1.69334 -3.85881 0
M  V30 8629 H 817.112 -0.637714 -3.20314 0
M  V30 8630 H 815.771 -2.65908 -2.52366 0
M  V30 8631 H 815.419 -1.60861 -4.76585 0
M  V30 8632 H 815.119 -3.36386 -4.81786 0
M  V30 8633 H 816.643 -2.70265 -5.4753 0
M  V30 8634 H 818.057 -4.26721 -3.82861 0
M  V30 8635 H 816.454 -4.93831 -3.40956 0
M  V30 8636 H 817.524 -4.36146 -2.11908 0
M  V30 8637 N 818.867 0.818669 -1.34668 0
M  V30 8638 C 820.278 1.39177 -1.24446 0
M  V30 8639 C 820.629 1.9578 0.128268 0
M  V30 8640 O 819.754 1.90382 1.02877 0
M  V30 8641 C 820.349 2.53012 -2.25323 0
M  V30 8642 C 818.908 3.06218 -2.18878 0
M  V30 8643 C 818.055 1.79112 -2.11694 0
M  V30 8644 H 821.006 0.622709 -1.45973 0
M  V30 8645 H 821.027 3.31226 -1.8727 0
M  V30 8646 H 820.539 2.11784 -3.25221 0
M  V30 8647 H 818.64 3.51939 -1.22351 0
M  V30 8648 H 818.753 3.65019 -3.10319 0
M  V30 8649 H 817.117 2.0018 -1.57481 0
M  V30 8650 H 817.9 1.40053 -3.13433 0
M  V30 8651 N 820.346 1.18468 1.03938 0
M  V30 8652 C 821.276 0.936389 2.13902 0
M  V30 8653 C 822.257 -0.126381 1.6963 0
M  V30 8654 O 823.442 0.0264757 1.94182 0
M  V30 8655 C 820.572 0.462729 3.44204 0
M  V30 8656 C 819.526 1.46613 4.02105 0
M  V30 8657 C 818.852 0.84994 5.27902 0
M  V30 8658 C 820.152 2.84323 4.3813 0
M  V30 8659 H 821.846 1.85602 2.3493 0
M  V30 8660 H 819.392 0.893806 1.12903 0
M  V30 8661 H 821.345 0.276382 4.20493 0
M  V30 8662 H 820.069 -0.492477 3.22866 0
M  V30 8663 H 818.728 1.63944 3.27899 0
M  V30 8664 H 818.376 -0.112493 5.02874 0
M  V30 8665 H 818.076 1.51988 5.67603 0
M  V30 8666 H 819.6 0.674152 6.06867 0
M  V30 8667 H 821.014 2.70636 5.054 0
M  V30 8668 H 819.411 3.48012 4.88884 0
M  V30 8669 H 820.481 3.37776 3.47901 0
M  V30 8670 N 821.824 -1.22873 0.986916 0
M  V30 8671 C 823.054 -1.95204 0.67668 0
M  V30 8672 C 823.462 -1.73193 -0.761641 0
M  V30 8673 O 822.805 -1.0243 -1.52492 0
M  V30 8674 C 822.867 -3.48173 0.895302 0
M  V30 8675 C 822.531 -3.93912 2.31695 0
M  V30 8676 C 823.528 -4.02064 3.29607 0
M  V30 8677 C 821.213 -4.26722 2.64978 0
M  V30 8678 C 823.207 -4.42391 4.58878 0
M  V30 8679 C 820.894 -4.66729 3.94471 0
M  V30 8680 C 821.892 -4.74531 4.91232 0
M  V30 8681 O 821.58 -5.13636 6.18412 0
M  V30 8682 H 821.312 -0.628105 0.24992 0
M  V30 8683 H 823.866 -1.5714 1.32274 0
M  V30 8684 H 822.096 -3.86223 0.192072 0
M  V30 8685 H 823.785 -4.01717 0.581233 0
M  V30 8686 H 824.551 -3.76912 3.05225 0
M  V30 8687 H 820.43 -4.19858 1.9037 0
M  V30 8688 H 823.974 -4.48395 5.34404 0
M  V30 8689 H 819.871 -4.91332 4.18645 0
M  V30 8690 H 820.639 -5.31728 6.2226 0
M  V30 8691 N 823.302 -0.75937 -1.38099 0
M  V30 8692 C 824.718 -0.437606 -1.53483 0
M  V30 8693 C 824.918 1.04849 -1.72072 0
M  V30 8694 O 823.974 1.83448 -1.73502 0
M  V30 8695 C 825.287 -1.24189 -2.73857 0
M  V30 8696 C 826.835 -1.23255 -2.8771 0
M  V30 8697 C 827.31 -2.01992 -4.11051 0
M  V30 8698 N 828.801 -1.99282 -4.1814 0
M  V30 8699 C 829.536 -2.56996 -5.12583 0
M  V30 8700 N 829.032 -3.23446 -6.12662 0
M  V30 8701 N 830.825 -2.46894 -5.04975 0
M  V30 8702 H 822.976 -1.72242 -1.24283 0
M  V30 8703 H 825.239 -0.730507 -0.604205 0
M  V30 8704 H 824.945 -2.29449 -2.66545 0
M  V30 8705 H 824.819 -0.862672 -3.67203 0
M  V30 8706 H 827.206 -0.187988 -2.94501 0
M  V30 8707 H 827.287 -1.65132 -1.95359 0
M  V30 8708 H 826.931 -3.06462 -4.05023 0
M  V30 8709 H 826.861 -1.57505 -5.02494 0
M  V30 8710 H 829.352 -1.50893 -3.46467 0
M  V30 8711 H 829.665 -3.6489 -6.81231 0
M  V30 8712 H 828.01 -3.27543 -6.12977 0
M  V30 8713 H 831.201 -1.94604 -4.25731 0
M  V30 8714 H 831.374 -2.92168 -5.78396 0
M  V30 8715 N 824.78 1.49157 -0.508906 0
M  V30 8716 C 825.712 2.272 0.302115 0
M  V30 8717 C 826.725 1.3407 0.923529 0
M  V30 8718 O 827.914 1.5929 0.805532 0
M  V30 8719 C 825.014 3.06736 1.44105 0
M  V30 8720 C 824.187 4.27497 0.925477 0
M  V30 8721 C 823.246 4.89014 1.94297 0
M  V30 8722 O 822.272 5.48851 1.50834 0
M  V30 8723 N 823.474 4.7937 3.2739 0
M  V30 8724 H 826.239 2.97443 -0.367115 0
M  V30 8725 H 823.8 1.58248 -0.341933 0
M  V30 8726 H 825.792 3.44763 2.11944 0
M  V30 8727 H 824.362 2.3905 2.0143 0
M  V30 8728 H 823.582 3.94135 0.0717301 0
M  V30 8729 H 824.87 5.05714 0.55955 0
M  V30 8730 H 824.268 4.31869 3.65384 0
M  V30 8731 H 822.825 5.21559 3.90922 0
M  V30 8732 N 826.258 0.243083 1.55714 0
M  V30 8733 C 827.504 -0.376428 1.99886 0
M  V30 8734 C 827.859 -1.55843 1.12831 0
M  V30 8735 O 827.152 -1.90724 0.182996 0
M  V30 8736 C 827.346 -0.839621 3.47398 0
M  V30 8737 C 827.175 0.295954 4.48725 0
M  V30 8738 C 825.945 0.769392 4.99408 0
M  V30 8739 C 828.143 1.12165 5.0192 0
M  V30 8740 N 826.125 1.87778 5.84477 0
M  V30 8741 C 827.496 2.07848 5.84123 0
M  V30 8742 C 829.551 1.15864 4.84231 0
M  V30 8743 C 828.254 3.06937 6.50524 0
M  V30 8744 C 830.28 2.13782 5.51409 0
M  V30 8745 C 829.642 3.08202 6.33396 0
M  V30 8746 H 825.741 -0.103809 0.775079 0
M  V30 8747 H 828.325 0.359788 1.91347 0
M  V30 8748 H 826.496 -1.54514 3.56343 0
M  V30 8749 H 828.228 -1.43376 3.78451 0
M  V30 8750 H 824.983 0.354201 4.72274 0
M  V30 8751 H 825.407 2.43462 6.31708 0
M  V30 8752 H 830.049 0.442532 4.20478 0
M  V30 8753 H 827.767 3.79499 7.13447 0
M  V30 8754 H 831.353 2.17345 5.39678 0
M  V30 8755 H 830.233 3.82732 6.8446 0
M  V30 8756 N 827.736 -1.57571 -0.0300757 0
M  V30 8757 C 828.964 -1.93485 -0.732891 0
M  V30 8758 C 829.379 -0.842758 -1.68947 0
M  V30 8759 O 828.736 0.180904 -1.81601 0
M  V30 8760 C 828.787 -3.29328 -1.49082 0
M  V30 8761 O 828.508 -4.34341 -0.572639 0
M  V30 8762 C 830.009 -3.79517 -2.29088 0
M  V30 8763 H 827.229 -0.638588 -0.206026 0
M  V30 8764 H 829.773 -2.04496 0.0120966 0
M  V30 8765 H 827.928 -3.19716 -2.1877 0
M  V30 8766 H 828.342 -5.12748 -1.10406 0
M  V30 8767 H 829.816 -4.77081 -2.77665 0
M  V30 8768 H 830.293 -3.10659 -3.10464 0
M  V30 8769 H 830.899 -3.92208 -1.64477 0
M  V30 8770 N 829.214 0.302327 -1.54673 0
M  V30 8771 C 830.491 1.05721 -1.64567 0
M  V30 8772 C 830.871 2.0526 -0.493108 0
M  V30 8773 O 830.219 2.22729 0.510315 0
M  V30 8774 C 830.429 1.74025 -3.02517 0
M  V30 8775 C 831.777 2.26271 -3.59286 0
M  V30 8776 O 832.801 1.8406 -3.0496 0
M  V30 8777 O 831.66 3.0361 -4.54404 0
M  V30 8778 H 828.754 0.488577 -0.667249 0
M  V30 8779 H 831.3 0.300521 -1.67018 0
M  V30 8780 H 830.072 1.0174 -3.77842 0
M  V30 8781 H 829.695 2.56454 -3.03838 0
M  V30 8782 N 830.692 1.47107 0.565454 0
M  V30 8783 C 832.108 1.32443 0.890566 0
M  V30 8784 C 832.308 0.308735 1.99121 0
M  V30 8785 O 831.364 -0.28265 2.50913 0
M  V30 8786 C 832.677 2.71548 1.2916 0
M  V30 8787 C 834.225 2.7977 1.40349 0
M  V30 8788 C 834.7 4.19497 1.83811 0
M  V30 8789 N 836.191 4.21998 1.90975 0
M  V30 8790 C 836.926 5.2702 2.25916 0
M  V30 8791 N 836.422 6.42353 2.59527 0
M  V30 8792 N 838.215 5.14393 2.26619 0
M  V30 8793 H 830.366 2.11786 -0.161328 0
M  V30 8794 H 832.629 0.947952 -0.00950631 0
M  V30 8795 H 832.335 3.47265 0.556753 0
M  V30 8796 H 832.209 3.02782 2.24951 0
M  V30 8797 H 834.596 2.0433 2.12916 0
M  V30 8798 H 834.677 2.522 0.427655 0
M  V30 8799 H 834.321 4.95439 1.11816 0
M  V30 8800 H 834.251 4.44486 2.82382 0
M  V30 8801 H 836.742 3.38791 1.6742 0
M  V30 8802 H 837.055 7.18252 2.85191 0
M  V30 8803 H 835.4 6.45687 2.57126 0
M  V30 8804 H 838.591 4.2332 1.99794 0
M  V30 8805 H 838.764 5.96349 2.5352 0
M  V30 8806 N 832.17 -0.811516 1.35101 0
M  V30 8807 C 833.419 -1.56343 1.27435 0
M  V30 8808 C 833.732 -1.95019 -0.150696 0
M  V30 8809 O 834.938 -2.6924 -0.349586 0
M  V30 8810 C 833.394 -2.82124 2.23459 0
M  V30 8811 C 833.002 -2.50706 3.71283 0
M  V30 8812 C 834.746 -3.60137 2.24726 0
M  V30 8813 C 832.653 -3.72748 4.59143 0
M  V30 8814 H 831.583 -0.58682 0.473453 0
M  V30 8815 H 834.234 -0.892465 1.60335 0
M  V30 8816 H 832.616 -3.50905 1.83525 0
M  V30 8817 H 833.79 -1.89962 4.19823 0
M  V30 8818 H 832.105 -1.85947 3.72576 0
M  V30 8819 H 834.702 -4.50775 2.87587 0
M  V30 8820 H 835.045 -3.97101 1.24965 0
M  V30 8821 H 835.578 -2.98311 2.63164 0
M  V30 8822 H 832.317 -3.40896 5.59884 0
M  V30 8823 H 831.837 -4.32735 4.15332 0
M  V30 8824 H 833.516 -4.40033 4.74321 0
M  V30 8825 N 833.648 -1.19017 -1.03309 0
M  V30 8826 C 834.581 -0.867457 -2.1107 0
M  V30 8827 C 835.559 0.173752 -1.61669 0
M  V30 8828 O 836.743 0.0510077 -1.88431 0
M  V30 8829 C 833.87 -0.297459 -3.37391 0
M  V30 8830 C 832.916 -1.31706 -4.05655 0
M  V30 8831 S 833.749 -2.87591 -4.51721 0
M  V30 8832 C 834.905 -2.32122 -5.81266 0
M  V30 8833 H 835.138 -1.78008 -2.38119 0
M  V30 8834 H 832.671 -1.01686 -1.16187 0
M  V30 8835 H 834.629 0.0248889 -4.10492 0
M  V30 8836 H 833.29 0.5934 -3.08444 0
M  V30 8837 H 832.483 -0.867264 -4.96482 0
M  V30 8838 H 832.085 -1.58603 -3.38705 0
M  V30 8839 H 834.377 -1.70855 -6.55603 0
M  V30 8840 H 835.32 -3.2128 -6.31019 0
M  V30 8841 H 835.728 -1.74858 -5.36736 0
M  V30 8842 N 835.127 1.22348 -0.993418 0
M  V30 8843 C 836.09 2.22522 -0.549251 0
M  V30 8844 C 837.09 1.56529 0.368164 0
M  V30 8845 O 838.28 1.73463 0.16005 0
M  V30 8846 C 835.412 3.40307 0.201037 0
M  V30 8847 H 836.605 2.63332 -1.43515 0
M  V30 8848 H 834.158 1.35407 -0.78068 0
M  V30 8849 H 834.893 3.0497 1.10289 0
M  V30 8850 H 834.678 3.8942 -0.457685 0
M  V30 8851 H 836.168 4.14597 0.499946 0
M  V30 8852 N 836.605 0.766683 1.37694 0
M  V30 8853 C 837.515 0.150158 2.34119 0
M  V30 8854 C 838.531 -0.685513 1.59927 0
M  V30 8855 O 839.707 -0.606616 1.92047 0
M  V30 8856 C 836.772 -0.722562 3.39087 0
M  V30 8857 C 835.833 0.128983 4.29106 0
M  V30 8858 C 835.066 -0.702178 5.29061 0
M  V30 8859 O 835.289 -1.93954 5.36412 0
M  V30 8860 O 834.223 -0.114056 6.01792 0
M  V30 8861 H 838.049 0.946829 2.88563 0
M  V30 8862 H 835.634 0.527765 1.39768 0
M  V30 8863 H 837.516 -1.22095 4.03325 0
M  V30 8864 H 836.191 -1.49751 2.86978 0
M  V30 8865 H 835.098 0.673612 3.67985 0
M  V30 8866 H 836.431 0.866892 4.84506 0
M  V30 8867 N 838.083 -1.48885 0.516809 0
M  V30 8868 C 839.33 -2.02488 -0.0220602 0
M  V30 8869 C 839.658 -1.39513 -1.35523 0
M  V30 8870 O 838.913 -0.52558 -1.8851 0
M  V30 8871 C 839.212 -3.56801 -0.206798 0
M  V30 8872 C 838.878 -4.38496 1.05035 0
M  V30 8873 C 837.54 -4.60538 1.39492 0
M  V30 8874 C 839.892 -4.85909 1.88525 0
M  V30 8875 C 837.22 -5.2724 2.57361 0
M  V30 8876 C 839.572 -5.53909 3.05561 0
M  V30 8877 C 838.236 -5.74193 3.4038 0
M  V30 8878 H 837.506 -0.740956 -0.00807238 0
M  V30 8879 H 840.153 -1.79014 0.680168 0
M  V30 8880 H 838.458 -3.79042 -0.991687 0
M  V30 8881 H 840.155 -3.95885 -0.638447 0
M  V30 8882 H 836.745 -4.2159 0.771984 0
M  V30 8883 H 840.929 -4.68694 1.63218 0
M  V30 8884 H 836.185 -5.41145 2.84556 0
M  V30 8885 H 840.359 -5.89619 3.7057 0
M  V30 8886 H 837.986 -6.25652 4.31814 0
M  V30 8887 N 839.561 -0.251338 -1.55583 0
M  V30 8888 C 840.808 0.372169 -1.99051 0
M  V30 8889 C 841.136 1.57623 -1.13953 0
M  V30 8890 O 840.391 1.94762 -0.191398 0
M  V30 8891 C 840.69 0.821186 -3.47838 0
M  V30 8892 C 840.356 -0.275608 -4.50057 0
M  V30 8893 C 839.018 -0.57683 -4.7773 0
M  V30 8894 C 841.37 -1.01585 -5.11204 0
M  V30 8895 C 838.698 -1.62229 -5.63825 0
M  V30 8896 C 841.05 -2.05087 -5.98433 0
M  V30 8897 C 839.714 -2.35869 -6.24437 0
M  V30 8898 H 838.984 0.136186 -0.728378 0
M  V30 8899 H 841.631 -0.360089 -1.88084 0
M  V30 8900 H 839.936 1.63272 -3.56159 0
M  V30 8901 H 841.633 1.31396 -3.78861 0
M  V30 8902 H 838.223 -0.030697 -4.28589 0
M  V30 8903 H 842.407 -0.79639 -4.89869 0
M  V30 8904 H 837.663 -1.86607 -5.82226 0
M  V30 8905 H 841.837 -2.62934 -6.44855 0
M  V30 8906 H 839.464 -3.17017 -6.90944 0
M  V30 8907 N 841.039 1.57585 0.0217189 0
M  V30 8908 C 841.971 2.03849 1.04777 0
M  V30 8909 C 842.984 0.952558 1.32023 0
M  V30 8910 O 844.173 1.22974 1.29381 0
M  V30 8911 C 841.273 2.40504 2.3877 0
M  V30 8912 C 840.446 3.71566 2.30775 0
M  V30 8913 C 839.505 3.95329 3.47277 0
M  V30 8914 O 838.531 4.66289 3.26441 0
M  V30 8915 N 839.733 3.41536 4.69397 0
M  V30 8916 H 842.498 2.92491 0.653395 0
M  V30 8917 H 840.059 1.60538 0.209527 0
M  V30 8918 H 842.051 2.53532 3.15442 0
M  V30 8919 H 840.621 1.57494 2.70027 0
M  V30 8920 H 839.841 3.68822 1.39155 0
M  V30 8921 H 841.129 4.5753 2.22584 0
M  V30 8922 H 840.527 2.84033 4.89226 0
M  V30 8923 H 839.084 3.59932 5.43408 0
M  V30 8924 N 842.517 -0.29412 1.54831 0
M  V30 8925 C 843.449 -1.38476 1.82639 0
M  V30 8926 C 844.462 -1.46517 0.709694 0
M  V30 8927 O 845.651 -1.48712 0.987269 0
M  V30 8928 C 842.751 -2.76791 1.95551 0
M  V30 8929 C 841.924 -2.91599 3.26019 0
M  V30 8930 C 840.983 -4.10456 3.29261 0
M  V30 8931 O 840.009 -4.02214 4.02756 0
M  V30 8932 N 841.211 -5.21422 2.55145 0
M  V30 8933 H 843.976 -1.14974 2.76769 0
M  V30 8934 H 841.537 -0.484206 1.5449 0
M  V30 8935 H 843.529 -3.5456 1.95113 0
M  V30 8936 H 842.099 -2.93209 1.08384 0
M  V30 8937 H 841.319 -2.00886 3.39173 0
M  V30 8938 H 842.607 -2.98409 4.12104 0
M  V30 8939 H 842.005 -5.31 1.95078 0
M  V30 8940 H 840.562 -5.97501 2.60454 0
M  V30 8941 N 843.995 -1.47404 -0.557645 0
M  V30 8942 C 845.243 -1.53703 -1.31224 0
M  V30 8943 C 845.564 -0.200742 -1.93964 0
M  V30 8944 O 844.834 0.775253 -1.79907 0
M  V30 8945 H 843.414 -0.566171 -0.487299 0
M  V30 8946 H 846.076 -1.83699 -0.651195 0
M  V30 8947 H 845.172 -2.30335 -2.10599 0
M  V30 8948 N 845.473 0.80434 -1.35529 0
M  V30 8949 C 846.75 1.5486 -1.1949 0
M  V30 8950 C 847.13 2.09897 0.22506 0
M  V30 8951 O 846.478 1.92643 1.22886 0
M  V30 8952 C 846.688 2.65535 -2.26478 0
M  V30 8953 C 848.036 3.33814 -2.62399 0
M  V30 8954 O 849.06 2.75807 -2.25409 0
M  V30 8955 O 847.919 4.38612 -3.26009 0
M  V30 8956 H 845.013 0.68433 -0.464351 0
M  V30 8957 H 847.559 0.844107 -1.47217 0
M  V30 8958 H 846.331 2.22754 -3.21709 0
M  V30 8959 H 845.954 3.43617 -2.00033 0
M  V30 8960 N 846.951 1.19563 1.02676 0
M  V30 8961 C 848.367 0.948304 1.28372 0
M  V30 8962 C 848.567 -0.378096 1.97921 0
M  V30 8963 O 847.623 -1.1091 2.26838 0
M  V30 8964 C 848.936 2.12381 2.12873 0
M  V30 8965 C 850.484 2.16366 2.26174 0
M  V30 8966 C 850.959 3.33374 3.14048 0
M  V30 8967 N 852.45 3.33323 3.21636 0
M  V30 8968 C 853.185 4.20504 3.89825 0
M  V30 8969 N 852.681 5.17845 4.60227 0
M  V30 8970 N 854.474 4.08375 3.86246 0
M  V30 8971 H 846.625 2.04899 0.559485 0
M  V30 8972 H 848.888 0.89606 0.309484 0
M  V30 8973 H 848.594 3.08383 1.69094 0
M  V30 8974 H 848.468 2.09621 3.1359 0
M  V30 8975 H 850.855 1.20933 2.69182 0
M  V30 8976 H 850.936 2.23179 1.25 0
M  V30 8977 H 850.58 4.29087 2.71747 0
M  V30 8978 H 850.51 3.23798 4.15286 0
M  V30 8979 H 853.001 2.62863 2.71498 0
M  V30 8980 H 853.314 5.80712 5.09896 0
M  V30 8981 H 851.659 5.21791 4.59085 0
M  V30 8982 H 854.85 3.31606 3.30386 0
M  V30 8983 H 855.023 4.76532 4.39114 0
M  V30 8984 N 848.429 -1.21819 0.999893 0
M  V30 8985 C 849.339 -2.27691 0.565159 0
M  V30 8986 C 850.355 -1.69587 -0.389398 0
M  V30 8987 O 851.531 -1.99786 -0.254499 0
M  V30 8988 C 848.596 -3.46537 -0.106432 0
M  V30 8989 C 847.657 -4.19932 0.891964 0
M  V30 8990 C 846.89 -5.33103 0.252327 0
M  V30 8991 O 847.113 -5.62398 -0.952103 0
M  V30 8992 O 846.047 -5.94184 0.960698 0
M  V30 8993 H 849.873 -2.67059 1.44613 0
M  V30 8994 H 847.458 -1.28119 0.768499 0
M  V30 8995 H 849.34 -4.18631 -0.482301 0
M  V30 8996 H 848.015 -3.09079 -0.961865 0
M  V30 8997 H 846.922 -3.5008 1.3189 0
M  V30 8998 H 848.255 -4.61287 1.71682 0
M  V30 8999 N 849.908 -0.773975 -1.37286 0
M  V30 9000 C 851.324 -0.45386 -1.53011 0
M  V30 9001 C 851.524 1.03018 -1.73175 0
M  V30 9002 O 850.58 1.81597 -1.75438 0
M  V30 9003 C 851.893 -1.27087 -2.72524 0
M  V30 9004 C 853.441 -1.26299 -2.86387 0
M  V30 9005 C 853.916 -2.0634 -4.08886 0
M  V30 9006 N 855.407 -2.03706 -4.16003 0
M  V30 9007 C 856.142 -2.62418 -5.09828 0
M  V30 9008 N 855.638 -3.29926 -6.09197 0
M  V30 9009 N 857.431 -2.52236 -5.02328 0
M  V30 9010 H 849.582 -1.73551 -1.22449 0
M  V30 9011 H 851.845 -0.736874 -0.596423 0
M  V30 9012 H 851.551 -2.32263 -2.64096 0
M  V30 9013 H 851.425 -0.90157 -3.66267 0
M  V30 9014 H 853.812 -0.219213 -2.94285 0
M  V30 9015 H 853.893 -1.67195 -1.93596 0
M  V30 9016 H 853.537 -3.10741 -4.01749 0
M  V30 9017 H 853.467 -1.62825 -5.00795 0
M  V30 9018 H 855.958 -1.54559 -3.44848 0
M  V30 9019 H 856.271 -3.72095 -6.77322 0
M  V30 9020 H 854.616 -3.34026 -6.09469 0
M  V30 9021 H 857.807 -1.99108 -4.23643 0
M  V30 9022 H 857.98 -2.98286 -5.75265 0
M  V30 9023 N 851.386 1.48609 -0.524698 0
M  V30 9024 C 852.296 2.33318 0.244923 0
M  V30 9025 C 853.312 1.46153 0.944214 0
M  V30 9026 O 854.488 1.79141 0.920347 0
M  V30 9027 C 851.553 3.22149 1.28144 0
M  V30 9028 C 850.614 4.25184 0.593068 0
M  V30 9029 C 849.847 5.0977 1.5802 0
M  V30 9030 O 850.07 4.96249 2.81235 0
M  V30 9031 O 849.004 5.9134 1.1225 0
M  V30 9032 H 852.83 3.00362 -0.449066 0
M  V30 9033 H 850.415 1.46643 -0.285689 0
M  V30 9034 H 852.297 3.77111 1.88057 0
M  V30 9035 H 850.972 2.57772 1.95793 0
M  V30 9036 H 849.879 3.74071 -0.0464214 0
M  V30 9037 H 851.212 4.92183 -0.0413893 0
M  V30 9038 N 852.864 0.259585 1.55447 0
M  V30 9039 C 854.089 -0.368317 2.04103 0
M  V30 9040 C 854.514 -1.49827 1.13725 0
M  V30 9041 O 853.872 -1.80814 0.132705 0
M  V30 9042 C 853.92 -0.841506 3.50644 0
M  V30 9043 O 853.024 -1.95008 3.63381 0
M  V30 9044 H 852.365 -0.0785227 0.659341 0
M  V30 9045 H 854.895 0.389349 2.00861 0
M  V30 9046 H 854.905 -1.14138 3.9171 0
M  V30 9047 H 853.58 -0.0147001 4.15897 0
M  V30 9048 H 852.157 -1.65393 3.34215 0
M  V30 9049 N 854.342 -1.57594 -0.0133615 0
M  V30 9050 C 855.59 -1.89605 -0.699596 0
M  V30 9051 C 855.911 -0.85926 -1.75048 0
M  V30 9052 O 855.181 0.105112 -1.95618 0
M  V30 9053 H 853.761 -0.699776 -0.261385 0
M  V30 9054 H 856.423 -1.94885 0.0244044 0
M  V30 9055 H 855.519 -2.88962 -1.17928 0
M  V30 9056 N 855.82 0.285905 -1.54985 0
M  V30 9057 C 856.75 1.35752 -1.89983 0
M  V30 9058 C 857.731 1.52163 -0.760295 0
M  V30 9059 O 858.916 1.65421 -1.01733 0
M  V30 9060 C 856.046 2.71925 -2.16042 0
M  V30 9061 C 855 2.70261 -3.31878 0
M  V30 9062 C 854.326 4.09864 -3.43388 0
M  V30 9063 C 855.626 2.30667 -4.68604 0
M  V30 9064 H 857.32 1.06709 -2.79738 0
M  V30 9065 H 854.866 0.511884 -1.34595 0
M  V30 9066 H 856.819 3.46992 -2.39113 0
M  V30 9067 H 855.543 3.02523 -1.23074 0
M  V30 9068 H 854.202 1.97651 -3.08755 0
M  V30 9069 H 853.85 4.37664 -2.47909 0
M  V30 9070 H 853.55 4.09648 -4.21262 0
M  V30 9071 H 855.074 4.86689 -3.68736 0
M  V30 9072 H 856.488 2.95453 -4.91305 0
M  V30 9073 H 854.885 2.41637 -5.49301 0
M  V30 9074 H 855.955 1.25793 -4.68299 0
M  V30 9075 N 857.298 1.47698 0.54982 0
M  V30 9076 C 858.575 1.45185 1.31075 0
M  V30 9077 C 858.955 0.152768 2.10547 0
M  V30 9078 O 858.303 -0.865706 2.11466 0
M  V30 9079 C 858.513 2.70192 2.20902 0
M  V30 9080 C 859.861 3.1771 2.81683 0
M  V30 9081 O 860.885 2.70971 2.312 0
M  V30 9082 O 859.744 3.98986 3.7346 0
M  V30 9083 H 856.838 0.57892 0.590577 0
M  V30 9084 H 859.384 1.59908 0.568112 0
M  V30 9085 H 858.156 3.56269 1.61828 0
M  V30 9086 H 857.779 2.58091 3.02448 0
M  V30 9087 N 858.776 -0.797141 1.35954 0
M  V30 9088 C 860.025 -1.54983 1.29086 0
M  V30 9089 C 860.338 -1.95167 -0.130003 0
M  V30 9090 O 861.544 -2.69596 -0.32101 0
M  V30 9091 C 860 -2.79738 2.26439 0
M  V30 9092 C 859.608 -2.46753 3.73921 0
M  V30 9093 C 861.352 -3.57733 2.28533 0
M  V30 9094 C 859.259 -3.67858 4.63071 0
M  V30 9095 H 858.189 -0.581766 0.479651 0
M  V30 9096 H 860.84 -0.87541 1.61273 0
M  V30 9097 H 859.222 -3.48939 1.87236 0
M  V30 9098 H 860.396 -1.85499 4.21814 0
M  V30 9099 H 858.711 -1.81985 3.74527 0
M  V30 9100 H 861.308 -4.47699 2.92351 0
M  V30 9101 H 861.651 -3.95754 1.29169 0
M  V30 9102 H 862.184 -2.95504 2.66313 0
M  V30 9103 H 858.923 -3.34939 5.63468 0
M  V30 9104 H 858.443 -4.28305 4.19898 0
M  V30 9105 H 860.122 -4.34977 4.78961 0
M  V30 9106 N 860.254 -1.20106 -1.0204 0
M  V30 9107 C 861.479 -1.0351 -1.79723 0
M  V30 9108 C 861.904 0.411328 -1.83548 0
M  V30 9109 O 861.262 1.29608 -1.26773 0
M  V30 9110 C 861.31 -1.61876 -3.22224 0
M  V30 9111 O 860.414 -0.853813 -4.03465 0
M  V30 9112 H 859.755 -0.365299 -0.554484 0
M  V30 9113 H 862.285 -1.59316 -1.28373 0
M  V30 9114 H 862.295 -1.65451 -3.72948 0
M  V30 9115 H 860.97 -2.67148 -3.18755 0
M  V30 9116 H 859.547 -0.891983 -3.62075 0
M  V30 9117 N 861.732 1.21287 -1.00634 0
M  V30 9118 C 863.143 1.72136 -0.722914 0
M  V30 9119 C 863.494 1.8091 0.759338 0
M  V30 9120 O 862.619 1.46458 1.59308 0
M  V30 9121 C 863.214 3.12633 -1.30561 0
M  V30 9122 C 861.773 3.60833 -1.07127 0
M  V30 9123 C 860.92 2.38326 -1.4176 0
M  V30 9124 H 863.871 1.06445 -1.17708 0
M  V30 9125 H 863.892 3.74174 -0.690937 0
M  V30 9126 H 863.404 3.06215 -2.38441 0
M  V30 9127 H 861.505 3.72599 -0.00968671 0
M  V30 9128 H 861.618 4.46226 -1.74411 0
M  V30 9129 H 859.982 2.40575 -0.836412 0
M  V30 9130 H 860.765 2.34558 -2.50674 0
M  V30 9131 N 863.21 0.781244 1.36873 0
M  V30 9132 C 864.143 0.120106 2.27884 0
M  V30 9133 C 865.121 -0.698961 1.4681 0
M  V30 9134 O 866.305 -0.671694 1.76126 0
M  V30 9135 C 863.432 -0.835804 3.28226 0
M  V30 9136 C 862.478 -0.0995527 4.26384 0
M  V30 9137 S 863.311 1.21903 5.2144 0
M  V30 9138 C 864.467 0.266904 6.25331 0
M  V30 9139 H 864.7 0.891796 2.83609 0
M  V30 9140 H 862.233 0.575075 1.43291 0
M  V30 9141 H 864.191 -1.3819 3.86541 0
M  V30 9142 H 862.852 -1.58068 2.71428 0
M  V30 9143 H 862.045 -0.82457 4.97209 0
M  V30 9144 H 861.647 0.375818 3.72107 0
M  V30 9145 H 863.939 -0.55725 6.75204 0
M  V30 9146 H 864.882 0.943603 7.01785 0
M  V30 9147 H 865.29 -0.126121 5.64359 0
M  V30 9148 N 864.689 -1.48329 0.532571 0
M  V30 9149 C 865.929 -2.044 0.00145618 0
M  V30 9150 C 866.293 -1.40053 -1.31336 0
M  V30 9151 O 867.494 -1.87026 -1.93066 0
M  V30 9152 C 865.765 -3.57214 -0.115376 0
M  V30 9153 S 867.324 -4.34731 -0.59618 0
M  V30 9154 H 864.142 -0.710876 0.0133038 0
M  V30 9155 H 866.744 -1.82006 0.71372 0
M  V30 9156 H 865.448 -4.01579 0.846335 0
M  V30 9157 H 864.979 -3.84065 -0.85194 0
M  V30 9158 H 866.994 -4.6001 -1.86025 0
M  V30 9159 N 866.167 -0.267825 -1.55308 0
M  V30 9160 C 867.444 0.402449 -1.91415 0
M  V30 9161 C 867.824 1.7428 -1.1912 0
M  V30 9162 O 867.172 2.2631 -0.315609 0
M  V30 9163 C 867.382 0.549926 -3.4464 0
M  V30 9164 C 868.73 0.836188 -4.16285 0
M  V30 9165 O 869.754 0.635009 -3.50494 0
M  V30 9166 O 868.613 1.22051 -5.32697 0
M  V30 9167 H 865.707 0.219177 -0.797427 0
M  V30 9168 H 868.253 -0.313439 -1.6678 0
M  V30 9169 H 867.025 -0.393641 -3.89315 0
M  V30 9170 H 866.648 1.31556 -3.75205 0
M  V30 9171 N 867.645 1.57599 0.00500368 0
M  V30 9172 C 868.592 2.08106 0.998025 0
M  V30 9173 C 869.562 0.975374 1.34446 0
M  V30 9174 O 870.747 1.24749 1.44369 0
M  V30 9175 C 867.887 2.58496 2.28635 0
M  V30 9176 C 867 3.82947 1.99939 0
M  V30 9177 C 866.135 4.21857 3.22816 0
M  V30 9178 C 865.174 5.39159 2.89783 0
M  V30 9179 N 864.311 5.73386 4.05183 0
M  V30 9180 H 869.151 2.92684 0.560385 0
M  V30 9181 H 866.688 1.44692 0.265053 0
M  V30 9182 H 868.646 2.85787 3.03943 0
M  V30 9183 H 867.276 1.768 2.70077 0
M  V30 9184 H 866.328 3.62594 1.1502 0
M  V30 9185 H 867.64 4.68358 1.71588 0
M  V30 9186 H 866.794 4.50404 4.06474 0
M  V30 9187 H 865.533 3.35145 3.54301 0
M  V30 9188 H 864.538 5.1034 2.04532 0
M  V30 9189 H 865.763 6.27543 2.59551 0
M  V30 9190 H 863.709 4.89632 4.36574 0
M  V30 9191 H 863.626 6.53359 3.80339 0
M  V30 9192 H 864.894 6.06522 4.89644 0
M  V30 9193 N 869.123 -0.277682 1.55134 0
M  V30 9194 C 870.073 -1.34531 1.8408 0
M  V30 9195 C 871.057 -1.44904 0.699393 0
M  V30 9196 O 872.249 -1.48664 0.960623 0
M  V30 9197 C 869.378 -2.7064 2.11208 0
M  V30 9198 C 868.464 -2.64396 3.31596 0
M  V30 9199 N 868.855 -2.2777 4.51613 0
M  V30 9200 C 867.153 -2.95464 3.34091 0
M  V30 9201 C 867.854 -2.31401 5.33693 0
M  V30 9202 N 866.83 -2.69688 4.71984 0
M  V30 9203 H 870.632 -1.05214 2.74421 0
M  V30 9204 H 868.146 -0.486311 1.54948 0
M  V30 9205 H 870.143 -3.47649 2.301 0
M  V30 9206 H 868.803 -3.00849 1.22148 0
M  V30 9207 H 869.814 -1.99827 4.77797 0
M  V30 9208 H 866.491 -3.30415 2.5521 0
M  V30 9209 H 867.881 -2.05685 6.39643 0
M  V30 9210 N 870.601 -1.47988 -0.541979 0
M  V30 9211 C 871.829 -1.59034 -1.32347 0
M  V30 9212 C 872.244 -0.246123 -1.87189 0
M  V30 9213 O 871.601 0.762889 -1.6579 0
M  V30 9214 C 871.652 -2.62759 -2.48274 0
M  V30 9215 O 871.373 -3.91963 -1.95695 0
M  V30 9216 C 872.874 -2.84133 -3.4027 0
M  V30 9217 H 870.094 -0.536574 -0.402901 0
M  V30 9218 H 872.638 -1.93725 -0.655045 0
M  V30 9219 H 870.793 -2.3096 -3.11025 0
M  V30 9220 H 871.207 -4.48769 -2.7149 0
M  V30 9221 H 872.681 -3.60538 -4.17991 0
M  V30 9222 H 873.158 -1.92512 -3.9476 0
M  V30 9223 H 873.764 -3.17188 -2.83322 0
M  V30 9224 N 872.079 0.78992 -1.36375 0
M  V30 9225 C 873.042 1.88414 -1.30509 0
M  V30 9226 C 874.042 1.59384 -0.2129 0
M  V30 9227 O 875.232 1.67805 -0.467651 0
M  V30 9228 C 872.364 3.25188 -1.02302 0
M  V30 9229 H 873.557 1.95031 -2.27822 0
M  V30 9230 H 871.11 0.987664 -1.2114 0
M  V30 9231 H 871.845 3.24254 -0.0544486 0
M  V30 9232 H 871.63 3.47647 -1.81338 0
M  V30 9233 H 873.12 4.05252 -1.00801 0
M  V30 9234 N 873.557 1.20646 1.01402 0
M  V30 9235 C 874.782 1.04462 1.79172 0
M  V30 9236 C 875.207 -0.401588 1.83763 0
M  V30 9237 O 874.565 -1.28934 1.27459 0
M  V30 9238 C 874.613 1.63583 3.21361 0
M  V30 9239 O 873.717 0.875198 4.03006 0
M  V30 9240 H 873.058 0.368235 0.552539 0
M  V30 9241 H 875.588 1.59994 1.27526 0
M  V30 9242 H 875.598 1.67426 3.72065 0
M  V30 9243 H 874.273 2.68835 3.17334 0
M  V30 9244 H 872.85 0.911172 3.61597 0
M  V30 9245 N 875.035 -1.20752 1.01276 0
M  V30 9246 C 876.281 -1.90302 0.700924 0
M  V30 9247 C 876.614 -1.78406 -0.767142 0
M  V30 9248 O 875.889 -1.16575 -1.55694 0
M  V30 9249 C 876.172 -3.41831 1.13242 0
M  V30 9250 C 876.025 -3.6268 2.66051 0
M  V30 9251 C 877.344 -4.34486 0.700738 0
M  V30 9252 H 874.463 -0.69107 0.256107 0
M  V30 9253 H 877.105 -1.42227 1.25982 0
M  V30 9254 H 875.255 -3.82906 0.656902 0
M  V30 9255 H 876.927 -3.30882 3.21426 0
M  V30 9256 H 875.17 -3.06281 3.07204 0
M  V30 9257 H 875.841 -4.68882 2.91296 0
M  V30 9258 H 878.317 -4.01036 1.10948 0
M  V30 9259 H 877.193 -5.39136 1.03073 0
M  V30 9260 H 877.454 -4.40307 -0.39778 0
M  V30 9261 N 876.513 -0.788492 -1.36457 0
M  V30 9262 C 877.423 -0.187385 -2.3385 0
M  V30 9263 C 878.439 0.659984 -1.60998 0
M  V30 9264 O 879.615 0.575986 -1.92988 0
M  V30 9265 C 876.68 0.668525 -3.40194 0
M  V30 9266 C 875.741 -0.197234 -4.28847 0
M  V30 9267 C 874.974 0.61792 -5.30111 0
M  V30 9268 O 875.197 1.85396 -5.3943 0
M  V30 9269 O 874.131 0.0183016 -6.01897 0
M  V30 9270 H 877.957 -0.992617 -2.87021 0
M  V30 9271 H 875.542 -0.549934 -1.3891 0
M  V30 9272 H 877.424 1.15663 -4.05216 0
M  V30 9273 H 876.099 1.45166 -2.89324 0
M  V30 9274 H 875.006 -0.73207 -3.66867 0
M  V30 9275 H 876.339 -0.943863 -4.83065 0
M  V30 9276 N 877.991 1.48044 -0.54043 0
M  V30 9277 C 878.938 2.29781 0.216597 0
M  V30 9278 C 879.908 1.38021 0.924094 0
M  V30 9279 O 881.093 1.66985 0.923078 0
M  V30 9280 C 878.233 3.21623 1.2511 0
M  V30 9281 C 877.346 4.28467 0.551384 0
M  V30 9282 C 876.481 5.07477 1.56972 0
M  V30 9283 C 875.52 6.06113 0.854048 0
M  V30 9284 N 874.657 6.78143 1.81842 0
M  V30 9285 H 879.497 2.94001 -0.486578 0
M  V30 9286 H 877.034 1.44929 -0.251789 0
M  V30 9287 H 878.992 3.73279 1.8633 0
M  V30 9288 H 877.622 2.59305 1.92252 0
M  V30 9289 H 876.674 3.79997 -0.174982 0
M  V30 9290 H 877.986 4.98799 -0.0100542 0
M  V30 9291 H 877.14 5.63199 2.25592 0
M  V30 9292 H 875.879 4.37008 2.16507 0
M  V30 9293 H 874.884 5.49585 0.153838 0
M  V30 9294 H 876.109 6.78584 0.264675 0
M  V30 9295 H 874.055 6.10417 2.40265 0
M  V30 9296 H 873.972 7.44587 1.3087 0
M  V30 9297 H 875.24 7.38448 2.49628 0
M  V30 9298 N 879.47 0.276058 1.55163 0
M  V30 9299 C 880.695 -0.346648 2.04483 0
M  V30 9300 C 881.12 -1.48613 1.15308 0
M  V30 9301 O 880.478 -1.80663 0.151875 0
M  V30 9302 C 880.526 -0.804268 3.51517 0
M  V30 9303 O 879.63 -1.91143 3.65429 0
M  V30 9304 H 878.971 -0.0715251 0.660136 0
M  V30 9305 H 881.501 0.410631 2.00437 0
M  V30 9306 H 881.511 -1.09977 3.92898 0
M  V30 9307 H 880.186 0.0294123 4.1589 0
M  V30 9308 H 878.763 -1.61839 3.3595 0
M  V30 9309 N 880.948 -1.576 0.00335426 0
M  V30 9310 C 881.88 -2.0549 -1.01521 0
M  V30 9311 C 882.893 -0.973441 -1.30491 0
M  V30 9312 O 884.082 -1.25017 -1.27409 0
M  V30 9313 C 881.182 -2.44272 -2.34914 0
M  V30 9314 C 880.355 -3.75191 -2.24835 0
M  V30 9315 C 879.414 -4.00804 -3.40944 0
M  V30 9316 O 878.44 -4.71423 -3.18981 0
M  V30 9317 N 879.642 -3.48961 -4.63904 0
M  V30 9318 H 882.407 -2.93493 -0.60678 0
M  V30 9319 H 879.968 -1.60851 -0.18396 0
M  V30 9320 H 881.96 -2.58518 -3.11369 0
M  V30 9321 H 880.53 -1.6177 -2.67487 0
M  V30 9322 H 879.75 -3.70989 -1.3327 0
M  V30 9323 H 881.038 -4.61013 -2.15277 0
M  V30 9324 H 880.436 -2.9178 -4.84645 0
M  V30 9325 H 878.993 -3.68531 -5.37613 0
M  V30 9326 N 882.426 0.269451 -1.5528 0
M  V30 9327 C 883.672 1.00206 -1.76314 0
M  V30 9328 C 884.005 1.85812 -0.564581 0
M  V30 9329 O 883.28 1.89509 0.437769 0
M  V30 9330 C 883.563 1.88163 -3.07029 0
M  V30 9331 C 883.416 1.05527 -4.37246 0
M  V30 9332 C 884.735 2.8681 -3.33808 0
M  V30 9333 H 881.854 0.36288 -0.641473 0
M  V30 9334 H 884.496 0.274188 -1.88011 0
M  V30 9335 H 882.646 2.50224 -2.97187 0
M  V30 9336 H 884.318 0.455094 -4.5905 0
M  V30 9337 H 882.561 0.358842 -4.32313 0
M  V30 9338 H 883.232 1.70397 -5.25042 0
M  V30 9339 H 885.708 2.34884 -3.43466 0
M  V30 9340 H 884.584 3.45492 -4.26528 0
M  V30 9341 H 884.845 3.62118 -2.5362 0
M  V30 9342 N 883.904 1.48273 0.534124 0
M  V30 9343 C 885.152 1.55771 1.28762 0
M  V30 9344 C 885.473 0.231575 1.9362 0
M  V30 9345 O 884.743 -0.746533 1.81118 0
M  V30 9346 H 883.323 0.573851 0.47823 0
M  V30 9347 H 885.985 1.84712 0.621888 0
M  V30 9348 H 885.081 2.33657 2.06908 0
M  V30 9349 N 885.382 -0.782676 1.36792 0
M  V30 9350 C 886.629 -1.54083 1.31395 0
M  V30 9351 C 886.957 -1.94217 -0.104797 0
M  V30 9352 O 886.212 -1.63491 -1.0756 0
M  V30 9353 C 886.511 -2.82542 2.18872 0
M  V30 9354 C 886.177 -2.61512 3.67317 0
M  V30 9355 C 884.839 -2.55486 4.07775 0
M  V30 9356 C 887.191 -2.42389 4.61407 0
M  V30 9357 C 884.519 -2.28311 5.40454 0
M  V30 9358 C 886.871 -2.1674 5.94312 0
M  V30 9359 C 885.535 -2.09151 6.33887 0
M  V30 9360 H 884.805 -0.563829 0.48081 0
M  V30 9361 H 887.452 -0.902436 1.68903 0
M  V30 9362 H 885.757 -3.50883 1.74323 0
M  V30 9363 H 887.454 -3.40367 2.12017 0
M  V30 9364 H 884.044 -2.67062 3.35225 0
M  V30 9365 H 888.228 -2.46043 4.31018 0
M  V30 9366 H 883.484 -2.20922 5.70091 0
M  V30 9367 H 887.658 -2.0094 6.6678 0
M  V30 9368 H 885.285 -1.87857 7.36623 0
M  V30 9369 N 886.86 -1.21182 -1.00761 0
M  V30 9370 C 888.109 -1.02166 -1.73911 0
M  V30 9371 C 888.422 0.445638 -1.90456 0
M  V30 9372 O 889.628 0.755132 -2.60787 0
M  V30 9373 C 888.084 -1.77936 -3.12837 0
M  V30 9374 C 887.692 -3.28819 -3.04273 0
M  V30 9375 C 889.436 -1.67319 -3.90134 0
M  V30 9376 C 887.343 -3.97089 -4.38262 0
M  V30 9377 H 886.273 -0.378665 -0.652019 0
M  V30 9378 H 888.924 -1.44891 -1.12601 0
M  V30 9379 H 887.306 -1.28003 -3.74742 0
M  V30 9380 H 888.48 -3.86035 -2.51622 0
M  V30 9381 H 886.795 -3.39949 -2.40465 0
M  V30 9382 H 889.392 -2.15659 -4.8928 0
M  V30 9383 H 889.735 -0.630959 -4.11491 0
M  V30 9384 H 890.268 -2.14716 -3.34876 0
M  V30 9385 H 887.007 -5.01503 -4.22107 0
M  V30 9386 H 886.527 -3.44662 -4.90885 0
M  V30 9387 H 888.206 -4.01854 -5.07072 0
M  V30 9388 N 888.338 1.20213 -1.01915 0
M  V30 9389 C 889.615 1.85348 -0.62495 0
M  V30 9390 C 889.995 1.91101 0.896854 0
M  V30 9391 O 889.343 1.42075 1.78961 0
M  V30 9392 C 889.553 3.24849 -1.27571 0
M  V30 9393 C 890.901 4.01107 -1.39277 0
M  V30 9394 O 891.925 3.34211 -1.23212 0
M  V30 9395 O 890.784 5.20914 -1.6526 0
M  V30 9396 H 887.878 0.798303 -0.215965 0
M  V30 9397 H 890.424 1.27782 -1.11669 0
M  V30 9398 H 889.196 3.1544 -2.31545 0
M  V30 9399 H 888.819 3.90049 -0.77122 0
M  V30 9400 N 889.816 0.795718 1.36037 0
M  V30 9401 C 891.046 0.382597 2.03026 0
M  V30 9402 C 891.454 -1.00779 1.60126 0
M  V30 9403 O 890.797 -1.65884 0.78919 0
M  V30 9404 C 890.859 0.374145 3.57548 0
M  V30 9405 C 890.523 1.71318 4.23673 0
M  V30 9406 C 891.52 2.6697 4.4612 0
M  V30 9407 C 889.205 1.99421 4.61017 0
M  V30 9408 C 891.199 3.88916 5.04998 0
M  V30 9409 C 888.886 3.21632 5.19611 0
M  V30 9410 C 889.884 4.16198 5.41542 0
M  V30 9411 O 889.572 5.36254 5.98905 0
M  V30 9412 H 889.304 0.154944 0.658003 0
M  V30 9413 H 891.858 1.07756 1.74865 0
M  V30 9414 H 890.088 -0.377349 3.84854 0
M  V30 9415 H 891.777 -0.01517 4.05897 0
M  V30 9416 H 892.543 2.46548 4.17659 0
M  V30 9417 H 888.422 1.2663 4.43267 0
M  V30 9418 H 891.966 4.6274 5.22032 0
M  V30 9419 H 887.863 3.4193 5.47498 0
M  V30 9420 H 888.631 5.37403 6.17366 0
M  V30 9421 N 891.294 -1.47756 0.548274 0
M  V30 9422 C 892.543 -2.01691 0.0187961 0
M  V30 9423 C 892.856 -1.42894 -1.33569 0
M  V30 9424 O 894.062 -1.88438 -1.95457 0
M  V30 9425 C 892.518 -3.59896 -0.016847 0
M  V30 9426 C 892.126 -4.27683 1.33385 0
M  V30 9427 C 893.87 -4.21614 -0.494188 0
M  V30 9428 C 891.777 -5.7787 1.2578 0
M  V30 9429 H 890.707 -0.753993 0.00325648 0
M  V30 9430 H 893.358 -1.69838 0.694792 0
M  V30 9431 H 891.74 -3.88672 -0.758304 0
M  V30 9432 H 892.914 -4.10559 2.09232 0
M  V30 9433 H 891.229 -3.77915 1.7484 0
M  V30 9434 H 893.826 -5.3166 -0.569342 0
M  V30 9435 H 894.169 -3.88176 -1.50417 0
M  V30 9436 H 894.702 -3.97336 0.192138 0
M  V30 9437 H 891.441 -6.15912 2.2435 0
M  V30 9438 H 890.961 -5.97355 0.540997 0
M  V30 9439 H 892.64 -6.39897 0.956109 0
M  V30 9440 N 892.772 -0.284283 -1.55015 0
M  V30 9441 C 893.735 0.586182 -2.21577 0
M  V30 9442 C 894.735 1.07427 -1.1965 0
M  V30 9443 O 895.925 0.972977 -1.44495 0
M  V30 9444 C 893.057 1.80973 -2.88897 0
M  V30 9445 H 894.25 0.00487253 -2.999 0
M  V30 9446 H 891.803 -0.0349696 -1.56261 0
M  V30 9447 H 892.538 2.43131 -2.14611 0
M  V30 9448 H 892.323 1.46757 -3.636 0
M  V30 9449 H 893.813 2.42853 -3.39724 0
M  V30 9450 N 894.251 1.57596 -0.0117121 0
M  V30 9451 C 895.201 2.05641 0.98467 0
M  V30 9452 C 896.185 0.953422 1.2961 0
M  V30 9453 O 897.377 1.21712 1.28512 0
M  V30 9454 C 894.506 2.57285 2.27286 0
M  V30 9455 C 893.592 3.74483 1.99057 0
M  V30 9456 N 893.983 4.85741 1.41029 0
M  V30 9457 C 892.281 3.82637 2.2914 0
M  V30 9458 C 892.982 5.67094 1.29536 0
M  V30 9459 N 891.958 5.13459 1.78497 0
M  V30 9460 H 895.76 2.89069 0.530702 0
M  V30 9461 H 893.274 1.6124 0.193717 0
M  V30 9462 H 895.271 2.89988 2.99521 0
M  V30 9463 H 893.931 1.75281 2.73325 0
M  V30 9464 H 894.942 5.06352 1.08756 0
M  V30 9465 H 891.619 3.11509 2.77972 0
M  V30 9466 H 893.009 6.66525 0.848144 0
M  V30 9467 N 895.729 -0.261212 1.5542 0
M  V30 9468 C 897.14 -0.83138 1.67167 0
M  V30 9469 C 897.491 -1.8659 0.606525 0
M  V30 9470 O 896.616 -2.14953 -0.24985 0
M  V30 9471 C 897.211 -1.51475 3.03052 0
M  V30 9472 C 895.77 -2.0328 3.16787 0
M  V30 9473 C 894.917 -0.878903 2.63003 0
M  V30 9474 H 897.868 -0.0373102 1.58656 0
M  V30 9475 H 897.889 -2.38222 2.96699 0
M  V30 9476 H 897.401 -0.76157 3.80554 0
M  V30 9477 H 895.502 -2.81523 2.44082 0
M  V30 9478 H 895.615 -2.24001 4.2351 0
M  V30 9479 H 893.979 -1.27551 2.2046 0
M  V30 9480 H 894.762 -0.13904 3.43018 0
M  V30 9481 N 897.207 -1.48554 -0.526253 0
M  V30 9482 C 898.137 -1.66252 -1.63959 0
M  V30 9483 C 899.118 -0.511351 -1.62232 0
M  V30 9484 O 900.303 -0.744322 -1.7937 0
M  V30 9485 C 897.433 -1.70556 -3.02536 0
M  V30 9486 C 896.387 -2.8521 -3.19123 0
M  V30 9487 C 895.713 -2.74606 -4.58798 0
M  V30 9488 C 897.013 -4.26463 -3.0154 0
M  V30 9489 H 898.707 -2.59459 -1.49404 0
M  V30 9490 H 896.253 -1.24862 -0.717326 0
M  V30 9491 H 898.206 -1.81524 -3.80298 0
M  V30 9492 H 896.93 -0.739297 -3.18123 0
M  V30 9493 H 895.589 -2.73802 -2.43779 0
M  V30 9494 H 895.237 -1.75941 -4.71226 0
M  V30 9495 H 894.937 -3.51544 -4.70841 0
M  V30 9496 H 896.461 -2.87548 -5.38655 0
M  V30 9497 H 897.875 -4.38685 -3.69091 0
M  V30 9498 H 896.272 -5.04428 -3.25073 0
M  V30 9499 H 897.342 -4.42667 -1.97925 0
M  V30 9500 N 898.685 0.775411 -1.37205 0
M  V30 9501 C 899.931 1.53533 -1.33414 0
M  V30 9502 C 900.286 1.92225 0.0819435 0
M  V30 9503 O 899.579 1.60935 1.03974 0
M  V30 9504 C 899.773 2.81377 -2.20367 0
M  V30 9505 C 899.602 2.5518 -3.70288 0
M  V30 9506 C 898.372 2.49493 -4.3941 0
M  V30 9507 C 900.57 2.23425 -4.63234 0
M  V30 9508 N 898.552 2.15341 -5.74892 0
M  V30 9509 C 899.923 1.99381 -5.87067 0
M  V30 9510 C 901.978 2.09549 -4.51657 0
M  V30 9511 C 900.681 1.62863 -7.0062 0
M  V30 9512 C 902.707 1.74431 -5.65091 0
M  V30 9513 C 902.069 1.51245 -6.87971 0
M  V30 9514 H 898.168 0.562278 -0.543477 0
M  V30 9515 H 900.752 0.90495 -1.72391 0
M  V30 9516 H 898.923 3.42259 -1.83612 0
M  V30 9517 H 900.655 3.4724 -2.07861 0
M  V30 9518 H 897.41 2.65221 -3.9237 0
M  V30 9519 H 897.834 2.00972 -6.46482 0
M  V30 9520 H 902.476 2.26159 -3.57228 0
M  V30 9521 H 900.194 1.44991 -7.94986 0
M  V30 9522 H 903.78 1.64359 -5.58102 0
M  V30 9523 H 902.66 1.24472 -7.74259 0
M  V30 9524 N 900.163 1.21714 1.00117 0
M  V30 9525 C 901.073 0.99597 2.12409 0
M  V30 9526 C 902.089 -0.0531431 1.73919 0
M  V30 9527 O 903.265 0.137757 2.00928 0
M  V30 9528 C 900.33 0.567593 3.42022 0
M  V30 9529 C 899.391 1.68936 3.94663 0
M  V30 9530 C 898.624 1.28133 5.1809 0
M  V30 9531 O 898.847 0.156574 5.70185 0
M  V30 9532 O 897.781 2.0947 5.64275 0
M  V30 9533 H 901.607 1.93657 2.33946 0
M  V30 9534 H 899.192 1.00236 1.10784 0
M  V30 9535 H 901.074 0.338664 4.20037 0
M  V30 9536 H 899.749 -0.34424 3.21864 0
M  V30 9537 H 898.656 1.97274 3.17858 0
M  V30 9538 H 899.989 2.57876 4.19238 0
M  V30 9539 N 901.641 -1.19671 1.02551 0
M  V30 9540 C 902.869 -1.93233 0.739513 0
M  V30 9541 C 903.284 -1.75298 -0.701158 0
M  V30 9542 O 902.641 -1.07269 -1.47647 0
M  V30 9543 C 902.692 -3.45085 1.07697 0
M  V30 9544 O 902.413 -3.62441 2.46106 0
M  V30 9545 C 903.914 -4.35776 0.813298 0
M  V30 9546 H 901.134 -0.613905 0.270853 0
M  V30 9547 H 903.678 -1.51909 1.36909 0
M  V30 9548 H 901.833 -3.84255 0.492635 0
M  V30 9549 H 902.247 -4.56337 2.58567 0
M  V30 9550 H 903.721 -5.40941 1.09941 0
M  V30 9551 H 904.198 -4.38474 -0.252359 0
M  V30 9552 H 904.804 -4.02282 1.38021 0
M  V30 9553 N 903.119 -0.802921 -1.35613 0
M  V30 9554 C 904.365 -0.391259 -1.99601 0
M  V30 9555 C 904.72 1.02922 -1.62557 0
M  V30 9556 O 904.013 1.70357 -0.876878 0
M  V30 9557 C 904.207 -0.507806 -3.53774 0
M  V30 9558 C 904.036 -1.93807 -4.05794 0
M  V30 9559 C 902.806 -2.56564 -4.3532 0
M  V30 9560 C 905.004 -2.90211 -4.24596 0
M  V30 9561 N 902.986 -3.91038 -4.73247 0
M  V30 9562 C 904.357 -4.09548 -4.65479 0
M  V30 9563 C 906.412 -2.87091 -4.06796 0
M  V30 9564 C 905.115 -5.26191 -4.90424 0
M  V30 9565 C 907.141 -4.02933 -4.32896 0
M  V30 9566 C 906.503 -5.21017 -4.74047 0
M  V30 9567 H 902.602 -0.190867 -0.758349 0
M  V30 9568 H 905.186 -1.04338 -1.64382 0
M  V30 9569 H 903.357 0.114306 -3.88232 0
M  V30 9570 H 905.089 -0.0710855 -4.04638 0
M  V30 9571 H 901.844 -2.07945 -4.25507 0
M  V30 9572 H 902.268 -4.60262 -4.96475 0
M  V30 9573 H 906.91 -1.96951 -3.74126 0
M  V30 9574 H 904.628 -6.16906 -5.2197 0
M  V30 9575 H 908.214 -4.01895 -4.2068 0
M  V30 9576 H 907.094 -6.09165 -4.93849 0
M  V30 9577 N 904.597 1.47463 -0.556102 0
M  V30 9578 C 905.56 2.28478 0.181743 0
M  V30 9579 C 906.56 1.36886 0.843738 0
M  V30 9580 O 907.75 1.59527 0.69977 0
M  V30 9581 C 904.882 3.16534 1.26566 0
M  V30 9582 H 906.075 2.95182 -0.529892 0
M  V30 9583 H 903.628 1.53134 -0.313005 0
M  V30 9584 H 904.363 2.5452 2.00973 0
M  V30 9585 H 904.148 3.83939 0.795798 0
M  V30 9586 H 905.638 3.77579 1.78393 0
M  V30 9587 N 906.075 0.2925 1.54862 0
M  V30 9588 C 907.352 -0.371946 1.92031 0
M  V30 9589 C 907.732 -1.72363 1.21878 0
M  V30 9590 O 907.08 -2.25779 0.351573 0
M  V30 9591 C 907.29 -0.495027 3.45471 0
M  V30 9592 C 908.638 -0.769855 4.17562 0
M  V30 9593 O 909.662 -0.579168 3.5146 0
M  V30 9594 O 908.521 -1.13561 5.34571 0
M  V30 9595 H 905.615 -0.206463 0.800813 0
M  V30 9596 H 908.161 0.339933 1.6626 0
M  V30 9597 H 906.933 0.455528 3.88639 0
M  V30 9598 H 906.556 -1.2557 3.7725 0
M  V30 9599 N 907.553 -1.57587 0.0200696 0
M  V30 9600 C 908.483 -2.12702 -0.963333 0
M  V30 9601 C 909.464 -1.04094 -1.34531 0
M  V30 9602 O 910.649 -1.31881 -1.42552 0
M  V30 9603 C 907.779 -2.64673 -2.24868 0
M  V30 9604 C 906.733 -3.77987 -2.00772 0
M  V30 9605 C 906.059 -4.16351 -3.35494 0
M  V30 9606 C 907.359 -5.0444 -1.35416 0
M  V30 9607 H 909.053 -2.95121 -0.504363 0
M  V30 9608 H 906.599 -1.41966 -0.24116 0
M  V30 9609 H 908.552 -3.01862 -2.94036 0
M  V30 9610 H 907.276 -1.79403 -2.72914 0
M  V30 9611 H 905.935 -3.41223 -1.34025 0
M  V30 9612 H 905.583 -3.28075 -3.81282 0
M  V30 9613 H 905.283 -4.92705 -3.20181 0
M  V30 9614 H 906.807 -4.56115 -4.05945 0
M  V30 9615 H 908.221 -5.39273 -1.94571 0
M  V30 9616 H 906.618 -5.85732 -1.30529 0
M  V30 9617 H 907.688 -4.83803 -0.325923 0
M  V30 9618 N 909.032 0.252966 -1.55557 0
M  V30 9619 C 910.278 0.983306 -1.77367 0
M  V30 9620 C 910.611 1.85203 -0.584258 0
M  V30 9621 O 909.886 1.89963 0.417644 0
M  V30 9622 C 910.169 1.84896 -3.09007 0
M  V30 9623 C 910.022 1.00883 -4.38341 0
M  V30 9624 C 911.341 2.83254 -3.36831 0
M  V30 9625 H 908.46 0.356056 -0.645286 0
M  V30 9626 H 911.102 0.254232 -1.88291 0
M  V30 9627 H 909.252 2.47058 -2.99825 0
M  V30 9628 H 910.924 0.40638 -4.59507 0
M  V30 9629 H 909.167 0.31297 -4.3267 0
M  V30 9630 H 909.838 1.64818 -5.2682 0
M  V30 9631 H 912.314 2.31228 -3.45937 0
M  V30 9632 H 911.19 3.40949 -4.30169 0
M  V30 9633 H 911.451 3.59407 -2.57447 0
M  V30 9634 N 910.51 1.48831 0.518367 0
M  V30 9635 C 911.46 1.60614 1.61824 0
M  V30 9636 C 912.444 0.462631 1.54106 0
M  V30 9637 O 913.636 0.714689 1.6193 0
M  V30 9638 C 910.765 1.65984 3.00507 0
M  V30 9639 C 909.851 2.85854 3.13286 0
M  V30 9640 N 910.242 4.1014 2.96005 0
M  V30 9641 C 908.54 2.83429 3.4436 0
M  V30 9642 C 909.241 4.90626 3.12508 0
M  V30 9643 N 908.217 4.2366 3.40607 0
M  V30 9644 H 912.019 2.54443 1.47091 0
M  V30 9645 H 909.533 1.45363 0.724102 0
M  V30 9646 H 911.53 1.72521 3.79529 0
M  V30 9647 H 910.19 0.732792 3.16323 0
M  V30 9648 H 911.201 4.40395 2.72531 0
M  V30 9649 H 907.878 2.0003 3.66462 0
M  V30 9650 H 909.268 5.99302 3.03786 0
M  V30 9651 N 911.988 -0.768124 1.37614 0
M  V30 9652 C 913.399 -1.34462 1.29525 0
M  V30 9653 C 913.75 -1.96121 -0.0555168 0
M  V30 9654 O 912.875 -1.94069 -0.957406 0
M  V30 9655 C 913.47 -2.44475 2.34558 0
M  V30 9656 C 912.029 -2.97883 2.30093 0
M  V30 9657 C 911.176 -1.71131 2.18196 0
M  V30 9658 H 914.127 -0.568103 1.48183 0
M  V30 9659 H 914.148 -3.24047 1.99434 0
M  V30 9660 H 913.66 -1.99568 3.32858 0
M  V30 9661 H 911.761 -3.47156 1.35328 0
M  V30 9662 H 911.874 -3.53251 3.23652 0
M  V30 9663 H 910.238 -1.94197 1.64802 0
M  V30 9664 H 911.021 -1.28323 3.18415 0
M  V30 9665 N 913.466 -1.22244 -0.994698 0
M  V30 9666 C 914.743 -0.954459 -1.70732 0
M  V30 9667 C 915.123 0.530945 -2.04314 0
M  V30 9668 O 914.471 1.49851 -1.72502 0
M  V30 9669 C 914.681 -1.85016 -2.95922 0
M  V30 9670 C 916.029 -2.10517 -3.68738 0
M  V30 9671 O 917.053 -1.82449 -3.05926 0
M  V30 9672 O 915.912 -2.58044 -4.81742 0
M  V30 9673 H 913.006 -0.35879 -0.745116 0
M  V30 9674 H 915.552 -1.33221 -1.0512 0
M  V30 9675 H 914.324 -2.85498 -2.67594 0
M  V30 9676 H 913.947 -1.47388 -3.69273 0
M  V30 9677 N 914.944 1.19125 -1.03184 0
M  V30 9678 C 915.907 2.20662 -0.619766 0
M  V30 9679 C 916.907 1.57621 0.318179 0
M  V30 9680 O 918.097 1.73885 0.104783 0
M  V30 9681 C 915.229 3.40774 0.0926696 0
M  V30 9682 H 916.422 2.58633 -1.5182 0
M  V30 9683 H 913.975 1.32855 -0.823364 0
M  V30 9684 H 914.71 3.08324 1.00531 0
M  V30 9685 H 914.495 3.87766 -0.581344 0
M  V30 9686 H 915.985 4.15977 0.367792 0
M  V30 9687 N 916.422 0.810101 1.35185 0
M  V30 9688 C 917.354 0.180581 2.28488 0
M  V30 9689 C 918.367 -0.622154 1.50443 0
M  V30 9690 O 919.556 -0.453938 1.72632 0
M  V30 9691 C 916.656 -0.766447 3.30119 0
M  V30 9692 C 915.829 -0.00932028 4.37399 0
M  V30 9693 C 914.888 -0.875354 5.18868 0
M  V30 9694 O 913.914 -0.325012 5.68271 0
M  V30 9695 N 915.116 -2.19695 5.37321 0
M  V30 9696 H 917.881 0.98212 2.83151 0
M  V30 9697 H 915.442 0.665879 1.47573 0
M  V30 9698 H 917.434 -1.35012 3.81515 0
M  V30 9699 H 916.004 -1.46878 2.75945 0
M  V30 9700 H 915.224 0.755585 3.86891 0
M  V30 9701 H 916.512 0.512352 5.06214 0
M  V30 9702 H 915.91 -2.66797 4.98834 0
M  V30 9703 H 914.467 -2.72978 5.91884 0
M  V30 9704 N 917.9 -1.47166 0.563914 0
M  V30 9705 C 919.177 -1.95586 -0.0236172 0
M  V30 9706 C 919.557 -1.50655 -1.47872 0
M  V30 9707 O 918.905 -0.748479 -2.15894 0
M  V30 9708 C 919.115 -3.48762 0.128841 0
M  V30 9709 C 920.463 -4.24598 -0.0130544 0
M  V30 9710 O 921.487 -3.56155 0.0567242 0
M  V30 9711 O 920.346 -5.46253 -0.164332 0
M  V30 9712 H 917.44 -0.824793 -0.0603789 0
M  V30 9713 H 919.986 -1.57536 0.63091 0
M  V30 9714 H 918.758 -3.74291 1.14113 0
M  V30 9715 H 918.381 -3.93594 -0.56299 0
M  V30 9716 N 919.378 -0.300708 -1.54705 0
M  V30 9717 C 920.308 0.568675 -2.26469 0
M  V30 9718 C 921.289 1.13817 -1.26411 0
M  V30 9719 O 922.474 1.16756 -1.55183 0
M  V30 9720 C 919.604 1.74077 -3.00524 0
M  V30 9721 C 918.558 1.30165 -4.07727 0
M  V30 9722 C 917.884 2.55888 -4.69495 0
M  V30 9723 C 919.184 0.433106 -5.20501 0
M  V30 9724 H 920.878 -0.0298851 -2.99385 0
M  V30 9725 H 918.424 -0.0158135 -1.43991 0
M  V30 9726 H 920.377 2.35506 -3.49449 0
M  V30 9727 H 919.101 2.36556 -2.25186 0
M  V30 9728 H 917.76 0.710414 -3.59651 0
M  V30 9729 H 917.408 3.16681 -3.90797 0
M  V30 9730 H 917.108 2.27207 -5.41895 0
M  V30 9731 H 918.632 3.18121 -5.21183 0
M  V30 9732 H 920.046 0.95307 -5.65322 0
M  V30 9733 H 918.443 0.240085 -5.9962 0
M  V30 9734 H 919.513 -0.541866 -4.81863 0
M  V30 9735 N 920.856 1.57574 -0.0284266 0
M  V30 9736 C 921.786 2.1321 0.952039 0
M  V30 9737 C 922.767 1.04806 1.33977 0
M  V30 9738 O 923.952 1.32635 1.41851 0
M  V30 9739 C 921.082 2.65862 2.23461 0
M  V30 9740 C 920.036 3.79047 1.98765 0
M  V30 9741 C 919.362 4.18124 3.33281 0
M  V30 9742 C 920.662 5.05151 1.32739 0
M  V30 9743 H 922.356 2.95385 0.488705 0
M  V30 9744 H 919.902 1.42092 0.233628 0
M  V30 9745 H 921.855 3.03417 2.92431 0
M  V30 9746 H 920.579 1.80848 2.71959 0
M  V30 9747 H 919.238 3.41929 1.32213 0
M  V30 9748 H 918.886 3.30092 3.79537 0
M  V30 9749 H 918.586 4.94396 3.17563 0
M  V30 9750 H 920.11 4.58262 4.0352 0
M  V30 9751 H 921.524 5.40297 1.91708 0
M  V30 9752 H 919.921 5.86416 1.27421 0
M  V30 9753 H 920.991 4.83969 0.300261 0
M  V30 9754 N 922.334 -0.244713 1.55689 0
M  V30 9755 C 923.611 -0.995407 1.68378 0
M  V30 9756 C 923.991 -2.03288 0.568949 0
M  V30 9757 O 923.339 -2.24469 -0.427299 0
M  V30 9758 C 923.549 -1.62678 3.08767 0
M  V30 9759 C 924.897 -2.1278 3.67437 0
M  V30 9760 O 925.921 -1.72614 3.11581 0
M  V30 9761 O 924.78 -2.86536 4.65359 0
M  V30 9762 H 921.874 -0.463476 0.684923 0
M  V30 9763 H 924.42 -0.238326 1.68018 0
M  V30 9764 H 923.192 -0.876469 3.81358 0
M  V30 9765 H 922.815 -2.45 3.13146 0
M  V30 9766 N 923.813 -1.49104 -0.510467 0
M  V30 9767 C 925.041 -1.61806 -1.28944 0
M  V30 9768 C 925.456 -0.285774 -1.86625 0
M  V30 9769 O 924.813 0.727551 -1.67371 0
M  V30 9770 C 924.864 -2.67966 -2.42645 0
M  V30 9771 O 924.585 -3.96026 -1.87337 0
M  V30 9772 C 926.086 -2.91286 -3.34166 0
M  V30 9773 H 923.306 -0.544999 -0.391429 0
M  V30 9774 H 925.85 -1.95071 -0.613805 0
M  V30 9775 H 924.005 -2.37505 -3.06056 0
M  V30 9776 H 924.419 -4.54427 -2.61909 0
M  V30 9777 H 925.893 -3.69323 -4.1025 0
M  V30 9778 H 926.37 -2.00842 -3.90588 0
M  V30 9779 H 926.976 -3.23127 -2.76531 0
M  V30 9780 N 925.291 0.760815 -1.38019 0
M  V30 9781 C 926.221 1.88811 -1.37377 0
M  V30 9782 C 927.202 1.68388 -0.240737 0
M  V30 9783 O 928.387 1.89086 -0.442739 0
M  V30 9784 C 925.517 3.26244 -1.1909 0
M  V30 9785 C 924.471 3.61254 -2.29521 0
M  V30 9786 C 923.797 4.97346 -1.96345 0
M  V30 9787 C 925.097 3.66874 -3.71753 0
M  V30 9788 H 926.791 1.89606 -2.31711 0
M  V30 9789 H 924.337 0.910818 -1.11535 0
M  V30 9790 H 926.29 4.04755 -1.17267 0
M  V30 9791 H 925.014 3.2591 -0.212152 0
M  V30 9792 H 923.673 2.85057 -2.30517 0
M  V30 9793 H 923.321 4.93564 -0.969728 0
M  V30 9794 H 923.021 5.21739 -2.703 0
M  V30 9795 H 924.545 5.78244 -1.96129 0
M  V30 9796 H 925.959 4.35514 -3.72828 0
M  V30 9797 H 924.356 4.02772 -4.44853 0
M  V30 9798 H 925.426 2.67273 -4.0459 0
M  V30 9799 N 926.769 1.22769 0.988202 0
M  V30 9800 C 927.679 1.01844 2.11341 0
M  V30 9801 C 928.695 -0.0346937 1.73965 0
M  V30 9802 O 929.871 0.159061 2.00771 0
M  V30 9803 C 926.936 0.603837 3.41401 0
M  V30 9804 C 925.997 1.73113 3.92849 0
M  V30 9805 C 925.23 1.33621 5.16702 0
M  V30 9806 O 925.453 0.217041 5.69987 0
M  V30 9807 O 924.387 2.15444 5.62021 0
M  V30 9808 H 928.213 1.96127 2.31879 0
M  V30 9809 H 925.798 1.01405 1.09715 0
M  V30 9810 H 927.68 0.383196 4.19654 0
M  V30 9811 H 926.355 -0.310082 3.22211 0
M  V30 9812 H 925.262 2.00634 3.15748 0
M  V30 9813 H 926.595 2.62308 4.1648 0
M  V30 9814 N 928.247 -1.18576 1.03814 0
M  V30 9815 C 929.524 -1.8433 0.654358 0
M  V30 9816 C 929.904 -1.92504 -0.866338 0
M  V30 9817 O 929.252 -1.44904 -1.76678 0
M  V30 9818 C 929.462 -3.22778 1.32723 0
M  V30 9819 C 930.81 -3.98841 1.45641 0
M  V30 9820 O 931.834 -3.32209 1.28514 0
M  V30 9821 O 930.693 -5.18219 1.73526 0
M  V30 9822 H 927.787 -0.794766 0.228638 0
M  V30 9823 H 930.333 -1.25989 1.13687 0
M  V30 9824 H 929.105 -3.11717 2.36534 0
M  V30 9825 H 928.728 -3.88772 0.833176 0
M  V30 9826 N 929.725 -0.817259 -1.34754 0
M  V30 9827 C 930.673 -0.223352 -2.31525 0
M  V30 9828 C 931.667 0.632785 -1.57137 0
M  V30 9829 O 932.873 0.524757 -1.72181 0
M  V30 9830 H 929.248 -0.0534765 -0.750096 0
M  V30 9831 H 931.219 -1.05446 -2.79148 0
M  V30 9832 C 929.968 0.604784 -3.424 0
M  V30 9833 H 929.291 -0.0446664 -3.99775 0
M  V30 9834 H 930.731 0.986543 -4.12363 0
M  V30 9835 C 929.19 1.77478 -2.86362 0
M  V30 9836 O 929.72 2.87273 -2.8078 0
M  V30 9837 N 927.926 1.58971 -2.43263 0
M  V30 9838 H 927.473 0.696598 -2.48003 0
M  V30 9839 H 927.431 2.37408 -2.06119 0
M  V30 9840 N 931.203 1.46865 -0.571711 0
M  V30 9841 C 932.619 1.57897 -0.23255 0
M  V30 9842 C 932.819 1.56836 1.26509 0
M  V30 9843 O 931.875 1.47947 2.04617 0
M  V30 9844 C 933.188 2.87778 -0.872036 0
M  V30 9845 C 934.736 3.01389 -0.844605 0
M  V30 9846 C 935.211 4.33991 -1.46343 0
M  V30 9847 N 936.702 4.40662 -1.42727 0
M  V30 9848 C 937.437 5.41858 -1.87557 0
M  V30 9849 N 936.933 6.49787 -2.4031 0
M  V30 9850 N 938.726 5.32992 -1.7854 0
M  V30 9851 H 930.877 1.45798 -1.54457 0
M  V30 9852 H 933.14 0.694785 -0.644964 0
M  V30 9853 H 932.846 2.94332 -1.92513 0
M  V30 9854 H 932.72 3.75345 -0.373677 0
M  V30 9855 H 935.107 2.94423 0.19984 0
M  V30 9856 H 935.188 2.15327 -1.38087 0
M  V30 9857 H 934.832 4.41714 -2.50701 0
M  V30 9858 H 934.762 5.18809 -0.902479 0
M  V30 9859 H 937.253 3.63263 -1.04155 0
M  V30 9860 H 937.566 7.23199 -2.72403 0
M  V30 9861 H 935.911 6.50637 -2.44329 0
M  V30 9862 H 939.102 4.47575 -1.37093 0
M  V30 9863 H 939.275 6.11716 -2.13794 0
M  V30 9864 N 932.681 0.308908 1.54543 0
M  V30 9865 C 933.591 -0.572939 2.27496 0
M  V30 9866 C 934.607 -1.14171 1.31305 0
M  V30 9867 O 935.783 -1.16481 1.64299 0
M  V30 9868 C 932.848 -1.72483 3.0075 0
M  V30 9869 C 931.909 -1.18934 4.12496 0
M  V30 9870 C 931.142 -2.28634 4.82247 0
M  V30 9871 O 931.365 -3.48691 4.5141 0
M  V30 9872 O 930.299 -1.94879 5.69478 0
M  V30 9873 H 934.125 0.0190877 3.03694 0
M  V30 9874 H 931.71 0.0750943 1.49211 0
M  V30 9875 H 933.592 -2.39578 3.46671 0
M  V30 9876 H 932.267 -2.30332 2.2744 0
M  V30 9877 H 931.174 -0.483904 3.70957 0
M  V30 9878 H 932.507 -0.656185 4.87806 0
M  V30 9879 N 934.159 -1.57557 0.0367827 0
M  V30 9880 C 935.405 -1.93224 -0.635306 0
M  V30 9881 C 935.76 -0.914194 -1.69293 0
M  V30 9882 O 935.053 0.0686974 -1.91477 0
M  V30 9883 C 935.247 -3.33387 -1.28794 0
M  V30 9884 C 935.076 -4.48731 -0.295055 0
M  V30 9885 C 933.846 -5.05185 0.10783 0
M  V30 9886 C 936.044 -5.12294 0.453749 0
M  V30 9887 N 934.026 -6.04054 1.09508 0
M  V30 9888 C 935.397 -6.06335 1.29452 0
M  V30 9889 C 937.452 -4.95244 0.513622 0
M  V30 9890 C 936.155 -6.85158 2.18977 0
M  V30 9891 C 938.181 -5.74682 1.39624 0
M  V30 9892 C 937.543 -6.68344 2.22477 0
M  V30 9893 H 933.642 -0.754772 -0.204555 0
M  V30 9894 H 936.226 -1.94413 0.105751 0
M  V30 9895 H 934.397 -3.33002 -1.9991 0
M  V30 9896 H 936.129 -3.56381 -1.91767 0
M  V30 9897 H 932.884 -4.7284 -0.268192 0
M  V30 9898 H 933.308 -6.5818 1.58518 0
M  V30 9899 H 937.95 -4.2265 -0.112699 0
M  V30 9900 H 935.668 -7.57052 2.82661 0
M  V30 9901 H 939.254 -5.6352 1.44696 0
M  V30 9902 H 938.134 -7.2874 2.89668 0
M  V30 9903 N 935.637 0.236453 -1.55816 0
M  V30 9904 C 936.867 0.978873 -1.81939 0
M  V30 9905 C 937.275 1.79041 -0.611647 0
M  V30 9906 O 936.618 1.78616 0.429172 0
M  V30 9907 C 936.68 1.9569 -3.01572 0
M  V30 9908 C 936.344 1.33131 -4.37178 0
M  V30 9909 C 937.341 0.728585 -5.1477 0
M  V30 9910 C 935.026 1.34755 -4.83887 0
M  V30 9911 C 937.02 0.150427 -6.37222 0
M  V30 9912 C 934.707 0.765539 -6.06286 0
M  V30 9913 C 935.705 0.168017 -6.82793 0
M  V30 9914 O 935.393 -0.404976 -8.02879 0
M  V30 9915 H 935.125 0.293186 -0.609113 0
M  V30 9916 H 937.679 0.261384 -2.0373 0
M  V30 9917 H 935.909 2.71298 -2.75562 0
M  V30 9918 H 937.598 2.56362 -3.14695 0
M  V30 9919 H 938.364 0.708477 -4.79797 0
M  V30 9920 H 934.243 1.80202 -4.24321 0
M  V30 9921 H 937.787 -0.316586 -6.96881 0
M  V30 9922 H 933.684 0.78301 -6.40733 0
M  V30 9923 H 934.452 -0.29785 -8.17958 0
M  V30 9924 N 937.115 1.49373 0.502552 0
M  V30 9925 C 938.047 1.62045 1.62093 0
M  V30 9926 C 939.06 0.503221 1.54827 0
M  V30 9927 O 940.249 0.775208 1.60788 0
M  V30 9928 C 937.349 1.55971 3.00876 0
M  V30 9929 C 936.522 2.832 3.33341 0
M  V30 9930 C 935.581 2.702 4.51529 0
M  V30 9931 O 934.607 3.44132 4.53389 0
M  V30 9932 N 935.809 1.81642 5.5135 0
M  V30 9933 H 938.574 2.58501 1.51649 0
M  V30 9934 H 936.135 1.46442 0.690396 0
M  V30 9935 H 938.127 1.4493 3.77859 0
M  V30 9936 H 936.697 0.673795 3.05252 0
M  V30 9937 H 935.917 3.08604 2.4527 0
M  V30 9938 H 937.205 3.67551 3.51829 0
M  V30 9939 H 936.603 1.20829 5.52645 0
M  V30 9940 H 935.16 1.76524 6.27441 0
M  V30 9941 N 938.594 -0.753485 1.38421 0
M  V30 9942 C 939.819 -1.54783 1.38047 0
M  V30 9943 C 940.244 -1.8808 -0.0276371 0
M  V30 9944 O 939.602 -1.5058 -1.00973 0
M  V30 9945 C 939.65 -2.82353 2.24297 0
M  V30 9946 O 938.754 -3.77509 1.66014 0
M  V30 9947 H 938.095 -0.468151 0.470883 0
M  V30 9948 H 940.625 -0.931144 1.82184 0
M  V30 9949 H 940.635 -3.31277 2.38159 0
M  V30 9950 H 939.31 -2.57449 3.26639 0
M  V30 9951 H 937.887 -3.36212 1.61294 0
M  V30 9952 N 940.072 -1.23292 -0.981677 0
M  V30 9953 C 941.019 -1.01296 -2.07383 0
M  V30 9954 C 941.989 0.069139 -1.65956 0
M  V30 9955 O 943.174 -0.0827108 -1.90621 0
M  V30 9956 C 940.314 -0.608876 -3.39686 0
M  V30 9957 C 939.427 -1.76296 -3.9439 0
M  V30 9958 C 938.562 -1.30578 -5.14901 0
M  V30 9959 C 937.601 -2.4307 -5.61768 0
M  V30 9960 N 936.738 -1.98319 -6.73509 0
M  V30 9961 H 941.578 -1.9478 -2.25532 0
M  V30 9962 H 939.115 -0.970356 -1.10555 0
M  V30 9963 H 941.073 -0.355702 -4.15681 0
M  V30 9964 H 939.703 0.288961 -3.21504 0
M  V30 9965 H 938.755 -2.13017 -3.15163 0
M  V30 9966 H 940.067 -2.60871 -4.25145 0
M  V30 9967 H 939.221 -1.01066 -5.98223 0
M  V30 9968 H 937.96 -0.430386 -4.85797 0
M  V30 9969 H 936.965 -2.73358 -4.77028 0
M  V30 9970 H 938.19 -3.31144 -5.92892 0
M  V30 9971 H 936.136 -1.13157 -6.46167 0
M  V30 9972 H 936.053 -2.76454 -7.0364 0
M  V30 9973 H 937.321 -1.71907 -7.60308 0
M  V30 9974 N 941.55 1.18024 -1.04442 0
M  V30 9975 C 942.799 1.8743 -0.745185 0
M  V30 9976 C 943.112 1.81459 0.730206 0
M  V30 9977 O 944.318 2.46263 1.1431 0
M  V30 9978 C 942.774 3.36266 -1.28271 0
M  V30 9979 C 942.382 3.50757 -2.787 0
M  V30 9980 C 944.126 4.11048 -1.06018 0
M  V30 9981 C 942.033 4.93573 -3.25791 0
M  V30 9982 H 940.963 0.702038 -0.27506 0
M  V30 9983 H 943.614 1.33333 -1.26073 0
M  V30 9984 H 941.996 3.89853 -0.695002 0
M  V30 9985 H 943.17 3.07423 -3.43261 0
M  V30 9986 H 941.485 2.89385 -2.99408 0
M  V30 9987 H 944.082 5.16395 -1.38711 0
M  V30 9988 H 944.425 4.163 0.00241716 0
M  V30 9989 H 944.958 3.63644 -1.61269 0
M  V30 9990 H 941.697 4.93491 -4.31447 0
M  V30 9991 H 941.217 5.37607 -2.65968 0
M  V30 9992 H 942.896 5.62307 -3.20031 0
M  V30 9993 N 943.028 0.824394 1.34319 0
M  V30 9994 C 944.439 0.471802 1.8064 0
M  V30 9995 C 944.79 -1.00793 1.6833 0
M  V30 9996 O 943.915 -1.78447 1.22416 0
M  V30 9997 C 944.51 0.849609 3.27974 0
M  V30 9998 C 943.069 0.549365 3.72369 0
M  V30 9999 C 942.216 1.06573 2.56003 0
M  V30 10000 H 945.167 1.01443 1.22045 0
M  V30 10001 H 945.188 0.153968 3.80188 0
M  V30 10002 H 944.7 1.92663 3.36902 0
M  V30 10003 H 942.801 -0.518182 3.68979 0
M  V30 10004 H 942.914 1.09446 4.66432 0
M  V30 10005 H 941.278 0.487214 2.49997 0
M  V30 10006 H 942.061 2.14923 2.677 0
M  V30 10007 N 944.506 -1.46559 0.579492 0
M  V30 10008 C 945.922 -1.57771 0.240921 0
M  V30 10009 C 946.122 -1.57505 -1.25676 0
M  V30 10010 O 945.178 -1.4903 -2.03829 0
M  V30 10011 C 946.491 -2.87311 0.887285 0
M  V30 10012 C 948.039 -3.00937 0.860576 0
M  V30 10013 C 948.514 -4.33208 1.48642 0
M  V30 10014 N 950.005 -4.39899 1.45062 0
M  V30 10015 C 950.74 -5.40856 1.90428 0
M  V30 10016 N 950.236 -6.48503 2.43752 0
M  V30 10017 N 952.029 -5.32037 1.81364 0
M  V30 10018 H 944.18 -1.44976 1.55228 0
M  V30 10019 H 946.443 -0.691354 0.648639 0
M  V30 10020 H 946.149 -2.93307 1.94071 0
M  V30 10021 H 946.023 -3.75141 0.393577 0
M  V30 10022 H 948.41 -2.94524 -0.184223 0
M  V30 10023 H 948.491 -2.14591 1.39227 0
M  V30 10024 H 948.135 -4.40378 2.5304 0
M  V30 10025 H 948.065 -5.18323 0.92998 0
M  V30 10026 H 950.556 -3.62706 1.0608 0
M  V30 10027 H 950.869 -7.21744 2.76234 0
M  V30 10028 H 949.214 -6.49332 2.47776 0
M  V30 10029 H 952.405 -4.46841 1.39465 0
M  V30 10030 H 952.578 -6.10573 2.17035 0
M  V30 10031 N 945.984 -0.3171 -1.54377 0
M  V30 10032 C 947.209 0.292311 -2.0533 0
M  V30 10033 C 947.634 1.45503 -1.19207 0
M  V30 10034 O 946.992 1.80197 -0.199721 0
M  V30 10035 C 947.04 0.710787 -3.53525 0
M  V30 10036 O 946.144 1.81387 -3.70368 0
M  V30 10037 H 945.485 0.0539976 -0.661801 0
M  V30 10038 H 948.015 -0.463629 -1.99278 0
M  V30 10039 H 948.025 0.995216 -3.95676 0
M  V30 10040 H 946.7 -0.139668 -4.15665 0
M  V30 10041 H 945.277 1.52875 -3.40123 0
M  V30 10042 N 947.462 1.57535 -0.0451378 0
M  V30 10043 C 948.873 1.80116 0.491426 0
M  V30 10044 C 949.224 0.956846 1.71286 0
M  V30 10045 O 948.349 0.17173 2.15718 0
M  V30 10046 C 948.944 3.26674 0.898315 0
M  V30 10047 C 947.503 3.50194 1.37989 0
M  V30 10048 C 946.65 2.75054 0.352202 0
M  V30 10049 H 949.601 1.56368 -0.271065 0
M  V30 10050 H 949.622 3.37263 1.76164 0
M  V30 10051 H 949.134 3.88099 0.009141 0
M  V30 10052 H 947.235 2.94041 2.28846 0
M  V30 10053 H 947.348 4.58909 1.37622 0
M  V30 10054 H 945.712 2.4101 0.823784 0
M  V30 10055 H 946.495 3.39203 -0.528782 0
M  V30 10056 N 948.94 -0.228186 1.55939 0
M  V30 10057 C 950.165 -0.974795 1.83064 0
M  V30 10058 C 950.59 -1.77426 0.624624 0
M  V30 10059 O 949.948 -1.76211 -0.426556 0
M  V30 10060 C 949.996 -1.87342 3.08116 0
M  V30 10061 O 949.1 -2.96784 2.86344 0
M  V30 10062 H 948.441 -0.276379 0.603747 0
M  V30 10063 H 950.971 -0.243507 2.03146 0
M  V30 10064 H 950.981 -2.28451 3.38045 0
M  V30 10065 H 949.656 -1.28575 3.95526 0
M  V30 10066 H 948.233 -2.59669 2.67631 0
M  V30 10067 N 950.418 -1.49637 -0.494624 0
M  V30 10068 C 951.695 -1.4995 -1.25596 0
M  V30 10069 C 952.075 -0.230805 -2.09834 0
M  V30 10070 O 951.423 0.786625 -2.14533 0
M  V30 10071 C 951.633 -2.78204 -2.10721 0
M  V30 10072 C 952.981 -3.27946 -2.69698 0
M  V30 10073 O 954.005 -2.79365 -2.20984 0
M  V30 10074 O 952.864 -4.12571 -3.58395 0
M  V30 10075 H 949.958 -0.60044 -0.568684 0
M  V30 10076 H 952.504 -1.61906 -0.508371 0
M  V30 10077 H 951.276 -3.62029 -1.48494 0
M  V30 10078 H 950.899 -2.69139 -2.92661 0
M  V30 10079 N 951.896 0.746133 -1.38819 0
M  V30 10080 C 952.826 1.87344 -1.39372 0
M  V30 10081 C 953.807 1.68123 -0.258583 0
M  V30 10082 O 954.992 1.88606 -0.462769 0
M  V30 10083 C 952.122 3.24962 -1.22543 0
M  V30 10084 C 951.076 3.58799 -2.33339 0
M  V30 10085 C 950.402 4.95235 -2.01609 0
M  V30 10086 C 951.702 3.62911 -3.75624 0
M  V30 10087 H 953.396 1.87138 -2.33709 0
M  V30 10088 H 950.942 0.898937 -1.12495 0
M  V30 10089 H 952.895 4.03488 -1.21554 0
M  V30 10090 H 951.619 3.25667 -0.246707 0
M  V30 10091 H 950.278 2.82596 -2.33527 0
M  V30 10092 H 949.926 4.92508 -1.02202 0
M  V30 10093 H 949.626 5.18843 -2.75819 0
M  V30 10094 H 951.15 5.76131 -2.02251 0
M  V30 10095 H 952.564 4.31535 -3.77426 0
M  V30 10096 H 950.961 3.98031 -4.491 0
M  V30 10097 H 952.031 2.62967 -4.07402 0
M  V30 10098 N 953.375 1.23811 0.975125 0
M  V30 10099 C 954.603 1.10019 1.75224 0
M  V30 10100 C 955.018 -0.34791 1.85567 0
M  V30 10101 O 954.375 -1.24043 1.33864 0
M  V30 10102 C 954.426 1.72572 3.1765 0
M  V30 10103 O 954.147 3.11719 3.07836 0
M  V30 10104 C 955.648 1.64292 4.11732 0
M  V30 10105 H 952.868 0.38476 0.549728 0
M  V30 10106 H 955.412 1.63768 1.22476 0
M  V30 10107 H 953.567 1.22843 3.67408 0
M  V30 10108 H 953.981 3.42152 3.97533 0
M  V30 10109 H 955.455 2.12754 5.09352 0
M  V30 10110 H 955.932 0.602722 4.35045 0
M  V30 10111 H 956.538 2.13411 3.6788 0
M  V30 10112 N 954.853 -1.17469 1.05066 0
M  V30 10113 C 955.801 -2.23495 0.644418 0
M  V30 10114 C 956.795 -1.66081 -0.333685 0
M  V30 10115 O 958.001 -1.78887 -0.199886 0
M  V30 10116 H 954.376 -0.727546 0.190214 0
M  V30 10117 H 956.347 -2.55058 1.5488 0
M  V30 10118 C 955.096 -3.47684 0.0338051 0
M  V30 10119 H 954.419 -3.92167 0.777513 0
M  V30 10120 H 955.859 -4.23464 -0.213086 0
M  V30 10121 C 954.318 -3.14067 -1.21915 0
M  V30 10122 O 954.848 -3.28728 -2.3087 0
M  V30 10123 N 953.054 -2.68304 -1.11631 0
M  V30 10124 H 952.601 -2.56574 -0.229673 0
M  V30 10125 H 952.559 -2.46184 -1.95553 0
M  V30 10126 N 956.331 -0.831506 -1.3388 0
M  V30 10127 C 957.742 -0.481375 -1.80388 0
M  V30 10128 C 958.093 0.998993 -1.68863 0
M  V30 10129 O 957.218 1.77795 -1.2336 0
M  V30 10130 C 957.813 -0.86699 -3.27519 0
M  V30 10131 C 956.372 -0.569105 -3.72073 0
M  V30 10132 C 955.519 -1.07929 -2.55434 0
M  V30 10133 H 958.47 -1.02089 -1.21505 0
M  V30 10134 H 958.491 -0.174128 -3.80101 0
M  V30 10135 H 958.003 -1.94447 -3.35875 0
M  V30 10136 H 956.104 0.498607 -3.69249 0
M  V30 10137 H 956.217 -1.11918 -4.65845 0
M  V30 10138 H 954.581 -0.500465 -2.49735 0
M  V30 10139 H 955.364 -2.16339 -2.66556 0
M  V30 10140 N 957.809 1.4625 -0.587256 0
M  V30 10141 C 958.719 2.34147 0.145744 0
M  V30 10142 C 959.735 1.50026 0.881376 0
M  V30 10143 O 960.911 1.82884 0.843539 0
M  V30 10144 C 957.976 3.27294 1.14366 0
M  V30 10145 C 957.037 4.27317 0.412199 0
M  V30 10146 C 956.27 5.16013 1.36257 0
M  V30 10147 O 956.493 5.0773 2.59934 0
M  V30 10148 O 955.427 5.95569 0.870681 0
M  V30 10149 H 959.253 2.98187 -0.576055 0
M  V30 10150 H 956.838 1.45299 -0.347628 0
M  V30 10151 H 958.72 3.84747 1.71894 0
M  V30 10152 H 957.395 2.65845 1.84684 0
M  V30 10153 H 956.302 3.73538 -0.205036 0
M  V30 10154 H 957.635 4.91564 -0.250104 0
M  V30 10155 N 959.287 0.325282 1.54207 0
M  V30 10156 C 960.703 -0.0273036 1.59577 0
M  V30 10157 C 960.903 -1.50329 1.34177 0
M  V30 10158 O 959.959 -2.25951 1.12705 0
M  V30 10159 C 961.272 0.392468 2.98128 0
M  V30 10160 C 962.82 0.343269 3.11112 0
M  V30 10161 C 963.295 0.738229 4.52011 0
M  V30 10162 N 964.786 0.691701 4.58006 0
M  V30 10163 C 965.521 0.969479 5.65145 0
M  V30 10164 N 965.017 1.31448 6.80216 0
M  V30 10165 N 966.81 0.894926 5.5493 0
M  V30 10166 H 958.961 1.28692 1.68974 0
M  V30 10167 H 961.224 0.523399 0.790416 0
M  V30 10168 H 960.93 1.42089 3.2172 0
M  V30 10169 H 960.804 -0.241651 3.76425 0
M  V30 10170 H 963.191 -0.675946 2.87254 0
M  V30 10171 H 963.272 1.01235 2.34915 0
M  V30 10172 H 962.916 1.75537 4.76602 0
M  V30 10173 H 962.846 0.0468226 5.26579 0
M  V30 10174 H 965.337 0.436975 3.75365 0
M  V30 10175 H 965.65 1.51177 7.57869 0
M  V30 10176 H 963.995 1.35276 6.81708 0
M  V30 10177 H 967.186 0.624876 4.6391 0
M  V30 10178 H 967.359 1.11476 6.38339 0
M  V30 10179 N 960.765 -1.57509 0.0534917 0
M  V30 10180 C 962.042 -1.84137 -0.659767 0
M  V30 10181 C 962.422 -0.942362 -1.88899 0
M  V30 10182 O 961.77 -0.00398566 -2.285 0
M  V30 10183 C 961.98 -3.33919 -1.01486 0
M  V30 10184 C 963.328 -4.00989 -1.39616 0
M  V30 10185 O 964.352 -3.38557 -1.10713 0
M  V30 10186 O 963.211 -5.11071 -1.93567 0
M  V30 10187 H 960.305 -0.760081 -0.325893 0
M  V30 10188 H 962.851 -1.69497 0.0830315 0
M  V30 10189 H 961.623 -3.91046 -0.141041 0
M  V30 10190 H 961.246 -3.53755 -1.81503 0
M  V30 10191 N 962.243 0.219913 -1.56058 0
M  V30 10192 C 963.491 0.942199 -1.78793 0
M  V30 10193 C 963.812 1.84804 -0.622284 0
M  V30 10194 O 963.082 1.9255 0.360735 0
M  V30 10195 H 961.662 0.350895 -0.659455 0
M  V30 10196 H 964.324 0.231376 -1.93522 0
M  V30 10197 H 963.42 1.54804 -2.71002 0
M  V30 10198 N 963.721 1.49897 0.486681 0
M  V30 10199 C 965.132 1.53142 1.06792 0
M  V30 10200 C 965.483 0.325856 1.93475 0
M  V30 10201 O 964.608 -0.562893 2.08951 0
M  V30 10202 C 965.203 2.77514 1.94348 0
M  V30 10203 C 963.762 2.83491 2.47609 0
M  V30 10204 C 962.909 2.47239 1.2557 0
M  V30 10205 H 965.86 1.56387 0.269962 0
M  V30 10206 H 965.881 2.58487 2.79221 0
M  V30 10207 H 965.393 3.65239 1.31232 0
M  V30 10208 H 963.494 2.0008 3.14323 0
M  V30 10209 H 963.607 3.86011 2.83782 0
M  V30 10210 H 961.971 1.99332 1.58552 0
M  V30 10211 H 962.754 3.37255 0.641404 0
M  V30 10212 N 965.199 -0.738761 1.39212 0
M  V30 10213 C 966.476 -1.48982 1.26742 0
M  V30 10214 C 966.856 -2.10732 -0.12466 0
M  V30 10215 O 966.204 -1.98287 -1.13554 0
M  V30 10216 C 966.414 -2.54427 2.38889 0
M  V30 10217 C 967.762 -3.20915 2.78027 0
M  V30 10218 O 968.786 -2.64738 2.38311 0
M  V30 10219 O 967.645 -4.22558 3.46565 0
M  V30 10220 H 964.739 -0.661395 0.496473 0
M  V30 10221 H 967.285 -0.772907 1.51077 0
M  V30 10222 H 966.057 -2.07151 3.3197 0
M  V30 10223 H 965.68 -3.33682 2.162 0
M  V30 10224 N 966.677 -1.24326 -0.968545 0
M  V30 10225 C 968.093 -1.00847 -1.23701 0
M  V30 10226 C 968.293 0.283235 -1.99499 0
M  V30 10227 O 967.349 0.999607 -2.31871 0
M  V30 10228 C 968.662 -2.22295 -2.02498 0
M  V30 10229 C 970.21 -2.26911 -2.15593 0
M  V30 10230 C 970.685 -3.47978 -2.97784 0
M  V30 10231 N 972.176 -3.48289 -3.05367 0
M  V30 10232 C 972.911 -4.38625 -3.69318 0
M  V30 10233 N 972.407 -5.39213 -4.34995 0
M  V30 10234 N 974.2 -4.26339 -3.66322 0
M  V30 10235 H 966.351 -2.07335 -0.461087 0
M  V30 10236 H 968.614 -0.909805 -0.26638 0
M  V30 10237 H 968.32 -3.161 -1.54188 0
M  V30 10238 H 968.194 -2.24344 -3.03232 0
M  V30 10239 H 970.581 -1.33639 -2.63106 0
M  V30 10240 H 970.662 -2.28888 -1.14209 0
M  V30 10241 H 970.306 -4.41564 -2.50965 0
M  V30 10242 H 970.236 -3.43244 -3.99364 0
M  V30 10243 H 972.727 -2.75517 -2.58648 0
M  V30 10244 H 973.04 -6.04378 -4.81608 0
M  V30 10245 H 971.385 -5.43101 -4.33667 0
M  V30 10246 H 974.576 -3.46991 -3.14189 0
M  V30 10247 H 974.749 -4.9694 -4.15878 0
M  V30 10248 N 968.156 1.1691 -1.05688 0
M  V30 10249 C 969.403 1.87292 -0.76993 0
M  V30 10250 C 969.731 1.81339 0.703295 0
M  V30 10251 O 968.986 1.21959 1.5305 0
M  V30 10252 C 969.285 3.36578 -1.20207 0
M  V30 10253 C 968.951 3.62732 -2.67836 0
M  V30 10254 C 967.613 3.69579 -3.08163 0
M  V30 10255 C 969.965 3.73803 -3.63209 0
M  V30 10256 C 967.293 3.84992 -4.42717 0
M  V30 10257 C 969.645 3.90735 -4.97503 0
M  V30 10258 C 968.309 3.95823 -5.37476 0
M  V30 10259 H 967.579 0.68535 -0.281737 0
M  V30 10260 H 970.226 1.38274 -1.32486 0
M  V30 10261 H 968.531 3.87687 -0.566222 0
M  V30 10262 H 970.228 3.89409 -0.957183 0
M  V30 10263 H 966.818 3.58031 -2.35609 0
M  V30 10264 H 971.002 3.67829 -3.3319 0
M  V30 10265 H 966.258 3.87181 -4.73182 0
M  V30 10266 H 970.432 3.98243 -5.71293 0
M  V30 10267 H 968.059 4.07518 -6.41742 0
M  V30 10268 N 969.634 0.838594 1.33437 0
M  V30 10269 C 970.566 0.229006 2.28053 0
M  V30 10270 C 971.579 -0.590103 1.51729 0
M  V30 10271 O 972.768 -0.417218 1.73556 0
M  V30 10272 C 969.868 -0.696251 3.31671 0
M  V30 10273 C 969.041 0.0834606 4.3732 0
M  V30 10274 C 968.1 -0.765097 5.20608 0
M  V30 10275 O 967.126 -0.2044 5.68833 0
M  V30 10276 N 968.328 -2.08249 5.4186 0
M  V30 10277 H 971.093 1.04196 2.81004 0
M  V30 10278 H 968.654 0.697031 1.46127 0
M  V30 10279 H 970.646 -1.26889 3.84293 0
M  V30 10280 H 969.216 -1.40992 2.78998 0
M  V30 10281 H 968.436 0.837481 3.85201 0
M  V30 10282 H 969.724 0.619613 5.05013 0
M  V30 10283 H 969.122 -2.56156 5.04381 0
M  V30 10284 H 967.679 -2.60362 5.97541 0
M  V30 10285 N 971.112 -1.45937 0.595003 0
M  V30 10286 C 972.359 -2.0232 0.0853053 0
M  V30 10287 C 972.687 -1.465 -1.27937 0
M  V30 10288 O 971.942 -0.624767 -1.85459 0
M  V30 10289 C 972.241 -3.57396 -0.0173747 0
M  V30 10290 C 971.907 -4.32311 1.28131 0
M  V30 10291 C 970.569 -4.52496 1.63708 0
M  V30 10292 C 972.921 -4.75233 2.14017 0
M  V30 10293 C 970.249 -5.12857 2.84947 0
M  V30 10294 C 972.601 -5.36933 3.34493 0
M  V30 10295 C 971.265 -5.55343 3.70338 0
M  V30 10296 H 970.535 -0.740342 0.0312154 0
M  V30 10297 H 973.182 -1.75157 0.774103 0
M  V30 10298 H 971.487 -3.83766 -0.789371 0
M  V30 10299 H 973.184 -3.98713 -0.427699 0
M  V30 10300 H 969.774 -4.16905 0.994374 0
M  V30 10301 H 973.958 -4.59383 1.87833 0
M  V30 10302 H 969.214 -5.253 3.12841 0
M  V30 10303 H 973.388 -5.69147 4.01304 0
M  V30 10304 H 971.015 -6.01883 4.64371 0
M  V30 10305 N 972.59 -0.333456 -1.54032 0
M  V30 10306 C 973.5 0.536674 -2.28379 0
M  V30 10307 C 974.516 1.12068 -1.33104 0
M  V30 10308 O 975.692 1.13853 -1.66131 0
M  V30 10309 C 972.757 1.67677 -3.03456 0
M  V30 10310 C 971.818 1.12357 -4.14336 0
M  V30 10311 C 971.051 2.20933 -4.85823 0
M  V30 10312 O 971.274 3.41466 -4.569 0
M  V30 10313 O 970.208 1.85795 -5.72507 0
M  V30 10314 H 974.034 -0.0674003 -3.03625 0
M  V30 10315 H 971.619 -0.098823 -1.49073 0
M  V30 10316 H 973.501 2.34032 -3.50438 0
M  V30 10317 H 972.176 2.26684 -2.31076 0
M  V30 10318 H 971.083 0.424827 -3.7168 0
M  V30 10319 H 972.416 0.578497 -4.88789 0
M  V30 10320 N 974.068 1.57479 -0.061844 0
M  V30 10321 C 974.998 2.15181 0.9066 0
M  V30 10322 C 975.979 1.07624 1.31724 0
M  V30 10323 O 977.164 1.35614 1.39006 0
M  V30 10324 C 974.294 2.70542 2.17771 0
M  V30 10325 C 973.248 3.83178 1.9068 0
M  V30 10326 C 972.574 4.25099 3.24337 0
M  V30 10327 C 973.874 5.07853 1.21994 0
M  V30 10328 H 975.568 2.96355 0.42594 0
M  V30 10329 H 973.114 1.42556 0.203435 0
M  V30 10330 H 975.067 3.09552 2.85929 0
M  V30 10331 H 973.791 1.86575 2.68062 0
M  V30 10332 H 972.45 3.44656 1.24931 0
M  V30 10333 H 972.098 3.38069 3.72449 0
M  V30 10334 H 971.798 5.01021 3.07005 0
M  V30 10335 H 973.322 4.66718 3.93709 0
M  V30 10336 H 974.736 5.44242 1.80204 0
M  V30 10337 H 973.133 5.88987 1.14954 0
M  V30 10338 H 974.203 4.84497 0.197536 0
M  V30 10339 N 975.546 -0.211634 1.56173 0
M  V30 10340 C 976.774 -0.951184 1.83739 0
M  V30 10341 C 977.189 -1.7754 0.642252 0
M  V30 10342 O 976.546 -1.78302 -0.389174 0
M  V30 10343 C 976.597 -1.86075 3.09933 0
M  V30 10344 O 976.318 -1.06983 4.24837 0
M  V30 10345 C 977.819 -2.71337 3.50559 0
M  V30 10346 H 975.039 -0.278312 0.61056 0
M  V30 10347 H 977.583 -0.223871 2.03271 0
M  V30 10348 H 975.738 -2.54189 2.92347 0
M  V30 10349 H 976.152 -1.68815 4.9659 0
M  V30 10350 H 977.626 -3.30843 4.41868 0
M  V30 10351 H 978.103 -3.44226 2.72773 0
M  V30 10352 H 978.709 -2.0862 3.70618 0
M  V30 10353 N 977.024 -1.50153 -0.478725 0
M  V30 10354 C 977.954 -1.71384 -1.58587 0
M  V30 10355 C 978.935 -0.562705 -1.60523 0
M  V30 10356 O 980.12 -0.80101 -1.76911 0
M  V30 10357 C 977.25 -1.80094 -2.96957 0
M  V30 10358 C 976.204 -2.95218 -3.09888 0
M  V30 10359 C 975.53 -2.89063 -4.49829 0
M  V30 10360 C 976.83 -4.35841 -2.8782 0
M  V30 10361 H 978.524 -2.64081 -1.41073 0
M  V30 10362 H 976.07 -1.27081 -0.677239 0
M  V30 10363 H 978.023 -1.93531 -3.74331 0
M  V30 10364 H 976.747 -0.840131 -3.1561 0
M  V30 10365 H 975.406 -2.81419 -2.34944 0
M  V30 10366 H 975.054 -1.90844 -4.6539 0
M  V30 10367 H 974.754 -3.66345 -4.59418 0
M  V30 10368 H 976.278 -3.04539 -5.29234 0
M  V30 10369 H 977.692 -4.50205 -3.54948 0
M  V30 10370 H 976.089 -5.14515 -3.0886 0
M  V30 10371 H 977.159 -4.48739 -1.83742 0
M  V30 10372 N 978.502 0.731368 -1.39602 0
M  V30 10373 C 979.412 1.87579 -1.40894 0
M  V30 10374 C 980.428 1.71336 -0.303319 0
M  V30 10375 O 981.604 1.93875 -0.545377 0
M  V30 10376 C 978.669 3.23211 -1.25442 0
M  V30 10377 C 977.73 3.51822 -2.46008 0
M  V30 10378 C 976.963 4.80982 -2.31284 0
M  V30 10379 O 977.186 5.54958 -1.31824 0
M  V30 10380 O 976.12 5.09574 -3.20341 0
M  V30 10381 H 979.946 1.89444 -2.3737 0
M  V30 10382 H 977.531 0.879675 -1.20756 0
M  V30 10383 H 979.413 4.04257 -1.18972 0
M  V30 10384 H 978.088 3.22108 -0.320637 0
M  V30 10385 H 976.995 2.70847 -2.58055 0
M  V30 10386 H 978.328 3.57707 -3.38093 0
M  V30 10387 N 979.98 1.24838 0.961938 0
M  V30 10388 C 980.89 1.06304 2.09133 0
M  V30 10389 C 981.906 0.00221475 1.74 0
M  V30 10390 O 983.082 0.201611 2.00388 0
M  V30 10391 C 980.147 0.676117 3.40043 0
M  V30 10392 C 979.208 1.81407 3.89089 0
M  V30 10393 C 978.441 1.44551 5.13752 0
M  V30 10394 O 978.664 0.337894 5.69398 0
M  V30 10395 O 977.598 2.27316 5.57325 0
M  V30 10396 H 981.424 2.01001 2.27667 0
M  V30 10397 H 979.009 1.0371 1.07539 0
M  V30 10398 H 980.891 0.472124 4.18747 0
M  V30 10399 H 979.566 -0.241667 3.22797 0
M  V30 10400 H 978.473 2.07286 3.11421 0
M  V30 10401 H 979.806 2.71083 4.10822 0
M  V30 10402 N 981.458 -1.16348 1.06306 0
M  V30 10403 C 982.421 -2.18941 0.678053 0
M  V30 10404 C 983.421 -1.58409 -0.276277 0
M  V30 10405 O 984.611 -1.74101 -0.0586435 0
M  V30 10406 C 981.743 -3.409 -0.00228684 0
M  V30 10407 H 982.936 -2.54516 1.58624 0
M  V30 10408 H 980.489 -1.30625 0.858298 0
M  V30 10409 H 981.224 -3.10881 -0.923212 0
M  V30 10410 H 981.009 -3.86089 0.683949 0
M  V30 10411 H 982.499 -4.16806 -0.257374 0
M  V30 10412 N 982.937 -0.845659 -1.3299 0
M  V30 10413 C 983.847 -0.2864 -2.32845 0
M  V30 10414 C 984.863 0.591105 -1.63652 0
M  V30 10415 O 986.039 0.493615 -1.95257 0
M  V30 10416 C 983.104 0.523636 -3.42723 0
M  V30 10417 C 982.165 -0.378945 -4.27624 0
M  V30 10418 C 981.398 0.392526 -5.32255 0
M  V30 10419 O 981.621 1.6235 -5.46808 0
M  V30 10420 O 980.555 -0.237 -6.01433 0
M  V30 10421 H 984.381 -1.11346 -2.82552 0
M  V30 10422 H 981.966 -0.608356 -1.36453 0
M  V30 10423 H 983.848 0.983718 -4.09757 0
M  V30 10424 H 982.523 1.32764 -2.95221 0
M  V30 10425 H 981.43 -0.887012 -3.63432 0
M  V30 10426 H 982.763 -1.1479 -4.78627 0
M  V30 10427 N 984.415 1.45619 -0.602734 0
M  V30 10428 C 985.325 2.34288 0.120902 0
M  V30 10429 C 986.341 1.50952 0.865414 0
M  V30 10430 O 987.517 1.83768 0.824094 0
M  V30 10431 C 984.582 3.28489 1.10888 0
M  V30 10432 C 983.643 4.2773 0.366853 0
M  V30 10433 C 982.876 5.17429 1.30776 0
M  V30 10434 O 983.099 5.10459 2.54535 0
M  V30 10435 O 982.033 5.96459 0.807464 0
M  V30 10436 H 985.859 2.97559 -0.60765 0
M  V30 10437 H 983.444 1.44922 -0.363019 0
M  V30 10438 H 985.326 3.86549 1.67803 0
M  V30 10439 H 984.001 2.67789 1.81854 0
M  V30 10440 H 982.908 3.73299 -0.244643 0
M  V30 10441 H 984.241 4.91271 -0.302226 0
M  V30 10442 N 985.893 0.34162 1.53853 0
M  V30 10443 C 986.803 -0.524555 2.2866 0
M  V30 10444 C 987.819 -1.1136 1.33697 0
M  V30 10445 O 988.995 -1.1297 1.66732 0
M  V30 10446 C 986.06 -1.66065 3.04341 0
M  V30 10447 C 985.121 -1.10158 4.14926 0
M  V30 10448 C 984.354 -2.18353 4.86988 0
M  V30 10449 O 984.577 -3.39038 4.58704 0
M  V30 10450 O 983.511 -1.82756 5.73484 0
M  V30 10451 H 987.337 0.0835014 3.03585 0
M  V30 10452 H 984.922 0.106727 1.49018 0
M  V30 10453 H 986.804 -2.3217 3.51674 0
M  V30 10454 H 985.479 -2.25456 2.32275 0
M  V30 10455 H 984.386 -0.405109 3.719 0
M  V30 10456 H 985.719 -0.552567 4.89088 0
M  V30 10457 N 987.371 -1.57444 0.0701946 0
M  V30 10458 C 988.648 -1.84826 -0.6402 0
M  V30 10459 C 989.028 -0.962344 -1.87889 0
M  V30 10460 O 988.376 -0.0282209 -2.28483 0
M  V30 10461 C 988.586 -3.34976 -0.979382 0
M  V30 10462 C 989.934 -4.02448 -1.35355 0
M  V30 10463 O 990.958 -3.39713 -1.07116 0
M  V30 10464 O 989.817 -5.13096 -1.88136 0
M  V30 10465 H 986.911 -0.763494 -0.317813 0
M  V30 10466 H 989.457 -1.69399 0.101004 0
M  V30 10467 H 988.229 -3.91173 -0.0995576 0
M  V30 10468 H 987.852 -3.5566 -1.7774 0
M  V30 10469 N 988.849 0.203349 -1.56283 0
M  V30 10470 C 989.759 1.27266 -1.9708 0
M  V30 10471 C 990.775 1.50268 -0.877236 0
M  V30 10472 O 991.951 1.63044 -1.18231 0
M  V30 10473 C 989.016 2.59871 -2.29495 0
M  V30 10474 C 988.077 2.45012 -3.52516 0
M  V30 10475 C 987.31 3.71293 -3.83376 0
M  V30 10476 O 987.533 4.75106 -3.15643 0
M  V30 10477 O 986.467 3.67316 -4.76826 0
M  V30 10478 H 990.293 0.956461 -2.88246 0
M  V30 10479 H 987.878 0.407688 -1.4373 0
M  V30 10480 H 989.76 3.38152 -2.51458 0
M  V30 10481 H 988.435 2.91135 -1.415 0
M  V30 10482 H 987.342 1.6487 -3.35811 0
M  V30 10483 H 988.675 2.18683 -4.40952 0
M  V30 10484 N 990.327 1.50405 0.470755 0
M  V30 10485 C 991.237 1.7208 1.59454 0
M  V30 10486 C 992.253 0.603932 1.63183 0
M  V30 10487 O 993.429 0.882296 1.81046 0
M  V30 10488 C 990.494 1.81057 2.95667 0
M  V30 10489 C 989.555 3.04792 3.02324 0
M  V30 10490 C 988.788 3.13332 4.3204 0
M  V30 10491 O 989.011 2.28655 5.22564 0
M  V30 10492 O 987.945 4.0606 4.44296 0
M  V30 10493 H 991.771 2.67343 1.44089 0
M  V30 10494 H 989.356 1.34505 0.650286 0
M  V30 10495 H 991.238 1.8914 3.76569 0
M  V30 10496 H 989.913 0.889782 3.11231 0
M  V30 10497 H 988.82 3.0221 2.205 0
M  V30 10498 H 990.153 3.96451 2.91698 0
M  V30 10499 N 991.805 -0.723954 1.39988 0
M  V30 10500 C 992.715 -1.86829 1.41887 0
M  V30 10501 C 993.731 -1.71173 0.312401 0
M  V30 10502 O 994.907 -1.93583 0.555651 0
M  V30 10503 C 991.972 -3.22541 1.27154 0
M  V30 10504 C 991.033 -3.50512 2.47871 0
M  V30 10505 C 990.266 -4.79749 2.33831 0
M  V30 10506 O 990.489 -5.54251 1.34765 0
M  V30 10507 O 989.423 -5.07868 3.23039 0
M  V30 10508 H 993.249 -1.88183 2.38371 0
M  V30 10509 H 990.834 -0.873259 1.21221 0
M  V30 10510 H 992.716 -4.0362 1.21114 0
M  V30 10511 H 991.391 -3.21933 0.337715 0
M  V30 10512 H 990.298 -2.69475 2.59488 0
M  V30 10513 H 991.631 -3.55909 3.39985 0
M  V30 10514 N 993.283 -1.25346 -0.955304 0
M  V30 10515 C 994.193 -1.07412 -2.08566 0
M  V30 10516 C 995.209 -0.0114424 -1.73996 0
M  V30 10517 O 996.385 -0.212236 -2.00279 0
M  V30 10518 C 993.45 -0.694141 -3.3968 0
M  V30 10519 C 992.511 -1.83468 -3.88121 0
M  V30 10520 C 991.744 -1.47274 -5.12978 0
M  V30 10521 O 991.967 -0.368086 -5.69211 0
M  V30 10522 O 990.901 -2.30269 -5.56111 0
M  V30 10523 H 994.727 -2.02206 -2.26598 0
M  V30 10524 H 992.312 -1.04279 -1.06988 0
M  V30 10525 H 994.194 -0.494325 -4.18491 0
M  V30 10526 H 992.869 0.224545 -3.2292 0
M  V30 10527 H 991.776 -2.08935 -3.10318 0
M  V30 10528 H 993.109 -2.73258 -4.09379 0
M  V30 10529 N 994.761 1.15782 -1.06922 0
M  V30 10530 C 995.671 2.24008 -0.696948 0
M  V30 10531 C 996.687 1.71569 0.289862 0
M  V30 10532 O 997.863 2.00929 0.137585 0
M  V30 10533 C 994.928 3.46568 -0.0957895 0
M  V30 10534 C 993.989 4.14017 -1.13528 0
M  V30 10535 C 993.222 5.30725 -0.562713 0
M  V30 10536 O 993.445 5.66992 0.62259 0
M  V30 10537 O 992.379 5.87572 -1.30549 0
M  V30 10538 H 996.205 2.58174 -1.59938 0
M  V30 10539 H 993.79 1.2342 -0.841889 0
M  V30 10540 H 995.672 4.20731 0.237407 0
M  V30 10541 H 994.347 3.14161 0.780027 0
M  V30 10542 H 993.254 3.41795 -1.52076 0
M  V30 10543 H 994.587 4.50493 -1.98285 0
M  V30 10544 N 996.239 0.8527 1.3254 0
M  V30 10545 C 997.149 0.298744 2.3269 0
M  V30 10546 C 998.165 -0.582418 1.63963 0
M  V30 10547 O 999.341 -0.483253 1.95516 0
M  V30 10548 C 996.406 -0.505453 3.42996 0
M  V30 10549 C 995.467 0.401618 4.27417 0
M  V30 10550 C 994.7 -0.364294 5.32455 0
M  V30 10551 O 994.923 -1.59448 5.47661 0
M  V30 10552 O 993.857 0.268892 6.01299 0
M  V30 10553 H 997.683 1.12843 2.81958 0
M  V30 10554 H 995.268 0.615584 1.36128 0
M  V30 10555 H 997.15 -0.961974 4.10273 0
M  V30 10556 H 995.825 -1.31197 2.95921 0
M  V30 10557 H 994.732 0.906274 3.62957 0
M  V30 10558 H 996.065 1.17327 4.78012 0
M  V30 10559 N 997.718 -1.45297 0.610449 0
M  V30 10560 C 998.966 -2.01819 0.106548 0
M  V30 10561 C 999.287 -1.48102 -1.26849 0
M  V30 10562 O 998.557 -0.676411 -1.83852 0
M  V30 10563 H 997.137 -0.746113 0.0363982 0
M  V30 10564 H 999.799 -1.78061 0.792491 0
M  V30 10565 H 998.895 -3.12045 0.0585 0
M  V30 10566 N 999.196 -0.349774 -1.5367 0
M  V30 10567 C 1000.11 0.512421 -2.28935 0
M  V30 10568 C 1001.12 1.1065 -1.34286 0
M  V30 10569 O 1002.3 1.12084 -1.67329 0
M  V30 10570 C 999.363 1.64449 -3.05217 0
M  V30 10571 C 998.424 1.07956 -4.15505 0
M  V30 10572 C 997.657 2.15768 -4.88139 0
M  V30 10573 O 997.88 3.366 -4.60496 0
M  V30 10574 O 996.814 1.79712 -5.74445 0
M  V30 10575 H 1000.64 -0.0996001 -3.03537 0
M  V30 10576 H 998.225 -0.114629 -1.4896 0
M  V30 10577 H 1000.11 2.30302 -3.52901 0
M  V30 10578 H 998.782 2.24221 -2.33467 0
M  V30 10579 H 997.689 0.385381 -3.7211 0
M  V30 10580 H 999.022 0.526621 -4.89375 0
M  V30 10581 N 1000.67 1.57404 -0.0785433 0
M  V30 10582 C 1001.58 2.16612 0.900902 0
M  V30 10583 C 1002.6 1.13109 1.32221 0
M  V30 10584 O 1003.78 1.45406 1.39352 0
M  V30 10585 C 1000.84 2.7215 2.14791 0
M  V30 10586 C 999.902 3.90551 1.78237 0
M  V30 10587 C 999.135 4.43431 2.96993 0
M  V30 10588 O 999.358 3.95292 4.11218 0
M  V30 10589 O 998.292 5.34674 2.76418 0
M  V30 10590 H 1002.12 3.0068 0.427227 0
M  V30 10591 H 999.703 1.48696 0.144902 0
M  V30 10592 H 1001.58 3.07718 2.87902 0
M  V30 10593 H 1000.26 1.91139 2.61243 0
M  V30 10594 H 999.167 3.59825 1.02357 0
M  V30 10595 H 1000.5 4.72876 1.36562 0
M  V30 10596 N 1002.15 -0.195058 1.56388 0
M  V30 10597 C 1003.38 -0.931642 1.84738 0
M  V30 10598 C 1003.79 -1.76849 0.661046 0
M  V30 10599 O 1003.15 -1.78705 -0.370241 0
M  V30 10600 C 1003.2 -1.82777 3.11889 0
M  V30 10601 O 1002.92 -1.02471 4.25948 0
M  V30 10602 C 1004.42 -2.67603 3.53417 0
M  V30 10603 H 1001.64 -0.271821 0.613477 0
M  V30 10604 H 1004.19 -0.202299 2.03497 0
M  V30 10605 H 1002.34 -2.51074 2.95027 0
M  V30 10606 H 1002.76 -1.63539 4.98353 0
M  V30 10607 H 1004.23 -3.26138 4.45352 0
M  V30 10608 H 1004.71 -3.41314 2.76408 0
M  V30 10609 H 1005.31 -2.04678 3.7281 0
M  V30 10610 N 1003.63 -1.50653 -0.462772 0
M  V30 10611 C 1004.59 -1.69561 -1.54213 0
M  V30 10612 C 1005.59 -0.566106 -1.50505 0
M  V30 10613 O 1006.78 -0.833273 -1.52978 0
M  V30 10614 C 1003.91 -1.72856 -2.93826 0
M  V30 10615 H 1005.11 -2.65867 -1.38761 0
M  V30 10616 H 1002.66 -1.40259 -0.689728 0
M  V30 10617 H 1003.4 -0.78273 -3.14712 0
M  V30 10618 H 1003.18 -2.54919 -2.97924 0
M  V30 10619 H 1004.67 -1.89411 -3.72174 0
M  V30 10620 N 1005.11 0.71652 -1.4037 0
M  V30 10621 C 1006.04 1.84345 -1.43315 0
M  V30 10622 C 1007.02 1.67537 -0.294186 0
M  V30 10623 O 1008.2 1.87582 -0.502671 0
M  V30 10624 C 1005.33 3.2229 -1.29408 0
M  V30 10625 C 1004.29 3.53769 -2.40897 0
M  V30 10626 C 1003.61 4.90847 -2.12068 0
M  V30 10627 C 1004.91 3.54862 -3.83237 0
M  V30 10628 H 1006.61 1.82138 -2.37626 0
M  V30 10629 H 1004.15 0.874873 -1.14376 0
M  V30 10630 H 1006.11 4.00819 -1.30085 0
M  V30 10631 H 1004.83 3.2507 -0.31573 0
M  V30 10632 H 1003.49 2.77579 -2.39469 0
M  V30 10633 H 1003.14 4.90229 -1.12626 0
M  V30 10634 H 1002.84 5.12875 -2.86762 0
M  V30 10635 H 1004.36 5.71711 -2.14426 0
M  V30 10636 H 1005.78 4.23432 -3.86494 0
M  V30 10637 H 1004.17 3.88416 -4.57442 0
M  V30 10638 H 1005.24 2.54266 -4.12888 0
M  V30 10639 N 1006.59 1.25851 0.948643 0
M  V30 10640 C 1007.55 1.0683 2.0278 0
M  V30 10641 C 1008.55 0.0191016 1.60789 0
M  V30 10642 O 1009.74 0.261836 1.72221 0
M  V30 10643 C 1006.87 0.623318 3.35153 0
M  V30 10644 H 1008.06 2.02635 2.21086 0
M  V30 10645 H 1005.62 1.08343 1.12657 0
M  V30 10646 H 1006.35 -0.337053 3.22544 0
M  V30 10647 H 1006.14 1.38082 3.66982 0
M  V30 10648 H 1007.63 0.511854 4.14451 0
M  V30 10649 N 1008.06 -1.15214 1.07534 0
M  V30 10650 C 1009.01 -2.20013 0.697337 0
M  V30 10651 C 1009.98 -1.6314 -0.312168 0
M  V30 10652 O 1011.17 -1.89768 -0.198196 0
M  V30 10653 C 1008.31 -3.44945 0.103293 0
M  V30 10654 C 1007.42 -4.16009 1.1645 0
M  V30 10655 C 1006.55 -5.28496 0.535261 0
M  V30 10656 C 1005.59 -5.9138 1.57912 0
M  V30 10657 N 1004.73 -6.95335 0.972332 0
M  V30 10658 H 1009.57 -2.51698 1.59538 0
M  V30 10659 H 1007.11 -1.2361 0.797431 0
M  V30 10660 H 1009.07 -4.16397 -0.258766 0
M  V30 10661 H 1007.7 -3.13772 -0.758096 0
M  V30 10662 H 1006.75 -3.43035 1.64411 0
M  V30 10663 H 1008.06 -4.58853 1.9559 0
M  V30 10664 H 1007.21 -6.06579 0.120942 0
M  V30 10665 H 1005.95 -4.8685 -0.287889 0
M  V30 10666 H 1004.96 -5.12008 2.0032 0
M  V30 10667 H 1006.18 -6.35103 2.40459 0
M  V30 10668 H 1004.13 -6.55779 0.170119 0
M  V30 10669 H 1004.05 -7.36616 1.70095 0
M  V30 10670 H 1005.31 -7.77312 0.583577 0
M  V30 10671 N 1009.54 -0.859717 -1.32086 0
M  V30 10672 C 1010.45 -0.31108 -2.32528 0
M  V30 10673 C 1011.47 0.573714 -1.6427 0
M  V30 10674 O 1012.64 0.472878 -1.9577 0
M  V30 10675 C 1009.71 0.487256 -3.43259 0
M  V30 10676 C 1008.77 -0.424279 -4.27198 0
M  V30 10677 C 1008 0.336051 -5.32641 0
M  V30 10678 O 1008.23 1.56541 -5.48499 0
M  V30 10679 O 1007.16 -0.300777 -6.01148 0
M  V30 10680 H 1010.99 -1.14336 -2.81355 0
M  V30 10681 H 1008.57 -0.622794 -1.358 0
M  V30 10682 H 1010.45 0.940203 -4.10777 0
M  V30 10683 H 1009.13 1.29626 -2.96612 0
M  V30 10684 H 1008.04 -0.925509 -3.62471 0
M  V30 10685 H 1009.37 -1.1986 -4.77383 0
M  V30 10686 N 1011.02 1.44971 -0.618145 0
M  V30 10687 C 1011.98 2.29044 0.0846739 0
M  V30 10688 C 1012.98 1.40341 0.784921 0
M  V30 10689 O 1014.17 1.62351 0.631479 0
M  V30 10690 C 1011.31 3.21617 1.13027 0
M  V30 10691 H 1012.5 2.92668 -0.654612 0
M  V30 10692 H 1010.05 1.51668 -0.377672 0
M  V30 10693 H 1010.79 2.62815 1.89997 0
M  V30 10694 H 1010.57 3.86969 0.63224 0
M  V30 10695 H 1012.06 3.84805 1.62218 0
M  V30 10696 N 1012.5 0.357919 1.53482 0
M  V30 10697 C 1013.43 -0.484231 2.28424 0
M  V30 10698 C 1014.41 -1.09046 1.30548 0
M  V30 10699 O 1015.59 -1.10916 1.59409 0
M  V30 10700 C 1012.72 -1.62803 3.06778 0
M  V30 10701 C 1011.68 -1.14943 4.12277 0
M  V30 10702 C 1011 -2.38287 4.78669 0
M  V30 10703 C 1012.3 -0.239627 5.2175 0
M  V30 10704 H 1014 0.140979 2.99068 0
M  V30 10705 H 1011.54 0.069244 1.43833 0
M  V30 10706 H 1013.5 -2.22374 3.57949 0
M  V30 10707 H 1012.22 -2.28036 2.3381 0
M  V30 10708 H 1010.88 -0.576442 3.6204 0
M  V30 10709 H 1010.53 -3.01959 4.02281 0
M  V30 10710 H 1010.23 -2.06939 5.49955 0
M  V30 10711 H 1011.75 -2.98558 5.32631 0
M  V30 10712 H 1013.17 -0.742597 5.6847 0
M  V30 10713 H 1011.56 -0.0173747 6.00097 0
M  V30 10714 H 1012.63 0.720333 4.7952 0
M  V30 10715 N 1013.98 -1.5736 0.0868897 0
M  V30 10716 C 1014.89 -2.17087 -0.889402 0
M  V30 10717 C 1015.9 -1.13809 -1.31619 0
M  V30 10718 O 1017.08 -1.46143 -1.38579 0
M  V30 10719 C 1014.14 -2.73286 -2.13344 0
M  V30 10720 C 1013.2 -3.91491 -1.76164 0
M  V30 10721 C 1012.44 -4.45 -2.94637 0
M  V30 10722 O 1012.66 -3.97467 -4.09116 0
M  V30 10723 O 1011.59 -5.36133 -2.73579 0
M  V30 10724 H 1015.42 -3.00902 -0.411275 0
M  V30 10725 H 1013.01 -1.4877 -0.137015 0
M  V30 10726 H 1014.89 -3.0924 -2.86266 0
M  V30 10727 H 1013.56 -1.92521 -2.60225 0
M  V30 10728 H 1012.47 -3.60363 -1.00447 0
M  V30 10729 H 1013.8 -4.73593 -1.34053 0
M  V30 10730 N 1015.45 0.186762 -1.56489 0
M  V30 10731 C 1016.38 1.23395 -1.98232 0
M  V30 10732 C 1017.37 1.4702 -0.855526 0
M  V30 10733 O 1018.55 1.58616 -1.12048 0
M  V30 10734 C 1015.68 2.57635 -2.32898 0
M  V30 10735 C 1014.63 2.48607 -3.48394 0
M  V30 10736 C 1013.96 3.87196 -3.68759 0
M  V30 10737 C 1015.26 2.00398 -4.82325 0
M  V30 10738 H 1016.95 0.887026 -2.85958 0
M  V30 10739 H 1014.5 0.42525 -1.37578 0
M  V30 10740 H 1016.45 3.31082 -2.60696 0
M  V30 10741 H 1015.18 2.94084 -1.42064 0
M  V30 10742 H 1013.84 1.77615 -3.207 0
M  V30 10743 H 1013.48 4.21012 -2.75241 0
M  V30 10744 H 1013.18 3.82029 -4.46462 0
M  V30 10745 H 1014.71 4.62253 -3.98941 0
M  V30 10746 H 1016.12 2.6361 -5.091 0
M  V30 10747 H 1014.52 2.06214 -5.63556 0
M  V30 10748 H 1015.59 0.957562 -4.75351 0
M  V30 10749 N 1016.93 1.50896 0.454776 0
M  V30 10750 C 1018.34 1.55372 1.0352 0
M  V30 10751 C 1018.69 0.366822 1.9274 0
M  V30 10752 O 1017.82 -0.518444 2.10098 0
M  V30 10753 C 1018.41 2.81574 1.88418 0
M  V30 10754 C 1016.97 2.88679 2.4154 0
M  V30 10755 C 1016.12 2.49847 1.20298 0
M  V30 10756 H 1019.07 1.56924 0.236729 0
M  V30 10757 H 1019.09 2.64352 2.73676 0
M  V30 10758 H 1018.6 3.67941 1.23455 0
M  V30 10759 H 1016.71 2.06702 3.10008 0
M  V30 10760 H 1016.82 3.91944 2.7553 0
M  V30 10761 H 1015.18 2.02651 1.54288 0
M  V30 10762 H 1015.97 3.3854 0.569723 0
M  V30 10763 N 1018.41 -0.709066 1.40748 0
M  V30 10764 C 1019.69 -1.4626 1.29874 0
M  V30 10765 C 1020.07 -2.10949 -0.0799322 0
M  V30 10766 O 1019.42 -2.00651 -1.09323 0
M  V30 10767 C 1019.63 -2.49302 2.44232 0
M  V30 10768 C 1020.97 -3.14945 2.84771 0
M  V30 10769 O 1022 -2.59623 2.43873 0
M  V30 10770 O 1020.86 -4.15111 3.5545 0
M  V30 10771 H 1017.95 -0.650716 0.51039 0
M  V30 10772 H 1020.5 -0.740687 1.52682 0
M  V30 10773 H 1019.27 -2.00063 3.36289 0
M  V30 10774 H 1018.89 -3.29021 2.23229 0
M  V30 10775 N 1019.89 -1.26353 -0.941956 0
M  V30 10776 C 1021.12 -1.14626 -1.72245 0
M  V30 10777 C 1021.53 0.298588 -1.86424 0
M  V30 10778 O 1020.89 1.2045 -1.37106 0
M  V30 10779 C 1020.94 -1.80933 -3.12963 0
M  V30 10780 O 1020.66 -3.19771 -2.99463 0
M  V30 10781 C 1022.16 -1.7515 -4.07231 0
M  V30 10782 H 1019.38 -0.3992 -0.539333 0
M  V30 10783 H 1021.93 -1.66958 -1.1809 0
M  V30 10784 H 1020.08 -1.32541 -3.64021 0
M  V30 10785 H 1020.5 -3.52571 -3.88322 0
M  V30 10786 H 1021.97 -2.26183 -5.03533 0
M  V30 10787 H 1022.45 -0.717855 -4.33294 0
M  V30 10788 H 1023.05 -2.2309 -3.62093 0
M  V30 10789 N 1021.37 1.14642 -1.08144 0
M  V30 10790 C 1022.28 2.23257 -0.720668 0
M  V30 10791 C 1023.29 1.71866 0.271648 0
M  V30 10792 O 1024.47 2.01064 0.116266 0
M  V30 10793 C 1021.53 3.46447 -0.132542 0
M  V30 10794 C 1020.6 4.12789 -1.17913 0
M  V30 10795 C 1019.83 5.30099 -0.618971 0
M  V30 10796 O 1020.05 5.6762 0.562418 0
M  V30 10797 O 1018.99 5.86154 -1.36774 0
M  V30 10798 H 1022.81 2.56463 -1.62667 0
M  V30 10799 H 1020.4 1.22521 -0.854932 0
M  V30 10800 H 1022.28 4.20959 0.19277 0
M  V30 10801 H 1020.95 3.14971 0.746662 0
M  V30 10802 H 1019.86 3.40163 -1.55693 0
M  V30 10803 H 1021.19 4.48365 -2.03051 0
M  V30 10804 N 1022.85 0.866709 1.31628 0
M  V30 10805 C 1023.78 0.335762 2.31073 0
M  V30 10806 C 1024.76 -0.571597 1.60209 0
M  V30 10807 O 1025.94 -0.489306 1.87935 0
M  V30 10808 C 1023.07 -0.466416 3.44154 0
M  V30 10809 C 1022.03 0.347561 4.26586 0
M  V30 10810 C 1021.35 -0.5801 5.31544 0
M  V30 10811 C 1022.65 1.57986 4.97833 0
M  V30 10812 H 1024.35 1.16673 2.75731 0
M  V30 10813 H 1021.89 0.56248 1.3256 0
M  V30 10814 H 1023.84 -0.84836 4.12772 0
M  V30 10815 H 1022.57 -1.33086 2.98254 0
M  V30 10816 H 1021.23 0.71141 3.59631 0
M  V30 10817 H 1020.88 -1.44174 4.81895 0
M  V30 10818 H 1020.58 -0.0393965 5.87587 0
M  V30 10819 H 1022.1 -0.958958 6.03023 0
M  V30 10820 H 1023.51 1.26954 5.59067 0
M  V30 10821 H 1021.91 2.05939 5.63657 0
M  V30 10822 H 1022.98 2.3345 4.25005 0
M  V30 10823 N 1024.32 -1.44642 0.625825 0
M  V30 10824 C 1025.25 -2.33397 -0.0692188 0
M  V30 10825 C 1026.23 -1.47898 -0.840241 0
M  V30 10826 O 1027.42 -1.7663 -0.807176 0
M  V30 10827 C 1024.55 -3.30888 -1.055 0
M  V30 10828 C 1023.5 -4.26164 -0.395968 0
M  V30 10829 C 1022.83 -5.13483 -1.49128 0
M  V30 10830 C 1024.13 -5.17663 0.694433 0
M  V30 10831 H 1025.82 -2.91763 0.671925 0
M  V30 10832 H 1023.37 -1.40294 0.324573 0
M  V30 10833 H 1025.32 -3.91861 -1.54993 0
M  V30 10834 H 1024.05 -2.7072 -1.82696 0
M  V30 10835 H 1022.71 -3.66516 0.0782691 0
M  V30 10836 H 1022.35 -4.49672 -2.25399 0
M  V30 10837 H 1022.05 -5.78038 -1.05573 0
M  V30 10838 H 1023.58 -5.77327 -1.98813 0
M  V30 10839 H 1024.99 -5.72602 0.282818 0
M  V30 10840 H 1023.39 -5.90793 1.05281 0
M  V30 10841 H 1024.46 -4.58994 1.56372 0
M  V30 10842 N 1025.8 -0.366053 -1.5329 0
M  V30 10843 C 1027.03 0.226839 -2.06156 0
M  V30 10844 C 1027.45 1.41637 -1.23776 0
M  V30 10845 O 1026.81 1.7947 -0.256948 0
M  V30 10846 C 1026.86 0.597956 -3.55608 0
M  V30 10847 O 1025.96 1.69512 -3.75951 0
M  V30 10848 H 1025.3 0.0329156 -0.663184 0
M  V30 10849 H 1027.83 -0.526793 -1.97702 0
M  V30 10850 H 1027.84 0.868831 -3.98642 0
M  V30 10851 H 1026.52 -0.271838 -4.15011 0
M  V30 10852 H 1025.09 1.41976 -3.44815 0
M  V30 10853 N 1027.28 1.57312 -0.0952337 0
M  V30 10854 C 1028.69 1.81589 0.433875 0
M  V30 10855 C 1029.04 1.01086 1.68155 0
M  V30 10856 O 1028.17 0.240272 2.15062 0
M  V30 10857 C 1028.76 3.29366 0.793931 0
M  V30 10858 C 1027.32 3.54407 1.26778 0
M  V30 10859 C 1026.47 2.76035 0.264518 0
M  V30 10860 H 1029.42 1.55426 -0.320675 0
M  V30 10861 H 1029.44 3.42697 1.65345 0
M  V30 10862 H 1028.95 3.87932 -0.114334 0
M  V30 10863 H 1027.05 3.01173 2.19376 0
M  V30 10864 H 1027.17 4.63055 1.22952 0
M  V30 10865 H 1025.53 2.43509 0.746691 0
M  V30 10866 H 1026.31 3.37349 -0.636429 0
M  V30 10867 N 1028.76 -0.17846 1.56586 0
M  V30 10868 C 1029.67 -1.24115 1.9908 0
M  V30 10869 C 1030.68 -1.48854 0.901031 0
M  V30 10870 O 1031.86 -1.61142 1.2081 0
M  V30 10871 C 1028.92 -2.56187 2.33601 0
M  V30 10872 C 1027.99 -2.39373 3.56369 0
M  V30 10873 C 1027.22 -3.65147 3.89234 0
M  V30 10874 O 1027.44 -4.70024 3.23162 0
M  V30 10875 O 1026.38 -3.59683 4.82609 0
M  V30 10876 H 1030.2 -0.910482 2.89731 0
M  V30 10877 H 1027.79 -0.38477 1.4436 0
M  V30 10878 H 1029.67 -3.34109 2.56806 0
M  V30 10879 H 1028.34 -2.88847 1.46113 0
M  V30 10880 H 1027.25 -1.59506 3.38391 0
M  V30 10881 H 1028.58 -2.1164 4.44375 0
M  V30 10882 N 1030.24 -1.51135 -0.446768 0
M  V30 10883 C 1031.2 -1.71187 -1.52406 0
M  V30 10884 C 1032.2 -0.582037 -1.49897 0
M  V30 10885 O 1033.39 -0.849452 -1.52085 0
M  V30 10886 C 1030.52 -1.75962 -2.91976 0
M  V30 10887 H 1031.71 -2.67324 -1.35934 0
M  V30 10888 H 1029.27 -1.40982 -0.674813 0
M  V30 10889 H 1030 -0.816065 -3.13864 0
M  V30 10890 H 1029.79 -2.58065 -2.95203 0
M  V30 10891 H 1031.28 -1.93347 -3.70144 0
M  V30 10892 N 1031.71 0.701592 -1.41122 0
M  V30 10893 C 1032.96 1.45871 -1.39879 0
M  V30 10894 C 1033.28 1.94999 -0.00668769 0
M  V30 10895 O 1032.55 1.71298 0.95047 0
M  V30 10896 H 1031.13 0.541231 -0.514857 0
M  V30 10897 H 1033.79 0.830803 -1.76306 0
M  V30 10898 H 1032.89 2.32479 -2.0823 0
M  V30 10899 N 1033.19 1.2685 0.935242 0
M  V30 10900 C 1034.6 1.11569 1.49697 0
M  V30 10901 C 1034.95 -0.301952 1.93863 0
M  V30 10902 O 1034.08 -1.19408 1.80473 0
M  V30 10903 C 1034.67 2.01918 2.72056 0
M  V30 10904 C 1033.23 1.90765 3.24477 0
M  V30 10905 C 1032.38 1.94918 1.97237 0
M  V30 10906 H 1035.33 1.39853 0.750116 0
M  V30 10907 H 1035.35 1.57056 3.46574 0
M  V30 10908 H 1034.86 3.05088 2.39881 0
M  V30 10909 H 1032.96 0.905521 3.61429 0
M  V30 10910 H 1033.08 2.76611 3.91182 0
M  V30 10911 H 1031.44 1.39046 2.13397 0
M  V30 10912 H 1032.22 2.99729 1.67385 0
M  V30 10913 N 1034.67 -1.14067 1.0875 0
M  V30 10914 C 1035.95 -1.81389 0.73195 0
M  V30 10915 C 1036.33 -1.96005 -0.78391 0
M  V30 10916 O 1035.68 -1.52267 -1.70373 0
M  V30 10917 C 1035.89 -3.16858 1.46294 0
M  V30 10918 C 1037.23 -3.92305 1.62426 0
M  V30 10919 O 1038.26 -3.26459 1.42488 0
M  V30 10920 O 1037.12 -5.10393 1.9535 0
M  V30 10921 H 1034.21 -0.784354 0.262141 0
M  V30 10922 H 1036.76 -1.21054 1.18929 0
M  V30 10923 H 1035.53 -3.01404 2.49542 0
M  V30 10924 H 1035.15 -3.84889 0.997318 0
M  V30 10925 N 1036.15 -0.873678 -1.31166 0
M  V30 10926 C 1037.56 -0.53852 -1.78765 0
M  V30 10927 C 1037.91 0.944765 -1.71955 0
M  V30 10928 O 1037.04 1.73781 -1.28954 0
M  V30 10929 C 1037.63 -0.970749 -3.24595 0
M  V30 10930 C 1036.19 -0.687189 -3.70074 0
M  V30 10931 C 1035.34 -1.16001 -2.51871 0
M  V30 10932 H 1038.29 -1.05903 -1.18196 0
M  V30 10933 H 1038.31 -0.294966 -3.79355 0
M  V30 10934 H 1037.82 -2.05034 -3.29519 0
M  V30 10935 H 1035.92 0.380881 -3.70648 0
M  V30 10936 H 1036.03 -1.26682 -4.62048 0
M  V30 10937 H 1034.4 -0.579663 -2.48016 0
M  V30 10938 H 1035.18 -2.2471 -2.59539 0
M  V30 10939 N 1037.63 1.44308 -0.633487 0
M  V30 10940 C 1038.87 2.01624 -0.138643 0
M  V30 10941 C 1039.2 1.50101 1.24477 0
M  V30 10942 O 1038.47 0.705575 1.82752 0
M  V30 10943 H 1037.05 0.745439 -0.0482636 0
M  V30 10944 H 1039.71 1.76777 -0.820719 0
M  V30 10945 H 1038.8 3.11913 -0.108136 0
M  V30 10946 N 1039.1 0.374177 1.53094 0
M  V30 10947 C 1040.38 -0.269632 1.93733 0
M  V30 10948 C 1040.76 -1.6566 1.30843 0
M  V30 10949 O 1040.11 -2.23598 0.470759 0
M  V30 10950 C 1040.32 -0.311204 3.4761 0
M  V30 10951 C 1041.67 -0.547432 4.21056 0
M  V30 10952 O 1042.69 -0.392053 3.54036 0
M  V30 10953 O 1041.55 -0.850645 5.39839 0
M  V30 10954 H 1038.64 -0.163723 0.810632 0
M  V30 10955 H 1041.19 0.427586 1.64225 0
M  V30 10956 H 1039.96 0.660897 3.85678 0
M  V30 10957 H 1039.59 -1.05397 3.83376 0
M  V30 10958 N 1040.58 -1.57259 0.103575 0
M  V30 10959 C 1041.51 -2.17509 -0.84923 0
M  V30 10960 C 1042.49 -1.11079 -1.28824 0
M  V30 10961 O 1043.68 -1.39252 -1.35361 0
M  V30 10962 C 1040.81 -2.76221 -2.10522 0
M  V30 10963 C 1039.76 -3.88098 -1.80454 0
M  V30 10964 C 1039.09 -4.33549 -3.12952 0
M  V30 10965 C 1040.39 -5.10909 -1.08486 0
M  V30 10966 H 1042.08 -2.9738 -0.347217 0
M  V30 10967 H 1039.63 -1.43045 -0.165568 0
M  V30 10968 H 1041.58 -3.17024 -2.77621 0
M  V30 10969 H 1040.31 -1.93617 -2.63021 0
M  V30 10970 H 1038.96 -3.47847 -1.15749 0
M  V30 10971 H 1038.61 -3.47825 -3.63355 0
M  V30 10972 H 1038.31 -5.08984 -2.93614 0
M  V30 10973 H 1039.84 -4.76992 -3.81196 0
M  V30 10974 H 1041.25 -5.48828 -1.65711 0
M  V30 10975 H 1039.65 -5.91828 -0.992973 0
M  V30 10976 H 1040.72 -4.84851 -0.0690108 0
M  V30 10977 N 1042.06 0.170153 -1.56679 0
M  V30 10978 C 1043.47 0.732502 -1.7173 0
M  V30 10979 C 1043.82 1.82736 -0.71428 0
M  V30 10980 O 1042.95 2.16044 0.124102 0
M  V30 10981 C 1043.54 1.33548 -3.11368 0
M  V30 10982 C 1042.1 1.84464 -3.281 0
M  V30 10983 C 1041.25 0.724069 -2.6768 0
M  V30 10984 H 1044.2 -0.0552543 -1.58604 0
M  V30 10985 H 1044.22 2.20519 -3.10083 0
M  V30 10986 H 1043.73 0.5384 -3.84347 0
M  V30 10987 H 1041.83 2.66813 -2.6008 0
M  V30 10988 H 1041.95 1.98928 -4.35849 0
M  V30 10989 H 1040.31 1.14481 -2.27522 0
M  V30 10990 H 1041.09 -0.0611861 -3.43245 0
M  V30 10991 N 1043.54 1.5137 0.438746 0
M  V30 10992 C 1044.47 1.75528 1.53987 0
M  V30 10993 C 1045.45 0.605067 1.58975 0
M  V30 10994 O 1046.63 0.847634 1.74725 0
M  V30 10995 C 1043.76 1.87904 2.92078 0
M  V30 10996 C 1042.72 3.0333 3.01951 0
M  V30 10997 C 1042.04 3.00888 4.42007 0
M  V30 10998 C 1043.34 4.43319 2.76163 0
M  V30 10999 H 1045.04 2.67728 1.34022 0
M  V30 11000 H 1042.58 1.28831 0.643308 0
M  V30 11001 H 1044.54 2.03388 3.69068 0
M  V30 11002 H 1043.26 0.923514 3.13271 0
M  V30 11003 H 1041.92 2.87549 2.274 0
M  V30 11004 H 1041.57 2.03116 4.60166 0
M  V30 11005 H 1041.27 3.78397 4.49544 0
M  V30 11006 H 1042.79 3.18464 5.20973 0
M  V30 11007 H 1044.21 4.59458 3.42887 0
M  V30 11008 H 1042.6 5.22523 2.9511 0
M  V30 11009 H 1043.67 4.53453 1.71779 0
M  V30 11010 N 1045.02 -0.694098 1.41492 0
M  V30 11011 C 1046.29 -1.44875 1.31418 0
M  V30 11012 C 1046.67 -2.11022 -0.0575538 0
M  V30 11013 O 1046.02 -2.01799 -1.07188 0
M  V30 11014 C 1046.23 -2.46698 2.46863 0
M  V30 11015 C 1047.58 -3.11907 2.88095 0
M  V30 11016 O 1048.6 -2.57022 2.46613 0
M  V30 11017 O 1047.46 -4.11318 3.59833 0
M  V30 11018 H 1044.56 -0.645266 0.517263 0
M  V30 11019 H 1047.1 -0.724452 1.53459 0
M  V30 11020 H 1045.87 -1.96485 3.38392 0
M  V30 11021 H 1045.5 -3.26634 2.26706 0
M  V30 11022 N 1046.49 -1.27344 -0.928501 0
M  V30 11023 C 1047.44 -1.09835 -2.05034 0
M  V30 11024 C 1048.44 -0.0216643 -1.69386 0
M  V30 11025 O 1049.64 -0.179323 -1.79105 0
M  V30 11026 H 1046.02 -0.338416 -0.671549 0
M  V30 11027 H 1047.99 -2.04879 -2.1695 0
M  V30 11028 C 1046.74 -0.761462 -3.3926 0
M  V30 11029 H 1046.06 -1.58186 -3.67175 0
M  V30 11030 H 1047.5 -0.678812 -4.18531 0
M  V30 11031 C 1045.96 0.534118 -3.32639 0
M  V30 11032 O 1046.49 1.56877 -3.69801 0
M  V30 11033 N 1044.7 0.529437 -2.85736 0
M  V30 11034 H 1044.24 -0.312954 -2.55692 0
M  V30 11035 H 1044.2 1.39637 -2.81689 0
M  V30 11036 N 1047.97 1.13488 -1.09353 0
M  V30 11037 C 1048.9 2.18563 -0.69012 0
M  V30 11038 C 1049.92 1.60585 0.267651 0
M  V30 11039 O 1051.11 1.78419 0.0538176 0
M  V30 11040 C 1048.21 3.389 0.00391255 0
M  V30 11041 C 1047.38 4.2639 -0.975209 0
M  V30 11042 C 1046.44 5.25258 -0.314719 0
M  V30 11043 O 1045.46 5.6101 -0.962119 0
M  V30 11044 N 1046.67 5.72978 0.931458 0
M  V30 11045 H 1049.43 2.53788 -1.59411 0
M  V30 11046 H 1046.99 1.28803 -0.980886 0
M  V30 11047 H 1048.98 4.02112 0.45696 0
M  V30 11048 H 1047.55 3.0192 0.81014 0
M  V30 11049 H 1046.77 3.59964 -1.60684 0
M  V30 11050 H 1048.06 4.817 -1.63836 0
M  V30 11051 H 1047.46 5.46078 1.477 0
M  V30 11052 H 1046.02 6.38131 1.32784 0
M  V30 11053 N 1049.45 0.880621 1.30701 0
M  V30 11054 C 1050.87 0.574015 1.4892 0
M  V30 11055 C 1051.07 -0.889312 1.80813 0
M  V30 11056 O 1050.12 -1.67082 1.89314 0
M  V30 11057 C 1051.44 1.48341 2.61563 0
M  V30 11058 C 1052.98 1.48658 2.75445 0
M  V30 11059 C 1053.46 2.3818 3.91196 0
M  V30 11060 N 1054.95 2.36119 3.985 0
M  V30 11061 C 1055.69 3.02101 4.87363 0
M  V30 11062 N 1055.18 3.77293 5.81052 0
M  V30 11063 N 1056.97 2.91356 4.80696 0
M  V30 11064 H 1049.13 1.82732 1.08271 0
M  V30 11065 H 1051.39 0.781939 0.535981 0
M  V30 11066 H 1051.09 2.52515 2.44804 0
M  V30 11067 H 1050.97 1.18977 3.57944 0
M  V30 11068 H 1053.36 0.452374 2.91612 0
M  V30 11069 H 1053.44 1.8205 1.79698 0
M  V30 11070 H 1053.08 3.41683 3.75786 0
M  V30 11071 H 1053.01 2.02106 4.86272 0
M  V30 11072 H 1055.5 1.81474 3.31475 0
M  V30 11073 H 1055.81 4.24742 6.45612 0
M  V30 11074 H 1054.16 3.81401 5.80998 0
M  V30 11075 H 1057.35 2.32143 4.06481 0
M  V30 11076 H 1057.52 3.43056 5.49742 0
M  V30 11077 N 1050.93 -1.4397 0.641131 0
M  V30 11078 C 1052.16 -2.06303 0.157006 0
M  V30 11079 C 1052.57 -1.47981 -1.17248 0
M  V30 11080 O 1051.93 -0.606471 -1.72128 0
M  V30 11081 C 1051.98 -3.6147 0.0468425 0
M  V30 11082 O 1051.7 -4.17622 1.32376 0
M  V30 11083 C 1053.2 -4.40857 -0.464795 0
M  V30 11084 H 1050.42 -0.665684 0.0842946 0
M  V30 11085 H 1052.97 -1.84675 0.878363 0
M  V30 11086 H 1051.12 -3.82325 -0.625006 0
M  V30 11087 H 1051.54 -5.11167 1.17509 0
M  V30 11088 H 1053.01 -5.49813 -0.490862 0
M  V30 11089 H 1053.49 -4.13016 -1.4938 0
M  V30 11090 H 1054.09 -4.24943 0.174146 0
M  V30 11091 O 1052.45 -0.524482 -1.52746 0
M  V30 11092 H 1053.14 -0.0130834 -1.93696 0
M  V30 END ATOM
M  V30 BEGIN BOND
M  V30 END BOND
M  V30 END CTAB
M  END
$$$$
